# Generated by pormake.
# Topology pyr, (3,6)-cn, num edge types: 1
# Building blocks:
#     Node 0, Type 0, BuildingBlock: WUSLED_clean_sbu_0, # of connection points: 3
#     Node 1, Type 0, BuildingBlock: WUSLED_clean_sbu_0, # of connection points: 3
#     Node 2, Type 0, BuildingBlock: WUSLED_clean_sbu_0, # of connection points: 3
#     Node 3, Type 0, BuildingBlock: WUSLED_clean_sbu_0, # of connection points: 3
#     Node 4, Type 0, BuildingBlock: WUSLED_clean_sbu_0, # of connection points: 3
#     Node 5, Type 0, BuildingBlock: WUSLED_clean_sbu_0, # of connection points: 3
#     Node 6, Type 0, BuildingBlock: WUSLED_clean_sbu_0, # of connection points: 3
#     Node 7, Type 0, BuildingBlock: WUSLED_clean_sbu_0, # of connection points: 3
#     Node 8, Type 1, BuildingBlock: MIFKUJ_clean_sbu_0, # of connection points: 6
#     Node 9, Type 1, BuildingBlock: MIFKUJ_clean_sbu_0, # of connection points: 6
#     Node 10, Type 1, BuildingBlock: MIFKUJ_clean_sbu_0, # of connection points: 6
#     Node 11, Type 1, BuildingBlock: MIFKUJ_clean_sbu_0, # of connection points: 6
#     Edge 12, Type (0, 1), BuildingBlock: ZUJKAS_clean_linker_0, # of connection points: 2
#     Edge 13, Type (0, 1), BuildingBlock: ZUJKAS_clean_linker_0, # of connection points: 2
#     Edge 14, Type (0, 1), BuildingBlock: ZUJKAS_clean_linker_0, # of connection points: 2
#     Edge 15, Type (0, 1), BuildingBlock: ZUJKAS_clean_linker_0, # of connection points: 2
#     Edge 16, Type (0, 1), BuildingBlock: ZUJKAS_clean_linker_0, # of connection points: 2
#     Edge 17, Type (0, 1), BuildingBlock: ZUJKAS_clean_linker_0, # of connection points: 2
#     Edge 18, Type (0, 1), BuildingBlock: ZUJKAS_clean_linker_0, # of connection points: 2
#     Edge 19, Type (0, 1), BuildingBlock: ZUJKAS_clean_linker_0, # of connection points: 2
#     Edge 20, Type (0, 1), BuildingBlock: ZUJKAS_clean_linker_0, # of connection points: 2
#     Edge 21, Type (0, 1), BuildingBlock: ZUJKAS_clean_linker_0, # of connection points: 2
#     Edge 22, Type (0, 1), BuildingBlock: ZUJKAS_clean_linker_0, # of connection points: 2
#     Edge 23, Type (0, 1), BuildingBlock: ZUJKAS_clean_linker_0, # of connection points: 2
#     Edge 24, Type (0, 1), BuildingBlock: ZUJKAS_clean_linker_0, # of connection points: 2
#     Edge 25, Type (0, 1), BuildingBlock: ZUJKAS_clean_linker_0, # of connection points: 2
#     Edge 26, Type (0, 1), BuildingBlock: ZUJKAS_clean_linker_0, # of connection points: 2
#     Edge 27, Type (0, 1), BuildingBlock: ZUJKAS_clean_linker_0, # of connection points: 2
#     Edge 28, Type (0, 1), BuildingBlock: ZUJKAS_clean_linker_0, # of connection points: 2
#     Edge 29, Type (0, 1), BuildingBlock: ZUJKAS_clean_linker_0, # of connection points: 2
#     Edge 30, Type (0, 1), BuildingBlock: ZUJKAS_clean_linker_0, # of connection points: 2
#     Edge 31, Type (0, 1), BuildingBlock: ZUJKAS_clean_linker_0, # of connection points: 2
#     Edge 32, Type (0, 1), BuildingBlock: ZUJKAS_clean_linker_0, # of connection points: 2
#     Edge 33, Type (0, 1), BuildingBlock: ZUJKAS_clean_linker_0, # of connection points: 2
#     Edge 34, Type (0, 1), BuildingBlock: ZUJKAS_clean_linker_0, # of connection points: 2
#     Edge 35, Type (0, 1), BuildingBlock: ZUJKAS_clean_linker_0, # of connection points: 2
# Relax obj value: 0.024
# Max RMSD: 0.079
# Mean RMSD: 0.044
data_MOF--net-pyr--node1-WUSLED_clean_sbu_0--node2-MIFKUJ_clean_sbu_0--edge1-ZUJKAS_clean_linker_0
_symmetry_space_group_name_H-M    P1
_symmetry_Int_Tables_number       1
_symmetry_cell_setting            triclinic
loop_
_symmetry_equiv_pos_as_xyz
'x, y, z'
_cell_length_a     62.032254
_cell_length_b     56.054126
_cell_length_c     60.903704
_cell_angle_alpha  86.273331
_cell_angle_beta   89.043111
_cell_angle_gamma 95.461162
loop_
_atom_site_label
_atom_site_type_symbol
_atom_site_fract_x
_atom_site_fract_y
_atom_site_fract_z
_atom_type_partial_charge
C0 C 0.18751 0.22316 0.15233 0.0
C1 C 0.16565 0.22304 0.15875 0.0
C2 C 0.16303 0.26038 0.13651 0.0
C3 C 0.1535 0.24142 0.15085 0.0
C4 C 0.18507 0.26057 0.13048 0.0
C5 C 0.19715 0.24211 0.13829 0.0
U6 U 0.19883 0.1733 0.19483 0.0
O7 O 0.20805 0.13694 0.19073 0.0
O8 O 0.2299 0.16273 0.20742 0.0
C9 C 0.22738 0.14174 0.19884 0.0
C10 C 0.20044 0.20376 0.16013 0.0
C11 C 0.24595 0.13546 0.18558 0.0
C12 C 0.26181 0.12519 0.15101 0.0
C13 C 0.24419 0.13191 0.16301 0.0
C14 C 0.28341 0.12613 0.18375 0.0
C15 C 0.28159 0.12213 0.16127 0.0
C16 C 0.26574 0.13263 0.19579 0.0
C17 C 0.16097 0.16247 0.24614 0.0
C18 C 0.15319 0.1259 0.26982 0.0
C19 C 0.14323 0.1638 0.28184 0.0
C20 C 0.15184 0.17546 0.26222 0.0
C21 C 0.14347 0.13881 0.28576 0.0
C22 C 0.16189 0.13764 0.25019 0.0
C23 C 0.16844 0.17512 0.22503 0.0
O24 O 0.21164 0.20778 0.17787 0.0
O25 O 0.1906 0.18189 0.16046 0.0
O26 O 0.16566 0.16291 0.20741 0.0
O27 O 0.18727 0.18803 0.2251 0.0
H28 H 0.15794 0.20862 0.16972 0.0
H29 H 0.13655 0.24053 0.15566 0.0
H30 H 0.19306 0.27509 0.11984 0.0
H31 H 0.21405 0.24261 0.13332 0.0
H32 H 0.25999 0.12249 0.13366 0.0
H33 H 0.22918 0.13418 0.15463 0.0
H34 H 0.29837 0.12368 0.19217 0.0
H35 H 0.26747 0.13525 0.21317 0.0
H36 H 0.15352 0.10663 0.27221 0.0
H37 H 0.13629 0.17439 0.29391 0.0
H38 H 0.15108 0.19466 0.25945 0.0
H39 H 0.16894 0.12725 0.23801 0.0
C40 C 0.28984 0.85078 0.6408 0.0
C41 C 0.28253 0.86883 0.65311 0.0
C42 C 0.25285 0.87332 0.62788 0.0
C43 C 0.26417 0.88 0.64673 0.0
C44 C 0.26031 0.85516 0.61565 0.0
C45 C 0.27864 0.84401 0.62207 0.0
U46 U 0.33731 0.84345 0.67877 0.0
O47 O 0.35085 0.81084 0.69214 0.0
O48 O 0.37109 0.83754 0.67096 0.0
C49 C 0.36944 0.81618 0.68144 0.0
C50 C 0.30915 0.83897 0.64724 0.0
C51 C 0.37727 0.79685 0.66918 0.0
C52 C 0.37181 0.76615 0.6429 0.0
C53 C 0.36412 0.7848 0.65408 0.0
C54 C 0.40593 0.77174 0.66158 0.0
C55 C 0.3928 0.75932 0.64658 0.0
C56 C 0.3982 0.79029 0.67277 0.0
C57 C 0.34625 0.8823 0.72716 0.0
C58 C 0.37632 0.87722 0.75151 0.0
C59 C 0.35185 0.90739 0.75798 0.0
C60 C 0.34001 0.90072 0.73963 0.0
C61 C 0.37015 0.8957 0.76416 0.0
C62 C 0.36447 0.87059 0.73317 0.0
C63 C 0.33368 0.87535 0.70797 0.0
O64 O 0.32761 0.85258 0.64492 0.0
O65 O 0.30732 0.82585 0.66598 0.0
O66 O 0.32342 0.85367 0.70986 0.0
O67 O 0.34372 0.8804 0.68882 0.0
H68 H 0.29107 0.87432 0.66761 0.0
H69 H 0.25904 0.8941 0.65637 0.0
H70 H 0.25182 0.84935 0.60124 0.0
H71 H 0.28406 0.83005 0.61241 0.0
H72 H 0.36118 0.75683 0.63165 0.0
H73 H 0.34789 0.78968 0.65109 0.0
H74 H 0.42228 0.76728 0.66454 0.0
H75 H 0.4086 0.79953 0.68429 0.0
H76 H 0.39047 0.86807 0.75563 0.0
H77 H 0.3465 0.92148 0.7675 0.0
H78 H 0.32593 0.90989 0.73523 0.0
H79 H 0.36954 0.85635 0.72365 0.0
C80 C 0.63382 0.36488 0.7785 0.0
C81 C 0.64876 0.38038 0.76552 0.0
C82 C 0.62006 0.39073 0.74075 0.0
C83 C 0.64195 0.39313 0.74675 0.0
C84 C 0.60519 0.37529 0.75396 0.0
C85 C 0.61202 0.36249 0.77262 0.0
U86 U 0.67294 0.35321 0.82537 0.0
O87 O 0.66561 0.34148 0.86011 0.0
O88 O 0.68332 0.31908 0.83927 0.0
C89 C 0.67388 0.32093 0.85849 0.0
C90 C 0.64052 0.35099 0.79814 0.0
C91 C 0.6603 0.2995 0.86753 0.0
C92 C 0.63163 0.26735 0.86402 0.0
C93 C 0.64412 0.28794 0.85507 0.0
C94 C 0.65122 0.26997 0.89801 0.0
C95 C 0.63505 0.25814 0.88562 0.0
C96 C 0.66372 0.29043 0.88903 0.0
C97 C 0.72443 0.39396 0.83249 0.0
C98 C 0.74805 0.38626 0.86308 0.0
C99 C 0.75735 0.42016 0.83679 0.0
C100 C 0.73856 0.41399 0.82523 0.0
C101 C 0.76234 0.40638 0.85587 0.0
C102 C 0.72926 0.3801 0.85147 0.0
C103 C 0.70465 0.38774 0.82029 0.0
O104 O 0.65784 0.33951 0.79568 0.0
O105 O 0.64011 0.36178 0.81664 0.0
O106 O 0.6864 0.39 0.83089 0.0
O107 O 0.70429 0.36771 0.81015 0.0
H108 H 0.66566 0.38257 0.76989 0.0
H109 H 0.65377 0.40506 0.73707 0.0
H110 H 0.58829 0.37276 0.74967 0.0
H111 H 0.60027 0.35059 0.78242 0.0
H112 H 0.61916 0.2588 0.85414 0.0
H113 H 0.64119 0.29479 0.83845 0.0
H114 H 0.65449 0.26317 0.91455 0.0
H115 H 0.67618 0.29913 0.89885 0.0
H116 H 0.7515 0.3751 0.87754 0.0
H117 H 0.76781 0.43595 0.83096 0.0
H118 H 0.73502 0.42493 0.81065 0.0
H119 H 0.71851 0.36451 0.85729 0.0
C120 C 0.79772 0.62613 0.31625 0.0
C121 C 0.78926 0.64345 0.32868 0.0
C122 C 0.75971 0.61425 0.34226 0.0
C123 C 0.77036 0.6376 0.34148 0.0
C124 C 0.76833 0.59692 0.32986 0.0
C125 C 0.78718 0.60285 0.31693 0.0
U126 U 0.84944 0.66646 0.3046 0.0
O127 O 0.88251 0.65835 0.29646 0.0
O128 O 0.86538 0.68127 0.27345 0.0
C129 C 0.88258 0.66966 0.27685 0.0
C130 C 0.81783 0.6321 0.3031 0.0
C131 C 0.88931 0.65614 0.25846 0.0
C132 C 0.88596 0.62064 0.23741 0.0
C133 C 0.87922 0.63325 0.25499 0.0
C134 C 0.91273 0.65383 0.2265 0.0
C135 C 0.90281 0.6308 0.22296 0.0
C136 C 0.90603 0.66635 0.2441 0.0
C137 C 0.8604 0.71904 0.34174 0.0
C138 C 0.8951 0.74043 0.34952 0.0
C139 C 0.86176 0.75747 0.35815 0.0
C140 C 0.84984 0.73767 0.35003 0.0
C141 C 0.88452 0.75896 0.35822 0.0
C142 C 0.88314 0.72067 0.34125 0.0
C143 C 0.84728 0.69781 0.33454 0.0
O144 O 0.81873 0.65228 0.29068 0.0
O145 O 0.83573 0.62941 0.31383 0.0
O146 O 0.85533 0.67708 0.3382 0.0
O147 O 0.83856 0.70033 0.31511 0.0
H148 H 0.79734 0.66147 0.32856 0.0
H149 H 0.76429 0.65124 0.35107 0.0
H150 H 0.76039 0.57885 0.32999 0.0
H151 H 0.79355 0.58924 0.30751 0.0
H152 H 0.87785 0.60306 0.235 0.0
H153 H 0.86615 0.62517 0.26587 0.0
H154 H 0.92592 0.66203 0.21587 0.0
H155 H 0.91399 0.68401 0.24655 0.0
H156 H 0.91262 0.74121 0.34914 0.0
H157 H 0.85311 0.77128 0.36497 0.0
H158 H 0.8323 0.7367 0.35058 0.0
H159 H 0.89163 0.70655 0.33477 0.0
C160 C 0.83322 0.78959 0.86802 0.0
C161 C 0.85493 0.78907 0.86134 0.0
C162 C 0.85721 0.75214 0.8843 0.0
C163 C 0.86684 0.77057 0.86946 0.0
C164 C 0.83533 0.75265 0.89067 0.0
C165 C 0.82349 0.77123 0.88263 0.0
U166 U 0.8244 0.84001 0.8254 0.0
O167 O 0.79435 0.85091 0.81063 0.0
O168 O 0.81481 0.87627 0.82917 0.0
C169 C 0.79627 0.87182 0.81936 0.0
C170 C 0.82056 0.80902 0.85974 0.0
C171 C 0.77696 0.87803 0.83131 0.0
C172 C 0.75594 0.87927 0.86522 0.0
C173 C 0.77406 0.87249 0.85404 0.0
C174 C 0.74316 0.89663 0.83096 0.0
C175 C 0.74032 0.8916 0.85384 0.0
C176 C 0.76132 0.88995 0.81984 0.0
C177 C 0.86575 0.85159 0.77714 0.0
C178 C 0.86276 0.87989 0.74561 0.0
C179 C 0.89539 0.85971 0.75039 0.0
C180 C 0.8865 0.84764 0.7697 0.0
C181 C 0.88366 0.87601 0.73811 0.0
C182 C 0.85389 0.86781 0.76504 0.0
C183 C 0.85696 0.83858 0.79756 0.0
O184 O 0.83025 0.83088 0.86029 0.0
O185 O 0.81058 0.80535 0.84123 0.0
O186 O 0.83824 0.82576 0.79605 0.0
O187 O 0.85833 0.85074 0.81529 0.0
H188 H 0.8627 0.80305 0.84995 0.0
H189 H 0.88368 0.77092 0.86437 0.0
H190 H 0.82725 0.73855 0.90171 0.0
H191 H 0.80669 0.77123 0.8878 0.0
H192 H 0.75443 0.87529 0.88285 0.0
H193 H 0.78594 0.86318 0.86319 0.0
H194 H 0.73129 0.90564 0.82157 0.0
H195 H 0.76321 0.89421 0.80226 0.0
H196 H 0.85339 0.89247 0.73663 0.0
H197 H 0.91136 0.85601 0.74492 0.0
H198 H 0.89584 0.83512 0.77883 0.0
H199 H 0.83784 0.87113 0.77063 0.0
C200 C 0.64448 0.16235 0.297 0.0
C201 C 0.65826 0.14871 0.28561 0.0
C202 C 0.62971 0.13879 0.25976 0.0
C203 C 0.65095 0.13708 0.26708 0.0
C204 C 0.61599 0.15239 0.27137 0.0
C205 C 0.62333 0.16407 0.2898 0.0
U206 U 0.68402 0.17284 0.34366 0.0
O207 O 0.69736 0.20654 0.35691 0.0
O208 O 0.67738 0.17971 0.37819 0.0
C209 C 0.68724 0.20157 0.37603 0.0
C210 C 0.65181 0.17485 0.31641 0.0
C211 C 0.67476 0.22054 0.38375 0.0
C212 C 0.64849 0.24966 0.37757 0.0
C213 C 0.65985 0.23123 0.37012 0.0
C214 C 0.6665 0.24651 0.41249 0.0
C215 C 0.65178 0.25764 0.39882 0.0
C216 C 0.67789 0.22817 0.405 0.0
C217 C 0.73248 0.13623 0.35025 0.0
C218 C 0.7574 0.14139 0.38032 0.0
C219 C 0.76388 0.11355 0.35266 0.0
C220 C 0.74516 0.11937 0.34191 0.0
C221 C 0.77025 0.1245 0.37198 0.0
C222 C 0.73867 0.14723 0.36951 0.0
C223 C 0.71292 0.14221 0.33866 0.0
O224 O 0.6504 0.16166 0.33511 0.0
O225 O 0.6701 0.18874 0.31382 0.0
O226 O 0.71424 0.16365 0.32834 0.0
O227 O 0.69457 0.13668 0.34975 0.0
H228 H 0.67463 0.14707 0.29105 0.0
H229 H 0.66184 0.12655 0.25863 0.0
H230 H 0.59965 0.15433 0.26601 0.0
H231 H 0.6125 0.17455 0.29841 0.0
H232 H 0.63746 0.25797 0.36652 0.0
H233 H 0.65718 0.22548 0.35365 0.0
H234 H 0.66916 0.25188 0.42907 0.0
H235 H 0.68922 0.21998 0.41579 0.0
H236 H 0.76196 0.15033 0.39502 0.0
H237 H 0.77321 0.10022 0.34598 0.0
H238 H 0.74055 0.11067 0.32708 0.0
H239 H 0.72906 0.16037 0.37612 0.0
C240 C 0.29903 0.61932 0.19079 0.0
C241 C 0.29458 0.63342 0.17182 0.0
C242 C 0.26144 0.60751 0.1667 0.0
C243 C 0.27596 0.62757 0.15987 0.0
C244 C 0.26601 0.5935 0.18579 0.0
C245 C 0.28465 0.59937 0.19771 0.0
U246 U 0.35086 0.65922 0.19824 0.0
O247 O 0.36594 0.67297 0.22792 0.0
O248 O 0.3835 0.65024 0.20724 0.0
C249 C 0.38318 0.66132 0.22559 0.0
C250 C 0.31869 0.62522 0.20328 0.0
C251 C 0.38999 0.64775 0.24537 0.0
C252 C 0.3821 0.62068 0.27798 0.0
C253 C 0.37507 0.63305 0.25908 0.0
C254 C 0.41899 0.63732 0.26942 0.0
C255 C 0.40416 0.62267 0.28336 0.0
C256 C 0.41195 0.64972 0.25065 0.0
C257 C 0.36461 0.71227 0.1556 0.0
C258 C 0.39251 0.74518 0.15939 0.0
C259 C 0.37561 0.73994 0.12422 0.0
C260 C 0.36274 0.71985 0.1334 0.0
C261 C 0.39063 0.7529 0.1371 0.0
C262 C 0.37966 0.72496 0.16855 0.0
C263 C 0.35064 0.6912 0.16478 0.0
O264 O 0.33699 0.6225 0.19297 0.0
O265 O 0.31924 0.64537 0.21326 0.0
O266 O 0.34111 0.69345 0.18388 0.0
O267 O 0.35853 0.6704 0.16344 0.0
H268 H 0.30552 0.64895 0.16627 0.0
H269 H 0.27282 0.63892 0.14543 0.0
H270 H 0.25536 0.57776 0.19135 0.0
H271 H 0.28788 0.58824 0.21228 0.0
H272 H 0.3703 0.60938 0.28825 0.0
H273 H 0.35804 0.63119 0.2552 0.0
H274 H 0.43602 0.63956 0.27322 0.0
H275 H 0.42369 0.66102 0.24029 0.0
H276 H 0.40407 0.75464 0.16968 0.0
H277 H 0.37354 0.74558 0.1071 0.0
H278 H 0.35119 0.71028 0.12317 0.0
H279 H 0.38143 0.71926 0.18572 0.0
C280 C 0.12755 0.29391 0.70693 0.0
C281 C 0.1389 0.29008 0.68756 0.0
C282 C 0.11491 0.25393 0.68265 0.0
C283 C 0.13261 0.27034 0.6755 0.0
C284 C 0.10354 0.25792 0.70208 0.0
C285 C 0.10984 0.27777 0.71413 0.0
U286 U 0.16894 0.3456 0.71589 0.0
O287 O 0.1658 0.38289 0.72356 0.0
O288 O 0.18293 0.35944 0.74608 0.0
C289 C 0.17505 0.38029 0.74272 0.0
C290 C 0.13454 0.31449 0.71972 0.0
C291 C 0.16318 0.38839 0.76151 0.0
C292 C 0.13037 0.38804 0.78393 0.0
C293 C 0.14152 0.37974 0.76622 0.0
C294 C 0.16254 0.41342 0.79253 0.0
C295 C 0.14075 0.40502 0.79727 0.0
C296 C 0.17363 0.40518 0.77479 0.0
C297 C 0.21795 0.35348 0.67579 0.0
C298 C 0.2488 0.38314 0.67861 0.0
C299 C 0.24638 0.35813 0.64758 0.0
C300 C 0.2267 0.34679 0.65603 0.0
C301 C 0.25773 0.3764 0.65878 0.0
C302 C 0.22905 0.37176 0.68705 0.0
C303 C 0.19727 0.34114 0.68425 0.0
O304 O 0.1521 0.31211 0.73111 0.0
O305 O 0.13472 0.3356 0.70893 0.0
O306 O 0.18029 0.35326 0.68151 0.0
O307 O 0.19772 0.32993 0.70385 0.0
H308 H 0.15265 0.3024 0.68177 0.0
H309 H 0.14152 0.26805 0.66046 0.0
H310 H 0.09 0.2455 0.70818 0.0
H311 H 0.10099 0.28041 0.72912 0.0
H312 H 0.11368 0.38101 0.7873 0.0
H313 H 0.13324 0.36665 0.75617 0.0
H314 H 0.17093 0.4267 0.8023 0.0
H315 H 0.19035 0.41206 0.77135 0.0
H316 H 0.25722 0.39698 0.68775 0.0
H317 H 0.25257 0.35278 0.6321 0.0
H318 H 0.21825 0.33278 0.64708 0.0
H319 H 0.22247 0.37713 0.70236 0.0
Zn320 Zn 0.03769 0.0149 0.53124 0.0
Zn321 Zn 0.98378 1.00225 0.49061 0.0
C322 C 0.06175 0.0553 0.54878 0.0
O323 O 0.07769 0.04666 0.53834 0.0
C324 C 0.9831 0.95372 0.47545 0.0
O325 O 0.99751 0.95057 0.49068 0.0
O326 O 0.06156 0.99419 0.5398 0.0
O327 O 0.0094 0.9975 0.54261 0.0
O328 O 0.98017 0.99045 0.52259 0.0
C329 C 0.0647 0.98875 0.56002 0.0
O330 O 0.05179 0.99612 0.57495 0.0
O331 O 0.0427 0.04487 0.54781 0.0
C332 C 0.95879 0.03151 0.46342 0.0
O333 O 0.97188 0.02421 0.44861 0.0
O334 O 0.96114 0.02506 0.48358 0.0
O335 O 0.0127 0.01763 0.47865 0.0
O336 O 0.04178 0.02466 0.4989 0.0
O337 O 0.97553 0.97395 0.47273 0.0
C338 C 0.98984 0.98891 0.54079 0.0
C339 C 0.03246 0.02546 0.48047 0.0
Zn340 Zn 0.51922 0.98673 0.98281 0.0
Zn341 Zn 0.50402 0.02424 0.03852 0.0
C342 C 0.49392 0.95894 0.95342 0.0
O343 O 0.50254 0.94177 0.96493 0.0
C344 C 0.54152 0.04016 0.06456 0.0
O345 O 0.55207 0.04314 0.04555 0.0
O346 O 0.54674 0.97295 0.97361 0.0
O347 O 0.52611 0.02257 0.98359 0.0
O348 O 0.51849 0.04335 0.01212 0.0
C349 C 0.55615 0.98168 0.95576 0.0
O350 O 0.54795 0.99944 0.94466 0.0
O351 O 0.49836 0.98056 0.95827 0.0
C352 C 0.46348 0.02675 0.06042 0.0
O353 O 0.47009 0.00783 0.07121 0.0
O354 O 0.47521 0.03706 0.04457 0.0
O355 O 0.49893 0.98809 0.03851 0.0
O356 O 0.50676 0.96745 0.00996 0.0
O357 O 0.52166 0.03201 0.06517 0.0
C358 C 0.52625 0.04232 0.99277 0.0
C359 C 0.49958 0.96829 0.02955 0.0
Zn360 Zn 0.53853 0.49876 0.49307 0.0
Zn361 Zn 0.48696 0.5184 0.53207 0.0
C362 C 0.56561 0.53864 0.4695 0.0
O363 O 0.54718 0.54693 0.46411 0.0
C364 C 0.4563 0.49655 0.56387 0.0
O365 O 0.46962 0.5089 0.57642 0.0
O366 O 0.54277 0.46649 0.48154 0.0
O367 O 0.53951 0.49447 0.52617 0.0
O368 O 0.51248 0.50478 0.5468 0.0
C369 C 0.56057 0.45824 0.48661 0.0
O370 O 0.57376 0.47042 0.49941 0.0
O371 O 0.56544 0.51961 0.48208 0.0
C372 C 0.46866 0.56287 0.53619 0.0
O373 O 0.45713 0.55471 0.51989 0.0
O374 O 0.48339 0.55069 0.54396 0.0
O375 O 0.48566 0.52228 0.49887 0.0
O376 O 0.5127 0.51169 0.47838 0.0
O377 O 0.46044 0.49726 0.54331 0.0
C378 C 0.53072 0.49643 0.54489 0.0
C379 C 0.4944 0.51996 0.48018 0.0
Zn380 Zn 0.98549 0.51561 0.9909 0.0
Zn381 Zn 0.03883 0.49945 0.03038 0.0
C382 C 0.95753 0.49207 0.96165 0.0
O383 O 0.97245 0.50347 0.94823 0.0
C384 C 0.0672 0.52248 0.05987 0.0
O385 O 0.05241 0.5111 0.07344 0.0
O386 O 0.97964 0.5478 0.97645 0.0
O387 O 0.98443 0.51905 0.02376 0.0
O388 O 0.01236 0.5109 0.04441 0.0
C389 C 0.96256 0.55607 0.98336 0.0
O390 O 0.95113 0.54398 0.99949 0.0
O391 O 0.95972 0.49349 0.98227 0.0
C392 C 0.06018 0.45755 0.03757 0.0
O393 O 0.07204 0.46902 0.02141 0.0
O394 O 0.04367 0.46685 0.04455 0.0
O395 O 0.03995 0.49665 0.99752 0.0
O396 O 0.01218 0.50472 0.97658 0.0
O397 O 0.06483 0.52104 0.03927 0.0
C398 C 0.99345 0.51763 0.04235 0.0
C399 C 0.03116 0.4982 0.97883 0.0
H400 H 0.15773 0.10182 0.31179 0.0
H401 H 0.14011 0.08133 0.34506 0.0
H402 H 0.08814 0.12705 0.33908 0.0
H403 H 0.10539 0.14736 0.30574 0.0
H404 H 0.10502 0.12285 0.38175 0.0
H405 H 0.08476 0.03379 0.34816 0.0
H406 H 0.11269 0.04566 0.3451 0.0
H407 H 0.09227 0.06072 0.33076 0.0
C408 C 0.14244 0.10735 0.31742 0.0
C409 C 0.13301 0.12627 0.30607 0.0
C410 C 0.1324 0.09563 0.33644 0.0
C411 C 0.11272 0.10253 0.3444 0.0
C412 C 0.10334 0.12146 0.33321 0.0
H413 H 0.01831 0.03054 0.43816 0.0
H414 H 0.03858 0.04904 0.40568 0.0
C415 C 0.11331 0.13314 0.31422 0.0
C416 C 0.10193 0.09037 0.36459 0.0
H417 H 0.07698 0.03674 0.38598 0.0
C418 C 0.09894 0.10401 0.38273 0.0
C419 C 0.09382 0.06586 0.36568 0.0
C420 C 0.09584 0.05062 0.34636 0.0
C421 C 0.08805 0.09379 0.40198 0.0
C422 C 0.08021 0.06919 0.40321 0.0
C423 C 0.08316 0.05555 0.38505 0.0
C424 C 0.06824 0.05749 0.42295 0.0
C425 C 0.08455 0.10957 0.42063 0.0
C426 C 0.0783 0.05579 0.44338 0.0
C427 C 0.06674 0.04528 0.46203 0.0
C428 C 0.04491 0.03612 0.46058 0.0
C429 C 0.03504 0.03747 0.43995 0.0
C430 C 0.04662 0.048 0.42133 0.0
H431 H 0.08698 0.12895 0.41516 0.0
H432 H 0.06797 0.10554 0.42792 0.0
H433 H 0.09632 0.1061 0.4337 0.0
H434 H 0.0951 0.06261 0.44491 0.0
H435 H 0.07493 0.04444 0.47759 0.0
H436 H 0.38142 0.94106 0.77715 0.0
H437 H 0.40218 0.95244 0.80932 0.0
H438 H 0.40802 0.87776 0.82758 0.0
H439 H 0.38717 0.8662 0.79559 0.0
H440 H 0.39314 0.93941 0.85416 0.0
H441 H 0.47088 0.90801 0.82704 0.0
H442 H 0.44889 0.91201 0.80852 0.0
H443 H 0.44815 0.88564 0.82707 0.0
C444 C 0.38701 0.92704 0.78808 0.0
C445 C 0.38272 0.90271 0.78372 0.0
C446 C 0.39894 0.93359 0.80639 0.0
C447 C 0.40692 0.91597 0.82063 0.0
C448 C 0.40244 0.89167 0.81652 0.0
H449 H 0.48103 0.91458 0.93953 0.0
H450 H 0.45923 0.90495 0.90768 0.0
C451 C 0.39053 0.88511 0.79821 0.0
C452 C 0.41962 0.92296 0.84001 0.0
H453 H 0.46877 0.91945 0.8638 0.0
C454 C 0.40972 0.93519 0.85624 0.0
C455 C 0.44124 0.91743 0.84265 0.0
C456 C 0.45303 0.90525 0.82532 0.0
C457 C 0.4207 0.94151 0.87532 0.0
C458 C 0.44227 0.9358 0.87803 0.0
C459 C 0.45221 0.92374 0.86172 0.0
C460 C 0.4548 0.94189 0.89778 0.0
C461 C 0.40893 0.95366 0.89268 0.0
C462 C 0.45961 0.9659 0.90276 0.0
C463 C 0.47205 0.97149 0.92102 0.0
C464 C 0.48004 0.95316 0.93454 0.0
C465 C 0.47513 0.92914 0.9295 0.0
C466 C 0.46269 0.92358 0.91128 0.0
H467 H 0.39109 0.95131 0.89072 0.0
H468 H 0.41276 0.94651 0.90945 0.0
H469 H 0.41416 0.97319 0.89125 0.0
H470 H 0.45406 0.98034 0.89231 0.0
H471 H 0.47565 0.99018 0.92436 0.0
H472 H 0.64004 0.39751 0.70001 0.0
H473 H 0.627 0.41794 0.66672 0.0
H474 H 0.57011 0.43361 0.70262 0.0
H475 H 0.58323 0.41373 0.73604 0.0
H476 H 0.58771 0.40561 0.6457 0.0
H477 H 0.59201 0.49895 0.67171 0.0
H478 H 0.60607 0.47587 0.68576 0.0
H479 H 0.57757 0.47707 0.69079 0.0
C480 C 0.62493 0.40566 0.70091 0.0
C481 C 0.61269 0.40401 0.72071 0.0
C482 C 0.61745 0.4172 0.68184 0.0
C483 C 0.59772 0.42755 0.68225 0.0
C484 C 0.58556 0.42611 0.70201 0.0
H485 H 0.51586 0.49445 0.58773 0.0
H486 H 0.53297 0.47804 0.62051 0.0
C487 C 0.59297 0.41451 0.72104 0.0
C488 C 0.58927 0.43877 0.66179 0.0
H489 H 0.57278 0.49115 0.63904 0.0
C490 C 0.58463 0.42437 0.64414 0.0
C491 C 0.58518 0.46321 0.65985 0.0
C492 C 0.59063 0.47978 0.67795 0.0
C493 C 0.57542 0.43355 0.62483 0.0
C494 C 0.57117 0.45797 0.62294 0.0
C495 C 0.57603 0.47244 0.64052 0.0
C496 C 0.56128 0.46868 0.60302 0.0
C497 C 0.56969 0.41683 0.60692 0.0
C498 C 0.57172 0.46933 0.58233 0.0
C499 C 0.56196 0.47864 0.56351 0.0
C500 C 0.54161 0.48768 0.56502 0.0
C501 C 0.53149 0.4876 0.5859 0.0
C502 C 0.54126 0.47823 0.60469 0.0
H503 H 0.56882 0.39767 0.61314 0.0
H504 H 0.55392 0.42032 0.59963 0.0
H505 H 0.58234 0.41977 0.59366 0.0
H506 H 0.5874 0.46254 0.58071 0.0
H507 H 0.57032 0.47856 0.54777 0.0
H508 H 0.90939 0.58311 0.22321 0.0
H509 H 0.9235 0.56174 0.19307 0.0
H510 H 0.92714 0.62674 0.15069 0.0
H511 H 0.91303 0.64821 0.18067 0.0
H512 H 0.90824 0.55458 0.15062 0.0
H513 H 0.98894 0.60687 0.1477 0.0
H514 H 0.96984 0.60744 0.1703 0.0
H515 H 0.9667 0.62507 0.14502 0.0
C516 C 0.91299 0.5928 0.20741 0.0
C517 C 0.91029 0.61743 0.2044 0.0
C518 C 0.92112 0.58058 0.19024 0.0
C519 C 0.92673 0.59276 0.16978 0.0
C520 C 0.9234 0.61714 0.16651 0.0
H521 H 0.9538 0.53544 0.04451 0.0
H522 H 0.93705 0.5519 0.07602 0.0
C523 C 0.91534 0.62938 0.18366 0.0
C524 C 0.93634 0.5801 0.15193 0.0
H525 H 0.98136 0.58118 0.11874 0.0
C526 C 0.92426 0.5603 0.14369 0.0
C527 C 0.95737 0.58739 0.14315 0.0
C528 C 0.97158 0.60771 0.15211 0.0
C529 C 0.93247 0.54793 0.12653 0.0
C530 C 0.95319 0.5558 0.11721 0.0
C531 C 0.96542 0.57528 0.12578 0.0
C532 C 0.96255 0.54425 0.09849 0.0
C533 C 0.91903 0.52639 0.11872 0.0
C534 C 0.98256 0.53466 0.10055 0.0
C535 C 0.99229 0.52539 0.0825 0.0
C536 C 0.98227 0.52566 0.06193 0.0
C537 C 0.96199 0.53487 0.06006 0.0
C538 C 0.95229 0.54417 0.07812 0.0
H539 H 0.90661 0.51881 0.13128 0.0
H540 H 0.91049 0.53189 0.10363 0.0
H541 H 0.92938 0.51209 0.11467 0.0
H542 H 0.9908 0.53463 0.1161 0.0
H543 H 0.00788 0.51846 0.08461 0.0
H544 H 0.28076 0.08641 0.13269 0.0
H545 H 0.3115 0.07179 0.11372 0.0
H546 H 0.3549 0.12546 0.14223 0.0
H547 H 0.32425 0.1399 0.16154 0.0
H548 H 0.3417 0.09281 0.08377 0.0
H549 H 0.38153 0.06448 0.16076 0.0
H550 H 0.35426 0.07312 0.16055 0.0
H551 H 0.377 0.09568 0.15878 0.0
C552 C 0.29684 0.09522 0.13478 0.0
C553 C 0.30011 0.11417 0.14877 0.0
C554 C 0.3144 0.08681 0.12396 0.0
C555 C 0.33557 0.09722 0.12687 0.0
C556 C 0.33879 0.11672 0.14019 0.0
H557 H 0.44931 0.0705 0.04813 0.0
H558 H 0.41798 0.08805 0.06313 0.0
C559 C 0.32126 0.12499 0.15118 0.0
C560 C 0.35424 0.08732 0.11628 0.0
H561 H 0.40126 0.0623 0.12746 0.0
C562 C 0.35473 0.08612 0.0933 0.0
C563 C 0.37108 0.07828 0.12876 0.0
C564 C 0.37091 0.0777 0.15359 0.0
C565 C 0.37165 0.07623 0.08248 0.0
C566 C 0.38876 0.06776 0.09493 0.0
C567 C 0.38822 0.06894 0.11789 0.0
C568 C 0.40709 0.05686 0.08473 0.0
C569 C 0.37071 0.07438 0.0579 0.0
C570 C 0.41159 0.03362 0.09203 0.0
C571 C 0.4296 0.0237 0.08371 0.0
C572 C 0.44353 0.03677 0.06785 0.0
C573 C 0.43879 0.05988 0.06019 0.0
C574 C 0.42082 0.0699 0.06868 0.0
H575 H 0.35401 0.07546 0.05184 0.0
H576 H 0.38128 0.08948 0.04957 0.0
H577 H 0.37652 0.05729 0.05307 0.0
H578 H 0.40126 0.02322 0.1044 0.0
H579 H 0.43274 0.00585 0.08994 0.0
H580 H 0.2416 0.88765 0.58608 0.0
H581 H 0.20937 0.90683 0.57477 0.0
H582 H 0.18777 0.90511 0.64256 0.0
H583 H 0.21986 0.88577 0.65403 0.0
H584 H 0.16559 0.88976 0.58171 0.0
H585 H 0.18521 0.97559 0.62101 0.0
H586 H 0.20506 0.95465 0.61691 0.0
H587 H 0.18558 0.94916 0.63928 0.0
C588 C 0.22994 0.89123 0.5986 0.0
C589 C 0.23336 0.88522 0.62099 0.0
C590 C 0.21159 0.90229 0.5921 0.0
C591 C 0.19633 0.9077 0.60784 0.0
C592 C 0.19957 0.90158 0.63018 0.0
H593 H 0.07548 0.97392 0.60171 0.0
H594 H 0.10691 0.95328 0.61295 0.0
C595 C 0.21794 0.89053 0.6367 0.0
C596 C 0.17681 0.91928 0.60082 0.0
H597 H 0.15028 0.96935 0.60599 0.0
C598 C 0.16226 0.90721 0.58693 0.0
C599 C 0.17251 0.94202 0.6077 0.0
C600 C 0.18798 0.95626 0.62189 0.0
C601 C 0.14332 0.91708 0.58003 0.0
C602 C 0.13902 0.93983 0.5869 0.0
C603 C 0.15358 0.95189 0.60079 0.0
C604 C 0.11956 0.95152 0.57984 0.0
C605 C 0.12784 0.90282 0.56586 0.0
C606 C 0.11626 0.95748 0.55748 0.0
C607 C 0.09826 0.96922 0.55097 0.0
C608 C 0.0833 0.97541 0.56675 0.0
C609 C 0.08665 0.96938 0.58913 0.0
C610 C 0.10463 0.95761 0.5956 0.0
H611 H 0.13045 0.88344 0.56699 0.0
H612 H 0.11075 0.90466 0.57065 0.0
H613 H 0.13045 0.90967 0.54843 0.0
H614 H 0.12782 0.95341 0.54506 0.0
H615 H 0.09626 0.97374 0.53362 0.0
H616 H 0.8028 0.42212 0.83905 0.0
H617 H 0.83529 0.4344 0.85924 0.0
H618 H 0.7998 0.4181 0.92069 0.0
H619 H 0.76712 0.40595 0.90062 0.0
H620 H 0.84002 0.47117 0.88833 0.0
H621 H 0.85461 0.38324 0.93017 0.0
H622 H 0.83689 0.38574 0.90708 0.0
H623 H 0.82786 0.39229 0.93402 0.0
C624 C 0.80186 0.42119 0.85686 0.0
C625 C 0.78232 0.41306 0.8682 0.0
C626 C 0.82048 0.42809 0.86837 0.0
C627 C 0.82004 0.42688 0.89147 0.0
C628 C 0.80063 0.41869 0.90289 0.0
H629 H 0.92042 0.47239 0.9839 0.0
H630 H 0.88656 0.45597 0.96785 0.0
C631 C 0.78196 0.41176 0.89138 0.0
C632 C 0.83968 0.43533 0.90343 0.0
H633 H 0.87741 0.4172 0.93958 0.0
C634 C 0.8482 0.45936 0.89952 0.0
C635 C 0.85021 0.41994 0.91818 0.0
C636 C 0.84208 0.39381 0.92255 0.0
C637 C 0.86699 0.46843 0.90987 0.0
C638 C 0.87782 0.45292 0.92422 0.0
C639 C 0.86909 0.42901 0.92852 0.0
C640 C 0.89866 0.46115 0.93419 0.0
C641 C 0.875 0.49461 0.90549 0.0
C642 C 0.91683 0.46878 0.92064 0.0
C643 C 0.9361 0.47814 0.9297 0.0
C644 C 0.93768 0.47992 0.95256 0.0
C645 C 0.91973 0.47131 0.96623 0.0
C646 C 0.90038 0.46195 0.9571 0.0
H647 H 0.86198 0.50532 0.89916 0.0
H648 H 0.88144 0.5024 0.92064 0.0
H649 H 0.88828 0.49632 0.89288 0.0
H650 H 0.916 0.46785 0.90296 0.0
H651 H 0.94965 0.48438 0.91869 0.0
H652 H 0.74936 0.574 0.36965 0.0
H653 H 0.71636 0.56378 0.39234 0.0
H654 H 0.69218 0.63024 0.36907 0.0
H655 H 0.725 0.64049 0.34615 0.0
H656 H 0.69887 0.59355 0.4261 0.0
H657 H 0.64349 0.57528 0.35688 0.0
H658 H 0.6725 0.57492 0.35415 0.0
H659 H 0.66083 0.60299 0.35441 0.0
C660 C 0.73693 0.58634 0.36923 0.0
C661 C 0.73974 0.60801 0.35604 0.0
C662 C 0.71819 0.58055 0.3823 0.0
C663 C 0.70182 0.59618 0.38222 0.0
C664 C 0.70458 0.61786 0.36919 0.0
H665 H 0.57219 0.57952 0.44211 0.0
H666 H 0.60571 0.59554 0.4224 0.0
C667 C 0.72338 0.62375 0.35623 0.0
C668 C 0.68187 0.58978 0.39582 0.0
H669 H 0.62775 0.573 0.3925 0.0
C670 C 0.68329 0.58907 0.41881 0.0
C671 C 0.66161 0.58414 0.38619 0.0
C672 C 0.65938 0.58417 0.36156 0.0
C673 C 0.66488 0.58292 0.4325 0.0
C674 C 0.64466 0.57675 0.42289 0.0
C675 C 0.64324 0.57777 0.39986 0.0
C676 C 0.62489 0.56827 0.43632 0.0
C677 C 0.66725 0.58344 0.45708 0.0
C678 C 0.62456 0.54769 0.45078 0.0
C679 C 0.60549 0.53859 0.46218 0.0
C680 C 0.58626 0.54971 0.45911 0.0
C681 C 0.58671 0.57055 0.44488 0.0
C682 C 0.60584 0.57971 0.43357 0.0
H683 H 0.68159 0.59556 0.46131 0.0
H684 H 0.65261 0.58941 0.465 0.0
H685 H 0.66954 0.56511 0.46409 0.0
H686 H 0.63888 0.5382 0.45277 0.0
H687 H 0.60569 0.5224 0.47287 0.0
H688 H 0.16485 0.28231 0.09491 0.0
H689 H 0.14411 0.31447 0.08047 0.0
H690 H 0.11003 0.31348 0.14286 0.0
H691 H 0.13149 0.28207 0.15784 0.0
H692 H 0.10045 0.31476 0.07568 0.0
H693 H 0.13053 0.38414 0.13192 0.0
H694 H 0.14317 0.35671 0.12952 0.0
H695 H 0.11852 0.35656 0.1455 0.0
C696 C 0.15322 0.28917 0.10572 0.0
C697 C 0.15003 0.27971 0.12763 0.0
C698 C 0.14121 0.30742 0.09736 0.0
C699 C 0.12573 0.31663 0.11066 0.0
C700 C 0.12219 0.30699 0.13242 0.0
H701 H 0.04516 0.43399 0.07657 0.0
H702 H 0.0586 0.39827 0.09508 0.0
C703 C 0.1343 0.2888 0.14087 0.0
C704 C 0.11322 0.33613 0.1015 0.0
H705 H 0.10374 0.39455 0.10693 0.0
C706 C 0.10111 0.33217 0.08257 0.0
C707 C 0.11401 0.35882 0.11057 0.0
C708 C 0.12739 0.36448 0.13038 0.0
C709 C 0.09006 0.35038 0.07228 0.0
C710 C 0.09128 0.37319 0.08104 0.0
C711 C 0.1028 0.37697 0.10033 0.0
C712 C 0.08218 0.39387 0.06945 0.0
C713 C 0.07727 0.34517 0.052 0.0
C714 C 0.09103 0.40318 0.04899 0.0
C715 C 0.08352 0.42356 0.03847 0.0
C716 C 0.06696 0.43505 0.04821 0.0
C717 C 0.05784 0.42547 0.06859 0.0
C718 C 0.06553 0.40513 0.0792 0.0
H719 H 0.07328 0.32557 0.05072 0.0
H720 H 0.06199 0.35401 0.05199 0.0
H721 H 0.08703 0.35232 0.03717 0.0
H722 H 0.10412 0.39496 0.04135 0.0
H723 H 0.09091 0.43048 0.02282 0.0
H724 H 0.6174 0.25003 0.92722 0.0
H725 H 0.59776 0.21308 0.94368 0.0
H726 H 0.60313 0.17977 0.88224 0.0
H727 H 0.62324 0.2165 0.86576 0.0
H728 H 0.55861 0.18763 0.9302 0.0
H729 H 0.62866 0.13281 0.92774 0.0
H730 H 0.63178 0.1652 0.92429 0.0
H731 H 0.62236 0.14781 0.902 0.0
C732 C 0.61453 0.23479 0.91724 0.0
C733 C 0.62206 0.23614 0.89522 0.0
C734 C 0.60319 0.21376 0.92663 0.0
C735 C 0.59927 0.1936 0.91427 0.0
C736 C 0.60628 0.19502 0.89215 0.0
H737 H 0.54159 0.04817 0.95008 0.0
H738 H 0.55815 0.08494 0.93044 0.0
C739 C 0.61758 0.21609 0.88271 0.0
C740 C 0.58797 0.17108 0.92468 0.0
H741 H 0.59512 0.11282 0.94039 0.0
C742 C 0.56656 0.17125 0.93243 0.0
C743 C 0.59839 0.14975 0.92751 0.0
C744 C 0.62162 0.14878 0.92013 0.0
C745 C 0.55521 0.15058 0.94283 0.0
C746 C 0.56574 0.12934 0.94597 0.0
C747 C 0.58708 0.12912 0.93798 0.0
C748 C 0.55507 0.10723 0.9578 0.0
C749 C 0.53194 0.15158 0.95005 0.0
C750 C 0.54801 0.10747 0.9798 0.0
C751 C 0.53848 0.08648 0.9911 0.0
C752 C 0.536 0.06473 0.98068 0.0
C753 C 0.54323 0.06455 0.95866 0.0
C754 C 0.5527 0.08557 0.94737 0.0
H755 H 0.52452 0.16647 0.94098 0.0
H756 H 0.52207 0.13443 0.94752 0.0
H757 H 0.53131 0.15473 0.96784 0.0
H758 H 0.55015 0.12385 0.98836 0.0
H759 H 0.5333 0.08728 0.00808 0.0
H760 H 0.91883 0.75739 0.38578 0.0
H761 H 0.93735 0.79064 0.40446 0.0
H762 H 0.89695 0.83979 0.37179 0.0
H763 H 0.87833 0.80666 0.35312 0.0
H764 H 0.96014 0.83416 0.38864 0.0
H765 H 0.88664 0.84957 0.43692 0.0
H766 H 0.88847 0.823 0.42204 0.0
H767 H 0.88294 0.85075 0.40771 0.0
C768 C 0.91408 0.77533 0.38236 0.0
C769 C 0.89697 0.77937 0.36813 0.0
C770 C 0.92462 0.79428 0.39311 0.0
C771 C 0.91822 0.81757 0.38984 0.0
C772 C 0.90177 0.82183 0.37496 0.0
H773 H 0.95351 0.95471 0.44277 0.0
H774 H 0.93917 0.92152 0.42153 0.0
C775 C 0.89117 0.8029 0.36429 0.0
C776 C 0.9284 0.83732 0.40236 0.0
H777 H 0.91706 0.87829 0.43895 0.0
C778 C 0.95077 0.84377 0.39972 0.0
C779 C 0.91613 0.84972 0.41688 0.0
C780 C 0.89226 0.84281 0.42127 0.0
C781 C 0.96111 0.86273 0.41082 0.0
C782 C 0.94877 0.87528 0.42512 0.0
C783 C 0.92645 0.86869 0.42788 0.0
C784 C 0.95854 0.89552 0.43729 0.0
C785 C 0.98503 0.86955 0.40676 0.0
C786 C 0.97418 0.89189 0.45324 0.0
C787 C 0.98245 0.91086 0.46546 0.0
C788 C 0.9751 0.93376 0.46201 0.0
C789 C 0.95954 0.93732 0.44587 0.0
C790 C 0.95131 0.91838 0.4337 0.0
H791 H 0.99102 0.86204 0.39162 0.0
H792 H 0.98869 0.88937 0.40527 0.0
H793 H 0.99408 0.86238 0.42089 0.0
H794 H 0.97968 0.87426 0.45656 0.0
H795 H 0.99434 0.90748 0.47781 0.0
H796 H 0.38695 0.74867 0.60358 0.0
H797 H 0.40034 0.71551 0.5848 0.0
H798 H 0.43138 0.69215 0.64417 0.0
H799 H 0.41732 0.72453 0.66332 0.0
H800 H 0.44221 0.70558 0.57713 0.0
H801 H 0.39755 0.63059 0.62802 0.0
H802 H 0.39115 0.66126 0.62882 0.0
H803 H 0.41364 0.65115 0.6439 0.0
C804 C 0.39634 0.73626 0.61275 0.0
C805 C 0.40096 0.73924 0.63501 0.0
C806 C 0.40413 0.71743 0.60194 0.0
C807 C 0.41659 0.70114 0.61317 0.0
C808 C 0.42143 0.7042 0.63529 0.0
H809 H 0.48255 0.57935 0.57541 0.0
H810 H 0.471 0.61389 0.59362 0.0
C811 C 0.4136 0.72295 0.64614 0.0
C812 C 0.42492 0.68124 0.60163 0.0
H813 H 0.42485 0.62018 0.6035 0.0
C814 C 0.43833 0.68691 0.58283 0.0
C815 C 0.41983 0.65687 0.60907 0.0
C816 C 0.40459 0.64953 0.62843 0.0
C817 C 0.44703 0.66886 0.57149 0.0
C818 C 0.4421 0.64457 0.57909 0.0
C819 C 0.42872 0.63888 0.59785 0.0
C820 C 0.45014 0.62468 0.56744 0.0
C821 C 0.46168 0.67585 0.55164 0.0
C822 C 0.44224 0.61941 0.54669 0.0
C823 C 0.44868 0.59964 0.53631 0.0
C824 C 0.4632 0.58482 0.54647 0.0
C825 C 0.47144 0.59048 0.56708 0.0
C826 C 0.46483 0.61015 0.57754 0.0
H827 H 0.4673 0.69532 0.55047 0.0
H828 H 0.47604 0.66542 0.55216 0.0
H829 H 0.45274 0.67168 0.53651 0.0
H830 H 0.43069 0.63027 0.53875 0.0
H831 H 0.44202 0.59578 0.52045 0.0
H832 H 0.86402 0.88453 0.69869 0.0
H833 H 0.88076 0.90363 0.66439 0.0
H834 H 0.94176 0.91536 0.6968 0.0
H835 H 0.9252 0.89644 0.73107 0.0
H836 H 0.90227 0.94983 0.6549 0.0
H837 H 0.95735 0.87906 0.64342 0.0
H838 H 0.93457 0.87492 0.66258 0.0
H839 H 0.9594 0.89151 0.66981 0.0
C840 C 0.88095 0.89137 0.69856 0.0
C841 C 0.89334 0.88873 0.71755 0.0
C842 C 0.8905 0.90218 0.67893 0.0
C843 C 0.91261 0.91045 0.67794 0.0
C844 C 0.92482 0.90854 0.69705 0.0
H845 H 1.00531 0.98094 0.58224 0.0
H846 H 0.98557 0.96203 0.61485 0.0
C847 C 0.91532 0.89772 0.71662 0.0
C848 C 0.923 0.92112 0.657 0.0
H849 H 0.96406 0.915 0.62033 0.0
C850 C 0.91566 0.94213 0.64721 0.0
C851 C 0.94042 0.91097 0.64699 0.0
C852 C 0.9483 0.88774 0.6561 0.0
C853 C 0.92576 0.95373 0.62806 0.0
C854 C 0.94345 0.94382 0.61831 0.0
C855 C 0.95056 0.92261 0.62791 0.0
C856 C 0.95516 0.95543 0.5984 0.0
C857 C 0.91786 0.97687 0.61877 0.0
C858 C 0.94465 0.95773 0.57826 0.0
C859 C 0.9559 0.96851 0.55952 0.0
C860 C 0.97791 0.97716 0.56057 0.0
C861 C 0.98839 0.97459 0.58079 0.0
C862 C 0.97714 0.96376 0.59947 0.0
H863 H 0.90745 0.98481 0.6308 0.0
H864 H 0.93172 0.99023 0.61372 0.0
H865 H 0.90819 0.97326 0.60398 0.0
H866 H 0.92779 0.95101 0.57698 0.0
H867 H 0.94732 0.97008 0.54423 0.0
H868 H 0.65126 0.13646 0.2204 0.0
H869 H 0.63744 0.11819 0.18731 0.0
H870 H 0.57675 0.09538 0.22137 0.0
H871 H 0.5904 0.11357 0.25445 0.0
H872 H 0.62144 0.07084 0.18014 0.0
H873 H 0.55818 0.13355 0.16659 0.0
H874 H 0.58004 0.13898 0.18537 0.0
H875 H 0.55689 0.11831 0.19349 0.0
C876 C 0.63504 0.12736 0.2209 0.0
C877 C 0.62185 0.12667 0.23999 0.0
C878 C 0.62715 0.11701 0.20196 0.0
C879 C 0.60593 0.10584 0.20176 0.0
C880 C 0.59298 0.10444 0.221 0.0
H881 H 0.52384 0.03755 0.10618 0.0
H882 H 0.54056 0.05232 0.13936 0.0
C883 C 0.60081 0.11484 0.23989 0.0
C884 C 0.59721 0.09583 0.18139 0.0
H885 H 0.5567 0.10011 0.14449 0.0
C886 C 0.60736 0.0773 0.17225 0.0
C887 C 0.57889 0.10436 0.17111 0.0
C888 C 0.56796 0.12505 0.17949 0.0
C889 C 0.5993 0.06665 0.1534 0.0
C890 C 0.5808 0.07499 0.14331 0.0
C891 C 0.5708 0.09366 0.15235 0.0
C892 C 0.57139 0.06463 0.1234 0.0
C893 C 0.6103 0.04618 0.14474 0.0
C894 C 0.58322 0.06661 0.1034 0.0
C895 C 0.5737 0.05817 0.08436 0.0
C896 C 0.55214 0.04772 0.08495 0.0
C897 C 0.54047 0.04548 0.10511 0.0
C898 C 0.54999 0.05393 0.12411 0.0
H899 H 0.62089 0.03821 0.15718 0.0
H900 H 0.59817 0.03186 0.13961 0.0
H901 H 0.62052 0.05295 0.13011 0.0
H902 H 0.59962 0.07522 0.1024 0.0
H903 H 0.58311 0.06028 0.0691 0.0
H904 H 0.38522 0.61753 0.32468 0.0
H905 H 0.39924 0.59855 0.35821 0.0
H906 H 0.45432 0.57988 0.32118 0.0
H907 H 0.44045 0.59871 0.28766 0.0
H908 H 0.40983 0.5514 0.36857 0.0
H909 H 0.48225 0.61738 0.3705 0.0
H910 H 0.45951 0.62236 0.35325 0.0
H911 H 0.47937 0.60313 0.34502 0.0
C912 C 0.40021 0.60916 0.32363 0.0
C913 C 0.41184 0.60987 0.30352 0.0
C914 C 0.40823 0.59841 0.34282 0.0
C915 C 0.42804 0.58823 0.34228 0.0
C916 C 0.43928 0.58816 0.3221 0.0
H917 H 0.50924 0.52089 0.43744 0.0
H918 H 0.49209 0.53631 0.40432 0.0
C919 C 0.43132 0.59894 0.30295 0.0
C920 C 0.43713 0.57791 0.3628 0.0
H921 H 0.48122 0.58311 0.39563 0.0
C922 C 0.42538 0.55839 0.37457 0.0
C923 C 0.45741 0.5871 0.37063 0.0
C924 C 0.47031 0.60879 0.35934 0.0
C925 C 0.43362 0.54742 0.39367 0.0
C926 C 0.45401 0.55647 0.40134 0.0
C927 C 0.46566 0.57611 0.38966 0.0
C928 C 0.46366 0.54591 0.42145 0.0
C929 C 0.4207 0.52589 0.40516 0.0
C930 C 0.45339 0.54619 0.44213 0.0
C931 C 0.46315 0.53736 0.46115 0.0
C932 C 0.48346 0.52818 0.4599 0.0
C933 C 0.49359 0.52774 0.43909 0.0
C934 C 0.48382 0.53659 0.4201 0.0
H935 H 0.40831 0.51758 0.3943 0.0
H936 H 0.43145 0.5121 0.41083 0.0
H937 H 0.4122 0.53163 0.41981 0.0
H938 H 0.43803 0.55372 0.44363 0.0
H939 H 0.45487 0.53805 0.47686 0.0
H940 H 0.15542 0.41286 0.8386 0.0
H941 H 0.13627 0.42908 0.86887 0.0
H942 H 0.08033 0.43444 0.82839 0.0
H943 H 0.09936 0.41822 0.79804 0.0
H944 H 0.11973 0.4731 0.86981 0.0
H945 H 0.05415 0.39891 0.88449 0.0
H946 H 0.07816 0.39595 0.86811 0.0
H947 H 0.05646 0.41142 0.85656 0.0
C948 C 0.13904 0.41752 0.83612 0.0
C949 C 0.12889 0.41419 0.81591 0.0
C950 C 0.1281 0.4267 0.85346 0.0
C951 C 0.10677 0.43267 0.851 0.0
C952 C 0.09659 0.42944 0.83084 0.0
H953 H 0.01628 0.49407 0.93693 0.0
H954 H 0.03492 0.47943 0.90552 0.0
C955 C 0.1075 0.42017 0.8135 0.0
C956 C 0.09547 0.443 0.8693 0.0
H957 H 0.0509 0.43399 0.90361 0.0
C958 C 0.10472 0.46451 0.87726 0.0
C959 C 0.07586 0.43179 0.87895 0.0
C960 C 0.06564 0.40813 0.87176 0.0
C961 C 0.09476 0.47528 0.89444 0.0
C962 C 0.07519 0.46404 0.90412 0.0
C963 C 0.06587 0.4426 0.8961 0.0
C964 C 0.06434 0.47394 0.92292 0.0
C965 C 0.10508 0.49878 0.90186 0.0
C966 C 0.0747 0.47568 0.94313 0.0
C967 C 0.06412 0.48405 0.96113 0.0
C968 C 0.04288 0.49074 0.95932 0.0
C969 C 0.03263 0.48918 0.93894 0.0
C970 C 0.04324 0.48075 0.92096 0.0
H971 H 0.11664 0.50805 0.88924 0.0
H972 H 0.0926 0.51098 0.9056 0.0
H973 H 0.11417 0.49527 0.91709 0.0
H974 H 0.09085 0.47013 0.94512 0.0
H975 H 0.07252 0.48496 0.97654 0.0
H976 H 0.72168 0.93377 0.84685 0.0
H977 H 0.69021 0.94655 0.86588 0.0
H978 H 0.68463 0.88075 0.90719 0.0
H979 H 0.71585 0.86746 0.88788 0.0
H980 H 0.64713 0.9204 0.86998 0.0
H981 H 0.685 0.9357 0.95074 0.0
H982 H 0.70086 0.93444 0.92577 0.0
H983 H 0.68799 0.90733 0.93938 0.0
C984 C 0.71369 0.92186 0.85983 0.0
C985 C 0.72133 0.89952 0.86576 0.0
C986 C 0.69578 0.92929 0.87079 0.0
C987 C 0.68524 0.9147 0.88806 0.0
C988 C 0.69277 0.89244 0.89412 0.0
H989 H 0.57459 0.94147 0.97143 0.0
H990 H 0.60545 0.92385 0.95539 0.0
C991 C 0.71065 0.88491 0.88309 0.0
C992 C 0.66601 0.92266 0.89922 0.0
H993 H 0.64812 0.94213 0.94768 0.0
C994 C 0.6473 0.92511 0.88698 0.0
C995 C 0.66625 0.92854 0.92145 0.0
C996 C 0.68611 0.92656 0.93517 0.0
C997 C 0.62883 0.93344 0.89633 0.0
C998 C 0.62928 0.94012 0.91836 0.0
C999 C 0.64783 0.93712 0.93077 0.0
C1000 C 0.61094 0.95103 0.92848 0.0
C1001 C 0.60892 0.93477 0.88256 0.0
C1002 C 0.60411 0.97245 0.91899 0.0
C1003 C 0.58649 0.98248 0.92803 0.0
C1004 C 0.57544 0.97145 0.94693 0.0
C1005 C 0.58271 0.95037 0.95683 0.0
C1006 C 0.60033 0.94028 0.94769 0.0
H1007 H 0.60884 0.9224 0.86903 0.0
H1008 H 0.59388 0.93028 0.89273 0.0
H1009 H 0.60874 0.9533 0.875 0.0
H1010 H 0.61241 0.98142 0.90451 0.0
H1011 H 0.58149 0.99885 0.9201 0.0
H1012 H 0.77614 0.11684 0.41633 0.0
H1013 H 0.80875 0.10536 0.43481 0.0
H1014 H 0.84171 0.10558 0.37188 0.0
H1015 H 0.80948 0.11771 0.35336 0.0
H1016 H 0.82925 0.06413 0.42943 0.0
H1017 H 0.8855 0.14524 0.40734 0.0
H1018 H 0.85651 0.14487 0.40473 0.0
H1019 H 0.87251 0.13281 0.38397 0.0
C1020 C 0.79045 0.11485 0.40646 0.0
C1021 C 0.7902 0.11822 0.38336 0.0
C1022 C 0.80903 0.10817 0.41703 0.0
C1023 C 0.82776 0.10496 0.40475 0.0
C1024 C 0.82759 0.10842 0.38173 0.0
H1025 H 0.94959 0.04765 0.4217 0.0
H1026 H 0.91775 0.06688 0.40954 0.0
C1027 C 0.80904 0.11505 0.37114 0.0
C1028 C 0.8471 0.09667 0.41581 0.0
H1029 H 0.9016 0.11015 0.42082 0.0
C1030 C 0.84502 0.07432 0.42783 0.0
C1031 C 0.86765 0.11003 0.41369 0.0
C1032 C 0.8707 0.13468 0.40191 0.0
C1033 C 0.8631 0.06446 0.43698 0.0
C1034 C 0.88376 0.07752 0.43432 0.0
C1035 C 0.88575 0.10016 0.4228 0.0
C1036 C 0.90366 0.06732 0.44222 0.0
C1037 C 0.86011 0.03971 0.44858 0.0
C1038 C 0.90656 0.06171 0.46471 0.0
C1039 C 0.92478 0.05066 0.47175 0.0
C1040 C 0.94044 0.0451 0.4564 0.0
C1041 C 0.93782 0.05155 0.43396 0.0
C1042 C 0.91964 0.06259 0.42697 0.0
H1043 H 0.84411 0.03012 0.44525 0.0
H1044 H 0.87302 0.02867 0.44345 0.0
H1045 H 0.86116 0.04131 0.4666 0.0
H1046 H 0.8946 0.06561 0.47679 0.0
H1047 H 0.92636 0.04604 0.48916 0.0
H1048 H 0.22058 0.59204 0.18265 0.0
H1049 H 0.18836 0.58056 0.16172 0.0
H1050 H 0.22493 0.59791 0.10102 0.0
H1051 H 0.25743 0.60873 0.12183 0.0
H1052 H 0.167 0.60823 0.13019 0.0
H1053 H 0.19801 0.52912 0.09418 0.0
H1054 H 0.21075 0.54337 0.11702 0.0
H1055 H 0.21497 0.55687 0.08953 0.0
C1056 C 0.22186 0.59317 0.16485 0.0
C1057 C 0.24166 0.60114 0.15394 0.0
C1058 C 0.20338 0.58678 0.15291 0.0
C1059 C 0.20431 0.58808 0.12982 0.0
C1060 C 0.22392 0.5964 0.11884 0.0
H1061 H 0.1038 0.54282 0.03721 0.0
H1062 H 0.13713 0.56132 0.05268 0.0
C1063 C 0.24243 0.60281 0.13077 0.0
C1064 C 0.18467 0.58075 0.11736 0.0
H1065 H 0.16354 0.53905 0.08311 0.0
C1066 C 0.16626 0.59316 0.11983 0.0
C1067 C 0.18378 0.56116 0.10376 0.0
C1068 C 0.20284 0.54668 0.10103 0.0
C1069 C 0.14691 0.58639 0.10922 0.0
C1070 C 0.14584 0.56642 0.09608 0.0
C1071 C 0.16442 0.55439 0.09315 0.0
C1072 C 0.12526 0.55671 0.08645 0.0
C1073 C 0.12779 0.60072 0.11213 0.0
C1074 C 0.10757 0.54795 0.10028 0.0
C1075 C 0.08859 0.53739 0.09153 0.0
C1076 C 0.08689 0.53524 0.06872 0.0
C1077 C 0.10454 0.5443 0.05482 0.0
C1078 C 0.1236 0.55482 0.06364 0.0
H1079 H 0.13298 0.61918 0.11685 0.0
H1080 H 0.11838 0.60198 0.09681 0.0
H1081 H 0.11694 0.59171 0.12546 0.0
H1082 H 0.10863 0.54874 0.11796 0.0
H1083 H 0.07537 0.53054 0.10273 0.0
H1084 H 0.27227 0.42427 0.65749 0.0
H1085 H 0.30644 0.44385 0.64157 0.0
H1086 H 0.3245 0.37543 0.62294 0.0
H1087 H 0.29078 0.35559 0.63951 0.0
H1088 H 0.35793 0.40242 0.64164 0.0
H1089 H 0.32032 0.45657 0.57584 0.0
H1090 H 0.31053 0.4608 0.60309 0.0
H1091 H 0.30539 0.43199 0.59183 0.0
C1092 C 0.2836 0.41335 0.65021 0.0
C1093 C 0.2787 0.38837 0.64964 0.0
C1094 C 0.30301 0.42461 0.64088 0.0
C1095 C 0.31781 0.41115 0.63069 0.0
C1096 C 0.31321 0.38618 0.63053 0.0
H1097 H 0.4252 0.46893 0.5429 0.0
H1098 H 0.39204 0.4471 0.55913 0.0
C1099 C 0.29385 0.3749 0.63988 0.0
C1100 C 0.33821 0.42302 0.62036 0.0
H1101 H 0.35816 0.46531 0.58041 0.0
C1102 C 0.358 0.41612 0.62821 0.0
C1103 C 0.33824 0.44061 0.6026 0.0
C1104 C 0.3175 0.44781 0.59267 0.0
C1105 C 0.37784 0.42668 0.61906 0.0
C1106 C 0.37787 0.4449 0.60186 0.0
C1107 C 0.35809 0.45147 0.59372 0.0
C1108 C 0.39825 0.45756 0.59219 0.0
C1109 C 0.39857 0.41797 0.6277 0.0
C1110 C 0.41264 0.47082 0.60536 0.0
C1111 C 0.4316 0.48321 0.59618 0.0
C1112 C 0.43647 0.48279 0.57357 0.0
C1113 C 0.42197 0.46957 0.56038 0.0
C1114 C 0.40301 0.45712 0.56961 0.0
H1115 H 0.39572 0.39976 0.6362 0.0
H1116 H 0.41074 0.41749 0.6142 0.0
H1117 H 0.40545 0.43043 0.63978 0.0
H1118 H 0.40907 0.47185 0.62272 0.0
H1119 H 0.44232 0.49335 0.60679 0.0
H1120 H 0.85572 0.73088 0.92618 0.0
H1121 H 0.87583 0.69807 0.94057 0.0
H1122 H 0.90799 0.69651 0.87749 0.0
H1123 H 0.8875 0.72894 0.86266 0.0
H1124 H 0.87595 0.65064 0.92096 0.0
H1125 H 0.95749 0.70111 0.92467 0.0
H1126 H 0.93288 0.71597 0.92432 0.0
H1127 H 0.9427 0.7045 0.89964 0.0
C1128 C 0.86692 0.72347 0.91526 0.0
C1129 C 0.86991 0.73256 0.89321 0.0
C1130 C 0.87851 0.70484 0.92358 0.0
C1131 C 0.8935 0.69507 0.91014 0.0
C1132 C 0.8967 0.70409 0.8882 0.0
H1133 H 0.97622 0.57998 0.94401 0.0
H1134 H 0.9601 0.61365 0.9249 0.0
C1135 C 0.88501 0.72267 0.87979 0.0
C1136 C 0.90512 0.6748 0.91902 0.0
H1137 H 0.95452 0.65996 0.93627 0.0
C1138 C 0.89314 0.65262 0.92425 0.0
C1139 C 0.92757 0.67743 0.923 0.0
C1140 C 0.94102 0.70103 0.91776 0.0
C1141 C 0.90298 0.63299 0.93363 0.0
C1142 C 0.92528 0.63585 0.93849 0.0
C1143 C 0.93741 0.65786 0.93267 0.0
C1144 C 0.93597 0.61644 0.95044 0.0
C1145 C 0.88938 0.60931 0.93809 0.0
C1146 C 0.92821 0.60739 0.9714 0.0
C1147 C 0.93725 0.58817 0.98225 0.0
C1148 C 0.95448 0.57779 0.9725 0.0
C1149 C 0.96293 0.58757 0.95193 0.0
C1150 C 0.95373 0.60677 0.94098 0.0
H1151 H 0.87501 0.608 0.92742 0.0
H1152 H 0.89894 0.59394 0.93539 0.0
H1153 H 0.88344 0.60775 0.95546 0.0
H1154 H 0.91492 0.61502 0.97929 0.0
H1155 H 0.93053 0.58127 0.99819 0.0
H1156 H 0.40007 0.79619 0.15503 0.0
H1157 H 0.42023 0.83248 0.13769 0.0
H1158 H 0.4315 0.79479 0.07971 0.0
H1159 H 0.41142 0.75851 0.09688 0.0
H1160 H 0.4629 0.84108 0.12068 0.0
H1161 H 0.40294 0.85348 0.0553 0.0
H1162 H 0.39717 0.83325 0.07939 0.0
H1163 H 0.41295 0.82442 0.05679 0.0
C1164 C 0.40703 0.79557 0.13867 0.0
C1165 C 0.40395 0.77453 0.12724 0.0
C1166 C 0.41847 0.81634 0.12877 0.0
C1167 C 0.42699 0.81646 0.10726 0.0
C1168 C 0.42459 0.79527 0.09611 0.0
H1169 H 0.49467 0.92297 0.01479 0.0
H1170 H 0.4783 0.88614 0.0345 0.0
C1171 C 0.41312 0.77455 0.10595 0.0
C1172 C 0.43816 0.8388 0.09633 0.0
H1173 H 0.43598 0.87857 0.05169 0.0
C1174 C 0.45699 0.84937 0.10565 0.0
C1175 C 0.43037 0.84959 0.07675 0.0
C1176 C 0.40964 0.83977 0.06655 0.0
C1177 C 0.46852 0.87015 0.09562 0.0
C1178 C 0.46082 0.88079 0.07593 0.0
C1179 C 0.44193 0.87029 0.06671 0.0
C1180 C 0.47195 0.90294 0.06462 0.0
C1181 C 0.4891 0.88023 0.10589 0.0
C1182 C 0.47382 0.92462 0.07503 0.0
C1183 C 0.48321 0.94575 0.06382 0.0
C1184 C 0.49077 0.94564 0.04191 0.0
C1185 C 0.48908 0.92377 0.03164 0.0
C1186 C 0.47969 0.90268 0.04287 0.0
H1187 H 0.49569 0.86677 0.1175 0.0
H1188 H 0.50169 0.8865 0.09308 0.0
H1189 H 0.48566 0.89584 0.11524 0.0
H1190 H 0.4676 0.92534 0.09167 0.0
H1191 H 0.48424 0.96221 0.07227 0.0
H1192 H 0.07387 0.23484 0.67359 0.0
H1193 H 0.06355 0.20026 0.65214 0.0
H1194 H 0.13097 0.19126 0.64053 0.0
H1195 H 0.14142 0.22512 0.6626 0.0
H1196 H 0.07321 0.19441 0.60855 0.0
H1197 H 0.10665 0.12388 0.66219 0.0
H1198 H 0.10308 0.1533 0.67125 0.0
H1199 H 0.12623 0.14876 0.65437 0.0
C1200 C 0.0865 0.22526 0.66679 0.0
C1201 C 0.10848 0.23274 0.66988 0.0
C1202 C 0.08057 0.2056 0.6544 0.0
C1203 C 0.09648 0.19297 0.64501 0.0
C1204 C 0.11841 0.20044 0.64799 0.0
H1205 H 0.10101 0.079 0.55705 0.0
H1206 H 0.1084 0.1127 0.58025 0.0
C1207 C 0.12435 0.22002 0.66039 0.0
C1208 C 0.09023 0.1725 0.63142 0.0
H1209 H 0.09647 0.11323 0.62624 0.0
C1210 C 0.0781 0.1766 0.61251 0.0
C1211 C 0.09663 0.14927 0.63665 0.0
C1212 C 0.10868 0.14343 0.65734 0.0
C1213 C 0.07276 0.15825 0.59834 0.0
C1214 C 0.07954 0.13519 0.60336 0.0
C1215 C 0.0914 0.13099 0.6224 0.0
C1216 C 0.07477 0.1152 0.58889 0.0
C1217 C 0.06045 0.16382 0.57777 0.0
C1218 C 0.0534 0.10539 0.58616 0.0
C1219 C 0.0491 0.08608 0.57295 0.0
C1220 C 0.06613 0.07622 0.56225 0.0
C1221 C 0.08751 0.08619 0.56498 0.0
C1222 C 0.09179 0.10542 0.57826 0.0
H1223 H 0.06033 0.18347 0.57398 0.0
H1224 H 0.06759 0.15586 0.56343 0.0
H1225 H 0.04342 0.15587 0.58006 0.0
H1226 H 0.04007 0.11247 0.5945 0.0
H1227 H 0.03245 0.07877 0.57125 0.0
H1228 H 0.66806 0.29442 0.42299 0.0
H1229 H 0.64921 0.32716 0.43624 0.0
H1230 H 0.59101 0.30017 0.40466 0.0
H1231 H 0.60951 0.26669 0.39205 0.0
H1232 H 0.63027 0.36244 0.41199 0.0
H1233 H 0.56912 0.30816 0.46703 0.0
H1234 H 0.5926 0.29587 0.45609 0.0
H1235 H 0.56973 0.29998 0.43901 0.0
C1236 C 0.65114 0.29517 0.41914 0.0
C1237 C 0.64026 0.27775 0.40661 0.0
C1238 C 0.64044 0.31403 0.42658 0.0
C1239 C 0.61862 0.31593 0.42171 0.0
C1240 C 0.60773 0.2988 0.40897 0.0
H1241 H 0.53783 0.42846 0.45914 0.0
H1242 H 0.55042 0.39362 0.44203 0.0
C1243 C 0.61842 0.27984 0.40155 0.0
C1244 C 0.60762 0.33623 0.42964 0.0
H1245 H 0.56699 0.3501 0.46379 0.0
C1246 C 0.61638 0.35972 0.42324 0.0
C1247 C 0.58941 0.33266 0.44422 0.0
C1248 C 0.57971 0.30783 0.45218 0.0
C1249 C 0.60767 0.37971 0.43131 0.0
C1250 C 0.58989 0.37612 0.44636 0.0
C1251 C 0.58064 0.35272 0.45224 0.0
C1252 C 0.58172 0.39645 0.45726 0.0
C1253 C 0.61768 0.40456 0.42382 0.0
C1254 C 0.59498 0.40913 0.47183 0.0
C1255 C 0.58785 0.42886 0.48166 0.0
C1256 C 0.56728 0.43633 0.47713 0.0
C1257 C 0.55378 0.42321 0.46292 0.0
C1258 C 0.56093 0.40333 0.45314 0.0
H1259 H 0.62741 0.40452 0.40835 0.0
H1260 H 0.60501 0.41712 0.42119 0.0
H1261 H 0.62857 0.41147 0.43673 0.0
H1262 H 0.61096 0.40386 0.47547 0.0
H1263 H 0.59865 0.43845 0.49259 0.0
loop_
_geom_bond_atom_site_label_1
_geom_bond_atom_site_label_2
_geom_bond_distance
_geom_bond_site_symmetry_2
_ccdc_geom_bond_type
C0 C1 1.264 . S
C0 C5 1.479 . S
C0 C10 1.465 . S
C1 C0 1.264 . S
C1 C3 1.339 . S
C1 H28 0.931 . S
C2 C3 1.395 . S
C2 C4 1.320 . S
C3 C1 1.339 . S
C3 C2 1.395 . S
C3 H29 0.929 . S
C4 C2 1.320 . S
C4 C5 1.405 . S
C4 H30 0.930 . S
C5 C0 1.479 . S
C5 C4 1.405 . S
C5 H31 0.931 . S
U6 O7 2.454 . S
U6 O8 2.458 . S
U6 C9 2.984 . S
U6 C10 2.847 . S
U6 C23 2.882 . S
U6 O24 2.441 . S
U6 O25 2.420 . S
U6 O26 2.455 . S
U6 O27 2.449 . S
O7 U6 2.454 . S
O7 C9 1.353 . S
O8 U6 2.458 . S
O8 C9 1.286 . S
C9 U6 2.984 . S
C9 O7 1.353 . S
C9 O8 1.286 . S
C9 C11 1.363 . S
C10 C0 1.465 . S
C10 U6 2.847 . S
C10 O24 1.249 . S
C10 O25 1.202 . S
C11 C9 1.363 . S
C11 C13 1.408 . S
C11 C16 1.342 . S
C12 C13 1.310 . S
C12 C15 1.461 . S
C12 H32 0.932 . S
C13 C11 1.408 . S
C13 C12 1.310 . S
C13 H33 0.930 . S
C14 C15 1.474 . S
C14 C16 1.285 . S
C14 H34 0.929 . S
C15 C12 1.461 . S
C15 C14 1.474 . S
C16 C11 1.342 . S
C16 C14 1.285 . S
C16 H35 0.930 . S
C17 C20 1.424 . S
C17 C22 1.245 . S
C17 C23 1.428 . S
C18 C21 1.260 . S
C18 C22 1.477 . S
C18 H36 0.932 . S
C19 C20 1.384 . S
C19 C21 1.479 . S
C19 H37 0.929 . S
C20 C17 1.424 . S
C20 C19 1.384 . S
C20 H38 0.928 . S
C21 C18 1.260 . S
C21 C19 1.479 . S
C22 C17 1.245 . S
C22 C18 1.477 . S
C22 H39 0.932 . S
C23 U6 2.882 . S
C23 C17 1.428 . S
C23 O26 1.301 . S
C23 O27 1.282 . S
O24 U6 2.441 . S
O24 C10 1.249 . S
O25 U6 2.420 . S
O25 C10 1.202 . S
O26 U6 2.455 . S
O26 C23 1.301 . S
O27 U6 2.449 . S
O27 C23 1.282 . S
H28 C1 0.931 . S
H29 C3 0.929 . S
H30 C4 0.930 . S
H31 C5 0.931 . S
H32 C12 0.932 . S
H33 C13 0.930 . S
H34 C14 0.929 . S
H35 C16 0.930 . S
H36 C18 0.932 . S
H37 C19 0.929 . S
H38 C20 0.928 . S
H39 C22 0.932 . S
C40 C41 1.264 . S
C40 C45 1.479 . S
C40 C50 1.465 . S
C41 C40 1.264 . S
C41 C43 1.339 . S
C41 H68 0.931 . S
C42 C43 1.395 . S
C42 C44 1.320 . S
C43 C41 1.339 . S
C43 C42 1.395 . S
C43 H69 0.929 . S
C44 C42 1.320 . S
C44 C45 1.405 . S
C44 H70 0.930 . S
C45 C40 1.479 . S
C45 C44 1.405 . S
C45 H71 0.931 . S
U46 O47 2.454 . S
U46 O48 2.458 . S
U46 C49 2.984 . S
U46 C50 2.847 . S
U46 C63 2.882 . S
U46 O64 2.441 . S
U46 O65 2.420 . S
U46 O66 2.455 . S
U46 O67 2.449 . S
O47 U46 2.454 . S
O47 C49 1.353 . S
O48 U46 2.458 . S
O48 C49 1.286 . S
C49 U46 2.984 . S
C49 O47 1.353 . S
C49 O48 1.286 . S
C49 C51 1.363 . S
C50 C40 1.465 . S
C50 U46 2.847 . S
C50 O64 1.249 . S
C50 O65 1.202 . S
C51 C49 1.363 . S
C51 C53 1.408 . S
C51 C56 1.342 . S
C52 C53 1.310 . S
C52 C55 1.461 . S
C52 H72 0.932 . S
C53 C51 1.408 . S
C53 C52 1.310 . S
C53 H73 0.930 . S
C54 C55 1.474 . S
C54 C56 1.285 . S
C54 H74 0.929 . S
C55 C52 1.461 . S
C55 C54 1.474 . S
C56 C51 1.342 . S
C56 C54 1.285 . S
C56 H75 0.930 . S
C57 C60 1.424 . S
C57 C62 1.245 . S
C57 C63 1.428 . S
C58 C61 1.260 . S
C58 C62 1.477 . S
C58 H76 0.932 . S
C59 C60 1.384 . S
C59 C61 1.479 . S
C59 H77 0.929 . S
C60 C57 1.424 . S
C60 C59 1.384 . S
C60 H78 0.928 . S
C61 C58 1.260 . S
C61 C59 1.479 . S
C62 C57 1.245 . S
C62 C58 1.477 . S
C62 H79 0.932 . S
C63 U46 2.882 . S
C63 C57 1.428 . S
C63 O66 1.301 . S
C63 O67 1.282 . S
O64 U46 2.441 . S
O64 C50 1.249 . S
O65 U46 2.420 . S
O65 C50 1.202 . S
O66 U46 2.455 . S
O66 C63 1.301 . S
O67 U46 2.449 . S
O67 C63 1.282 . S
H68 C41 0.931 . S
H69 C43 0.929 . S
H70 C44 0.930 . S
H71 C45 0.931 . S
H72 C52 0.932 . S
H73 C53 0.930 . S
H74 C54 0.929 . S
H75 C56 0.930 . S
H76 C58 0.932 . S
H77 C59 0.929 . S
H78 C60 0.928 . S
H79 C62 0.932 . S
C80 C81 1.264 . S
C80 C85 1.479 . S
C80 C90 1.465 . S
C81 C80 1.264 . S
C81 C83 1.339 . S
C81 H108 0.931 . S
C82 C83 1.395 . S
C82 C84 1.320 . S
C83 C81 1.339 . S
C83 C82 1.395 . S
C83 H109 0.929 . S
C84 C82 1.320 . S
C84 C85 1.405 . S
C84 H110 0.930 . S
C85 C80 1.479 . S
C85 C84 1.405 . S
C85 H111 0.931 . S
U86 O87 2.454 . S
U86 O88 2.458 . S
U86 C89 2.984 . S
U86 C90 2.847 . S
U86 C103 2.882 . S
U86 O104 2.441 . S
U86 O105 2.420 . S
U86 O106 2.455 . S
U86 O107 2.449 . S
O87 U86 2.454 . S
O87 C89 1.353 . S
O88 U86 2.458 . S
O88 C89 1.286 . S
C89 U86 2.984 . S
C89 O87 1.353 . S
C89 O88 1.286 . S
C89 C91 1.363 . S
C90 C80 1.465 . S
C90 U86 2.847 . S
C90 O104 1.249 . S
C90 O105 1.202 . S
C91 C89 1.363 . S
C91 C93 1.408 . S
C91 C96 1.342 . S
C92 C93 1.310 . S
C92 C95 1.461 . S
C92 H112 0.932 . S
C93 C91 1.408 . S
C93 C92 1.310 . S
C93 H113 0.930 . S
C94 C95 1.474 . S
C94 C96 1.285 . S
C94 H114 0.929 . S
C95 C92 1.461 . S
C95 C94 1.474 . S
C96 C91 1.342 . S
C96 C94 1.285 . S
C96 H115 0.930 . S
C97 C100 1.424 . S
C97 C102 1.245 . S
C97 C103 1.428 . S
C98 C101 1.260 . S
C98 C102 1.477 . S
C98 H116 0.932 . S
C99 C100 1.384 . S
C99 C101 1.479 . S
C99 H117 0.929 . S
C100 C97 1.424 . S
C100 C99 1.384 . S
C100 H118 0.928 . S
C101 C98 1.260 . S
C101 C99 1.479 . S
C102 C97 1.245 . S
C102 C98 1.477 . S
C102 H119 0.932 . S
C103 U86 2.882 . S
C103 C97 1.428 . S
C103 O106 1.301 . S
C103 O107 1.282 . S
O104 U86 2.441 . S
O104 C90 1.249 . S
O105 U86 2.420 . S
O105 C90 1.202 . S
O106 U86 2.455 . S
O106 C103 1.301 . S
O107 U86 2.449 . S
O107 C103 1.282 . S
H108 C81 0.931 . S
H109 C83 0.929 . S
H110 C84 0.930 . S
H111 C85 0.931 . S
H112 C92 0.932 . S
H113 C93 0.930 . S
H114 C94 0.929 . S
H115 C96 0.930 . S
H116 C98 0.932 . S
H117 C99 0.929 . S
H118 C100 0.928 . S
H119 C102 0.932 . S
C120 C121 1.264 . S
C120 C125 1.479 . S
C120 C130 1.465 . S
C121 C120 1.264 . S
C121 C123 1.339 . S
C121 H148 0.931 . S
C122 C123 1.395 . S
C122 C124 1.320 . S
C123 C121 1.339 . S
C123 C122 1.395 . S
C123 H149 0.929 . S
C124 C122 1.320 . S
C124 C125 1.405 . S
C124 H150 0.930 . S
C125 C120 1.479 . S
C125 C124 1.405 . S
C125 H151 0.931 . S
U126 O127 2.454 . S
U126 O128 2.458 . S
U126 C129 2.984 . S
U126 C130 2.847 . S
U126 C143 2.882 . S
U126 O144 2.441 . S
U126 O145 2.420 . S
U126 O146 2.455 . S
U126 O147 2.449 . S
O127 U126 2.454 . S
O127 C129 1.353 . S
O128 U126 2.458 . S
O128 C129 1.286 . S
C129 U126 2.984 . S
C129 O127 1.353 . S
C129 O128 1.286 . S
C129 C131 1.363 . S
C130 C120 1.465 . S
C130 U126 2.847 . S
C130 O144 1.249 . S
C130 O145 1.202 . S
C131 C129 1.363 . S
C131 C133 1.408 . S
C131 C136 1.342 . S
C132 C133 1.310 . S
C132 C135 1.461 . S
C132 H152 0.932 . S
C133 C131 1.408 . S
C133 C132 1.310 . S
C133 H153 0.930 . S
C134 C135 1.474 . S
C134 C136 1.285 . S
C134 H154 0.929 . S
C135 C132 1.461 . S
C135 C134 1.474 . S
C136 C131 1.342 . S
C136 C134 1.285 . S
C136 H155 0.930 . S
C137 C140 1.424 . S
C137 C142 1.245 . S
C137 C143 1.428 . S
C138 C141 1.260 . S
C138 C142 1.477 . S
C138 H156 0.932 . S
C139 C140 1.384 . S
C139 C141 1.479 . S
C139 H157 0.929 . S
C140 C137 1.424 . S
C140 C139 1.384 . S
C140 H158 0.928 . S
C141 C138 1.260 . S
C141 C139 1.479 . S
C142 C137 1.245 . S
C142 C138 1.477 . S
C142 H159 0.932 . S
C143 U126 2.882 . S
C143 C137 1.428 . S
C143 O146 1.301 . S
C143 O147 1.282 . S
O144 U126 2.441 . S
O144 C130 1.249 . S
O145 U126 2.420 . S
O145 C130 1.202 . S
O146 U126 2.455 . S
O146 C143 1.301 . S
O147 U126 2.449 . S
O147 C143 1.282 . S
H148 C121 0.931 . S
H149 C123 0.929 . S
H150 C124 0.930 . S
H151 C125 0.931 . S
H152 C132 0.932 . S
H153 C133 0.930 . S
H154 C134 0.929 . S
H155 C136 0.930 . S
H156 C138 0.932 . S
H157 C139 0.929 . S
H158 C140 0.928 . S
H159 C142 0.932 . S
C160 C161 1.264 . S
C160 C165 1.479 . S
C160 C170 1.465 . S
C161 C160 1.264 . S
C161 C163 1.339 . S
C161 H188 0.931 . S
C162 C163 1.395 . S
C162 C164 1.320 . S
C163 C161 1.339 . S
C163 C162 1.395 . S
C163 H189 0.929 . S
C164 C162 1.320 . S
C164 C165 1.405 . S
C164 H190 0.930 . S
C165 C160 1.479 . S
C165 C164 1.405 . S
C165 H191 0.931 . S
U166 O167 2.454 . S
U166 O168 2.458 . S
U166 C169 2.984 . S
U166 C170 2.847 . S
U166 C183 2.882 . S
U166 O184 2.441 . S
U166 O185 2.420 . S
U166 O186 2.455 . S
U166 O187 2.449 . S
O167 U166 2.454 . S
O167 C169 1.353 . S
O168 U166 2.458 . S
O168 C169 1.286 . S
C169 U166 2.984 . S
C169 O167 1.353 . S
C169 O168 1.286 . S
C169 C171 1.363 . S
C170 C160 1.465 . S
C170 U166 2.847 . S
C170 O184 1.249 . S
C170 O185 1.202 . S
C171 C169 1.363 . S
C171 C173 1.408 . S
C171 C176 1.342 . S
C172 C173 1.310 . S
C172 C175 1.461 . S
C172 H192 0.932 . S
C173 C171 1.408 . S
C173 C172 1.310 . S
C173 H193 0.930 . S
C174 C175 1.474 . S
C174 C176 1.285 . S
C174 H194 0.929 . S
C175 C172 1.461 . S
C175 C174 1.474 . S
C176 C171 1.342 . S
C176 C174 1.285 . S
C176 H195 0.930 . S
C177 C180 1.424 . S
C177 C182 1.245 . S
C177 C183 1.428 . S
C178 C181 1.260 . S
C178 C182 1.477 . S
C178 H196 0.932 . S
C179 C180 1.384 . S
C179 C181 1.479 . S
C179 H197 0.929 . S
C180 C177 1.424 . S
C180 C179 1.384 . S
C180 H198 0.928 . S
C181 C178 1.260 . S
C181 C179 1.479 . S
C182 C177 1.245 . S
C182 C178 1.477 . S
C182 H199 0.932 . S
C183 U166 2.882 . S
C183 C177 1.428 . S
C183 O186 1.301 . S
C183 O187 1.282 . S
O184 U166 2.441 . S
O184 C170 1.249 . S
O185 U166 2.420 . S
O185 C170 1.202 . S
O186 U166 2.455 . S
O186 C183 1.301 . S
O187 U166 2.449 . S
O187 C183 1.282 . S
H188 C161 0.931 . S
H189 C163 0.929 . S
H190 C164 0.930 . S
H191 C165 0.931 . S
H192 C172 0.932 . S
H193 C173 0.930 . S
H194 C174 0.929 . S
H195 C176 0.930 . S
H196 C178 0.932 . S
H197 C179 0.929 . S
H198 C180 0.928 . S
H199 C182 0.932 . S
C200 C201 1.264 . S
C200 C205 1.479 . S
C200 C210 1.465 . S
C201 C200 1.264 . S
C201 C203 1.339 . S
C201 H228 0.931 . S
C202 C203 1.395 . S
C202 C204 1.320 . S
C203 C201 1.339 . S
C203 C202 1.395 . S
C203 H229 0.929 . S
C204 C202 1.320 . S
C204 C205 1.405 . S
C204 H230 0.930 . S
C205 C200 1.479 . S
C205 C204 1.405 . S
C205 H231 0.931 . S
U206 O207 2.454 . S
U206 O208 2.458 . S
U206 C209 2.984 . S
U206 C210 2.847 . S
U206 C223 2.882 . S
U206 O224 2.441 . S
U206 O225 2.420 . S
U206 O226 2.455 . S
U206 O227 2.449 . S
O207 U206 2.454 . S
O207 C209 1.353 . S
O208 U206 2.458 . S
O208 C209 1.286 . S
C209 U206 2.984 . S
C209 O207 1.353 . S
C209 O208 1.286 . S
C209 C211 1.363 . S
C210 C200 1.465 . S
C210 U206 2.847 . S
C210 O224 1.249 . S
C210 O225 1.202 . S
C211 C209 1.363 . S
C211 C213 1.408 . S
C211 C216 1.342 . S
C212 C213 1.310 . S
C212 C215 1.461 . S
C212 H232 0.932 . S
C213 C211 1.408 . S
C213 C212 1.310 . S
C213 H233 0.930 . S
C214 C215 1.474 . S
C214 C216 1.285 . S
C214 H234 0.929 . S
C215 C212 1.461 . S
C215 C214 1.474 . S
C216 C211 1.342 . S
C216 C214 1.285 . S
C216 H235 0.930 . S
C217 C220 1.424 . S
C217 C222 1.245 . S
C217 C223 1.428 . S
C218 C221 1.260 . S
C218 C222 1.477 . S
C218 H236 0.932 . S
C219 C220 1.384 . S
C219 C221 1.479 . S
C219 H237 0.929 . S
C220 C217 1.424 . S
C220 C219 1.384 . S
C220 H238 0.928 . S
C221 C218 1.260 . S
C221 C219 1.479 . S
C222 C217 1.245 . S
C222 C218 1.477 . S
C222 H239 0.932 . S
C223 U206 2.882 . S
C223 C217 1.428 . S
C223 O226 1.301 . S
C223 O227 1.282 . S
O224 U206 2.441 . S
O224 C210 1.249 . S
O225 U206 2.420 . S
O225 C210 1.202 . S
O226 U206 2.455 . S
O226 C223 1.301 . S
O227 U206 2.449 . S
O227 C223 1.282 . S
H228 C201 0.931 . S
H229 C203 0.929 . S
H230 C204 0.930 . S
H231 C205 0.931 . S
H232 C212 0.932 . S
H233 C213 0.930 . S
H234 C214 0.929 . S
H235 C216 0.930 . S
H236 C218 0.932 . S
H237 C219 0.929 . S
H238 C220 0.928 . S
H239 C222 0.932 . S
C240 C241 1.264 . S
C240 C245 1.479 . S
C240 C250 1.465 . S
C241 C240 1.264 . S
C241 C243 1.339 . S
C241 H268 0.931 . S
C242 C243 1.395 . S
C242 C244 1.320 . S
C243 C241 1.339 . S
C243 C242 1.395 . S
C243 H269 0.929 . S
C244 C242 1.320 . S
C244 C245 1.405 . S
C244 H270 0.930 . S
C245 C240 1.479 . S
C245 C244 1.405 . S
C245 H271 0.931 . S
U246 O247 2.454 . S
U246 O248 2.458 . S
U246 C249 2.984 . S
U246 C250 2.847 . S
U246 C263 2.882 . S
U246 O264 2.441 . S
U246 O265 2.420 . S
U246 O266 2.455 . S
U246 O267 2.449 . S
O247 U246 2.454 . S
O247 C249 1.353 . S
O248 U246 2.458 . S
O248 C249 1.286 . S
C249 U246 2.984 . S
C249 O247 1.353 . S
C249 O248 1.286 . S
C249 C251 1.363 . S
C250 C240 1.465 . S
C250 U246 2.847 . S
C250 O264 1.249 . S
C250 O265 1.202 . S
C251 C249 1.363 . S
C251 C253 1.408 . S
C251 C256 1.342 . S
C252 C253 1.310 . S
C252 C255 1.461 . S
C252 H272 0.932 . S
C253 C251 1.408 . S
C253 C252 1.310 . S
C253 H273 0.930 . S
C254 C255 1.474 . S
C254 C256 1.285 . S
C254 H274 0.929 . S
C255 C252 1.461 . S
C255 C254 1.474 . S
C256 C251 1.342 . S
C256 C254 1.285 . S
C256 H275 0.930 . S
C257 C260 1.424 . S
C257 C262 1.245 . S
C257 C263 1.428 . S
C258 C261 1.260 . S
C258 C262 1.477 . S
C258 H276 0.932 . S
C259 C260 1.384 . S
C259 C261 1.479 . S
C259 H277 0.929 . S
C260 C257 1.424 . S
C260 C259 1.384 . S
C260 H278 0.928 . S
C261 C258 1.260 . S
C261 C259 1.479 . S
C262 C257 1.245 . S
C262 C258 1.477 . S
C262 H279 0.932 . S
C263 U246 2.882 . S
C263 C257 1.428 . S
C263 O266 1.301 . S
C263 O267 1.282 . S
O264 U246 2.441 . S
O264 C250 1.249 . S
O265 U246 2.420 . S
O265 C250 1.202 . S
O266 U246 2.455 . S
O266 C263 1.301 . S
O267 U246 2.449 . S
O267 C263 1.282 . S
H268 C241 0.931 . S
H269 C243 0.929 . S
H270 C244 0.930 . S
H271 C245 0.931 . S
H272 C252 0.932 . S
H273 C253 0.930 . S
H274 C254 0.929 . S
H275 C256 0.930 . S
H276 C258 0.932 . S
H277 C259 0.929 . S
H278 C260 0.928 . S
H279 C262 0.932 . S
C280 C281 1.264 . S
C280 C285 1.479 . S
C280 C290 1.465 . S
C281 C280 1.264 . S
C281 C283 1.339 . S
C281 H308 0.931 . S
C282 C283 1.395 . S
C282 C284 1.320 . S
C283 C281 1.339 . S
C283 C282 1.395 . S
C283 H309 0.929 . S
C284 C282 1.320 . S
C284 C285 1.405 . S
C284 H310 0.930 . S
C285 C280 1.479 . S
C285 C284 1.405 . S
C285 H311 0.931 . S
U286 O287 2.454 . S
U286 O288 2.458 . S
U286 C289 2.984 . S
U286 C290 2.847 . S
U286 C303 2.882 . S
U286 O304 2.441 . S
U286 O305 2.420 . S
U286 O306 2.455 . S
U286 O307 2.449 . S
O287 U286 2.454 . S
O287 C289 1.353 . S
O288 U286 2.458 . S
O288 C289 1.286 . S
C289 U286 2.984 . S
C289 O287 1.353 . S
C289 O288 1.286 . S
C289 C291 1.363 . S
C290 C280 1.465 . S
C290 U286 2.847 . S
C290 O304 1.249 . S
C290 O305 1.202 . S
C291 C289 1.363 . S
C291 C293 1.408 . S
C291 C296 1.342 . S
C292 C293 1.310 . S
C292 C295 1.461 . S
C292 H312 0.932 . S
C293 C291 1.408 . S
C293 C292 1.310 . S
C293 H313 0.930 . S
C294 C295 1.474 . S
C294 C296 1.285 . S
C294 H314 0.929 . S
C295 C292 1.461 . S
C295 C294 1.474 . S
C296 C291 1.342 . S
C296 C294 1.285 . S
C296 H315 0.930 . S
C297 C300 1.424 . S
C297 C302 1.245 . S
C297 C303 1.428 . S
C298 C301 1.260 . S
C298 C302 1.477 . S
C298 H316 0.932 . S
C299 C300 1.384 . S
C299 C301 1.479 . S
C299 H317 0.929 . S
C300 C297 1.424 . S
C300 C299 1.384 . S
C300 H318 0.928 . S
C301 C298 1.260 . S
C301 C299 1.479 . S
C302 C297 1.245 . S
C302 C298 1.477 . S
C302 H319 0.932 . S
C303 U286 2.882 . S
C303 C297 1.428 . S
C303 O306 1.301 . S
C303 O307 1.282 . S
O304 U286 2.441 . S
O304 C290 1.249 . S
O305 U286 2.420 . S
O305 C290 1.202 . S
O306 U286 2.455 . S
O306 C303 1.301 . S
O307 U286 2.449 . S
O307 C303 1.282 . S
H308 C281 0.931 . S
H309 C283 0.929 . S
H310 C284 0.930 . S
H311 C285 0.931 . S
H312 C292 0.932 . S
H313 C293 0.930 . S
H314 C294 0.929 . S
H315 C296 0.930 . S
H316 C298 0.932 . S
H317 C299 0.929 . S
H318 C300 0.928 . S
H319 C302 0.932 . S
Zn320 O326 1.969 1_545 S
Zn320 O327 1.965 1_545 S
Zn320 O331 2.024 . S
Zn320 O336 1.969 . S
Zn321 O328 1.969 . S
Zn321 O334 1.969 1_565 S
Zn321 O335 1.965 1_665 S
Zn321 O337 2.024 . S
C322 O323 1.229 . S
C322 O331 1.058 . S
O323 C322 1.229 . S
C324 O325 1.229 . S
C324 O337 1.058 . S
O325 C324 1.229 . S
O326 Zn320 1.969 1_565 S
O326 C329 1.267 . S
O327 Zn320 1.965 1_565 S
O327 C338 1.260 1_455 S
O328 Zn321 1.969 . S
O328 C338 1.258 . S
C329 O326 1.267 . S
C329 O330 1.228 . S
O330 C329 1.228 . S
O331 Zn320 2.024 . S
O331 C322 1.058 . S
C332 O333 1.228 . S
C332 O334 1.267 . S
O333 C332 1.228 . S
O334 Zn321 1.969 1_545 S
O334 C332 1.267 . S
O335 Zn321 1.965 1_445 S
O335 C339 1.260 . S
O336 Zn320 1.969 . S
O336 C339 1.258 . S
O337 Zn321 2.024 . S
O337 C324 1.058 . S
C338 O327 1.260 1_655 S
C338 O328 1.258 . S
C339 O335 1.260 . S
C339 O336 1.258 . S
Zn340 O346 1.969 . S
Zn340 O347 1.965 1_565 S
Zn340 O351 2.024 . S
Zn340 O356 1.969 1_556 S
Zn341 O348 1.969 . S
Zn341 O354 1.969 . S
Zn341 O355 1.965 1_545 S
Zn341 O357 2.024 . S
C342 O343 1.229 . S
C342 O351 1.058 . S
O343 C342 1.229 . S
C344 O345 1.229 . S
C344 O357 1.058 . S
O345 C344 1.229 . S
O346 Zn340 1.969 . S
O346 C349 1.267 . S
O347 Zn340 1.965 1_545 S
O347 C358 1.260 . S
O348 Zn341 1.969 . S
O348 C358 1.258 1_554 S
C349 O346 1.267 . S
C349 O350 1.228 . S
O350 C349 1.228 . S
O351 Zn340 2.024 . S
O351 C342 1.058 . S
C352 O353 1.228 . S
C352 O354 1.267 . S
O353 C352 1.228 . S
O354 Zn341 1.969 . S
O354 C352 1.267 . S
O355 Zn341 1.965 1_565 S
O355 C359 1.260 . S
O356 Zn340 1.969 1_554 S
O356 C359 1.258 . S
O357 Zn341 2.024 . S
O357 C344 1.058 . S
C358 O347 1.260 . S
C358 O348 1.258 1_556 S
C359 O355 1.260 . S
C359 O356 1.258 . S
Zn360 O366 1.969 . S
Zn360 O367 1.965 . S
Zn360 O371 2.024 . S
Zn360 O376 1.969 . S
Zn361 O368 1.969 . S
Zn361 O374 1.969 . S
Zn361 O375 1.965 . S
Zn361 O377 2.024 . S
C362 O363 1.229 . S
C362 O371 1.058 . S
O363 C362 1.229 . S
C364 O365 1.229 . S
C364 O377 1.058 . S
O365 C364 1.229 . S
O366 Zn360 1.969 . S
O366 C369 1.267 . S
O367 Zn360 1.965 . S
O367 C378 1.260 . S
O368 Zn361 1.969 . S
O368 C378 1.258 . S
C369 O366 1.267 . S
C369 O370 1.228 . S
O370 C369 1.228 . S
O371 Zn360 2.024 . S
O371 C362 1.058 . S
C372 O373 1.228 . S
C372 O374 1.267 . S
O373 C372 1.228 . S
O374 Zn361 1.969 . S
O374 C372 1.267 . S
O375 Zn361 1.965 . S
O375 C379 1.260 . S
O376 Zn360 1.969 . S
O376 C379 1.258 . S
O377 Zn361 2.024 . S
O377 C364 1.058 . S
C378 O367 1.260 . S
C378 O368 1.258 . S
C379 O375 1.260 . S
C379 O376 1.258 . S
Zn380 O386 1.969 . S
Zn380 O387 1.965 1_556 S
Zn380 O391 2.024 . S
Zn380 O396 1.969 1_655 S
Zn381 O388 1.969 . S
Zn381 O394 1.969 . S
Zn381 O395 1.965 1_554 S
Zn381 O397 2.024 . S
C382 O383 1.229 . S
C382 O391 1.058 . S
O383 C382 1.229 . S
C384 O385 1.229 . S
C384 O397 1.058 . S
O385 C384 1.229 . S
O386 Zn380 1.969 . S
O386 C389 1.267 . S
O387 Zn380 1.965 1_554 S
O387 C398 1.260 . S
O388 Zn381 1.969 . S
O388 C398 1.258 1_455 S
C389 O386 1.267 . S
C389 O390 1.228 . S
O390 C389 1.228 . S
O391 Zn380 2.024 . S
O391 C382 1.058 . S
C392 O393 1.228 . S
C392 O394 1.267 . S
O393 C392 1.228 . S
O394 Zn381 1.969 . S
O394 C392 1.267 . S
O395 Zn381 1.965 1_556 S
O395 C399 1.260 . S
O396 Zn380 1.969 1_455 S
O396 C399 1.258 . S
O397 Zn381 2.024 . S
O397 C384 1.058 . S
C398 O387 1.260 . S
C398 O388 1.258 1_655 S
C399 O395 1.260 . S
C399 O396 1.258 . S
H400 C408 0.929 . S
H401 C410 0.930 . S
H402 C412 0.930 . S
H403 C415 0.929 . S
H404 C418 0.930 . S
H405 C420 0.960 . S
H406 C420 0.960 . S
H407 C420 0.960 . S
C408 H400 0.929 . S
C408 C409 1.377 . S
C408 C410 1.384 . S
C409 C408 1.377 . S
C409 C415 1.390 . S
C410 H401 0.930 . S
C410 C408 1.384 . S
C410 C411 1.372 . S
C411 C410 1.372 . S
C411 C412 1.400 . S
C411 C416 1.490 . S
C412 H402 0.930 . S
C412 C411 1.400 . S
C412 C415 1.386 . S
H413 C429 0.930 . S
H414 C430 0.931 . S
C415 H403 0.929 . S
C415 C409 1.390 . S
C415 C412 1.386 . S
C416 C411 1.490 . S
C416 C418 1.395 . S
C416 C419 1.403 . S
H417 C423 0.930 . S
C418 H404 0.930 . S
C418 C416 1.395 . S
C418 C421 1.403 . S
C419 C416 1.403 . S
C419 C420 1.524 . S
C419 C423 1.400 . S
C420 H405 0.960 . S
C420 H406 0.960 . S
C420 H407 0.960 . S
C420 C419 1.524 . S
C421 C418 1.403 . S
C421 C422 1.392 . S
C421 C425 1.495 . S
C422 C421 1.392 . S
C422 C423 1.385 . S
C422 C424 1.478 . S
C423 H417 0.930 . S
C423 C419 1.400 . S
C423 C422 1.385 . S
C424 C422 1.478 . S
C424 C426 1.381 . S
C424 C430 1.383 . S
C425 C421 1.495 . S
C425 H431 0.959 . S
C425 H432 0.961 . S
C425 H433 0.960 . S
C426 C424 1.381 . S
C426 C427 1.394 . S
C426 H434 0.930 . S
C427 C426 1.394 . S
C427 C428 1.383 . S
C427 H435 0.929 . S
C428 C427 1.383 . S
C428 C429 1.377 . S
C429 H413 0.930 . S
C429 C428 1.377 . S
C429 C430 1.379 . S
C430 H414 0.931 . S
C430 C424 1.383 . S
C430 C429 1.379 . S
H431 C425 0.959 . S
H432 C425 0.961 . S
H433 C425 0.960 . S
H434 C426 0.930 . S
H435 C427 0.929 . S
H436 C444 0.929 . S
H437 C446 0.930 . S
H438 C448 0.930 . S
H439 C451 0.929 . S
H440 C454 0.930 . S
H441 C456 0.960 . S
H442 C456 0.960 . S
H443 C456 0.960 . S
C444 H436 0.929 . S
C444 C445 1.377 . S
C444 C446 1.384 . S
C445 C444 1.377 . S
C445 C451 1.390 . S
C446 H437 0.930 . S
C446 C444 1.384 . S
C446 C447 1.372 . S
C447 C446 1.372 . S
C447 C448 1.400 . S
C447 C452 1.490 . S
C448 H438 0.930 . S
C448 C447 1.400 . S
C448 C451 1.386 . S
H449 C465 0.930 . S
H450 C466 0.931 . S
C451 H439 0.929 . S
C451 C445 1.390 . S
C451 C448 1.386 . S
C452 C447 1.490 . S
C452 C454 1.395 . S
C452 C455 1.403 . S
H453 C459 0.930 . S
C454 H440 0.930 . S
C454 C452 1.395 . S
C454 C457 1.403 . S
C455 C452 1.403 . S
C455 C456 1.524 . S
C455 C459 1.400 . S
C456 H441 0.960 . S
C456 H442 0.960 . S
C456 H443 0.960 . S
C456 C455 1.524 . S
C457 C454 1.403 . S
C457 C458 1.392 . S
C457 C461 1.495 . S
C458 C457 1.392 . S
C458 C459 1.385 . S
C458 C460 1.478 . S
C459 H453 0.930 . S
C459 C455 1.400 . S
C459 C458 1.385 . S
C460 C458 1.478 . S
C460 C462 1.381 . S
C460 C466 1.383 . S
C461 C457 1.495 . S
C461 H467 0.959 . S
C461 H468 0.961 . S
C461 H469 0.960 . S
C462 C460 1.381 . S
C462 C463 1.394 . S
C462 H470 0.930 . S
C463 C462 1.394 . S
C463 C464 1.383 . S
C463 H471 0.929 . S
C464 C463 1.383 . S
C464 C465 1.377 . S
C465 H449 0.930 . S
C465 C464 1.377 . S
C465 C466 1.379 . S
C466 H450 0.931 . S
C466 C460 1.383 . S
C466 C465 1.379 . S
H467 C461 0.959 . S
H468 C461 0.961 . S
H469 C461 0.960 . S
H470 C462 0.930 . S
H471 C463 0.929 . S
H472 C480 0.929 . S
H473 C482 0.930 . S
H474 C484 0.930 . S
H475 C487 0.929 . S
H476 C490 0.930 . S
H477 C492 0.960 . S
H478 C492 0.960 . S
H479 C492 0.960 . S
C480 H472 0.929 . S
C480 C481 1.377 . S
C480 C482 1.384 . S
C481 C480 1.377 . S
C481 C487 1.390 . S
C482 H473 0.930 . S
C482 C480 1.384 . S
C482 C483 1.372 . S
C483 C482 1.372 . S
C483 C484 1.400 . S
C483 C488 1.490 . S
C484 H474 0.930 . S
C484 C483 1.400 . S
C484 C487 1.386 . S
H485 C501 0.930 . S
H486 C502 0.931 . S
C487 H475 0.929 . S
C487 C481 1.390 . S
C487 C484 1.386 . S
C488 C483 1.490 . S
C488 C490 1.395 . S
C488 C491 1.403 . S
H489 C495 0.930 . S
C490 H476 0.930 . S
C490 C488 1.395 . S
C490 C493 1.403 . S
C491 C488 1.403 . S
C491 C492 1.524 . S
C491 C495 1.400 . S
C492 H477 0.960 . S
C492 H478 0.960 . S
C492 H479 0.960 . S
C492 C491 1.524 . S
C493 C490 1.403 . S
C493 C494 1.392 . S
C493 C497 1.495 . S
C494 C493 1.392 . S
C494 C495 1.385 . S
C494 C496 1.478 . S
C495 H489 0.930 . S
C495 C491 1.400 . S
C495 C494 1.385 . S
C496 C494 1.478 . S
C496 C498 1.381 . S
C496 C502 1.383 . S
C497 C493 1.495 . S
C497 H503 0.959 . S
C497 H504 0.961 . S
C497 H505 0.960 . S
C498 C496 1.381 . S
C498 C499 1.394 . S
C498 H506 0.930 . S
C499 C498 1.394 . S
C499 C500 1.383 . S
C499 H507 0.929 . S
C500 C499 1.383 . S
C500 C501 1.377 . S
C501 H485 0.930 . S
C501 C500 1.377 . S
C501 C502 1.379 . S
C502 H486 0.931 . S
C502 C496 1.383 . S
C502 C501 1.379 . S
H503 C497 0.959 . S
H504 C497 0.961 . S
H505 C497 0.960 . S
H506 C498 0.930 . S
H507 C499 0.929 . S
H508 C516 0.929 . S
H509 C518 0.930 . S
H510 C520 0.930 . S
H511 C523 0.929 . S
H512 C526 0.930 . S
H513 C528 0.960 . S
H514 C528 0.960 . S
H515 C528 0.960 . S
C516 H508 0.929 . S
C516 C517 1.377 . S
C516 C518 1.384 . S
C517 C516 1.377 . S
C517 C523 1.390 . S
C518 H509 0.930 . S
C518 C516 1.384 . S
C518 C519 1.372 . S
C519 C518 1.372 . S
C519 C520 1.400 . S
C519 C524 1.490 . S
C520 H510 0.930 . S
C520 C519 1.400 . S
C520 C523 1.386 . S
H521 C537 0.930 . S
H522 C538 0.931 . S
C523 H511 0.929 . S
C523 C517 1.390 . S
C523 C520 1.386 . S
C524 C519 1.490 . S
C524 C526 1.395 . S
C524 C527 1.403 . S
H525 C531 0.930 . S
C526 H512 0.930 . S
C526 C524 1.395 . S
C526 C529 1.403 . S
C527 C524 1.403 . S
C527 C528 1.524 . S
C527 C531 1.400 . S
C528 H513 0.960 . S
C528 H514 0.960 . S
C528 H515 0.960 . S
C528 C527 1.524 . S
C529 C526 1.403 . S
C529 C530 1.392 . S
C529 C533 1.495 . S
C530 C529 1.392 . S
C530 C531 1.385 . S
C530 C532 1.478 . S
C531 H525 0.930 . S
C531 C527 1.400 . S
C531 C530 1.385 . S
C532 C530 1.478 . S
C532 C534 1.381 . S
C532 C538 1.383 . S
C533 C529 1.495 . S
C533 H539 0.959 . S
C533 H540 0.961 . S
C533 H541 0.960 . S
C534 C532 1.381 . S
C534 C535 1.394 . S
C534 H542 0.930 . S
C535 C534 1.394 . S
C535 C536 1.383 . S
C535 H543 0.929 . S
C536 C535 1.383 . S
C536 C537 1.377 . S
C537 H521 0.930 . S
C537 C536 1.377 . S
C537 C538 1.379 . S
C538 H522 0.931 . S
C538 C532 1.383 . S
C538 C537 1.379 . S
H539 C533 0.959 . S
H540 C533 0.961 . S
H541 C533 0.960 . S
H542 C534 0.930 . S
H543 C535 0.929 . S
H544 C552 0.929 . S
H545 C554 0.930 . S
H546 C556 0.930 . S
H547 C559 0.929 . S
H548 C562 0.930 . S
H549 C564 0.960 . S
H550 C564 0.960 . S
H551 C564 0.960 . S
C552 H544 0.929 . S
C552 C553 1.377 . S
C552 C554 1.384 . S
C553 C552 1.377 . S
C553 C559 1.390 . S
C554 H545 0.930 . S
C554 C552 1.384 . S
C554 C555 1.372 . S
C555 C554 1.372 . S
C555 C556 1.400 . S
C555 C560 1.490 . S
C556 H546 0.930 . S
C556 C555 1.400 . S
C556 C559 1.386 . S
H557 C573 0.930 . S
H558 C574 0.931 . S
C559 H547 0.929 . S
C559 C553 1.390 . S
C559 C556 1.386 . S
C560 C555 1.490 . S
C560 C562 1.395 . S
C560 C563 1.403 . S
H561 C567 0.930 . S
C562 H548 0.930 . S
C562 C560 1.395 . S
C562 C565 1.403 . S
C563 C560 1.403 . S
C563 C564 1.524 . S
C563 C567 1.400 . S
C564 H549 0.960 . S
C564 H550 0.960 . S
C564 H551 0.960 . S
C564 C563 1.524 . S
C565 C562 1.403 . S
C565 C566 1.392 . S
C565 C569 1.495 . S
C566 C565 1.392 . S
C566 C567 1.385 . S
C566 C568 1.478 . S
C567 H561 0.930 . S
C567 C563 1.400 . S
C567 C566 1.385 . S
C568 C566 1.478 . S
C568 C570 1.381 . S
C568 C574 1.383 . S
C569 C565 1.495 . S
C569 H575 0.959 . S
C569 H576 0.961 . S
C569 H577 0.960 . S
C570 C568 1.381 . S
C570 C571 1.394 . S
C570 H578 0.930 . S
C571 C570 1.394 . S
C571 C572 1.383 . S
C571 H579 0.929 . S
C572 C571 1.383 . S
C572 C573 1.377 . S
C573 H557 0.930 . S
C573 C572 1.377 . S
C573 C574 1.379 . S
C574 H558 0.931 . S
C574 C568 1.383 . S
C574 C573 1.379 . S
H575 C569 0.959 . S
H576 C569 0.961 . S
H577 C569 0.960 . S
H578 C570 0.930 . S
H579 C571 0.929 . S
H580 C588 0.929 . S
H581 C590 0.930 . S
H582 C592 0.930 . S
H583 C595 0.929 . S
H584 C598 0.930 . S
H585 C600 0.960 . S
H586 C600 0.960 . S
H587 C600 0.960 . S
C588 H580 0.929 . S
C588 C589 1.377 . S
C588 C590 1.384 . S
C589 C588 1.377 . S
C589 C595 1.390 . S
C590 H581 0.930 . S
C590 C588 1.384 . S
C590 C591 1.372 . S
C591 C590 1.372 . S
C591 C592 1.400 . S
C591 C596 1.490 . S
C592 H582 0.930 . S
C592 C591 1.400 . S
C592 C595 1.386 . S
H593 C609 0.930 . S
H594 C610 0.931 . S
C595 H583 0.929 . S
C595 C589 1.390 . S
C595 C592 1.386 . S
C596 C591 1.490 . S
C596 C598 1.395 . S
C596 C599 1.403 . S
H597 C603 0.930 . S
C598 H584 0.930 . S
C598 C596 1.395 . S
C598 C601 1.403 . S
C599 C596 1.403 . S
C599 C600 1.524 . S
C599 C603 1.400 . S
C600 H585 0.960 . S
C600 H586 0.960 . S
C600 H587 0.960 . S
C600 C599 1.524 . S
C601 C598 1.403 . S
C601 C602 1.392 . S
C601 C605 1.495 . S
C602 C601 1.392 . S
C602 C603 1.385 . S
C602 C604 1.478 . S
C603 H597 0.930 . S
C603 C599 1.400 . S
C603 C602 1.385 . S
C604 C602 1.478 . S
C604 C606 1.381 . S
C604 C610 1.383 . S
C605 C601 1.495 . S
C605 H611 0.959 . S
C605 H612 0.961 . S
C605 H613 0.960 . S
C606 C604 1.381 . S
C606 C607 1.394 . S
C606 H614 0.930 . S
C607 C606 1.394 . S
C607 C608 1.383 . S
C607 H615 0.929 . S
C608 C607 1.383 . S
C608 C609 1.377 . S
C609 H593 0.930 . S
C609 C608 1.377 . S
C609 C610 1.379 . S
C610 H594 0.931 . S
C610 C604 1.383 . S
C610 C609 1.379 . S
H611 C605 0.959 . S
H612 C605 0.961 . S
H613 C605 0.960 . S
H614 C606 0.930 . S
H615 C607 0.929 . S
H616 C624 0.929 . S
H617 C626 0.930 . S
H618 C628 0.930 . S
H619 C631 0.929 . S
H620 C634 0.930 . S
H621 C636 0.960 . S
H622 C636 0.960 . S
H623 C636 0.960 . S
C624 H616 0.929 . S
C624 C625 1.377 . S
C624 C626 1.384 . S
C625 C624 1.377 . S
C625 C631 1.390 . S
C626 H617 0.930 . S
C626 C624 1.384 . S
C626 C627 1.372 . S
C627 C626 1.372 . S
C627 C628 1.400 . S
C627 C632 1.490 . S
C628 H618 0.930 . S
C628 C627 1.400 . S
C628 C631 1.386 . S
H629 C645 0.930 . S
H630 C646 0.931 . S
C631 H619 0.929 . S
C631 C625 1.390 . S
C631 C628 1.386 . S
C632 C627 1.490 . S
C632 C634 1.395 . S
C632 C635 1.403 . S
H633 C639 0.930 . S
C634 H620 0.930 . S
C634 C632 1.395 . S
C634 C637 1.403 . S
C635 C632 1.403 . S
C635 C636 1.524 . S
C635 C639 1.400 . S
C636 H621 0.960 . S
C636 H622 0.960 . S
C636 H623 0.960 . S
C636 C635 1.524 . S
C637 C634 1.403 . S
C637 C638 1.392 . S
C637 C641 1.495 . S
C638 C637 1.392 . S
C638 C639 1.385 . S
C638 C640 1.478 . S
C639 H633 0.930 . S
C639 C635 1.400 . S
C639 C638 1.385 . S
C640 C638 1.478 . S
C640 C642 1.381 . S
C640 C646 1.383 . S
C641 C637 1.495 . S
C641 H647 0.959 . S
C641 H648 0.961 . S
C641 H649 0.960 . S
C642 C640 1.381 . S
C642 C643 1.394 . S
C642 H650 0.930 . S
C643 C642 1.394 . S
C643 C644 1.383 . S
C643 H651 0.929 . S
C644 C643 1.383 . S
C644 C645 1.377 . S
C645 H629 0.930 . S
C645 C644 1.377 . S
C645 C646 1.379 . S
C646 H630 0.931 . S
C646 C640 1.383 . S
C646 C645 1.379 . S
H647 C641 0.959 . S
H648 C641 0.961 . S
H649 C641 0.960 . S
H650 C642 0.930 . S
H651 C643 0.929 . S
H652 C660 0.929 . S
H653 C662 0.930 . S
H654 C664 0.930 . S
H655 C667 0.929 . S
H656 C670 0.930 . S
H657 C672 0.960 . S
H658 C672 0.960 . S
H659 C672 0.960 . S
C660 H652 0.929 . S
C660 C661 1.377 . S
C660 C662 1.384 . S
C661 C660 1.377 . S
C661 C667 1.390 . S
C662 H653 0.930 . S
C662 C660 1.384 . S
C662 C663 1.372 . S
C663 C662 1.372 . S
C663 C664 1.400 . S
C663 C668 1.490 . S
C664 H654 0.930 . S
C664 C663 1.400 . S
C664 C667 1.386 . S
H665 C681 0.930 . S
H666 C682 0.931 . S
C667 H655 0.929 . S
C667 C661 1.390 . S
C667 C664 1.386 . S
C668 C663 1.490 . S
C668 C670 1.395 . S
C668 C671 1.403 . S
H669 C675 0.930 . S
C670 H656 0.930 . S
C670 C668 1.395 . S
C670 C673 1.403 . S
C671 C668 1.403 . S
C671 C672 1.524 . S
C671 C675 1.400 . S
C672 H657 0.960 . S
C672 H658 0.960 . S
C672 H659 0.960 . S
C672 C671 1.524 . S
C673 C670 1.403 . S
C673 C674 1.392 . S
C673 C677 1.495 . S
C674 C673 1.392 . S
C674 C675 1.385 . S
C674 C676 1.478 . S
C675 H669 0.930 . S
C675 C671 1.400 . S
C675 C674 1.385 . S
C676 C674 1.478 . S
C676 C678 1.381 . S
C676 C682 1.383 . S
C677 C673 1.495 . S
C677 H683 0.959 . S
C677 H684 0.961 . S
C677 H685 0.960 . S
C678 C676 1.381 . S
C678 C679 1.394 . S
C678 H686 0.930 . S
C679 C678 1.394 . S
C679 C680 1.383 . S
C679 H687 0.929 . S
C680 C679 1.383 . S
C680 C681 1.377 . S
C681 H665 0.930 . S
C681 C680 1.377 . S
C681 C682 1.379 . S
C682 H666 0.931 . S
C682 C676 1.383 . S
C682 C681 1.379 . S
H683 C677 0.959 . S
H684 C677 0.961 . S
H685 C677 0.960 . S
H686 C678 0.930 . S
H687 C679 0.929 . S
H688 C696 0.929 . S
H689 C698 0.930 . S
H690 C700 0.930 . S
H691 C703 0.929 . S
H692 C706 0.930 . S
H693 C708 0.960 . S
H694 C708 0.960 . S
H695 C708 0.960 . S
C696 H688 0.929 . S
C696 C697 1.377 . S
C696 C698 1.384 . S
C697 C696 1.377 . S
C697 C703 1.390 . S
C698 H689 0.930 . S
C698 C696 1.384 . S
C698 C699 1.372 . S
C699 C698 1.372 . S
C699 C700 1.400 . S
C699 C704 1.490 . S
C700 H690 0.930 . S
C700 C699 1.400 . S
C700 C703 1.386 . S
H701 C717 0.930 . S
H702 C718 0.931 . S
C703 H691 0.929 . S
C703 C697 1.390 . S
C703 C700 1.386 . S
C704 C699 1.490 . S
C704 C706 1.395 . S
C704 C707 1.403 . S
H705 C711 0.930 . S
C706 H692 0.930 . S
C706 C704 1.395 . S
C706 C709 1.403 . S
C707 C704 1.403 . S
C707 C708 1.524 . S
C707 C711 1.400 . S
C708 H693 0.960 . S
C708 H694 0.960 . S
C708 H695 0.960 . S
C708 C707 1.524 . S
C709 C706 1.403 . S
C709 C710 1.392 . S
C709 C713 1.495 . S
C710 C709 1.392 . S
C710 C711 1.385 . S
C710 C712 1.478 . S
C711 H705 0.930 . S
C711 C707 1.400 . S
C711 C710 1.385 . S
C712 C710 1.478 . S
C712 C714 1.381 . S
C712 C718 1.383 . S
C713 C709 1.495 . S
C713 H719 0.959 . S
C713 H720 0.961 . S
C713 H721 0.960 . S
C714 C712 1.381 . S
C714 C715 1.394 . S
C714 H722 0.930 . S
C715 C714 1.394 . S
C715 C716 1.383 . S
C715 H723 0.929 . S
C716 C715 1.383 . S
C716 C717 1.377 . S
C717 H701 0.930 . S
C717 C716 1.377 . S
C717 C718 1.379 . S
C718 H702 0.931 . S
C718 C712 1.383 . S
C718 C717 1.379 . S
H719 C713 0.959 . S
H720 C713 0.961 . S
H721 C713 0.960 . S
H722 C714 0.930 . S
H723 C715 0.929 . S
H724 C732 0.929 . S
H725 C734 0.930 . S
H726 C736 0.930 . S
H727 C739 0.929 . S
H728 C742 0.930 . S
H729 C744 0.960 . S
H730 C744 0.960 . S
H731 C744 0.960 . S
C732 H724 0.929 . S
C732 C733 1.377 . S
C732 C734 1.384 . S
C733 C732 1.377 . S
C733 C739 1.390 . S
C734 H725 0.930 . S
C734 C732 1.384 . S
C734 C735 1.372 . S
C735 C734 1.372 . S
C735 C736 1.400 . S
C735 C740 1.490 . S
C736 H726 0.930 . S
C736 C735 1.400 . S
C736 C739 1.386 . S
H737 C753 0.930 . S
H738 C754 0.931 . S
C739 H727 0.929 . S
C739 C733 1.390 . S
C739 C736 1.386 . S
C740 C735 1.490 . S
C740 C742 1.395 . S
C740 C743 1.403 . S
H741 C747 0.930 . S
C742 H728 0.930 . S
C742 C740 1.395 . S
C742 C745 1.403 . S
C743 C740 1.403 . S
C743 C744 1.524 . S
C743 C747 1.400 . S
C744 H729 0.960 . S
C744 H730 0.960 . S
C744 H731 0.960 . S
C744 C743 1.524 . S
C745 C742 1.403 . S
C745 C746 1.392 . S
C745 C749 1.495 . S
C746 C745 1.392 . S
C746 C747 1.385 . S
C746 C748 1.478 . S
C747 H741 0.930 . S
C747 C743 1.400 . S
C747 C746 1.385 . S
C748 C746 1.478 . S
C748 C750 1.381 . S
C748 C754 1.383 . S
C749 C745 1.495 . S
C749 H755 0.959 . S
C749 H756 0.961 . S
C749 H757 0.960 . S
C750 C748 1.381 . S
C750 C751 1.394 . S
C750 H758 0.930 . S
C751 C750 1.394 . S
C751 C752 1.383 . S
C751 H759 0.929 . S
C752 C751 1.383 . S
C752 C753 1.377 . S
C753 H737 0.930 . S
C753 C752 1.377 . S
C753 C754 1.379 . S
C754 H738 0.931 . S
C754 C748 1.383 . S
C754 C753 1.379 . S
H755 C749 0.959 . S
H756 C749 0.961 . S
H757 C749 0.960 . S
H758 C750 0.930 . S
H759 C751 0.929 . S
H760 C768 0.929 . S
H761 C770 0.930 . S
H762 C772 0.930 . S
H763 C775 0.929 . S
H764 C778 0.930 . S
H765 C780 0.960 . S
H766 C780 0.960 . S
H767 C780 0.960 . S
C768 H760 0.929 . S
C768 C769 1.377 . S
C768 C770 1.384 . S
C769 C768 1.377 . S
C769 C775 1.390 . S
C770 H761 0.930 . S
C770 C768 1.384 . S
C770 C771 1.372 . S
C771 C770 1.372 . S
C771 C772 1.400 . S
C771 C776 1.490 . S
C772 H762 0.930 . S
C772 C771 1.400 . S
C772 C775 1.386 . S
H773 C789 0.930 . S
H774 C790 0.931 . S
C775 H763 0.929 . S
C775 C769 1.390 . S
C775 C772 1.386 . S
C776 C771 1.490 . S
C776 C778 1.395 . S
C776 C779 1.403 . S
H777 C783 0.930 . S
C778 H764 0.930 . S
C778 C776 1.395 . S
C778 C781 1.403 . S
C779 C776 1.403 . S
C779 C780 1.524 . S
C779 C783 1.400 . S
C780 H765 0.960 . S
C780 H766 0.960 . S
C780 H767 0.960 . S
C780 C779 1.524 . S
C781 C778 1.403 . S
C781 C782 1.392 . S
C781 C785 1.495 . S
C782 C781 1.392 . S
C782 C783 1.385 . S
C782 C784 1.478 . S
C783 H777 0.930 . S
C783 C779 1.400 . S
C783 C782 1.385 . S
C784 C782 1.478 . S
C784 C786 1.381 . S
C784 C790 1.383 . S
C785 C781 1.495 . S
C785 H791 0.959 . S
C785 H792 0.961 . S
C785 H793 0.960 . S
C786 C784 1.381 . S
C786 C787 1.394 . S
C786 H794 0.930 . S
C787 C786 1.394 . S
C787 C788 1.383 . S
C787 H795 0.929 . S
C788 C787 1.383 . S
C788 C789 1.377 . S
C789 H773 0.930 . S
C789 C788 1.377 . S
C789 C790 1.379 . S
C790 H774 0.931 . S
C790 C784 1.383 . S
C790 C789 1.379 . S
H791 C785 0.959 . S
H792 C785 0.961 . S
H793 C785 0.960 . S
H794 C786 0.930 . S
H795 C787 0.929 . S
H796 C804 0.929 . S
H797 C806 0.930 . S
H798 C808 0.930 . S
H799 C811 0.929 . S
H800 C814 0.930 . S
H801 C816 0.960 . S
H802 C816 0.960 . S
H803 C816 0.960 . S
C804 H796 0.929 . S
C804 C805 1.377 . S
C804 C806 1.384 . S
C805 C804 1.377 . S
C805 C811 1.390 . S
C806 H797 0.930 . S
C806 C804 1.384 . S
C806 C807 1.372 . S
C807 C806 1.372 . S
C807 C808 1.400 . S
C807 C812 1.490 . S
C808 H798 0.930 . S
C808 C807 1.400 . S
C808 C811 1.386 . S
H809 C825 0.930 . S
H810 C826 0.931 . S
C811 H799 0.929 . S
C811 C805 1.390 . S
C811 C808 1.386 . S
C812 C807 1.490 . S
C812 C814 1.395 . S
C812 C815 1.403 . S
H813 C819 0.930 . S
C814 H800 0.930 . S
C814 C812 1.395 . S
C814 C817 1.403 . S
C815 C812 1.403 . S
C815 C816 1.524 . S
C815 C819 1.400 . S
C816 H801 0.960 . S
C816 H802 0.960 . S
C816 H803 0.960 . S
C816 C815 1.524 . S
C817 C814 1.403 . S
C817 C818 1.392 . S
C817 C821 1.495 . S
C818 C817 1.392 . S
C818 C819 1.385 . S
C818 C820 1.478 . S
C819 H813 0.930 . S
C819 C815 1.400 . S
C819 C818 1.385 . S
C820 C818 1.478 . S
C820 C822 1.381 . S
C820 C826 1.383 . S
C821 C817 1.495 . S
C821 H827 0.959 . S
C821 H828 0.961 . S
C821 H829 0.960 . S
C822 C820 1.381 . S
C822 C823 1.394 . S
C822 H830 0.930 . S
C823 C822 1.394 . S
C823 C824 1.383 . S
C823 H831 0.929 . S
C824 C823 1.383 . S
C824 C825 1.377 . S
C825 H809 0.930 . S
C825 C824 1.377 . S
C825 C826 1.379 . S
C826 H810 0.931 . S
C826 C820 1.383 . S
C826 C825 1.379 . S
H827 C821 0.959 . S
H828 C821 0.961 . S
H829 C821 0.960 . S
H830 C822 0.930 . S
H831 C823 0.929 . S
H832 C840 0.929 . S
H833 C842 0.930 . S
H834 C844 0.930 . S
H835 C847 0.929 . S
H836 C850 0.930 . S
H837 C852 0.960 . S
H838 C852 0.960 . S
H839 C852 0.960 . S
C840 H832 0.929 . S
C840 C841 1.377 . S
C840 C842 1.384 . S
C841 C840 1.377 . S
C841 C847 1.390 . S
C842 H833 0.930 . S
C842 C840 1.384 . S
C842 C843 1.372 . S
C843 C842 1.372 . S
C843 C844 1.400 . S
C843 C848 1.490 . S
C844 H834 0.930 . S
C844 C843 1.400 . S
C844 C847 1.386 . S
H845 C861 0.930 . S
H846 C862 0.931 . S
C847 H835 0.929 . S
C847 C841 1.390 . S
C847 C844 1.386 . S
C848 C843 1.490 . S
C848 C850 1.395 . S
C848 C851 1.403 . S
H849 C855 0.930 . S
C850 H836 0.930 . S
C850 C848 1.395 . S
C850 C853 1.403 . S
C851 C848 1.403 . S
C851 C852 1.524 . S
C851 C855 1.400 . S
C852 H837 0.960 . S
C852 H838 0.960 . S
C852 H839 0.960 . S
C852 C851 1.524 . S
C853 C850 1.403 . S
C853 C854 1.392 . S
C853 C857 1.495 . S
C854 C853 1.392 . S
C854 C855 1.385 . S
C854 C856 1.478 . S
C855 H849 0.930 . S
C855 C851 1.400 . S
C855 C854 1.385 . S
C856 C854 1.478 . S
C856 C858 1.381 . S
C856 C862 1.383 . S
C857 C853 1.495 . S
C857 H863 0.959 . S
C857 H864 0.961 . S
C857 H865 0.960 . S
C858 C856 1.381 . S
C858 C859 1.394 . S
C858 H866 0.930 . S
C859 C858 1.394 . S
C859 C860 1.383 . S
C859 H867 0.929 . S
C860 C859 1.383 . S
C860 C861 1.377 . S
C861 H845 0.930 . S
C861 C860 1.377 . S
C861 C862 1.379 . S
C862 H846 0.931 . S
C862 C856 1.383 . S
C862 C861 1.379 . S
H863 C857 0.959 . S
H864 C857 0.961 . S
H865 C857 0.960 . S
H866 C858 0.930 . S
H867 C859 0.929 . S
H868 C876 0.929 . S
H869 C878 0.930 . S
H870 C880 0.930 . S
H871 C883 0.929 . S
H872 C886 0.930 . S
H873 C888 0.960 . S
H874 C888 0.960 . S
H875 C888 0.960 . S
C876 H868 0.929 . S
C876 C877 1.377 . S
C876 C878 1.384 . S
C877 C876 1.377 . S
C877 C883 1.390 . S
C878 H869 0.930 . S
C878 C876 1.384 . S
C878 C879 1.372 . S
C879 C878 1.372 . S
C879 C880 1.400 . S
C879 C884 1.490 . S
C880 H870 0.930 . S
C880 C879 1.400 . S
C880 C883 1.386 . S
H881 C897 0.930 . S
H882 C898 0.931 . S
C883 H871 0.929 . S
C883 C877 1.390 . S
C883 C880 1.386 . S
C884 C879 1.490 . S
C884 C886 1.395 . S
C884 C887 1.403 . S
H885 C891 0.930 . S
C886 H872 0.930 . S
C886 C884 1.395 . S
C886 C889 1.403 . S
C887 C884 1.403 . S
C887 C888 1.524 . S
C887 C891 1.400 . S
C888 H873 0.960 . S
C888 H874 0.960 . S
C888 H875 0.960 . S
C888 C887 1.524 . S
C889 C886 1.403 . S
C889 C890 1.392 . S
C889 C893 1.495 . S
C890 C889 1.392 . S
C890 C891 1.385 . S
C890 C892 1.478 . S
C891 H885 0.930 . S
C891 C887 1.400 . S
C891 C890 1.385 . S
C892 C890 1.478 . S
C892 C894 1.381 . S
C892 C898 1.383 . S
C893 C889 1.495 . S
C893 H899 0.959 . S
C893 H900 0.961 . S
C893 H901 0.960 . S
C894 C892 1.381 . S
C894 C895 1.394 . S
C894 H902 0.930 . S
C895 C894 1.394 . S
C895 C896 1.383 . S
C895 H903 0.929 . S
C896 C895 1.383 . S
C896 C897 1.377 . S
C897 H881 0.930 . S
C897 C896 1.377 . S
C897 C898 1.379 . S
C898 H882 0.931 . S
C898 C892 1.383 . S
C898 C897 1.379 . S
H899 C893 0.959 . S
H900 C893 0.961 . S
H901 C893 0.960 . S
H902 C894 0.930 . S
H903 C895 0.929 . S
H904 C912 0.929 . S
H905 C914 0.930 . S
H906 C916 0.930 . S
H907 C919 0.929 . S
H908 C922 0.930 . S
H909 C924 0.960 . S
H910 C924 0.960 . S
H911 C924 0.960 . S
C912 H904 0.929 . S
C912 C913 1.377 . S
C912 C914 1.384 . S
C913 C912 1.377 . S
C913 C919 1.390 . S
C914 H905 0.930 . S
C914 C912 1.384 . S
C914 C915 1.372 . S
C915 C914 1.372 . S
C915 C916 1.400 . S
C915 C920 1.490 . S
C916 H906 0.930 . S
C916 C915 1.400 . S
C916 C919 1.386 . S
H917 C933 0.930 . S
H918 C934 0.931 . S
C919 H907 0.929 . S
C919 C913 1.390 . S
C919 C916 1.386 . S
C920 C915 1.490 . S
C920 C922 1.395 . S
C920 C923 1.403 . S
H921 C927 0.930 . S
C922 H908 0.930 . S
C922 C920 1.395 . S
C922 C925 1.403 . S
C923 C920 1.403 . S
C923 C924 1.524 . S
C923 C927 1.400 . S
C924 H909 0.960 . S
C924 H910 0.960 . S
C924 H911 0.960 . S
C924 C923 1.524 . S
C925 C922 1.403 . S
C925 C926 1.392 . S
C925 C929 1.495 . S
C926 C925 1.392 . S
C926 C927 1.385 . S
C926 C928 1.478 . S
C927 H921 0.930 . S
C927 C923 1.400 . S
C927 C926 1.385 . S
C928 C926 1.478 . S
C928 C930 1.381 . S
C928 C934 1.383 . S
C929 C925 1.495 . S
C929 H935 0.959 . S
C929 H936 0.961 . S
C929 H937 0.960 . S
C930 C928 1.381 . S
C930 C931 1.394 . S
C930 H938 0.930 . S
C931 C930 1.394 . S
C931 C932 1.383 . S
C931 H939 0.929 . S
C932 C931 1.383 . S
C932 C933 1.377 . S
C933 H917 0.930 . S
C933 C932 1.377 . S
C933 C934 1.379 . S
C934 H918 0.931 . S
C934 C928 1.383 . S
C934 C933 1.379 . S
H935 C929 0.959 . S
H936 C929 0.961 . S
H937 C929 0.960 . S
H938 C930 0.930 . S
H939 C931 0.929 . S
H940 C948 0.929 . S
H941 C950 0.930 . S
H942 C952 0.930 . S
H943 C955 0.929 . S
H944 C958 0.930 . S
H945 C960 0.960 . S
H946 C960 0.960 . S
H947 C960 0.960 . S
C948 H940 0.929 . S
C948 C949 1.377 . S
C948 C950 1.384 . S
C949 C948 1.377 . S
C949 C955 1.390 . S
C950 H941 0.930 . S
C950 C948 1.384 . S
C950 C951 1.372 . S
C951 C950 1.372 . S
C951 C952 1.400 . S
C951 C956 1.490 . S
C952 H942 0.930 . S
C952 C951 1.400 . S
C952 C955 1.386 . S
H953 C969 0.930 . S
H954 C970 0.931 . S
C955 H943 0.929 . S
C955 C949 1.390 . S
C955 C952 1.386 . S
C956 C951 1.490 . S
C956 C958 1.395 . S
C956 C959 1.403 . S
H957 C963 0.930 . S
C958 H944 0.930 . S
C958 C956 1.395 . S
C958 C961 1.403 . S
C959 C956 1.403 . S
C959 C960 1.524 . S
C959 C963 1.400 . S
C960 H945 0.960 . S
C960 H946 0.960 . S
C960 H947 0.960 . S
C960 C959 1.524 . S
C961 C958 1.403 . S
C961 C962 1.392 . S
C961 C965 1.495 . S
C962 C961 1.392 . S
C962 C963 1.385 . S
C962 C964 1.478 . S
C963 H957 0.930 . S
C963 C959 1.400 . S
C963 C962 1.385 . S
C964 C962 1.478 . S
C964 C966 1.381 . S
C964 C970 1.383 . S
C965 C961 1.495 . S
C965 H971 0.959 . S
C965 H972 0.961 . S
C965 H973 0.960 . S
C966 C964 1.381 . S
C966 C967 1.394 . S
C966 H974 0.930 . S
C967 C966 1.394 . S
C967 C968 1.383 . S
C967 H975 0.929 . S
C968 C967 1.383 . S
C968 C969 1.377 . S
C969 H953 0.930 . S
C969 C968 1.377 . S
C969 C970 1.379 . S
C970 H954 0.931 . S
C970 C964 1.383 . S
C970 C969 1.379 . S
H971 C965 0.959 . S
H972 C965 0.961 . S
H973 C965 0.960 . S
H974 C966 0.930 . S
H975 C967 0.929 . S
H976 C984 0.929 . S
H977 C986 0.930 . S
H978 C988 0.930 . S
H979 C991 0.929 . S
H980 C994 0.930 . S
H981 C996 0.960 . S
H982 C996 0.960 . S
H983 C996 0.960 . S
C984 H976 0.929 . S
C984 C985 1.377 . S
C984 C986 1.384 . S
C985 C984 1.377 . S
C985 C991 1.390 . S
C986 H977 0.930 . S
C986 C984 1.384 . S
C986 C987 1.372 . S
C987 C986 1.372 . S
C987 C988 1.400 . S
C987 C992 1.490 . S
C988 H978 0.930 . S
C988 C987 1.400 . S
C988 C991 1.386 . S
H989 C1005 0.930 . S
H990 C1006 0.931 . S
C991 H979 0.929 . S
C991 C985 1.390 . S
C991 C988 1.386 . S
C992 C987 1.490 . S
C992 C994 1.395 . S
C992 C995 1.403 . S
H993 C999 0.930 . S
C994 H980 0.930 . S
C994 C992 1.395 . S
C994 C997 1.403 . S
C995 C992 1.403 . S
C995 C996 1.524 . S
C995 C999 1.400 . S
C996 H981 0.960 . S
C996 H982 0.960 . S
C996 H983 0.960 . S
C996 C995 1.524 . S
C997 C994 1.403 . S
C997 C998 1.392 . S
C997 C1001 1.495 . S
C998 C997 1.392 . S
C998 C999 1.385 . S
C998 C1000 1.478 . S
C999 H993 0.930 . S
C999 C995 1.400 . S
C999 C998 1.385 . S
C1000 C998 1.478 . S
C1000 C1002 1.381 . S
C1000 C1006 1.383 . S
C1001 C997 1.495 . S
C1001 H1007 0.959 . S
C1001 H1008 0.961 . S
C1001 H1009 0.960 . S
C1002 C1000 1.381 . S
C1002 C1003 1.394 . S
C1002 H1010 0.930 . S
C1003 C1002 1.394 . S
C1003 C1004 1.383 . S
C1003 H1011 0.929 . S
C1004 C1003 1.383 . S
C1004 C1005 1.377 . S
C1005 H989 0.930 . S
C1005 C1004 1.377 . S
C1005 C1006 1.379 . S
C1006 H990 0.931 . S
C1006 C1000 1.383 . S
C1006 C1005 1.379 . S
H1007 C1001 0.959 . S
H1008 C1001 0.961 . S
H1009 C1001 0.960 . S
H1010 C1002 0.930 . S
H1011 C1003 0.929 . S
H1012 C1020 0.929 . S
H1013 C1022 0.930 . S
H1014 C1024 0.930 . S
H1015 C1027 0.929 . S
H1016 C1030 0.930 . S
H1017 C1032 0.960 . S
H1018 C1032 0.960 . S
H1019 C1032 0.960 . S
C1020 H1012 0.929 . S
C1020 C1021 1.377 . S
C1020 C1022 1.384 . S
C1021 C1020 1.377 . S
C1021 C1027 1.390 . S
C1022 H1013 0.930 . S
C1022 C1020 1.384 . S
C1022 C1023 1.372 . S
C1023 C1022 1.372 . S
C1023 C1024 1.400 . S
C1023 C1028 1.490 . S
C1024 H1014 0.930 . S
C1024 C1023 1.400 . S
C1024 C1027 1.386 . S
H1025 C1041 0.930 . S
H1026 C1042 0.931 . S
C1027 H1015 0.929 . S
C1027 C1021 1.390 . S
C1027 C1024 1.386 . S
C1028 C1023 1.490 . S
C1028 C1030 1.395 . S
C1028 C1031 1.403 . S
H1029 C1035 0.930 . S
C1030 H1016 0.930 . S
C1030 C1028 1.395 . S
C1030 C1033 1.403 . S
C1031 C1028 1.403 . S
C1031 C1032 1.524 . S
C1031 C1035 1.400 . S
C1032 H1017 0.960 . S
C1032 H1018 0.960 . S
C1032 H1019 0.960 . S
C1032 C1031 1.524 . S
C1033 C1030 1.403 . S
C1033 C1034 1.392 . S
C1033 C1037 1.495 . S
C1034 C1033 1.392 . S
C1034 C1035 1.385 . S
C1034 C1036 1.478 . S
C1035 H1029 0.930 . S
C1035 C1031 1.400 . S
C1035 C1034 1.385 . S
C1036 C1034 1.478 . S
C1036 C1038 1.381 . S
C1036 C1042 1.383 . S
C1037 C1033 1.495 . S
C1037 H1043 0.959 . S
C1037 H1044 0.961 . S
C1037 H1045 0.960 . S
C1038 C1036 1.381 . S
C1038 C1039 1.394 . S
C1038 H1046 0.930 . S
C1039 C1038 1.394 . S
C1039 C1040 1.383 . S
C1039 H1047 0.929 . S
C1040 C1039 1.383 . S
C1040 C1041 1.377 . S
C1041 H1025 0.930 . S
C1041 C1040 1.377 . S
C1041 C1042 1.379 . S
C1042 H1026 0.931 . S
C1042 C1036 1.383 . S
C1042 C1041 1.379 . S
H1043 C1037 0.959 . S
H1044 C1037 0.961 . S
H1045 C1037 0.960 . S
H1046 C1038 0.930 . S
H1047 C1039 0.929 . S
H1048 C1056 0.929 . S
H1049 C1058 0.930 . S
H1050 C1060 0.930 . S
H1051 C1063 0.929 . S
H1052 C1066 0.930 . S
H1053 C1068 0.960 . S
H1054 C1068 0.960 . S
H1055 C1068 0.960 . S
C1056 H1048 0.929 . S
C1056 C1057 1.377 . S
C1056 C1058 1.384 . S
C1057 C1056 1.377 . S
C1057 C1063 1.390 . S
C1058 H1049 0.930 . S
C1058 C1056 1.384 . S
C1058 C1059 1.372 . S
C1059 C1058 1.372 . S
C1059 C1060 1.400 . S
C1059 C1064 1.490 . S
C1060 H1050 0.930 . S
C1060 C1059 1.400 . S
C1060 C1063 1.386 . S
H1061 C1077 0.930 . S
H1062 C1078 0.931 . S
C1063 H1051 0.929 . S
C1063 C1057 1.390 . S
C1063 C1060 1.386 . S
C1064 C1059 1.490 . S
C1064 C1066 1.395 . S
C1064 C1067 1.403 . S
H1065 C1071 0.930 . S
C1066 H1052 0.930 . S
C1066 C1064 1.395 . S
C1066 C1069 1.403 . S
C1067 C1064 1.403 . S
C1067 C1068 1.524 . S
C1067 C1071 1.400 . S
C1068 H1053 0.960 . S
C1068 H1054 0.960 . S
C1068 H1055 0.960 . S
C1068 C1067 1.524 . S
C1069 C1066 1.403 . S
C1069 C1070 1.392 . S
C1069 C1073 1.495 . S
C1070 C1069 1.392 . S
C1070 C1071 1.385 . S
C1070 C1072 1.478 . S
C1071 H1065 0.930 . S
C1071 C1067 1.400 . S
C1071 C1070 1.385 . S
C1072 C1070 1.478 . S
C1072 C1074 1.381 . S
C1072 C1078 1.383 . S
C1073 C1069 1.495 . S
C1073 H1079 0.959 . S
C1073 H1080 0.961 . S
C1073 H1081 0.960 . S
C1074 C1072 1.381 . S
C1074 C1075 1.394 . S
C1074 H1082 0.930 . S
C1075 C1074 1.394 . S
C1075 C1076 1.383 . S
C1075 H1083 0.929 . S
C1076 C1075 1.383 . S
C1076 C1077 1.377 . S
C1077 H1061 0.930 . S
C1077 C1076 1.377 . S
C1077 C1078 1.379 . S
C1078 H1062 0.931 . S
C1078 C1072 1.383 . S
C1078 C1077 1.379 . S
H1079 C1073 0.959 . S
H1080 C1073 0.961 . S
H1081 C1073 0.960 . S
H1082 C1074 0.930 . S
H1083 C1075 0.929 . S
H1084 C1092 0.929 . S
H1085 C1094 0.930 . S
H1086 C1096 0.930 . S
H1087 C1099 0.929 . S
H1088 C1102 0.930 . S
H1089 C1104 0.960 . S
H1090 C1104 0.960 . S
H1091 C1104 0.960 . S
C1092 H1084 0.929 . S
C1092 C1093 1.377 . S
C1092 C1094 1.384 . S
C1093 C1092 1.377 . S
C1093 C1099 1.390 . S
C1094 H1085 0.930 . S
C1094 C1092 1.384 . S
C1094 C1095 1.372 . S
C1095 C1094 1.372 . S
C1095 C1096 1.400 . S
C1095 C1100 1.490 . S
C1096 H1086 0.930 . S
C1096 C1095 1.400 . S
C1096 C1099 1.386 . S
H1097 C1113 0.930 . S
H1098 C1114 0.931 . S
C1099 H1087 0.929 . S
C1099 C1093 1.390 . S
C1099 C1096 1.386 . S
C1100 C1095 1.490 . S
C1100 C1102 1.395 . S
C1100 C1103 1.403 . S
H1101 C1107 0.930 . S
C1102 H1088 0.930 . S
C1102 C1100 1.395 . S
C1102 C1105 1.403 . S
C1103 C1100 1.403 . S
C1103 C1104 1.524 . S
C1103 C1107 1.400 . S
C1104 H1089 0.960 . S
C1104 H1090 0.960 . S
C1104 H1091 0.960 . S
C1104 C1103 1.524 . S
C1105 C1102 1.403 . S
C1105 C1106 1.392 . S
C1105 C1109 1.495 . S
C1106 C1105 1.392 . S
C1106 C1107 1.385 . S
C1106 C1108 1.478 . S
C1107 H1101 0.930 . S
C1107 C1103 1.400 . S
C1107 C1106 1.385 . S
C1108 C1106 1.478 . S
C1108 C1110 1.381 . S
C1108 C1114 1.383 . S
C1109 C1105 1.495 . S
C1109 H1115 0.959 . S
C1109 H1116 0.961 . S
C1109 H1117 0.960 . S
C1110 C1108 1.381 . S
C1110 C1111 1.394 . S
C1110 H1118 0.930 . S
C1111 C1110 1.394 . S
C1111 C1112 1.383 . S
C1111 H1119 0.929 . S
C1112 C1111 1.383 . S
C1112 C1113 1.377 . S
C1113 H1097 0.930 . S
C1113 C1112 1.377 . S
C1113 C1114 1.379 . S
C1114 H1098 0.931 . S
C1114 C1108 1.383 . S
C1114 C1113 1.379 . S
H1115 C1109 0.959 . S
H1116 C1109 0.961 . S
H1117 C1109 0.960 . S
H1118 C1110 0.930 . S
H1119 C1111 0.929 . S
H1120 C1128 0.929 . S
H1121 C1130 0.930 . S
H1122 C1132 0.930 . S
H1123 C1135 0.929 . S
H1124 C1138 0.930 . S
H1125 C1140 0.960 . S
H1126 C1140 0.960 . S
H1127 C1140 0.960 . S
C1128 H1120 0.929 . S
C1128 C1129 1.377 . S
C1128 C1130 1.384 . S
C1129 C1128 1.377 . S
C1129 C1135 1.390 . S
C1130 H1121 0.930 . S
C1130 C1128 1.384 . S
C1130 C1131 1.372 . S
C1131 C1130 1.372 . S
C1131 C1132 1.400 . S
C1131 C1136 1.490 . S
C1132 H1122 0.930 . S
C1132 C1131 1.400 . S
C1132 C1135 1.386 . S
H1133 C1149 0.930 . S
H1134 C1150 0.931 . S
C1135 H1123 0.929 . S
C1135 C1129 1.390 . S
C1135 C1132 1.386 . S
C1136 C1131 1.490 . S
C1136 C1138 1.395 . S
C1136 C1139 1.403 . S
H1137 C1143 0.930 . S
C1138 H1124 0.930 . S
C1138 C1136 1.395 . S
C1138 C1141 1.403 . S
C1139 C1136 1.403 . S
C1139 C1140 1.524 . S
C1139 C1143 1.400 . S
C1140 H1125 0.960 . S
C1140 H1126 0.960 . S
C1140 H1127 0.960 . S
C1140 C1139 1.524 . S
C1141 C1138 1.403 . S
C1141 C1142 1.392 . S
C1141 C1145 1.495 . S
C1142 C1141 1.392 . S
C1142 C1143 1.385 . S
C1142 C1144 1.478 . S
C1143 H1137 0.930 . S
C1143 C1139 1.400 . S
C1143 C1142 1.385 . S
C1144 C1142 1.478 . S
C1144 C1146 1.381 . S
C1144 C1150 1.383 . S
C1145 C1141 1.495 . S
C1145 H1151 0.959 . S
C1145 H1152 0.961 . S
C1145 H1153 0.960 . S
C1146 C1144 1.381 . S
C1146 C1147 1.394 . S
C1146 H1154 0.930 . S
C1147 C1146 1.394 . S
C1147 C1148 1.383 . S
C1147 H1155 0.929 . S
C1148 C1147 1.383 . S
C1148 C1149 1.377 . S
C1149 H1133 0.930 . S
C1149 C1148 1.377 . S
C1149 C1150 1.379 . S
C1150 H1134 0.931 . S
C1150 C1144 1.383 . S
C1150 C1149 1.379 . S
H1151 C1145 0.959 . S
H1152 C1145 0.961 . S
H1153 C1145 0.960 . S
H1154 C1146 0.930 . S
H1155 C1147 0.929 . S
H1156 C1164 0.929 . S
H1157 C1166 0.930 . S
H1158 C1168 0.930 . S
H1159 C1171 0.929 . S
H1160 C1174 0.930 . S
H1161 C1176 0.960 . S
H1162 C1176 0.960 . S
H1163 C1176 0.960 . S
C1164 H1156 0.929 . S
C1164 C1165 1.377 . S
C1164 C1166 1.384 . S
C1165 C1164 1.377 . S
C1165 C1171 1.390 . S
C1166 H1157 0.930 . S
C1166 C1164 1.384 . S
C1166 C1167 1.372 . S
C1167 C1166 1.372 . S
C1167 C1168 1.400 . S
C1167 C1172 1.490 . S
C1168 H1158 0.930 . S
C1168 C1167 1.400 . S
C1168 C1171 1.386 . S
H1169 C1185 0.930 . S
H1170 C1186 0.931 . S
C1171 H1159 0.929 . S
C1171 C1165 1.390 . S
C1171 C1168 1.386 . S
C1172 C1167 1.490 . S
C1172 C1174 1.395 . S
C1172 C1175 1.403 . S
H1173 C1179 0.930 . S
C1174 H1160 0.930 . S
C1174 C1172 1.395 . S
C1174 C1177 1.403 . S
C1175 C1172 1.403 . S
C1175 C1176 1.524 . S
C1175 C1179 1.400 . S
C1176 H1161 0.960 . S
C1176 H1162 0.960 . S
C1176 H1163 0.960 . S
C1176 C1175 1.524 . S
C1177 C1174 1.403 . S
C1177 C1178 1.392 . S
C1177 C1181 1.495 . S
C1178 C1177 1.392 . S
C1178 C1179 1.385 . S
C1178 C1180 1.478 . S
C1179 H1173 0.930 . S
C1179 C1175 1.400 . S
C1179 C1178 1.385 . S
C1180 C1178 1.478 . S
C1180 C1182 1.381 . S
C1180 C1186 1.383 . S
C1181 C1177 1.495 . S
C1181 H1187 0.959 . S
C1181 H1188 0.961 . S
C1181 H1189 0.960 . S
C1182 C1180 1.381 . S
C1182 C1183 1.394 . S
C1182 H1190 0.930 . S
C1183 C1182 1.394 . S
C1183 C1184 1.383 . S
C1183 H1191 0.929 . S
C1184 C1183 1.383 . S
C1184 C1185 1.377 . S
C1185 H1169 0.930 . S
C1185 C1184 1.377 . S
C1185 C1186 1.379 . S
C1186 H1170 0.931 . S
C1186 C1180 1.383 . S
C1186 C1185 1.379 . S
H1187 C1181 0.959 . S
H1188 C1181 0.961 . S
H1189 C1181 0.960 . S
H1190 C1182 0.930 . S
H1191 C1183 0.929 . S
H1192 C1200 0.929 . S
H1193 C1202 0.930 . S
H1194 C1204 0.930 . S
H1195 C1207 0.929 . S
H1196 C1210 0.930 . S
H1197 C1212 0.960 . S
H1198 C1212 0.960 . S
H1199 C1212 0.960 . S
C1200 H1192 0.929 . S
C1200 C1201 1.377 . S
C1200 C1202 1.384 . S
C1201 C1200 1.377 . S
C1201 C1207 1.390 . S
C1202 H1193 0.930 . S
C1202 C1200 1.384 . S
C1202 C1203 1.372 . S
C1203 C1202 1.372 . S
C1203 C1204 1.400 . S
C1203 C1208 1.490 . S
C1204 H1194 0.930 . S
C1204 C1203 1.400 . S
C1204 C1207 1.386 . S
H1205 C1221 0.930 . S
H1206 C1222 0.931 . S
C1207 H1195 0.929 . S
C1207 C1201 1.390 . S
C1207 C1204 1.386 . S
C1208 C1203 1.490 . S
C1208 C1210 1.395 . S
C1208 C1211 1.403 . S
H1209 C1215 0.930 . S
C1210 H1196 0.930 . S
C1210 C1208 1.395 . S
C1210 C1213 1.403 . S
C1211 C1208 1.403 . S
C1211 C1212 1.524 . S
C1211 C1215 1.400 . S
C1212 H1197 0.960 . S
C1212 H1198 0.960 . S
C1212 H1199 0.960 . S
C1212 C1211 1.524 . S
C1213 C1210 1.403 . S
C1213 C1214 1.392 . S
C1213 C1217 1.495 . S
C1214 C1213 1.392 . S
C1214 C1215 1.385 . S
C1214 C1216 1.478 . S
C1215 H1209 0.930 . S
C1215 C1211 1.400 . S
C1215 C1214 1.385 . S
C1216 C1214 1.478 . S
C1216 C1218 1.381 . S
C1216 C1222 1.383 . S
C1217 C1213 1.495 . S
C1217 H1223 0.959 . S
C1217 H1224 0.961 . S
C1217 H1225 0.960 . S
C1218 C1216 1.381 . S
C1218 C1219 1.394 . S
C1218 H1226 0.930 . S
C1219 C1218 1.394 . S
C1219 C1220 1.383 . S
C1219 H1227 0.929 . S
C1220 C1219 1.383 . S
C1220 C1221 1.377 . S
C1221 H1205 0.930 . S
C1221 C1220 1.377 . S
C1221 C1222 1.379 . S
C1222 H1206 0.931 . S
C1222 C1216 1.383 . S
C1222 C1221 1.379 . S
H1223 C1217 0.959 . S
H1224 C1217 0.961 . S
H1225 C1217 0.960 . S
H1226 C1218 0.930 . S
H1227 C1219 0.929 . S
H1228 C1236 0.929 . S
H1229 C1238 0.930 . S
H1230 C1240 0.930 . S
H1231 C1243 0.929 . S
H1232 C1246 0.930 . S
H1233 C1248 0.960 . S
H1234 C1248 0.960 . S
H1235 C1248 0.960 . S
C1236 H1228 0.929 . S
C1236 C1237 1.377 . S
C1236 C1238 1.384 . S
C1237 C1236 1.377 . S
C1237 C1243 1.390 . S
C1238 H1229 0.930 . S
C1238 C1236 1.384 . S
C1238 C1239 1.372 . S
C1239 C1238 1.372 . S
C1239 C1240 1.400 . S
C1239 C1244 1.490 . S
C1240 H1230 0.930 . S
C1240 C1239 1.400 . S
C1240 C1243 1.386 . S
H1241 C1257 0.930 . S
H1242 C1258 0.931 . S
C1243 H1231 0.929 . S
C1243 C1237 1.390 . S
C1243 C1240 1.386 . S
C1244 C1239 1.490 . S
C1244 C1246 1.395 . S
C1244 C1247 1.403 . S
H1245 C1251 0.930 . S
C1246 H1232 0.930 . S
C1246 C1244 1.395 . S
C1246 C1249 1.403 . S
C1247 C1244 1.403 . S
C1247 C1248 1.524 . S
C1247 C1251 1.400 . S
C1248 H1233 0.960 . S
C1248 H1234 0.960 . S
C1248 H1235 0.960 . S
C1248 C1247 1.524 . S
C1249 C1246 1.403 . S
C1249 C1250 1.392 . S
C1249 C1253 1.495 . S
C1250 C1249 1.392 . S
C1250 C1251 1.385 . S
C1250 C1252 1.478 . S
C1251 H1245 0.930 . S
C1251 C1247 1.400 . S
C1251 C1250 1.385 . S
C1252 C1250 1.478 . S
C1252 C1254 1.381 . S
C1252 C1258 1.383 . S
C1253 C1249 1.495 . S
C1253 H1259 0.959 . S
C1253 H1260 0.961 . S
C1253 H1261 0.960 . S
C1254 C1252 1.381 . S
C1254 C1255 1.394 . S
C1254 H1262 0.930 . S
C1255 C1254 1.394 . S
C1255 C1256 1.383 . S
C1255 H1263 0.929 . S
C1256 C1255 1.383 . S
C1256 C1257 1.377 . S
C1257 H1241 0.930 . S
C1257 C1256 1.377 . S
C1257 C1258 1.379 . S
C1258 H1242 0.931 . S
C1258 C1252 1.383 . S
C1258 C1257 1.379 . S
H1259 C1253 0.959 . S
H1260 C1253 0.961 . S
H1261 C1253 0.960 . S
H1262 C1254 0.930 . S
H1263 C1255 0.929 . S
C409 C21 1.526 . S
C428 C339 1.509 . S
C445 C61 1.346 . S
C464 C342 1.327 . S
C500 C378 1.655 . S
C481 C82 1.650 . S
C517 C135 1.647 . S
C536 C398 1.639 . S
C572 C352 1.784 . S
C553 C15 1.803 . S
C608 C329 1.622 . S
C589 C42 1.627 . S
C644 C382 1.491 . S
C625 C101 1.624 . S
C680 C362 1.370 . S
C661 C122 1.400 . S
C697 C2 1.362 . S
C716 C392 1.355 . S
C752 C358 1.493 . S
C733 C95 1.526 . S
C769 C141 1.662 . S
C788 C324 1.641 . S
C805 C55 1.344 . S
C824 C372 1.334 . S
C860 C338 1.558 . S
C841 C181 1.595 . S
C877 C202 1.315 . S
C896 C344 1.306 . S
C913 C255 1.693 . S
C932 C379 1.673 . S
C949 C295 1.627 . S
C968 C399 1.617 . S
C985 C175 1.798 . S
C1004 C349 1.737 . S
C1040 C332 1.611 . S
C1021 C221 1.637 . S
C1076 C384 1.469 . S
C1057 C242 1.579 . S
C1112 C364 1.382 . S
C1093 C301 1.449 . S
C1129 C162 1.357 . S
C1148 C389 1.276 . S
C1184 C359 1.564 . S
C1165 C261 1.563 . S
C1220 C322 1.594 . S
C1201 C282 1.647 . S
C1237 C215 1.382 . S
C1256 C369 1.327 . S
