# Generated by pormake.
# Topology zzz, (3,6)-cn, num edge types: 1
# Building blocks:
#     Node 0, Type 0, BuildingBlock: OLANEW_clean_sbu_2, # of connection points: 3
#     Node 1, Type 0, BuildingBlock: OLANEW_clean_sbu_2, # of connection points: 3
#     Node 2, Type 0, BuildingBlock: OLANEW_clean_sbu_2, # of connection points: 3
#     Node 3, Type 0, BuildingBlock: OLANEW_clean_sbu_2, # of connection points: 3
#     Node 4, Type 0, BuildingBlock: OLANEW_clean_sbu_2, # of connection points: 3
#     Node 5, Type 0, BuildingBlock: OLANEW_clean_sbu_2, # of connection points: 3
#     Node 6, Type 0, BuildingBlock: OLANEW_clean_sbu_2, # of connection points: 3
#     Node 7, Type 0, BuildingBlock: OLANEW_clean_sbu_2, # of connection points: 3
#     Node 8, Type 1, BuildingBlock: BETFAJ_clean_sbu_0, # of connection points: 6
#     Node 9, Type 1, BuildingBlock: BETFAJ_clean_sbu_0, # of connection points: 6
#     Node 10, Type 1, BuildingBlock: BETFAJ_clean_sbu_0, # of connection points: 6
#     Node 11, Type 1, BuildingBlock: BETFAJ_clean_sbu_0, # of connection points: 6
#     Edge 12, Type (0, 1), BuildingBlock: KIFKEQ_clean_linker_1, # of connection points: 2
#     Edge 13, Type (0, 1), BuildingBlock: KIFKEQ_clean_linker_1, # of connection points: 2
#     Edge 14, Type (0, 1), BuildingBlock: KIFKEQ_clean_linker_1, # of connection points: 2
#     Edge 15, Type (0, 1), BuildingBlock: KIFKEQ_clean_linker_1, # of connection points: 2
#     Edge 16, Type (0, 1), BuildingBlock: KIFKEQ_clean_linker_1, # of connection points: 2
#     Edge 17, Type (0, 1), BuildingBlock: KIFKEQ_clean_linker_1, # of connection points: 2
#     Edge 18, Type (0, 1), BuildingBlock: KIFKEQ_clean_linker_1, # of connection points: 2
#     Edge 19, Type (0, 1), BuildingBlock: KIFKEQ_clean_linker_1, # of connection points: 2
#     Edge 20, Type (0, 1), BuildingBlock: KIFKEQ_clean_linker_1, # of connection points: 2
#     Edge 21, Type (0, 1), BuildingBlock: KIFKEQ_clean_linker_1, # of connection points: 2
#     Edge 22, Type (0, 1), BuildingBlock: KIFKEQ_clean_linker_1, # of connection points: 2
#     Edge 23, Type (0, 1), BuildingBlock: KIFKEQ_clean_linker_1, # of connection points: 2
#     Edge 24, Type (0, 1), BuildingBlock: KIFKEQ_clean_linker_1, # of connection points: 2
#     Edge 25, Type (0, 1), BuildingBlock: KIFKEQ_clean_linker_1, # of connection points: 2
#     Edge 26, Type (0, 1), BuildingBlock: KIFKEQ_clean_linker_1, # of connection points: 2
#     Edge 27, Type (0, 1), BuildingBlock: KIFKEQ_clean_linker_1, # of connection points: 2
#     Edge 28, Type (0, 1), BuildingBlock: KIFKEQ_clean_linker_1, # of connection points: 2
#     Edge 29, Type (0, 1), BuildingBlock: KIFKEQ_clean_linker_1, # of connection points: 2
#     Edge 30, Type (0, 1), BuildingBlock: KIFKEQ_clean_linker_1, # of connection points: 2
#     Edge 31, Type (0, 1), BuildingBlock: KIFKEQ_clean_linker_1, # of connection points: 2
#     Edge 32, Type (0, 1), BuildingBlock: KIFKEQ_clean_linker_1, # of connection points: 2
#     Edge 33, Type (0, 1), BuildingBlock: KIFKEQ_clean_linker_1, # of connection points: 2
#     Edge 34, Type (0, 1), BuildingBlock: KIFKEQ_clean_linker_1, # of connection points: 2
#     Edge 35, Type (0, 1), BuildingBlock: KIFKEQ_clean_linker_1, # of connection points: 2
# Relax obj value: 0.250
# Max RMSD: 0.190
# Mean RMSD: 0.173
data_MOF--net-zzz--node1-OLANEW_clean_sbu_2--node2-BETFAJ_clean_sbu_0--edge1-KIFKEQ_clean_linker_1
_symmetry_space_group_name_H-M    P1
_symmetry_Int_Tables_number       1
_symmetry_cell_setting            triclinic
loop_
_symmetry_equiv_pos_as_xyz
'x, y, z'
_cell_length_a     57.695392
_cell_length_b     57.465254
_cell_length_c     15.360992
_cell_angle_alpha  89.764613
_cell_angle_beta   90.017161
_cell_angle_gamma 89.942288
loop_
_atom_site_label
_atom_site_type_symbol
_atom_site_fract_x
_atom_site_fract_y
_atom_site_fract_z
_atom_type_partial_charge
O0 O 0.73656 0.56508 0.15519 0.0
Cd1 Cd 0.69943 0.57746 0.21533 0.0
O2 O 0.7416 0.55055 0.28563 0.0
Cd3 Cd 0.76243 0.53226 0.38183 0.0
O4 O 0.79668 0.52623 0.43462 0.0
C5 C 0.80151 0.51765 0.50863 0.0
O6 O 0.7847 0.51077 0.56037 0.0
C7 C 0.74939 0.5545 0.20953 0.0
C8 C 0.66228 0.56002 0.12122 0.0
O9 O 0.67059 0.58024 0.10458 0.0
O10 O 0.67157 0.54807 0.18265 0.0
O11 O 0.94421 0.72633 0.24948 0.0
Cd12 Cd 0.93679 0.68906 0.32163 0.0
O13 O 0.97849 0.72563 0.3108 0.0
Cd14 Cd 0.00901 0.74449 0.35429 0.0
O15 O 0.01406 0.78077 0.38699 0.0
C16 C 0.01421 0.78701 0.4661 0.0
O17 O 0.01384 0.77104 0.52754 0.0
C18 C 0.96369 0.73594 0.26272 0.0
C19 C 0.9527 0.652 0.22209 0.0
O20 O 0.93193 0.65966 0.21402 0.0
O21 O 0.96595 0.6618 0.27796 0.0
O22 O 0.7705 0.93211 0.19354 0.0
Cd23 Cd 0.80678 0.91749 0.255 0.0
O24 O 0.76952 0.95308 0.31175 0.0
Cd25 Cd 0.75371 0.97791 0.39968 0.0
O26 O 0.72423 0.98903 0.47555 0.0
C27 C 0.70936 0.00252 0.44124 0.0
O28 O 0.71348 0.01133 0.36369 0.0
C29 C 0.76004 0.94678 0.24092 0.0
C30 C 0.8446 0.93364 0.16083 0.0
O31 O 0.83509 0.91407 0.1431 0.0
O32 O 0.8363 0.94554 0.224 0.0
O33 O 0.51526 0.7623 0.25367 0.0
Cd34 Cd 0.51953 0.80134 0.31504 0.0
O35 O 0.48104 0.76016 0.31541 0.0
Cd36 Cd 0.45336 0.73794 0.36388 0.0
O37 O 0.45018 0.70232 0.40963 0.0
C38 C 0.45389 0.69786 0.48944 0.0
O39 O 0.45729 0.71515 0.54365 0.0
C40 C 0.49707 0.75073 0.27096 0.0
C41 C 0.51547 0.83789 0.19607 0.0
O42 O 0.535 0.82783 0.20943 0.0
O43 O 0.49775 0.83036 0.23787 0.0
O44 O 0.28216 0.54104 0.11823 0.0
Cd45 Cd 0.32162 0.54089 0.06147 0.0
O46 O 0.28411 0.5029 0.11919 0.0
Cd47 Cd 0.26574 0.46976 0.12445 0.0
O48 O 0.23107 0.46042 0.08166 0.0
C49 C 0.22419 0.47338 0.0196 0.0
O50 O 0.23854 0.48904 0.98811 0.0
C51 C 0.2728 0.52149 0.13418 0.0
C52 C 0.35207 0.53041 0.19638 0.0
O53 O 0.34744 0.55158 0.17613 0.0
O54 O 0.34264 0.51422 0.15156 0.0
O55 O 0.97073 0.27664 0.11622 0.0
Cd56 Cd 0.97584 0.31622 0.0633 0.0
O57 O 0.00814 0.27305 0.09466 0.0
Cd58 Cd 0.03785 0.24983 0.08348 0.0
O59 O 0.04429 0.21359 0.05164 0.0
C60 C 0.04709 0.20817 0.9723 0.0
O61 O 0.04824 0.22481 0.91355 0.0
C62 C 0.98901 0.26439 0.12024 0.0
C63 C 0.98489 0.34513 0.20389 0.0
O64 O 0.96424 0.34256 0.17464 0.0
O65 O 0.00138 0.33424 0.1657 0.0
O66 O 0.2308 0.956 0.11576 0.0
Cd67 Cd 0.19207 0.96078 0.05595 0.0
O68 O 0.23379 0.9936 0.09408 0.0
Cd69 Cd 0.25329 0.02611 0.10026 0.0
O70 O 0.28686 0.04192 0.07538 0.0
C71 C 0.29183 0.0468 0.99691 0.0
O72 O 0.27561 0.0449 0.93729 0.0
C73 C 0.24276 0.97449 0.11943 0.0
C74 C 0.1612 0.97089 0.18919 0.0
O75 O 0.16417 0.94996 0.16282 0.0
O76 O 0.1727 0.98715 0.15173 0.0
O77 O 0.49995 0.23748 0.0669 0.0
Cd78 Cd 0.49987 0.19581 0.03592 0.0
O79 O 0.46741 0.24008 0.99397 0.0
Cd80 Cd 0.43734 0.25871 0.94303 0.0
O81 O 0.40109 0.2738 0.92639 0.0
C82 C 0.39593 0.29542 0.93191 0.0
O83 O 0.40034 0.27323 0.92571 0.0
C84 C 0.48304 0.2497 0.03971 0.0
C85 C 0.50042 0.16864 0.18735 0.0
O86 O 0.51925 0.17413 0.14807 0.0
O87 O 0.48128 0.17612 0.15536 0.0
Sm88 Sm 0.01214 0.98938 0.79158 0.0
Sm89 Sm 0.99347 0.00981 0.61733 0.0
C90 C 0.0178 0.96554 0.93806 0.0
C91 C 0.01127 0.94241 0.97315 0.0
C92 C 0.98803 0.93654 0.98994 0.0
C93 C 0.98232 0.91455 0.02309 0.0
C94 C -0.00031 0.8979 0.03991 0.0
C95 C 0.02292 0.90388 0.02296 0.0
C96 C 0.02862 0.92589 0.99044 0.0
C97 C 0.04466 0.99693 0.6639 0.0
C98 C 0.99325 0.9543 0.63865 0.0
C99 C 0.98668 0.03155 0.46713 0.0
C100 C 0.98653 0.0554 0.43185 0.0
C101 C 0.00288 0.07197 0.45886 0.0
C102 C 0.00275 0.09434 0.42275 0.0
C103 C 0.98615 0.10059 0.35975 0.0
C104 C 0.9696 0.08406 0.33399 0.0
C105 C 0.96986 0.06164 0.36956 0.0
C106 C 0.96047 0.99941 0.73892 0.0
C107 C 0.01502 0.04489 0.76969 0.0
O108 O 0.00119 0.98079 0.92641 0.0
O109 O 0.03313 0.96579 0.87532 0.0
O110 O 0.02464 0.98892 0.65353 0.0
O111 O 0.04898 0.00029 0.74603 0.0
O112 O 0.99458 0.95817 0.72335 0.0
O113 O 0.99568 0.97132 0.58133 0.0
O114 O 0.00677 0.0231 0.49138 0.0
O115 O 0.96981 0.0261 0.52029 0.0
O116 O 0.97977 0.00882 0.75467 0.0
O117 O 0.95747 0.99643 0.6559 0.0
O118 O 0.00906 0.04185 0.68717 0.0
O119 O 0.01543 0.02763 0.82662 0.0
H120 H 0.9742 0.94888 0.97764 0.0
H121 H 0.96429 0.91073 0.03643 0.0
H122 H 0.03674 0.89143 0.03363 0.0
H123 H 0.04667 0.92995 0.97824 0.0
H124 H 0.01577 0.06762 0.50757 0.0
H125 H 0.01551 0.10683 0.44469 0.0
H126 H 0.95671 0.08835 0.2852 0.0
H127 H 0.9571 0.04908 0.348 0.0
Sm128 Sm 0.51066 0.02232 0.8172 0.0
Sm129 Sm 0.49109 0.00398 0.6449 0.0
C130 C 0.53448 0.02721 0.96342 0.0
C131 C 0.55705 0.01869 0.99574 0.0
C132 C 0.56505 0.99632 0.97462 0.0
C133 C 0.5868 0.98871 0.00326 0.0
C134 C 0.60117 0.00338 0.05289 0.0
C135 C 0.593 0.02578 0.07394 0.0
C136 C 0.57116 0.03331 0.04573 0.0
C137 C 0.50379 0.05536 0.68984 0.0
C138 C 0.54596 0.00303 0.66684 0.0
C139 C 0.46986 0.99757 0.49397 0.0
C140 C 0.44648 0.99345 0.4589 0.0
C141 C 0.42693 0.00464 0.49359 0.0
C142 C 0.40502 0.00098 0.45714 0.0
C143 C 0.40224 0.98599 0.3856 0.0
C144 C 0.42187 0.97454 0.35222 0.0
C145 C 0.44376 0.97828 0.38846 0.0
C146 C 0.4994 0.9704 0.7682 0.0
C147 C 0.45551 0.02563 0.79558 0.0
O148 O 0.51817 0.01163 0.95324 0.0
O149 O 0.53529 0.04231 0.89957 0.0
O150 O 0.512 0.03532 0.67911 0.0
O151 O 0.49973 0.05933 0.77176 0.0
O152 O 0.54164 0.00392 0.7512 0.0
O153 O 0.52936 0.00634 0.60915 0.0
O154 O 0.47396 0.01814 0.52694 0.0
O155 O 0.47918 0.9806 0.53891 0.0
O156 O 0.4905 0.99007 0.78282 0.0
O157 O 0.50303 0.96738 0.68563 0.0
O158 O 0.45865 0.01883 0.71411 0.0
O159 O 0.47265 0.02674 0.85221 0.0
H160 H 0.55454 0.98473 0.93559 0.0
H161 H 0.59227 0.97125 0.98681 0.0
H162 H 0.60366 0.03771 0.11076 0.0
H163 H 0.56539 0.0507 0.06208 0.0
H164 H 0.42862 0.0164 0.54814 0.0
H165 H 0.39035 0.01029 0.48394 0.0
H166 H 0.42033 0.96258 0.29824 0.0
H167 H 0.45863 0.96939 0.36112 0.0
Sm168 Sm 0.48465 0.49654 0.84495 0.0
Sm169 Sm 0.49623 0.47905 0.65757 0.0
C170 C 0.48602 0.51136 0.00757 0.0
C171 C 0.48411 0.53427 0.05029 0.0
C172 C 0.50218 0.5417 0.10462 0.0
C173 C 0.50262 0.56447 0.13615 0.0
C174 C 0.48486 0.58023 0.11463 0.0
C175 C 0.4662 0.57248 0.06346 0.0
C176 C 0.4659 0.54974 0.03097 0.0
C177 C 0.44797 0.49689 0.73082 0.0
C178 C 0.48859 0.53398 0.68753 0.0
C179 C 0.50185 0.46103 0.50088 0.0
C180 C 0.49604 0.44157 0.4431 0.0
C181 C 0.4736 0.43223 0.43879 0.0
C182 C 0.46878 0.41391 0.38176 0.0
C183 C 0.48633 0.40464 0.32834 0.0
C184 C 0.50872 0.41421 0.333 0.0
C185 C 0.51347 0.4325 0.38962 0.0
C186 C 0.53289 0.49529 0.7544 0.0
C187 C 0.48285 0.44034 0.80981 0.0
O188 O 0.50449 0.50874 0.95917 0.0
O189 O 0.46729 0.50248 0.97243 0.0
O190 O 0.46343 0.48141 0.73554 0.0
O191 O 0.45065 0.51225 0.79191 0.0
O192 O 0.4939 0.5302 0.77024 0.0
O193 O 0.48509 0.51669 0.63275 0.0
O194 O 0.48542 0.47597 0.51966 0.0
O195 O 0.51577 0.45652 0.56626 0.0
O196 O 0.51675 0.48257 0.78162 0.0
O197 O 0.53042 0.49966 0.67222 0.0
O198 O 0.48694 0.44446 0.72621 0.0
O199 O 0.48207 0.45715 0.8684 0.0
H200 H 0.51644 0.53011 0.12011 0.0
H201 H 0.51709 0.5699 0.17613 0.0
H202 H 0.45238 0.58431 0.04534 0.0
H203 H 0.45187 0.54457 0.98843 0.0
H204 H 0.45984 0.43904 0.47935 0.0
H205 H 0.45131 0.40706 0.37933 0.0
H206 H 0.52277 0.40724 0.2943 0.0
H207 H 0.53089 0.43952 0.392 0.0
Sm208 Sm 0.00429 0.4865 0.83514 0.0
Sm209 Sm 0.0238 0.50589 0.66027 0.0
C210 C 0.98004 0.48081 0.9797 0.0
C211 C 0.95709 0.48918 0.00832 0.0
C212 C 0.94979 0.51206 0.99032 0.0
C213 C 0.92747 0.51934 0.0131 0.0
C214 C 0.91193 0.50384 0.05343 0.0
C215 C 0.91933 0.481 0.07161 0.0
C216 C 0.94173 0.47377 0.04943 0.0
C217 C 0.00963 0.45478 0.70327 0.0
C218 C 0.96899 0.50871 0.68905 0.0
C219 C 0.0442 0.51222 0.5075 0.0
C220 C 0.0675 0.51307 0.46849 0.0
C221 C 0.08533 0.49825 0.49708 0.0
C222 C 0.10714 0.49902 0.45734 0.0
C223 C 0.11153 0.51473 0.38878 0.0
C224 C 0.09366 0.52968 0.36106 0.0
C225 C 0.07184 0.5288 0.40046 0.0
C226 C 0.01546 0.53853 0.78543 0.0
C227 C 0.05941 0.48356 0.81061 0.0
O228 O 0.99637 0.49647 0.97134 0.0
O229 O 0.97988 0.46575 0.91611 0.0
O230 O 0.00217 0.4752 0.69602 0.0
O231 O 0.01378 0.44963 0.7844 0.0
O232 O 0.97373 0.50654 0.77283 0.0
O233 O 0.98507 0.5056 0.62907 0.0
O234 O 0.03696 0.49193 0.53549 0.0
O235 O 0.03854 0.52939 0.55904 0.0
O236 O 0.02419 0.51869 0.79861 0.0
O237 O 0.01237 0.5424 0.70281 0.0
O238 O 0.05592 0.48975 0.72836 0.0
O239 O 0.04252 0.48286 0.86854 0.0
H240 H 0.96118 0.52422 0.9574 0.0
H241 H 0.9222 0.53695 0.99727 0.0
H242 H 0.90783 0.46873 0.10334 0.0
H243 H 0.94696 0.45603 0.06338 0.0
H244 H 0.0824 0.48605 0.54987 0.0
H245 H 0.12064 0.4875 0.48093 0.0
H246 H 0.09644 0.54181 0.30794 0.0
H247 H 0.05828 0.54034 0.3774 0.0
H248 H 0.12884 0.94192 0.25907 0.0
H249 H 0.15675 0.01143 0.28083 0.0
H250 H 0.10129 0.9504 0.37488 0.0
H251 H 0.12909 0.01982 0.39774 0.0
H252 H 0.09061 0.00932 0.67212 0.0
H253 H 0.11978 0.00453 0.55677 0.0
H254 H 0.06683 0.97856 0.38401 0.0
H255 H 0.03797 0.98336 0.49758 0.0
C256 C 0.12915 0.95898 0.28875 0.0
C257 C 0.14486 0.97605 0.26053 0.0
C258 C 0.11333 0.96385 0.35481 0.0
C259 C 0.11305 0.98579 0.39473 0.0
C260 C 0.12906 0.00275 0.36806 0.0
C261 C 0.14474 0.99798 0.30096 0.0
C262 C 0.08527 0.00286 0.60909 0.0
C263 C 0.06212 0.99652 0.59396 0.0
C264 C 0.10188 0.00018 0.54329 0.0
C265 C 0.09552 0.9909 0.46215 0.0
C266 C 0.07222 0.98541 0.44643 0.0
C267 C 0.0557 0.98827 0.51144 0.0
H268 H 0.46452 0.15873 0.29824 0.0
H269 H 0.53711 0.14445 0.25399 0.0
H270 H 0.46489 0.13228 0.42361 0.0
H271 H 0.53737 0.11806 0.3787 0.0
H272 H 0.51943 0.0506 0.52465 0.0
H273 H 0.51838 0.07909 0.40711 0.0
H274 H 0.48364 0.12788 0.57581 0.0
H275 H 0.48482 0.09915 0.69478 0.0
C276 C 0.48057 0.15006 0.31549 0.0
C277 C 0.50077 0.15359 0.26587 0.0
C278 C 0.48078 0.13504 0.3875 0.0
C279 C 0.50112 0.12304 0.41052 0.0
C280 C 0.52139 0.1269 0.36185 0.0
C281 C 0.52125 0.14209 0.29063 0.0
C282 C 0.51156 0.06739 0.53689 0.0
C283 C 0.50231 0.07273 0.61902 0.0
C284 C 0.51107 0.08374 0.46963 0.0
C285 C 0.50112 0.10576 0.48254 0.0
C286 C 0.49139 0.111 0.56415 0.0
C287 C 0.49213 0.09465 0.63213 0.0
H288 H 0.35941 0.48793 0.2719 0.0
H289 H 0.37877 0.56035 0.29066 0.0
H290 H 0.38216 0.47921 0.40161 0.0
H291 H 0.40219 0.55153 0.41852 0.0
H292 H 0.41973 0.53378 0.69833 0.0
H293 H 0.39698 0.54137 0.56772 0.0
H294 H 0.42064 0.47633 0.45814 0.0
H295 H 0.44255 0.46836 0.591 0.0
C296 C 0.36876 0.50194 0.30311 0.0
C297 C 0.36719 0.52485 0.27136 0.0
C298 C 0.3819 0.49692 0.3773 0.0
C299 C 0.39389 0.51469 0.42099 0.0
C300 C 0.39278 0.53751 0.38767 0.0
C301 C 0.37949 0.54255 0.31395 0.0
C302 C 0.41981 0.521 0.64671 0.0
C303 C 0.43291 0.50052 0.65447 0.0
C304 C 0.40702 0.52546 0.57136 0.0
C305 C 0.40714 0.50958 0.50189 0.0
C306 C 0.41997 0.48886 0.51056 0.0
C307 C 0.43264 0.48433 0.58635 0.0
H308 H 0.02491 0.34858 0.29895 0.0
H309 H 0.95519 0.37575 0.28002 0.0
H310 H 0.03241 0.37429 0.42265 0.0
H311 H 0.96278 0.40135 0.40279 0.0
H312 H 0.02221 0.40859 0.70282 0.0
H313 H 0.01731 0.38093 0.58232 0.0
H314 H 0.98975 0.43612 0.42115 0.0
H315 H 0.99465 0.46347 0.53973 0.0
C316 C 0.01121 0.36 0.32119 0.0
C317 C 0.98949 0.36026 0.27945 0.0
C318 C 0.01548 0.37455 0.39222 0.0
C319 C -0.00179 0.38982 0.42177 0.0
C320 C 0.97646 0.38988 0.38065 0.0
C321 C 0.97211 0.37518 0.31054 0.0
C322 C 0.01531 0.41474 0.64129 0.0
C323 C 0.00866 0.43809 0.63076 0.0
C324 C 0.01257 0.39899 0.57254 0.0
C325 C 0.00289 0.40641 0.49303 0.0
C326 C 0.9969 0.42989 0.48219 0.0
C327 C -0.00017 0.44556 0.55009 0.0
H328 H 0.86524 0.97645 0.16931 0.0
H329 H 0.86778 0.91102 0.03181 0.0
H330 H 0.89474 0.99226 0.0717 0.0
H331 H 0.89755 0.92663 0.93585 0.0
H332 H 0.92325 0.97185 0.71184 0.0
H333 H 0.89703 0.95555 0.81974 0.0
H334 H 0.93565 0.98934 0.02447 0.0
H335 H 0.96167 0.00629 0.91519 0.0
C336 C 0.87231 0.96535 0.11905 0.0
C337 C 0.86398 0.94258 0.10752 0.0
C338 C 0.8893 0.97437 0.06349 0.0
C339 C 0.89826 0.96077 0.99551 0.0
C340 C 0.89062 0.93769 0.98655 0.0
C341 C 0.87363 0.92871 0.04177 0.0
C342 C 0.92612 0.97586 0.77984 0.0
C343 C 0.94454 0.99019 0.80538 0.0
C344 C 0.91124 0.96633 0.84177 0.0
C345 C 0.91443 0.97093 0.93073 0.0
C346 C 0.93274 0.98553 0.95634 0.0
C347 C 0.94769 0.99509 0.89405 0.0
H348 H 0.54889 0.85531 0.08804 0.0
H349 H 0.47774 0.86572 0.16693 0.0
H350 H 0.5458 0.88832 0.98835 0.0
H351 H 0.47466 0.89867 0.06668 0.0
H352 H 0.4859 0.97056 0.939 0.0
H353 H 0.49037 0.93899 0.04552 0.0
H354 H 0.5248 0.89722 0.85132 0.0
H355 H 0.52045 0.92867 0.74559 0.0
C356 C 0.53258 0.86462 0.08408 0.0
C357 C 0.51353 0.85783 0.13517 0.0
C358 C 0.53081 0.88349 0.02679 0.0
C359 C 0.50999 0.89608 0.01972 0.0
C360 C 0.491 0.88945 0.07142 0.0
C361 C 0.49273 0.87046 0.1283 0.0
C362 C 0.49451 0.95465 0.91948 0.0
C363 C 0.50275 0.95198 0.83411 0.0
C364 C 0.49696 0.93657 0.98016 0.0
C365 C 0.5079 0.91562 0.95667 0.0
C366 C 0.5165 0.91322 0.87163 0.0
C367 C 0.51389 0.93117 0.81096 0.0
H368 H 0.6347 0.58339 0.00604 0.0
H369 H 0.64564 0.51555 0.12133 0.0
H370 H 0.60283 0.5679 0.92011 0.0
H371 H 0.6143 0.49983 0.0331 0.0
H372 H 0.54287 0.48394 0.92263 0.0
H373 H 0.57321 0.50027 0.01451 0.0
H374 H 0.5964 0.54289 0.79887 0.0
H375 H 0.56532 0.52733 0.70875 0.0
C376 C 0.63037 0.56513 0.01268 0.0
C377 C 0.64271 0.55067 0.07025 0.0
C378 C 0.61218 0.55622 0.96305 0.0
C379 C 0.60607 0.53258 0.96925 0.0
C380 C 0.61833 0.51818 0.02751 0.0
C381 C 0.63639 0.52715 0.07774 0.0
C382 C 0.55432 0.49699 0.8954 0.0
C383 C 0.55163 0.50461 0.80909 0.0
C384 C 0.57186 0.50617 0.94766 0.0
C385 C 0.58724 0.52295 0.91419 0.0
C386 C 0.58462 0.53032 0.82728 0.0
C387 C 0.56697 0.52127 0.77534 0.0
H388 H 0.92877 0.62831 0.09754 0.0
H389 H 0.99607 0.63261 0.22018 0.0
H390 H 0.94362 0.59903 0.99777 0.0
H391 H 0.01098 0.60345 0.11925 0.0
H392 H 0.02357 0.53619 0.96088 0.0
H393 H 0.00746 0.56165 0.07364 0.0
H394 H 0.97134 0.60105 0.87546 0.0
H395 H 0.98706 0.57559 0.76392 0.0
C396 C 0.9467 0.62293 0.10356 0.0
C397 C 0.96131 0.63296 0.1662 0.0
C398 C 0.95522 0.60621 0.04618 0.0
C399 C 0.97852 0.59914 0.05017 0.0
C400 C 0.99291 0.60848 0.11499 0.0
C401 C 0.9844 0.62527 0.1724 0.0
C402 C 0.0121 0.55026 0.94189 0.0
C403 C 0.0065 0.55395 0.85396 0.0
C404 C 0.00299 0.56486 0.00616 0.0
C405 C 0.98803 0.58324 0.98334 0.0
C406 C 0.98252 0.58682 0.89522 0.0
C407 C 0.9917 0.57238 0.83126 0.0
H408 H 0.01982 0.24312 0.22758 0.0
H409 H 0.95569 0.23171 0.08988 0.0
H410 H 0.01894 0.20328 0.28184 0.0
H411 H 0.95484 0.19148 0.14302 0.0
H412 H 0.94916 0.12953 0.3334 0.0
H413 H 0.94945 0.1689 0.27316 0.0
H414 H 0.02355 0.16403 0.23558 0.0
H415 H 0.02323 0.12493 0.29762 0.0
C416 C 0.00574 0.23187 0.20768 0.0
C417 C 0.9881 0.24026 0.15307 0.0
C418 C 0.00521 0.20904 0.23875 0.0
C419 C 0.98696 0.19403 0.21607 0.0
C420 C 0.96908 0.2026 0.16231 0.0
C421 C 0.96957 0.22556 0.1316 0.0
C422 C 0.96546 0.13687 0.31168 0.0
C423 C 0.9862 0.12425 0.32077 0.0
C424 C 0.96563 0.15939 0.27685 0.0
C425 C 0.98654 0.16972 0.24978 0.0
C426 C 0.0072 0.15683 0.25733 0.0
C427 C 0.00704 0.13441 0.29278 0.0
H428 H 0.25851 0.95067 0.26104 0.0
H429 H 0.28085 0.99586 0.05287 0.0
H430 H 0.29752 0.95154 0.3234 0.0
H431 H 0.31947 0.99789 0.11691 0.0
H432 H 0.39183 0.98233 0.21211 0.0
H433 H 0.35399 0.97698 0.1454 0.0
H434 H 0.32207 0.97801 0.3999 0.0
H435 H 0.36008 0.98207 0.46688 0.0
C436 C 0.2718 0.96087 0.22896 0.0
C437 C 0.2666 0.97385 0.15392 0.0
C438 C 0.29407 0.96157 0.26498 0.0
C439 C 0.31159 0.97515 0.22618 0.0
C440 C 0.30647 0.98732 0.14883 0.0
C441 C 0.28425 0.98653 0.1129 0.0
C442 C 0.37679 0.98103 0.25401 0.0
C443 C 0.37905 0.9826 0.34499 0.0
C444 C 0.35502 0.97826 0.21561 0.0
C445 C 0.3349 0.9771 0.26714 0.0
C446 C 0.33718 0.97852 0.35816 0.0
C447 C 0.35898 0.98119 0.39659 0.0
H448 H 0.51822 0.28076 0.05541 0.0
H449 H 0.44411 0.274 0.08437 0.0
H450 H 0.51606 0.32053 0.11067 0.0
H451 H 0.44184 0.31395 0.13709 0.0
H452 H 0.45978 0.36633 0.36399 0.0
H453 H 0.45638 0.33092 0.27853 0.0
H454 H 0.49988 0.36092 0.07905 0.0
H455 H 0.50288 0.39673 0.16347 0.0
C456 C 0.50143 0.28797 0.07184 0.0
C457 C 0.48131 0.27443 0.06432 0.0
C458 C 0.50016 0.31077 0.10271 0.0
C459 C 0.47876 0.32033 0.12792 0.0
C460 C 0.45855 0.30699 0.11815 0.0
C461 C 0.45982 0.28424 0.08673 0.0
C462 C 0.46811 0.36569 0.30089 0.0
C463 C 0.48184 0.3843 0.2712 0.0
C464 C 0.46617 0.34536 0.25193 0.0
C465 C 0.47803 0.34312 0.17253 0.0
C466 C 0.49085 0.36208 0.14071 0.0
C467 C 0.49262 0.38251 0.18927 0.0
H468 H 0.25554 0.49166 0.25563 0.0
H469 H 0.23624 0.54929 0.08996 0.0
H470 H 0.21608 0.48957 0.31145 0.0
H471 H 0.19651 0.54723 0.14538 0.0
H472 H 0.13667 0.55325 0.34366 0.0
H473 H 0.17508 0.55471 0.27769 0.0
H474 H 0.17695 0.47956 0.27067 0.0
H475 H 0.13865 0.47815 0.33792 0.0
C476 C 0.24268 0.50359 0.22993 0.0
C477 C 0.2488 0.52034 0.16732 0.0
C478 C 0.22007 0.50244 0.26196 0.0
C479 C 0.20304 0.51813 0.23252 0.0
C480 C 0.20924 0.53501 0.17007 0.0
C481 C 0.23193 0.53618 0.13817 0.0
C482 C 0.14521 0.53705 0.32732 0.0
C483 C 0.13469 0.51558 0.34649 0.0
C484 C 0.16721 0.53788 0.28924 0.0
C485 C 0.17916 0.51725 0.26909 0.0
C486 C 0.16842 0.49578 0.28683 0.0
C487 C 0.14648 0.49496 0.32535 0.0
H488 H 0.00477 0.75299 0.20152 0.0
H489 H 0.93312 0.77176 0.24104 0.0
H490 H 0.0131 0.79242 0.15096 0.0
H491 H 0.94132 0.81119 0.18854 0.0
H492 H 0.96217 0.87067 0.99846 0.0
H493 H 0.95295 0.8318 0.05242 0.0
H494 H 0.01468 0.8325 0.21127 0.0
H495 H 0.0236 0.87159 0.15961 0.0
C496 C 0.99088 0.76567 0.20067 0.0
C497 C 0.96845 0.7595 0.22765 0.0
C498 C 0.99562 0.78822 0.17124 0.0
C499 C 0.97793 0.80501 0.16664 0.0
C500 C 0.95531 0.79863 0.19109 0.0
C501 C 0.95061 0.77608 0.22116 0.0
C502 C 0.9736 0.86274 0.04598 0.0
C503 C 0.9937 0.87434 0.07433 0.0
C504 C 0.96833 0.8404 0.07671 0.0
C505 C 0.98311 0.82903 0.13595 0.0
C506 C 0.00309 0.84066 0.16484 0.0
C507 C 0.00824 0.86306 0.13483 0.0
H508 H 0.74631 0.96 0.0788 0.0
H509 H 0.72187 0.9532 0.34285 0.0
H510 H 0.70841 0.97467 0.03398 0.0
H511 H 0.68371 0.96716 0.29843 0.0
H512 H 0.62353 0.01223 0.2076 0.0
H513 H 0.66211 0.99982 0.25211 0.0
H514 H 0.67009 0.9629 0.00937 0.0
H515 H 0.63226 0.97659 0.96256 0.0
C516 C 0.73275 0.96165 0.12718 0.0
C517 C 0.73712 0.95591 0.21451 0.0
C518 C 0.71096 0.9699 0.10156 0.0
C519 C 0.69284 0.97216 0.16245 0.0
C520 C 0.69727 0.96617 0.24989 0.0
C521 C 0.71918 0.95821 0.27558 0.0
C522 C 0.63363 0.00175 0.16311 0.0
C523 C 0.62466 0.99546 0.0813 0.0
C524 C 0.6557 0.99434 0.18923 0.0
C525 C 0.66936 0.9803 0.13455 0.0
C526 C 0.66033 0.97397 0.05291 0.0
C527 C 0.63837 0.98153 0.02652 0.0
H528 H 0.53093 0.71787 0.2808 0.0
H529 H 0.45959 0.72779 0.2056 0.0
H530 H 0.52782 0.67647 0.24843 0.0
H531 H 0.4565 0.68657 0.16994 0.0
H532 H 0.45143 0.60771 0.18847 0.0
H533 H 0.45442 0.64872 0.22819 0.0
H534 H 0.52513 0.64977 0.13477 0.0
H535 H 0.52223 0.60874 0.09827 0.0
C536 C 0.51465 0.71117 0.25633 0.0
C537 C 0.49544 0.72593 0.24648 0.0
C538 C 0.51283 0.68744 0.23747 0.0
C539 C 0.49186 0.67799 0.20659 0.0
C540 C 0.47277 0.69299 0.19535 0.0
C541 C 0.47454 0.71666 0.2153 0.0
C542 C 0.46759 0.61678 0.17683 0.0
C543 C 0.48662 0.60502 0.14076 0.0
C544 C 0.46932 0.64032 0.19917 0.0
C545 C 0.49005 0.65272 0.18492 0.0
C546 C 0.50904 0.64082 0.14863 0.0
C547 C 0.50738 0.61726 0.12733 0.0
H548 H 0.76358 0.53454 0.05786 0.0
H549 H 0.78876 0.55931 0.30502 0.0
H550 H 0.80295 0.52236 0.01868 0.0
H551 H 0.82791 0.54671 0.26728 0.0
H552 H 0.8984 0.54457 0.12973 0.0
H553 H 0.85908 0.55715 0.16512 0.0
H554 H 0.83207 0.49266 0.06355 0.0
H555 H 0.87138 0.48026 0.02674 0.0
C556 C 0.77755 0.53723 0.10389 0.0
C557 C 0.77311 0.54732 0.18527 0.0
C558 C 0.80002 0.53015 0.08183 0.0
C559 C 0.81854 0.5334 0.1402 0.0
C560 C 0.81407 0.54396 0.22087 0.0
C561 C 0.7916 0.55086 0.24306 0.0
C562 C 0.88405 0.53315 0.11449 0.0
C563 C 0.888 0.51142 0.07555 0.0
C564 C 0.86155 0.54026 0.13542 0.0
C565 C 0.84244 0.52589 0.11721 0.0
C566 C 0.84639 0.50421 0.07773 0.0
C567 C 0.86892 0.49702 0.05747 0.0
H568 H 0.05736 0.19 0.81297 0.0
H569 H 0.03339 0.17083 0.06989 0.0
H570 H 0.05163 0.1501 0.76429 0.0
H571 H 0.02691 0.1312 0.02069 0.0
H572 H 0.03441 0.0572 0.92524 0.0
H573 H 0.04484 0.09601 0.97429 0.0
H574 H 0.02004 0.12488 0.73115 0.0
H575 H 0.01033 0.086 0.68093 0.0
C576 C 0.05098 0.17723 0.85915 0.0
C577 C 0.04582 0.18356 0.9452 0.0
C578 C 0.04751 0.1544 0.83109 0.0
C579 C 0.03861 0.13745 0.88828 0.0
C580 C 0.03407 0.14369 0.9751 0.0
C581 C 0.03773 0.16646 0.00333 0.0
C582 C 0.03122 0.07182 0.88211 0.0
C583 C 0.02146 0.06849 0.79924 0.0
C584 C 0.03712 0.0941 0.91044 0.0
C585 C 0.03326 0.11361 0.85682 0.0
C586 C 0.02363 0.11023 0.77366 0.0
C587 C 0.01788 0.08792 0.74507 0.0
H588 H 0.30853 0.05889 0.83672 0.0
H589 H 0.33049 0.04084 0.09742 0.0
H590 H 0.34866 0.05734 0.78769 0.0
H591 H 0.37038 0.0383 0.04783 0.0
H592 H 0.44291 0.04782 0.94545 0.0
H593 H 0.40393 0.05759 0.99397 0.0
H594 H 0.37572 0.02689 0.76035 0.0
H595 H 0.41466 0.01785 0.71066 0.0
C596 C 0.32195 0.05483 0.88375 0.0
C597 C 0.3163 0.04973 0.97069 0.0
C598 C 0.34493 0.05373 0.85549 0.0
C599 C 0.36273 0.0473 0.91341 0.0
C600 C 0.35718 0.04347 0.00147 0.0
C601 C 0.33424 0.04483 0.0299 0.0
C602 C 0.42838 0.04325 0.90428 0.0
C603 C 0.43189 0.03197 0.82433 0.0
C604 C 0.40602 0.0488 0.93223 0.0
C605 C 0.38664 0.04304 0.88117 0.0
C606 C 0.39023 0.03201 0.80067 0.0
C607 C 0.41258 0.02664 0.77241 0.0
H608 H 0.43938 0.29437 0.85442 0.0
H609 H 0.39259 0.33771 0.00127 0.0
H610 H 0.46586 0.32733 0.83692 0.0
H611 H 0.41878 0.37061 0.98334 0.0
H612 H 0.47333 0.4247 0.97477 0.0
H613 H 0.45733 0.38707 0.01667 0.0
H614 H 0.46198 0.36403 0.75006 0.0
H615 H 0.47814 0.40156 0.70784 0.0
C616 C 0.4351 0.31071 0.88527 0.0
C617 C 0.41405 0.3135 0.93027 0.0
C618 C 0.45014 0.32965 0.87442 0.0
C619 C 0.44442 0.35159 0.9087 0.0
C620 C 0.42388 0.35391 0.95712 0.0
C621 C 0.4088 0.33512 0.96702 0.0
C622 C 0.47133 0.41152 0.92515 0.0
C623 C 0.47668 0.41636 0.83756 0.0
C624 C 0.46214 0.38994 0.94931 0.0
C625 C 0.45818 0.37265 0.8866 0.0
C626 C 0.46498 0.37691 0.8001 0.0
C627 C 0.47412 0.39853 0.77581 0.0
H628 H 0.18853 0.44595 0.07859 0.0
H629 H 0.20563 0.498 0.88515 0.0
H630 H 0.14858 0.44533 0.02538 0.0
H631 H 0.16587 0.49775 0.83368 0.0
H632 H 0.09821 0.47953 0.70956 0.0
H633 H 0.13801 0.474 0.75776 0.0
H634 H 0.11481 0.47091 0.02499 0.0
H635 H 0.07489 0.47587 0.97679 0.0
C636 C 0.18381 0.45715 0.02451 0.0
C637 C 0.20025 0.47198 0.98595 0.0
C638 C 0.16092 0.45689 0.99441 0.0
C639 C 0.15407 0.47143 0.9251 0.0
C640 C 0.17064 0.48602 0.88611 0.0
C641 C 0.19343 0.48629 0.91612 0.0
C642 C 0.10153 0.47747 0.77856 0.0
C643 C 0.08335 0.47836 0.83934 0.0
C644 C 0.12438 0.47439 0.8062 0.0
C645 C 0.1296 0.47224 0.89528 0.0
C646 C 0.11135 0.47229 0.95585 0.0
C647 C 0.08847 0.47528 0.92817 0.0
H648 H 0.02233 0.80776 0.62256 0.0
H649 H -0.0006 0.82208 0.36005 0.0
H650 H 0.0156 0.84829 0.66112 0.0
H651 H 0.99182 0.86235 0.39899 0.0
H652 H 0.00479 0.93812 0.47784 0.0
H653 H 0.0099 0.89782 0.43464 0.0
H654 H 0.98527 0.87514 0.68698 0.0
H655 H 0.98109 0.91556 0.73134 0.0
C656 C 0.01585 0.8196 0.57315 0.0
C657 C 0.01156 0.81182 0.48823 0.0
C658 C 0.01174 0.84277 0.59538 0.0
C659 C 0.00294 0.8586 0.53342 0.0
C660 C -0.00113 0.85078 0.44814 0.0
C661 C 0.00324 0.82768 0.42572 0.0
C662 C 0.00011 0.92453 0.52363 0.0
C663 C 0.99264 0.93001 0.60813 0.0
C664 C 0.00303 0.90137 0.49882 0.0
C665 C -0.00173 0.88318 0.55764 0.0
C666 C 0.98968 0.88871 0.64075 0.0
C667 C 0.98703 0.91187 0.66591 0.0
H668 H 0.69405 0.98246 0.59179 0.0
H669 H 0.67237 0.02761 0.38108 0.0
H670 H 0.65468 0.98198 0.64783 0.0
H671 H 0.633 0.02758 0.43857 0.0
H672 H 0.56145 0.99908 0.49978 0.0
H673 H 0.60141 8e-05 0.44934 0.0
H674 H 0.62515 0.00522 0.71553 0.0
H675 H 0.58523 0.00355 0.76625 0.0
C676 C 0.68096 0.99261 0.5582 0.0
C677 C 0.68629 0.00494 0.48155 0.0
C678 C 0.65839 0.99237 0.59053 0.0
C679 C 0.64068 0.00453 0.54714 0.0
C680 C 0.6462 0.01764 0.47246 0.0
C681 C 0.66879 0.01784 0.43997 0.0
C682 C 0.5752 0.00019 0.54761 0.0
C683 C 0.57018 0.00127 0.63695 0.0
C684 C 0.59809 0.00102 0.51864 0.0
C685 C 0.61643 0.00305 0.57836 0.0
C686 C 0.61142 0.00352 0.66789 0.0
C687 C 0.58853 0.00257 0.69692 0.0
H688 H 0.45454 0.68124 0.65622 0.0
H689 H 0.46149 0.65979 0.38831 0.0
H690 H 0.4626 0.64154 0.70417 0.0
H691 H 0.47047 0.62042 0.43581 0.0
H692 H 0.4641 0.54739 0.54459 0.0
H693 H 0.4544 0.58665 0.49856 0.0
H694 H 0.49338 0.61426 0.71531 0.0
H695 H 0.50229 0.57473 0.76345 0.0
C696 C 0.45777 0.66802 0.60762 0.0
C697 C 0.45725 0.67358 0.51856 0.0
C698 C 0.46261 0.64531 0.63505 0.0
C699 C 0.46732 0.62774 0.57398 0.0
C700 C 0.46656 0.63335 0.48477 0.0
C701 C 0.46145 0.65597 0.45741 0.0
C702 C 0.47079 0.56184 0.58206 0.0
C703 C 0.48413 0.55798 0.65731 0.0
C704 C 0.46524 0.5844 0.55552 0.0
C705 C 0.47314 0.6037 0.60296 0.0
C706 C 0.48668 0.59982 0.67793 0.0
C707 C 0.49199 0.57718 0.70515 0.0
H708 H 0.81941 0.49843 0.65808 0.0
H709 H 0.83897 0.53463 0.42199 0.0
H710 H 0.8601 0.49713 0.7023 0.0
H711 H 0.87919 0.53395 0.46709 0.0
H712 H 0.95086 0.50504 0.52582 0.0
H713 H 0.91028 0.50689 0.4841 0.0
H714 H 0.89143 0.52216 0.75021 0.0
H715 H 0.93207 0.51966 0.79259 0.0
C716 C 0.83234 0.50616 0.61587 0.0
C717 C 0.82598 0.51653 0.53645 0.0
C718 C 0.85561 0.50558 0.64143 0.0
C719 C 0.87287 0.51542 0.58811 0.0
C720 C 0.8664 0.52587 0.509 0.0
C721 C 0.84327 0.52634 0.48335 0.0
C722 C 0.93811 0.50904 0.57531 0.0
C723 C 0.94468 0.51222 0.66243 0.0
C724 C 0.91483 0.51013 0.55138 0.0
C725 C 0.89762 0.51462 0.6139 0.0
C726 C 0.90424 0.51829 0.70079 0.0
C727 C 0.92754 0.51707 0.72487 0.0
loop_
_geom_bond_atom_site_label_1
_geom_bond_atom_site_label_2
_geom_bond_distance
_geom_bond_site_symmetry_2
_ccdc_geom_bond_type
O0 Cd1 2.300 . S
O0 C7 1.275 . S
Cd1 O0 2.300 . S
Cd1 O9 2.381 . S
Cd1 O10 2.378 . S
O2 Cd3 2.385 . S
O2 C7 1.255 . S
Cd3 O2 2.385 . S
Cd3 O4 2.317 . S
O4 Cd3 2.317 . S
O4 C5 1.232 . S
C5 O4 1.232 . S
C5 O6 1.218 . S
O6 C5 1.218 . S
C7 O0 1.275 . S
C7 O2 1.255 . S
C8 O9 1.258 . S
C8 O10 1.256 . S
O9 Cd1 2.381 . S
O9 C8 1.258 . S
O10 Cd1 2.378 . S
O10 C8 1.256 . S
O11 Cd12 2.300 1_655 S
O11 C18 1.275 1_655 S
Cd12 O11 2.300 1_455 S
Cd12 O20 2.381 1_455 S
Cd12 O21 2.378 . S
O13 Cd14 2.385 . S
O13 C18 1.255 . S
Cd14 O13 2.385 . S
Cd14 O15 2.317 . S
O15 Cd14 2.317 . S
O15 C16 1.232 . S
C16 O15 1.232 . S
C16 O17 1.218 . S
O17 C16 1.218 . S
C18 O11 1.275 1_455 S
C18 O13 1.255 . S
C19 O20 1.258 1_455 S
C19 O21 1.256 . S
O20 Cd12 2.381 1_655 S
O20 C19 1.258 1_655 S
O21 Cd12 2.378 . S
O21 C19 1.256 . S
O22 Cd23 2.300 1_565 S
O22 C29 1.275 1_565 S
Cd23 O22 2.300 1_545 S
Cd23 O31 2.381 1_545 S
Cd23 O32 2.378 . S
O24 Cd25 2.385 . S
O24 C29 1.255 . S
Cd25 O24 2.385 . S
Cd25 O26 2.317 . S
O26 Cd25 2.317 . S
O26 C27 1.232 . S
C27 O26 1.232 . S
C27 O28 1.218 . S
O28 C27 1.218 . S
C29 O22 1.275 1_545 S
C29 O24 1.255 . S
C30 O31 1.258 1_545 S
C30 O32 1.256 . S
O31 Cd23 2.381 1_565 S
O31 C30 1.258 1_565 S
O32 Cd23 2.378 . S
O32 C30 1.256 . S
O33 Cd34 2.300 . S
O33 C40 1.275 . S
Cd34 O33 2.300 . S
Cd34 O42 2.381 . S
Cd34 O43 2.378 . S
O35 Cd36 2.385 . S
O35 C40 1.255 . S
Cd36 O35 2.385 . S
Cd36 O37 2.317 . S
O37 Cd36 2.317 . S
O37 C38 1.232 . S
C38 O37 1.232 . S
C38 O39 1.218 . S
O39 C38 1.218 . S
C40 O33 1.275 . S
C40 O35 1.255 . S
C41 O42 1.258 . S
C41 O43 1.256 . S
O42 Cd34 2.381 . S
O42 C41 1.258 . S
O43 Cd34 2.378 . S
O43 C41 1.256 . S
O44 Cd45 2.300 . S
O44 C51 1.275 . S
Cd45 O44 2.300 . S
Cd45 O53 2.381 . S
Cd45 O54 2.378 . S
O46 Cd47 2.385 1_554 S
O46 C51 1.255 . S
Cd47 O46 2.385 1_556 S
Cd47 O48 2.317 . S
O48 Cd47 2.317 . S
O48 C49 1.232 . S
C49 O48 1.232 . S
C49 O50 1.218 . S
O50 C49 1.218 . S
C51 O44 1.275 . S
C51 O46 1.255 . S
C52 O53 1.258 . S
C52 O54 1.256 . S
O53 Cd45 2.381 . S
O53 C52 1.258 . S
O54 Cd45 2.378 . S
O54 C52 1.256 . S
O55 Cd56 2.300 1_655 S
O55 C62 1.275 1_655 S
Cd56 O55 2.300 1_455 S
Cd56 O64 2.381 1_455 S
Cd56 O65 2.378 . S
O57 Cd58 2.385 1_554 S
O57 C62 1.255 . S
Cd58 O57 2.385 1_556 S
Cd58 O59 2.317 . S
O59 Cd58 2.317 . S
O59 C60 1.232 . S
C60 O59 1.232 . S
C60 O61 1.218 . S
O61 C60 1.218 . S
C62 O55 1.275 1_455 S
C62 O57 1.255 . S
C63 O64 1.258 1_455 S
C63 O65 1.256 . S
O64 Cd56 2.381 1_655 S
O64 C63 1.258 1_655 S
O65 Cd56 2.378 . S
O65 C63 1.256 . S
O66 Cd67 2.300 1_565 S
O66 C73 1.275 1_565 S
Cd67 O66 2.300 1_545 S
Cd67 O75 2.381 1_545 S
Cd67 O76 2.378 . S
O68 Cd69 2.385 1_554 S
O68 C73 1.255 . S
Cd69 O68 2.385 1_556 S
Cd69 O70 2.317 . S
O70 Cd69 2.317 . S
O70 C71 1.232 . S
C71 O70 1.232 . S
C71 O72 1.218 . S
O72 C71 1.218 . S
C73 O66 1.275 1_545 S
C73 O68 1.255 . S
C74 O75 1.258 1_545 S
C74 O76 1.256 . S
O75 Cd67 2.381 1_565 S
O75 C74 1.258 1_565 S
O76 Cd67 2.378 . S
O76 C74 1.256 . S
O77 Cd78 2.300 . S
O77 C84 1.275 . S
Cd78 O77 2.300 . S
Cd78 O86 2.381 . S
Cd78 O87 2.378 . S
O79 Cd80 2.385 1_554 S
O79 C84 1.255 . S
Cd80 O79 2.385 1_556 S
Cd80 O81 2.317 . S
O81 Cd80 2.317 . S
O81 C82 1.232 . S
C82 O81 1.232 . S
C82 O83 1.218 . S
O83 C82 1.218 . S
C84 O77 1.275 . S
C84 O79 1.255 . S
C85 O86 1.258 . S
C85 O87 1.256 . S
O86 Cd78 2.381 . S
O86 C85 1.258 . S
O87 Cd78 2.378 . S
O87 C85 1.256 . S
Sm88 C90 2.846 . S
Sm88 O108 2.543 . S
Sm88 O109 2.450 . S
Sm88 O110 2.681 1_565 S
Sm88 O111 2.464 . S
Sm88 O112 2.396 . S
Sm88 O116 2.386 1_455 S
Sm88 O119 2.408 1_565 S
Sm89 C99 2.846 . S
Sm89 O110 2.386 1_655 S
Sm89 O113 2.408 1_545 S
Sm89 O114 2.559 . S
Sm89 O115 2.450 . S
Sm89 O116 2.681 1_545 S
Sm89 O117 2.464 . S
Sm89 O118 2.396 . S
C90 Sm88 2.846 . S
C90 C91 1.506 . S
C90 O108 1.261 . S
C90 O109 1.242 . S
C91 C90 1.506 . S
C91 C92 1.358 . S
C91 C96 1.382 . S
C92 C91 1.358 . S
C92 C93 1.385 1_556 S
C92 H120 0.930 1_455 S
C93 C92 1.385 1_554 S
C93 C94 1.395 . S
C93 H121 0.929 1_455 S
C94 C93 1.395 . S
C94 C95 1.335 1_554 S
C95 C94 1.335 1_556 S
C95 C96 1.398 . S
C95 H122 0.930 . S
C96 C91 1.382 . S
C96 C95 1.398 . S
C96 H123 0.929 . S
C97 O110 1.271 1_565 S
C97 O111 1.251 . S
C98 O112 1.252 1_655 S
C98 O113 1.272 . S
C99 Sm89 2.846 . S
C99 C100 1.506 . S
C99 O114 1.301 . S
C99 O115 1.242 . S
C100 C99 1.506 . S
C100 C101 1.358 . S
C100 C105 1.382 . S
C101 C100 1.358 . S
C101 C102 1.385 . S
C101 H124 0.930 1_655 S
C102 C101 1.385 . S
C102 C103 1.395 . S
C102 H125 0.929 1_655 S
C103 C102 1.395 . S
C103 C104 1.335 . S
C104 C103 1.335 . S
C104 C105 1.398 . S
C104 H126 0.930 . S
C105 C100 1.382 . S
C105 C104 1.398 . S
C105 H127 0.929 . S
C106 O116 1.271 1_545 S
C106 O117 1.251 . S
C107 O118 1.252 1_455 S
C107 O119 1.272 . S
O108 Sm88 2.543 . S
O108 C90 1.261 . S
O109 Sm88 2.450 . S
O109 C90 1.242 . S
O110 Sm88 2.681 1_545 S
O110 Sm89 2.386 1_455 S
O110 C97 1.271 1_545 S
O111 Sm88 2.464 . S
O111 C97 1.251 . S
O112 Sm88 2.396 . S
O112 C98 1.252 1_455 S
O113 Sm89 2.408 1_565 S
O113 C98 1.272 . S
O114 Sm89 2.559 . S
O114 C99 1.301 . S
O115 Sm89 2.450 . S
O115 C99 1.242 . S
O116 Sm88 2.386 1_655 S
O116 Sm89 2.681 1_565 S
O116 C106 1.271 1_565 S
O117 Sm89 2.464 . S
O117 C106 1.251 . S
O118 Sm89 2.396 . S
O118 C107 1.252 1_655 S
O119 Sm88 2.408 1_545 S
O119 C107 1.272 . S
H120 C92 0.930 1_655 S
H121 C93 0.929 1_655 S
H122 C95 0.930 . S
H123 C96 0.929 . S
H124 C101 0.930 1_455 S
H125 C102 0.929 1_455 S
H126 C104 0.930 . S
H127 C105 0.929 . S
Sm128 C130 2.846 . S
Sm128 O148 2.543 . S
Sm128 O149 2.450 . S
Sm128 O150 2.681 . S
Sm128 O151 2.464 . S
Sm128 O152 2.396 . S
Sm128 O156 2.386 1_545 S
Sm128 O159 2.408 . S
Sm129 C139 2.846 . S
Sm129 O150 2.386 1_565 S
Sm129 O153 2.408 . S
Sm129 O154 2.558 . S
Sm129 O155 2.450 . S
Sm129 O156 2.681 . S
Sm129 O157 2.464 . S
Sm129 O158 2.396 . S
C130 Sm128 2.846 . S
C130 C131 1.506 . S
C130 O148 1.261 . S
C130 O149 1.242 . S
C131 C130 1.506 . S
C131 C132 1.358 . S
C131 C136 1.382 . S
C132 C131 1.358 . S
C132 C133 1.385 1_556 S
C132 H160 0.930 1_545 S
C133 C132 1.385 1_554 S
C133 C134 1.395 . S
C133 H161 0.929 1_545 S
C134 C133 1.395 . S
C134 C135 1.335 1_554 S
C135 C134 1.335 1_556 S
C135 C136 1.398 . S
C135 H162 0.930 . S
C136 C131 1.382 . S
C136 C135 1.398 . S
C136 H163 0.929 . S
C137 O150 1.271 . S
C137 O151 1.251 . S
C138 O152 1.252 1_565 S
C138 O153 1.272 . S
C139 Sm129 2.846 . S
C139 C140 1.506 . S
C139 O154 1.299 . S
C139 O155 1.242 . S
C140 C139 1.506 . S
C140 C141 1.358 . S
C140 C145 1.382 . S
C141 C140 1.358 . S
C141 C142 1.385 . S
C141 H164 0.930 1_565 S
C142 C141 1.385 . S
C142 C143 1.395 . S
C142 H165 0.929 1_565 S
C143 C142 1.395 . S
C143 C144 1.335 . S
C144 C143 1.335 . S
C144 C145 1.398 . S
C144 H166 0.930 . S
C145 C140 1.382 . S
C145 C144 1.398 . S
C145 H167 0.929 . S
C146 O156 1.271 . S
C146 O157 1.251 . S
C147 O158 1.252 1_545 S
C147 O159 1.272 . S
O148 Sm128 2.543 . S
O148 C130 1.261 . S
O149 Sm128 2.450 . S
O149 C130 1.242 . S
O150 Sm128 2.681 . S
O150 Sm129 2.386 1_545 S
O150 C137 1.271 . S
O151 Sm128 2.464 . S
O151 C137 1.251 . S
O152 Sm128 2.396 . S
O152 C138 1.252 1_545 S
O153 Sm129 2.408 . S
O153 C138 1.272 . S
O154 Sm129 2.558 . S
O154 C139 1.299 . S
O155 Sm129 2.450 . S
O155 C139 1.242 . S
O156 Sm128 2.386 1_565 S
O156 Sm129 2.681 . S
O156 C146 1.271 . S
O157 Sm129 2.464 . S
O157 C146 1.251 . S
O158 Sm129 2.396 . S
O158 C147 1.252 1_565 S
O159 Sm128 2.408 . S
O159 C147 1.272 . S
H160 C132 0.930 1_565 S
H161 C133 0.929 1_565 S
H162 C135 0.930 . S
H163 C136 0.929 . S
H164 C141 0.930 1_545 S
H165 C142 0.929 1_545 S
H166 C144 0.930 . S
H167 C145 0.929 . S
Sm168 C170 2.846 . S
Sm168 O188 2.543 . S
Sm168 O189 2.450 . S
Sm168 O190 2.681 . S
Sm168 O191 2.464 . S
Sm168 O192 2.396 . S
Sm168 O196 2.386 . S
Sm168 O199 2.408 . S
Sm169 C179 2.846 . S
Sm169 O190 2.386 . S
Sm169 O193 2.408 . S
Sm169 O194 2.543 . S
Sm169 O195 2.450 . S
Sm169 O196 2.681 . S
Sm169 O197 2.464 . S
Sm169 O198 2.396 . S
C170 Sm168 2.846 . S
C170 C171 1.506 . S
C170 O188 1.261 . S
C170 O189 1.242 . S
C171 C170 1.506 . S
C171 C172 1.358 . S
C171 C176 1.382 . S
C172 C171 1.358 . S
C172 C173 1.385 1_556 S
C172 H200 0.930 . S
C173 C172 1.385 1_554 S
C173 C174 1.395 . S
C173 H201 0.929 . S
C174 C173 1.395 . S
C174 C175 1.335 1_554 S
C175 C174 1.335 1_556 S
C175 C176 1.398 . S
C175 H202 0.930 . S
C176 C171 1.382 . S
C176 C175 1.398 . S
C176 H203 0.929 . S
C177 O190 1.271 . S
C177 O191 1.251 . S
C178 O192 1.252 . S
C178 O193 1.272 . S
C179 Sm169 2.846 . S
C179 C180 1.506 . S
C179 O194 1.261 . S
C179 O195 1.242 . S
C180 C179 1.506 . S
C180 C181 1.358 . S
C180 C185 1.382 . S
C181 C180 1.358 . S
C181 C182 1.385 . S
C181 H204 0.930 . S
C182 C181 1.385 . S
C182 C183 1.395 . S
C182 H205 0.929 . S
C183 C182 1.395 . S
C183 C184 1.335 . S
C184 C183 1.335 . S
C184 C185 1.398 . S
C184 H206 0.930 . S
C185 C180 1.382 . S
C185 C184 1.398 . S
C185 H207 0.929 . S
C186 O196 1.271 . S
C186 O197 1.251 . S
C187 O198 1.252 . S
C187 O199 1.272 . S
O188 Sm168 2.543 . S
O188 C170 1.261 . S
O189 Sm168 2.450 . S
O189 C170 1.242 . S
O190 Sm168 2.681 . S
O190 Sm169 2.386 . S
O190 C177 1.271 . S
O191 Sm168 2.464 . S
O191 C177 1.251 . S
O192 Sm168 2.396 . S
O192 C178 1.252 . S
O193 Sm169 2.408 . S
O193 C178 1.272 . S
O194 Sm169 2.543 . S
O194 C179 1.261 . S
O195 Sm169 2.450 . S
O195 C179 1.242 . S
O196 Sm168 2.386 . S
O196 Sm169 2.681 . S
O196 C186 1.271 . S
O197 Sm169 2.464 . S
O197 C186 1.251 . S
O198 Sm169 2.396 . S
O198 C187 1.252 . S
O199 Sm168 2.408 . S
O199 C187 1.272 . S
H200 C172 0.930 . S
H201 C173 0.929 . S
H202 C175 0.930 . S
H203 C176 0.929 . S
H204 C181 0.930 . S
H205 C182 0.929 . S
H206 C184 0.930 . S
H207 C185 0.929 . S
Sm208 C210 2.846 . S
Sm208 O228 2.543 . S
Sm208 O229 2.450 . S
Sm208 O230 2.681 1_655 S
Sm208 O231 2.464 . S
Sm208 O232 2.396 . S
Sm208 O236 2.386 . S
Sm208 O239 2.408 1_655 S
Sm209 C219 2.846 . S
Sm209 O230 2.386 . S
Sm209 O233 2.408 1_455 S
Sm209 O234 2.543 . S
Sm209 O235 2.450 . S
Sm209 O236 2.681 1_455 S
Sm209 O237 2.464 . S
Sm209 O238 2.396 . S
C210 Sm208 2.846 . S
C210 C211 1.506 . S
C210 O228 1.261 . S
C210 O229 1.242 . S
C211 C210 1.506 . S
C211 C212 1.358 . S
C211 C216 1.382 . S
C212 C211 1.358 . S
C212 C213 1.385 1_556 S
C212 H240 0.930 . S
C213 C212 1.385 1_554 S
C213 C214 1.395 . S
C213 H241 0.929 . S
C214 C213 1.395 . S
C214 C215 1.335 1_554 S
C215 C214 1.335 1_556 S
C215 C216 1.398 . S
C215 H242 0.930 . S
C216 C211 1.382 . S
C216 C215 1.398 . S
C216 H243 0.929 . S
C217 O230 1.257 1_655 S
C217 O231 1.275 . S
C218 O232 1.252 . S
C218 O233 1.272 . S
C219 Sm209 2.846 . S
C219 C220 1.506 . S
C219 O234 1.261 . S
C219 O235 1.242 . S
C220 C219 1.506 . S
C220 C221 1.358 . S
C220 C225 1.382 . S
C221 C220 1.358 . S
C221 C222 1.385 . S
C221 H244 0.930 . S
C222 C221 1.385 . S
C222 C223 1.395 . S
C222 H245 0.929 . S
C223 C222 1.395 . S
C223 C224 1.335 . S
C224 C223 1.335 . S
C224 C225 1.398 . S
C224 H246 0.930 . S
C225 C220 1.382 . S
C225 C224 1.398 . S
C225 H247 0.929 . S
C226 O236 1.271 1_455 S
C226 O237 1.251 . S
C227 O238 1.252 . S
C227 O239 1.272 . S
O228 Sm208 2.543 . S
O228 C210 1.261 . S
O229 Sm208 2.450 . S
O229 C210 1.242 . S
O230 Sm208 2.681 1_455 S
O230 Sm209 2.386 . S
O230 C217 1.257 1_455 S
O231 Sm208 2.464 . S
O231 C217 1.275 . S
O232 Sm208 2.396 . S
O232 C218 1.252 . S
O233 Sm209 2.408 1_655 S
O233 C218 1.272 . S
O234 Sm209 2.543 . S
O234 C219 1.261 . S
O235 Sm209 2.450 . S
O235 C219 1.242 . S
O236 Sm208 2.386 . S
O236 Sm209 2.681 1_655 S
O236 C226 1.271 1_655 S
O237 Sm209 2.464 . S
O237 C226 1.251 . S
O238 Sm209 2.396 . S
O238 C227 1.252 . S
O239 Sm208 2.408 1_455 S
O239 C227 1.272 . S
H240 C212 0.930 . S
H241 C213 0.929 . S
H242 C215 0.930 . S
H243 C216 0.929 . S
H244 C221 0.930 . S
H245 C222 0.929 . S
H246 C224 0.930 . S
H247 C225 0.929 . S
H248 C256 0.950 . S
H249 C261 0.950 . S
H250 C258 0.950 . S
H251 C260 0.950 . S
H252 C262 0.950 . S
H253 C264 0.950 . S
H254 C266 0.950 . S
H255 C267 0.950 . S
C256 H248 0.950 . S
C256 C257 1.393 . S
C256 C258 1.391 . S
C257 C256 1.393 . S
C257 C261 1.385 1_565 S
C258 H250 0.950 . S
C258 C256 1.391 . S
C258 C259 1.395 1_565 S
C259 C258 1.395 1_545 S
C259 C260 1.403 . S
C259 C265 1.491 . S
C260 H251 0.950 . S
C260 C259 1.403 . S
C260 C261 1.391 . S
C261 H249 0.950 . S
C261 C257 1.385 1_545 S
C261 C260 1.391 . S
C262 H252 0.950 . S
C262 C263 1.386 . S
C262 C264 1.391 . S
C263 C262 1.386 . S
C263 C267 1.393 1_545 S
C264 H253 0.950 . S
C264 C262 1.391 . S
C264 C265 1.400 . S
C265 C259 1.491 . S
C265 C264 1.400 . S
C265 C266 1.398 1_545 S
C266 H254 0.950 . S
C266 C265 1.398 1_565 S
C266 C267 1.391 . S
C267 H255 0.950 . S
C267 C263 1.393 1_565 S
C267 C266 1.391 . S
H268 C276 0.950 . S
H269 C281 0.950 . S
H270 C278 0.950 . S
H271 C280 0.950 . S
H272 C282 0.950 . S
H273 C284 0.950 . S
H274 C286 0.950 . S
H275 C287 0.950 . S
C276 H268 0.950 . S
C276 C277 1.386 . S
C276 C278 1.391 . S
C277 C276 1.386 . S
C277 C281 1.393 . S
C278 H270 0.950 . S
C278 C276 1.391 . S
C278 C279 1.400 . S
C279 C278 1.400 . S
C279 C280 1.398 . S
C279 C285 1.491 . S
C280 H271 0.950 . S
C280 C279 1.398 . S
C280 C281 1.391 . S
C281 H269 0.950 . S
C281 C277 1.393 . S
C281 C280 1.391 . S
C282 H272 0.950 . S
C282 C283 1.386 . S
C282 C284 1.391 . S
C283 C282 1.386 . S
C283 C287 1.393 . S
C284 H273 0.950 . S
C284 C282 1.391 . S
C284 C285 1.400 . S
C285 C279 1.491 . S
C285 C284 1.400 . S
C285 C286 1.398 . S
C286 H274 0.950 . S
C286 C285 1.398 . S
C286 C287 1.391 . S
C287 H275 0.950 . S
C287 C283 1.393 . S
C287 C286 1.391 . S
H288 C296 0.950 . S
H289 C301 0.950 . S
H290 C298 0.950 . S
H291 C300 0.950 . S
H292 C302 0.950 . S
H293 C304 0.950 . S
H294 C306 0.950 . S
H295 C307 0.950 . S
C296 H288 0.950 . S
C296 C297 1.386 . S
C296 C298 1.391 . S
C297 C296 1.386 . S
C297 C301 1.393 . S
C298 H290 0.950 . S
C298 C296 1.391 . S
C298 C299 1.400 . S
C299 C298 1.400 . S
C299 C300 1.398 . S
C299 C305 1.491 . S
C300 H291 0.950 . S
C300 C299 1.398 . S
C300 C301 1.391 . S
C301 H289 0.950 . S
C301 C297 1.393 . S
C301 C300 1.391 . S
C302 H292 0.950 . S
C302 C303 1.386 . S
C302 C304 1.391 . S
C303 C302 1.386 . S
C303 C307 1.393 . S
C304 H293 0.950 . S
C304 C302 1.391 . S
C304 C305 1.400 . S
C305 C299 1.491 . S
C305 C304 1.400 . S
C305 C306 1.398 . S
C306 H294 0.950 . S
C306 C305 1.398 . S
C306 C307 1.391 . S
C307 H295 0.950 . S
C307 C303 1.393 . S
C307 C306 1.391 . S
H308 C316 0.950 . S
H309 C321 0.950 . S
H310 C318 0.950 . S
H311 C320 0.950 . S
H312 C322 0.950 . S
H313 C324 0.950 . S
H314 C326 0.950 . S
H315 C327 0.950 . S
C316 H308 0.950 . S
C316 C317 1.381 1_455 S
C316 C318 1.391 . S
C317 C316 1.381 1_655 S
C317 C321 1.399 . S
C318 H310 0.950 . S
C318 C316 1.391 . S
C318 C319 1.402 . S
C319 C318 1.402 . S
C319 C320 1.396 1_455 S
C319 C325 1.491 . S
C320 H311 0.950 . S
C320 C319 1.396 1_655 S
C320 C321 1.391 . S
C321 H309 0.950 . S
C321 C317 1.399 . S
C321 C320 1.391 . S
C322 H312 0.950 . S
C322 C323 1.386 1_655 S
C322 C324 1.391 . S
C323 C322 1.386 1_455 S
C323 C327 1.393 . S
C324 H313 0.950 . S
C324 C322 1.391 . S
C324 C325 1.400 1_655 S
C325 C319 1.491 . S
C325 C324 1.400 1_455 S
C325 C326 1.398 . S
C326 H314 0.950 . S
C326 C325 1.398 . S
C326 C327 1.391 . S
C327 H315 0.950 . S
C327 C323 1.393 . S
C327 C326 1.391 . S
H328 C336 0.950 . S
H329 C341 0.950 . S
H330 C338 0.950 . S
H331 C340 0.950 . S
H332 C342 0.950 . S
H333 C344 0.950 . S
H334 C346 0.950 . S
H335 C347 0.950 . S
C336 H328 0.950 . S
C336 C337 1.370 1_545 S
C336 C338 1.391 . S
C337 C336 1.370 1_565 S
C337 C341 1.411 . S
C338 H330 0.950 . S
C338 C336 1.391 . S
C338 C339 1.384 1_545 S
C339 C338 1.384 1_565 S
C339 C340 1.418 . S
C339 C345 1.490 . S
C340 H331 0.950 . S
C340 C339 1.418 . S
C340 C341 1.391 . S
C341 H329 0.950 . S
C341 C337 1.411 . S
C341 C340 1.391 . S
C342 H332 0.950 . S
C342 C343 1.391 . S
C342 C344 1.391 . S
C343 C342 1.391 . S
C343 C347 1.388 1_565 S
C344 H333 0.950 . S
C344 C342 1.391 . S
C344 C345 1.405 1_556 S
C345 C339 1.490 . S
C345 C344 1.405 1_554 S
C345 C346 1.394 1_565 S
C346 H334 0.950 . S
C346 C345 1.394 1_545 S
C346 C347 1.391 1_554 S
C347 H335 0.950 . S
C347 C343 1.388 1_545 S
C347 C346 1.391 1_556 S
H348 C356 0.950 . S
H349 C361 0.950 . S
H350 C358 0.950 . S
H351 C360 0.950 . S
H352 C362 0.950 . S
H353 C364 0.950 . S
H354 C366 0.950 . S
H355 C367 0.950 . S
C356 H348 0.950 . S
C356 C357 1.386 . S
C356 C358 1.391 . S
C357 C356 1.386 . S
C357 C361 1.393 . S
C358 H350 0.950 . S
C358 C356 1.391 . S
C358 C359 1.400 . S
C359 C358 1.400 . S
C359 C360 1.398 . S
C359 C365 1.491 . S
C360 H351 0.950 . S
C360 C359 1.398 . S
C360 C361 1.391 . S
C361 H349 0.950 . S
C361 C357 1.393 . S
C361 C360 1.391 . S
C362 H352 0.950 . S
C362 C363 1.386 . S
C362 C364 1.391 1_556 S
C363 C362 1.386 . S
C363 C367 1.393 . S
C364 H353 0.950 . S
C364 C362 1.391 1_554 S
C364 C365 1.400 . S
C365 C359 1.491 . S
C365 C364 1.400 . S
C365 C366 1.398 1_554 S
C366 H354 0.950 . S
C366 C365 1.398 1_556 S
C366 C367 1.391 . S
C367 H355 0.950 . S
C367 C363 1.393 . S
C367 C366 1.391 . S
H368 C376 0.950 . S
H369 C381 0.950 . S
H370 C378 0.950 . S
H371 C380 0.950 . S
H372 C382 0.950 . S
H373 C384 0.950 . S
H374 C386 0.950 . S
H375 C387 0.950 . S
C376 H368 0.950 . S
C376 C377 1.386 . S
C376 C378 1.391 . S
C377 C376 1.386 . S
C377 C381 1.393 . S
C378 H370 0.950 . S
C378 C376 1.391 . S
C378 C379 1.400 . S
C379 C378 1.400 . S
C379 C380 1.398 . S
C379 C385 1.491 . S
C380 H371 0.950 . S
C380 C379 1.398 . S
C380 C381 1.391 . S
C381 H369 0.950 . S
C381 C377 1.393 . S
C381 C380 1.391 . S
C382 H372 0.950 . S
C382 C383 1.386 . S
C382 C384 1.391 1_556 S
C383 C382 1.386 . S
C383 C387 1.393 . S
C384 H373 0.950 . S
C384 C382 1.391 1_554 S
C384 C385 1.400 . S
C385 C379 1.491 . S
C385 C384 1.400 . S
C385 C386 1.398 1_554 S
C386 H374 0.950 . S
C386 C385 1.398 1_556 S
C386 C387 1.391 . S
C387 H375 0.950 . S
C387 C383 1.393 . S
C387 C386 1.391 . S
H388 C396 0.950 . S
H389 C401 0.950 . S
H390 C398 0.950 . S
H391 C400 0.950 . S
H392 C402 0.950 . S
H393 C404 0.950 . S
H394 C406 0.950 . S
H395 C407 0.950 . S
C396 H388 0.950 . S
C396 C397 1.382 1_655 S
C396 C398 1.391 . S
C397 C396 1.382 1_455 S
C397 C401 1.397 . S
C398 H390 0.950 . S
C398 C396 1.391 . S
C398 C399 1.402 . S
C399 C398 1.402 . S
C399 C400 1.396 1_655 S
C399 C405 1.491 . S
C400 H391 0.950 . S
C400 C399 1.396 1_455 S
C400 C401 1.391 . S
C401 H389 0.950 . S
C401 C397 1.397 . S
C401 C400 1.391 . S
C402 H392 0.950 . S
C402 C403 1.386 1_455 S
C402 C404 1.391 1_556 S
C403 C402 1.386 1_655 S
C403 C407 1.393 . S
C404 H393 0.950 . S
C404 C402 1.391 1_554 S
C404 C405 1.400 1_455 S
C405 C399 1.491 . S
C405 C404 1.400 1_655 S
C405 C406 1.398 1_554 S
C406 H394 0.950 . S
C406 C405 1.398 1_556 S
C406 C407 1.391 . S
C407 H395 0.950 . S
C407 C403 1.393 . S
C407 C406 1.391 . S
H408 C416 0.950 . S
H409 C421 0.950 . S
H410 C418 0.950 . S
H411 C420 0.950 . S
H412 C422 0.950 . S
H413 C424 0.950 . S
H414 C426 0.950 . S
H415 C427 0.950 . S
C416 H408 0.950 . S
C416 C417 1.386 . S
C416 C418 1.391 . S
C417 C416 1.386 . S
C417 C421 1.393 1_455 S
C418 H410 0.950 . S
C418 C416 1.391 . S
C418 C419 1.400 1_455 S
C419 C418 1.400 1_655 S
C419 C420 1.398 . S
C419 C425 1.491 . S
C420 H411 0.950 . S
C420 C419 1.398 . S
C420 C421 1.391 . S
C421 H409 0.950 . S
C421 C417 1.393 1_655 S
C421 C420 1.391 . S
C422 H412 0.950 . S
C422 C423 1.386 . S
C422 C424 1.391 . S
C423 C422 1.386 . S
C423 C427 1.393 . S
C424 H413 0.950 . S
C424 C422 1.391 . S
C424 C425 1.400 . S
C425 C419 1.491 . S
C425 C424 1.400 . S
C425 C426 1.398 . S
C426 H414 0.950 . S
C426 C425 1.398 . S
C426 C427 1.391 . S
C427 H415 0.950 . S
C427 C423 1.393 . S
C427 C426 1.391 . S
H428 C436 0.950 . S
H429 C441 0.946 1_545 S
H430 C438 0.950 . S
H431 C440 0.950 . S
H432 C442 0.950 . S
H433 C444 0.950 . S
H434 C446 0.950 . S
H435 C447 0.950 . S
C436 H428 0.950 . S
C436 C437 1.385 1_565 S
C436 C438 1.391 . S
C437 C436 1.385 1_545 S
C437 C441 1.393 1_545 S
C438 H430 0.950 . S
C438 C436 1.391 . S
C438 C439 1.400 . S
C439 C438 1.400 . S
C439 C440 1.398 . S
C439 C445 1.491 . S
C440 H431 0.950 . S
C440 C439 1.398 . S
C440 C441 1.391 . S
C441 H429 0.946 1_565 S
C441 C437 1.393 1_565 S
C441 C440 1.391 . S
C442 H432 0.950 . S
C442 C443 1.386 . S
C442 C444 1.391 . S
C443 C442 1.386 . S
C443 C447 1.393 . S
C444 H433 0.950 . S
C444 C442 1.391 . S
C444 C445 1.400 . S
C445 C439 1.491 . S
C445 C444 1.400 . S
C445 C446 1.398 . S
C446 H434 0.950 . S
C446 C445 1.398 . S
C446 C447 1.391 . S
C447 H435 0.950 . S
C447 C443 1.393 . S
C447 C446 1.391 . S
H448 C456 0.950 . S
H449 C461 0.950 . S
H450 C458 0.950 . S
H451 C460 0.950 . S
H452 C462 0.950 . S
H453 C464 0.950 . S
H454 C466 0.950 . S
H455 C467 0.950 . S
C456 H448 0.950 . S
C456 C457 1.386 . S
C456 C458 1.391 . S
C457 C456 1.386 . S
C457 C461 1.393 . S
C458 H450 0.950 . S
C458 C456 1.391 . S
C458 C459 1.400 . S
C459 C458 1.400 . S
C459 C460 1.398 . S
C459 C465 1.491 . S
C460 H451 0.950 . S
C460 C459 1.398 . S
C460 C461 1.391 . S
C461 H449 0.950 . S
C461 C457 1.393 . S
C461 C460 1.391 . S
C462 H452 0.950 . S
C462 C463 1.386 . S
C462 C464 1.391 . S
C463 C462 1.386 . S
C463 C467 1.393 . S
C464 H453 0.950 . S
C464 C462 1.391 . S
C464 C465 1.400 . S
C465 C459 1.491 . S
C465 C464 1.400 . S
C465 C466 1.398 . S
C466 H454 0.950 . S
C466 C465 1.398 . S
C466 C467 1.391 . S
C467 H455 0.950 . S
C467 C463 1.393 . S
C467 C466 1.391 . S
H468 C476 0.950 . S
H469 C481 0.950 . S
H470 C478 0.950 . S
H471 C480 0.950 . S
H472 C482 0.950 . S
H473 C484 0.950 . S
H474 C486 0.950 . S
H475 C487 0.950 . S
C476 H468 0.950 . S
C476 C477 1.386 . S
C476 C478 1.391 . S
C477 C476 1.386 . S
C477 C481 1.393 . S
C478 H470 0.950 . S
C478 C476 1.391 . S
C478 C479 1.400 . S
C479 C478 1.400 . S
C479 C480 1.398 . S
C479 C485 1.491 . S
C480 H471 0.950 . S
C480 C479 1.398 . S
C480 C481 1.391 . S
C481 H469 0.950 . S
C481 C477 1.393 . S
C481 C480 1.391 . S
C482 H472 0.950 . S
C482 C483 1.386 . S
C482 C484 1.391 . S
C483 C482 1.386 . S
C483 C487 1.393 . S
C484 H473 0.950 . S
C484 C482 1.391 . S
C484 C485 1.400 . S
C485 C479 1.491 . S
C485 C484 1.400 . S
C485 C486 1.398 . S
C486 H474 0.950 . S
C486 C485 1.398 . S
C486 C487 1.391 . S
C487 H475 0.950 . S
C487 C483 1.393 . S
C487 C486 1.391 . S
H488 C496 0.950 . S
H489 C501 0.950 . S
H490 C498 0.950 . S
H491 C500 0.950 . S
H492 C502 0.950 1_655 S
H493 C504 0.950 1_655 S
H494 C506 0.950 . S
H495 C507 0.950 . S
C496 H488 0.950 . S
C496 C497 1.386 1_455 S
C496 C498 1.391 . S
C497 C496 1.386 1_655 S
C497 C501 1.393 . S
C498 H490 0.950 . S
C498 C496 1.391 . S
C498 C499 1.400 . S
C499 C498 1.400 . S
C499 C500 1.398 1_455 S
C499 C505 1.491 . S
C500 H491 0.950 . S
C500 C499 1.398 1_655 S
C500 C501 1.391 . S
C501 H489 0.950 . S
C501 C497 1.393 . S
C501 C500 1.391 . S
C502 H492 0.950 1_455 S
C502 C503 1.386 . S
C502 C504 1.391 . S
C503 C502 1.386 . S
C503 C507 1.393 . S
C504 H493 0.950 1_455 S
C504 C502 1.391 . S
C504 C505 1.400 . S
C505 C499 1.491 . S
C505 C504 1.400 . S
C505 C506 1.398 . S
C506 H494 0.950 . S
C506 C505 1.398 . S
C506 C507 1.391 . S
C507 H495 0.950 . S
C507 C503 1.393 . S
C507 C506 1.391 . S
H508 C516 0.950 . S
H509 C521 0.950 . S
H510 C518 0.950 . S
H511 C520 0.950 . S
H512 C522 0.950 . S
H513 C524 0.950 . S
H514 C526 0.948 1_556 S
H515 C527 0.950 . S
C516 H508 0.950 . S
C516 C517 1.386 . S
C516 C518 1.391 1_565 S
C517 C516 1.386 . S
C517 C521 1.393 1_565 S
C518 H510 0.950 . S
C518 C516 1.391 1_545 S
C518 C519 1.400 . S
C519 C518 1.400 . S
C519 C520 1.398 . S
C519 C525 1.491 . S
C520 H511 0.950 . S
C520 C519 1.398 . S
C520 C521 1.391 . S
C521 H509 0.950 . S
C521 C517 1.393 1_545 S
C521 C520 1.391 . S
C522 H512 0.950 . S
C522 C523 1.386 . S
C522 C524 1.391 . S
C523 C522 1.386 . S
C523 C527 1.393 1_554 S
C524 H513 0.950 . S
C524 C522 1.391 . S
C524 C525 1.400 . S
C525 C519 1.491 . S
C525 C524 1.400 . S
C525 C526 1.398 . S
C526 H514 0.948 1_554 S
C526 C525 1.398 . S
C526 C527 1.391 1_554 S
C527 H515 0.950 . S
C527 C523 1.393 1_556 S
C527 C526 1.391 1_556 S
H528 C536 0.950 . S
H529 C541 0.950 . S
H530 C538 0.950 . S
H531 C540 0.950 . S
H532 C542 0.950 . S
H533 C544 0.950 . S
H534 C546 0.950 . S
H535 C547 0.950 1_556 S
C536 H528 0.950 . S
C536 C537 1.386 . S
C536 C538 1.391 . S
C537 C536 1.386 . S
C537 C541 1.393 . S
C538 H530 0.950 . S
C538 C536 1.391 . S
C538 C539 1.400 . S
C539 C538 1.400 . S
C539 C540 1.398 . S
C539 C545 1.491 . S
C540 H531 0.950 . S
C540 C539 1.398 . S
C540 C541 1.391 . S
C541 H529 0.950 . S
C541 C537 1.393 . S
C541 C540 1.391 . S
C542 H532 0.950 . S
C542 C543 1.386 . S
C542 C544 1.391 . S
C543 C542 1.386 . S
C543 C547 1.393 . S
C544 H533 0.950 . S
C544 C542 1.391 . S
C544 C545 1.400 . S
C545 C539 1.491 . S
C545 C544 1.400 . S
C545 C546 1.398 . S
C546 H534 0.950 . S
C546 C545 1.398 . S
C546 C547 1.391 . S
C547 H535 0.950 1_554 S
C547 C543 1.393 . S
C547 C546 1.391 . S
H548 C556 0.950 . S
H549 C561 0.950 . S
H550 C558 0.950 . S
H551 C560 0.950 . S
H552 C562 0.950 . S
H553 C564 0.950 . S
H554 C566 0.950 . S
H555 C567 0.950 1_556 S
C556 H548 0.950 . S
C556 C557 1.386 . S
C556 C558 1.391 . S
C557 C556 1.386 . S
C557 C561 1.393 . S
C558 H550 0.950 . S
C558 C556 1.391 . S
C558 C559 1.400 . S
C559 C558 1.400 . S
C559 C560 1.398 . S
C559 C565 1.491 . S
C560 H551 0.950 . S
C560 C559 1.398 . S
C560 C561 1.391 . S
C561 H549 0.950 . S
C561 C557 1.393 . S
C561 C560 1.391 . S
C562 H552 0.950 . S
C562 C563 1.386 . S
C562 C564 1.391 . S
C563 C562 1.386 . S
C563 C567 1.393 . S
C564 H553 0.950 . S
C564 C562 1.391 . S
C564 C565 1.400 . S
C565 C559 1.491 . S
C565 C564 1.400 . S
C565 C566 1.398 . S
C566 H554 0.950 . S
C566 C565 1.398 . S
C566 C567 1.391 . S
C567 H555 0.950 1_554 S
C567 C563 1.393 . S
C567 C566 1.391 . S
H568 C576 0.950 . S
H569 C581 0.950 . S
H570 C578 0.950 . S
H571 C580 0.950 . S
H572 C582 0.950 . S
H573 C584 0.950 . S
H574 C586 0.950 . S
H575 C587 0.950 . S
C576 H568 0.950 . S
C576 C577 1.386 1_655 S
C576 C578 1.391 . S
C577 C576 1.386 1_455 S
C577 C581 1.393 . S
C578 H570 0.950 . S
C578 C576 1.391 . S
C578 C579 1.400 1_655 S
C579 C578 1.400 1_455 S
C579 C580 1.398 . S
C579 C585 1.491 . S
C580 H571 0.950 . S
C580 C579 1.398 . S
C580 C581 1.391 . S
C581 H569 0.950 . S
C581 C577 1.393 . S
C581 C580 1.391 . S
C582 H572 0.950 . S
C582 C583 1.386 . S
C582 C584 1.391 . S
C583 C582 1.386 . S
C583 C587 1.393 1_455 S
C584 H573 0.950 . S
C584 C582 1.391 . S
C584 C585 1.400 . S
C585 C579 1.491 . S
C585 C584 1.400 . S
C585 C586 1.398 1_455 S
C586 H574 0.950 . S
C586 C585 1.398 1_655 S
C586 C587 1.391 . S
C587 H575 0.950 . S
C587 C583 1.393 1_655 S
C587 C586 1.391 . S
H588 C596 0.950 . S
H589 C601 0.950 . S
H590 C598 0.948 1_565 S
H591 C600 0.950 . S
H592 C602 0.950 . S
H593 C604 0.950 . S
H594 C606 0.950 1_565 S
H595 C607 0.958 . S
C596 H588 0.950 . S
C596 C597 1.386 1_565 S
C596 C598 1.391 1_565 S
C597 C596 1.386 1_545 S
C597 C601 1.393 . S
C598 H590 0.948 1_545 S
C598 C596 1.391 1_545 S
C598 C599 1.402 . S
C599 C598 1.402 . S
C599 C600 1.398 . S
C599 C605 1.491 . S
C600 H591 0.950 . S
C600 C599 1.398 . S
C600 C601 1.391 . S
C601 H589 0.950 . S
C601 C597 1.393 . S
C601 C600 1.391 . S
C602 H592 0.950 . S
C602 C603 1.386 . S
C602 C604 1.391 . S
C603 C602 1.386 . S
C603 C607 1.393 . S
C604 H593 0.950 . S
C604 C602 1.391 . S
C604 C605 1.400 . S
C605 C599 1.491 . S
C605 C604 1.400 . S
C605 C606 1.398 . S
C606 H594 0.950 1_545 S
C606 C605 1.398 . S
C606 C607 1.391 . S
C607 H595 0.958 . S
C607 C603 1.393 . S
C607 C606 1.391 . S
H608 C616 0.950 . S
H609 C621 0.950 . S
H610 C618 0.950 . S
H611 C620 0.950 . S
H612 C622 0.950 . S
H613 C624 0.950 . S
H614 C626 0.950 . S
H615 C627 0.950 . S
C616 H608 0.950 . S
C616 C617 1.386 . S
C616 C618 1.391 . S
C617 C616 1.386 . S
C617 C621 1.393 . S
C618 H610 0.950 . S
C618 C616 1.391 . S
C618 C619 1.400 . S
C619 C618 1.400 . S
C619 C620 1.398 . S
C619 C625 1.491 . S
C620 H611 0.950 . S
C620 C619 1.398 . S
C620 C621 1.391 . S
C621 H609 0.950 . S
C621 C617 1.393 . S
C621 C620 1.391 . S
C622 H612 0.950 . S
C622 C623 1.386 . S
C622 C624 1.391 . S
C623 C622 1.386 . S
C623 C627 1.393 . S
C624 H613 0.950 . S
C624 C622 1.391 . S
C624 C625 1.400 . S
C625 C619 1.491 . S
C625 C624 1.400 . S
C625 C626 1.398 . S
C626 H614 0.950 . S
C626 C625 1.398 . S
C626 C627 1.391 . S
C627 H615 0.950 . S
C627 C623 1.393 . S
C627 C626 1.391 . S
H628 C636 0.950 . S
H629 C641 0.950 . S
H630 C638 0.950 . S
H631 C640 0.950 . S
H632 C642 0.950 . S
H633 C644 0.950 . S
H634 C646 0.950 . S
H635 C647 0.950 . S
C636 H628 0.950 . S
C636 C637 1.386 . S
C636 C638 1.391 . S
C637 C636 1.386 . S
C637 C641 1.393 . S
C638 H630 0.950 . S
C638 C636 1.391 . S
C638 C639 1.400 . S
C639 C638 1.400 . S
C639 C640 1.398 . S
C639 C645 1.491 . S
C640 H631 0.950 . S
C640 C639 1.398 . S
C640 C641 1.391 . S
C641 H629 0.950 . S
C641 C637 1.393 . S
C641 C640 1.391 . S
C642 H632 0.950 . S
C642 C643 1.386 . S
C642 C644 1.391 . S
C643 C642 1.386 . S
C643 C647 1.393 . S
C644 H633 0.950 . S
C644 C642 1.391 . S
C644 C645 1.400 . S
C645 C639 1.491 . S
C645 C644 1.400 . S
C645 C646 1.398 . S
C646 H634 0.950 . S
C646 C645 1.398 . S
C646 C647 1.391 . S
C647 H635 0.950 . S
C647 C643 1.393 . S
C647 C646 1.391 . S
H648 C656 0.950 . S
H649 C661 0.950 . S
H650 C658 0.950 . S
H651 C660 0.950 . S
H652 C662 0.948 . S
H653 C664 0.950 . S
H654 C666 0.950 . S
H655 C667 0.950 . S
C656 H648 0.950 . S
C656 C657 1.386 . S
C656 C658 1.391 . S
C657 C656 1.386 . S
C657 C661 1.393 1_655 S
C658 H650 0.950 . S
C658 C656 1.391 . S
C658 C659 1.400 . S
C659 C658 1.400 . S
C659 C660 1.398 1_655 S
C659 C665 1.491 . S
C660 H651 0.950 . S
C660 C659 1.398 1_455 S
C660 C661 1.391 . S
C661 H649 0.950 . S
C661 C657 1.393 1_455 S
C661 C660 1.391 . S
C662 H652 0.948 . S
C662 C663 1.387 1_455 S
C662 C664 1.391 . S
C663 C662 1.387 1_655 S
C663 C667 1.393 . S
C664 H653 0.950 . S
C664 C662 1.391 . S
C664 C665 1.400 1_455 S
C665 C659 1.491 . S
C665 C664 1.400 1_655 S
C665 C666 1.398 . S
C666 H654 0.950 . S
C666 C665 1.398 . S
C666 C667 1.391 . S
C667 H655 0.950 . S
C667 C663 1.393 . S
C667 C666 1.391 . S
H668 C676 0.950 . S
H669 C681 0.950 . S
H670 C678 0.950 . S
H671 C680 0.950 . S
H672 C682 0.950 . S
H673 C684 0.950 . S
H674 C686 0.950 . S
H675 C687 0.950 . S
C676 H668 0.950 . S
C676 C677 1.386 1_545 S
C676 C678 1.391 . S
C677 C676 1.386 1_565 S
C677 C681 1.393 . S
C678 H670 0.950 . S
C678 C676 1.391 . S
C678 C679 1.400 1_545 S
C679 C678 1.400 1_565 S
C679 C680 1.398 . S
C679 C685 1.491 . S
C680 H671 0.950 . S
C680 C679 1.398 . S
C680 C681 1.391 . S
C681 H669 0.950 . S
C681 C677 1.393 . S
C681 C680 1.391 . S
C682 H672 0.950 . S
C682 C683 1.386 . S
C682 C684 1.391 . S
C683 C682 1.386 . S
C683 C687 1.393 1_565 S
C684 H673 0.950 . S
C684 C682 1.391 . S
C684 C685 1.400 . S
C685 C679 1.491 . S
C685 C684 1.400 . S
C685 C686 1.398 1_565 S
C686 H674 0.950 . S
C686 C685 1.398 1_545 S
C686 C687 1.391 . S
C687 H675 0.950 . S
C687 C683 1.393 1_545 S
C687 C686 1.391 . S
H688 C696 0.950 . S
H689 C701 0.950 . S
H690 C698 0.950 . S
H691 C700 0.950 . S
H692 C702 0.950 . S
H693 C704 0.950 . S
H694 C706 0.950 . S
H695 C707 0.950 . S
C696 H688 0.950 . S
C696 C697 1.386 . S
C696 C698 1.391 . S
C697 C696 1.386 . S
C697 C701 1.393 . S
C698 H690 0.950 . S
C698 C696 1.391 . S
C698 C699 1.400 . S
C699 C698 1.400 . S
C699 C700 1.398 . S
C699 C705 1.491 . S
C700 H691 0.950 . S
C700 C699 1.398 . S
C700 C701 1.391 . S
C701 H689 0.950 . S
C701 C697 1.393 . S
C701 C700 1.391 . S
C702 H692 0.950 . S
C702 C703 1.386 . S
C702 C704 1.391 . S
C703 C702 1.386 . S
C703 C707 1.393 . S
C704 H693 0.950 . S
C704 C702 1.391 . S
C704 C705 1.400 . S
C705 C699 1.491 . S
C705 C704 1.400 . S
C705 C706 1.398 . S
C706 H694 0.950 . S
C706 C705 1.398 . S
C706 C707 1.391 . S
C707 H695 0.950 . S
C707 C703 1.393 . S
C707 C706 1.391 . S
H708 C716 0.950 . S
H709 C721 0.950 . S
H710 C718 0.950 . S
H711 C720 0.950 . S
H712 C722 0.950 . S
H713 C724 0.950 . S
H714 C726 0.950 . S
H715 C727 0.950 . S
C716 H708 0.950 . S
C716 C717 1.386 . S
C716 C718 1.391 . S
C717 C716 1.386 . S
C717 C721 1.393 . S
C718 H710 0.950 . S
C718 C716 1.391 . S
C718 C719 1.400 . S
C719 C718 1.400 . S
C719 C720 1.398 . S
C719 C725 1.491 . S
C720 H711 0.950 . S
C720 C719 1.398 . S
C720 C721 1.391 . S
C721 H709 0.950 . S
C721 C717 1.393 . S
C721 C720 1.391 . S
C722 H712 0.950 . S
C722 C723 1.386 . S
C722 C724 1.391 . S
C723 C722 1.386 . S
C723 C727 1.393 . S
C724 H713 0.950 . S
C724 C722 1.391 . S
C724 C725 1.400 . S
C725 C719 1.491 . S
C725 C724 1.400 . S
C725 C726 1.398 . S
C726 H714 0.950 . S
C726 C725 1.398 . S
C726 C727 1.391 . S
C727 H715 0.950 . S
C727 C723 1.393 . S
C727 C726 1.391 . S
C257 C74 1.763 1_565 S
C263 C97 1.864 1_545 S
C283 C137 1.863 . S
C277 C85 1.769 . S
C303 C177 1.870 . S
C297 C52 1.783 . S
C323 C217 1.865 1_455 S
C317 C63 1.773 1_655 S
C343 C106 1.860 1_565 S
C337 C30 1.779 1_565 S
C357 C41 1.765 . S
C363 C146 1.874 . S
C377 C8 1.769 . S
C383 C186 1.871 . S
C397 C19 1.770 . S
C403 C226 1.871 1_655 S
C423 C103 0.612 . S
C417 C62 0.562 . S
C443 C143 0.570 . S
C437 C73 0.585 . S
C463 C183 0.600 . S
C457 C84 0.589 . S
C477 C51 0.567 . S
C483 C223 0.597 . S
C497 C18 0.611 1_655 S
C503 C94 0.596 . S
C523 C134 0.619 . S
C517 C29 0.646 1_565 S
C543 C174 0.604 . S
C537 C40 0.637 . S
C557 C7 0.644 . S
C563 C214 0.621 . S
C577 C60 1.692 . S
C583 C107 2.215 . S
C597 C71 1.682 . S
C603 C147 2.215 . S
C623 C187 2.215 . S
C617 C82 1.691 . S
C643 C227 2.224 . S
C637 C49 1.682 . S
C657 C16 1.764 1_655 S
C663 C98 2.240 . S
C683 C138 2.223 . S
C677 C27 1.750 1_565 S
C703 C178 2.225 . S
C697 C38 1.753 . S
C717 C5 1.762 . S
C723 C218 2.236 . S
