# Generated by pormake.
# Topology ocu, (6,8)-cn, num edge types: 1
# Building blocks:
#     Node 0, Type 0, BuildingBlock: HISSIN_clean_sbu_0, # of connection points: 6
#     Node 1, Type 0, BuildingBlock: HISSIN_clean_sbu_0, # of connection points: 6
#     Node 2, Type 0, BuildingBlock: HISSIN_clean_sbu_0, # of connection points: 6
#     Node 3, Type 0, BuildingBlock: HISSIN_clean_sbu_0, # of connection points: 6
#     Node 4, Type 0, BuildingBlock: HISSIN_clean_sbu_0, # of connection points: 6
#     Node 5, Type 0, BuildingBlock: HISSIN_clean_sbu_0, # of connection points: 6
#     Node 6, Type 0, BuildingBlock: HISSIN_clean_sbu_0, # of connection points: 6
#     Node 7, Type 0, BuildingBlock: HISSIN_clean_sbu_0, # of connection points: 6
#     Node 8, Type 1, BuildingBlock: GIZVER_clean_sbu_0, # of connection points: 8
#     Node 9, Type 1, BuildingBlock: GIZVER_clean_sbu_0, # of connection points: 8
#     Node 10, Type 1, BuildingBlock: GIZVER_clean_sbu_0, # of connection points: 8
#     Node 11, Type 1, BuildingBlock: GIZVER_clean_sbu_0, # of connection points: 8
#     Node 12, Type 1, BuildingBlock: GIZVER_clean_sbu_0, # of connection points: 8
#     Node 13, Type 1, BuildingBlock: GIZVER_clean_sbu_0, # of connection points: 8
#     Edge 14, Type (0, 1), BuildingBlock: CIFDUS_clean_linker_0, # of connection points: 2
#     Edge 15, Type (0, 1), BuildingBlock: CIFDUS_clean_linker_0, # of connection points: 2
#     Edge 16, Type (0, 1), BuildingBlock: CIFDUS_clean_linker_0, # of connection points: 2
#     Edge 17, Type (0, 1), BuildingBlock: CIFDUS_clean_linker_0, # of connection points: 2
#     Edge 18, Type (0, 1), BuildingBlock: CIFDUS_clean_linker_0, # of connection points: 2
#     Edge 19, Type (0, 1), BuildingBlock: CIFDUS_clean_linker_0, # of connection points: 2
#     Edge 20, Type (0, 1), BuildingBlock: CIFDUS_clean_linker_0, # of connection points: 2
#     Edge 21, Type (0, 1), BuildingBlock: CIFDUS_clean_linker_0, # of connection points: 2
#     Edge 22, Type (0, 1), BuildingBlock: CIFDUS_clean_linker_0, # of connection points: 2
#     Edge 23, Type (0, 1), BuildingBlock: CIFDUS_clean_linker_0, # of connection points: 2
#     Edge 24, Type (0, 1), BuildingBlock: CIFDUS_clean_linker_0, # of connection points: 2
#     Edge 25, Type (0, 1), BuildingBlock: CIFDUS_clean_linker_0, # of connection points: 2
#     Edge 26, Type (0, 1), BuildingBlock: CIFDUS_clean_linker_0, # of connection points: 2
#     Edge 27, Type (0, 1), BuildingBlock: CIFDUS_clean_linker_0, # of connection points: 2
#     Edge 28, Type (0, 1), BuildingBlock: CIFDUS_clean_linker_0, # of connection points: 2
#     Edge 29, Type (0, 1), BuildingBlock: CIFDUS_clean_linker_0, # of connection points: 2
#     Edge 30, Type (0, 1), BuildingBlock: CIFDUS_clean_linker_0, # of connection points: 2
#     Edge 31, Type (0, 1), BuildingBlock: CIFDUS_clean_linker_0, # of connection points: 2
#     Edge 32, Type (0, 1), BuildingBlock: CIFDUS_clean_linker_0, # of connection points: 2
#     Edge 33, Type (0, 1), BuildingBlock: CIFDUS_clean_linker_0, # of connection points: 2
#     Edge 34, Type (0, 1), BuildingBlock: CIFDUS_clean_linker_0, # of connection points: 2
#     Edge 35, Type (0, 1), BuildingBlock: CIFDUS_clean_linker_0, # of connection points: 2
#     Edge 36, Type (0, 1), BuildingBlock: CIFDUS_clean_linker_0, # of connection points: 2
#     Edge 37, Type (0, 1), BuildingBlock: CIFDUS_clean_linker_0, # of connection points: 2
#     Edge 38, Type (0, 1), BuildingBlock: CIFDUS_clean_linker_0, # of connection points: 2
#     Edge 39, Type (0, 1), BuildingBlock: CIFDUS_clean_linker_0, # of connection points: 2
#     Edge 40, Type (0, 1), BuildingBlock: CIFDUS_clean_linker_0, # of connection points: 2
#     Edge 41, Type (0, 1), BuildingBlock: CIFDUS_clean_linker_0, # of connection points: 2
#     Edge 42, Type (0, 1), BuildingBlock: CIFDUS_clean_linker_0, # of connection points: 2
#     Edge 43, Type (0, 1), BuildingBlock: CIFDUS_clean_linker_0, # of connection points: 2
#     Edge 44, Type (0, 1), BuildingBlock: CIFDUS_clean_linker_0, # of connection points: 2
#     Edge 45, Type (0, 1), BuildingBlock: CIFDUS_clean_linker_0, # of connection points: 2
#     Edge 46, Type (0, 1), BuildingBlock: CIFDUS_clean_linker_0, # of connection points: 2
#     Edge 47, Type (0, 1), BuildingBlock: CIFDUS_clean_linker_0, # of connection points: 2
#     Edge 48, Type (0, 1), BuildingBlock: CIFDUS_clean_linker_0, # of connection points: 2
#     Edge 49, Type (0, 1), BuildingBlock: CIFDUS_clean_linker_0, # of connection points: 2
#     Edge 50, Type (0, 1), BuildingBlock: CIFDUS_clean_linker_0, # of connection points: 2
#     Edge 51, Type (0, 1), BuildingBlock: CIFDUS_clean_linker_0, # of connection points: 2
#     Edge 52, Type (0, 1), BuildingBlock: CIFDUS_clean_linker_0, # of connection points: 2
#     Edge 53, Type (0, 1), BuildingBlock: CIFDUS_clean_linker_0, # of connection points: 2
#     Edge 54, Type (0, 1), BuildingBlock: CIFDUS_clean_linker_0, # of connection points: 2
#     Edge 55, Type (0, 1), BuildingBlock: CIFDUS_clean_linker_0, # of connection points: 2
#     Edge 56, Type (0, 1), BuildingBlock: CIFDUS_clean_linker_0, # of connection points: 2
#     Edge 57, Type (0, 1), BuildingBlock: CIFDUS_clean_linker_0, # of connection points: 2
#     Edge 58, Type (0, 1), BuildingBlock: CIFDUS_clean_linker_0, # of connection points: 2
#     Edge 59, Type (0, 1), BuildingBlock: CIFDUS_clean_linker_0, # of connection points: 2
#     Edge 60, Type (0, 1), BuildingBlock: CIFDUS_clean_linker_0, # of connection points: 2
#     Edge 61, Type (0, 1), BuildingBlock: CIFDUS_clean_linker_0, # of connection points: 2
# Relax obj value: 0.184
# Max RMSD: 0.244
# Mean RMSD: 0.170
data_MOF--net-ocu--node1-HISSIN_clean_sbu_0--node2-GIZVER_clean_sbu_0--edge1-CIFDUS_clean_linker_0
_symmetry_space_group_name_H-M    P1
_symmetry_Int_Tables_number       1
_symmetry_cell_setting            triclinic
loop_
_symmetry_equiv_pos_as_xyz
'x, y, z'
_cell_length_a     38.720484
_cell_length_b     40.983488
_cell_length_c     29.764792
_cell_angle_alpha  104.54604
_cell_angle_beta   77.274125
_cell_angle_gamma 113.77137
loop_
_atom_site_label
_atom_site_type_symbol
_atom_site_fract_x
_atom_site_fract_y
_atom_site_fract_z
_atom_type_partial_charge
Eu0 Eu 0.3337 0.29055 0.31595 0.0
Eu1 Eu 0.28756 0.26347 0.22435 0.0
C2 C 0.26239 0.21259 0.30355 0.0
C3 C 0.38644 0.28508 0.40364 0.0
C4 C 0.36108 0.25178 0.41602 0.0
C5 C 0.43931 0.27166 0.41501 0.0
C6 C 0.37476 0.22838 0.42676 0.0
C7 C 0.42556 0.29524 0.40443 0.0
C8 C 0.41408 0.23753 0.42493 0.0
C9 C 0.37285 0.30716 0.38482 0.0
O10 O 0.26685 0.307 0.27194 0.0
O11 O 0.28779 0.31407 0.34159 0.0
C12 C 0.26757 0.32042 0.31706 0.0
O13 O 0.35397 0.34003 0.28236 0.0
O14 O 0.23463 0.24649 0.19515 0.0
O15 O 0.28758 0.25287 0.14869 0.0
O16 O 0.34074 0.31143 0.20807 0.0
C17 C 0.35813 0.34045 0.23743 0.0
O18 O 0.36674 0.26341 0.25688 0.0
O19 O 0.32129 0.22651 0.20958 0.0
O20 O 0.25327 0.22099 0.26907 0.0
O21 O 0.38846 0.31308 0.34264 0.0
O22 O 0.33609 0.29889 0.39063 0.0
O23 O 0.29325 0.23329 0.32317 0.0
C24 C 0.24401 0.27327 0.1301 0.0
C25 C 0.2727 0.30583 0.1195 0.0
C26 C 0.19739 0.29093 0.10962 0.0
C27 C 0.2637 0.33093 0.10483 0.0
C28 C 0.20646 0.26568 0.12397 0.0
C29 C 0.22577 0.32427 0.10098 0.0
C30 C 0.25203 0.24931 0.15268 0.0
C31 C 0.35462 0.23557 0.2231 0.0
H32 H 0.33072 0.24307 0.41572 0.0
H33 H 0.46977 0.27938 0.41316 0.0
H34 H 0.35456 0.20257 0.4352 0.0
H35 H 0.44563 0.32073 0.39483 0.0
H36 H 0.30192 0.31258 0.12411 0.0
H37 H 0.16783 0.28503 0.10757 0.0
H38 H 0.28638 0.35603 0.09771 0.0
H39 H 0.18384 0.2409 0.13231 0.0
Eu40 Eu 0.84698 0.25319 0.24653 0.0
Eu41 Eu 0.77813 0.28671 0.27186 0.0
C42 C 0.84243 0.31597 0.3376 0.0
C43 C 0.92248 0.21337 0.24863 0.0
C44 C 0.92973 0.22672 0.29537 0.0
C45 C 0.95569 0.17259 0.24112 0.0
C46 C 0.94987 0.21296 0.31483 0.0
C47 C 0.93581 0.18638 0.22177 0.0
C48 C 0.9628 0.18547 0.28796 0.0
C49 C 0.9012 0.22674 0.22663 0.0
O50 O 0.83091 0.32756 0.23841 0.0
O51 O 0.85802 0.28769 0.19275 0.0
C52 C 0.85517 0.31968 0.20308 0.0
O53 O 0.79727 0.21406 0.20804 0.0
O54 O 0.75669 0.33077 0.29591 0.0
O55 O 0.71796 0.27621 0.27278 0.0
O56 O 0.77747 0.25658 0.19781 0.0
C57 C 0.77705 0.22346 0.18713 0.0
O58 O 0.81196 0.23249 0.31115 0.0
O59 O 0.75573 0.2355 0.30293 0.0
O60 O 0.80587 0.30643 0.33701 0.0
O61 O 0.86534 0.20692 0.22422 0.0
O62 O 0.90737 0.26132 0.23675 0.0
O63 O 0.86406 0.30303 0.3032 0.0
C64 C 0.7033 0.32452 0.26266 0.0
C65 C 0.72408 0.34847 0.23135 0.0
C66 C 0.64511 0.32968 0.2527 0.0
C67 C 0.70554 0.36348 0.21161 0.0
C68 C 0.66367 0.31484 0.27257 0.0
C69 C 0.66591 0.35469 0.22266 0.0
C70 C 0.7222 0.31025 0.28674 0.0
C71 C 0.77478 0.22226 0.32033 0.0
H72 H 0.9196 0.2475 0.31685 0.0
H73 H 0.96559 0.15176 0.21928 0.0
H74 H 0.95453 0.22318 0.35114 0.0
H75 H 0.93071 0.1758 0.18562 0.0
H76 H 0.75465 0.35604 0.22276 0.0
H77 H 0.61465 0.32256 0.26219 0.0
H78 H 0.72227 0.38225 0.18802 0.0
H79 H 0.64712 0.29634 0.29657 0.0
Eu80 Eu 0.82329 0.80133 0.21484 0.0
Eu81 Eu 0.79465 0.75417 0.29889 0.0
C82 C 0.74593 0.72842 0.21171 0.0
C83 C 0.82089 0.84954 0.12333 0.0
C84 C 0.78097 0.83671 0.13223 0.0
C85 C 0.81976 0.88808 0.07412 0.0
C86 C 0.76059 0.85016 0.11307 0.0
C87 C 0.84009 0.8746 0.09329 0.0
C88 C 0.77986 0.87679 0.08487 0.0
C89 C 0.8426 0.83921 0.14835 0.0
O90 O 0.82649 0.72498 0.24021 0.0
O91 O 0.86428 0.7722 0.20239 0.0
C92 C 0.85624 0.73961 0.21045 0.0
O93 O 0.85909 0.83625 0.27316 0.0
O94 O 0.77476 0.70305 0.32438 0.0
O95 O 0.78585 0.75364 0.37372 0.0
O96 O 0.85542 0.79106 0.30787 0.0
C97 C 0.87151 0.82481 0.30172 0.0
O98 O 0.77076 0.81155 0.25467 0.0
O99 O 0.77127 0.79992 0.32567 0.0
O100 O 0.74481 0.7293 0.25668 0.0
O101 O 0.84255 0.85342 0.19277 0.0
O102 O 0.83725 0.80485 0.14051 0.0
O103 O 0.77561 0.74995 0.18807 0.0
C104 C 0.8049 0.70954 0.38908 0.0
C105 C 0.83686 0.73626 0.40897 0.0
C106 C 0.82265 0.66314 0.40445 0.0
C107 C 0.86158 0.72647 0.42607 0.0
C108 C 0.79783 0.67293 0.38762 0.0
C109 C 0.85509 0.68976 0.42336 0.0
C110 C 0.78017 0.71929 0.36737 0.0
C111 C 0.76013 0.81495 0.30011 0.0
H112 H 0.76568 0.81739 0.15551 0.0
H113 H 0.83538 0.90826 0.05211 0.0
H114 H 0.72998 0.8412 0.1225 0.0
H115 H 0.87089 0.88471 0.08598 0.0
H116 H 0.84329 0.76476 0.41056 0.0
H117 H 0.81649 0.63463 0.40251 0.0
H118 H 0.8864 0.74762 0.44013 0.0
H119 H 0.77342 0.65181 0.37263 0.0
Eu120 Eu 0.32563 0.76297 0.25197 0.0
Eu121 Eu 0.27715 0.8118 0.31002 0.0
C122 C 0.24835 0.75624 0.21759 0.0
C123 C 0.36353 0.71016 0.14794 0.0
C124 C 0.32969 0.69354 0.12727 0.0
C125 C 0.39975 0.7018 0.07194 0.0
C126 C 0.33086 0.67996 0.07914 0.0
C127 C 0.39848 0.71495 0.1198 0.0
C128 C 0.36592 0.68333 0.05102 0.0
C129 C 0.36308 0.72456 0.19827 0.0
O130 O 0.24237 0.75682 0.3285 0.0
O131 O 0.28876 0.73228 0.30993 0.0
C132 C 0.25447 0.73144 0.32964 0.0
O133 O 0.36102 0.80368 0.30605 0.0
O134 O 0.22935 0.82315 0.35586 0.0
O135 O 0.28173 0.86756 0.33989 0.0
O136 O 0.31006 0.8059 0.35897 0.0
C137 C 0.34674 0.8137 0.34886 0.0
O138 O 0.33755 0.80627 0.20994 0.0
O139 O 0.33289 0.84741 0.27504 0.0
O140 O 0.24915 0.7877 0.24366 0.0
O141 O 0.37815 0.75976 0.20948 0.0
O142 O 0.33129 0.71063 0.22483 0.0
O143 O 0.27223 0.74159 0.2199 0.0
C144 C 0.25692 0.86757 0.41875 0.0
C145 C 0.2559 0.84188 0.4432 0.0
C146 C 0.27433 0.91416 0.48705 0.0
C147 C 0.2624 0.85198 0.48991 0.0
C148 C 0.26797 0.904 0.4403 0.0
C149 C 0.2692 0.88786 0.51355 0.0
C150 C 0.25088 0.85686 0.36926 0.0
C151 C 0.34716 0.8401 0.23134 0.0
H152 H 0.30232 0.69035 0.14837 0.0
H153 H 0.42741 0.70426 0.052 0.0
H154 H 0.30442 0.66568 0.06426 0.0
H155 H 0.42484 0.72823 0.13501 0.0
H156 H 0.24927 0.81371 0.42657 0.0
H157 H 0.28 0.94228 0.50312 0.0
H158 H 0.25897 0.83113 0.50862 0.0
H159 H 0.27062 0.92448 0.42139 0.0
Eu160 Eu 0.33937 0.74116 0.74194 0.0
Eu161 Eu 0.29066 0.79623 0.77554 0.0
C162 C 0.35815 0.80436 0.83038 0.0
C163 C 0.40361 0.68828 0.73585 0.0
C164 C 0.41502 0.705 0.7803 0.0
C165 C 0.43689 0.64772 0.72834 0.0
C166 C 0.43721 0.693 0.79874 0.0
C167 C 0.41487 0.65977 0.70997 0.0
C168 C 0.44811 0.66399 0.77306 0.0
C169 C 0.3805 0.70038 0.71548 0.0
O170 O 0.32658 0.80888 0.70717 0.0
O171 O 0.37492 0.79401 0.71659 0.0
C172 C 0.36248 0.81242 0.69812 0.0
O173 O 0.30457 0.72854 0.68399 0.0
O174 O 0.28947 0.85068 0.7899 0.0
O175 O 0.23681 0.8048 0.79924 0.0
O176 O 0.2572 0.74821 0.72657 0.0
C177 C 0.26992 0.7286 0.68993 0.0
O178 O 0.28402 0.71131 0.78386 0.0
O179 O 0.27047 0.76015 0.82915 0.0
O180 O 0.34172 0.82101 0.8146 0.0
O181 O 0.34385 0.68788 0.72848 0.0
O182 O 0.39363 0.73472 0.71354 0.0
O183 O 0.35325 0.77016 0.81407 0.0
C184 C 0.23302 0.85402 0.77472 0.0
C185 C 0.25323 0.8761 0.74098 0.0
C186 C 0.17565 0.86302 0.76931 0.0
C187 C 0.23501 0.89211 0.72248 0.0
C188 C 0.19395 0.84722 0.78811 0.0
C189 C 0.19619 0.88629 0.73711 0.0
C190 C 0.25235 0.83936 0.79795 0.0
C191 C 0.26451 0.72536 0.81978 0.0
H192 H 0.40658 0.72712 0.80075 0.0
H193 H 0.44517 0.62562 0.70748 0.0
H194 H 0.44506 0.7058 0.83346 0.0
H195 H 0.40655 0.64674 0.67548 0.0
H196 H 0.2833 0.88166 0.72955 0.0
H197 H 0.1458 0.85826 0.78145 0.0
H198 H 0.25143 0.90958 0.69724 0.0
H199 H 0.17773 0.83034 0.81406 0.0
Eu200 Eu 0.32911 0.29902 0.71791 0.0
Eu201 Eu 0.29809 0.24619 0.79479 0.0
C202 C 0.2518 0.23079 0.70809 0.0
C203 C 0.31969 0.34507 0.62959 0.0
C204 C 0.28971 0.31735 0.60702 0.0
C205 C 0.29793 0.38953 0.61647 0.0
C206 C 0.26388 0.32563 0.58992 0.0
C207 C 0.32382 0.38124 0.63346 0.0
C208 C 0.26731 0.3618 0.5951 0.0
C209 C 0.34489 0.33644 0.65195 0.0
O210 O 0.35376 0.24184 0.75813 0.0
O211 O 0.35198 0.25286 0.68782 0.0
C212 C 0.36441 0.23861 0.71293 0.0
O213 O 0.37713 0.32182 0.76205 0.0
O214 O 0.28411 0.19216 0.809 0.0
O215 O 0.27935 0.23547 0.86623 0.0
O216 O 0.34423 0.29695 0.8273 0.0
C217 C 0.37447 0.3202 0.80644 0.0
O218 O 0.2962 0.3259 0.77888 0.0
O219 O 0.25774 0.27642 0.81255 0.0
O220 O 0.26334 0.2156 0.73315 0.0
O221 O 0.34805 0.3514 0.69583 0.0
O222 O 0.34142 0.30254 0.64382 0.0
O223 O 0.2681 0.26564 0.70859 0.0
C224 C 0.30524 0.19531 0.8791 0.0
C225 C 0.33437 0.22344 0.90251 0.0
C226 C 0.3271 0.15164 0.89439 0.0
C227 C 0.35971 0.21572 0.92145 0.0
C228 C 0.3016 0.15936 0.87582 0.0
C229 C 0.35683 0.17972 0.91704 0.0
C230 C 0.28091 0.20311 0.85433 0.0
C231 C 0.26612 0.30993 0.80755 0.0
H232 H 0.28557 0.28911 0.60346 0.0
H233 H 0.3018 0.41773 0.62028 0.0
H234 H 0.24054 0.30362 0.57395 0.0
H235 H 0.34665 0.40312 0.65054 0.0
H236 H 0.33817 0.25152 0.90534 0.0
H237 H 0.32425 0.12362 0.88937 0.0
H238 H 0.38182 0.23807 0.9391 0.0
H239 H 0.2797 0.13722 0.85751 0.0
Eu240 Eu 0.84598 0.24117 0.72566 0.0
Eu241 Eu 0.7993 0.29212 0.77571 0.0
C242 C 0.77765 0.23499 0.68411 0.0
C243 C 0.8796 0.19541 0.61786 0.0
C244 C 0.88708 0.22671 0.6002 0.0
C245 C 0.8751 0.16058 0.53948 0.0
C246 C 0.89055 0.22535 0.55219 0.0
C247 C 0.87185 0.16212 0.58747 0.0
C248 C 0.88701 0.19263 0.52069 0.0
C249 C 0.87423 0.1971 0.66856 0.0
O250 O 0.79075 0.25637 0.82629 0.0
O251 O 0.79453 0.20822 0.77114 0.0
C252 C 0.78145 0.22135 0.81331 0.0
O253 O 0.87237 0.2667 0.79235 0.0
O254 O 0.74289 0.29437 0.80042 0.0
O255 O 0.7931 0.34294 0.81311 0.0
O256 O 0.8529 0.315 0.80881 0.0
C257 C 0.87437 0.29916 0.81553 0.0
O258 O 0.88173 0.29546 0.70394 0.0
O259 O 0.83595 0.32016 0.71596 0.0
O260 O 0.76349 0.24497 0.72689 0.0
O261 O 0.8956 0.22716 0.69266 0.0
O262 O 0.8386 0.18659 0.68711 0.0
O263 O 0.81444 0.24556 0.67435 0.0
C264 C 0.74489 0.32712 0.87656 0.0
C265 C 0.77083 0.33182 0.9064 0.0
C266 C 0.69408 0.31643 0.94121 0.0
C267 C 0.75864 0.3303 0.95389 0.0
C268 C 0.70635 0.31844 0.89406 0.0
C269 C 0.72024 0.32339 0.97203 0.0
C270 C 0.75688 0.32627 0.82613 0.0
C271 C 0.87033 0.32024 0.6984 0.0
H272 H 0.89087 0.25245 0.62348 0.0
H273 H 0.8709 0.13432 0.51734 0.0
H274 H 0.89854 0.25035 0.53958 0.0
H275 H 0.86393 0.13738 0.60073 0.0
H276 H 0.80064 0.33717 0.89324 0.0
H277 H 0.66438 0.3119 0.95402 0.0
H278 H 0.77941 0.33628 0.97686 0.0
H279 H 0.68577 0.31361 0.87134 0.0
Eu280 Eu 0.84391 0.78597 0.81474 0.0
Eu281 Eu 0.78573 0.75668 0.73461 0.0
C282 C 0.7681 0.71409 0.81938 0.0
C283 C 0.89895 0.78334 0.90447 0.0
C284 C 0.8722 0.75154 0.91952 0.0
C285 C 0.94843 0.77445 0.93239 0.0
C286 C 0.88356 0.73122 0.94049 0.0
C287 C 0.93697 0.79491 0.91173 0.0
C288 C 0.92198 0.74198 0.94629 0.0
C289 C 0.88813 0.80351 0.87888 0.0
O290 O 0.7622 0.79185 0.79489 0.0
O291 O 0.81441 0.82663 0.83267 0.0
C292 C 0.77998 0.82049 0.8247 0.0
O293 O 0.87369 0.82514 0.76503 0.0
O294 O 0.72736 0.73345 0.71826 0.0
O295 O 0.77431 0.74816 0.66303 0.0
O296 O 0.82752 0.81147 0.71855 0.0
C297 C 0.86087 0.83197 0.73244 0.0
O298 O 0.85758 0.73873 0.76536 0.0
O299 O 0.82902 0.73051 0.70116 0.0
O300 O 0.76766 0.71032 0.77424 0.0
O301 O 0.90027 0.80058 0.83412 0.0
O302 O 0.8529 0.80161 0.88816 0.0
O303 O 0.78974 0.74442 0.84284 0.0
C304 C 0.72157 0.76247 0.66299 0.0
C305 C 0.72456 0.79606 0.69181 0.0
C306 C 0.69396 0.77663 0.60792 0.0
C307 C 0.71266 0.81982 0.67879 0.0
C308 C 0.70581 0.75266 0.6212 0.0
C309 C 0.69796 0.81079 0.63623 0.0
C310 C 0.73771 0.73948 0.67539 0.0
C311 C 0.85211 0.72411 0.72133 0.0
H312 H 0.84265 0.74195 0.91422 0.0
H313 H 0.9783 0.78333 0.93568 0.0
H314 H 0.86232 0.70668 0.95139 0.0
H315 H 0.95806 0.81929 0.90018 0.0
H316 H 0.73701 0.80433 0.72397 0.0
H317 H 0.683 0.76901 0.57479 0.0
H318 H 0.71556 0.84562 0.70179 0.0
H319 H 0.7036 0.72696 0.59831 0.0
Co320 Co 0.08913 0.9545 0.53241 0.0
Co321 Co 0.07214 1.00376 0.59975 0.0
Co322 Co 1.0601 1.01611 0.50947 0.0
O323 O 0.09343 1.00316 0.5366 0.0
H324 H 0.11951 1.01999 0.53352 0.0
O325 O 1.02735 0.02967 0.48265 0.0
Co326 Co 1.03161 0.07887 0.48897 0.0
Co327 Co 1.04919 0.03124 0.42036 0.0
H328 H 1.0014 1.01246 0.48449 0.0
O329 O 0.09848 1.00675 0.64555 0.0
O330 O 0.06417 0.95598 0.59976 0.0
O331 O 1.02424 1.01019 0.61911 0.0
O332 O 1.01189 0.9854 0.54714 0.0
O333 O 0.06609 0.05899 0.56007 0.0
O334 O 1.02924 0.12192 0.49163 0.0
O335 O 0.98675 0.06579 0.47012 0.0
O336 O 0.08126 0.1 0.51573 0.0
O337 O 0.10851 0.04722 0.47224 0.0
O338 O 0.09703 0.02505 0.39962 0.0
O339 O 1.05539 0.07871 0.42065 0.0
O340 O 1.02189 0.02661 0.37576 0.0
C341 C 0.12279 0.93252 0.54752 0.0
C342 C 1.03527 0.9409 0.46902 0.0
C343 C 1.00089 0.98879 0.59136 0.0
C344 C 0.08392 0.97161 0.63507 0.0
C345 C 0.9973 0.10077 0.47538 0.0
C346 C 0.08594 0.09068 0.55163 0.0
C347 C 0.11994 0.04562 0.42823 0.0
C348 C 1.03529 0.06185 0.38558 0.0
O349 O 0.09076 0.91147 0.53155 0.0
O350 O 0.13369 0.96754 0.55221 0.0
O351 O 1.05302 0.97253 0.45894 0.0
O352 O 1.04079 0.93374 0.50595 0.0
Co353 Co 0.60205 0.95776 0.97059 0.0
Co354 Co 0.59888 0.9873 0.05913 0.0
Co355 Co 0.56257 0.0251 1.01042 0.0
O356 O 0.604 1.0059 1.00619 0.0
H357 H 0.62912 0.02425 1.00158 0.0
O358 O 0.52026 0.04312 0.01439 0.0
Co359 Co 0.51736 0.08848 0.05232 0.0
Co360 Co 0.52545 0.06407 0.96399 0.0
H361 H 0.49564 0.0237 0.0166 0.0
O362 O 0.64148 0.98858 0.07721 0.0
O363 O 0.60264 0.94314 0.02932 0.0
O364 O 0.55187 0.97804 0.10075 0.0
O365 O 0.52378 0.99262 0.05516 0.0
O366 O 0.58437 0.06494 0.06274 0.0
O367 O 0.51088 0.12849 0.088 0.0
O368 O 0.46509 0.0751 0.06571 0.0
O369 O 0.57188 0.10885 0.04566 0.0
O370 O 0.60125 0.0569 0.9651 0.0
O371 O 0.5739 0.07813 0.92636 0.0
O372 O 0.51534 0.10476 0.99499 0.0
O373 O 0.48234 0.05784 0.94259 0.0
C374 C 0.6408 0.93271 0.93459 0.0
C375 C 0.52904 0.95307 0.96054 0.0
C376 C 0.5222 0.97788 0.08922 0.0
C377 C 0.63232 0.95627 0.05171 0.0
C378 C 0.47482 0.1088 0.088 0.0
C379 C 0.59315 0.09842 0.06153 0.0
C380 C 0.60285 0.07438 0.93405 0.0
C381 C 0.48711 0.08914 0.96984 0.0
O382 O 0.60413 0.91569 0.93729 0.0
O383 O 0.65403 0.96674 0.95544 0.0
O384 O 0.5415 0.98647 0.95779 0.0
O385 O 0.54728 0.94067 0.9785 0.0
Co386 Co 0.10515 0.45959 0.97511 0.0
Co387 Co 0.10452 0.49014 0.06426 0.0
Co388 Co 1.06177 0.52392 0.01912 0.0
O389 O 0.10531 0.5068 1.01101 0.0
H390 H 0.12965 0.52587 1.00495 0.0
O391 O 1.01792 0.54063 0.02742 0.0
Co392 Co 1.01691 0.58753 0.06223 0.0
Co393 Co 1.01898 0.55719 0.97459 0.0
H394 H 0.99368 0.52134 0.03312 0.0
O395 O 0.14686 0.48554 0.07809 0.0
O396 O 0.10294 0.44399 0.03389 0.0
O397 O 1.06002 0.48472 0.11079 0.0
O398 O 1.02621 0.48927 0.0626 0.0
O399 O 0.08322 0.5626 0.07234 0.0
O400 O 1.01176 0.62895 0.09467 0.0
O401 O 0.96501 0.57531 0.07572 0.0
O402 O 0.07124 0.60695 0.0556 0.0
O403 O 0.09764 0.55812 0.97543 0.0
O404 O 0.0644 0.56738 0.93093 0.0
O405 O 1.01601 0.60168 1.00314 0.0
O406 O 0.97531 0.55533 0.95838 0.0
C407 C 0.14632 0.43717 0.94092 0.0
C408 C 1.03139 0.45231 0.96394 0.0
C409 C 1.02838 0.47984 0.09943 0.0
C410 C 0.13227 0.45277 0.05518 0.0
C411 C 0.97557 0.60961 0.09557 0.0
C412 C 0.09068 0.59633 0.07425 0.0
C413 C 0.09579 0.57051 0.94103 0.0
C414 C 0.98669 0.5888 0.9802 0.0
O415 O 0.11004 0.41815 0.94151 0.0
O416 O 0.15702 0.47102 0.96264 0.0
O417 O 1.04021 0.48608 0.96567 0.0
O418 O 1.05099 0.44071 0.98063 0.0
Co419 Co 0.59072 0.46164 0.03648 0.0
Co420 Co 0.57705 0.51328 0.10305 0.0
Co421 Co 0.56004 0.52086 1.01119 0.0
O422 O 0.5949 0.51019 0.03865 0.0
H423 H 0.6209 0.52686 0.03345 0.0
O424 O 0.52492 0.53123 0.98392 0.0
Co425 Co 0.52998 0.57918 0.98216 0.0
Co426 Co 0.54306 0.52565 0.92005 0.0
H427 H 0.49884 0.51486 0.98958 0.0
O428 O 0.60747 0.51926 0.14603 0.0
O429 O 0.57133 0.46651 0.10539 0.0
O430 O 0.52843 0.51774 0.1256 0.0
O431 O 0.51351 0.49379 0.0542 0.0
O432 O 0.56993 0.56743 0.05672 0.0
O433 O 0.52924 0.62137 0.97847 0.0
O434 O 0.48328 0.56573 0.96717 0.0
O435 O 0.58071 0.60112 1.00353 0.0
O436 O 0.60651 0.54769 0.96761 0.0
O437 O 0.59036 0.51818 0.89828 0.0
O438 O 0.54944 0.57146 0.91283 0.0
O439 O 0.51268 0.51645 0.87681 0.0
C440 C 0.62649 0.44023 0.04735 0.0
C441 C 0.53277 0.44417 0.97877 0.0
C442 C 0.504 0.49724 0.09868 0.0
C443 C 0.59394 0.48404 0.13755 0.0
C444 C 0.49531 0.60047 0.968 0.0
C445 C 0.58699 0.59765 0.04252 0.0
C446 C 0.61541 0.54079 0.92312 0.0
C447 C 0.52678 0.55157 0.88108 0.0
O448 O 0.59263 0.41922 0.03668 0.0
O449 O 0.63779 0.47514 0.05024 0.0
O450 O 0.55025 0.47455 0.96531 0.0
O451 O 0.53949 0.43977 0.01679 0.0
Co452 Co 0.12324 0.48419 0.51002 0.0
Co453 Co 0.1044 0.47465 0.43187 0.0
Co454 Co 1.0608 0.52358 0.50759 0.0
O455 O 0.07774 0.48063 0.49031 0.0
H456 H 1.05683 0.45831 0.49541 0.0
O457 O 1.04237 0.56554 0.52433 0.0
Co458 Co 0.99513 0.5603 0.50516 0.0
Co459 Co 1.01576 0.57149 0.58256 0.0
H460 H 0.0628 0.58809 0.51901 0.0
O461 O 0.09968 0.4294 0.39887 0.0
O462 O 0.14543 0.4669 0.44409 0.0
O463 O 0.12269 0.5151 0.40114 0.0
O464 O 0.09694 0.55039 0.45576 0.0
O465 O 1.02147 0.49642 0.46578 0.0
O466 O 0.95505 0.55853 0.48438 0.0
O467 O 1.01 0.60638 0.49465 0.0
O468 O 0.9731 0.50963 0.51015 0.0
O469 O 1.02469 0.49661 0.55965 0.0
O470 O 1.00051 0.53268 0.61494 0.0
O471 O 0.97265 0.57686 0.57213 0.0
O472 O 1.01968 0.61636 0.61472 0.0
C473 C 0.14047 0.45243 0.53613 0.0
C474 C 0.13655 0.55655 0.53344 0.0
C475 C 0.11865 0.54527 0.41738 0.0
C476 C 0.13186 0.43716 0.41347 0.0
C477 C 0.97633 0.59186 0.48081 0.0
C478 C 0.98615 0.48714 0.48107 0.0
C479 C 1.00398 0.50231 0.59876 0.0
C480 C 0.98607 0.6068 0.60285 0.0
O481 O 0.16269 0.48531 0.53145 0.0
O482 O 0.10683 0.43843 0.52227 0.0
O483 O 0.10154 0.55147 0.5487 0.0
O484 O 0.14586 0.53287 0.5021 0.0
Co485 Co 0.61552 0.9787 0.53111 0.0
Co486 Co 0.61813 0.98483 0.44914 0.0
Co487 Co 0.56047 0.02328 0.51863 0.0
O488 O 0.57938 0.98185 0.49857 0.0
H489 H 0.55852 0.9589 0.4928 0.0
O490 O 0.54227 0.0651 0.53822 0.0
Co491 Co 0.50803 0.06887 0.5036 0.0
Co492 Co 0.50384 0.06411 0.58699 0.0
H493 H 0.56343 0.08782 0.54397 0.0
O494 O 0.62048 0.94335 0.40839 0.0
O495 O 0.65146 0.97245 0.47144 0.0
O496 O 0.64199 0.03119 0.4306 0.0
O497 O 0.60355 0.0571 0.47975 0.0
O498 O 0.53174 1.00288 0.46436 0.0
O499 O 0.47995 0.0767 0.47117 0.0
O500 O 0.52964 0.11739 0.50749 0.0
O501 O 0.481 1.01735 0.49413 0.0
O502 O 0.51617 0.98942 0.5574 0.0
O503 O 0.47844 1.01777 0.60369 0.0
O504 O 0.47144 0.07584 0.56161 0.0
O505 O 0.50056 0.10658 0.62543 0.0
C506 C 0.62294 0.93785 0.55104 0.0
C507 C 0.62567 0.05212 0.56731 0.0
C508 C 0.63211 0.05829 0.44785 0.0
C509 C 0.64533 0.94677 0.43407 0.0
C510 C 0.50246 0.11016 0.48303 0.0
C511 C 0.4962 0.99543 0.46837 0.0
C512 C 0.4867 0.98963 0.58752 0.0
C513 C 0.47707 0.10267 0.59754 0.0
O514 O 0.64536 0.9715 0.56181 0.0
O515 O 0.59508 0.93001 0.52736 0.0
O516 O 0.58981 0.04373 0.57255 0.0
O517 O 0.64116 0.03051 0.54101 0.0
H518 H 0.25401 0.19323 0.38897 0.0
H519 H 0.21337 0.15343 0.25423 0.0
H520 H 0.16967 0.09705 0.27928 0.0
H521 H 0.1401 0.06029 0.33992 0.0
H522 H 0.17548 0.10035 0.47752 0.0
H523 H 0.22441 0.15475 0.45063 0.0
C524 C 0.23576 0.17209 0.36504 0.0
C525 C 0.237 0.17786 0.31971 0.0
C526 C 0.20977 0.13959 0.38011 0.0
C527 C 0.21292 0.15012 0.28936 0.0
C528 C 0.18793 0.11768 0.30361 0.0
C529 C 0.15881 0.08051 0.36412 0.0
C530 C 0.154 0.0758 0.41079 0.0
C531 C 0.18575 0.11228 0.34899 0.0
C532 C 0.17854 0.10285 0.44134 0.0
C533 C 0.20639 0.13419 0.42602 0.0
H534 H 0.94883 0.11417 0.27917 0.0
H535 H 1.02039 0.21966 0.3435 0.0
H536 H 1.05227 0.19152 0.37609 0.0
H537 H 1.05761 0.13589 0.38907 0.0
H538 H 0.98337 0.03126 0.32463 0.0
H539 H 0.95567 0.06012 0.28897 0.0
C540 C 0.9717 0.13111 0.29991 0.0
C541 C 0.98228 0.16896 0.30863 0.0
C542 C 0.98962 0.11481 0.31863 0.0
C543 C 1.01152 0.19041 0.33637 0.0
C544 C 1.02997 0.17431 0.3547 0.0
C545 C 1.03573 0.11949 0.36676 0.0
C546 C 1.02253 0.08131 0.36027 0.0
C547 C 1.01901 0.13638 0.34646 0.0
C548 C 0.99418 0.06061 0.33092 0.0
C549 C 0.97799 0.07708 0.31045 0.0
H550 H 0.8994 0.81279 0.37086 0.0
H551 H 0.91676 0.89499 0.29271 0.0
H552 H 0.96878 0.93733 0.33651 0.0
H553 H 1.00913 0.95157 0.39752 0.0
H554 H 0.99088 0.87018 0.47746 0.0
H555 H 0.93961 0.82726 0.43257 0.0
C556 C 0.91455 0.83992 0.36322 0.0
C557 C 0.9039 0.85043 0.32815 0.0
C558 C 0.94442 0.86443 0.389 0.0
C559 C 0.92405 0.88591 0.31924 0.0
C560 C 0.95392 0.91023 0.34438 0.0
C561 C 0.99415 0.9244 0.40515 0.0
C562 C 1.00432 0.91427 0.44095 0.0
C563 C 0.96434 0.89986 0.3794 0.0
C564 C 0.98404 0.8789 0.4502 0.0
C565 C 0.95459 0.85427 0.42448 0.0
H566 H 0.21211 0.84342 0.56959 0.0
H567 H 0.29856 0.9492 0.58463 0.0
H568 H 0.25024 0.97667 0.60693 0.0
H569 H 0.1893 0.96928 0.58399 0.0
H570 H 0.10558 0.86153 0.55048 0.0
H571 H 0.14658 0.83557 0.56828 0.0
C572 C 0.22033 0.87264 0.57884 0.0
C573 C 0.25803 0.89497 0.56543 0.0
C574 C 0.19246 0.88728 0.58354 0.0
C575 C 0.26882 0.93155 0.58779 0.0
C576 C 0.24124 0.94739 0.59889 0.0
C577 C 0.17977 0.94015 0.58111 0.0
C578 C 0.14535 0.91718 0.56366 0.0
C579 C 0.20378 0.92539 0.59021 0.0
C580 C 0.13272 0.87962 0.56191 0.0
C581 C 0.15584 0.86478 0.57283 0.0
H582 H 0.12759 0.86058 0.70374 0.0
H583 H 0.22446 0.95837 0.73666 0.0
H584 H 0.19599 0.99354 0.71282 0.0
H585 H 0.14552 0.99645 0.6798 0.0
H586 H 1.05025 0.89902 0.64047 0.0
H587 H 0.07555 0.86386 0.67087 0.0
C588 C 0.14223 0.88962 0.70594 0.0
C589 C 0.1782 0.90683 0.72176 0.0
C590 C 0.1258 0.90976 0.69158 0.0
C591 C 0.19704 0.94442 0.72403 0.0
C592 C 0.18063 0.96461 0.71081 0.0
C593 C 0.12979 0.96761 0.67854 0.0
C594 C 0.09597 0.95039 0.65796 0.0
C595 C 0.14521 0.94756 0.69429 0.0
C596 C 0.07635 0.91291 0.65615 0.0
C597 C 0.0909 0.89282 0.67336 0.0
H598 H 0.2104 0.15691 0.69183 0.0
H599 H 0.22365 0.25651 0.65361 0.0
H600 H 0.17613 0.22327 0.60051 0.0
H601 H 0.12908 0.16518 0.5644 0.0
H602 H 0.11494 0.06647 0.60596 0.0
H603 H 0.16359 0.09959 0.65672 0.0
C604 C 0.20285 0.17141 0.67208 0.0
C605 C 0.22107 0.20935 0.67716 0.0
C606 C 0.1749 0.15206 0.64142 0.0
C607 C 0.21055 0.22735 0.65079 0.0
C608 C 0.18314 0.2083 0.6201 0.0
C609 C 0.13678 0.15093 0.58433 0.0
C610 C 0.11781 0.11305 0.58074 0.0
C611 C 0.16496 0.17051 0.61493 0.0
C612 C 0.12848 0.09544 0.60749 0.0
C613 C 0.15655 0.11445 0.63696 0.0
H614 H 0.87031 0.14117 0.4378 0.0
H615 H 0.94998 0.247 0.4815 0.0
H616 H 1.00136 0.22414 0.46481 0.0
H617 H 1.01425 0.17132 0.47244 0.0
H618 H 0.93107 0.06358 0.43737 0.0
H619 H 0.88983 0.08873 0.41856 0.0
C620 C 0.89944 0.15939 0.44161 0.0
C621 C 0.90571 0.19337 0.47101 0.0
C622 C 0.92727 0.14456 0.437 0.0
C623 C 0.94348 0.21854 0.46674 0.0
C624 C 0.97294 0.20544 0.45833 0.0
C625 C 0.98729 0.15331 0.4603 0.0
C626 C 0.97464 0.11587 0.45903 0.0
C627 C 0.96361 0.16783 0.44983 0.0
C628 C 0.94057 0.09271 0.44081 0.0
C629 C 0.91724 0.10697 0.42917 0.0
H630 H 0.86849 0.84431 0.64311 0.0
H631 H 0.90695 0.89493 0.77812 0.0
H632 H 0.94928 0.9495 0.74765 0.0
H633 H 0.97887 0.98132 0.6824 0.0
H634 H 0.94659 0.93029 0.54449 0.0
H635 H 0.89793 0.87801 0.57643 0.0
C636 C 0.88592 0.86746 0.66582 0.0
C637 C 0.88468 0.86539 0.71284 0.0
C638 C 0.91128 0.89879 0.64758 0.0
C639 C 0.90762 0.89555 0.74175 0.0
C640 C 0.93178 0.9269 0.72439 0.0
C641 C 0.96091 0.95912 0.65914 0.0
C642 C 0.96658 0.96003 0.61094 0.0
C643 C 0.93432 0.92861 0.67728 0.0
C644 C 0.94286 0.93064 0.58174 0.0
C645 C 0.9152 0.90053 0.59998 0.0
H646 H 0.33831 0.16715 0.16612 0.0
H647 H 0.43033 0.25837 0.22705 0.0
H648 H 0.47421 0.22739 0.19183 0.0
H649 H 0.4876 0.17499 0.14403 0.0
H650 H 0.39719 0.08199 0.08375 0.0
H651 H 0.35207 0.11281 0.11818 0.0
C652 C 0.36798 0.18028 0.17152 0.0
C653 C 0.38065 0.21536 0.19946 0.0
C654 C 0.39359 0.16188 0.15133 0.0
C655 C 0.41932 0.23155 0.20612 0.0
C656 C 0.44468 0.2138 0.18587 0.0
C657 C 0.45801 0.1612 0.13838 0.0
C658 C 0.44609 0.12604 0.11103 0.0
C659 C 0.43223 0.17899 0.15856 0.0
C660 C 0.40741 0.10892 0.10458 0.0
C661 C 0.38154 0.12667 0.12426 0.0
H662 H 0.89769 0.38884 0.23803 0.0
H663 H 0.87374 0.31329 0.10859 0.0
H664 H 0.92224 0.3584 0.06438 0.0
H665 H 0.97496 0.41771 0.06312 0.0
H666 H 1.00485 0.48981 0.19329 0.0
H667 H 0.9506 0.44817 0.23677 0.0
C668 C 0.90277 0.38259 0.20008 0.0
C669 C 0.88199 0.34805 0.17641 0.0
C670 C 0.93194 0.40808 0.17517 0.0
C671 C 0.88935 0.33981 0.1274 0.0
C672 C 0.91709 0.36556 0.10219 0.0
C673 C 0.96905 0.42449 0.10095 0.0
C674 C 0.99333 0.45694 0.1251 0.0
C675 C 0.93902 0.39956 0.12574 0.0
C676 C 0.98621 0.4651 0.17412 0.0
C677 C 0.95533 0.44125 0.1989 0.0
H678 H 0.7109 0.84759 0.05134 0.0
H679 H 0.8018 0.94931 0.09025 0.0
H680 H 0.76518 0.98237 0.07959 0.0
H681 H 0.70545 0.98293 0.06699 0.0
H682 H 0.61359 0.88238 0.02782 0.0
H683 H 0.6525 0.84832 0.03055 0.0
C684 C 0.72274 0.87698 0.05708 0.0
C685 C 0.75902 0.8959 0.07184 0.0
C686 C 0.70124 0.89604 0.05134 0.0
C687 C 0.7742 0.93398 0.07844 0.0
C688 C 0.75312 0.95299 0.07277 0.0
C689 C 0.69388 0.95353 0.05894 0.0
C690 C 0.65637 0.93515 0.04839 0.0
C691 C 0.71631 0.93435 0.06048 0.0
C692 C 0.64224 0.89712 0.03667 0.0
C693 C 0.66446 0.87768 0.03831 0.0
H694 H 0.23639 0.68783 0.17223 0.0
H695 H 0.19099 0.77222 0.19657 0.0
H696 H 0.13869 0.73036 0.15176 0.0
H697 H 0.10462 0.66841 0.10902 0.0
H698 H 0.1508 0.58518 0.09068 0.0
H699 H 0.20445 0.62848 0.13023 0.0
C700 C 0.21552 0.69767 0.16761 0.0
C701 C 0.21789 0.73341 0.18777 0.0
C702 C 0.18551 0.67348 0.14316 0.0
C703 C 0.18999 0.74496 0.18141 0.0
C704 C 0.16006 0.72097 0.15593 0.0
C705 C 0.12661 0.65991 0.11346 0.0
C706 C 0.12365 0.62353 0.09701 0.0
C707 C 0.1573 0.68496 0.13715 0.0
C708 C 0.15218 0.61283 0.10326 0.0
C709 C 0.18294 0.6376 0.12576 0.0
H710 H 0.37909 0.87606 0.86699 0.0
H711 H 0.40131 0.78095 0.8671 0.0
H712 H 0.4546 0.81833 0.91118 0.0
H713 H 0.49882 0.87894 0.94282 0.0
H714 H 0.47684 0.97356 0.93946 0.0
H715 H 0.41956 0.93537 0.90383 0.0
C716 C 0.39521 0.86333 0.8771 0.0
C717 C 0.38646 0.82582 0.86315 0.0
C718 C 0.42622 0.88499 0.90156 0.0
C719 C 0.40756 0.80984 0.877 0.0
C720 C 0.43817 0.83121 0.90212 0.0
C721 C 0.48125 0.89112 0.93473 0.0
C722 C 0.4925 0.92906 0.94311 0.0
C723 C 0.44841 0.86897 0.91347 0.0
C724 C 0.46927 0.94445 0.93271 0.0
C725 C 0.43639 0.92264 0.91238 0.0
H726 H 0.28105 0.38377 0.83055 0.0
H727 H 0.19195 0.27985 0.84455 0.0
H728 H 0.14791 0.30969 0.8865 0.0
H729 H 0.13366 0.36493 0.91837 0.0
H730 H 0.22263 0.46953 0.90952 0.0
H731 H 0.26739 0.44 0.86694 0.0
C732 C 0.25199 0.36765 0.84272 0.0
C733 C 0.24001 0.32937 0.83387 0.0
C734 C 0.2266 0.38518 0.86791 0.0
C735 C 0.20224 0.30918 0.85064 0.0
C736 C 0.17687 0.32628 0.87468 0.0
C737 C 0.16285 0.3814 0.90718 0.0
C738 C 0.17448 0.41956 0.91689 0.0
C739 C 0.1886 0.3642 0.88338 0.0
C740 C 0.2127 0.44021 0.9026 0.0
C741 C 0.23834 0.42325 0.87806 0.0
H742 H 0.74847 0.14687 0.79654 0.0
H743 H 0.74801 0.24163 0.90064 0.0
H744 H 0.69474 0.20401 0.94854 0.0
H745 H 0.64452 0.1449 0.95839 0.0
H746 H 0.64355 0.04984 0.85534 0.0
H747 H 0.7011 0.08653 0.80988 0.0
C748 C 0.73709 0.15921 0.83 0.0
C749 C 0.75231 0.19718 0.84459 0.0
C750 C 0.70595 0.13731 0.85759 0.0
C751 C 0.73703 0.21259 0.8882 0.0
C752 C 0.70637 0.19108 0.91575 0.0
C753 C 0.65741 0.13226 0.92633 0.0
C754 C 0.64019 0.0949 0.91007 0.0
C755 C 0.69011 0.15357 0.9004 0.0
C756 C 0.65668 0.0786 0.86847 0.0
C757 C 0.6894 0.09962 0.84246 0.0
H758 H 0.89808 0.66862 0.9245 0.0
H759 H 0.97554 0.76136 1.00527 0.0
H760 H 1.00115 0.72197 0.02547 0.0
H761 H 1.00461 0.66148 0.01504 0.0
H762 H 0.92549 0.56938 0.93515 0.0
H763 H 0.89719 0.60827 0.92053 0.0
C764 C 0.91998 0.68027 0.94738 0.0
C765 C 0.93496 0.71799 0.96302 0.0
C766 C 0.93457 0.65757 0.95875 0.0
C767 C 0.96387 0.7325 0.99202 0.0
C768 C 0.97847 0.70997 1.00372 0.0
C769 C 0.98091 0.64988 0.99489 0.0
C770 C 0.9676 0.61257 0.9758 0.0
C771 C 0.96459 0.67251 0.98641 0.0
C772 C 0.93668 0.59801 0.94995 0.0
C773 C 0.92039 0.62024 0.9415 0.0
H774 H 0.1733 0.31672 0.04687 0.0
H775 H 0.25457 0.3969 0.13566 0.0
H776 H 0.23479 0.44389 0.12639 0.0
H777 H 0.19166 0.46176 0.09769 0.0
H778 H 0.10786 0.3814 1.0124 0.0
H779 H 0.13137 0.33515 0.01576 0.0
C780 C 0.18666 0.34446 0.06422 0.0
C781 C 0.21542 0.3531 0.09192 0.0
C782 C 0.17457 0.37139 0.05961 0.0
C783 C 0.23281 0.38939 0.11352 0.0
C784 C 0.22126 0.41633 0.10862 0.0
C785 C 0.1786 0.43418 0.07963 0.0
C786 C 0.14792 0.42513 0.055 0.0
C787 C 0.19179 0.40755 0.08238 0.0
C788 C 0.13148 0.38921 0.0317 0.0
C789 C 0.14485 0.36266 0.03368 0.0
H790 H 0.25457 0.65863 0.83483 0.0
H791 H 0.20087 0.73731 0.86567 0.0
H792 H 0.14393 0.69582 0.90443 0.0
H793 H 0.10832 0.63667 0.92747 0.0
H794 H 0.16241 0.55924 0.90406 0.0
H795 H 0.22026 0.60056 0.86441 0.0
C796 C 0.23048 0.6667 0.85038 0.0
C797 C 0.23196 0.70099 0.84721 0.0
C798 C 0.19782 0.64282 0.87353 0.0
C799 C 0.20066 0.71123 0.86787 0.0
C800 C 0.16792 0.68742 0.8898 0.0
C801 C 0.13277 0.62882 0.91343 0.0
C802 C 0.13104 0.59479 0.91754 0.0
C803 C 0.16603 0.65307 0.89236 0.0
C804 C 0.16313 0.58522 0.90064 0.0
C805 C 0.19611 0.60883 0.87811 0.0
H806 H 0.34536 0.12209 0.95662 0.0
H807 H 0.4339 0.21859 0.91446 0.0
H808 H 0.48185 0.20205 0.93425 0.0
H809 H 0.49963 0.15645 0.95512 0.0
H810 H 0.41116 0.05733 0.98875 0.0
H811 H 0.3625 0.07848 0.98093 0.0
C812 C 0.37512 0.13955 0.95158 0.0
C813 C 0.38574 0.17141 0.93354 0.0
C814 C 0.40279 0.12927 0.96151 0.0
C815 C 0.42454 0.19404 0.9286 0.0
C816 C 0.45217 0.18446 0.93958 0.0
C817 C 0.46965 0.13999 0.96167 0.0
C818 C 0.45883 0.10552 0.97272 0.0
C819 C 0.44177 0.15169 0.95501 0.0
C820 C 0.42 0.084 0.98027 0.0
C821 C 0.3922 0.09601 0.9756 0.0
H822 H 0.88427 0.36587 0.8668 0.0
H823 H 0.92955 0.2809 0.83632 0.0
H824 H 0.98096 0.32024 0.88318 0.0
H825 H 1.01558 0.38061 0.9275 0.0
H826 H 0.97107 0.46568 0.95233 0.0
H827 H 0.91665 0.42421 0.91258 0.0
C828 C 0.90516 0.35563 0.87041 0.0
C829 C 0.90324 0.32054 0.84761 0.0
C830 C 0.93493 0.37855 0.89609 0.0
C831 C 0.93044 0.30784 0.85332 0.0
C832 C 0.9599 0.33037 0.87996 0.0
C833 C 0.99374 0.3899 0.92454 0.0
C834 C 0.99745 0.42622 0.94247 0.0
C835 C 0.96284 0.36606 0.90068 0.0
C836 C 0.96907 0.43798 0.93834 0.0
C837 C 0.93791 0.41428 0.91573 0.0
H838 H 0.71294 0.82034 0.80919 0.0
H839 H 0.8017 0.87897 0.89717 0.0
H840 H 0.76828 0.9201 0.93787 0.0
H841 H 0.71239 0.9392 0.94929 0.0
H842 H 0.62454 0.87853 0.86023 0.0
H843 H 0.65926 0.83941 0.81907 0.0
C844 C 0.72529 0.84215 0.83711 0.0
C845 C 0.76006 0.84624 0.84976 0.0
C846 C 0.70602 0.86586 0.86019 0.0
C847 C 0.77514 0.87492 0.88629 0.0
C848 C 0.75597 0.8986 0.90966 0.0
C849 C 0.70118 0.91774 0.92049 0.0
C850 C 0.66572 0.91213 0.90796 0.0
C851 C 0.72127 0.89444 0.89695 0.0
C852 C 0.65154 0.88366 0.8709 0.0
C853 C 0.6714 0.86108 0.84724 0.0
H854 H 0.84193 0.6664 0.19789 0.0
H855 H 0.92919 0.76755 0.16793 0.0
H856 H 0.97292 0.73643 0.13007 0.0
H857 H 0.98753 0.68108 0.10705 0.0
H858 H 0.90014 0.57878 0.13166 0.0
H859 H 0.85558 0.60961 0.1698 0.0
C860 C 0.87052 0.68165 0.18313 0.0
C861 C 0.88214 0.71953 0.18634 0.0
C862 C 0.89567 0.66334 0.16048 0.0
C863 C 0.91924 0.73855 0.16626 0.0
C864 C 0.94443 0.72074 0.14459 0.0
C865 C 0.95873 0.66541 0.12076 0.0
C866 C 0.94745 0.6276 0.11695 0.0
C867 C 0.93311 0.68324 0.14179 0.0
C868 C 0.90973 0.60784 0.13419 0.0
C869 C 0.88424 0.62554 0.15613 0.0
H870 H 0.36288 0.85673 0.14318 0.0
H871 H 0.40655 0.88826 0.27521 0.0
H872 H 0.46367 0.93465 0.24415 0.0
H873 H 0.50276 0.96488 0.17847 0.0
H874 H 0.45759 0.93771 0.04821 0.0
H875 H 0.39962 0.89183 0.07949 0.0
C876 C 0.38492 0.8739 0.16501 0.0
C877 C 0.38067 0.86882 0.21129 0.0
C878 C 0.41739 0.90158 0.14731 0.0
C879 C 0.40915 0.8916 0.23949 0.0
C880 C 0.44188 0.91817 0.22174 0.0
C881 C 0.47997 0.94931 0.15719 0.0
C882 C 0.48462 0.95476 0.11105 0.0
C883 C 0.44647 0.92329 0.17564 0.0
C884 C 0.45469 0.93439 0.084 0.0
C885 C 0.42161 0.90785 0.10175 0.0
H886 H 0.73026 0.234 0.14091 0.0
H887 H 0.75907 0.14988 0.16768 0.0
H888 H 0.70564 0.10362 0.12923 0.0
H889 H 0.64775 0.08714 0.09358 0.0
H890 H 0.61902 0.17188 0.06822 0.0
H891 H 0.67539 0.21764 0.10057 0.0
C892 C 0.72524 0.20557 0.13789 0.0
C893 C 0.74859 0.19552 0.15755 0.0
C894 C 0.69412 0.17913 0.11645 0.0
C895 C 0.74162 0.15848 0.15296 0.0
C896 C 0.71089 0.13196 0.1312 0.0
C897 C 0.65384 0.1156 0.09497 0.0
C898 C 0.6287 0.12593 0.07904 0.0
C899 C 0.68641 0.14198 0.11379 0.0
C900 C 0.63749 0.163 0.08059 0.0
C901 C 0.66982 0.18929 0.09907 0.0
H902 H 0.73103 0.6421 0.78428 0.0
H903 H 0.74965 0.71878 0.91409 0.0
H904 H 0.70804 0.67129 0.9582 0.0
H905 H 0.66258 0.60866 0.96012 0.0
H906 H 0.64422 0.5318 0.83048 0.0
H907 H 0.68984 0.57814 0.78679 0.0
C908 C 0.72602 0.64842 0.8222 0.0
C909 C 0.74322 0.68423 0.84554 0.0
C910 C 0.70214 0.62074 0.84772 0.0
C911 C 0.73674 0.69162 0.89489 0.0
C912 C 0.71289 0.66439 0.92034 0.0
C913 C 0.66911 0.6018 0.92244 0.0
C914 C 0.64956 0.56668 0.89883 0.0
C915 C 0.69502 0.6289 0.89717 0.0
C916 C 0.65858 0.55853 0.8498 0.0
C917 C 0.68454 0.58516 0.8246 0.0
H918 H 0.43366 0.59363 0.7718 0.0
H919 H 0.51032 0.70161 0.82036 0.0
H920 H 0.54429 0.67662 0.85459 0.0
H921 H 0.54969 0.62353 0.87443 0.0
H922 H 0.47075 0.51626 0.82586 0.0
H923 H 0.4409 0.54152 0.7875 0.0
C924 C 0.45809 0.61174 0.78938 0.0
C925 C 0.46947 0.64938 0.79341 0.0
C926 C 0.47711 0.59727 0.80923 0.0
C927 C 0.50079 0.67248 0.81707 0.0
C928 C 0.52035 0.65819 0.83639 0.0
C929 C 0.52621 0.60573 0.85506 0.0
C930 C 0.51234 0.56805 0.85376 0.0
C931 C 0.50842 0.62054 0.83329 0.0
C932 C 0.48204 0.54538 0.82805 0.0
C933 C 0.46469 0.55978 0.80609 0.0
H934 H 0.38869 0.31797 0.89265 0.0
H935 H 0.43276 0.38049 0.78157 0.0
H936 H 0.48483 0.42319 0.82446 0.0
H937 H 0.51805 0.4436 0.8932 0.0
H938 H 0.4763 0.38166 1.00459 0.0
H939 H 0.42362 0.3381 0.96188 0.0
C940 C 0.40966 0.34094 0.87781 0.0
C941 C 0.40641 0.34578 0.83364 0.0
C942 C 0.4402 0.36557 0.9027 0.0
C943 C 0.43424 0.37572 0.81515 0.0
C944 C 0.46418 0.40033 0.83977 0.0
C945 C 0.49757 0.42055 0.90833 0.0
C946 C 0.50141 0.41615 0.95235 0.0
C947 C 0.46747 0.39559 0.88351 0.0
C948 C 0.47441 0.38584 0.97083 0.0
C949 C 0.44411 0.36093 0.94641 0.0
H950 H 0.755 0.38558 0.02935 0.0
H951 H 0.65895 0.28525 0.03106 0.0
H952 H 0.61677 0.31818 0.06834 0.0
H953 H 0.60617 0.37289 0.06519 0.0
H954 H 0.70231 0.47321 0.0554 0.0
H955 H 0.74557 0.44317 0.05461 0.0
C956 C 0.72514 0.37087 0.04039 0.0
C957 C 0.7089 0.3336 0.02278 0.0
C958 C 0.7009 0.39026 0.05685 0.0
C959 C 0.6714 0.31445 0.04139 0.0
C960 C 0.64706 0.33333 0.06133 0.0
C961 C 0.63653 0.38836 0.06389 0.0
C962 C 0.65139 0.42456 0.05758 0.0
C963 C 0.66112 0.37094 0.06327 0.0
C964 C 0.69045 0.44484 0.05835 0.0
C965 C 0.71516 0.42779 0.05836 0.0
H966 H 0.6902 0.42619 0.22032 0.0
H967 H 0.59797 0.32459 0.18673 0.0
H968 H 0.5658 0.35572 0.16046 0.0
H969 H 0.56513 0.41203 0.14454 0.0
H970 H 0.65842 0.51298 0.17849 0.0
H971 H 0.68869 0.48192 0.20698 0.0
C972 C 0.66323 0.41077 0.20683 0.0
C973 C 0.64668 0.37311 0.20521 0.0
C974 C 0.64488 0.42881 0.19208 0.0
C975 C 0.61126 0.35367 0.18859 0.0
C976 C 0.59283 0.37146 0.17361 0.0
C977 C 0.59182 0.42722 0.15874 0.0
C978 C 0.60943 0.46479 0.1592 0.0
C979 C 0.60941 0.40908 0.1751 0.0
C980 C 0.64405 0.4841 0.17776 0.0
C981 C 0.66162 0.46632 0.19385 0.0
H982 H 0.72956 0.72784 0.12585 0.0
H983 H 0.68803 0.66883 0.24032 0.0
H984 H 0.63578 0.6241 0.19867 0.0
H985 H 0.60223 0.6007 0.12931 0.0
H986 H 0.64169 0.66031 0.01565 0.0
H987 H 0.69402 0.70556 0.05731 0.0
C988 C 0.70909 0.70522 0.1418 0.0
C989 C 0.71315 0.70187 0.1864 0.0
C990 C 0.67857 0.67955 0.11768 0.0
C991 C 0.68589 0.67241 0.20633 0.0
C992 C 0.65591 0.64666 0.18239 0.0
C993 C 0.62213 0.62362 0.11353 0.0
C994 C 0.61786 0.6267 0.06893 0.0
C995 C 0.65201 0.64982 0.13799 0.0
C996 C 0.64403 0.65696 0.04966 0.0
C997 C 0.67411 0.6829 0.07355 0.0
H998 H 0.41494 0.70318 0.973 0.0
H999 H 0.32142 0.61246 0.02024 0.0
H1000 H 0.35518 0.57222 0.98052 0.0
H1001 H 0.41912 0.56973 0.96602 0.0
H1002 H 0.51713 0.66633 0.94367 0.0
H1003 H 0.4759 0.69741 0.94097 0.0
C1004 C 0.40141 0.67419 0.97246 0.0
C1005 C 0.36792 0.66133 1.0033 0.0
C1006 C 0.42363 0.65276 0.95669 0.0
C1007 C 0.34866 0.6236 0.99933 0.0
C1008 C 0.36849 0.60063 0.97768 0.0
C1009 C 0.43138 0.59726 0.95937 0.0
C1010 C 0.4709 0.6162 0.9567 0.0
C1011 C 0.40749 0.61593 0.96185 0.0
C1012 C 0.48661 0.65165 0.94739 0.0
C1013 C 0.46307 0.66934 0.94546 0.0
H1014 H 0.37053 0.35364 0.14804 0.0
H1015 H 0.40355 0.4039 0.28588 0.0
H1016 H 0.44791 0.45831 0.25615 0.0
H1017 H 0.48075 0.49013 0.19043 0.0
H1018 H 0.44935 0.44001 0.05191 0.0
H1019 H 0.40054 0.38763 0.08277 0.0
C1020 C 0.38726 0.37653 0.1717 0.0
C1021 C 0.38377 0.37427 0.21922 0.0
C1022 C 0.41299 0.40798 0.1543 0.0
C1023 C 0.4056 0.40452 0.2492 0.0
C1024 C 0.43104 0.4358 0.23221 0.0
C1025 C 0.46284 0.46812 0.16694 0.0
C1026 C 0.46911 0.46922 0.11867 0.0
C1027 C 0.43538 0.43766 0.18474 0.0
C1028 C 0.44537 0.44018 0.08913 0.0
C1029 C 0.41756 0.40998 0.10675 0.0
H1030 H 0.9098 0.71131 0.74458 0.0
H1031 H 0.84093 0.68097 0.63418 0.0
H1032 H 0.87425 0.64114 0.58835 0.0
H1033 H 0.92393 0.61443 0.57905 0.0
H1034 H 0.99424 0.64863 0.68904 0.0
H1035 H 0.95934 0.68627 0.73489 0.0
C1036 C 0.90183 0.69593 0.71061 0.0
C1037 C 0.8725 0.69934 0.6934 0.0
C1038 C 0.9215 0.67326 0.68394 0.0
C1039 C 0.8632 0.67915 0.64881 0.0
C1040 C 0.8823 0.65616 0.6224 0.0
C1041 C 0.93158 0.6301 0.61301 0.0
C1042 C 0.96214 0.62849 0.62999 0.0
C1043 C 0.91163 0.65288 0.6395 0.0
C1044 C 0.97131 0.64923 0.67436 0.0
C1045 C 0.95123 0.67094 0.70097 0.0
H1046 H 0.34881 0.8629 0.66825 0.0
H1047 H 0.43823 0.8252 0.66727 0.0
H1048 H 0.48456 0.87506 0.62925 0.0
H1049 H 0.50051 0.93236 0.60131 0.0
H1050 H 0.41046 0.97043 0.60681 0.0
H1051 H 0.36376 0.91745 0.63743 0.0
C1052 C 0.37833 0.86525 0.6593 0.0
C1053 C 0.38995 0.84036 0.67086 0.0
C1054 C 0.40492 0.89435 0.6384 0.0
C1055 C 0.42844 0.84404 0.659 0.0
C1056 C 0.45502 0.87261 0.63729 0.0
C1057 C 0.47062 0.92876 0.60886 0.0
C1058 C 0.45907 0.95553 0.60243 0.0
C1059 C 0.44374 0.89839 0.6276 0.0
C1060 C 0.42021 0.95054 0.61227 0.0
C1061 C 0.3934 0.92019 0.62967 0.0
H1062 H 0.23495 0.41069 0.64145 0.0
H1063 H 0.2347 0.33245 0.51375 0.0
H1064 H 0.18967 0.34925 0.48707 0.0
H1065 H 0.15471 0.39042 0.49725 0.0
H1066 H 0.16015 0.47164 0.62242 0.0
H1067 H 0.19792 0.44903 0.65338 0.0
C1068 C 0.22519 0.39738 0.60768 0.0
C1069 C 0.23861 0.37069 0.57945 0.0
C1070 C 0.19982 0.40753 0.59232 0.0
C1071 C 0.22483 0.35307 0.53628 0.0
C1072 C 0.19913 0.36274 0.52093 0.0
C1073 C 0.16355 0.40251 0.53166 0.0
C1074 C 0.15456 0.43243 0.5578 0.0
C1075 C 0.18689 0.39039 0.54831 0.0
C1076 C 0.16648 0.44829 0.60207 0.0
C1077 C 0.18839 0.43563 0.61954 0.0
H1078 H 0.70087 0.20133 0.69767 0.0
H1079 H 0.8007 0.19901 0.59977 0.0
H1080 H 0.76258 0.14208 0.55464 0.0
H1081 H 0.7014 0.09066 0.54595 0.0
H1082 H 0.60186 0.0939 0.64391 0.0
H1083 H 0.63938 0.15251 0.68599 0.0
C1084 C 0.71421 0.18868 0.66609 0.0
C1085 C 0.75359 0.2043 0.65242 0.0
C1086 C 0.69225 0.15572 0.6406 0.0
C1087 C 0.7704 0.18758 0.61122 0.0
C1088 C 0.74867 0.15484 0.5855 0.0
C1089 C 0.68803 0.10418 0.5766 0.0
C1090 C 0.64906 0.0877 0.59215 0.0
C1091 C 0.70972 0.13822 0.60048 0.0
C1092 C 0.63189 0.10588 0.63134 0.0
C1093 C 0.65329 0.13946 0.65544 0.0
H1094 H 0.91198 0.33357 0.36184 0.0
H1095 H 0.81386 0.36458 0.39752 0.0
H1096 H 0.84827 0.41898 0.45015 0.0
H1097 H 0.90917 0.46153 0.47841 0.0
H1098 H 1.00685 0.42963 0.44071 0.0
H1099 H 0.96959 0.37191 0.39725 0.0
C1100 C 0.89792 0.35197 0.38159 0.0
C1101 C 0.86069 0.34531 0.3752 0.0
C1102 C 0.91793 0.38333 0.41132 0.0
C1103 C 0.84265 0.36912 0.40164 0.0
C1104 C 0.86236 0.40038 0.4316 0.0
C1105 C 0.922 0.44163 0.46143 0.0
C1106 C 0.96089 0.45022 0.46212 0.0
C1107 C 0.90046 0.40836 0.43563 0.0
C1108 C 0.97711 0.42405 0.44011 0.0
C1109 C 0.95585 0.39093 0.41515 0.0
H1110 H 0.75331 0.85499 0.39007 0.0
H1111 H 0.70957 0.82292 0.25784 0.0
H1112 H 0.6702 0.85937 0.28776 0.0
H1113 H 0.64913 0.90181 0.34983 0.0
H1114 H 0.69433 0.93793 0.48131 0.0
H1115 H 0.73165 0.89875 0.45364 0.0
C1116 C 0.73485 0.85571 0.36804 0.0
C1117 C 0.73451 0.83587 0.32157 0.0
C1118 C 0.71254 0.87777 0.38528 0.0
C1119 C 0.7107 0.83775 0.29352 0.0
C1120 C 0.68806 0.85871 0.31064 0.0
C1121 C 0.66702 0.9012 0.37273 0.0
C1122 C 0.66854 0.92298 0.41789 0.0
C1123 C 0.68896 0.87911 0.35621 0.0
C1124 C 0.69231 0.92163 0.4465 0.0
C1125 C 0.71377 0.89912 0.43058 0.0
H1126 H 0.24609 0.66052 0.30308 0.0
H1127 H 0.20209 0.73353 0.40703 0.0
H1128 H 0.15511 0.6826 0.44273 0.0
H1129 H 0.12647 0.61696 0.44444 0.0
H1130 H 0.16874 0.54404 0.33702 0.0
H1131 H 0.21565 0.59494 0.30257 0.0
C1132 C 0.22646 0.66524 0.33384 0.0
C1133 C 0.22789 0.70073 0.35277 0.0
C1134 C 0.19873 0.6357 0.35331 0.0
C1135 C 0.20167 0.70642 0.39197 0.0
C1136 C 0.17471 0.67729 0.41231 0.0
C1137 C 0.14561 0.61212 0.41318 0.0
C1138 C 0.14382 0.57646 0.39366 0.0
C1139 C 0.17279 0.64172 0.39314 0.0
C1140 C 0.16916 0.57099 0.35311 0.0
C1141 C 0.1963 0.60019 0.33334 0.0
H1142 H 0.47081 0.24784 0.47402 0.0
H1143 H 0.39007 0.16609 0.38582 0.0
H1144 H 0.41192 0.12022 0.39409 0.0
H1145 H 0.45228 0.10281 0.42767 0.0
H1146 H 0.53321 0.1833 0.51647 0.0
H1147 H 0.51355 0.23036 0.50578 0.0
C1148 C 0.45827 0.22003 0.45638 0.0
C1149 C 0.4285 0.21032 0.42988 0.0
C1150 C 0.47111 0.19364 0.46111 0.0
C1151 C 0.41241 0.17415 0.4073 0.0
C1152 C 0.42508 0.14792 0.41168 0.0
C1153 C 0.46594 0.13069 0.44443 0.0
C1154 C 0.4942 0.13953 0.47275 0.0
C1155 C 0.45416 0.15731 0.43873 0.0
C1156 C 0.51157 0.17581 0.49415 0.0
C1157 C 0.50016 0.20268 0.48831 0.0
H1158 H 0.63626 0.80026 0.59555 0.0
H1159 H 0.7403 0.88266 0.64151 0.0
H1160 H 0.72584 0.9287 0.61979 0.0
H1161 H 0.68388 0.946 0.58891 0.0
H1162 H 0.58017 0.86475 0.54085 0.0
H1163 H 0.59444 0.81781 0.56186 0.0
C1164 C 0.65584 0.82825 0.60044 0.0
C1165 C 0.68907 0.83801 0.62076 0.0
C1166 C 0.64742 0.85481 0.58763 0.0
C1167 C 0.71412 0.87446 0.62696 0.0
C1168 C 0.70601 0.90083 0.61429 0.0
C1169 C 0.6642 0.91806 0.58312 0.0
C1170 C 0.63082 0.909 0.56371 0.0
C1171 C 0.67266 0.89138 0.59499 0.0
C1172 C 0.60599 0.87253 0.55597 0.0
C1173 C 0.61417 0.84568 0.56794 0.0
H1174 H 0.70105 0.20211 0.36352 0.0
H1175 H 0.80164 0.17541 0.33793 0.0
H1176 H 0.76671 0.12311 0.37603 0.0
H1177 H 0.7069 0.08288 0.41292 0.0
H1178 H 0.60674 0.11033 0.44246 0.0
H1179 H 0.64216 0.16436 0.40687 0.0
C1180 C 0.71535 0.18497 0.36658 0.0
C1181 C 0.75385 0.19261 0.34751 0.0
C1182 C 0.69514 0.15492 0.38906 0.0
C1183 C 0.77206 0.17032 0.35227 0.0
C1184 C 0.75207 0.14022 0.37392 0.0
C1185 C 0.69287 0.10076 0.41166 0.0
C1186 C 0.65417 0.09239 0.42967 0.0
C1187 C 0.7135 0.13196 0.3918 0.0
C1188 C 0.63653 0.11616 0.42869 0.0
C1189 C 0.65673 0.14699 0.40821 0.0
H1190 H 0.88227 0.63695 0.37828 0.0
H1191 H 0.88978 0.7188 0.50319 0.0
H1192 H 0.93257 0.69903 0.52976 0.0
H1193 H 0.96443 0.65517 0.51971 0.0
H1194 H 0.95246 0.57131 0.39674 0.0
H1195 H 0.91567 0.59551 0.3667 0.0
C1196 C 0.89318 0.65044 0.41139 0.0
C1197 C 0.88247 0.67904 0.43889 0.0
C1198 C 0.91742 0.63875 0.42654 0.0
C1199 C 0.89761 0.69674 0.48124 0.0
C1200 C 0.92204 0.6854 0.4965 0.0
C1201 C 0.95438 0.64283 0.48595 0.0
C1202 C 0.96132 0.61175 0.46014 0.0
C1203 C 0.93183 0.65611 0.46969 0.0
C1204 C 0.94767 0.59548 0.41685 0.0
C1205 C 0.92639 0.60911 0.39986 0.0
H1206 H 0.42177 0.85244 0.32896 0.0
H1207 H 0.32839 0.83903 0.44147 0.0
H1208 H 0.36591 0.89539 0.48873 0.0
H1209 H 0.42416 0.9509 0.4953 0.0
H1210 H 0.51754 0.96229 0.38267 0.0
H1211 H 0.481 0.9044 0.3379 0.0
C1212 C 0.4098 0.86138 0.36416 0.0
C1213 C 0.37201 0.84207 0.38134 0.0
C1214 C 0.43136 0.89383 0.3907 0.0
C1215 C 0.35712 0.85398 0.42714 0.0
C1216 C 0.37854 0.8862 0.45409 0.0
C1217 C 0.43623 0.94066 0.46084 0.0
C1218 C 0.47308 0.96091 0.44181 0.0
C1219 C 0.41533 0.90693 0.43563 0.0
C1220 C 0.48903 0.94715 0.39774 0.0
C1221 C 0.46827 0.91404 0.37223 0.0
H1222 H 0.20792 0.32659 0.28891 0.0
H1223 H 0.27817 0.369 0.39991 0.0
H1224 H 0.24406 0.40957 0.43878 0.0
H1225 H 0.19403 0.43381 0.44127 0.0
H1226 H 0.12108 0.3873 0.33275 0.0
H1227 H 0.15647 0.34844 0.2933 0.0
C1228 C 0.21587 0.34472 0.32157 0.0
C1229 C 0.24589 0.34466 0.34105 0.0
C1230 C 0.19555 0.36762 0.34443 0.0
C1231 C 0.25527 0.36823 0.38383 0.0
C1232 C 0.23578 0.39164 0.40615 0.0
C1233 C 0.18576 0.41506 0.40915 0.0
C1234 C 0.15459 0.41368 0.39045 0.0
C1235 C 0.20581 0.39168 0.38682 0.0
C1236 C 0.14462 0.3891 0.34851 0.0
C1237 C 0.16495 0.36671 0.32566 0.0
H1238 H 0.36822 0.19204 0.62716 0.0
H1239 H 0.42119 0.24065 0.7533 0.0
H1240 H 0.46111 0.20454 0.72814 0.0
H1241 H 0.47883 0.1567 0.67342 0.0
H1242 H 0.42535 0.10487 0.54812 0.0
H1243 H 0.38848 0.14445 0.56941 0.0
C1244 C 0.38898 0.19513 0.64863 0.0
C1245 C 0.3916 0.21933 0.6922 0.0
C1246 C 0.41165 0.17328 0.63433 0.0
C1247 C 0.41835 0.22238 0.71978 0.0
C1248 C 0.44124 0.20159 0.70545 0.0
C1249 C 0.45923 0.15395 0.65048 0.0
C1250 C 0.45499 0.12741 0.60919 0.0
C1251 C 0.4377 0.17647 0.66331 0.0
C1252 C 0.42932 0.12475 0.58021 0.0
C1253 C 0.40812 0.14749 0.59244 0.0
H1254 H 0.87549 0.39006 0.71584 0.0
H1255 H 0.92795 0.3173 0.62708 0.0
H1256 H 0.97459 0.36681 0.58852 0.0
H1257 H 1.00042 0.43143 0.57975 0.0
H1258 H 0.94961 0.50406 0.67395 0.0
H1259 H 0.90322 0.45439 0.71052 0.0
C1260 C 0.89694 0.38498 0.68779 0.0
C1261 C 0.89781 0.34992 0.67387 0.0
C1262 C 0.92445 0.41381 0.66689 0.0
C1263 C 0.92641 0.34398 0.63823 0.0
C1264 C 0.95321 0.37235 0.61623 0.0
C1265 C 0.97948 0.43646 0.60858 0.0
C1266 C 0.97884 0.47174 0.62368 0.0
C1267 C 0.95262 0.40752 0.63032 0.0
C1268 C 0.95126 0.47747 0.66127 0.0
C1269 C 0.92434 0.44894 0.6823 0.0
H1270 H 0.28095 0.67617 0.61798 0.0
H1271 H 0.19738 0.72322 0.68968 0.0
H1272 H 0.14913 0.67522 0.64529 0.0
H1273 H 0.12913 0.61684 0.59161 0.0
H1274 H 0.21256 0.56952 0.52053 0.0
H1275 H 0.26225 0.62077 0.559 0.0
C1276 C 0.25236 0.67628 0.62342 0.0
C1277 C 0.24276 0.70299 0.65759 0.0
C1278 C 0.22451 0.6483 0.59825 0.0
C1279 C 0.20555 0.70278 0.66395 0.0
C1280 C 0.17782 0.67527 0.63867 0.0
C1281 C 0.15822 0.61785 0.58435 0.0
C1282 C 0.16695 0.58915 0.55384 0.0
C1283 C 0.18672 0.64734 0.60671 0.0
C1284 C 0.20493 0.59113 0.54417 0.0
C1285 C 0.23343 0.62043 0.56618 0.0
loop_
_geom_bond_atom_site_label_1
_geom_bond_atom_site_label_2
_geom_bond_distance
_geom_bond_site_symmetry_2
_ccdc_geom_bond_type
Eu0 C9 2.828 . S
Eu0 O11 2.392 . S
Eu0 O13 2.418 . S
Eu0 O18 2.373 . S
Eu0 O21 2.488 . S
Eu0 O22 2.471 . S
Eu0 O23 2.349 . S
Eu1 O10 2.373 . S
Eu1 O14 2.488 . S
Eu1 O15 2.471 . S
Eu1 O16 2.349 . S
Eu1 O19 2.392 . S
Eu1 O20 2.418 . S
Eu1 C30 2.828 . S
C2 O20 1.244 . S
C2 O23 1.265 . S
C3 C4 1.379 . S
C3 C7 1.373 . S
C3 C9 1.505 . S
C4 C3 1.379 . S
C4 C6 1.369 . S
C4 H32 0.930 . S
C5 C7 1.383 . S
C5 C8 1.382 . S
C5 H33 0.930 . S
C6 C4 1.369 . S
C6 C8 1.392 . S
C6 H34 0.930 . S
C7 C3 1.373 . S
C7 C5 1.383 . S
C7 H35 0.931 . S
C8 C5 1.382 . S
C8 C6 1.392 . S
C9 Eu0 2.828 . S
C9 C3 1.505 . S
C9 O21 1.249 . S
C9 O22 1.244 . S
O10 Eu1 2.373 . S
O10 C12 1.258 . S
O11 Eu0 2.392 . S
O11 C12 1.242 . S
C12 O10 1.258 . S
C12 O11 1.242 . S
O13 Eu0 2.418 . S
O13 C17 1.244 . S
O14 Eu1 2.488 . S
O14 C30 1.249 . S
O15 Eu1 2.471 . S
O15 C30 1.244 . S
O16 Eu1 2.349 . S
O16 C17 1.265 . S
C17 O13 1.244 . S
C17 O16 1.265 . S
O18 Eu0 2.373 . S
O18 C31 1.258 . S
O19 Eu1 2.392 . S
O19 C31 1.242 . S
O20 Eu1 2.418 . S
O20 C2 1.244 . S
O21 Eu0 2.488 . S
O21 C9 1.249 . S
O22 Eu0 2.471 . S
O22 C9 1.244 . S
O23 Eu0 2.349 . S
O23 C2 1.265 . S
C24 C25 1.379 . S
C24 C28 1.373 . S
C24 C30 1.505 . S
C25 C24 1.379 . S
C25 C27 1.369 . S
C25 H36 0.930 . S
C26 C28 1.383 . S
C26 C29 1.382 . S
C26 H37 0.930 . S
C27 C25 1.369 . S
C27 C29 1.392 . S
C27 H38 0.930 . S
C28 C24 1.373 . S
C28 C26 1.383 . S
C28 H39 0.931 . S
C29 C26 1.382 . S
C29 C27 1.392 . S
C30 Eu1 2.828 . S
C30 O14 1.249 . S
C30 O15 1.244 . S
C30 C24 1.505 . S
C31 O18 1.258 . S
C31 O19 1.242 . S
H32 C4 0.930 . S
H33 C5 0.930 . S
H34 C6 0.930 . S
H35 C7 0.931 . S
H36 C25 0.930 . S
H37 C26 0.930 . S
H38 C27 0.930 . S
H39 C28 0.931 . S
Eu40 C49 2.828 . S
Eu40 O51 2.392 . S
Eu40 O53 2.418 . S
Eu40 O58 2.373 . S
Eu40 O61 2.488 . S
Eu40 O62 2.471 . S
Eu40 O63 2.349 . S
Eu41 O50 2.373 . S
Eu41 O54 2.488 . S
Eu41 O55 2.471 . S
Eu41 O56 2.349 . S
Eu41 O59 2.392 . S
Eu41 O60 2.418 . S
Eu41 C70 2.828 . S
C42 O60 1.244 . S
C42 O63 1.265 . S
C43 C44 1.379 . S
C43 C47 1.373 . S
C43 C49 1.505 . S
C44 C43 1.379 . S
C44 C46 1.369 . S
C44 H72 0.930 . S
C45 C47 1.383 . S
C45 C48 1.382 . S
C45 H73 0.930 . S
C46 C44 1.369 . S
C46 C48 1.392 . S
C46 H74 0.930 . S
C47 C43 1.373 . S
C47 C45 1.383 . S
C47 H75 0.931 . S
C48 C45 1.382 . S
C48 C46 1.392 . S
C49 Eu40 2.828 . S
C49 C43 1.505 . S
C49 O61 1.249 . S
C49 O62 1.244 . S
O50 Eu41 2.373 . S
O50 C52 1.258 . S
O51 Eu40 2.392 . S
O51 C52 1.242 . S
C52 O50 1.258 . S
C52 O51 1.242 . S
O53 Eu40 2.418 . S
O53 C57 1.244 . S
O54 Eu41 2.488 . S
O54 C70 1.249 . S
O55 Eu41 2.471 . S
O55 C70 1.244 . S
O56 Eu41 2.349 . S
O56 C57 1.265 . S
C57 O53 1.244 . S
C57 O56 1.265 . S
O58 Eu40 2.373 . S
O58 C71 1.258 . S
O59 Eu41 2.392 . S
O59 C71 1.242 . S
O60 Eu41 2.418 . S
O60 C42 1.244 . S
O61 Eu40 2.488 . S
O61 C49 1.249 . S
O62 Eu40 2.471 . S
O62 C49 1.244 . S
O63 Eu40 2.349 . S
O63 C42 1.265 . S
C64 C65 1.379 . S
C64 C68 1.373 . S
C64 C70 1.505 . S
C65 C64 1.379 . S
C65 C67 1.369 . S
C65 H76 0.930 . S
C66 C68 1.383 . S
C66 C69 1.382 . S
C66 H77 0.930 . S
C67 C65 1.369 . S
C67 C69 1.392 . S
C67 H78 0.930 . S
C68 C64 1.373 . S
C68 C66 1.383 . S
C68 H79 0.931 . S
C69 C66 1.382 . S
C69 C67 1.392 . S
C70 Eu41 2.828 . S
C70 O54 1.249 . S
C70 O55 1.244 . S
C70 C64 1.505 . S
C71 O58 1.258 . S
C71 O59 1.242 . S
H72 C44 0.930 . S
H73 C45 0.930 . S
H74 C46 0.930 . S
H75 C47 0.931 . S
H76 C65 0.930 . S
H77 C66 0.930 . S
H78 C67 0.930 . S
H79 C68 0.931 . S
Eu80 C89 2.828 . S
Eu80 O91 2.392 . S
Eu80 O93 2.418 . S
Eu80 O98 2.373 . S
Eu80 O101 2.488 . S
Eu80 O102 2.471 . S
Eu80 O103 2.349 . S
Eu81 O90 2.373 . S
Eu81 O94 2.488 . S
Eu81 O95 2.471 . S
Eu81 O96 2.349 . S
Eu81 O99 2.392 . S
Eu81 O100 2.418 . S
Eu81 C110 2.828 . S
C82 O100 1.244 . S
C82 O103 1.265 . S
C83 C84 1.379 . S
C83 C87 1.373 . S
C83 C89 1.505 . S
C84 C83 1.379 . S
C84 C86 1.369 . S
C84 H112 0.930 . S
C85 C87 1.383 . S
C85 C88 1.382 . S
C85 H113 0.930 . S
C86 C84 1.369 . S
C86 C88 1.392 . S
C86 H114 0.930 . S
C87 C83 1.373 . S
C87 C85 1.383 . S
C87 H115 0.931 . S
C88 C85 1.382 . S
C88 C86 1.392 . S
C89 Eu80 2.828 . S
C89 C83 1.505 . S
C89 O101 1.249 . S
C89 O102 1.244 . S
O90 Eu81 2.373 . S
O90 C92 1.258 . S
O91 Eu80 2.392 . S
O91 C92 1.242 . S
C92 O90 1.258 . S
C92 O91 1.242 . S
O93 Eu80 2.418 . S
O93 C97 1.244 . S
O94 Eu81 2.488 . S
O94 C110 1.249 . S
O95 Eu81 2.471 . S
O95 C110 1.244 . S
O96 Eu81 2.349 . S
O96 C97 1.265 . S
C97 O93 1.244 . S
C97 O96 1.265 . S
O98 Eu80 2.373 . S
O98 C111 1.258 . S
O99 Eu81 2.392 . S
O99 C111 1.242 . S
O100 Eu81 2.418 . S
O100 C82 1.244 . S
O101 Eu80 2.488 . S
O101 C89 1.249 . S
O102 Eu80 2.471 . S
O102 C89 1.244 . S
O103 Eu80 2.349 . S
O103 C82 1.265 . S
C104 C105 1.379 . S
C104 C108 1.373 . S
C104 C110 1.505 . S
C105 C104 1.379 . S
C105 C107 1.369 . S
C105 H116 0.930 . S
C106 C108 1.383 . S
C106 C109 1.382 . S
C106 H117 0.930 . S
C107 C105 1.369 . S
C107 C109 1.392 . S
C107 H118 0.930 . S
C108 C104 1.373 . S
C108 C106 1.383 . S
C108 H119 0.931 . S
C109 C106 1.382 . S
C109 C107 1.392 . S
C110 Eu81 2.828 . S
C110 O94 1.249 . S
C110 O95 1.244 . S
C110 C104 1.505 . S
C111 O98 1.258 . S
C111 O99 1.242 . S
H112 C84 0.930 . S
H113 C85 0.930 . S
H114 C86 0.930 . S
H115 C87 0.931 . S
H116 C105 0.930 . S
H117 C106 0.930 . S
H118 C107 0.930 . S
H119 C108 0.931 . S
Eu120 C129 2.828 . S
Eu120 O131 2.392 . S
Eu120 O133 2.418 . S
Eu120 O138 2.373 . S
Eu120 O141 2.488 . S
Eu120 O142 2.471 . S
Eu120 O143 2.349 . S
Eu121 O130 2.373 . S
Eu121 O134 2.488 . S
Eu121 O135 2.471 . S
Eu121 O136 2.349 . S
Eu121 O139 2.392 . S
Eu121 O140 2.418 . S
Eu121 C150 2.828 . S
C122 O140 1.244 . S
C122 O143 1.265 . S
C123 C124 1.379 . S
C123 C127 1.373 . S
C123 C129 1.505 . S
C124 C123 1.379 . S
C124 C126 1.369 . S
C124 H152 0.930 . S
C125 C127 1.383 . S
C125 C128 1.382 . S
C125 H153 0.930 . S
C126 C124 1.369 . S
C126 C128 1.392 . S
C126 H154 0.930 . S
C127 C123 1.373 . S
C127 C125 1.383 . S
C127 H155 0.931 . S
C128 C125 1.382 . S
C128 C126 1.392 . S
C129 Eu120 2.828 . S
C129 C123 1.505 . S
C129 O141 1.249 . S
C129 O142 1.244 . S
O130 Eu121 2.373 . S
O130 C132 1.258 . S
O131 Eu120 2.392 . S
O131 C132 1.242 . S
C132 O130 1.258 . S
C132 O131 1.242 . S
O133 Eu120 2.418 . S
O133 C137 1.244 . S
O134 Eu121 2.488 . S
O134 C150 1.249 . S
O135 Eu121 2.471 . S
O135 C150 1.244 . S
O136 Eu121 2.349 . S
O136 C137 1.265 . S
C137 O133 1.244 . S
C137 O136 1.265 . S
O138 Eu120 2.373 . S
O138 C151 1.258 . S
O139 Eu121 2.392 . S
O139 C151 1.242 . S
O140 Eu121 2.418 . S
O140 C122 1.244 . S
O141 Eu120 2.488 . S
O141 C129 1.249 . S
O142 Eu120 2.471 . S
O142 C129 1.244 . S
O143 Eu120 2.349 . S
O143 C122 1.265 . S
C144 C145 1.379 . S
C144 C148 1.373 . S
C144 C150 1.505 . S
C145 C144 1.379 . S
C145 C147 1.369 . S
C145 H156 0.930 . S
C146 C148 1.383 . S
C146 C149 1.382 . S
C146 H157 0.930 . S
C147 C145 1.369 . S
C147 C149 1.392 . S
C147 H158 0.930 . S
C148 C144 1.373 . S
C148 C146 1.383 . S
C148 H159 0.931 . S
C149 C146 1.382 . S
C149 C147 1.392 . S
C150 Eu121 2.828 . S
C150 O134 1.249 . S
C150 O135 1.244 . S
C150 C144 1.505 . S
C151 O138 1.258 . S
C151 O139 1.242 . S
H152 C124 0.930 . S
H153 C125 0.930 . S
H154 C126 0.930 . S
H155 C127 0.931 . S
H156 C145 0.930 . S
H157 C146 0.930 . S
H158 C147 0.930 . S
H159 C148 0.931 . S
Eu160 C169 2.828 . S
Eu160 O171 2.392 . S
Eu160 O173 2.418 . S
Eu160 O178 2.373 . S
Eu160 O181 2.488 . S
Eu160 O182 2.471 . S
Eu160 O183 2.349 . S
Eu161 O170 2.373 . S
Eu161 O174 2.488 . S
Eu161 O175 2.471 . S
Eu161 O176 2.349 . S
Eu161 O179 2.392 . S
Eu161 O180 2.418 . S
Eu161 C190 2.828 . S
C162 O180 1.244 . S
C162 O183 1.265 . S
C163 C164 1.379 . S
C163 C167 1.373 . S
C163 C169 1.505 . S
C164 C163 1.379 . S
C164 C166 1.369 . S
C164 H192 0.930 . S
C165 C167 1.383 . S
C165 C168 1.382 . S
C165 H193 0.930 . S
C166 C164 1.369 . S
C166 C168 1.392 . S
C166 H194 0.930 . S
C167 C163 1.373 . S
C167 C165 1.383 . S
C167 H195 0.931 . S
C168 C165 1.382 . S
C168 C166 1.392 . S
C169 Eu160 2.828 . S
C169 C163 1.505 . S
C169 O181 1.249 . S
C169 O182 1.244 . S
O170 Eu161 2.373 . S
O170 C172 1.258 . S
O171 Eu160 2.392 . S
O171 C172 1.242 . S
C172 O170 1.258 . S
C172 O171 1.242 . S
O173 Eu160 2.418 . S
O173 C177 1.244 . S
O174 Eu161 2.488 . S
O174 C190 1.249 . S
O175 Eu161 2.471 . S
O175 C190 1.244 . S
O176 Eu161 2.349 . S
O176 C177 1.265 . S
C177 O173 1.244 . S
C177 O176 1.265 . S
O178 Eu160 2.373 . S
O178 C191 1.258 . S
O179 Eu161 2.392 . S
O179 C191 1.242 . S
O180 Eu161 2.418 . S
O180 C162 1.244 . S
O181 Eu160 2.488 . S
O181 C169 1.249 . S
O182 Eu160 2.471 . S
O182 C169 1.244 . S
O183 Eu160 2.349 . S
O183 C162 1.265 . S
C184 C185 1.379 . S
C184 C188 1.373 . S
C184 C190 1.505 . S
C185 C184 1.379 . S
C185 C187 1.369 . S
C185 H196 0.930 . S
C186 C188 1.383 . S
C186 C189 1.382 . S
C186 H197 0.930 . S
C187 C185 1.369 . S
C187 C189 1.392 . S
C187 H198 0.930 . S
C188 C184 1.373 . S
C188 C186 1.383 . S
C188 H199 0.931 . S
C189 C186 1.382 . S
C189 C187 1.392 . S
C190 Eu161 2.828 . S
C190 O174 1.249 . S
C190 O175 1.244 . S
C190 C184 1.505 . S
C191 O178 1.258 . S
C191 O179 1.242 . S
H192 C164 0.930 . S
H193 C165 0.930 . S
H194 C166 0.930 . S
H195 C167 0.931 . S
H196 C185 0.930 . S
H197 C186 0.930 . S
H198 C187 0.930 . S
H199 C188 0.931 . S
Eu200 C209 2.828 . S
Eu200 O211 2.392 . S
Eu200 O213 2.418 . S
Eu200 O218 2.373 . S
Eu200 O221 2.488 . S
Eu200 O222 2.471 . S
Eu200 O223 2.349 . S
Eu201 O210 2.373 . S
Eu201 O214 2.488 . S
Eu201 O215 2.471 . S
Eu201 O216 2.349 . S
Eu201 O219 2.392 . S
Eu201 O220 2.418 . S
Eu201 C230 2.828 . S
C202 O220 1.244 . S
C202 O223 1.265 . S
C203 C204 1.379 . S
C203 C207 1.373 . S
C203 C209 1.505 . S
C204 C203 1.379 . S
C204 C206 1.369 . S
C204 H232 0.930 . S
C205 C207 1.383 . S
C205 C208 1.382 . S
C205 H233 0.930 . S
C206 C204 1.369 . S
C206 C208 1.392 . S
C206 H234 0.930 . S
C207 C203 1.373 . S
C207 C205 1.383 . S
C207 H235 0.931 . S
C208 C205 1.382 . S
C208 C206 1.392 . S
C209 Eu200 2.828 . S
C209 C203 1.505 . S
C209 O221 1.249 . S
C209 O222 1.244 . S
O210 Eu201 2.373 . S
O210 C212 1.258 . S
O211 Eu200 2.392 . S
O211 C212 1.242 . S
C212 O210 1.258 . S
C212 O211 1.242 . S
O213 Eu200 2.418 . S
O213 C217 1.244 . S
O214 Eu201 2.488 . S
O214 C230 1.249 . S
O215 Eu201 2.471 . S
O215 C230 1.244 . S
O216 Eu201 2.349 . S
O216 C217 1.265 . S
C217 O213 1.244 . S
C217 O216 1.265 . S
O218 Eu200 2.373 . S
O218 C231 1.258 . S
O219 Eu201 2.392 . S
O219 C231 1.242 . S
O220 Eu201 2.418 . S
O220 C202 1.244 . S
O221 Eu200 2.488 . S
O221 C209 1.249 . S
O222 Eu200 2.471 . S
O222 C209 1.244 . S
O223 Eu200 2.349 . S
O223 C202 1.265 . S
C224 C225 1.379 . S
C224 C228 1.373 . S
C224 C230 1.505 . S
C225 C224 1.379 . S
C225 C227 1.369 . S
C225 H236 0.930 . S
C226 C228 1.383 . S
C226 C229 1.382 . S
C226 H237 0.930 . S
C227 C225 1.369 . S
C227 C229 1.392 . S
C227 H238 0.930 . S
C228 C224 1.373 . S
C228 C226 1.383 . S
C228 H239 0.931 . S
C229 C226 1.382 . S
C229 C227 1.392 . S
C230 Eu201 2.828 . S
C230 O214 1.249 . S
C230 O215 1.244 . S
C230 C224 1.505 . S
C231 O218 1.258 . S
C231 O219 1.242 . S
H232 C204 0.930 . S
H233 C205 0.930 . S
H234 C206 0.930 . S
H235 C207 0.931 . S
H236 C225 0.930 . S
H237 C226 0.930 . S
H238 C227 0.930 . S
H239 C228 0.931 . S
Eu240 C249 2.828 . S
Eu240 O251 2.392 . S
Eu240 O253 2.418 . S
Eu240 O258 2.373 . S
Eu240 O261 2.488 . S
Eu240 O262 2.471 . S
Eu240 O263 2.349 . S
Eu241 O250 2.373 . S
Eu241 O254 2.488 . S
Eu241 O255 2.471 . S
Eu241 O256 2.349 . S
Eu241 O259 2.392 . S
Eu241 O260 2.418 . S
Eu241 C270 2.828 . S
C242 O260 1.244 . S
C242 O263 1.265 . S
C243 C244 1.379 . S
C243 C247 1.373 . S
C243 C249 1.505 . S
C244 C243 1.379 . S
C244 C246 1.369 . S
C244 H272 0.930 . S
C245 C247 1.383 . S
C245 C248 1.382 . S
C245 H273 0.930 . S
C246 C244 1.369 . S
C246 C248 1.392 . S
C246 H274 0.930 . S
C247 C243 1.373 . S
C247 C245 1.383 . S
C247 H275 0.931 . S
C248 C245 1.382 . S
C248 C246 1.392 . S
C249 Eu240 2.828 . S
C249 C243 1.505 . S
C249 O261 1.249 . S
C249 O262 1.244 . S
O250 Eu241 2.373 . S
O250 C252 1.258 . S
O251 Eu240 2.392 . S
O251 C252 1.242 . S
C252 O250 1.258 . S
C252 O251 1.242 . S
O253 Eu240 2.418 . S
O253 C257 1.244 . S
O254 Eu241 2.488 . S
O254 C270 1.249 . S
O255 Eu241 2.471 . S
O255 C270 1.244 . S
O256 Eu241 2.349 . S
O256 C257 1.265 . S
C257 O253 1.244 . S
C257 O256 1.265 . S
O258 Eu240 2.373 . S
O258 C271 1.258 . S
O259 Eu241 2.392 . S
O259 C271 1.242 . S
O260 Eu241 2.418 . S
O260 C242 1.244 . S
O261 Eu240 2.488 . S
O261 C249 1.249 . S
O262 Eu240 2.471 . S
O262 C249 1.244 . S
O263 Eu240 2.349 . S
O263 C242 1.265 . S
C264 C265 1.379 . S
C264 C268 1.373 . S
C264 C270 1.505 . S
C265 C264 1.379 . S
C265 C267 1.369 . S
C265 H276 0.930 . S
C266 C268 1.383 . S
C266 C269 1.382 . S
C266 H277 0.930 . S
C267 C265 1.369 . S
C267 C269 1.392 . S
C267 H278 0.930 . S
C268 C264 1.373 . S
C268 C266 1.383 . S
C268 H279 0.931 . S
C269 C266 1.382 . S
C269 C267 1.392 . S
C270 Eu241 2.828 . S
C270 O254 1.249 . S
C270 O255 1.244 . S
C270 C264 1.505 . S
C271 O258 1.258 . S
C271 O259 1.242 . S
H272 C244 0.930 . S
H273 C245 0.930 . S
H274 C246 0.930 . S
H275 C247 0.931 . S
H276 C265 0.930 . S
H277 C266 0.930 . S
H278 C267 0.930 . S
H279 C268 0.931 . S
Eu280 C289 2.828 . S
Eu280 O291 2.392 . S
Eu280 O293 2.418 . S
Eu280 O298 2.373 . S
Eu280 O301 2.488 . S
Eu280 O302 2.471 . S
Eu280 O303 2.349 . S
Eu281 O290 2.373 . S
Eu281 O294 2.488 . S
Eu281 O295 2.471 . S
Eu281 O296 2.349 . S
Eu281 O299 2.392 . S
Eu281 O300 2.418 . S
Eu281 C310 2.828 . S
C282 O300 1.244 . S
C282 O303 1.265 . S
C283 C284 1.379 . S
C283 C287 1.373 . S
C283 C289 1.505 . S
C284 C283 1.379 . S
C284 C286 1.369 . S
C284 H312 0.930 . S
C285 C287 1.383 . S
C285 C288 1.382 . S
C285 H313 0.930 . S
C286 C284 1.369 . S
C286 C288 1.392 . S
C286 H314 0.930 . S
C287 C283 1.373 . S
C287 C285 1.383 . S
C287 H315 0.931 . S
C288 C285 1.382 . S
C288 C286 1.392 . S
C289 Eu280 2.828 . S
C289 C283 1.505 . S
C289 O301 1.249 . S
C289 O302 1.244 . S
O290 Eu281 2.373 . S
O290 C292 1.258 . S
O291 Eu280 2.392 . S
O291 C292 1.242 . S
C292 O290 1.258 . S
C292 O291 1.242 . S
O293 Eu280 2.418 . S
O293 C297 1.244 . S
O294 Eu281 2.488 . S
O294 C310 1.249 . S
O295 Eu281 2.471 . S
O295 C310 1.244 . S
O296 Eu281 2.349 . S
O296 C297 1.265 . S
C297 O293 1.244 . S
C297 O296 1.265 . S
O298 Eu280 2.373 . S
O298 C311 1.258 . S
O299 Eu281 2.392 . S
O299 C311 1.242 . S
O300 Eu281 2.418 . S
O300 C282 1.244 . S
O301 Eu280 2.488 . S
O301 C289 1.249 . S
O302 Eu280 2.471 . S
O302 C289 1.244 . S
O303 Eu280 2.349 . S
O303 C282 1.265 . S
C304 C305 1.379 . S
C304 C308 1.373 . S
C304 C310 1.505 . S
C305 C304 1.379 . S
C305 C307 1.369 . S
C305 H316 0.930 . S
C306 C308 1.383 . S
C306 C309 1.382 . S
C306 H317 0.930 . S
C307 C305 1.369 . S
C307 C309 1.392 . S
C307 H318 0.930 . S
C308 C304 1.373 . S
C308 C306 1.383 . S
C308 H319 0.931 . S
C309 C306 1.382 . S
C309 C307 1.392 . S
C310 Eu281 2.828 . S
C310 O294 1.249 . S
C310 O295 1.244 . S
C310 C304 1.505 . S
C311 O298 1.258 . S
C311 O299 1.242 . S
H312 C284 0.930 . S
H313 C285 0.930 . S
H314 C286 0.930 . S
H315 C287 0.931 . S
H316 C305 0.930 . S
H317 C306 0.930 . S
H318 C307 0.930 . S
H319 C308 0.931 . S
Co320 O323 2.042 . S
Co320 O330 2.264 . S
Co320 O349 2.286 . S
Co320 O350 2.069 . S
Co320 O352 2.015 1_455 S
Co321 O323 2.122 . S
Co321 O329 2.073 . S
Co321 O330 2.327 . S
Co321 O331 1.976 1_455 S
Co322 O323 2.085 1_545 S
Co322 O325 2.089 1_455 S
Co322 O332 2.111 1_445 S
Co322 O333 2.144 . S
Co322 O337 2.112 . S
Co322 O351 2.143 1_445 S
O323 Co320 2.042 . S
O323 Co321 2.122 . S
O323 Co322 2.085 1_565 S
O323 H324 0.980 . S
H324 O323 0.980 . S
O325 Co322 2.089 1_655 S
O325 Co326 2.042 . S
O325 Co327 2.122 . S
O325 H328 0.980 . S
Co326 O325 2.042 . S
Co326 O334 2.286 . S
Co326 O335 2.069 . S
Co326 O336 2.015 1_655 S
Co326 O339 2.264 . S
Co327 O325 2.122 . S
Co327 O338 1.976 1_655 S
Co327 O339 2.327 . S
Co327 O340 2.073 . S
H328 O325 0.980 . S
O329 Co321 2.073 . S
O329 C344 1.245 . S
O330 Co320 2.264 . S
O330 Co321 2.327 . S
O330 C344 1.257 . S
O331 Co321 1.976 1_655 S
O331 C343 1.251 . S
O332 Co322 2.111 1_665 S
O332 C343 1.274 . S
O333 Co322 2.144 . S
O333 C346 1.246 . S
O334 Co326 2.286 . S
O334 C345 1.259 . S
O335 Co326 2.069 . S
O335 C345 1.289 . S
O336 Co326 2.015 1_455 S
O336 C346 1.257 . S
O337 Co322 2.112 . S
O337 C347 1.274 . S
O338 Co327 1.976 1_455 S
O338 C347 1.251 . S
O339 Co326 2.264 . S
O339 Co327 2.327 . S
O339 C348 1.257 . S
O340 Co327 2.073 . S
O340 C348 1.245 . S
C341 O349 1.259 . S
C341 O350 1.289 . S
C342 O351 1.246 . S
C342 O352 1.257 . S
C343 O331 1.251 . S
C343 O332 1.274 . S
C344 O329 1.245 . S
C344 O330 1.257 . S
C345 O334 1.259 . S
C345 O335 1.289 . S
C346 O333 1.246 . S
C346 O336 1.257 . S
C347 O337 1.274 . S
C347 O338 1.251 . S
C348 O339 1.257 . S
C348 O340 1.245 . S
O349 Co320 2.286 . S
O349 C341 1.259 . S
O350 Co320 2.069 . S
O350 C341 1.289 . S
O351 Co322 2.143 1_665 S
O351 C342 1.246 . S
O352 Co320 2.015 1_655 S
O352 C342 1.257 . S
Co353 O356 2.042 1_556 S
Co353 O363 2.264 1_556 S
Co353 O382 2.286 . S
Co353 O383 2.069 . S
Co353 O385 2.015 . S
Co354 O356 2.122 . S
Co354 O362 2.073 . S
Co354 O363 2.327 . S
Co354 O364 1.976 . S
Co355 O356 2.085 1_545 S
Co355 O358 2.089 1_554 S
Co355 O365 2.111 1_545 S
Co355 O366 2.144 . S
Co355 O370 2.112 1_554 S
Co355 O384 2.143 1_544 S
O356 Co353 2.042 1_554 S
O356 Co354 2.122 . S
O356 Co355 2.085 1_565 S
O356 H357 0.980 . S
H357 O356 0.980 . S
O358 Co355 2.089 1_556 S
O358 Co359 2.042 1_556 S
O358 Co360 2.122 . S
O358 H361 0.980 . S
Co359 O358 2.042 1_554 S
Co359 O367 2.286 . S
Co359 O368 2.069 . S
Co359 O369 2.015 . S
Co359 O372 2.264 1_554 S
Co360 O358 2.122 . S
Co360 O371 1.976 . S
Co360 O372 2.327 . S
Co360 O373 2.073 . S
H361 O358 0.980 . S
O362 Co354 2.073 . S
O362 C377 1.245 . S
O363 Co353 2.264 1_554 S
O363 Co354 2.327 . S
O363 C377 1.257 . S
O364 Co354 1.976 . S
O364 C376 1.251 . S
O365 Co355 2.111 1_565 S
O365 C376 1.274 . S
O366 Co355 2.144 . S
O366 C379 1.246 . S
O367 Co359 2.286 . S
O367 C378 1.259 . S
O368 Co359 2.069 . S
O368 C378 1.289 . S
O369 Co359 2.015 . S
O369 C379 1.257 . S
O370 Co355 2.112 1_556 S
O370 C380 1.274 . S
O371 Co360 1.976 . S
O371 C380 1.251 . S
O372 Co359 2.264 1_556 S
O372 Co360 2.327 . S
O372 C381 1.257 . S
O373 Co360 2.073 . S
O373 C381 1.245 . S
C374 O382 1.259 . S
C374 O383 1.289 . S
C375 O384 1.246 . S
C375 O385 1.257 . S
C376 O364 1.251 . S
C376 O365 1.274 . S
C377 O362 1.245 . S
C377 O363 1.257 . S
C378 O367 1.259 . S
C378 O368 1.289 . S
C379 O366 1.246 . S
C379 O369 1.257 . S
C380 O370 1.274 . S
C380 O371 1.251 . S
C381 O372 1.257 . S
C381 O373 1.245 . S
O382 Co353 2.286 . S
O382 C374 1.259 . S
O383 Co353 2.069 . S
O383 C374 1.289 . S
O384 Co355 2.143 1_566 S
O384 C375 1.246 . S
O385 Co353 2.015 . S
O385 C375 1.257 . S
Co386 O389 2.042 1_556 S
Co386 O396 2.264 1_556 S
Co386 O415 2.286 . S
Co386 O416 2.069 . S
Co386 O418 2.015 1_455 S
Co387 O389 2.122 . S
Co387 O395 2.073 . S
Co387 O396 2.327 . S
Co387 O397 1.976 1_455 S
Co388 O389 2.087 . S
Co388 O391 2.087 1_454 S
Co388 O398 2.111 1_455 S
Co388 O399 2.143 . S
Co388 O403 2.111 1_554 S
Co388 O417 2.143 1_454 S
O389 Co386 2.042 1_554 S
O389 Co387 2.122 . S
O389 Co388 2.087 . S
O389 H390 0.980 . S
H390 O389 0.980 . S
O391 Co388 2.087 1_656 S
O391 Co392 2.042 1_556 S
O391 Co393 2.122 . S
O391 H394 0.980 . S
Co392 O391 2.042 1_554 S
Co392 O400 2.286 . S
Co392 O401 2.069 . S
Co392 O402 2.015 1_655 S
Co392 O405 2.264 1_554 S
Co393 O391 2.122 . S
Co393 O404 1.976 1_655 S
Co393 O405 2.327 . S
Co393 O406 2.073 . S
H394 O391 0.980 . S
O395 Co387 2.073 . S
O395 C410 1.245 . S
O396 Co386 2.264 1_554 S
O396 Co387 2.327 . S
O396 C410 1.257 . S
O397 Co387 1.976 1_655 S
O397 C409 1.251 . S
O398 Co388 2.111 1_655 S
O398 C409 1.274 . S
O399 Co388 2.143 . S
O399 C412 1.246 . S
O400 Co392 2.286 . S
O400 C411 1.259 . S
O401 Co392 2.069 . S
O401 C411 1.289 . S
O402 Co392 2.015 1_455 S
O402 C412 1.257 . S
O403 Co388 2.111 1_556 S
O403 C413 1.274 . S
O404 Co393 1.976 1_455 S
O404 C413 1.251 . S
O405 Co392 2.264 1_556 S
O405 Co393 2.327 . S
O405 C414 1.257 . S
O406 Co393 2.073 . S
O406 C414 1.245 . S
C407 O415 1.259 . S
C407 O416 1.289 . S
C408 O417 1.246 . S
C408 O418 1.257 . S
C409 O397 1.251 . S
C409 O398 1.274 . S
C410 O395 1.245 . S
C410 O396 1.257 . S
C411 O400 1.259 . S
C411 O401 1.289 . S
C412 O399 1.246 . S
C412 O402 1.257 . S
C413 O403 1.274 . S
C413 O404 1.251 . S
C414 O405 1.257 . S
C414 O406 1.245 . S
O415 Co386 2.286 . S
O415 C407 1.259 . S
O416 Co386 2.069 . S
O416 C407 1.289 . S
O417 Co388 2.143 1_656 S
O417 C408 1.246 . S
O418 Co386 2.015 1_655 S
O418 C408 1.257 . S
Co419 O422 2.042 1_556 S
Co419 O429 2.264 1_556 S
Co419 O448 2.286 . S
Co419 O449 2.069 . S
Co419 O451 2.015 . S
Co420 O422 2.122 . S
Co420 O428 2.073 . S
Co420 O429 2.327 . S
Co420 O430 1.976 . S
Co421 O422 2.087 . S
Co421 O424 2.087 1_554 S
Co421 O431 2.111 . S
Co421 O432 2.143 . S
Co421 O436 2.111 1_554 S
Co421 O450 2.143 1_554 S
O422 Co419 2.042 1_554 S
O422 Co420 2.122 . S
O422 Co421 2.087 . S
O422 H423 0.980 . S
H423 O422 0.980 . S
O424 Co421 2.087 1_556 S
O424 Co425 2.042 1_556 S
O424 Co426 2.122 . S
O424 H427 0.980 . S
Co425 O424 2.042 1_554 S
Co425 O433 2.286 . S
Co425 O434 2.069 . S
Co425 O435 2.015 . S
Co425 O438 2.264 1_554 S
Co426 O424 2.122 . S
Co426 O437 1.976 . S
Co426 O438 2.327 . S
Co426 O439 2.073 . S
H427 O424 0.980 . S
O428 Co420 2.073 . S
O428 C443 1.245 . S
O429 Co419 2.264 1_554 S
O429 Co420 2.327 . S
O429 C443 1.257 . S
O430 Co420 1.976 . S
O430 C442 1.251 . S
O431 Co421 2.111 . S
O431 C442 1.274 . S
O432 Co421 2.143 . S
O432 C445 1.246 . S
O433 Co425 2.286 . S
O433 C444 1.259 . S
O434 Co425 2.069 . S
O434 C444 1.289 . S
O435 Co425 2.015 . S
O435 C445 1.257 . S
O436 Co421 2.111 1_556 S
O436 C446 1.274 . S
O437 Co426 1.976 . S
O437 C446 1.251 . S
O438 Co425 2.264 1_556 S
O438 Co426 2.327 . S
O438 C447 1.257 . S
O439 Co426 2.073 . S
O439 C447 1.245 . S
C440 O448 1.259 . S
C440 O449 1.289 . S
C441 O450 1.246 . S
C441 O451 1.257 . S
C442 O430 1.251 . S
C442 O431 1.274 . S
C443 O428 1.245 . S
C443 O429 1.257 . S
C444 O433 1.259 . S
C444 O434 1.289 . S
C445 O432 1.246 . S
C445 O435 1.257 . S
C446 O436 1.274 . S
C446 O437 1.251 . S
C447 O438 1.257 . S
C447 O439 1.245 . S
O448 Co419 2.286 . S
O448 C440 1.259 . S
O449 Co419 2.069 . S
O449 C440 1.289 . S
O450 Co421 2.143 1_556 S
O450 C441 1.246 . S
O451 Co419 2.015 . S
O451 C441 1.257 . S
Co452 O455 2.042 . S
Co452 O462 2.264 . S
Co452 O481 2.286 . S
Co452 O482 2.069 . S
Co452 O484 2.015 . S
Co453 O455 2.122 . S
Co453 O461 2.073 . S
Co453 O462 2.327 . S
Co453 O463 1.976 . S
Co454 O455 2.087 . S
Co454 O457 2.087 1_455 S
Co454 O464 2.111 . S
Co454 O465 2.143 1_455 S
Co454 O469 2.111 1_455 S
Co454 O483 2.143 . S
O455 Co452 2.042 . S
O455 Co453 2.122 . S
O455 Co454 2.087 . S
O455 H456 0.980 . S
H456 O455 0.980 . S
O457 Co454 2.087 1_655 S
O457 Co458 2.042 . S
O457 Co459 2.122 . S
O457 H460 0.980 . S
Co458 O457 2.042 . S
Co458 O466 2.286 . S
Co458 O467 2.069 . S
Co458 O468 2.015 . S
Co458 O471 2.264 . S
Co459 O457 2.122 . S
Co459 O470 1.976 . S
Co459 O471 2.327 . S
Co459 O472 2.073 . S
H460 O457 0.980 . S
O461 Co453 2.073 . S
O461 C476 1.245 . S
O462 Co452 2.264 . S
O462 Co453 2.327 . S
O462 C476 1.257 . S
O463 Co453 1.976 . S
O463 C475 1.251 . S
O464 Co454 2.111 . S
O464 C475 1.274 . S
O465 Co454 2.143 1_655 S
O465 C478 1.246 . S
O466 Co458 2.286 . S
O466 C477 1.259 . S
O467 Co458 2.069 . S
O467 C477 1.289 . S
O468 Co458 2.015 . S
O468 C478 1.257 . S
O469 Co454 2.111 1_655 S
O469 C479 1.274 . S
O470 Co459 1.976 . S
O470 C479 1.251 . S
O471 Co458 2.264 . S
O471 Co459 2.327 . S
O471 C480 1.257 . S
O472 Co459 2.073 . S
O472 C480 1.245 . S
C473 O481 1.259 . S
C473 O482 1.289 . S
C474 O483 1.246 . S
C474 O484 1.257 . S
C475 O463 1.251 . S
C475 O464 1.274 . S
C476 O461 1.245 . S
C476 O462 1.257 . S
C477 O466 1.259 . S
C477 O467 1.289 . S
C478 O465 1.246 . S
C478 O468 1.257 . S
C479 O469 1.274 . S
C479 O470 1.251 . S
C480 O471 1.257 . S
C480 O472 1.245 . S
O481 Co452 2.286 . S
O481 C473 1.259 . S
O482 Co452 2.069 . S
O482 C473 1.289 . S
O483 Co454 2.143 . S
O483 C474 1.246 . S
O484 Co452 2.015 . S
O484 C474 1.257 . S
Co485 O488 2.042 . S
Co485 O495 2.264 . S
Co485 O514 2.286 . S
Co485 O515 2.069 . S
Co485 O517 2.015 1_565 S
Co486 O488 2.122 . S
Co486 O494 2.073 . S
Co486 O495 2.327 . S
Co486 O496 1.976 1_565 S
Co487 O488 2.085 1_545 S
Co487 O490 2.089 . S
Co487 O497 2.112 . S
Co487 O498 2.143 1_545 S
Co487 O502 2.110 1_545 S
Co487 O516 2.144 . S
O488 Co485 2.042 . S
O488 Co486 2.122 . S
O488 Co487 2.085 1_565 S
O488 H489 0.980 . S
H489 O488 0.980 . S
O490 Co487 2.089 . S
O490 Co491 2.042 . S
O490 Co492 2.122 . S
O490 H493 0.980 . S
Co491 O490 2.042 . S
Co491 O499 2.286 . S
Co491 O500 2.069 . S
Co491 O501 2.015 1_545 S
Co491 O504 2.264 . S
Co492 O490 2.122 . S
Co492 O503 1.976 1_545 S
Co492 O504 2.327 . S
Co492 O505 2.073 . S
H493 O490 0.980 . S
O494 Co486 2.073 . S
O494 C509 1.245 . S
O495 Co485 2.264 . S
O495 Co486 2.327 . S
O495 C509 1.257 . S
O496 Co486 1.976 1_545 S
O496 C508 1.251 . S
O497 Co487 2.112 . S
O497 C508 1.274 . S
O498 Co487 2.143 1_565 S
O498 C511 1.246 . S
O499 Co491 2.286 . S
O499 C510 1.259 . S
O500 Co491 2.069 . S
O500 C510 1.289 . S
O501 Co491 2.015 1_565 S
O501 C511 1.257 . S
O502 Co487 2.110 1_565 S
O502 C512 1.274 . S
O503 Co492 1.976 1_565 S
O503 C512 1.251 . S
O504 Co491 2.264 . S
O504 Co492 2.327 . S
O504 C513 1.257 . S
O505 Co492 2.073 . S
O505 C513 1.245 . S
C506 O514 1.259 . S
C506 O515 1.289 . S
C507 O516 1.246 . S
C507 O517 1.257 . S
C508 O496 1.251 . S
C508 O497 1.274 . S
C509 O494 1.245 . S
C509 O495 1.257 . S
C510 O499 1.259 . S
C510 O500 1.289 . S
C511 O498 1.246 . S
C511 O501 1.257 . S
C512 O502 1.274 . S
C512 O503 1.251 . S
C513 O504 1.257 . S
C513 O505 1.245 . S
O514 Co485 2.286 . S
O514 C506 1.259 . S
O515 Co485 2.069 . S
O515 C506 1.289 . S
O516 Co487 2.144 . S
O516 C507 1.246 . S
O517 Co485 2.015 1_545 S
O517 C507 1.257 . S
H518 C524 0.930 . S
H519 C527 0.930 . S
H520 C528 0.930 . S
H521 C529 0.930 . S
H522 C532 0.930 . S
H523 C533 0.930 . S
C524 H518 0.930 . S
C524 C525 1.355 . S
C524 C526 1.415 . S
C525 C524 1.355 . S
C525 C527 1.419 . S
C526 C524 1.415 . S
C526 C531 1.425 . S
C526 C533 1.409 . S
C527 H519 0.930 . S
C527 C525 1.419 . S
C527 C528 1.362 . S
C528 H520 0.930 . S
C528 C527 1.362 . S
C528 C531 1.409 . S
C529 H521 0.930 . S
C529 C530 1.355 . S
C529 C531 1.415 . S
C530 C529 1.355 . S
C530 C532 1.419 . S
C531 C526 1.425 . S
C531 C528 1.409 . S
C531 C529 1.415 . S
C532 H522 0.930 . S
C532 C530 1.419 . S
C532 C533 1.362 . S
C533 H523 0.930 . S
C533 C526 1.409 . S
C533 C532 1.362 . S
H534 C540 0.930 . S
H535 C543 0.930 . S
H536 C544 0.930 . S
H537 C545 0.930 . S
H538 C548 0.930 . S
H539 C549 0.930 . S
C540 H534 0.930 . S
C540 C541 1.355 . S
C540 C542 1.415 . S
C541 C540 1.355 . S
C541 C543 1.419 . S
C542 C540 1.415 . S
C542 C547 1.425 . S
C542 C549 1.409 . S
C543 H535 0.930 . S
C543 C541 1.419 . S
C543 C544 1.362 . S
C544 H536 0.930 . S
C544 C543 1.362 . S
C544 C547 1.409 . S
C545 H537 0.930 . S
C545 C546 1.355 . S
C545 C547 1.415 . S
C546 C545 1.355 . S
C546 C548 1.419 . S
C547 C542 1.425 . S
C547 C544 1.409 . S
C547 C545 1.415 . S
C548 H538 0.930 . S
C548 C546 1.419 . S
C548 C549 1.362 . S
C549 H539 0.930 . S
C549 C542 1.409 . S
C549 C548 1.362 . S
H550 C556 0.930 . S
H551 C559 0.930 . S
H552 C560 0.930 . S
H553 C561 0.930 . S
H554 C564 0.930 . S
H555 C565 0.930 . S
C556 H550 0.930 . S
C556 C557 1.355 . S
C556 C558 1.415 . S
C557 C556 1.355 . S
C557 C559 1.419 . S
C558 C556 1.415 . S
C558 C563 1.425 . S
C558 C565 1.409 . S
C559 H551 0.930 . S
C559 C557 1.419 . S
C559 C560 1.362 . S
C560 H552 0.930 . S
C560 C559 1.362 . S
C560 C563 1.409 . S
C561 H553 0.930 . S
C561 C562 1.355 . S
C561 C563 1.415 . S
C562 C561 1.355 . S
C562 C564 1.419 . S
C563 C558 1.425 . S
C563 C560 1.409 . S
C563 C561 1.415 . S
C564 H554 0.930 . S
C564 C562 1.419 . S
C564 C565 1.362 . S
C565 H555 0.930 . S
C565 C558 1.409 . S
C565 C564 1.362 . S
H566 C572 0.930 . S
H567 C575 0.930 . S
H568 C576 0.930 . S
H569 C577 0.930 . S
H570 C580 0.930 . S
H571 C581 0.930 . S
C572 H566 0.930 . S
C572 C573 1.355 . S
C572 C574 1.415 . S
C573 C572 1.355 . S
C573 C575 1.419 . S
C574 C572 1.415 . S
C574 C579 1.425 . S
C574 C581 1.409 . S
C575 H567 0.930 . S
C575 C573 1.419 . S
C575 C576 1.362 . S
C576 H568 0.930 . S
C576 C575 1.362 . S
C576 C579 1.409 . S
C577 H569 0.930 . S
C577 C578 1.355 . S
C577 C579 1.415 . S
C578 C577 1.355 . S
C578 C580 1.419 . S
C579 C574 1.425 . S
C579 C576 1.409 . S
C579 C577 1.415 . S
C580 H570 0.930 . S
C580 C578 1.419 . S
C580 C581 1.362 . S
C581 H571 0.930 . S
C581 C574 1.409 . S
C581 C580 1.362 . S
H582 C588 0.930 . S
H583 C591 0.930 . S
H584 C592 0.930 . S
H585 C593 0.930 . S
H586 C596 0.930 . S
H587 C597 0.930 . S
C588 H582 0.930 . S
C588 C589 1.355 . S
C588 C590 1.415 . S
C589 C588 1.355 . S
C589 C591 1.419 . S
C590 C588 1.415 . S
C590 C595 1.425 . S
C590 C597 1.409 . S
C591 H583 0.930 . S
C591 C589 1.419 . S
C591 C592 1.362 . S
C592 H584 0.930 . S
C592 C591 1.362 . S
C592 C595 1.409 . S
C593 H585 0.930 . S
C593 C594 1.355 . S
C593 C595 1.415 . S
C594 C593 1.355 . S
C594 C596 1.419 . S
C595 C590 1.425 . S
C595 C592 1.409 . S
C595 C593 1.415 . S
C596 H586 0.930 . S
C596 C594 1.419 . S
C596 C597 1.362 . S
C597 H587 0.930 . S
C597 C590 1.409 . S
C597 C596 1.362 . S
H598 C604 0.930 . S
H599 C607 0.930 . S
H600 C608 0.930 . S
H601 C609 0.930 . S
H602 C612 0.930 . S
H603 C613 0.930 . S
C604 H598 0.930 . S
C604 C605 1.355 . S
C604 C606 1.415 . S
C605 C604 1.355 . S
C605 C607 1.419 . S
C606 C604 1.415 . S
C606 C611 1.425 . S
C606 C613 1.409 . S
C607 H599 0.930 . S
C607 C605 1.419 . S
C607 C608 1.362 . S
C608 H600 0.930 . S
C608 C607 1.362 . S
C608 C611 1.409 . S
C609 H601 0.930 . S
C609 C610 1.355 . S
C609 C611 1.415 . S
C610 C609 1.355 . S
C610 C612 1.419 . S
C611 C606 1.425 . S
C611 C608 1.409 . S
C611 C609 1.415 . S
C612 H602 0.930 . S
C612 C610 1.419 . S
C612 C613 1.362 . S
C613 H603 0.930 . S
C613 C606 1.409 . S
C613 C612 1.362 . S
H614 C620 0.930 . S
H615 C623 0.930 . S
H616 C624 0.930 . S
H617 C625 0.930 . S
H618 C628 0.930 . S
H619 C629 0.930 . S
C620 H614 0.930 . S
C620 C621 1.355 . S
C620 C622 1.415 . S
C621 C620 1.355 . S
C621 C623 1.419 . S
C622 C620 1.415 . S
C622 C627 1.425 . S
C622 C629 1.409 . S
C623 H615 0.930 . S
C623 C621 1.419 . S
C623 C624 1.362 . S
C624 H616 0.930 . S
C624 C623 1.362 . S
C624 C627 1.409 . S
C625 H617 0.930 . S
C625 C626 1.355 . S
C625 C627 1.415 . S
C626 C625 1.355 . S
C626 C628 1.419 . S
C627 C622 1.425 . S
C627 C624 1.409 . S
C627 C625 1.415 . S
C628 H618 0.930 . S
C628 C626 1.419 . S
C628 C629 1.362 . S
C629 H619 0.930 . S
C629 C622 1.409 . S
C629 C628 1.362 . S
H630 C636 0.930 . S
H631 C639 0.930 . S
H632 C640 0.930 . S
H633 C641 0.930 . S
H634 C644 0.930 . S
H635 C645 0.930 . S
C636 H630 0.930 . S
C636 C637 1.355 . S
C636 C638 1.415 . S
C637 C636 1.355 . S
C637 C639 1.419 . S
C638 C636 1.415 . S
C638 C643 1.425 . S
C638 C645 1.409 . S
C639 H631 0.930 . S
C639 C637 1.419 . S
C639 C640 1.362 . S
C640 H632 0.930 . S
C640 C639 1.362 . S
C640 C643 1.409 . S
C641 H633 0.930 . S
C641 C642 1.355 . S
C641 C643 1.415 . S
C642 C641 1.355 . S
C642 C644 1.419 . S
C643 C638 1.425 . S
C643 C640 1.409 . S
C643 C641 1.415 . S
C644 H634 0.930 . S
C644 C642 1.419 . S
C644 C645 1.362 . S
C645 H635 0.930 . S
C645 C638 1.409 . S
C645 C644 1.362 . S
H646 C652 0.930 . S
H647 C655 0.930 . S
H648 C656 0.930 . S
H649 C657 0.930 . S
H650 C660 0.930 . S
H651 C661 0.930 . S
C652 H646 0.930 . S
C652 C653 1.355 . S
C652 C654 1.415 . S
C653 C652 1.355 . S
C653 C655 1.419 . S
C654 C652 1.415 . S
C654 C659 1.425 . S
C654 C661 1.409 . S
C655 H647 0.930 . S
C655 C653 1.419 . S
C655 C656 1.362 . S
C656 H648 0.930 . S
C656 C655 1.362 . S
C656 C659 1.409 . S
C657 H649 0.930 . S
C657 C658 1.355 . S
C657 C659 1.415 . S
C658 C657 1.355 . S
C658 C660 1.419 . S
C659 C654 1.425 . S
C659 C656 1.409 . S
C659 C657 1.415 . S
C660 H650 0.930 . S
C660 C658 1.419 . S
C660 C661 1.362 . S
C661 H651 0.930 . S
C661 C654 1.409 . S
C661 C660 1.362 . S
H662 C668 0.930 . S
H663 C671 0.930 . S
H664 C672 0.930 . S
H665 C673 0.930 . S
H666 C676 0.930 . S
H667 C677 0.930 . S
C668 H662 0.930 . S
C668 C669 1.355 . S
C668 C670 1.415 . S
C669 C668 1.355 . S
C669 C671 1.419 . S
C670 C668 1.415 . S
C670 C675 1.425 . S
C670 C677 1.409 . S
C671 H663 0.930 . S
C671 C669 1.419 . S
C671 C672 1.362 . S
C672 H664 0.930 . S
C672 C671 1.362 . S
C672 C675 1.409 . S
C673 H665 0.930 . S
C673 C674 1.355 . S
C673 C675 1.415 . S
C674 C673 1.355 . S
C674 C676 1.419 . S
C675 C670 1.425 . S
C675 C672 1.409 . S
C675 C673 1.415 . S
C676 H666 0.930 . S
C676 C674 1.419 . S
C676 C677 1.362 . S
C677 H667 0.930 . S
C677 C670 1.409 . S
C677 C676 1.362 . S
H678 C684 0.930 . S
H679 C687 0.930 . S
H680 C688 0.930 . S
H681 C689 0.930 . S
H682 C692 0.930 1_556 S
H683 C693 0.930 1_556 S
C684 H678 0.930 . S
C684 C685 1.355 . S
C684 C686 1.415 . S
C685 C684 1.355 . S
C685 C687 1.419 . S
C686 C684 1.415 . S
C686 C691 1.425 . S
C686 C693 1.409 . S
C687 H679 0.930 . S
C687 C685 1.419 . S
C687 C688 1.362 . S
C688 H680 0.930 . S
C688 C687 1.362 . S
C688 C691 1.409 . S
C689 H681 0.930 . S
C689 C690 1.355 . S
C689 C691 1.415 . S
C690 C689 1.355 . S
C690 C692 1.419 . S
C691 C686 1.425 . S
C691 C688 1.409 . S
C691 C689 1.415 . S
C692 H682 0.930 1_554 S
C692 C690 1.419 . S
C692 C693 1.362 . S
C693 H683 0.930 1_554 S
C693 C686 1.409 . S
C693 C692 1.362 . S
H694 C700 0.930 . S
H695 C703 0.930 . S
H696 C704 0.930 . S
H697 C705 0.930 . S
H698 C708 0.930 . S
H699 C709 0.930 . S
C700 H694 0.930 . S
C700 C701 1.355 . S
C700 C702 1.415 . S
C701 C700 1.355 . S
C701 C703 1.419 . S
C702 C700 1.415 . S
C702 C707 1.425 . S
C702 C709 1.409 . S
C703 H695 0.930 . S
C703 C701 1.419 . S
C703 C704 1.362 . S
C704 H696 0.930 . S
C704 C703 1.362 . S
C704 C707 1.409 . S
C705 H697 0.930 . S
C705 C706 1.355 . S
C705 C707 1.415 . S
C706 C705 1.355 . S
C706 C708 1.419 . S
C707 C702 1.425 . S
C707 C704 1.409 . S
C707 C705 1.415 . S
C708 H698 0.930 . S
C708 C706 1.419 . S
C708 C709 1.362 . S
C709 H699 0.930 . S
C709 C702 1.409 . S
C709 C708 1.362 . S
H710 C716 0.930 . S
H711 C719 0.930 . S
H712 C720 0.930 . S
H713 C721 0.930 . S
H714 C724 0.930 . S
H715 C725 0.930 . S
C716 H710 0.930 . S
C716 C717 1.355 . S
C716 C718 1.415 . S
C717 C716 1.355 . S
C717 C719 1.419 . S
C718 C716 1.415 . S
C718 C723 1.425 . S
C718 C725 1.409 . S
C719 H711 0.930 . S
C719 C717 1.419 . S
C719 C720 1.362 . S
C720 H712 0.930 . S
C720 C719 1.362 . S
C720 C723 1.409 . S
C721 H713 0.930 . S
C721 C722 1.355 . S
C721 C723 1.415 . S
C722 C721 1.355 . S
C722 C724 1.419 . S
C723 C718 1.425 . S
C723 C720 1.409 . S
C723 C721 1.415 . S
C724 H714 0.930 . S
C724 C722 1.419 . S
C724 C725 1.362 . S
C725 H715 0.930 . S
C725 C718 1.409 . S
C725 C724 1.362 . S
H726 C732 0.930 . S
H727 C735 0.930 . S
H728 C736 0.930 . S
H729 C737 0.930 . S
H730 C740 0.930 . S
H731 C741 0.930 . S
C732 H726 0.930 . S
C732 C733 1.355 . S
C732 C734 1.415 . S
C733 C732 1.355 . S
C733 C735 1.419 . S
C734 C732 1.415 . S
C734 C739 1.425 . S
C734 C741 1.409 . S
C735 H727 0.930 . S
C735 C733 1.419 . S
C735 C736 1.362 . S
C736 H728 0.930 . S
C736 C735 1.362 . S
C736 C739 1.409 . S
C737 H729 0.930 . S
C737 C738 1.355 . S
C737 C739 1.415 . S
C738 C737 1.355 . S
C738 C740 1.419 . S
C739 C734 1.425 . S
C739 C736 1.409 . S
C739 C737 1.415 . S
C740 H730 0.930 . S
C740 C738 1.419 . S
C740 C741 1.362 . S
C741 H731 0.930 . S
C741 C734 1.409 . S
C741 C740 1.362 . S
H742 C748 0.930 . S
H743 C751 0.930 . S
H744 C752 0.930 . S
H745 C753 0.930 . S
H746 C756 0.930 . S
H747 C757 0.930 . S
C748 H742 0.930 . S
C748 C749 1.355 . S
C748 C750 1.415 . S
C749 C748 1.355 . S
C749 C751 1.419 . S
C750 C748 1.415 . S
C750 C755 1.425 . S
C750 C757 1.409 . S
C751 H743 0.930 . S
C751 C749 1.419 . S
C751 C752 1.362 . S
C752 H744 0.930 . S
C752 C751 1.362 . S
C752 C755 1.409 . S
C753 H745 0.930 . S
C753 C754 1.355 . S
C753 C755 1.415 . S
C754 C753 1.355 . S
C754 C756 1.419 . S
C755 C750 1.425 . S
C755 C752 1.409 . S
C755 C753 1.415 . S
C756 H746 0.930 . S
C756 C754 1.419 . S
C756 C757 1.362 . S
C757 H747 0.930 . S
C757 C750 1.409 . S
C757 C756 1.362 . S
H758 C764 0.930 . S
H759 C767 0.930 . S
H760 C768 0.930 . S
H761 C769 0.924 1_554 S
H762 C772 0.930 . S
H763 C773 0.930 . S
C764 H758 0.930 . S
C764 C765 1.355 . S
C764 C766 1.415 . S
C765 C764 1.355 . S
C765 C767 1.419 . S
C766 C764 1.415 . S
C766 C771 1.425 . S
C766 C773 1.409 . S
C767 H759 0.930 . S
C767 C765 1.419 . S
C767 C768 1.362 . S
C768 H760 0.930 . S
C768 C767 1.362 . S
C768 C771 1.409 . S
C769 H761 0.924 1_556 S
C769 C770 1.355 . S
C769 C771 1.415 . S
C770 C769 1.355 . S
C770 C772 1.419 . S
C771 C766 1.425 . S
C771 C768 1.409 . S
C771 C769 1.415 . S
C772 H762 0.930 . S
C772 C770 1.419 . S
C772 C773 1.362 . S
C773 H763 0.930 . S
C773 C766 1.409 . S
C773 C772 1.362 . S
H774 C780 0.930 . S
H775 C783 0.930 . S
H776 C784 0.930 . S
H777 C785 0.930 . S
H778 C788 0.930 1_556 S
H779 C789 0.930 . S
C780 H774 0.930 . S
C780 C781 1.355 . S
C780 C782 1.415 . S
C781 C780 1.355 . S
C781 C783 1.419 . S
C782 C780 1.415 . S
C782 C787 1.425 . S
C782 C789 1.409 . S
C783 H775 0.930 . S
C783 C781 1.419 . S
C783 C784 1.362 . S
C784 H776 0.930 . S
C784 C783 1.362 . S
C784 C787 1.409 . S
C785 H777 0.930 . S
C785 C786 1.355 . S
C785 C787 1.415 . S
C786 C785 1.355 . S
C786 C788 1.419 . S
C787 C782 1.425 . S
C787 C784 1.409 . S
C787 C785 1.415 . S
C788 H778 0.930 1_554 S
C788 C786 1.419 . S
C788 C789 1.362 . S
C789 H779 0.930 . S
C789 C782 1.409 . S
C789 C788 1.362 . S
H790 C796 0.930 . S
H791 C799 0.930 . S
H792 C800 0.930 . S
H793 C801 0.930 . S
H794 C804 0.930 . S
H795 C805 0.930 . S
C796 H790 0.930 . S
C796 C797 1.355 . S
C796 C798 1.415 . S
C797 C796 1.355 . S
C797 C799 1.419 . S
C798 C796 1.415 . S
C798 C803 1.425 . S
C798 C805 1.409 . S
C799 H791 0.930 . S
C799 C797 1.419 . S
C799 C800 1.362 . S
C800 H792 0.930 . S
C800 C799 1.362 . S
C800 C803 1.409 . S
C801 H793 0.930 . S
C801 C802 1.355 . S
C801 C803 1.415 . S
C802 C801 1.355 . S
C802 C804 1.419 . S
C803 C798 1.425 . S
C803 C800 1.409 . S
C803 C801 1.415 . S
C804 H794 0.930 . S
C804 C802 1.419 . S
C804 C805 1.362 . S
C805 H795 0.930 . S
C805 C798 1.409 . S
C805 C804 1.362 . S
H806 C812 0.930 . S
H807 C815 0.930 . S
H808 C816 0.930 . S
H809 C817 0.930 . S
H810 C820 0.930 . S
H811 C821 0.930 . S
C812 H806 0.930 . S
C812 C813 1.355 . S
C812 C814 1.415 . S
C813 C812 1.355 . S
C813 C815 1.419 . S
C814 C812 1.415 . S
C814 C819 1.425 . S
C814 C821 1.409 . S
C815 H807 0.930 . S
C815 C813 1.419 . S
C815 C816 1.362 . S
C816 H808 0.930 . S
C816 C815 1.362 . S
C816 C819 1.409 . S
C817 H809 0.930 . S
C817 C818 1.355 . S
C817 C819 1.415 . S
C818 C817 1.355 . S
C818 C820 1.419 . S
C819 C814 1.425 . S
C819 C816 1.409 . S
C819 C817 1.415 . S
C820 H810 0.930 . S
C820 C818 1.419 . S
C820 C821 1.362 . S
C821 H811 0.930 . S
C821 C814 1.409 . S
C821 C820 1.362 . S
H822 C828 0.930 . S
H823 C831 0.930 . S
H824 C832 0.930 . S
H825 C833 0.930 . S
H826 C836 0.930 . S
H827 C837 0.930 . S
C828 H822 0.930 . S
C828 C829 1.355 . S
C828 C830 1.415 . S
C829 C828 1.355 . S
C829 C831 1.419 . S
C830 C828 1.415 . S
C830 C835 1.425 . S
C830 C837 1.409 . S
C831 H823 0.930 . S
C831 C829 1.419 . S
C831 C832 1.362 . S
C832 H824 0.930 . S
C832 C831 1.362 . S
C832 C835 1.409 . S
C833 H825 0.930 . S
C833 C834 1.355 . S
C833 C835 1.415 . S
C834 C833 1.355 . S
C834 C836 1.419 . S
C835 C830 1.425 . S
C835 C832 1.409 . S
C835 C833 1.415 . S
C836 H826 0.930 . S
C836 C834 1.419 . S
C836 C837 1.362 . S
C837 H827 0.930 . S
C837 C830 1.409 . S
C837 C836 1.362 . S
H838 C844 0.930 . S
H839 C847 0.930 . S
H840 C848 0.930 . S
H841 C849 0.930 . S
H842 C852 0.930 . S
H843 C853 0.930 . S
C844 H838 0.930 . S
C844 C845 1.355 . S
C844 C846 1.415 . S
C845 C844 1.355 . S
C845 C847 1.419 . S
C846 C844 1.415 . S
C846 C851 1.425 . S
C846 C853 1.409 . S
C847 H839 0.930 . S
C847 C845 1.419 . S
C847 C848 1.362 . S
C848 H840 0.930 . S
C848 C847 1.362 . S
C848 C851 1.409 . S
C849 H841 0.930 . S
C849 C850 1.355 . S
C849 C851 1.415 . S
C850 C849 1.355 . S
C850 C852 1.419 . S
C851 C846 1.425 . S
C851 C848 1.409 . S
C851 C849 1.415 . S
C852 H842 0.930 . S
C852 C850 1.419 . S
C852 C853 1.362 . S
C853 H843 0.930 . S
C853 C846 1.409 . S
C853 C852 1.362 . S
H854 C860 0.930 . S
H855 C863 0.930 . S
H856 C864 0.930 . S
H857 C865 0.930 . S
H858 C868 0.930 . S
H859 C869 0.930 . S
C860 H854 0.930 . S
C860 C861 1.355 . S
C860 C862 1.415 . S
C861 C860 1.355 . S
C861 C863 1.419 . S
C862 C860 1.415 . S
C862 C867 1.425 . S
C862 C869 1.409 . S
C863 H855 0.930 . S
C863 C861 1.419 . S
C863 C864 1.362 . S
C864 H856 0.930 . S
C864 C863 1.362 . S
C864 C867 1.409 . S
C865 H857 0.930 . S
C865 C866 1.355 . S
C865 C867 1.415 . S
C866 C865 1.355 . S
C866 C868 1.419 . S
C867 C862 1.425 . S
C867 C864 1.409 . S
C867 C865 1.415 . S
C868 H858 0.930 . S
C868 C866 1.419 . S
C868 C869 1.362 . S
C869 H859 0.930 . S
C869 C862 1.409 . S
C869 C868 1.362 . S
H870 C876 0.930 . S
H871 C879 0.930 . S
H872 C880 0.930 . S
H873 C881 0.930 . S
H874 C884 0.930 . S
H875 C885 0.930 . S
C876 H870 0.930 . S
C876 C877 1.355 . S
C876 C878 1.415 . S
C877 C876 1.355 . S
C877 C879 1.419 . S
C878 C876 1.415 . S
C878 C883 1.425 . S
C878 C885 1.409 . S
C879 H871 0.930 . S
C879 C877 1.419 . S
C879 C880 1.362 . S
C880 H872 0.930 . S
C880 C879 1.362 . S
C880 C883 1.409 . S
C881 H873 0.930 . S
C881 C882 1.355 . S
C881 C883 1.415 . S
C882 C881 1.355 . S
C882 C884 1.419 . S
C883 C878 1.425 . S
C883 C880 1.409 . S
C883 C881 1.415 . S
C884 H874 0.930 . S
C884 C882 1.419 . S
C884 C885 1.362 . S
C885 H875 0.930 . S
C885 C878 1.409 . S
C885 C884 1.362 . S
H886 C892 0.930 . S
H887 C895 0.930 . S
H888 C896 0.930 . S
H889 C897 0.930 . S
H890 C900 0.930 . S
H891 C901 0.930 . S
C892 H886 0.930 . S
C892 C893 1.355 . S
C892 C894 1.415 . S
C893 C892 1.355 . S
C893 C895 1.419 . S
C894 C892 1.415 . S
C894 C899 1.425 . S
C894 C901 1.409 . S
C895 H887 0.930 . S
C895 C893 1.419 . S
C895 C896 1.362 . S
C896 H888 0.930 . S
C896 C895 1.362 . S
C896 C899 1.409 . S
C897 H889 0.930 . S
C897 C898 1.355 . S
C897 C899 1.415 . S
C898 C897 1.355 . S
C898 C900 1.419 . S
C899 C894 1.425 . S
C899 C896 1.409 . S
C899 C897 1.415 . S
C900 H890 0.930 . S
C900 C898 1.419 . S
C900 C901 1.362 . S
C901 H891 0.930 . S
C901 C894 1.409 . S
C901 C900 1.362 . S
H902 C908 0.930 . S
H903 C911 0.930 . S
H904 C912 0.930 . S
H905 C913 0.930 . S
H906 C916 0.930 . S
H907 C917 0.930 . S
C908 H902 0.930 . S
C908 C909 1.355 . S
C908 C910 1.415 . S
C909 C908 1.355 . S
C909 C911 1.419 . S
C910 C908 1.415 . S
C910 C915 1.425 . S
C910 C917 1.409 . S
C911 H903 0.930 . S
C911 C909 1.419 . S
C911 C912 1.362 . S
C912 H904 0.930 . S
C912 C911 1.362 . S
C912 C915 1.409 . S
C913 H905 0.930 . S
C913 C914 1.355 . S
C913 C915 1.415 . S
C914 C913 1.355 . S
C914 C916 1.419 . S
C915 C910 1.425 . S
C915 C912 1.409 . S
C915 C913 1.415 . S
C916 H906 0.930 . S
C916 C914 1.419 . S
C916 C917 1.362 . S
C917 H907 0.930 . S
C917 C910 1.409 . S
C917 C916 1.362 . S
H918 C924 0.930 . S
H919 C927 0.930 . S
H920 C928 0.930 . S
H921 C929 0.930 . S
H922 C932 0.930 . S
H923 C933 0.930 . S
C924 H918 0.930 . S
C924 C925 1.355 . S
C924 C926 1.415 . S
C925 C924 1.355 . S
C925 C927 1.419 . S
C926 C924 1.415 . S
C926 C931 1.425 . S
C926 C933 1.409 . S
C927 H919 0.930 . S
C927 C925 1.419 . S
C927 C928 1.362 . S
C928 H920 0.930 . S
C928 C927 1.362 . S
C928 C931 1.409 . S
C929 H921 0.930 . S
C929 C930 1.355 . S
C929 C931 1.415 . S
C930 C929 1.355 . S
C930 C932 1.419 . S
C931 C926 1.425 . S
C931 C928 1.409 . S
C931 C929 1.415 . S
C932 H922 0.930 . S
C932 C930 1.419 . S
C932 C933 1.362 . S
C933 H923 0.930 . S
C933 C926 1.409 . S
C933 C932 1.362 . S
H934 C940 0.930 . S
H935 C943 0.930 . S
H936 C944 0.930 . S
H937 C945 0.930 . S
H938 C948 0.930 . S
H939 C949 0.930 . S
C940 H934 0.930 . S
C940 C941 1.355 . S
C940 C942 1.415 . S
C941 C940 1.355 . S
C941 C943 1.419 . S
C942 C940 1.415 . S
C942 C947 1.425 . S
C942 C949 1.409 . S
C943 H935 0.930 . S
C943 C941 1.419 . S
C943 C944 1.362 . S
C944 H936 0.930 . S
C944 C943 1.362 . S
C944 C947 1.409 . S
C945 H937 0.930 . S
C945 C946 1.355 . S
C945 C947 1.415 . S
C946 C945 1.355 . S
C946 C948 1.419 . S
C947 C942 1.425 . S
C947 C944 1.409 . S
C947 C945 1.415 . S
C948 H938 0.930 . S
C948 C946 1.419 . S
C948 C949 1.362 . S
C949 H939 0.930 . S
C949 C942 1.409 . S
C949 C948 1.362 . S
H950 C956 0.930 . S
H951 C959 0.930 . S
H952 C960 0.930 . S
H953 C961 0.930 . S
H954 C964 0.930 . S
H955 C965 0.930 . S
C956 H950 0.930 . S
C956 C957 1.355 . S
C956 C958 1.415 . S
C957 C956 1.355 . S
C957 C959 1.419 . S
C958 C956 1.415 . S
C958 C963 1.425 . S
C958 C965 1.409 . S
C959 H951 0.930 . S
C959 C957 1.419 . S
C959 C960 1.362 . S
C960 H952 0.930 . S
C960 C959 1.362 . S
C960 C963 1.409 . S
C961 H953 0.930 . S
C961 C962 1.355 . S
C961 C963 1.415 . S
C962 C961 1.355 . S
C962 C964 1.419 . S
C963 C958 1.425 . S
C963 C960 1.409 . S
C963 C961 1.415 . S
C964 H954 0.930 . S
C964 C962 1.419 . S
C964 C965 1.362 . S
C965 H955 0.930 . S
C965 C958 1.409 . S
C965 C964 1.362 . S
H966 C972 0.930 . S
H967 C975 0.930 . S
H968 C976 0.930 . S
H969 C977 0.930 . S
H970 C980 0.930 . S
H971 C981 0.930 . S
C972 H966 0.930 . S
C972 C973 1.355 . S
C972 C974 1.415 . S
C973 C972 1.355 . S
C973 C975 1.419 . S
C974 C972 1.415 . S
C974 C979 1.425 . S
C974 C981 1.409 . S
C975 H967 0.930 . S
C975 C973 1.419 . S
C975 C976 1.362 . S
C976 H968 0.930 . S
C976 C975 1.362 . S
C976 C979 1.409 . S
C977 H969 0.930 . S
C977 C978 1.355 . S
C977 C979 1.415 . S
C978 C977 1.355 . S
C978 C980 1.419 . S
C979 C974 1.425 . S
C979 C976 1.409 . S
C979 C977 1.415 . S
C980 H970 0.930 . S
C980 C978 1.419 . S
C980 C981 1.362 . S
C981 H971 0.930 . S
C981 C974 1.409 . S
C981 C980 1.362 . S
H982 C988 0.930 . S
H983 C991 0.930 . S
H984 C992 0.930 . S
H985 C993 0.930 . S
H986 C996 0.930 . S
H987 C997 0.930 . S
C988 H982 0.930 . S
C988 C989 1.355 . S
C988 C990 1.415 . S
C989 C988 1.355 . S
C989 C991 1.419 . S
C990 C988 1.415 . S
C990 C995 1.425 . S
C990 C997 1.409 . S
C991 H983 0.930 . S
C991 C989 1.419 . S
C991 C992 1.362 . S
C992 H984 0.930 . S
C992 C991 1.362 . S
C992 C995 1.409 . S
C993 H985 0.930 . S
C993 C994 1.355 . S
C993 C995 1.415 . S
C994 C993 1.355 . S
C994 C996 1.419 . S
C995 C990 1.425 . S
C995 C992 1.409 . S
C995 C993 1.415 . S
C996 H986 0.930 . S
C996 C994 1.419 . S
C996 C997 1.362 . S
C997 H987 0.930 . S
C997 C990 1.409 . S
C997 C996 1.362 . S
H998 C1004 0.930 . S
H999 C1007 0.930 . S
H1000 C1008 0.930 . S
H1001 C1009 0.930 . S
H1002 C1012 0.930 . S
H1003 C1013 0.930 . S
C1004 H998 0.930 . S
C1004 C1005 1.355 . S
C1004 C1006 1.415 . S
C1005 C1004 1.355 . S
C1005 C1007 1.419 . S
C1006 C1004 1.415 . S
C1006 C1011 1.425 . S
C1006 C1013 1.409 . S
C1007 H999 0.930 . S
C1007 C1005 1.419 . S
C1007 C1008 1.362 . S
C1008 H1000 0.930 . S
C1008 C1007 1.362 . S
C1008 C1011 1.409 . S
C1009 H1001 0.930 . S
C1009 C1010 1.355 . S
C1009 C1011 1.415 . S
C1010 C1009 1.355 . S
C1010 C1012 1.419 . S
C1011 C1006 1.425 . S
C1011 C1008 1.409 . S
C1011 C1009 1.415 . S
C1012 H1002 0.930 . S
C1012 C1010 1.419 . S
C1012 C1013 1.362 . S
C1013 H1003 0.930 . S
C1013 C1006 1.409 . S
C1013 C1012 1.362 . S
H1014 C1020 0.930 . S
H1015 C1023 0.930 . S
H1016 C1024 0.930 . S
H1017 C1025 0.930 . S
H1018 C1028 0.930 . S
H1019 C1029 0.930 . S
C1020 H1014 0.930 . S
C1020 C1021 1.355 . S
C1020 C1022 1.415 . S
C1021 C1020 1.355 . S
C1021 C1023 1.419 . S
C1022 C1020 1.415 . S
C1022 C1027 1.425 . S
C1022 C1029 1.409 . S
C1023 H1015 0.930 . S
C1023 C1021 1.419 . S
C1023 C1024 1.362 . S
C1024 H1016 0.930 . S
C1024 C1023 1.362 . S
C1024 C1027 1.409 . S
C1025 H1017 0.930 . S
C1025 C1026 1.355 . S
C1025 C1027 1.415 . S
C1026 C1025 1.355 . S
C1026 C1028 1.419 . S
C1027 C1022 1.425 . S
C1027 C1024 1.409 . S
C1027 C1025 1.415 . S
C1028 H1018 0.930 . S
C1028 C1026 1.419 . S
C1028 C1029 1.362 . S
C1029 H1019 0.930 . S
C1029 C1022 1.409 . S
C1029 C1028 1.362 . S
H1030 C1036 0.930 . S
H1031 C1039 0.930 . S
H1032 C1040 0.930 . S
H1033 C1041 0.930 . S
H1034 C1044 0.930 . S
H1035 C1045 0.930 . S
C1036 H1030 0.930 . S
C1036 C1037 1.355 . S
C1036 C1038 1.415 . S
C1037 C1036 1.355 . S
C1037 C1039 1.419 . S
C1038 C1036 1.415 . S
C1038 C1043 1.425 . S
C1038 C1045 1.409 . S
C1039 H1031 0.930 . S
C1039 C1037 1.419 . S
C1039 C1040 1.362 . S
C1040 H1032 0.930 . S
C1040 C1039 1.362 . S
C1040 C1043 1.409 . S
C1041 H1033 0.930 . S
C1041 C1042 1.355 . S
C1041 C1043 1.415 . S
C1042 C1041 1.355 . S
C1042 C1044 1.419 . S
C1043 C1038 1.425 . S
C1043 C1040 1.409 . S
C1043 C1041 1.415 . S
C1044 H1034 0.930 . S
C1044 C1042 1.419 . S
C1044 C1045 1.362 . S
C1045 H1035 0.930 . S
C1045 C1038 1.409 . S
C1045 C1044 1.362 . S
H1046 C1052 0.930 . S
H1047 C1055 0.930 . S
H1048 C1056 0.930 . S
H1049 C1057 0.930 . S
H1050 C1060 0.930 . S
H1051 C1061 0.930 . S
C1052 H1046 0.930 . S
C1052 C1053 1.355 . S
C1052 C1054 1.415 . S
C1053 C1052 1.355 . S
C1053 C1055 1.419 . S
C1054 C1052 1.415 . S
C1054 C1059 1.425 . S
C1054 C1061 1.409 . S
C1055 H1047 0.930 . S
C1055 C1053 1.419 . S
C1055 C1056 1.362 . S
C1056 H1048 0.930 . S
C1056 C1055 1.362 . S
C1056 C1059 1.409 . S
C1057 H1049 0.930 . S
C1057 C1058 1.355 . S
C1057 C1059 1.415 . S
C1058 C1057 1.355 . S
C1058 C1060 1.419 . S
C1059 C1054 1.425 . S
C1059 C1056 1.409 . S
C1059 C1057 1.415 . S
C1060 H1050 0.930 . S
C1060 C1058 1.419 . S
C1060 C1061 1.362 . S
C1061 H1051 0.930 . S
C1061 C1054 1.409 . S
C1061 C1060 1.362 . S
H1062 C1068 0.930 . S
H1063 C1071 0.930 . S
H1064 C1072 0.930 . S
H1065 C1073 0.930 . S
H1066 C1076 0.930 . S
H1067 C1077 0.930 . S
C1068 H1062 0.930 . S
C1068 C1069 1.355 . S
C1068 C1070 1.415 . S
C1069 C1068 1.355 . S
C1069 C1071 1.419 . S
C1070 C1068 1.415 . S
C1070 C1075 1.425 . S
C1070 C1077 1.409 . S
C1071 H1063 0.930 . S
C1071 C1069 1.419 . S
C1071 C1072 1.362 . S
C1072 H1064 0.930 . S
C1072 C1071 1.362 . S
C1072 C1075 1.409 . S
C1073 H1065 0.930 . S
C1073 C1074 1.355 . S
C1073 C1075 1.415 . S
C1074 C1073 1.355 . S
C1074 C1076 1.419 . S
C1075 C1070 1.425 . S
C1075 C1072 1.409 . S
C1075 C1073 1.415 . S
C1076 H1066 0.930 . S
C1076 C1074 1.419 . S
C1076 C1077 1.362 . S
C1077 H1067 0.930 . S
C1077 C1070 1.409 . S
C1077 C1076 1.362 . S
H1078 C1084 0.930 . S
H1079 C1087 0.930 . S
H1080 C1088 0.930 . S
H1081 C1089 0.930 . S
H1082 C1092 0.930 . S
H1083 C1093 0.930 . S
C1084 H1078 0.930 . S
C1084 C1085 1.355 . S
C1084 C1086 1.415 . S
C1085 C1084 1.355 . S
C1085 C1087 1.419 . S
C1086 C1084 1.415 . S
C1086 C1091 1.425 . S
C1086 C1093 1.409 . S
C1087 H1079 0.930 . S
C1087 C1085 1.419 . S
C1087 C1088 1.362 . S
C1088 H1080 0.930 . S
C1088 C1087 1.362 . S
C1088 C1091 1.409 . S
C1089 H1081 0.930 . S
C1089 C1090 1.355 . S
C1089 C1091 1.415 . S
C1090 C1089 1.355 . S
C1090 C1092 1.419 . S
C1091 C1086 1.425 . S
C1091 C1088 1.409 . S
C1091 C1089 1.415 . S
C1092 H1082 0.930 . S
C1092 C1090 1.419 . S
C1092 C1093 1.362 . S
C1093 H1083 0.930 . S
C1093 C1086 1.409 . S
C1093 C1092 1.362 . S
H1094 C1100 0.930 . S
H1095 C1103 0.930 . S
H1096 C1104 0.930 . S
H1097 C1105 0.930 . S
H1098 C1108 0.930 . S
H1099 C1109 0.930 . S
C1100 H1094 0.930 . S
C1100 C1101 1.355 . S
C1100 C1102 1.415 . S
C1101 C1100 1.355 . S
C1101 C1103 1.419 . S
C1102 C1100 1.415 . S
C1102 C1107 1.425 . S
C1102 C1109 1.409 . S
C1103 H1095 0.930 . S
C1103 C1101 1.419 . S
C1103 C1104 1.362 . S
C1104 H1096 0.930 . S
C1104 C1103 1.362 . S
C1104 C1107 1.409 . S
C1105 H1097 0.930 . S
C1105 C1106 1.355 . S
C1105 C1107 1.415 . S
C1106 C1105 1.355 . S
C1106 C1108 1.419 . S
C1107 C1102 1.425 . S
C1107 C1104 1.409 . S
C1107 C1105 1.415 . S
C1108 H1098 0.930 . S
C1108 C1106 1.419 . S
C1108 C1109 1.362 . S
C1109 H1099 0.930 . S
C1109 C1102 1.409 . S
C1109 C1108 1.362 . S
H1110 C1116 0.930 . S
H1111 C1119 0.930 . S
H1112 C1120 0.930 . S
H1113 C1121 0.930 . S
H1114 C1124 0.930 . S
H1115 C1125 0.930 . S
C1116 H1110 0.930 . S
C1116 C1117 1.355 . S
C1116 C1118 1.415 . S
C1117 C1116 1.355 . S
C1117 C1119 1.419 . S
C1118 C1116 1.415 . S
C1118 C1123 1.425 . S
C1118 C1125 1.409 . S
C1119 H1111 0.930 . S
C1119 C1117 1.419 . S
C1119 C1120 1.362 . S
C1120 H1112 0.930 . S
C1120 C1119 1.362 . S
C1120 C1123 1.409 . S
C1121 H1113 0.930 . S
C1121 C1122 1.355 . S
C1121 C1123 1.415 . S
C1122 C1121 1.355 . S
C1122 C1124 1.419 . S
C1123 C1118 1.425 . S
C1123 C1120 1.409 . S
C1123 C1121 1.415 . S
C1124 H1114 0.930 . S
C1124 C1122 1.419 . S
C1124 C1125 1.362 . S
C1125 H1115 0.930 . S
C1125 C1118 1.409 . S
C1125 C1124 1.362 . S
H1126 C1132 0.930 . S
H1127 C1135 0.930 . S
H1128 C1136 0.930 . S
H1129 C1137 0.930 . S
H1130 C1140 0.930 . S
H1131 C1141 0.930 . S
C1132 H1126 0.930 . S
C1132 C1133 1.355 . S
C1132 C1134 1.415 . S
C1133 C1132 1.355 . S
C1133 C1135 1.419 . S
C1134 C1132 1.415 . S
C1134 C1139 1.425 . S
C1134 C1141 1.409 . S
C1135 H1127 0.930 . S
C1135 C1133 1.419 . S
C1135 C1136 1.362 . S
C1136 H1128 0.930 . S
C1136 C1135 1.362 . S
C1136 C1139 1.409 . S
C1137 H1129 0.930 . S
C1137 C1138 1.355 . S
C1137 C1139 1.415 . S
C1138 C1137 1.355 . S
C1138 C1140 1.419 . S
C1139 C1134 1.425 . S
C1139 C1136 1.409 . S
C1139 C1137 1.415 . S
C1140 H1130 0.930 . S
C1140 C1138 1.419 . S
C1140 C1141 1.362 . S
C1141 H1131 0.930 . S
C1141 C1134 1.409 . S
C1141 C1140 1.362 . S
H1142 C1148 0.930 . S
H1143 C1151 0.930 . S
H1144 C1152 0.930 . S
H1145 C1153 0.930 . S
H1146 C1156 0.930 . S
H1147 C1157 0.930 . S
C1148 H1142 0.930 . S
C1148 C1149 1.355 . S
C1148 C1150 1.415 . S
C1149 C1148 1.355 . S
C1149 C1151 1.419 . S
C1150 C1148 1.415 . S
C1150 C1155 1.425 . S
C1150 C1157 1.409 . S
C1151 H1143 0.930 . S
C1151 C1149 1.419 . S
C1151 C1152 1.362 . S
C1152 H1144 0.930 . S
C1152 C1151 1.362 . S
C1152 C1155 1.409 . S
C1153 H1145 0.930 . S
C1153 C1154 1.355 . S
C1153 C1155 1.415 . S
C1154 C1153 1.355 . S
C1154 C1156 1.419 . S
C1155 C1150 1.425 . S
C1155 C1152 1.409 . S
C1155 C1153 1.415 . S
C1156 H1146 0.930 . S
C1156 C1154 1.419 . S
C1156 C1157 1.362 . S
C1157 H1147 0.930 . S
C1157 C1150 1.409 . S
C1157 C1156 1.362 . S
H1158 C1164 0.930 . S
H1159 C1167 0.930 . S
H1160 C1168 0.930 . S
H1161 C1169 0.930 . S
H1162 C1172 0.930 . S
H1163 C1173 0.930 . S
C1164 H1158 0.930 . S
C1164 C1165 1.355 . S
C1164 C1166 1.415 . S
C1165 C1164 1.355 . S
C1165 C1167 1.419 . S
C1166 C1164 1.415 . S
C1166 C1171 1.425 . S
C1166 C1173 1.409 . S
C1167 H1159 0.930 . S
C1167 C1165 1.419 . S
C1167 C1168 1.362 . S
C1168 H1160 0.930 . S
C1168 C1167 1.362 . S
C1168 C1171 1.409 . S
C1169 H1161 0.930 . S
C1169 C1170 1.355 . S
C1169 C1171 1.415 . S
C1170 C1169 1.355 . S
C1170 C1172 1.419 . S
C1171 C1166 1.425 . S
C1171 C1168 1.409 . S
C1171 C1169 1.415 . S
C1172 H1162 0.930 . S
C1172 C1170 1.419 . S
C1172 C1173 1.362 . S
C1173 H1163 0.930 . S
C1173 C1166 1.409 . S
C1173 C1172 1.362 . S
H1174 C1180 0.930 . S
H1175 C1183 0.930 . S
H1176 C1184 0.930 . S
H1177 C1185 0.930 . S
H1178 C1188 0.930 . S
H1179 C1189 0.930 . S
C1180 H1174 0.930 . S
C1180 C1181 1.355 . S
C1180 C1182 1.415 . S
C1181 C1180 1.355 . S
C1181 C1183 1.419 . S
C1182 C1180 1.415 . S
C1182 C1187 1.425 . S
C1182 C1189 1.409 . S
C1183 H1175 0.930 . S
C1183 C1181 1.419 . S
C1183 C1184 1.362 . S
C1184 H1176 0.930 . S
C1184 C1183 1.362 . S
C1184 C1187 1.409 . S
C1185 H1177 0.930 . S
C1185 C1186 1.355 . S
C1185 C1187 1.415 . S
C1186 C1185 1.355 . S
C1186 C1188 1.419 . S
C1187 C1182 1.425 . S
C1187 C1184 1.409 . S
C1187 C1185 1.415 . S
C1188 H1178 0.930 . S
C1188 C1186 1.419 . S
C1188 C1189 1.362 . S
C1189 H1179 0.930 . S
C1189 C1182 1.409 . S
C1189 C1188 1.362 . S
H1190 C1196 0.930 . S
H1191 C1199 0.930 . S
H1192 C1200 0.930 . S
H1193 C1201 0.930 . S
H1194 C1204 0.930 . S
H1195 C1205 0.930 . S
C1196 H1190 0.930 . S
C1196 C1197 1.355 . S
C1196 C1198 1.415 . S
C1197 C1196 1.355 . S
C1197 C1199 1.419 . S
C1198 C1196 1.415 . S
C1198 C1203 1.425 . S
C1198 C1205 1.409 . S
C1199 H1191 0.930 . S
C1199 C1197 1.419 . S
C1199 C1200 1.362 . S
C1200 H1192 0.930 . S
C1200 C1199 1.362 . S
C1200 C1203 1.409 . S
C1201 H1193 0.930 . S
C1201 C1202 1.355 . S
C1201 C1203 1.415 . S
C1202 C1201 1.355 . S
C1202 C1204 1.419 . S
C1203 C1198 1.425 . S
C1203 C1200 1.409 . S
C1203 C1201 1.415 . S
C1204 H1194 0.930 . S
C1204 C1202 1.419 . S
C1204 C1205 1.362 . S
C1205 H1195 0.930 . S
C1205 C1198 1.409 . S
C1205 C1204 1.362 . S
H1206 C1212 0.930 . S
H1207 C1215 0.930 . S
H1208 C1216 0.930 . S
H1209 C1217 0.930 . S
H1210 C1220 0.930 . S
H1211 C1221 0.930 . S
C1212 H1206 0.930 . S
C1212 C1213 1.355 . S
C1212 C1214 1.415 . S
C1213 C1212 1.355 . S
C1213 C1215 1.419 . S
C1214 C1212 1.415 . S
C1214 C1219 1.425 . S
C1214 C1221 1.409 . S
C1215 H1207 0.930 . S
C1215 C1213 1.419 . S
C1215 C1216 1.362 . S
C1216 H1208 0.930 . S
C1216 C1215 1.362 . S
C1216 C1219 1.409 . S
C1217 H1209 0.930 . S
C1217 C1218 1.355 . S
C1217 C1219 1.415 . S
C1218 C1217 1.355 . S
C1218 C1220 1.419 . S
C1219 C1214 1.425 . S
C1219 C1216 1.409 . S
C1219 C1217 1.415 . S
C1220 H1210 0.930 . S
C1220 C1218 1.419 . S
C1220 C1221 1.362 . S
C1221 H1211 0.930 . S
C1221 C1214 1.409 . S
C1221 C1220 1.362 . S
H1222 C1228 0.930 . S
H1223 C1231 0.930 . S
H1224 C1232 0.930 . S
H1225 C1233 0.930 . S
H1226 C1236 0.930 . S
H1227 C1237 0.930 . S
C1228 H1222 0.930 . S
C1228 C1229 1.355 . S
C1228 C1230 1.415 . S
C1229 C1228 1.355 . S
C1229 C1231 1.419 . S
C1230 C1228 1.415 . S
C1230 C1235 1.425 . S
C1230 C1237 1.409 . S
C1231 H1223 0.930 . S
C1231 C1229 1.419 . S
C1231 C1232 1.362 . S
C1232 H1224 0.930 . S
C1232 C1231 1.362 . S
C1232 C1235 1.409 . S
C1233 H1225 0.930 . S
C1233 C1234 1.355 . S
C1233 C1235 1.415 . S
C1234 C1233 1.355 . S
C1234 C1236 1.419 . S
C1235 C1230 1.425 . S
C1235 C1232 1.409 . S
C1235 C1233 1.415 . S
C1236 H1226 0.930 . S
C1236 C1234 1.419 . S
C1236 C1237 1.362 . S
C1237 H1227 0.930 . S
C1237 C1230 1.409 . S
C1237 C1236 1.362 . S
H1238 C1244 0.930 . S
H1239 C1247 0.930 . S
H1240 C1248 0.930 . S
H1241 C1249 0.930 . S
H1242 C1252 0.930 . S
H1243 C1253 0.930 . S
C1244 H1238 0.930 . S
C1244 C1245 1.355 . S
C1244 C1246 1.415 . S
C1245 C1244 1.355 . S
C1245 C1247 1.419 . S
C1246 C1244 1.415 . S
C1246 C1251 1.425 . S
C1246 C1253 1.409 . S
C1247 H1239 0.930 . S
C1247 C1245 1.419 . S
C1247 C1248 1.362 . S
C1248 H1240 0.930 . S
C1248 C1247 1.362 . S
C1248 C1251 1.409 . S
C1249 H1241 0.930 . S
C1249 C1250 1.355 . S
C1249 C1251 1.415 . S
C1250 C1249 1.355 . S
C1250 C1252 1.419 . S
C1251 C1246 1.425 . S
C1251 C1248 1.409 . S
C1251 C1249 1.415 . S
C1252 H1242 0.930 . S
C1252 C1250 1.419 . S
C1252 C1253 1.362 . S
C1253 H1243 0.930 . S
C1253 C1246 1.409 . S
C1253 C1252 1.362 . S
H1254 C1260 0.930 . S
H1255 C1263 0.930 . S
H1256 C1264 0.930 . S
H1257 C1265 0.930 . S
H1258 C1268 0.930 . S
H1259 C1269 0.930 . S
C1260 H1254 0.930 . S
C1260 C1261 1.355 . S
C1260 C1262 1.415 . S
C1261 C1260 1.355 . S
C1261 C1263 1.419 . S
C1262 C1260 1.415 . S
C1262 C1267 1.425 . S
C1262 C1269 1.409 . S
C1263 H1255 0.930 . S
C1263 C1261 1.419 . S
C1263 C1264 1.362 . S
C1264 H1256 0.930 . S
C1264 C1263 1.362 . S
C1264 C1267 1.409 . S
C1265 H1257 0.930 . S
C1265 C1266 1.355 . S
C1265 C1267 1.415 . S
C1266 C1265 1.355 . S
C1266 C1268 1.419 . S
C1267 C1262 1.425 . S
C1267 C1264 1.409 . S
C1267 C1265 1.415 . S
C1268 H1258 0.930 . S
C1268 C1266 1.419 . S
C1268 C1269 1.362 . S
C1269 H1259 0.930 . S
C1269 C1262 1.409 . S
C1269 C1268 1.362 . S
H1270 C1276 0.930 . S
H1271 C1279 0.930 . S
H1272 C1280 0.930 . S
H1273 C1281 0.930 . S
H1274 C1284 0.930 . S
H1275 C1285 0.930 . S
C1276 H1270 0.930 . S
C1276 C1277 1.355 . S
C1276 C1278 1.415 . S
C1277 C1276 1.355 . S
C1277 C1279 1.419 . S
C1278 C1276 1.415 . S
C1278 C1283 1.425 . S
C1278 C1285 1.409 . S
C1279 H1271 0.930 . S
C1279 C1277 1.419 . S
C1279 C1280 1.362 . S
C1280 H1272 0.930 . S
C1280 C1279 1.362 . S
C1280 C1283 1.409 . S
C1281 H1273 0.930 . S
C1281 C1282 1.355 . S
C1281 C1283 1.415 . S
C1282 C1281 1.355 . S
C1282 C1284 1.419 . S
C1283 C1278 1.425 . S
C1283 C1280 1.409 . S
C1283 C1281 1.415 . S
C1284 H1274 0.930 . S
C1284 C1282 1.419 . S
C1284 C1285 1.362 . S
C1285 H1275 0.930 . S
C1285 C1278 1.409 . S
C1285 C1284 1.362 . S
C530 C347 1.561 . S
C525 C2 1.677 . S
C546 C348 1.536 . S
C541 C48 1.564 . S
C562 C342 1.436 . S
C557 C97 1.460 . S
C573 C149 0.546 . S
C578 C341 0.385 . S
C589 C189 1.607 . S
C594 C344 1.520 . S
C610 C346 1.431 . S
C605 C202 1.484 . S
C621 C248 0.696 . S
C626 C345 0.496 . S
C637 C297 1.678 . S
C642 C343 1.560 . S
C658 C378 2.873 . S
C653 C31 2.844 . S
C669 C52 1.760 . S
C674 C409 1.612 . S
C690 C377 1.282 . S
C685 C88 1.285 . S
C706 C412 1.121 . S
C701 C122 1.177 . S
C717 C162 1.500 . S
C722 C375 1.476 . S
C738 C407 2.867 . S
C733 C231 2.868 . S
C749 C252 1.472 . S
C754 C380 1.449 . S
C765 C288 1.282 . S
C770 C414 1.192 . S
C781 C29 1.280 . S
C786 C410 1.236 . S
C797 C191 1.755 . S
C802 C413 1.627 . S
C818 C381 1.229 . S
C813 C229 1.260 . S
C834 C408 1.159 . S
C829 C257 1.131 . S
C845 C292 2.862 . S
C850 C374 2.867 . S
C861 C92 2.864 . S
C866 C411 2.856 . S
C882 C376 1.375 . S
C877 C151 1.445 . S
C893 C57 1.461 . S
C898 C379 1.455 . S
C909 C282 1.740 . S
C914 C446 1.527 . S
C925 C168 1.318 . S
C930 C447 1.225 . S
C946 C441 1.264 . S
C941 C217 1.260 . S
C962 C440 0.588 . S
C957 C269 0.734 . S
C973 C69 1.307 . S
C978 C443 1.318 . S
C994 C445 1.203 . S
C989 C82 1.243 . S
C1005 C128 0.558 . S
C1010 C444 0.402 . S
C1021 C17 1.713 . S
C1026 C442 1.616 . S
C1037 C311 3.030 . S
C1042 C480 2.954 . S
C1058 C512 1.421 . S
C1053 C172 1.526 . S
C1069 C208 1.126 . S
C1074 C473 1.104 . S
C1085 C242 1.498 . S
C1090 C507 1.481 . S
C1106 C478 1.158 . S
C1101 C42 1.162 . S
C1117 C111 3.026 . S
C1122 C509 2.989 . S
C1138 C475 1.844 . S
C1133 C132 1.870 . S
C1154 C510 1.326 . S
C1149 C8 1.302 . S
C1170 C506 1.305 . S
C1165 C309 1.274 . S
C1181 C71 1.526 . S
C1186 C508 1.465 . S
C1197 C109 1.130 . S
C1202 C477 1.110 . S
C1218 C511 1.425 . S
C1213 C137 1.463 . S
C1229 C12 3.030 . S
C1234 C476 2.945 . S
C1245 C212 3.025 . S
C1250 C513 2.985 . S
C1266 C479 1.810 . S
C1261 C271 1.883 . S
C1282 C474 1.112 . S
C1277 C177 1.185 . S
