# Generated by pormake.
# Topology zzz, (3,6)-cn, num edge types: 1
# Building blocks:
#     Node 0, Type 0, BuildingBlock: OLANEW_clean_sbu_2, # of connection points: 3
#     Node 1, Type 0, BuildingBlock: OLANEW_clean_sbu_2, # of connection points: 3
#     Node 2, Type 0, BuildingBlock: OLANEW_clean_sbu_2, # of connection points: 3
#     Node 3, Type 0, BuildingBlock: OLANEW_clean_sbu_2, # of connection points: 3
#     Node 4, Type 0, BuildingBlock: OLANEW_clean_sbu_2, # of connection points: 3
#     Node 5, Type 0, BuildingBlock: OLANEW_clean_sbu_2, # of connection points: 3
#     Node 6, Type 0, BuildingBlock: OLANEW_clean_sbu_2, # of connection points: 3
#     Node 7, Type 0, BuildingBlock: OLANEW_clean_sbu_2, # of connection points: 3
#     Node 8, Type 1, BuildingBlock: PAMTOO_clean_sbu_0, # of connection points: 6
#     Node 9, Type 1, BuildingBlock: PAMTOO_clean_sbu_0, # of connection points: 6
#     Node 10, Type 1, BuildingBlock: PAMTOO_clean_sbu_0, # of connection points: 6
#     Node 11, Type 1, BuildingBlock: PAMTOO_clean_sbu_0, # of connection points: 6
#     Edge 12, Type (0, 1), None
#     Edge 13, Type (0, 1), None
#     Edge 14, Type (0, 1), None
#     Edge 15, Type (0, 1), None
#     Edge 16, Type (0, 1), None
#     Edge 17, Type (0, 1), None
#     Edge 18, Type (0, 1), None
#     Edge 19, Type (0, 1), None
#     Edge 20, Type (0, 1), None
#     Edge 21, Type (0, 1), None
#     Edge 22, Type (0, 1), None
#     Edge 23, Type (0, 1), None
#     Edge 24, Type (0, 1), None
#     Edge 25, Type (0, 1), None
#     Edge 26, Type (0, 1), None
#     Edge 27, Type (0, 1), None
#     Edge 28, Type (0, 1), None
#     Edge 29, Type (0, 1), None
#     Edge 30, Type (0, 1), None
#     Edge 31, Type (0, 1), None
#     Edge 32, Type (0, 1), None
#     Edge 33, Type (0, 1), None
#     Edge 34, Type (0, 1), None
#     Edge 35, Type (0, 1), None
# Relax obj value: 0.347
# Max RMSD: 0.281
# Mean RMSD: 0.147
data_MOF--net-zzz--node1-OLANEW_clean_sbu_2--node2-PAMTOO_clean_sbu_0--edge1-none
_symmetry_space_group_name_H-M    P1
_symmetry_Int_Tables_number       1
_symmetry_cell_setting            triclinic
loop_
_symmetry_equiv_pos_as_xyz
'x, y, z'
_cell_length_a     34.053662
_cell_length_b     24.925582
_cell_length_c     8.8594639
_cell_angle_alpha  96.285332
_cell_angle_beta   74.879483
_cell_angle_gamma 83.745069
loop_
_atom_site_label
_atom_site_type_symbol
_atom_site_fract_x
_atom_site_fract_y
_atom_site_fract_z
_atom_type_partial_charge
O0 O 0.65408 0.63668 0.02596 0.0
Cd1 Cd 0.61893 0.63278 0.81716 0.0
O2 O 0.70249 0.63568 0.14609 0.0
Cd3 Cd 0.767 0.63449 0.13804 0.0
O4 O 0.80796 0.69602 0.09866 0.0
C5 C 0.84618 0.69079 0.08649 0.0
O6 O 0.86577 0.73284 0.05932 0.0
C7 C 0.69141 0.62315 0.0221 0.0
C8 C 0.64022 0.54785 0.56532 0.0
O9 O 0.65574 0.59226 0.55233 0.0
O10 O 0.61624 0.54288 0.69943 0.0
O11 O 0.95163 0.78321 0.66507 0.0
Cd12 Cd 0.9442 0.69892 0.77002 0.0
O13 O 0.01556 0.74472 0.55851 0.0
Cd14 Cd 0.07809 0.76141 0.45611 0.0
O15 O 0.09099 0.84402 0.51371 0.0
C16 C 0.07059 0.86442 0.65359 0.0
O17 O 0.04947 0.83342 0.74507 0.0
C18 C 0.98701 0.7841 0.57368 0.0
C19 C 0.93149 0.63531 0.51866 0.0
O20 O 0.9011 0.65851 0.63435 0.0
O21 O 0.9681 0.6394 0.52618 0.0
O22 O 0.80844 0.03856 0.03216 0.0
Cd23 Cd 0.87556 0.99173 0.02689 0.0
O24 O 0.7961 0.99369 0.23334 0.0
Cd25 Cd 0.75707 0.95621 0.41543 0.0
O26 O 0.70248 0.94288 0.58905 0.0
C27 C 0.67262 0.92984 0.53923 0.0
O28 O 0.67691 0.9211 0.38652 0.0
C29 C 0.78255 0.02344 0.1448 0.0
C30 C 0.947 0.03826 0.94535 0.0
O31 O 0.93261 0.01501 0.8393 0.0
O32 O 0.92597 0.04322 0.09032 0.0
O33 O 0.53547 0.63703 0.02992 0.0
Cd34 Cd 0.57715 0.70399 0.10643 0.0
O35 O 0.49919 0.65129 0.277 0.0
Cd36 Cd 0.46354 0.61359 0.46107 0.0
O37 O 0.47029 0.54623 0.58721 0.0
C38 C 0.50563 0.53105 0.6031 0.0
O39 O 0.53646 0.55674 0.54322 0.0
C40 C 0.50805 0.62374 0.14092 0.0
C41 C 0.56864 0.80587 0.0118 0.0
O42 O 0.58926 0.76427 0.91451 0.0
O43 O 0.55098 0.79938 0.1538 0.0
O44 O 0.18363 0.44059 0.39178 0.0
Cd45 Cd 0.25246 0.3889 0.3001 0.0
O46 O 0.14588 0.40024 0.25787 0.0
Cd47 Cd 0.08742 0.3981 0.19521 0.0
O48 O 0.0309 0.42081 0.12693 0.0
C49 C 0.99609 0.43435 0.22847 0.0
O50 O 0.99338 0.43337 0.37866 0.0
C51 C 0.14932 0.43755 0.36199 0.0
C52 C 0.29285 0.42273 0.52382 0.0
O53 O 0.29477 0.44648 0.40139 0.0
O54 O 0.27316 0.38172 0.53736 0.0
O55 O 0.93512 0.29116 0.49028 0.0
Cd56 Cd 0.88645 0.37171 0.50377 0.0
O57 O 0.98649 0.32125 0.33008 0.0
Cd58 Cd 0.04882 0.29652 0.17456 0.0
O59 O 0.0633 0.21569 0.03486 0.0
C60 C 0.08709 0.17559 0.05382 0.0
O61 O 0.11084 0.18275 0.14723 0.0
C62 C 0.97275 0.28544 0.41304 0.0
C63 C 0.89165 0.44466 0.75462 0.0
O64 O 0.86797 0.40805 0.77763 0.0
O65 O 0.91172 0.44808 0.61294 0.0
O66 O 0.31371 0.84685 0.58491 0.0
Cd67 Cd 0.24564 0.84208 0.5546 0.0
O68 O 0.31456 0.91861 0.46207 0.0
Cd69 Cd 0.35078 0.97227 0.32493 0.0
O70 O 0.40945 0.97031 0.15261 0.0
C71 C 0.43792 0.99511 0.18107 0.0
O72 O 0.43143 0.02707 0.31581 0.0
C73 C 0.33269 0.88392 0.52555 0.0
C74 C 0.18701 0.93109 0.70643 0.0
O75 O 0.19364 0.89014 0.77669 0.0
O76 O 0.20927 0.93115 0.56541 0.0
O77 O 0.52956 0.27666 0.73126 0.0
Cd78 Cd 0.53907 0.194 0.54435 0.0
O79 O 0.46712 0.30047 0.71294 0.0
Cd80 Cd 0.41918 0.36692 0.71579 0.0
O81 O 0.42381 0.42005 0.53396 0.0
C82 C 0.46051 0.41372 0.44657 0.0
O83 O 0.48858 0.38018 0.47965 0.0
C84 C 0.49701 0.31091 0.76674 0.0
C85 C 0.54345 0.10069 0.68556 0.0
O86 O 0.57478 0.12555 0.64679 0.0
O87 O 0.50994 0.11989 0.65818 0.0
Dy88 Dy 0.07859 0.04529 0.68442 0.0
Dy89 Dy 0.0615 0.00472 0.02876 0.0
C90 C 0.15002 0.97111 0.77453 0.0
O91 O 0.08772 0.95461 0.62195 0.0
O92 O 0.04931 0.93821 0.86384 0.0
O93 O 0.10583 0.10338 0.53833 0.0
O94 O 0.06469 0.05268 0.46523 0.0
O95 O 0.00669 0.06019 0.01756 0.0
O96 O 0.01283 0.03332 0.76076 0.0
O97 O 0.09296 0.07825 0.05002 0.0
O98 O 0.06479 0.11629 0.8745 0.0
O99 O 0.01263 -0.00094 0.2345 0.0
O100 O 0.07556 0.96763 0.22132 0.0
C101 C 0.06933 0.92171 0.71465 0.0
O102 O 0.14124 0.00898 0.69067 0.0
O103 O 0.12324 0.95982 0.89905 0.0
C104 C 0.0547 0.14506 0.4324 0.0
C105 C 0.00066 0.23718 0.41908 0.0
C106 C 0.03647 0.24353 0.46517 0.0
C107 C 0.06299 0.19787 0.47414 0.0
C108 C 0.01876 0.13914 0.38532 0.0
C109 C 0.99173 0.18481 0.38055 0.0
C110 C 0.08195 0.09638 0.44594 0.0
C111 C 0.98954 0.04952 0.90429 0.0
C112 C 0.08374 0.12081 0.98476 0.0
C113 C 0.02217 0.92328 0.36127 0.0
C114 C 0.99615 0.83213 0.49572 0.0
C115 C 0.97983 0.88477 0.57576 0.0
C116 C 0.99294 0.93005 0.50855 0.0
C117 C 0.03623 0.87096 0.27585 0.0
C118 C 0.02306 0.8256 0.3426 0.0
C119 C 0.03686 0.9716 0.29917 0.0
H120 H 0.04365 0.28388 0.49616 0.0
H121 H 0.09018 0.20397 0.51183 0.0
H122 H 0.01122 0.09922 0.35362 0.0
H123 H 0.96418 0.17925 0.3447 0.0
H124 H 0.95853 0.8908 0.6928 0.0
H125 H 0.98099 0.97046 0.57254 0.0
H126 H 0.05787 0.86515 0.15952 0.0
H127 H 0.03481 0.7853 0.27649 0.0
Dy128 Dy 0.5359 0.92706 0.72535 0.0
Dy129 Dy 0.57554 0.98306 -0.00125 0.0
C130 C 0.54631 0.0505 0.75548 0.0
O131 O 0.59986 0.93492 0.5948 0.0
O132 O 0.62909 0.94086 0.80253 0.0
O133 O 0.51898 0.92497 0.50623 0.0
O134 O 0.50867 0.85903 0.64635 0.0
O135 O 0.55545 0.90393 0.06301 0.0
O136 O 0.57141 0.86217 0.80929 0.0
O137 O 0.50817 0.00972 0.09736 0.0
O138 O 0.48506 0.94449 0.9492 0.0
O139 O 0.60748 0.97208 0.17617 0.0
O140 O 0.59027 0.05332 0.12842 0.0
C141 C 0.63203 0.93375 0.65058 0.0
O142 O 0.51954 0.01706 0.74819 0.0
O143 O 0.57692 0.03844 0.81581 0.0
C144 C 0.45919 0.88313 0.51614 0.0
C145 C 0.37625 0.88396 0.52018 0.0
C146 C 0.39125 0.93301 0.55173 0.0
C147 C 0.43238 0.9326 0.5509 0.0
C148 C 0.4443 0.83421 0.48275 0.0
C149 C 0.40305 0.83455 0.48608 0.0
C150 C 0.50162 0.88112 0.52748 0.0
C151 C 0.56503 0.85942 0.95991 0.0
C152 C 0.47886 0.98342 0.06924 0.0
C153 C 0.65377 0.03405 0.18681 0.0
C154 C 0.738 0.03384 0.16033 0.0
C155 C 0.72391 0.03004 0.02448 0.0
C156 C 0.68211 0.02969 0.03757 0.0
C157 C 0.66733 0.04199 0.32285 0.0
C158 C 0.7092 0.0418 0.30974 0.0
C159 C 0.61145 0.0235 0.20018 0.0
H160 H 0.37093 0.97149 0.58119 0.0
H161 H 0.44297 0.9708 0.58025 0.0
H162 H 0.46443 0.7956 0.45733 0.0
H163 H 0.39211 0.7962 0.46144 0.0
H164 H 0.74545 0.02391 0.9079 0.0
H165 H 0.67219 0.02341 0.93109 0.0
H166 H 0.64585 0.04553 0.43895 0.0
H167 H 0.71918 0.04615 0.41635 0.0
Dy168 Dy 0.54249 0.45309 0.99409 0.0
Dy169 Dy 0.44245 0.48177 0.0203 0.0
C170 C 0.47128 0.4371 0.29941 0.0
O171 O 0.531 0.38451 0.83678 0.0
O172 O 0.46038 0.39203 0.93657 0.0
O173 O 0.5947 0.39994 0.01652 0.0
O174 O 0.60172 0.48083 0.95718 0.0
O175 O 0.47726 0.46941 0.76873 0.0
O176 O 0.53613 0.49944 0.79714 0.0
O177 O 0.4683 0.56066 0.04348 0.0
O178 O 0.51615 0.52921 0.16251 0.0
O179 O 0.39425 0.53424 0.96898 0.0
O180 O 0.37997 0.46386 0.08466 0.0
C181 C 0.49615 0.36476 0.85257 0.0
O182 O 0.5074 0.41839 0.20047 0.0
O183 O 0.44432 0.47225 0.26578 0.0
C184 C 0.63303 0.45302 0.14673 0.0
C185 C 0.64434 0.50778 0.42402 0.0
C186 C 0.61893 0.46681 0.43276 0.0
C187 C 0.61295 0.44007 0.29544 0.0
C188 C 0.66236 0.48881 0.13716 0.0
C189 C 0.66809 0.51589 0.27498 0.0
C190 C 0.61748 0.43896 0.00899 0.0
C191 C 0.50867 0.49471 0.71847 0.0
C192 C 0.49518 0.56971 0.12218 0.0
C193 C 0.34664 0.48276 0.88782 0.0
C194 C 0.31163 0.4431 0.6483 0.0
C195 C 0.33197 0.48922 0.63479 0.0
C196 C 0.34919 0.5089 0.75324 0.0
C197 C 0.32559 0.43729 0.90267 0.0
C198 C 0.3084 0.41758 0.7841 0.0
C199 C 0.36735 0.50114 0.00848 0.0
H200 H 0.60094 0.45861 0.54572 0.0
H201 H 0.59017 0.41253 0.30709 0.0
H202 H 0.67833 0.49913 0.02378 0.0
H203 H 0.68887 0.54598 0.26496 0.0
H204 H 0.33478 0.51008 0.53227 0.0
H205 H 0.36502 0.54417 0.73789 0.0
H206 H 0.32279 0.41645 0.00526 0.0
H207 H 0.29261 0.38226 0.79898 0.0
Dy208 Dy 0.95326 0.56066 0.00842 0.0
Dy209 Dy 0.87067 0.52715 0.25071 0.0
C210 C 0.89718 0.48019 0.88778 0.0
O211 O 0.90866 0.63652 0.07747 0.0
O212 O 0.84935 0.59766 0.13921 0.0
O213 O 0.98198 0.59055 0.7931 0.0
O214 O 0.01795 0.56736 0.95035 0.0
O215 O 0.88665 0.59783 0.38436 0.0
O216 O 0.95565 0.58678 0.25593 0.0
O217 O 0.92764 0.48332 0.29135 0.0
O218 O 0.96852 0.47467 0.03969 0.0
O219 O 0.8441 0.49311 0.46155 0.0
O220 O 0.8057 0.521 0.31782 0.0
C221 C 0.86889 0.6391 0.1011 0.0
O222 O 0.9178 0.52118 0.85882 0.0
O223 O 0.88334 0.46831 0.03086 0.0
C224 C 0.04967 0.54708 0.67947 0.0
C225 C 0.11355 0.47675 0.45612 0.0
C226 C 0.07534 0.45935 0.51473 0.0
C227 C 0.04357 0.49435 0.62584 0.0
C228 C 0.08715 0.5653 0.61669 0.0
C229 C 0.11897 0.53029 0.50603 0.0
C230 C 0.01869 0.58089 0.81168 0.0
C231 C 0.92435 0.60515 0.38026 0.0
C232 C 0.96147 0.46156 0.182 0.0
C233 C 0.77704 0.53667 0.59746 0.0
C234 C 0.72176 0.59544 0.87605 0.0
C235 C 0.72034 0.60907 0.72807 0.0
C236 C 0.74777 0.58002 0.58969 0.0
C237 C 0.77853 0.52351 0.74625 0.0
C238 C 0.7514 0.55289 0.88414 0.0
C239 C 0.80664 0.50557 0.45306 0.0
H240 H 0.07081 0.41777 0.48267 0.0
H241 H 0.01486 0.4795 0.67515 0.0
H242 H 0.09235 0.60578 0.65779 0.0
H243 H 0.1483 0.54444 0.46337 0.0
H244 H 0.69819 0.64245 0.71972 0.0
H245 H 0.74597 0.59156 0.47704 0.0
H246 H 0.80067 0.49034 0.75602 0.0
H247 H 0.75287 0.54132 -0.00285 0.0
loop_
_geom_bond_atom_site_label_1
_geom_bond_atom_site_label_2
_geom_bond_distance
_geom_bond_site_symmetry_2
_ccdc_geom_bond_type
O0 Cd1 2.300 . S
O0 C7 1.275 . S
Cd1 O0 2.300 . S
Cd1 O9 2.381 . S
Cd1 O10 2.378 . S
O2 Cd3 2.385 1_556 S
O2 C7 1.255 . S
Cd3 O2 2.385 1_554 S
Cd3 O4 2.317 . S
O4 Cd3 2.317 . S
O4 C5 1.232 . S
C5 O4 1.232 . S
C5 O6 1.218 . S
O6 C5 1.218 . S
C7 O0 1.275 . S
C7 O2 1.255 . S
C8 O9 1.258 . S
C8 O10 1.256 . S
O9 Cd1 2.381 . S
O9 C8 1.258 . S
O10 Cd1 2.378 . S
O10 C8 1.256 . S
O11 Cd12 2.300 1_655 S
O11 C18 1.275 1_655 S
Cd12 O11 2.300 1_455 S
Cd12 O20 2.381 1_455 S
Cd12 O21 2.378 . S
O13 Cd14 2.385 . S
O13 C18 1.255 . S
Cd14 O13 2.385 . S
Cd14 O15 2.317 . S
O15 Cd14 2.317 . S
O15 C16 1.232 1_556 S
C16 O15 1.232 1_554 S
C16 O17 1.218 1_554 S
O17 C16 1.218 1_556 S
C18 O11 1.275 1_455 S
C18 O13 1.255 . S
C19 O20 1.258 1_455 S
C19 O21 1.256 . S
O20 Cd12 2.381 1_655 S
O20 C19 1.258 1_655 S
O21 Cd12 2.378 . S
O21 C19 1.256 . S
O22 Cd23 2.300 1_565 S
O22 C29 1.275 1_565 S
Cd23 O22 2.300 1_545 S
Cd23 O31 2.381 1_545 S
Cd23 O32 2.378 . S
O24 Cd25 2.385 . S
O24 C29 1.255 . S
Cd25 O24 2.385 . S
Cd25 O26 2.317 . S
O26 Cd25 2.317 . S
O26 C27 1.232 . S
C27 O26 1.232 . S
C27 O28 1.218 . S
O28 C27 1.218 . S
C29 O22 1.275 1_545 S
C29 O24 1.255 . S
C30 O31 1.258 1_545 S
C30 O32 1.256 . S
O31 Cd23 2.381 1_565 S
O31 C30 1.258 1_565 S
O32 Cd23 2.378 . S
O32 C30 1.256 . S
O33 Cd34 2.300 . S
O33 C40 1.275 . S
Cd34 O33 2.300 . S
Cd34 O42 2.381 . S
Cd34 O43 2.378 . S
O35 Cd36 2.385 . S
O35 C40 1.255 . S
Cd36 O35 2.385 . S
Cd36 O37 2.317 . S
O37 Cd36 2.317 . S
O37 C38 1.232 . S
C38 O37 1.232 . S
C38 O39 1.218 . S
O39 C38 1.218 . S
C40 O33 1.275 . S
C40 O35 1.255 . S
C41 O42 1.258 . S
C41 O43 1.256 . S
O42 Cd34 2.381 . S
O42 C41 1.258 . S
O43 Cd34 2.378 . S
O43 C41 1.256 . S
O44 Cd45 2.300 . S
O44 C51 1.275 . S
Cd45 O44 2.300 . S
Cd45 O53 2.381 . S
Cd45 O54 2.378 . S
O46 Cd47 2.385 1_554 S
O46 C51 1.255 . S
Cd47 O46 2.385 1_556 S
Cd47 O48 2.317 . S
O48 Cd47 2.317 . S
O48 C49 1.232 . S
C49 O48 1.232 . S
C49 O50 1.218 . S
O50 C49 1.218 . S
C51 O44 1.275 . S
C51 O46 1.255 . S
C52 O53 1.258 . S
C52 O54 1.256 . S
O53 Cd45 2.381 . S
O53 C52 1.258 . S
O54 Cd45 2.378 . S
O54 C52 1.256 . S
O55 Cd56 2.300 1_655 S
O55 C62 1.275 1_655 S
Cd56 O55 2.300 1_455 S
Cd56 O64 2.381 1_455 S
Cd56 O65 2.378 . S
O57 Cd58 2.385 . S
O57 C62 1.255 . S
Cd58 O57 2.385 . S
Cd58 O59 2.317 1_554 S
O59 Cd58 2.317 1_556 S
O59 C60 1.232 . S
C60 O59 1.232 . S
C60 O61 1.218 . S
O61 C60 1.218 . S
C62 O55 1.275 1_455 S
C62 O57 1.255 . S
C63 O64 1.258 1_455 S
C63 O65 1.256 . S
O64 Cd56 2.381 1_655 S
O64 C63 1.258 1_655 S
O65 Cd56 2.378 . S
O65 C63 1.256 . S
O66 Cd67 2.300 1_565 S
O66 C73 1.275 1_565 S
Cd67 O66 2.300 1_545 S
Cd67 O75 2.381 1_545 S
Cd67 O76 2.378 . S
O68 Cd69 2.385 . S
O68 C73 1.255 . S
Cd69 O68 2.385 . S
Cd69 O70 2.317 . S
O70 Cd69 2.317 . S
O70 C71 1.232 . S
C71 O70 1.232 . S
C71 O72 1.218 . S
O72 C71 1.218 . S
C73 O66 1.275 1_545 S
C73 O68 1.255 . S
C74 O75 1.258 1_545 S
C74 O76 1.256 . S
O75 Cd67 2.381 1_565 S
O75 C74 1.258 1_565 S
O76 Cd67 2.378 . S
O76 C74 1.256 . S
O77 Cd78 2.300 . S
O77 C84 1.275 . S
Cd78 O77 2.300 . S
Cd78 O86 2.381 . S
Cd78 O87 2.378 . S
O79 Cd80 2.385 . S
O79 C84 1.255 . S
Cd80 O79 2.385 . S
Cd80 O81 2.317 . S
O81 Cd80 2.317 . S
O81 C82 1.232 . S
C82 O81 1.232 . S
C82 O83 1.218 . S
O83 C82 1.218 . S
C84 O77 1.275 . S
C84 O79 1.255 . S
C85 O86 1.258 . S
C85 O87 1.256 . S
O86 Cd78 2.381 . S
O86 C85 1.258 . S
O87 Cd78 2.378 . S
O87 C85 1.256 . S
Dy88 O91 2.307 1_545 S
Dy88 O93 2.395 1_655 S
Dy88 O94 2.379 . S
Dy88 O96 2.339 . S
Dy88 O98 2.298 . S
Dy88 O102 2.275 1_655 S
Dy88 C110 2.738 . S
Dy89 O92 2.298 1_554 S
Dy89 O95 2.275 1_455 S
Dy89 O97 2.307 1_565 S
Dy89 O99 2.395 1_455 S
Dy89 O100 2.379 . S
Dy89 O103 2.339 1_554 S
Dy89 C119 2.738 . S
C90 O102 1.254 1_565 S
C90 O103 1.257 . S
O91 Dy88 2.307 1_565 S
O91 C101 1.266 . S
O92 Dy89 2.298 1_556 S
O92 C101 1.236 1_455 S
O93 Dy88 2.395 1_455 S
O93 C110 1.255 1_455 S
O94 Dy88 2.379 . S
O94 C110 1.249 . S
O95 Dy89 2.275 1_655 S
O95 C111 1.254 1_565 S
O96 Dy88 2.339 . S
O96 C111 1.257 1_556 S
O97 Dy89 2.307 1_545 S
O97 C112 1.266 . S
O98 Dy88 2.298 . S
O98 C112 1.236 1_656 S
O99 Dy89 2.395 1_655 S
O99 C119 1.255 1_655 S
O100 Dy89 2.379 . S
O100 C119 1.249 . S
C101 O91 1.266 . S
C101 O92 1.236 1_655 S
O102 Dy88 2.275 1_455 S
O102 C90 1.254 1_545 S
O103 Dy89 2.339 1_556 S
O103 C90 1.257 . S
C104 C107 1.344 1_655 S
C104 C108 1.328 . S
C104 C110 1.516 . S
C105 C106 1.304 1_655 S
C105 C109 1.323 . S
C106 C105 1.304 1_455 S
C106 C107 1.371 . S
C106 H120 0.930 . S
C107 C104 1.344 1_455 S
C107 C106 1.371 . S
C107 H121 0.931 . S
C108 C104 1.328 . S
C108 C109 1.433 . S
C108 H122 0.931 . S
C109 C105 1.323 . S
C109 C108 1.433 . S
C109 H123 0.933 . S
C110 Dy88 2.738 . S
C110 O93 1.255 1_655 S
C110 O94 1.249 . S
C110 C104 1.516 . S
C111 O95 1.254 1_545 S
C111 O96 1.257 1_554 S
C112 O97 1.266 . S
C112 O98 1.236 1_454 S
C113 C116 1.344 1_455 S
C113 C117 1.328 . S
C113 C119 1.516 . S
C114 C115 1.304 1_455 S
C114 C118 1.323 . S
C115 C114 1.304 1_655 S
C115 C116 1.371 . S
C115 H124 0.930 . S
C116 C113 1.344 1_655 S
C116 C115 1.371 . S
C116 H125 0.931 . S
C117 C113 1.328 . S
C117 C118 1.433 . S
C117 H126 0.931 . S
C118 C114 1.323 . S
C118 C117 1.433 . S
C118 H127 0.933 . S
C119 Dy89 2.738 . S
C119 O99 1.255 1_455 S
C119 O100 1.249 . S
C119 C113 1.516 . S
H120 C106 0.930 . S
H121 C107 0.931 . S
H122 C108 0.931 . S
H123 C109 0.933 . S
H124 C115 0.930 . S
H125 C116 0.931 . S
H126 C117 0.931 . S
H127 C118 0.933 . S
Dy128 O131 2.307 . S
Dy128 O133 2.395 1_565 S
Dy128 O134 2.379 . S
Dy128 O136 2.339 . S
Dy128 O138 2.298 1_556 S
Dy128 O142 2.275 1_565 S
Dy128 C150 2.738 . S
Dy129 O132 2.298 1_554 S
Dy129 O135 2.275 1_545 S
Dy129 O137 2.307 . S
Dy129 O139 2.395 1_545 S
Dy129 O140 2.379 . S
Dy129 O143 2.339 . S
Dy129 C159 2.738 . S
C130 O142 1.254 . S
C130 O143 1.257 1_556 S
O131 Dy128 2.307 . S
O131 C141 1.266 . S
O132 Dy129 2.298 1_556 S
O132 C141 1.236 1_545 S
O133 Dy128 2.395 1_545 S
O133 C150 1.255 1_545 S
O134 Dy128 2.379 . S
O134 C150 1.249 . S
O135 Dy129 2.275 1_565 S
O135 C151 1.254 . S
O136 Dy128 2.339 . S
O136 C151 1.257 1_556 S
O137 Dy129 2.307 . S
O137 C152 1.266 . S
O138 Dy128 2.298 1_554 S
O138 C152 1.236 1_565 S
O139 Dy129 2.395 1_565 S
O139 C159 1.255 1_565 S
O140 Dy129 2.379 . S
O140 C159 1.249 . S
C141 O131 1.266 . S
C141 O132 1.236 1_565 S
O142 Dy128 2.275 1_545 S
O142 C130 1.254 . S
O143 Dy129 2.339 . S
O143 C130 1.257 1_554 S
C144 C147 1.344 . S
C144 C148 1.328 . S
C144 C150 1.516 . S
C145 C146 1.304 . S
C145 C149 1.323 . S
C146 C145 1.304 . S
C146 C147 1.371 . S
C146 H160 0.930 1_565 S
C147 C144 1.344 . S
C147 C146 1.371 . S
C147 H161 0.931 1_565 S
C148 C144 1.328 . S
C148 C149 1.433 . S
C148 H162 0.931 . S
C149 C145 1.323 . S
C149 C148 1.433 . S
C149 H163 0.933 . S
C150 Dy128 2.738 . S
C150 O133 1.255 1_565 S
C150 O134 1.249 . S
C150 C144 1.516 . S
C151 O135 1.254 . S
C151 O136 1.257 1_554 S
C152 O137 1.266 . S
C152 O138 1.236 1_545 S
C153 C156 1.344 . S
C153 C157 1.328 . S
C153 C159 1.516 . S
C154 C155 1.304 . S
C154 C158 1.323 . S
C155 C154 1.304 . S
C155 C156 1.371 . S
C155 H164 0.930 1_545 S
C156 C153 1.344 . S
C156 C155 1.371 . S
C156 H165 0.931 1_545 S
C157 C153 1.328 . S
C157 C158 1.433 . S
C157 H166 0.931 . S
C158 C154 1.323 . S
C158 C157 1.433 . S
C158 H167 0.933 . S
C159 Dy129 2.738 . S
C159 O139 1.255 1_545 S
C159 O140 1.249 . S
C159 C153 1.516 . S
H160 C146 0.930 1_545 S
H161 C147 0.931 1_545 S
H162 C148 0.931 . S
H163 C149 0.933 . S
H164 C155 0.930 1_565 S
H165 C156 0.931 1_565 S
H166 C157 0.931 . S
H167 C158 0.933 . S
Dy168 O171 2.307 . S
Dy168 O173 2.395 1_556 S
Dy168 O174 2.379 . S
Dy168 O176 2.339 . S
Dy168 O178 2.298 1_556 S
Dy168 O182 2.275 1_556 S
Dy168 C190 2.738 1_556 S
Dy169 O172 2.298 . S
Dy169 O175 2.275 . S
Dy169 O177 2.307 1_556 S
Dy169 O179 2.395 . S
Dy169 O180 2.379 . S
Dy169 O183 2.339 1_556 S
Dy169 C199 2.738 . S
C170 O182 1.254 . S
C170 O183 1.257 . S
O171 Dy168 2.307 . S
O171 C181 1.266 . S
O172 Dy169 2.298 . S
O172 C181 1.236 . S
O173 Dy168 2.395 1_554 S
O173 C190 1.255 . S
O174 Dy168 2.379 . S
O174 C190 1.249 1_556 S
O175 Dy169 2.275 . S
O175 C191 1.254 . S
O176 Dy168 2.339 . S
O176 C191 1.257 . S
O177 Dy169 2.307 1_554 S
O177 C192 1.266 . S
O178 Dy168 2.298 1_554 S
O178 C192 1.236 . S
O179 Dy169 2.395 . S
O179 C199 1.255 . S
O180 Dy169 2.379 . S
O180 C199 1.249 . S
C181 O171 1.266 . S
C181 O172 1.236 . S
O182 Dy168 2.275 1_554 S
O182 C170 1.254 . S
O183 Dy169 2.339 1_554 S
O183 C170 1.257 . S
C184 C187 1.344 . S
C184 C188 1.328 . S
C184 C190 1.516 . S
C185 C186 1.304 . S
C185 C189 1.323 . S
C186 C185 1.304 . S
C186 C187 1.371 . S
C186 H200 0.930 . S
C187 C184 1.344 . S
C187 C186 1.371 . S
C187 H201 0.931 . S
C188 C184 1.328 . S
C188 C189 1.433 . S
C188 H202 0.931 . S
C189 C185 1.323 . S
C189 C188 1.433 . S
C189 H203 0.933 . S
C190 Dy168 2.738 1_554 S
C190 O173 1.255 . S
C190 O174 1.249 1_554 S
C190 C184 1.516 . S
C191 O175 1.254 . S
C191 O176 1.257 . S
C192 O177 1.266 . S
C192 O178 1.236 . S
C193 C196 1.344 . S
C193 C197 1.328 . S
C193 C199 1.516 . S
C194 C195 1.304 . S
C194 C198 1.323 . S
C195 C194 1.304 . S
C195 C196 1.371 . S
C195 H204 0.930 . S
C196 C193 1.344 . S
C196 C195 1.371 . S
C196 H205 0.931 . S
C197 C193 1.328 . S
C197 C198 1.433 . S
C197 H206 0.931 . S
C198 C194 1.323 . S
C198 C197 1.433 . S
C198 H207 0.933 . S
C199 Dy169 2.738 . S
C199 O179 1.255 . S
C199 O180 1.249 . S
C199 C193 1.516 . S
H200 C186 0.930 . S
H201 C187 0.931 . S
H202 C188 0.931 . S
H203 C189 0.933 . S
H204 C195 0.930 . S
H205 C196 0.931 . S
H206 C197 0.931 . S
H207 C198 0.933 . S
Dy208 O211 2.307 1_455 S
Dy208 O213 2.395 . S
Dy208 O214 2.379 . S
Dy208 O216 2.339 1_556 S
Dy208 O218 2.298 . S
Dy208 O222 2.275 . S
Dy208 C230 2.738 . S
Dy209 O212 2.298 . S
Dy209 O215 2.275 . S
Dy209 O217 2.307 1_655 S
Dy209 O219 2.395 . S
Dy209 O220 2.379 . S
Dy209 O223 2.339 1_554 S
Dy209 C239 2.738 . S
C210 O222 1.254 1_655 S
C210 O223 1.257 . S
O211 Dy208 2.307 1_655 S
O211 C221 1.266 . S
O212 Dy209 2.298 . S
O212 C221 1.236 1_554 S
O213 Dy208 2.395 . S
O213 C230 1.255 . S
O214 Dy208 2.379 . S
O214 C230 1.249 . S
O215 Dy209 2.275 . S
O215 C231 1.254 1_655 S
O216 Dy208 2.339 1_554 S
O216 C231 1.257 . S
O217 Dy209 2.307 1_455 S
O217 C232 1.266 1_554 S
O218 Dy208 2.298 . S
O218 C232 1.236 . S
O219 Dy209 2.395 . S
O219 C239 1.255 . S
O220 Dy209 2.379 . S
O220 C239 1.249 . S
C221 O211 1.266 . S
C221 O212 1.236 1_556 S
O222 Dy208 2.275 . S
O222 C210 1.254 1_455 S
O223 Dy209 2.339 1_556 S
O223 C210 1.257 . S
C224 C227 1.344 . S
C224 C228 1.328 . S
C224 C230 1.516 . S
C225 C226 1.304 . S
C225 C229 1.323 . S
C226 C225 1.304 . S
C226 C227 1.371 . S
C226 H240 0.930 . S
C227 C224 1.344 . S
C227 C226 1.371 . S
C227 H241 0.931 . S
C228 C224 1.328 . S
C228 C229 1.433 . S
C228 H242 0.931 . S
C229 C225 1.323 . S
C229 C228 1.433 . S
C229 H243 0.933 . S
C230 Dy208 2.738 . S
C230 O213 1.255 . S
C230 O214 1.249 . S
C230 C224 1.516 . S
C231 O215 1.254 1_455 S
C231 O216 1.257 . S
C232 O217 1.266 1_556 S
C232 O218 1.236 . S
C233 C236 1.344 . S
C233 C237 1.328 . S
C233 C239 1.516 . S
C234 C235 1.304 . S
C234 C238 1.323 . S
C235 C234 1.304 . S
C235 C236 1.371 . S
C235 H244 0.930 . S
C236 C233 1.344 . S
C236 C235 1.371 . S
C236 H245 0.931 . S
C237 C233 1.328 . S
C237 C238 1.433 . S
C237 H246 0.931 . S
C238 C234 1.323 . S
C238 C237 1.433 . S
C238 H247 0.933 . S
C239 Dy209 2.738 . S
C239 O219 1.255 . S
C239 O220 1.249 . S
C239 C233 1.516 . S
H240 C226 0.930 . S
H241 C227 0.931 . S
H242 C228 0.931 . S
H243 C229 0.933 . S
H244 C235 0.930 . S
H245 C236 0.931 . S
H246 C237 0.931 . S
H247 C238 0.933 . S
C74 C90 2.992 1_545 S
C130 C85 2.633 . S
C194 C52 4.022 . S
C210 C63 3.727 1_655 S
C111 C30 2.975 . S
C41 C151 2.552 . S
C8 C185 3.961 . S
C19 C231 3.719 . S
C105 C62 1.358 1_655 S
C145 C73 2.014 1_565 S
C181 C84 1.844 . S
C51 C225 3.011 . S
C18 C114 0.968 . S
C154 C29 1.648 . S
C192 C40 1.522 . S
C7 C234 2.544 . S
C60 C112 3.421 1_556 S
C71 C152 3.271 . S
C170 C82 1.991 . S
C232 C49 4.265 . S
C16 C101 3.464 1_454 S
C141 C27 3.406 1_565 S
C191 C38 2.005 . S
C5 C221 4.207 1_554 S
