# Generated by pormake.
# Topology ocu, (6,8)-cn, num edge types: 1
# Building blocks:
#     Node 0, Type 0, BuildingBlock: PAMTUU_clean_sbu_0, # of connection points: 6
#     Node 1, Type 0, BuildingBlock: PAMTUU_clean_sbu_0, # of connection points: 6
#     Node 2, Type 0, BuildingBlock: PAMTUU_clean_sbu_0, # of connection points: 6
#     Node 3, Type 0, BuildingBlock: PAMTUU_clean_sbu_0, # of connection points: 6
#     Node 4, Type 0, BuildingBlock: PAMTUU_clean_sbu_0, # of connection points: 6
#     Node 5, Type 0, BuildingBlock: PAMTUU_clean_sbu_0, # of connection points: 6
#     Node 6, Type 0, BuildingBlock: PAMTUU_clean_sbu_0, # of connection points: 6
#     Node 7, Type 0, BuildingBlock: PAMTUU_clean_sbu_0, # of connection points: 6
#     Node 8, Type 1, BuildingBlock: VETTIZ_charged_sbu_0, # of connection points: 8
#     Node 9, Type 1, BuildingBlock: VETTIZ_charged_sbu_0, # of connection points: 8
#     Node 10, Type 1, BuildingBlock: VETTIZ_charged_sbu_0, # of connection points: 8
#     Node 11, Type 1, BuildingBlock: VETTIZ_charged_sbu_0, # of connection points: 8
#     Node 12, Type 1, BuildingBlock: VETTIZ_charged_sbu_0, # of connection points: 8
#     Node 13, Type 1, BuildingBlock: VETTIZ_charged_sbu_0, # of connection points: 8
#     Edge 14, Type (0, 1), BuildingBlock: TEMPAE_clean_linker_10, # of connection points: 2
#     Edge 15, Type (0, 1), BuildingBlock: TEMPAE_clean_linker_10, # of connection points: 2
#     Edge 16, Type (0, 1), BuildingBlock: TEMPAE_clean_linker_10, # of connection points: 2
#     Edge 17, Type (0, 1), BuildingBlock: TEMPAE_clean_linker_10, # of connection points: 2
#     Edge 18, Type (0, 1), BuildingBlock: TEMPAE_clean_linker_10, # of connection points: 2
#     Edge 19, Type (0, 1), BuildingBlock: TEMPAE_clean_linker_10, # of connection points: 2
#     Edge 20, Type (0, 1), BuildingBlock: TEMPAE_clean_linker_10, # of connection points: 2
#     Edge 21, Type (0, 1), BuildingBlock: TEMPAE_clean_linker_10, # of connection points: 2
#     Edge 22, Type (0, 1), BuildingBlock: TEMPAE_clean_linker_10, # of connection points: 2
#     Edge 23, Type (0, 1), BuildingBlock: TEMPAE_clean_linker_10, # of connection points: 2
#     Edge 24, Type (0, 1), BuildingBlock: TEMPAE_clean_linker_10, # of connection points: 2
#     Edge 25, Type (0, 1), BuildingBlock: TEMPAE_clean_linker_10, # of connection points: 2
#     Edge 26, Type (0, 1), BuildingBlock: TEMPAE_clean_linker_10, # of connection points: 2
#     Edge 27, Type (0, 1), BuildingBlock: TEMPAE_clean_linker_10, # of connection points: 2
#     Edge 28, Type (0, 1), BuildingBlock: TEMPAE_clean_linker_10, # of connection points: 2
#     Edge 29, Type (0, 1), BuildingBlock: TEMPAE_clean_linker_10, # of connection points: 2
#     Edge 30, Type (0, 1), BuildingBlock: TEMPAE_clean_linker_10, # of connection points: 2
#     Edge 31, Type (0, 1), BuildingBlock: TEMPAE_clean_linker_10, # of connection points: 2
#     Edge 32, Type (0, 1), BuildingBlock: TEMPAE_clean_linker_10, # of connection points: 2
#     Edge 33, Type (0, 1), BuildingBlock: TEMPAE_clean_linker_10, # of connection points: 2
#     Edge 34, Type (0, 1), BuildingBlock: TEMPAE_clean_linker_10, # of connection points: 2
#     Edge 35, Type (0, 1), BuildingBlock: TEMPAE_clean_linker_10, # of connection points: 2
#     Edge 36, Type (0, 1), BuildingBlock: TEMPAE_clean_linker_10, # of connection points: 2
#     Edge 37, Type (0, 1), BuildingBlock: TEMPAE_clean_linker_10, # of connection points: 2
#     Edge 38, Type (0, 1), BuildingBlock: TEMPAE_clean_linker_10, # of connection points: 2
#     Edge 39, Type (0, 1), BuildingBlock: TEMPAE_clean_linker_10, # of connection points: 2
#     Edge 40, Type (0, 1), BuildingBlock: TEMPAE_clean_linker_10, # of connection points: 2
#     Edge 41, Type (0, 1), BuildingBlock: TEMPAE_clean_linker_10, # of connection points: 2
#     Edge 42, Type (0, 1), BuildingBlock: TEMPAE_clean_linker_10, # of connection points: 2
#     Edge 43, Type (0, 1), BuildingBlock: TEMPAE_clean_linker_10, # of connection points: 2
#     Edge 44, Type (0, 1), BuildingBlock: TEMPAE_clean_linker_10, # of connection points: 2
#     Edge 45, Type (0, 1), BuildingBlock: TEMPAE_clean_linker_10, # of connection points: 2
#     Edge 46, Type (0, 1), BuildingBlock: TEMPAE_clean_linker_10, # of connection points: 2
#     Edge 47, Type (0, 1), BuildingBlock: TEMPAE_clean_linker_10, # of connection points: 2
#     Edge 48, Type (0, 1), BuildingBlock: TEMPAE_clean_linker_10, # of connection points: 2
#     Edge 49, Type (0, 1), BuildingBlock: TEMPAE_clean_linker_10, # of connection points: 2
#     Edge 50, Type (0, 1), BuildingBlock: TEMPAE_clean_linker_10, # of connection points: 2
#     Edge 51, Type (0, 1), BuildingBlock: TEMPAE_clean_linker_10, # of connection points: 2
#     Edge 52, Type (0, 1), BuildingBlock: TEMPAE_clean_linker_10, # of connection points: 2
#     Edge 53, Type (0, 1), BuildingBlock: TEMPAE_clean_linker_10, # of connection points: 2
#     Edge 54, Type (0, 1), BuildingBlock: TEMPAE_clean_linker_10, # of connection points: 2
#     Edge 55, Type (0, 1), BuildingBlock: TEMPAE_clean_linker_10, # of connection points: 2
#     Edge 56, Type (0, 1), BuildingBlock: TEMPAE_clean_linker_10, # of connection points: 2
#     Edge 57, Type (0, 1), BuildingBlock: TEMPAE_clean_linker_10, # of connection points: 2
#     Edge 58, Type (0, 1), BuildingBlock: TEMPAE_clean_linker_10, # of connection points: 2
#     Edge 59, Type (0, 1), BuildingBlock: TEMPAE_clean_linker_10, # of connection points: 2
#     Edge 60, Type (0, 1), BuildingBlock: TEMPAE_clean_linker_10, # of connection points: 2
#     Edge 61, Type (0, 1), BuildingBlock: TEMPAE_clean_linker_10, # of connection points: 2
# Relax obj value: 0.129
# Max RMSD: 0.238
# Mean RMSD: 0.148
data_MOF--net-ocu--node1-PAMTUU_clean_sbu_0--node2-VETTIZ_charged_sbu_0--edge1-TEMPAE_clean_linker_10
_symmetry_space_group_name_H-M    P1
_symmetry_Int_Tables_number       1
_symmetry_cell_setting            triclinic
loop_
_symmetry_equiv_pos_as_xyz
'x, y, z'
_cell_length_a     38.528052
_cell_length_b     41.631145
_cell_length_c     40.786415
_cell_angle_alpha  85.122252
_cell_angle_beta   95.25938
_cell_angle_gamma 103.29832
loop_
_atom_site_label
_atom_site_type_symbol
_atom_site_fract_x
_atom_site_fract_y
_atom_site_fract_z
_atom_type_partial_charge
Tb0 Tb 0.27184 0.29871 0.24165 0.0
Tb1 Tb 0.32455 0.29541 0.30428 0.0
C2 C 0.25453 0.24547 0.29816 0.0
C3 C 0.18622 0.29197 0.19404 0.0
C4 C 0.11334 0.29326 0.18859 0.0
C5 C 0.12582 0.27119 0.17079 0.0
C6 C 0.16214 0.27081 0.17327 0.0
C7 C 0.17328 0.31124 0.21451 0.0
C8 C 0.13725 0.31202 0.21172 0.0
C9 C 0.22462 0.29348 0.19477 0.0
O10 O 0.25269 0.33292 0.27334 0.0
O11 O 0.28697 0.32553 0.32097 0.0
O12 O 0.34928 0.34199 0.2798 0.0
O13 O 0.32042 0.3341 0.22847 0.0
O14 O 0.32598 0.28476 0.35543 0.0
O15 O 0.37476 0.29839 0.33023 0.0
O16 O 0.34879 0.26815 0.26902 0.0
O17 O 0.30634 0.26572 0.22574 0.0
O18 O 0.24262 0.26877 0.28067 0.0
O19 O 0.28875 0.2474 0.30094 0.0
C20 C 0.26068 0.33856 0.3053 0.0
O21 O 0.24592 0.32168 0.2022 0.0
O22 O 0.23476 0.26814 0.21041 0.0
C23 C 0.34692 0.34957 0.24798 0.0
C24 C 0.36929 0.2546 0.37194 0.0
C25 C 0.37988 0.19253 0.39789 0.0
C26 C 0.39156 0.20537 0.36684 0.0
C27 C 0.38612 0.23605 0.35385 0.0
C28 C 0.35757 0.24173 0.40295 0.0
C29 C 0.36268 0.21086 0.41579 0.0
C30 C 0.36004 0.28534 0.3573 0.0
C31 C 0.33664 0.25784 0.23897 0.0
H32 H 0.108 0.25587 0.15331 0.0
H33 H 0.17161 0.25493 0.15812 0.0
H34 H 0.19126 0.32699 0.23154 0.0
H35 H 0.129 0.32955 0.22576 0.0
H36 H 0.40485 0.19161 0.3526 0.0
H37 H 0.39473 0.24498 0.32953 0.0
H38 H 0.34403 0.2554 0.41706 0.0
H39 H 0.35392 0.20166 0.44001 0.0
Tb40 Tb 0.76454 0.32135 0.30248 0.0
Tb41 Tb 0.79762 0.26668 0.26962 0.0
C42 C 0.83026 0.301 0.3333 0.0
C43 C 0.75301 0.40156 0.31101 0.0
C44 C 0.7632 0.46358 0.27609 0.0
C45 C 0.75383 0.46012 0.30901 0.0
C46 C 0.74919 0.42913 0.32663 0.0
C47 C 0.76264 0.40531 0.27843 0.0
C48 C 0.7681 0.43589 0.26132 0.0
C49 C 0.74888 0.36859 0.32766 0.0
O50 O 0.80843 0.3478 0.27294 0.0
O51 O 0.81094 0.30993 0.23595 0.0
O52 O 0.74744 0.26887 0.24185 0.0
O53 O 0.7366 0.31867 0.25404 0.0
O54 O 0.84117 0.2462 0.26232 0.0
O55 O 0.78794 0.22405 0.24312 0.0
O56 O 0.76851 0.24118 0.31109 0.0
O57 O 0.72867 0.27401 0.31438 0.0
O58 O 0.79693 0.29839 0.33866 0.0
O59 O 0.83779 0.29457 0.30419 0.0
C60 C 0.81779 0.34051 0.24469 0.0
O61 O 0.72506 0.34559 0.31308 0.0
O62 O 0.77911 0.35967 0.33476 0.0
C63 C 0.73045 0.293 0.23618 0.0
C64 C 0.82209 0.18847 0.2683 0.0
C65 C 0.82216 0.12799 0.30472 0.0
C66 C 0.82365 0.13035 0.2702 0.0
C67 C 0.82337 0.16046 0.25204 0.0
C68 C 0.81983 0.18591 0.3025 0.0
C69 C 0.81982 0.15611 0.32048 0.0
C70 C 0.8203 0.21998 0.2501 0.0
C71 C 0.73802 0.24545 0.32002 0.0
H72 H 0.74928 0.48106 0.32066 0.0
H73 H 0.742 0.42658 0.35193 0.0
H74 H 0.76509 0.3843 0.26573 0.0
H75 H 0.77401 0.4373 0.23569 0.0
H76 H 0.82569 0.10917 0.25742 0.0
H77 H 0.82447 0.16195 0.22549 0.0
H78 H 0.81863 0.20721 0.3155 0.0
H79 H 0.81976 0.15571 0.34707 0.0
Tb80 Tb 0.84246 0.80188 0.25506 0.0
Tb81 Tb 0.78697 0.77907 0.30796 0.0
C82 C 0.85109 0.83656 0.31997 0.0
C83 C 0.92664 0.82119 0.21406 0.0
C84 C 0.98381 0.79761 0.19545 0.0
C85 C 0.97629 0.82721 0.18017 0.0
C86 C 0.9471 0.83841 0.18887 0.0
C87 C 0.93878 0.79623 0.23379 0.0
C88 C 0.967 0.78426 0.22443 0.0
C89 C 0.88958 0.82383 0.21494 0.0
O90 O 0.86484 0.75947 0.28235 0.0
O91 O 0.82834 0.74771 0.32488 0.0
O92 O 0.76946 0.74088 0.27404 0.0
O93 O 0.79799 0.76884 0.2298 0.0
O94 O 0.78165 0.77079 0.35877 0.0
O95 O 0.73512 0.76359 0.32417 0.0
O96 O 0.75791 0.81213 0.27269 0.0
O97 O 0.80286 0.83519 0.23938 0.0
O98 O 0.86747 0.8221 0.30111 0.0
O99 O 0.81634 0.82853 0.3188 0.0
C100 C 0.85676 0.74238 0.31114 0.0
O101 O 0.86628 0.79571 0.21285 0.0
O102 O 0.88284 0.84126 0.23767 0.0
C103 C 0.7736 0.74488 0.24246 0.0
C104 C 0.73505 0.79419 0.37046 0.0
C105 C 0.72705 0.85402 0.39235 0.0
C106 C 0.70724 0.84135 0.36388 0.0
C107 C 0.71127 0.8117 0.35292 0.0
C108 C 0.75288 0.80583 0.40022 0.0
C109 C 0.74917 0.83567 0.41092 0.0
C110 C 0.74724 0.76861 0.3547 0.0
C111 C 0.76948 0.83373 0.24751 0.0
H112 H 0.99015 0.83952 0.15907 0.0
H113 H 0.9386 0.85843 0.17398 0.0
H114 H 0.92382 0.78329 0.25399 0.0
H115 H 0.97206 0.76196 0.23766 0.0
H116 H 0.68964 0.85498 0.34948 0.0
H117 H 0.69718 0.80352 0.32984 0.0
H118 H 0.77135 0.79285 0.41422 0.0
H119 H 0.76388 0.84462 0.4335 0.0
Tb120 Tb 0.33413 0.76048 0.2827 0.0
Tb121 Tb 0.27484 0.80373 0.29202 0.0
C122 C 0.27623 0.73844 0.3301 0.0
C123 C 0.37911 0.69956 0.25245 0.0
C124 C 0.3875 0.65401 0.20821 0.0
C125 C 0.38765 0.64546 0.24231 0.0
C126 C 0.38365 0.66808 0.26419 0.0
C127 C 0.37765 0.70791 0.21834 0.0
C128 C 0.38194 0.68532 0.19638 0.0
C129 C 0.37537 0.72276 0.27641 0.0
O130 O 0.28694 0.73988 0.25097 0.0
O131 O 0.2587 0.7834 0.24435 0.0
O132 O 0.31978 0.83713 0.27136 0.0
O133 O 0.33904 0.79958 0.24368 0.0
O134 O 0.23374 0.80798 0.3202 0.0
O135 O 0.24772 0.84166 0.27757 0.0
O136 O 0.31602 0.81599 0.33259 0.0
O137 O 0.36326 0.79991 0.31279 0.0
O138 O 0.31089 0.74639 0.32948 0.0
O139 O 0.25656 0.75255 0.30839 0.0
C140 C 0.26306 0.75505 0.23552 0.0
O141 O 0.38255 0.75425 0.26723 0.0
O142 O 0.3466 0.71405 0.29245 0.0
C143 C 0.33911 0.83013 0.24939 0.0
C144 C 0.2298 0.86245 0.32363 0.0
C145 C 0.22639 0.90697 0.37044 0.0
C146 C 0.19701 0.89626 0.34778 0.0
C147 C 0.19867 0.87401 0.32465 0.0
C148 C 0.26004 0.87466 0.34471 0.0
C149 C 0.25836 0.89686 0.36803 0.0
C150 C 0.22907 0.83494 0.30343 0.0
C151 C 0.35056 0.81712 0.33253 0.0
H152 H 0.39124 0.62134 0.25213 0.0
H153 H 0.38432 0.66104 0.2904 0.0
H154 H 0.37368 0.73196 0.20867 0.0
H155 H 0.382 0.69275 0.17028 0.0
H156 H 0.17228 0.90424 0.34871 0.0
H157 H 0.17518 0.86481 0.30848 0.0
H158 H 0.28432 0.86588 0.34413 0.0
H159 H 0.28135 0.90473 0.38519 0.0
Tb160 Tb 0.26823 0.8068 0.7892 0.0
Tb161 Tb 0.32411 0.76204 0.80303 0.0
C162 C 0.33235 0.82509 0.84396 0.0
C163 C 0.23303 0.88063 0.76503 0.0
C164 C 0.24706 0.94565 0.73613 0.0
C165 C 0.26287 0.93885 0.76753 0.0
C166 C 0.25619 0.90642 0.7818 0.0
C167 C 0.21676 0.88776 0.73404 0.0
C168 C 0.22382 0.9198 0.71968 0.0
C169 C 0.22699 0.84592 0.77816 0.0
O170 O 0.30432 0.82349 0.75038 0.0
O171 O 0.35238 0.80323 0.77266 0.0
O172 O 0.29596 0.74674 0.75486 0.0
O173 O 0.24384 0.76088 0.76276 0.0
O174 O 0.37179 0.75442 0.82854 0.0
O175 O 0.3405 0.71847 0.79631 0.0
O176 O 0.27628 0.73325 0.82445 0.0
O177 O 0.24889 0.77485 0.83156 0.0
O178 O 0.31468 0.83686 0.81814 0.0
O179 O 0.33113 0.793 0.84623 0.0
C180 C 0.33811 0.82251 0.75102 0.0
O181 O 0.23023 0.82489 0.75736 0.0
O182 O 0.2422 0.84005 0.80722 0.0
C183 C 0.26125 0.74339 0.74718 0.0
C184 C 0.36031 0.69931 0.84891 0.0
C185 C 0.34968 0.65794 0.90694 0.0
C186 C 0.32093 0.65917 0.88355 0.0
C187 C 0.32621 0.67965 0.85478 0.0
C188 C 0.38891 0.69848 0.87242 0.0
C189 C 0.38369 0.67791 0.90116 0.0
C190 C 0.36486 0.72383 0.82073 0.0
C191 C 0.25186 0.74421 0.83749 0.0
H192 H 0.2804 0.95848 0.78084 0.0
H193 H 0.26926 0.90159 0.80577 0.0
H194 H 0.19874 0.86839 0.72071 0.0
H195 H 0.21036 0.92447 0.69584 0.0
H196 H 0.29456 0.64389 0.88726 0.0
H197 H 0.30352 0.68011 0.83719 0.0
H198 H 0.41521 0.71387 0.86861 0.0
H199 H 0.40665 0.67681 0.9183 0.0
Tb200 Tb 0.32249 0.28447 0.76353 0.0
Tb201 Tb 0.27019 0.28951 0.8204 0.0
C202 C 0.34735 0.33498 0.81618 0.0
C203 C 0.37936 0.24659 0.71815 0.0
C204 C 0.41387 0.19413 0.71442 0.0
C205 C 0.43036 0.22148 0.73259 0.0
C206 C 0.41337 0.24744 0.73437 0.0
C207 C 0.36282 0.2192 0.70001 0.0
C208 C 0.37985 0.19322 0.69823 0.0
C209 C 0.36094 0.27372 0.72083 0.0
O210 O 0.34559 0.26094 0.80818 0.0
O211 O 0.29852 0.25066 0.84144 0.0
O212 O 0.23884 0.26337 0.7796 0.0
O213 O 0.28271 0.23887 0.77012 0.0
O214 O 0.25869 0.31514 0.85829 0.0
O215 O 0.22381 0.26856 0.8455 0.0
O216 O 0.26164 0.32911 0.78329 0.0
O217 O 0.28556 0.31433 0.73854 0.0
O218 O 0.34593 0.33109 0.78457 0.0
O219 O 0.32333 0.31738 0.83515 0.0
C220 C 0.33064 0.24703 0.83534 0.0
O221 O 0.32604 0.26611 0.71778 0.0
O222 O 0.37295 0.29298 0.74488 0.0
C223 C 0.24908 0.24004 0.76619 0.0
C224 C 0.19716 0.31012 0.86237 0.0
C225 C 0.14384 0.34407 0.87259 0.0
C226 C 0.14109 0.31091 0.88474 0.0
C227 C 0.16771 0.29424 0.87994 0.0
C228 C 0.19837 0.34212 0.84771 0.0
C229 C 0.1722 0.35899 0.85298 0.0
C230 C 0.228 0.29468 0.86233 0.0
C231 C 0.26576 0.33168 0.75126 0.0
H232 H 0.45684 0.22325 0.74481 0.0
H233 H 0.42701 0.26822 0.74842 0.0
H234 H 0.33664 0.21778 0.68723 0.0
H235 H 0.36636 0.1724 0.68417 0.0
H236 H 0.11915 0.29821 0.89914 0.0
H237 H 0.16603 0.26942 0.89111 0.0
H238 H 0.2206 0.35487 0.83363 0.0
H239 H 0.1756 0.38448 0.84334 0.0
Tb240 Tb 0.83974 0.25855 0.80435 0.0
Tb241 Tb 0.77916 0.29435 0.77053 0.0
C242 C 0.76318 0.24312 0.83373 0.0
C243 C 0.91924 0.22238 0.82011 0.0
C244 C 0.96316 0.19326 0.78682 0.0
C245 C 0.94648 0.1764 0.81448 0.0
C246 C 0.92472 0.191 0.83114 0.0
C247 C 0.93851 0.24043 0.79436 0.0
C248 C 0.96061 0.226 0.77798 0.0
C249 C 0.88944 0.23338 0.83195 0.0
O250 O 0.82207 0.23308 0.75932 0.0
O251 O 0.76728 0.24645 0.74984 0.0
O252 O 0.81904 0.30367 0.73307 0.0
O253 O 0.86727 0.29735 0.76804 0.0
O254 O 0.72494 0.29481 0.7588 0.0
O255 O 0.76647 0.33716 0.74619 0.0
O256 O 0.81608 0.32922 0.80088 0.0
O257 O 0.83041 0.29115 0.83948 0.0
O258 O 0.79027 0.231 0.82673 0.0
O259 O 0.75848 0.27138 0.81846 0.0
C260 C 0.78956 0.22804 0.74487 0.0
O261 O 0.89087 0.2651 0.82906 0.0
O262 O 0.85787 0.21624 0.82248 0.0
C263 C 0.85412 0.30879 0.73929 0.0
C264 C 0.71758 0.3476 0.76953 0.0
C265 C 0.70483 0.39328 0.81149 0.0
C266 C 0.70998 0.40259 0.77802 0.0
C267 C 0.71646 0.37989 0.75721 0.0
C268 C 0.71043 0.33787 0.80252 0.0
C269 C 0.70401 0.36043 0.82322 0.0
C270 C 0.73257 0.32641 0.75029 0.0
C271 C 0.82747 0.32128 0.83085 0.0
H272 H 0.94808 0.15107 0.82155 0.0
H273 H 0.91002 0.17678 0.85099 0.0
H274 H 0.93454 0.26466 0.78531 0.0
H275 H 0.97289 0.23927 0.75643 0.0
H276 H 0.71071 0.42777 0.76837 0.0
H277 H 0.72244 0.38802 0.73199 0.0
H278 H 0.71143 0.31323 0.81286 0.0
H279 H 0.69932 0.35238 0.84872 0.0
Tb280 Tb 0.81487 0.82119 0.83217 0.0
Tb281 Tb 0.81297 0.7715 0.77195 0.0
C282 C 0.85515 0.8437 0.76928 0.0
C283 C 0.78358 0.87567 0.88449 0.0
C284 C 0.72921 0.90531 0.90191 0.0
C285 C 0.73812 0.90755 0.86898 0.0
C286 C 0.76497 0.89285 0.86036 0.0
C287 C 0.77462 0.87328 0.91729 0.0
C288 C 0.74777 0.88792 0.92593 0.0
C289 C 0.81187 0.85973 0.87586 0.0
O290 O 0.77891 0.83583 0.7935 0.0
O291 O 0.76486 0.79162 0.76032 0.0
O292 O 0.78656 0.74109 0.8119 0.0
O293 O 0.76689 0.7815 0.83492 0.0
O294 O 0.83749 0.76437 0.73029 0.0
O295 O 0.7916 0.72825 0.74665 0.0
O296 O 0.86235 0.77093 0.80314 0.0
O297 O 0.84883 0.7885 0.85151 0.0
O298 O 0.85972 0.84206 0.80166 0.0
O299 O 0.82996 0.8223 0.75415 0.0
C300 C 0.75917 0.81951 0.76974 0.0
O301 O 0.80577 0.82765 0.8811 0.0
O302 O 0.82554 0.86952 0.84765 0.0
C303 C 0.76434 0.75034 0.82956 0.0
C304 C 0.83458 0.70907 0.71978 0.0
C305 C 0.87407 0.66505 0.70097 0.0
C306 C 0.84245 0.66914 0.68258 0.0
C307 C 0.82299 0.69095 0.69188 0.0
C308 C 0.86515 0.70398 0.73921 0.0
C309 C 0.8847 0.68207 0.72993 0.0
C310 C 0.8166 0.73542 0.72598 0.0
C311 C 0.8686 0.77471 0.83508 0.0
H312 H 0.72424 0.92052 0.84981 0.0
H313 H 0.77119 0.89504 0.83482 0.0
H314 H 0.78854 0.86019 0.93633 0.0
H315 H 0.74208 0.88617 0.95161 0.0
H316 H 0.83317 0.65601 0.66049 0.0
H317 H 0.79948 0.69452 0.67657 0.0
H318 H 0.87462 0.71783 0.76083 0.0
H319 H 0.90899 0.67962 0.74455 0.0
Fe320 Fe 0.04164 0.12876 0.52174 0.0
O321 O 1.03598 0.07562 0.52493 0.0
Fe322 Fe 0.09675 0.07398 0.52998 0.0
Fe323 Fe 0.98952 0.03877 0.54112 0.0
O324 O 0.0469 0.08362 0.52625 0.0
O325 O 0.07367 0.02845 0.51214 0.0
O326 O 0.03805 0.03126 0.55263 0.0
Fe327 Fe 0.05692 0.99242 0.54622 0.0
C328 C 0.99882 0.10049 0.57975 0.0
O329 O 1.00462 0.12304 0.48192 0.0
O330 O 0.98512 0.07454 0.50485 0.0
O331 O 0.10033 0.01744 0.51524 0.0
O332 O 0.14331 0.05871 0.53192 0.0
O333 O 0.10178 0.09275 0.48279 0.0
O334 O 0.082 0.13878 0.48836 0.0
O335 O 0.98155 1.00778 0.5023 0.0
O336 O 1.02063 0.97487 0.50853 0.0
C337 C 0.09875 0.12196 0.47293 0.0
O338 O 0.09401 1.00679 0.58393 0.0
O339 O 0.09464 0.06026 0.57991 0.0
O340 O 1.00128 0.12021 0.55384 0.0
O341 O 0.99559 0.06936 0.57901 0.0
C342 C 0.98149 0.09611 0.48196 0.0
C343 C 0.99354 0.98381 0.49371 0.0
C344 C 0.99529 0.97477 0.58962 0.0
O345 O 0.98273 0.9996 0.57709 0.0
O346 O 1.02232 0.96631 0.57946 0.0
C347 C 0.13483 0.02889 0.52381 0.0
O348 O 0.12324 0.11932 0.54694 0.0
O349 O 0.07738 0.13652 0.5626 0.0
C350 C 0.10292 0.03509 0.59541 0.0
C351 C 0.11003 0.13491 0.5663 0.0
Fe352 Fe 0.53891 0.02091 0.06749 0.0
O353 O 0.56944 0.05943 0.08835 0.0
Fe354 Fe 0.45708 0.05159 0.05229 0.0
Fe355 Fe 0.62188 0.07234 0.08681 0.0
O356 O 0.51033 0.05733 0.05093 0.0
O357 O 0.51148 0.06447 0.0541 0.0
O358 O 0.5666 0.07578 0.08587 0.0
Fe359 Fe 0.53897 0.11308 0.05895 0.0
C360 C 0.60596 0.99696 0.11339 0.0
O361 O 0.56589 0.02944 0.02517 0.0
O362 O 0.62065 0.04308 0.04877 0.0
O363 O 0.5009 0.12895 0.02271 0.0
O364 O 0.45589 0.08464 1.01105 0.0
O365 O 0.45554 1.01094 0.02335 0.0
O366 O 0.5004 0.98404 0.04049 0.0
O367 O 0.62688 0.11343 0.05091 0.0
O368 O 0.57403 0.11297 0.02134 0.0
C369 C 0.47102 0.98641 0.02226 0.0
O370 O 0.50672 0.12148 0.09736 0.0
O371 O 0.45304 0.09081 0.08317 0.0
O372 O 0.57704 0.98939 0.09208 0.0
O373 O 0.61954 0.02804 0.11883 0.0
C374 C 0.59919 0.03131 0.02513 0.0
C375 C 0.60876 0.12002 0.02383 0.0
C376 C 0.60422 0.1219 0.11944 0.0
O377 O 0.62686 0.10371 0.12471 0.0
O378 O 0.58101 0.11425 0.09528 0.0
C379 C 0.47183 0.11522 1.00563 0.0
O380 O 0.45707 0.02068 0.09411 0.0
O381 O 0.51135 1.01019 0.1087 0.0
C382 C 0.47239 0.11463 0.09975 0.0
C383 C 0.47916 1.00911 0.11432 0.0
Fe384 Fe 1.0301 0.58776 0.0296 0.0
O385 O 0.98705 0.555 1.0123 0.0
Fe386 Fe 0.09266 0.54056 0.05432 0.0
Fe387 Fe 0.93744 0.55963 0.01736 0.0
O388 O 0.04479 0.54853 0.05291 0.0
O389 O 0.04357 0.54582 0.05354 0.0
O390 O 0.98542 0.55205 1.01362 0.0
Fe391 Fe 1.00106 0.51303 0.03648 0.0
C392 C 0.9791 0.60446 0.07013 0.0
O393 O 1.00767 0.62482 1.00142 0.0
O394 O 0.95235 0.59571 0.98112 0.0
O395 O 1.02636 0.50737 0.99569 0.0
O396 O 0.08058 0.50549 0.01976 0.0
O397 O 0.10818 0.57628 0.01694 0.0
O398 O 0.05806 0.5854 0.98955 0.0
O399 O 0.9228 0.51957 0.98845 0.0
O400 O 0.95459 0.48332 1.01551 0.0
C401 C 0.09181 0.58788 0.99166 0.0
O402 O 1.02127 0.476 0.06264 0.0
O403 O 0.0743 0.50219 0.08911 0.0
O404 O 1.00483 0.59054 0.07032 0.0
O405 O 0.95246 0.59809 0.04901 0.0
C406 C 0.97895 0.62135 0.98085 0.0
C407 C 0.93005 0.49052 0.99393 0.0
C408 C 0.94344 0.51358 0.08001 0.0
O409 O 0.92461 0.52513 0.0567 0.0
O410 O 0.97663 0.51627 0.07825 0.0
C411 C 0.0567 0.49994 0.99579 0.0
O412 O 0.10344 0.57952 0.0846 0.0
O413 O 0.07643 0.61723 0.05297 0.0
C414 C 0.04667 0.47756 0.08594 0.0
C415 C 0.09796 0.60911 0.07733 0.0
Fe416 Fe 0.5652 0.51966 0.99268 0.0
O417 O 0.58645 0.55588 0.0222 0.0
Fe418 Fe 0.50605 0.46324 0.04031 0.0
Fe419 Fe 0.63437 0.58388 0.01721 0.0
O420 O 0.55333 0.49171 0.03403 0.0
O421 O 0.55423 0.49167 0.03695 0.0
O422 O 0.58738 0.5558 0.02495 0.0
Fe423 Fe 0.57453 0.52838 0.06647 0.0
C424 C 0.63968 0.52233 0.98276 0.0
O425 O 0.581 0.5536 0.95221 0.0
O426 O 0.60824 0.60216 0.97619 0.0
O427 O 0.52699 0.5429 0.06226 0.0
O428 O 0.48917 0.49403 0.06988 0.0
O429 O 0.48134 0.48469 1.0005 0.0
O430 O 0.51763 0.5338 0.9898 0.0
O431 O 0.62079 0.61106 0.0525 0.0
O432 O 0.59785 0.5704 0.09204 0.0
C433 C 0.48655 0.51518 0.99117 0.0
O434 O 0.55643 0.49525 0.10659 0.0
O435 O 0.53075 0.44611 0.08315 0.0
O436 O 0.6123 0.50531 0.9959 0.0
O437 O 0.64908 0.55357 0.98507 0.0
C438 C 0.59421 0.58546 0.95095 0.0
C439 C 0.61246 0.60081 0.08246 0.0
C440 C 0.65338 0.53477 0.07339 0.0
O441 O 0.65949 0.56223 0.05634 0.0
O442 O 0.6229 0.51462 0.07225 0.0
C443 C 0.49687 0.52551 0.07016 0.0
O444 O 0.52137 0.43622 1.00579 0.0
O445 O 0.54178 0.47814 0.96675 0.0
C446 C 0.54106 0.46379 0.10853 0.0
C447 C 0.52908 0.44721 0.9758 0.0
Fe448 Fe 0.08476 0.44597 0.51815 0.0
O449 O 0.09104 0.49497 0.51938 0.0
Fe450 Fe 0.06674 0.52021 0.47409 0.0
Fe451 Fe 0.0738 0.51431 0.5575 0.0
O452 O 0.08883 0.49484 0.5132 0.0
O453 O 0.04969 0.53898 0.513 0.0
O454 O 0.05162 0.53936 0.51894 0.0
Fe455 Fe 0.0542 0.58736 0.5181 0.0
C456 C 1.02546 0.44655 0.56669 0.0
O457 O 0.12391 0.4531 0.55722 0.0
O458 O 0.10131 0.48354 0.59149 0.0
O459 O 0.09241 0.60116 0.48431 0.0
O460 O 0.11245 0.55619 0.47636 0.0
O461 O 0.09408 0.49168 0.44118 0.0
O462 O 0.11764 0.45513 0.47797 0.0
O463 O 0.12047 0.55305 0.56482 0.0
O464 O 0.09478 0.59589 0.55606 0.0
C465 C 0.11399 0.46857 0.44807 0.0
O466 O 1.01548 0.5835 0.47798 0.0
O467 O 1.03648 0.55562 0.44044 0.0
O468 O 0.04833 0.43308 0.55568 0.0
O469 O 1.02659 0.47716 0.55901 0.0
C470 C 0.12168 0.46327 0.58612 0.0
C471 C 0.11967 0.58301 0.57021 0.0
C472 C 1.02644 0.55645 0.58406 0.0
O473 O 0.04953 0.53768 0.59024 0.0
O474 O 1.02047 0.57226 0.55593 0.0
C475 C 0.11667 0.58733 0.47678 0.0
O476 O 1.02067 0.48334 0.47065 0.0
O477 O 0.04274 0.43805 0.48317 0.0
C478 C 1.01685 0.5772 0.44752 0.0
C479 C 1.01818 0.45221 0.47069 0.0
Fe480 Fe 0.57318 0.93872 0.55533 0.0
O481 O 0.58246 0.98588 0.55949 0.0
Fe482 Fe 0.57142 0.01836 0.51747 0.0
Fe483 Fe 0.58205 1.01038 0.59935 0.0
O484 O 0.56903 0.98412 0.55504 0.0
O485 O 0.58593 0.0455 0.55662 0.0
O486 O 0.57404 0.04301 0.56218 0.0
Fe487 Fe 0.58355 0.09076 0.56066 0.0
C488 C 0.51564 0.95079 0.59831 0.0
O489 O 0.60737 0.9392 0.59721 0.0
O490 O 0.59688 0.97462 0.63252 0.0
O491 O 0.60589 0.09946 0.51561 0.0
O492 O 0.58228 0.05767 0.4827 0.0
O493 O 0.62153 1.00847 0.5123 0.0
O494 O 0.61617 0.95299 0.52653 0.0
O495 O 0.63551 0.03858 0.60121 0.0
O496 O 0.63294 0.0925 0.58536 0.0
C497 C 0.63313 0.98151 0.51454 0.0
O498 O 0.53317 0.08235 0.53626 0.0
O499 O 0.52113 0.029 0.52031 0.0
O500 O 0.53065 0.93091 0.5848 0.0
O501 O 0.52916 0.98216 0.60076 0.0
C502 C 0.61021 0.95059 0.62576 0.0
C503 C 0.64955 0.07015 0.5981 0.0
C504 C 0.5626 0.06526 0.63278 0.0
O505 O 0.57337 0.03812 0.63606 0.0
O506 O 0.562 0.08347 0.60584 0.0
C507 C 0.60082 0.08694 0.48741 0.0
O508 O 0.54933 0.98529 0.48198 0.0
O509 O 0.53878 0.93709 0.51334 0.0
C510 C 0.51189 0.05625 0.52474 0.0
C511 C 0.53408 0.95456 0.48657 0.0
C512 C 0.19364 0.21585 0.31349 0.0
C513 C 0.23084 0.22184 0.31999 0.0
C514 C 0.17062 0.19706 0.33626 0.0
C515 C 0.18521 0.18467 0.36653 0.0
C516 C 0.22279 0.18961 0.37267 0.0
C517 C 0.24518 0.20788 0.34914 0.0
C518 C 0.1307 0.1914 0.3284 0.0
C519 C 0.23942 0.1771 0.40478 0.0
C520 C 0.12961 0.17261 0.44065 0.0
C521 C 0.11852 0.13807 0.44427 0.0
C522 C 0.15121 0.18804 0.41535 0.0
C523 C 0.16128 0.1685 0.39266 0.0
C524 C 0.1491 0.13368 0.39546 0.0
C525 C 0.12825 0.11886 0.42149 0.0
C526 C 0.16409 0.22523 0.41345 0.0
C527 C 0.15868 0.11197 0.37148 0.0
H528 H 0.1825 0.22645 0.29086 0.0
H529 H 0.27394 0.21262 0.35439 0.0
H530 H 0.11802 0.16472 0.33224 0.0
H531 H 0.11908 0.20487 0.34534 0.0
H532 H 0.12372 0.19996 0.30261 0.0
H533 H 0.26904 0.18185 0.40514 0.0
H534 H 0.23235 0.18939 0.42553 0.0
H535 H 0.2287 0.15014 0.40924 0.0
H536 H 0.12247 0.18758 0.45832 0.0
H537 H 0.11966 0.09213 0.42407 0.0
H538 H 0.15548 0.23589 0.38905 0.0
H539 H 0.19376 0.23192 0.41598 0.0
H540 H 0.15384 0.23684 0.43297 0.0
H541 H 0.15559 0.12247 0.34573 0.0
H542 H 0.14188 0.08643 0.37332 0.0
H543 H 0.18707 0.11059 0.37675 0.0
C544 C 0.81411 0.09082 0.35594 0.0
C545 C 0.82939 0.09895 0.32555 0.0
C546 C 0.83324 0.07845 0.38309 0.0
C547 C 0.86733 0.07274 0.37877 0.0
C548 C 0.87792 0.07279 0.34638 0.0
C549 C 0.85889 0.08636 0.31995 0.0
C550 C 0.81889 0.07555 0.41671 0.0
C551 C 0.91228 0.0638 0.33976 0.0
C552 C 0.94719 0.11495 0.43241 0.0
C553 C 0.9518 0.08976 0.45615 0.0
C554 C 0.91903 0.10976 0.40792 0.0
C555 C 0.89552 0.07806 0.40635 0.0
C556 C 0.89964 0.05258 0.43064 0.0
C557 C 0.92756 0.0589 0.45551 0.0
C558 C 0.91459 0.1385 0.38383 0.0
C559 C 0.87437 0.019 0.43128 0.0
H560 H 0.78977 0.09849 0.35961 0.0
H561 H 0.87013 0.0911 0.29613 0.0
H562 H 0.80986 0.04899 0.42456 0.0
H563 H 0.83978 0.08705 0.43542 0.0
H564 H 0.79565 0.0872 0.41655 0.0
H565 H 0.90633 0.04418 0.32193 0.0
H566 H 0.93039 0.0856 0.32808 0.0
H567 H 0.92653 0.05493 0.3623 0.0
H568 H 0.96544 0.13901 0.43312 0.0
H569 H 0.93042 0.03953 0.47437 0.0
H570 H 0.88613 0.14011 0.38013 0.0
H571 H 0.92356 0.13492 0.35959 0.0
H572 H 0.93061 0.1625 0.39229 0.0
H573 H 0.85282 0.01903 0.4475 0.0
H574 H 0.88818 0.99944 0.44197 0.0
H575 H 0.862 1.01244 0.40639 0.0
C576 C 0.85544 0.86839 0.37038 0.0
C577 C 0.87176 0.86027 0.34379 0.0
C578 C 0.87526 0.88918 0.39424 0.0
C579 C 0.91214 0.9029 0.39104 0.0
C580 C 0.9285 0.89548 0.36375 0.0
C581 C 0.90823 0.87403 0.34068 0.0
C582 C 0.85671 0.89616 0.42302 0.0
C583 C 0.96757 0.90991 0.35911 0.0
C584 C 0.95605 0.97809 0.43967 0.0
C585 C 0.97373 0.96375 0.46661 0.0
C586 C 0.93647 0.9587 0.41457 0.0
C587 C 0.93387 0.92409 0.4168 0.0
C588 C 0.9518 0.90956 0.44392 0.0
C589 C 0.97176 0.92956 0.46824 0.0
C590 C 0.91854 0.97519 0.38562 0.0
C591 C 0.94926 0.87271 0.44763 0.0
H592 H 0.82728 0.85785 0.37305 0.0
H593 H 0.92102 0.86805 0.32012 0.0
H594 H 0.87292 0.8934 0.44658 0.0
H595 H 0.85343 0.92206 0.42004 0.0
H596 H 0.82991 0.8794 0.42491 0.0
H597 H 0.97581 0.9032 0.33567 0.0
H598 H 0.9733 0.93727 0.35922 0.0
H599 H 0.98427 0.90092 0.37992 0.0
H600 H 0.95792 1.00453 0.43801 0.0
H601 H 0.98512 0.91823 0.48912 0.0
H602 H 0.88914 0.96572 0.3851 0.0
H603 H 0.92735 0.96924 0.36215 0.0
H604 H 0.92464 1.00242 0.38674 0.0
H605 H 0.92087 0.85944 0.44892 0.0
H606 H 0.96484 0.86523 0.47012 0.0
H607 H 0.95921 0.86454 0.42579 0.0
C608 C 0.19141 0.91684 0.41518 0.0
C609 C 0.22231 0.92644 0.39793 0.0
C610 C 0.18491 0.93607 0.43933 0.0
C611 C 0.21018 0.96555 0.44668 0.0
C612 C 0.24269 0.97425 0.43107 0.0
C613 C 0.24837 0.95454 0.40664 0.0
C614 C 0.14993 0.92574 0.45556 0.0
C615 C 0.27056 1.00514 0.43881 0.0
C616 C 0.15964 0.02534 0.47127 0.0
C617 C 0.16053 0.01844 0.50541 0.0
C618 C 0.1791 1.01084 0.45191 0.0
C619 C 0.19966 0.98883 0.46727 0.0
C620 C 0.20332 0.9844 0.50216 0.0
C621 C 0.18334 0.99923 0.52098 0.0
C622 C 0.17467 0.01647 0.41483 0.0
C623 C 0.22579 0.96186 0.5194 0.0
H624 H 0.1718 0.89451 0.40921 0.0
H625 H 0.27249 0.9618 0.39353 0.0
H626 H 0.15489 0.92494 0.48279 0.0
H627 H 0.13338 0.94413 0.44831 0.0
H628 H 0.13428 0.90107 0.44851 0.0
H629 H 0.29711 1.00423 0.43083 0.0
H630 H 0.26233 0.02694 0.42566 0.0
H631 H 0.27324 1.00892 0.46561 0.0
H632 H 0.14211 0.04067 0.45958 0.0
H633 H 0.18408 0.99439 0.54756 0.0
H634 H 0.15783 0.99383 0.40425 0.0
H635 H 0.20094 0.0215 0.40408 0.0
H636 H 0.16173 0.03745 0.4072 0.0
H637 H 0.21074 0.93579 0.51822 0.0
H638 H 0.23251 0.96705 0.54579 0.0
H639 H 0.25093 0.96443 0.50715 0.0
C640 C 0.25446 0.98495 0.68703 0.0
C641 C 0.25096 0.97968 0.72103 0.0
C642 C 0.23884 1.0085 0.66855 0.0
C643 C 0.22106 0.02788 0.68515 0.0
C644 C 0.22635 0.02847 0.71992 0.0
C645 C 0.24066 1.00359 0.73778 0.0
C646 C 0.23676 1.00879 0.63132 0.0
C647 C 0.2116 0.05149 0.73852 0.0
C648 C 0.15941 0.06493 0.62332 0.0
C649 C 0.12854 0.03948 0.62429 0.0
C650 C 0.18951 0.06332 0.64494 0.0
C651 C 0.18804 0.03597 0.66834 0.0
C652 C 0.15527 1.01214 0.67148 0.0
C653 C 0.12596 1.01428 0.64929 0.0
C654 C 0.22349 0.08904 0.6399 0.0
C655 C 0.15194 0.9822 0.69576 0.0
H656 H 0.26447 0.96738 0.67444 0.0
H657 H 0.23933 1.00046 0.76433 0.0
H658 H 0.20873 1.00586 0.62067 0.0
H659 H 0.25244 0.03277 0.62134 0.0
H660 H 0.24783 0.98887 0.62266 0.0
H661 H 0.23201 0.06267 0.75779 0.0
H662 H 0.20352 0.07153 0.72206 0.0
H663 H 0.18807 0.03732 0.75133 0.0
H664 H 0.16136 0.08436 0.60364 0.0
H665 H 0.10178 0.99484 0.64988 0.0
H666 H 0.23643 0.08299 0.61876 0.0
H667 H 0.24266 0.09052 0.66205 0.0
H668 H 0.21737 0.11366 0.63311 0.0
H669 H 0.17177 0.96774 0.6915 0.0
H670 H 0.12492 0.96551 0.69378 0.0
H671 H 0.15726 0.99011 0.72134 0.0
C672 C 0.1988 0.23361 0.72211 0.0
C673 C 0.2258 0.22083 0.74043 0.0
C674 C 0.18016 0.21805 0.69436 0.0
C675 C 0.18813 0.18861 0.68513 0.0
C676 C 0.21407 0.17478 0.70473 0.0
C677 C 0.233 0.19136 0.73171 0.0
C678 C 0.15266 0.23366 0.67433 0.0
C679 C 0.22304 0.14315 0.69679 0.0
C680 C 0.11678 0.1387 0.62718 0.0
C681 C 0.13129 0.14739 0.59651 0.0
C682 C 0.13579 0.1506 0.65637 0.0
C683 C 0.16955 0.1728 0.65477 0.0
C684 C 0.18467 0.18108 0.62387 0.0
C685 C 0.16559 0.16777 0.59512 0.0
C686 C 0.12004 0.13902 0.68899 0.0
C687 C 0.22062 0.20458 0.62109 0.0
H688 H 0.19336 0.25662 0.72853 0.0
H689 H 0.25388 0.18141 0.7458 0.0
H690 H 0.1604 0.23968 0.64859 0.0
H691 H 0.12628 0.21595 0.67334 0.0
H692 H 0.14969 0.25666 0.68466 0.0
H693 H 0.23571 0.13131 0.71867 0.0
H694 H 0.19883 0.1253 0.68753 0.0
H695 H 0.2424 0.14892 0.67747 0.0
H696 H 0.09062 0.12213 0.62834 0.0
H697 H 0.17692 0.1742 0.57144 0.0
H698 H 0.11932 0.16042 0.70313 0.0
H699 H 0.13723 0.1244 0.70401 0.0
H700 H 0.09264 0.12336 0.68581 0.0
H701 H 0.22006 0.22869 0.63051 0.0
H702 H 0.22846 0.2089 0.59527 0.0
H703 H 0.24143 0.19457 0.63654 0.0
C704 C 1.00838 0.18721 0.74907 0.0
C705 C 0.97559 0.1748 0.76282 0.0
C706 C 1.01652 0.17375 0.72116 0.0
C707 C 0.99068 0.14806 0.70637 0.0
C708 C 0.95824 0.13448 0.72117 0.0
C709 C 0.95132 0.14779 0.74952 0.0
C710 C 0.0517 0.18886 0.70658 0.0
C711 C 0.92946 0.10793 0.70551 0.0
C712 C 0.98659 0.14288 0.61402 0.0
C713 C 0.99799 0.1136 0.61192 0.0
C714 C 0.98485 0.1548 0.64476 0.0
C715 C 0.99559 0.13737 0.67383 0.0
C716 C 1.00867 0.10862 0.67176 0.0
C717 C 1.00928 0.09682 0.64078 0.0
C718 C 0.97062 0.18553 0.64619 0.0
C719 C 1.02132 0.08999 0.70221 0.0
H720 H 1.02698 0.20828 0.75933 0.0
H721 H 0.92561 0.13873 0.75981 0.0
H722 H 0.0592 0.17261 0.68959 0.0
H723 H 0.0498 0.21257 0.69268 0.0
H724 H 0.07345 0.1946 0.72648 0.0
H725 H 0.90653 0.099 0.72109 0.0
H726 H 0.91934 0.11788 0.6813 0.0
H727 H 0.94046 0.08652 0.70084 0.0
H728 H 0.9781 0.15597 0.5917 0.0
H729 H 1.01887 0.07451 0.63914 0.0
H730 H 0.99134 0.20489 0.65829 0.0
H731 H 0.94711 0.1799 0.66126 0.0
H732 H 0.96255 0.19567 0.62132 0.0
H733 H 0.03804 0.1074 0.71961 0.0
H734 H 1.03702 0.0723 0.69606 0.0
H735 H 0.99793 0.0758 0.71515 0.0
C736 C 0.91453 0.88085 0.75728 0.0
C737 C 0.87817 0.86888 0.74833 0.0
C738 C 0.93719 0.90017 0.7343 0.0
C739 C 0.92289 0.90747 0.70195 0.0
C740 C 0.88581 0.89687 0.6936 0.0
C741 C 0.86398 0.87782 0.71689 0.0
C742 C 0.97655 0.91157 0.74415 0.0
C743 C 0.86929 0.90442 0.65957 0.0
C744 C 0.96666 0.97537 0.64164 0.0
C745 C 0.97941 0.95739 0.61963 0.0
C746 C 0.95053 0.9598 0.66997 0.0
C747 C 0.94629 0.92523 0.67607 0.0
C748 C 0.96032 0.90711 0.65461 0.0
C749 C 0.97714 0.92353 0.62677 0.0
C750 C 0.93661 0.98016 0.69249 0.0
C751 C 0.95588 0.87012 0.66012 0.0
H752 H 0.92554 0.87383 0.78154 0.0
H753 H 0.83571 0.86895 0.71005 0.0
H754 H 0.99198 0.8982 0.73065 0.0
H755 H 0.98583 0.93835 0.73729 0.0
H756 H 0.98275 0.90705 0.77106 0.0
H757 H 0.8398 0.89507 0.65743 0.0
H758 H 0.87533 0.93149 0.65339 0.0
H759 H 0.88096 0.89297 0.64091 0.0
H760 H 0.96922 1.00179 0.63665 0.0
H761 H 0.98727 0.90969 0.60993 0.0
H762 H 0.94423 0.97369 0.7187 0.0
H763 H 0.90697 0.97469 0.68935 0.0
H764 H 0.94684 1.00715 0.68717 0.0
H765 H 0.96501 0.86347 0.68586 0.0
H766 H 0.97099 0.86014 0.643 0.0
H767 H 0.92714 0.85787 0.6564 0.0
C768 C 0.38541 0.22179 0.23368 0.0
C769 C 0.35735 0.23683 0.21921 0.0
C770 C 0.4038 0.20228 0.21594 0.0
C771 C 0.39619 0.19711 0.18116 0.0
C772 C 0.3683 0.21287 0.16634 0.0
C773 C 0.34961 0.23128 0.18496 0.0
C774 C 0.43167 0.18699 0.23551 0.0
C775 C 0.35758 0.21092 0.12999 0.0
C776 C 0.47092 0.16639 0.13461 0.0
C777 C 0.45366 0.13535 0.12178 0.0
C778 C 0.45334 0.18613 0.1529 0.0
C779 C 0.41642 0.17558 0.16087 0.0
C780 C 0.39919 0.14384 0.14856 0.0
C781 C 0.41713 0.12523 0.12945 0.0
C782 C 0.47534 0.21899 0.16326 0.0
C783 C 0.36098 0.12848 0.15548 0.0
H784 H 0.39303 0.22476 0.25967 0.0
H785 H 0.32872 0.24198 0.17197 0.0
H786 H 0.4351 0.16446 0.22466 0.0
H787 H 0.45763 0.20531 0.23613 0.0
H788 H 0.42468 0.18042 0.26143 0.0
H789 H 0.35022 0.23415 0.11942 0.0
H790 H 0.3791 0.20633 0.11596 0.0
H791 H 0.33358 0.19055 0.12647 0.0
H792 H 0.4987 0.17607 0.12977 0.0
H793 H 0.40196 0.10192 0.1206 0.0
H794 H 0.49148 0.21494 0.18655 0.0
H795 H 0.45858 0.23649 0.16726 0.0
H796 H 0.49434 0.23058 0.14445 0.0
H797 H 0.35306 0.13764 0.1778 0.0
H798 H 0.3566 0.10111 0.15877 0.0
H799 H 0.34315 0.13432 0.13398 0.0
C800 C 0.8465 0.40036 0.23172 0.0
C801 C 0.83709 0.36758 0.22238 0.0
C802 C 0.86411 0.42623 0.21054 0.0
C803 C 0.8726 0.41923 0.17924 0.0
C804 C 0.86326 0.38621 0.16972 0.0
C805 C 0.84565 0.36085 0.19134 0.0
C806 C 0.87362 0.46104 0.22168 0.0
C807 C 0.8714 0.37767 0.13642 0.0
C808 C 0.88828 0.48593 0.10887 0.0
C809 C 0.92564 0.49279 0.10796 0.0
C810 C 0.87079 0.46293 0.13267 0.0
C811 C 0.89104 0.44629 0.15618 0.0
C812 C 0.92882 0.45403 0.15622 0.0
C813 C 0.94563 0.47722 0.13225 0.0
C814 C 0.83046 0.45532 0.13167 0.0
C815 C 0.95145 0.437 0.18094 0.0
H816 H 0.84006 0.40592 0.25562 0.0
H817 H 0.83837 0.33572 0.18371 0.0
H818 H 0.90311 0.47007 0.22367 0.0
H819 H 0.86259 0.47787 0.20317 0.0
H820 H 0.86337 0.46267 0.24593 0.0
H821 H 0.8659 0.35054 0.1341 0.0
H822 H 0.85485 0.38855 0.11678 0.0
H823 H 0.8998 0.38843 0.13198 0.0
H824 H 0.8725 0.49773 0.09031 0.0
H825 H 0.97449 0.48232 0.13195 0.0
H826 H 0.82146 0.45586 0.15664 0.0
H827 H 0.81954 0.43001 0.12341 0.0
H828 H 0.81891 0.47302 0.11456 0.0
H829 H 0.94741 0.44241 0.2063 0.0
H830 H 0.98042 0.44491 0.17697 0.0
H831 H 0.94308 0.4098 0.17942 0.0
C832 C 0.75375 0.87741 0.19838 0.0
C833 C 0.74439 0.85685 0.2277 0.0
C834 C 0.7313 0.89805 0.18001 0.0
C835 C 0.69685 0.90026 0.18978 0.0
C836 C 0.68729 0.87971 0.21943 0.0
C837 C 0.71008 0.85898 0.23714 0.0
C838 C 0.7449 0.91785 0.14934 0.0
C839 C 0.65226 0.87966 0.23302 0.0
C840 C 0.65448 0.97993 0.15897 0.0
C841 C 0.62697 0.97034 0.13316 0.0
C842 C 0.67593 0.95831 0.17687 0.0
C843 C 0.67216 0.92422 0.17015 0.0
C844 C 0.64447 0.91409 0.14413 0.0
C845 C 0.62294 0.9363 0.12672 0.0
C846 C 0.70336 0.97253 0.20361 0.0
C847 C 0.6376 0.87911 0.1341 0.0
H848 H 0.77924 0.87736 0.18922 0.0
H849 H 0.70067 0.84427 0.25911 0.0
H850 H 0.72485 0.91187 0.12814 0.0
H851 H 0.74865 0.94463 0.15272 0.0
H852 H 0.77068 0.91308 0.1432 0.0
H853 H 0.64788 0.86354 0.25609 0.0
H854 H 0.65141 0.90523 0.23811 0.0
H855 H 0.62991 0.87102 0.21441 0.0
H856 H 0.65969 1.00532 0.16561 0.0
H857 H 0.60305 0.92672 0.10735 0.0
H858 H 0.73046 0.97181 0.19702 0.0
H859 H 0.69854 0.95728 0.22712 0.0
H860 H 0.70294 0.99848 0.20768 0.0
H861 H 0.66256 0.87419 0.12612 0.0
H862 H 0.61629 0.87407 0.11374 0.0
H863 H 0.62966 0.86161 0.1556 0.0
C864 C 0.24819 0.71385 0.19228 0.0
C865 C 0.23876 0.73853 0.20862 0.0
C866 C 0.22435 0.69624 0.16849 0.0
C867 C 0.18994 0.703 0.16128 0.0
C868 C 0.18065 0.72857 0.17699 0.0
C869 C 0.2053 0.74622 0.20028 0.0
C870 C 0.23557 0.66954 0.15191 0.0
C871 C 0.14411 0.73625 0.17044 0.0
C872 C 0.13649 0.66562 0.08495 0.0
C873 C 0.11807 0.63513 0.09856 0.0
C874 C 0.15927 0.68864 0.10515 0.0
C875 C 0.16286 0.68114 0.1397 0.0
C876 C 0.14245 0.65119 0.15359 0.0
C877 C 0.12072 0.62837 0.13279 0.0
C878 C 0.18081 0.72015 0.08939 0.0
C879 C 0.14452 0.64266 0.19035 0.0
H880 H 0.27413 0.70802 0.19834 0.0
H881 H 0.19775 0.76518 0.2129 0.0
H882 H 0.21939 0.64497 0.16001 0.0
H883 H 0.23058 0.67282 0.12474 0.0
H884 H 0.2643 0.66953 0.15782 0.0
H885 H 0.14236 0.75901 0.18197 0.0
H886 H 0.13728 0.73936 0.14354 0.0
H887 H 0.12371 0.71528 0.18051 0.0
H888 H 0.13443 0.67076 0.05842 0.0
H889 H 0.10601 0.60493 0.1433 0.0
H890 H 0.20959 0.7196 0.09221 0.0
H891 H 0.17777 0.74186 0.10191 0.0
H892 H 0.17277 0.72359 0.06269 0.0
H893 H 0.17159 0.63887 0.19874 0.0
H894 H 0.12452 0.61987 0.1974 0.0
H895 H 0.1401 0.66334 0.2037 0.0
C896 C 0.36479 0.83541 0.90209 0.0
C897 C 0.35383 0.84796 0.87046 0.0
C898 C 0.3843 0.85631 0.92697 0.0
C899 C 0.39478 0.89136 0.92073 0.0
C900 C 0.38435 0.9041 0.8886 0.0
C901 C 0.36399 0.88271 0.86449 0.0
C902 C 0.39319 0.8407 0.96047 0.0
C903 C 0.39493 0.94069 0.87945 0.0
C904 C 0.4147 0.952 0.9923 0.0
C905 C 0.45241 0.95976 0.99811 0.0
C906 C 0.39614 0.92965 0.96839 0.0
C907 C 0.41502 0.91458 0.94788 0.0
C908 C 0.4532 0.92232 0.9535 0.0
C909 C 0.47113 0.9441 0.97844 0.0
C910 C 0.35583 0.92227 0.96504 0.0
C911 C 0.47545 0.90833 0.93234 0.0
H912 H 0.3575 0.80893 0.90778 0.0
H913 H 0.35638 0.8934 0.8405 0.0
H914 H 0.42257 0.84637 0.96623 0.0
H915 H 0.38136 0.85129 0.97966 0.0
H916 H 0.38312 0.81342 0.96205 0.0
H917 H 0.38745 0.94686 0.8531 0.0
H918 H 0.38175 0.95428 0.89496 0.0
H919 H 0.42424 0.94969 0.88431 0.0
H920 H 0.3993 0.96352 1.00678 0.0
H921 H 0.50008 0.94984 0.98162 0.0
H922 H 0.34491 0.89513 0.96711 0.0
H923 H 0.34645 0.93164 0.94033 0.0
H924 H 0.34464 0.93372 0.98407 0.0
H925 H 0.46751 0.88093 0.9341 0.0
H926 H 0.50452 0.91603 0.93953 0.0
H927 H 0.47051 0.9167 0.90611 0.0
C928 C 0.11157 0.39082 0.86339 0.0
C929 C 0.12037 0.36437 0.8837 0.0
C930 C 0.09584 0.41401 0.87602 0.0
C931 C 0.08819 0.41036 0.90958 0.0
C932 C 0.09394 0.38215 0.92932 0.0
C933 C 0.11025 0.35975 0.91629 0.0
C934 C 0.08976 0.44358 0.85409 0.0
C935 C 0.0854 0.37692 0.96507 0.0
C936 C 0.0994 0.48226 0.96291 0.0
C937 C 0.06392 0.48144 0.96875 0.0
C938 C 0.10748 0.46091 0.9415 0.0
C939 C 0.07936 0.43791 0.92572 0.0
C940 C 0.04339 0.43878 0.9294 0.0
C941 C 1.03604 0.46064 0.95092 0.0
C942 C 0.14624 0.46147 0.93763 0.0
C943 C 1.01259 0.41514 0.91263 0.0
H944 H 0.11831 0.39422 0.83792 0.0
H945 H 0.11708 0.33977 0.9325 0.0
H946 H 0.06338 0.44874 0.85753 0.0
H947 H 0.11054 0.46573 0.8609 0.0
H948 H 0.09118 0.44 0.8276 0.0
H949 H 0.0873 0.3519 0.97583 0.0
H950 H 0.1044 0.39558 0.97969 0.0
H951 H 0.05804 0.38026 0.96761 0.0
H952 H 0.12104 0.49882 0.97609 0.0
H953 H 1.00852 0.46003 0.95517 0.0
H954 H 0.15096 0.46158 0.91119 0.0
H955 H 0.15308 0.43883 0.95031 0.0
H956 H 0.16464 0.48336 0.94825 0.0
H957 H 1.01889 0.40978 0.88795 0.0
H958 H 0.98804 0.42512 0.90982 0.0
H959 H 1.00695 0.39142 0.92788 0.0
C960 C 0.71694 0.24113 0.87629 0.0
C961 C 0.73863 0.2251 0.86039 0.0
C962 C 0.69518 0.2248 0.90203 0.0
C963 C 0.69377 0.19093 0.91235 0.0
C964 C 0.71505 0.17447 0.89586 0.0
C965 C 0.7372 0.1916 0.87077 0.0
C966 C 0.67408 0.24419 0.91874 0.0
C967 C 0.71452 0.13846 0.90478 0.0
C968 C 0.66614 0.15481 1.00007 0.0
C969 C 0.62976 0.13857 0.99496 0.0
C970 C 0.68662 0.17205 0.97397 0.0
C971 C 0.67129 0.17312 0.94089 0.0
C972 C 0.63462 0.15663 0.93544 0.0
C973 C 0.61446 0.14008 0.9622 0.0
C974 C 0.72501 0.18937 0.982 0.0
C975 C 0.61663 0.15604 0.90101 0.0
H976 H 0.71754 0.2669 0.86911 0.0
H977 H 0.75335 0.17844 0.85901 0.0
H978 H 0.64523 0.23208 0.91645 0.0
H979 H 0.68261 0.24449 0.94547 0.0
H980 H 0.6776 0.27012 0.90815 0.0
H981 H 0.73062 0.12841 0.88865 0.0
H982 H 0.72521 0.13526 0.93075 0.0
H983 H 0.6866 0.12362 0.90287 0.0
H984 H 0.67885 0.15438 0.02488 0.0
H985 H 0.5867 0.12776 0.95726 0.0
H986 H 0.72929 0.21585 0.97318 0.0
H987 H 0.74302 0.17831 0.96899 0.0
H988 H 0.73286 0.18773 1.00887 0.0
H989 H 0.61754 0.18167 0.89053 0.0
H990 H 0.58829 0.14216 0.90039 0.0
H991 H 0.63124 0.14447 0.88482 0.0
C992 C 0.92074 0.74707 0.83846 0.0
C993 C 0.89765 0.76147 0.85407 0.0
C994 C 0.94465 0.73042 0.8571 0.0
C995 C 0.94462 0.72733 0.89197 0.0
C996 C 0.92398 0.74462 0.90776 0.0
C997 C 0.90097 0.76161 0.88865 0.0
C998 C 0.96778 0.71388 0.83941 0.0
C999 C 0.92315 0.74223 0.94485 0.0
C1000 C 0.94242 0.64317 0.93445 0.0
C1001 C 0.97388 0.64834 0.95566 0.0
C1002 C 0.93371 0.66831 0.91277 0.0
C1003 C 0.95751 0.69967 0.91107 0.0
C1004 C 0.99066 0.70467 0.93041 0.0
C1005 C 0.9983 0.67901 0.95291 0.0
C1006 C 0.89777 0.66162 0.89309 0.0
C1007 C 1.01754 0.73728 0.92844 0.0
H1008 H 0.9192 0.7476 0.81176 0.0
H1009 H 0.88396 0.7733 0.9011 0.0
H1010 H 0.99426 0.71539 0.85322 0.0
H1011 H 0.95476 0.68733 0.83763 0.0
H1012 H 0.97179 0.72523 0.81399 0.0
H1013 H 0.90902 0.76005 0.95342 0.0
H1014 H 0.90924 0.71684 0.95325 0.0
H1015 H 0.95069 0.74689 0.95681 0.0
H1016 H 0.92341 0.61953 0.93545 0.0
H1017 H 1.02294 0.68323 0.96865 0.0
H1018 H 0.90142 0.66633 0.86633 0.0
H1019 H 0.88143 0.67848 0.89982 0.0
H1020 H 0.88239 0.63576 0.89738 0.0
H1021 H 1.01562 0.75055 0.9038 0.0
H1022 H 0.04521 0.73363 0.93384 0.0
H1023 H 1.01259 0.75317 0.9472 0.0
C1024 C 0.06165 0.31682 0.19968 0.0
C1025 C 0.07943 0.3034 0.17751 0.0
C1026 C 0.04317 0.34149 0.18855 0.0
C1027 C 0.04239 0.35211 0.15473 0.0
C1028 C 0.05319 0.33339 0.13178 0.0
C1029 C 0.07161 0.30902 0.14352 0.0
C1030 C 1.02948 0.35937 0.21345 0.0
C1031 C 0.05116 0.34288 0.09518 0.0
C1032 C 1.01129 0.42506 0.11136 0.0
C1033 C 0.04413 0.44814 0.10918 0.0
C1034 C 1.00934 0.39427 0.12869 0.0
C1035 C 0.04093 0.38671 0.14437 0.0
C1036 C 0.07343 0.41117 0.14498 0.0
C1037 C 0.0746 0.44168 0.12735 0.0
C1038 C 0.97398 0.36938 0.12877 0.0
C1039 C 0.10778 0.40419 0.1619 0.0
H1040 H 0.06597 0.31122 0.22598 0.0
H1041 H 0.0842 0.29817 0.12593 0.0
H1042 H 0.0507 0.38096 0.22091 0.0
H1043 H 1.00578 0.36865 0.20287 0.0
H1044 H 1.02232 0.34302 0.23593 0.0
H1045 H 0.05477 0.32273 0.08053 0.0
H1046 H 1.02515 0.34908 0.08683 0.0
H1047 H 0.07261 0.36511 0.08986 0.0
H1048 H 0.98724 0.43049 0.09837 0.0
H1049 H 0.09985 0.45964 0.12622 0.0
H1050 H 0.96466 0.36574 0.15403 0.0
H1051 H 0.97677 0.34497 0.12179 0.0
H1052 H 0.95314 0.37754 0.11159 0.0
H1053 H 0.10373 0.39447 0.18776 0.0
H1054 H 0.12995 0.42661 0.16208 0.0
H1055 H 0.11608 0.38506 0.149 0.0
C1056 C 0.20504 0.73269 0.87839 0.0
C1057 C 0.22632 0.72096 0.85818 0.0
C1058 C 0.18124 0.7107 0.89847 0.0
C1059 C 0.17836 0.6762 0.89798 0.0
C1060 C 0.19908 0.66422 0.87697 0.0
C1061 C 0.22292 0.68673 0.85747 0.0
C1062 C 0.16001 0.72444 0.92098 0.0
C1063 C 0.1966 0.62762 0.87554 0.0
C1064 C 0.15023 0.62194 0.97463 0.0
C1065 C 0.11374 0.60895 0.96655 0.0
C1066 C 0.17135 0.64392 0.95259 0.0
C1067 C 0.15587 0.65278 0.92133 0.0
C1068 C 0.11924 0.63932 0.91264 0.0
C1069 C 0.09846 0.61779 0.93553 0.0
C1070 C 0.21015 0.65814 0.96305 0.0
C1071 C 0.10203 0.64778 0.87926 0.0
H1072 H 0.20748 0.75909 0.87902 0.0
H1073 H 0.23882 0.67741 0.84153 0.0
H1074 H 0.13107 0.71323 0.91671 0.0
H1075 H 0.16804 0.71796 0.94709 0.0
H1076 H 0.16407 0.75177 0.91734 0.0
H1077 H 0.21235 0.62226 0.85599 0.0
H1078 H 0.20668 0.6174 0.89961 0.0
H1079 H 0.16829 0.61441 0.87091 0.0
H1080 H 0.16226 0.61566 0.99869 0.0
H1081 H 0.07031 0.60789 0.92914 0.0
H1082 H 0.21528 0.68554 0.962 0.0
H1083 H 0.2277 0.65154 0.94584 0.0
H1084 H 0.21792 0.6491 0.98846 0.0
H1085 H 0.10338 0.67476 0.87607 0.0
H1086 H 0.07359 0.63442 0.87591 0.0
H1087 H 0.11685 0.64156 0.85948 0.0
C1088 C 0.34061 0.21698 0.89201 0.0
C1089 C 0.35158 0.22753 0.86005 0.0
C1090 C 0.36091 0.19993 0.91547 0.0
C1091 C 0.39325 0.19252 0.90726 0.0
C1092 C 0.40434 0.20297 0.87498 0.0
C1093 C 0.38378 0.22028 0.85217 0.0
C1094 C 0.34766 0.18986 0.94931 0.0
C1095 C 0.43806 0.19568 0.86432 0.0
C1096 C 0.46207 0.17053 0.97697 0.0
C1097 C 0.45389 0.13562 0.97911 0.0
C1098 C 0.44291 0.18919 0.95399 0.0
C1099 C 0.41471 0.17303 0.93187 0.0
C1100 C 0.40692 0.13788 0.93348 0.0
C1101 C 0.42616 0.1199 0.95683 0.0
C1102 C 0.45249 0.22642 0.9538 0.0
C1103 C 0.37781 0.11901 0.91055 0.0
H1104 H 0.31619 0.22239 0.89896 0.0
H1105 H 0.39306 0.22808 0.82784 0.0
H1106 H 0.3424 0.16256 0.95369 0.0
H1107 H 0.36852 0.20054 0.96843 0.0
H1108 H 0.32277 0.19806 0.95249 0.0
H1109 H 0.44319 0.2051 0.8385 0.0
H1110 H 0.46133 0.20706 0.88084 0.0
H1111 H 0.43617 0.16859 0.86643 0.0
H1112 H 0.48297 0.18341 0.99388 0.0
H1113 H 0.41914 0.09312 0.95769 0.0
H1114 H 0.42897 0.23554 0.95952 0.0
H1115 H 0.45974 0.23726 0.92888 0.0
H1116 H 0.47515 0.23556 0.97199 0.0
H1117 H 0.35173 0.12434 0.91483 0.0
H1118 H 0.37548 0.09186 0.91395 0.0
H1119 H 0.38317 0.12716 0.88452 0.0
C1120 C 0.82617 0.34002 0.88662 0.0
C1121 C 0.83806 0.34651 0.85484 0.0
C1122 C 0.83737 0.36348 0.91029 0.0
C1123 C 0.86215 0.39326 0.90216 0.0
C1124 C 0.87389 0.39995 0.86986 0.0
C1125 C 0.86107 0.37664 0.84631 0.0
C1126 C 0.82287 0.3564 0.94395 0.0
C1127 C 0.90102 0.43108 0.86059 0.0
C1128 C 0.87941 0.46775 0.95343 0.0
C1129 C 0.91047 0.46411 0.97279 0.0
C1130 C 0.86249 0.44417 0.93114 0.0
C1131 C 0.87738 0.41668 0.92781 0.0
C1132 C 0.90814 0.41238 0.94788 0.0
C1133 C 0.92415 0.43602 0.97033 0.0
C1134 C 0.82957 0.44953 0.91033 0.0
C1135 C 0.92477 0.38332 0.94496 0.0
H1136 H 0.80792 0.31672 0.89281 0.0
H1137 H 0.8702 0.38133 0.82161 0.0
H1138 H 0.84486 0.35457 0.96307 0.0
H1139 H 0.81121 0.37708 0.94982 0.0
H1140 H 0.80203 0.33304 0.94556 0.0
H1141 H 0.90736 0.43245 0.83441 0.0
H1142 H 0.8909 0.45317 0.86469 0.0
H1143 H 0.92613 0.43216 0.87658 0.0
H1144 H 0.86852 0.48928 0.9553 0.0
H1145 H 0.94819 0.433 0.9851 0.0
H1146 H 0.81013 0.42577 0.90629 0.0
H1147 H 0.83739 0.46112 0.88581 0.0
H1148 H 0.81616 0.46624 0.92179 0.0
H1149 H 0.90573 0.35994 0.95195 0.0
H1150 H 0.94993 0.38472 0.96098 0.0
H1151 H 0.93058 0.38204 0.91901 0.0
C1152 C 0.67817 0.90691 0.9355 0.0
C1153 C 0.70184 0.92217 0.91169 0.0
C1154 C 0.65593 0.92423 0.94859 0.0
C1155 C 0.65725 0.95766 0.93756 0.0
C1156 C 0.67885 0.9723 0.91157 0.0
C1157 C 0.70099 0.95444 0.89902 0.0
C1158 C 0.63333 0.90755 0.97623 0.0
C1159 C 0.6808 1.00773 0.89881 0.0
C1160 C 0.59237 1.0003 0.97318 0.0
C1161 C 0.61384 1.01536 0.99985 0.0
C1162 C 0.60628 0.98232 0.95173 0.0
C1163 C 0.64215 0.97883 0.95758 0.0
C1164 C 0.66398 0.9946 0.98399 0.0
C1165 C 0.64977 1.0129 1.00437 0.0
C1166 C 0.58246 0.96652 0.92332 0.0
C1167 C 0.70218 0.99115 0.99167 0.0
H1168 H 0.67795 0.88169 0.94482 0.0
H1169 H 0.71913 0.96652 0.88063 0.0
H1170 H 0.64567 0.91772 0.99992 0.0
H1171 H 0.60612 0.9125 0.97245 0.0
H1172 H 0.63094 0.88036 0.97844 0.0
H1173 H 0.6931 1.01339 0.87479 0.0
H1174 H 0.65376 1.01316 0.89584 0.0
H1175 H 0.69722 0.02455 0.91687 0.0
H1176 H 0.56463 1.00205 0.96941 0.0
H1177 H 0.66681 0.02432 0.02479 0.0
H1178 H 0.5778 0.9392 0.92704 0.0
H1179 H 0.59572 0.97386 0.89994 0.0
H1180 H 0.55614 0.97351 0.92067 0.0
H1181 H 0.70271 0.9647 0.9972 0.0
H1182 H 0.71561 1.00512 1.01308 0.0
H1183 H 0.71794 1.00017 0.96998 0.0
C1184 C 0.9934 0.77621 0.14229 0.0
C1185 C 0.99984 0.77598 0.17684 0.0
C1186 C 0.99593 0.74925 0.1252 0.0
C1187 C 1.00382 0.72098 0.14312 0.0
C1188 C 1.01484 0.72209 0.17708 0.0
C1189 C 1.01366 0.75008 0.19343 0.0
C1190 C 0.98753 0.75007 0.08826 0.0
C1191 C 1.02546 0.69291 0.19651 0.0
C1192 C 0.95641 0.64176 0.10386 0.0
C1193 C 0.98469 0.63314 0.09027 0.0
C1194 C 0.96273 0.66958 0.12264 0.0
C1195 C 0.99784 0.68972 0.12654 0.0
C1196 C 1.02637 0.68102 0.11272 0.0
C1197 C 1.01946 0.65256 0.0953 0.0
C1198 C 0.93185 0.67756 0.13812 0.0
C1199 C 0.06433 0.70128 0.11571 0.0
H1200 H 0.98328 0.79595 0.12857 0.0
H1201 H 1.02082 0.7504 0.21973 0.0
H1202 H 1.00746 0.74048 0.07623 0.0
H1203 H 0.96083 0.73392 0.08242 0.0
H1204 H 0.98738 0.77546 0.07747 0.0
H1205 H 1.03288 0.69757 0.22293 0.0
H1206 H 1.003 0.67081 0.1949 0.0
H1207 H 0.04854 0.68703 0.18581 0.0
H1208 H 0.9296 0.6266 0.10017 0.0
H1209 H 0.04144 0.64621 0.08466 0.0
H1210 H 0.92582 0.70075 0.12603 0.0
H1211 H 0.93907 0.68163 0.16467 0.0
H1212 H 0.90725 0.65755 0.13584 0.0
H1213 H 0.06654 0.72661 0.12344 0.0
H1214 H 0.07668 0.70323 0.09184 0.0
H1215 H 0.08028 0.68827 0.13405 0.0
C1216 C 0.37453 0.85666 0.20276 0.0
C1217 C 0.36539 0.85726 0.23495 0.0
C1218 C 0.39796 0.88382 0.18839 0.0
C1219 C 0.41293 0.91149 0.2072 0.0
C1220 C 0.40567 0.91108 0.24052 0.0
C1221 C 0.38146 0.88402 0.25392 0.0
C1222 C 0.4052 0.8836 0.15263 0.0
C1223 C 0.422 0.93968 0.2616 0.0
C1224 C 0.48548 0.97008 0.16314 0.0
C1225 C 0.46529 0.99001 0.14416 0.0
C1226 C 0.4695 0.946 0.18649 0.0
C1227 C 0.43272 0.94197 0.19055 0.0
C1228 C 0.41338 0.96447 0.1743 0.0
C1229 C 0.43004 0.98845 0.15133 0.0
C1230 C 0.49111 0.92305 0.20451 0.0
C1231 C 0.37415 0.96118 0.17863 0.0
H1232 H 0.36222 0.83564 0.18847 0.0
H1233 H 0.37497 0.88389 0.27927 0.0
H1234 H 0.39428 0.90315 0.13781 0.0
H1235 H 0.43442 0.88918 0.15001 0.0
H1236 H 0.39296 0.85944 0.14215 0.0
H1237 H 0.42098 0.93205 0.28834 0.0
H1238 H 0.45023 0.95041 0.25637 0.0
H1239 H 0.40692 0.95944 0.256 0.0
H1240 H 0.51305 0.97167 0.15829 0.0
H1241 H 0.41462 1.00447 0.13744 0.0
H1242 H 0.48455 0.89912 0.19273 0.0
H1243 H 0.4845 0.91789 0.23063 0.0
H1244 H 0.52032 0.93347 0.20382 0.0
H1245 H 0.35834 0.9386 0.16717 0.0
H1246 H 0.36419 0.98281 0.16703 0.0
H1247 H 0.36919 0.95848 0.20518 0.0
C1248 C 0.70636 0.27994 0.18002 0.0
C1249 C 0.70029 0.28777 0.2113 0.0
C1250 C 0.67924 0.25964 0.16118 0.0
C1251 C 0.64593 0.24642 0.1747 0.0
C1252 C 0.63788 0.25935 0.20335 0.0
C1253 C 0.6655 0.28002 0.22162 0.0
C1254 C 0.68836 0.24783 0.12974 0.0
C1255 C 0.60199 0.24736 0.21744 0.0
C1256 C 0.59164 0.17746 0.12447 0.0
C1257 C 0.60707 0.15136 0.13785 0.0
C1258 C 0.60108 0.20838 0.13822 0.0
C1259 C 0.62646 0.21291 0.16574 0.0
C1260 C 0.63875 0.1854 0.18144 0.0
C1261 C 0.62898 0.155 0.16715 0.0
C1262 C 0.58608 0.2365 0.12149 0.0
C1263 C 0.66499 0.18866 0.21158 0.0
H1264 H 0.73335 0.28638 0.17205 0.0
H1265 H 0.66089 0.28638 0.24586 0.0
H1266 H 0.69398 0.22281 0.13482 0.0
H1267 H 0.66561 0.24602 0.11075 0.0
H1268 H 0.71234 0.2646 0.11965 0.0
H1269 H 0.59619 0.26613 0.23265 0.0
H1270 H 0.58024 0.24143 0.19761 0.0
H1271 H 0.60213 0.22451 0.23354 0.0
H1272 H 0.57415 0.1745 0.10201 0.0
H1273 H 0.64018 0.13454 0.17793 0.0
H1274 H 0.60212 0.24766 0.10046 0.0
H1275 H 0.58671 0.2561 0.13848 0.0
H1276 H 0.55807 0.22733 0.1114 0.0
H1277 H 0.69123 0.20407 0.20485 0.0
H1278 H 0.66919 0.1643 0.22234 0.0
H1279 H 0.65542 0.20101 0.23088 0.0
C1280 C 0.73212 0.71726 0.87554 0.0
C1281 C 0.73427 0.72505 0.84172 0.0
C1282 C 0.70444 0.69196 0.88734 0.0
C1283 C 0.67766 0.67499 0.86471 0.0
C1284 C 0.67938 0.68348 0.83046 0.0
C1285 C 0.70814 0.70809 0.81931 0.0
C1286 C 0.70414 0.68312 0.92403 0.0
C1287 C 0.65083 0.66674 0.80572 0.0
C1288 C 0.62949 0.59272 0.90263 0.0
C1289 C 0.60387 0.60278 0.91909 0.0
C1290 C 0.65219 0.6154 0.88223 0.0
C1291 C 0.6481 0.6485 0.87743 0.0
C1292 C 0.6188 0.65725 0.8902 0.0
C1293 C 0.59743 0.63442 0.91153 0.0
C1294 C 0.68325 0.60487 0.86968 0.0
C1295 C 0.6124 0.69177 0.88436 0.0
H1296 H 0.75262 0.7304 0.89267 0.0
H1297 H 0.71001 0.71443 0.79309 0.0
H1298 H 0.67985 0.68804 0.93338 0.0
H1299 H 0.70326 0.65634 0.92914 0.0
H1300 H 0.728 0.69739 0.93804 0.0
H1301 H 0.65545 0.67706 0.78005 0.0
H1302 H 0.64992 0.63985 0.80697 0.0
H1303 H 0.62422 0.66956 0.81174 0.0
H1304 H 0.6348 0.56837 0.90892 0.0
H1305 H 0.57773 0.64221 0.92449 0.0
H1306 H 0.70727 0.61242 0.88688 0.0
H1307 H 0.68961 0.61682 0.84497 0.0
H1308 H 0.67782 0.57759 0.86836 0.0
H1309 H 0.63151 0.70852 0.90079 0.0
H1310 H 0.58482 0.69254 0.88964 0.0
H1311 H 0.61682 0.70142 0.85851 0.0
C1312 C 0.36597 0.6388 0.96455 0.0
C1313 C 0.34637 0.63207 0.93426 0.0
C1314 C 0.37836 0.6136 0.98362 0.0
C1315 C 0.37094 0.58175 0.9715 0.0
C1316 C 0.34414 0.57355 0.94564 0.0
C1317 C 0.33208 0.59912 0.92697 0.0
C1318 C 0.40489 0.62249 1.01277 0.0
C1319 C 0.33377 0.53917 0.9335 0.0
C1320 C 0.45631 0.55579 0.9603 0.0
C1321 C 0.45553 0.52996 0.98446 0.0
C1322 C 0.42834 0.57219 0.95549 0.0
C1323 C 0.39938 0.56299 0.97616 0.0
C1324 C 0.39844 0.53672 1.00062 0.0
C1325 C 0.42647 0.52016 1.0042 0.0
C1326 C 0.43041 0.59987 0.92868 0.0
C1327 C 0.36919 0.52706 0.02416 0.0
H1328 H 0.3756 0.66422 0.97101 0.0
H1329 H 0.31588 0.59359 0.90411 0.0
H1330 H 0.40281 0.6015 0.03172 0.0
H1331 H 0.43241 0.62833 1.00444 0.0
H1332 H 0.40081 0.64456 0.02409 0.0
H1333 H 0.30712 0.53479 0.91957 0.0
H1334 H 0.35378 0.5362 0.91673 0.0
H1335 H 0.33329 0.52015 0.95433 0.0
H1336 H 0.47897 0.56323 0.94524 0.0
H1337 H 0.4264 0.50048 0.02343 0.0
H1338 H 0.4326 0.6237 0.93983 0.0
H1339 H 0.40587 0.59545 0.91169 0.0
H1340 H 0.4538 0.60242 0.91384 0.0
H1341 H 0.37715 0.54185 0.04609 0.0
H1342 H 0.36524 0.50054 0.03288 0.0
H1343 H 0.34335 0.53179 1.01296 0.0
C1344 C 0.41262 0.34426 0.82973 0.0
C1345 C 0.38041 0.3537 0.83236 0.0
C1346 C 0.44313 0.3568 0.85031 0.0
C1347 C 0.4413 0.37983 0.87334 0.0
C1348 C 0.40921 0.39078 0.87461 0.0
C1349 C 0.37888 0.377 0.85453 0.0
C1350 C 0.47633 0.34368 0.84886 0.0
C1351 C 0.40647 0.41608 0.89813 0.0
C1352 C 0.4939 0.39328 0.95537 0.0
C1353 C 0.5158 0.4247 0.94883 0.0
C1354 C 0.47205 0.37637 0.92997 0.0
C1355 C 0.47187 0.39151 0.89754 0.0
C1356 C 0.49722 0.42106 0.89013 0.0
C1357 C 0.51926 0.4371 0.91584 0.0
C1358 C 0.4466 0.34393 0.93848 0.0
C1359 C 0.49836 0.43775 0.85578 0.0
H1360 H 0.41331 0.32548 0.81307 0.0
H1361 H 0.3537 0.38384 0.85665 0.0
H1362 H 0.50087 0.36367 0.85106 0.0
H1363 H 0.47794 0.3252 0.86989 0.0
H1364 H 0.47596 0.33143 0.82563 0.0
H1365 H 0.38073 0.42408 0.89389 0.0
H1366 H 0.40873 0.40548 0.92393 0.0
H1367 H 0.42873 0.4382 0.89551 0.0
H1368 H 0.49163 0.38298 0.9806 0.0
H1369 H 0.53692 0.46088 0.91024 0.0
H1370 H 0.44543 0.32615 0.91941 0.0
H1371 H 0.41929 0.34816 0.93925 0.0
H1372 H 0.45446 0.33262 0.96288 0.0
H1373 H 0.49569 0.41947 0.83693 0.0
H1374 H 0.52354 0.45676 0.85279 0.0
H1375 H 0.47555 0.45006 0.85087 0.0
C1376 C 0.67859 0.43934 0.82649 0.0
C1377 C 0.70151 0.41771 0.8347 0.0
C1378 C 0.67265 0.4601 0.84974 0.0
C1379 C 0.69009 0.45911 0.88181 0.0
C1380 C 0.71463 0.43854 0.88964 0.0
C1381 C 0.72024 0.41825 0.86589 0.0
C1382 C 0.64586 0.48138 0.84071 0.0
C1383 C 0.73349 0.43668 0.92366 0.0
C1384 C 0.68392 0.52344 0.94069 0.0
C1385 C 0.65568 0.50597 0.95908 0.0
C1386 C 0.69589 0.50848 0.91555 0.0
C1387 C 0.67879 0.47561 0.90849 0.0
C1388 C 0.6506 0.45782 0.92722 0.0
C1389 C 0.63978 0.47303 0.95247 0.0
C1390 C 0.72636 0.52789 0.89625 0.0
C1391 C 0.63132 0.42283 0.92025 0.0
H1392 H 0.66406 0.43892 0.80242 0.0
H1393 H 0.73867 0.40212 0.87202 0.0
H1394 H 0.62143 0.47111 0.85402 0.0
H1395 H 0.65683 0.5069 0.84836 0.0
H1396 H 0.63805 0.48251 0.81381 0.0
H1397 H 0.7511 0.4188 0.92602 0.0
H1398 H 0.74973 0.46148 0.92945 0.0
H1399 H 0.71364 0.42906 0.9425 0.0
H1400 H 0.69618 0.54893 0.94548 0.0
H1401 H 0.61785 0.45919 0.96636 0.0
H1402 H 0.71739 0.53001 0.86967 0.0
H1403 H 0.74847 0.51464 0.89849 0.0
H1404 H 0.73687 0.55316 0.90484 0.0
H1405 H 0.61968 0.42204 0.89434 0.0
H1406 H 0.60943 0.41274 0.93677 0.0
H1407 H 0.65045 0.40635 0.92332 0.0
C1408 C 0.72872 0.50363 0.25101 0.0
C1409 C 0.76097 0.49322 0.25422 0.0
C1410 C 0.71741 0.51811 0.22094 0.0
C1411 C 0.73883 0.52174 0.19388 0.0
C1412 C 0.77397 0.51667 0.19884 0.0
C1413 C 0.78502 0.50302 0.22947 0.0
C1414 C 0.68053 0.5252 0.21706 0.0
C1415 C 0.798 0.5216 0.17079 0.0
C1416 C 0.67988 0.49917 0.11637 0.0
C1417 C 0.68002 0.53036 0.10067 0.0
C1418 C 0.7012 0.49598 0.14568 0.0
C1419 C 0.72196 0.52479 0.16006 0.0
C1420 C 0.72344 0.55618 0.14351 0.0
C1421 C 0.70296 0.5585 0.11366 0.0
C1422 C 0.70021 0.46187 0.16203 0.0
C1423 C 0.74542 0.58757 0.15749 0.0
H1424 H 0.71026 0.49662 0.27027 0.0
H1425 H 0.81048 0.49577 0.23248 0.0
H1426 H 0.67924 0.54608 0.19857 0.0
H1427 H 0.66097 0.50301 0.20844 0.0
H1428 H 0.67241 0.53106 0.24091 0.0
H1429 H 0.82523 0.51813 0.17913 0.0
H1430 H 0.78607 0.50373 0.15192 0.0
H1431 H 0.80032 0.5468 0.15871 0.0
H1432 H 0.66245 0.47741 0.10624 0.0
H1433 H 0.70328 0.58282 0.10165 0.0
H1434 H 0.68572 0.45871 0.18479 0.0
H1435 H 0.72776 0.45871 0.16933 0.0
H1436 H 0.6866 0.44203 0.14564 0.0
H1437 H 0.74864 0.5857 0.18484 0.0
H1438 H 0.7331 0.60879 0.14946 0.0
H1439 H 0.77237 0.59313 0.14799 0.0
C1440 C 0.71078 0.71869 0.22546 0.0
C1441 C 0.74717 0.72441 0.22018 0.0
C1442 C 0.68471 0.70121 0.20333 0.0
C1443 C 0.69551 0.68779 0.17623 0.0
C1444 C 0.73239 0.69379 0.17072 0.0
C1445 C 0.75773 0.71259 0.19253 0.0
C1446 C 0.64565 0.69773 0.20848 0.0
C1447 C 0.74588 0.68133 0.14169 0.0
C1448 C 0.63617 0.61158 0.14027 0.0
C1449 C 0.62665 0.62403 0.10848 0.0
C1450 C 0.65709 0.63241 0.16328 0.0
C1451 C 0.66841 0.6666 0.15439 0.0
C1452 C 0.65648 0.67973 0.12336 0.0
C1453 C 0.63598 0.65822 0.1006 0.0
C1454 C 0.66937 0.61721 0.19599 0.0
C1455 C 0.66721 0.71619 0.11342 0.0
H1456 H 0.70266 0.72888 0.24637 0.0
H1457 H 0.78589 0.71766 0.18817 0.0
H1458 H 0.63189 0.70716 0.18584 0.0
H1459 H 0.63242 0.6713 0.21303 0.0
H1460 H 0.64177 0.71142 0.22958 0.0
H1461 H 0.75552 0.70263 0.12402 0.0
H1462 H 0.76914 0.67035 0.15005 0.0
H1463 H 0.72544 0.66278 0.12833 0.0
H1464 H 0.62946 0.58515 0.14652 0.0
H1465 H 0.62854 0.66803 0.07615 0.0
H1466 H 0.66841 0.63262 0.21658 0.0
H1467 H 0.69755 0.6154 0.1953 0.0
H1468 H 0.65277 0.5921 0.20156 0.0
H1469 H 0.66471 0.73114 0.134 0.0
H1470 H 0.65072 0.72324 0.09138 0.0
H1471 H 0.69563 0.72251 0.10753 0.0
C1472 C 0.42347 0.61491 0.19457 0.0
C1473 C 0.3957 0.63124 0.18547 0.0
C1474 C 0.43378 0.59532 0.17272 0.0
C1475 C 0.41597 0.59198 0.14084 0.0
C1476 C 0.38687 0.60721 0.13191 0.0
C1477 C 0.37722 0.62689 0.1543 0.0
C1478 C 0.46496 0.57948 0.18329 0.0
C1479 C 0.36683 0.60423 0.09836 0.0
C1480 C 0.47875 0.57708 0.08128 0.0
C1481 C 0.47162 0.54241 0.08301 0.0
C1482 C 0.45864 0.59371 0.09781 0.0
C1483 C 0.43063 0.57523 0.1164 0.0
C1484 C 0.42102 0.54038 0.11556 0.0
C1485 C 0.44177 0.52428 0.09896 0.0
C1486 C 0.4691 0.63099 0.09739 0.0
C1487 C 0.39016 0.52006 0.13381 0.0
H1488 H 0.43821 0.61851 0.21841 0.0
H1489 H 0.35543 0.63914 0.14726 0.0
H1490 H 0.45739 0.55267 0.17935 0.0
H1491 H 0.48763 0.59067 0.168 0.0
H1492 H 0.47428 0.58258 0.20966 0.0
H1493 H 0.33856 0.60568 0.09966 0.0
H1494 H 0.37942 0.62518 0.08158 0.0
H1495 H 0.36727 0.58082 0.08747 0.0
H1496 H 0.50114 0.59133 0.06822 0.0
H1497 H 0.43557 0.49749 0.09982 0.0
H1498 H 0.48023 0.63858 0.12235 0.0
H1499 H 0.44525 0.64158 0.09094 0.0
H1500 H 0.48943 0.64178 0.07951 0.0
H1501 H 0.39715 0.52066 0.16079 0.0
H1502 H 0.38326 0.49386 0.12729 0.0
H1503 H 0.36622 0.53072 0.12825 0.0
C1504 C 0.41089 0.38084 0.25112 0.0
C1505 C 0.37745 0.37308 0.23317 0.0
C1506 C 0.44159 0.39822 0.23586 0.0
C1507 C 0.43876 0.40843 0.20194 0.0
C1508 C 0.40472 0.40265 0.18426 0.0
C1509 C 0.37454 0.38481 0.19999 0.0
C1510 C 0.47731 0.40423 0.25561 0.0
C1511 C 0.40041 0.41405 0.14826 0.0
C1512 C 0.51082 0.47062 0.15812 0.0
C1513 C 0.52403 0.44992 0.13934 0.0
C1514 C 0.48452 0.45746 0.1803 0.0
C1515 C 0.47146 0.42277 0.18406 0.0
C1516 C 0.4873 0.40172 0.16767 0.0
C1517 C 0.51326 0.41555 0.14537 0.0
C1518 C 0.4685 0.48095 0.1971 0.0
C1519 C 0.47476 0.36456 0.17155 0.0
H1520 H 0.41353 0.37189 0.27676 0.0
H1521 H 0.34882 0.3792 0.186 0.0
H1522 H 0.49447 0.38939 0.24644 0.0
H1523 H 0.49131 0.43063 0.25242 0.0
H1524 H 0.47461 0.39746 0.28234 0.0
H1525 H 0.37187 0.41011 0.13881 0.0
H1526 H 0.41312 0.44073 0.14449 0.0
H1527 H 0.4141 0.40031 0.13336 0.0
H1528 H 0.51854 0.49723 0.15339 0.0
H1529 H 0.52338 0.39943 0.13098 0.0
H1530 H 0.46084 0.47093 0.22214 0.0
H1531 H 0.44399 0.4848 0.18229 0.0
H1532 H 0.48736 0.50541 0.19913 0.0
H1533 H 0.47334 0.35607 0.19803 0.0
H1534 H 0.49262 0.3517 0.16042 0.0
H1535 H 0.44744 0.35707 0.15937 0.0
C1536 C 0.91305 0.62336 0.70976 0.0
C1537 C 0.897 0.64503 0.6885 0.0
C1538 C 0.93509 0.60491 0.6978 0.0
C1539 C 0.94154 0.6085 0.66388 0.0
C1540 C 0.92542 0.63039 0.64241 0.0
C1541 C 0.90341 0.64825 0.65493 0.0
C1542 C 0.95153 0.58166 0.7214 0.0
C1543 C 0.9318 0.63533 0.60613 0.0
C1544 C 1.02301 0.59202 0.62861 0.0
C1545 C 1.00784 0.56383 0.61145 0.0
C1546 C 1.00237 0.60545 0.64812 0.0
C1547 C 0.96568 0.59025 0.65041 0.0
C1548 C 0.95113 0.56015 0.63523 0.0
C1549 C 0.97234 0.54748 0.61555 0.0
C1550 C 1.01909 0.63755 0.66372 0.0
C1551 C 0.9124 0.54277 0.63746 0.0
H1552 H 0.90809 0.6206 0.73569 0.0
H1553 H 0.89172 0.66539 0.63843 0.0
H1554 H 0.94375 0.55626 0.71275 0.0
H1555 H 0.98112 0.58931 0.72208 0.0
H1556 H 0.9432 0.58103 0.74686 0.0
H1557 H 0.91717 0.65316 0.59273 0.0
H1558 H 0.96079 0.64459 0.60302 0.0
H1559 H 0.92321 0.61138 0.59445 0.0
H1560 H 0.05038 0.60488 0.62491 0.0
H1561 H 0.96057 0.52591 0.60184 0.0
H1562 H 1.01147 0.63663 0.6894 0.0
H1563 H 1.00911 0.65801 0.6496 0.0
H1564 H 0.04875 0.64343 0.66393 0.0
H1565 H 0.90454 0.54186 0.66308 0.0
H1566 H 0.90692 0.51714 0.6294 0.0
H1567 H 0.89528 0.55672 0.62145 0.0
C1568 C 0.39808 0.84892 0.73106 0.0
C1569 C 0.36076 0.84386 0.72669 0.0
C1570 C 0.41996 0.86891 0.70818 0.0
C1571 C 0.40412 0.88384 0.67999 0.0
C1572 C 0.3665 0.87928 0.67563 0.0
C1573 C 0.34523 0.85944 0.69914 0.0
C1574 C 0.46007 0.87383 0.71403 0.0
C1575 C 0.3488 0.8951 0.64601 0.0
C1576 C 0.46965 0.95315 0.63719 0.0
C1577 C 0.48226 0.9358 0.61453 0.0
C1578 C 0.44225 0.93713 0.65724 0.0
C1579 C 0.42725 0.90297 0.65458 0.0
C1580 C 0.43773 0.88608 0.62985 0.0
C1581 C 0.4651 0.90268 0.61013 0.0
C1582 C 0.43158 0.95644 0.68281 0.0
C1583 C 0.42179 0.84983 0.62569 0.0
H1584 H 0.41031 0.83735 0.75248 0.0
H1585 H 0.31639 0.85577 0.69564 0.0
H1586 H 0.47079 0.8638 0.69373 0.0
H1587 H 0.47266 0.90063 0.71409 0.0
H1588 H 0.46818 0.86149 0.73779 0.0
H1589 H 0.31926 0.88984 0.64668 0.0
H1590 H 0.35929 0.9223 0.64473 0.0
H1591 H 0.35528 0.88593 0.62306 0.0
H1592 H 0.48241 0.97882 0.64063 0.0
H1593 H 0.4741 0.88916 0.59225 0.0
H1594 H 0.44926 0.95506 0.70571 0.0
H1595 H 0.40352 0.94661 0.68901 0.0
H1596 H 0.43483 0.9829 0.67411 0.0
H1597 H 0.43113 0.8349 0.6471 0.0
H1598 H 0.42949 0.84145 0.60281 0.0
H1599 H 0.39218 0.84472 0.62504 0.0
C1600 C 0.25439 0.36326 0.69592 0.0
C1601 C 0.24583 0.35374 0.72872 0.0
C1602 C 0.23506 0.38297 0.67452 0.0
C1603 C 0.20546 0.39323 0.68543 0.0
C1604 C 0.19675 0.38373 0.71855 0.0
C1605 C 0.217 0.36463 0.73961 0.0
C1606 C 0.24623 0.3926 0.63991 0.0
C1607 C 0.16519 0.39292 0.73161 0.0
C1608 C 0.16825 0.46405 0.63572 0.0
C1609 C 0.14078 0.4466 0.61452 0.0
C1610 C 0.18925 0.44728 0.65888 0.0
C1611 C 0.18251 0.412 0.66171 0.0
C1612 C 0.15389 0.39448 0.64109 0.0
C1613 C 0.13404 0.41178 0.61775 0.0
C1614 C 0.21959 0.46745 0.67957 0.0
C1615 C 0.14444 0.35714 0.64325 0.0
H1616 H 0.27643 0.35534 0.68684 0.0
H1617 H 0.20951 0.35748 0.76461 0.0
H1618 H 0.22476 0.38075 0.6219 0.0
H1619 H 0.25022 0.41976 0.63479 0.0
H1620 H 0.27129 0.38514 0.63576 0.0
H1621 H 0.16246 0.38489 0.75811 0.0
H1622 H 0.1678 0.42008 0.72848 0.0
H1623 H 0.14025 0.3813 0.71725 0.0
H1624 H 0.17434 0.49085 0.63327 0.0
H1625 H 0.11311 0.39785 0.60155 0.0
H1626 H 0.24532 0.46258 0.67345 0.0
H1627 H 0.21673 0.46001 0.70612 0.0
H1628 H 0.22088 0.49441 0.67557 0.0
H1629 H 0.16692 0.34768 0.63559 0.0
H1630 H 0.12001 0.34704 0.62738 0.0
H1631 H 0.14008 0.34754 0.66912 0.0
C1632 C 0.80018 0.18241 0.71273 0.0
C1633 C 0.77682 0.20047 0.72278 0.0
C1634 C 0.78766 0.15643 0.69161 0.0
C1635 C 0.751 0.14845 0.68036 0.0
C1636 C 0.7273 0.16625 0.69098 0.0
C1637 C 0.7405 0.19197 0.71188 0.0
C1638 C 0.81385 0.13823 0.68078 0.0
C1639 C 0.68786 0.15848 0.67992 0.0
C1640 C 0.70638 0.11274 0.602 0.0
C1641 C 0.68522 0.08299 0.6146 0.0
C1642 C 0.73228 0.13265 0.62248 0.0
C1643 C 0.73665 0.12268 0.65637 0.0
C1644 C 0.71918 0.09045 0.6679 0.0
C1645 C 0.69362 0.07081 0.64673 0.0
C1646 C 0.75119 0.16631 0.60883 0.0
C1647 C 0.72377 0.07847 0.70364 0.0
H1648 H 0.8283 0.18877 0.72104 0.0
H1649 H 0.72209 0.20545 0.7197 0.0
H1650 H 0.80212 0.11127 0.68064 0.0
H1651 H 0.82049 0.14725 0.65523 0.0
H1652 H 0.8391 0.14227 0.69693 0.0
H1653 H 0.6729 0.17395 0.69134 0.0
H1654 H 0.68423 0.16266 0.65271 0.0
H1655 H 0.67576 0.1321 0.68637 0.0
H1656 H 0.70032 0.12195 0.57695 0.0
H1657 H 0.67746 0.04774 0.65656 0.0
H1658 H 0.77935 0.17267 0.61921 0.0
H1659 H 0.73761 0.18525 0.61585 0.0
H1660 H 0.75078 0.1676 0.58148 0.0
H1661 H 0.75195 0.08646 0.71358 0.0
H1662 H 0.71539 0.05109 0.70701 0.0
H1663 H 0.70697 0.0893 0.71833 0.0
C1664 C 0.84804 0.33077 0.38481 0.0
C1665 C 0.85804 0.31998 0.3561 0.0
C1666 C 0.87246 0.35296 0.40432 0.0
C1667 C 0.90795 0.36429 0.39522 0.0
C1668 C 0.91866 0.35264 0.36696 0.0
C1669 C 0.8935 0.33065 0.34763 0.0
C1670 C 0.86007 0.36477 0.43431 0.0
C1671 C 0.95653 0.36381 0.35689 0.0
C1672 C 0.96579 0.44351 0.42831 0.0
C1673 C 0.98684 0.43077 0.45373 0.0
C1674 C 0.93944 0.42215 0.4093 0.0
C1675 C 0.93421 0.38745 0.416 0.0
C1676 C 0.95437 0.37463 0.44249 0.0
C1677 C 0.98025 0.39641 0.46107 0.0
C1678 C 0.91797 0.43662 0.38145 0.0
C1679 C 0.94946 0.33782 0.45057 0.0
H1680 H 0.8207 0.32265 0.39161 0.0
H1681 H 0.9014 0.32252 0.32546 0.0
H1682 H 0.87637 0.35855 0.45678 0.0
H1683 H 0.86389 0.39209 0.43187 0.0
H1684 H 0.83146 0.35366 0.43789 0.0
H1685 H 0.96066 0.35217 0.33447 0.0
H1686 H 0.96326 0.39107 0.35199 0.0
H1687 H 0.97551 0.35764 0.37729 0.0
H1688 H 0.9708 0.46999 0.42247 0.0
H1689 H 0.99607 0.38634 0.48099 0.0
H1690 H 0.88895 0.42701 0.38408 0.0
H1691 H 0.9239 0.42893 0.35756 0.0
H1692 H 0.92392 0.46407 0.38055 0.0
H1693 H 0.92115 0.32654 0.45505 0.0
H1694 H 0.96659 0.33195 0.47266 0.0
H1695 H 0.95608 0.32597 0.42931 0.0
C1696 C 0.68958 0.89028 0.40802 0.0
C1697 C 0.72353 0.88564 0.40367 0.0
C1698 C 0.6856 0.91752 0.42381 0.0
C1699 C 0.71655 0.94083 0.43519 0.0
C1700 C 0.75079 0.93797 0.42773 0.0
C1701 C 0.75391 0.91004 0.41233 0.0
C1702 C 0.64829 0.91958 0.43075 0.0
C1703 C 0.78439 0.96299 0.43744 0.0
C1704 C 0.67475 1.0002 0.46999 0.0
C1705 C 0.66674 0.98213 0.50001 0.0
C1706 C 0.69806 0.99112 0.44986 0.0
C1707 C 0.71236 0.96321 0.46009 0.0
C1708 C 0.71037 0.95002 0.49317 0.0
C1709 C 0.68715 0.95955 0.51281 0.0
C1710 C 0.70298 1.00796 0.41588 0.0
C1711 C 0.72767 0.92191 0.50595 0.0
H1712 H 0.66617 0.87143 0.401 0.0
H1713 H 0.78016 0.90683 0.40788 0.0
H1714 H 0.64552 0.91679 0.45775 0.0
H1715 H 0.64315 0.944 0.42152 0.0
H1716 H 0.62729 0.90012 0.41899 0.0
H1717 H 0.80232 0.9683 0.41688 0.0
H1718 H 0.77891 0.98657 0.44402 0.0
H1719 H 0.79908 0.95246 0.45882 0.0
H1720 H 0.65994 0.01868 0.46056 0.0
H1721 H 0.68215 0.94677 0.53682 0.0
H1722 H 0.68248 0.99449 0.39798 0.0
H1723 H 0.72976 1.00789 0.4079 0.0
H1724 H 0.69981 0.03389 0.41516 0.0
H1725 H 0.71266 0.89876 0.49498 0.0
H1726 H 0.72793 0.91789 0.53325 0.0
H1727 H 0.75556 0.92687 0.49877 0.0
C1728 C 0.27835 0.70658 0.38452 0.0
C1729 C 0.25905 0.71435 0.35526 0.0
C1730 C 0.26117 0.68508 0.40939 0.0
C1731 C 0.22417 0.67112 0.4044 0.0
C1732 C 0.2049 0.67822 0.37446 0.0
C1733 C 0.22261 0.69991 0.35031 0.0
C1734 C 0.28226 0.67812 0.4412 0.0
C1735 C 0.1654 0.66335 0.36807 0.0
C1736 C 0.17141 0.59456 0.44644 0.0
C1737 C 0.14949 0.6083 0.46419 0.0
C1738 C 0.19894 0.61489 0.42933 0.0
C1739 C 0.2046 0.64955 0.43033 0.0
C1740 C 0.18533 0.6633 0.45123 0.0
C1741 C 0.15774 0.64243 0.46786 0.0
C1742 C 0.21917 0.59937 0.40742 0.0
C1743 C 0.19127 0.70022 0.45338 0.0
H1744 H 0.30657 0.71794 0.38833 0.0
H1745 H 0.20779 0.70567 0.32751 0.0
H1746 H 0.27335 0.68961 0.46154 0.0
H1747 H 0.27734 0.65112 0.44776 0.0
H1748 H 0.31146 0.68802 0.43971 0.0
H1749 H 0.15484 0.67063 0.34295 0.0
H1750 H 0.16031 0.63596 0.37092 0.0
H1751 H 0.15013 0.67144 0.38637 0.0
H1752 H 0.16564 0.56809 0.44403 0.0
H1753 H 0.14154 0.65304 0.4824 0.0
H1754 H 0.24791 0.61191 0.40856 0.0
H1755 H 0.20823 0.60213 0.38145 0.0
H1756 H 0.21672 0.57258 0.41428 0.0
H1757 H 0.22021 0.71206 0.45459 0.0
H1758 H 0.17953 0.70645 0.47524 0.0
H1759 H 0.17849 0.71098 0.4309 0.0
C1760 C 0.42401 0.15822 0.41427 0.0
C1761 C 0.38867 0.16163 0.41301 0.0
C1762 C 0.43461 0.13179 0.43264 0.0
C1763 C 0.40897 0.10786 0.44979 0.0
C1764 C 0.37256 0.10964 0.4463 0.0
C1765 C 0.36289 0.13695 0.42831 0.0
C1766 C 0.47384 0.131 0.43557 0.0
C1767 C 0.34405 0.08395 0.46281 0.0
C1768 C 0.45915 0.04439 0.48382 0.0
C1769 C 0.47577 0.05974 0.51228 0.0
C1770 C 0.43205 0.05662 0.465 0.0
C1771 C 0.42213 0.08479 0.47496 0.0
C1772 C 0.4344 0.09631 0.50656 0.0
C1773 C 0.46123 0.08359 0.5249 0.0
C1774 C 0.41763 0.04225 0.43247 0.0
C1775 C 0.42333 0.12541 0.51883 0.0
H1776 H 0.44392 0.17739 0.40251 0.0
H1777 H 0.33535 0.13937 0.42683 0.0
H1778 H 0.48485 0.1341 0.46152 0.0
H1779 H 0.47734 0.10681 0.42865 0.0
H1780 H 0.48989 0.15081 0.41962 0.0
H1781 H 0.31807 0.08092 0.44782 0.0
H1782 H 0.35134 0.05956 0.46689 0.0
H1783 H 0.34016 0.09222 0.48709 0.0
H1784 H 0.4697 0.02528 0.47437 0.0
H1785 H 0.47321 0.0946 0.54761 0.0
H1786 H 0.43311 0.05683 0.41242 0.0
H1787 H 0.38916 0.04338 0.42692 0.0
H1788 H 0.42005 1.01617 0.43239 0.0
H1789 H 0.43654 0.14848 0.50504 0.0
H1790 H 0.43098 0.12802 0.54557 0.0
H1791 H 0.39403 0.12283 0.51452 0.0
C1792 C 0.70912 0.82155 0.72551 0.0
C1793 C 0.73186 0.83578 0.75178 0.0
C1794 C 0.68575 0.83907 0.7072 0.0
C1795 C 0.68569 0.8716 0.71513 0.0
C1796 C 0.70749 0.88543 0.7424 0.0
C1797 C 0.72999 0.86734 0.76041 0.0
C1798 C 0.66218 0.82334 0.67862 0.0
C1799 C 0.70881 0.9202 0.75143 0.0
C1800 C 0.66512 0.93202 0.64549 0.0
C1801 C 0.63068 0.93447 0.65149 0.0
C1802 C 0.68328 0.91173 0.66615 0.0
C1803 C 0.66613 0.89278 0.69301 0.0
C1804 C 0.63141 0.89551 0.69945 0.0
C1805 C 0.61411 0.91667 0.67865 0.0
C1806 C 0.72066 0.91029 0.65897 0.0
C1807 C 0.61221 0.87539 0.72764 0.0
H1808 H 0.71009 0.79715 0.71882 0.0
H1809 H 0.74722 0.87878 0.78065 0.0
H1810 H 0.63437 0.82617 0.67972 0.0
H1811 H 0.67194 0.83602 0.65508 0.0
H1812 H 0.66188 0.79662 0.67827 0.0
H1813 H 0.72478 0.92615 0.77512 0.0
H1814 H 0.72092 0.93818 0.73169 0.0
H1815 H 0.68146 0.92378 0.75343 0.0
H1816 H 0.67754 0.94556 0.6241 0.0
H1817 H 0.58705 0.91803 0.68261 0.0
H1818 H 0.72138 0.88469 0.65396 0.0
H1819 H 0.73951 0.91721 0.6808 0.0
H1820 H 0.73033 0.92707 0.63743 0.0
H1821 H 0.60907 0.84865 0.72443 0.0
H1822 H 0.58535 0.88041 0.72933 0.0
H1823 H 0.62823 0.8808 0.75134 0.0
C1824 C 0.68015 0.21968 0.34486 0.0
C1825 C 0.71517 0.21826 0.33945 0.0
C1826 C 0.65921 0.19537 0.36527 0.0
C1827 C 0.67378 0.16924 0.38101 0.0
C1828 C 0.70848 0.16676 0.37432 0.0
C1829 C 0.72867 0.1912 0.35348 0.0
C1830 C 0.62212 0.19862 0.37132 0.0
C1831 C 0.72515 0.13943 0.39068 0.0
C1832 C 0.64256 0.13791 0.46567 0.0
C1833 C 0.61878 0.10759 0.45952 0.0
C1834 C 0.66068 0.15782 0.44038 0.0
C1835 C 0.65486 0.14748 0.4078 0.0
C1836 C 0.63094 0.11697 0.40118 0.0
C1837 C 0.61325 0.09728 0.42717 0.0
C1838 C 0.68618 0.19002 0.44864 0.0
C1839 C 0.624 0.10524 0.36669 0.0
H1840 H 0.66926 0.24015 0.33365 0.0
H1841 H 0.75561 0.18972 0.34925 0.0
H1842 H 0.60267 0.17459 0.36884 0.0
H1843 H 0.62198 0.20578 0.39689 0.0
H1844 H 0.61295 0.21756 0.35398 0.0
H1845 H 0.7504 0.13869 0.37991 0.0
H1846 H 0.73115 0.14325 0.41739 0.0
H1847 H 0.70633 0.11504 0.38849 0.0
H1848 H 0.6474 0.14619 0.4905 0.0
H1849 H 0.59507 0.07391 0.4221 0.0
H1850 H 0.67716 0.21104 0.43466 0.0
H1851 H 0.71324 0.19027 0.44122 0.0
H1852 H 0.68827 0.19415 0.47537 0.0
H1853 H 0.61366 0.12379 0.34979 0.0
H1854 H 0.60444 0.08108 0.36555 0.0
H1855 H 0.64936 0.10272 0.35741 0.0
C1856 C 0.91385 0.71352 0.31848 0.0
C1857 C 0.88026 0.71671 0.3288 0.0
C1858 C 0.93562 0.69115 0.33486 0.0
C1859 C 0.92506 0.66883 0.36323 0.0
C1860 C 0.89084 0.67157 0.37336 0.0
C1861 C 0.87009 0.69473 0.35702 0.0
C1862 C 0.97095 0.6919 0.32151 0.0
C1863 C 0.875 0.64976 0.40211 0.0
C1864 C 0.97616 0.59238 0.39092 0.0
C1865 C 0.99531 0.59987 0.42219 0.0
C1866 C 0.95406 0.61346 0.37207 0.0
C1867 C 0.94982 0.64475 0.38282 0.0
C1868 C 0.96989 0.65255 0.41373 0.0
C1869 C 0.9908 0.6309 0.43218 0.0
C1870 C 0.9348 0.60124 0.34019 0.0
C1871 C 0.96949 0.68458 0.42817 0.0
H1872 H 0.92389 0.72922 0.29729 0.0
H1873 H 0.84499 0.69525 0.36673 0.0
H1874 H 0.99215 0.69234 0.34195 0.0
H1875 H 0.96875 0.66916 0.30841 0.0
H1876 H 0.97922 0.71366 0.30394 0.0
H1877 H 0.84547 0.64206 0.39772 0.0
H1878 H 0.88598 0.62726 0.40697 0.0
H1879 H 0.88068 0.66401 0.42451 0.0
H1880 H 0.97735 0.56929 0.38118 0.0
H1881 H 1.00424 0.63895 0.45555 0.0
H1882 H 0.95342 0.60837 0.32027 0.0
H1883 H 0.91102 0.61183 0.33317 0.0
H1884 H 0.9262 0.57382 0.34189 0.0
H1885 H 0.97066 0.70499 0.40863 0.0
H1886 H 0.99218 0.69176 0.44691 0.0
H1887 H 0.94429 0.68169 0.44036 0.0
C1888 C 0.36574 0.85477 0.3794 0.0
C1889 C 0.37653 0.8407 0.3531 0.0
C1890 C 0.39064 0.87688 0.39895 0.0
C1891 C 0.4271 0.88535 0.39179 0.0
C1892 C 0.43771 0.87249 0.36427 0.0
C1893 C 0.41242 0.85022 0.34545 0.0
C1894 C 0.37821 0.89002 0.4281 0.0
C1895 C 0.47612 0.88124 0.3554 0.0
C1896 C 0.49273 0.95539 0.43476 0.0
C1897 C 0.50831 0.93765 0.4606 0.0
C1898 C 0.4661 0.93886 0.41208 0.0
C1899 C 0.45487 0.90389 0.41541 0.0
C1900 C 0.47089 0.88597 0.44114 0.0
C1901 C 0.49735 0.90298 0.4632 0.0
C1902 C 0.44969 0.95878 0.38485 0.0
C1903 C 0.45991 0.84868 0.4456 0.0
H1904 H 0.33799 0.84792 0.38522 0.0
H1905 H 0.42092 0.84022 0.32463 0.0
H1906 H 0.389 0.87871 0.45129 0.0
H1907 H 0.38851 0.91717 0.42835 0.0
H1908 H 0.34858 0.88445 0.42796 0.0
H1909 H 0.47923 0.8723 0.33117 0.0
H1910 H 0.48662 0.90842 0.35461 0.0
H1911 H 0.49287 0.87001 0.37459 0.0
H1912 H 0.50075 0.98216 0.43267 0.0
H1913 H 0.50927 0.88887 0.48286 0.0
H1914 H 0.42057 0.95496 0.38739 0.0
H1915 H 0.45285 0.95023 0.36049 0.0
H1916 H 0.46192 0.98568 0.38512 0.0
H1917 H 0.43082 0.84086 0.4488 0.0
H1918 H 0.47454 0.8385 0.46728 0.0
H1919 H 0.46499 0.83752 0.42327 0.0
C1920 C 0.25055 0.37172 0.35626 0.0
C1921 C 0.23916 0.35959 0.32436 0.0
C1922 C 0.23131 0.39062 0.37385 0.0
C1923 C 0.1977 0.39823 0.36109 0.0
C1924 C 0.18585 0.38574 0.32905 0.0
C1925 C 0.20617 0.36771 0.31157 0.0
C1926 C 0.24764 0.40245 0.40687 0.0
C1927 C 0.15071 0.39105 0.3129 0.0
C1928 C 0.13272 0.41762 0.42586 0.0
C1929 C 0.13281 0.45218 0.4219 0.0
C1930 C 0.152 0.4006 0.4065 0.0
C1931 C 0.17482 0.41731 0.38146 0.0
C1932 C 0.17534 0.45236 0.37708 0.0
C1933 C 0.15476 0.46877 0.39639 0.0
C1934 C 0.14783 0.36383 0.41341 0.0
C1935 C 0.19838 0.47333 0.35191 0.0
H1936 H 0.27533 0.36665 0.36789 0.0
H1937 H 0.19541 0.35929 0.28753 0.0
H1938 H 0.24287 0.42715 0.41057 0.0
H1939 H 0.23523 0.38482 0.42669 0.0
H1940 H 0.2769 0.40389 0.40953 0.0
H1941 H 0.1424 0.37726 0.29028 0.0
H1942 H 0.12947 0.38317 0.33044 0.0
H1943 H 0.15299 0.41777 0.30611 0.0
H1944 H 0.11701 0.40311 0.44492 0.0
H1945 H 0.1571 0.49519 0.39205 0.0
H1946 H 0.17273 0.35882 0.42654 0.0
H1947 H 0.14338 0.3512 0.38998 0.0
H1948 H 0.12525 0.3529 0.42891 0.0
H1949 H 0.20436 0.49996 0.35684 0.0
H1950 H 0.18407 0.47044 0.3271 0.0
H1951 H 0.22396 0.46545 0.35141 0.0
C1952 C 0.43341 0.15601 0.67952 0.0
C1953 C 0.43327 0.16783 0.71066 0.0
C1954 C 0.45494 0.13424 0.67446 0.0
C1955 C 0.47699 0.12404 0.7012 0.0
C1956 C 0.47531 0.13417 0.73314 0.0
C1957 C 0.45354 0.1561 0.73748 0.0
C1958 C 0.45558 0.12367 0.64001 0.0
C1959 C 0.49762 0.12302 0.76235 0.0
C1960 C 0.51808 0.0571 0.67497 0.0
C1961 C 0.54815 0.0767 0.66062 0.0
C1962 C 0.49617 0.07169 0.69199 0.0
C1963 C 0.50474 0.10646 0.69429 0.0
C1964 C 0.53762 0.12541 0.68351 0.0
C1965 C 0.55889 0.11025 0.6667 0.0
C1966 C 0.46206 0.05027 0.70412 0.0
C1967 C 0.54829 0.16243 0.68599 0.0
H1968 H 0.41803 0.16509 0.65864 0.0
H1969 H 0.45296 0.16462 0.76177 0.0
H1970 H 0.48228 0.13423 0.63066 0.0
H1971 H 0.45096 0.09634 0.64032 0.0
H1972 H 0.43504 0.13189 0.62246 0.0
H1973 H 0.48939 0.12899 0.7861 0.0
H1974 H 0.4956 0.09596 0.76281 0.0
H1975 H 0.52615 0.13541 0.76021 0.0
H1976 H 0.50978 0.03111 0.67022 0.0
H1977 H 0.58239 0.12527 0.65571 0.0
H1978 H 0.4411 0.04713 0.68334 0.0
H1979 H 0.45222 0.06125 0.72428 0.0
H1980 H 0.46609 0.02535 0.7131 0.0
H1981 H 0.53157 0.17449 0.66747 0.0
H1982 H 0.57683 0.17254 0.6813 0.0
H1983 H 0.54373 0.16917 0.7107 0.0
C1984 C 0.86615 0.3368 0.68115 0.0
C1985 C 0.87919 0.32859 0.71359 0.0
C1986 C 0.88884 0.35555 0.65712 0.0
C1987 C 0.92617 0.36756 0.66503 0.0
C1988 C 0.93948 0.35951 0.69779 0.0
C1989 C 0.91627 0.34023 0.7212 0.0
C1990 C 0.87266 0.36238 0.62288 0.0
C1991 C 0.97852 0.37162 0.70838 0.0
C1992 C 0.99313 0.39156 0.5955 0.0
C1993 C 0.99858 0.42635 0.59069 0.0
C1994 C 0.96976 0.37251 0.61883 0.0
C1995 C 0.95109 0.38799 0.63916 0.0
C1996 C 0.95652 0.42314 0.63448 0.0
C1997 C 0.97958 0.44156 0.61051 0.0
C1998 C 0.96509 0.33543 0.62172 0.0
C1999 C 0.93825 0.44159 0.65527 0.0
H2000 H 0.83788 0.3283 0.67427 0.0
H2001 H 0.92732 0.33462 0.74586 0.0
H2002 H 0.87656 0.38944 0.61719 0.0
H2003 H 0.88642 0.35271 0.60443 0.0
H2004 H 0.8436 0.35095 0.61998 0.0
H2005 H 0.98496 0.36431 0.73466 0.0
H2006 H 0.99514 0.36154 0.69285 0.0
H2007 H 0.98614 0.39899 0.70471 0.0
H2008 H 1.00726 0.37895 0.58085 0.0
H2009 H 0.98333 0.46823 0.60785 0.0
H2010 H 0.93633 0.32331 0.61786 0.0
H2011 H 0.97446 0.3273 0.64692 0.0
H2012 H 0.98008 0.32668 0.60359 0.0
H2013 H 0.90881 0.43318 0.65107 0.0
H2014 H 0.94572 0.46879 0.64971 0.0
H2015 H 0.94534 0.43609 0.68182 0.0
C2016 C 0.26056 0.70521 0.69994 0.0
C2017 C 0.24165 0.71907 0.72114 0.0
C2018 C 0.24301 0.68262 0.67575 0.0
C2019 C 0.20495 0.67219 0.67218 0.0
C2020 C 0.18571 0.68577 0.6938 0.0
C2021 C 0.20393 0.70884 0.71736 0.0
C2022 C 0.2655 0.67019 0.65351 0.0
C2023 C 0.14545 0.67577 0.69214 0.0
C2024 C 0.15435 0.63937 0.58949 0.0
C2025 C 0.14609 0.60448 0.59488 0.0
C2026 C 0.17387 0.66103 0.61355 0.0
C2027 C 0.18542 0.64845 0.64525 0.0
C2028 C 0.17761 0.61317 0.65085 0.0
C2029 C 0.15859 0.59192 0.62591 0.0
C2030 C 0.18158 0.69782 0.60501 0.0
C2031 C 0.18826 0.59772 0.68387 0.0
H2032 H 0.2895 0.71238 0.70192 0.0
H2033 H 0.18837 0.71864 0.73323 0.0
H2034 H 0.26019 0.64279 0.65628 0.0
H2035 H 0.25812 0.67715 0.62737 0.0
H2036 H 0.29457 0.6803 0.6589 0.0
H2037 H 0.13409 0.68671 0.71144 0.0
H2038 H 0.1342 0.68375 0.6676 0.0
H2039 H 0.13665 0.64842 0.69508 0.0
H2040 H 0.14497 0.65006 0.56614 0.0
H2041 H 0.15206 0.56539 0.6314 0.0
H2042 H 0.21057 0.70869 0.60974 0.0
H2043 H 0.16709 0.70973 0.62097 0.0
H2044 H 0.17345 0.70396 0.57882 0.0
H2045 H 0.21735 0.60656 0.69008 0.0
H2046 H 0.18182 0.57027 0.68445 0.0
H2047 H 0.17414 0.60546 0.70331 0.0
loop_
_geom_bond_atom_site_label_1
_geom_bond_atom_site_label_2
_geom_bond_distance
_geom_bond_site_symmetry_2
_ccdc_geom_bond_type
Tb0 C9 2.764 . S
Tb0 O10 2.325 . S
Tb0 O13 2.303 . S
Tb0 O17 2.322 . S
Tb0 O18 2.349 . S
Tb0 O21 2.415 . S
Tb0 O22 2.399 . S
Tb1 O11 2.322 . S
Tb1 O12 2.349 . S
Tb1 O14 2.415 . S
Tb1 O15 2.399 . S
Tb1 O16 2.325 . S
Tb1 O19 2.303 . S
Tb1 C30 2.764 . S
C2 O18 1.261 . S
C2 O19 1.257 . S
C3 C6 1.358 . S
C3 C7 1.332 . S
C3 C9 1.504 . S
C4 C5 1.373 . S
C4 C8 1.308 . S
C5 C4 1.373 . S
C5 C6 1.429 . S
C5 H32 0.932 . S
C6 C3 1.358 . S
C6 C5 1.429 . S
C6 H33 0.930 . S
C7 C3 1.332 . S
C7 C8 1.394 . S
C7 H34 0.932 . S
C8 C4 1.308 . S
C8 C7 1.394 . S
C8 H35 0.929 . S
C9 Tb0 2.764 . S
C9 C3 1.504 . S
C9 O21 1.239 . S
C9 O22 1.263 . S
O10 Tb0 2.325 . S
O10 C20 1.236 . S
O11 Tb1 2.322 . S
O11 C20 1.257 . S
O12 Tb1 2.349 . S
O12 C23 1.261 . S
O13 Tb0 2.303 . S
O13 C23 1.257 . S
O14 Tb1 2.415 . S
O14 C30 1.239 . S
O15 Tb1 2.399 . S
O15 C30 1.263 . S
O16 Tb1 2.325 . S
O16 C31 1.236 . S
O17 Tb0 2.322 . S
O17 C31 1.257 . S
O18 Tb0 2.349 . S
O18 C2 1.261 . S
O19 Tb1 2.303 . S
O19 C2 1.257 . S
C20 O10 1.236 . S
C20 O11 1.257 . S
O21 Tb0 2.415 . S
O21 C9 1.239 . S
O22 Tb0 2.399 . S
O22 C9 1.263 . S
C23 O12 1.261 . S
C23 O13 1.257 . S
C24 C27 1.358 . S
C24 C28 1.332 . S
C24 C30 1.504 . S
C25 C26 1.373 . S
C25 C29 1.308 . S
C26 C25 1.373 . S
C26 C27 1.429 . S
C26 H36 0.932 . S
C27 C24 1.358 . S
C27 C26 1.429 . S
C27 H37 0.930 . S
C28 C24 1.332 . S
C28 C29 1.394 . S
C28 H38 0.932 . S
C29 C25 1.308 . S
C29 C28 1.394 . S
C29 H39 0.929 . S
C30 Tb1 2.764 . S
C30 O14 1.239 . S
C30 O15 1.263 . S
C30 C24 1.504 . S
C31 O16 1.236 . S
C31 O17 1.257 . S
H32 C5 0.932 . S
H33 C6 0.930 . S
H34 C7 0.932 . S
H35 C8 0.929 . S
H36 C26 0.932 . S
H37 C27 0.930 . S
H38 C28 0.932 . S
H39 C29 0.929 . S
Tb40 C49 2.764 . S
Tb40 O50 2.325 . S
Tb40 O53 2.303 . S
Tb40 O57 2.322 . S
Tb40 O58 2.349 . S
Tb40 O61 2.415 . S
Tb40 O62 2.399 . S
Tb41 O51 2.322 . S
Tb41 O52 2.349 . S
Tb41 O54 2.415 . S
Tb41 O55 2.399 . S
Tb41 O56 2.325 . S
Tb41 O59 2.303 . S
Tb41 C70 2.764 . S
C42 O58 1.261 . S
C42 O59 1.257 . S
C43 C46 1.358 . S
C43 C47 1.332 . S
C43 C49 1.504 . S
C44 C45 1.373 . S
C44 C48 1.308 . S
C45 C44 1.373 . S
C45 C46 1.429 . S
C45 H72 0.932 . S
C46 C43 1.358 . S
C46 C45 1.429 . S
C46 H73 0.930 . S
C47 C43 1.332 . S
C47 C48 1.394 . S
C47 H74 0.932 . S
C48 C44 1.308 . S
C48 C47 1.394 . S
C48 H75 0.929 . S
C49 Tb40 2.764 . S
C49 C43 1.504 . S
C49 O61 1.239 . S
C49 O62 1.263 . S
O50 Tb40 2.325 . S
O50 C60 1.236 . S
O51 Tb41 2.322 . S
O51 C60 1.257 . S
O52 Tb41 2.349 . S
O52 C63 1.261 . S
O53 Tb40 2.303 . S
O53 C63 1.257 . S
O54 Tb41 2.415 . S
O54 C70 1.239 . S
O55 Tb41 2.399 . S
O55 C70 1.263 . S
O56 Tb41 2.325 . S
O56 C71 1.236 . S
O57 Tb40 2.322 . S
O57 C71 1.257 . S
O58 Tb40 2.349 . S
O58 C42 1.261 . S
O59 Tb41 2.303 . S
O59 C42 1.257 . S
C60 O50 1.236 . S
C60 O51 1.257 . S
O61 Tb40 2.415 . S
O61 C49 1.239 . S
O62 Tb40 2.399 . S
O62 C49 1.263 . S
C63 O52 1.261 . S
C63 O53 1.257 . S
C64 C67 1.358 . S
C64 C68 1.332 . S
C64 C70 1.504 . S
C65 C66 1.373 . S
C65 C69 1.308 . S
C66 C65 1.373 . S
C66 C67 1.429 . S
C66 H76 0.932 . S
C67 C64 1.358 . S
C67 C66 1.429 . S
C67 H77 0.930 . S
C68 C64 1.332 . S
C68 C69 1.394 . S
C68 H78 0.932 . S
C69 C65 1.308 . S
C69 C68 1.394 . S
C69 H79 0.929 . S
C70 Tb41 2.764 . S
C70 O54 1.239 . S
C70 O55 1.263 . S
C70 C64 1.504 . S
C71 O56 1.236 . S
C71 O57 1.257 . S
H72 C45 0.932 . S
H73 C46 0.930 . S
H74 C47 0.932 . S
H75 C48 0.929 . S
H76 C66 0.932 . S
H77 C67 0.930 . S
H78 C68 0.932 . S
H79 C69 0.929 . S
Tb80 C89 2.764 . S
Tb80 O90 2.325 . S
Tb80 O93 2.303 . S
Tb80 O97 2.322 . S
Tb80 O98 2.349 . S
Tb80 O101 2.415 . S
Tb80 O102 2.399 . S
Tb81 O91 2.322 . S
Tb81 O92 2.349 . S
Tb81 O94 2.415 . S
Tb81 O95 2.399 . S
Tb81 O96 2.325 . S
Tb81 O99 2.303 . S
Tb81 C110 2.764 . S
C82 O98 1.261 . S
C82 O99 1.257 . S
C83 C86 1.358 . S
C83 C87 1.332 . S
C83 C89 1.504 . S
C84 C85 1.373 . S
C84 C88 1.308 . S
C85 C84 1.373 . S
C85 C86 1.429 . S
C85 H112 0.932 . S
C86 C83 1.358 . S
C86 C85 1.429 . S
C86 H113 0.930 . S
C87 C83 1.332 . S
C87 C88 1.394 . S
C87 H114 0.932 . S
C88 C84 1.308 . S
C88 C87 1.394 . S
C88 H115 0.929 . S
C89 Tb80 2.764 . S
C89 C83 1.504 . S
C89 O101 1.239 . S
C89 O102 1.263 . S
O90 Tb80 2.325 . S
O90 C100 1.236 . S
O91 Tb81 2.322 . S
O91 C100 1.257 . S
O92 Tb81 2.349 . S
O92 C103 1.261 . S
O93 Tb80 2.303 . S
O93 C103 1.257 . S
O94 Tb81 2.415 . S
O94 C110 1.239 . S
O95 Tb81 2.399 . S
O95 C110 1.263 . S
O96 Tb81 2.325 . S
O96 C111 1.236 . S
O97 Tb80 2.322 . S
O97 C111 1.257 . S
O98 Tb80 2.349 . S
O98 C82 1.261 . S
O99 Tb81 2.303 . S
O99 C82 1.257 . S
C100 O90 1.236 . S
C100 O91 1.257 . S
O101 Tb80 2.415 . S
O101 C89 1.239 . S
O102 Tb80 2.399 . S
O102 C89 1.263 . S
C103 O92 1.261 . S
C103 O93 1.257 . S
C104 C107 1.358 . S
C104 C108 1.332 . S
C104 C110 1.504 . S
C105 C106 1.373 . S
C105 C109 1.308 . S
C106 C105 1.373 . S
C106 C107 1.429 . S
C106 H116 0.932 . S
C107 C104 1.358 . S
C107 C106 1.429 . S
C107 H117 0.930 . S
C108 C104 1.332 . S
C108 C109 1.394 . S
C108 H118 0.932 . S
C109 C105 1.308 . S
C109 C108 1.394 . S
C109 H119 0.929 . S
C110 Tb81 2.764 . S
C110 O94 1.239 . S
C110 O95 1.263 . S
C110 C104 1.504 . S
C111 O96 1.236 . S
C111 O97 1.257 . S
H112 C85 0.932 . S
H113 C86 0.930 . S
H114 C87 0.932 . S
H115 C88 0.929 . S
H116 C106 0.932 . S
H117 C107 0.930 . S
H118 C108 0.932 . S
H119 C109 0.929 . S
Tb120 C129 2.764 . S
Tb120 O130 2.325 . S
Tb120 O133 2.303 . S
Tb120 O137 2.322 . S
Tb120 O138 2.349 . S
Tb120 O141 2.415 . S
Tb120 O142 2.399 . S
Tb121 O131 2.322 . S
Tb121 O132 2.349 . S
Tb121 O134 2.415 . S
Tb121 O135 2.399 . S
Tb121 O136 2.325 . S
Tb121 O139 2.303 . S
Tb121 C150 2.764 . S
C122 O138 1.261 . S
C122 O139 1.257 . S
C123 C126 1.358 . S
C123 C127 1.332 . S
C123 C129 1.504 . S
C124 C125 1.373 . S
C124 C128 1.308 . S
C125 C124 1.373 . S
C125 C126 1.429 . S
C125 H152 0.932 . S
C126 C123 1.358 . S
C126 C125 1.429 . S
C126 H153 0.930 . S
C127 C123 1.332 . S
C127 C128 1.394 . S
C127 H154 0.932 . S
C128 C124 1.308 . S
C128 C127 1.394 . S
C128 H155 0.929 . S
C129 Tb120 2.764 . S
C129 C123 1.504 . S
C129 O141 1.239 . S
C129 O142 1.263 . S
O130 Tb120 2.325 . S
O130 C140 1.236 . S
O131 Tb121 2.322 . S
O131 C140 1.257 . S
O132 Tb121 2.349 . S
O132 C143 1.261 . S
O133 Tb120 2.303 . S
O133 C143 1.257 . S
O134 Tb121 2.415 . S
O134 C150 1.239 . S
O135 Tb121 2.399 . S
O135 C150 1.263 . S
O136 Tb121 2.325 . S
O136 C151 1.236 . S
O137 Tb120 2.322 . S
O137 C151 1.257 . S
O138 Tb120 2.349 . S
O138 C122 1.261 . S
O139 Tb121 2.303 . S
O139 C122 1.257 . S
C140 O130 1.236 . S
C140 O131 1.257 . S
O141 Tb120 2.415 . S
O141 C129 1.239 . S
O142 Tb120 2.399 . S
O142 C129 1.263 . S
C143 O132 1.261 . S
C143 O133 1.257 . S
C144 C147 1.358 . S
C144 C148 1.332 . S
C144 C150 1.504 . S
C145 C146 1.373 . S
C145 C149 1.308 . S
C146 C145 1.373 . S
C146 C147 1.429 . S
C146 H156 0.932 . S
C147 C144 1.358 . S
C147 C146 1.429 . S
C147 H157 0.930 . S
C148 C144 1.332 . S
C148 C149 1.394 . S
C148 H158 0.932 . S
C149 C145 1.308 . S
C149 C148 1.394 . S
C149 H159 0.929 . S
C150 Tb121 2.764 . S
C150 O134 1.239 . S
C150 O135 1.263 . S
C150 C144 1.504 . S
C151 O136 1.236 . S
C151 O137 1.257 . S
H152 C125 0.932 . S
H153 C126 0.930 . S
H154 C127 0.932 . S
H155 C128 0.929 . S
H156 C146 0.932 . S
H157 C147 0.930 . S
H158 C148 0.932 . S
H159 C149 0.929 . S
Tb160 C169 2.764 . S
Tb160 O170 2.325 . S
Tb160 O173 2.303 . S
Tb160 O177 2.322 . S
Tb160 O178 2.349 . S
Tb160 O181 2.415 . S
Tb160 O182 2.399 . S
Tb161 O171 2.322 . S
Tb161 O172 2.349 . S
Tb161 O174 2.415 . S
Tb161 O175 2.399 . S
Tb161 O176 2.325 . S
Tb161 O179 2.303 . S
Tb161 C190 2.764 . S
C162 O178 1.261 . S
C162 O179 1.257 . S
C163 C166 1.358 . S
C163 C167 1.332 . S
C163 C169 1.504 . S
C164 C165 1.373 . S
C164 C168 1.308 . S
C165 C164 1.373 . S
C165 C166 1.429 . S
C165 H192 0.932 . S
C166 C163 1.358 . S
C166 C165 1.429 . S
C166 H193 0.930 . S
C167 C163 1.332 . S
C167 C168 1.394 . S
C167 H194 0.932 . S
C168 C164 1.308 . S
C168 C167 1.394 . S
C168 H195 0.929 . S
C169 Tb160 2.764 . S
C169 C163 1.504 . S
C169 O181 1.239 . S
C169 O182 1.263 . S
O170 Tb160 2.325 . S
O170 C180 1.236 . S
O171 Tb161 2.322 . S
O171 C180 1.257 . S
O172 Tb161 2.349 . S
O172 C183 1.261 . S
O173 Tb160 2.303 . S
O173 C183 1.257 . S
O174 Tb161 2.415 . S
O174 C190 1.239 . S
O175 Tb161 2.399 . S
O175 C190 1.263 . S
O176 Tb161 2.325 . S
O176 C191 1.236 . S
O177 Tb160 2.322 . S
O177 C191 1.257 . S
O178 Tb160 2.349 . S
O178 C162 1.261 . S
O179 Tb161 2.303 . S
O179 C162 1.257 . S
C180 O170 1.236 . S
C180 O171 1.257 . S
O181 Tb160 2.415 . S
O181 C169 1.239 . S
O182 Tb160 2.399 . S
O182 C169 1.263 . S
C183 O172 1.261 . S
C183 O173 1.257 . S
C184 C187 1.358 . S
C184 C188 1.332 . S
C184 C190 1.504 . S
C185 C186 1.373 . S
C185 C189 1.308 . S
C186 C185 1.373 . S
C186 C187 1.429 . S
C186 H196 0.932 . S
C187 C184 1.358 . S
C187 C186 1.429 . S
C187 H197 0.930 . S
C188 C184 1.332 . S
C188 C189 1.394 . S
C188 H198 0.932 . S
C189 C185 1.308 . S
C189 C188 1.394 . S
C189 H199 0.929 . S
C190 Tb161 2.764 . S
C190 O174 1.239 . S
C190 O175 1.263 . S
C190 C184 1.504 . S
C191 O176 1.236 . S
C191 O177 1.257 . S
H192 C165 0.932 . S
H193 C166 0.930 . S
H194 C167 0.932 . S
H195 C168 0.929 . S
H196 C186 0.932 . S
H197 C187 0.930 . S
H198 C188 0.932 . S
H199 C189 0.929 . S
Tb200 C209 2.764 . S
Tb200 O210 2.325 . S
Tb200 O213 2.303 . S
Tb200 O217 2.322 . S
Tb200 O218 2.349 . S
Tb200 O221 2.415 . S
Tb200 O222 2.399 . S
Tb201 O211 2.322 . S
Tb201 O212 2.349 . S
Tb201 O214 2.415 . S
Tb201 O215 2.399 . S
Tb201 O216 2.325 . S
Tb201 O219 2.303 . S
Tb201 C230 2.764 . S
C202 O218 1.261 . S
C202 O219 1.257 . S
C203 C206 1.358 . S
C203 C207 1.332 . S
C203 C209 1.504 . S
C204 C205 1.373 . S
C204 C208 1.308 . S
C205 C204 1.373 . S
C205 C206 1.429 . S
C205 H232 0.932 . S
C206 C203 1.358 . S
C206 C205 1.429 . S
C206 H233 0.930 . S
C207 C203 1.332 . S
C207 C208 1.394 . S
C207 H234 0.932 . S
C208 C204 1.308 . S
C208 C207 1.394 . S
C208 H235 0.929 . S
C209 Tb200 2.764 . S
C209 C203 1.504 . S
C209 O221 1.239 . S
C209 O222 1.263 . S
O210 Tb200 2.325 . S
O210 C220 1.236 . S
O211 Tb201 2.322 . S
O211 C220 1.257 . S
O212 Tb201 2.349 . S
O212 C223 1.261 . S
O213 Tb200 2.303 . S
O213 C223 1.257 . S
O214 Tb201 2.415 . S
O214 C230 1.239 . S
O215 Tb201 2.399 . S
O215 C230 1.263 . S
O216 Tb201 2.325 . S
O216 C231 1.236 . S
O217 Tb200 2.322 . S
O217 C231 1.257 . S
O218 Tb200 2.349 . S
O218 C202 1.261 . S
O219 Tb201 2.303 . S
O219 C202 1.257 . S
C220 O210 1.236 . S
C220 O211 1.257 . S
O221 Tb200 2.415 . S
O221 C209 1.239 . S
O222 Tb200 2.399 . S
O222 C209 1.263 . S
C223 O212 1.261 . S
C223 O213 1.257 . S
C224 C227 1.358 . S
C224 C228 1.332 . S
C224 C230 1.504 . S
C225 C226 1.373 . S
C225 C229 1.308 . S
C226 C225 1.373 . S
C226 C227 1.429 . S
C226 H236 0.932 . S
C227 C224 1.358 . S
C227 C226 1.429 . S
C227 H237 0.930 . S
C228 C224 1.332 . S
C228 C229 1.394 . S
C228 H238 0.932 . S
C229 C225 1.308 . S
C229 C228 1.394 . S
C229 H239 0.929 . S
C230 Tb201 2.764 . S
C230 O214 1.239 . S
C230 O215 1.263 . S
C230 C224 1.504 . S
C231 O216 1.236 . S
C231 O217 1.257 . S
H232 C205 0.932 . S
H233 C206 0.930 . S
H234 C207 0.932 . S
H235 C208 0.929 . S
H236 C226 0.932 . S
H237 C227 0.930 . S
H238 C228 0.932 . S
H239 C229 0.929 . S
Tb240 C249 2.764 . S
Tb240 O250 2.325 . S
Tb240 O253 2.303 . S
Tb240 O257 2.322 . S
Tb240 O258 2.349 . S
Tb240 O261 2.415 . S
Tb240 O262 2.399 . S
Tb241 O251 2.322 . S
Tb241 O252 2.349 . S
Tb241 O254 2.415 . S
Tb241 O255 2.399 . S
Tb241 O256 2.325 . S
Tb241 O259 2.303 . S
Tb241 C270 2.764 . S
C242 O258 1.261 . S
C242 O259 1.257 . S
C243 C246 1.358 . S
C243 C247 1.332 . S
C243 C249 1.504 . S
C244 C245 1.373 . S
C244 C248 1.308 . S
C245 C244 1.373 . S
C245 C246 1.429 . S
C245 H272 0.932 . S
C246 C243 1.358 . S
C246 C245 1.429 . S
C246 H273 0.930 . S
C247 C243 1.332 . S
C247 C248 1.394 . S
C247 H274 0.932 . S
C248 C244 1.308 . S
C248 C247 1.394 . S
C248 H275 0.929 . S
C249 Tb240 2.764 . S
C249 C243 1.504 . S
C249 O261 1.239 . S
C249 O262 1.263 . S
O250 Tb240 2.325 . S
O250 C260 1.236 . S
O251 Tb241 2.322 . S
O251 C260 1.257 . S
O252 Tb241 2.349 . S
O252 C263 1.261 . S
O253 Tb240 2.303 . S
O253 C263 1.257 . S
O254 Tb241 2.415 . S
O254 C270 1.239 . S
O255 Tb241 2.399 . S
O255 C270 1.263 . S
O256 Tb241 2.325 . S
O256 C271 1.236 . S
O257 Tb240 2.322 . S
O257 C271 1.257 . S
O258 Tb240 2.349 . S
O258 C242 1.261 . S
O259 Tb241 2.303 . S
O259 C242 1.257 . S
C260 O250 1.236 . S
C260 O251 1.257 . S
O261 Tb240 2.415 . S
O261 C249 1.239 . S
O262 Tb240 2.399 . S
O262 C249 1.263 . S
C263 O252 1.261 . S
C263 O253 1.257 . S
C264 C267 1.358 . S
C264 C268 1.332 . S
C264 C270 1.504 . S
C265 C266 1.373 . S
C265 C269 1.308 . S
C266 C265 1.373 . S
C266 C267 1.429 . S
C266 H276 0.932 . S
C267 C264 1.358 . S
C267 C266 1.429 . S
C267 H277 0.930 . S
C268 C264 1.332 . S
C268 C269 1.394 . S
C268 H278 0.932 . S
C269 C265 1.308 . S
C269 C268 1.394 . S
C269 H279 0.929 . S
C270 Tb241 2.764 . S
C270 O254 1.239 . S
C270 O255 1.263 . S
C270 C264 1.504 . S
C271 O256 1.236 . S
C271 O257 1.257 . S
H272 C245 0.932 . S
H273 C246 0.930 . S
H274 C247 0.932 . S
H275 C248 0.929 . S
H276 C266 0.932 . S
H277 C267 0.930 . S
H278 C268 0.932 . S
H279 C269 0.929 . S
Tb280 C289 2.764 . S
Tb280 O290 2.325 . S
Tb280 O293 2.303 . S
Tb280 O297 2.322 . S
Tb280 O298 2.349 . S
Tb280 O301 2.415 . S
Tb280 O302 2.399 . S
Tb281 O291 2.322 . S
Tb281 O292 2.349 . S
Tb281 O294 2.415 . S
Tb281 O295 2.399 . S
Tb281 O296 2.325 . S
Tb281 O299 2.303 . S
Tb281 C310 2.764 . S
C282 O298 1.261 . S
C282 O299 1.257 . S
C283 C286 1.358 . S
C283 C287 1.332 . S
C283 C289 1.504 . S
C284 C285 1.373 . S
C284 C288 1.308 . S
C285 C284 1.373 . S
C285 C286 1.429 . S
C285 H312 0.932 . S
C286 C283 1.358 . S
C286 C285 1.429 . S
C286 H313 0.930 . S
C287 C283 1.332 . S
C287 C288 1.394 . S
C287 H314 0.932 . S
C288 C284 1.308 . S
C288 C287 1.394 . S
C288 H315 0.929 . S
C289 Tb280 2.764 . S
C289 C283 1.504 . S
C289 O301 1.239 . S
C289 O302 1.263 . S
O290 Tb280 2.325 . S
O290 C300 1.236 . S
O291 Tb281 2.322 . S
O291 C300 1.257 . S
O292 Tb281 2.349 . S
O292 C303 1.261 . S
O293 Tb280 2.303 . S
O293 C303 1.257 . S
O294 Tb281 2.415 . S
O294 C310 1.239 . S
O295 Tb281 2.399 . S
O295 C310 1.263 . S
O296 Tb281 2.325 . S
O296 C311 1.236 . S
O297 Tb280 2.322 . S
O297 C311 1.257 . S
O298 Tb280 2.349 . S
O298 C282 1.261 . S
O299 Tb281 2.303 . S
O299 C282 1.257 . S
C300 O290 1.236 . S
C300 O291 1.257 . S
O301 Tb280 2.415 . S
O301 C289 1.239 . S
O302 Tb280 2.399 . S
O302 C289 1.263 . S
C303 O292 1.261 . S
C303 O293 1.257 . S
C304 C307 1.358 . S
C304 C308 1.332 . S
C304 C310 1.504 . S
C305 C306 1.373 . S
C305 C309 1.308 . S
C306 C305 1.373 . S
C306 C307 1.429 . S
C306 H316 0.932 . S
C307 C304 1.358 . S
C307 C306 1.429 . S
C307 H317 0.930 . S
C308 C304 1.332 . S
C308 C309 1.394 . S
C308 H318 0.932 . S
C309 C305 1.308 . S
C309 C308 1.394 . S
C309 H319 0.929 . S
C310 Tb281 2.764 . S
C310 O294 1.239 . S
C310 O295 1.263 . S
C310 C304 1.504 . S
C311 O296 1.236 . S
C311 O297 1.257 . S
H312 C285 0.932 . S
H313 C286 0.930 . S
H314 C287 0.932 . S
H315 C288 0.929 . S
H316 C306 0.932 . S
H317 C307 0.930 . S
H318 C308 0.932 . S
H319 C309 0.929 . S
Fe320 O321 1.886 1_455 S
Fe320 O324 1.715 . S
Fe320 O329 2.077 1_455 S
Fe320 O334 1.935 . S
Fe320 O340 2.077 1_455 S
Fe320 O349 1.935 . S
O321 Fe320 1.886 1_655 S
O321 Fe323 1.715 . S
Fe322 O324 1.886 . S
Fe322 O325 1.715 1_545 S
Fe322 O332 1.935 . S
Fe322 O333 2.077 . S
Fe322 O339 1.935 . S
Fe322 O348 2.077 . S
Fe323 O321 1.715 . S
Fe323 O326 1.886 1_545 S
Fe323 O330 1.935 . S
Fe323 O335 2.077 1_545 S
Fe323 O341 1.935 . S
Fe323 O345 2.077 1_545 S
O324 Fe320 1.715 . S
O324 Fe322 1.886 . S
O325 Fe322 1.715 1_565 S
O325 Fe327 1.886 . S
O326 Fe323 1.886 1_565 S
O326 Fe327 1.715 1_655 S
Fe327 O325 1.886 . S
Fe327 O326 1.715 1_455 S
Fe327 O331 2.077 . S
Fe327 O336 1.935 1_455 S
Fe327 O338 2.077 . S
Fe327 O346 1.935 1_455 S
C328 O340 1.381 . S
C328 O341 1.421 . S
O329 Fe320 2.077 1_655 S
O329 C342 1.381 . S
O330 Fe323 1.935 . S
O330 C342 1.421 . S
O331 Fe327 2.077 . S
O331 C347 1.381 . S
O332 Fe322 1.935 . S
O332 C347 1.421 1_545 S
O333 Fe322 2.077 . S
O333 C337 1.381 . S
O334 Fe320 1.935 . S
O334 C337 1.421 . S
O335 Fe323 2.077 1_565 S
O335 C343 1.381 . S
O336 Fe327 1.935 1_655 S
O336 C343 1.421 . S
C337 O333 1.381 . S
C337 O334 1.421 . S
O338 Fe327 2.077 . S
O338 C350 1.381 . S
O339 Fe322 1.935 . S
O339 C350 1.421 1_545 S
O340 Fe320 2.077 1_655 S
O340 C328 1.381 . S
O341 Fe323 1.935 . S
O341 C328 1.421 . S
C342 O329 1.381 . S
C342 O330 1.421 . S
C343 O335 1.381 . S
C343 O336 1.421 . S
C344 O345 1.381 . S
C344 O346 1.421 . S
O345 Fe323 2.077 1_565 S
O345 C344 1.381 . S
O346 Fe327 1.935 1_655 S
O346 C344 1.421 . S
C347 O331 1.381 . S
C347 O332 1.421 1_565 S
O348 Fe322 2.077 . S
O348 C351 1.381 . S
O349 Fe320 1.935 . S
O349 C351 1.421 . S
C350 O338 1.381 . S
C350 O339 1.421 1_565 S
C351 O348 1.381 . S
C351 O349 1.421 . S
Fe352 O353 1.886 1_565 S
Fe352 O356 1.715 . S
Fe352 O361 2.077 . S
Fe352 O366 1.935 . S
Fe352 O372 2.077 . S
Fe352 O381 1.935 . S
O353 Fe352 1.886 1_545 S
O353 Fe355 1.715 . S
Fe354 O356 1.886 1_545 S
Fe354 O357 1.715 . S
Fe354 O364 1.935 . S
Fe354 O365 2.077 1_545 S
Fe354 O371 1.935 . S
Fe354 O380 2.077 1_545 S
Fe355 O353 1.715 . S
Fe355 O358 1.886 . S
Fe355 O362 1.935 . S
Fe355 O367 2.077 . S
Fe355 O373 1.935 . S
Fe355 O377 2.077 . S
O356 Fe352 1.715 . S
O356 Fe354 1.886 1_565 S
O357 Fe354 1.715 . S
O357 Fe359 1.886 . S
O358 Fe355 1.886 . S
O358 Fe359 1.715 . S
Fe359 O357 1.886 . S
Fe359 O358 1.715 . S
Fe359 O363 2.077 . S
Fe359 O368 1.935 . S
Fe359 O370 2.077 . S
Fe359 O378 1.935 . S
C360 O372 1.381 . S
C360 O373 1.421 1_565 S
O361 Fe352 2.077 . S
O361 C374 1.387 . S
O362 Fe355 1.935 . S
O362 C374 1.425 1_545 S
O363 Fe359 2.077 . S
O363 C379 1.381 1_554 S
O364 Fe354 1.935 . S
O364 C379 1.421 1_554 S
O365 Fe354 2.077 1_565 S
O365 C369 1.381 1_554 S
O366 Fe352 1.935 . S
O366 C369 1.421 1_554 S
O367 Fe355 2.077 . S
O367 C375 1.381 1_554 S
O368 Fe359 1.935 . S
O368 C375 1.421 1_554 S
C369 O365 1.381 1_556 S
C369 O366 1.421 1_556 S
O370 Fe359 2.077 . S
O370 C382 1.381 . S
O371 Fe354 1.935 . S
O371 C382 1.421 . S
O372 Fe352 2.077 . S
O372 C360 1.381 . S
O373 Fe355 1.935 . S
O373 C360 1.421 1_545 S
C374 O361 1.387 . S
C374 O362 1.425 1_565 S
C375 O367 1.381 1_556 S
C375 O368 1.421 1_556 S
C376 O377 1.381 . S
C376 O378 1.421 . S
O377 Fe355 2.077 . S
O377 C376 1.381 . S
O378 Fe359 1.935 . S
O378 C376 1.421 . S
C379 O363 1.381 1_556 S
C379 O364 1.421 1_556 S
O380 Fe354 2.077 1_565 S
O380 C383 1.381 . S
O381 Fe352 1.935 . S
O381 C383 1.421 . S
C382 O370 1.381 . S
C382 O371 1.421 . S
C383 O380 1.381 . S
C383 O381 1.421 . S
Fe384 O385 1.886 1_455 S
Fe384 O388 1.719 1_556 S
Fe384 O393 2.097 1_455 S
Fe384 O398 1.960 . S
Fe384 O404 2.055 1_456 S
Fe384 O413 1.911 1_556 S
O385 Fe384 1.886 1_655 S
O385 Fe387 1.715 . S
Fe386 O388 1.884 . S
Fe386 O389 1.715 . S
Fe386 O396 1.935 1_554 S
Fe386 O397 2.077 1_554 S
Fe386 O403 1.935 . S
Fe386 O412 2.077 . S
Fe387 O385 1.715 . S
Fe387 O390 1.887 1_556 S
Fe387 O394 1.935 . S
Fe387 O399 2.077 . S
Fe387 O405 1.935 1_556 S
Fe387 O409 2.077 1_556 S
O388 Fe384 1.719 1_554 S
O388 Fe386 1.884 . S
O389 Fe386 1.715 . S
O389 Fe391 1.886 1_455 S
O390 Fe387 1.887 1_554 S
O390 Fe391 1.714 . S
Fe391 O389 1.886 1_655 S
Fe391 O390 1.714 . S
Fe391 O395 2.077 1_654 S
Fe391 O400 1.935 1_554 S
Fe391 O402 2.077 1_655 S
Fe391 O410 1.935 . S
C392 O404 1.381 . S
C392 O405 1.421 . S
O393 Fe384 2.097 1_655 S
O393 C406 1.381 . S
O394 Fe387 1.935 . S
O394 C406 1.421 . S
O395 Fe391 2.077 1_456 S
O395 C411 1.381 . S
O396 Fe386 1.935 1_556 S
O396 C411 1.421 . S
O397 Fe386 2.077 1_556 S
O397 C401 1.381 . S
O398 Fe384 1.960 . S
O398 C401 1.421 . S
O399 Fe387 2.077 . S
O399 C407 1.381 . S
O400 Fe391 1.935 1_556 S
O400 C407 1.421 . S
C401 O397 1.381 . S
C401 O398 1.421 . S
O402 Fe391 2.077 1_455 S
O402 C414 1.381 . S
O403 Fe386 1.935 . S
O403 C414 1.421 . S
O404 Fe384 2.055 1_654 S
O404 C392 1.381 . S
O405 Fe387 1.935 1_554 S
O405 C392 1.421 . S
C406 O393 1.381 . S
C406 O394 1.421 . S
C407 O399 1.381 . S
C407 O400 1.421 . S
C408 O409 1.381 . S
C408 O410 1.421 . S
O409 Fe387 2.077 1_554 S
O409 C408 1.381 . S
O410 Fe391 1.935 . S
O410 C408 1.421 . S
C411 O395 1.381 . S
C411 O396 1.421 . S
O412 Fe386 2.077 . S
O412 C415 1.381 . S
O413 Fe384 1.911 1_554 S
O413 C415 1.421 . S
C414 O402 1.381 . S
C414 O403 1.421 . S
C415 O412 1.381 . S
C415 O413 1.421 . S
Fe416 O417 1.886 . S
Fe416 O420 1.715 . S
Fe416 O425 2.077 . S
Fe416 O430 1.935 . S
Fe416 O436 2.077 . S
Fe416 O445 1.935 . S
O417 Fe416 1.886 . S
O417 Fe419 1.715 1_556 S
Fe418 O420 1.886 1_554 S
Fe418 O421 1.715 . S
Fe418 O428 1.935 . S
Fe418 O429 2.077 1_554 S
Fe418 O435 1.935 . S
Fe418 O444 2.077 1_554 S
Fe419 O417 1.715 1_554 S
Fe419 O422 1.886 . S
Fe419 O426 1.934 1_554 S
Fe419 O431 2.077 . S
Fe419 O437 1.935 . S
Fe419 O441 2.077 . S
O420 Fe416 1.715 . S
O420 Fe418 1.886 1_556 S
O421 Fe418 1.715 . S
O421 Fe423 1.886 . S
O422 Fe419 1.886 . S
O422 Fe423 1.715 . S
Fe423 O421 1.886 . S
Fe423 O422 1.715 . S
Fe423 O427 2.077 . S
Fe423 O432 1.935 . S
Fe423 O434 2.077 . S
Fe423 O442 1.935 . S
C424 O436 1.381 . S
C424 O437 1.421 1_556 S
O425 Fe416 2.077 . S
O425 C438 1.381 . S
O426 Fe419 1.934 1_556 S
O426 C438 1.422 . S
O427 Fe423 2.077 . S
O427 C443 1.381 . S
O428 Fe418 1.935 . S
O428 C443 1.421 . S
O429 Fe418 2.077 1_556 S
O429 C433 1.381 . S
O430 Fe416 1.935 . S
O430 C433 1.421 . S
O431 Fe419 2.077 . S
O431 C439 1.381 . S
O432 Fe423 1.935 . S
O432 C439 1.421 . S
C433 O429 1.381 . S
C433 O430 1.421 . S
O434 Fe423 2.077 . S
O434 C446 1.381 . S
O435 Fe418 1.935 . S
O435 C446 1.421 . S
O436 Fe416 2.077 . S
O436 C424 1.381 . S
O437 Fe419 1.935 . S
O437 C424 1.421 1_554 S
C438 O425 1.381 . S
C438 O426 1.422 . S
C439 O431 1.381 . S
C439 O432 1.421 . S
C440 O441 1.381 . S
C440 O442 1.421 . S
O441 Fe419 2.077 . S
O441 C440 1.381 . S
O442 Fe423 1.935 . S
O442 C440 1.421 . S
C443 O427 1.381 . S
C443 O428 1.421 . S
O444 Fe418 2.077 1_556 S
O444 C447 1.381 . S
O445 Fe416 1.935 . S
O445 C447 1.421 . S
C446 O434 1.381 . S
C446 O435 1.421 . S
C447 O444 1.381 . S
C447 O445 1.421 . S
Fe448 O449 1.886 . S
Fe448 O452 1.715 . S
Fe448 O457 2.077 . S
Fe448 O462 1.935 . S
Fe448 O468 2.077 1_455 S
Fe448 O477 1.935 1_455 S
O449 Fe448 1.886 . S
O449 Fe451 1.715 . S
Fe450 O452 1.886 . S
Fe450 O453 1.715 . S
Fe450 O460 1.935 . S
Fe450 O461 2.077 . S
Fe450 O467 1.935 1_455 S
Fe450 O476 2.077 1_455 S
Fe451 O449 1.715 . S
Fe451 O454 1.886 . S
Fe451 O458 1.935 . S
Fe451 O463 2.077 . S
Fe451 O469 1.935 1_455 S
Fe451 O473 2.077 . S
O452 Fe448 1.715 . S
O452 Fe450 1.886 . S
O453 Fe450 1.715 . S
O453 Fe455 1.886 . S
O454 Fe451 1.886 . S
O454 Fe455 1.715 . S
Fe455 O453 1.886 . S
Fe455 O454 1.715 . S
Fe455 O459 2.077 . S
Fe455 O464 1.935 . S
Fe455 O466 2.077 . S
Fe455 O474 1.935 . S
C456 O468 1.381 . S
C456 O469 1.421 . S
O457 Fe448 2.077 . S
O457 C470 1.381 . S
O458 Fe451 1.935 . S
O458 C470 1.421 . S
O459 Fe455 2.077 . S
O459 C475 1.381 . S
O460 Fe450 1.935 . S
O460 C475 1.421 . S
O461 Fe450 2.077 . S
O461 C465 1.381 . S
O462 Fe448 1.935 . S
O462 C465 1.421 . S
O463 Fe451 2.077 . S
O463 C471 1.381 . S
O464 Fe455 1.935 . S
O464 C471 1.421 . S
C465 O461 1.381 . S
C465 O462 1.421 . S
O466 Fe455 2.077 . S
O466 C478 1.381 1_455 S
O467 Fe450 1.935 1_655 S
O467 C478 1.421 . S
O468 Fe448 2.077 1_655 S
O468 C456 1.381 . S
O469 Fe451 1.935 1_655 S
O469 C456 1.421 . S
C470 O457 1.381 . S
C470 O458 1.421 . S
C471 O463 1.381 . S
C471 O464 1.421 . S
C472 O473 1.381 1_655 S
C472 O474 1.421 1_655 S
O473 Fe451 2.077 . S
O473 C472 1.381 1_455 S
O474 Fe455 1.935 . S
O474 C472 1.421 1_455 S
C475 O459 1.381 . S
C475 O460 1.421 . S
O476 Fe450 2.077 1_655 S
O476 C479 1.381 . S
O477 Fe448 1.935 1_655 S
O477 C479 1.421 . S
C478 O466 1.381 1_655 S
C478 O467 1.421 . S
C479 O476 1.381 . S
C479 O477 1.421 . S
Fe480 O481 1.886 . S
Fe480 O484 1.715 . S
Fe480 O489 2.077 . S
Fe480 O494 1.935 . S
Fe480 O500 2.077 . S
Fe480 O509 1.935 . S
O481 Fe480 1.886 . S
O481 Fe483 1.715 1_565 S
Fe482 O484 1.886 1_545 S
Fe482 O485 1.715 . S
Fe482 O492 1.935 . S
Fe482 O493 2.077 1_545 S
Fe482 O499 1.935 . S
Fe482 O508 2.077 1_545 S
Fe483 O481 1.715 1_545 S
Fe483 O486 1.886 . S
Fe483 O490 1.935 1_545 S
Fe483 O495 2.077 . S
Fe483 O501 1.935 1_545 S
Fe483 O505 2.077 . S
O484 Fe480 1.715 . S
O484 Fe482 1.886 1_565 S
O485 Fe482 1.715 . S
O485 Fe487 1.886 . S
O486 Fe483 1.886 . S
O486 Fe487 1.715 . S
Fe487 O485 1.886 . S
Fe487 O486 1.715 . S
Fe487 O491 2.077 . S
Fe487 O496 1.935 . S
Fe487 O498 2.077 . S
Fe487 O506 1.935 . S
C488 O500 1.381 . S
C488 O501 1.421 . S
O489 Fe480 2.077 . S
O489 C502 1.381 . S
O490 Fe483 1.935 1_565 S
O490 C502 1.421 . S
O491 Fe487 2.077 . S
O491 C507 1.381 . S
O492 Fe482 1.935 . S
O492 C507 1.421 . S
O493 Fe482 2.077 1_565 S
O493 C497 1.381 . S
O494 Fe480 1.935 . S
O494 C497 1.421 . S
O495 Fe483 2.077 . S
O495 C503 1.381 . S
O496 Fe487 1.935 . S
O496 C503 1.421 . S
C497 O493 1.381 . S
C497 O494 1.421 . S
O498 Fe487 2.077 . S
O498 C510 1.381 . S
O499 Fe482 1.935 . S
O499 C510 1.421 . S
O500 Fe480 2.077 . S
O500 C488 1.381 . S
O501 Fe483 1.935 1_565 S
O501 C488 1.421 . S
C502 O489 1.381 . S
C502 O490 1.421 . S
C503 O495 1.381 . S
C503 O496 1.421 . S
C504 O505 1.381 . S
C504 O506 1.421 . S
O505 Fe483 2.077 . S
O505 C504 1.381 . S
O506 Fe487 1.935 . S
O506 C504 1.421 . S
C507 O491 1.381 . S
C507 O492 1.421 . S
O508 Fe482 2.077 1_565 S
O508 C511 1.381 . S
O509 Fe480 1.935 . S
O509 C511 1.421 . S
C510 O498 1.381 . S
C510 O499 1.421 . S
C511 O508 1.381 . S
C511 O509 1.421 . S
C512 C513 1.391 . S
C512 C514 1.394 . S
C512 H528 0.931 . S
C513 C512 1.391 . S
C513 C517 1.376 . S
C514 C512 1.394 . S
C514 C515 1.369 . S
C514 C518 1.531 . S
C515 C514 1.369 . S
C515 C516 1.410 . S
C515 C523 1.503 . S
C516 C515 1.410 . S
C516 C517 1.392 . S
C516 C519 1.511 . S
C517 C513 1.376 . S
C517 C516 1.392 . S
C517 H529 0.929 . S
C518 C514 1.531 . S
C518 H530 0.960 . S
C518 H531 0.962 . S
C518 H532 0.960 . S
C519 C516 1.511 . S
C519 H533 0.961 . S
C519 H534 0.961 . S
C519 H535 0.961 . S
C520 C521 1.370 . S
C520 C522 1.363 . S
C520 H536 0.931 . S
C521 C520 1.370 . S
C521 C525 1.408 . S
C522 C520 1.363 . S
C522 C523 1.370 . S
C522 C526 1.524 . S
C523 C515 1.503 . S
C523 C522 1.370 . S
C523 C524 1.403 . S
C524 C523 1.403 . S
C524 C525 1.404 . S
C524 C527 1.539 . S
C525 C521 1.408 . S
C525 C524 1.404 . S
C525 H537 0.930 . S
C526 C522 1.524 . S
C526 H538 0.956 . S
C526 H539 0.961 . S
C526 H540 0.961 . S
C527 C524 1.539 . S
C527 H541 0.958 . S
C527 H542 0.961 . S
C527 H543 0.960 . S
H528 C512 0.931 . S
H529 C517 0.929 . S
H530 C518 0.960 . S
H531 C518 0.962 . S
H532 C518 0.960 . S
H533 C519 0.961 . S
H534 C519 0.961 . S
H535 C519 0.961 . S
H536 C520 0.931 . S
H537 C525 0.930 . S
H538 C526 0.956 . S
H539 C526 0.961 . S
H540 C526 0.961 . S
H541 C527 0.958 . S
H542 C527 0.961 . S
H543 C527 0.960 . S
C544 C545 1.391 . S
C544 C546 1.394 . S
C544 H560 0.931 . S
C545 C544 1.391 . S
C545 C549 1.376 . S
C546 C544 1.394 . S
C546 C547 1.369 . S
C546 C550 1.531 . S
C547 C546 1.369 . S
C547 C548 1.410 . S
C547 C555 1.503 . S
C548 C547 1.410 . S
C548 C549 1.392 . S
C548 C551 1.511 . S
C549 C545 1.376 . S
C549 C548 1.392 . S
C549 H561 0.929 . S
C550 C546 1.531 . S
C550 H562 0.960 . S
C550 H563 0.962 . S
C550 H564 0.960 . S
C551 C548 1.511 . S
C551 H565 0.961 . S
C551 H566 0.961 . S
C551 H567 0.961 . S
C552 C553 1.370 . S
C552 C554 1.363 . S
C552 H568 0.931 1_655 S
C553 C552 1.370 . S
C553 C557 1.408 . S
C554 C552 1.363 . S
C554 C555 1.370 . S
C554 C558 1.524 . S
C555 C547 1.503 . S
C555 C554 1.370 . S
C555 C556 1.403 . S
C556 C555 1.403 . S
C556 C557 1.404 . S
C556 C559 1.539 . S
C557 C553 1.408 . S
C557 C556 1.404 . S
C557 H569 0.930 . S
C558 C554 1.524 . S
C558 H570 0.956 . S
C558 H571 0.961 . S
C558 H572 0.961 . S
C559 C556 1.539 . S
C559 H573 0.958 . S
C559 H574 0.961 . S
C559 H575 0.960 . S
H560 C544 0.931 . S
H561 C549 0.929 . S
H562 C550 0.960 . S
H563 C550 0.962 . S
H564 C550 0.960 . S
H565 C551 0.961 . S
H566 C551 0.961 . S
H567 C551 0.961 . S
H568 C552 0.931 1_455 S
H569 C557 0.930 . S
H570 C558 0.956 . S
H571 C558 0.961 . S
H572 C558 0.961 . S
H573 C559 0.958 . S
H574 C559 0.961 . S
H575 C559 0.960 . S
C576 C577 1.391 . S
C576 C578 1.394 . S
C576 H592 0.931 . S
C577 C576 1.391 . S
C577 C581 1.376 . S
C578 C576 1.394 . S
C578 C579 1.369 . S
C578 C582 1.531 . S
C579 C578 1.369 . S
C579 C580 1.410 . S
C579 C587 1.503 . S
C580 C579 1.410 . S
C580 C581 1.392 . S
C580 C583 1.511 . S
C581 C577 1.376 . S
C581 C580 1.392 . S
C581 H593 0.929 . S
C582 C578 1.531 . S
C582 H594 0.960 . S
C582 H595 0.962 . S
C582 H596 0.960 . S
C583 C580 1.511 . S
C583 H597 0.961 . S
C583 H598 0.961 . S
C583 H599 0.961 . S
C584 C585 1.370 . S
C584 C586 1.363 . S
C584 H600 0.931 . S
C585 C584 1.370 . S
C585 C589 1.408 . S
C586 C584 1.363 . S
C586 C587 1.370 . S
C586 C590 1.524 . S
C587 C579 1.503 . S
C587 C586 1.370 . S
C587 C588 1.403 . S
C588 C587 1.403 . S
C588 C589 1.404 . S
C588 C591 1.539 . S
C589 C585 1.408 . S
C589 C588 1.404 . S
C589 H601 0.930 . S
C590 C586 1.524 . S
C590 H602 0.956 . S
C590 H603 0.961 . S
C590 H604 0.961 . S
C591 C588 1.539 . S
C591 H605 0.958 . S
C591 H606 0.961 . S
C591 H607 0.960 . S
H592 C576 0.931 . S
H593 C581 0.929 . S
H594 C582 0.960 . S
H595 C582 0.962 . S
H596 C582 0.960 . S
H597 C583 0.961 . S
H598 C583 0.961 . S
H599 C583 0.961 . S
H600 C584 0.931 . S
H601 C589 0.930 . S
H602 C590 0.956 . S
H603 C590 0.961 . S
H604 C590 0.961 . S
H605 C591 0.958 . S
H606 C591 0.961 . S
H607 C591 0.960 . S
C608 C609 1.391 . S
C608 C610 1.394 . S
C608 H624 0.931 . S
C609 C608 1.391 . S
C609 C613 1.376 . S
C610 C608 1.394 . S
C610 C611 1.369 . S
C610 C614 1.531 . S
C611 C610 1.369 . S
C611 C612 1.410 . S
C611 C619 1.503 . S
C612 C611 1.410 . S
C612 C613 1.392 . S
C612 C615 1.511 . S
C613 C609 1.376 . S
C613 C612 1.392 . S
C613 H625 0.929 . S
C614 C610 1.531 . S
C614 H626 0.960 . S
C614 H627 0.962 . S
C614 H628 0.960 . S
C615 C612 1.511 . S
C615 H629 0.961 . S
C615 H630 0.961 . S
C615 H631 0.961 . S
C616 C617 1.370 . S
C616 C618 1.363 . S
C616 H632 0.931 . S
C617 C616 1.370 . S
C617 C621 1.408 . S
C618 C616 1.363 . S
C618 C619 1.370 . S
C618 C622 1.524 . S
C619 C611 1.503 . S
C619 C618 1.370 . S
C619 C620 1.403 . S
C620 C619 1.403 . S
C620 C621 1.404 . S
C620 C623 1.539 . S
C621 C617 1.408 . S
C621 C620 1.404 . S
C621 H633 0.930 . S
C622 C618 1.524 . S
C622 H634 0.956 . S
C622 H635 0.961 . S
C622 H636 0.961 . S
C623 C620 1.539 . S
C623 H637 0.958 . S
C623 H638 0.961 . S
C623 H639 0.960 . S
H624 C608 0.931 . S
H625 C613 0.929 . S
H626 C614 0.960 . S
H627 C614 0.962 . S
H628 C614 0.960 . S
H629 C615 0.961 . S
H630 C615 0.961 . S
H631 C615 0.961 . S
H632 C616 0.931 . S
H633 C621 0.930 . S
H634 C622 0.956 . S
H635 C622 0.961 . S
H636 C622 0.961 . S
H637 C623 0.958 . S
H638 C623 0.961 . S
H639 C623 0.960 . S
C640 C641 1.391 . S
C640 C642 1.394 . S
C640 H656 0.931 . S
C641 C640 1.391 . S
C641 C645 1.376 . S
C642 C640 1.394 . S
C642 C643 1.369 . S
C642 C646 1.531 . S
C643 C642 1.369 . S
C643 C644 1.410 . S
C643 C651 1.503 . S
C644 C643 1.410 . S
C644 C645 1.392 . S
C644 C647 1.511 . S
C645 C641 1.376 . S
C645 C644 1.392 . S
C645 H657 0.929 . S
C646 C642 1.531 . S
C646 H658 0.960 . S
C646 H659 0.962 . S
C646 H660 0.960 . S
C647 C644 1.511 . S
C647 H661 0.961 . S
C647 H662 0.961 . S
C647 H663 0.961 . S
C648 C649 1.370 . S
C648 C650 1.363 . S
C648 H664 0.931 . S
C649 C648 1.370 . S
C649 C653 1.408 . S
C650 C648 1.363 . S
C650 C651 1.370 . S
C650 C654 1.524 . S
C651 C643 1.503 . S
C651 C650 1.370 . S
C651 C652 1.403 . S
C652 C651 1.403 . S
C652 C653 1.404 . S
C652 C655 1.539 . S
C653 C649 1.408 . S
C653 C652 1.404 . S
C653 H665 0.930 . S
C654 C650 1.524 . S
C654 H666 0.956 . S
C654 H667 0.961 . S
C654 H668 0.961 . S
C655 C652 1.539 . S
C655 H669 0.958 . S
C655 H670 0.961 . S
C655 H671 0.960 . S
H656 C640 0.931 . S
H657 C645 0.929 . S
H658 C646 0.960 . S
H659 C646 0.962 . S
H660 C646 0.960 . S
H661 C647 0.961 . S
H662 C647 0.961 . S
H663 C647 0.961 . S
H664 C648 0.931 . S
H665 C653 0.930 . S
H666 C654 0.956 . S
H667 C654 0.961 . S
H668 C654 0.961 . S
H669 C655 0.958 . S
H670 C655 0.961 . S
H671 C655 0.960 . S
C672 C673 1.391 . S
C672 C674 1.394 . S
C672 H688 0.931 . S
C673 C672 1.391 . S
C673 C677 1.376 . S
C674 C672 1.394 . S
C674 C675 1.369 . S
C674 C678 1.531 . S
C675 C674 1.369 . S
C675 C676 1.410 . S
C675 C683 1.503 . S
C676 C675 1.410 . S
C676 C677 1.392 . S
C676 C679 1.511 . S
C677 C673 1.376 . S
C677 C676 1.392 . S
C677 H689 0.929 . S
C678 C674 1.531 . S
C678 H690 0.960 . S
C678 H691 0.962 . S
C678 H692 0.960 . S
C679 C676 1.511 . S
C679 H693 0.961 . S
C679 H694 0.961 . S
C679 H695 0.961 . S
C680 C681 1.370 . S
C680 C682 1.363 . S
C680 H696 0.931 . S
C681 C680 1.370 . S
C681 C685 1.408 . S
C682 C680 1.363 . S
C682 C683 1.370 . S
C682 C686 1.524 . S
C683 C675 1.503 . S
C683 C682 1.370 . S
C683 C684 1.403 . S
C684 C683 1.403 . S
C684 C685 1.404 . S
C684 C687 1.539 . S
C685 C681 1.408 . S
C685 C684 1.404 . S
C685 H697 0.930 . S
C686 C682 1.524 . S
C686 H698 0.956 . S
C686 H699 0.961 . S
C686 H700 0.961 . S
C687 C684 1.539 . S
C687 H701 0.958 . S
C687 H702 0.961 . S
C687 H703 0.960 . S
H688 C672 0.931 . S
H689 C677 0.929 . S
H690 C678 0.960 . S
H691 C678 0.962 . S
H692 C678 0.960 . S
H693 C679 0.961 . S
H694 C679 0.961 . S
H695 C679 0.961 . S
H696 C680 0.931 . S
H697 C685 0.930 . S
H698 C686 0.956 . S
H699 C686 0.961 . S
H700 C686 0.961 . S
H701 C687 0.958 . S
H702 C687 0.961 . S
H703 C687 0.960 . S
C704 C705 1.391 . S
C704 C706 1.394 . S
C704 H720 0.931 . S
C705 C704 1.391 . S
C705 C709 1.376 . S
C706 C704 1.394 . S
C706 C707 1.369 . S
C706 C710 1.531 . S
C707 C706 1.369 . S
C707 C708 1.410 . S
C707 C715 1.503 . S
C708 C707 1.410 . S
C708 C709 1.392 . S
C708 C711 1.511 . S
C709 C705 1.376 . S
C709 C708 1.392 . S
C709 H721 0.929 . S
C710 C706 1.531 . S
C710 H722 0.960 . S
C710 H723 0.962 . S
C710 H724 0.960 . S
C711 C708 1.511 . S
C711 H725 0.961 . S
C711 H726 0.961 . S
C711 H727 0.961 . S
C712 C713 1.370 . S
C712 C714 1.363 . S
C712 H728 0.931 . S
C713 C712 1.370 . S
C713 C717 1.408 . S
C714 C712 1.363 . S
C714 C715 1.370 . S
C714 C718 1.524 . S
C715 C707 1.503 . S
C715 C714 1.370 . S
C715 C716 1.403 . S
C716 C715 1.403 . S
C716 C717 1.404 . S
C716 C719 1.539 . S
C717 C713 1.408 . S
C717 C716 1.404 . S
C717 H729 0.930 . S
C718 C714 1.524 . S
C718 H730 0.956 . S
C718 H731 0.961 . S
C718 H732 0.961 . S
C719 C716 1.539 . S
C719 H733 0.958 . S
C719 H734 0.961 . S
C719 H735 0.960 . S
H720 C704 0.931 . S
H721 C709 0.929 . S
H722 C710 0.960 . S
H723 C710 0.962 . S
H724 C710 0.960 . S
H725 C711 0.961 . S
H726 C711 0.961 . S
H727 C711 0.961 . S
H728 C712 0.931 . S
H729 C717 0.930 . S
H730 C718 0.956 . S
H731 C718 0.961 . S
H732 C718 0.961 . S
H733 C719 0.958 . S
H734 C719 0.961 . S
H735 C719 0.960 . S
C736 C737 1.391 . S
C736 C738 1.394 . S
C736 H752 0.931 . S
C737 C736 1.391 . S
C737 C741 1.376 . S
C738 C736 1.394 . S
C738 C739 1.369 . S
C738 C742 1.531 . S
C739 C738 1.369 . S
C739 C740 1.410 . S
C739 C747 1.503 . S
C740 C739 1.410 . S
C740 C741 1.392 . S
C740 C743 1.511 . S
C741 C737 1.376 . S
C741 C740 1.392 . S
C741 H753 0.929 . S
C742 C738 1.531 . S
C742 H754 0.960 . S
C742 H755 0.962 . S
C742 H756 0.960 . S
C743 C740 1.511 . S
C743 H757 0.961 . S
C743 H758 0.961 . S
C743 H759 0.961 . S
C744 C745 1.370 . S
C744 C746 1.363 . S
C744 H760 0.931 . S
C745 C744 1.370 . S
C745 C749 1.408 . S
C746 C744 1.363 . S
C746 C747 1.370 . S
C746 C750 1.524 . S
C747 C739 1.503 . S
C747 C746 1.370 . S
C747 C748 1.403 . S
C748 C747 1.403 . S
C748 C749 1.404 . S
C748 C751 1.539 . S
C749 C745 1.408 . S
C749 C748 1.404 . S
C749 H761 0.930 . S
C750 C746 1.524 . S
C750 H762 0.956 . S
C750 H763 0.961 . S
C750 H764 0.961 . S
C751 C748 1.539 . S
C751 H765 0.958 . S
C751 H766 0.961 . S
C751 H767 0.960 . S
H752 C736 0.931 . S
H753 C741 0.929 . S
H754 C742 0.960 . S
H755 C742 0.962 . S
H756 C742 0.960 . S
H757 C743 0.961 . S
H758 C743 0.961 . S
H759 C743 0.961 . S
H760 C744 0.931 . S
H761 C749 0.930 . S
H762 C750 0.956 . S
H763 C750 0.961 . S
H764 C750 0.961 . S
H765 C751 0.958 . S
H766 C751 0.961 . S
H767 C751 0.960 . S
C768 C769 1.391 . S
C768 C770 1.394 . S
C768 H784 0.931 . S
C769 C768 1.391 . S
C769 C773 1.376 . S
C770 C768 1.394 . S
C770 C771 1.369 . S
C770 C774 1.531 . S
C771 C770 1.369 . S
C771 C772 1.410 . S
C771 C779 1.503 . S
C772 C771 1.410 . S
C772 C773 1.392 . S
C772 C775 1.511 . S
C773 C769 1.376 . S
C773 C772 1.392 . S
C773 H785 0.929 . S
C774 C770 1.531 . S
C774 H786 0.960 . S
C774 H787 0.962 . S
C774 H788 0.960 . S
C775 C772 1.511 . S
C775 H789 0.961 . S
C775 H790 0.961 . S
C775 H791 0.961 . S
C776 C777 1.370 . S
C776 C778 1.363 . S
C776 H792 0.931 . S
C777 C776 1.370 . S
C777 C781 1.408 . S
C778 C776 1.363 . S
C778 C779 1.370 . S
C778 C782 1.524 . S
C779 C771 1.503 . S
C779 C778 1.370 . S
C779 C780 1.403 . S
C780 C779 1.403 . S
C780 C781 1.404 . S
C780 C783 1.539 . S
C781 C777 1.408 . S
C781 C780 1.404 . S
C781 H793 0.930 . S
C782 C778 1.524 . S
C782 H794 0.956 . S
C782 H795 0.961 . S
C782 H796 0.961 . S
C783 C780 1.539 . S
C783 H797 0.958 . S
C783 H798 0.961 . S
C783 H799 0.960 . S
H784 C768 0.931 . S
H785 C773 0.929 . S
H786 C774 0.960 . S
H787 C774 0.962 . S
H788 C774 0.960 . S
H789 C775 0.961 . S
H790 C775 0.961 . S
H791 C775 0.961 . S
H792 C776 0.931 . S
H793 C781 0.930 . S
H794 C782 0.956 . S
H795 C782 0.961 . S
H796 C782 0.961 . S
H797 C783 0.958 . S
H798 C783 0.961 . S
H799 C783 0.960 . S
C800 C801 1.391 . S
C800 C802 1.394 . S
C800 H816 0.931 . S
C801 C800 1.391 . S
C801 C805 1.376 . S
C802 C800 1.394 . S
C802 C803 1.369 . S
C802 C806 1.531 . S
C803 C802 1.369 . S
C803 C804 1.410 . S
C803 C811 1.503 . S
C804 C803 1.410 . S
C804 C805 1.392 . S
C804 C807 1.511 . S
C805 C801 1.376 . S
C805 C804 1.392 . S
C805 H817 0.929 . S
C806 C802 1.531 . S
C806 H818 0.960 . S
C806 H819 0.962 . S
C806 H820 0.960 . S
C807 C804 1.511 . S
C807 H821 0.961 . S
C807 H822 0.961 . S
C807 H823 0.961 . S
C808 C809 1.370 . S
C808 C810 1.363 . S
C808 H824 0.931 . S
C809 C808 1.370 . S
C809 C813 1.408 . S
C810 C808 1.363 . S
C810 C811 1.370 . S
C810 C814 1.524 . S
C811 C803 1.503 . S
C811 C810 1.370 . S
C811 C812 1.403 . S
C812 C811 1.403 . S
C812 C813 1.404 . S
C812 C815 1.539 . S
C813 C809 1.408 . S
C813 C812 1.404 . S
C813 H825 0.930 . S
C814 C810 1.524 . S
C814 H826 0.956 . S
C814 H827 0.961 . S
C814 H828 0.961 . S
C815 C812 1.539 . S
C815 H829 0.958 . S
C815 H830 0.961 . S
C815 H831 0.960 . S
H816 C800 0.931 . S
H817 C805 0.929 . S
H818 C806 0.960 . S
H819 C806 0.962 . S
H820 C806 0.960 . S
H821 C807 0.961 . S
H822 C807 0.961 . S
H823 C807 0.961 . S
H824 C808 0.931 . S
H825 C813 0.930 . S
H826 C814 0.956 . S
H827 C814 0.961 . S
H828 C814 0.961 . S
H829 C815 0.958 . S
H830 C815 0.961 . S
H831 C815 0.960 . S
C832 C833 1.391 . S
C832 C834 1.394 . S
C832 H848 0.931 . S
C833 C832 1.391 . S
C833 C837 1.376 . S
C834 C832 1.394 . S
C834 C835 1.369 . S
C834 C838 1.531 . S
C835 C834 1.369 . S
C835 C836 1.410 . S
C835 C843 1.503 . S
C836 C835 1.410 . S
C836 C837 1.392 . S
C836 C839 1.511 . S
C837 C833 1.376 . S
C837 C836 1.392 . S
C837 H849 0.929 . S
C838 C834 1.531 . S
C838 H850 0.960 . S
C838 H851 0.962 . S
C838 H852 0.960 . S
C839 C836 1.511 . S
C839 H853 0.961 . S
C839 H854 0.961 . S
C839 H855 0.961 . S
C840 C841 1.370 . S
C840 C842 1.363 . S
C840 H856 0.931 . S
C841 C840 1.370 . S
C841 C845 1.408 . S
C842 C840 1.363 . S
C842 C843 1.370 . S
C842 C846 1.524 . S
C843 C835 1.503 . S
C843 C842 1.370 . S
C843 C844 1.403 . S
C844 C843 1.403 . S
C844 C845 1.404 . S
C844 C847 1.539 . S
C845 C841 1.408 . S
C845 C844 1.404 . S
C845 H857 0.930 . S
C846 C842 1.524 . S
C846 H858 0.956 . S
C846 H859 0.961 . S
C846 H860 0.961 . S
C847 C844 1.539 . S
C847 H861 0.958 . S
C847 H862 0.961 . S
C847 H863 0.960 . S
H848 C832 0.931 . S
H849 C837 0.929 . S
H850 C838 0.960 . S
H851 C838 0.962 . S
H852 C838 0.960 . S
H853 C839 0.961 . S
H854 C839 0.961 . S
H855 C839 0.961 . S
H856 C840 0.931 . S
H857 C845 0.930 . S
H858 C846 0.956 . S
H859 C846 0.961 . S
H860 C846 0.961 . S
H861 C847 0.958 . S
H862 C847 0.961 . S
H863 C847 0.960 . S
C864 C865 1.391 . S
C864 C866 1.394 . S
C864 H880 0.931 . S
C865 C864 1.391 . S
C865 C869 1.376 . S
C866 C864 1.394 . S
C866 C867 1.369 . S
C866 C870 1.531 . S
C867 C866 1.369 . S
C867 C868 1.410 . S
C867 C875 1.503 . S
C868 C867 1.410 . S
C868 C869 1.392 . S
C868 C871 1.511 . S
C869 C865 1.376 . S
C869 C868 1.392 . S
C869 H881 0.929 . S
C870 C866 1.531 . S
C870 H882 0.960 . S
C870 H883 0.962 . S
C870 H884 0.960 . S
C871 C868 1.511 . S
C871 H885 0.961 . S
C871 H886 0.961 . S
C871 H887 0.961 . S
C872 C873 1.370 . S
C872 C874 1.363 . S
C872 H888 0.931 . S
C873 C872 1.370 . S
C873 C877 1.408 . S
C874 C872 1.363 . S
C874 C875 1.370 . S
C874 C878 1.524 . S
C875 C867 1.503 . S
C875 C874 1.370 . S
C875 C876 1.403 . S
C876 C875 1.403 . S
C876 C877 1.404 . S
C876 C879 1.539 . S
C877 C873 1.408 . S
C877 C876 1.404 . S
C877 H889 0.930 . S
C878 C874 1.524 . S
C878 H890 0.956 . S
C878 H891 0.961 . S
C878 H892 0.961 . S
C879 C876 1.539 . S
C879 H893 0.958 . S
C879 H894 0.961 . S
C879 H895 0.960 . S
H880 C864 0.931 . S
H881 C869 0.929 . S
H882 C870 0.960 . S
H883 C870 0.962 . S
H884 C870 0.960 . S
H885 C871 0.961 . S
H886 C871 0.961 . S
H887 C871 0.961 . S
H888 C872 0.931 . S
H889 C877 0.930 . S
H890 C878 0.956 . S
H891 C878 0.961 . S
H892 C878 0.961 . S
H893 C879 0.958 . S
H894 C879 0.961 . S
H895 C879 0.960 . S
C896 C897 1.391 . S
C896 C898 1.394 . S
C896 H912 0.931 . S
C897 C896 1.391 . S
C897 C901 1.376 . S
C898 C896 1.394 . S
C898 C899 1.369 . S
C898 C902 1.531 . S
C899 C898 1.369 . S
C899 C900 1.410 . S
C899 C907 1.503 . S
C900 C899 1.410 . S
C900 C901 1.392 . S
C900 C903 1.511 . S
C901 C897 1.376 . S
C901 C900 1.392 . S
C901 H913 0.929 . S
C902 C898 1.531 . S
C902 H914 0.960 . S
C902 H915 0.962 . S
C902 H916 0.960 . S
C903 C900 1.511 . S
C903 H917 0.961 . S
C903 H918 0.961 . S
C903 H919 0.961 . S
C904 C905 1.370 . S
C904 C906 1.363 . S
C904 H920 0.931 . S
C905 C904 1.370 . S
C905 C909 1.408 . S
C906 C904 1.363 . S
C906 C907 1.370 . S
C906 C910 1.524 . S
C907 C899 1.503 . S
C907 C906 1.370 . S
C907 C908 1.403 . S
C908 C907 1.403 . S
C908 C909 1.404 . S
C908 C911 1.539 . S
C909 C905 1.408 . S
C909 C908 1.404 . S
C909 H921 0.930 . S
C910 C906 1.524 . S
C910 H922 0.956 . S
C910 H923 0.961 . S
C910 H924 0.961 . S
C911 C908 1.539 . S
C911 H925 0.958 . S
C911 H926 0.961 . S
C911 H927 0.960 . S
H912 C896 0.931 . S
H913 C901 0.929 . S
H914 C902 0.960 . S
H915 C902 0.962 . S
H916 C902 0.960 . S
H917 C903 0.961 . S
H918 C903 0.961 . S
H919 C903 0.961 . S
H920 C904 0.931 . S
H921 C909 0.930 . S
H922 C910 0.956 . S
H923 C910 0.961 . S
H924 C910 0.961 . S
H925 C911 0.958 . S
H926 C911 0.961 . S
H927 C911 0.960 . S
C928 C929 1.391 . S
C928 C930 1.394 . S
C928 H944 0.931 . S
C929 C928 1.391 . S
C929 C933 1.376 . S
C930 C928 1.394 . S
C930 C931 1.369 . S
C930 C934 1.531 . S
C931 C930 1.369 . S
C931 C932 1.410 . S
C931 C939 1.503 . S
C932 C931 1.410 . S
C932 C933 1.392 . S
C932 C935 1.511 . S
C933 C929 1.376 . S
C933 C932 1.392 . S
C933 H945 0.929 . S
C934 C930 1.531 . S
C934 H946 0.960 . S
C934 H947 0.962 . S
C934 H948 0.960 . S
C935 C932 1.511 . S
C935 H949 0.961 . S
C935 H950 0.961 . S
C935 H951 0.961 . S
C936 C937 1.370 . S
C936 C938 1.363 . S
C936 H952 0.931 . S
C937 C936 1.370 . S
C937 C941 1.408 . S
C938 C936 1.363 . S
C938 C939 1.370 . S
C938 C942 1.524 . S
C939 C931 1.503 . S
C939 C938 1.370 . S
C939 C940 1.403 . S
C940 C939 1.403 . S
C940 C941 1.404 . S
C940 C943 1.539 . S
C941 C937 1.408 . S
C941 C940 1.404 . S
C941 H953 0.930 . S
C942 C938 1.524 . S
C942 H954 0.956 . S
C942 H955 0.961 . S
C942 H956 0.961 . S
C943 C940 1.539 . S
C943 H957 0.958 . S
C943 H958 0.961 . S
C943 H959 0.960 . S
H944 C928 0.931 . S
H945 C933 0.929 . S
H946 C934 0.960 . S
H947 C934 0.962 . S
H948 C934 0.960 . S
H949 C935 0.961 . S
H950 C935 0.961 . S
H951 C935 0.961 . S
H952 C936 0.931 . S
H953 C941 0.930 . S
H954 C942 0.956 . S
H955 C942 0.961 . S
H956 C942 0.961 . S
H957 C943 0.958 . S
H958 C943 0.961 . S
H959 C943 0.960 . S
C960 C961 1.391 . S
C960 C962 1.394 . S
C960 H976 0.931 . S
C961 C960 1.391 . S
C961 C965 1.376 . S
C962 C960 1.394 . S
C962 C963 1.369 . S
C962 C966 1.531 . S
C963 C962 1.369 . S
C963 C964 1.410 . S
C963 C971 1.503 . S
C964 C963 1.410 . S
C964 C965 1.392 . S
C964 C967 1.511 . S
C965 C961 1.376 . S
C965 C964 1.392 . S
C965 H977 0.929 . S
C966 C962 1.531 . S
C966 H978 0.960 . S
C966 H979 0.962 . S
C966 H980 0.960 . S
C967 C964 1.511 . S
C967 H981 0.961 . S
C967 H982 0.961 . S
C967 H983 0.961 . S
C968 C969 1.370 . S
C968 C970 1.363 . S
C968 H984 0.931 . S
C969 C968 1.370 . S
C969 C973 1.408 . S
C970 C968 1.363 . S
C970 C971 1.370 . S
C970 C974 1.524 . S
C971 C963 1.503 . S
C971 C970 1.370 . S
C971 C972 1.403 . S
C972 C971 1.403 . S
C972 C973 1.404 . S
C972 C975 1.539 . S
C973 C969 1.408 . S
C973 C972 1.404 . S
C973 H985 0.930 . S
C974 C970 1.524 . S
C974 H986 0.956 . S
C974 H987 0.961 . S
C974 H988 0.961 . S
C975 C972 1.539 . S
C975 H989 0.958 . S
C975 H990 0.961 . S
C975 H991 0.960 . S
H976 C960 0.931 . S
H977 C965 0.929 . S
H978 C966 0.960 . S
H979 C966 0.962 . S
H980 C966 0.960 . S
H981 C967 0.961 . S
H982 C967 0.961 . S
H983 C967 0.961 . S
H984 C968 0.931 . S
H985 C973 0.930 . S
H986 C974 0.956 . S
H987 C974 0.961 . S
H988 C974 0.961 . S
H989 C975 0.958 . S
H990 C975 0.961 . S
H991 C975 0.960 . S
C992 C993 1.391 . S
C992 C994 1.394 . S
C992 H1008 0.931 . S
C993 C992 1.391 . S
C993 C997 1.376 . S
C994 C992 1.394 . S
C994 C995 1.369 . S
C994 C998 1.531 . S
C995 C994 1.369 . S
C995 C996 1.410 . S
C995 C1003 1.503 . S
C996 C995 1.410 . S
C996 C997 1.392 . S
C996 C999 1.511 . S
C997 C993 1.376 . S
C997 C996 1.392 . S
C997 H1009 0.929 . S
C998 C994 1.531 . S
C998 H1010 0.960 . S
C998 H1011 0.962 . S
C998 H1012 0.960 . S
C999 C996 1.511 . S
C999 H1013 0.961 . S
C999 H1014 0.961 . S
C999 H1015 0.961 . S
C1000 C1001 1.370 . S
C1000 C1002 1.363 . S
C1000 H1016 0.931 . S
C1001 C1000 1.370 . S
C1001 C1005 1.408 . S
C1002 C1000 1.363 . S
C1002 C1003 1.370 . S
C1002 C1006 1.524 . S
C1003 C995 1.503 . S
C1003 C1002 1.370 . S
C1003 C1004 1.403 . S
C1004 C1003 1.403 . S
C1004 C1005 1.404 . S
C1004 C1007 1.539 . S
C1005 C1001 1.408 . S
C1005 C1004 1.404 . S
C1005 H1017 0.930 . S
C1006 C1002 1.524 . S
C1006 H1018 0.956 . S
C1006 H1019 0.961 . S
C1006 H1020 0.961 . S
C1007 C1004 1.539 . S
C1007 H1021 0.958 . S
C1007 H1022 0.961 . S
C1007 H1023 0.960 . S
H1008 C992 0.931 . S
H1009 C997 0.929 . S
H1010 C998 0.960 . S
H1011 C998 0.962 . S
H1012 C998 0.960 . S
H1013 C999 0.961 . S
H1014 C999 0.961 . S
H1015 C999 0.961 . S
H1016 C1000 0.931 . S
H1017 C1005 0.930 . S
H1018 C1006 0.956 . S
H1019 C1006 0.961 . S
H1020 C1006 0.961 . S
H1021 C1007 0.958 . S
H1022 C1007 0.961 . S
H1023 C1007 0.960 . S
C1024 C1025 1.391 . S
C1024 C1026 1.394 . S
C1024 H1040 0.931 . S
C1025 C1024 1.391 . S
C1025 C1029 1.376 . S
C1026 C1024 1.394 . S
C1026 C1027 1.369 . S
C1026 C1030 1.531 . S
C1027 C1026 1.369 . S
C1027 C1028 1.410 . S
C1027 C1035 1.503 . S
C1028 C1027 1.410 . S
C1028 C1029 1.392 . S
C1028 C1031 1.511 . S
C1029 C1025 1.376 . S
C1029 C1028 1.392 . S
C1029 H1041 0.929 . S
C1030 C1026 1.531 . S
C1030 H1042 0.960 . S
C1030 H1043 0.962 . S
C1030 H1044 0.960 . S
C1031 C1028 1.511 . S
C1031 H1045 0.961 . S
C1031 H1046 0.961 . S
C1031 H1047 0.961 . S
C1032 C1033 1.370 . S
C1032 C1034 1.363 . S
C1032 H1048 0.931 . S
C1033 C1032 1.370 . S
C1033 C1037 1.408 . S
C1034 C1032 1.363 . S
C1034 C1035 1.370 . S
C1034 C1038 1.524 . S
C1035 C1027 1.503 . S
C1035 C1034 1.370 . S
C1035 C1036 1.403 . S
C1036 C1035 1.403 . S
C1036 C1037 1.404 . S
C1036 C1039 1.539 . S
C1037 C1033 1.408 . S
C1037 C1036 1.404 . S
C1037 H1049 0.930 . S
C1038 C1034 1.524 . S
C1038 H1050 0.956 . S
C1038 H1051 0.961 . S
C1038 H1052 0.961 . S
C1039 C1036 1.539 . S
C1039 H1053 0.958 . S
C1039 H1054 0.961 . S
C1039 H1055 0.960 . S
H1040 C1024 0.931 . S
H1041 C1029 0.929 . S
H1042 C1030 0.960 . S
H1043 C1030 0.962 . S
H1044 C1030 0.960 . S
H1045 C1031 0.961 . S
H1046 C1031 0.961 . S
H1047 C1031 0.961 . S
H1048 C1032 0.931 . S
H1049 C1037 0.930 . S
H1050 C1038 0.956 . S
H1051 C1038 0.961 . S
H1052 C1038 0.961 . S
H1053 C1039 0.958 . S
H1054 C1039 0.961 . S
H1055 C1039 0.960 . S
C1056 C1057 1.391 . S
C1056 C1058 1.394 . S
C1056 H1072 0.931 . S
C1057 C1056 1.391 . S
C1057 C1061 1.376 . S
C1058 C1056 1.394 . S
C1058 C1059 1.369 . S
C1058 C1062 1.531 . S
C1059 C1058 1.369 . S
C1059 C1060 1.410 . S
C1059 C1067 1.503 . S
C1060 C1059 1.410 . S
C1060 C1061 1.392 . S
C1060 C1063 1.511 . S
C1061 C1057 1.376 . S
C1061 C1060 1.392 . S
C1061 H1073 0.929 . S
C1062 C1058 1.531 . S
C1062 H1074 0.960 . S
C1062 H1075 0.962 . S
C1062 H1076 0.960 . S
C1063 C1060 1.511 . S
C1063 H1077 0.961 . S
C1063 H1078 0.961 . S
C1063 H1079 0.961 . S
C1064 C1065 1.370 . S
C1064 C1066 1.363 . S
C1064 H1080 0.931 . S
C1065 C1064 1.370 . S
C1065 C1069 1.408 . S
C1066 C1064 1.363 . S
C1066 C1067 1.370 . S
C1066 C1070 1.524 . S
C1067 C1059 1.503 . S
C1067 C1066 1.370 . S
C1067 C1068 1.403 . S
C1068 C1067 1.403 . S
C1068 C1069 1.404 . S
C1068 C1071 1.539 . S
C1069 C1065 1.408 . S
C1069 C1068 1.404 . S
C1069 H1081 0.930 . S
C1070 C1066 1.524 . S
C1070 H1082 0.956 . S
C1070 H1083 0.961 . S
C1070 H1084 0.961 . S
C1071 C1068 1.539 . S
C1071 H1085 0.958 . S
C1071 H1086 0.961 . S
C1071 H1087 0.960 . S
H1072 C1056 0.931 . S
H1073 C1061 0.929 . S
H1074 C1062 0.960 . S
H1075 C1062 0.962 . S
H1076 C1062 0.960 . S
H1077 C1063 0.961 . S
H1078 C1063 0.961 . S
H1079 C1063 0.961 . S
H1080 C1064 0.931 . S
H1081 C1069 0.930 . S
H1082 C1070 0.956 . S
H1083 C1070 0.961 . S
H1084 C1070 0.961 . S
H1085 C1071 0.958 . S
H1086 C1071 0.961 . S
H1087 C1071 0.960 . S
C1088 C1089 1.391 . S
C1088 C1090 1.394 . S
C1088 H1104 0.931 . S
C1089 C1088 1.391 . S
C1089 C1093 1.376 . S
C1090 C1088 1.394 . S
C1090 C1091 1.369 . S
C1090 C1094 1.531 . S
C1091 C1090 1.369 . S
C1091 C1092 1.410 . S
C1091 C1099 1.503 . S
C1092 C1091 1.410 . S
C1092 C1093 1.392 . S
C1092 C1095 1.511 . S
C1093 C1089 1.376 . S
C1093 C1092 1.392 . S
C1093 H1105 0.929 . S
C1094 C1090 1.531 . S
C1094 H1106 0.960 . S
C1094 H1107 0.962 . S
C1094 H1108 0.960 . S
C1095 C1092 1.511 . S
C1095 H1109 0.961 . S
C1095 H1110 0.961 . S
C1095 H1111 0.961 . S
C1096 C1097 1.370 . S
C1096 C1098 1.363 . S
C1096 H1112 0.931 . S
C1097 C1096 1.370 . S
C1097 C1101 1.408 . S
C1098 C1096 1.363 . S
C1098 C1099 1.370 . S
C1098 C1102 1.524 . S
C1099 C1091 1.503 . S
C1099 C1098 1.370 . S
C1099 C1100 1.403 . S
C1100 C1099 1.403 . S
C1100 C1101 1.404 . S
C1100 C1103 1.539 . S
C1101 C1097 1.408 . S
C1101 C1100 1.404 . S
C1101 H1113 0.930 . S
C1102 C1098 1.524 . S
C1102 H1114 0.956 . S
C1102 H1115 0.961 . S
C1102 H1116 0.961 . S
C1103 C1100 1.539 . S
C1103 H1117 0.958 . S
C1103 H1118 0.961 . S
C1103 H1119 0.960 . S
H1104 C1088 0.931 . S
H1105 C1093 0.929 . S
H1106 C1094 0.960 . S
H1107 C1094 0.962 . S
H1108 C1094 0.960 . S
H1109 C1095 0.961 . S
H1110 C1095 0.961 . S
H1111 C1095 0.961 . S
H1112 C1096 0.931 . S
H1113 C1101 0.930 . S
H1114 C1102 0.956 . S
H1115 C1102 0.961 . S
H1116 C1102 0.961 . S
H1117 C1103 0.958 . S
H1118 C1103 0.961 . S
H1119 C1103 0.960 . S
C1120 C1121 1.391 . S
C1120 C1122 1.394 . S
C1120 H1136 0.931 . S
C1121 C1120 1.391 . S
C1121 C1125 1.376 . S
C1122 C1120 1.394 . S
C1122 C1123 1.369 . S
C1122 C1126 1.531 . S
C1123 C1122 1.369 . S
C1123 C1124 1.410 . S
C1123 C1131 1.503 . S
C1124 C1123 1.410 . S
C1124 C1125 1.392 . S
C1124 C1127 1.511 . S
C1125 C1121 1.376 . S
C1125 C1124 1.392 . S
C1125 H1137 0.929 . S
C1126 C1122 1.531 . S
C1126 H1138 0.960 . S
C1126 H1139 0.962 . S
C1126 H1140 0.960 . S
C1127 C1124 1.511 . S
C1127 H1141 0.961 . S
C1127 H1142 0.961 . S
C1127 H1143 0.961 . S
C1128 C1129 1.370 . S
C1128 C1130 1.363 . S
C1128 H1144 0.931 . S
C1129 C1128 1.370 . S
C1129 C1133 1.408 . S
C1130 C1128 1.363 . S
C1130 C1131 1.370 . S
C1130 C1134 1.524 . S
C1131 C1123 1.503 . S
C1131 C1130 1.370 . S
C1131 C1132 1.403 . S
C1132 C1131 1.403 . S
C1132 C1133 1.404 . S
C1132 C1135 1.539 . S
C1133 C1129 1.408 . S
C1133 C1132 1.404 . S
C1133 H1145 0.930 . S
C1134 C1130 1.524 . S
C1134 H1146 0.956 . S
C1134 H1147 0.961 . S
C1134 H1148 0.961 . S
C1135 C1132 1.539 . S
C1135 H1149 0.958 . S
C1135 H1150 0.961 . S
C1135 H1151 0.960 . S
H1136 C1120 0.931 . S
H1137 C1125 0.929 . S
H1138 C1126 0.960 . S
H1139 C1126 0.962 . S
H1140 C1126 0.960 . S
H1141 C1127 0.961 . S
H1142 C1127 0.961 . S
H1143 C1127 0.961 . S
H1144 C1128 0.931 . S
H1145 C1133 0.930 . S
H1146 C1134 0.956 . S
H1147 C1134 0.961 . S
H1148 C1134 0.961 . S
H1149 C1135 0.958 . S
H1150 C1135 0.961 . S
H1151 C1135 0.960 . S
C1152 C1153 1.391 . S
C1152 C1154 1.394 . S
C1152 H1168 0.931 . S
C1153 C1152 1.391 . S
C1153 C1157 1.376 . S
C1154 C1152 1.394 . S
C1154 C1155 1.369 . S
C1154 C1158 1.531 . S
C1155 C1154 1.369 . S
C1155 C1156 1.410 . S
C1155 C1163 1.503 . S
C1156 C1155 1.410 . S
C1156 C1157 1.392 . S
C1156 C1159 1.511 . S
C1157 C1153 1.376 . S
C1157 C1156 1.392 . S
C1157 H1169 0.929 . S
C1158 C1154 1.531 . S
C1158 H1170 0.960 . S
C1158 H1171 0.962 . S
C1158 H1172 0.960 . S
C1159 C1156 1.511 . S
C1159 H1173 0.961 . S
C1159 H1174 0.961 . S
C1159 H1175 0.961 . S
C1160 C1161 1.370 . S
C1160 C1162 1.363 . S
C1160 H1176 0.931 1_565 S
C1161 C1160 1.370 . S
C1161 C1165 1.408 . S
C1162 C1160 1.363 . S
C1162 C1163 1.370 . S
C1162 C1166 1.524 . S
C1163 C1155 1.503 . S
C1163 C1162 1.370 . S
C1163 C1164 1.403 . S
C1164 C1163 1.403 . S
C1164 C1165 1.404 . S
C1164 C1167 1.539 . S
C1165 C1161 1.408 . S
C1165 C1164 1.404 . S
C1165 H1177 0.930 1_556 S
C1166 C1162 1.524 . S
C1166 H1178 0.956 . S
C1166 H1179 0.961 . S
C1166 H1180 0.961 1_565 S
C1167 C1164 1.539 . S
C1167 H1181 0.958 . S
C1167 H1182 0.961 1_556 S
C1167 H1183 0.960 . S
H1168 C1152 0.931 . S
H1169 C1157 0.929 . S
H1170 C1158 0.960 . S
H1171 C1158 0.962 . S
H1172 C1158 0.960 . S
H1173 C1159 0.961 . S
H1174 C1159 0.961 . S
H1175 C1159 0.961 . S
H1176 C1160 0.931 1_545 S
H1177 C1165 0.930 1_554 S
H1178 C1166 0.956 . S
H1179 C1166 0.961 . S
H1180 C1166 0.961 1_545 S
H1181 C1167 0.958 . S
H1182 C1167 0.961 1_554 S
H1183 C1167 0.960 . S
C1184 C1185 1.391 . S
C1184 C1186 1.394 . S
C1184 H1200 0.931 . S
C1185 C1184 1.391 . S
C1185 C1189 1.376 . S
C1186 C1184 1.394 . S
C1186 C1187 1.369 . S
C1186 C1190 1.531 . S
C1187 C1186 1.369 . S
C1187 C1188 1.410 . S
C1187 C1195 1.503 . S
C1188 C1187 1.410 . S
C1188 C1189 1.392 . S
C1188 C1191 1.511 . S
C1189 C1185 1.376 . S
C1189 C1188 1.392 . S
C1189 H1201 0.929 . S
C1190 C1186 1.531 . S
C1190 H1202 0.960 . S
C1190 H1203 0.962 . S
C1190 H1204 0.960 . S
C1191 C1188 1.511 . S
C1191 H1205 0.961 . S
C1191 H1206 0.961 . S
C1191 H1207 0.961 1_655 S
C1192 C1193 1.370 . S
C1192 C1194 1.363 . S
C1192 H1208 0.931 . S
C1193 C1192 1.370 . S
C1193 C1197 1.408 . S
C1194 C1192 1.363 . S
C1194 C1195 1.370 . S
C1194 C1198 1.524 . S
C1195 C1187 1.503 . S
C1195 C1194 1.370 . S
C1195 C1196 1.403 . S
C1196 C1195 1.403 . S
C1196 C1197 1.404 . S
C1196 C1199 1.539 . S
C1197 C1193 1.408 . S
C1197 C1196 1.404 . S
C1197 H1209 0.930 . S
C1198 C1194 1.524 . S
C1198 H1210 0.956 . S
C1198 H1211 0.961 . S
C1198 H1212 0.961 . S
C1199 C1196 1.539 . S
C1199 H1213 0.958 . S
C1199 H1214 0.961 1_655 S
C1199 H1215 0.960 . S
H1200 C1184 0.931 . S
H1201 C1189 0.929 . S
H1202 C1190 0.960 . S
H1203 C1190 0.962 . S
H1204 C1190 0.960 . S
H1205 C1191 0.961 . S
H1206 C1191 0.961 . S
H1207 C1191 0.961 1_455 S
H1208 C1192 0.931 . S
H1209 C1197 0.930 . S
H1210 C1198 0.956 . S
H1211 C1198 0.961 . S
H1212 C1198 0.961 . S
H1213 C1199 0.958 . S
H1214 C1199 0.961 1_455 S
H1215 C1199 0.960 . S
C1216 C1217 1.391 . S
C1216 C1218 1.394 . S
C1216 H1232 0.931 . S
C1217 C1216 1.391 . S
C1217 C1221 1.376 . S
C1218 C1216 1.394 . S
C1218 C1219 1.369 . S
C1218 C1222 1.531 . S
C1219 C1218 1.369 . S
C1219 C1220 1.410 . S
C1219 C1227 1.503 . S
C1220 C1219 1.410 . S
C1220 C1221 1.392 . S
C1220 C1223 1.511 . S
C1221 C1217 1.376 . S
C1221 C1220 1.392 . S
C1221 H1233 0.929 . S
C1222 C1218 1.531 . S
C1222 H1234 0.960 . S
C1222 H1235 0.962 . S
C1222 H1236 0.960 . S
C1223 C1220 1.511 . S
C1223 H1237 0.961 . S
C1223 H1238 0.961 . S
C1223 H1239 0.961 . S
C1224 C1225 1.370 . S
C1224 C1226 1.363 . S
C1224 H1240 0.931 . S
C1225 C1224 1.370 . S
C1225 C1229 1.408 . S
C1226 C1224 1.363 . S
C1226 C1227 1.370 . S
C1226 C1230 1.524 . S
C1227 C1219 1.503 . S
C1227 C1226 1.370 . S
C1227 C1228 1.403 . S
C1228 C1227 1.403 . S
C1228 C1229 1.404 . S
C1228 C1231 1.539 . S
C1229 C1225 1.408 . S
C1229 C1228 1.404 . S
C1229 H1241 0.930 . S
C1230 C1226 1.524 . S
C1230 H1242 0.956 . S
C1230 H1243 0.961 . S
C1230 H1244 0.961 . S
C1231 C1228 1.539 . S
C1231 H1245 0.958 . S
C1231 H1246 0.961 . S
C1231 H1247 0.960 . S
H1232 C1216 0.931 . S
H1233 C1221 0.929 . S
H1234 C1222 0.960 . S
H1235 C1222 0.962 . S
H1236 C1222 0.960 . S
H1237 C1223 0.961 . S
H1238 C1223 0.961 . S
H1239 C1223 0.961 . S
H1240 C1224 0.931 . S
H1241 C1229 0.930 . S
H1242 C1230 0.956 . S
H1243 C1230 0.961 . S
H1244 C1230 0.961 . S
H1245 C1231 0.958 . S
H1246 C1231 0.961 . S
H1247 C1231 0.960 . S
C1248 C1249 1.391 . S
C1248 C1250 1.394 . S
C1248 H1264 0.931 . S
C1249 C1248 1.391 . S
C1249 C1253 1.376 . S
C1250 C1248 1.394 . S
C1250 C1251 1.369 . S
C1250 C1254 1.531 . S
C1251 C1250 1.369 . S
C1251 C1252 1.410 . S
C1251 C1259 1.503 . S
C1252 C1251 1.410 . S
C1252 C1253 1.392 . S
C1252 C1255 1.511 . S
C1253 C1249 1.376 . S
C1253 C1252 1.392 . S
C1253 H1265 0.929 . S
C1254 C1250 1.531 . S
C1254 H1266 0.960 . S
C1254 H1267 0.962 . S
C1254 H1268 0.960 . S
C1255 C1252 1.511 . S
C1255 H1269 0.961 . S
C1255 H1270 0.961 . S
C1255 H1271 0.961 . S
C1256 C1257 1.370 . S
C1256 C1258 1.363 . S
C1256 H1272 0.931 . S
C1257 C1256 1.370 . S
C1257 C1261 1.408 . S
C1258 C1256 1.363 . S
C1258 C1259 1.370 . S
C1258 C1262 1.524 . S
C1259 C1251 1.503 . S
C1259 C1258 1.370 . S
C1259 C1260 1.403 . S
C1260 C1259 1.403 . S
C1260 C1261 1.404 . S
C1260 C1263 1.539 . S
C1261 C1257 1.408 . S
C1261 C1260 1.404 . S
C1261 H1273 0.930 . S
C1262 C1258 1.524 . S
C1262 H1274 0.956 . S
C1262 H1275 0.961 . S
C1262 H1276 0.961 . S
C1263 C1260 1.539 . S
C1263 H1277 0.958 . S
C1263 H1278 0.961 . S
C1263 H1279 0.960 . S
H1264 C1248 0.931 . S
H1265 C1253 0.929 . S
H1266 C1254 0.960 . S
H1267 C1254 0.962 . S
H1268 C1254 0.960 . S
H1269 C1255 0.961 . S
H1270 C1255 0.961 . S
H1271 C1255 0.961 . S
H1272 C1256 0.931 . S
H1273 C1261 0.930 . S
H1274 C1262 0.956 . S
H1275 C1262 0.961 . S
H1276 C1262 0.961 . S
H1277 C1263 0.958 . S
H1278 C1263 0.961 . S
H1279 C1263 0.960 . S
C1280 C1281 1.391 . S
C1280 C1282 1.394 . S
C1280 H1296 0.931 . S
C1281 C1280 1.391 . S
C1281 C1285 1.376 . S
C1282 C1280 1.394 . S
C1282 C1283 1.369 . S
C1282 C1286 1.531 . S
C1283 C1282 1.369 . S
C1283 C1284 1.410 . S
C1283 C1291 1.503 . S
C1284 C1283 1.410 . S
C1284 C1285 1.392 . S
C1284 C1287 1.511 . S
C1285 C1281 1.376 . S
C1285 C1284 1.392 . S
C1285 H1297 0.929 . S
C1286 C1282 1.531 . S
C1286 H1298 0.960 . S
C1286 H1299 0.962 . S
C1286 H1300 0.960 . S
C1287 C1284 1.511 . S
C1287 H1301 0.961 . S
C1287 H1302 0.961 . S
C1287 H1303 0.961 . S
C1288 C1289 1.370 . S
C1288 C1290 1.363 . S
C1288 H1304 0.931 . S
C1289 C1288 1.370 . S
C1289 C1293 1.408 . S
C1290 C1288 1.363 . S
C1290 C1291 1.370 . S
C1290 C1294 1.524 . S
C1291 C1283 1.503 . S
C1291 C1290 1.370 . S
C1291 C1292 1.403 . S
C1292 C1291 1.403 . S
C1292 C1293 1.404 . S
C1292 C1295 1.539 . S
C1293 C1289 1.408 . S
C1293 C1292 1.404 . S
C1293 H1305 0.930 . S
C1294 C1290 1.524 . S
C1294 H1306 0.956 . S
C1294 H1307 0.961 . S
C1294 H1308 0.961 . S
C1295 C1292 1.539 . S
C1295 H1309 0.958 . S
C1295 H1310 0.961 . S
C1295 H1311 0.960 . S
H1296 C1280 0.931 . S
H1297 C1285 0.929 . S
H1298 C1286 0.960 . S
H1299 C1286 0.962 . S
H1300 C1286 0.960 . S
H1301 C1287 0.961 . S
H1302 C1287 0.961 . S
H1303 C1287 0.961 . S
H1304 C1288 0.931 . S
H1305 C1293 0.930 . S
H1306 C1294 0.956 . S
H1307 C1294 0.961 . S
H1308 C1294 0.961 . S
H1309 C1295 0.958 . S
H1310 C1295 0.961 . S
H1311 C1295 0.960 . S
C1312 C1313 1.391 . S
C1312 C1314 1.394 . S
C1312 H1328 0.931 . S
C1313 C1312 1.391 . S
C1313 C1317 1.376 . S
C1314 C1312 1.394 . S
C1314 C1315 1.369 . S
C1314 C1318 1.531 . S
C1315 C1314 1.369 . S
C1315 C1316 1.410 . S
C1315 C1323 1.503 . S
C1316 C1315 1.410 . S
C1316 C1317 1.392 . S
C1316 C1319 1.511 . S
C1317 C1313 1.376 . S
C1317 C1316 1.392 . S
C1317 H1329 0.929 . S
C1318 C1314 1.531 . S
C1318 H1330 0.960 . S
C1318 H1331 0.962 . S
C1318 H1332 0.960 . S
C1319 C1316 1.511 . S
C1319 H1333 0.961 . S
C1319 H1334 0.961 . S
C1319 H1335 0.961 . S
C1320 C1321 1.370 . S
C1320 C1322 1.363 . S
C1320 H1336 0.931 . S
C1321 C1320 1.370 . S
C1321 C1325 1.408 . S
C1322 C1320 1.363 . S
C1322 C1323 1.370 . S
C1322 C1326 1.524 . S
C1323 C1315 1.503 . S
C1323 C1322 1.370 . S
C1323 C1324 1.403 . S
C1324 C1323 1.403 . S
C1324 C1325 1.404 . S
C1324 C1327 1.539 . S
C1325 C1321 1.408 . S
C1325 C1324 1.404 . S
C1325 H1337 0.930 . S
C1326 C1322 1.524 . S
C1326 H1338 0.956 . S
C1326 H1339 0.961 . S
C1326 H1340 0.961 . S
C1327 C1324 1.539 . S
C1327 H1341 0.958 . S
C1327 H1342 0.961 . S
C1327 H1343 0.960 . S
H1328 C1312 0.931 . S
H1329 C1317 0.929 . S
H1330 C1318 0.960 . S
H1331 C1318 0.962 . S
H1332 C1318 0.960 . S
H1333 C1319 0.961 . S
H1334 C1319 0.961 . S
H1335 C1319 0.961 . S
H1336 C1320 0.931 . S
H1337 C1325 0.930 . S
H1338 C1326 0.956 . S
H1339 C1326 0.961 . S
H1340 C1326 0.961 . S
H1341 C1327 0.958 . S
H1342 C1327 0.961 . S
H1343 C1327 0.960 . S
C1344 C1345 1.391 . S
C1344 C1346 1.394 . S
C1344 H1360 0.931 . S
C1345 C1344 1.391 . S
C1345 C1349 1.376 . S
C1346 C1344 1.394 . S
C1346 C1347 1.369 . S
C1346 C1350 1.531 . S
C1347 C1346 1.369 . S
C1347 C1348 1.410 . S
C1347 C1355 1.503 . S
C1348 C1347 1.410 . S
C1348 C1349 1.392 . S
C1348 C1351 1.511 . S
C1349 C1345 1.376 . S
C1349 C1348 1.392 . S
C1349 H1361 0.929 . S
C1350 C1346 1.531 . S
C1350 H1362 0.960 . S
C1350 H1363 0.962 . S
C1350 H1364 0.960 . S
C1351 C1348 1.511 . S
C1351 H1365 0.961 . S
C1351 H1366 0.961 . S
C1351 H1367 0.961 . S
C1352 C1353 1.370 . S
C1352 C1354 1.363 . S
C1352 H1368 0.931 . S
C1353 C1352 1.370 . S
C1353 C1357 1.408 . S
C1354 C1352 1.363 . S
C1354 C1355 1.370 . S
C1354 C1358 1.524 . S
C1355 C1347 1.503 . S
C1355 C1354 1.370 . S
C1355 C1356 1.403 . S
C1356 C1355 1.403 . S
C1356 C1357 1.404 . S
C1356 C1359 1.539 . S
C1357 C1353 1.408 . S
C1357 C1356 1.404 . S
C1357 H1369 0.930 . S
C1358 C1354 1.524 . S
C1358 H1370 0.956 . S
C1358 H1371 0.961 . S
C1358 H1372 0.961 . S
C1359 C1356 1.539 . S
C1359 H1373 0.958 . S
C1359 H1374 0.961 . S
C1359 H1375 0.960 . S
H1360 C1344 0.931 . S
H1361 C1349 0.929 . S
H1362 C1350 0.960 . S
H1363 C1350 0.962 . S
H1364 C1350 0.960 . S
H1365 C1351 0.961 . S
H1366 C1351 0.961 . S
H1367 C1351 0.961 . S
H1368 C1352 0.931 . S
H1369 C1357 0.930 . S
H1370 C1358 0.956 . S
H1371 C1358 0.961 . S
H1372 C1358 0.961 . S
H1373 C1359 0.958 . S
H1374 C1359 0.961 . S
H1375 C1359 0.960 . S
C1376 C1377 1.391 . S
C1376 C1378 1.394 . S
C1376 H1392 0.931 . S
C1377 C1376 1.391 . S
C1377 C1381 1.376 . S
C1378 C1376 1.394 . S
C1378 C1379 1.369 . S
C1378 C1382 1.531 . S
C1379 C1378 1.369 . S
C1379 C1380 1.410 . S
C1379 C1387 1.503 . S
C1380 C1379 1.410 . S
C1380 C1381 1.392 . S
C1380 C1383 1.511 . S
C1381 C1377 1.376 . S
C1381 C1380 1.392 . S
C1381 H1393 0.929 . S
C1382 C1378 1.531 . S
C1382 H1394 0.960 . S
C1382 H1395 0.962 . S
C1382 H1396 0.960 . S
C1383 C1380 1.511 . S
C1383 H1397 0.961 . S
C1383 H1398 0.961 . S
C1383 H1399 0.961 . S
C1384 C1385 1.370 . S
C1384 C1386 1.363 . S
C1384 H1400 0.931 . S
C1385 C1384 1.370 . S
C1385 C1389 1.408 . S
C1386 C1384 1.363 . S
C1386 C1387 1.370 . S
C1386 C1390 1.524 . S
C1387 C1379 1.503 . S
C1387 C1386 1.370 . S
C1387 C1388 1.403 . S
C1388 C1387 1.403 . S
C1388 C1389 1.404 . S
C1388 C1391 1.539 . S
C1389 C1385 1.408 . S
C1389 C1388 1.404 . S
C1389 H1401 0.930 . S
C1390 C1386 1.524 . S
C1390 H1402 0.956 . S
C1390 H1403 0.961 . S
C1390 H1404 0.961 . S
C1391 C1388 1.539 . S
C1391 H1405 0.958 . S
C1391 H1406 0.961 . S
C1391 H1407 0.960 . S
H1392 C1376 0.931 . S
H1393 C1381 0.929 . S
H1394 C1382 0.960 . S
H1395 C1382 0.962 . S
H1396 C1382 0.960 . S
H1397 C1383 0.961 . S
H1398 C1383 0.961 . S
H1399 C1383 0.961 . S
H1400 C1384 0.931 . S
H1401 C1389 0.930 . S
H1402 C1390 0.956 . S
H1403 C1390 0.961 . S
H1404 C1390 0.961 . S
H1405 C1391 0.958 . S
H1406 C1391 0.961 . S
H1407 C1391 0.960 . S
C1408 C1409 1.391 . S
C1408 C1410 1.394 . S
C1408 H1424 0.931 . S
C1409 C1408 1.391 . S
C1409 C1413 1.376 . S
C1410 C1408 1.394 . S
C1410 C1411 1.369 . S
C1410 C1414 1.531 . S
C1411 C1410 1.369 . S
C1411 C1412 1.410 . S
C1411 C1419 1.503 . S
C1412 C1411 1.410 . S
C1412 C1413 1.392 . S
C1412 C1415 1.511 . S
C1413 C1409 1.376 . S
C1413 C1412 1.392 . S
C1413 H1425 0.929 . S
C1414 C1410 1.531 . S
C1414 H1426 0.960 . S
C1414 H1427 0.962 . S
C1414 H1428 0.960 . S
C1415 C1412 1.511 . S
C1415 H1429 0.961 . S
C1415 H1430 0.961 . S
C1415 H1431 0.961 . S
C1416 C1417 1.370 . S
C1416 C1418 1.363 . S
C1416 H1432 0.931 . S
C1417 C1416 1.370 . S
C1417 C1421 1.408 . S
C1418 C1416 1.363 . S
C1418 C1419 1.370 . S
C1418 C1422 1.524 . S
C1419 C1411 1.503 . S
C1419 C1418 1.370 . S
C1419 C1420 1.403 . S
C1420 C1419 1.403 . S
C1420 C1421 1.404 . S
C1420 C1423 1.539 . S
C1421 C1417 1.408 . S
C1421 C1420 1.404 . S
C1421 H1433 0.930 . S
C1422 C1418 1.524 . S
C1422 H1434 0.956 . S
C1422 H1435 0.961 . S
C1422 H1436 0.961 . S
C1423 C1420 1.539 . S
C1423 H1437 0.958 . S
C1423 H1438 0.961 . S
C1423 H1439 0.960 . S
H1424 C1408 0.931 . S
H1425 C1413 0.929 . S
H1426 C1414 0.960 . S
H1427 C1414 0.962 . S
H1428 C1414 0.960 . S
H1429 C1415 0.961 . S
H1430 C1415 0.961 . S
H1431 C1415 0.961 . S
H1432 C1416 0.931 . S
H1433 C1421 0.930 . S
H1434 C1422 0.956 . S
H1435 C1422 0.961 . S
H1436 C1422 0.961 . S
H1437 C1423 0.958 . S
H1438 C1423 0.961 . S
H1439 C1423 0.960 . S
C1440 C1441 1.391 . S
C1440 C1442 1.394 . S
C1440 H1456 0.931 . S
C1441 C1440 1.391 . S
C1441 C1445 1.376 . S
C1442 C1440 1.394 . S
C1442 C1443 1.369 . S
C1442 C1446 1.531 . S
C1443 C1442 1.369 . S
C1443 C1444 1.410 . S
C1443 C1451 1.503 . S
C1444 C1443 1.410 . S
C1444 C1445 1.392 . S
C1444 C1447 1.511 . S
C1445 C1441 1.376 . S
C1445 C1444 1.392 . S
C1445 H1457 0.929 . S
C1446 C1442 1.531 . S
C1446 H1458 0.960 . S
C1446 H1459 0.962 . S
C1446 H1460 0.960 . S
C1447 C1444 1.511 . S
C1447 H1461 0.961 . S
C1447 H1462 0.961 . S
C1447 H1463 0.961 . S
C1448 C1449 1.370 . S
C1448 C1450 1.363 . S
C1448 H1464 0.931 . S
C1449 C1448 1.370 . S
C1449 C1453 1.408 . S
C1450 C1448 1.363 . S
C1450 C1451 1.370 . S
C1450 C1454 1.524 . S
C1451 C1443 1.503 . S
C1451 C1450 1.370 . S
C1451 C1452 1.403 . S
C1452 C1451 1.403 . S
C1452 C1453 1.404 . S
C1452 C1455 1.539 . S
C1453 C1449 1.408 . S
C1453 C1452 1.404 . S
C1453 H1465 0.930 . S
C1454 C1450 1.524 . S
C1454 H1466 0.956 . S
C1454 H1467 0.961 . S
C1454 H1468 0.961 . S
C1455 C1452 1.539 . S
C1455 H1469 0.958 . S
C1455 H1470 0.961 . S
C1455 H1471 0.960 . S
H1456 C1440 0.931 . S
H1457 C1445 0.929 . S
H1458 C1446 0.960 . S
H1459 C1446 0.962 . S
H1460 C1446 0.960 . S
H1461 C1447 0.961 . S
H1462 C1447 0.961 . S
H1463 C1447 0.961 . S
H1464 C1448 0.931 . S
H1465 C1453 0.930 . S
H1466 C1454 0.956 . S
H1467 C1454 0.961 . S
H1468 C1454 0.961 . S
H1469 C1455 0.958 . S
H1470 C1455 0.961 . S
H1471 C1455 0.960 . S
C1472 C1473 1.391 . S
C1472 C1474 1.394 . S
C1472 H1488 0.931 . S
C1473 C1472 1.391 . S
C1473 C1477 1.376 . S
C1474 C1472 1.394 . S
C1474 C1475 1.369 . S
C1474 C1478 1.531 . S
C1475 C1474 1.369 . S
C1475 C1476 1.410 . S
C1475 C1483 1.503 . S
C1476 C1475 1.410 . S
C1476 C1477 1.392 . S
C1476 C1479 1.511 . S
C1477 C1473 1.376 . S
C1477 C1476 1.392 . S
C1477 H1489 0.929 . S
C1478 C1474 1.531 . S
C1478 H1490 0.960 . S
C1478 H1491 0.962 . S
C1478 H1492 0.960 . S
C1479 C1476 1.511 . S
C1479 H1493 0.961 . S
C1479 H1494 0.961 . S
C1479 H1495 0.961 . S
C1480 C1481 1.370 . S
C1480 C1482 1.363 . S
C1480 H1496 0.931 . S
C1481 C1480 1.370 . S
C1481 C1485 1.408 . S
C1482 C1480 1.363 . S
C1482 C1483 1.370 . S
C1482 C1486 1.524 . S
C1483 C1475 1.503 . S
C1483 C1482 1.370 . S
C1483 C1484 1.403 . S
C1484 C1483 1.403 . S
C1484 C1485 1.404 . S
C1484 C1487 1.539 . S
C1485 C1481 1.408 . S
C1485 C1484 1.404 . S
C1485 H1497 0.930 . S
C1486 C1482 1.524 . S
C1486 H1498 0.956 . S
C1486 H1499 0.961 . S
C1486 H1500 0.961 . S
C1487 C1484 1.539 . S
C1487 H1501 0.958 . S
C1487 H1502 0.961 . S
C1487 H1503 0.960 . S
H1488 C1472 0.931 . S
H1489 C1477 0.929 . S
H1490 C1478 0.960 . S
H1491 C1478 0.962 . S
H1492 C1478 0.960 . S
H1493 C1479 0.961 . S
H1494 C1479 0.961 . S
H1495 C1479 0.961 . S
H1496 C1480 0.931 . S
H1497 C1485 0.930 . S
H1498 C1486 0.956 . S
H1499 C1486 0.961 . S
H1500 C1486 0.961 . S
H1501 C1487 0.958 . S
H1502 C1487 0.961 . S
H1503 C1487 0.960 . S
C1504 C1505 1.391 . S
C1504 C1506 1.394 . S
C1504 H1520 0.931 . S
C1505 C1504 1.391 . S
C1505 C1509 1.376 . S
C1506 C1504 1.394 . S
C1506 C1507 1.369 . S
C1506 C1510 1.531 . S
C1507 C1506 1.369 . S
C1507 C1508 1.410 . S
C1507 C1515 1.503 . S
C1508 C1507 1.410 . S
C1508 C1509 1.392 . S
C1508 C1511 1.511 . S
C1509 C1505 1.376 . S
C1509 C1508 1.392 . S
C1509 H1521 0.929 . S
C1510 C1506 1.531 . S
C1510 H1522 0.960 . S
C1510 H1523 0.962 . S
C1510 H1524 0.960 . S
C1511 C1508 1.511 . S
C1511 H1525 0.961 . S
C1511 H1526 0.961 . S
C1511 H1527 0.961 . S
C1512 C1513 1.370 . S
C1512 C1514 1.363 . S
C1512 H1528 0.931 . S
C1513 C1512 1.370 . S
C1513 C1517 1.408 . S
C1514 C1512 1.363 . S
C1514 C1515 1.370 . S
C1514 C1518 1.524 . S
C1515 C1507 1.503 . S
C1515 C1514 1.370 . S
C1515 C1516 1.403 . S
C1516 C1515 1.403 . S
C1516 C1517 1.404 . S
C1516 C1519 1.539 . S
C1517 C1513 1.408 . S
C1517 C1516 1.404 . S
C1517 H1529 0.930 . S
C1518 C1514 1.524 . S
C1518 H1530 0.956 . S
C1518 H1531 0.961 . S
C1518 H1532 0.961 . S
C1519 C1516 1.539 . S
C1519 H1533 0.958 . S
C1519 H1534 0.961 . S
C1519 H1535 0.960 . S
H1520 C1504 0.931 . S
H1521 C1509 0.929 . S
H1522 C1510 0.960 . S
H1523 C1510 0.962 . S
H1524 C1510 0.960 . S
H1525 C1511 0.961 . S
H1526 C1511 0.961 . S
H1527 C1511 0.961 . S
H1528 C1512 0.931 . S
H1529 C1517 0.930 . S
H1530 C1518 0.956 . S
H1531 C1518 0.961 . S
H1532 C1518 0.961 . S
H1533 C1519 0.958 . S
H1534 C1519 0.961 . S
H1535 C1519 0.960 . S
C1536 C1537 1.391 . S
C1536 C1538 1.394 . S
C1536 H1552 0.931 . S
C1537 C1536 1.391 . S
C1537 C1541 1.376 . S
C1538 C1536 1.394 . S
C1538 C1539 1.369 . S
C1538 C1542 1.531 . S
C1539 C1538 1.369 . S
C1539 C1540 1.410 . S
C1539 C1547 1.503 . S
C1540 C1539 1.410 . S
C1540 C1541 1.392 . S
C1540 C1543 1.511 . S
C1541 C1537 1.376 . S
C1541 C1540 1.392 . S
C1541 H1553 0.929 . S
C1542 C1538 1.531 . S
C1542 H1554 0.960 . S
C1542 H1555 0.962 . S
C1542 H1556 0.960 . S
C1543 C1540 1.511 . S
C1543 H1557 0.961 . S
C1543 H1558 0.961 . S
C1543 H1559 0.961 . S
C1544 C1545 1.370 . S
C1544 C1546 1.363 . S
C1544 H1560 0.931 . S
C1545 C1544 1.370 . S
C1545 C1549 1.408 . S
C1546 C1544 1.363 . S
C1546 C1547 1.370 . S
C1546 C1550 1.524 . S
C1547 C1539 1.503 . S
C1547 C1546 1.370 . S
C1547 C1548 1.403 . S
C1548 C1547 1.403 . S
C1548 C1549 1.404 . S
C1548 C1551 1.539 . S
C1549 C1545 1.408 . S
C1549 C1548 1.404 . S
C1549 H1561 0.930 . S
C1550 C1546 1.524 . S
C1550 H1562 0.956 . S
C1550 H1563 0.961 . S
C1550 H1564 0.961 . S
C1551 C1548 1.539 . S
C1551 H1565 0.958 . S
C1551 H1566 0.961 . S
C1551 H1567 0.960 . S
H1552 C1536 0.931 . S
H1553 C1541 0.929 . S
H1554 C1542 0.960 . S
H1555 C1542 0.962 . S
H1556 C1542 0.960 . S
H1557 C1543 0.961 . S
H1558 C1543 0.961 . S
H1559 C1543 0.961 . S
H1560 C1544 0.931 . S
H1561 C1549 0.930 . S
H1562 C1550 0.956 . S
H1563 C1550 0.961 . S
H1564 C1550 0.961 . S
H1565 C1551 0.958 . S
H1566 C1551 0.961 . S
H1567 C1551 0.960 . S
C1568 C1569 1.391 . S
C1568 C1570 1.394 . S
C1568 H1584 0.931 . S
C1569 C1568 1.391 . S
C1569 C1573 1.376 . S
C1570 C1568 1.394 . S
C1570 C1571 1.369 . S
C1570 C1574 1.531 . S
C1571 C1570 1.369 . S
C1571 C1572 1.410 . S
C1571 C1579 1.503 . S
C1572 C1571 1.410 . S
C1572 C1573 1.392 . S
C1572 C1575 1.511 . S
C1573 C1569 1.376 . S
C1573 C1572 1.392 . S
C1573 H1585 0.929 . S
C1574 C1570 1.531 . S
C1574 H1586 0.960 . S
C1574 H1587 0.962 . S
C1574 H1588 0.960 . S
C1575 C1572 1.511 . S
C1575 H1589 0.961 . S
C1575 H1590 0.961 . S
C1575 H1591 0.961 . S
C1576 C1577 1.370 . S
C1576 C1578 1.363 . S
C1576 H1592 0.931 . S
C1577 C1576 1.370 . S
C1577 C1581 1.408 . S
C1578 C1576 1.363 . S
C1578 C1579 1.370 . S
C1578 C1582 1.524 . S
C1579 C1571 1.503 . S
C1579 C1578 1.370 . S
C1579 C1580 1.403 . S
C1580 C1579 1.403 . S
C1580 C1581 1.404 . S
C1580 C1583 1.539 . S
C1581 C1577 1.408 . S
C1581 C1580 1.404 . S
C1581 H1593 0.930 . S
C1582 C1578 1.524 . S
C1582 H1594 0.956 . S
C1582 H1595 0.961 . S
C1582 H1596 0.961 . S
C1583 C1580 1.539 . S
C1583 H1597 0.958 . S
C1583 H1598 0.961 . S
C1583 H1599 0.960 . S
H1584 C1568 0.931 . S
H1585 C1573 0.929 . S
H1586 C1574 0.960 . S
H1587 C1574 0.962 . S
H1588 C1574 0.960 . S
H1589 C1575 0.961 . S
H1590 C1575 0.961 . S
H1591 C1575 0.961 . S
H1592 C1576 0.931 . S
H1593 C1581 0.930 . S
H1594 C1582 0.956 . S
H1595 C1582 0.961 . S
H1596 C1582 0.961 . S
H1597 C1583 0.958 . S
H1598 C1583 0.961 . S
H1599 C1583 0.960 . S
C1600 C1601 1.391 . S
C1600 C1602 1.394 . S
C1600 H1616 0.931 . S
C1601 C1600 1.391 . S
C1601 C1605 1.376 . S
C1602 C1600 1.394 . S
C1602 C1603 1.369 . S
C1602 C1606 1.531 . S
C1603 C1602 1.369 . S
C1603 C1604 1.410 . S
C1603 C1611 1.503 . S
C1604 C1603 1.410 . S
C1604 C1605 1.392 . S
C1604 C1607 1.511 . S
C1605 C1601 1.376 . S
C1605 C1604 1.392 . S
C1605 H1617 0.929 . S
C1606 C1602 1.531 . S
C1606 H1618 0.960 . S
C1606 H1619 0.962 . S
C1606 H1620 0.960 . S
C1607 C1604 1.511 . S
C1607 H1621 0.961 . S
C1607 H1622 0.961 . S
C1607 H1623 0.961 . S
C1608 C1609 1.370 . S
C1608 C1610 1.363 . S
C1608 H1624 0.931 . S
C1609 C1608 1.370 . S
C1609 C1613 1.408 . S
C1610 C1608 1.363 . S
C1610 C1611 1.370 . S
C1610 C1614 1.524 . S
C1611 C1603 1.503 . S
C1611 C1610 1.370 . S
C1611 C1612 1.403 . S
C1612 C1611 1.403 . S
C1612 C1613 1.404 . S
C1612 C1615 1.539 . S
C1613 C1609 1.408 . S
C1613 C1612 1.404 . S
C1613 H1625 0.930 . S
C1614 C1610 1.524 . S
C1614 H1626 0.956 . S
C1614 H1627 0.961 . S
C1614 H1628 0.961 . S
C1615 C1612 1.539 . S
C1615 H1629 0.958 . S
C1615 H1630 0.961 . S
C1615 H1631 0.960 . S
H1616 C1600 0.931 . S
H1617 C1605 0.929 . S
H1618 C1606 0.960 . S
H1619 C1606 0.962 . S
H1620 C1606 0.960 . S
H1621 C1607 0.961 . S
H1622 C1607 0.961 . S
H1623 C1607 0.961 . S
H1624 C1608 0.931 . S
H1625 C1613 0.930 . S
H1626 C1614 0.956 . S
H1627 C1614 0.961 . S
H1628 C1614 0.961 . S
H1629 C1615 0.958 . S
H1630 C1615 0.961 . S
H1631 C1615 0.960 . S
C1632 C1633 1.391 . S
C1632 C1634 1.394 . S
C1632 H1648 0.931 . S
C1633 C1632 1.391 . S
C1633 C1637 1.376 . S
C1634 C1632 1.394 . S
C1634 C1635 1.369 . S
C1634 C1638 1.531 . S
C1635 C1634 1.369 . S
C1635 C1636 1.410 . S
C1635 C1643 1.503 . S
C1636 C1635 1.410 . S
C1636 C1637 1.392 . S
C1636 C1639 1.511 . S
C1637 C1633 1.376 . S
C1637 C1636 1.392 . S
C1637 H1649 0.929 . S
C1638 C1634 1.531 . S
C1638 H1650 0.960 . S
C1638 H1651 0.962 . S
C1638 H1652 0.960 . S
C1639 C1636 1.511 . S
C1639 H1653 0.961 . S
C1639 H1654 0.961 . S
C1639 H1655 0.961 . S
C1640 C1641 1.370 . S
C1640 C1642 1.363 . S
C1640 H1656 0.931 . S
C1641 C1640 1.370 . S
C1641 C1645 1.408 . S
C1642 C1640 1.363 . S
C1642 C1643 1.370 . S
C1642 C1646 1.524 . S
C1643 C1635 1.503 . S
C1643 C1642 1.370 . S
C1643 C1644 1.403 . S
C1644 C1643 1.403 . S
C1644 C1645 1.404 . S
C1644 C1647 1.539 . S
C1645 C1641 1.408 . S
C1645 C1644 1.404 . S
C1645 H1657 0.930 . S
C1646 C1642 1.524 . S
C1646 H1658 0.956 . S
C1646 H1659 0.961 . S
C1646 H1660 0.961 . S
C1647 C1644 1.539 . S
C1647 H1661 0.958 . S
C1647 H1662 0.961 . S
C1647 H1663 0.960 . S
H1648 C1632 0.931 . S
H1649 C1637 0.929 . S
H1650 C1638 0.960 . S
H1651 C1638 0.962 . S
H1652 C1638 0.960 . S
H1653 C1639 0.961 . S
H1654 C1639 0.961 . S
H1655 C1639 0.961 . S
H1656 C1640 0.931 . S
H1657 C1645 0.930 . S
H1658 C1646 0.956 . S
H1659 C1646 0.961 . S
H1660 C1646 0.961 . S
H1661 C1647 0.958 . S
H1662 C1647 0.961 . S
H1663 C1647 0.960 . S
C1664 C1665 1.391 . S
C1664 C1666 1.394 . S
C1664 H1680 0.931 . S
C1665 C1664 1.391 . S
C1665 C1669 1.376 . S
C1666 C1664 1.394 . S
C1666 C1667 1.369 . S
C1666 C1670 1.531 . S
C1667 C1666 1.369 . S
C1667 C1668 1.410 . S
C1667 C1675 1.503 . S
C1668 C1667 1.410 . S
C1668 C1669 1.392 . S
C1668 C1671 1.511 . S
C1669 C1665 1.376 . S
C1669 C1668 1.392 . S
C1669 H1681 0.929 . S
C1670 C1666 1.531 . S
C1670 H1682 0.960 . S
C1670 H1683 0.962 . S
C1670 H1684 0.960 . S
C1671 C1668 1.511 . S
C1671 H1685 0.961 . S
C1671 H1686 0.961 . S
C1671 H1687 0.961 . S
C1672 C1673 1.370 . S
C1672 C1674 1.363 . S
C1672 H1688 0.931 . S
C1673 C1672 1.370 . S
C1673 C1677 1.408 . S
C1674 C1672 1.363 . S
C1674 C1675 1.370 . S
C1674 C1678 1.524 . S
C1675 C1667 1.503 . S
C1675 C1674 1.370 . S
C1675 C1676 1.403 . S
C1676 C1675 1.403 . S
C1676 C1677 1.404 . S
C1676 C1679 1.539 . S
C1677 C1673 1.408 . S
C1677 C1676 1.404 . S
C1677 H1689 0.930 . S
C1678 C1674 1.524 . S
C1678 H1690 0.956 . S
C1678 H1691 0.961 . S
C1678 H1692 0.961 . S
C1679 C1676 1.539 . S
C1679 H1693 0.958 . S
C1679 H1694 0.961 . S
C1679 H1695 0.960 . S
H1680 C1664 0.931 . S
H1681 C1669 0.929 . S
H1682 C1670 0.960 . S
H1683 C1670 0.962 . S
H1684 C1670 0.960 . S
H1685 C1671 0.961 . S
H1686 C1671 0.961 . S
H1687 C1671 0.961 . S
H1688 C1672 0.931 . S
H1689 C1677 0.930 . S
H1690 C1678 0.956 . S
H1691 C1678 0.961 . S
H1692 C1678 0.961 . S
H1693 C1679 0.958 . S
H1694 C1679 0.961 . S
H1695 C1679 0.960 . S
C1696 C1697 1.391 . S
C1696 C1698 1.394 . S
C1696 H1712 0.931 . S
C1697 C1696 1.391 . S
C1697 C1701 1.376 . S
C1698 C1696 1.394 . S
C1698 C1699 1.369 . S
C1698 C1702 1.531 . S
C1699 C1698 1.369 . S
C1699 C1700 1.410 . S
C1699 C1707 1.503 . S
C1700 C1699 1.410 . S
C1700 C1701 1.392 . S
C1700 C1703 1.511 . S
C1701 C1697 1.376 . S
C1701 C1700 1.392 . S
C1701 H1713 0.929 . S
C1702 C1698 1.531 . S
C1702 H1714 0.960 . S
C1702 H1715 0.962 . S
C1702 H1716 0.960 . S
C1703 C1700 1.511 . S
C1703 H1717 0.961 . S
C1703 H1718 0.961 . S
C1703 H1719 0.961 . S
C1704 C1705 1.370 . S
C1704 C1706 1.363 . S
C1704 H1720 0.931 . S
C1705 C1704 1.370 . S
C1705 C1709 1.408 . S
C1706 C1704 1.363 . S
C1706 C1707 1.370 . S
C1706 C1710 1.524 . S
C1707 C1699 1.503 . S
C1707 C1706 1.370 . S
C1707 C1708 1.403 . S
C1708 C1707 1.403 . S
C1708 C1709 1.404 . S
C1708 C1711 1.539 . S
C1709 C1705 1.408 . S
C1709 C1708 1.404 . S
C1709 H1721 0.930 . S
C1710 C1706 1.524 . S
C1710 H1722 0.956 . S
C1710 H1723 0.961 . S
C1710 H1724 0.961 . S
C1711 C1708 1.539 . S
C1711 H1725 0.958 . S
C1711 H1726 0.961 . S
C1711 H1727 0.960 . S
H1712 C1696 0.931 . S
H1713 C1701 0.929 . S
H1714 C1702 0.960 . S
H1715 C1702 0.962 . S
H1716 C1702 0.960 . S
H1717 C1703 0.961 . S
H1718 C1703 0.961 . S
H1719 C1703 0.961 . S
H1720 C1704 0.931 . S
H1721 C1709 0.930 . S
H1722 C1710 0.956 . S
H1723 C1710 0.961 . S
H1724 C1710 0.961 . S
H1725 C1711 0.958 . S
H1726 C1711 0.961 . S
H1727 C1711 0.960 . S
C1728 C1729 1.391 . S
C1728 C1730 1.394 . S
C1728 H1744 0.931 . S
C1729 C1728 1.391 . S
C1729 C1733 1.376 . S
C1730 C1728 1.394 . S
C1730 C1731 1.369 . S
C1730 C1734 1.531 . S
C1731 C1730 1.369 . S
C1731 C1732 1.410 . S
C1731 C1739 1.503 . S
C1732 C1731 1.410 . S
C1732 C1733 1.392 . S
C1732 C1735 1.511 . S
C1733 C1729 1.376 . S
C1733 C1732 1.392 . S
C1733 H1745 0.929 . S
C1734 C1730 1.531 . S
C1734 H1746 0.960 . S
C1734 H1747 0.962 . S
C1734 H1748 0.960 . S
C1735 C1732 1.511 . S
C1735 H1749 0.961 . S
C1735 H1750 0.961 . S
C1735 H1751 0.961 . S
C1736 C1737 1.370 . S
C1736 C1738 1.363 . S
C1736 H1752 0.931 . S
C1737 C1736 1.370 . S
C1737 C1741 1.408 . S
C1738 C1736 1.363 . S
C1738 C1739 1.370 . S
C1738 C1742 1.524 . S
C1739 C1731 1.503 . S
C1739 C1738 1.370 . S
C1739 C1740 1.403 . S
C1740 C1739 1.403 . S
C1740 C1741 1.404 . S
C1740 C1743 1.539 . S
C1741 C1737 1.408 . S
C1741 C1740 1.404 . S
C1741 H1753 0.930 . S
C1742 C1738 1.524 . S
C1742 H1754 0.956 . S
C1742 H1755 0.961 . S
C1742 H1756 0.961 . S
C1743 C1740 1.539 . S
C1743 H1757 0.958 . S
C1743 H1758 0.961 . S
C1743 H1759 0.960 . S
H1744 C1728 0.931 . S
H1745 C1733 0.929 . S
H1746 C1734 0.960 . S
H1747 C1734 0.962 . S
H1748 C1734 0.960 . S
H1749 C1735 0.961 . S
H1750 C1735 0.961 . S
H1751 C1735 0.961 . S
H1752 C1736 0.931 . S
H1753 C1741 0.930 . S
H1754 C1742 0.956 . S
H1755 C1742 0.961 . S
H1756 C1742 0.961 . S
H1757 C1743 0.958 . S
H1758 C1743 0.961 . S
H1759 C1743 0.960 . S
C1760 C1761 1.391 . S
C1760 C1762 1.394 . S
C1760 H1776 0.931 . S
C1761 C1760 1.391 . S
C1761 C1765 1.376 . S
C1762 C1760 1.394 . S
C1762 C1763 1.369 . S
C1762 C1766 1.531 . S
C1763 C1762 1.369 . S
C1763 C1764 1.410 . S
C1763 C1771 1.503 . S
C1764 C1763 1.410 . S
C1764 C1765 1.392 . S
C1764 C1767 1.511 . S
C1765 C1761 1.376 . S
C1765 C1764 1.392 . S
C1765 H1777 0.929 . S
C1766 C1762 1.531 . S
C1766 H1778 0.960 . S
C1766 H1779 0.962 . S
C1766 H1780 0.960 . S
C1767 C1764 1.511 . S
C1767 H1781 0.961 . S
C1767 H1782 0.961 . S
C1767 H1783 0.961 . S
C1768 C1769 1.370 . S
C1768 C1770 1.363 . S
C1768 H1784 0.931 . S
C1769 C1768 1.370 . S
C1769 C1773 1.408 . S
C1770 C1768 1.363 . S
C1770 C1771 1.370 . S
C1770 C1774 1.524 . S
C1771 C1763 1.503 . S
C1771 C1770 1.370 . S
C1771 C1772 1.403 . S
C1772 C1771 1.403 . S
C1772 C1773 1.404 . S
C1772 C1775 1.539 . S
C1773 C1769 1.408 . S
C1773 C1772 1.404 . S
C1773 H1785 0.930 . S
C1774 C1770 1.524 . S
C1774 H1786 0.956 . S
C1774 H1787 0.961 . S
C1774 H1788 0.961 . S
C1775 C1772 1.539 . S
C1775 H1789 0.958 . S
C1775 H1790 0.961 . S
C1775 H1791 0.960 . S
H1776 C1760 0.931 . S
H1777 C1765 0.929 . S
H1778 C1766 0.960 . S
H1779 C1766 0.962 . S
H1780 C1766 0.960 . S
H1781 C1767 0.961 . S
H1782 C1767 0.961 . S
H1783 C1767 0.961 . S
H1784 C1768 0.931 . S
H1785 C1773 0.930 . S
H1786 C1774 0.956 . S
H1787 C1774 0.961 . S
H1788 C1774 0.961 . S
H1789 C1775 0.958 . S
H1790 C1775 0.961 . S
H1791 C1775 0.960 . S
C1792 C1793 1.391 . S
C1792 C1794 1.394 . S
C1792 H1808 0.931 . S
C1793 C1792 1.391 . S
C1793 C1797 1.376 . S
C1794 C1792 1.394 . S
C1794 C1795 1.369 . S
C1794 C1798 1.531 . S
C1795 C1794 1.369 . S
C1795 C1796 1.410 . S
C1795 C1803 1.503 . S
C1796 C1795 1.410 . S
C1796 C1797 1.392 . S
C1796 C1799 1.511 . S
C1797 C1793 1.376 . S
C1797 C1796 1.392 . S
C1797 H1809 0.929 . S
C1798 C1794 1.531 . S
C1798 H1810 0.960 . S
C1798 H1811 0.962 . S
C1798 H1812 0.960 . S
C1799 C1796 1.511 . S
C1799 H1813 0.961 . S
C1799 H1814 0.961 . S
C1799 H1815 0.961 . S
C1800 C1801 1.370 . S
C1800 C1802 1.363 . S
C1800 H1816 0.931 . S
C1801 C1800 1.370 . S
C1801 C1805 1.408 . S
C1802 C1800 1.363 . S
C1802 C1803 1.370 . S
C1802 C1806 1.524 . S
C1803 C1795 1.503 . S
C1803 C1802 1.370 . S
C1803 C1804 1.403 . S
C1804 C1803 1.403 . S
C1804 C1805 1.404 . S
C1804 C1807 1.539 . S
C1805 C1801 1.408 . S
C1805 C1804 1.404 . S
C1805 H1817 0.930 . S
C1806 C1802 1.524 . S
C1806 H1818 0.956 . S
C1806 H1819 0.961 . S
C1806 H1820 0.961 . S
C1807 C1804 1.539 . S
C1807 H1821 0.958 . S
C1807 H1822 0.961 . S
C1807 H1823 0.960 . S
H1808 C1792 0.931 . S
H1809 C1797 0.929 . S
H1810 C1798 0.960 . S
H1811 C1798 0.962 . S
H1812 C1798 0.960 . S
H1813 C1799 0.961 . S
H1814 C1799 0.961 . S
H1815 C1799 0.961 . S
H1816 C1800 0.931 . S
H1817 C1805 0.930 . S
H1818 C1806 0.956 . S
H1819 C1806 0.961 . S
H1820 C1806 0.961 . S
H1821 C1807 0.958 . S
H1822 C1807 0.961 . S
H1823 C1807 0.960 . S
C1824 C1825 1.391 . S
C1824 C1826 1.394 . S
C1824 H1840 0.931 . S
C1825 C1824 1.391 . S
C1825 C1829 1.376 . S
C1826 C1824 1.394 . S
C1826 C1827 1.369 . S
C1826 C1830 1.531 . S
C1827 C1826 1.369 . S
C1827 C1828 1.410 . S
C1827 C1835 1.503 . S
C1828 C1827 1.410 . S
C1828 C1829 1.392 . S
C1828 C1831 1.511 . S
C1829 C1825 1.376 . S
C1829 C1828 1.392 . S
C1829 H1841 0.929 . S
C1830 C1826 1.531 . S
C1830 H1842 0.960 . S
C1830 H1843 0.962 . S
C1830 H1844 0.960 . S
C1831 C1828 1.511 . S
C1831 H1845 0.961 . S
C1831 H1846 0.961 . S
C1831 H1847 0.961 . S
C1832 C1833 1.370 . S
C1832 C1834 1.363 . S
C1832 H1848 0.931 . S
C1833 C1832 1.370 . S
C1833 C1837 1.408 . S
C1834 C1832 1.363 . S
C1834 C1835 1.370 . S
C1834 C1838 1.524 . S
C1835 C1827 1.503 . S
C1835 C1834 1.370 . S
C1835 C1836 1.403 . S
C1836 C1835 1.403 . S
C1836 C1837 1.404 . S
C1836 C1839 1.539 . S
C1837 C1833 1.408 . S
C1837 C1836 1.404 . S
C1837 H1849 0.930 . S
C1838 C1834 1.524 . S
C1838 H1850 0.956 . S
C1838 H1851 0.961 . S
C1838 H1852 0.961 . S
C1839 C1836 1.539 . S
C1839 H1853 0.958 . S
C1839 H1854 0.961 . S
C1839 H1855 0.960 . S
H1840 C1824 0.931 . S
H1841 C1829 0.929 . S
H1842 C1830 0.960 . S
H1843 C1830 0.962 . S
H1844 C1830 0.960 . S
H1845 C1831 0.961 . S
H1846 C1831 0.961 . S
H1847 C1831 0.961 . S
H1848 C1832 0.931 . S
H1849 C1837 0.930 . S
H1850 C1838 0.956 . S
H1851 C1838 0.961 . S
H1852 C1838 0.961 . S
H1853 C1839 0.958 . S
H1854 C1839 0.961 . S
H1855 C1839 0.960 . S
C1856 C1857 1.391 . S
C1856 C1858 1.394 . S
C1856 H1872 0.931 . S
C1857 C1856 1.391 . S
C1857 C1861 1.376 . S
C1858 C1856 1.394 . S
C1858 C1859 1.369 . S
C1858 C1862 1.531 . S
C1859 C1858 1.369 . S
C1859 C1860 1.410 . S
C1859 C1867 1.503 . S
C1860 C1859 1.410 . S
C1860 C1861 1.392 . S
C1860 C1863 1.511 . S
C1861 C1857 1.376 . S
C1861 C1860 1.392 . S
C1861 H1873 0.929 . S
C1862 C1858 1.531 . S
C1862 H1874 0.960 . S
C1862 H1875 0.962 . S
C1862 H1876 0.960 . S
C1863 C1860 1.511 . S
C1863 H1877 0.961 . S
C1863 H1878 0.961 . S
C1863 H1879 0.961 . S
C1864 C1865 1.370 . S
C1864 C1866 1.363 . S
C1864 H1880 0.931 . S
C1865 C1864 1.370 . S
C1865 C1869 1.408 . S
C1866 C1864 1.363 . S
C1866 C1867 1.370 . S
C1866 C1870 1.524 . S
C1867 C1859 1.503 . S
C1867 C1866 1.370 . S
C1867 C1868 1.403 . S
C1868 C1867 1.403 . S
C1868 C1869 1.404 . S
C1868 C1871 1.539 . S
C1869 C1865 1.408 . S
C1869 C1868 1.404 . S
C1869 H1881 0.930 . S
C1870 C1866 1.524 . S
C1870 H1882 0.956 . S
C1870 H1883 0.961 . S
C1870 H1884 0.961 . S
C1871 C1868 1.539 . S
C1871 H1885 0.958 . S
C1871 H1886 0.961 . S
C1871 H1887 0.960 . S
H1872 C1856 0.931 . S
H1873 C1861 0.929 . S
H1874 C1862 0.960 . S
H1875 C1862 0.962 . S
H1876 C1862 0.960 . S
H1877 C1863 0.961 . S
H1878 C1863 0.961 . S
H1879 C1863 0.961 . S
H1880 C1864 0.931 . S
H1881 C1869 0.930 . S
H1882 C1870 0.956 . S
H1883 C1870 0.961 . S
H1884 C1870 0.961 . S
H1885 C1871 0.958 . S
H1886 C1871 0.961 . S
H1887 C1871 0.960 . S
C1888 C1889 1.391 . S
C1888 C1890 1.394 . S
C1888 H1904 0.931 . S
C1889 C1888 1.391 . S
C1889 C1893 1.376 . S
C1890 C1888 1.394 . S
C1890 C1891 1.369 . S
C1890 C1894 1.531 . S
C1891 C1890 1.369 . S
C1891 C1892 1.410 . S
C1891 C1899 1.503 . S
C1892 C1891 1.410 . S
C1892 C1893 1.392 . S
C1892 C1895 1.511 . S
C1893 C1889 1.376 . S
C1893 C1892 1.392 . S
C1893 H1905 0.929 . S
C1894 C1890 1.531 . S
C1894 H1906 0.960 . S
C1894 H1907 0.962 . S
C1894 H1908 0.960 . S
C1895 C1892 1.511 . S
C1895 H1909 0.961 . S
C1895 H1910 0.961 . S
C1895 H1911 0.961 . S
C1896 C1897 1.370 . S
C1896 C1898 1.363 . S
C1896 H1912 0.931 . S
C1897 C1896 1.370 . S
C1897 C1901 1.408 . S
C1898 C1896 1.363 . S
C1898 C1899 1.370 . S
C1898 C1902 1.524 . S
C1899 C1891 1.503 . S
C1899 C1898 1.370 . S
C1899 C1900 1.403 . S
C1900 C1899 1.403 . S
C1900 C1901 1.404 . S
C1900 C1903 1.539 . S
C1901 C1897 1.408 . S
C1901 C1900 1.404 . S
C1901 H1913 0.930 . S
C1902 C1898 1.524 . S
C1902 H1914 0.956 . S
C1902 H1915 0.961 . S
C1902 H1916 0.961 . S
C1903 C1900 1.539 . S
C1903 H1917 0.958 . S
C1903 H1918 0.961 . S
C1903 H1919 0.960 . S
H1904 C1888 0.931 . S
H1905 C1893 0.929 . S
H1906 C1894 0.960 . S
H1907 C1894 0.962 . S
H1908 C1894 0.960 . S
H1909 C1895 0.961 . S
H1910 C1895 0.961 . S
H1911 C1895 0.961 . S
H1912 C1896 0.931 . S
H1913 C1901 0.930 . S
H1914 C1902 0.956 . S
H1915 C1902 0.961 . S
H1916 C1902 0.961 . S
H1917 C1903 0.958 . S
H1918 C1903 0.961 . S
H1919 C1903 0.960 . S
C1920 C1921 1.391 . S
C1920 C1922 1.394 . S
C1920 H1936 0.931 . S
C1921 C1920 1.391 . S
C1921 C1925 1.376 . S
C1922 C1920 1.394 . S
C1922 C1923 1.369 . S
C1922 C1926 1.531 . S
C1923 C1922 1.369 . S
C1923 C1924 1.410 . S
C1923 C1931 1.503 . S
C1924 C1923 1.410 . S
C1924 C1925 1.392 . S
C1924 C1927 1.511 . S
C1925 C1921 1.376 . S
C1925 C1924 1.392 . S
C1925 H1937 0.929 . S
C1926 C1922 1.531 . S
C1926 H1938 0.960 . S
C1926 H1939 0.962 . S
C1926 H1940 0.960 . S
C1927 C1924 1.511 . S
C1927 H1941 0.961 . S
C1927 H1942 0.961 . S
C1927 H1943 0.961 . S
C1928 C1929 1.370 . S
C1928 C1930 1.363 . S
C1928 H1944 0.931 . S
C1929 C1928 1.370 . S
C1929 C1933 1.408 . S
C1930 C1928 1.363 . S
C1930 C1931 1.370 . S
C1930 C1934 1.524 . S
C1931 C1923 1.503 . S
C1931 C1930 1.370 . S
C1931 C1932 1.403 . S
C1932 C1931 1.403 . S
C1932 C1933 1.404 . S
C1932 C1935 1.539 . S
C1933 C1929 1.408 . S
C1933 C1932 1.404 . S
C1933 H1945 0.930 . S
C1934 C1930 1.524 . S
C1934 H1946 0.956 . S
C1934 H1947 0.961 . S
C1934 H1948 0.961 . S
C1935 C1932 1.539 . S
C1935 H1949 0.958 . S
C1935 H1950 0.961 . S
C1935 H1951 0.960 . S
H1936 C1920 0.931 . S
H1937 C1925 0.929 . S
H1938 C1926 0.960 . S
H1939 C1926 0.962 . S
H1940 C1926 0.960 . S
H1941 C1927 0.961 . S
H1942 C1927 0.961 . S
H1943 C1927 0.961 . S
H1944 C1928 0.931 . S
H1945 C1933 0.930 . S
H1946 C1934 0.956 . S
H1947 C1934 0.961 . S
H1948 C1934 0.961 . S
H1949 C1935 0.958 . S
H1950 C1935 0.961 . S
H1951 C1935 0.960 . S
C1952 C1953 1.391 . S
C1952 C1954 1.394 . S
C1952 H1968 0.931 . S
C1953 C1952 1.391 . S
C1953 C1957 1.376 . S
C1954 C1952 1.394 . S
C1954 C1955 1.369 . S
C1954 C1958 1.531 . S
C1955 C1954 1.369 . S
C1955 C1956 1.410 . S
C1955 C1963 1.503 . S
C1956 C1955 1.410 . S
C1956 C1957 1.392 . S
C1956 C1959 1.511 . S
C1957 C1953 1.376 . S
C1957 C1956 1.392 . S
C1957 H1969 0.929 . S
C1958 C1954 1.531 . S
C1958 H1970 0.960 . S
C1958 H1971 0.962 . S
C1958 H1972 0.960 . S
C1959 C1956 1.511 . S
C1959 H1973 0.961 . S
C1959 H1974 0.961 . S
C1959 H1975 0.961 . S
C1960 C1961 1.370 . S
C1960 C1962 1.363 . S
C1960 H1976 0.931 . S
C1961 C1960 1.370 . S
C1961 C1965 1.408 . S
C1962 C1960 1.363 . S
C1962 C1963 1.370 . S
C1962 C1966 1.524 . S
C1963 C1955 1.503 . S
C1963 C1962 1.370 . S
C1963 C1964 1.403 . S
C1964 C1963 1.403 . S
C1964 C1965 1.404 . S
C1964 C1967 1.539 . S
C1965 C1961 1.408 . S
C1965 C1964 1.404 . S
C1965 H1977 0.930 . S
C1966 C1962 1.524 . S
C1966 H1978 0.956 . S
C1966 H1979 0.961 . S
C1966 H1980 0.961 . S
C1967 C1964 1.539 . S
C1967 H1981 0.958 . S
C1967 H1982 0.961 . S
C1967 H1983 0.960 . S
H1968 C1952 0.931 . S
H1969 C1957 0.929 . S
H1970 C1958 0.960 . S
H1971 C1958 0.962 . S
H1972 C1958 0.960 . S
H1973 C1959 0.961 . S
H1974 C1959 0.961 . S
H1975 C1959 0.961 . S
H1976 C1960 0.931 . S
H1977 C1965 0.930 . S
H1978 C1966 0.956 . S
H1979 C1966 0.961 . S
H1980 C1966 0.961 . S
H1981 C1967 0.958 . S
H1982 C1967 0.961 . S
H1983 C1967 0.960 . S
C1984 C1985 1.391 . S
C1984 C1986 1.394 . S
C1984 H2000 0.931 . S
C1985 C1984 1.391 . S
C1985 C1989 1.376 . S
C1986 C1984 1.394 . S
C1986 C1987 1.369 . S
C1986 C1990 1.531 . S
C1987 C1986 1.369 . S
C1987 C1988 1.410 . S
C1987 C1995 1.503 . S
C1988 C1987 1.410 . S
C1988 C1989 1.392 . S
C1988 C1991 1.511 . S
C1989 C1985 1.376 . S
C1989 C1988 1.392 . S
C1989 H2001 0.929 . S
C1990 C1986 1.531 . S
C1990 H2002 0.960 . S
C1990 H2003 0.962 . S
C1990 H2004 0.960 . S
C1991 C1988 1.511 . S
C1991 H2005 0.961 . S
C1991 H2006 0.961 . S
C1991 H2007 0.961 . S
C1992 C1993 1.370 . S
C1992 C1994 1.363 . S
C1992 H2008 0.931 . S
C1993 C1992 1.370 . S
C1993 C1997 1.408 . S
C1994 C1992 1.363 . S
C1994 C1995 1.370 . S
C1994 C1998 1.524 . S
C1995 C1987 1.503 . S
C1995 C1994 1.370 . S
C1995 C1996 1.403 . S
C1996 C1995 1.403 . S
C1996 C1997 1.404 . S
C1996 C1999 1.539 . S
C1997 C1993 1.408 . S
C1997 C1996 1.404 . S
C1997 H2009 0.930 . S
C1998 C1994 1.524 . S
C1998 H2010 0.956 . S
C1998 H2011 0.961 . S
C1998 H2012 0.961 . S
C1999 C1996 1.539 . S
C1999 H2013 0.958 . S
C1999 H2014 0.961 . S
C1999 H2015 0.960 . S
H2000 C1984 0.931 . S
H2001 C1989 0.929 . S
H2002 C1990 0.960 . S
H2003 C1990 0.962 . S
H2004 C1990 0.960 . S
H2005 C1991 0.961 . S
H2006 C1991 0.961 . S
H2007 C1991 0.961 . S
H2008 C1992 0.931 . S
H2009 C1997 0.930 . S
H2010 C1998 0.956 . S
H2011 C1998 0.961 . S
H2012 C1998 0.961 . S
H2013 C1999 0.958 . S
H2014 C1999 0.961 . S
H2015 C1999 0.960 . S
C2016 C2017 1.391 . S
C2016 C2018 1.394 . S
C2016 H2032 0.931 . S
C2017 C2016 1.391 . S
C2017 C2021 1.376 . S
C2018 C2016 1.394 . S
C2018 C2019 1.369 . S
C2018 C2022 1.531 . S
C2019 C2018 1.369 . S
C2019 C2020 1.410 . S
C2019 C2027 1.503 . S
C2020 C2019 1.410 . S
C2020 C2021 1.392 . S
C2020 C2023 1.511 . S
C2021 C2017 1.376 . S
C2021 C2020 1.392 . S
C2021 H2033 0.929 . S
C2022 C2018 1.531 . S
C2022 H2034 0.960 . S
C2022 H2035 0.962 . S
C2022 H2036 0.960 . S
C2023 C2020 1.511 . S
C2023 H2037 0.961 . S
C2023 H2038 0.961 . S
C2023 H2039 0.961 . S
C2024 C2025 1.370 . S
C2024 C2026 1.363 . S
C2024 H2040 0.931 . S
C2025 C2024 1.370 . S
C2025 C2029 1.408 . S
C2026 C2024 1.363 . S
C2026 C2027 1.370 . S
C2026 C2030 1.524 . S
C2027 C2019 1.503 . S
C2027 C2026 1.370 . S
C2027 C2028 1.403 . S
C2028 C2027 1.403 . S
C2028 C2029 1.404 . S
C2028 C2031 1.539 . S
C2029 C2025 1.408 . S
C2029 C2028 1.404 . S
C2029 H2041 0.930 . S
C2030 C2026 1.524 . S
C2030 H2042 0.956 . S
C2030 H2043 0.961 . S
C2030 H2044 0.961 . S
C2031 C2028 1.539 . S
C2031 H2045 0.958 . S
C2031 H2046 0.961 . S
C2031 H2047 0.960 . S
H2032 C2016 0.931 . S
H2033 C2021 0.929 . S
H2034 C2022 0.960 . S
H2035 C2022 0.962 . S
H2036 C2022 0.960 . S
H2037 C2023 0.961 . S
H2038 C2023 0.961 . S
H2039 C2023 0.961 . S
H2040 C2024 0.931 . S
H2041 C2029 0.930 . S
H2042 C2030 0.956 . S
H2043 C2030 0.961 . S
H2044 C2030 0.961 . S
H2045 C2031 0.958 . S
H2046 C2031 0.961 . S
H2047 C2031 0.960 . S
C521 C337 1.590 . S
C513 C2 1.585 . S
C553 C342 0.399 . S
C545 C65 0.287 . S
C585 C343 1.577 . S
C577 C82 1.562 . S
C609 C145 0.702 . S
C617 C347 0.697 . S
C641 C164 0.250 . S
C649 C350 0.508 . S
C681 C351 1.561 . S
C673 C223 1.568 . S
C705 C244 0.960 . S
C713 C328 0.952 . S
C737 C282 1.553 . S
C745 C344 1.556 . S
C777 C382 3.118 . S
C769 C31 3.159 . S
C801 C60 1.783 . S
C809 C408 1.790 . S
C841 C360 3.151 . S
C833 C111 3.230 . S
C873 C415 1.691 . S
C865 C140 1.676 . S
C897 C162 1.761 . S
C905 C369 1.752 . S
C937 C411 1.150 . S
C929 C225 1.167 . S
C961 C242 1.873 . S
C969 C375 1.851 . S
C993 C311 2.311 . S
C1001 C406 2.265 . S
C1025 C4 0.836 . S
C1033 C414 0.883 . S
C1057 C191 1.074 . S
C1065 C401 1.106 . S
C1097 C379 2.792 . S
C1089 C220 2.809 . S
C1129 C407 1.204 . S
C1121 C271 1.228 . S
C1153 C284 1.455 . S
C1161 C374 1.406 1_556 S
C1185 C84 0.857 . S
C1193 C392 0.800 . S
C1225 C383 1.183 . S
C1217 C143 1.177 . S
C1249 C63 1.284 . S
C1257 C376 1.278 . S
C1281 C303 1.542 . S
C1289 C438 1.503 . S
C1313 C185 0.340 . S
C1321 C433 0.357 . S
C1353 C447 1.476 . S
C1345 C202 1.523 . S
C1385 C424 0.919 . S
C1377 C265 0.891 . S
C1409 C44 0.305 . S
C1417 C440 0.328 . S
C1449 C439 1.496 . S
C1441 C103 1.550 . S
C1473 C124 0.711 . S
C1481 C443 0.676 . S
C1505 C23 1.517 . S
C1513 C446 1.512 . S
C1537 C305 1.494 . S
C1545 C472 1.492 . S
C1577 C488 1.108 . S
C1569 C180 1.095 . S
C1601 C231 2.807 . S
C1609 C470 2.806 . S
C1633 C260 1.228 . S
C1641 C503 1.175 . S
C1673 C479 1.262 . S
C1665 C42 1.269 . S
C1697 C105 0.805 . S
C1705 C497 0.834 . S
C1737 C475 1.138 . S
C1729 C122 1.197 . S
C1769 C510 0.900 . S
C1761 C25 0.894 . S
C1801 C502 2.308 . S
C1793 C300 2.342 . S
C1825 C71 1.802 . S
C1833 C507 1.745 . S
C1857 C100 3.245 . S
C1865 C478 3.260 . S
C1897 C511 1.647 . S
C1889 C151 1.699 . S
C1921 C20 3.171 . S
C1929 C465 3.159 . S
C1953 C204 1.206 . S
C1961 C504 1.111 . S
C1993 C456 1.803 . S
C1985 C263 1.832 . S
C2025 C471 1.657 . S
C2017 C183 1.717 . S
