# Generated by pormake.
# Topology gar, (4,6)-cn, num edge types: 1
# Building blocks:
#     Node 0, Type 0, BuildingBlock: AZAVOO_clean_sbu_0, # of connection points: 4
#     Node 1, Type 0, BuildingBlock: AZAVOO_clean_sbu_0, # of connection points: 4
#     Node 2, Type 0, BuildingBlock: AZAVOO_clean_sbu_0, # of connection points: 4
#     Node 3, Type 0, BuildingBlock: AZAVOO_clean_sbu_0, # of connection points: 4
#     Node 4, Type 0, BuildingBlock: AZAVOO_clean_sbu_0, # of connection points: 4
#     Node 5, Type 0, BuildingBlock: AZAVOO_clean_sbu_0, # of connection points: 4
#     Node 6, Type 0, BuildingBlock: AZAVOO_clean_sbu_0, # of connection points: 4
#     Node 7, Type 0, BuildingBlock: AZAVOO_clean_sbu_0, # of connection points: 4
#     Node 8, Type 0, BuildingBlock: AZAVOO_clean_sbu_0, # of connection points: 4
#     Node 9, Type 0, BuildingBlock: AZAVOO_clean_sbu_0, # of connection points: 4
#     Node 10, Type 0, BuildingBlock: AZAVOO_clean_sbu_0, # of connection points: 4
#     Node 11, Type 0, BuildingBlock: AZAVOO_clean_sbu_0, # of connection points: 4
#     Node 12, Type 0, BuildingBlock: AZAVOO_clean_sbu_0, # of connection points: 4
#     Node 13, Type 0, BuildingBlock: AZAVOO_clean_sbu_0, # of connection points: 4
#     Node 14, Type 0, BuildingBlock: AZAVOO_clean_sbu_0, # of connection points: 4
#     Node 15, Type 0, BuildingBlock: AZAVOO_clean_sbu_0, # of connection points: 4
#     Node 16, Type 0, BuildingBlock: AZAVOO_clean_sbu_0, # of connection points: 4
#     Node 17, Type 0, BuildingBlock: AZAVOO_clean_sbu_0, # of connection points: 4
#     Node 18, Type 0, BuildingBlock: AZAVOO_clean_sbu_0, # of connection points: 4
#     Node 19, Type 0, BuildingBlock: AZAVOO_clean_sbu_0, # of connection points: 4
#     Node 20, Type 0, BuildingBlock: AZAVOO_clean_sbu_0, # of connection points: 4
#     Node 21, Type 0, BuildingBlock: AZAVOO_clean_sbu_0, # of connection points: 4
#     Node 22, Type 0, BuildingBlock: AZAVOO_clean_sbu_0, # of connection points: 4
#     Node 23, Type 0, BuildingBlock: AZAVOO_clean_sbu_0, # of connection points: 4
#     Node 24, Type 1, BuildingBlock: BETDIP_clean_sbu_0, # of connection points: 6
#     Node 25, Type 1, BuildingBlock: BETDIP_clean_sbu_0, # of connection points: 6
#     Node 26, Type 1, BuildingBlock: BETDIP_clean_sbu_0, # of connection points: 6
#     Node 27, Type 1, BuildingBlock: BETDIP_clean_sbu_0, # of connection points: 6
#     Node 28, Type 1, BuildingBlock: BETDIP_clean_sbu_0, # of connection points: 6
#     Node 29, Type 1, BuildingBlock: BETDIP_clean_sbu_0, # of connection points: 6
#     Node 30, Type 1, BuildingBlock: BETDIP_clean_sbu_0, # of connection points: 6
#     Node 31, Type 1, BuildingBlock: BETDIP_clean_sbu_0, # of connection points: 6
#     Node 32, Type 1, BuildingBlock: BETDIP_clean_sbu_0, # of connection points: 6
#     Node 33, Type 1, BuildingBlock: BETDIP_clean_sbu_0, # of connection points: 6
#     Node 34, Type 1, BuildingBlock: BETDIP_clean_sbu_0, # of connection points: 6
#     Node 35, Type 1, BuildingBlock: BETDIP_clean_sbu_0, # of connection points: 6
#     Node 36, Type 1, BuildingBlock: BETDIP_clean_sbu_0, # of connection points: 6
#     Node 37, Type 1, BuildingBlock: BETDIP_clean_sbu_0, # of connection points: 6
#     Node 38, Type 1, BuildingBlock: BETDIP_clean_sbu_0, # of connection points: 6
#     Node 39, Type 1, BuildingBlock: BETDIP_clean_sbu_0, # of connection points: 6
#     Edge 40, Type (0, 1), BuildingBlock: UVAHIK_clean_linker_0, # of connection points: 2
#     Edge 41, Type (0, 1), BuildingBlock: UVAHIK_clean_linker_0, # of connection points: 2
#     Edge 42, Type (0, 1), BuildingBlock: UVAHIK_clean_linker_0, # of connection points: 2
#     Edge 43, Type (0, 1), BuildingBlock: UVAHIK_clean_linker_0, # of connection points: 2
#     Edge 44, Type (0, 1), BuildingBlock: UVAHIK_clean_linker_0, # of connection points: 2
#     Edge 45, Type (0, 1), BuildingBlock: UVAHIK_clean_linker_0, # of connection points: 2
#     Edge 46, Type (0, 1), BuildingBlock: UVAHIK_clean_linker_0, # of connection points: 2
#     Edge 47, Type (0, 1), BuildingBlock: UVAHIK_clean_linker_0, # of connection points: 2
#     Edge 48, Type (0, 1), BuildingBlock: UVAHIK_clean_linker_0, # of connection points: 2
#     Edge 49, Type (0, 1), BuildingBlock: UVAHIK_clean_linker_0, # of connection points: 2
#     Edge 50, Type (0, 1), BuildingBlock: UVAHIK_clean_linker_0, # of connection points: 2
#     Edge 51, Type (0, 1), BuildingBlock: UVAHIK_clean_linker_0, # of connection points: 2
#     Edge 52, Type (0, 1), BuildingBlock: UVAHIK_clean_linker_0, # of connection points: 2
#     Edge 53, Type (0, 1), BuildingBlock: UVAHIK_clean_linker_0, # of connection points: 2
#     Edge 54, Type (0, 1), BuildingBlock: UVAHIK_clean_linker_0, # of connection points: 2
#     Edge 55, Type (0, 1), BuildingBlock: UVAHIK_clean_linker_0, # of connection points: 2
#     Edge 56, Type (0, 1), BuildingBlock: UVAHIK_clean_linker_0, # of connection points: 2
#     Edge 57, Type (0, 1), BuildingBlock: UVAHIK_clean_linker_0, # of connection points: 2
#     Edge 58, Type (0, 1), BuildingBlock: UVAHIK_clean_linker_0, # of connection points: 2
#     Edge 59, Type (0, 1), BuildingBlock: UVAHIK_clean_linker_0, # of connection points: 2
#     Edge 60, Type (0, 1), BuildingBlock: UVAHIK_clean_linker_0, # of connection points: 2
#     Edge 61, Type (0, 1), BuildingBlock: UVAHIK_clean_linker_0, # of connection points: 2
#     Edge 62, Type (0, 1), BuildingBlock: UVAHIK_clean_linker_0, # of connection points: 2
#     Edge 63, Type (0, 1), BuildingBlock: UVAHIK_clean_linker_0, # of connection points: 2
#     Edge 64, Type (0, 1), BuildingBlock: UVAHIK_clean_linker_0, # of connection points: 2
#     Edge 65, Type (0, 1), BuildingBlock: UVAHIK_clean_linker_0, # of connection points: 2
#     Edge 66, Type (0, 1), BuildingBlock: UVAHIK_clean_linker_0, # of connection points: 2
#     Edge 67, Type (0, 1), BuildingBlock: UVAHIK_clean_linker_0, # of connection points: 2
#     Edge 68, Type (0, 1), BuildingBlock: UVAHIK_clean_linker_0, # of connection points: 2
#     Edge 69, Type (0, 1), BuildingBlock: UVAHIK_clean_linker_0, # of connection points: 2
#     Edge 70, Type (0, 1), BuildingBlock: UVAHIK_clean_linker_0, # of connection points: 2
#     Edge 71, Type (0, 1), BuildingBlock: UVAHIK_clean_linker_0, # of connection points: 2
#     Edge 72, Type (0, 1), BuildingBlock: UVAHIK_clean_linker_0, # of connection points: 2
#     Edge 73, Type (0, 1), BuildingBlock: UVAHIK_clean_linker_0, # of connection points: 2
#     Edge 74, Type (0, 1), BuildingBlock: UVAHIK_clean_linker_0, # of connection points: 2
#     Edge 75, Type (0, 1), BuildingBlock: UVAHIK_clean_linker_0, # of connection points: 2
#     Edge 76, Type (0, 1), BuildingBlock: UVAHIK_clean_linker_0, # of connection points: 2
#     Edge 77, Type (0, 1), BuildingBlock: UVAHIK_clean_linker_0, # of connection points: 2
#     Edge 78, Type (0, 1), BuildingBlock: UVAHIK_clean_linker_0, # of connection points: 2
#     Edge 79, Type (0, 1), BuildingBlock: UVAHIK_clean_linker_0, # of connection points: 2
#     Edge 80, Type (0, 1), BuildingBlock: UVAHIK_clean_linker_0, # of connection points: 2
#     Edge 81, Type (0, 1), BuildingBlock: UVAHIK_clean_linker_0, # of connection points: 2
#     Edge 82, Type (0, 1), BuildingBlock: UVAHIK_clean_linker_0, # of connection points: 2
#     Edge 83, Type (0, 1), BuildingBlock: UVAHIK_clean_linker_0, # of connection points: 2
#     Edge 84, Type (0, 1), BuildingBlock: UVAHIK_clean_linker_0, # of connection points: 2
#     Edge 85, Type (0, 1), BuildingBlock: UVAHIK_clean_linker_0, # of connection points: 2
#     Edge 86, Type (0, 1), BuildingBlock: UVAHIK_clean_linker_0, # of connection points: 2
#     Edge 87, Type (0, 1), BuildingBlock: UVAHIK_clean_linker_0, # of connection points: 2
#     Edge 88, Type (0, 1), BuildingBlock: UVAHIK_clean_linker_0, # of connection points: 2
#     Edge 89, Type (0, 1), BuildingBlock: UVAHIK_clean_linker_0, # of connection points: 2
#     Edge 90, Type (0, 1), BuildingBlock: UVAHIK_clean_linker_0, # of connection points: 2
#     Edge 91, Type (0, 1), BuildingBlock: UVAHIK_clean_linker_0, # of connection points: 2
#     Edge 92, Type (0, 1), BuildingBlock: UVAHIK_clean_linker_0, # of connection points: 2
#     Edge 93, Type (0, 1), BuildingBlock: UVAHIK_clean_linker_0, # of connection points: 2
#     Edge 94, Type (0, 1), BuildingBlock: UVAHIK_clean_linker_0, # of connection points: 2
#     Edge 95, Type (0, 1), BuildingBlock: UVAHIK_clean_linker_0, # of connection points: 2
#     Edge 96, Type (0, 1), BuildingBlock: UVAHIK_clean_linker_0, # of connection points: 2
#     Edge 97, Type (0, 1), BuildingBlock: UVAHIK_clean_linker_0, # of connection points: 2
#     Edge 98, Type (0, 1), BuildingBlock: UVAHIK_clean_linker_0, # of connection points: 2
#     Edge 99, Type (0, 1), BuildingBlock: UVAHIK_clean_linker_0, # of connection points: 2
#     Edge 100, Type (0, 1), BuildingBlock: UVAHIK_clean_linker_0, # of connection points: 2
#     Edge 101, Type (0, 1), BuildingBlock: UVAHIK_clean_linker_0, # of connection points: 2
#     Edge 102, Type (0, 1), BuildingBlock: UVAHIK_clean_linker_0, # of connection points: 2
#     Edge 103, Type (0, 1), BuildingBlock: UVAHIK_clean_linker_0, # of connection points: 2
#     Edge 104, Type (0, 1), BuildingBlock: UVAHIK_clean_linker_0, # of connection points: 2
#     Edge 105, Type (0, 1), BuildingBlock: UVAHIK_clean_linker_0, # of connection points: 2
#     Edge 106, Type (0, 1), BuildingBlock: UVAHIK_clean_linker_0, # of connection points: 2
#     Edge 107, Type (0, 1), BuildingBlock: UVAHIK_clean_linker_0, # of connection points: 2
#     Edge 108, Type (0, 1), BuildingBlock: UVAHIK_clean_linker_0, # of connection points: 2
#     Edge 109, Type (0, 1), BuildingBlock: UVAHIK_clean_linker_0, # of connection points: 2
#     Edge 110, Type (0, 1), BuildingBlock: UVAHIK_clean_linker_0, # of connection points: 2
#     Edge 111, Type (0, 1), BuildingBlock: UVAHIK_clean_linker_0, # of connection points: 2
#     Edge 112, Type (0, 1), BuildingBlock: UVAHIK_clean_linker_0, # of connection points: 2
#     Edge 113, Type (0, 1), BuildingBlock: UVAHIK_clean_linker_0, # of connection points: 2
#     Edge 114, Type (0, 1), BuildingBlock: UVAHIK_clean_linker_0, # of connection points: 2
#     Edge 115, Type (0, 1), BuildingBlock: UVAHIK_clean_linker_0, # of connection points: 2
#     Edge 116, Type (0, 1), BuildingBlock: UVAHIK_clean_linker_0, # of connection points: 2
#     Edge 117, Type (0, 1), BuildingBlock: UVAHIK_clean_linker_0, # of connection points: 2
#     Edge 118, Type (0, 1), BuildingBlock: UVAHIK_clean_linker_0, # of connection points: 2
#     Edge 119, Type (0, 1), BuildingBlock: UVAHIK_clean_linker_0, # of connection points: 2
#     Edge 120, Type (0, 1), BuildingBlock: UVAHIK_clean_linker_0, # of connection points: 2
#     Edge 121, Type (0, 1), BuildingBlock: UVAHIK_clean_linker_0, # of connection points: 2
#     Edge 122, Type (0, 1), BuildingBlock: UVAHIK_clean_linker_0, # of connection points: 2
#     Edge 123, Type (0, 1), BuildingBlock: UVAHIK_clean_linker_0, # of connection points: 2
#     Edge 124, Type (0, 1), BuildingBlock: UVAHIK_clean_linker_0, # of connection points: 2
#     Edge 125, Type (0, 1), BuildingBlock: UVAHIK_clean_linker_0, # of connection points: 2
#     Edge 126, Type (0, 1), BuildingBlock: UVAHIK_clean_linker_0, # of connection points: 2
#     Edge 127, Type (0, 1), BuildingBlock: UVAHIK_clean_linker_0, # of connection points: 2
#     Edge 128, Type (0, 1), BuildingBlock: UVAHIK_clean_linker_0, # of connection points: 2
#     Edge 129, Type (0, 1), BuildingBlock: UVAHIK_clean_linker_0, # of connection points: 2
#     Edge 130, Type (0, 1), BuildingBlock: UVAHIK_clean_linker_0, # of connection points: 2
#     Edge 131, Type (0, 1), BuildingBlock: UVAHIK_clean_linker_0, # of connection points: 2
#     Edge 132, Type (0, 1), BuildingBlock: UVAHIK_clean_linker_0, # of connection points: 2
#     Edge 133, Type (0, 1), BuildingBlock: UVAHIK_clean_linker_0, # of connection points: 2
#     Edge 134, Type (0, 1), BuildingBlock: UVAHIK_clean_linker_0, # of connection points: 2
#     Edge 135, Type (0, 1), BuildingBlock: UVAHIK_clean_linker_0, # of connection points: 2
# Relax obj value: 0.180
# Max RMSD: 0.277
# Mean RMSD: 0.179
data_MOF--net-gar--node1-AZAVOO_clean_sbu_0--node2-BETDIP_clean_sbu_0--edge1-UVAHIK_clean_linker_0
_symmetry_space_group_name_H-M    P1
_symmetry_Int_Tables_number       1
_symmetry_cell_setting            triclinic
loop_
_symmetry_equiv_pos_as_xyz
'x, y, z'
_cell_length_a     80.368771
_cell_length_b     71.821903
_cell_length_c     70.639551
_cell_angle_alpha  99.518763
_cell_angle_beta   97.977725
_cell_angle_gamma 101.24508
loop_
_atom_site_label
_atom_site_type_symbol
_atom_site_fract_x
_atom_site_fract_y
_atom_site_fract_z
_atom_type_partial_charge
Mg0 Mg 1.00135 0.27598 0.34506 0.0
O1 O 0.9998 0.29838 0.37168 0.0
O2 O 0.975 0.28798 0.38166 0.0
Mg3 Mg 0.96169 0.25857 0.36297 0.0
C4 C 0.98901 0.30051 0.38313 0.0
C5 C 0.03379 0.29718 0.33227 0.0
O6 O 0.02165 0.29852 0.31839 0.0
O7 O 0.00893 0.25645 0.36514 0.0
O8 O 0.98427 0.24678 0.37562 0.0
O9 O 0.98629 0.29092 0.32589 0.0
O10 O 0.97489 0.26701 0.33952 0.0
C11 C 1.00015 0.2469 0.3755 0.0
C12 C 0.97272 0.28012 0.32961 0.0
O13 O 0.02948 0.28956 0.34636 0.0
Mg14 Mg 0.02553 0.75281 0.68249 0.0
O15 O 0.02387 0.72447 0.66181 0.0
O16 O 0.99833 0.71627 0.64184 0.0
Mg17 Mg 0.98321 0.73895 0.65095 0.0
C18 C 0.01318 0.71326 0.64755 0.0
C19 C 0.05965 0.74404 0.69981 0.0
O20 O 0.04856 0.73051 0.7048 0.0
O21 O 0.02908 0.76837 0.65772 0.0
O22 O 1.00274 0.76003 0.63935 0.0
O23 O 0.01445 0.73724 0.70392 0.0
O24 O 0.99913 0.74675 0.68029 0.0
C25 C 0.01852 0.76912 0.64279 0.0
C26 C 0.99953 0.73788 0.69472 0.0
O27 O 0.05413 0.75584 0.69037 0.0
Mg28 Mg 0.51431 0.78704 0.85642 0.0
O29 O 0.50728 0.81051 0.87789 0.0
O30 O 0.47993 0.80024 0.88119 0.0
Mg31 Mg 0.46951 0.77018 0.86199 0.0
C32 C 0.4941 0.81297 0.88537 0.0
C33 C 0.55391 0.79311 0.86882 0.0
O34 O 0.54896 0.7756 0.87217 0.0
O35 O 0.51628 0.76927 0.88009 0.0
O36 O 0.48849 0.75865 0.88153 0.0
O37 O 0.50382 0.79944 0.8315 0.0
O38 O 0.48901 0.77636 0.8438 0.0
C39 C 0.50446 0.75933 0.887 0.0
C40 C 0.48937 0.78779 0.83164 0.0
O41 O 0.54256 0.80224 0.86372 0.0
Mg42 Mg 0.53681 0.25835 0.20128 0.0
O43 O 0.54522 0.23382 0.18204 0.0
O44 O 0.52062 0.21905 0.16115 0.0
Mg45 Mg 0.4971 0.22937 0.16987 0.0
C46 C 0.53684 0.22139 0.1669 0.0
C47 C 0.57881 0.27965 0.21017 0.0
O48 O 0.58987 0.29637 0.21646 0.0
O49 O 0.5331 0.2719 0.17503 0.0
O50 O 0.5068 0.25692 0.15855 0.0
O51 O 0.53157 0.24204 0.22522 0.0
O52 O 0.51327 0.24044 0.19849 0.0
C53 C 0.52054 0.27015 0.16126 0.0
C54 C 0.51623 0.23542 0.215 0.0
O55 O 0.56304 0.27904 0.21081 0.0
Mg56 Mg 0.05455 0.79409 0.14543 0.0
O57 O 0.04979 0.76459 0.12426 0.0
O58 O 0.02363 0.75943 0.10621 0.0
Mg59 Mg 0.0114 0.78492 0.11541 0.0
C60 C 0.03762 0.7541 0.11093 0.0
C61 C 0.08776 0.77888 0.15842 0.0
O62 O 0.07575 0.76316 0.15693 0.0
O63 O 0.05899 0.81133 0.12095 0.0
O64 O 0.03185 0.80602 0.10518 0.0
O65 O 0.04134 0.78001 0.16737 0.0
O66 O 0.02794 0.79154 0.1442 0.0
C67 C 0.0478 0.81429 0.10765 0.0
C68 C 0.02709 0.78304 0.15876 0.0
O69 O 0.08335 0.79395 0.15403 0.0
Mg70 Mg 0.50023 0.73677 0.39723 0.0
O71 O 0.50431 0.7653 0.41963 0.0
O72 O 0.48153 0.76255 0.43475 0.0
Mg73 Mg 0.46277 0.73336 0.42199 0.0
C74 C 0.49588 0.77217 0.43215 0.0
C75 C 0.5332 0.75503 0.38148 0.0
O76 O 0.52186 0.7637 0.37357 0.0
O77 O 0.5065 0.71955 0.42117 0.0
O78 O 0.48216 0.71648 0.43347 0.0
O79 O 0.48547 0.74985 0.3753 0.0
O80 O 0.47338 0.73287 0.39501 0.0
C81 C 0.49695 0.71267 0.43259 0.0
C82 C 0.47174 0.74312 0.38187 0.0
O83 O 0.5286 0.74366 0.39279 0.0
Mg84 Mg 0.55403 0.29387 0.64715 0.0
O85 O 0.54791 0.26421 0.62619 0.0
O86 O 0.52173 0.25999 0.60851 0.0
Mg87 Mg 0.51075 0.28646 0.61793 0.0
C88 C 0.53543 0.25405 0.61306 0.0
C89 C 0.59205 0.30285 0.66956 0.0
O90 O 0.58593 0.3165 0.67921 0.0
O91 O 0.55883 0.3107 0.62239 0.0
O92 O 0.53164 0.30642 0.60714 0.0
O93 O 0.54058 0.28055 0.66936 0.0
O94 O 0.52765 0.29289 0.64652 0.0
C95 C 0.54771 0.314 0.60923 0.0
C96 C 0.52657 0.28435 0.66104 0.0
O97 O 0.58231 0.29136 0.65477 0.0
Mg98 Mg 0.99785 0.23623 0.89596 0.0
O99 O 1.0011 0.26507 0.91783 0.0
O100 O 0.97731 0.26204 0.93119 0.0
Mg101 Mg 0.95903 0.23265 0.91835 0.0
C102 C 0.99187 0.27189 0.92944 0.0
C103 C 0.03166 0.25396 0.88153 0.0
O104 O 0.02055 0.26232 0.87269 0.0
O105 O 1.00316 0.21967 0.9206 0.0
O106 O 0.97808 0.21601 0.93133 0.0
O107 O 0.98428 0.24839 0.8725 0.0
O108 O 0.97077 0.23259 0.89209 0.0
C109 C 0.99312 0.2126 0.93145 0.0
C110 C 0.97 0.2423 0.87834 0.0
O111 O 0.02659 0.24296 0.89298 0.0
Mg112 Mg 0.4133 0.04584 0.27153 0.0
O113 O 0.39251 0.01555 0.26812 0.0
O114 O 0.38146 0.01994 0.29547 0.0
Mg115 Mg 0.39365 0.04934 0.31613 0.0
C116 C 0.3823 0.00921 0.2794 0.0
C117 C 0.42742 0.02881 0.23065 0.0
O118 O 0.43087 0.01575 0.24069 0.0
O119 O 0.39246 0.06627 0.26661 0.0
O120 O 0.38418 0.06888 0.29559 0.0
O121 O 0.43405 0.03366 0.2888 0.0
O122 O 0.41699 0.04875 0.30332 0.0
C123 C 0.3841 0.07398 0.27906 0.0
C124 C 0.42925 0.03966 0.305 0.0
O125 O 0.4195 0.04139 0.23819 0.0
Mg126 Mg 0.26806 0.14576 0.49583 0.0
O127 O 0.27267 0.16635 0.52571 0.0
O128 O 0.29934 0.18462 0.53067 0.0
Mg129 Mg 0.31184 0.17623 0.5043 0.0
C130 C 0.28498 0.17959 0.53627 0.0
C131 C 0.23284 0.11906 0.49426 0.0
O132 O 0.24294 0.10717 0.49016 0.0
O133 O 0.26501 0.17006 0.47898 0.0
O134 O 0.29235 0.1869 0.48414 0.0
O135 O 0.27983 0.12428 0.5097 0.0
O136 O 0.29462 0.14726 0.49761 0.0
C137 C 0.27652 0.18393 0.47625 0.0
C138 C 0.29453 0.13292 0.50638 0.0
O139 O 0.23914 0.1372 0.49719 0.0
Mg140 Mg 0.13581 0.03511 0.80359 0.0
O141 O 0.15394 0.06509 0.80959 0.0
O142 O 0.17294 0.06779 0.83671 0.0
Mg143 Mg 0.16658 0.03995 0.84842 0.0
C144 C 0.167 0.07463 0.82228 0.0
C145 C 0.11926 0.02274 0.7607 0.0
O146 O 0.1185 0.00614 0.76644 0.0
O147 O 0.15693 0.0216 0.79347 0.0
O148 O 0.17464 0.02375 0.82153 0.0
O149 O 0.1179 0.04588 0.8217 0.0
O150 O 0.13986 0.03403 0.83289 0.0
C151 C 0.17041 0.01842 0.803 0.0
C152 C 0.12701 0.04151 0.83626 0.0
O153 O 0.12605 0.03834 0.77294 0.0
Mg154 Mg 0.25416 0.85279 0.02032 0.0
O155 O 0.25461 0.85732 0.98885 0.0
O156 O 0.28013 0.85541 0.98015 0.0
Mg157 Mg 0.29279 0.84047 1.00219 0.0
C158 C 0.26516 0.85906 0.97693 0.0
C159 C 0.22327 0.87029 0.01055 0.0
O160 O 0.23539 0.88092 0.00374 0.0
O161 O 0.24551 0.82021 0.00874 0.0
O162 O 0.2669 0.81869 0.99387 0.0
O163 O 0.26968 0.88273 0.03122 0.0
O164 O 0.28146 0.85756 0.02446 0.0
C165 C 0.25955 0.81481 0.00795 0.0
C166 C 0.28331 0.87605 0.02921 0.0
O167 O 0.22667 0.85644 0.01832 0.0
Mg168 Mg 0.30785 0.39977 0.05729 0.0
O169 O 0.30345 0.37821 0.02793 0.0
O170 O 0.32518 0.36293 0.02937 0.0
Mg171 Mg 0.34385 0.37505 0.05828 0.0
C172 C 0.31126 0.36574 0.02035 0.0
C173 C 0.27625 0.41417 0.03837 0.0
O174 O 0.28816 0.42079 0.02865 0.0
O175 O 0.30003 0.37528 0.07406 0.0
O176 O 0.32347 0.36285 0.07545 0.0
O177 O 0.32397 0.42253 0.0449 0.0
O178 O 0.33471 0.40208 0.0602 0.0
C179 C 0.30872 0.36354 0.07998 0.0
C180 C 0.33723 0.41591 0.05073 0.0
O181 O 0.27999 0.40418 0.051 0.0
Mg182 Mg 0.82567 0.17254 0.03102 0.0
O183 O 0.82872 0.18657 0.06281 0.0
O184 O 0.85006 0.21302 0.07057 0.0
Mg185 Mg 0.86073 0.21561 0.04248 0.0
C186 C 0.83794 0.20117 0.07511 0.0
C187 C 0.7985 0.14506 0.04653 0.0
O188 O 0.81213 0.14628 0.0597 0.0
O189 O 0.81315 0.19608 0.02358 0.0
O190 O 0.83479 0.22231 0.03004 0.0
O191 O 0.84397 0.1551 0.03853 0.0
O192 O 0.85137 0.18408 0.03098 0.0
C193 C 0.81884 0.21405 0.02434 0.0
C194 C 0.8559 0.16932 0.03665 0.0
O195 O 0.79994 0.15426 0.03276 0.0
Mg196 Mg 0.14982 0.49473 0.28767 0.0
O197 O 0.16902 0.52538 0.29141 0.0
O198 O 0.186 0.53077 0.32032 0.0
Mg199 Mg 0.17754 0.50502 0.33591 0.0
C200 C 0.18136 0.53624 0.30445 0.0
C201 C 0.12492 0.48993 0.24539 0.0
O202 O 0.11379 0.48275 0.25574 0.0
O203 O 0.17103 0.47477 0.2836 0.0
O204 O 0.18467 0.48052 0.31445 0.0
O205 O 0.13039 0.50812 0.30404 0.0
O206 O 0.15065 0.49738 0.31943 0.0
C207 C 0.18195 0.47092 0.2969 0.0
C208 C 0.13748 0.50499 0.32043 0.0
O209 O 0.14086 0.49548 0.25362 0.0
Mg210 Mg 0.80831 0.90062 0.55586 0.0
O211 O 0.80365 0.87841 0.52692 0.0
O212 O 0.82488 0.86245 0.52885 0.0
Mg213 Mg 0.84327 0.87449 0.55792 0.0
C214 C 0.81119 0.86554 0.51962 0.0
C215 C 0.77947 0.92317 0.55396 0.0
O216 O 0.79337 0.93634 0.56268 0.0
O217 O 0.79981 0.87709 0.57332 0.0
O218 O 0.82231 0.86297 0.57482 0.0
O219 O 0.82494 0.92232 0.54292 0.0
O220 O 0.83495 0.90205 0.55925 0.0
C221 C 0.80772 0.86471 0.57922 0.0
C222 C 0.83791 0.91546 0.54933 0.0
O223 O 0.78089 0.90578 0.5489 0.0
Mg224 Mg 0.93596 0.01144 0.25538 0.0
O225 O 0.91789 0.9828 0.25761 0.0
O226 O 0.91092 0.98852 0.28735 0.0
Mg227 Mg 0.9227 0.01957 0.30311 0.0
C228 C 0.9101 0.97731 0.27104 0.0
C229 C 0.93736 0.01739 0.21534 0.0
O230 O 0.93792 0.03416 0.22647 0.0
O231 O 0.91264 0.02445 0.24995 0.0
O232 O 0.90593 0.02979 0.27977 0.0
O233 O 0.95906 1.00282 0.27027 0.0
O234 O 0.94258 0.0194 0.28519 0.0
C235 C 0.90334 0.03065 0.26171 0.0
C236 C 0.95542 0.01124 0.28636 0.0
O237 O 0.93542 1.00238 0.22287 0.0
Mg238 Mg 0.32254 0.67545 0.52372 0.0
O239 O 0.32631 0.68547 0.55635 0.0
O240 O 0.35025 0.70876 0.56659 0.0
Mg241 Mg 0.36231 0.71285 0.53961 0.0
C242 C 0.33681 0.69789 0.56987 0.0
C243 C 0.2903 0.6426 0.51696 0.0
O244 O 0.30118 0.63339 0.5094 0.0
O245 O 0.31464 0.70305 0.52103 0.0
O246 O 0.33924 0.7258 0.5292 0.0
O247 O 0.33704 0.65336 0.52781 0.0
O248 O 0.34888 0.68311 0.52464 0.0
C249 C 0.32289 0.72056 0.52371 0.0
C250 C 0.35072 0.66648 0.52814 0.0
O251 O 0.29514 0.66062 0.52393 0.0
Mg252 Mg 0.42972 0.51188 0.7537 0.0
O253 O 0.4108 0.48264 0.75244 0.0
O254 O 0.39939 0.48692 0.77962 0.0
Mg255 Mg 0.40889 0.51772 0.79666 0.0
C256 C 0.401 0.47633 0.76389 0.0
C257 C 0.44822 0.50141 0.71993 0.0
O258 O 0.45972 0.5024 0.73542 0.0
O259 O 0.40759 0.52541 0.7443 0.0
O260 O 0.3959 0.52898 0.77128 0.0
O261 O 0.45071 0.50289 0.77177 0.0
O262 O 0.43229 0.51849 0.78392 0.0
C263 C 0.39638 0.53089 0.7537 0.0
C264 C 0.44499 0.51024 0.78688 0.0
O265 O 0.43323 0.50343 0.72223 0.0
Mg266 Mg 0.64909 0.99582 0.79107 0.0
O267 O 0.66864 0.02604 0.79398 0.0
O268 O 0.68621 0.0315 0.8225 0.0
Mg269 Mg 0.67776 0.00612 0.83859 0.0
C270 C 0.68131 0.03683 0.80662 0.0
C271 C 0.62375 0.99053 0.74887 0.0
O272 O 0.61273 0.98321 0.75926 0.0
O273 O 0.66975 0.97521 0.78646 0.0
O274 O 0.68404 0.981 0.81702 0.0
O275 O 0.63046 0.01024 0.80795 0.0
O276 O 0.65055 0.99898 0.823 0.0
C277 C 0.6808 0.97123 0.79951 0.0
C278 C 0.63772 0.00715 0.82428 0.0
O279 O 0.63968 0.99631 0.75704 0.0
Mg280 Mg 0.76722 0.6442 0.99555 0.0
O281 O 0.77259 0.66546 0.0251 0.0
O282 O 0.79902 0.68396 0.02881 0.0
Mg283 Mg 0.81062 0.67493 1.00183 0.0
C284 C 0.78499 0.67896 0.03507 0.0
C285 C 0.72857 0.62208 0.98571 0.0
O286 O 0.73468 0.61362 0.97108 0.0
O287 O 0.76328 0.66786 0.97822 0.0
O288 O 0.7904 0.6849 0.98185 0.0
O289 O 0.77961 0.62327 0.00956 0.0
O290 O 0.79366 0.64583 0.99632 0.0
C291 C 0.77438 0.68159 0.97458 0.0
C292 C 0.79404 0.63184 0.0055 0.0
O293 O 0.73864 0.6359 0.99821 0.0
Mg294 Mg 0.9114 0.54432 0.76818 0.0
O295 O 0.8906 0.51416 0.76552 0.0
O296 O 0.88012 0.51872 0.79319 0.0
Mg297 Mg 0.89235 0.54852 0.81323 0.0
C298 C 0.88074 0.50784 0.77712 0.0
C299 C 0.93271 0.53834 0.73215 0.0
O300 O 0.94444 0.54203 0.74802 0.0
O301 O 0.89063 0.56511 0.76337 0.0
O302 O 0.88265 0.5678 0.79251 0.0
O303 O 0.9322 0.53225 0.78564 0.0
O304 O 0.91564 0.54803 0.80022 0.0
C305 C 0.8824 0.57291 0.77596 0.0
C306 C 0.92776 0.53874 0.8019 0.0
O307 O 0.91699 0.53785 0.73452 0.0
Mg308 Mg 0.74248 0.39178 0.51943 0.0
O309 O 0.75746 0.37892 0.49557 0.0
O310 O 0.78649 0.38533 0.50376 0.0
Mg311 Mg 0.79162 0.40179 0.53505 0.0
C312 C 0.77248 0.37768 0.4917 0.0
C313 C 0.72404 0.37392 0.47645 0.0
O314 O 0.7219 0.3658 0.45794 0.0
O315 O 0.74356 0.36423 0.53202 0.0
O316 O 0.77089 0.3776 0.53696 0.0
O317 O 0.74925 0.42162 0.51002 0.0
O318 O 0.76753 0.41107 0.52843 0.0
C319 C 0.75906 0.3637 0.53809 0.0
C320 C 0.76458 0.42418 0.51944 0.0
O321 O 0.73854 0.37601 0.4875 0.0
Mg322 Mg 0.63557 0.53494 0.30242 0.0
O323 O 0.65469 0.56426 0.3075 0.0
O324 O 0.67399 0.56609 0.33412 0.0
Mg325 Mg 0.66687 0.53882 0.34658 0.0
C326 C 0.6682 0.5732 0.31983 0.0
C327 C 0.61803 0.52173 0.2602 0.0
O328 O 0.61711 0.50554 0.26676 0.0
O329 O 0.6556 0.51977 0.29176 0.0
O330 O 0.67331 0.52101 0.31955 0.0
O331 O 0.61866 0.54706 0.32132 0.0
O332 O 0.64015 0.53417 0.3317 0.0
C333 C 0.66868 0.51558 0.30107 0.0
C334 C 0.62781 0.5423 0.3356 0.0
O335 O 0.62531 0.53765 0.27175 0.0
Tb336 Tb 0.01944 0.00945 0.01643 0.0
Tb337 Tb 0.0542 0.03137 0.03927 0.0
C338 C 0.98769 1.00128 0.00508 0.0
C339 C 0.97639 0.01515 0.00637 0.0
C340 C 0.97573 0.02605 0.02463 0.0
C341 C 0.96883 0.04242 0.02578 0.0
C342 C 0.96245 0.04826 0.00875 0.0
C343 C 0.96199 0.0367 0.99051 0.0
C344 C 0.96894 0.02025 0.98933 0.0
C345 C 0.04494 0.00942 0.997 0.0
C346 C 0.03148 0.05575 0.0208 0.0
C347 C 0.08581 0.04012 0.05178 0.0
C348 C 0.09788 0.02731 0.04918 0.0
C349 C 0.0984 0.0175 0.03039 0.0
C350 C 0.10722 1.0027 0.02796 0.0
C351 C 0.11573 0.99735 0.04424 0.0
C352 C 0.11567 0.00749 0.06303 0.0
C353 C 0.10682 0.02239 0.06547 0.0
C354 C 0.02841 0.03157 0.05816 0.0
C355 C 0.04285 0.9849 0.0332 0.0
O356 O 0.99487 0.99813 0.02174 0.0
O357 O 0.9987 1.00395 0.99319 0.0
O358 O 0.04294 0.02316 0.00934 0.0
O359 O 0.03146 0.99524 0.99387 0.0
O360 O 0.01866 0.04029 0.01829 0.0
O361 O 0.04754 0.05529 0.02744 0.0
O362 O 0.07884 0.04486 0.03588 0.0
O363 O 0.07448 0.03508 0.06271 0.0
O364 O 0.03072 0.01766 0.04632 0.0
O365 O 0.04166 0.04597 0.06107 0.0
O366 O 0.05546 1.0006 0.0361 0.0
O367 O 0.02666 0.98516 0.02696 0.0
H368 H 0.9814 0.02263 0.0381 0.0
H369 H 0.96899 0.05087 0.04004 0.0
H370 H 0.95711 0.04093 0.97716 0.0
H371 H 0.96943 0.0122 0.9751 0.0
H372 H 0.09136 0.0206 0.01749 0.0
H373 H 0.10677 0.99493 0.01332 0.0
H374 H 0.12225 1.00371 0.07581 0.0
H375 H 0.10637 0.02955 0.08009 0.0
Tb376 Tb 0.28266 0.76206 0.26243 0.0
Tb377 Tb 0.27583 0.7797 0.29902 0.0
C378 C 0.28573 0.75348 0.22738 0.0
C379 C 0.29309 0.76458 0.21378 0.0
C380 C 0.29374 0.78449 0.21606 0.0
C381 C 0.30083 0.79499 0.20313 0.0
C382 C 0.30689 0.78563 0.18727 0.0
C383 C 0.30649 0.76571 0.18523 0.0
C384 C 0.29975 0.7553 0.19851 0.0
C385 C 0.30524 0.7603 0.29249 0.0
C386 C 0.29704 0.80822 0.27818 0.0
C387 C 0.27255 0.79074 0.33362 0.0
C388 C 0.26351 0.7846 0.34895 0.0
C389 C 0.26669 0.76892 0.35723 0.0
C390 C 0.26036 0.76564 0.37406 0.0
C391 C 0.25069 0.77793 0.3828 0.0
C392 C 0.2465 0.79271 0.37362 0.0
C393 C 0.25294 0.79608 0.35688 0.0
C394 C 0.25337 0.78136 0.26856 0.0
C395 C 0.26211 0.73343 0.28415 0.0
O396 O 0.27185 0.75782 0.23293 0.0
O397 O 0.29681 0.75158 0.2419 0.0
O398 O 0.29911 0.77479 0.29005 0.0
O399 O 0.29885 0.74625 0.2777 0.0
O400 O 0.29242 0.79359 0.26293 0.0
O401 O 0.2938 0.80524 0.29535 0.0
O402 O 0.28469 0.78206 0.32879 0.0
O403 O 0.26303 0.79408 0.31858 0.0
O404 O 0.25943 0.76694 0.27133 0.0
O405 O 0.25967 0.79539 0.28332 0.0
O406 O 0.26611 0.74837 0.29918 0.0
O407 O 0.26577 0.73599 0.26695 0.0
H408 H 0.28845 0.79191 0.22755 0.0
H409 H 0.30114 0.81035 0.20529 0.0
H410 H 0.31076 0.75797 0.17299 0.0
H411 H 0.29937 0.73993 0.1966 0.0
H412 H 0.27477 0.7598 0.35135 0.0
H413 H 0.26406 0.75428 0.3809 0.0
H414 H 0.23891 0.80225 0.37987 0.0
H415 H 0.25032 0.80824 0.35065 0.0
Tb416 Tb 0.54855 0.01875 0.52323 0.0
Tb417 Tb 0.51064 0.01177 0.52964 0.0
C418 C 0.58036 0.02028 0.53063 0.0
C419 C 0.59391 0.01006 0.52551 0.0
C420 C 0.59239 0.9903 0.52602 0.0
C421 C 0.60666 0.98188 0.5251 0.0
C422 C 0.62273 0.99301 0.52358 0.0
C423 C 0.62386 0.01246 0.52186 0.0
C424 C 0.60964 0.02089 0.52291 0.0
C425 C 0.52712 0.01884 0.49011 0.0
C426 C 0.52438 0.97642 0.51109 0.0
C427 C 0.47949 0.01139 0.53089 0.0
C428 C 0.4665 0.02303 0.52797 0.0
C429 C 0.47052 0.0433 0.53383 0.0
C430 C 0.45746 0.05365 0.53244 0.0
C431 C 0.44018 0.04389 0.52523 0.0
C432 C 0.43639 0.02367 0.51884 0.0
C433 C 0.44941 0.01338 0.52022 0.0
C434 C 0.53369 0.00627 0.5582 0.0
C435 C 0.53322 0.05469 0.5359 0.0
O436 O 0.56897 0.01143 0.53966 0.0
O437 O 0.57358 0.02948 0.51805 0.0
O438 O 0.52379 0.01648 0.50661 0.0
O439 O 0.54374 0.02088 0.49187 0.0
O440 O 0.54026 0.98724 0.5161 0.0
O441 O 0.51054 0.98351 0.51297 0.0
O442 O 0.48485 1.00378 0.51532 0.0
O443 O 0.49195 0.01806 0.546 0.0
O444 O 0.53575 0.01931 0.54809 0.0
O445 O 0.51797 0.99631 0.55272 0.0
O446 O 0.51767 0.04305 0.53152 0.0
O447 O 0.5475 0.04813 0.53578 0.0
H448 H 0.58042 0.98155 0.52806 0.0
H449 H 0.60527 0.96692 0.5266 0.0
H450 H 0.6359 0.02138 0.52025 0.0
H451 H 0.61116 0.03615 0.52255 0.0
H452 H 0.48364 0.05105 0.53991 0.0
H453 H 0.46081 0.0692 0.53757 0.0
H454 H 0.42329 0.01574 0.51287 0.0
H455 H 0.44606 0.99776 0.51558 0.0
Tb456 Tb 0.2625 0.27263 0.7715 0.0
Tb457 Tb 0.30045 0.27081 0.77976 0.0
C458 C 0.2307 0.26918 0.77152 0.0
C459 C 0.21809 0.26822 0.78505 0.0
C460 C 0.21106 0.25061 0.7902 0.0
C461 C 0.19767 0.24935 0.80101 0.0
C462 C 0.19095 0.26564 0.8069 0.0
C463 C 0.19831 0.28334 0.80218 0.0
C464 C 0.21166 0.28459 0.79134 0.0
C465 C 0.28464 0.30156 0.7644 0.0
C466 C 0.28452 0.28635 0.81488 0.0
C467 C 0.33229 0.27394 0.78038 0.0
C468 C 0.34506 0.27236 0.76728 0.0
C469 C 0.35051 0.28713 0.75721 0.0
C470 C 0.36413 0.28646 0.74688 0.0
C471 C 0.37263 0.27105 0.74645 0.0
C472 C 0.36679 0.25602 0.75605 0.0
C473 C 0.35323 0.25672 0.76639 0.0
C474 C 0.2783 0.24199 0.78702 0.0
C475 C 0.27874 0.25752 0.73621 0.0
O476 O 0.23803 0.25449 0.76813 0.0
O477 O 0.24146 0.28582 0.77301 0.0
O478 O 0.28661 0.29296 0.77837 0.0
O479 O 0.26924 0.29489 0.75429 0.0
O480 O 0.26916 0.27904 0.80365 0.0
O481 O 0.29899 0.28705 0.80783 0.0
O482 O 0.3247 0.28853 0.78069 0.0
O483 O 0.32174 0.25789 0.78136 0.0
O484 O 0.27632 0.25045 0.77295 0.0
O485 O 0.29365 0.24883 0.79718 0.0
O486 O 0.29399 0.26386 0.74781 0.0
O487 O 0.26409 0.25747 0.7428 0.0
H488 H 0.2156 0.23765 0.78549 0.0
H489 H 0.19246 0.23554 0.80459 0.0
H490 H 0.19332 0.29612 0.80621 0.0
H491 H 0.21659 0.29829 0.78738 0.0
H492 H 0.34462 0.29951 0.75774 0.0
H493 H 0.36839 0.29839 0.73984 0.0
H494 H 0.37282 0.24377 0.75577 0.0
H495 H 0.34943 0.2452 0.77413 0.0
Tb496 Tb 0.03426 0.04023 0.52892 0.0
Tb497 Tb 0.03548 0.99691 0.51824 0.0
C498 C 0.03558 0.07562 0.53149 0.0
C499 C 0.03698 0.08968 0.51853 0.0
C500 C 0.05272 0.09707 0.513 0.0
C501 C 0.05375 0.11113 0.50145 0.0
C502 C 0.03908 0.11797 0.49532 0.0
C503 C 0.02331 0.11019 0.50048 0.0
C504 C 0.02232 0.09631 0.51209 0.0
C505 C 0.00801 0.01461 0.53454 0.0
C506 C 0.02581 0.01806 0.48464 0.0
C507 C 0.02705 0.96097 0.51357 0.0
C508 C 0.03435 0.94581 0.52088 0.0
C509 C 0.03867 0.94643 0.54096 0.0
C510 C 0.04402 0.93095 0.54754 0.0
C511 C 0.04534 0.91471 0.53414 0.0
C512 C 0.04201 0.91471 0.51408 0.0
C513 C 0.03645 0.93009 0.50751 0.0
C514 C 0.06585 0.01952 0.51775 0.0
C515 C 0.04938 0.02075 0.56158 0.0
O516 O 0.04914 0.06862 0.53625 0.0
O517 O 0.02114 0.06242 0.52761 0.0
O518 O 0.01595 0.01303 0.52042 0.0
O519 O 0.0144 0.03132 0.54589 0.0
O520 O 0.03097 0.03492 0.49705 0.0
O521 O 0.02435 1.00128 0.49025 0.0
O522 O 0.02152 0.97274 0.5263 0.0
O523 O 0.03553 0.96986 0.50183 0.0
O524 O 0.05225 0.0241 0.5216 0.0
O525 O 0.06271 1.00074 0.51433 0.0
O526 O 0.043 1.00357 0.54995 0.0
O527 O 0.04921 0.03728 0.55569 0.0
H528 H 0.06427 0.09225 0.5178 0.0
H529 H 0.06608 0.11698 0.49777 0.0
H530 H 0.01171 0.1149 0.49563 0.0
H531 H 0.01004 0.09088 0.51616 0.0
H532 H 0.03735 0.95853 0.55161 0.0
H533 H 0.04625 0.93132 0.56308 0.0
H534 H 0.04318 0.90254 0.50342 0.0
H535 H 0.03336 0.92949 0.49196 0.0
Tb536 Tb 0.27252 0.75118 0.77494 0.0
Tb537 Tb 0.2787 0.79417 0.77349 0.0
C538 C 0.27164 0.71586 0.77226 0.0
C539 C 0.28268 0.70236 0.76796 0.0
C540 C 0.29688 0.70722 0.75886 0.0
C541 C 0.3063 0.69345 0.7534 0.0
C542 C 0.302 0.6748 0.75763 0.0
C543 C 0.28828 0.67048 0.76776 0.0
C544 C 0.27859 0.68407 0.77265 0.0
C545 C 0.26449 0.77376 0.8038 0.0
C546 C 0.31068 0.77673 0.78563 0.0
C547 C 0.285 0.83033 0.78041 0.0
C548 C 0.27685 0.84512 0.77372 0.0
C549 C 0.25892 0.84153 0.7678 0.0
C550 C 0.25123 0.8564 0.76322 0.0
C551 C 0.26139 0.87499 0.76432 0.0
C552 C 0.27941 0.87818 0.76934 0.0
C553 C 0.28707 0.86335 0.77409 0.0
C554 C 0.27597 0.77048 0.73999 0.0
C555 C 0.24168 0.7683 0.7601 0.0
O556 O 0.26583 0.72341 0.75765 0.0
O557 O 0.27678 0.72849 0.78874 0.0
O558 O 0.27719 0.77753 0.79554 0.0
O559 O 0.25589 0.7563 0.79647 0.0
O560 O 0.30057 0.75914 0.78111 0.0
O561 O 0.30469 0.79251 0.785 0.0
O562 O 0.27632 0.81967 0.79072 0.0
O563 O 0.29168 0.82023 0.76748 0.0
O564 O 0.28302 0.76892 0.75644 0.0
O565 O 0.27106 0.78675 0.74159 0.0
O566 O 0.25079 0.78571 0.76902 0.0
O567 O 0.24861 0.753 0.75758 0.0
H568 H 0.3006 0.72153 0.75578 0.0
H569 H 0.31669 0.69738 0.74558 0.0
H570 H 0.28494 0.65658 0.77196 0.0
H571 H 0.26781 0.68025 0.78 0.0
H572 H 0.25084 0.82743 0.76731 0.0
H573 H 0.23731 0.85354 0.7596 0.0
H574 H 0.28759 0.89225 0.76999 0.0
H575 H 0.30094 0.86625 0.77847 0.0
Tb576 Tb 0.51915 0.02981 0.01649 0.0
Tb577 Tb 0.54835 0.0206 0.0414 0.0
C578 C 0.48968 0.02773 0.99797 0.0
C579 C 0.47242 0.01739 1.00003 0.0
C580 C 0.46619 0.99775 0.99117 0.0
C581 C 0.45072 0.9874 0.99461 0.0
C582 C 0.44109 0.99645 0.0069 0.0
C583 C 0.44693 0.01626 0.01515 0.0
C584 C 0.46246 0.02665 0.01174 0.0
C585 C 0.54291 0.06033 0.0355 0.0
C586 C 0.51545 0.02291 0.06019 0.0
C587 C 0.57728 0.02114 0.06042 0.0
C588 C 0.59501 0.02713 0.05734 0.0
C589 C 0.59923 0.04123 0.04618 0.0
C590 C 0.61629 0.04769 0.04424 0.0
C591 C 0.62941 0.04004 0.05331 0.0
C592 C 0.62501 0.0255 0.06402 0.0
C593 C 0.60792 0.01912 0.06604 0.0
C594 C 0.52413 0.99039 0.02279 0.0
C595 C 0.552 0.0272 0.99737 0.0
O596 O 0.49996 0.01673 0.99227 0.0
O597 O 0.49769 0.04226 0.0121 0.0
O598 O 0.53744 0.04518 0.04154 0.0
O599 O 0.53401 0.05922 0.01838 0.0
O600 O 0.50757 0.02205 0.04204 0.0
O601 O 0.5323 0.02412 0.06389 0.0
O602 O 0.56911 0.03512 0.06338 0.0
O603 O 0.56777 0.00579 0.04831 0.0
O604 O 0.52998 0.00527 0.01655 0.0
O605 O 0.53273 0.99163 0.0401 0.0
O606 O 0.55973 0.02646 0.01515 0.0
O607 O 0.53544 0.02768 0.99408 0.0
H608 H 0.47342 0.9902 0.98188 0.0
H609 H 0.44635 0.97224 0.98773 0.0
H610 H 0.43976 0.02358 0.02472 0.0
H611 H 0.46687 0.04179 0.01867 0.0
H612 H 0.58941 0.0476 0.03935 0.0
H613 H 0.61925 0.0591 0.03613 0.0
H614 H 0.63479 0.01913 0.07093 0.0
H615 H 0.6048 0.00813 0.0746 0.0
Tb616 Tb 0.26492 0.25726 0.27003 0.0
Tb617 Tb 0.29875 0.28471 0.28167 0.0
C618 C 0.23487 0.23941 0.27037 0.0
C619 C 0.21892 0.24557 0.27321 0.0
C620 C 0.20717 0.23466 0.28224 0.0
C621 C 0.19273 0.24124 0.28684 0.0
C622 C 0.18991 0.25893 0.28258 0.0
C623 C 0.20162 0.26974 0.27329 0.0
C624 C 0.21601 0.26308 0.26859 0.0
C625 C 0.27808 0.26896 0.24077 0.0
C626 C 0.26661 0.30381 0.28083 0.0
C627 C 0.32896 0.30169 0.28123 0.0
C628 C 0.34517 0.29514 0.28203 0.0
C629 C 0.35654 0.30115 0.2698 0.0
C630 C 0.37091 0.2932 0.26832 0.0
C631 C 0.37426 0.27914 0.27916 0.0
C632 C 0.36304 0.2735 0.29181 0.0
C633 C 0.34855 0.28136 0.29316 0.0
C634 C 0.28535 0.27347 0.31089 0.0
C635 C 0.29721 0.23806 0.27108 0.0
O636 O 0.24709 0.24463 0.28573 0.0
O637 O 0.24061 0.24214 0.25436 0.0
O638 O 0.2786 0.279 0.25731 0.0
O639 O 0.26907 0.25162 0.23981 0.0
O640 O 0.25757 0.28571 0.27905 0.0
O641 O 0.28338 0.30693 0.28034 0.0
O642 O 0.31759 0.29367 0.26541 0.0
O643 O 0.32211 0.30265 0.29706 0.0
O644 O 0.28498 0.26318 0.29451 0.0
O645 O 0.29453 0.2907 0.31179 0.0
O646 O 0.30649 0.25626 0.27485 0.0
O647 O 0.28016 0.23473 0.26945 0.0
H648 H 0.20937 0.22125 0.28612 0.0
H649 H 0.184 0.23274 0.2942 0.0
H650 H 0.19965 0.28332 0.26966 0.0
H651 H 0.22497 0.27174 0.26163 0.0
H652 H 0.35396 0.3115 0.26086 0.0
H653 H 0.37903 0.29759 0.25809 0.0
H654 H 0.3653 0.26283 0.30047 0.0
H655 H 0.33977 0.27629 0.30249 0.0
Tb656 Tb 0.53468 0.53727 0.02806 0.0
Tb657 Tb 0.53612 0.49629 0.01633 0.0
C658 C 0.53847 0.57325 0.03214 0.0
C659 C 0.53672 0.58709 0.01943 0.0
C660 C 0.54798 0.60533 0.02435 0.0
C661 C 0.54643 0.61898 0.01271 0.0
C662 C 0.53355 0.61452 0.99603 0.0
C663 C 0.52246 0.59606 0.99092 0.0
C664 C 0.52409 0.58236 1.00251 0.0
C665 C 0.50835 0.51237 0.03465 0.0
C666 C 0.52157 0.51543 0.9838 0.0
C667 C 0.53413 0.46061 0.01252 0.0
C668 C 0.53366 0.44685 0.02561 0.0
C669 C 0.52454 0.44833 0.04116 0.0
C670 C 0.52406 0.43477 0.05321 0.0
C671 C 0.53288 0.41982 0.04998 0.0
C672 C 0.54233 0.41869 0.03471 0.0
C673 C 0.54267 0.43212 0.02256 0.0
C674 C 0.56208 0.52154 0.00965 0.0
C675 C 0.54803 0.51755 0.06061 0.0
O676 O 0.55101 0.56433 0.03016 0.0
O677 O 0.52422 0.56165 0.0337 0.0
O678 O 0.51559 0.51056 0.01994 0.0
O679 O 0.51532 0.52906 0.04583 0.0
O680 O 0.52763 0.53223 0.99612 0.0
O681 O 0.52172 0.49882 0.98929 0.0
O682 O 0.52068 0.46829 0.01005 0.0
O683 O 0.5487 0.47329 0.0149 0.0
O684 O 0.55507 0.52293 0.02453 0.0
O685 O 0.55502 0.50507 0.99816 0.0
O686 O 0.54117 0.50094 0.04829 0.0
O687 O 0.54907 0.53424 0.05497 0.0
H688 H 0.55786 0.60908 0.0373 0.0
H689 H 0.55503 0.63317 0.01702 0.0
H690 H 0.51257 0.59224 0.97797 0.0
H691 H 0.51543 0.56819 0.99835 0.0
H692 H 0.51772 0.45983 0.04393 0.0
H693 H 0.51685 0.43599 0.06505 0.0
H694 H 0.54913 0.40718 0.0319 0.0
H695 H 0.54986 0.43093 0.01069 0.0
Tb696 Tb 0.76122 0.23301 0.27408 0.0
Tb697 Tb 0.76048 0.27527 0.27668 0.0
C698 C 0.76007 0.19803 0.26169 0.0
C699 C 0.77259 0.1861 0.25792 0.0
C700 C 0.77127 0.17534 0.2391 0.0
C701 C 0.78221 0.1628 0.23546 0.0
C702 C 0.79452 0.16077 0.25067 0.0
C703 C 0.79629 0.17211 0.26935 0.0
C704 C 0.78545 0.18473 0.27295 0.0
C705 C 0.75846 0.25099 0.30832 0.0
C706 C 0.79537 0.26308 0.29029 0.0
C707 C 0.76294 0.31093 0.28684 0.0
C708 C 0.75436 0.32548 0.28029 0.0
C709 C 0.73684 0.32077 0.27176 0.0
C710 C 0.72892 0.33511 0.2661 0.0
C711 C 0.73847 0.35424 0.26872 0.0
C712 C 0.75609 0.35872 0.27686 0.0
C713 C 0.76395 0.34442 0.28261 0.0
C714 C 0.76489 0.25697 0.24298 0.0
C715 C 0.72609 0.24543 0.25928 0.0
O716 O 0.75845 0.21038 0.2502 0.0
O717 O 0.76003 0.20529 0.27997 0.0
O718 O 0.75137 0.25346 0.29213 0.0
O719 O 0.76641 0.23695 0.30568 0.0
O720 O 0.78866 0.24545 0.27988 0.0
O721 O 0.78567 0.27577 0.29371 0.0
O722 O 0.75374 0.2979 0.29443 0.0
O723 O 0.77207 0.30353 0.27489 0.0
O724 O 0.771 0.25505 0.25963 0.0
O725 O 0.7568 0.27095 0.24468 0.0
O726 O 0.73334 0.26403 0.26541 0.0
O727 O 0.73452 0.23156 0.26117 0.0
H728 H 0.76149 0.17628 0.2273 0.0
H729 H 0.78055 0.15412 0.22096 0.0
H730 H 0.80588 0.17097 0.28124 0.0
H731 H 0.78692 0.19308 0.28757 0.0
H732 H 0.72929 0.3061 0.26964 0.0
H733 H 0.71535 0.33129 0.25972 0.0
H734 H 0.76369 0.37339 0.2793 0.0
H735 H 0.77751 0.34821 0.28908 0.0
Tb736 Tb 0.01437 0.51744 0.5088 0.0
Tb737 Tb 0.04522 0.51367 0.5354 0.0
C738 C 0.98465 0.51134 0.4892 0.0
C739 C 0.96723 0.51071 0.49347 0.0
C740 C 0.96198 0.50278 0.50913 0.0
C741 C 0.94514 0.50152 0.51244 0.0
C742 C 0.93326 0.50827 0.50024 0.0
C743 C 0.93873 0.51666 0.48488 0.0
C744 C 0.95558 0.51783 0.48152 0.0
C745 C 0.03579 0.55041 0.52547 0.0
C746 C 0.01213 0.51582 0.5545 0.0
C747 C 0.07504 0.51868 0.55443 0.0
C748 C 0.09211 0.52661 0.55043 0.0
C749 C 0.09415 0.54032 0.53842 0.0
C750 C 0.11042 0.54795 0.53476 0.0
C751 C 0.12493 0.54193 0.54298 0.0
C752 C 0.12279 0.52801 0.55482 0.0
C753 C 0.10647 0.5204 0.55852 0.0
C754 C 0.02373 0.48095 0.5181 0.0
C755 C 0.04778 0.51708 0.49043 0.0
O756 O 0.99194 0.49757 0.49399 0.0
O757 O 0.99524 0.52837 0.49374 0.0
O758 O 0.03168 0.53593 0.53309 0.0
O759 O 0.0268 0.54703 0.50804 0.0
O760 O 0.00401 0.51534 0.53652 0.0
O761 O 0.02887 0.51607 0.55777 0.0
O762 O 0.0652 0.53107 0.55689 0.0
O763 O 0.06674 0.50221 0.54319 0.0
O764 O 0.02822 0.49556 0.51086 0.0
O765 O 0.03222 0.484 0.53575 0.0
O766 O 0.05594 0.5197 0.5088 0.0
O767 O 0.0307 0.51381 0.48658 0.0
H768 H 0.97077 0.4972 0.51857 0.0
H769 H 0.9413 0.49471 0.52421 0.0
H770 H 0.92996 0.52222 0.47538 0.0
H771 H 0.95948 0.52411 0.46945 0.0
H772 H 0.0832 0.54532 0.53203 0.0
H773 H 0.11167 0.55886 0.52582 0.0
H774 H 0.1337 0.52293 0.56116 0.0
H775 H 0.10505 0.50972 0.5677 0.0
Tb776 Tb 0.76455 0.77254 0.27091 0.0
Tb777 Tb 0.80239 0.77056 0.27932 0.0
C778 C 0.73267 0.76898 0.27057 0.0
C779 C 0.71986 0.76878 0.28386 0.0
C780 C 0.71144 0.75124 0.28807 0.0
C781 C 0.69772 0.75067 0.29839 0.0
C782 C 0.69202 0.76761 0.30468 0.0
C783 C 0.70086 0.78523 0.30103 0.0
C784 C 0.71453 0.7858 0.29069 0.0
C785 C 0.78709 0.802 0.26523 0.0
C786 C 0.7862 0.78557 0.31451 0.0
C787 C 0.83428 0.77406 0.28009 0.0
C788 C 0.84698 0.772 0.26699 0.0
C789 C 0.85161 0.78577 0.25551 0.0
C790 C 0.86509 0.78474 0.24503 0.0
C791 C 0.87425 0.76997 0.24583 0.0
C792 C 0.86921 0.75591 0.25686 0.0
C793 C 0.85581 0.75698 0.26736 0.0
C794 C 0.78018 0.74145 0.28586 0.0
C795 C 0.78094 0.75785 0.23559 0.0
O796 O 0.7402 0.75435 0.26837 0.0
O797 O 0.7433 0.78549 0.27116 0.0
O798 O 0.78865 0.79279 0.27873 0.0
O799 O 0.77183 0.79561 0.25467 0.0
O800 O 0.77089 0.77864 0.30308 0.0
O801 O 0.80074 0.78626 0.30761 0.0
O802 O 0.82644 0.78841 0.27963 0.0
O803 O 0.82396 0.75813 0.2818 0.0
O804 O 0.77824 0.75016 0.27195 0.0
O805 O 0.79552 0.74814 0.2961 0.0
O806 O 0.79614 0.76386 0.24733 0.0
O807 O 0.76626 0.75787 0.24207 0.0
H808 H 0.71504 0.7378 0.28283 0.0
H809 H 0.69114 0.7368 0.30072 0.0
H810 H 0.69703 0.79862 0.3059 0.0
H811 H 0.72061 0.79953 0.28758 0.0
H812 H 0.84518 0.79765 0.25501 0.0
H813 H 0.86872 0.79594 0.23686 0.0
H814 H 0.87575 0.74415 0.25756 0.0
H815 H 0.85261 0.74625 0.27618 0.0
Tb816 Tb 0.77759 0.26107 0.75523 0.0
Tb817 Tb 0.77848 0.27809 0.79853 0.0
C818 C 0.76751 0.24933 0.71948 0.0
C819 C 0.77449 0.25002 0.70158 0.0
C820 C 0.7866 0.26621 0.69967 0.0
C821 C 0.79188 0.26707 0.6818 0.0
C822 C 0.78519 0.25168 0.66576 0.0
C823 C 0.77395 0.23501 0.66821 0.0
C824 C 0.76858 0.23424 0.686 0.0
C825 C 0.80835 0.26311 0.77626 0.0
C826 C 0.79572 0.30544 0.77248 0.0
C827 C 0.78398 0.28823 0.83487 0.0
C828 C 0.77435 0.28741 0.85098 0.0
C829 C 0.7659 0.26975 0.85479 0.0
C830 C 0.75858 0.2695 0.87156 0.0
C831 C 0.75955 0.28688 0.88465 0.0
C832 C 0.76695 0.30456 0.88002 0.0
C833 C 0.77436 0.3048 0.86337 0.0
C834 C 0.75173 0.28103 0.77366 0.0
C835 C 0.76233 0.23263 0.78268 0.0
O836 O 0.76532 0.26579 0.72899 0.0
O837 O 0.77413 0.23897 0.73086 0.0
O838 O 0.79529 0.26784 0.78156 0.0
O839 O 0.80443 0.25704 0.75752 0.0
O840 O 0.78703 0.29258 0.75667 0.0
O841 O 0.7967 0.30089 0.79003 0.0
O842 O 0.78679 0.27197 0.8258 0.0
O843 O 0.77977 0.29938 0.823 0.0
O844 O 0.75919 0.26718 0.77289 0.0
O845 O 0.75803 0.29292 0.79005 0.0
O846 O 0.76687 0.24732 0.79799 0.0
O847 O 0.76461 0.23516 0.7649 0.0
H848 H 0.79148 0.27842 0.71174 0.0
H849 H 0.80039 0.28022 0.68027 0.0
H850 H 0.76877 0.22288 0.65613 0.0
H851 H 0.75941 0.22153 0.68743 0.0
H852 H 0.76555 0.25614 0.8453 0.0
H853 H 0.75316 0.25563 0.87487 0.0
H854 H 0.76773 0.31816 0.88976 0.0
H855 H 0.78068 0.31858 0.86054 0.0
Tb856 Tb 0.76365 0.75731 0.76693 0.0
Tb857 Tb 0.79618 0.78442 0.78386 0.0
C858 C 0.73276 0.74009 0.762 0.0
C859 C 0.71877 0.74724 0.77007 0.0
C860 C 0.72138 0.75622 0.78983 0.0
C861 C 0.70904 0.76513 0.79704 0.0
C862 C 0.69393 0.76553 0.78463 0.0
C863 C 0.6912 0.75633 0.76491 0.0
C864 C 0.70355 0.74725 0.75769 0.0
C865 C 0.78043 0.7711 0.74093 0.0
C866 C 0.76413 0.80298 0.78062 0.0
C867 C 0.82678 0.80309 0.78985 0.0
C868 C 0.84313 0.79716 0.79344 0.0
C869 C 0.85724 0.80647 0.78639 0.0
C870 C 0.87177 0.79864 0.78607 0.0
C871 C 0.87234 0.78134 0.79278 0.0
C872 C 0.85859 0.77273 0.80099 0.0
C873 C 0.84404 0.78058 0.8013 0.0
C874 C 0.77902 0.77154 0.80999 0.0
C875 C 0.7958 0.73823 0.77061 0.0
O876 O 0.74481 0.73688 0.77471 0.0
O877 O 0.7391 0.74944 0.74931 0.0
O878 O 0.77893 0.78029 0.75716 0.0
O879 O 0.77185 0.75334 0.73854 0.0
O880 O 0.75544 0.78469 0.77843 0.0
O881 O 0.78095 0.80642 0.78073 0.0
O882 O 0.81772 0.79573 0.7724 0.0
O883 O 0.81742 0.80225 0.80355 0.0
O884 O 0.78057 0.76186 0.794 0.0
O885 O 0.78808 0.78903 0.81218 0.0
O886 O 0.80483 0.75646 0.77699 0.0
O887 O 0.77874 0.73471 0.76605 0.0
H888 H 0.73313 0.75677 0.7997 0.0
H889 H 0.71139 0.77174 0.81238 0.0
H890 H 0.67973 0.75654 0.75496 0.0
H891 H 0.70145 0.74072 0.74235 0.0
H892 H 0.85663 0.81914 0.7801 0.0
H893 H 0.88205 0.80544 0.77936 0.0
H894 H 0.85877 0.75947 0.80635 0.0
H895 H 0.83319 0.77316 0.80674 0.0
Tb896 Tb 0.5218 0.50886 0.51664 0.0
Tb897 Tb 0.55669 0.53049 0.53956 0.0
C898 C 0.49002 0.49984 0.50498 0.0
C899 C 0.47769 0.51252 0.50654 0.0
C900 C 0.47386 0.51959 0.52483 0.0
C901 C 0.4652 0.53457 0.52709 0.0
C902 C 0.46006 0.5427 0.5111 0.0
C903 C 0.46303 0.53495 0.4926 0.0
C904 C 0.47174 0.51994 0.49033 0.0
C905 C 0.54738 0.50969 0.49716 0.0
C906 C 0.53374 0.55519 0.52183 0.0
C907 C 0.58848 0.5392 0.55102 0.0
C908 C 0.60025 0.52616 0.54819 0.0
C909 C 0.59665 0.51179 0.53115 0.0
C910 C 0.6061 0.49756 0.52927 0.0
C911 C 0.61932 0.49734 0.54439 0.0
C912 C 0.62328 0.51201 0.56124 0.0
C913 C 0.61369 0.5263 0.56318 0.0
C914 C 0.53114 0.53059 0.55884 0.0
C915 C 0.54506 0.48396 0.53314 0.0
O916 O 0.49736 0.49657 0.5215 0.0
O917 O 0.5011 0.50375 0.49343 0.0
O918 O 0.54516 0.52297 0.5098 0.0
O919 O 0.53408 0.49527 0.49383 0.0
O920 O 0.52085 0.53975 0.51918 0.0
O921 O 0.5498 0.55461 0.52835 0.0
O922 O 0.58111 0.5434 0.53501 0.0
O923 O 0.57751 0.53456 0.56248 0.0
O924 O 0.53317 0.51676 0.5466 0.0
O925 O 0.54461 0.54477 0.56195 0.0
O926 O 0.55771 0.49967 0.53649 0.0
O927 O 0.52895 0.48432 0.52665 0.0
H928 H 0.47827 0.51428 0.53768 0.0
H929 H 0.46325 0.54037 0.54157 0.0
H930 H 0.45896 0.54078 0.47997 0.0
H931 H 0.47452 0.51475 0.47607 0.0
H932 H 0.5862 0.5112 0.51944 0.0
H933 H 0.60299 0.48664 0.51598 0.0
H934 H 0.63343 0.51209 0.57309 0.0
H935 H 0.61643 0.53709 0.57654 0.0
Tb936 Tb 0.0495 0.51859 0.01935 0.0
Tb937 Tb 0.01205 0.51282 0.02703 0.0
C938 C 0.08112 0.51889 0.02611 0.0
C939 C 0.09412 0.50789 0.0208 0.0
C940 C 0.09103 0.48768 0.01917 0.0
C941 C 0.10454 0.47806 0.01791 0.0
C942 C 0.12138 0.48843 0.01817 0.0
C943 C 0.1242 0.50851 0.01883 0.0
C944 C 0.11071 0.51812 0.02018 0.0
C945 C 0.02769 0.51913 0.98669 0.0
C946 C 0.02437 0.47668 0.00773 0.0
C947 C 0.98133 0.51371 0.02966 0.0
C948 C 0.96889 0.52633 0.02863 0.0
C949 C 0.96456 0.53394 0.01198 0.0
C950 C 0.95147 0.54426 0.01094 0.0
C951 C 0.94244 0.54712 0.02651 0.0
C952 C 0.94721 0.53998 0.04335 0.0
C953 C 0.96023 0.52967 0.04436 0.0
C954 C 0.03533 0.50667 0.0549 0.0
C955 C 0.03552 0.55534 0.03301 0.0
O956 O 0.06971 0.51061 0.03545 0.0
O957 O 0.07451 0.52815 0.01348 0.0
O958 O 0.02457 0.51697 0.00334 0.0
O959 O 0.04425 0.52079 0.98807 0.0
O960 O 0.0404 0.48717 0.01179 0.0
O961 O 0.0109 0.48414 0.01063 0.0
O962 O 0.98616 0.50675 0.01345 0.0
O963 O 0.99403 0.51887 0.0446 0.0
O964 O 0.03743 0.51972 0.04478 0.0
O965 O 0.01949 0.49702 0.04973 0.0
O966 O 0.0198 0.54413 0.02946 0.0
O967 O 0.04947 0.54831 0.03188 0.0
H968 H 0.07834 0.4794 0.01964 0.0
H969 H 0.10186 0.46255 0.01711 0.0
H970 H 0.137 0.51699 0.01925 0.0
H971 H 0.11344 0.53372 0.02164 0.0
H972 H 0.97098 0.53156 0.99959 0.0
H973 H 0.94805 0.54945 0.9977 0.0
H974 H 0.94077 0.54221 0.05575 0.0
H975 H 0.96332 0.52393 0.05734 0.0
C976 C 0.98565 0.18692 0.95087 0.0
C977 C 0.9982 0.19861 0.94327 0.0
C978 C 0.98977 0.17254 0.96058 0.0
C979 C 0.0232 0.14353 0.96733 0.0
H980 H 0.99829 0.12845 0.00765 0.0
C981 C 0.04151 0.08829 0.01267 0.0
C982 C 0.02789 0.0735 0.01455 0.0
C983 C 0.03819 0.10425 0.0051 0.0
C984 C 0.0053 0.13246 0.99635 0.0
H985 H 0.02514 0.20462 0.94049 0.0
H986 H 0.03259 0.18014 0.95824 0.0
H987 H 0.99262 0.15554 0.99308 0.0
H988 H 1.00007 0.06416 0.01035 0.0
H989 H 0.99427 0.0922 0.99737 0.0
H990 H 0.03614 0.12063 0.97105 0.0
C991 C 0.01935 0.18164 0.95614 0.0
C992 C 1.00201 0.14796 0.98788 0.0
C993 C 0.01514 0.19587 0.94611 0.0
C994 C 0.01085 0.07531 0.00916 0.0
C995 C 0.00753 0.0914 1.00178 0.0
C996 C 0.02668 0.12825 0.97603 0.0
C997 C 0.00667 0.16958 0.96332 0.0
C998 C 0.0108 0.15364 0.97309 0.0
C999 C 0.02117 0.10591 0.99941 0.0
C1000 C 0.01769 0.12246 0.99055 0.0
H1001 H 0.9724 0.18841 0.94881 0.0
H1002 H 0.9795 0.1634 0.96542 0.0
H1003 H 0.03 0.14707 0.95575 0.0
H1004 H 0.0548 0.08734 0.01657 0.0
H1005 H 0.04896 0.11529 0.00364 0.0
C1006 C 0.11095 0.76205 0.16919 0.0
C1007 C 0.10594 0.77932 0.16665 0.0
C1008 C 0.12768 0.76241 0.17827 0.0
C1009 C 0.16425 0.79428 0.21337 0.0
H1010 H 0.18975 0.75637 0.19506 0.0
C1011 C 0.23312 0.79832 0.2521 0.0
C1012 C 0.23796 0.78093 0.25421 0.0
C1013 C 0.21782 0.79822 0.23991 0.0
C1014 C 0.18275 0.76693 0.20054 0.0
H1015 H 0.1148 0.8105 0.17133 0.0
H1016 H 0.14399 0.81114 0.18729 0.0
H1017 H 0.16166 0.7561 0.17654 0.0
H1018 H 0.23084 0.74975 0.24481 0.0
H1019 H 0.20379 0.74941 0.22389 0.0
H1020 H 0.18491 0.80481 0.23763 0.0
C1021 C 0.13491 0.79731 0.1823 0.0
C1022 C 0.16665 0.76681 0.18985 0.0
C1023 C 0.11821 0.79693 0.17304 0.0
C1024 C 0.22743 0.76339 0.24342 0.0
C1025 C 0.21195 0.76324 0.23136 0.0
C1026 C 0.18023 0.79429 0.22414 0.0
C1027 C 0.1398 0.78006 0.18521 0.0
C1028 C 0.1572 0.7805 0.19614 0.0
C1029 C 0.20678 0.78067 0.22967 0.0
C1030 C 0.18977 0.78064 0.2179 0.0
H1031 H 0.10186 0.74821 0.16443 0.0
H1032 H 0.13095 0.74888 0.1804 0.0
H1033 H 0.15719 0.8048 0.21884 0.0
H1034 H 0.2411 0.81208 0.26009 0.0
H1035 H 0.21462 0.81197 0.23865 0.0
C1036 C 0.51258 0.80619 0.43476 0.0
C1037 C 0.50179 0.79265 0.44252 0.0
C1038 C 0.51602 0.82598 0.44293 0.0
C1039 C 0.52692 0.86692 0.46687 0.0
H1040 H 0.4899 0.88607 0.48758 0.0
C1041 C 0.5362 0.9466 0.50545 0.0
C1042 C 0.52212 0.95547 0.50331 0.0
C1043 C 0.53411 0.92678 0.49841 0.0
C1044 C 0.50032 0.88108 0.48164 0.0
H1045 H 0.48702 0.78919 0.46565 0.0
H1046 H 0.49363 0.82344 0.48041 0.0
H1047 H 0.48593 0.85181 0.47458 0.0
H1048 H 0.49484 0.95052 0.49178 0.0
H1049 H 0.4913 0.91614 0.47886 0.0
H1050 H 0.54095 0.89638 0.47295 0.0
C1051 C 0.49891 0.81897 0.46755 0.0
C1052 C 0.49817 0.86127 0.47449 0.0
C1053 C 0.49526 0.79925 0.45921 0.0
C1054 C 0.50593 0.94411 0.4938 0.0
C1055 C 0.50388 0.92432 0.4865 0.0
C1056 C 0.52898 0.88679 0.47376 0.0
C1057 C 0.50896 0.83269 0.45923 0.0
C1058 C 0.51145 0.85386 0.46706 0.0
C1059 C 0.51794 0.91534 0.48878 0.0
C1060 C 0.51572 0.89416 0.48129 0.0
H1061 H 0.51771 0.80161 0.4218 0.0
H1062 H 0.52366 0.83604 0.43594 0.0
H1063 H 0.53753 0.86183 0.46148 0.0
H1064 H 0.54883 0.95489 0.51286 0.0
H1065 H 0.54518 0.9204 0.50082 0.0
C1066 C 0.509 0.27195 0.68504 0.0
C1067 C 0.51004 0.27992 0.66825 0.0
C1068 C 0.49378 0.2697 0.69285 0.0
C1069 C 0.45426 0.28909 0.69301 0.0
H1070 H 0.43789 0.24505 0.71593 0.0
C1071 C 0.38862 0.27744 0.71906 0.0
C1072 C 0.38797 0.27099 0.73674 0.0
C1073 C 0.40321 0.27774 0.71025 0.0
C1074 C 0.44237 0.25754 0.70974 0.0
H1075 H 0.49565 0.29133 0.64625 0.0
H1076 H 0.46918 0.28692 0.65945 0.0
H1077 H 0.46383 0.24663 0.70137 0.0
H1078 H 0.40237 0.26008 0.75914 0.0
H1079 H 0.4277 0.26057 0.74378 0.0
H1080 H 0.4329 0.30005 0.70143 0.0
C1081 C 0.48018 0.28274 0.66687 0.0
C1082 C 0.45726 0.25845 0.7014 0.0
C1083 C 0.49536 0.28505 0.65914 0.0
C1084 C 0.40225 0.26479 0.74533 0.0
C1085 C 0.41682 0.26507 0.73652 0.0
C1086 C 0.43939 0.28817 0.70132 0.0
C1087 C 0.47926 0.27537 0.68402 0.0
C1088 C 0.46339 0.27423 0.6929 0.0
C1089 C 0.41752 0.27162 0.7189 0.0
C1090 C 0.43324 0.27239 0.7098 0.0
H1091 H 0.52009 0.26794 0.69248 0.0
H1092 H 0.49359 0.26411 0.70616 0.0
H1093 H 0.45877 0.30167 0.68697 0.0
H1094 H 0.37778 0.28208 0.71189 0.0
H1095 H 0.4032 0.28261 0.69653 0.0
C1096 C 0.0392 0.79638 0.63505 0.0
C1097 C 0.02465 0.78099 0.62902 0.0
C1098 C 0.04413 0.80851 0.62234 0.0
C1099 C 0.02487 0.82434 0.57932 0.0
H1100 H 0.07202 0.85018 0.57943 0.0
C1101 C 0.03809 0.87886 0.53107 0.0
C1102 C 0.04809 0.89703 0.54105 0.0
C1103 C 0.03814 0.86256 0.53927 0.0
C1104 C 0.05882 0.84299 0.57925 0.0
H1105 H 0.0046 0.76531 0.60468 0.0
H1106 H 0.01353 0.78604 0.58232 0.0
H1107 H 0.06638 0.82508 0.59876 0.0
H1108 H 0.06713 0.91203 0.56661 0.0
H1109 H 0.06672 0.88354 0.58131 0.0
H1110 H 0.01723 0.84236 0.56021 0.0
C1111 C 0.02077 0.78921 0.59704 0.0
C1112 C 0.05557 0.82871 0.59033 0.0
C1113 C 0.01567 0.77731 0.60981 0.0
C1114 C 0.05908 0.89827 0.55875 0.0
C1115 C 0.05901 0.88194 0.56705 0.0
C1116 C 0.0281 0.83843 0.5682 0.0
C1117 C 0.03474 0.80526 0.60332 0.0
C1118 C 0.03854 0.81938 0.5906 0.0
C1119 C 0.04802 0.86413 0.55769 0.0
C1120 C 0.04507 0.848 0.56817 0.0
H1121 H 0.04637 0.7995 0.6498 0.0
H1122 H 0.05484 0.82088 0.6277 0.0
H1123 H 0.01158 0.81784 0.5796 0.0
H1124 H 0.02935 0.87739 0.51751 0.0
H1125 H 0.02974 0.8489 0.53165 0.0
C1126 C 0.46153 0.77079 0.81144 0.0
C1127 C 0.47315 0.78839 0.81986 0.0
C1128 C 0.44445 0.77049 0.80446 0.0
C1129 C 0.41267 0.79941 0.79314 0.0
H1130 H 0.38372 0.76172 0.81509 0.0
C1131 C 0.34061 0.79721 0.79478 0.0
C1132 C 0.32947 0.77875 0.78984 0.0
C1133 C 0.35842 0.79909 0.79748 0.0
C1134 C 0.39158 0.77215 0.80866 0.0
H1135 H 0.47667 0.81956 0.82659 0.0
H1136 H 0.44636 0.81908 0.81467 0.0
H1137 H 0.41455 0.76384 0.81949 0.0
H1138 H 0.32824 0.74782 0.78388 0.0
H1139 H 0.35927 0.75114 0.78848 0.0
H1140 H 0.38949 0.80772 0.7824 0.0
C1141 C 0.45057 0.80556 0.81314 0.0
C1142 C 0.40923 0.77335 0.81114 0.0
C1143 C 0.46785 0.80587 0.8199 0.0
C1144 C 0.33647 0.76224 0.78785 0.0
C1145 C 0.35424 0.76414 0.7905 0.0
C1146 C 0.3949 0.79817 0.79061 0.0
C1147 C 0.43862 0.78777 0.80622 0.0
C1148 C 0.41992 0.78683 0.80324 0.0
C1149 C 0.36538 0.78257 0.79529 0.0
C1150 C 0.38421 0.78441 0.79824 0.0
H1151 H 0.46546 0.75717 0.81126 0.0
H1152 H 0.43556 0.75662 0.79877 0.0
H1153 H 0.42067 0.80994 0.78697 0.0
H1154 H 0.33561 0.81023 0.79642 0.0
H1155 H 0.36674 0.81346 0.80143 0.0
C1156 C 0.55801 0.20011 0.16363 0.0
C1157 C 0.5459 0.2093 0.15503 0.0
C1158 C 0.56425 0.18618 0.152 0.0
C1159 C 0.56805 0.16666 0.10146 0.0
H1160 H 0.55466 0.11616 0.11445 0.0
C1161 C 0.54988 0.09651 0.04346 0.0
C1162 C 0.55101 0.07887 0.04901 0.0
C1163 C 0.55463 0.11378 0.05733 0.0
C1164 C 0.559 0.13012 0.11073 0.0
H1165 H 0.53181 0.21243 0.12771 0.0
H1166 H 0.54299 0.18862 0.10746 0.0
H1167 H 0.55451 0.14498 0.13776 0.0
H1168 H 0.55893 0.06561 0.07315 0.0
H1169 H 0.56838 0.09569 0.09695 0.0
H1170 H 0.5723 0.1519 0.07431 0.0
C1171 C 0.54756 0.19192 0.12307 0.0
C1172 C 0.55887 0.14666 0.12417 0.0
C1173 C 0.54107 0.20542 0.13466 0.0
C1174 C 0.55807 0.07897 0.06836 0.0
C1175 C 0.56321 0.09626 0.08212 0.0
C1176 C 0.56848 0.15013 0.08813 0.0
C1177 C 0.55879 0.18175 0.13164 0.0
C1178 C 0.56281 0.16501 0.11938 0.0
C1179 C 0.56093 0.11381 0.07699 0.0
C1180 C 0.56336 0.13157 0.0923 0.0
H1181 H 0.56186 0.20286 0.17933 0.0
H1182 H 0.57288 0.17845 0.1589 0.0
H1183 H 0.5712 0.1807 0.09749 0.0
H1184 H 0.54438 0.09686 0.02866 0.0
H1185 H 0.55242 0.12689 0.05278 0.0
C1186 C 0.06471 0.2969 0.34318 0.0
C1187 C 0.05196 0.30084 0.32962 0.0
C1188 C 0.08115 0.29684 0.3389 0.0
C1189 C 0.11701 0.30286 0.32789 0.0
H1190 H 0.11433 0.27248 0.2763 0.0
C1191 C 0.17664 0.28559 0.29683 0.0
C1192 C 0.17484 0.26611 0.28796 0.0
C1193 C 0.1624 0.29222 0.30214 0.0
C1194 C 0.11527 0.28101 0.29073 0.0
H1195 H 0.04689 0.30943 0.30172 0.0
H1196 H 0.0756 0.30941 0.29433 0.0
H1197 H 0.08853 0.28132 0.28587 0.0
H1198 H 0.15683 0.23838 0.27753 0.0
H1199 H 0.132 0.24993 0.28691 0.0
H1200 H 0.14373 0.30192 0.33287 0.0
C1201 C 0.07277 0.30605 0.3081 0.0
C1202 C 0.10057 0.28628 0.29614 0.0
C1203 C 0.05636 0.30614 0.31239 0.0
C1204 C 0.15859 0.25342 0.28446 0.0
C1205 C 0.14437 0.26007 0.28966 0.0
C1206 C 0.13179 0.29767 0.32242 0.0
C1207 C 0.08511 0.30072 0.321 0.0
C1208 C 0.10122 0.29703 0.31485 0.0
C1209 C 0.14614 0.27953 0.29851 0.0
C1210 C 0.13095 0.2864 0.3039 0.0
H1211 H 0.06175 0.29285 0.35665 0.0
H1212 H 0.09038 0.29259 0.34908 0.0
H1213 H 0.11786 0.3112 0.34238 0.0
H1214 H 0.18908 0.29562 0.29987 0.0
H1215 H 0.16407 0.30731 0.30889 0.0
C1216 C 0.94476 1.00011 0.18472 0.0
C1217 C 0.94152 0.01688 0.19556 0.0
C1218 C 0.95129 1.00085 0.16741 0.0
C1219 C 0.97861 0.03539 0.14671 0.0
H1220 H 0.96335 0.99886 0.09749 0.0
C1221 C 0.01246 0.04635 0.08213 0.0
C1222 C 0.01532 0.0298 0.0707 0.0
C1223 C 1.00117 0.04457 0.09538 0.0
C1224 C 0.96789 0.00907 0.1112 0.0
H1225 H 0.94142 0.04718 0.19603 0.0
H1226 H 0.95285 0.04841 0.16607 0.0
H1227 H 0.94761 0.99521 0.12442 0.0
H1228 H 0.0083 0.99844 0.06344 0.0
H1229 H 0.98919 0.99521 0.08715 0.0
H1230 H 0.99926 0.04881 0.1342 0.0
C1231 C 0.95054 0.03479 0.17104 0.0
C1232 C 0.95883 0.00699 0.12655 0.0
C1233 C 0.94396 0.03404 0.18818 0.0
C1234 C 0.00628 0.01144 0.07215 0.0
C1235 C 0.99523 0.00962 0.08566 0.0
C1236 C 0.98779 0.0373 0.13156 0.0
C1237 C 0.95473 0.01839 0.16081 0.0
C1238 C 0.96408 0.02022 0.14438 0.0
C1239 C 0.9928 0.02616 0.09774 0.0
C1240 C 0.98253 0.02425 0.11356 0.0
H1241 H 0.94299 0.98667 0.19003 0.0
H1242 H 0.95447 0.98801 0.15975 0.0
H1243 H 0.98311 0.04558 0.16046 0.0
H1244 H 0.01915 0.06066 0.08103 0.0
H1245 H 0.99924 0.05765 0.10401 0.0
C1246 C 0.29629 0.73303 0.52439 0.0
C1247 C 0.31292 0.73497 0.51988 0.0
C1248 C 0.28548 0.74445 0.51777 0.0
C1249 C 0.28333 0.7831 0.48822 0.0
H1250 H 0.23939 0.74863 0.4641 0.0
C1251 C 0.25058 0.79414 0.4169 0.0
C1252 C 0.24737 0.77701 0.40274 0.0
C1253 C 0.25207 0.79337 0.43664 0.0
C1254 C 0.25153 0.75855 0.47082 0.0
H1255 H 0.3319 0.7511 0.50629 0.0
H1256 H 0.31281 0.77023 0.49358 0.0
H1257 H 0.25713 0.74028 0.49048 0.0
H1258 H 0.24087 0.74568 0.3979 0.0
H1259 H 0.24439 0.74423 0.43212 0.0
H1260 H 0.27874 0.80002 0.46684 0.0
C1261 C 0.30812 0.76049 0.5028 0.0
C1262 C 0.26168 0.75392 0.48624 0.0
C1263 C 0.31909 0.74941 0.5099 0.0
C1264 C 0.24377 0.75911 0.40853 0.0
C1265 C 0.24554 0.75833 0.42825 0.0
C1266 C 0.27338 0.78747 0.47247 0.0
C1267 C 0.29093 0.75757 0.50597 0.0
C1268 C 0.2782 0.76552 0.49428 0.0
C1269 C 0.25069 0.77548 0.44256 0.0
C1270 C 0.25789 0.77454 0.4628 0.0
H1271 H 0.29142 0.72215 0.53242 0.0
H1272 H 0.27254 0.7422 0.52099 0.0
H1273 H 0.2957 0.79273 0.49456 0.0
H1274 H 0.2534 0.80822 0.41295 0.0
H1275 H 0.25562 0.80683 0.44728 0.0
C1276 C 0.60034 0.98161 0.71891 0.0
C1277 C 0.61699 0.99219 0.7282 0.0
C1278 C 0.59305 0.98346 0.7002 0.0
C1279 C 0.59528 0.01599 0.66373 0.0
H1280 H 0.56699 0.97007 0.62865 0.0
C1281 C 0.56095 0.01842 0.58457 0.0
C1282 C 0.54507 0.00525 0.57676 0.0
C1283 C 0.5709 0.01722 0.6024 0.0
C1284 C 0.57455 0.98324 0.63822 0.0
H1285 H 0.63889 0.01329 0.72444 0.0
H1286 H 0.62611 0.01666 0.69171 0.0
H1287 H 0.58182 0.96743 0.66008 0.0
H1288 H 0.52733 0.98063 0.58206 0.0
H1289 H 0.544 0.97885 0.61277 0.0
H1290 H 0.5877 0.03185 0.64192 0.0
C1291 C 0.61868 0.00681 0.69908 0.0
C1292 C 0.58323 0.98166 0.65645 0.0
C1293 C 0.62612 1.00475 0.71787 0.0
C1294 C 0.53951 0.99097 0.58737 0.0
C1295 C 0.54929 0.98985 0.60513 0.0
C1296 C 0.58643 0.01761 0.64548 0.0
C1297 C 0.60197 0.99613 0.68986 0.0
C1298 C 0.59362 0.99799 0.66973 0.0
C1299 C 0.56527 1.00286 0.61309 0.0
C1300 C 0.57566 1.00128 0.63238 0.0
H1301 H 0.59273 0.97181 0.7262 0.0
H1302 H 0.58013 0.97514 0.694 0.0
H1303 H 0.60301 0.029 0.67343 0.0
H1304 H 0.56568 0.02973 0.57697 0.0
H1305 H 0.5831 0.0275 0.60766 0.0
C1306 C 0.31052 0.3384 0.993 0.0
C1307 C 0.30495 0.35522 0.9999 0.0
C1308 C 0.30642 0.32968 0.97325 0.0
C1309 C 0.30746 0.32258 0.93038 0.0
H1310 H 0.26515 0.3225 0.89649 0.0
C1311 C 0.30147 0.30479 0.84717 0.0
C1312 C 0.28568 0.29403 0.83592 0.0
C1313 C 0.30281 0.31187 0.86708 0.0
C1314 C 0.27697 0.3222 0.90577 0.0
H1315 H 0.29014 0.37568 0.99151 0.0
H1316 H 0.28339 0.3608 0.9569 0.0
H1317 H 0.26847 0.33437 0.93151 0.0
H1318 H 0.25885 0.28235 0.83677 0.0
H1319 H 0.2613 0.29428 0.8717 0.0
H1320 H 0.31578 0.30987 0.90489 0.0
C1321 C 0.29067 0.35409 0.96681 0.0
C1322 C 0.27897 0.32925 0.92586 0.0
C1323 C 0.29457 0.36268 0.98668 0.0
C1324 C 0.2712 0.29063 0.84502 0.0
C1325 C 0.27259 0.29758 0.86504 0.0
C1326 C 0.3054 0.31538 0.91041 0.0
C1327 C 0.29687 0.33771 0.95977 0.0
C1328 C 0.29429 0.32963 0.93843 0.0
C1329 C 0.28846 0.3082 0.87636 0.0
C1330 C 0.29022 0.31527 0.89777 0.0
H1331 H 0.31835 0.33213 1.00282 0.0
H1332 H 0.31102 0.31678 0.96853 0.0
H1333 H 0.31957 0.32292 0.93945 0.0
H1334 H 0.31285 0.30788 0.84062 0.0
H1335 H 0.31515 0.32037 0.87515 0.0
C1336 C 0.9752 0.99783 0.30847 0.0
C1337 C 0.96526 0.01151 0.30562 0.0
C1338 C 0.98408 0.99824 0.3271 0.0
C1339 C 1.00241 0.03026 0.37428 0.0
H1340 H 0.99223 0.98446 0.39666 0.0
C1341 C 0.01694 0.03377 0.45699 0.0
C1342 C 0.02134 0.01772 0.46364 0.0
C1343 C 0.01195 0.03289 0.43706 0.0
C1344 C 0.99555 0.99729 0.39057 0.0
H1345 H 0.95713 0.0366 0.31974 0.0
H1346 H 0.9728 0.03745 0.35201 0.0
H1347 H 0.98093 0.98288 0.36246 0.0
H1348 H 0.02471 0.98848 0.45471 0.0
H1349 H 0.01667 0.98722 0.42004 0.0
H1350 H 0.0171 0.04473 0.4022 0.0
C1351 C 0.97368 0.0264 0.33997 0.0
C1352 C 0.98903 0.99634 0.37098 0.0
C1353 C 0.96461 0.02578 0.32153 0.0
C1354 C 0.02115 1.001 0.45002 0.0
C1355 C 0.01645 1.00024 0.43013 0.0
C1356 C 0.00916 0.03115 0.39377 0.0
C1357 C 0.9834 0.01259 0.34294 0.0
C1358 C 0.99213 0.01292 0.36282 0.0
C1359 C 0.01156 0.01607 0.42339 0.0
C1360 C 0.00552 0.01478 0.40227 0.0
H1361 H 0.97587 0.98667 0.29642 0.0
H1362 H 0.9915 0.98743 0.32914 0.0
H1363 H 0.00505 0.0432 0.36819 0.0
H1364 H 0.0169 0.0468 0.46719 0.0
H1365 H 0.00799 0.04525 0.43245 0.0
C1366 C 0.31629 0.69063 0.5925 0.0
C1367 C 0.3319 0.70138 0.58931 0.0
C1368 C 0.30998 0.69596 0.60949 0.0
C1369 C 0.29427 0.72082 0.63762 0.0
H1370 H 0.32215 0.73599 0.68937 0.0
C1371 C 0.27508 0.76513 0.70399 0.0
C1372 C 0.27887 0.75944 0.72185 0.0
C1373 C 0.28041 0.75618 0.68749 0.0
C1374 C 0.31419 0.73164 0.67501 0.0
H1375 H 0.35367 0.72538 0.60205 0.0
H1376 H 0.34262 0.7346 0.63185 0.0
H1377 H 0.3347 0.7232 0.66183 0.0
H1378 H 0.29015 0.73953 0.7364 0.0
H1379 H 0.29933 0.72373 0.70772 0.0
H1380 H 0.27378 0.72936 0.6508 0.0
C1381 C 0.33529 0.72209 0.62111 0.0
C1382 C 0.3214 0.72449 0.65928 0.0
C1383 C 0.3416 0.71681 0.60404 0.0
C1384 C 0.28718 0.74411 0.72279 0.0
C1385 C 0.29253 0.73522 0.70644 0.0
C1386 C 0.28708 0.72808 0.65333 0.0
C1387 C 0.31919 0.71204 0.62367 0.0
C1388 C 0.3115 0.71903 0.64047 0.0
C1389 C 0.28959 0.74152 0.68878 0.0
C1390 C 0.29698 0.73353 0.67214 0.0
H1391 H 0.30853 0.67857 0.58154 0.0
H1392 H 0.29767 0.68779 0.61132 0.0
H1393 H 0.28644 0.71695 0.62318 0.0
H1394 H 0.26867 0.77696 0.70296 0.0
H1395 H 0.27804 0.76131 0.674 0.0
C1396 C 0.61482 0.01736 0.84289 0.0
C1397 C 0.63041 0.01108 0.84299 0.0
C1398 C 0.60707 0.0196 0.85971 0.0
C1399 C 0.60863 0.0074 0.91071 0.0
H1400 H 0.57791 0.04256 0.91602 0.0
C1401 C 0.57874 0.02334 0.98218 0.0
C1402 C 0.56184 0.02653 0.98037 0.0
C1403 C 0.58743 0.02179 0.966 0.0
C1404 C 0.58627 0.03246 0.91485 0.0
H1405 H 0.64998 1.00244 0.86172 0.0
H1406 H 0.637 0.00692 0.89101 0.0
H1407 H 0.5922 0.03967 0.88792 0.0
H1408 H 0.54112 0.03061 0.95942 0.0
H1409 H 0.55605 0.02804 0.93164 0.0
H1410 H 0.6028 1.00049 0.93794 0.0
C1411 C 0.63037 0.00977 0.87776 0.0
C1412 C 0.59459 0.03071 0.89843 0.0
C1413 C 0.63805 0.00738 0.86083 0.0
C1414 C 0.5541 0.02828 0.96171 0.0
C1415 C 0.56281 0.02687 0.9456 0.0
C1416 C 0.6004 0.00927 0.92724 0.0
C1417 C 0.61458 0.01583 0.87764 0.0
C1418 C 0.60592 0.01804 0.89579 0.0
C1419 C 0.57967 0.02351 0.94728 0.0
C1420 C 0.58892 0.02176 0.92967 0.0
H1421 H 0.60827 0.02018 0.82955 0.0
H1422 H 0.59486 0.02389 0.85834 0.0
H1423 H 0.61688 0.99719 0.90954 0.0
H1424 H 0.58528 0.02184 0.99613 0.0
H1425 H 0.60039 0.01943 0.96828 0.0
C1426 C 0.28858 0.35423 0.10309 0.0
C1427 C 0.30258 0.35139 0.09388 0.0
C1428 C 0.28436 0.3442 0.11785 0.0
C1429 C 0.29253 0.30223 0.14003 0.0
H1430 H 0.28038 0.33067 0.18571 0.0
C1431 C 0.27588 0.26617 0.20462 0.0
C1432 C 0.28117 0.27746 0.22352 0.0
C1433 C 0.27759 0.27461 0.18828 0.0
C1434 C 0.28392 0.32254 0.17315 0.0
H1435 H 0.32271 0.33518 0.09266 0.0
H1436 H 0.31559 0.31816 0.11829 0.0
H1437 H 0.2845 0.34603 0.15795 0.0
H1438 H 0.29269 0.3064 0.24016 0.0
H1439 H 0.29621 0.32101 0.21178 0.0
H1440 H 0.29273 0.27907 0.15551 0.0
C1441 C 0.30766 0.32787 0.11405 0.0
C1442 C 0.286 0.33127 0.15705 0.0
C1443 C 0.31183 0.33781 0.09936 0.0
C1444 C 0.28851 0.2973 0.22577 0.0
C1445 C 0.29034 0.30572 0.20945 0.0
C1446 C 0.29058 0.29356 0.15616 0.0
C1447 C 0.29402 0.33108 0.12372 0.0
C1448 C 0.2905 0.32131 0.14032 0.0
C1449 C 0.28475 0.29454 0.19045 0.0
C1450 C 0.28638 0.30364 0.17303 0.0
H1451 H 0.28118 0.36459 0.0993 0.0
H1452 H 0.27361 0.34686 0.12478 0.0
H1453 H 0.29575 0.29396 0.12733 0.0
H1454 H 0.27006 0.25087 0.20244 0.0
H1455 H 0.27292 0.26555 0.17394 0.0
C1456 C 0.20201 0.88885 0.9996 0.0
C1457 C 0.20677 0.87608 0.01127 0.0
C1458 C 0.18781 0.89676 1.00216 0.0
C1459 C 0.16526 0.91164 0.04073 0.0
H1460 H 0.13651 0.9251 0.99862 0.0
C1461 C 0.12186 0.96668 0.05302 0.0
C1462 C 0.12405 0.98076 0.04138 0.0
C1463 C 0.12883 0.95036 0.04933 0.0
C1464 C 0.14438 0.92134 0.01052 0.0
H1465 H 0.19994 0.86068 0.03404 0.0
H1466 H 0.17503 0.87473 0.03863 0.0
H1467 H 0.15349 0.90102 0.99117 0.0
H1468 H 0.13563 0.9892 0.01723 0.0
H1469 H 0.14771 0.96077 0.01077 0.0
H1470 H 0.15674 0.93265 0.06 0.0
C1471 C 0.18236 0.87859 0.02754 0.0
C1472 C 0.15404 0.90757 0.00627 0.0
C1473 C 0.19652 0.8705 0.02484 0.0
C1474 C 0.13351 0.97841 0.02622 0.0
C1475 C 0.14034 0.96212 0.02248 0.0
C1476 C 0.15555 0.92541 0.04499 0.0
C1477 C 0.17814 0.89213 0.01652 0.0
C1478 C 0.16508 0.90317 0.02127 0.0
C1479 C 0.13795 0.94787 0.03387 0.0
C1480 C 0.14559 0.9309 0.02984 0.0
H1481 H 0.20963 0.8933 0.98896 0.0
H1482 H 0.18502 0.90736 0.99363 0.0
H1483 H 0.1738 0.90865 0.05257 0.0
H1484 H 0.11442 0.96802 0.06464 0.0
H1485 H 0.12685 0.93955 0.05831 0.0
C1486 C 0.70448 0.6216 0.0051 0.0
C1487 C 0.71054 0.61469 0.98814 0.0
C1488 C 0.68777 0.61368 0.00774 0.0
C1489 C 0.64516 0.58447 0.98081 0.0
H1490 H 0.63881 0.57177 0.03096 0.0
C1491 C 0.58473 0.53112 0.99013 0.0
C1492 C 0.57803 0.53456 0.00737 0.0
C1493 C 0.60024 0.5427 0.98808 0.0
C1494 C 0.64027 0.57549 0.01694 0.0
H1495 H 0.70363 0.59427 0.9605 0.0
H1496 H 0.67468 0.5805 0.9651 0.0
H1497 H 0.66702 0.58889 0.02684 0.0
H1498 H 0.58218 0.55295 0.03596 0.0
H1499 H 0.60921 0.57347 0.0323 0.0
H1500 H 0.61849 0.57092 0.97083 0.0
C1501 C 0.68272 0.59214 0.97632 0.0
C1502 C 0.65647 0.58532 0.01458 0.0
C1503 C 0.6994 0.59998 0.97373 0.0
C1504 C 0.58702 0.55002 0.02246 0.0
C1505 C 0.60257 0.56166 0.02042 0.0
C1506 C 0.62897 0.5747 0.98318 0.0
C1507 C 0.67672 0.59876 0.99342 0.0
C1508 C 0.65919 0.58967 0.99639 0.0
C1509 C 0.60945 0.55806 0.00323 0.0
C1510 C 0.62636 0.5698 1.00119 0.0
H1511 H 0.71271 0.63292 0.0165 0.0
H1512 H 0.68351 0.61926 0.02099 0.0
H1513 H 0.64669 0.58791 0.9667 0.0
H1514 H 0.57809 0.51927 0.97828 0.0
H1515 H 0.60523 0.53927 0.97477 0.0
C1516 C 0.67011 0.49114 0.27201 0.0
C1517 C 0.67773 0.5023 0.29059 0.0
C1518 C 0.67725 0.47626 0.2636 0.0
C1519 C 0.71595 0.45528 0.26859 0.0
H1520 H 0.68269 0.40619 0.25179 0.0
C1521 C 0.73819 0.38406 0.25491 0.0
C1522 C 0.73001 0.3698 0.26405 0.0
C1523 C 0.73119 0.40001 0.2526 0.0
C1524 C 0.69212 0.4198 0.25636 0.0
H1525 H 0.69945 0.50755 0.31427 0.0
H1526 H 0.71175 0.48158 0.29975 0.0
H1527 H 0.67263 0.43609 0.25814 0.0
H1528 H 0.70787 0.36065 0.2774 0.0
H1529 H 0.69576 0.38858 0.27363 0.0
H1530 H 0.73544 0.43894 0.26825 0.0
C1531 C 0.70035 0.48433 0.29158 0.0
C1532 C 0.68637 0.43695 0.25974 0.0
C1533 C 0.69321 0.49914 0.29999 0.0
C1534 C 0.71433 0.37132 0.27008 0.0
C1535 C 0.70738 0.38731 0.26786 0.0
C1536 C 0.7217 0.43814 0.26533 0.0
C1537 C 0.69217 0.47239 0.27357 0.0
C1538 C 0.69824 0.4548 0.26647 0.0
C1539 C 0.71594 0.40202 0.25949 0.0
C1540 C 0.70984 0.42019 0.25975 0.0
H1541 H 0.65817 0.49324 0.26438 0.0
H1542 H 0.67078 0.46738 0.24961 0.0
H1543 H 0.72538 0.46886 0.27355 0.0
H1544 H 0.75019 0.38307 0.24989 0.0
H1545 H 0.73794 0.41098 0.24584 0.0
C1546 C 0.79171 0.44719 0.53535 0.0
C1547 C 0.77901 0.43985 0.51862 0.0
C1548 C 0.80746 0.45872 0.53426 0.0
C1549 C 0.83177 0.48533 0.50212 0.0
H1550 H 0.87039 0.47153 0.53166 0.0
C1551 C 0.90159 0.49955 0.48674 0.0
C1552 C 0.91504 0.50557 0.50296 0.0
C1553 C 0.88447 0.49495 0.48932 0.0
C1554 C 0.85975 0.47577 0.52356 0.0
H1555 H 0.77239 0.43914 0.48774 0.0
H1556 H 0.80026 0.45907 0.48557 0.0
H1557 H 0.84124 0.45712 0.53476 0.0
H1558 H 0.92099 0.51272 0.53459 0.0
H1559 H 0.89108 0.50426 0.53904 0.0
H1560 H 0.85058 0.50337 0.4903 0.0
C1561 C 0.79789 0.45634 0.49969 0.0
C1562 C 0.84301 0.46756 0.52536 0.0
C1563 C 0.78192 0.445 0.50089 0.0
C1564 C 0.91095 0.50772 0.5218 0.0
C1565 C 0.89385 0.50298 0.52436 0.0
C1566 C 0.84859 0.49341 0.50016 0.0
C1567 C 0.81102 0.46279 0.51628 0.0
C1568 C 0.82879 0.47223 0.51468 0.0
C1569 C 0.8805 0.49615 0.50815 0.0
C1570 C 0.8627 0.48866 0.51087 0.0
H1571 H 0.78973 0.44329 0.54919 0.0
H1572 H 0.81708 0.46384 0.54742 0.0
H1573 H 0.82113 0.48936 0.49382 0.0
H1574 H 0.9043 0.49751 0.47204 0.0
H1575 H 0.87441 0.48954 0.47659 0.0
C1576 C 0.3708 0.10186 0.29211 0.0
C1577 C 0.37506 0.09048 0.27587 0.0
C1578 C 0.36284 0.11753 0.29038 0.0
C1579 C 0.33629 0.13943 0.25557 0.0
H1580 H 0.35064 0.18517 0.29679 0.0
C1581 C 0.29716 0.2017 0.26352 0.0
C1582 C 0.30631 0.22117 0.27012 0.0
C1583 C 0.30561 0.18603 0.26314 0.0
C1584 C 0.3464 0.17265 0.28501 0.0
H1585 H 0.37367 0.08746 0.24465 0.0
H1586 H 0.35932 0.11456 0.2415 0.0
H1587 H 0.36498 0.15826 0.29764 0.0
H1588 H 0.33197 0.23877 0.28158 0.0
H1589 H 0.3465 0.21184 0.28119 0.0
H1590 H 0.31752 0.15384 0.24309 0.0
C1591 C 0.36237 0.11123 0.2558 0.0
C1592 C 0.35463 0.15694 0.28559 0.0
C1593 C 0.37072 0.09559 0.2576 0.0
C1594 C 0.3243 0.2242 0.27633 0.0
C1595 C 0.3327 0.20855 0.27623 0.0
C1596 C 0.32783 0.15507 0.25516 0.0
C1597 C 0.35839 0.12268 0.27224 0.0
C1598 C 0.34978 0.13989 0.27093 0.0
C1599 C 0.32358 0.18904 0.26964 0.0
C1600 C 0.33269 0.17209 0.26988 0.0
H1601 H 0.37382 0.09883 0.30655 0.0
H1602 H 0.35995 0.12552 0.30345 0.0
H1603 H 0.33193 0.12674 0.244 0.0
H1604 H 0.28335 0.19848 0.25863 0.0
H1605 H 0.29789 0.17144 0.2581 0.0
C1606 C 0.31006 0.10948 0.5197 0.0
C1607 C 0.31051 0.1261 0.51156 0.0
C1608 C 0.32477 0.10188 0.52266 0.0
C1609 C 0.36613 0.10185 0.50515 0.0
H1610 H 0.37662 0.07809 0.54948 0.0
C1611 C 0.42798 0.07252 0.51902 0.0
C1612 C 0.42604 0.05454 0.52484 0.0
C1613 C 0.41446 0.08223 0.51835 0.0
C1614 C 0.37379 0.08454 0.53693 0.0
H1615 H 0.32698 0.14809 0.50065 0.0
H1616 H 0.35265 0.1352 0.50628 0.0
H1617 H 0.3521 0.09343 0.54701 0.0
H1618 H 0.40852 0.03295 0.53506 0.0
H1619 H 0.38491 0.04963 0.5335 0.0
H1620 H 0.38777 0.09286 0.49503 0.0
C1621 C 0.34086 0.12777 0.51003 0.0
C1622 C 0.35972 0.09333 0.53551 0.0
C1623 C 0.32614 0.1353 0.507 0.0
C1624 C 0.41037 0.04664 0.53023 0.0
C1625 C 0.39689 0.05633 0.52958 0.0
C1626 C 0.38023 0.0931 0.50661 0.0
C1627 C 0.34029 0.11078 0.5176 0.0
C1628 C 0.35564 0.102 0.51954 0.0
C1629 C 0.39873 0.07421 0.52357 0.0
C1630 C 0.38416 0.08422 0.52245 0.0
H1631 H 0.2982 0.10198 0.52328 0.0
H1632 H 0.32378 0.08866 0.52831 0.0
H1633 H 0.36322 0.10807 0.49246 0.0
H1634 H 0.43984 0.07896 0.51467 0.0
H1635 H 0.41636 0.09607 0.51383 0.0
C1636 C 0.69239 0.60253 0.33099 0.0
C1637 C 0.678 0.59199 0.31705 0.0
C1638 C 0.70241 0.61953 0.32787 0.0
C1639 C 0.70302 0.65767 0.29842 0.0
H1640 H 0.75253 0.66405 0.31185 0.0
C1641 C 0.75257 0.71638 0.27568 0.0
C1642 C 0.76736 0.7255 0.28963 0.0
C1643 C 0.74082 0.70076 0.27918 0.0
C1644 C 0.73874 0.66262 0.30824 0.0
H1645 H 0.66262 0.59143 0.28906 0.0
H1646 H 0.68032 0.62105 0.28351 0.0
H1647 H 0.7335 0.63569 0.31773 0.0
H1648 H 0.78137 0.72589 0.31823 0.0
H1649 H 0.76089 0.69872 0.32441 0.0
H1650 H 0.70839 0.68464 0.28877 0.0
C1651 C 0.6837 0.61621 0.29697 0.0
C1652 C 0.72782 0.64636 0.31162 0.0
C1653 C 0.67361 0.59918 0.30012 0.0
C1654 C 0.77011 0.71899 0.3072 0.0
C1655 C 0.75842 0.70341 0.31069 0.0
C1656 C 0.71399 0.67398 0.295 0.0
C1657 C 0.69837 0.6264 0.31068 0.0
C1658 C 0.70983 0.64373 0.30687 0.0
C1659 C 0.74375 0.69396 0.29664 0.0
C1660 C 0.73196 0.67666 0.29999 0.0
H1661 H 0.69609 0.59753 0.34428 0.0
H1662 H 0.71343 0.62725 0.33891 0.0
H1663 H 0.68922 0.65613 0.29475 0.0
H1664 H 0.75031 0.72098 0.26189 0.0
H1665 H 0.72973 0.69365 0.26799 0.0
C1666 C 0.87064 0.47284 0.75691 0.0
C1667 C 0.8709 0.48683 0.77361 0.0
C1668 C 0.86215 0.45312 0.75506 0.0
C1669 C 0.83113 0.42053 0.77893 0.0
H1670 H 0.84616 0.37879 0.74879 0.0
C1671 C 0.80949 0.34059 0.78776 0.0
C1672 C 0.80447 0.3257 0.77098 0.0
C1673 C 0.81722 0.3597 0.78675 0.0
C1674 C 0.84168 0.39025 0.7572 0.0
H1675 H 0.8623 0.49019 0.80156 0.0
H1676 H 0.84854 0.45678 0.79877 0.0
H1677 H 0.86004 0.41246 0.74937 0.0
H1678 H 0.80416 0.31973 0.73984 0.0
H1679 H 0.81804 0.35301 0.73815 0.0
H1680 H 0.81318 0.39834 0.78721 0.0
C1681 C 0.85418 0.46073 0.78656 0.0
C1682 C 0.84966 0.40976 0.75749 0.0
C1683 C 0.86237 0.48025 0.78826 0.0
C1684 C 0.80776 0.33067 0.75311 0.0
C1685 C 0.81583 0.34982 0.75216 0.0
C1686 C 0.82342 0.40113 0.77889 0.0
C1687 C 0.85373 0.4466 0.76992 0.0
C1688 C 0.8447 0.42542 0.76856 0.0
C1689 C 0.82055 0.36476 0.76896 0.0
C1690 C 0.8286 0.38557 0.76817 0.0
H1691 H 0.87708 0.47706 0.74529 0.0
H1692 H 0.86215 0.44306 0.74185 0.0
H1693 H 0.82621 0.4317 0.78713 0.0
H1694 H 0.80722 0.33758 0.80183 0.0
H1695 H 0.82076 0.37056 0.80009 0.0
C1696 C 0.06736 0.84459 0.10286 0.0
C1697 C 0.05252 0.82958 0.09627 0.0
C1698 C 0.06977 0.86088 0.09411 0.0
C1699 C 0.0524 0.87982 0.05075 0.0
H1700 H 0.06773 0.92969 0.08602 0.0
C1701 C 0.03434 0.94932 0.0326 0.0
C1702 C 0.04693 0.96674 0.03787 0.0
C1703 C 0.03768 0.93246 0.03821 0.0
C1704 C 0.06366 0.91588 0.07593 0.0
H1705 H 0.02913 0.8195 0.07456 0.0
H1706 H 0.03312 0.84765 0.05972 0.0
H1707 H 0.06928 0.9002 0.09839 0.0
H1708 H 0.07308 0.97998 0.0529 0.0
H1709 H 0.07882 0.95048 0.06284 0.0
H1710 H 0.04602 0.89553 0.02853 0.0
C1711 C 0.04308 0.84696 0.07142 0.0
C1712 C 0.06461 0.89894 0.083 0.0
C1713 C 0.04072 0.83076 0.08007 0.0
C1714 C 0.06309 0.96681 0.04857 0.0
C1715 C 0.06636 0.94995 0.05437 0.0
C1716 C 0.05127 0.89672 0.04377 0.0
C1717 C 0.05742 0.86248 0.07856 0.0
C1718 C 0.05863 0.88063 0.07059 0.0
C1719 C 0.05364 0.93263 0.04937 0.0
C1720 C 0.05657 0.91491 0.05635 0.0
H1721 H 0.07666 0.84422 0.11537 0.0
H1722 H 0.08111 0.87241 0.09983 0.0
H1723 H 0.04806 0.86607 0.04062 0.0
H1724 H 0.02177 0.94873 0.02436 0.0
H1725 H 0.02754 0.9194 0.0343 0.0
C1726 C 0.93862 0.24266 0.87787 0.0
C1727 C 0.95355 0.24644 0.86953 0.0
C1728 C 0.92301 0.24586 0.86895 0.0
C1729 C 0.89967 0.24678 0.82114 0.0
H1730 H 0.87134 0.27535 0.84912 0.0
C1731 C 0.83963 0.26368 0.77955 0.0
C1732 C 0.82509 0.26389 0.78843 0.0
C1733 C 0.85533 0.26283 0.79028 0.0
C1734 C 0.87891 0.26707 0.84109 0.0
H1735 H 0.96371 0.25664 0.8453 0.0
H1736 H 0.93641 0.26177 0.82956 0.0
H1737 H 0.89847 0.27112 0.8664 0.0
H1738 H 0.81556 0.26362 0.81555 0.0
H1739 H 0.84281 0.2613 0.8343 0.0
H1740 H 0.8801 0.24192 0.79606 0.0
C1741 C 0.93685 0.25648 0.84308 0.0
C1742 C 0.89452 0.26475 0.85102 0.0
C1743 C 0.9525 0.25361 0.85216 0.0
C1744 C 0.82662 0.26362 0.80841 0.0
C1745 C 0.84231 0.26236 0.81913 0.0
C1746 C 0.88398 0.24878 0.81131 0.0
C1747 C 0.92191 0.25254 0.85131 0.0
C1748 C 0.90514 0.25476 0.84108 0.0
C1749 C 0.85686 0.26165 0.81013 0.0
C1750 C 0.87342 0.25917 0.82103 0.0
H1751 H 0.9389 0.23707 0.89117 0.0
H1752 H 0.91167 0.24258 0.87555 0.0
H1753 H 0.90743 0.2387 0.81316 0.0
H1754 H 0.83884 0.26406 0.76419 0.0
H1755 H 0.86625 0.263 0.78286 0.0
C1756 C 0.55133 0.22718 0.60767 0.0
C1757 C 0.53639 0.23431 0.60352 0.0
C1758 C 0.55171 0.20814 0.59951 0.0
C1759 C 0.52265 0.16053 0.57892 0.0
H1760 H 0.56217 0.14747 0.55852 0.0
C1761 C 0.51985 0.08344 0.53858 0.0
C1762 C 0.53452 0.07573 0.54193 0.0
C1763 C 0.52065 0.10303 0.54534 0.0
C1764 C 0.55111 0.15083 0.56437 0.0
H1765 H 0.51027 0.227 0.58711 0.0
H1766 H 0.51102 0.19401 0.57293 0.0
H1767 H 0.56266 0.18122 0.57189 0.0
H1768 H 0.56167 0.08269 0.55474 0.0
H1769 H 0.56299 0.11686 0.56692 0.0
H1770 H 0.51116 0.13027 0.57182 0.0
C1771 C 0.52236 0.20305 0.58266 0.0
C1772 C 0.55139 0.17018 0.572 0.0
C1773 C 0.52199 0.22205 0.59071 0.0
C1774 C 0.55014 0.08819 0.55184 0.0
C1775 C 0.55091 0.10781 0.55876 0.0
C1776 C 0.52241 0.14122 0.57145 0.0
C1777 C 0.53715 0.1958 0.58712 0.0
C1778 C 0.5371 0.17526 0.57924 0.0
C1779 C 0.5361 0.11544 0.5558 0.0
C1780 C 0.53658 0.13609 0.56394 0.0
H1781 H 0.56265 0.23618 0.61746 0.0
H1782 H 0.56326 0.20294 0.60333 0.0
H1783 H 0.51157 0.1639 0.58474 0.0
H1784 H 0.50767 0.07432 0.53076 0.0
H1785 H 0.50908 0.10844 0.54234 0.0
C1786 C 0.5622 0.74629 0.38199 0.0
C1787 C 0.55054 0.75729 0.37582 0.0
C1788 C 0.57797 0.74752 0.37531 0.0
C1789 C 0.59889 0.76178 0.33461 0.0
H1790 H 0.64128 0.76104 0.3679 0.0
C1791 C 0.66443 0.77791 0.30933 0.0
C1792 C 0.67641 0.76676 0.31406 0.0
C1793 C 0.64947 0.77672 0.3175 0.0
C1794 C 0.62952 0.76105 0.35834 0.0
H1795 H 0.54667 0.77869 0.35826 0.0
H1796 H 0.57407 0.78103 0.34694 0.0
H1797 H 0.61464 0.75912 0.38119 0.0
H1798 H 0.68203 0.74579 0.33145 0.0
H1799 H 0.65573 0.74343 0.34542 0.0
H1800 H 0.61365 0.76365 0.31176 0.0
C1801 C 0.57094 0.77114 0.35661 0.0
C1802 C 0.61423 0.75995 0.36597 0.0
C1803 C 0.55524 0.76989 0.36324 0.0
C1804 C 0.67304 0.75447 0.32733 0.0
C1805 C 0.65803 0.75327 0.33552 0.0
C1806 C 0.61413 0.76287 0.327 0.0
C1807 C 0.58243 0.75977 0.36229 0.0
C1808 C 0.59873 0.76046 0.35424 0.0
C1809 C 0.64598 0.76429 0.3306 0.0
C1810 C 0.6297 0.76267 0.33877 0.0
H1811 H 0.559 0.7364 0.39164 0.0
H1812 H 0.58642 0.73846 0.37991 0.0
H1813 H 0.58716 0.76176 0.32498 0.0
H1814 H 0.66641 0.78734 0.29897 0.0
H1815 H 0.64063 0.78563 0.31356 0.0
C1816 C 1.0016 0.23154 0.4045 0.0
C1817 C 0.00855 0.23587 0.38816 0.0
C1818 C 0.00921 0.22091 0.4165 0.0
C1819 C 0.03261 0.18355 0.41634 0.0
H1820 H 0.04091 0.20071 0.47255 0.0
C1821 C 0.04947 0.13359 0.46862 0.0
C1822 C 0.04012 0.13356 0.48401 0.0
C1823 C 0.04955 0.14787 0.45739 0.0
C1824 C 0.03864 0.19571 0.45688 0.0
H1825 H 0.02891 0.23255 0.37153 0.0
H1826 H 0.04205 0.21331 0.39249 0.0
H1827 H 0.03352 0.22268 0.45154 0.0
H1828 H 0.02418 0.14886 0.50029 0.0
H1829 H 0.02369 0.17314 0.48031 0.0
H1830 H 0.03655 0.15614 0.42162 0.0
C1831 C 0.03081 0.21844 0.39596 0.0
C1832 C 0.03454 0.2083 0.44492 0.0
C1833 C 0.02334 0.22943 0.38408 0.0
C1834 C 0.03127 0.14832 0.4883 0.0
C1835 C 0.03123 0.16244 0.47704 0.0
C1836 C 0.03651 0.17082 0.42833 0.0
C1837 C 0.0238 0.2142 0.41227 0.0
C1838 C 0.03103 0.20213 0.42461 0.0
C1839 C 0.04027 0.16232 0.46139 0.0
C1840 C 0.03903 0.17661 0.44873 0.0
H1841 H 0.99027 0.23642 0.40806 0.0
H1842 H 1.00348 0.21756 0.42889 0.0
H1843 H 0.02981 0.1785 0.40067 0.0
H1844 H 0.05634 0.12231 0.46495 0.0
H1845 H 0.05672 0.14751 0.44549 0.0
C1846 C 0.59888 0.26467 0.19284 0.0
C1847 C 0.58531 0.26247 0.20333 0.0
C1848 C 0.60947 0.25149 0.19197 0.0
C1849 C 0.62593 0.22474 0.22645 0.0
H1850 H 0.65962 0.22429 0.19215 0.0
C1851 C 0.69769 0.22163 0.25022 0.0
C1852 C 0.70792 0.23975 0.24965 0.0
C1853 C 0.68046 0.21626 0.24089 0.0
C1854 C 0.65017 0.22387 0.2017 0.0
H1855 H 0.57063 0.24368 0.21903 0.0
H1856 H 0.58915 0.22028 0.2174 0.0
H1857 H 0.63026 0.22598 0.17926 0.0
H1858 H 0.70844 0.26615 0.23846 0.0
H1859 H 0.67844 0.25654 0.22177 0.0
H1860 H 0.64619 0.22342 0.24903 0.0
C1861 C 0.59179 0.23236 0.21007 0.0
C1862 C 0.63339 0.2249 0.1944 0.0
C1863 C 0.58109 0.24562 0.21087 0.0
C1864 C 0.70079 0.2522 0.23927 0.0
C1865 C 0.68374 0.24663 0.22957 0.0
C1866 C 0.64261 0.22325 0.23362 0.0
C1867 C 0.60678 0.23591 0.20176 0.0
C1868 C 0.62148 0.22687 0.20704 0.0
C1869 C 0.67344 0.22869 0.2304 0.0
C1870 C 0.65507 0.22404 0.22157 0.0
H1871 H 0.60229 0.27755 0.18684 0.0
H1872 H 0.62084 0.25489 0.18547 0.0
H1873 H 0.61721 0.22627 0.2367 0.0
H1874 H 0.70292 0.21177 0.25815 0.0
H1875 H 0.67262 0.20247 0.24185 0.0
C1876 C 0.48106 0.83429 0.90804 0.0
C1877 C 0.49531 0.83108 0.89948 0.0
C1878 C 0.48224 0.85135 0.92141 0.0
C1879 C 0.50769 0.90149 0.93716 0.0
H1880 H 0.48787 0.90012 0.98409 0.0
C1881 C 0.51506 0.95427 0.0159 0.0
C1882 C 0.51563 0.97187 0.00957 0.0
C1883 C 0.50996 0.93673 1.00242 0.0
C1884 C 0.49349 0.90071 0.97107 0.0
H1885 H 0.52203 0.84328 0.89842 0.0
H1886 H 0.5241 0.87289 0.92187 0.0
H1887 H 0.48505 0.87008 0.96067 0.0
H1888 H 0.51031 0.98492 0.98448 0.0
H1889 H 0.50082 0.95443 0.96116 0.0
H1890 H 0.51669 0.93191 0.94778 0.0
C1891 C 0.51194 0.86233 0.91801 0.0
C1892 C 0.49174 0.88355 0.95757 0.0
C1893 C 0.51077 0.8453 0.90464 0.0
C1894 C 0.50994 0.9716 0.9898 0.0
C1895 C 0.50471 0.95412 0.97639 0.0
C1896 C 0.50946 0.91859 0.95062 0.0
C1897 C 0.49768 0.86557 0.9265 0.0
C1898 C 0.49896 0.88377 0.94056 0.0
C1899 C 0.50527 0.93655 0.98244 0.0
C1900 C 0.50245 0.91839 0.96777 0.0
H1901 H 0.46895 0.82366 0.9044 0.0
H1902 H 0.47098 0.85352 0.92756 0.0
H1903 H 0.5132 0.90217 0.92407 0.0
H1904 H 0.51942 0.9541 0.03107 0.0
H1905 H 0.51062 0.92344 0.00753 0.0
C1906 C 0.96774 0.7328 0.69243 0.0
C1907 C 0.98367 0.73111 0.70214 0.0
C1908 C 0.9536 0.73165 0.70189 0.0
C1909 C 0.93671 0.72266 0.74637 0.0
H1910 H 0.92349 0.77159 0.74459 0.0
C1911 C 0.88181 0.75137 0.77981 0.0
C1912 C 0.8861 0.77115 0.78861 0.0
C1913 C 0.8939 0.74281 0.77141 0.0
C1914 C 0.92712 0.75792 0.74528 0.0
H1915 H 0.9968 0.72447 0.72834 0.0
H1916 H 0.97214 0.72287 0.74502 0.0
H1917 H 0.94214 0.76082 0.72294 0.0
H1918 H 0.90678 0.79687 0.79747 0.0
H1919 H 0.92783 0.78194 0.78254 0.0
H1920 H 0.9216 0.7201 0.76904 0.0
C1921 C 0.97056 0.72498 0.73009 0.0
C1922 C 0.93754 0.75159 0.73268 0.0
C1923 C 0.9847 0.72602 0.72057 0.0
C1924 C 0.90308 0.7817 0.79049 0.0
C1925 C 0.9151 0.77318 0.78202 0.0
C1926 C 0.926 0.72893 0.7589 0.0
C1927 C 0.95524 0.72892 0.72122 0.0
C1928 C 0.94255 0.734 0.73319 0.0
C1929 C 0.91033 0.75396 0.77165 0.0
C1930 C 0.92144 0.74679 0.75863 0.0
H1931 H 0.96646 0.73647 0.67813 0.0
H1932 H 0.94179 0.73441 0.69466 0.0
H1933 H 0.94052 0.70909 0.74706 0.0
H1934 H 0.86876 0.74292 0.77801 0.0
H1935 H 0.88997 0.72798 0.76339 0.0
C1936 C 0.10572 0.04712 0.85788 0.0
C1937 C 0.12175 0.04294 0.85553 0.0
C1938 C 0.09922 0.0449 0.87487 0.0
C1939 C 0.08384 0.02248 0.90328 0.0
H1940 H 0.10981 0.0393 0.95597 0.0
C1941 C 0.05646 0.99715 0.96756 0.0
C1942 C 0.05704 0.01204 0.98336 0.0
C1943 C 0.06629 1.00059 0.95318 0.0
C1944 C 0.10243 0.03452 0.94132 0.0
H1945 H 0.14402 0.03436 0.86965 0.0
H1946 H 0.1327 0.03072 0.8994 0.0
H1947 H 0.12313 0.04812 0.92861 0.0
H1948 H 0.06883 0.04191 0.99711 0.0
H1949 H 0.08602 0.04791 0.97205 0.0
H1950 H 0.06309 0.00911 0.91584 0.0
C1951 C 0.12518 0.03565 0.88807 0.0
C1952 C 0.11006 0.0395 0.92571 0.0
C1953 C 0.13164 0.03773 0.87101 0.0
C1954 C 0.06823 0.03013 0.98511 0.0
C1955 C 0.07811 0.03355 0.97079 0.0
C1956 C 0.07628 0.01742 0.91882 0.0
C1957 C 0.10867 0.0386 0.88987 0.0
C1958 C 0.10076 0.03365 0.90657 0.0
C1959 C 0.07688 0.01898 0.95443 0.0
C1960 C 0.08546 0.02344 0.93799 0.0
H1961 H 0.09781 0.05117 0.84623 0.0
H1962 H 0.08655 0.04754 0.87605 0.0
H1963 H 0.07648 0.01751 0.88863 0.0
H1964 H 0.04797 0.98306 0.96595 0.0
H1965 H 0.0653 0.98902 0.94082 0.0
C1966 C 0.75207 0.33103 0.54716 0.0
C1967 C 0.76414 0.34704 0.54481 0.0
C1968 C 0.75777 0.31605 0.55461 0.0
C1969 C 0.77475 0.28343 0.56506 0.0
H1970 H 0.80624 0.3047 0.6141 0.0
C1971 C 0.77345 0.24955 0.63092 0.0
C1972 C 0.78779 0.2543 0.64604 0.0
C1973 C 0.77466 0.25587 0.61353 0.0
C1974 C 0.79796 0.29833 0.60016 0.0
H1975 H 0.79156 0.35938 0.54712 0.0
H1976 H 0.8012 0.33351 0.55993 0.0
H1977 H 0.79942 0.326 0.59256 0.0
H1978 H 0.81506 0.26754 0.65417 0.0
H1979 H 0.81727 0.27855 0.6235 0.0
H1980 H 0.7728 0.25579 0.57313 0.0
C1981 C 0.78747 0.33255 0.55632 0.0
C1982 C 0.79392 0.31061 0.58787 0.0
C1983 C 0.78185 0.3474 0.54904 0.0
C1984 C 0.80377 0.26394 0.6428 0.0
C1985 C 0.80502 0.27019 0.62527 0.0
C1986 C 0.77896 0.27104 0.57729 0.0
C1987 C 0.77554 0.31703 0.55966 0.0
C1988 C 0.78176 0.30337 0.57065 0.0
C1989 C 0.79025 0.26707 0.6109 0.0
C1990 C 0.78994 0.27855 0.5954 0.0
H1991 H 0.73837 0.33034 0.5438 0.0
H1992 H 0.74835 0.3042 0.55726 0.0
H1993 H 0.76555 0.27756 0.55165 0.0
H1994 H 0.76089 0.24237 0.63307 0.0
H1995 H 0.76294 0.25348 0.60296 0.0
C1996 C 0.45272 0.02883 0.32563 0.0
C1997 C 0.43775 0.03635 0.32436 0.0
C1998 C 0.46134 0.0265 0.34362 0.0
C1999 C 0.46376 0.04002 0.39887 0.0
H2000 H 0.49214 1.00223 0.39897 0.0
C2001 C 0.49831 0.02234 0.47164 0.0
C2002 C 0.51522 0.01955 0.47181 0.0
C2003 C 0.48803 0.02403 0.4542 0.0
C2004 C 0.48442 0.01301 0.39936 0.0
H2005 H 0.42019 0.04714 0.34171 0.0
H2006 H 0.43461 0.0424 0.37278 0.0
H2007 H 0.47639 0.00569 0.36839 0.0
H2008 H 0.53432 0.01629 0.45345 0.0
H2009 H 0.51665 0.01886 0.42351 0.0
H2010 H 0.47191 0.04711 0.4301 0.0
C2011 C 0.44013 0.0387 0.35992 0.0
C2012 C 0.47528 0.01511 0.38155 0.0
C2013 C 0.43162 0.04128 0.34188 0.0
C2014 C 0.52138 0.01831 0.45401 0.0
C2015 C 0.51112 0.0197 0.43667 0.0
C2016 C 0.47287 0.03782 0.41675 0.0
C2017 C 0.45529 0.03133 0.36128 0.0
C2018 C 0.46479 0.02877 0.38076 0.0
C2019 C 0.49425 0.02267 0.43631 0.0
C2020 C 0.48354 0.0244 0.41735 0.0
H2021 H 0.45807 0.02503 0.31265 0.0
H2022 H 0.47305 0.02123 0.34354 0.0
H2023 H 0.45624 0.05098 0.39935 0.0
H2024 H 0.49312 0.02357 0.48502 0.0
H2025 H 0.47514 0.02622 0.45471 0.0
C2026 C 0.76802 0.68415 0.06219 0.0
C2027 C 0.78351 0.68839 0.05497 0.0
C2028 C 0.76708 0.69218 0.08138 0.0
C2029 C 0.79467 0.71243 0.12935 0.0
H2030 H 0.75574 0.73314 0.14251 0.0
C2031 C 0.79583 0.75323 0.20689 0.0
C2032 C 0.78053 0.75057 0.2146 0.0
C2033 C 0.79569 0.74601 0.18725 0.0
C2034 C 0.76661 0.72718 0.13915 0.0
H2035 H 0.81006 0.70477 0.06231 0.0
H2036 H 0.80836 0.7187 0.09561 0.0
H2037 H 0.75626 0.71982 0.10853 0.0
H2038 H 0.75301 0.7383 0.20762 0.0
H2039 H 0.75281 0.72525 0.17342 0.0
H2040 H 0.80495 0.71937 0.15984 0.0
C2041 C 0.79699 0.70903 0.08649 0.0
C2042 C 0.76691 0.71959 0.11964 0.0
C2043 C 0.79791 0.70113 0.06731 0.0
C2044 C 0.76503 0.74066 0.20214 0.0
C2045 C 0.76491 0.73326 0.18248 0.0
C2046 C 0.79432 0.71985 0.14882 0.0
C2047 C 0.78163 0.70451 0.09382 0.0
C2048 C 0.78102 0.71227 0.11452 0.0
C2049 C 0.78027 0.73574 0.17479 0.0
C2050 C 0.78035 0.72748 0.154 0.0
H2051 H 0.75667 0.6744 0.05312 0.0
H2052 H 0.75508 0.68833 0.08664 0.0
H2053 H 0.80558 0.70656 0.12594 0.0
H2054 H 0.80799 0.76095 0.21601 0.0
H2055 H 0.80772 0.74861 0.18182 0.0
C2056 C 0.11257 0.04088 0.73424 0.0
C2057 C 0.11211 0.02317 0.7404 0.0
C2058 C 0.10563 0.04119 0.71507 0.0
C2059 C 0.0752 0.01114 0.67191 0.0
H2060 H 0.0998 0.04638 0.64385 0.0
C2061 C 0.05697 1.0043 0.58908 0.0
C2062 C 0.05681 0.02148 0.58209 0.0
C2063 C 0.06369 1.00498 0.60854 0.0
C2064 C 0.0927 0.03661 0.65158 0.0
H2065 H 0.10413 0.99193 0.73124 0.0
H2066 H 0.09225 0.99248 0.69778 0.0
H2067 H 0.11149 0.04681 0.67773 0.0
H2068 H 0.06371 0.0529 0.59006 0.0
H2069 H 0.0753 0.05402 0.62406 0.0
H2070 H 0.05648 1.00085 0.64573 0.0
C2071 C 0.09772 0.00613 0.70783 0.0
C2072 C 0.09937 0.03687 0.67097 0.0
C2073 C 0.10463 0.00581 0.72698 0.0
C2074 C 0.06364 0.03937 0.59495 0.0
C2075 C 0.07037 0.04004 0.61442 0.0
C2076 C 0.06855 0.01086 0.65253 0.0
C2077 C 0.0981 0.02381 0.70168 0.0
C2078 C 0.09075 0.02403 0.6813 0.0
C2079 C 0.07039 0.02285 0.62142 0.0
C2080 C 0.07729 0.0235 0.64213 0.0
H2081 H 0.11821 0.05451 0.74425 0.0
H2082 H 0.10596 0.05505 0.71081 0.0
H2083 H 0.06809 1.00132 0.67959 0.0
H2084 H 0.05187 0.99027 0.57957 0.0
H2085 H 0.06378 0.99149 0.61346 0.0
C2086 C 0.76256 0.36797 0.45587 0.0
C2087 C 0.7733 0.36638 0.47265 0.0
C2088 C 0.76187 0.35588 0.43807 0.0
C2089 C 0.77042 0.30895 0.41741 0.0
H2090 H 0.76524 0.32797 0.36909 0.0
C2091 C 0.74933 0.27713 0.32954 0.0
C2092 C 0.75988 0.26381 0.32721 0.0
C2093 C 0.75135 0.28982 0.34737 0.0
C2094 C 0.76652 0.32243 0.38246 0.0
H2095 H 0.79232 0.35159 0.48407 0.0
H2096 H 0.79151 0.33064 0.45269 0.0
H2097 H 0.76915 0.3504 0.40011 0.0
H2098 H 0.78051 0.25286 0.34155 0.0
H2099 H 0.78396 0.2749 0.37274 0.0
H2100 H 0.76784 0.28099 0.39968 0.0
C2101 C 0.78331 0.34095 0.45338 0.0
C2102 C 0.76877 0.33526 0.40022 0.0
C2103 C 0.78394 0.35305 0.47125 0.0
C2104 C 0.77219 0.26301 0.34303 0.0
C2105 C 0.77414 0.27558 0.36087 0.0
C2106 C 0.76824 0.29614 0.39964 0.0
C2107 C 0.77209 0.34208 0.43666 0.0
C2108 C 0.77063 0.32864 0.41788 0.0
C2109 C 0.76382 0.28918 0.36318 0.0
C2110 C 0.76617 0.30275 0.38201 0.0
H2111 H 0.75463 0.37854 0.45653 0.0
H2112 H 0.75301 0.35705 0.42552 0.0
H2113 H 0.77152 0.30334 0.43073 0.0
H2114 H 0.73948 0.27767 0.31765 0.0
H2115 H 0.74304 0.29997 0.34887 0.0
C2116 C 0.4368 0.01175 0.20078 0.0
C2117 C 0.4339 0.02896 0.21138 0.0
C2118 C 0.44445 0.01157 0.18392 0.0
C2119 C 0.47344 0.04292 0.15881 0.0
H2120 H 0.4577 1.0001 0.11457 0.0
C2121 C 0.51404 0.02948 0.09652 0.0
C2122 C 0.50542 0.02338 0.07696 0.0
C2123 C 0.50492 0.03066 0.11227 0.0
C2124 C 0.46231 0.01227 0.1267 0.0
H2125 H 0.43718 0.05969 0.21195 0.0
H2126 H 0.45082 0.0595 0.18276 0.0
H2127 H 0.44255 1.00148 0.14236 0.0
H2128 H 0.47998 0.01363 0.05913 0.0
H2129 H 0.46414 0.01518 0.08648 0.0
H2130 H 0.49339 0.05352 0.14328 0.0
C2131 C 0.44695 0.04596 0.1875 0.0
C2132 C 0.45362 0.013 0.14285 0.0
C2133 C 0.43892 0.04607 0.20423 0.0
C2134 C 0.48722 0.01833 0.07385 0.0
C2135 C 0.47808 0.01918 0.08967 0.0
C2136 C 0.48232 0.042 0.14281 0.0
C2137 C 0.44994 0.02868 0.17701 0.0
C2138 C 0.45898 0.02833 0.1593 0.0
C2139 C 0.48673 0.0255 0.10925 0.0
C2140 C 0.47697 0.02664 0.12638 0.0
H2141 H 0.43331 0.99823 0.20569 0.0
H2142 H 0.44654 0.99795 0.17662 0.0
H2143 H 0.47819 0.05493 0.17107 0.0
H2144 H 0.52798 0.03363 0.09974 0.0
H2145 H 0.51222 0.03542 0.12695 0.0
C2146 C 0.75661 0.68318 0.94304 0.0
C2147 C 0.7693 0.69242 0.95945 0.0
C2148 C 0.75436 0.69198 0.92686 0.0
C2149 C 0.76247 0.73817 0.91013 0.0
H2150 H 0.76823 0.70771 0.86179 0.0
C2151 C 0.77892 0.77369 0.84561 0.0
C2152 C 0.77411 0.7628 0.82652 0.0
C2153 C 0.77588 0.76506 0.86152 0.0
C2154 C 0.76618 0.71638 0.87496 0.0
H2155 H 0.78885 0.71853 0.97223 0.0
H2156 H 0.78446 0.73415 0.94429 0.0
H2157 H 0.76635 0.693 0.89028 0.0
H2158 H 0.76181 0.73449 0.80903 0.0
H2159 H 0.75551 0.71964 0.8366 0.0
H2160 H 0.76197 0.76147 0.89495 0.0
C2161 C 0.77641 0.72004 0.94385 0.0
C2162 C 0.76518 0.70789 0.89134 0.0
C2163 C 0.77892 0.7111 0.95983 0.0
C2164 C 0.76562 0.74326 0.82359 0.0
C2165 C 0.76223 0.73469 0.83948 0.0
C2166 C 0.76311 0.74656 0.89364 0.0
C2167 C 0.76447 0.71034 0.92699 0.0
C2168 C 0.76362 0.7188 0.90917 0.0
C2169 C 0.76761 0.74537 0.85875 0.0
C2170 C 0.76534 0.73592 0.87588 0.0
H2171 H 0.74916 0.66868 0.94222 0.0
H2172 H 0.74502 0.68423 0.91406 0.0
H2173 H 0.76116 0.74686 0.92368 0.0
H2174 H 0.78561 0.78876 0.84835 0.0
H2175 H 0.78058 0.77378 0.87601 0.0
C2176 C 0.88499 0.17587 0.02752 0.0
C2177 C 0.87387 0.16746 0.03898 0.0
C2178 C 0.90036 0.16993 0.02584 0.0
C2179 C 0.9188 0.13878 0.01103 0.0
H2180 H 0.94617 0.12196 0.05181 0.0
C2181 C 0.94149 0.06801 0.99918 0.0
C2182 C 0.95703 0.06683 0.01019 0.0
C2183 C 0.93576 0.08521 1.00188 0.0
C2184 C 0.93898 0.1269 0.04023 0.0
H2185 H 0.87071 0.148 0.05924 0.0
H2186 H 0.89751 0.1378 0.05653 0.0
H2187 H 0.92931 0.14574 0.06056 0.0
H2188 H 0.97942 0.08294 0.03152 0.0
H2189 H 0.96942 0.11304 0.03619 0.0
H2190 H 0.9279 0.1193 0.99071 0.0
C2191 C 0.89447 0.14886 0.04876 0.0
C2192 C 0.92925 0.14042 0.04527 0.0
C2193 C 0.87907 0.15458 0.05023 0.0
C2194 C 0.96718 0.08338 0.02318 0.0
C2195 C 0.96151 0.1006 0.0258 0.0
C2196 C 0.92856 0.12527 0.00598 0.0
C2197 C 0.90486 0.1558 0.03587 0.0
C2198 C 0.91852 0.14585 0.03073 0.0
C2199 C 0.94554 0.10153 0.01554 0.0
C2200 C 0.93816 0.11862 0.02056 0.0
H2201 H 0.88119 0.18581 0.01867 0.0
H2202 H 0.90823 0.17554 0.01589 0.0
H2203 H 0.91052 0.14257 0.9995 0.0
H2204 H 0.93343 0.05542 0.98913 0.0
H2205 H 0.92326 0.0854 0.99398 0.0
C2206 C 0.36892 0.41665 0.05336 0.0
C2207 C 0.35462 0.42398 0.04681 0.0
C2208 C 0.38548 0.42508 0.05076 0.0
C2209 C 0.41809 0.44016 0.03489 0.0
H2210 H 0.43131 0.49626 0.04649 0.0
C2211 C 0.48305 0.48424 0.02155 0.0
C2212 C 0.49144 0.50052 0.03605 0.0
C2213 C 0.46651 0.47397 0.02242 0.0
C2214 C 0.42787 0.48057 0.04328 0.0
H2215 H 0.34658 0.44578 0.03207 0.0
H2216 H 0.37545 0.4605 0.02758 0.0
H2217 H 0.40217 0.48006 0.04839 0.0
H2218 H 0.48934 0.51849 0.06305 0.0
H2219 H 0.46061 0.50069 0.06457 0.0
H2220 H 0.44395 0.44076 0.03002 0.0
C2221 C 0.37385 0.44827 0.03483 0.0
C2222 C 0.41108 0.47128 0.04415 0.0
C2223 C 0.35728 0.43976 0.03731 0.0
C2224 C 0.48317 0.50607 0.05161 0.0
C2225 C 0.46664 0.49593 0.05241 0.0
C2226 C 0.43489 0.44948 0.03387 0.0
C2227 C 0.3882 0.44116 0.04169 0.0
C2228 C 0.40597 0.45095 0.04008 0.0
C2229 C 0.458 0.4799 0.03772 0.0
C2230 C 0.44003 0.46982 0.03822 0.0
H2231 H 0.36742 0.40464 0.06089 0.0
H2232 H 0.39624 0.41936 0.05641 0.0
H2233 H 0.41455 0.42448 0.03152 0.0
H2234 H 0.48909 0.47967 0.00934 0.0
H2235 H 0.46018 0.46176 0.01081 0.0
C2236 C 0.36856 0.54125 0.75011 0.0
C2237 C 0.38495 0.5421 0.74512 0.0
C2238 C 0.35904 0.5546 0.7453 0.0
C2239 C 0.36593 0.60385 0.74573 0.0
H2240 H 0.31914 0.59478 0.7178 0.0
C2241 C 0.32931 0.66499 0.75078 0.0
C2242 C 0.31164 0.65984 0.75148 0.0
C2243 C 0.33836 0.65079 0.74552 0.0
C2244 C 0.33214 0.59756 0.72587 0.0
H2245 H 0.40404 0.55688 0.73055 0.0
H2246 H 0.38754 0.5808 0.72278 0.0
H2247 H 0.33422 0.56832 0.71607 0.0
H2248 H 0.28955 0.63557 0.74631 0.0
H2249 H 0.30552 0.61095 0.7391 0.0
H2250 H 0.36362 0.63238 0.75711 0.0
C2251 C 0.38198 0.5695 0.72997 0.0
C2252 C 0.34078 0.58246 0.72461 0.0
C2253 C 0.39132 0.55582 0.73434 0.0
C2254 C 0.30323 0.64015 0.74649 0.0
C2255 C 0.31237 0.62595 0.74183 0.0
C2256 C 0.35716 0.61879 0.74745 0.0
C2257 C 0.36599 0.5692 0.73583 0.0
C2258 C 0.35764 0.5855 0.73471 0.0
C2259 C 0.33009 0.63104 0.74139 0.0
C2260 C 0.34002 0.61577 0.73781 0.0
H2261 H 0.36344 0.53081 0.75848 0.0
H2262 H 0.34678 0.55433 0.7501 0.0
H2263 H 0.37889 0.60633 0.75389 0.0
H2264 H 0.33634 0.67995 0.75468 0.0
H2265 H 0.3519 0.65536 0.74495 0.0
C2266 C 0.26133 0.64188 0.52627 0.0
C2267 C 0.27297 0.63198 0.51827 0.0
C2268 C 0.24523 0.63173 0.52831 0.0
C2269 C 0.21384 0.58499 0.51087 0.0
H2270 H 0.19693 0.60005 0.55863 0.0
C2271 C 0.14463 0.5544 0.52114 0.0
C2272 C 0.14227 0.55061 0.53959 0.0
C2273 C 0.16074 0.56368 0.51825 0.0
C2274 C 0.20155 0.59554 0.54529 0.0
H2275 H 0.27681 0.60372 0.50591 0.0
H2276 H 0.2488 0.58598 0.50974 0.0
H2277 H 0.22472 0.61759 0.55404 0.0
H2278 H 0.15499 0.55329 0.5694 0.0
H2279 H 0.18325 0.56893 0.56419 0.0
H2280 H 0.19086 0.5626 0.50235 0.0
C2281 C 0.25202 0.60161 0.51419 0.0
C2282 C 0.21736 0.60576 0.54255 0.0
C2283 C 0.26811 0.61177 0.51209 0.0
C2284 C 0.15644 0.55585 0.55497 0.0
C2285 C 0.17257 0.56505 0.55205 0.0
C2286 C 0.19806 0.57471 0.51365 0.0
C2287 C 0.24047 0.61147 0.52245 0.0
C2288 C 0.22365 0.60063 0.52529 0.0
C2289 C 0.17484 0.56926 0.53373 0.0
C2290 C 0.19174 0.57989 0.53088 0.0
H2291 H 0.26468 0.65747 0.5311 0.0
H2292 H 0.2365 0.63976 0.53445 0.0
H2293 H 0.21828 0.5808 0.49733 0.0
H2294 H 0.134 0.55031 0.50894 0.0
H2295 H 0.16204 0.56688 0.504 0.0
C2296 C 0.69679 0.94681 0.81155 0.0
C2297 C 0.68917 0.95379 0.79561 0.0
C2298 C 0.70407 0.93036 0.809 0.0
C2299 C 0.72279 0.89851 0.77377 0.0
H2300 H 0.71611 0.86296 0.80923 0.0
C2301 C 0.76306 0.83815 0.77905 0.0
C2302 C 0.75493 0.81978 0.78198 0.0
C2303 C 0.75462 0.85379 0.77984 0.0
C2304 C 0.71814 0.87259 0.79907 0.0
H2305 H 0.68374 0.94802 0.76405 0.0
H2306 H 0.69695 0.91965 0.75954 0.0
H2307 H 0.70246 0.89067 0.81172 0.0
H2308 H 0.73108 0.80408 0.78816 0.0
H2309 H 0.7166 0.83129 0.79004 0.0
H2310 H 0.73873 0.88056 0.76134 0.0
C2311 C 0.6971 0.92706 0.77423 0.0
C2312 C 0.71034 0.88876 0.8006 0.0
C2313 C 0.68942 0.94344 0.77681 0.0
C2314 C 0.73795 0.81784 0.78586 0.0
C2315 C 0.7296 0.83363 0.78701 0.0
C2316 C 0.73087 0.88251 0.77247 0.0
C2317 C 0.70446 0.92002 0.79032 0.0
C2318 C 0.71247 0.90216 0.78803 0.0
C2319 C 0.7377 0.85199 0.78392 0.0
C2320 C 0.72876 0.86914 0.78509 0.0
H2321 H 0.69695 0.95395 0.82635 0.0
H2322 H 0.70965 0.92588 0.82188 0.0
H2323 H 0.72499 0.90831 0.76381 0.0
H2324 H 0.77603 0.84047 0.77593 0.0
H2325 H 0.76156 0.86751 0.77753 0.0
C2326 C 0.76158 0.94803 0.5569 0.0
C2327 C 0.76264 0.92882 0.55023 0.0
C2328 C 0.74595 0.95372 0.55359 0.0
C2329 C 0.70291 0.94064 0.52231 0.0
H2330 H 0.69205 0.97622 0.56394 0.0
C2331 C 0.6378 0.96538 0.51705 0.0
C2332 C 0.63849 0.98484 0.52523 0.0
C2333 C 0.65248 0.95762 0.51962 0.0
C2334 C 0.69494 0.96647 0.55205 0.0
H2335 H 0.74798 0.90049 0.53465 0.0
H2336 H 0.72052 0.91047 0.52891 0.0
H2337 H 0.7182 0.96419 0.56938 0.0
H2338 H 0.65534 0.01129 0.5426 0.0
H2339 H 0.68087 0.99804 0.54645 0.0
H2340 H 0.67964 0.94311 0.50493 0.0
C2341 C 0.73191 0.92115 0.53664 0.0
C2342 C 0.70996 0.95953 0.55519 0.0
C2343 C 0.74762 0.91541 0.54002 0.0
C2344 C 0.6543 0.99635 0.5358 0.0
C2345 C 0.66894 0.98863 0.5383 0.0
C2346 C 0.68785 0.94765 0.51913 0.0
C2347 C 0.73088 0.94038 0.5435 0.0
C2348 C 0.71428 0.94672 0.54031 0.0
C2349 C 0.66821 0.96911 0.53045 0.0
C2350 C 0.68379 0.96087 0.5339 0.0
H2351 H 0.77287 0.9588 0.56474 0.0
H2352 H 0.74575 0.96872 0.55878 0.0
H2353 H 0.70589 0.93091 0.51048 0.0
H2354 H 0.6259 0.95611 0.50867 0.0
H2355 H 0.65139 0.9425 0.51345 0.0
C2356 C 0.38398 0.4461 0.74055 0.0
C2357 C 0.39157 0.45591 0.75963 0.0
C2358 C 0.37367 0.42731 0.73731 0.0
C2359 C 0.36499 0.38427 0.75913 0.0
H2360 H 0.31717 0.37702 0.73517 0.0
C2361 C 0.31208 0.32639 0.77521 0.0
C2362 C 0.29775 0.31726 0.76068 0.0
C2363 C 0.32447 0.3415 0.77199 0.0
C2364 C 0.33055 0.37857 0.7415 0.0
H2365 H 0.39507 0.45359 0.79008 0.0
H2366 H 0.37759 0.42082 0.78437 0.0
H2367 H 0.33787 0.40653 0.73426 0.0
H2368 H 0.2851 0.31644 0.73134 0.0
H2369 H 0.30694 0.34277 0.72549 0.0
H2370 H 0.35781 0.35655 0.76661 0.0
C2371 C 0.37939 0.4276 0.77197 0.0
C2372 C 0.34238 0.39549 0.74097 0.0
C2373 C 0.3893 0.44639 0.77523 0.0
C2374 C 0.29604 0.32337 0.74279 0.0
C2375 C 0.30851 0.33845 0.73949 0.0
C2376 C 0.35325 0.36728 0.75945 0.0
C2377 C 0.37127 0.41798 0.75305 0.0
C2378 C 0.35957 0.39873 0.75032 0.0
C2379 C 0.32286 0.34776 0.7541 0.0
C2380 C 0.33575 0.3645 0.75123 0.0
H2381 H 0.38549 0.4532 0.72831 0.0
H2382 H 0.36749 0.42013 0.72259 0.0
H2383 H 0.37823 0.38638 0.76628 0.0
H2384 H 0.31356 0.32212 0.78925 0.0
H2385 H 0.33508 0.34859 0.78377 0.0
C2386 C 0.20065 0.56987 0.31764 0.0
C2387 C 0.18997 0.55621 0.3018 0.0
C2388 C 0.2082 0.58877 0.31569 0.0
C2389 C 0.20669 0.62448 0.28119 0.0
H2390 H 0.24823 0.65333 0.31678 0.0
C2391 C 0.24613 0.69858 0.26992 0.0
C2392 C 0.25339 0.71343 0.28642 0.0
C2393 C 0.23827 0.67976 0.27181 0.0
C2394 C 0.23653 0.64564 0.30678 0.0
H2395 H 0.17926 0.55232 0.27118 0.0
H2396 H 0.19287 0.58468 0.26748 0.0
H2397 H 0.23557 0.62049 0.31952 0.0
H2398 H 0.25794 0.71958 0.318 0.0
H2399 H 0.24449 0.68683 0.32131 0.0
H2400 H 0.20811 0.64964 0.26814 0.0
C2401 C 0.1951 0.58111 0.28176 0.0
C2402 C 0.22909 0.62656 0.30838 0.0
C2403 C 0.18732 0.56224 0.28381 0.0
C2404 C 0.25251 0.70869 0.30491 0.0
C2405 C 0.24485 0.68976 0.3068 0.0
C2406 C 0.21429 0.64345 0.27942 0.0
C2407 C 0.20568 0.59492 0.29769 0.0
C2408 C 0.21391 0.61548 0.2957 0.0
C2409 C 0.23754 0.67489 0.29028 0.0
C2410 C 0.22934 0.65448 0.29222 0.0
H2411 H 0.20297 0.56609 0.33184 0.0
H2412 H 0.21577 0.59863 0.32861 0.0
H2413 H 0.1949 0.61705 0.27125 0.0
H2414 H 0.24648 0.70147 0.2554 0.0
H2415 H 0.23303 0.66888 0.25867 0.0
C2416 C 0.51883 0.69483 0.44562 0.0
C2417 C 0.50218 0.69846 0.44402 0.0
C2418 C 0.52305 0.68048 0.4555 0.0
C2419 C 0.50665 0.64859 0.48923 0.0
H2420 H 0.53803 0.61836 0.47008 0.0
C2421 C 0.51349 0.57549 0.51085 0.0
C2422 C 0.53039 0.57297 0.51548 0.0
C2423 C 0.51046 0.59162 0.50332 0.0
C2424 C 0.52933 0.62678 0.47568 0.0
H2425 H 0.47689 0.68965 0.45154 0.0
H2426 H 0.48394 0.66449 0.46783 0.0
H2427 H 0.5323 0.64498 0.45475 0.0
H2428 H 0.55735 0.5855 0.51588 0.0
H2429 H 0.55199 0.61341 0.50262 0.0
H2430 H 0.50325 0.62977 0.50967 0.0
C2431 C 0.49404 0.67303 0.46217 0.0
C2432 C 0.52611 0.64216 0.46697 0.0
C2433 C 0.48993 0.68749 0.45263 0.0
C2434 C 0.54417 0.58703 0.51262 0.0
C2435 C 0.54112 0.60296 0.50485 0.0
C2436 C 0.50966 0.63301 0.4977 0.0
C2437 C 0.51064 0.66924 0.46377 0.0
C2438 C 0.51467 0.65329 0.47357 0.0
C2439 C 0.52424 0.60536 0.49997 0.0
C2440 C 0.52104 0.62195 0.49103 0.0
H2441 H 0.52859 0.70299 0.43919 0.0
H2442 H 0.53606 0.67826 0.45665 0.0
H2443 H 0.49807 0.65699 0.49509 0.0
H2444 H 0.50258 0.56489 0.51279 0.0
H2445 H 0.49732 0.59308 0.49959 0.0
C2446 C 0.61515 0.28349 0.66951 0.0
C2447 C 0.60958 0.30023 0.67682 0.0
C2448 C 0.63127 0.28067 0.67746 0.0
C2449 C 0.67369 0.3071 0.70731 0.0
H2450 H 0.67691 0.25731 0.72008 0.0
C2451 C 0.72982 0.29905 0.76291 0.0
C2452 C 0.73648 0.28234 0.75993 0.0
C2453 C 0.71512 0.30052 0.75067 0.0
C2454 C 0.67634 0.27122 0.71634 0.0
H2455 H 0.61682 0.32728 0.69798 0.0
H2456 H 0.64473 0.32241 0.7117 0.0
H2457 H 0.64988 0.26123 0.7023 0.0
H2458 H 0.73302 0.25403 0.74166 0.0
H2459 H 0.70726 0.25662 0.71998 0.0
H2460 H 0.7 0.31721 0.72148 0.0
C2461 C 0.63675 0.31148 0.69977 0.0
C2462 C 0.66081 0.27347 0.70614 0.0
C2463 C 0.62066 0.31422 0.69195 0.0
C2464 C 0.72819 0.26711 0.74427 0.0
C2465 C 0.71337 0.26856 0.73195 0.0
C2466 C 0.68917 0.30484 0.71743 0.0
C2467 C 0.64225 0.29461 0.69276 0.0
C2468 C 0.65919 0.29157 0.70186 0.0
C2469 C 0.70663 0.28531 0.73503 0.0
C2470 C 0.69063 0.287 0.72247 0.0
H2471 H 0.60693 0.27239 0.65789 0.0
H2472 H 0.63514 0.26758 0.67161 0.0
H2473 H 0.67304 0.32113 0.70391 0.0
H2474 H 0.73591 0.31101 0.77488 0.0
H2475 H 0.71019 0.31349 0.75377 0.0
C2476 C 0.98597 0.30067 0.95051 0.0
C2477 C 0.99718 0.29248 0.93977 0.0
C2478 C 0.98973 0.32047 0.95839 0.0
C2479 C 0.02428 0.36448 0.97335 0.0
H2480 H 0.9869 0.39059 0.96386 0.0
C2481 C 0.03485 0.44785 0.99311 0.0
C2482 C 0.02152 0.45567 0.99983 0.0
C2483 C 0.03227 0.428 0.9858 0.0
C2484 C 0.99743 0.38355 0.96695 0.0
H2485 H 0.02158 0.29878 0.92965 0.0
H2486 H 0.02824 0.33348 0.94371 0.0
H2487 H 0.98211 0.3559 0.95185 0.0
H2488 H 0.99506 0.44867 0.00438 0.0
H2489 H 0.9907 0.41406 0.99224 0.0
H2490 H 0.03952 0.39201 0.98884 0.0
C2491 C 0.01648 0.32443 0.9459 0.0
C2492 C 0.99469 0.36364 0.95997 0.0
C2493 C 0.01265 0.30456 0.93783 0.0
C2494 C 0.00556 0.44317 0.99916 0.0
C2495 C 1.00304 0.42328 0.99207 0.0
C2496 C 0.02698 0.3844 0.98055 0.0
C2497 C 0.00486 0.33263 0.95589 0.0
C2498 C 0.00805 0.35387 0.96314 0.0
C2499 C 0.01634 0.41541 0.98523 0.0
C2500 C 0.01357 0.39421 0.97748 0.0
H2501 H 0.97396 0.2919 0.95241 0.0
H2502 H 0.98066 0.32631 0.96629 0.0
H2503 H 0.03478 0.35731 0.97614 0.0
H2504 H 0.04729 0.45708 0.99332 0.0
H2505 H 0.04273 0.4226 0.98037 0.0
C2506 C 0.00995 0.77095 0.18322 0.0
C2507 C 0.01059 0.77808 0.16591 0.0
C2508 C 0.99477 0.76853 0.19109 0.0
C2509 C 0.95436 0.78631 0.18992 0.0
H2510 H 0.93991 0.74414 0.21611 0.0
C2511 C 0.88939 0.7746 0.21742 0.0
C2512 C 0.8894 0.76961 0.23585 0.0
C2513 C 0.90382 0.77469 0.20835 0.0
C2514 C 0.94385 0.75611 0.20899 0.0
H2515 H 0.99551 0.78766 0.14299 0.0
H2516 H 0.9691 0.7829 0.15628 0.0
H2517 H 0.96563 0.74555 0.20116 0.0
H2518 H 0.90481 0.76105 0.25927 0.0
H2519 H 0.92984 0.76111 0.24344 0.0
H2520 H 0.93267 0.79692 0.19778 0.0
C2521 C 0.98039 0.77957 0.16407 0.0
C2522 C 0.95861 0.75692 0.20042 0.0
C2523 C 0.99554 0.78207 0.1563 0.0
C2524 C 0.90418 0.7646 0.24491 0.0
C2525 C 0.91857 0.76465 0.23584 0.0
C2526 C 0.93961 0.78548 0.19843 0.0
C2527 C 0.97987 0.77315 0.18178 0.0
C2528 C 0.96406 0.77203 0.19077 0.0
C2529 C 0.91862 0.76978 0.21748 0.0
C2530 C 0.93417 0.77039 0.2081 0.0
H2531 H 0.02133 0.76784 0.19106 0.0
H2532 H 0.9949 0.76371 0.20483 0.0
H2533 H 0.95834 0.79841 0.18299 0.0
H2534 H 0.87817 0.77827 0.20988 0.0
H2535 H 0.90331 0.77844 0.19408 0.0
C2536 C 0.50696 0.28716 0.13735 0.0
C2537 C 0.52185 0.28437 0.14846 0.0
C2538 C 0.50817 0.30157 0.12628 0.0
C2539 C 0.53763 0.33112 0.10255 0.0
H2540 H 0.50805 0.36751 0.10952 0.0
C2541 C 0.54678 0.39962 0.06989 0.0
C2542 C 0.53182 0.405 0.06209 0.0
C2543 C 0.54566 0.38502 0.08071 0.0
C2544 C 0.51622 0.35732 0.10719 0.0
H2545 H 0.5497 0.29398 0.15624 0.0
H2546 H 0.55176 0.31902 0.13668 0.0
H2547 H 0.50555 0.34082 0.12696 0.0
H2548 H 0.50401 0.39945 0.05918 0.0
H2549 H 0.50194 0.37358 0.07766 0.0
H2550 H 0.54808 0.34725 0.08248 0.0
C2551 C 0.53921 0.3101 0.13664 0.0
C2552 C 0.5148 0.3421 0.1172 0.0
C2553 C 0.538 0.29586 0.14788 0.0
C2554 C 0.51574 0.39568 0.06532 0.0
C2555 C 0.51458 0.38093 0.07592 0.0
C2556 C 0.53891 0.34619 0.09234 0.0
C2557 C 0.52429 0.3132 0.12597 0.0
C2558 C 0.52552 0.32894 0.11498 0.0
C2559 C 0.52953 0.37541 0.08368 0.0
C2560 C 0.52825 0.35948 0.09459 0.0
H2561 H 0.49435 0.27855 0.13757 0.0
H2562 H 0.49652 0.30367 0.118 0.0
H2563 H 0.54593 0.32101 0.10054 0.0
H2564 H 0.55933 0.40678 0.06769 0.0
H2565 H 0.55744 0.38135 0.08681 0.0
C2566 C 0.94111 0.27118 0.32836 0.0
C2567 C 0.95543 0.28389 0.32476 0.0
C2568 C 0.92484 0.27514 0.32532 0.0
C2569 C 0.89638 0.29279 0.29544 0.0
H2570 H 0.87082 0.29423 0.33826 0.0
C2571 C 0.82481 0.25931 0.28607 0.0
C2572 C 0.81423 0.26971 0.29555 0.0
C2573 C 0.84259 0.26637 0.28953 0.0
C2574 C 0.87785 0.29429 0.32624 0.0
H2575 H 0.9638 0.31028 0.3142 0.0
H2576 H 0.93476 0.31673 0.30795 0.0
H2577 H 0.9021 0.29786 0.34493 0.0
H2578 H 0.81392 0.29552 0.31628 0.0
H2579 H 0.84528 0.30754 0.32284 0.0
H2580 H 0.87197 0.28765 0.27659 0.0
C2581 C 0.9365 0.30406 0.31376 0.0
C2582 C 0.89567 0.29636 0.33005 0.0
C2583 C 0.953 0.3003 0.31722 0.0
C2584 C 0.82179 0.28718 0.30882 0.0
C2585 C 0.83967 0.2941 0.31251 0.0
C2586 C 0.87851 0.29046 0.2916 0.0
C2587 C 0.92244 0.29165 0.31817 0.0
C2588 C 0.90491 0.29489 0.31462 0.0
C2589 C 0.85015 0.28383 0.3027 0.0
C2590 C 0.86907 0.29044 0.30692 0.0
H2591 H 0.94238 0.25809 0.33354 0.0
H2592 H 0.91402 0.26513 0.32831 0.0
H2593 H 0.90332 0.29144 0.28337 0.0
H2594 H 0.81936 0.24591 0.27563 0.0
H2595 H 0.85046 0.258 0.28209 0.0
C2596 C 0.03244 0.68991 0.64465 0.0
C2597 C 0.01884 0.69729 0.63624 0.0
C2598 C 0.03854 0.67568 0.63347 0.0
C2599 C 0.0424 0.65633 0.58399 0.0
H2600 H 0.0395 0.60686 0.59989 0.0
C2601 C 0.03755 0.58586 0.53029 0.0
C2602 C 0.04196 0.57002 0.53735 0.0
C2603 C 0.03958 0.60352 0.543 0.0
C2604 C 0.04096 0.62071 0.59542 0.0
H2605 H 1.00113 0.69579 0.60958 0.0
H2606 H 0.01201 0.67104 0.59004 0.0
H2607 H 0.03344 0.63378 0.62143 0.0
H2608 H 0.05339 0.56064 0.56269 0.0
H2609 H 0.05824 0.59175 0.58451 0.0
H2610 H 0.04997 0.64345 0.55801 0.0
C2611 C 0.01782 0.67627 0.60526 0.0
C2612 C 0.03732 0.63606 0.60774 0.0
C2613 C 0.01149 0.69022 0.61649 0.0
C2614 C 0.04995 0.57261 0.55683 0.0
C2615 C 0.05245 0.5904 0.56942 0.0
C2616 C 0.04641 0.6411 0.5718 0.0
C2617 C 0.03139 0.66896 0.61367 0.0
C2618 C 0.03753 0.65376 0.60185 0.0
C2619 C 0.04644 0.60575 0.56291 0.0
C2620 C 0.04521 0.62291 0.5771 0.0
H2621 H 0.03836 0.69517 0.65983 0.0
H2622 H 0.04899 0.6701 0.6402 0.0
H2623 H 0.04279 0.67002 0.57932 0.0
H2624 H 0.03131 0.58423 0.51531 0.0
H2625 H 0.03463 0.6149 0.53741 0.0
C2626 C 0.58445 0.78992 0.87195 0.0
C2627 C 0.57181 0.79986 0.86617 0.0
C2628 C 0.60019 0.79313 0.86548 0.0
C2629 C 0.63446 0.80573 0.85245 0.0
H2630 H 0.6254 0.79757 0.79593 0.0
C2631 C 0.68631 0.79258 0.80653 0.0
C2632 C 0.68101 0.77525 0.79251 0.0
C2633 C 0.67427 0.80062 0.81554 0.0
C2634 C 0.62815 0.80008 0.81171 0.0
H2635 H 0.56633 0.82223 0.85057 0.0
H2636 H 0.59382 0.82767 0.83914 0.0
H2637 H 0.60277 0.80385 0.81416 0.0
H2638 H 0.65887 0.75327 0.77633 0.0
H2639 H 0.63782 0.76755 0.7918 0.0
H2640 H 0.65958 0.80095 0.84988 0.0
C2641 C 0.59146 0.81734 0.84858 0.0
C2642 C 0.61529 0.80386 0.82216 0.0
C2643 C 0.57578 0.81427 0.85521 0.0
C2644 C 0.66335 0.76671 0.78692 0.0
C2645 C 0.6513 0.77488 0.79579 0.0
C2646 C 0.64738 0.80212 0.842 0.0
C2647 C 0.6035 0.80625 0.85304 0.0
C2648 C 0.61817 0.80613 0.84258 0.0
C2649 C 0.65671 0.79165 0.81047 0.0
C2650 C 0.64413 0.79867 0.82152 0.0
H2651 H 0.58179 0.77882 0.8805 0.0
H2652 H 0.60921 0.78429 0.86904 0.0
H2653 H 0.63697 0.80746 0.86818 0.0
H2654 H 0.69982 0.79976 0.81079 0.0
H2655 H 0.6787 0.81368 0.82669 0.0
C2656 C 0.44289 0.50462 0.68484 0.0
C2657 C 0.45363 0.50112 0.70075 0.0
C2658 C 0.44917 0.50718 0.66772 0.0
C2659 C 0.49026 0.5234 0.65222 0.0
H2660 H 0.4654 0.50181 0.5996 0.0
C2661 C 0.51852 0.54415 0.58682 0.0
C2662 C 0.51863 0.5285 0.5721 0.0
C2663 C 0.50825 0.54156 0.60097 0.0
C2664 C 0.47246 0.50793 0.61423 0.0
H2665 H 0.47895 0.49631 0.71069 0.0
H2666 H 0.48976 0.50058 0.68088 0.0
H2667 H 0.4521 0.49433 0.62744 0.0
H2668 H 0.5076 0.4981 0.56 0.0
H2669 H 0.4897 0.49352 0.58477 0.0
H2670 H 0.51078 0.53656 0.63926 0.0
C2671 C 0.47664 0.50175 0.68177 0.0
C2672 C 0.46482 0.50376 0.63012 0.0
C2673 C 0.47039 0.49919 0.6988 0.0
C2674 C 0.50767 0.51045 0.57115 0.0
C2675 C 0.49738 0.50784 0.5853 0.0
C2676 C 0.49784 0.52761 0.63642 0.0
C2677 C 0.46628 0.50632 0.66627 0.0
C2678 C 0.47378 0.51123 0.64926 0.0
C2679 C 0.49794 0.52324 0.60066 0.0
C2680 C 0.48911 0.5198 0.61725 0.0
H2681 H 0.4299 0.50619 0.68591 0.0
H2682 H 0.44092 0.5107 0.65598 0.0
H2683 H 0.49737 0.52962 0.66682 0.0
H2684 H 0.52679 0.55825 0.58776 0.0
H2685 H 0.50873 0.55377 0.61247 0.0
C2686 C 0.78867 0.21704 0.01398 0.0
C2687 C 0.80645 0.22541 0.01798 0.0
C2688 C 0.77697 0.22679 0.00593 0.0
C2689 C 0.76096 0.24144 0.97199 0.0
H2690 H 0.76669 0.29716 0.97967 0.0
C2691 C 0.76773 0.29721 0.92062 0.0
C2692 C 0.75564 0.28629 0.90439 0.0
C2693 C 0.7668 0.29322 0.93908 0.0
C2694 C 0.76475 0.28155 0.97743 0.0
H2695 H 0.82576 0.25116 0.01805 0.0
H2696 H 0.80536 0.268 0.00347 0.0
H2697 H 0.77994 0.28286 0.00526 0.0
H2698 H 0.73187 0.26442 0.895 0.0
H2699 H 0.73003 0.25758 0.92749 0.0
H2700 H 0.74728 0.23999 0.94362 0.0
C2701 C 0.80045 0.254 0.00684 0.0
C2702 C 0.77233 0.2734 0.99208 0.0
C2703 C 0.81217 0.24427 0.01498 0.0
C2704 C 0.74152 0.27279 0.90727 0.0
C2705 C 0.74049 0.2689 0.92585 0.0
C2706 C 0.75357 0.24956 0.95731 0.0
C2707 C 0.78281 0.24507 1.00166 0.0
C2708 C 0.77122 0.25336 0.98903 0.0
C2709 C 0.75373 0.27824 0.94172 0.0
C2710 C 0.75624 0.26979 0.9594 0.0
H2711 H 0.78378 0.20265 0.01647 0.0
H2712 H 0.76343 0.21967 1.00226 0.0
H2713 H 0.75996 0.22593 0.96914 0.0
H2714 H 0.77886 0.30761 0.91888 0.0
H2715 H 0.77736 0.3006 0.95082 0.0
C2716 C 0.10158 0.48127 0.21539 0.0
C2717 C 0.11827 0.49167 0.22472 0.0
C2718 C 0.09439 0.48321 0.19668 0.0
C2719 C 0.09702 0.51578 0.16026 0.0
H2720 H 0.06839 0.47008 0.12516 0.0
C2721 C 0.06277 0.5185 0.08109 0.0
C2722 C 0.04677 0.50553 0.07338 0.0
C2723 C 0.07271 0.51721 0.0989 0.0
C2724 C 0.07605 0.48319 0.13473 0.0
H2725 H 0.14035 0.51257 0.22103 0.0
H2726 H 0.12773 0.51611 0.1883 0.0
H2727 H 0.08312 0.46728 0.15657 0.0
H2728 H 0.02882 0.48114 0.07882 0.0
H2729 H 0.04549 0.47921 0.10945 0.0
H2730 H 0.08964 0.53175 0.13845 0.0
C2731 C 0.1202 0.50632 0.19564 0.0
C2732 C 0.08468 0.48152 0.15295 0.0
C2733 C 0.12755 0.50416 0.21442 0.0
C2734 C 0.0411 0.49134 0.08406 0.0
C2735 C 0.05087 0.49012 0.10177 0.0
C2736 C 0.08823 0.5175 0.142 0.0
C2737 C 0.10344 0.49582 0.18638 0.0
C2738 C 0.09518 0.49777 0.16624 0.0
C2739 C 0.06696 0.50294 0.10965 0.0
C2740 C 0.07733 0.50125 0.12891 0.0
H2741 H 0.09387 0.47153 0.22264 0.0
H2742 H 0.08143 0.47503 0.19046 0.0
H2743 H 0.10485 0.52873 0.16996 0.0
H2744 H 0.06759 0.52972 0.07344 0.0
H2745 H 0.085 0.52734 0.1041 0.0
C2746 C 0.8101 0.83778 0.49258 0.0
C2747 C 0.80489 0.85491 0.4992 0.0
C2748 C 0.80613 0.82895 0.47286 0.0
C2749 C 0.8078 0.82145 0.43015 0.0
H2750 H 0.7663 0.82241 0.39543 0.0
C2751 C 0.803 0.80348 0.34708 0.0
C2752 C 0.78719 0.79312 0.33555 0.0
C2753 C 0.80415 0.81055 0.36695 0.0
C2754 C 0.77789 0.82181 0.40494 0.0
H2755 H 0.79083 0.87583 0.49035 0.0
H2756 H 0.78431 0.86075 0.4558 0.0
H2757 H 0.76922 0.83444 0.43037 0.0
H2758 H 0.76014 0.78212 0.3359 0.0
H2759 H 0.76222 0.79404 0.37077 0.0
H2760 H 0.81627 0.80829 0.40497 0.0
C2761 C 0.79119 0.85388 0.4659 0.0
C2762 C 0.77966 0.82896 0.42498 0.0
C2763 C 0.79498 0.86258 0.48574 0.0
C2764 C 0.77251 0.79008 0.34437 0.0
C2765 C 0.77369 0.79702 0.36435 0.0
C2766 C 0.80596 0.81416 0.41021 0.0
C2767 C 0.79707 0.83718 0.45914 0.0
C2768 C 0.79469 0.82896 0.43785 0.0
C2769 C 0.78956 0.80728 0.37592 0.0
C2770 C 0.79107 0.81442 0.39729 0.0
H2771 H 0.81757 0.83134 0.5026 0.0
H2772 H 0.81045 0.81581 0.46834 0.0
H2773 H 0.8197 0.82148 0.43946 0.0
H2774 H 0.81455 0.80628 0.34076 0.0
H2775 H 0.8165 0.81875 0.37524 0.0
C2776 C 0.46846 0.50352 0.81017 0.0
C2777 C 0.45274 0.50927 0.80678 0.0
C2778 C 0.47633 0.50381 0.82917 0.0
C2779 C 0.4671 0.50164 0.87788 0.0
H2780 H 0.51488 0.52855 0.89632 0.0
C2781 C 0.50493 0.4973 0.95146 0.0
C2782 C 0.51415 0.51496 0.96341 0.0
C2783 C 0.49778 0.49657 0.93218 0.0
C2784 C 0.50152 0.52106 0.89133 0.0
H2785 H 0.433 0.51976 0.82073 0.0
H2786 H 0.44642 0.51966 0.85365 0.0
H2787 H 0.5016 0.5266 0.86244 0.0
H2788 H 0.52328 0.54567 0.9645 0.0
H2789 H 0.51077 0.54431 0.9305 0.0
H2790 H 0.46695 0.49608 0.90669 0.0
C2791 C 0.45264 0.51498 0.84162 0.0
C2792 C 0.494 0.51979 0.87198 0.0
C2793 C 0.44494 0.515 0.82271 0.0
C2794 C 0.5162 0.53188 0.95563 0.0
C2795 C 0.50916 0.53109 0.9362 0.0
C2796 C 0.47465 0.50271 0.89712 0.0
C2797 C 0.46845 0.50955 0.84502 0.0
C2798 C 0.47671 0.51016 0.86516 0.0
C2799 C 0.4998 0.51343 0.92439 0.0
C2800 C 0.49189 0.5125 0.90403 0.0
H2801 H 0.47485 0.49916 0.79819 0.0
H2802 H 0.48852 0.49948 0.83149 0.0
H2803 H 0.45375 0.49408 0.8729 0.0
H2804 H 0.5031 0.48399 0.95699 0.0
H2805 H 0.49075 0.48276 0.92329 0.0
C2806 C 0.81974 0.19238 0.09955 0.0
C2807 C 0.83308 0.20542 0.09451 0.0
C2808 C 0.81332 0.19737 0.11653 0.0
C2809 C 0.80916 0.24011 0.15017 0.0
H2810 H 0.79369 0.20235 0.18101 0.0
C2811 C 0.78305 0.23739 0.22689 0.0
C2812 C 0.77125 0.24938 0.22547 0.0
C2813 C 0.79055 0.23151 0.211 0.0
C2814 C 0.79805 0.2131 0.17263 0.0
H2815 H 0.85073 0.23355 0.10391 0.0
H2816 H 0.83967 0.24212 0.13388 0.0
H2817 H 0.80879 0.19342 0.15454 0.0
H2818 H 0.75763 0.26424 0.20634 0.0
H2819 H 0.77055 0.25359 0.17819 0.0
H2820 H 0.79877 0.25994 0.16858 0.0
C2821 C 0.834 0.22818 0.12441 0.0
C2822 C 0.80657 0.20794 0.15738 0.0
C2823 C 0.84043 0.22319 0.10735 0.0
C2824 C 0.7667 0.25499 0.20774 0.0
C2825 C 0.7742 0.24904 0.19174 0.0
C2826 C 0.80071 0.24532 0.1655 0.0
C2827 C 0.82014 0.21547 0.12893 0.0
C2828 C 0.81212 0.22135 0.14592 0.0
C2829 C 0.78635 0.23742 0.19332 0.0
C2830 C 0.795 0.23183 0.17682 0.0
H2831 H 0.81376 0.17856 0.09003 0.0
H2832 H 0.80252 0.18734 0.1195 0.0
H2833 H 0.81307 0.25067 0.14141 0.0
H2834 H 0.7869 0.23296 0.24046 0.0
H2835 H 0.80003 0.22279 0.21278 0.0
C2836 C 0.13757 0.5053 0.35692 0.0
C2837 C 0.12966 0.5082 0.33884 0.0
C2838 C 0.12949 0.50699 0.37359 0.0
C2839 C 0.09106 0.52367 0.39255 0.0
H2840 H 0.10238 0.49627 0.43366 0.0
C2841 C 0.04962 0.51648 0.45449 0.0
C2842 C 0.05783 0.51701 0.47366 0.0
C2843 C 0.0587 0.51593 0.43869 0.0
C2844 C 0.09907 0.50422 0.42247 0.0
H2845 H 0.1066 0.515 0.3246 0.0
H2846 H 0.09247 0.51734 0.35285 0.0
H2847 H 0.1171 0.49425 0.40574 0.0
H2848 H 0.08249 0.51728 0.49072 0.0
H2849 H 0.09822 0.51616 0.46332 0.0
H2850 H 0.07273 0.53322 0.40916 0.0
C2851 C 0.1052 0.51435 0.35469 0.0
C2852 C 0.10768 0.50312 0.40622 0.0
C2853 C 0.11337 0.51289 0.33817 0.0
C2854 C 0.07557 0.51693 0.47632 0.0
C2855 C 0.08463 0.51614 0.46044 0.0
C2856 C 0.08232 0.52456 0.40865 0.0
C2857 C 0.11299 0.51142 0.3729 0.0
C2858 C 0.10389 0.51279 0.39075 0.0
C2859 C 0.07641 0.51565 0.44123 0.0
C2860 C 0.08609 0.51484 0.424 0.0
H2861 H 0.15005 0.50158 0.35823 0.0
H2862 H 0.13638 0.50489 0.38706 0.0
H2863 H 0.08775 0.53188 0.38162 0.0
H2864 H 0.03603 0.51646 0.45159 0.0
H2865 H 0.05166 0.51534 0.42431 0.0
C2866 C 0.80513 0.83529 0.59418 0.0
C2867 C 0.80103 0.85333 0.59333 0.0
C2868 C 0.80137 0.82582 0.60937 0.0
C2869 C 0.79814 0.83615 0.6604 0.0
H2870 H 0.77582 0.78188 0.65286 0.0
C2871 C 0.78458 0.80047 0.72593 0.0
C2872 C 0.78401 0.7806 0.72443 0.0
C2873 C 0.78623 0.80919 0.70979 0.0
C2874 C 0.78239 0.79696 0.65534 0.0
H2875 H 0.78944 0.8754 0.60753 0.0
H2876 H 0.78319 0.85897 0.6344 0.0
H2877 H 0.77861 0.79695 0.62465 0.0
H2878 H 0.78533 0.75442 0.70514 0.0
H2879 H 0.78928 0.76975 0.67725 0.0
H2880 H 0.80281 0.83617 0.69088 0.0
C2881 C 0.78915 0.85212 0.62313 0.0
C2882 C 0.7838 0.80562 0.6391 0.0
C2883 C 0.79257 0.86141 0.60767 0.0
C2884 C 0.78569 0.76976 0.70666 0.0
C2885 C 0.78773 0.77857 0.69059 0.0
C2886 C 0.79708 0.82742 0.67662 0.0
C2887 C 0.79376 0.83438 0.62427 0.0
C2888 C 0.79162 0.82531 0.64147 0.0
C2889 C 0.78776 0.79838 0.6918 0.0
C2890 C 0.78913 0.80767 0.67439 0.0
H2891 H 0.81172 0.82874 0.58338 0.0
H2892 H 0.80514 0.81221 0.60994 0.0
H2893 H 0.80451 0.8513 0.66263 0.0
H2894 H 0.78314 0.8092 0.7394 0.0
H2895 H 0.78583 0.82434 0.71138 0.0
C2896 C 0.70697 0.38051 0.50263 0.0
C2897 C 0.7104 0.3822 0.48399 0.0
C2898 C 0.69536 0.39018 0.51064 0.0
C2899 C 0.66013 0.41447 0.4984 0.0
H2900 H 0.67662 0.44532 0.55061 0.0
C2901 C 0.61995 0.46258 0.53455 0.0
C2902 C 0.62889 0.48181 0.54218 0.0
C2903 C 0.62893 0.44825 0.52982 0.0
C2904 C 0.67185 0.43673 0.53606 0.0
H2905 H 0.70371 0.3941 0.45848 0.0
H2906 H 0.68332 0.41106 0.47242 0.0
H2907 H 0.69362 0.42371 0.53656 0.0
H2908 H 0.65412 0.50101 0.5519 0.0
H2909 H 0.66991 0.47588 0.5436 0.0
H2910 H 0.63875 0.42809 0.49754 0.0
C2911 C 0.68962 0.40232 0.4809 0.0
C2912 C 0.68147 0.42424 0.52809 0.0
C2913 C 0.70128 0.39268 0.47294 0.0
C2914 C 0.64696 0.48626 0.54612 0.0
C2915 C 0.65597 0.47189 0.54138 0.0
C2916 C 0.65051 0.42692 0.50637 0.0
C2917 C 0.68684 0.40149 0.49999 0.0
C2918 C 0.67583 0.41324 0.50907 0.0
C2919 C 0.647 0.45288 0.53269 0.0
C2920 C 0.65641 0.43838 0.52515 0.0
H2921 H 0.71337 0.37184 0.51108 0.0
H2922 H 0.69315 0.38897 0.52522 0.0
H2923 H 0.65544 0.40603 0.48377 0.0
H2924 H 0.60599 0.45874 0.53174 0.0
H2925 H 0.62174 0.43363 0.52346 0.0
C2926 C 0.20362 0.12328 0.50132 0.0
C2927 C 0.21467 0.11114 0.49589 0.0
C2928 C 0.18663 0.11537 0.50315 0.0
C2929 C 0.15297 0.06954 0.48811 0.0
H2930 H 0.13328 0.08991 0.53205 0.0
C2931 C 0.09588 0.02383 0.51156 0.0
C2932 C 0.08222 0.03228 0.5161 0.0
C2933 C 0.11121 0.03515 0.50881 0.0
C2934 C 0.13852 0.08423 0.51956 0.0
H2935 H 0.21645 0.08114 0.48825 0.0
H2936 H 0.18724 0.06751 0.49163 0.0
H2937 H 0.16163 0.1067 0.52746 0.0
H2938 H 0.07398 0.05929 0.52147 0.0
H2939 H 0.10106 0.07937 0.51692 0.0
H2940 H 0.13018 0.04685 0.48046 0.0
C2941 C 0.19146 0.08312 0.49415 0.0
C2942 C 0.15475 0.09384 0.51691 0.0
C2943 C 0.20833 0.09098 0.49234 0.0
C2944 C 0.08434 0.05244 0.51818 0.0
C2945 C 0.09983 0.06389 0.51555 0.0
C2946 C 0.13687 0.05994 0.49081 0.0
C2947 C 0.18033 0.09515 0.49951 0.0
C2948 C 0.16235 0.08634 0.50139 0.0
C2949 C 0.11334 0.05529 0.51055 0.0
C2950 C 0.12962 0.06688 0.5068 0.0
H2951 H 0.2081 0.13888 0.5042 0.0
H2952 H 0.17839 0.12506 0.50721 0.0
H2953 H 0.15817 0.06361 0.4757 0.0
H2954 H 0.09468 0.00833 0.50991 0.0
H2955 H 0.12145 0.02809 0.50531 0.0
C2956 C 0.19762 0.00699 0.80146 0.0
C2957 C 0.18089 0.007 0.79255 0.0
C2958 C 0.20683 0.99451 0.7927 0.0
C2959 C 0.19939 0.9472 0.76209 0.0
H2960 H 0.24889 0.96076 0.76455 0.0
C2961 C 0.23848 0.88887 0.74748 0.0
C2962 C 0.25317 0.89133 0.76179 0.0
C2963 C 0.23002 0.90398 0.74632 0.0
C2964 C 0.23506 0.95677 0.76372 0.0
H2965 H 0.16092 0.99454 0.7671 0.0
H2966 H 0.17707 0.97249 0.75188 0.0
H2967 H 0.23325 0.98631 0.77132 0.0
H2968 H 0.27054 0.91155 0.78604 0.0
H2969 H 0.25587 0.93776 0.78402 0.0
H2970 H 0.20128 0.91764 0.75562 0.0
C2971 C 0.18299 0.98221 0.76562 0.0
C2972 C 0.22613 0.97137 0.76753 0.0
C2973 C 0.17382 0.99487 0.77429 0.0
C2974 C 0.25948 0.90931 0.77457 0.0
C2975 C 0.25106 0.92437 0.7734 0.0
C2976 C 0.20833 0.93258 0.75839 0.0
C2977 C 0.19945 0.9817 0.77494 0.0
C2978 C 0.20832 0.96668 0.76736 0.0
C2979 C 0.23613 0.9218 0.75944 0.0
C2980 C 0.22633 0.93722 0.75981 0.0
H2981 H 0.20343 0.01625 0.81548 0.0
H2982 H 0.21942 0.99423 0.80033 0.0
H2983 H 0.18568 0.94319 0.76206 0.0
H2984 H 0.23344 0.87522 0.7373 0.0
H2985 H 0.2186 0.90166 0.73533 0.0
C2986 C 0.30091 0.90883 0.02925 0.0
C2987 C 0.30001 0.88921 0.02986 0.0
C2988 C 0.31654 0.92095 0.02843 0.0
C2989 C 0.35865 0.91873 0.01432 0.0
H2990 H 0.37157 0.97259 0.04084 0.0
C2991 C 0.42498 0.96646 0.01542 0.0
C2992 C 0.42524 0.98501 0.01139 0.0
C2993 C 0.40995 0.95527 0.01897 0.0
C2994 C 0.36804 0.95761 0.03325 0.0
H2995 H 0.3148 0.86708 0.03098 0.0
H2996 H 0.34215 0.88831 0.03 0.0
H2997 H 0.34493 0.95197 0.04519 0.0
H2998 H 0.41008 0.00655 0.00825 0.0
H2999 H 0.38369 0.9869 0.01448 0.0
H3000 H 0.38173 0.92433 1.0024 0.0
C3001 C 0.33073 0.89423 0.02962 0.0
C3002 C 0.35281 0.94581 0.03572 0.0
C3003 C 0.31509 0.88209 0.03028 0.0
C3004 C 0.41027 0.99235 0.01145 0.0
C3005 C 0.3952 0.98113 0.01503 0.0
C3006 C 0.37389 0.93048 0.01193 0.0
C3007 C 0.33158 0.91372 0.02837 0.0
C3008 C 0.34794 0.92624 0.02625 0.0
C3009 C 0.39486 0.96239 0.0186 0.0
C3010 C 0.37873 0.95002 0.02136 0.0
H3011 H 0.28947 0.9147 0.02883 0.0
H3012 H 0.3167 0.93583 0.02725 0.0
H3013 H 0.35511 0.90384 0.00647 0.0
H3014 H 0.43644 0.9606 0.01589 0.0
H3015 H 0.41014 0.94101 0.02204 0.0
C3016 C 0.86841 0.6002 0.78923 0.0
C3017 C 0.87331 0.58951 0.77299 0.0
C3018 C 0.86052 0.616 0.78781 0.0
C3019 C 0.83573 0.63999 0.7531 0.0
H3020 H 0.8477 0.68342 0.79684 0.0
C3021 C 0.79626 0.7021 0.76078 0.0
C3022 C 0.805 0.72134 0.76951 0.0
C3023 C 0.80471 0.6864 0.76021 0.0
C3024 C 0.84413 0.67158 0.78434 0.0
H3025 H 0.87312 0.58797 0.74209 0.0
H3026 H 0.85896 0.61529 0.73947 0.0
H3027 H 0.86191 0.6564 0.7972 0.0
H3028 H 0.82998 0.73844 0.78452 0.0
H3029 H 0.84451 0.71148 0.78377 0.0
H3030 H 0.81782 0.65523 0.74032 0.0
C3031 C 0.86142 0.61129 0.75354 0.0
C3032 C 0.85228 0.65575 0.78463 0.0
C3033 C 0.86966 0.59549 0.75503 0.0
C3034 C 0.82261 0.72407 0.77763 0.0
C3035 C 0.831 0.70836 0.7773 0.0
C3036 C 0.82737 0.65575 0.75293 0.0
C3037 C 0.8568 0.62207 0.77 0.0
C3038 C 0.84829 0.63948 0.76906 0.0
C3039 C 0.82228 0.68907 0.7686 0.0
C3040 C 0.83135 0.67198 0.76857 0.0
H3041 H 0.87084 0.59651 0.80346 0.0
H3042 H 0.85712 0.62336 0.80088 0.0
H3043 H 0.83202 0.62795 0.74078 0.0
H3044 H 0.78274 0.69907 0.75434 0.0
H3045 H 0.79724 0.672 0.75349 0.0
C3046 C 0.81046 0.60961 0.01982 0.0
C3047 C 0.81023 0.62534 0.01038 0.0
C3048 C 0.82533 0.60228 0.02266 0.0
C3049 C 0.86527 0.60025 1.00275 0.0
H3050 H 0.87911 0.58187 0.0498 0.0
C3051 C 0.92839 0.57326 0.01643 0.0
C3052 C 0.92773 0.55691 0.02507 0.0
C3053 C 0.91449 0.58237 0.01519 0.0
C3054 C 0.87533 0.58676 0.03648 0.0
H3055 H 0.82565 0.64601 0.99697 0.0
H3056 H 0.8516 0.63349 1.00224 0.0
H3057 H 0.85421 0.59656 0.04709 0.0
H3058 H 0.91168 0.53702 0.0387 0.0
H3059 H 0.88755 0.55283 0.03651 0.0
H3060 H 0.88627 0.59029 0.99205 0.0
C3061 C 0.84021 0.6266 0.00718 0.0
C3062 C 0.86105 0.5952 0.03494 0.0
C3063 C 0.82536 0.63391 0.00434 0.0
C3064 C 0.9128 0.54983 0.03232 0.0
C3065 C 0.89893 0.55891 0.03107 0.0
C3066 C 0.87954 0.59179 0.00428 0.0
C3067 C 0.84032 0.61052 0.01612 0.0
C3068 C 0.8558 0.60199 0.01803 0.0
C3069 C 0.8996 0.57532 0.02253 0.0
C3070 C 0.88471 0.58485 0.02112 0.0
H3071 H 0.79901 0.60262 0.02458 0.0
H3072 H 0.82489 0.58976 0.02943 0.0
H3073 H 0.86142 0.60503 0.98938 0.0
H3074 H 0.93976 0.57922 0.01089 0.0
H3075 H 0.91554 0.59512 0.00873 0.0
C3076 C 0.19057 0.10462 0.83336 0.0
C3077 C 0.17618 0.09374 0.81959 0.0
C3078 C 0.20005 0.12192 0.83015 0.0
C3079 C 0.21026 0.14667 0.7904 0.0
H3080 H 0.22932 0.19119 0.83233 0.0
C3081 C 0.25054 0.21736 0.77705 0.0
C3082 C 0.26535 0.22631 0.791 0.0
C3083 C 0.2384 0.20225 0.78073 0.0
C3084 C 0.2242 0.17882 0.8205 0.0
H3085 H 0.16022 0.09286 0.79186 0.0
H3086 H 0.17673 0.12315 0.78637 0.0
H3087 H 0.21012 0.16295 0.83854 0.0
H3088 H 0.27923 0.22662 0.81964 0.0
H3089 H 0.25827 0.19986 0.82593 0.0
H3090 H 0.22458 0.16232 0.77245 0.0
C3091 C 0.18076 0.11813 0.79954 0.0
C3092 C 0.21319 0.16267 0.82406 0.0
C3093 C 0.17124 0.10084 0.80277 0.0
C3094 C 0.26786 0.21995 0.80868 0.0
C3095 C 0.25578 0.20476 0.81233 0.0
C3096 C 0.2213 0.1628 0.78685 0.0
C3097 C 0.19539 0.12873 0.81309 0.0
C3098 C 0.20622 0.14636 0.80908 0.0
C3099 C 0.24095 0.19568 0.79836 0.0
C3100 C 0.22852 0.17898 0.80191 0.0
H3101 H 0.19476 0.0996 0.84648 0.0
H3102 H 0.21137 0.12963 0.84076 0.0
H3103 H 0.20533 0.13421 0.77863 0.0
H3104 H 0.24845 0.22183 0.76316 0.0
H3105 H 0.22703 0.1957 0.76974 0.0
C3106 C 0.36116 0.98247 0.28842 0.0
C3107 C 0.3722 0.98831 0.27554 0.0
C3108 C 0.35294 0.96299 0.28689 0.0
C3109 C 0.35344 0.91143 0.26411 0.0
H3110 H 0.31083 0.90042 0.28416 0.0
C3111 C 0.31302 0.83191 0.25979 0.0
C3112 C 0.30582 0.82831 0.27631 0.0
C3113 C 0.3211 0.8509 0.25841 0.0
C3114 C 0.32281 0.90311 0.27863 0.0
H3115 H 0.3828 0.97733 0.25052 0.0
H3116 H 0.36796 0.94332 0.24736 0.0
H3117 H 0.32401 0.93355 0.2832 0.0
H3118 H 0.3017 0.84239 0.30434 0.0
H3119 H 0.31543 0.87505 0.30186 0.0
H3120 H 0.35176 0.88062 0.25914 0.0
C3121 C 0.36594 0.95398 0.25904 0.0
C3122 C 0.33054 0.92236 0.27814 0.0
C3123 C 0.37435 0.97367 0.26067 0.0
C3124 C 0.30701 0.84437 0.29134 0.0
C3125 C 0.31485 0.86328 0.28986 0.0
C3126 C 0.34553 0.89205 0.26437 0.0
C3127 C 0.35509 0.94819 0.27223 0.0
C3128 C 0.34623 0.9271 0.27124 0.0
C3129 C 0.32204 0.86699 0.27337 0.0
C3130 C 0.3302 0.88756 0.27194 0.0
H3131 H 0.35909 0.99298 0.30023 0.0
H3132 H 0.34523 0.9596 0.29777 0.0
H3133 H 0.3655 0.91411 0.25879 0.0
H3134 H 0.31251 0.82004 0.24793 0.0
H3135 H 0.32636 0.853 0.24542 0.0
C3136 C 0.56769 0.34377 0.604 0.0
C3137 C 0.55271 0.32894 0.59756 0.0
C3138 C 0.57032 0.3599 0.59502 0.0
C3139 C 0.55326 0.37864 0.55136 0.0
H3140 H 0.56906 0.42869 0.58624 0.0
C3141 C 0.53622 0.44839 0.53246 0.0
C3142 C 0.54894 0.4657 0.53777 0.0
C3143 C 0.53932 0.43148 0.53818 0.0
C3144 C 0.56486 0.41483 0.57626 0.0
H3145 H 0.52931 0.31895 0.57586 0.0
H3146 H 0.53368 0.34682 0.56062 0.0
H3147 H 0.57024 0.39929 0.5989 0.0
H3148 H 0.57511 0.47867 0.55291 0.0
H3149 H 0.58044 0.44908 0.563 0.0
H3150 H 0.54713 0.39423 0.52894 0.0
C3151 C 0.54358 0.34612 0.57238 0.0
C3152 C 0.5656 0.39793 0.58349 0.0
C3153 C 0.541 0.33008 0.58126 0.0
C3154 C 0.56501 0.46558 0.54856 0.0
C3155 C 0.56805 0.44868 0.55445 0.0
C3156 C 0.55235 0.3955 0.5442 0.0
C3157 C 0.55805 0.36151 0.57939 0.0
C3158 C 0.55945 0.37956 0.57123 0.0
C3159 C 0.55517 0.43148 0.54947 0.0
C3160 C 0.55783 0.41376 0.55664 0.0
H3161 H 0.57693 0.34343 0.61658 0.0
H3162 H 0.58175 0.37132 0.60064 0.0
H3163 H 0.54878 0.36484 0.54134 0.0
H3164 H 0.52371 0.44793 0.52416 0.0
H3165 H 0.52907 0.41852 0.53427 0.0
C3166 C 0.43956 0.73515 0.37726 0.0
C3167 C 0.45482 0.74723 0.37493 0.0
C3168 C 0.42347 0.73832 0.37003 0.0
C3169 C 0.40244 0.7651 0.33575 0.0
H3170 H 0.363 0.74806 0.35962 0.0
C3171 C 0.33404 0.77851 0.31195 0.0
C3172 C 0.3215 0.76112 0.30555 0.0
C3173 C 0.35034 0.77851 0.32208 0.0
C3174 C 0.37393 0.75295 0.35287 0.0
H3175 H 0.4652 0.77251 0.36374 0.0
H3176 H 0.43721 0.77877 0.35204 0.0
H3177 H 0.39152 0.74557 0.37441 0.0
H3178 H 0.31579 0.73036 0.30539 0.0
H3179 H 0.34398 0.73052 0.32385 0.0
H3180 H 0.38464 0.77301 0.31457 0.0
C3181 C 0.43753 0.76632 0.35875 0.0
C3182 C 0.39031 0.75134 0.3612 0.0
C3183 C 0.45365 0.76285 0.3656 0.0
C3184 C 0.32524 0.74395 0.31021 0.0
C3185 C 0.34133 0.74404 0.32076 0.0
C3186 C 0.3861 0.76712 0.32772 0.0
C3187 C 0.42214 0.75397 0.36066 0.0
C3188 C 0.40482 0.75704 0.35257 0.0
C3189 C 0.35415 0.76123 0.32644 0.0
C3190 C 0.37166 0.76077 0.33602 0.0
H3191 H 0.44003 0.72287 0.38423 0.0
H3192 H 0.4121 0.72813 0.37145 0.0
H3193 H 0.41306 0.76936 0.32836 0.0
H3194 H 0.33152 0.79192 0.3084 0.0
H3195 H 0.36002 0.79194 0.32636 0.0
C3196 C 0.05462 0.72826 0.10528 0.0
C3197 C 0.03928 0.73466 0.1013 0.0
C3198 C 0.05571 0.70955 0.09681 0.0
C3199 C 0.03329 0.6676 0.05679 0.0
H3200 H 0.05776 0.6384 0.08792 0.0
C3201 C 0.02289 0.58464 0.03705 0.0
C3202 C 0.03742 0.5765 0.03918 0.0
C3203 C 0.02437 0.60441 0.04366 0.0
C3204 C 0.05105 0.64645 0.07896 0.0
H3205 H 0.01304 0.72627 0.08519 0.0
H3206 H 0.01478 0.69378 0.07095 0.0
H3207 H 0.05806 0.67205 0.1013 0.0
H3208 H 0.06497 0.58282 0.04987 0.0
H3209 H 0.06752 0.61745 0.06152 0.0
H3210 H 0.02586 0.64178 0.0347 0.0
C3211 C 0.02616 0.70327 0.08021 0.0
C3212 C 0.05126 0.66578 0.0866 0.0
C3213 C 0.02513 0.72196 0.08852 0.0
C3214 C 0.05353 0.58864 0.04793 0.0
C3215 C 0.05498 0.60845 0.05473 0.0
C3216 C 0.03297 0.64826 0.04924 0.0
C3217 C 0.04144 0.69676 0.08425 0.0
C3218 C 0.0422 0.67656 0.0757 0.0
C3219 C 0.0404 0.61652 0.0527 0.0
C3220 C 0.04169 0.63741 0.06031 0.0
H3221 H 0.06579 0.73764 0.11502 0.0
H3222 H 0.06776 0.70516 0.10007 0.0
H3223 H 0.0265 0.67551 0.04776 0.0
H3224 H 0.01028 0.57572 0.03037 0.0
H3225 H 0.01286 0.61015 0.04208 0.0
C3226 C 0.0609 0.24565 0.88422 0.0
C3227 C 0.04934 0.25619 0.87683 0.0
C3228 C 0.0771 0.24695 0.87859 0.0
C3229 C 0.10857 0.27737 0.85577 0.0
H3230 H 0.12544 0.23051 0.84402 0.0
C3231 C 0.17485 0.27902 0.83224 0.0
C3232 C 0.17583 0.26404 0.81713 0.0
C3233 C 0.16025 0.27797 0.84109 0.0
C3234 C 0.12089 0.24373 0.84713 0.0
H3235 H 0.04595 0.27661 0.85793 0.0
H3236 H 0.0739 0.2787 0.84804 0.0
H3237 H 0.09848 0.22916 0.85642 0.0
H3238 H 0.16208 0.23617 0.79955 0.0
H3239 H 0.13665 0.23437 0.81488 0.0
H3240 H 0.13059 0.29182 0.84581 0.0
C3241 C 0.07063 0.26961 0.85838 0.0
C3242 C 0.10551 0.243 0.85451 0.0
C3243 C 0.0545 0.26831 0.86398 0.0
C3244 C 0.16192 0.24784 0.81134 0.0
C3245 C 0.1473 0.2468 0.82016 0.0
C3246 C 0.12391 0.27809 0.84837 0.0
C3247 C 0.08213 0.25886 0.86547 0.0
C3248 C 0.09905 0.25979 0.85874 0.0
C3249 C 0.14618 0.26193 0.83505 0.0
C3250 C 0.13022 0.26125 0.84378 0.0
H3251 H 0.05736 0.23618 0.89414 0.0
H3252 H 0.08568 0.23864 0.88453 0.0
H3253 H 0.10415 0.29065 0.85909 0.0
H3254 H 0.18542 0.29158 0.83727 0.0
H3255 H 0.16001 0.28974 0.85274 0.0
C3256 C 0.52597 0.74429 0.90468 0.0
C3257 C 0.50906 0.74699 0.90071 0.0
C3258 C 0.52962 0.73073 0.91578 0.0
C3259 C 0.50808 0.68589 0.92796 0.0
H3260 H 0.54764 0.69504 0.96928 0.0
C3261 C 0.51488 0.63257 0.97879 0.0
C3262 C 0.53134 0.62936 0.98441 0.0
C3263 C 0.51281 0.64714 0.96851 0.0
C3264 C 0.53667 0.6922 0.95758 0.0
H3265 H 0.48299 0.73845 0.90628 0.0
H3266 H 0.48945 0.71501 0.92564 0.0
H3267 H 0.54316 0.72091 0.95195 0.0
H3268 H 0.55852 0.63846 0.98352 0.0
H3269 H 0.55489 0.66377 0.96515 0.0
H3270 H 0.50161 0.65722 0.93331 0.0
C3271 C 0.49976 0.72308 0.91986 0.0
C3272 C 0.53411 0.707 0.94774 0.0
C3273 C 0.49611 0.73658 0.90884 0.0
C3274 C 0.54571 0.64081 0.97945 0.0
C3275 C 0.54363 0.65531 0.96904 0.0
C3276 C 0.51069 0.67109 0.93766 0.0
C3277 C 0.51643 0.7197 0.92301 0.0
C3278 C 0.51967 0.70401 0.93304 0.0
C3279 C 0.52717 0.65865 0.96353 0.0
C3280 C 0.5249 0.67416 0.95272 0.0
H3281 H 0.53623 0.75211 0.89866 0.0
H3282 H 0.54259 0.72832 0.91803 0.0
H3283 H 0.49702 0.68312 0.91638 0.0
H3284 H 0.50364 0.62413 0.98274 0.0
H3285 H 0.49999 0.64962 0.96478 0.0
C3286 C 0.0846 0.73553 0.71897 0.0
C3287 C 0.0783 0.74579 0.70535 0.0
C3288 C 0.1023 0.73766 0.72462 0.0
C3289 C 0.1438 0.77092 0.72553 0.0
H3290 H 0.16264 0.72689 0.73505 0.0
C3291 C 0.21444 0.77981 0.76049 0.0
C3292 C 0.2231 0.76571 0.75335 0.0
C3293 C 0.19673 0.77714 0.75456 0.0
C3294 C 0.1576 0.73929 0.73225 0.0
H3295 H 0.08548 0.76592 0.68656 0.0
H3296 H 0.11634 0.76922 0.69599 0.0
H3297 H 0.13179 0.72236 0.72408 0.0
H3298 H 0.22017 0.73786 0.73427 0.0
H3299 H 0.1893 0.73346 0.72343 0.0
H3300 H 0.16964 0.78772 0.73297 0.0
C3301 C 0.10766 0.75994 0.70272 0.0
C3302 C 0.1399 0.73675 0.72623 0.0
C3303 C 0.08998 0.75796 0.69723 0.0
C3304 C 0.21379 0.74894 0.74008 0.0
C3305 C 0.1961 0.74636 0.73397 0.0
C3306 C 0.1615 0.77343 0.73135 0.0
C3307 C 0.11402 0.74995 0.71659 0.0
C3308 C 0.13281 0.75255 0.72284 0.0
C3309 C 0.18738 0.76041 0.7412 0.0
C3310 C 0.16859 0.75766 0.73484 0.0
H3311 H 0.07588 0.7261 0.72553 0.0
H3312 H 0.1068 0.72997 0.73554 0.0
H3313 H 0.13872 0.78345 0.72331 0.0
H3314 H 0.22127 0.79278 0.77094 0.0
H3315 H 0.19034 0.78807 0.76068 0.0
C3316 C 0.97992 0.32195 0.40952 0.0
C3317 C 0.99256 0.31824 0.39839 0.0
C3318 C 0.9829 0.33894 0.42347 0.0
C3319 C 0.00965 0.38845 0.43637 0.0
H3320 H 0.99273 0.38901 0.48526 0.0
C3321 C 0.01755 0.4449 0.51342 0.0
C3322 C 0.01658 0.46162 0.5059 0.0
C3323 C 0.01342 0.42678 0.50093 0.0
C3324 C 0.99762 0.38905 0.47173 0.0
H3325 H 0.01844 0.32928 0.39359 0.0
H3326 H 0.02375 0.35883 0.41825 0.0
H3327 H 0.98923 0.35829 0.46272 0.0
H3328 H 0.00968 0.47255 0.47973 0.0
H3329 H 1.00184 0.44099 0.45813 0.0
H3330 H 0.01849 0.41905 0.44555 0.0
C3331 C 0.0114 0.34872 0.41587 0.0
C3332 C 0.99548 0.3715 0.45874 0.0
C3333 C 0.00838 0.33175 0.40181 0.0
C3334 C 0.01049 0.45988 0.48594 0.0
C3335 C 0.00623 0.44182 0.47352 0.0
C3336 C 0.01186 0.40593 0.44938 0.0
C3337 C 0.99862 0.35257 0.42672 0.0
C3338 C 1.00141 0.37104 0.44088 0.0
C3339 C 0.00818 0.42516 0.48077 0.0
C3340 C 0.00576 0.40645 0.46712 0.0
H3341 H 0.96755 0.31189 0.40724 0.0
H3342 H 0.9727 0.34161 0.43137 0.0
H3343 H 0.01417 0.38863 0.42264 0.0
H3344 H 0.02227 0.4459 0.52876 0.0
H3345 H 0.01513 0.41421 0.50693 0.0
C3346 C 0.50215 0.23086 0.24359 0.0
C3347 C 0.50169 0.22626 0.22338 0.0
C3348 C 0.48679 0.22914 0.25099 0.0
C3349 C 0.44516 0.23687 0.23332 0.0
H3350 H 0.43483 0.22981 0.28406 0.0
C3351 C 0.40443 0.2807 0.27314 0.0
C3352 C 0.38892 0.26982 0.27639 0.0
C3353 C 0.41743 0.27162 0.26807 0.0
C3354 C 0.43754 0.23162 0.26979 0.0
H3355 H 0.48521 0.21324 0.19548 0.0
H3356 H 0.45848 0.20994 0.20842 0.0
H3357 H 0.45855 0.21718 0.27192 0.0
H3358 H 0.37532 0.24093 0.27783 0.0
H3359 H 0.39852 0.22521 0.26956 0.0
H3360 H 0.42483 0.25211 0.23155 0.0
C3361 C 0.4706 0.21542 0.21847 0.0
C3362 C 0.45103 0.22445 0.26288 0.0
C3363 C 0.48591 0.21726 0.21107 0.0
C3364 C 0.38716 0.24979 0.27562 0.0
C3365 C 0.40035 0.24074 0.27082 0.0
C3366 C 0.43193 0.24421 0.24032 0.0
C3367 C 0.47085 0.22264 0.23827 0.0
C3368 C 0.45509 0.22725 0.24466 0.0
C3369 C 0.41534 0.25156 0.2665 0.0
C3370 C 0.42824 0.24197 0.25872 0.0
H3371 H 0.51415 0.23784 0.25342 0.0
H3372 H 0.48739 0.23481 0.26633 0.0
H3373 H 0.44818 0.23964 0.21943 0.0
H3374 H 0.40639 0.2962 0.27407 0.0
H3375 H 0.42902 0.28022 0.26495 0.0
C3376 C 0.6082 0.55036 0.35869 0.0
C3377 C 0.62312 0.54394 0.35516 0.0
C3378 C 0.60193 0.54837 0.37589 0.0
C3379 C 0.58867 0.51965 0.40333 0.0
H3380 H 0.60694 0.55009 0.45536 0.0
C3381 C 0.56163 0.49816 0.46967 0.0
C3382 C 0.55901 0.51338 0.48326 0.0
C3383 C 0.57142 0.50211 0.45534 0.0
C3384 C 0.60165 0.54149 0.44091 0.0
H3385 H 0.64369 0.53141 0.36735 0.0
H3386 H 0.6328 0.52835 0.39752 0.0
H3387 H 0.62025 0.55842 0.42781 0.0
H3388 H 0.56476 0.5446 0.49299 0.0
H3389 H 0.58118 0.55151 0.46767 0.0
H3390 H 0.56992 0.50285 0.41602 0.0
C3391 C 0.62604 0.53483 0.38691 0.0
C3392 C 0.60931 0.54625 0.42526 0.0
C3393 C 0.63224 0.53664 0.36967 0.0
C3394 C 0.56669 0.53256 0.48272 0.0
C3395 C 0.5762 0.53652 0.46826 0.0
C3396 C 0.58104 0.51484 0.41893 0.0
C3397 C 0.61063 0.5402 0.38983 0.0
C3398 C 0.60274 0.53543 0.40641 0.0
C3399 C 0.57849 0.52137 0.45423 0.0
C3400 C 0.58736 0.52578 0.4379 0.0
H3401 H 0.60089 0.556 0.34779 0.0
H3402 H 0.58997 0.55255 0.37801 0.0
H3403 H 0.58358 0.51108 0.38881 0.0
H3404 H 0.55591 0.48326 0.46995 0.0
H3405 H 0.57324 0.49009 0.44498 0.0
C3406 C 0.26649 0.82362 0.04449 0.0
C3407 C 0.27109 0.81652 0.02665 0.0
C3408 C 0.27766 0.82548 0.06196 0.0
C3409 C 0.30919 0.80282 0.08383 0.0
H3410 H 0.31407 0.84555 0.12719 0.0
C3411 C 0.32481 0.79189 0.16158 0.0
C3412 C 0.31173 0.79608 0.17179 0.0
C3413 C 0.32727 0.79946 0.14494 0.0
C3414 C 0.31308 0.83364 0.11517 0.0
H3415 H 0.29075 0.80533 0.01318 0.0
H3416 H 0.31014 0.8082 0.04394 0.0
H3417 H 0.30342 0.84899 0.09414 0.0
H3418 H 0.29161 0.81231 0.17309 0.0
H3419 H 0.29598 0.82551 0.1445 0.0
H3420 H 0.31735 0.78683 0.1049 0.0
C3421 C 0.29806 0.81272 0.04423 0.0
C3422 C 0.30698 0.8356 0.09632 0.0
C3423 C 0.28697 0.81105 0.02671 0.0
C3424 C 0.30201 0.80903 0.16584 0.0
C3425 C 0.30456 0.81667 0.14939 0.0
C3426 C 0.31517 0.80079 0.10269 0.0
C3427 C 0.29349 0.81995 0.06199 0.0
C3428 C 0.30413 0.81984 0.08069 0.0
C3429 C 0.31678 0.81144 0.13837 0.0
C3430 C 0.3162 0.81581 0.11863 0.0
H3431 H 0.25431 0.82783 0.04502 0.0
H3432 H 0.27365 0.83065 0.07553 0.0
H3433 H 0.30707 0.79044 0.07199 0.0
H3434 H 0.33271 0.78222 0.16602 0.0
H3435 H 0.33684 0.79529 0.13674 0.0
C3436 C 0.95134 0.52799 0.8225 0.0
C3437 C 0.93649 0.53573 0.82133 0.0
C3438 C 0.96014 0.52585 0.84049 0.0
C3439 C 0.9635 0.54026 0.89585 0.0
H3440 H 0.99134 0.50191 0.89582 0.0
C3441 C 0.99882 0.52296 0.96853 0.0
C3442 C 0.01563 0.51991 0.96848 0.0
C3443 C 0.98838 0.52462 0.95119 0.0
C3444 C 0.98376 0.51285 0.89624 0.0
H3445 H 0.91938 0.54718 0.8389 0.0
H3446 H 0.93413 0.54282 0.86999 0.0
H3447 H 0.97496 0.50494 0.86539 0.0
H3448 H 0.03436 0.51614 0.94974 0.0
H3449 H 0.01639 0.51862 0.91993 0.0
H3450 H 0.97217 0.54769 0.92701 0.0
C3451 C 0.93939 0.53875 0.85703 0.0
C3452 C 0.97429 0.51473 0.87852 0.0
C3453 C 0.9307 0.54112 0.83898 0.0
C3454 C 0.0215 0.51837 0.9505 0.0
C3455 C 0.01107 0.51973 0.93323 0.0
C3456 C 0.97284 0.53818 0.91367 0.0
C3457 C 0.9544 0.53109 0.85828 0.0
C3458 C 0.96408 0.52865 0.87775 0.0
C3459 C 0.9943 0.52296 0.93312 0.0
C3460 C 0.98336 0.52459 0.91422 0.0
H3461 H 0.95646 0.52384 0.80942 0.0
H3462 H 0.97174 0.52036 0.84032 0.0
H3463 H 0.95614 0.55137 0.89635 0.0
H3464 H 0.99385 0.52439 0.98204 0.0
H3465 H 0.97557 0.52701 0.95191 0.0
C3466 C 0.29717 0.20144 0.56881 0.0
C3467 C 0.28302 0.18867 0.55609 0.0
C3468 C 0.29584 0.20904 0.58791 0.0
C3469 C 0.26507 0.21873 0.62039 0.0
H3470 H 0.30282 0.21858 0.66098 0.0
C3471 C 0.26281 0.23995 0.70287 0.0
C3472 C 0.27829 0.2501 0.71525 0.0
C3473 C 0.2627 0.23243 0.68324 0.0
C3474 C 0.29226 0.21902 0.64985 0.0
H3475 H 0.25617 0.17432 0.55348 0.0
H3476 H 0.25386 0.18771 0.58692 0.0
H3477 H 0.30382 0.20592 0.62717 0.0
H3478 H 0.30569 0.26081 0.71654 0.0
H3479 H 0.30543 0.24823 0.68244 0.0
H3480 H 0.25362 0.23211 0.64309 0.0
C3481 C 0.26598 0.19182 0.58199 0.0
C3482 C 0.29283 0.21169 0.63044 0.0
C3483 C 0.26734 0.18409 0.56285 0.0
C3484 C 0.29356 0.25288 0.70749 0.0
C3485 C 0.29343 0.24553 0.6879 0.0
C3486 C 0.26456 0.22622 0.63985 0.0
C3487 C 0.2803 0.20416 0.59481 0.0
C3488 C 0.27932 0.21157 0.61546 0.0
C3489 C 0.27805 0.235 0.67554 0.0
C3490 C 0.27822 0.22659 0.65483 0.0
H3491 H 0.30945 0.20536 0.56416 0.0
H3492 H 0.30703 0.21875 0.59732 0.0
H3493 H 0.25452 0.21895 0.60915 0.0
H3494 H 0.25082 0.23751 0.7084 0.0
H3495 H 0.25065 0.22424 0.67422 0.0
C3496 C 0.60285 0.50358 0.22708 0.0
C3497 C 0.61066 0.52132 0.23975 0.0
C3498 C 0.59588 0.50308 0.20773 0.0
C3499 C 0.59811 0.53179 0.16919 0.0
H3500 H 0.55446 0.4966 0.14511 0.0
C3501 C 0.56227 0.53524 0.09414 0.0
C3502 C 0.55479 0.5176 0.08112 0.0
C3503 C 0.56892 0.53547 0.11348 0.0
C3504 C 0.56675 0.50633 0.15158 0.0
H3505 H 0.61722 0.55249 0.2421 0.0
H3506 H 0.60486 0.55162 0.20834 0.0
H3507 H 0.56631 0.49767 0.17908 0.0
H3508 H 0.54832 0.48636 0.07821 0.0
H3509 H 0.56013 0.48679 0.11208 0.0
H3510 H 0.59854 0.54047 0.14171 0.0
C3511 C 0.60434 0.53808 0.21332 0.0
C3512 C 0.57353 0.50697 0.17102 0.0
C3513 C 0.61133 0.53858 0.23268 0.0
C3514 C 0.55399 0.50019 0.0879 0.0
C3515 C 0.56067 0.50043 0.1073 0.0
C3516 C 0.59132 0.53116 0.14977 0.0
C3517 C 0.59655 0.52031 0.20064 0.0
C3518 C 0.58928 0.51972 0.18004 0.0
C3519 C 0.56827 0.51808 0.12025 0.0
C3520 C 0.57556 0.51846 0.14077 0.0
H3521 H 0.60216 0.49001 0.23205 0.0
H3522 H 0.59018 0.48915 0.19825 0.0
H3523 H 0.61041 0.54153 0.17563 0.0
H3524 H 0.56303 0.54894 0.08943 0.0
H3525 H 0.57444 0.54931 0.12319 0.0
C3526 C 0.27089 0.86753 0.94534 0.0
C3527 C 0.25902 0.8626 0.95749 0.0
C3528 C 0.26531 0.86555 0.92541 0.0
C3529 C 0.23348 0.83057 0.89054 0.0
H3530 H 0.25842 0.85477 0.85456 0.0
C3531 C 0.24148 0.78512 0.81953 0.0
C3532 C 0.25874 0.78806 0.81708 0.0
C3533 C 0.2362 0.79867 0.83256 0.0
C3534 C 0.25119 0.8479 0.86436 0.0
H3535 H 0.23181 0.85427 0.95883 0.0
H3536 H 0.22209 0.8506 0.92386 0.0
H3537 H 0.25815 0.87364 0.88656 0.0
H3538 H 0.28399 0.80729 0.82572 0.0
H3539 H 0.27503 0.83066 0.84888 0.0
H3540 H 0.22785 0.80441 0.86928 0.0
C3541 C 0.2357 0.85584 0.92976 0.0
C3542 C 0.25095 0.85874 0.88259 0.0
C3543 C 0.24129 0.85796 0.94977 0.0
C3544 C 0.27058 0.80483 0.82738 0.0
C3545 C 0.26537 0.81831 0.84044 0.0
C3546 C 0.23382 0.81972 0.8724 0.0
C3547 C 0.24776 0.85851 0.91728 0.0
C3548 C 0.24296 0.84983 0.89626 0.0
C3549 C 0.24817 0.81526 0.8434 0.0
C3550 C 0.24356 0.82799 0.85962 0.0
H3551 H 0.28462 0.87146 0.95095 0.0
H3552 H 0.27495 0.86766 0.9162 0.0
H3553 H 0.22731 0.82321 0.9008 0.0
H3554 H 0.2321 0.77232 0.81148 0.0
H3555 H 0.22285 0.79598 0.83444 0.0
C3556 C 0.95616 0.53448 0.71213 0.0
C3557 C 0.93872 0.53513 0.71246 0.0
C3558 C 0.96282 0.53224 0.69466 0.0
C3559 C 0.95095 0.51833 0.63932 0.0
H3560 H 0.99913 0.54221 0.64278 0.0
C3561 C 0.98492 0.51761 0.5696 0.0
C3562 C 1.00261 0.51728 0.57176 0.0
C3563 C 0.97643 0.51963 0.58595 0.0
C3564 C 0.98571 0.5351 0.64135 0.0
H3565 H 0.91466 0.53353 0.69352 0.0
H3566 H 0.92629 0.52979 0.6629 0.0
H3567 H 0.98581 0.54608 0.67148 0.0
H3568 H 0.02492 0.51872 0.59351 0.0
H3569 H 0.01039 0.52194 0.62146 0.0
H3570 H 0.95097 0.50753 0.60896 0.0
C3571 C 0.93488 0.53091 0.67647 0.0
C3572 C 0.97793 0.53735 0.6581 0.0
C3573 C 0.92812 0.53314 0.69417 0.0
C3574 C 0.01136 0.51892 0.59094 0.0
C3575 C 1.00293 0.52097 0.60721 0.0
C3576 C 0.95877 0.51611 0.62246 0.0
C3577 C 0.9525 0.53063 0.67634 0.0
C3578 C 0.9604 0.52883 0.65767 0.0
C3579 C 0.98528 0.52153 0.60521 0.0
C3580 C 0.97644 0.52426 0.62311 0.0
H3581 H 0.96495 0.53572 0.7256 0.0
H3582 H 0.97624 0.53157 0.69567 0.0
H3583 H 0.93752 0.51135 0.638 0.0
H3584 H 0.97758 0.51649 0.55524 0.0
H3585 H 0.96295 0.52012 0.58342 0.0
C3586 C 0.28149 0.21463 0.46366 0.0
C3587 C 0.2723 0.19544 0.46146 0.0
C3588 C 0.28036 0.2244 0.44815 0.0
C3589 C 0.25721 0.22074 0.3971 0.0
H3590 H 0.30015 0.25466 0.39373 0.0
C3591 C 0.27353 0.24584 0.32628 0.0
C3592 C 0.28124 0.26554 0.32815 0.0
C3593 C 0.27064 0.23812 0.34279 0.0
C3594 C 0.28801 0.24539 0.39455 0.0
H3595 H 0.25426 0.17161 0.44149 0.0
H3596 H 0.25278 0.18827 0.41413 0.0
H3597 H 0.29817 0.23984 0.42203 0.0
H3598 H 0.29187 0.29261 0.34872 0.0
H3599 H 0.28717 0.27903 0.37759 0.0
H3600 H 0.2475 0.22572 0.36892 0.0
C3601 C 0.26049 0.19613 0.42798 0.0
C3602 C 0.28678 0.23694 0.41089 0.0
C3603 C 0.2613 0.18651 0.44369 0.0
C3604 C 0.28586 0.2774 0.34682 0.0
C3605 C 0.28323 0.26962 0.36334 0.0
C3606 C 0.25857 0.22896 0.38055 0.0
C3607 C 0.27041 0.21505 0.42981 0.0
C3608 C 0.27135 0.22451 0.4125 0.0
C3609 C 0.27571 0.24987 0.36151 0.0
C3610 C 0.27398 0.2414 0.37914 0.0
H3611 H 0.29003 0.22189 0.47722 0.0
H3612 H 0.28774 0.23915 0.45047 0.0
H3613 H 0.24503 0.21151 0.3978 0.0
H3614 H 0.27007 0.23628 0.31211 0.0
H3615 H 0.265 0.22281 0.34096 0.0
C3616 C 0.36985 0.64745 0.54252 0.0
C3617 C 0.36777 0.66214 0.53219 0.0
C3618 C 0.38496 0.64074 0.54359 0.0
C3619 C 0.4158 0.63235 0.51321 0.0
H3620 H 0.43516 0.6123 0.55692 0.0
C3621 C 0.45767 0.57553 0.5051 0.0
C3622 C 0.45244 0.55983 0.51408 0.0
C3623 C 0.45126 0.59221 0.50896 0.0
C3624 C 0.42996 0.61792 0.54462 0.0
H3625 H 0.38007 0.68229 0.51594 0.0
H3626 H 0.40663 0.67015 0.51747 0.0
H3627 H 0.41764 0.63621 0.5623 0.0
H3628 H 0.43603 0.54897 0.53359 0.0
H3629 H 0.42477 0.57798 0.54021 0.0
H3630 H 0.42721 0.61316 0.49533 0.0
C3631 C 0.39656 0.66398 0.52481 0.0
C3632 C 0.42005 0.63165 0.54772 0.0
C3633 C 0.38145 0.67093 0.524 0.0
C3634 C 0.44051 0.56098 0.52673 0.0
C3635 C 0.43415 0.57762 0.5306 0.0
C3636 C 0.42571 0.61859 0.5101 0.0
C3637 C 0.3982 0.64847 0.53417 0.0
C3638 C 0.41228 0.63833 0.53191 0.0
C3639 C 0.43957 0.59343 0.52188 0.0
C3640 C 0.43221 0.61066 0.52566 0.0
H3641 H 0.35949 0.64056 0.54908 0.0
H3642 H 0.38578 0.62859 0.55069 0.0
H3643 H 0.40979 0.63712 0.50073 0.0
H3644 H 0.46698 0.57509 0.49543 0.0
H3645 H 0.45561 0.60422 0.50204 0.0
C3646 C 0.86966 0.91654 0.55435 0.0
C3647 C 0.85551 0.92289 0.54566 0.0
C3648 C 0.88643 0.92457 0.55214 0.0
C3649 C 0.91155 0.95348 0.5223 0.0
H3650 H 0.94711 0.96612 0.56843 0.0
C3651 C 0.98322 0.98621 0.52041 0.0
C3652 C 0.99161 1.0017 0.53577 0.0
C3653 C 0.96701 0.97506 0.52116 0.0
C3654 C 0.93734 0.96274 0.55541 0.0
H3655 H 0.84792 0.9424 0.52746 0.0
H3656 H 0.87718 0.95649 0.52369 0.0
H3657 H 0.91795 0.94984 0.57015 0.0
H3658 H 0.98985 0.01739 0.56411 0.0
H3659 H 0.96169 0.99807 0.56544 0.0
H3660 H 0.9309 0.96691 0.50772 0.0
C3661 C 0.8753 0.94516 0.53207 0.0
C3662 C 0.92063 0.95319 0.55634 0.0
C3663 C 0.85851 0.93714 0.53432 0.0
C3664 C 0.9837 0.00552 0.55207 0.0
C3665 C 0.96758 0.99436 0.55286 0.0
C3666 C 0.9283 0.96299 0.52135 0.0
C3667 C 0.8895 0.93916 0.54117 0.0
C3668 C 0.90747 0.94857 0.53984 0.0
C3669 C 0.95893 0.97911 0.53735 0.0
C3670 C 0.94137 0.96792 0.53796 0.0
H3671 H 0.86785 0.90563 0.56322 0.0
H3672 H 0.89702 0.9194 0.55912 0.0
H3673 H 0.90179 0.94998 0.50926 0.0
H3674 H 0.98903 0.98295 0.50766 0.0
H3675 H 0.9608 0.96329 0.50906 0.0
C3676 C 0.88961 0.04733 0.23737 0.0
C3677 C 0.8896 0.04001 0.25464 0.0
C3678 C 0.87756 0.058 0.23198 0.0
C3679 C 0.8363 0.06927 0.24191 0.0
H3680 H 0.85528 0.1201 0.23229 0.0
C3681 C 0.80589 0.13343 0.26068 0.0
C3682 C 0.80465 0.14588 0.24745 0.0
C3683 C 0.81498 0.11893 0.25758 0.0
C3684 C 0.84973 0.10582 0.23456 0.0
H3685 H 0.8765 0.03726 0.27925 0.0
H3686 H 0.85564 0.05581 0.26992 0.0
H3687 H 0.87329 0.0964 0.23323 0.0
H3688 H 0.81192 0.15309 0.22068 0.0
H3689 H 0.82803 0.12757 0.21527 0.0
H3690 H 0.81302 0.07897 0.24414 0.0
C3691 C 0.86484 0.05328 0.26048 0.0
C3692 C 0.86 0.09225 0.23505 0.0
C3693 C 0.8769 0.0428 0.26592 0.0
C3694 C 0.81268 0.1436 0.23104 0.0
C3695 C 0.82191 0.12911 0.228 0.0
C3696 C 0.82608 0.08281 0.24146 0.0
C3697 C 0.86522 0.06125 0.24365 0.0
C3698 C 0.85353 0.07411 0.23939 0.0
C3699 C 0.82301 0.11659 0.24119 0.0
C3700 C 0.8329 0.1014 0.23844 0.0
H3701 H 0.89929 0.04543 0.2284 0.0
H3702 H 0.87806 0.06396 0.2189 0.0
H3703 H 0.83093 0.05526 0.24496 0.0
H3704 H 0.79963 0.13474 0.27332 0.0
H3705 H 0.81587 0.10965 0.26814 0.0
C3706 C 0.76787 0.12939 0.03193 0.0
C3707 C 0.7817 0.13302 0.04756 0.0
C3708 C 0.75198 0.11789 0.03276 0.0
C3709 C 0.72517 0.10126 0.06688 0.0
H3710 H 0.70079 0.06171 0.02211 0.0
C3711 C 0.66051 0.0513 0.06891 0.0
C3712 C 0.64765 0.04792 0.05231 0.0
C3713 C 0.67749 0.06007 0.06842 0.0
C3714 C 0.70736 0.07281 0.03467 0.0
H3715 H 0.78972 0.12762 0.07639 0.0
H3716 H 0.76182 0.10756 0.07786 0.0
H3717 H 0.72928 0.08059 0.02119 0.0
H3718 H 0.64264 0.05039 0.02195 0.0
H3719 H 0.67209 0.06635 0.02129 0.0
H3720 H 0.70313 0.09395 0.0802 0.0
C3721 C 0.76335 0.11363 0.06499 0.0
C3722 C 0.72366 0.08357 0.03414 0.0
C3723 C 0.7793 0.12502 0.0641 0.0
C3724 C 0.65221 0.05305 0.03506 0.0
C3725 C 0.66915 0.06196 0.03462 0.0
C3726 C 0.7088 0.09062 0.06736 0.0
C3727 C 0.74958 0.10992 0.04929 0.0
C3728 C 0.73265 0.09797 0.05019 0.0
C3729 C 0.68193 0.06578 0.05136 0.0
C3730 C 0.69967 0.07636 0.0512 0.0
H3731 H 0.7693 0.13537 0.01898 0.0
H3732 H 0.74149 0.11544 0.02057 0.0
H3733 H 0.73176 0.11246 0.07936 0.0
H3734 H 0.6574 0.04771 0.08249 0.0
H3735 H 0.68709 0.06255 0.08148 0.0
C3736 C 0.19105 0.44327 0.27457 0.0
C3737 C 0.19071 0.45378 0.29326 0.0
C3738 C 0.19897 0.42707 0.27225 0.0
C3739 C 0.21283 0.38963 0.29944 0.0
H3740 H 0.24102 0.38091 0.26007 0.0
C3741 C 0.24073 0.31903 0.28619 0.0
C3742 C 0.25759 0.32075 0.28199 0.0
C3743 C 0.23237 0.33477 0.28699 0.0
C3744 C 0.23324 0.38303 0.27124 0.0
H3745 H 0.19866 0.45449 0.3241 0.0
H3746 H 0.21182 0.42678 0.32007 0.0
H3747 H 0.22701 0.40846 0.26204 0.0
H3748 H 0.27851 0.34102 0.27507 0.0
H3749 H 0.26403 0.36807 0.27619 0.0
H3750 H 0.21895 0.36425 0.30865 0.0
C3751 C 0.20609 0.43096 0.30707 0.0
C3752 C 0.22499 0.39889 0.27225 0.0
C3753 C 0.19854 0.4472 0.30937 0.0
C3754 C 0.26562 0.33889 0.27845 0.0
C3755 C 0.25717 0.35452 0.27895 0.0
C3756 C 0.22081 0.37361 0.29822 0.0
C3757 C 0.20652 0.42041 0.28851 0.0
C3758 C 0.21473 0.40271 0.28653 0.0
C3759 C 0.24035 0.35291 0.28331 0.0
C3760 C 0.23135 0.36998 0.28421 0.0
H3761 H 0.1852 0.44753 0.26169 0.0
H3762 H 0.19885 0.41948 0.25763 0.0
H3763 H 0.205 0.39167 0.31059 0.0
H3764 H 0.23395 0.30548 0.289 0.0
H3765 H 0.21944 0.33256 0.29023 0.0
C3766 C 0.2558 0.43128 0.02196 0.0
C3767 C 0.25919 0.41942 0.03534 0.0
C3768 C 0.24018 0.43715 0.01957 0.0
C3769 C 0.20323 0.44321 0.04439 0.0
H3770 H 0.18252 0.44898 0.99335 0.0
C3771 C 0.13741 0.46485 0.03072 0.0
C3772 C 0.13614 0.47862 0.01886 0.0
C3773 C 0.15174 0.45643 0.03228 0.0
C3774 C 0.1882 0.44761 0.00774 0.0
H3775 H 0.24853 0.40417 0.05651 0.0
H3776 H 0.22107 0.41415 0.05211 0.0
H3777 H 0.20841 0.43611 0.99684 0.0
H3778 H 0.14886 0.49398 0.999 0.0
H3779 H 0.1739 0.47949 1.00186 0.0
H3780 H 0.18297 0.45475 0.05526 0.0
C3781 C 0.23067 0.41918 0.04366 0.0
C3782 C 0.20309 0.44023 0.00976 0.0
C3783 C 0.24638 0.41333 0.04609 0.0
C3784 C 0.14946 0.48354 0.00837 0.0
C3785 C 0.16375 0.47508 0.00988 0.0
C3786 C 0.18828 0.45053 0.04235 0.0
C3787 C 0.22739 0.43126 0.03043 0.0
C3788 C 0.21094 0.43811 0.02815 0.0
C3789 C 0.16515 0.46151 0.02196 0.0
C3790 C 0.18066 0.453 0.02402 0.0
H3791 H 0.26536 0.43634 0.01346 0.0
H3792 H 0.23831 0.4467 0.0095 0.0
H3793 H 0.209 0.44208 0.05883 0.0
H3794 H 0.12752 0.46088 0.03921 0.0
H3795 H 0.15229 0.44591 0.04157 0.0
C3796 C 0.89701 0.94887 0.28402 0.0
C3797 C 0.8993 0.95752 0.26787 0.0
C3798 C 0.88534 0.93126 0.28189 0.0
C3799 C 0.85818 0.88875 0.24601 0.0
H3800 H 0.83271 0.88514 0.28856 0.0
C3801 C 0.79894 0.82668 0.24644 0.0
C3802 C 0.80002 0.8189 0.26343 0.0
C3803 C 0.81115 0.8431 0.24528 0.0
C3804 C 0.83976 0.88591 0.27661 0.0
H3805 H 0.89167 0.95415 0.23664 0.0
H3806 H 0.87074 0.9234 0.23292 0.0
H3807 H 0.85385 0.9146 0.28947 0.0
H3808 H 0.81464 0.82192 0.29239 0.0
H3809 H 0.83575 0.85058 0.29044 0.0
H3810 H 0.84358 0.85995 0.23308 0.0
C3811 C 0.87821 0.93015 0.24722 0.0
C3812 C 0.85198 0.90275 0.27715 0.0
C3813 C 0.89017 0.94776 0.24932 0.0
C3814 C 0.81353 0.8276 0.2791 0.0
C3815 C 0.82556 0.84405 0.27803 0.0
C3816 C 0.84573 0.8719 0.24537 0.0
C3817 C 0.87537 0.92195 0.2636 0.0
C3818 C 0.86164 0.90427 0.26209 0.0
C3819 C 0.8244 0.85208 0.26121 0.0
C3820 C 0.83667 0.87024 0.26087 0.0
H3821 H 0.90407 0.95591 0.29845 0.0
H3822 H 0.88396 0.9251 0.29473 0.0
H3823 H 0.86541 0.8894 0.2342 0.0
H3824 H 0.78865 0.82013 0.23415 0.0
H3825 H 0.80997 0.84909 0.23218 0.0
C3826 C 0.7013 0.07022 0.81893 0.0
C3827 C 0.69002 0.05658 0.8035 0.0
C3828 C 0.70889 0.08895 0.81654 0.0
C3829 C 0.71993 0.11849 0.77893 0.0
H3830 H 0.72404 0.16221 0.82088 0.0
C3831 C 0.74581 0.19785 0.76889 0.0
C3832 C 0.75384 0.21262 0.7852 0.0
C3833 C 0.73796 0.17912 0.77103 0.0
C3834 C 0.72339 0.1503 0.80902 0.0
H3835 H 0.67824 0.05256 0.77317 0.0
H3836 H 0.69165 0.08498 0.76891 0.0
H3837 H 0.71113 0.12976 0.82456 0.0
H3838 H 0.75983 0.21866 0.81673 0.0
H3839 H 0.7469 0.18616 0.82053 0.0
H3840 H 0.73258 0.13877 0.76354 0.0
C3841 C 0.69463 0.08114 0.78299 0.0
C3842 C 0.7158 0.13146 0.81115 0.0
C3843 C 0.68683 0.06243 0.78545 0.0
C3844 C 0.75375 0.20786 0.80376 0.0
C3845 C 0.74611 0.18902 0.80591 0.0
C3846 C 0.72775 0.1373 0.77689 0.0
C3847 C 0.70571 0.09485 0.79854 0.0
C3848 C 0.71386 0.11514 0.79615 0.0
C3849 C 0.73798 0.17414 0.78959 0.0
C3850 C 0.72964 0.15373 0.79186 0.0
H3851 H 0.70416 0.06653 0.8331 0.0
H3852 H 0.71745 0.09879 0.82888 0.0
H3853 H 0.71898 0.10646 0.76707 0.0
H3854 H 0.74541 0.20078 0.7543 0.0
H3855 H 0.73166 0.16864 0.75794 0.0
loop_
_geom_bond_atom_site_label_1
_geom_bond_atom_site_label_2
_geom_bond_distance
_geom_bond_site_symmetry_2
_ccdc_geom_bond_type
Mg0 O1 2.027 1_655 S
Mg0 O7 1.981 1_655 S
Mg0 O9 2.128 . S
Mg0 O10 2.276 . S
Mg0 O13 1.988 1_655 S
O1 Mg0 2.027 1_455 S
O1 C4 1.250 . S
O2 Mg3 2.028 . S
O2 C4 1.248 1_655 S
Mg3 O2 2.028 . S
Mg3 O8 2.032 . S
Mg3 O10 2.079 . S
C4 O1 1.250 . S
C4 O2 1.248 1_455 S
C5 O6 1.264 . S
C5 O13 1.249 . S
O6 C5 1.264 . S
O7 Mg0 1.981 1_455 S
O7 C11 1.246 1_455 S
O8 Mg3 2.032 . S
O8 C11 1.259 . S
O9 Mg0 2.128 . S
O9 C12 1.252 . S
O10 Mg0 2.276 . S
O10 Mg3 2.079 . S
O10 C12 1.273 . S
C11 O7 1.246 1_655 S
C11 O8 1.259 . S
C12 O9 1.252 . S
C12 O10 1.273 . S
O13 Mg0 1.988 1_455 S
O13 C5 1.249 . S
Mg14 O15 2.028 . S
Mg14 O21 1.986 . S
Mg14 O23 2.114 . S
Mg14 O24 2.251 . S
Mg14 O27 2.010 . S
O15 Mg14 2.028 . S
O15 C18 1.250 . S
O16 Mg17 2.028 . S
O16 C18 1.248 . S
Mg17 O16 2.028 . S
Mg17 O22 2.032 . S
Mg17 O24 2.079 . S
C18 O15 1.250 . S
C18 O16 1.248 . S
C19 O20 1.264 . S
C19 O27 1.249 . S
O20 C19 1.264 . S
O21 Mg14 1.986 . S
O21 C25 1.246 . S
O22 Mg17 2.032 . S
O22 C25 1.259 . S
O23 Mg14 2.114 . S
O23 C26 1.252 . S
O24 Mg14 2.251 . S
O24 Mg17 2.079 . S
O24 C26 1.273 . S
C25 O21 1.246 . S
C25 O22 1.259 . S
C26 O23 1.252 . S
C26 O24 1.273 . S
O27 Mg14 2.010 . S
O27 C19 1.249 . S
Mg28 O29 2.028 . S
Mg28 O35 1.986 . S
Mg28 O37 2.114 . S
Mg28 O38 2.251 . S
Mg28 O41 2.010 . S
O29 Mg28 2.028 . S
O29 C32 1.250 . S
O30 Mg31 2.028 . S
O30 C32 1.248 . S
Mg31 O30 2.028 . S
Mg31 O36 2.032 . S
Mg31 O38 2.079 . S
C32 O29 1.250 . S
C32 O30 1.248 . S
C33 O34 1.264 . S
C33 O41 1.249 . S
O34 C33 1.264 . S
O35 Mg28 1.986 . S
O35 C39 1.246 . S
O36 Mg31 2.032 . S
O36 C39 1.259 . S
O37 Mg28 2.114 . S
O37 C40 1.252 . S
O38 Mg28 2.251 . S
O38 Mg31 2.079 . S
O38 C40 1.273 . S
C39 O35 1.246 . S
C39 O36 1.259 . S
C40 O37 1.252 . S
C40 O38 1.273 . S
O41 Mg28 2.010 . S
O41 C33 1.249 . S
Mg42 O43 2.028 . S
Mg42 O49 1.986 . S
Mg42 O51 2.114 . S
Mg42 O52 2.251 . S
Mg42 O55 2.010 . S
O43 Mg42 2.028 . S
O43 C46 1.250 . S
O44 Mg45 2.028 . S
O44 C46 1.248 . S
Mg45 O44 2.028 . S
Mg45 O50 2.032 . S
Mg45 O52 2.079 . S
C46 O43 1.250 . S
C46 O44 1.248 . S
C47 O48 1.264 . S
C47 O55 1.249 . S
O48 C47 1.264 . S
O49 Mg42 1.986 . S
O49 C53 1.246 . S
O50 Mg45 2.032 . S
O50 C53 1.259 . S
O51 Mg42 2.114 . S
O51 C54 1.252 . S
O52 Mg42 2.251 . S
O52 Mg45 2.079 . S
O52 C54 1.273 . S
C53 O49 1.246 . S
C53 O50 1.259 . S
C54 O51 1.252 . S
C54 O52 1.273 . S
O55 Mg42 2.010 . S
O55 C47 1.249 . S
Mg56 O57 2.028 . S
Mg56 O63 1.986 . S
Mg56 O65 2.114 . S
Mg56 O66 2.251 . S
Mg56 O69 2.010 . S
O57 Mg56 2.028 . S
O57 C60 1.250 . S
O58 Mg59 2.028 . S
O58 C60 1.248 . S
Mg59 O58 2.028 . S
Mg59 O64 2.032 . S
Mg59 O66 2.079 . S
C60 O57 1.250 . S
C60 O58 1.248 . S
C61 O62 1.264 . S
C61 O69 1.249 . S
O62 C61 1.264 . S
O63 Mg56 1.986 . S
O63 C67 1.246 . S
O64 Mg59 2.032 . S
O64 C67 1.259 . S
O65 Mg56 2.114 . S
O65 C68 1.252 . S
O66 Mg56 2.251 . S
O66 Mg59 2.079 . S
O66 C68 1.273 . S
C67 O63 1.246 . S
C67 O64 1.259 . S
C68 O65 1.252 . S
C68 O66 1.273 . S
O69 Mg56 2.010 . S
O69 C61 1.249 . S
Mg70 O71 2.028 . S
Mg70 O77 1.986 . S
Mg70 O79 2.114 . S
Mg70 O80 2.251 . S
Mg70 O83 2.010 . S
O71 Mg70 2.028 . S
O71 C74 1.250 . S
O72 Mg73 2.028 . S
O72 C74 1.248 . S
Mg73 O72 2.028 . S
Mg73 O78 2.032 . S
Mg73 O80 2.079 . S
C74 O71 1.250 . S
C74 O72 1.248 . S
C75 O76 1.264 . S
C75 O83 1.249 . S
O76 C75 1.264 . S
O77 Mg70 1.986 . S
O77 C81 1.246 . S
O78 Mg73 2.032 . S
O78 C81 1.259 . S
O79 Mg70 2.114 . S
O79 C82 1.252 . S
O80 Mg70 2.251 . S
O80 Mg73 2.079 . S
O80 C82 1.273 . S
C81 O77 1.246 . S
C81 O78 1.259 . S
C82 O79 1.252 . S
C82 O80 1.273 . S
O83 Mg70 2.010 . S
O83 C75 1.249 . S
Mg84 O85 2.028 . S
Mg84 O91 1.986 . S
Mg84 O93 2.114 . S
Mg84 O94 2.251 . S
Mg84 O97 2.010 . S
O85 Mg84 2.028 . S
O85 C88 1.250 . S
O86 Mg87 2.028 . S
O86 C88 1.248 . S
Mg87 O86 2.028 . S
Mg87 O92 2.032 . S
Mg87 O94 2.079 . S
C88 O85 1.250 . S
C88 O86 1.248 . S
C89 O90 1.264 . S
C89 O97 1.249 . S
O90 C89 1.264 . S
O91 Mg84 1.986 . S
O91 C95 1.246 . S
O92 Mg87 2.032 . S
O92 C95 1.259 . S
O93 Mg84 2.114 . S
O93 C96 1.252 . S
O94 Mg84 2.251 . S
O94 Mg87 2.079 . S
O94 C96 1.273 . S
C95 O91 1.246 . S
C95 O92 1.259 . S
C96 O93 1.252 . S
C96 O94 1.273 . S
O97 Mg84 2.010 . S
O97 C89 1.249 . S
Mg98 O99 2.028 . S
Mg98 O105 1.986 . S
Mg98 O107 2.114 1_455 S
Mg98 O108 2.251 1_455 S
Mg98 O111 2.010 . S
O99 Mg98 2.028 . S
O99 C102 1.250 . S
O100 Mg101 2.055 . S
O100 C102 1.206 1_655 S
Mg101 O100 2.055 . S
Mg101 O106 2.032 . S
Mg101 O108 2.079 . S
C102 O99 1.250 . S
C102 O100 1.206 1_455 S
C103 O104 1.264 . S
C103 O111 1.249 . S
O104 C103 1.264 . S
O105 Mg98 1.986 . S
O105 C109 1.246 . S
O106 Mg101 2.032 . S
O106 C109 1.259 1_655 S
O107 Mg98 2.114 1_655 S
O107 C110 1.252 . S
O108 Mg98 2.251 1_655 S
O108 Mg101 2.079 . S
O108 C110 1.273 . S
C109 O105 1.246 . S
C109 O106 1.259 1_455 S
C110 O107 1.252 . S
C110 O108 1.273 . S
O111 Mg98 2.010 . S
O111 C103 1.249 . S
Mg112 O113 2.002 1_545 S
Mg112 O119 1.986 . S
Mg112 O121 2.114 . S
Mg112 O122 2.251 . S
Mg112 O125 2.010 . S
O113 Mg112 2.002 1_565 S
O113 C116 1.267 . S
O114 Mg115 2.028 1_565 S
O114 C116 1.248 . S
Mg115 O114 2.028 1_545 S
Mg115 O120 2.032 . S
Mg115 O122 2.079 . S
C116 O113 1.267 . S
C116 O114 1.248 . S
C117 O118 1.264 . S
C117 O125 1.249 . S
O118 C117 1.264 . S
O119 Mg112 1.986 . S
O119 C123 1.246 . S
O120 Mg115 2.032 . S
O120 C123 1.259 . S
O121 Mg112 2.114 . S
O121 C124 1.252 . S
O122 Mg112 2.251 . S
O122 Mg115 2.079 . S
O122 C124 1.273 . S
C123 O119 1.246 . S
C123 O120 1.259 . S
C124 O121 1.252 . S
C124 O122 1.273 . S
O125 Mg112 2.010 . S
O125 C117 1.249 . S
Mg126 O127 2.028 . S
Mg126 O133 1.986 . S
Mg126 O135 2.114 . S
Mg126 O136 2.251 . S
Mg126 O139 2.010 . S
O127 Mg126 2.028 . S
O127 C130 1.250 . S
O128 Mg129 2.028 . S
O128 C130 1.248 . S
Mg129 O128 2.028 . S
Mg129 O134 2.032 . S
Mg129 O136 2.079 . S
C130 O127 1.250 . S
C130 O128 1.248 . S
C131 O132 1.264 . S
C131 O139 1.249 . S
O132 C131 1.264 . S
O133 Mg126 1.986 . S
O133 C137 1.246 . S
O134 Mg129 2.032 . S
O134 C137 1.259 . S
O135 Mg126 2.114 . S
O135 C138 1.252 . S
O136 Mg126 2.251 . S
O136 Mg129 2.079 . S
O136 C138 1.273 . S
C137 O133 1.246 . S
C137 O134 1.259 . S
C138 O135 1.252 . S
C138 O136 1.273 . S
O139 Mg126 2.010 . S
O139 C131 1.249 . S
Mg140 O141 2.028 . S
Mg140 O147 1.986 1_545 S
Mg140 O149 2.114 . S
Mg140 O150 2.251 . S
Mg140 O153 2.010 . S
O141 Mg140 2.028 . S
O141 C144 1.250 . S
O142 Mg143 2.028 . S
O142 C144 1.248 . S
Mg143 O142 2.028 . S
Mg143 O148 2.032 . S
Mg143 O150 2.079 . S
C144 O141 1.250 . S
C144 O142 1.248 . S
C145 O146 1.264 1_545 S
C145 O153 1.249 . S
O146 C145 1.264 1_565 S
O147 Mg140 1.986 1_565 S
O147 C151 1.246 . S
O148 Mg143 2.032 . S
O148 C151 1.259 1_545 S
O149 Mg140 2.114 . S
O149 C152 1.252 . S
O150 Mg140 2.251 . S
O150 Mg143 2.079 . S
O150 C152 1.273 . S
C151 O147 1.246 . S
C151 O148 1.259 1_565 S
C152 O149 1.252 . S
C152 O150 1.273 . S
O153 Mg140 2.010 . S
O153 C145 1.249 . S
Mg154 O155 2.028 1_554 S
Mg154 O161 1.986 . S
Mg154 O163 2.114 1_554 S
Mg154 O164 2.251 . S
Mg154 O167 2.010 . S
O155 Mg154 2.028 1_556 S
O155 C158 1.250 . S
O156 Mg157 2.028 1_556 S
O156 C158 1.248 . S
Mg157 O156 2.028 1_554 S
Mg157 O162 2.032 . S
Mg157 O164 2.079 . S
C158 O155 1.250 . S
C158 O156 1.248 . S
C159 O160 1.264 . S
C159 O167 1.249 . S
O160 C159 1.264 . S
O161 Mg154 1.986 . S
O161 C165 1.246 . S
O162 Mg157 2.032 . S
O162 C165 1.259 . S
O163 Mg154 2.114 1_556 S
O163 C166 1.252 1_556 S
O164 Mg154 2.251 . S
O164 Mg157 2.079 . S
O164 C166 1.273 . S
C165 O161 1.246 . S
C165 O162 1.259 . S
C166 O163 1.252 1_554 S
C166 O164 1.273 . S
O167 Mg154 2.010 . S
O167 C159 1.249 . S
Mg168 O169 2.028 . S
Mg168 O175 1.986 . S
Mg168 O177 2.114 . S
Mg168 O178 2.251 . S
Mg168 O181 2.010 . S
O169 Mg168 2.028 . S
O169 C172 1.250 1_554 S
O170 Mg171 2.057 . S
O170 C172 1.238 1_554 S
Mg171 O170 2.057 . S
Mg171 O176 2.032 . S
Mg171 O178 2.079 . S
C172 O169 1.250 1_556 S
C172 O170 1.238 1_556 S
C173 O174 1.264 . S
C173 O181 1.249 . S
O174 C173 1.264 . S
O175 Mg168 1.986 . S
O175 C179 1.246 . S
O176 Mg171 2.032 . S
O176 C179 1.259 . S
O177 Mg168 2.114 . S
O177 C180 1.252 . S
O178 Mg168 2.251 . S
O178 Mg171 2.079 . S
O178 C180 1.273 . S
C179 O175 1.246 . S
C179 O176 1.259 . S
C180 O177 1.252 . S
C180 O178 1.273 . S
O181 Mg168 2.010 . S
O181 C173 1.249 . S
Mg182 O183 2.028 . S
Mg182 O189 1.986 . S
Mg182 O191 2.114 . S
Mg182 O192 2.251 . S
Mg182 O195 2.010 . S
O183 Mg182 2.028 . S
O183 C186 1.250 . S
O184 Mg185 2.028 . S
O184 C186 1.248 . S
Mg185 O184 2.028 . S
Mg185 O190 2.032 . S
Mg185 O192 2.079 . S
C186 O183 1.250 . S
C186 O184 1.248 . S
C187 O188 1.264 . S
C187 O195 1.249 . S
O188 C187 1.264 . S
O189 Mg182 1.986 . S
O189 C193 1.246 . S
O190 Mg185 2.032 . S
O190 C193 1.259 . S
O191 Mg182 2.114 . S
O191 C194 1.252 . S
O192 Mg182 2.251 . S
O192 Mg185 2.079 . S
O192 C194 1.273 . S
C193 O189 1.246 . S
C193 O190 1.259 . S
C194 O191 1.252 . S
C194 O192 1.273 . S
O195 Mg182 2.010 . S
O195 C187 1.249 . S
Mg196 O197 2.028 . S
Mg196 O203 1.986 . S
Mg196 O205 2.114 . S
Mg196 O206 2.251 . S
Mg196 O209 2.010 . S
O197 Mg196 2.028 . S
O197 C200 1.250 . S
O198 Mg199 2.028 . S
O198 C200 1.248 . S
Mg199 O198 2.028 . S
Mg199 O204 2.032 . S
Mg199 O206 2.079 . S
C200 O197 1.250 . S
C200 O198 1.248 . S
C201 O202 1.264 . S
C201 O209 1.249 . S
O202 C201 1.264 . S
O203 Mg196 1.986 . S
O203 C207 1.246 . S
O204 Mg199 2.032 . S
O204 C207 1.259 . S
O205 Mg196 2.114 . S
O205 C208 1.252 . S
O206 Mg196 2.251 . S
O206 Mg199 2.079 . S
O206 C208 1.273 . S
C207 O203 1.246 . S
C207 O204 1.259 . S
C208 O205 1.252 . S
C208 O206 1.273 . S
O209 Mg196 2.010 . S
O209 C201 1.249 . S
Mg210 O211 2.028 . S
Mg210 O217 1.986 . S
Mg210 O219 2.114 . S
Mg210 O220 2.251 . S
Mg210 O223 2.010 . S
O211 Mg210 2.028 . S
O211 C214 1.250 . S
O212 Mg213 2.028 . S
O212 C214 1.248 . S
Mg213 O212 2.028 . S
Mg213 O218 2.032 . S
Mg213 O220 2.079 . S
C214 O211 1.250 . S
C214 O212 1.248 . S
C215 O216 1.264 . S
C215 O223 1.249 . S
O216 C215 1.264 . S
O217 Mg210 1.986 . S
O217 C221 1.246 . S
O218 Mg213 2.032 . S
O218 C221 1.259 . S
O219 Mg210 2.114 . S
O219 C222 1.252 . S
O220 Mg210 2.251 . S
O220 Mg213 2.079 . S
O220 C222 1.273 . S
C221 O217 1.246 . S
C221 O218 1.259 . S
C222 O219 1.252 . S
C222 O220 1.273 . S
O223 Mg210 2.010 . S
O223 C215 1.249 . S
Mg224 O225 2.028 1_545 S
Mg224 O231 1.986 . S
Mg224 O233 2.114 . S
Mg224 O234 2.251 . S
Mg224 O237 2.010 . S
O225 Mg224 2.028 1_565 S
O225 C228 1.250 . S
O226 Mg227 2.028 1_565 S
O226 C228 1.248 . S
Mg227 O226 2.028 1_545 S
Mg227 O232 2.032 . S
Mg227 O234 2.079 . S
C228 O225 1.250 . S
C228 O226 1.248 . S
C229 O230 1.264 . S
C229 O237 1.249 . S
O230 C229 1.264 . S
O231 Mg224 1.986 . S
O231 C235 1.246 . S
O232 Mg227 2.032 . S
O232 C235 1.259 . S
O233 Mg224 2.114 . S
O233 C236 1.252 . S
O234 Mg224 2.251 . S
O234 Mg227 2.079 . S
O234 C236 1.273 . S
C235 O231 1.246 . S
C235 O232 1.259 . S
C236 O233 1.252 . S
C236 O234 1.273 . S
O237 Mg224 2.010 . S
O237 C229 1.249 . S
Mg238 O239 2.028 . S
Mg238 O245 1.986 . S
Mg238 O247 2.114 . S
Mg238 O248 2.251 . S
Mg238 O251 2.010 . S
O239 Mg238 2.028 . S
O239 C242 1.250 . S
O240 Mg241 2.028 . S
O240 C242 1.248 . S
Mg241 O240 2.028 . S
Mg241 O246 2.032 . S
Mg241 O248 2.079 . S
C242 O239 1.250 . S
C242 O240 1.248 . S
C243 O244 1.264 . S
C243 O251 1.249 . S
O244 C243 1.264 . S
O245 Mg238 1.986 . S
O245 C249 1.246 . S
O246 Mg241 2.032 . S
O246 C249 1.259 . S
O247 Mg238 2.114 . S
O247 C250 1.252 . S
O248 Mg238 2.251 . S
O248 Mg241 2.079 . S
O248 C250 1.273 . S
C249 O245 1.246 . S
C249 O246 1.259 . S
C250 O247 1.252 . S
C250 O248 1.273 . S
O251 Mg238 2.010 . S
O251 C243 1.249 . S
Mg252 O253 2.028 . S
Mg252 O259 1.986 . S
Mg252 O261 2.114 . S
Mg252 O262 2.251 . S
Mg252 O265 2.010 . S
O253 Mg252 2.028 . S
O253 C256 1.250 . S
O254 Mg255 2.028 . S
O254 C256 1.248 . S
Mg255 O254 2.028 . S
Mg255 O260 2.032 . S
Mg255 O262 2.079 . S
C256 O253 1.250 . S
C256 O254 1.248 . S
C257 O258 1.264 . S
C257 O265 1.249 . S
O258 C257 1.264 . S
O259 Mg252 1.986 . S
O259 C263 1.246 . S
O260 Mg255 2.032 . S
O260 C263 1.259 . S
O261 Mg252 2.114 . S
O261 C264 1.252 . S
O262 Mg252 2.251 . S
O262 Mg255 2.079 . S
O262 C264 1.273 . S
C263 O259 1.246 . S
C263 O260 1.259 . S
C264 O261 1.252 . S
C264 O262 1.273 . S
O265 Mg252 2.010 . S
O265 C257 1.249 . S
Mg266 O267 2.028 . S
Mg266 O273 1.986 1_545 S
Mg266 O275 2.114 . S
Mg266 O276 2.251 . S
Mg266 O279 2.011 1_545 S
O267 Mg266 2.028 . S
O267 C270 1.250 . S
O268 Mg269 2.028 . S
O268 C270 1.248 . S
Mg269 O268 2.028 . S
Mg269 O274 2.032 1_545 S
Mg269 O276 2.079 . S
C270 O267 1.250 . S
C270 O268 1.248 . S
C271 O272 1.246 1_545 S
C271 O279 1.233 1_545 S
O272 C271 1.246 1_565 S
O273 Mg266 1.986 1_565 S
O273 C277 1.246 . S
O274 Mg269 2.032 1_565 S
O274 C277 1.259 . S
O275 Mg266 2.114 . S
O275 C278 1.252 . S
O276 Mg266 2.251 . S
O276 Mg269 2.079 . S
O276 C278 1.273 . S
C277 O273 1.246 . S
C277 O274 1.259 . S
C278 O275 1.252 . S
C278 O276 1.273 . S
O279 Mg266 2.011 1_565 S
O279 C271 1.233 1_565 S
Mg280 O281 2.028 . S
Mg280 O287 1.986 1_554 S
Mg280 O289 2.114 . S
Mg280 O290 2.251 . S
Mg280 O293 2.010 . S
O281 Mg280 2.028 . S
O281 C284 1.250 . S
O282 Mg283 2.028 . S
O282 C284 1.248 . S
Mg283 O282 2.028 . S
Mg283 O288 2.032 . S
Mg283 O290 2.079 . S
C284 O281 1.250 . S
C284 O282 1.248 . S
C285 O286 1.264 1_554 S
C285 O293 1.249 . S
O286 C285 1.264 1_556 S
O287 Mg280 1.986 1_556 S
O287 C291 1.246 . S
O288 Mg283 2.032 . S
O288 C291 1.259 1_554 S
O289 Mg280 2.114 . S
O289 C292 1.252 . S
O290 Mg280 2.251 . S
O290 Mg283 2.079 . S
O290 C292 1.273 . S
C291 O287 1.246 . S
C291 O288 1.259 1_556 S
C292 O289 1.252 . S
C292 O290 1.273 . S
O293 Mg280 2.010 . S
O293 C285 1.249 . S
Mg294 O295 2.028 . S
Mg294 O301 1.986 . S
Mg294 O303 2.114 . S
Mg294 O304 2.251 . S
Mg294 O307 2.010 . S
O295 Mg294 2.028 . S
O295 C298 1.250 . S
O296 Mg297 2.028 . S
O296 C298 1.248 . S
Mg297 O296 2.028 . S
Mg297 O302 2.032 . S
Mg297 O304 2.079 . S
C298 O295 1.250 . S
C298 O296 1.248 . S
C299 O300 1.264 . S
C299 O307 1.249 . S
O300 C299 1.264 . S
O301 Mg294 1.986 . S
O301 C305 1.246 . S
O302 Mg297 2.032 . S
O302 C305 1.259 . S
O303 Mg294 2.114 . S
O303 C306 1.252 . S
O304 Mg294 2.251 . S
O304 Mg297 2.079 . S
O304 C306 1.273 . S
C305 O301 1.246 . S
C305 O302 1.259 . S
C306 O303 1.252 . S
C306 O304 1.273 . S
O307 Mg294 2.010 . S
O307 C299 1.249 . S
Mg308 O309 2.028 . S
Mg308 O315 1.986 . S
Mg308 O317 2.114 . S
Mg308 O318 2.251 . S
Mg308 O321 2.010 . S
O309 Mg308 2.028 . S
O309 C312 1.250 . S
O310 Mg311 2.028 . S
O310 C312 1.248 . S
Mg311 O310 2.028 . S
Mg311 O316 2.032 . S
Mg311 O318 2.079 . S
C312 O309 1.250 . S
C312 O310 1.248 . S
C313 O314 1.264 . S
C313 O321 1.249 . S
O314 C313 1.264 . S
O315 Mg308 1.986 . S
O315 C319 1.246 . S
O316 Mg311 2.032 . S
O316 C319 1.259 . S
O317 Mg308 2.114 . S
O317 C320 1.252 . S
O318 Mg308 2.251 . S
O318 Mg311 2.079 . S
O318 C320 1.273 . S
C319 O315 1.246 . S
C319 O316 1.259 . S
C320 O317 1.252 . S
C320 O318 1.273 . S
O321 Mg308 2.010 . S
O321 C313 1.249 . S
Mg322 O323 2.028 . S
Mg322 O329 1.986 . S
Mg322 O331 2.114 . S
Mg322 O332 2.251 . S
Mg322 O335 2.010 . S
O323 Mg322 2.028 . S
O323 C326 1.250 . S
O324 Mg325 2.028 . S
O324 C326 1.248 . S
Mg325 O324 2.028 . S
Mg325 O330 2.032 . S
Mg325 O332 2.079 . S
C326 O323 1.250 . S
C326 O324 1.248 . S
C327 O328 1.264 . S
C327 O335 1.249 . S
O328 C327 1.264 . S
O329 Mg322 1.986 . S
O329 C333 1.246 . S
O330 Mg325 2.032 . S
O330 C333 1.259 . S
O331 Mg322 2.114 . S
O331 C334 1.252 . S
O332 Mg322 2.251 . S
O332 Mg325 2.079 . S
O332 C334 1.273 . S
C333 O329 1.246 . S
C333 O330 1.259 . S
C334 O331 1.252 . S
C334 O332 1.273 . S
O335 Mg322 2.010 . S
O335 C327 1.249 . S
Tb336 C338 2.808 . S
Tb336 O356 2.484 . S
Tb336 O357 2.440 1_554 S
Tb336 O358 2.658 1_654 S
Tb336 O359 2.409 1_654 S
Tb336 O360 2.378 1_655 S
Tb336 O364 2.325 1_655 S
Tb336 O367 2.341 1_645 S
Tb337 C347 2.809 1_545 S
Tb337 O358 2.325 1_554 S
Tb337 O361 2.341 . S
Tb337 O362 2.484 1_545 S
Tb337 O363 2.440 . S
Tb337 O364 2.658 . S
Tb337 O365 2.409 . S
Tb337 O366 2.378 1_545 S
C338 Tb336 2.808 . S
C338 C339 1.514 1_554 S
C338 O356 1.245 . S
C338 O357 1.268 1_554 S
C339 C338 1.514 1_556 S
C339 C340 1.359 1_556 S
C339 C344 1.348 . S
C340 C339 1.359 1_554 S
C340 C341 1.380 . S
C340 H368 0.929 . S
C341 C340 1.380 . S
C341 C342 1.347 1_554 S
C341 H369 0.931 . S
C342 C341 1.347 1_556 S
C342 C343 1.369 . S
C343 C342 1.369 . S
C343 C344 1.408 . S
C343 H370 0.930 . S
C344 C339 1.348 . S
C344 C343 1.408 . S
C344 H371 0.930 . S
C345 O358 1.281 . S
C345 O359 1.254 . S
C346 O360 1.236 . S
C346 O361 1.266 . S
C347 Tb337 2.809 1_565 S
C347 C348 1.514 . S
C347 O362 1.248 . S
C347 O363 1.266 1_565 S
C348 C347 1.514 . S
C348 C349 1.359 . S
C348 C353 1.348 . S
C349 C348 1.359 . S
C349 C350 1.380 . S
C349 H372 0.929 . S
C350 C349 1.380 . S
C350 C351 1.347 . S
C350 H373 0.931 . S
C351 C350 1.347 . S
C351 C352 1.369 . S
C352 C351 1.369 . S
C352 C353 1.408 . S
C352 H374 0.930 . S
C353 C348 1.348 . S
C353 C352 1.408 . S
C353 H375 0.930 . S
C354 O364 1.281 . S
C354 O365 1.254 . S
C355 O366 1.236 . S
C355 O367 1.266 . S
O356 Tb336 2.484 . S
O356 C338 1.245 . S
O357 Tb336 2.440 1_556 S
O357 C338 1.268 1_556 S
O358 Tb336 2.658 1_456 S
O358 Tb337 2.325 1_556 S
O358 C345 1.281 . S
O359 Tb336 2.409 1_456 S
O359 C345 1.254 . S
O360 Tb336 2.378 1_455 S
O360 C346 1.236 . S
O361 Tb337 2.341 . S
O361 C346 1.266 . S
O362 Tb337 2.484 1_565 S
O362 C347 1.248 . S
O363 Tb337 2.440 . S
O363 C347 1.266 1_545 S
O364 Tb336 2.325 1_455 S
O364 Tb337 2.658 . S
O364 C354 1.281 . S
O365 Tb337 2.409 . S
O365 C354 1.254 . S
O366 Tb337 2.378 1_565 S
O366 C355 1.236 . S
O367 Tb336 2.341 1_465 S
O367 C355 1.266 . S
H368 C340 0.929 . S
H369 C341 0.931 . S
H370 C343 0.930 . S
H371 C344 0.930 . S
H372 C349 0.929 . S
H373 C350 0.931 . S
H374 C352 0.930 . S
H375 C353 0.930 . S
Tb376 C378 2.809 . S
Tb376 O396 2.484 . S
Tb376 O397 2.440 . S
Tb376 O398 2.658 . S
Tb376 O399 2.409 . S
Tb376 O400 2.378 . S
Tb376 O404 2.325 . S
Tb376 O407 2.341 . S
Tb377 C387 2.809 . S
Tb377 O398 2.325 . S
Tb377 O401 2.341 . S
Tb377 O402 2.484 . S
Tb377 O403 2.440 . S
Tb377 O404 2.658 . S
Tb377 O405 2.409 . S
Tb377 O406 2.378 . S
C378 Tb376 2.809 . S
C378 C379 1.514 . S
C378 O396 1.248 . S
C378 O397 1.266 . S
C379 C378 1.514 . S
C379 C380 1.359 . S
C379 C384 1.348 . S
C380 C379 1.359 . S
C380 C381 1.380 . S
C380 H408 0.929 . S
C381 C380 1.380 . S
C381 C382 1.347 . S
C381 H409 0.931 . S
C382 C381 1.347 . S
C382 C383 1.369 . S
C383 C382 1.369 . S
C383 C384 1.408 . S
C383 H410 0.930 . S
C384 C379 1.348 . S
C384 C383 1.408 . S
C384 H411 0.930 . S
C385 O398 1.281 . S
C385 O399 1.254 . S
C386 O400 1.236 . S
C386 O401 1.266 . S
C387 Tb377 2.809 . S
C387 C388 1.514 . S
C387 O402 1.248 . S
C387 O403 1.266 . S
C388 C387 1.514 . S
C388 C389 1.359 . S
C388 C393 1.348 . S
C389 C388 1.359 . S
C389 C390 1.380 . S
C389 H412 0.929 . S
C390 C389 1.380 . S
C390 C391 1.347 . S
C390 H413 0.931 . S
C391 C390 1.347 . S
C391 C392 1.369 . S
C392 C391 1.369 . S
C392 C393 1.408 . S
C392 H414 0.930 . S
C393 C388 1.348 . S
C393 C392 1.408 . S
C393 H415 0.930 . S
C394 O404 1.281 . S
C394 O405 1.254 . S
C395 O406 1.236 . S
C395 O407 1.266 . S
O396 Tb376 2.484 . S
O396 C378 1.248 . S
O397 Tb376 2.440 . S
O397 C378 1.266 . S
O398 Tb376 2.658 . S
O398 Tb377 2.325 . S
O398 C385 1.281 . S
O399 Tb376 2.409 . S
O399 C385 1.254 . S
O400 Tb376 2.378 . S
O400 C386 1.236 . S
O401 Tb377 2.341 . S
O401 C386 1.266 . S
O402 Tb377 2.484 . S
O402 C387 1.248 . S
O403 Tb377 2.440 . S
O403 C387 1.266 . S
O404 Tb376 2.325 . S
O404 Tb377 2.658 . S
O404 C394 1.281 . S
O405 Tb377 2.409 . S
O405 C394 1.254 . S
O406 Tb377 2.378 . S
O406 C395 1.236 . S
O407 Tb376 2.341 . S
O407 C395 1.266 . S
H408 C380 0.929 . S
H409 C381 0.931 . S
H410 C383 0.930 . S
H411 C384 0.930 . S
H412 C389 0.929 . S
H413 C390 0.931 . S
H414 C392 0.930 . S
H415 C393 0.930 . S
Tb416 C418 2.809 1_545 S
Tb416 O436 2.439 1_545 S
Tb416 O437 2.440 . S
Tb416 O438 2.658 . S
Tb416 O439 2.409 . S
Tb416 O440 2.378 1_545 S
Tb416 O444 2.325 . S
Tb416 O447 2.341 . S
Tb417 C427 2.809 . S
Tb417 O438 2.325 . S
Tb417 O441 2.341 1_545 S
Tb417 O442 2.484 . S
Tb417 O443 2.440 . S
Tb417 O444 2.658 . S
Tb417 O445 2.409 . S
Tb417 O446 2.378 . S
C418 Tb416 2.809 1_565 S
C418 C419 1.514 . S
C418 O436 1.248 . S
C418 O437 1.266 1_565 S
C419 C418 1.514 . S
C419 C420 1.359 . S
C419 C424 1.348 . S
C420 C419 1.359 . S
C420 C421 1.380 . S
C420 H448 0.929 . S
C421 C420 1.380 . S
C421 C422 1.347 . S
C421 H449 0.931 . S
C422 C421 1.347 . S
C422 C423 1.369 . S
C423 C422 1.369 . S
C423 C424 1.408 . S
C423 H450 0.930 . S
C424 C419 1.348 . S
C424 C423 1.408 . S
C424 H451 0.930 . S
C425 O438 1.281 . S
C425 O439 1.254 . S
C426 O440 1.236 . S
C426 O441 1.266 . S
C427 Tb417 2.809 . S
C427 C428 1.514 . S
C427 O442 1.248 . S
C427 O443 1.266 . S
C428 C427 1.514 . S
C428 C429 1.359 . S
C428 C433 1.348 . S
C429 C428 1.359 . S
C429 C430 1.380 . S
C429 H452 0.929 . S
C430 C429 1.380 . S
C430 C431 1.347 . S
C430 H453 0.931 . S
C431 C430 1.347 . S
C431 C432 1.369 . S
C432 C431 1.369 . S
C432 C433 1.408 . S
C432 H454 0.930 . S
C433 C428 1.348 . S
C433 C432 1.408 . S
C433 H455 0.930 . S
C434 O444 1.281 . S
C434 O445 1.254 . S
C435 O446 1.236 . S
C435 O447 1.266 . S
O436 Tb416 2.439 1_565 S
O436 C418 1.248 . S
O437 Tb416 2.440 . S
O437 C418 1.266 1_545 S
O438 Tb416 2.658 . S
O438 Tb417 2.325 . S
O438 C425 1.281 . S
O439 Tb416 2.409 . S
O439 C425 1.254 . S
O440 Tb416 2.378 1_565 S
O440 C426 1.236 . S
O441 Tb417 2.341 1_565 S
O441 C426 1.266 . S
O442 Tb417 2.484 . S
O442 C427 1.248 . S
O443 Tb417 2.440 . S
O443 C427 1.266 . S
O444 Tb416 2.325 . S
O444 Tb417 2.658 . S
O444 C434 1.281 . S
O445 Tb417 2.409 . S
O445 C434 1.254 . S
O446 Tb417 2.378 . S
O446 C435 1.236 . S
O447 Tb416 2.341 . S
O447 C435 1.266 . S
H448 C420 0.929 . S
H449 C421 0.931 . S
H450 C423 0.930 . S
H451 C424 0.930 . S
H452 C429 0.929 . S
H453 C430 0.931 . S
H454 C432 0.930 . S
H455 C433 0.930 . S
Tb456 C458 2.809 . S
Tb456 O476 2.484 . S
Tb456 O477 2.440 . S
Tb456 O478 2.658 . S
Tb456 O479 2.409 . S
Tb456 O480 2.378 . S
Tb456 O484 2.325 . S
Tb456 O487 2.341 . S
Tb457 C467 2.809 . S
Tb457 O478 2.325 . S
Tb457 O481 2.341 . S
Tb457 O482 2.484 . S
Tb457 O483 2.440 . S
Tb457 O484 2.658 . S
Tb457 O485 2.409 . S
Tb457 O486 2.378 . S
C458 Tb456 2.809 . S
C458 C459 1.514 . S
C458 O476 1.248 . S
C458 O477 1.266 . S
C459 C458 1.514 . S
C459 C460 1.359 . S
C459 C464 1.348 . S
C460 C459 1.359 . S
C460 C461 1.380 . S
C460 H488 0.929 . S
C461 C460 1.380 . S
C461 C462 1.347 . S
C461 H489 0.931 . S
C462 C461 1.347 . S
C462 C463 1.369 . S
C463 C462 1.369 . S
C463 C464 1.408 . S
C463 H490 0.930 . S
C464 C459 1.348 . S
C464 C463 1.408 . S
C464 H491 0.930 . S
C465 O478 1.281 . S
C465 O479 1.254 . S
C466 O480 1.236 . S
C466 O481 1.266 . S
C467 Tb457 2.809 . S
C467 C468 1.514 . S
C467 O482 1.248 . S
C467 O483 1.266 . S
C468 C467 1.514 . S
C468 C469 1.359 . S
C468 C473 1.348 . S
C469 C468 1.359 . S
C469 C470 1.380 . S
C469 H492 0.929 . S
C470 C469 1.380 . S
C470 C471 1.347 . S
C470 H493 0.931 . S
C471 C470 1.347 . S
C471 C472 1.369 . S
C472 C471 1.369 . S
C472 C473 1.408 . S
C472 H494 0.930 . S
C473 C468 1.348 . S
C473 C472 1.408 . S
C473 H495 0.930 . S
C474 O484 1.281 . S
C474 O485 1.254 . S
C475 O486 1.236 . S
C475 O487 1.266 . S
O476 Tb456 2.484 . S
O476 C458 1.248 . S
O477 Tb456 2.440 . S
O477 C458 1.266 . S
O478 Tb456 2.658 . S
O478 Tb457 2.325 . S
O478 C465 1.281 . S
O479 Tb456 2.409 . S
O479 C465 1.254 . S
O480 Tb456 2.378 . S
O480 C466 1.236 . S
O481 Tb457 2.341 . S
O481 C466 1.266 . S
O482 Tb457 2.484 . S
O482 C467 1.248 . S
O483 Tb457 2.440 . S
O483 C467 1.266 . S
O484 Tb456 2.325 . S
O484 Tb457 2.658 . S
O484 C474 1.281 . S
O485 Tb457 2.409 . S
O485 C474 1.254 . S
O486 Tb457 2.378 . S
O486 C475 1.236 . S
O487 Tb456 2.341 . S
O487 C475 1.266 . S
H488 C460 0.929 . S
H489 C461 0.931 . S
H490 C463 0.930 . S
H491 C464 0.930 . S
H492 C469 0.929 . S
H493 C470 0.931 . S
H494 C472 0.930 . S
H495 C473 0.930 . S
Tb496 C498 2.809 . S
Tb496 O516 2.484 . S
Tb496 O517 2.440 1_455 S
Tb496 O518 2.658 . S
Tb496 O519 2.409 1_455 S
Tb496 O520 2.378 . S
Tb496 O524 2.325 . S
Tb496 O527 2.341 . S
Tb497 C507 2.809 . S
Tb497 O518 2.325 1_565 S
Tb497 O521 2.341 . S
Tb497 O522 2.484 . S
Tb497 O523 2.440 . S
Tb497 O524 2.658 1_565 S
Tb497 O525 2.409 1_565 S
Tb497 O526 2.378 1_565 S
C498 Tb496 2.809 . S
C498 C499 1.514 . S
C498 O516 1.248 . S
C498 O517 1.266 1_455 S
C499 C498 1.514 . S
C499 C500 1.359 . S
C499 C504 1.348 1_455 S
C500 C499 1.359 . S
C500 C501 1.380 . S
C500 H528 0.929 . S
C501 C500 1.380 . S
C501 C502 1.347 1_455 S
C501 H529 0.931 . S
C502 C501 1.347 1_655 S
C502 C503 1.369 . S
C503 C502 1.369 . S
C503 C504 1.408 . S
C503 H530 0.930 . S
C504 C499 1.348 1_655 S
C504 C503 1.408 . S
C504 H531 0.930 . S
C505 O518 1.281 1_655 S
C505 O519 1.254 . S
C506 O520 1.236 . S
C506 O521 1.266 1_545 S
C507 Tb497 2.809 . S
C507 C508 1.514 . S
C507 O522 1.248 . S
C507 O523 1.266 . S
C508 C507 1.514 . S
C508 C509 1.359 . S
C508 C513 1.348 . S
C509 C508 1.359 . S
C509 C510 1.380 . S
C509 H532 0.929 . S
C510 C509 1.380 . S
C510 C511 1.347 . S
C510 H533 0.931 . S
C511 C510 1.347 . S
C511 C512 1.369 . S
C512 C511 1.369 . S
C512 C513 1.408 . S
C512 H534 0.930 . S
C513 C508 1.348 . S
C513 C512 1.408 . S
C513 H535 0.930 . S
C514 O524 1.281 . S
C514 O525 1.254 . S
C515 O526 1.236 . S
C515 O527 1.266 . S
O516 Tb496 2.484 . S
O516 C498 1.248 . S
O517 Tb496 2.440 1_655 S
O517 C498 1.266 1_655 S
O518 Tb496 2.658 . S
O518 Tb497 2.325 1_545 S
O518 C505 1.281 1_455 S
O519 Tb496 2.409 1_655 S
O519 C505 1.254 . S
O520 Tb496 2.378 . S
O520 C506 1.236 . S
O521 Tb497 2.341 . S
O521 C506 1.266 1_565 S
O522 Tb497 2.484 . S
O522 C507 1.248 . S
O523 Tb497 2.440 . S
O523 C507 1.266 . S
O524 Tb496 2.325 . S
O524 Tb497 2.658 1_545 S
O524 C514 1.281 . S
O525 Tb497 2.409 1_545 S
O525 C514 1.254 . S
O526 Tb497 2.378 1_545 S
O526 C515 1.236 . S
O527 Tb496 2.341 . S
O527 C515 1.266 . S
H528 C500 0.929 . S
H529 C501 0.931 . S
H530 C503 0.930 . S
H531 C504 0.930 . S
H532 C509 0.929 . S
H533 C510 0.931 . S
H534 C512 0.930 . S
H535 C513 0.930 . S
Tb536 C538 2.809 . S
Tb536 O556 2.484 . S
Tb536 O557 2.440 . S
Tb536 O558 2.658 . S
Tb536 O559 2.409 . S
Tb536 O560 2.378 . S
Tb536 O564 2.325 . S
Tb536 O567 2.341 . S
Tb537 C547 2.809 . S
Tb537 O558 2.325 . S
Tb537 O561 2.341 . S
Tb537 O562 2.484 . S
Tb537 O563 2.440 . S
Tb537 O564 2.658 . S
Tb537 O565 2.409 . S
Tb537 O566 2.378 . S
C538 Tb536 2.809 . S
C538 C539 1.514 . S
C538 O556 1.248 . S
C538 O557 1.266 . S
C539 C538 1.514 . S
C539 C540 1.359 . S
C539 C544 1.348 . S
C540 C539 1.359 . S
C540 C541 1.380 . S
C540 H568 0.929 . S
C541 C540 1.380 . S
C541 C542 1.347 . S
C541 H569 0.931 . S
C542 C541 1.347 . S
C542 C543 1.369 . S
C543 C542 1.369 . S
C543 C544 1.408 . S
C543 H570 0.930 . S
C544 C539 1.348 . S
C544 C543 1.408 . S
C544 H571 0.930 . S
C545 O558 1.281 . S
C545 O559 1.254 . S
C546 O560 1.236 . S
C546 O561 1.266 . S
C547 Tb537 2.809 . S
C547 C548 1.514 . S
C547 O562 1.248 . S
C547 O563 1.266 . S
C548 C547 1.514 . S
C548 C549 1.359 . S
C548 C553 1.348 . S
C549 C548 1.359 . S
C549 C550 1.380 . S
C549 H572 0.929 . S
C550 C549 1.380 . S
C550 C551 1.347 . S
C550 H573 0.931 . S
C551 C550 1.347 . S
C551 C552 1.369 . S
C552 C551 1.369 . S
C552 C553 1.408 . S
C552 H574 0.930 . S
C553 C548 1.348 . S
C553 C552 1.408 . S
C553 H575 0.930 . S
C554 O564 1.281 . S
C554 O565 1.254 . S
C555 O566 1.236 . S
C555 O567 1.266 . S
O556 Tb536 2.484 . S
O556 C538 1.248 . S
O557 Tb536 2.440 . S
O557 C538 1.266 . S
O558 Tb536 2.658 . S
O558 Tb537 2.325 . S
O558 C545 1.281 . S
O559 Tb536 2.409 . S
O559 C545 1.254 . S
O560 Tb536 2.378 . S
O560 C546 1.236 . S
O561 Tb537 2.341 . S
O561 C546 1.266 . S
O562 Tb537 2.484 . S
O562 C547 1.248 . S
O563 Tb537 2.440 . S
O563 C547 1.266 . S
O564 Tb536 2.325 . S
O564 Tb537 2.658 . S
O564 C554 1.281 . S
O565 Tb537 2.409 . S
O565 C554 1.254 . S
O566 Tb537 2.378 . S
O566 C555 1.236 . S
O567 Tb536 2.341 . S
O567 C555 1.266 . S
H568 C540 0.929 . S
H569 C541 0.931 . S
H570 C543 0.930 . S
H571 C544 0.930 . S
H572 C549 0.929 . S
H573 C550 0.931 . S
H574 C552 0.930 . S
H575 C553 0.930 . S
Tb576 C578 2.809 1_545 S
Tb576 O596 2.484 1_545 S
Tb576 O597 2.440 . S
Tb576 O598 2.658 . S
Tb576 O599 2.409 . S
Tb576 O600 2.378 . S
Tb576 O604 2.325 1_545 S
Tb576 O607 2.341 1_554 S
Tb577 C587 2.809 . S
Tb577 O598 2.325 . S
Tb577 O601 2.341 . S
Tb577 O602 2.484 . S
Tb577 O603 2.440 . S
Tb577 O604 2.658 1_545 S
Tb577 O605 2.409 1_545 S
Tb577 O606 2.378 . S
C578 Tb576 2.809 1_565 S
C578 C579 1.514 . S
C578 O596 1.248 . S
C578 O597 1.266 1_565 S
C579 C578 1.514 . S
C579 C580 1.359 . S
C579 C584 1.348 1_565 S
C580 C579 1.359 . S
C580 C581 1.380 . S
C580 H608 0.929 . S
C581 C580 1.380 . S
C581 C582 1.347 . S
C581 H609 0.931 . S
C582 C581 1.347 . S
C582 C583 1.369 . S
C583 C582 1.369 . S
C583 C584 1.408 1_565 S
C583 H610 0.930 1_565 S
C584 C579 1.348 1_545 S
C584 C583 1.408 1_545 S
C584 H611 0.930 . S
C585 O598 1.281 . S
C585 O599 1.254 . S
C586 O600 1.236 . S
C586 O601 1.266 . S
C587 Tb577 2.809 . S
C587 C588 1.514 . S
C587 O602 1.248 . S
C587 O603 1.266 . S
C588 C587 1.514 . S
C588 C589 1.359 . S
C588 C593 1.348 . S
C589 C588 1.359 . S
C589 C590 1.380 . S
C589 H612 0.929 . S
C590 C589 1.380 . S
C590 C591 1.347 . S
C590 H613 0.931 . S
C591 C590 1.347 . S
C591 C592 1.369 . S
C592 C591 1.369 . S
C592 C593 1.408 . S
C592 H614 0.930 . S
C593 C588 1.348 . S
C593 C592 1.408 . S
C593 H615 0.930 . S
C594 O604 1.281 . S
C594 O605 1.254 . S
C595 O606 1.236 1_556 S
C595 O607 1.266 . S
O596 Tb576 2.484 1_565 S
O596 C578 1.248 . S
O597 Tb576 2.440 . S
O597 C578 1.266 1_545 S
O598 Tb576 2.658 . S
O598 Tb577 2.325 . S
O598 C585 1.281 . S
O599 Tb576 2.409 . S
O599 C585 1.254 . S
O600 Tb576 2.378 . S
O600 C586 1.236 . S
O601 Tb577 2.341 . S
O601 C586 1.266 . S
O602 Tb577 2.484 . S
O602 C587 1.248 . S
O603 Tb577 2.440 . S
O603 C587 1.266 . S
O604 Tb576 2.325 1_565 S
O604 Tb577 2.658 1_565 S
O604 C594 1.281 . S
O605 Tb577 2.409 1_565 S
O605 C594 1.254 . S
O606 Tb577 2.378 . S
O606 C595 1.236 1_554 S
O607 Tb576 2.341 1_556 S
O607 C595 1.266 . S
H608 C580 0.929 . S
H609 C581 0.931 . S
H610 C583 0.930 1_545 S
H611 C584 0.930 . S
H612 C589 0.929 . S
H613 C590 0.931 . S
H614 C592 0.930 . S
H615 C593 0.930 . S
Tb616 C618 2.809 . S
Tb616 O636 2.484 . S
Tb616 O637 2.440 . S
Tb616 O638 2.658 . S
Tb616 O639 2.409 . S
Tb616 O640 2.378 . S
Tb616 O644 2.325 . S
Tb616 O647 2.341 . S
Tb617 C627 2.809 . S
Tb617 O638 2.325 . S
Tb617 O641 2.341 . S
Tb617 O642 2.484 . S
Tb617 O643 2.440 . S
Tb617 O644 2.658 . S
Tb617 O645 2.409 . S
Tb617 O646 2.378 . S
C618 Tb616 2.809 . S
C618 C619 1.514 . S
C618 O636 1.248 . S
C618 O637 1.266 . S
C619 C618 1.514 . S
C619 C620 1.359 . S
C619 C624 1.348 . S
C620 C619 1.359 . S
C620 C621 1.380 . S
C620 H648 0.929 . S
C621 C620 1.380 . S
C621 C622 1.347 . S
C621 H649 0.931 . S
C622 C621 1.347 . S
C622 C623 1.369 . S
C623 C622 1.369 . S
C623 C624 1.408 . S
C623 H650 0.930 . S
C624 C619 1.348 . S
C624 C623 1.408 . S
C624 H651 0.930 . S
C625 O638 1.281 . S
C625 O639 1.254 . S
C626 O640 1.236 . S
C626 O641 1.266 . S
C627 Tb617 2.809 . S
C627 C628 1.514 . S
C627 O642 1.248 . S
C627 O643 1.266 . S
C628 C627 1.514 . S
C628 C629 1.359 . S
C628 C633 1.348 . S
C629 C628 1.359 . S
C629 C630 1.380 . S
C629 H652 0.929 . S
C630 C629 1.380 . S
C630 C631 1.347 . S
C630 H653 0.931 . S
C631 C630 1.347 . S
C631 C632 1.369 . S
C632 C631 1.369 . S
C632 C633 1.408 . S
C632 H654 0.930 . S
C633 C628 1.348 . S
C633 C632 1.408 . S
C633 H655 0.930 . S
C634 O644 1.281 . S
C634 O645 1.254 . S
C635 O646 1.236 . S
C635 O647 1.266 . S
O636 Tb616 2.484 . S
O636 C618 1.248 . S
O637 Tb616 2.440 . S
O637 C618 1.266 . S
O638 Tb616 2.658 . S
O638 Tb617 2.325 . S
O638 C625 1.281 . S
O639 Tb616 2.409 . S
O639 C625 1.254 . S
O640 Tb616 2.378 . S
O640 C626 1.236 . S
O641 Tb617 2.341 . S
O641 C626 1.266 . S
O642 Tb617 2.484 . S
O642 C627 1.248 . S
O643 Tb617 2.440 . S
O643 C627 1.266 . S
O644 Tb616 2.325 . S
O644 Tb617 2.658 . S
O644 C634 1.281 . S
O645 Tb617 2.409 . S
O645 C634 1.254 . S
O646 Tb617 2.378 . S
O646 C635 1.236 . S
O647 Tb616 2.341 . S
O647 C635 1.266 . S
H648 C620 0.929 . S
H649 C621 0.931 . S
H650 C623 0.930 . S
H651 C624 0.930 . S
H652 C629 0.929 . S
H653 C630 0.931 . S
H654 C632 0.930 . S
H655 C633 0.930 . S
Tb656 C658 2.809 . S
Tb656 O676 2.484 . S
Tb656 O677 2.440 . S
Tb656 O678 2.658 . S
Tb656 O679 2.409 . S
Tb656 O680 2.378 1_554 S
Tb656 O684 2.325 . S
Tb656 O687 2.341 . S
Tb657 C667 2.809 . S
Tb657 O678 2.325 . S
Tb657 O681 2.341 1_554 S
Tb657 O682 2.484 . S
Tb657 O683 2.440 . S
Tb657 O684 2.658 . S
Tb657 O685 2.409 . S
Tb657 O686 2.378 . S
C658 Tb656 2.809 . S
C658 C659 1.514 1_554 S
C658 O676 1.248 . S
C658 O677 1.266 . S
C659 C658 1.514 1_556 S
C659 C660 1.359 . S
C659 C664 1.348 . S
C660 C659 1.359 . S
C660 C661 1.380 . S
C660 H688 0.929 . S
C661 C660 1.380 . S
C661 C662 1.347 . S
C661 H689 0.931 . S
C662 C661 1.347 . S
C662 C663 1.369 . S
C663 C662 1.369 . S
C663 C664 1.408 . S
C663 H690 0.930 . S
C664 C659 1.348 . S
C664 C663 1.408 . S
C664 H691 0.930 . S
C665 O678 1.281 . S
C665 O679 1.254 . S
C666 O680 1.236 . S
C666 O681 1.266 . S
C667 Tb657 2.809 . S
C667 C668 1.514 . S
C667 O682 1.248 . S
C667 O683 1.266 . S
C668 C667 1.514 . S
C668 C669 1.359 . S
C668 C673 1.348 . S
C669 C668 1.359 . S
C669 C670 1.380 . S
C669 H692 0.929 . S
C670 C669 1.380 . S
C670 C671 1.347 . S
C670 H693 0.931 . S
C671 C670 1.347 . S
C671 C672 1.369 . S
C672 C671 1.369 . S
C672 C673 1.408 . S
C672 H694 0.930 . S
C673 C668 1.348 . S
C673 C672 1.408 . S
C673 H695 0.930 . S
C674 O684 1.281 . S
C674 O685 1.254 . S
C675 O686 1.236 . S
C675 O687 1.266 . S
O676 Tb656 2.484 . S
O676 C658 1.248 . S
O677 Tb656 2.440 . S
O677 C658 1.266 . S
O678 Tb656 2.658 . S
O678 Tb657 2.325 . S
O678 C665 1.281 . S
O679 Tb656 2.409 . S
O679 C665 1.254 . S
O680 Tb656 2.378 1_556 S
O680 C666 1.236 . S
O681 Tb657 2.341 1_556 S
O681 C666 1.266 . S
O682 Tb657 2.484 . S
O682 C667 1.248 . S
O683 Tb657 2.440 . S
O683 C667 1.266 . S
O684 Tb656 2.325 . S
O684 Tb657 2.658 . S
O684 C674 1.281 . S
O685 Tb657 2.409 . S
O685 C674 1.254 . S
O686 Tb657 2.378 . S
O686 C675 1.236 . S
O687 Tb656 2.341 . S
O687 C675 1.266 . S
H688 C660 0.929 . S
H689 C661 0.931 . S
H690 C663 0.930 . S
H691 C664 0.930 . S
H692 C669 0.929 . S
H693 C670 0.931 . S
H694 C672 0.930 . S
H695 C673 0.930 . S
Tb696 C698 2.809 . S
Tb696 O716 2.484 . S
Tb696 O717 2.440 . S
Tb696 O718 2.658 . S
Tb696 O719 2.409 . S
Tb696 O720 2.378 . S
Tb696 O724 2.325 . S
Tb696 O727 2.341 . S
Tb697 C707 2.809 . S
Tb697 O718 2.325 . S
Tb697 O721 2.341 . S
Tb697 O722 2.484 . S
Tb697 O723 2.440 . S
Tb697 O724 2.658 . S
Tb697 O725 2.409 . S
Tb697 O726 2.378 . S
C698 Tb696 2.809 . S
C698 C699 1.514 . S
C698 O716 1.248 . S
C698 O717 1.266 . S
C699 C698 1.514 . S
C699 C700 1.359 . S
C699 C704 1.348 . S
C700 C699 1.359 . S
C700 C701 1.380 . S
C700 H728 0.929 . S
C701 C700 1.380 . S
C701 C702 1.347 . S
C701 H729 0.931 . S
C702 C701 1.347 . S
C702 C703 1.369 . S
C703 C702 1.369 . S
C703 C704 1.408 . S
C703 H730 0.930 . S
C704 C699 1.348 . S
C704 C703 1.408 . S
C704 H731 0.930 . S
C705 O718 1.281 . S
C705 O719 1.254 . S
C706 O720 1.236 . S
C706 O721 1.266 . S
C707 Tb697 2.809 . S
C707 C708 1.514 . S
C707 O722 1.248 . S
C707 O723 1.266 . S
C708 C707 1.514 . S
C708 C709 1.359 . S
C708 C713 1.348 . S
C709 C708 1.359 . S
C709 C710 1.380 . S
C709 H732 0.929 . S
C710 C709 1.380 . S
C710 C711 1.347 . S
C710 H733 0.931 . S
C711 C710 1.347 . S
C711 C712 1.369 . S
C712 C711 1.369 . S
C712 C713 1.408 . S
C712 H734 0.930 . S
C713 C708 1.348 . S
C713 C712 1.408 . S
C713 H735 0.930 . S
C714 O724 1.281 . S
C714 O725 1.254 . S
C715 O726 1.236 . S
C715 O727 1.266 . S
O716 Tb696 2.484 . S
O716 C698 1.248 . S
O717 Tb696 2.440 . S
O717 C698 1.266 . S
O718 Tb696 2.658 . S
O718 Tb697 2.325 . S
O718 C705 1.281 . S
O719 Tb696 2.409 . S
O719 C705 1.254 . S
O720 Tb696 2.378 . S
O720 C706 1.236 . S
O721 Tb697 2.341 . S
O721 C706 1.266 . S
O722 Tb697 2.484 . S
O722 C707 1.248 . S
O723 Tb697 2.440 . S
O723 C707 1.266 . S
O724 Tb696 2.325 . S
O724 Tb697 2.658 . S
O724 C714 1.281 . S
O725 Tb697 2.409 . S
O725 C714 1.254 . S
O726 Tb697 2.378 . S
O726 C715 1.236 . S
O727 Tb696 2.341 . S
O727 C715 1.266 . S
H728 C700 0.929 . S
H729 C701 0.931 . S
H730 C703 0.930 . S
H731 C704 0.930 . S
H732 C709 0.929 . S
H733 C710 0.931 . S
H734 C712 0.930 . S
H735 C713 0.930 . S
Tb736 C738 2.809 1_455 S
Tb736 O756 2.484 1_455 S
Tb736 O757 2.440 1_455 S
Tb736 O758 2.658 . S
Tb736 O759 2.409 . S
Tb736 O760 2.378 . S
Tb736 O764 2.325 . S
Tb736 O767 2.341 . S
Tb737 C747 2.809 . S
Tb737 O758 2.325 . S
Tb737 O761 2.341 . S
Tb737 O762 2.484 . S
Tb737 O763 2.440 . S
Tb737 O764 2.658 . S
Tb737 O765 2.409 . S
Tb737 O766 2.378 . S
C738 Tb736 2.809 1_655 S
C738 C739 1.514 . S
C738 O756 1.248 . S
C738 O757 1.266 . S
C739 C738 1.514 . S
C739 C740 1.359 . S
C739 C744 1.348 . S
C740 C739 1.359 . S
C740 C741 1.380 . S
C740 H768 0.929 . S
C741 C740 1.380 . S
C741 C742 1.347 . S
C741 H769 0.931 . S
C742 C741 1.347 . S
C742 C743 1.369 . S
C743 C742 1.369 . S
C743 C744 1.408 . S
C743 H770 0.930 . S
C744 C739 1.348 . S
C744 C743 1.408 . S
C744 H771 0.930 . S
C745 O758 1.281 . S
C745 O759 1.254 . S
C746 O760 1.236 . S
C746 O761 1.266 . S
C747 Tb737 2.809 . S
C747 C748 1.514 . S
C747 O762 1.248 . S
C747 O763 1.266 . S
C748 C747 1.514 . S
C748 C749 1.359 . S
C748 C753 1.348 . S
C749 C748 1.359 . S
C749 C750 1.380 . S
C749 H772 0.929 . S
C750 C749 1.380 . S
C750 C751 1.347 . S
C750 H773 0.931 . S
C751 C750 1.347 . S
C751 C752 1.369 . S
C752 C751 1.369 . S
C752 C753 1.408 . S
C752 H774 0.930 . S
C753 C748 1.348 . S
C753 C752 1.408 . S
C753 H775 0.930 . S
C754 O764 1.281 . S
C754 O765 1.254 . S
C755 O766 1.236 . S
C755 O767 1.266 . S
O756 Tb736 2.484 1_655 S
O756 C738 1.248 . S
O757 Tb736 2.440 1_655 S
O757 C738 1.266 . S
O758 Tb736 2.658 . S
O758 Tb737 2.325 . S
O758 C745 1.281 . S
O759 Tb736 2.409 . S
O759 C745 1.254 . S
O760 Tb736 2.378 . S
O760 C746 1.236 . S
O761 Tb737 2.341 . S
O761 C746 1.266 . S
O762 Tb737 2.484 . S
O762 C747 1.248 . S
O763 Tb737 2.440 . S
O763 C747 1.266 . S
O764 Tb736 2.325 . S
O764 Tb737 2.658 . S
O764 C754 1.281 . S
O765 Tb737 2.409 . S
O765 C754 1.254 . S
O766 Tb737 2.378 . S
O766 C755 1.236 . S
O767 Tb736 2.341 . S
O767 C755 1.266 . S
H768 C740 0.929 . S
H769 C741 0.931 . S
H770 C743 0.930 . S
H771 C744 0.930 . S
H772 C749 0.929 . S
H773 C750 0.931 . S
H774 C752 0.930 . S
H775 C753 0.930 . S
Tb776 C778 2.809 . S
Tb776 O796 2.484 . S
Tb776 O797 2.440 . S
Tb776 O798 2.658 . S
Tb776 O799 2.409 . S
Tb776 O800 2.378 . S
Tb776 O804 2.325 . S
Tb776 O807 2.341 . S
Tb777 C787 2.809 . S
Tb777 O798 2.325 . S
Tb777 O801 2.341 . S
Tb777 O802 2.484 . S
Tb777 O803 2.440 . S
Tb777 O804 2.658 . S
Tb777 O805 2.409 . S
Tb777 O806 2.378 . S
C778 Tb776 2.809 . S
C778 C779 1.514 . S
C778 O796 1.248 . S
C778 O797 1.266 . S
C779 C778 1.514 . S
C779 C780 1.359 . S
C779 C784 1.348 . S
C780 C779 1.359 . S
C780 C781 1.380 . S
C780 H808 0.929 . S
C781 C780 1.380 . S
C781 C782 1.347 . S
C781 H809 0.931 . S
C782 C781 1.347 . S
C782 C783 1.369 . S
C783 C782 1.369 . S
C783 C784 1.408 . S
C783 H810 0.930 . S
C784 C779 1.348 . S
C784 C783 1.408 . S
C784 H811 0.930 . S
C785 O798 1.281 . S
C785 O799 1.254 . S
C786 O800 1.236 . S
C786 O801 1.266 . S
C787 Tb777 2.809 . S
C787 C788 1.514 . S
C787 O802 1.248 . S
C787 O803 1.266 . S
C788 C787 1.514 . S
C788 C789 1.359 . S
C788 C793 1.348 . S
C789 C788 1.359 . S
C789 C790 1.380 . S
C789 H812 0.929 . S
C790 C789 1.380 . S
C790 C791 1.347 . S
C790 H813 0.931 . S
C791 C790 1.347 . S
C791 C792 1.369 . S
C792 C791 1.369 . S
C792 C793 1.408 . S
C792 H814 0.930 . S
C793 C788 1.348 . S
C793 C792 1.408 . S
C793 H815 0.930 . S
C794 O804 1.281 . S
C794 O805 1.254 . S
C795 O806 1.236 . S
C795 O807 1.266 . S
O796 Tb776 2.484 . S
O796 C778 1.248 . S
O797 Tb776 2.440 . S
O797 C778 1.266 . S
O798 Tb776 2.658 . S
O798 Tb777 2.325 . S
O798 C785 1.281 . S
O799 Tb776 2.409 . S
O799 C785 1.254 . S
O800 Tb776 2.378 . S
O800 C786 1.236 . S
O801 Tb777 2.341 . S
O801 C786 1.266 . S
O802 Tb777 2.484 . S
O802 C787 1.248 . S
O803 Tb777 2.440 . S
O803 C787 1.266 . S
O804 Tb776 2.325 . S
O804 Tb777 2.658 . S
O804 C794 1.281 . S
O805 Tb777 2.409 . S
O805 C794 1.254 . S
O806 Tb777 2.378 . S
O806 C795 1.236 . S
O807 Tb776 2.341 . S
O807 C795 1.266 . S
H808 C780 0.929 . S
H809 C781 0.931 . S
H810 C783 0.930 . S
H811 C784 0.930 . S
H812 C789 0.929 . S
H813 C790 0.931 . S
H814 C792 0.930 . S
H815 C793 0.930 . S
Tb816 C818 2.809 . S
Tb816 O836 2.484 . S
Tb816 O837 2.440 . S
Tb816 O838 2.658 . S
Tb816 O839 2.409 . S
Tb816 O840 2.378 . S
Tb816 O844 2.325 . S
Tb816 O847 2.341 . S
Tb817 C827 2.809 . S
Tb817 O838 2.325 . S
Tb817 O841 2.341 . S
Tb817 O842 2.484 . S
Tb817 O843 2.440 . S
Tb817 O844 2.658 . S
Tb817 O845 2.409 . S
Tb817 O846 2.378 . S
C818 Tb816 2.809 . S
C818 C819 1.514 . S
C818 O836 1.248 . S
C818 O837 1.266 . S
C819 C818 1.514 . S
C819 C820 1.359 . S
C819 C824 1.348 . S
C820 C819 1.359 . S
C820 C821 1.380 . S
C820 H848 0.929 . S
C821 C820 1.380 . S
C821 C822 1.347 . S
C821 H849 0.931 . S
C822 C821 1.347 . S
C822 C823 1.369 . S
C823 C822 1.369 . S
C823 C824 1.408 . S
C823 H850 0.930 . S
C824 C819 1.348 . S
C824 C823 1.408 . S
C824 H851 0.930 . S
C825 O838 1.281 . S
C825 O839 1.254 . S
C826 O840 1.236 . S
C826 O841 1.266 . S
C827 Tb817 2.809 . S
C827 C828 1.514 . S
C827 O842 1.248 . S
C827 O843 1.266 . S
C828 C827 1.514 . S
C828 C829 1.359 . S
C828 C833 1.348 . S
C829 C828 1.359 . S
C829 C830 1.380 . S
C829 H852 0.929 . S
C830 C829 1.380 . S
C830 C831 1.347 . S
C830 H853 0.931 . S
C831 C830 1.347 . S
C831 C832 1.369 . S
C832 C831 1.369 . S
C832 C833 1.408 . S
C832 H854 0.930 . S
C833 C828 1.348 . S
C833 C832 1.408 . S
C833 H855 0.930 . S
C834 O844 1.281 . S
C834 O845 1.254 . S
C835 O846 1.236 . S
C835 O847 1.266 . S
O836 Tb816 2.484 . S
O836 C818 1.248 . S
O837 Tb816 2.440 . S
O837 C818 1.266 . S
O838 Tb816 2.658 . S
O838 Tb817 2.325 . S
O838 C825 1.281 . S
O839 Tb816 2.409 . S
O839 C825 1.254 . S
O840 Tb816 2.378 . S
O840 C826 1.236 . S
O841 Tb817 2.341 . S
O841 C826 1.266 . S
O842 Tb817 2.484 . S
O842 C827 1.248 . S
O843 Tb817 2.440 . S
O843 C827 1.266 . S
O844 Tb816 2.325 . S
O844 Tb817 2.658 . S
O844 C834 1.281 . S
O845 Tb817 2.409 . S
O845 C834 1.254 . S
O846 Tb817 2.378 . S
O846 C835 1.236 . S
O847 Tb816 2.341 . S
O847 C835 1.266 . S
H848 C820 0.929 . S
H849 C821 0.931 . S
H850 C823 0.930 . S
H851 C824 0.930 . S
H852 C829 0.929 . S
H853 C830 0.931 . S
H854 C832 0.930 . S
H855 C833 0.930 . S
Tb856 C858 2.809 . S
Tb856 O876 2.484 . S
Tb856 O877 2.440 . S
Tb856 O878 2.658 . S
Tb856 O879 2.409 . S
Tb856 O880 2.378 . S
Tb856 O884 2.325 . S
Tb856 O887 2.341 . S
Tb857 C867 2.809 . S
Tb857 O878 2.325 . S
Tb857 O881 2.341 . S
Tb857 O882 2.484 . S
Tb857 O883 2.440 . S
Tb857 O884 2.658 . S
Tb857 O885 2.409 . S
Tb857 O886 2.378 . S
C858 Tb856 2.809 . S
C858 C859 1.514 . S
C858 O876 1.248 . S
C858 O877 1.266 . S
C859 C858 1.514 . S
C859 C860 1.359 . S
C859 C864 1.348 . S
C860 C859 1.359 . S
C860 C861 1.380 . S
C860 H888 0.929 . S
C861 C860 1.380 . S
C861 C862 1.347 . S
C861 H889 0.931 . S
C862 C861 1.347 . S
C862 C863 1.369 . S
C863 C862 1.369 . S
C863 C864 1.408 . S
C863 H890 0.930 . S
C864 C859 1.348 . S
C864 C863 1.408 . S
C864 H891 0.930 . S
C865 O878 1.281 . S
C865 O879 1.254 . S
C866 O880 1.236 . S
C866 O881 1.266 . S
C867 Tb857 2.809 . S
C867 C868 1.514 . S
C867 O882 1.248 . S
C867 O883 1.266 . S
C868 C867 1.514 . S
C868 C869 1.359 . S
C868 C873 1.348 . S
C869 C868 1.359 . S
C869 C870 1.380 . S
C869 H892 0.929 . S
C870 C869 1.380 . S
C870 C871 1.347 . S
C870 H893 0.931 . S
C871 C870 1.347 . S
C871 C872 1.369 . S
C872 C871 1.369 . S
C872 C873 1.408 . S
C872 H894 0.930 . S
C873 C868 1.348 . S
C873 C872 1.408 . S
C873 H895 0.930 . S
C874 O884 1.281 . S
C874 O885 1.254 . S
C875 O886 1.236 . S
C875 O887 1.266 . S
O876 Tb856 2.484 . S
O876 C858 1.248 . S
O877 Tb856 2.440 . S
O877 C858 1.266 . S
O878 Tb856 2.658 . S
O878 Tb857 2.325 . S
O878 C865 1.281 . S
O879 Tb856 2.409 . S
O879 C865 1.254 . S
O880 Tb856 2.378 . S
O880 C866 1.236 . S
O881 Tb857 2.341 . S
O881 C866 1.266 . S
O882 Tb857 2.484 . S
O882 C867 1.248 . S
O883 Tb857 2.440 . S
O883 C867 1.266 . S
O884 Tb856 2.325 . S
O884 Tb857 2.658 . S
O884 C874 1.281 . S
O885 Tb857 2.409 . S
O885 C874 1.254 . S
O886 Tb857 2.378 . S
O886 C875 1.236 . S
O887 Tb856 2.341 . S
O887 C875 1.266 . S
H888 C860 0.929 . S
H889 C861 0.931 . S
H890 C863 0.930 . S
H891 C864 0.930 . S
H892 C869 0.929 . S
H893 C870 0.931 . S
H894 C872 0.930 . S
H895 C873 0.930 . S
Tb896 C898 2.809 . S
Tb896 O916 2.484 . S
Tb896 O917 2.440 . S
Tb896 O918 2.658 . S
Tb896 O919 2.409 . S
Tb896 O920 2.378 . S
Tb896 O924 2.325 . S
Tb896 O927 2.341 . S
Tb897 C907 2.809 . S
Tb897 O918 2.325 . S
Tb897 O921 2.341 . S
Tb897 O922 2.484 . S
Tb897 O923 2.440 . S
Tb897 O924 2.658 . S
Tb897 O925 2.409 . S
Tb897 O926 2.378 . S
C898 Tb896 2.809 . S
C898 C899 1.514 . S
C898 O916 1.248 . S
C898 O917 1.266 . S
C899 C898 1.514 . S
C899 C900 1.359 . S
C899 C904 1.348 . S
C900 C899 1.359 . S
C900 C901 1.380 . S
C900 H928 0.929 . S
C901 C900 1.380 . S
C901 C902 1.347 . S
C901 H929 0.931 . S
C902 C901 1.347 . S
C902 C903 1.369 . S
C903 C902 1.369 . S
C903 C904 1.408 . S
C903 H930 0.930 . S
C904 C899 1.348 . S
C904 C903 1.408 . S
C904 H931 0.930 . S
C905 O918 1.281 . S
C905 O919 1.254 . S
C906 O920 1.236 . S
C906 O921 1.266 . S
C907 Tb897 2.809 . S
C907 C908 1.514 . S
C907 O922 1.248 . S
C907 O923 1.266 . S
C908 C907 1.514 . S
C908 C909 1.359 . S
C908 C913 1.348 . S
C909 C908 1.359 . S
C909 C910 1.380 . S
C909 H932 0.929 . S
C910 C909 1.380 . S
C910 C911 1.347 . S
C910 H933 0.931 . S
C911 C910 1.347 . S
C911 C912 1.369 . S
C912 C911 1.369 . S
C912 C913 1.408 . S
C912 H934 0.930 . S
C913 C908 1.348 . S
C913 C912 1.408 . S
C913 H935 0.930 . S
C914 O924 1.281 . S
C914 O925 1.254 . S
C915 O926 1.236 . S
C915 O927 1.266 . S
O916 Tb896 2.484 . S
O916 C898 1.248 . S
O917 Tb896 2.440 . S
O917 C898 1.266 . S
O918 Tb896 2.658 . S
O918 Tb897 2.325 . S
O918 C905 1.281 . S
O919 Tb896 2.409 . S
O919 C905 1.254 . S
O920 Tb896 2.378 . S
O920 C906 1.236 . S
O921 Tb897 2.341 . S
O921 C906 1.266 . S
O922 Tb897 2.484 . S
O922 C907 1.248 . S
O923 Tb897 2.440 . S
O923 C907 1.266 . S
O924 Tb896 2.325 . S
O924 Tb897 2.658 . S
O924 C914 1.281 . S
O925 Tb897 2.409 . S
O925 C914 1.254 . S
O926 Tb897 2.378 . S
O926 C915 1.236 . S
O927 Tb896 2.341 . S
O927 C915 1.266 . S
H928 C900 0.929 . S
H929 C901 0.931 . S
H930 C903 0.930 . S
H931 C904 0.930 . S
H932 C909 0.929 . S
H933 C910 0.931 . S
H934 C912 0.930 . S
H935 C913 0.930 . S
Tb936 C938 2.809 . S
Tb936 O956 2.484 . S
Tb936 O957 2.440 1_554 S
Tb936 O958 2.658 . S
Tb936 O959 2.409 1_554 S
Tb936 O960 2.378 . S
Tb936 O964 2.325 . S
Tb936 O967 2.341 . S
Tb937 C947 2.809 1_455 S
Tb937 O958 2.325 . S
Tb937 O961 2.341 . S
Tb937 O962 2.484 1_455 S
Tb937 O963 2.440 1_455 S
Tb937 O964 2.658 . S
Tb937 O965 2.409 . S
Tb937 O966 2.378 . S
C938 Tb936 2.809 . S
C938 C939 1.514 . S
C938 O956 1.248 . S
C938 O957 1.266 1_554 S
C939 C938 1.514 . S
C939 C940 1.359 . S
C939 C944 1.348 1_554 S
C940 C939 1.359 . S
C940 C941 1.380 . S
C940 H968 0.929 . S
C941 C940 1.380 . S
C941 C942 1.347 1_554 S
C941 H969 0.931 . S
C942 C941 1.347 1_556 S
C942 C943 1.369 . S
C943 C942 1.369 . S
C943 C944 1.408 . S
C943 H970 0.930 . S
C944 C939 1.348 1_556 S
C944 C943 1.408 . S
C944 H971 0.930 . S
C945 O958 1.281 1_556 S
C945 O959 1.254 . S
C946 O960 1.236 . S
C946 O961 1.266 . S
C947 Tb937 2.809 1_655 S
C947 C948 1.514 . S
C947 O962 1.248 . S
C947 O963 1.266 . S
C948 C947 1.514 . S
C948 C949 1.359 . S
C948 C953 1.348 . S
C949 C948 1.359 . S
C949 C950 1.380 . S
C949 H972 0.929 . S
C950 C949 1.380 . S
C950 C951 1.347 . S
C950 H973 0.931 . S
C951 C950 1.347 . S
C951 C952 1.369 . S
C952 C951 1.369 . S
C952 C953 1.408 . S
C952 H974 0.930 . S
C953 C948 1.348 . S
C953 C952 1.408 . S
C953 H975 0.930 . S
C954 O964 1.281 . S
C954 O965 1.254 . S
C955 O966 1.236 . S
C955 O967 1.266 . S
O956 Tb936 2.484 . S
O956 C938 1.248 . S
O957 Tb936 2.440 1_556 S
O957 C938 1.266 1_556 S
O958 Tb936 2.658 . S
O958 Tb937 2.325 . S
O958 C945 1.281 1_554 S
O959 Tb936 2.409 1_556 S
O959 C945 1.254 . S
O960 Tb936 2.378 . S
O960 C946 1.236 . S
O961 Tb937 2.341 . S
O961 C946 1.266 . S
O962 Tb937 2.484 1_655 S
O962 C947 1.248 . S
O963 Tb937 2.440 1_655 S
O963 C947 1.266 . S
O964 Tb936 2.325 . S
O964 Tb937 2.658 . S
O964 C954 1.281 . S
O965 Tb937 2.409 . S
O965 C954 1.254 . S
O966 Tb937 2.378 . S
O966 C955 1.236 . S
O967 Tb936 2.341 . S
O967 C955 1.266 . S
H968 C940 0.929 . S
H969 C941 0.931 . S
H970 C943 0.930 . S
H971 C944 0.930 . S
H972 C949 0.929 . S
H973 C950 0.931 . S
H974 C952 0.930 . S
H975 C953 0.930 . S
C976 C977 1.351 . S
C976 C978 1.328 . S
C976 H1001 0.948 1_455 S
C977 C976 1.351 . S
C977 C993 1.349 . S
C978 C976 1.328 . S
C978 C997 1.429 . S
C978 H1002 0.950 1_455 S
C979 C996 1.574 . S
C979 C998 1.368 . S
C979 H1003 0.949 . S
H980 C984 0.949 1_654 S
C981 C982 1.349 1_556 S
C981 C983 1.327 . S
C981 H1004 0.950 . S
C982 C981 1.349 1_554 S
C982 C994 1.349 . S
C983 C981 1.327 . S
C983 C999 1.429 . S
C983 H1005 0.950 . S
C984 H980 0.949 1_456 S
C984 C992 1.574 . S
C984 C1000 1.368 . S
H985 C993 0.950 . S
H986 C991 0.950 . S
H987 C992 0.949 1_655 S
H988 C994 0.950 . S
H989 C995 0.909 1_655 S
H990 C996 0.949 . S
C991 H986 0.950 . S
C991 C993 1.327 . S
C991 C997 1.429 . S
C992 C984 1.574 . S
C992 H987 0.949 1_455 S
C992 C998 1.368 . S
C993 C977 1.349 . S
C993 H985 0.950 . S
C993 C991 1.327 . S
C994 C982 1.349 . S
C994 H988 0.950 . S
C994 C995 1.327 . S
C995 H989 0.909 1_455 S
C995 C994 1.327 . S
C995 C999 1.429 1_554 S
C996 C979 1.574 . S
C996 H990 0.949 . S
C996 C1000 1.368 . S
C997 C978 1.429 . S
C997 C991 1.429 . S
C997 C998 1.523 . S
C998 C979 1.368 . S
C998 C992 1.368 . S
C998 C997 1.523 . S
C999 C983 1.429 . S
C999 C995 1.429 1_556 S
C999 C1000 1.523 . S
C1000 C984 1.368 . S
C1000 C996 1.368 . S
C1000 C999 1.523 . S
H1001 C976 0.948 1_655 S
H1002 C978 0.950 1_655 S
H1003 C979 0.949 . S
H1004 C981 0.950 . S
H1005 C983 0.950 . S
C1006 C1007 1.349 . S
C1006 C1008 1.327 . S
C1006 H1031 0.950 . S
C1007 C1006 1.349 . S
C1007 C1023 1.349 . S
C1008 C1006 1.327 . S
C1008 C1027 1.429 . S
C1008 H1032 0.950 . S
C1009 C1026 1.574 . S
C1009 C1028 1.368 . S
C1009 H1033 0.949 . S
H1010 C1014 0.949 . S
C1011 C1012 1.349 . S
C1011 C1013 1.327 . S
C1011 H1034 0.950 . S
C1012 C1011 1.349 . S
C1012 C1024 1.349 . S
C1013 C1011 1.327 . S
C1013 C1029 1.429 . S
C1013 H1035 0.950 . S
C1014 H1010 0.949 . S
C1014 C1022 1.574 . S
C1014 C1030 1.368 . S
H1015 C1023 0.950 . S
H1016 C1021 0.950 . S
H1017 C1022 0.949 . S
H1018 C1024 0.950 . S
H1019 C1025 0.950 . S
H1020 C1026 0.949 . S
C1021 H1016 0.950 . S
C1021 C1023 1.327 . S
C1021 C1027 1.429 . S
C1022 C1014 1.574 . S
C1022 H1017 0.949 . S
C1022 C1028 1.368 . S
C1023 C1007 1.349 . S
C1023 H1015 0.950 . S
C1023 C1021 1.327 . S
C1024 C1012 1.349 . S
C1024 H1018 0.950 . S
C1024 C1025 1.327 . S
C1025 H1019 0.950 . S
C1025 C1024 1.327 . S
C1025 C1029 1.429 . S
C1026 C1009 1.574 . S
C1026 H1020 0.949 . S
C1026 C1030 1.368 . S
C1027 C1008 1.429 . S
C1027 C1021 1.429 . S
C1027 C1028 1.523 . S
C1028 C1009 1.368 . S
C1028 C1022 1.368 . S
C1028 C1027 1.523 . S
C1029 C1013 1.429 . S
C1029 C1025 1.429 . S
C1029 C1030 1.523 . S
C1030 C1014 1.368 . S
C1030 C1026 1.368 . S
C1030 C1029 1.523 . S
H1031 C1006 0.950 . S
H1032 C1008 0.950 . S
H1033 C1009 0.949 . S
H1034 C1011 0.950 . S
H1035 C1013 0.950 . S
C1036 C1037 1.349 . S
C1036 C1038 1.327 . S
C1036 H1061 0.950 . S
C1037 C1036 1.349 . S
C1037 C1053 1.349 . S
C1038 C1036 1.327 . S
C1038 C1057 1.429 . S
C1038 H1062 0.950 . S
C1039 C1056 1.574 . S
C1039 C1058 1.368 . S
C1039 H1063 0.949 . S
H1040 C1044 0.949 . S
C1041 C1042 1.349 . S
C1041 C1043 1.327 . S
C1041 H1064 0.950 . S
C1042 C1041 1.349 . S
C1042 C1054 1.349 . S
C1043 C1041 1.327 . S
C1043 C1059 1.429 . S
C1043 H1065 0.950 . S
C1044 H1040 0.949 . S
C1044 C1052 1.574 . S
C1044 C1060 1.368 . S
H1045 C1053 0.950 . S
H1046 C1051 0.950 . S
H1047 C1052 0.949 . S
H1048 C1054 0.950 . S
H1049 C1055 0.950 . S
H1050 C1056 0.949 . S
C1051 H1046 0.950 . S
C1051 C1053 1.327 . S
C1051 C1057 1.429 . S
C1052 C1044 1.574 . S
C1052 H1047 0.949 . S
C1052 C1058 1.368 . S
C1053 C1037 1.349 . S
C1053 H1045 0.950 . S
C1053 C1051 1.327 . S
C1054 C1042 1.349 . S
C1054 H1048 0.950 . S
C1054 C1055 1.327 . S
C1055 H1049 0.950 . S
C1055 C1054 1.327 . S
C1055 C1059 1.429 . S
C1056 C1039 1.574 . S
C1056 H1050 0.949 . S
C1056 C1060 1.368 . S
C1057 C1038 1.429 . S
C1057 C1051 1.429 . S
C1057 C1058 1.523 . S
C1058 C1039 1.368 . S
C1058 C1052 1.368 . S
C1058 C1057 1.523 . S
C1059 C1043 1.429 . S
C1059 C1055 1.429 . S
C1059 C1060 1.523 . S
C1060 C1044 1.368 . S
C1060 C1056 1.368 . S
C1060 C1059 1.523 . S
H1061 C1036 0.950 . S
H1062 C1038 0.950 . S
H1063 C1039 0.949 . S
H1064 C1041 0.950 . S
H1065 C1043 0.950 . S
C1066 C1067 1.349 . S
C1066 C1068 1.327 . S
C1066 H1091 0.950 . S
C1067 C1066 1.349 . S
C1067 C1083 1.349 . S
C1068 C1066 1.327 . S
C1068 C1087 1.429 . S
C1068 H1092 0.950 . S
C1069 C1086 1.574 . S
C1069 C1088 1.368 . S
C1069 H1093 0.949 . S
H1070 C1074 0.949 . S
C1071 C1072 1.349 . S
C1071 C1073 1.327 . S
C1071 H1094 0.950 . S
C1072 C1071 1.349 . S
C1072 C1084 1.349 . S
C1073 C1071 1.327 . S
C1073 C1089 1.429 . S
C1073 H1095 0.950 . S
C1074 H1070 0.949 . S
C1074 C1082 1.574 . S
C1074 C1090 1.368 . S
H1075 C1083 0.950 . S
H1076 C1081 0.950 . S
H1077 C1082 0.949 . S
H1078 C1084 0.950 . S
H1079 C1085 0.950 . S
H1080 C1086 0.949 . S
C1081 H1076 0.950 . S
C1081 C1083 1.327 . S
C1081 C1087 1.429 . S
C1082 C1074 1.574 . S
C1082 H1077 0.949 . S
C1082 C1088 1.368 . S
C1083 C1067 1.349 . S
C1083 H1075 0.950 . S
C1083 C1081 1.327 . S
C1084 C1072 1.349 . S
C1084 H1078 0.950 . S
C1084 C1085 1.327 . S
C1085 H1079 0.950 . S
C1085 C1084 1.327 . S
C1085 C1089 1.429 . S
C1086 C1069 1.574 . S
C1086 H1080 0.949 . S
C1086 C1090 1.368 . S
C1087 C1068 1.429 . S
C1087 C1081 1.429 . S
C1087 C1088 1.523 . S
C1088 C1069 1.368 . S
C1088 C1082 1.368 . S
C1088 C1087 1.523 . S
C1089 C1073 1.429 . S
C1089 C1085 1.429 . S
C1089 C1090 1.523 . S
C1090 C1074 1.368 . S
C1090 C1086 1.368 . S
C1090 C1089 1.523 . S
H1091 C1066 0.950 . S
H1092 C1068 0.950 . S
H1093 C1069 0.949 . S
H1094 C1071 0.950 . S
H1095 C1073 0.950 . S
C1096 C1097 1.349 . S
C1096 C1098 1.327 . S
C1096 H1121 0.950 . S
C1097 C1096 1.349 . S
C1097 C1113 1.349 . S
C1098 C1096 1.327 . S
C1098 C1117 1.429 . S
C1098 H1122 0.950 . S
C1099 C1116 1.574 . S
C1099 C1118 1.368 . S
C1099 H1123 0.949 . S
H1100 C1104 0.949 . S
C1101 C1102 1.349 . S
C1101 C1103 1.327 . S
C1101 H1124 0.950 . S
C1102 C1101 1.349 . S
C1102 C1114 1.349 . S
C1103 C1101 1.327 . S
C1103 C1119 1.429 . S
C1103 H1125 0.950 . S
C1104 H1100 0.949 . S
C1104 C1112 1.574 . S
C1104 C1120 1.368 . S
H1105 C1113 0.950 . S
H1106 C1111 0.950 . S
H1107 C1112 0.949 . S
H1108 C1114 0.950 . S
H1109 C1115 0.950 . S
H1110 C1116 0.949 . S
C1111 H1106 0.950 . S
C1111 C1113 1.327 . S
C1111 C1117 1.429 . S
C1112 C1104 1.574 . S
C1112 H1107 0.949 . S
C1112 C1118 1.368 . S
C1113 C1097 1.349 . S
C1113 H1105 0.950 . S
C1113 C1111 1.327 . S
C1114 C1102 1.349 . S
C1114 H1108 0.950 . S
C1114 C1115 1.327 . S
C1115 H1109 0.950 . S
C1115 C1114 1.327 . S
C1115 C1119 1.429 . S
C1116 C1099 1.574 . S
C1116 H1110 0.949 . S
C1116 C1120 1.368 . S
C1117 C1098 1.429 . S
C1117 C1111 1.429 . S
C1117 C1118 1.523 . S
C1118 C1099 1.368 . S
C1118 C1112 1.368 . S
C1118 C1117 1.523 . S
C1119 C1103 1.429 . S
C1119 C1115 1.429 . S
C1119 C1120 1.523 . S
C1120 C1104 1.368 . S
C1120 C1116 1.368 . S
C1120 C1119 1.523 . S
H1121 C1096 0.950 . S
H1122 C1098 0.950 . S
H1123 C1099 0.949 . S
H1124 C1101 0.950 . S
H1125 C1103 0.950 . S
C1126 C1127 1.349 . S
C1126 C1128 1.327 . S
C1126 H1151 0.950 . S
C1127 C1126 1.349 . S
C1127 C1143 1.349 . S
C1128 C1126 1.327 . S
C1128 C1147 1.429 . S
C1128 H1152 0.950 . S
C1129 C1146 1.574 . S
C1129 C1148 1.368 . S
C1129 H1153 0.949 . S
H1130 C1134 0.949 . S
C1131 C1132 1.349 . S
C1131 C1133 1.327 . S
C1131 H1154 0.950 . S
C1132 C1131 1.349 . S
C1132 C1144 1.349 . S
C1133 C1131 1.327 . S
C1133 C1149 1.429 . S
C1133 H1155 0.950 . S
C1134 H1130 0.949 . S
C1134 C1142 1.574 . S
C1134 C1150 1.368 . S
H1135 C1143 0.950 . S
H1136 C1141 0.950 . S
H1137 C1142 0.949 . S
H1138 C1144 0.950 . S
H1139 C1145 0.950 . S
H1140 C1146 0.949 . S
C1141 H1136 0.950 . S
C1141 C1143 1.327 . S
C1141 C1147 1.429 . S
C1142 C1134 1.574 . S
C1142 H1137 0.949 . S
C1142 C1148 1.368 . S
C1143 C1127 1.349 . S
C1143 H1135 0.950 . S
C1143 C1141 1.327 . S
C1144 C1132 1.349 . S
C1144 H1138 0.950 . S
C1144 C1145 1.327 . S
C1145 H1139 0.950 . S
C1145 C1144 1.327 . S
C1145 C1149 1.429 . S
C1146 C1129 1.574 . S
C1146 H1140 0.949 . S
C1146 C1150 1.368 . S
C1147 C1128 1.429 . S
C1147 C1141 1.429 . S
C1147 C1148 1.523 . S
C1148 C1129 1.368 . S
C1148 C1142 1.368 . S
C1148 C1147 1.523 . S
C1149 C1133 1.429 . S
C1149 C1145 1.429 . S
C1149 C1150 1.523 . S
C1150 C1134 1.368 . S
C1150 C1146 1.368 . S
C1150 C1149 1.523 . S
H1151 C1126 0.950 . S
H1152 C1128 0.950 . S
H1153 C1129 0.949 . S
H1154 C1131 0.950 . S
H1155 C1133 0.950 . S
C1156 C1157 1.349 . S
C1156 C1158 1.327 . S
C1156 H1181 0.950 . S
C1157 C1156 1.349 . S
C1157 C1173 1.349 . S
C1158 C1156 1.327 . S
C1158 C1177 1.429 . S
C1158 H1182 0.950 . S
C1159 C1176 1.574 . S
C1159 C1178 1.368 . S
C1159 H1183 0.949 . S
H1160 C1164 0.949 . S
C1161 C1162 1.349 . S
C1161 C1163 1.327 . S
C1161 H1184 0.950 . S
C1162 C1161 1.349 . S
C1162 C1174 1.349 . S
C1163 C1161 1.327 . S
C1163 C1179 1.429 . S
C1163 H1185 0.950 . S
C1164 H1160 0.949 . S
C1164 C1172 1.574 . S
C1164 C1180 1.368 . S
H1165 C1173 0.950 . S
H1166 C1171 0.950 . S
H1167 C1172 0.949 . S
H1168 C1174 0.950 . S
H1169 C1175 0.950 . S
H1170 C1176 0.949 . S
C1171 H1166 0.950 . S
C1171 C1173 1.327 . S
C1171 C1177 1.429 . S
C1172 C1164 1.574 . S
C1172 H1167 0.949 . S
C1172 C1178 1.368 . S
C1173 C1157 1.349 . S
C1173 H1165 0.950 . S
C1173 C1171 1.327 . S
C1174 C1162 1.349 . S
C1174 H1168 0.950 . S
C1174 C1175 1.327 . S
C1175 H1169 0.950 . S
C1175 C1174 1.327 . S
C1175 C1179 1.429 . S
C1176 C1159 1.574 . S
C1176 H1170 0.949 . S
C1176 C1180 1.368 . S
C1177 C1158 1.429 . S
C1177 C1171 1.429 . S
C1177 C1178 1.523 . S
C1178 C1159 1.368 . S
C1178 C1172 1.368 . S
C1178 C1177 1.523 . S
C1179 C1163 1.429 . S
C1179 C1175 1.429 . S
C1179 C1180 1.523 . S
C1180 C1164 1.368 . S
C1180 C1176 1.368 . S
C1180 C1179 1.523 . S
H1181 C1156 0.950 . S
H1182 C1158 0.950 . S
H1183 C1159 0.949 . S
H1184 C1161 0.950 . S
H1185 C1163 0.950 . S
C1186 C1187 1.349 . S
C1186 C1188 1.327 . S
C1186 H1211 0.950 . S
C1187 C1186 1.349 . S
C1187 C1203 1.349 . S
C1188 C1186 1.327 . S
C1188 C1207 1.429 . S
C1188 H1212 0.950 . S
C1189 C1206 1.574 . S
C1189 C1208 1.368 . S
C1189 H1213 0.949 . S
H1190 C1194 0.949 . S
C1191 C1192 1.349 . S
C1191 C1193 1.327 . S
C1191 H1214 0.950 . S
C1192 C1191 1.349 . S
C1192 C1204 1.349 . S
C1193 C1191 1.327 . S
C1193 C1209 1.429 . S
C1193 H1215 0.950 . S
C1194 H1190 0.949 . S
C1194 C1202 1.574 . S
C1194 C1210 1.368 . S
H1195 C1203 0.950 . S
H1196 C1201 0.950 . S
H1197 C1202 0.949 . S
H1198 C1204 0.950 . S
H1199 C1205 0.950 . S
H1200 C1206 0.949 . S
C1201 H1196 0.950 . S
C1201 C1203 1.327 . S
C1201 C1207 1.429 . S
C1202 C1194 1.574 . S
C1202 H1197 0.949 . S
C1202 C1208 1.368 . S
C1203 C1187 1.349 . S
C1203 H1195 0.950 . S
C1203 C1201 1.327 . S
C1204 C1192 1.349 . S
C1204 H1198 0.950 . S
C1204 C1205 1.327 . S
C1205 H1199 0.950 . S
C1205 C1204 1.327 . S
C1205 C1209 1.429 . S
C1206 C1189 1.574 . S
C1206 H1200 0.949 . S
C1206 C1210 1.368 . S
C1207 C1188 1.429 . S
C1207 C1201 1.429 . S
C1207 C1208 1.523 . S
C1208 C1189 1.368 . S
C1208 C1202 1.368 . S
C1208 C1207 1.523 . S
C1209 C1193 1.429 . S
C1209 C1205 1.429 . S
C1209 C1210 1.523 . S
C1210 C1194 1.368 . S
C1210 C1206 1.368 . S
C1210 C1209 1.523 . S
H1211 C1186 0.950 . S
H1212 C1188 0.950 . S
H1213 C1189 0.949 . S
H1214 C1191 0.950 . S
H1215 C1193 0.950 . S
C1216 C1217 1.349 1_565 S
C1216 C1218 1.327 . S
C1216 H1241 0.950 . S
C1217 C1216 1.349 1_545 S
C1217 C1233 1.349 . S
C1218 C1216 1.327 . S
C1218 C1237 1.429 1_565 S
C1218 H1242 0.950 . S
C1219 C1236 1.574 . S
C1219 C1238 1.368 . S
C1219 H1243 0.949 . S
H1220 C1224 0.949 . S
C1221 C1222 1.349 . S
C1221 C1223 1.327 . S
C1221 H1244 0.950 . S
C1222 C1221 1.349 . S
C1222 C1234 1.340 1_455 S
C1223 C1221 1.327 . S
C1223 C1239 1.429 1_455 S
C1223 H1245 0.950 . S
C1224 H1220 0.949 . S
C1224 C1232 1.574 . S
C1224 C1240 1.368 1_565 S
H1225 C1233 0.950 . S
H1226 C1231 0.950 . S
H1227 C1232 0.949 . S
H1228 C1234 0.950 1_565 S
H1229 C1235 0.983 . S
H1230 C1236 0.949 1_455 S
C1231 H1226 0.950 . S
C1231 C1233 1.327 . S
C1231 C1237 1.429 . S
C1232 C1224 1.574 . S
C1232 H1227 0.949 . S
C1232 C1238 1.368 1_565 S
C1233 C1217 1.349 . S
C1233 H1225 0.950 . S
C1233 C1231 1.327 . S
C1234 C1222 1.340 1_655 S
C1234 H1228 0.950 1_545 S
C1234 C1235 1.329 1_545 S
C1235 H1229 0.983 . S
C1235 C1234 1.329 1_565 S
C1235 C1239 1.404 1_565 S
C1236 C1219 1.574 . S
C1236 H1230 0.949 1_655 S
C1236 C1240 1.368 . S
C1237 C1218 1.429 1_545 S
C1237 C1231 1.429 . S
C1237 C1238 1.523 . S
C1238 C1219 1.368 . S
C1238 C1232 1.368 1_545 S
C1238 C1237 1.523 . S
C1239 C1223 1.429 1_655 S
C1239 C1235 1.404 1_545 S
C1239 C1240 1.523 . S
C1240 C1224 1.368 1_545 S
C1240 C1236 1.368 . S
C1240 C1239 1.523 . S
H1241 C1216 0.950 . S
H1242 C1218 0.950 . S
H1243 C1219 0.949 . S
H1244 C1221 0.950 . S
H1245 C1223 0.950 . S
C1246 C1247 1.349 . S
C1246 C1248 1.327 . S
C1246 H1271 0.950 . S
C1247 C1246 1.349 . S
C1247 C1263 1.349 . S
C1248 C1246 1.327 . S
C1248 C1267 1.429 . S
C1248 H1272 0.950 . S
C1249 C1266 1.574 . S
C1249 C1268 1.368 . S
C1249 H1273 0.949 . S
H1250 C1254 0.949 . S
C1251 C1252 1.349 . S
C1251 C1253 1.327 . S
C1251 H1274 0.950 . S
C1252 C1251 1.349 . S
C1252 C1264 1.349 . S
C1253 C1251 1.327 . S
C1253 C1269 1.429 . S
C1253 H1275 0.950 . S
C1254 H1250 0.949 . S
C1254 C1262 1.574 . S
C1254 C1270 1.368 . S
H1255 C1263 0.950 . S
H1256 C1261 0.950 . S
H1257 C1262 0.949 . S
H1258 C1264 0.950 . S
H1259 C1265 0.950 . S
H1260 C1266 0.949 . S
C1261 H1256 0.950 . S
C1261 C1263 1.327 . S
C1261 C1267 1.429 . S
C1262 C1254 1.574 . S
C1262 H1257 0.949 . S
C1262 C1268 1.368 . S
C1263 C1247 1.349 . S
C1263 H1255 0.950 . S
C1263 C1261 1.327 . S
C1264 C1252 1.349 . S
C1264 H1258 0.950 . S
C1264 C1265 1.327 . S
C1265 H1259 0.950 . S
C1265 C1264 1.327 . S
C1265 C1269 1.429 . S
C1266 C1249 1.574 . S
C1266 H1260 0.949 . S
C1266 C1270 1.368 . S
C1267 C1248 1.429 . S
C1267 C1261 1.429 . S
C1267 C1268 1.523 . S
C1268 C1249 1.368 . S
C1268 C1262 1.368 . S
C1268 C1267 1.523 . S
C1269 C1253 1.429 . S
C1269 C1265 1.429 . S
C1269 C1270 1.523 . S
C1270 C1254 1.368 . S
C1270 C1266 1.368 . S
C1270 C1269 1.523 . S
H1271 C1246 0.950 . S
H1272 C1248 0.950 . S
H1273 C1249 0.949 . S
H1274 C1251 0.950 . S
H1275 C1253 0.950 . S
C1276 C1277 1.349 1_565 S
C1276 C1278 1.327 . S
C1276 H1301 0.950 . S
C1277 C1276 1.349 1_545 S
C1277 C1293 1.349 . S
C1278 C1276 1.327 . S
C1278 C1297 1.429 1_565 S
C1278 H1302 0.950 . S
C1279 C1296 1.574 . S
C1279 C1298 1.368 . S
C1279 H1303 0.949 . S
H1280 C1284 0.949 . S
C1281 C1282 1.349 . S
C1281 C1283 1.327 . S
C1281 H1304 0.950 . S
C1282 C1281 1.349 . S
C1282 C1294 1.349 1_545 S
C1283 C1281 1.327 . S
C1283 C1299 1.429 . S
C1283 H1305 0.950 . S
C1284 H1280 0.949 . S
C1284 C1292 1.574 . S
C1284 C1300 1.368 1_565 S
H1285 C1293 0.950 . S
H1286 C1291 0.950 . S
H1287 C1292 0.949 . S
H1288 C1294 0.950 . S
H1289 C1295 0.950 . S
H1290 C1296 0.949 . S
C1291 H1286 0.950 . S
C1291 C1293 1.327 . S
C1291 C1297 1.429 . S
C1292 C1284 1.574 . S
C1292 H1287 0.949 . S
C1292 C1298 1.368 1_565 S
C1293 C1277 1.349 . S
C1293 H1285 0.950 . S
C1293 C1291 1.327 . S
C1294 C1282 1.349 1_565 S
C1294 H1288 0.950 . S
C1294 C1295 1.327 . S
C1295 H1289 0.950 . S
C1295 C1294 1.327 . S
C1295 C1299 1.429 1_565 S
C1296 C1279 1.574 . S
C1296 H1290 0.949 . S
C1296 C1300 1.368 . S
C1297 C1278 1.429 1_545 S
C1297 C1291 1.429 . S
C1297 C1298 1.523 . S
C1298 C1279 1.368 . S
C1298 C1292 1.368 1_545 S
C1298 C1297 1.523 . S
C1299 C1283 1.429 . S
C1299 C1295 1.429 1_545 S
C1299 C1300 1.523 . S
C1300 C1284 1.368 1_545 S
C1300 C1296 1.368 . S
C1300 C1299 1.523 . S
H1301 C1276 0.950 . S
H1302 C1278 0.950 . S
H1303 C1279 0.949 . S
H1304 C1281 0.950 . S
H1305 C1283 0.950 . S
C1306 C1307 1.349 . S
C1306 C1308 1.327 . S
C1306 H1331 0.950 . S
C1307 C1306 1.349 . S
C1307 C1323 1.349 . S
C1308 C1306 1.327 . S
C1308 C1327 1.429 . S
C1308 H1332 0.950 . S
C1309 C1326 1.574 . S
C1309 C1328 1.368 . S
C1309 H1333 0.949 . S
H1310 C1314 0.949 . S
C1311 C1312 1.349 . S
C1311 C1313 1.327 . S
C1311 H1334 0.950 . S
C1312 C1311 1.349 . S
C1312 C1324 1.349 . S
C1313 C1311 1.327 . S
C1313 C1329 1.429 . S
C1313 H1335 0.950 . S
C1314 H1310 0.949 . S
C1314 C1322 1.574 . S
C1314 C1330 1.368 . S
H1315 C1323 0.950 . S
H1316 C1321 0.950 . S
H1317 C1322 0.949 . S
H1318 C1324 0.950 . S
H1319 C1325 0.950 . S
H1320 C1326 0.949 . S
C1321 H1316 0.950 . S
C1321 C1323 1.327 . S
C1321 C1327 1.429 . S
C1322 C1314 1.574 . S
C1322 H1317 0.949 . S
C1322 C1328 1.368 . S
C1323 C1307 1.349 . S
C1323 H1315 0.950 . S
C1323 C1321 1.327 . S
C1324 C1312 1.349 . S
C1324 H1318 0.950 . S
C1324 C1325 1.327 . S
C1325 H1319 0.950 . S
C1325 C1324 1.327 . S
C1325 C1329 1.429 . S
C1326 C1309 1.574 . S
C1326 H1320 0.949 . S
C1326 C1330 1.368 . S
C1327 C1308 1.429 . S
C1327 C1321 1.429 . S
C1327 C1328 1.523 . S
C1328 C1309 1.368 . S
C1328 C1322 1.368 . S
C1328 C1327 1.523 . S
C1329 C1313 1.429 . S
C1329 C1325 1.429 . S
C1329 C1330 1.523 . S
C1330 C1314 1.368 . S
C1330 C1326 1.368 . S
C1330 C1329 1.523 . S
H1331 C1306 0.950 . S
H1332 C1308 0.950 . S
H1333 C1309 0.949 . S
H1334 C1311 0.950 . S
H1335 C1313 0.950 . S
C1336 C1337 1.349 1_565 S
C1336 C1338 1.327 . S
C1336 H1361 0.950 . S
C1337 C1336 1.349 1_545 S
C1337 C1353 1.349 . S
C1338 C1336 1.327 . S
C1338 C1357 1.429 1_565 S
C1338 H1362 0.950 . S
C1339 C1356 1.574 . S
C1339 C1358 1.368 . S
C1339 H1363 0.949 . S
H1340 C1344 0.949 . S
C1341 C1342 1.364 . S
C1341 C1343 1.321 1_455 S
C1341 H1364 0.936 1_455 S
C1342 C1341 1.364 . S
C1342 C1354 1.326 1_545 S
C1343 C1341 1.321 1_655 S
C1343 C1359 1.429 . S
C1343 H1365 0.950 . S
C1344 H1340 0.949 . S
C1344 C1352 1.574 . S
C1344 C1360 1.368 1_565 S
H1345 C1353 0.950 . S
H1346 C1351 0.950 . S
H1347 C1352 0.949 . S
H1348 C1354 0.980 . S
H1349 C1355 0.950 . S
H1350 C1356 0.949 . S
C1351 H1346 0.950 . S
C1351 C1353 1.327 . S
C1351 C1357 1.429 . S
C1352 C1344 1.574 . S
C1352 H1347 0.949 . S
C1352 C1358 1.368 1_565 S
C1353 C1337 1.349 . S
C1353 H1345 0.950 . S
C1353 C1351 1.327 . S
C1354 C1342 1.326 1_565 S
C1354 H1348 0.980 . S
C1354 C1355 1.321 . S
C1355 H1349 0.950 . S
C1355 C1354 1.321 . S
C1355 C1359 1.429 1_465 S
C1356 C1339 1.574 . S
C1356 H1350 0.949 . S
C1356 C1360 1.368 . S
C1357 C1338 1.429 1_545 S
C1357 C1351 1.429 . S
C1357 C1358 1.523 . S
C1358 C1339 1.368 . S
C1358 C1352 1.368 1_545 S
C1358 C1357 1.523 . S
C1359 C1343 1.429 . S
C1359 C1355 1.429 1_645 S
C1359 C1360 1.523 . S
C1360 C1344 1.368 1_545 S
C1360 C1356 1.368 . S
C1360 C1359 1.523 . S
H1361 C1336 0.950 . S
H1362 C1338 0.950 . S
H1363 C1339 0.949 . S
H1364 C1341 0.936 1_655 S
H1365 C1343 0.950 . S
C1366 C1367 1.349 . S
C1366 C1368 1.327 . S
C1366 H1391 0.950 . S
C1367 C1366 1.349 . S
C1367 C1383 1.349 . S
C1368 C1366 1.327 . S
C1368 C1387 1.429 . S
C1368 H1392 0.950 . S
C1369 C1386 1.574 . S
C1369 C1388 1.368 . S
C1369 H1393 0.949 . S
H1370 C1374 0.949 . S
C1371 C1372 1.349 . S
C1371 C1373 1.327 . S
C1371 H1394 0.950 . S
C1372 C1371 1.349 . S
C1372 C1384 1.349 . S
C1373 C1371 1.327 . S
C1373 C1389 1.429 . S
C1373 H1395 0.950 . S
C1374 H1370 0.949 . S
C1374 C1382 1.574 . S
C1374 C1390 1.368 . S
H1375 C1383 0.950 . S
H1376 C1381 0.950 . S
H1377 C1382 0.949 . S
H1378 C1384 0.950 . S
H1379 C1385 0.950 . S
H1380 C1386 0.949 . S
C1381 H1376 0.950 . S
C1381 C1383 1.327 . S
C1381 C1387 1.429 . S
C1382 C1374 1.574 . S
C1382 H1377 0.949 . S
C1382 C1388 1.368 . S
C1383 C1367 1.349 . S
C1383 H1375 0.950 . S
C1383 C1381 1.327 . S
C1384 C1372 1.349 . S
C1384 H1378 0.950 . S
C1384 C1385 1.327 . S
C1385 H1379 0.950 . S
C1385 C1384 1.327 . S
C1385 C1389 1.429 . S
C1386 C1369 1.574 . S
C1386 H1380 0.949 . S
C1386 C1390 1.368 . S
C1387 C1368 1.429 . S
C1387 C1381 1.429 . S
C1387 C1388 1.523 . S
C1388 C1369 1.368 . S
C1388 C1382 1.368 . S
C1388 C1387 1.523 . S
C1389 C1373 1.429 . S
C1389 C1385 1.429 . S
C1389 C1390 1.523 . S
C1390 C1374 1.368 . S
C1390 C1386 1.368 . S
C1390 C1389 1.523 . S
H1391 C1366 0.950 . S
H1392 C1368 0.950 . S
H1393 C1369 0.949 . S
H1394 C1371 0.950 . S
H1395 C1373 0.950 . S
C1396 C1397 1.349 . S
C1396 C1398 1.327 . S
C1396 H1421 0.950 . S
C1397 C1396 1.349 . S
C1397 C1413 1.349 . S
C1398 C1396 1.327 . S
C1398 C1417 1.429 . S
C1398 H1422 0.950 . S
C1399 C1416 1.574 . S
C1399 C1418 1.368 . S
C1399 H1423 0.925 1_545 S
H1400 C1404 0.949 . S
C1401 C1402 1.349 . S
C1401 C1403 1.327 . S
C1401 H1424 0.950 . S
C1402 C1401 1.349 . S
C1402 C1414 1.349 . S
C1403 C1401 1.327 . S
C1403 C1419 1.429 . S
C1403 H1425 0.950 . S
C1404 H1400 0.949 . S
C1404 C1412 1.574 . S
C1404 C1420 1.368 . S
H1405 C1413 0.950 1_565 S
H1406 C1411 0.950 1_565 S
H1407 C1412 0.949 . S
H1408 C1414 0.950 . S
H1409 C1415 0.950 . S
H1410 C1416 0.949 . S
C1411 H1406 0.950 1_545 S
C1411 C1413 1.327 . S
C1411 C1417 1.429 . S
C1412 C1404 1.574 . S
C1412 H1407 0.949 . S
C1412 C1418 1.368 . S
C1413 C1397 1.349 . S
C1413 H1405 0.950 1_545 S
C1413 C1411 1.327 . S
C1414 C1402 1.349 . S
C1414 H1408 0.950 . S
C1414 C1415 1.327 . S
C1415 H1409 0.950 . S
C1415 C1414 1.327 . S
C1415 C1419 1.429 . S
C1416 C1399 1.574 . S
C1416 H1410 0.949 . S
C1416 C1420 1.368 . S
C1417 C1398 1.429 . S
C1417 C1411 1.429 . S
C1417 C1418 1.523 . S
C1418 C1399 1.368 . S
C1418 C1412 1.368 . S
C1418 C1417 1.523 . S
C1419 C1403 1.429 . S
C1419 C1415 1.429 . S
C1419 C1420 1.523 . S
C1420 C1404 1.368 . S
C1420 C1416 1.368 . S
C1420 C1419 1.523 . S
H1421 C1396 0.950 . S
H1422 C1398 0.950 . S
H1423 C1399 0.925 1_565 S
H1424 C1401 0.950 . S
H1425 C1403 0.950 . S
C1426 C1427 1.349 . S
C1426 C1428 1.327 . S
C1426 H1451 0.950 . S
C1427 C1426 1.349 . S
C1427 C1443 1.349 . S
C1428 C1426 1.327 . S
C1428 C1447 1.429 . S
C1428 H1452 0.950 . S
C1429 C1446 1.574 . S
C1429 C1448 1.368 . S
C1429 H1453 0.949 . S
H1430 C1434 0.949 . S
C1431 C1432 1.349 . S
C1431 C1433 1.327 . S
C1431 H1454 0.950 . S
C1432 C1431 1.349 . S
C1432 C1444 1.349 . S
C1433 C1431 1.327 . S
C1433 C1449 1.429 . S
C1433 H1455 0.950 . S
C1434 H1430 0.949 . S
C1434 C1442 1.574 . S
C1434 C1450 1.368 . S
H1435 C1443 0.950 . S
H1436 C1441 0.950 . S
H1437 C1442 0.949 . S
H1438 C1444 0.950 . S
H1439 C1445 0.950 . S
H1440 C1446 0.949 . S
C1441 H1436 0.950 . S
C1441 C1443 1.327 . S
C1441 C1447 1.429 . S
C1442 C1434 1.574 . S
C1442 H1437 0.949 . S
C1442 C1448 1.368 . S
C1443 C1427 1.349 . S
C1443 H1435 0.950 . S
C1443 C1441 1.327 . S
C1444 C1432 1.349 . S
C1444 H1438 0.950 . S
C1444 C1445 1.327 . S
C1445 H1439 0.950 . S
C1445 C1444 1.327 . S
C1445 C1449 1.429 . S
C1446 C1429 1.574 . S
C1446 H1440 0.949 . S
C1446 C1450 1.368 . S
C1447 C1428 1.429 . S
C1447 C1441 1.429 . S
C1447 C1448 1.523 . S
C1448 C1429 1.368 . S
C1448 C1442 1.368 . S
C1448 C1447 1.523 . S
C1449 C1433 1.429 . S
C1449 C1445 1.429 . S
C1449 C1450 1.523 . S
C1450 C1434 1.368 . S
C1450 C1446 1.368 . S
C1450 C1449 1.523 . S
H1451 C1426 0.950 . S
H1452 C1428 0.950 . S
H1453 C1429 0.949 . S
H1454 C1431 0.950 . S
H1455 C1433 0.950 . S
C1456 C1457 1.349 . S
C1456 C1458 1.327 . S
C1456 H1481 0.950 . S
C1457 C1456 1.349 . S
C1457 C1473 1.349 1_556 S
C1458 C1456 1.327 . S
C1458 C1477 1.429 1_556 S
C1458 H1482 0.950 . S
C1459 C1476 1.574 . S
C1459 C1478 1.368 . S
C1459 H1483 0.949 . S
H1460 C1464 0.949 1_556 S
C1461 C1462 1.349 . S
C1461 C1463 1.327 . S
C1461 H1484 0.950 . S
C1462 C1461 1.349 . S
C1462 C1474 1.349 . S
C1463 C1461 1.327 . S
C1463 C1479 1.429 . S
C1463 H1485 0.950 . S
C1464 H1460 0.949 1_554 S
C1464 C1472 1.566 1_554 S
C1464 C1480 1.368 . S
H1465 C1473 0.950 . S
H1466 C1471 0.950 . S
H1467 C1472 0.972 . S
H1468 C1474 0.950 . S
H1469 C1475 0.950 . S
H1470 C1476 0.949 . S
C1471 H1466 0.950 . S
C1471 C1473 1.327 . S
C1471 C1477 1.429 . S
C1472 C1464 1.566 1_556 S
C1472 H1467 0.972 . S
C1472 C1478 1.350 1_556 S
C1473 C1457 1.349 1_554 S
C1473 H1465 0.950 . S
C1473 C1471 1.327 . S
C1474 C1462 1.349 . S
C1474 H1468 0.950 . S
C1474 C1475 1.327 . S
C1475 H1469 0.950 . S
C1475 C1474 1.327 . S
C1475 C1479 1.429 . S
C1476 C1459 1.574 . S
C1476 H1470 0.949 . S
C1476 C1480 1.368 . S
C1477 C1458 1.429 1_554 S
C1477 C1471 1.429 . S
C1477 C1478 1.523 . S
C1478 C1459 1.368 . S
C1478 C1472 1.350 1_554 S
C1478 C1477 1.523 . S
C1479 C1463 1.429 . S
C1479 C1475 1.429 . S
C1479 C1480 1.523 . S
C1480 C1464 1.368 . S
C1480 C1476 1.368 . S
C1480 C1479 1.523 . S
H1481 C1456 0.950 . S
H1482 C1458 0.950 . S
H1483 C1459 0.949 . S
H1484 C1461 0.950 . S
H1485 C1463 0.950 . S
C1486 C1487 1.349 . S
C1486 C1488 1.327 . S
C1486 H1511 0.950 . S
C1487 C1486 1.349 . S
C1487 C1503 1.349 . S
C1488 C1486 1.327 . S
C1488 C1507 1.429 . S
C1488 H1512 0.950 . S
C1489 C1506 1.574 . S
C1489 C1508 1.368 . S
C1489 H1513 0.949 1_554 S
H1490 C1494 0.949 . S
C1491 C1492 1.349 . S
C1491 C1493 1.327 . S
C1491 H1514 0.950 1_554 S
C1492 C1491 1.349 . S
C1492 C1504 1.349 . S
C1493 C1491 1.327 . S
C1493 C1509 1.429 . S
C1493 H1515 0.950 1_554 S
C1494 H1490 0.949 . S
C1494 C1502 1.574 . S
C1494 C1510 1.368 . S
H1495 C1503 0.950 1_556 S
H1496 C1501 0.950 1_556 S
H1497 C1502 0.949 . S
H1498 C1504 0.950 . S
H1499 C1505 0.950 . S
H1500 C1506 0.949 1_556 S
C1501 H1496 0.950 1_554 S
C1501 C1503 1.327 . S
C1501 C1507 1.429 . S
C1502 C1494 1.574 . S
C1502 H1497 0.949 . S
C1502 C1508 1.368 . S
C1503 C1487 1.349 . S
C1503 H1495 0.950 1_554 S
C1503 C1501 1.327 . S
C1504 C1492 1.349 . S
C1504 H1498 0.950 . S
C1504 C1505 1.327 . S
C1505 H1499 0.950 . S
C1505 C1504 1.327 . S
C1505 C1509 1.429 . S
C1506 C1489 1.574 . S
C1506 H1500 0.949 1_554 S
C1506 C1510 1.368 . S
C1507 C1488 1.429 . S
C1507 C1501 1.429 . S
C1507 C1508 1.523 . S
C1508 C1489 1.368 . S
C1508 C1502 1.368 . S
C1508 C1507 1.523 . S
C1509 C1493 1.429 . S
C1509 C1505 1.429 . S
C1509 C1510 1.523 . S
C1510 C1494 1.368 . S
C1510 C1506 1.368 . S
C1510 C1509 1.523 . S
H1511 C1486 0.950 . S
H1512 C1488 0.950 . S
H1513 C1489 0.949 1_556 S
H1514 C1491 0.950 1_556 S
H1515 C1493 0.950 1_556 S
C1516 C1517 1.349 . S
C1516 C1518 1.327 . S
C1516 H1541 0.950 . S
C1517 C1516 1.349 . S
C1517 C1533 1.349 . S
C1518 C1516 1.327 . S
C1518 C1537 1.429 . S
C1518 H1542 0.950 . S
C1519 C1536 1.574 . S
C1519 C1538 1.368 . S
C1519 H1543 0.949 . S
H1520 C1524 0.949 . S
C1521 C1522 1.349 . S
C1521 C1523 1.327 . S
C1521 H1544 0.950 . S
C1522 C1521 1.349 . S
C1522 C1534 1.349 . S
C1523 C1521 1.327 . S
C1523 C1539 1.429 . S
C1523 H1545 0.950 . S
C1524 H1520 0.949 . S
C1524 C1532 1.574 . S
C1524 C1540 1.368 . S
H1525 C1533 0.950 . S
H1526 C1531 0.950 . S
H1527 C1532 0.949 . S
H1528 C1534 0.950 . S
H1529 C1535 0.950 . S
H1530 C1536 0.949 . S
C1531 H1526 0.950 . S
C1531 C1533 1.327 . S
C1531 C1537 1.429 . S
C1532 C1524 1.574 . S
C1532 H1527 0.949 . S
C1532 C1538 1.368 . S
C1533 C1517 1.349 . S
C1533 H1525 0.950 . S
C1533 C1531 1.327 . S
C1534 C1522 1.349 . S
C1534 H1528 0.950 . S
C1534 C1535 1.327 . S
C1535 H1529 0.950 . S
C1535 C1534 1.327 . S
C1535 C1539 1.429 . S
C1536 C1519 1.574 . S
C1536 H1530 0.949 . S
C1536 C1540 1.368 . S
C1537 C1518 1.429 . S
C1537 C1531 1.429 . S
C1537 C1538 1.523 . S
C1538 C1519 1.368 . S
C1538 C1532 1.368 . S
C1538 C1537 1.523 . S
C1539 C1523 1.429 . S
C1539 C1535 1.429 . S
C1539 C1540 1.523 . S
C1540 C1524 1.368 . S
C1540 C1536 1.368 . S
C1540 C1539 1.523 . S
H1541 C1516 0.950 . S
H1542 C1518 0.950 . S
H1543 C1519 0.949 . S
H1544 C1521 0.950 . S
H1545 C1523 0.950 . S
C1546 C1547 1.349 . S
C1546 C1548 1.327 . S
C1546 H1571 0.950 . S
C1547 C1546 1.349 . S
C1547 C1563 1.349 . S
C1548 C1546 1.327 . S
C1548 C1567 1.429 . S
C1548 H1572 0.950 . S
C1549 C1566 1.574 . S
C1549 C1568 1.368 . S
C1549 H1573 0.949 . S
H1550 C1554 0.949 . S
C1551 C1552 1.349 . S
C1551 C1553 1.327 . S
C1551 H1574 0.950 . S
C1552 C1551 1.349 . S
C1552 C1564 1.349 . S
C1553 C1551 1.327 . S
C1553 C1569 1.429 . S
C1553 H1575 0.950 . S
C1554 H1550 0.949 . S
C1554 C1562 1.574 . S
C1554 C1570 1.368 . S
H1555 C1563 0.950 . S
H1556 C1561 0.950 . S
H1557 C1562 0.949 . S
H1558 C1564 0.950 . S
H1559 C1565 0.950 . S
H1560 C1566 0.949 . S
C1561 H1556 0.950 . S
C1561 C1563 1.327 . S
C1561 C1567 1.429 . S
C1562 C1554 1.574 . S
C1562 H1557 0.949 . S
C1562 C1568 1.368 . S
C1563 C1547 1.349 . S
C1563 H1555 0.950 . S
C1563 C1561 1.327 . S
C1564 C1552 1.349 . S
C1564 H1558 0.950 . S
C1564 C1565 1.327 . S
C1565 H1559 0.950 . S
C1565 C1564 1.327 . S
C1565 C1569 1.429 . S
C1566 C1549 1.574 . S
C1566 H1560 0.949 . S
C1566 C1570 1.368 . S
C1567 C1548 1.429 . S
C1567 C1561 1.429 . S
C1567 C1568 1.523 . S
C1568 C1549 1.368 . S
C1568 C1562 1.368 . S
C1568 C1567 1.523 . S
C1569 C1553 1.429 . S
C1569 C1565 1.429 . S
C1569 C1570 1.523 . S
C1570 C1554 1.368 . S
C1570 C1566 1.368 . S
C1570 C1569 1.523 . S
H1571 C1546 0.950 . S
H1572 C1548 0.950 . S
H1573 C1549 0.949 . S
H1574 C1551 0.950 . S
H1575 C1553 0.950 . S
C1576 C1577 1.349 . S
C1576 C1578 1.327 . S
C1576 H1601 0.950 . S
C1577 C1576 1.349 . S
C1577 C1593 1.349 . S
C1578 C1576 1.327 . S
C1578 C1597 1.429 . S
C1578 H1602 0.950 . S
C1579 C1596 1.574 . S
C1579 C1598 1.368 . S
C1579 H1603 0.949 . S
H1580 C1584 0.949 . S
C1581 C1582 1.349 . S
C1581 C1583 1.327 . S
C1581 H1604 0.950 . S
C1582 C1581 1.349 . S
C1582 C1594 1.349 . S
C1583 C1581 1.327 . S
C1583 C1599 1.429 . S
C1583 H1605 0.950 . S
C1584 H1580 0.949 . S
C1584 C1592 1.574 . S
C1584 C1600 1.368 . S
H1585 C1593 0.950 . S
H1586 C1591 0.950 . S
H1587 C1592 0.949 . S
H1588 C1594 0.950 . S
H1589 C1595 0.950 . S
H1590 C1596 0.949 . S
C1591 H1586 0.950 . S
C1591 C1593 1.327 . S
C1591 C1597 1.429 . S
C1592 C1584 1.574 . S
C1592 H1587 0.949 . S
C1592 C1598 1.368 . S
C1593 C1577 1.349 . S
C1593 H1585 0.950 . S
C1593 C1591 1.327 . S
C1594 C1582 1.349 . S
C1594 H1588 0.950 . S
C1594 C1595 1.327 . S
C1595 H1589 0.950 . S
C1595 C1594 1.327 . S
C1595 C1599 1.429 . S
C1596 C1579 1.574 . S
C1596 H1590 0.949 . S
C1596 C1600 1.368 . S
C1597 C1578 1.429 . S
C1597 C1591 1.429 . S
C1597 C1598 1.523 . S
C1598 C1579 1.368 . S
C1598 C1592 1.368 . S
C1598 C1597 1.523 . S
C1599 C1583 1.429 . S
C1599 C1595 1.429 . S
C1599 C1600 1.523 . S
C1600 C1584 1.368 . S
C1600 C1596 1.368 . S
C1600 C1599 1.523 . S
H1601 C1576 0.950 . S
H1602 C1578 0.950 . S
H1603 C1579 0.949 . S
H1604 C1581 0.950 . S
H1605 C1583 0.950 . S
C1606 C1607 1.349 . S
C1606 C1608 1.327 . S
C1606 H1631 0.950 . S
C1607 C1606 1.349 . S
C1607 C1623 1.349 . S
C1608 C1606 1.327 . S
C1608 C1627 1.429 . S
C1608 H1632 0.950 . S
C1609 C1626 1.574 . S
C1609 C1628 1.368 . S
C1609 H1633 0.949 . S
H1610 C1614 0.949 . S
C1611 C1612 1.349 . S
C1611 C1613 1.327 . S
C1611 H1634 0.950 . S
C1612 C1611 1.349 . S
C1612 C1624 1.349 . S
C1613 C1611 1.327 . S
C1613 C1629 1.429 . S
C1613 H1635 0.950 . S
C1614 H1610 0.949 . S
C1614 C1622 1.574 . S
C1614 C1630 1.368 . S
H1615 C1623 0.950 . S
H1616 C1621 0.950 . S
H1617 C1622 0.949 . S
H1618 C1624 0.950 . S
H1619 C1625 0.950 . S
H1620 C1626 0.949 . S
C1621 H1616 0.950 . S
C1621 C1623 1.327 . S
C1621 C1627 1.429 . S
C1622 C1614 1.574 . S
C1622 H1617 0.949 . S
C1622 C1628 1.368 . S
C1623 C1607 1.349 . S
C1623 H1615 0.950 . S
C1623 C1621 1.327 . S
C1624 C1612 1.349 . S
C1624 H1618 0.950 . S
C1624 C1625 1.327 . S
C1625 H1619 0.950 . S
C1625 C1624 1.327 . S
C1625 C1629 1.429 . S
C1626 C1609 1.574 . S
C1626 H1620 0.949 . S
C1626 C1630 1.368 . S
C1627 C1608 1.429 . S
C1627 C1621 1.429 . S
C1627 C1628 1.523 . S
C1628 C1609 1.368 . S
C1628 C1622 1.368 . S
C1628 C1627 1.523 . S
C1629 C1613 1.429 . S
C1629 C1625 1.429 . S
C1629 C1630 1.523 . S
C1630 C1614 1.368 . S
C1630 C1626 1.368 . S
C1630 C1629 1.523 . S
H1631 C1606 0.950 . S
H1632 C1608 0.950 . S
H1633 C1609 0.949 . S
H1634 C1611 0.950 . S
H1635 C1613 0.950 . S
C1636 C1637 1.349 . S
C1636 C1638 1.327 . S
C1636 H1661 0.950 . S
C1637 C1636 1.349 . S
C1637 C1653 1.349 . S
C1638 C1636 1.327 . S
C1638 C1657 1.429 . S
C1638 H1662 0.950 . S
C1639 C1656 1.574 . S
C1639 C1658 1.368 . S
C1639 H1663 0.949 . S
H1640 C1644 0.949 . S
C1641 C1642 1.349 . S
C1641 C1643 1.327 . S
C1641 H1664 0.950 . S
C1642 C1641 1.349 . S
C1642 C1654 1.349 . S
C1643 C1641 1.327 . S
C1643 C1659 1.429 . S
C1643 H1665 0.950 . S
C1644 H1640 0.949 . S
C1644 C1652 1.574 . S
C1644 C1660 1.368 . S
H1645 C1653 0.950 . S
H1646 C1651 0.950 . S
H1647 C1652 0.949 . S
H1648 C1654 0.950 . S
H1649 C1655 0.950 . S
H1650 C1656 0.949 . S
C1651 H1646 0.950 . S
C1651 C1653 1.327 . S
C1651 C1657 1.429 . S
C1652 C1644 1.574 . S
C1652 H1647 0.949 . S
C1652 C1658 1.368 . S
C1653 C1637 1.349 . S
C1653 H1645 0.950 . S
C1653 C1651 1.327 . S
C1654 C1642 1.349 . S
C1654 H1648 0.950 . S
C1654 C1655 1.327 . S
C1655 H1649 0.950 . S
C1655 C1654 1.327 . S
C1655 C1659 1.429 . S
C1656 C1639 1.574 . S
C1656 H1650 0.949 . S
C1656 C1660 1.368 . S
C1657 C1638 1.429 . S
C1657 C1651 1.429 . S
C1657 C1658 1.523 . S
C1658 C1639 1.368 . S
C1658 C1652 1.368 . S
C1658 C1657 1.523 . S
C1659 C1643 1.429 . S
C1659 C1655 1.429 . S
C1659 C1660 1.523 . S
C1660 C1644 1.368 . S
C1660 C1656 1.368 . S
C1660 C1659 1.523 . S
H1661 C1636 0.950 . S
H1662 C1638 0.950 . S
H1663 C1639 0.949 . S
H1664 C1641 0.950 . S
H1665 C1643 0.950 . S
C1666 C1667 1.349 . S
C1666 C1668 1.327 . S
C1666 H1691 0.950 . S
C1667 C1666 1.349 . S
C1667 C1683 1.349 . S
C1668 C1666 1.327 . S
C1668 C1687 1.429 . S
C1668 H1692 0.950 . S
C1669 C1686 1.574 . S
C1669 C1688 1.368 . S
C1669 H1693 0.949 . S
H1670 C1674 0.949 . S
C1671 C1672 1.349 . S
C1671 C1673 1.327 . S
C1671 H1694 0.950 . S
C1672 C1671 1.349 . S
C1672 C1684 1.349 . S
C1673 C1671 1.327 . S
C1673 C1689 1.429 . S
C1673 H1695 0.950 . S
C1674 H1670 0.949 . S
C1674 C1682 1.574 . S
C1674 C1690 1.368 . S
H1675 C1683 0.950 . S
H1676 C1681 0.950 . S
H1677 C1682 0.949 . S
H1678 C1684 0.950 . S
H1679 C1685 0.950 . S
H1680 C1686 0.949 . S
C1681 H1676 0.950 . S
C1681 C1683 1.327 . S
C1681 C1687 1.429 . S
C1682 C1674 1.574 . S
C1682 H1677 0.949 . S
C1682 C1688 1.368 . S
C1683 C1667 1.349 . S
C1683 H1675 0.950 . S
C1683 C1681 1.327 . S
C1684 C1672 1.349 . S
C1684 H1678 0.950 . S
C1684 C1685 1.327 . S
C1685 H1679 0.950 . S
C1685 C1684 1.327 . S
C1685 C1689 1.429 . S
C1686 C1669 1.574 . S
C1686 H1680 0.949 . S
C1686 C1690 1.368 . S
C1687 C1668 1.429 . S
C1687 C1681 1.429 . S
C1687 C1688 1.523 . S
C1688 C1669 1.368 . S
C1688 C1682 1.368 . S
C1688 C1687 1.523 . S
C1689 C1673 1.429 . S
C1689 C1685 1.429 . S
C1689 C1690 1.523 . S
C1690 C1674 1.368 . S
C1690 C1686 1.368 . S
C1690 C1689 1.523 . S
H1691 C1666 0.950 . S
H1692 C1668 0.950 . S
H1693 C1669 0.949 . S
H1694 C1671 0.950 . S
H1695 C1673 0.950 . S
C1696 C1697 1.349 . S
C1696 C1698 1.327 . S
C1696 H1721 0.950 . S
C1697 C1696 1.349 . S
C1697 C1713 1.349 . S
C1698 C1696 1.327 . S
C1698 C1717 1.429 . S
C1698 H1722 0.950 . S
C1699 C1716 1.574 . S
C1699 C1718 1.368 . S
C1699 H1723 0.949 . S
H1700 C1704 0.949 . S
C1701 C1702 1.349 . S
C1701 C1703 1.327 . S
C1701 H1724 0.950 . S
C1702 C1701 1.349 . S
C1702 C1714 1.349 . S
C1703 C1701 1.327 . S
C1703 C1719 1.429 . S
C1703 H1725 0.950 . S
C1704 H1700 0.949 . S
C1704 C1712 1.574 . S
C1704 C1720 1.368 . S
H1705 C1713 0.950 . S
H1706 C1711 0.950 . S
H1707 C1712 0.949 . S
H1708 C1714 0.950 . S
H1709 C1715 0.950 . S
H1710 C1716 0.949 . S
C1711 H1706 0.950 . S
C1711 C1713 1.327 . S
C1711 C1717 1.429 . S
C1712 C1704 1.574 . S
C1712 H1707 0.949 . S
C1712 C1718 1.368 . S
C1713 C1697 1.349 . S
C1713 H1705 0.950 . S
C1713 C1711 1.327 . S
C1714 C1702 1.349 . S
C1714 H1708 0.950 . S
C1714 C1715 1.327 . S
C1715 H1709 0.950 . S
C1715 C1714 1.327 . S
C1715 C1719 1.429 . S
C1716 C1699 1.574 . S
C1716 H1710 0.949 . S
C1716 C1720 1.368 . S
C1717 C1698 1.429 . S
C1717 C1711 1.429 . S
C1717 C1718 1.523 . S
C1718 C1699 1.368 . S
C1718 C1712 1.368 . S
C1718 C1717 1.523 . S
C1719 C1703 1.429 . S
C1719 C1715 1.429 . S
C1719 C1720 1.523 . S
C1720 C1704 1.368 . S
C1720 C1716 1.368 . S
C1720 C1719 1.523 . S
H1721 C1696 0.950 . S
H1722 C1698 0.950 . S
H1723 C1699 0.949 . S
H1724 C1701 0.950 . S
H1725 C1703 0.950 . S
C1726 C1727 1.349 . S
C1726 C1728 1.327 . S
C1726 H1751 0.950 . S
C1727 C1726 1.349 . S
C1727 C1743 1.349 . S
C1728 C1726 1.327 . S
C1728 C1747 1.429 . S
C1728 H1752 0.950 . S
C1729 C1746 1.574 . S
C1729 C1748 1.368 . S
C1729 H1753 0.949 . S
H1730 C1734 0.949 . S
C1731 C1732 1.349 . S
C1731 C1733 1.327 . S
C1731 H1754 0.950 . S
C1732 C1731 1.349 . S
C1732 C1744 1.349 . S
C1733 C1731 1.327 . S
C1733 C1749 1.429 . S
C1733 H1755 0.950 . S
C1734 H1730 0.949 . S
C1734 C1742 1.574 . S
C1734 C1750 1.368 . S
H1735 C1743 0.950 . S
H1736 C1741 0.950 . S
H1737 C1742 0.949 . S
H1738 C1744 0.950 . S
H1739 C1745 0.950 . S
H1740 C1746 0.949 . S
C1741 H1736 0.950 . S
C1741 C1743 1.327 . S
C1741 C1747 1.429 . S
C1742 C1734 1.574 . S
C1742 H1737 0.949 . S
C1742 C1748 1.368 . S
C1743 C1727 1.349 . S
C1743 H1735 0.950 . S
C1743 C1741 1.327 . S
C1744 C1732 1.349 . S
C1744 H1738 0.950 . S
C1744 C1745 1.327 . S
C1745 H1739 0.950 . S
C1745 C1744 1.327 . S
C1745 C1749 1.429 . S
C1746 C1729 1.574 . S
C1746 H1740 0.949 . S
C1746 C1750 1.368 . S
C1747 C1728 1.429 . S
C1747 C1741 1.429 . S
C1747 C1748 1.523 . S
C1748 C1729 1.368 . S
C1748 C1742 1.368 . S
C1748 C1747 1.523 . S
C1749 C1733 1.429 . S
C1749 C1745 1.429 . S
C1749 C1750 1.523 . S
C1750 C1734 1.368 . S
C1750 C1746 1.368 . S
C1750 C1749 1.523 . S
H1751 C1726 0.950 . S
H1752 C1728 0.950 . S
H1753 C1729 0.949 . S
H1754 C1731 0.950 . S
H1755 C1733 0.950 . S
C1756 C1757 1.349 . S
C1756 C1758 1.327 . S
C1756 H1781 0.950 . S
C1757 C1756 1.349 . S
C1757 C1773 1.349 . S
C1758 C1756 1.327 . S
C1758 C1777 1.429 . S
C1758 H1782 0.950 . S
C1759 C1776 1.574 . S
C1759 C1778 1.368 . S
C1759 H1783 0.949 . S
H1760 C1764 0.949 . S
C1761 C1762 1.349 . S
C1761 C1763 1.327 . S
C1761 H1784 0.950 . S
C1762 C1761 1.349 . S
C1762 C1774 1.349 . S
C1763 C1761 1.327 . S
C1763 C1779 1.429 . S
C1763 H1785 0.950 . S
C1764 H1760 0.949 . S
C1764 C1772 1.574 . S
C1764 C1780 1.368 . S
H1765 C1773 0.950 . S
H1766 C1771 0.950 . S
H1767 C1772 0.949 . S
H1768 C1774 0.950 . S
H1769 C1775 0.950 . S
H1770 C1776 0.949 . S
C1771 H1766 0.950 . S
C1771 C1773 1.327 . S
C1771 C1777 1.429 . S
C1772 C1764 1.574 . S
C1772 H1767 0.949 . S
C1772 C1778 1.368 . S
C1773 C1757 1.349 . S
C1773 H1765 0.950 . S
C1773 C1771 1.327 . S
C1774 C1762 1.349 . S
C1774 H1768 0.950 . S
C1774 C1775 1.327 . S
C1775 H1769 0.950 . S
C1775 C1774 1.327 . S
C1775 C1779 1.429 . S
C1776 C1759 1.574 . S
C1776 H1770 0.949 . S
C1776 C1780 1.368 . S
C1777 C1758 1.429 . S
C1777 C1771 1.429 . S
C1777 C1778 1.523 . S
C1778 C1759 1.368 . S
C1778 C1772 1.368 . S
C1778 C1777 1.523 . S
C1779 C1763 1.429 . S
C1779 C1775 1.429 . S
C1779 C1780 1.523 . S
C1780 C1764 1.368 . S
C1780 C1776 1.368 . S
C1780 C1779 1.523 . S
H1781 C1756 0.950 . S
H1782 C1758 0.950 . S
H1783 C1759 0.949 . S
H1784 C1761 0.950 . S
H1785 C1763 0.950 . S
C1786 C1787 1.349 . S
C1786 C1788 1.327 . S
C1786 H1811 0.950 . S
C1787 C1786 1.349 . S
C1787 C1803 1.349 . S
C1788 C1786 1.327 . S
C1788 C1807 1.429 . S
C1788 H1812 0.950 . S
C1789 C1806 1.574 . S
C1789 C1808 1.368 . S
C1789 H1813 0.949 . S
H1790 C1794 0.949 . S
C1791 C1792 1.349 . S
C1791 C1793 1.327 . S
C1791 H1814 0.950 . S
C1792 C1791 1.349 . S
C1792 C1804 1.349 . S
C1793 C1791 1.327 . S
C1793 C1809 1.429 . S
C1793 H1815 0.950 . S
C1794 H1790 0.949 . S
C1794 C1802 1.574 . S
C1794 C1810 1.368 . S
H1795 C1803 0.950 . S
H1796 C1801 0.950 . S
H1797 C1802 0.949 . S
H1798 C1804 0.950 . S
H1799 C1805 0.950 . S
H1800 C1806 0.949 . S
C1801 H1796 0.950 . S
C1801 C1803 1.327 . S
C1801 C1807 1.429 . S
C1802 C1794 1.574 . S
C1802 H1797 0.949 . S
C1802 C1808 1.368 . S
C1803 C1787 1.349 . S
C1803 H1795 0.950 . S
C1803 C1801 1.327 . S
C1804 C1792 1.349 . S
C1804 H1798 0.950 . S
C1804 C1805 1.327 . S
C1805 H1799 0.950 . S
C1805 C1804 1.327 . S
C1805 C1809 1.429 . S
C1806 C1789 1.574 . S
C1806 H1800 0.949 . S
C1806 C1810 1.368 . S
C1807 C1788 1.429 . S
C1807 C1801 1.429 . S
C1807 C1808 1.523 . S
C1808 C1789 1.368 . S
C1808 C1802 1.368 . S
C1808 C1807 1.523 . S
C1809 C1793 1.429 . S
C1809 C1805 1.429 . S
C1809 C1810 1.523 . S
C1810 C1794 1.368 . S
C1810 C1806 1.368 . S
C1810 C1809 1.523 . S
H1811 C1786 0.950 . S
H1812 C1788 0.950 . S
H1813 C1789 0.949 . S
H1814 C1791 0.950 . S
H1815 C1793 0.950 . S
C1816 C1817 1.349 1_455 S
C1816 C1818 1.327 . S
C1816 H1841 0.950 . S
C1817 C1816 1.349 1_655 S
C1817 C1833 1.349 . S
C1818 C1816 1.327 . S
C1818 C1837 1.429 1_455 S
C1818 H1842 0.950 . S
C1819 C1836 1.574 . S
C1819 C1838 1.368 . S
C1819 H1843 0.949 . S
H1820 C1824 0.951 . S
C1821 C1822 1.349 . S
C1821 C1823 1.327 . S
C1821 H1844 0.950 . S
C1822 C1821 1.349 . S
C1822 C1834 1.348 . S
C1823 C1821 1.327 . S
C1823 C1839 1.429 . S
C1823 H1845 0.950 . S
C1824 H1820 0.951 . S
C1824 C1832 1.570 . S
C1824 C1840 1.373 1_455 S
H1825 C1833 0.950 . S
H1826 C1831 0.950 . S
H1827 C1832 0.949 . S
H1828 C1834 0.950 1_455 S
H1829 C1835 0.950 . S
H1830 C1836 0.949 . S
C1831 H1826 0.950 . S
C1831 C1833 1.327 . S
C1831 C1837 1.429 . S
C1832 C1824 1.570 . S
C1832 H1827 0.949 . S
C1832 C1838 1.368 1_455 S
C1833 C1817 1.349 . S
C1833 H1825 0.950 . S
C1833 C1831 1.327 . S
C1834 C1822 1.348 . S
C1834 H1828 0.950 1_655 S
C1834 C1835 1.328 1_655 S
C1835 H1829 0.950 . S
C1835 C1834 1.328 1_455 S
C1835 C1839 1.429 1_455 S
C1836 C1819 1.574 . S
C1836 H1830 0.949 . S
C1836 C1840 1.368 . S
C1837 C1818 1.429 1_655 S
C1837 C1831 1.429 . S
C1837 C1838 1.523 . S
C1838 C1819 1.368 . S
C1838 C1832 1.368 1_655 S
C1838 C1837 1.523 . S
C1839 C1823 1.429 . S
C1839 C1835 1.429 1_655 S
C1839 C1840 1.523 . S
C1840 C1824 1.373 1_655 S
C1840 C1836 1.368 . S
C1840 C1839 1.523 . S
H1841 C1816 0.950 . S
H1842 C1818 0.950 . S
H1843 C1819 0.949 . S
H1844 C1821 0.950 . S
H1845 C1823 0.950 . S
C1846 C1847 1.349 . S
C1846 C1848 1.327 . S
C1846 H1871 0.950 . S
C1847 C1846 1.349 . S
C1847 C1863 1.349 . S
C1848 C1846 1.327 . S
C1848 C1867 1.429 . S
C1848 H1872 0.950 . S
C1849 C1866 1.574 . S
C1849 C1868 1.368 . S
C1849 H1873 0.949 . S
H1850 C1854 0.949 . S
C1851 C1852 1.349 . S
C1851 C1853 1.327 . S
C1851 H1874 0.950 . S
C1852 C1851 1.349 . S
C1852 C1864 1.349 . S
C1853 C1851 1.327 . S
C1853 C1869 1.429 . S
C1853 H1875 0.950 . S
C1854 H1850 0.949 . S
C1854 C1862 1.574 . S
C1854 C1870 1.368 . S
H1855 C1863 0.950 . S
H1856 C1861 0.950 . S
H1857 C1862 0.949 . S
H1858 C1864 0.950 . S
H1859 C1865 0.950 . S
H1860 C1866 0.949 . S
C1861 H1856 0.950 . S
C1861 C1863 1.327 . S
C1861 C1867 1.429 . S
C1862 C1854 1.574 . S
C1862 H1857 0.949 . S
C1862 C1868 1.368 . S
C1863 C1847 1.349 . S
C1863 H1855 0.950 . S
C1863 C1861 1.327 . S
C1864 C1852 1.349 . S
C1864 H1858 0.950 . S
C1864 C1865 1.327 . S
C1865 H1859 0.950 . S
C1865 C1864 1.327 . S
C1865 C1869 1.429 . S
C1866 C1849 1.574 . S
C1866 H1860 0.949 . S
C1866 C1870 1.368 . S
C1867 C1848 1.429 . S
C1867 C1861 1.429 . S
C1867 C1868 1.523 . S
C1868 C1849 1.368 . S
C1868 C1862 1.368 . S
C1868 C1867 1.523 . S
C1869 C1853 1.429 . S
C1869 C1865 1.429 . S
C1869 C1870 1.523 . S
C1870 C1854 1.368 . S
C1870 C1866 1.368 . S
C1870 C1869 1.523 . S
H1871 C1846 0.950 . S
H1872 C1848 0.950 . S
H1873 C1849 0.949 . S
H1874 C1851 0.950 . S
H1875 C1853 0.950 . S
C1876 C1877 1.349 . S
C1876 C1878 1.327 . S
C1876 H1901 0.950 . S
C1877 C1876 1.349 . S
C1877 C1893 1.349 . S
C1878 C1876 1.327 . S
C1878 C1897 1.429 . S
C1878 H1902 0.950 . S
C1879 C1896 1.574 . S
C1879 C1898 1.368 . S
C1879 H1903 0.949 . S
H1880 C1884 0.949 . S
C1881 C1882 1.343 1_556 S
C1881 C1883 1.346 . S
C1881 H1904 0.938 1_556 S
C1882 C1881 1.343 1_554 S
C1882 C1894 1.349 1_554 S
C1883 C1881 1.346 . S
C1883 C1899 1.429 . S
C1883 H1905 0.950 . S
C1884 H1880 0.949 . S
C1884 C1892 1.574 . S
C1884 C1900 1.368 . S
H1885 C1893 0.950 . S
H1886 C1891 0.950 . S
H1887 C1892 0.949 . S
H1888 C1894 0.950 . S
H1889 C1895 0.950 . S
H1890 C1896 0.949 . S
C1891 H1886 0.950 . S
C1891 C1893 1.327 . S
C1891 C1897 1.429 . S
C1892 C1884 1.574 . S
C1892 H1887 0.949 . S
C1892 C1898 1.368 . S
C1893 C1877 1.349 . S
C1893 H1885 0.950 . S
C1893 C1891 1.327 . S
C1894 C1882 1.349 1_556 S
C1894 H1888 0.950 . S
C1894 C1895 1.327 . S
C1895 H1889 0.950 . S
C1895 C1894 1.327 . S
C1895 C1899 1.429 . S
C1896 C1879 1.574 . S
C1896 H1890 0.949 . S
C1896 C1900 1.368 . S
C1897 C1878 1.429 . S
C1897 C1891 1.429 . S
C1897 C1898 1.523 . S
C1898 C1879 1.368 . S
C1898 C1892 1.368 . S
C1898 C1897 1.523 . S
C1899 C1883 1.429 . S
C1899 C1895 1.429 . S
C1899 C1900 1.523 . S
C1900 C1884 1.368 . S
C1900 C1896 1.368 . S
C1900 C1899 1.523 . S
H1901 C1876 0.950 . S
H1902 C1878 0.950 . S
H1903 C1879 0.949 . S
H1904 C1881 0.938 1_554 S
H1905 C1883 0.950 . S
C1906 C1907 1.349 . S
C1906 C1908 1.327 1_455 S
C1906 H1931 0.950 . S
C1907 C1906 1.349 . S
C1907 C1923 1.349 . S
C1908 C1906 1.327 1_655 S
C1908 C1927 1.429 . S
C1908 H1932 0.950 . S
C1909 C1926 1.574 . S
C1909 C1928 1.368 . S
C1909 H1933 0.949 . S
H1910 C1914 0.949 . S
C1911 C1912 1.349 . S
C1911 C1913 1.327 . S
C1911 H1934 0.950 . S
C1912 C1911 1.349 . S
C1912 C1924 1.349 . S
C1913 C1911 1.327 . S
C1913 C1929 1.429 . S
C1913 H1935 0.950 . S
C1914 H1910 0.949 . S
C1914 C1922 1.574 . S
C1914 C1930 1.368 . S
H1915 C1923 0.950 . S
H1916 C1921 0.950 . S
H1917 C1922 0.949 . S
H1918 C1924 0.950 . S
H1919 C1925 0.950 . S
H1920 C1926 0.949 . S
C1921 H1916 0.950 . S
C1921 C1923 1.327 . S
C1921 C1927 1.429 1_455 S
C1922 C1914 1.574 . S
C1922 H1917 0.949 . S
C1922 C1928 1.368 . S
C1923 C1907 1.349 . S
C1923 H1915 0.950 . S
C1923 C1921 1.327 . S
C1924 C1912 1.349 . S
C1924 H1918 0.950 . S
C1924 C1925 1.327 . S
C1925 H1919 0.950 . S
C1925 C1924 1.327 . S
C1925 C1929 1.429 . S
C1926 C1909 1.574 . S
C1926 H1920 0.949 . S
C1926 C1930 1.368 . S
C1927 C1908 1.429 . S
C1927 C1921 1.429 1_655 S
C1927 C1928 1.523 . S
C1928 C1909 1.368 . S
C1928 C1922 1.368 . S
C1928 C1927 1.523 . S
C1929 C1913 1.429 . S
C1929 C1925 1.429 . S
C1929 C1930 1.523 . S
C1930 C1914 1.368 . S
C1930 C1926 1.368 . S
C1930 C1929 1.523 . S
H1931 C1906 0.950 . S
H1932 C1908 0.950 . S
H1933 C1909 0.949 . S
H1934 C1911 0.950 . S
H1935 C1913 0.950 . S
C1936 C1937 1.349 . S
C1936 C1938 1.327 . S
C1936 H1961 0.950 . S
C1937 C1936 1.349 . S
C1937 C1953 1.349 . S
C1938 C1936 1.327 . S
C1938 C1957 1.429 . S
C1938 H1962 0.950 . S
C1939 C1956 1.574 . S
C1939 C1958 1.368 . S
C1939 H1963 0.949 . S
H1940 C1944 0.949 . S
C1941 C1942 1.349 1_565 S
C1941 C1943 1.325 1_565 S
C1941 H1964 0.950 . S
C1942 C1941 1.349 1_545 S
C1942 C1954 1.349 . S
C1943 C1941 1.325 1_545 S
C1943 C1959 1.439 . S
C1943 H1965 0.941 1_545 S
C1944 H1940 0.949 . S
C1944 C1952 1.574 . S
C1944 C1960 1.368 . S
H1945 C1953 0.950 . S
H1946 C1951 0.950 . S
H1947 C1952 0.949 . S
H1948 C1954 0.950 . S
H1949 C1955 0.950 . S
H1950 C1956 0.949 1_565 S
C1951 H1946 0.950 . S
C1951 C1953 1.327 . S
C1951 C1957 1.429 . S
C1952 C1944 1.574 . S
C1952 H1947 0.949 . S
C1952 C1958 1.368 . S
C1953 C1937 1.349 . S
C1953 H1945 0.950 . S
C1953 C1951 1.327 . S
C1954 C1942 1.349 . S
C1954 H1948 0.950 . S
C1954 C1955 1.327 . S
C1955 H1949 0.950 . S
C1955 C1954 1.327 . S
C1955 C1959 1.429 . S
C1956 C1939 1.574 . S
C1956 H1950 0.949 1_545 S
C1956 C1960 1.368 . S
C1957 C1938 1.429 . S
C1957 C1951 1.429 . S
C1957 C1958 1.523 . S
C1958 C1939 1.368 . S
C1958 C1952 1.368 . S
C1958 C1957 1.523 . S
C1959 C1943 1.439 . S
C1959 C1955 1.429 . S
C1959 C1960 1.523 . S
C1960 C1944 1.368 . S
C1960 C1956 1.368 . S
C1960 C1959 1.523 . S
H1961 C1936 0.950 . S
H1962 C1938 0.950 . S
H1963 C1939 0.949 . S
H1964 C1941 0.950 . S
H1965 C1943 0.941 1_565 S
C1966 C1967 1.349 . S
C1966 C1968 1.327 . S
C1966 H1991 0.950 . S
C1967 C1966 1.349 . S
C1967 C1983 1.349 . S
C1968 C1966 1.327 . S
C1968 C1987 1.429 . S
C1968 H1992 0.950 . S
C1969 C1986 1.574 . S
C1969 C1988 1.368 . S
C1969 H1993 0.949 . S
H1970 C1974 0.949 . S
C1971 C1972 1.349 . S
C1971 C1973 1.327 . S
C1971 H1994 0.950 . S
C1972 C1971 1.349 . S
C1972 C1984 1.349 . S
C1973 C1971 1.327 . S
C1973 C1989 1.429 . S
C1973 H1995 0.950 . S
C1974 H1970 0.949 . S
C1974 C1982 1.574 . S
C1974 C1990 1.368 . S
H1975 C1983 0.950 . S
H1976 C1981 0.950 . S
H1977 C1982 0.949 . S
H1978 C1984 0.950 . S
H1979 C1985 0.950 . S
H1980 C1986 0.949 . S
C1981 H1976 0.950 . S
C1981 C1983 1.327 . S
C1981 C1987 1.429 . S
C1982 C1974 1.574 . S
C1982 H1977 0.949 . S
C1982 C1988 1.368 . S
C1983 C1967 1.349 . S
C1983 H1975 0.950 . S
C1983 C1981 1.327 . S
C1984 C1972 1.349 . S
C1984 H1978 0.950 . S
C1984 C1985 1.327 . S
C1985 H1979 0.950 . S
C1985 C1984 1.327 . S
C1985 C1989 1.429 . S
C1986 C1969 1.574 . S
C1986 H1980 0.949 . S
C1986 C1990 1.368 . S
C1987 C1968 1.429 . S
C1987 C1981 1.429 . S
C1987 C1988 1.523 . S
C1988 C1969 1.368 . S
C1988 C1982 1.368 . S
C1988 C1987 1.523 . S
C1989 C1973 1.429 . S
C1989 C1985 1.429 . S
C1989 C1990 1.523 . S
C1990 C1974 1.368 . S
C1990 C1986 1.368 . S
C1990 C1989 1.523 . S
H1991 C1966 0.950 . S
H1992 C1968 0.950 . S
H1993 C1969 0.949 . S
H1994 C1971 0.950 . S
H1995 C1973 0.950 . S
C1996 C1997 1.349 . S
C1996 C1998 1.327 . S
C1996 H2021 0.950 1_545 S
C1997 C1996 1.349 . S
C1997 C2013 1.349 . S
C1998 C1996 1.327 . S
C1998 C2017 1.429 . S
C1998 H2022 0.950 1_545 S
C1999 C2016 1.574 . S
C1999 C2018 1.368 . S
C1999 H2023 0.949 . S
H2000 C2004 0.949 1_565 S
C2001 C2002 1.349 . S
C2001 C2003 1.327 . S
C2001 H2024 0.950 . S
C2002 C2001 1.349 . S
C2002 C2014 1.349 . S
C2003 C2001 1.327 . S
C2003 C2019 1.429 . S
C2003 H2025 0.950 . S
C2004 H2000 0.949 1_545 S
C2004 C2012 1.574 . S
C2004 C2020 1.368 . S
H2005 C2013 0.950 . S
H2006 C2011 0.950 . S
H2007 C2012 0.949 1_565 S
H2008 C2014 0.950 1_565 S
H2009 C2015 0.950 1_565 S
H2010 C2016 0.949 . S
C2011 H2006 0.950 . S
C2011 C2013 1.327 . S
C2011 C2017 1.429 . S
C2012 C2004 1.574 . S
C2012 H2007 0.949 1_545 S
C2012 C2018 1.368 . S
C2013 C1997 1.349 . S
C2013 H2005 0.950 . S
C2013 C2011 1.327 . S
C2014 C2002 1.349 . S
C2014 H2008 0.950 1_545 S
C2014 C2015 1.327 . S
C2015 H2009 0.950 1_545 S
C2015 C2014 1.327 . S
C2015 C2019 1.429 . S
C2016 C1999 1.574 . S
C2016 H2010 0.949 . S
C2016 C2020 1.368 . S
C2017 C1998 1.429 . S
C2017 C2011 1.429 . S
C2017 C2018 1.523 . S
C2018 C1999 1.368 . S
C2018 C2012 1.368 . S
C2018 C2017 1.523 . S
C2019 C2003 1.429 . S
C2019 C2015 1.429 . S
C2019 C2020 1.523 . S
C2020 C2004 1.368 . S
C2020 C2016 1.368 . S
C2020 C2019 1.523 . S
H2021 C1996 0.950 1_565 S
H2022 C1998 0.950 1_565 S
H2023 C1999 0.949 . S
H2024 C2001 0.950 . S
H2025 C2003 0.950 . S
C2026 C2027 1.349 . S
C2026 C2028 1.327 . S
C2026 H2051 0.950 . S
C2027 C2026 1.349 . S
C2027 C2043 1.349 . S
C2028 C2026 1.327 . S
C2028 C2047 1.429 . S
C2028 H2052 0.950 . S
C2029 C2046 1.574 . S
C2029 C2048 1.368 . S
C2029 H2053 0.949 . S
H2030 C2034 0.949 . S
C2031 C2032 1.349 . S
C2031 C2033 1.327 . S
C2031 H2054 0.950 . S
C2032 C2031 1.349 . S
C2032 C2044 1.349 . S
C2033 C2031 1.327 . S
C2033 C2049 1.429 . S
C2033 H2055 0.950 . S
C2034 H2030 0.949 . S
C2034 C2042 1.574 . S
C2034 C2050 1.368 . S
H2035 C2043 0.950 . S
H2036 C2041 0.950 . S
H2037 C2042 0.949 . S
H2038 C2044 0.950 . S
H2039 C2045 0.950 . S
H2040 C2046 0.949 . S
C2041 H2036 0.950 . S
C2041 C2043 1.327 . S
C2041 C2047 1.429 . S
C2042 C2034 1.574 . S
C2042 H2037 0.949 . S
C2042 C2048 1.368 . S
C2043 C2027 1.349 . S
C2043 H2035 0.950 . S
C2043 C2041 1.327 . S
C2044 C2032 1.349 . S
C2044 H2038 0.950 . S
C2044 C2045 1.327 . S
C2045 H2039 0.950 . S
C2045 C2044 1.327 . S
C2045 C2049 1.429 . S
C2046 C2029 1.574 . S
C2046 H2040 0.949 . S
C2046 C2050 1.368 . S
C2047 C2028 1.429 . S
C2047 C2041 1.429 . S
C2047 C2048 1.523 . S
C2048 C2029 1.368 . S
C2048 C2042 1.368 . S
C2048 C2047 1.523 . S
C2049 C2033 1.429 . S
C2049 C2045 1.429 . S
C2049 C2050 1.523 . S
C2050 C2034 1.368 . S
C2050 C2046 1.368 . S
C2050 C2049 1.523 . S
H2051 C2026 0.950 . S
H2052 C2028 0.950 . S
H2053 C2029 0.949 . S
H2054 C2031 0.950 . S
H2055 C2033 0.950 . S
C2056 C2057 1.349 . S
C2056 C2058 1.327 . S
C2056 H2081 0.950 . S
C2057 C2056 1.349 . S
C2057 C2073 1.349 . S
C2058 C2056 1.327 . S
C2058 C2077 1.429 . S
C2058 H2082 0.950 . S
C2059 C2076 1.574 . S
C2059 C2078 1.368 . S
C2059 H2083 0.949 1_545 S
H2060 C2064 0.949 . S
C2061 C2062 1.349 . S
C2061 C2063 1.327 . S
C2061 H2084 0.950 1_545 S
C2062 C2061 1.349 . S
C2062 C2074 1.349 . S
C2063 C2061 1.327 . S
C2063 C2079 1.429 . S
C2063 H2085 0.950 1_545 S
C2064 H2060 0.949 . S
C2064 C2072 1.574 . S
C2064 C2080 1.368 . S
H2065 C2073 0.950 1_565 S
H2066 C2071 0.950 1_565 S
H2067 C2072 0.949 . S
H2068 C2074 0.950 . S
H2069 C2075 0.950 . S
H2070 C2076 0.949 1_565 S
C2071 H2066 0.950 1_545 S
C2071 C2073 1.327 . S
C2071 C2077 1.429 . S
C2072 C2064 1.574 . S
C2072 H2067 0.949 . S
C2072 C2078 1.368 . S
C2073 C2057 1.349 . S
C2073 H2065 0.950 1_545 S
C2073 C2071 1.327 . S
C2074 C2062 1.349 . S
C2074 H2068 0.950 . S
C2074 C2075 1.327 . S
C2075 H2069 0.950 . S
C2075 C2074 1.327 . S
C2075 C2079 1.429 . S
C2076 C2059 1.574 . S
C2076 H2070 0.949 1_545 S
C2076 C2080 1.368 . S
C2077 C2058 1.429 . S
C2077 C2071 1.429 . S
C2077 C2078 1.523 . S
C2078 C2059 1.368 . S
C2078 C2072 1.368 . S
C2078 C2077 1.523 . S
C2079 C2063 1.429 . S
C2079 C2075 1.429 . S
C2079 C2080 1.523 . S
C2080 C2064 1.368 . S
C2080 C2076 1.368 . S
C2080 C2079 1.523 . S
H2081 C2056 0.950 . S
H2082 C2058 0.950 . S
H2083 C2059 0.949 1_565 S
H2084 C2061 0.950 1_565 S
H2085 C2063 0.950 1_565 S
C2086 C2087 1.349 . S
C2086 C2088 1.327 . S
C2086 H2111 0.950 . S
C2087 C2086 1.349 . S
C2087 C2103 1.349 . S
C2088 C2086 1.327 . S
C2088 C2107 1.429 . S
C2088 H2112 0.950 . S
C2089 C2106 1.574 . S
C2089 C2108 1.368 . S
C2089 H2113 0.949 . S
H2090 C2094 0.949 . S
C2091 C2092 1.349 . S
C2091 C2093 1.327 . S
C2091 H2114 0.950 . S
C2092 C2091 1.349 . S
C2092 C2104 1.349 . S
C2093 C2091 1.327 . S
C2093 C2109 1.429 . S
C2093 H2115 0.950 . S
C2094 H2090 0.949 . S
C2094 C2102 1.574 . S
C2094 C2110 1.368 . S
H2095 C2103 0.950 . S
H2096 C2101 0.950 . S
H2097 C2102 0.949 . S
H2098 C2104 0.950 . S
H2099 C2105 0.950 . S
H2100 C2106 0.949 . S
C2101 H2096 0.950 . S
C2101 C2103 1.327 . S
C2101 C2107 1.429 . S
C2102 C2094 1.574 . S
C2102 H2097 0.949 . S
C2102 C2108 1.368 . S
C2103 C2087 1.349 . S
C2103 H2095 0.950 . S
C2103 C2101 1.327 . S
C2104 C2092 1.349 . S
C2104 H2098 0.950 . S
C2104 C2105 1.327 . S
C2105 H2099 0.950 . S
C2105 C2104 1.327 . S
C2105 C2109 1.429 . S
C2106 C2089 1.574 . S
C2106 H2100 0.949 . S
C2106 C2110 1.368 . S
C2107 C2088 1.429 . S
C2107 C2101 1.429 . S
C2107 C2108 1.523 . S
C2108 C2089 1.368 . S
C2108 C2102 1.368 . S
C2108 C2107 1.523 . S
C2109 C2093 1.429 . S
C2109 C2105 1.429 . S
C2109 C2110 1.523 . S
C2110 C2094 1.368 . S
C2110 C2106 1.368 . S
C2110 C2109 1.523 . S
H2111 C2086 0.950 . S
H2112 C2088 0.950 . S
H2113 C2089 0.949 . S
H2114 C2091 0.950 . S
H2115 C2093 0.950 . S
C2116 C2117 1.349 1_565 S
C2116 C2118 1.327 . S
C2116 H2141 0.950 . S
C2117 C2116 1.349 1_545 S
C2117 C2133 1.349 . S
C2118 C2116 1.327 . S
C2118 C2137 1.429 1_565 S
C2118 H2142 0.950 . S
C2119 C2136 1.574 . S
C2119 C2138 1.368 . S
C2119 H2143 0.949 . S
H2120 C2124 0.949 . S
C2121 C2122 1.386 . S
C2121 C2123 1.327 . S
C2121 H2144 0.950 . S
C2122 C2121 1.386 . S
C2122 C2134 1.315 1_545 S
C2123 C2121 1.327 . S
C2123 C2139 1.429 . S
C2123 H2145 0.950 . S
C2124 H2120 0.949 . S
C2124 C2132 1.574 . S
C2124 C2140 1.368 1_565 S
H2125 C2133 0.950 . S
H2126 C2131 0.950 . S
H2127 C2132 0.949 . S
H2128 C2134 0.950 . S
H2129 C2135 0.950 . S
H2130 C2136 0.949 . S
C2131 H2126 0.950 . S
C2131 C2133 1.327 . S
C2131 C2137 1.429 . S
C2132 C2124 1.574 . S
C2132 H2127 0.949 . S
C2132 C2138 1.368 1_565 S
C2133 C2117 1.349 . S
C2133 H2125 0.950 . S
C2133 C2131 1.327 . S
C2134 C2122 1.315 1_565 S
C2134 H2128 0.950 . S
C2134 C2135 1.327 . S
C2135 H2129 0.950 . S
C2135 C2134 1.327 . S
C2135 C2139 1.429 1_565 S
C2136 C2119 1.574 . S
C2136 H2130 0.949 . S
C2136 C2140 1.368 . S
C2137 C2118 1.429 1_545 S
C2137 C2131 1.429 . S
C2137 C2138 1.523 . S
C2138 C2119 1.368 . S
C2138 C2132 1.368 1_545 S
C2138 C2137 1.523 . S
C2139 C2123 1.429 . S
C2139 C2135 1.429 1_545 S
C2139 C2140 1.523 . S
C2140 C2124 1.368 1_545 S
C2140 C2136 1.368 . S
C2140 C2139 1.523 . S
H2141 C2116 0.950 . S
H2142 C2118 0.950 . S
H2143 C2119 0.949 . S
H2144 C2121 0.950 . S
H2145 C2123 0.950 . S
C2146 C2147 1.349 . S
C2146 C2148 1.327 . S
C2146 H2171 0.950 . S
C2147 C2146 1.349 . S
C2147 C2163 1.349 . S
C2148 C2146 1.327 . S
C2148 C2167 1.429 . S
C2148 H2172 0.950 . S
C2149 C2166 1.574 . S
C2149 C2168 1.368 . S
C2149 H2173 0.949 . S
H2150 C2154 0.949 . S
C2151 C2152 1.349 . S
C2151 C2153 1.327 . S
C2151 H2174 0.950 . S
C2152 C2151 1.349 . S
C2152 C2164 1.349 . S
C2153 C2151 1.327 . S
C2153 C2169 1.429 . S
C2153 H2175 0.950 . S
C2154 H2150 0.949 . S
C2154 C2162 1.574 . S
C2154 C2170 1.368 . S
H2155 C2163 0.950 . S
H2156 C2161 0.950 . S
H2157 C2162 0.949 . S
H2158 C2164 0.950 . S
H2159 C2165 0.950 . S
H2160 C2166 0.949 . S
C2161 H2156 0.950 . S
C2161 C2163 1.327 . S
C2161 C2167 1.429 . S
C2162 C2154 1.574 . S
C2162 H2157 0.949 . S
C2162 C2168 1.368 . S
C2163 C2147 1.349 . S
C2163 H2155 0.950 . S
C2163 C2161 1.327 . S
C2164 C2152 1.349 . S
C2164 H2158 0.950 . S
C2164 C2165 1.327 . S
C2165 H2159 0.950 . S
C2165 C2164 1.327 . S
C2165 C2169 1.429 . S
C2166 C2149 1.574 . S
C2166 H2160 0.949 . S
C2166 C2170 1.368 . S
C2167 C2148 1.429 . S
C2167 C2161 1.429 . S
C2167 C2168 1.523 . S
C2168 C2149 1.368 . S
C2168 C2162 1.368 . S
C2168 C2167 1.523 . S
C2169 C2153 1.429 . S
C2169 C2165 1.429 . S
C2169 C2170 1.523 . S
C2170 C2154 1.368 . S
C2170 C2166 1.368 . S
C2170 C2169 1.523 . S
H2171 C2146 0.950 . S
H2172 C2148 0.950 . S
H2173 C2149 0.949 . S
H2174 C2151 0.950 . S
H2175 C2153 0.950 . S
C2176 C2177 1.349 . S
C2176 C2178 1.327 . S
C2176 H2201 0.950 . S
C2177 C2176 1.349 . S
C2177 C2193 1.349 . S
C2178 C2176 1.327 . S
C2178 C2197 1.429 . S
C2178 H2202 0.950 . S
C2179 C2196 1.574 . S
C2179 C2198 1.368 . S
C2179 H2203 0.949 . S
H2180 C2184 0.949 . S
C2181 C2182 1.349 . S
C2181 C2183 1.327 . S
C2181 H2204 0.950 . S
C2182 C2181 1.349 . S
C2182 C2194 1.337 1_556 S
C2183 C2181 1.327 . S
C2183 C2199 1.429 1_556 S
C2183 H2205 0.950 . S
C2184 H2180 0.949 . S
C2184 C2192 1.574 . S
C2184 C2200 1.368 . S
H2185 C2193 0.950 . S
H2186 C2191 0.950 . S
H2187 C2192 0.949 . S
H2188 C2194 0.949 . S
H2189 C2195 0.950 . S
H2190 C2196 0.960 . S
C2191 H2186 0.950 . S
C2191 C2193 1.327 . S
C2191 C2197 1.429 . S
C2192 C2184 1.574 . S
C2192 H2187 0.949 . S
C2192 C2198 1.368 . S
C2193 C2177 1.349 . S
C2193 H2185 0.950 . S
C2193 C2191 1.327 . S
C2194 C2182 1.337 1_554 S
C2194 H2188 0.949 . S
C2194 C2195 1.342 . S
C2195 H2189 0.950 . S
C2195 C2194 1.342 . S
C2195 C2199 1.429 . S
C2196 C2179 1.574 . S
C2196 H2190 0.960 . S
C2196 C2200 1.368 . S
C2197 C2178 1.429 . S
C2197 C2191 1.429 . S
C2197 C2198 1.523 . S
C2198 C2179 1.368 . S
C2198 C2192 1.368 . S
C2198 C2197 1.523 . S
C2199 C2183 1.429 1_554 S
C2199 C2195 1.429 . S
C2199 C2200 1.523 . S
C2200 C2184 1.368 . S
C2200 C2196 1.368 . S
C2200 C2199 1.523 . S
H2201 C2176 0.950 . S
H2202 C2178 0.950 . S
H2203 C2179 0.949 . S
H2204 C2181 0.950 . S
H2205 C2183 0.950 . S
C2206 C2207 1.349 . S
C2206 C2208 1.327 . S
C2206 H2231 0.950 . S
C2207 C2206 1.349 . S
C2207 C2223 1.349 . S
C2208 C2206 1.327 . S
C2208 C2227 1.429 . S
C2208 H2232 0.950 . S
C2209 C2226 1.574 . S
C2209 C2228 1.368 . S
C2209 H2233 0.949 . S
H2210 C2214 0.949 . S
C2211 C2212 1.349 . S
C2211 C2213 1.327 . S
C2211 H2234 0.950 . S
C2212 C2211 1.349 . S
C2212 C2224 1.349 . S
C2213 C2211 1.327 . S
C2213 C2229 1.429 . S
C2213 H2235 0.950 . S
C2214 H2210 0.949 . S
C2214 C2222 1.574 . S
C2214 C2230 1.368 . S
H2215 C2223 0.950 . S
H2216 C2221 0.950 . S
H2217 C2222 0.949 . S
H2218 C2224 0.950 . S
H2219 C2225 0.950 . S
H2220 C2226 0.949 . S
C2221 H2216 0.950 . S
C2221 C2223 1.327 . S
C2221 C2227 1.429 . S
C2222 C2214 1.574 . S
C2222 H2217 0.949 . S
C2222 C2228 1.368 . S
C2223 C2207 1.349 . S
C2223 H2215 0.950 . S
C2223 C2221 1.327 . S
C2224 C2212 1.349 . S
C2224 H2218 0.950 . S
C2224 C2225 1.327 . S
C2225 H2219 0.950 . S
C2225 C2224 1.327 . S
C2225 C2229 1.429 . S
C2226 C2209 1.574 . S
C2226 H2220 0.949 . S
C2226 C2230 1.368 . S
C2227 C2208 1.429 . S
C2227 C2221 1.429 . S
C2227 C2228 1.523 . S
C2228 C2209 1.368 . S
C2228 C2222 1.368 . S
C2228 C2227 1.523 . S
C2229 C2213 1.429 . S
C2229 C2225 1.429 . S
C2229 C2230 1.523 . S
C2230 C2214 1.368 . S
C2230 C2226 1.368 . S
C2230 C2229 1.523 . S
H2231 C2206 0.950 . S
H2232 C2208 0.950 . S
H2233 C2209 0.949 . S
H2234 C2211 0.950 . S
H2235 C2213 0.950 . S
C2236 C2237 1.349 . S
C2236 C2238 1.327 . S
C2236 H2261 0.950 . S
C2237 C2236 1.349 . S
C2237 C2253 1.349 . S
C2238 C2236 1.327 . S
C2238 C2257 1.429 . S
C2238 H2262 0.950 . S
C2239 C2256 1.574 . S
C2239 C2258 1.368 . S
C2239 H2263 0.949 . S
H2240 C2244 0.949 . S
C2241 C2242 1.349 . S
C2241 C2243 1.327 . S
C2241 H2264 0.950 . S
C2242 C2241 1.349 . S
C2242 C2254 1.349 . S
C2243 C2241 1.327 . S
C2243 C2259 1.429 . S
C2243 H2265 0.950 . S
C2244 H2240 0.949 . S
C2244 C2252 1.574 . S
C2244 C2260 1.368 . S
H2245 C2253 0.950 . S
H2246 C2251 0.950 . S
H2247 C2252 0.949 . S
H2248 C2254 0.950 . S
H2249 C2255 0.950 . S
H2250 C2256 0.949 . S
C2251 H2246 0.950 . S
C2251 C2253 1.327 . S
C2251 C2257 1.429 . S
C2252 C2244 1.574 . S
C2252 H2247 0.949 . S
C2252 C2258 1.368 . S
C2253 C2237 1.349 . S
C2253 H2245 0.950 . S
C2253 C2251 1.327 . S
C2254 C2242 1.349 . S
C2254 H2248 0.950 . S
C2254 C2255 1.327 . S
C2255 H2249 0.950 . S
C2255 C2254 1.327 . S
C2255 C2259 1.429 . S
C2256 C2239 1.574 . S
C2256 H2250 0.949 . S
C2256 C2260 1.368 . S
C2257 C2238 1.429 . S
C2257 C2251 1.429 . S
C2257 C2258 1.523 . S
C2258 C2239 1.368 . S
C2258 C2252 1.368 . S
C2258 C2257 1.523 . S
C2259 C2243 1.429 . S
C2259 C2255 1.429 . S
C2259 C2260 1.523 . S
C2260 C2244 1.368 . S
C2260 C2256 1.368 . S
C2260 C2259 1.523 . S
H2261 C2236 0.950 . S
H2262 C2238 0.950 . S
H2263 C2239 0.949 . S
H2264 C2241 0.950 . S
H2265 C2243 0.950 . S
C2266 C2267 1.349 . S
C2266 C2268 1.327 . S
C2266 H2291 0.950 . S
C2267 C2266 1.349 . S
C2267 C2283 1.349 . S
C2268 C2266 1.327 . S
C2268 C2287 1.429 . S
C2268 H2292 0.950 . S
C2269 C2286 1.574 . S
C2269 C2288 1.368 . S
C2269 H2293 0.949 . S
H2270 C2274 0.949 . S
C2271 C2272 1.349 . S
C2271 C2273 1.327 . S
C2271 H2294 0.950 . S
C2272 C2271 1.349 . S
C2272 C2284 1.349 . S
C2273 C2271 1.327 . S
C2273 C2289 1.429 . S
C2273 H2295 0.950 . S
C2274 H2270 0.949 . S
C2274 C2282 1.574 . S
C2274 C2290 1.368 . S
H2275 C2283 0.950 . S
H2276 C2281 0.950 . S
H2277 C2282 0.949 . S
H2278 C2284 0.950 . S
H2279 C2285 0.950 . S
H2280 C2286 0.949 . S
C2281 H2276 0.950 . S
C2281 C2283 1.327 . S
C2281 C2287 1.429 . S
C2282 C2274 1.574 . S
C2282 H2277 0.949 . S
C2282 C2288 1.368 . S
C2283 C2267 1.349 . S
C2283 H2275 0.950 . S
C2283 C2281 1.327 . S
C2284 C2272 1.349 . S
C2284 H2278 0.950 . S
C2284 C2285 1.327 . S
C2285 H2279 0.950 . S
C2285 C2284 1.327 . S
C2285 C2289 1.429 . S
C2286 C2269 1.574 . S
C2286 H2280 0.949 . S
C2286 C2290 1.368 . S
C2287 C2268 1.429 . S
C2287 C2281 1.429 . S
C2287 C2288 1.523 . S
C2288 C2269 1.368 . S
C2288 C2282 1.368 . S
C2288 C2287 1.523 . S
C2289 C2273 1.429 . S
C2289 C2285 1.429 . S
C2289 C2290 1.523 . S
C2290 C2274 1.368 . S
C2290 C2286 1.368 . S
C2290 C2289 1.523 . S
H2291 C2266 0.950 . S
H2292 C2268 0.950 . S
H2293 C2269 0.949 . S
H2294 C2271 0.950 . S
H2295 C2273 0.950 . S
C2296 C2297 1.349 . S
C2296 C2298 1.327 . S
C2296 H2321 0.950 . S
C2297 C2296 1.349 . S
C2297 C2313 1.349 . S
C2298 C2296 1.327 . S
C2298 C2317 1.429 . S
C2298 H2322 0.950 . S
C2299 C2316 1.574 . S
C2299 C2318 1.368 . S
C2299 H2323 0.949 . S
H2300 C2304 0.949 . S
C2301 C2302 1.349 . S
C2301 C2303 1.327 . S
C2301 H2324 0.950 . S
C2302 C2301 1.349 . S
C2302 C2314 1.349 . S
C2303 C2301 1.327 . S
C2303 C2319 1.429 . S
C2303 H2325 0.950 . S
C2304 H2300 0.949 . S
C2304 C2312 1.574 . S
C2304 C2320 1.368 . S
H2305 C2313 0.950 . S
H2306 C2311 0.950 . S
H2307 C2312 0.949 . S
H2308 C2314 0.950 . S
H2309 C2315 0.950 . S
H2310 C2316 0.949 . S
C2311 H2306 0.950 . S
C2311 C2313 1.327 . S
C2311 C2317 1.429 . S
C2312 C2304 1.574 . S
C2312 H2307 0.949 . S
C2312 C2318 1.368 . S
C2313 C2297 1.349 . S
C2313 H2305 0.950 . S
C2313 C2311 1.327 . S
C2314 C2302 1.349 . S
C2314 H2308 0.950 . S
C2314 C2315 1.327 . S
C2315 H2309 0.950 . S
C2315 C2314 1.327 . S
C2315 C2319 1.429 . S
C2316 C2299 1.574 . S
C2316 H2310 0.949 . S
C2316 C2320 1.368 . S
C2317 C2298 1.429 . S
C2317 C2311 1.429 . S
C2317 C2318 1.523 . S
C2318 C2299 1.368 . S
C2318 C2312 1.368 . S
C2318 C2317 1.523 . S
C2319 C2303 1.429 . S
C2319 C2315 1.429 . S
C2319 C2320 1.523 . S
C2320 C2304 1.368 . S
C2320 C2316 1.368 . S
C2320 C2319 1.523 . S
H2321 C2296 0.950 . S
H2322 C2298 0.950 . S
H2323 C2299 0.949 . S
H2324 C2301 0.950 . S
H2325 C2303 0.950 . S
C2326 C2327 1.349 . S
C2326 C2328 1.327 . S
C2326 H2351 0.950 . S
C2327 C2326 1.349 . S
C2327 C2343 1.349 . S
C2328 C2326 1.327 . S
C2328 C2347 1.429 . S
C2328 H2352 0.950 . S
C2329 C2346 1.574 . S
C2329 C2348 1.368 . S
C2329 H2353 0.949 . S
H2330 C2334 0.949 . S
C2331 C2332 1.349 . S
C2331 C2333 1.327 . S
C2331 H2354 0.950 . S
C2332 C2331 1.349 . S
C2332 C2344 1.349 . S
C2333 C2331 1.327 . S
C2333 C2349 1.429 . S
C2333 H2355 0.950 . S
C2334 H2330 0.949 . S
C2334 C2342 1.574 . S
C2334 C2350 1.368 . S
H2335 C2343 0.950 . S
H2336 C2341 0.950 . S
H2337 C2342 0.949 . S
H2338 C2344 0.950 . S
H2339 C2345 0.950 . S
H2340 C2346 0.949 . S
C2341 H2336 0.950 . S
C2341 C2343 1.327 . S
C2341 C2347 1.429 . S
C2342 C2334 1.574 . S
C2342 H2337 0.949 . S
C2342 C2348 1.368 . S
C2343 C2327 1.349 . S
C2343 H2335 0.950 . S
C2343 C2341 1.327 . S
C2344 C2332 1.349 . S
C2344 H2338 0.950 . S
C2344 C2345 1.327 . S
C2345 H2339 0.950 . S
C2345 C2344 1.327 . S
C2345 C2349 1.429 . S
C2346 C2329 1.574 . S
C2346 H2340 0.949 . S
C2346 C2350 1.368 . S
C2347 C2328 1.429 . S
C2347 C2341 1.429 . S
C2347 C2348 1.523 . S
C2348 C2329 1.368 . S
C2348 C2342 1.368 . S
C2348 C2347 1.523 . S
C2349 C2333 1.429 . S
C2349 C2345 1.429 . S
C2349 C2350 1.523 . S
C2350 C2334 1.368 . S
C2350 C2346 1.368 . S
C2350 C2349 1.523 . S
H2351 C2326 0.950 . S
H2352 C2328 0.950 . S
H2353 C2329 0.949 . S
H2354 C2331 0.950 . S
H2355 C2333 0.950 . S
C2356 C2357 1.349 . S
C2356 C2358 1.327 . S
C2356 H2381 0.950 . S
C2357 C2356 1.349 . S
C2357 C2373 1.349 . S
C2358 C2356 1.327 . S
C2358 C2377 1.429 . S
C2358 H2382 0.950 . S
C2359 C2376 1.574 . S
C2359 C2378 1.368 . S
C2359 H2383 0.949 . S
H2360 C2364 0.949 . S
C2361 C2362 1.349 . S
C2361 C2363 1.327 . S
C2361 H2384 0.950 . S
C2362 C2361 1.349 . S
C2362 C2374 1.349 . S
C2363 C2361 1.327 . S
C2363 C2379 1.429 . S
C2363 H2385 0.950 . S
C2364 H2360 0.949 . S
C2364 C2372 1.574 . S
C2364 C2380 1.368 . S
H2365 C2373 0.950 . S
H2366 C2371 0.950 . S
H2367 C2372 0.949 . S
H2368 C2374 0.950 . S
H2369 C2375 0.950 . S
H2370 C2376 0.949 . S
C2371 H2366 0.950 . S
C2371 C2373 1.327 . S
C2371 C2377 1.429 . S
C2372 C2364 1.574 . S
C2372 H2367 0.949 . S
C2372 C2378 1.368 . S
C2373 C2357 1.349 . S
C2373 H2365 0.950 . S
C2373 C2371 1.327 . S
C2374 C2362 1.349 . S
C2374 H2368 0.950 . S
C2374 C2375 1.327 . S
C2375 H2369 0.950 . S
C2375 C2374 1.327 . S
C2375 C2379 1.429 . S
C2376 C2359 1.574 . S
C2376 H2370 0.949 . S
C2376 C2380 1.368 . S
C2377 C2358 1.429 . S
C2377 C2371 1.429 . S
C2377 C2378 1.523 . S
C2378 C2359 1.368 . S
C2378 C2372 1.368 . S
C2378 C2377 1.523 . S
C2379 C2363 1.429 . S
C2379 C2375 1.429 . S
C2379 C2380 1.523 . S
C2380 C2364 1.368 . S
C2380 C2376 1.368 . S
C2380 C2379 1.523 . S
H2381 C2356 0.950 . S
H2382 C2358 0.950 . S
H2383 C2359 0.949 . S
H2384 C2361 0.950 . S
H2385 C2363 0.950 . S
C2386 C2387 1.349 . S
C2386 C2388 1.327 . S
C2386 H2411 0.950 . S
C2387 C2386 1.349 . S
C2387 C2403 1.349 . S
C2388 C2386 1.327 . S
C2388 C2407 1.429 . S
C2388 H2412 0.950 . S
C2389 C2406 1.574 . S
C2389 C2408 1.368 . S
C2389 H2413 0.949 . S
H2390 C2394 0.949 . S
C2391 C2392 1.349 . S
C2391 C2393 1.327 . S
C2391 H2414 0.950 . S
C2392 C2391 1.349 . S
C2392 C2404 1.349 . S
C2393 C2391 1.327 . S
C2393 C2409 1.429 . S
C2393 H2415 0.950 . S
C2394 H2390 0.949 . S
C2394 C2402 1.574 . S
C2394 C2410 1.368 . S
H2395 C2403 0.950 . S
H2396 C2401 0.950 . S
H2397 C2402 0.949 . S
H2398 C2404 0.950 . S
H2399 C2405 0.950 . S
H2400 C2406 0.949 . S
C2401 H2396 0.950 . S
C2401 C2403 1.327 . S
C2401 C2407 1.429 . S
C2402 C2394 1.574 . S
C2402 H2397 0.949 . S
C2402 C2408 1.368 . S
C2403 C2387 1.349 . S
C2403 H2395 0.950 . S
C2403 C2401 1.327 . S
C2404 C2392 1.349 . S
C2404 H2398 0.950 . S
C2404 C2405 1.327 . S
C2405 H2399 0.950 . S
C2405 C2404 1.327 . S
C2405 C2409 1.429 . S
C2406 C2389 1.574 . S
C2406 H2400 0.949 . S
C2406 C2410 1.368 . S
C2407 C2388 1.429 . S
C2407 C2401 1.429 . S
C2407 C2408 1.523 . S
C2408 C2389 1.368 . S
C2408 C2402 1.368 . S
C2408 C2407 1.523 . S
C2409 C2393 1.429 . S
C2409 C2405 1.429 . S
C2409 C2410 1.523 . S
C2410 C2394 1.368 . S
C2410 C2406 1.368 . S
C2410 C2409 1.523 . S
H2411 C2386 0.950 . S
H2412 C2388 0.950 . S
H2413 C2389 0.949 . S
H2414 C2391 0.950 . S
H2415 C2393 0.950 . S
C2416 C2417 1.349 . S
C2416 C2418 1.327 . S
C2416 H2441 0.950 . S
C2417 C2416 1.349 . S
C2417 C2433 1.349 . S
C2418 C2416 1.327 . S
C2418 C2437 1.429 . S
C2418 H2442 0.950 . S
C2419 C2436 1.574 . S
C2419 C2438 1.368 . S
C2419 H2443 0.949 . S
H2420 C2424 0.949 . S
C2421 C2422 1.349 . S
C2421 C2423 1.327 . S
C2421 H2444 0.950 . S
C2422 C2421 1.349 . S
C2422 C2434 1.349 . S
C2423 C2421 1.327 . S
C2423 C2439 1.429 . S
C2423 H2445 0.950 . S
C2424 H2420 0.949 . S
C2424 C2432 1.574 . S
C2424 C2440 1.368 . S
H2425 C2433 0.950 . S
H2426 C2431 0.950 . S
H2427 C2432 0.949 . S
H2428 C2434 0.950 . S
H2429 C2435 0.950 . S
H2430 C2436 0.949 . S
C2431 H2426 0.950 . S
C2431 C2433 1.327 . S
C2431 C2437 1.429 . S
C2432 C2424 1.574 . S
C2432 H2427 0.949 . S
C2432 C2438 1.368 . S
C2433 C2417 1.349 . S
C2433 H2425 0.950 . S
C2433 C2431 1.327 . S
C2434 C2422 1.349 . S
C2434 H2428 0.950 . S
C2434 C2435 1.327 . S
C2435 H2429 0.950 . S
C2435 C2434 1.327 . S
C2435 C2439 1.429 . S
C2436 C2419 1.574 . S
C2436 H2430 0.949 . S
C2436 C2440 1.368 . S
C2437 C2418 1.429 . S
C2437 C2431 1.429 . S
C2437 C2438 1.523 . S
C2438 C2419 1.368 . S
C2438 C2432 1.368 . S
C2438 C2437 1.523 . S
C2439 C2423 1.429 . S
C2439 C2435 1.429 . S
C2439 C2440 1.523 . S
C2440 C2424 1.368 . S
C2440 C2436 1.368 . S
C2440 C2439 1.523 . S
H2441 C2416 0.950 . S
H2442 C2418 0.950 . S
H2443 C2419 0.949 . S
H2444 C2421 0.950 . S
H2445 C2423 0.950 . S
C2446 C2447 1.349 . S
C2446 C2448 1.327 . S
C2446 H2471 0.950 . S
C2447 C2446 1.349 . S
C2447 C2463 1.349 . S
C2448 C2446 1.327 . S
C2448 C2467 1.429 . S
C2448 H2472 0.950 . S
C2449 C2466 1.574 . S
C2449 C2468 1.368 . S
C2449 H2473 0.949 . S
H2450 C2454 0.949 . S
C2451 C2452 1.349 . S
C2451 C2453 1.327 . S
C2451 H2474 0.950 . S
C2452 C2451 1.349 . S
C2452 C2464 1.349 . S
C2453 C2451 1.327 . S
C2453 C2469 1.429 . S
C2453 H2475 0.950 . S
C2454 H2450 0.949 . S
C2454 C2462 1.574 . S
C2454 C2470 1.368 . S
H2455 C2463 0.950 . S
H2456 C2461 0.950 . S
H2457 C2462 0.949 . S
H2458 C2464 0.950 . S
H2459 C2465 0.950 . S
H2460 C2466 0.949 . S
C2461 H2456 0.950 . S
C2461 C2463 1.327 . S
C2461 C2467 1.429 . S
C2462 C2454 1.574 . S
C2462 H2457 0.949 . S
C2462 C2468 1.368 . S
C2463 C2447 1.349 . S
C2463 H2455 0.950 . S
C2463 C2461 1.327 . S
C2464 C2452 1.349 . S
C2464 H2458 0.950 . S
C2464 C2465 1.327 . S
C2465 H2459 0.950 . S
C2465 C2464 1.327 . S
C2465 C2469 1.429 . S
C2466 C2449 1.574 . S
C2466 H2460 0.949 . S
C2466 C2470 1.368 . S
C2467 C2448 1.429 . S
C2467 C2461 1.429 . S
C2467 C2468 1.523 . S
C2468 C2449 1.368 . S
C2468 C2462 1.368 . S
C2468 C2467 1.523 . S
C2469 C2453 1.429 . S
C2469 C2465 1.429 . S
C2469 C2470 1.523 . S
C2470 C2454 1.368 . S
C2470 C2466 1.368 . S
C2470 C2469 1.523 . S
H2471 C2446 0.950 . S
H2472 C2448 0.950 . S
H2473 C2449 0.949 . S
H2474 C2451 0.950 . S
H2475 C2453 0.950 . S
C2476 C2477 1.349 . S
C2476 C2478 1.327 . S
C2476 H2501 0.950 . S
C2477 C2476 1.349 . S
C2477 C2493 1.349 . S
C2478 C2476 1.327 . S
C2478 C2497 1.429 . S
C2478 H2502 0.950 . S
C2479 C2496 1.574 . S
C2479 C2498 1.368 . S
C2479 H2503 0.949 . S
H2480 C2484 0.949 1_554 S
C2481 C2482 1.349 1_556 S
C2481 C2483 1.327 . S
C2481 H2504 0.950 . S
C2482 C2481 1.349 1_554 S
C2482 C2494 1.349 . S
C2483 C2481 1.327 . S
C2483 C2499 1.429 . S
C2483 H2505 0.950 . S
C2484 H2480 0.949 1_556 S
C2484 C2492 1.574 . S
C2484 C2500 1.368 . S
H2485 C2493 0.950 . S
H2486 C2491 0.950 . S
H2487 C2492 0.949 . S
H2488 C2494 0.950 . S
H2489 C2495 0.950 . S
H2490 C2496 0.949 . S
C2491 H2486 0.950 . S
C2491 C2493 1.327 . S
C2491 C2497 1.429 . S
C2492 C2484 1.574 . S
C2492 H2487 0.949 . S
C2492 C2498 1.368 . S
C2493 C2477 1.349 . S
C2493 H2485 0.950 . S
C2493 C2491 1.327 . S
C2494 C2482 1.349 . S
C2494 H2488 0.950 . S
C2494 C2495 1.327 . S
C2495 H2489 0.950 . S
C2495 C2494 1.327 . S
C2495 C2499 1.429 1_554 S
C2496 C2479 1.574 . S
C2496 H2490 0.949 . S
C2496 C2500 1.368 . S
C2497 C2478 1.429 . S
C2497 C2491 1.429 . S
C2497 C2498 1.523 . S
C2498 C2479 1.368 . S
C2498 C2492 1.368 . S
C2498 C2497 1.523 . S
C2499 C2483 1.429 . S
C2499 C2495 1.429 1_556 S
C2499 C2500 1.523 . S
C2500 C2484 1.368 . S
C2500 C2496 1.368 . S
C2500 C2499 1.523 . S
H2501 C2476 0.950 . S
H2502 C2478 0.950 . S
H2503 C2479 0.949 . S
H2504 C2481 0.950 . S
H2505 C2483 0.950 . S
C2506 C2507 1.349 1_655 S
C2506 C2508 1.327 . S
C2506 H2531 0.950 1_655 S
C2507 C2506 1.349 1_455 S
C2507 C2523 1.349 1_455 S
C2508 C2506 1.327 . S
C2508 C2527 1.429 . S
C2508 H2532 0.950 . S
C2509 C2526 1.574 . S
C2509 C2528 1.368 . S
C2509 H2533 0.949 . S
H2510 C2514 0.949 . S
C2511 C2512 1.349 . S
C2511 C2513 1.327 . S
C2511 H2534 0.950 . S
C2512 C2511 1.349 . S
C2512 C2524 1.349 . S
C2513 C2511 1.327 . S
C2513 C2529 1.429 . S
C2513 H2535 0.950 . S
C2514 H2510 0.949 . S
C2514 C2522 1.574 . S
C2514 C2530 1.368 . S
H2515 C2523 0.950 . S
H2516 C2521 0.950 . S
H2517 C2522 0.949 . S
H2518 C2524 0.950 . S
H2519 C2525 0.950 . S
H2520 C2526 0.949 . S
C2521 H2516 0.950 . S
C2521 C2523 1.327 . S
C2521 C2527 1.429 . S
C2522 C2514 1.574 . S
C2522 H2517 0.949 . S
C2522 C2528 1.368 . S
C2523 C2507 1.349 1_655 S
C2523 H2515 0.950 . S
C2523 C2521 1.327 . S
C2524 C2512 1.349 . S
C2524 H2518 0.950 . S
C2524 C2525 1.327 . S
C2525 H2519 0.950 . S
C2525 C2524 1.327 . S
C2525 C2529 1.429 . S
C2526 C2509 1.574 . S
C2526 H2520 0.949 . S
C2526 C2530 1.368 . S
C2527 C2508 1.429 . S
C2527 C2521 1.429 . S
C2527 C2528 1.523 . S
C2528 C2509 1.368 . S
C2528 C2522 1.368 . S
C2528 C2527 1.523 . S
C2529 C2513 1.429 . S
C2529 C2525 1.429 . S
C2529 C2530 1.523 . S
C2530 C2514 1.368 . S
C2530 C2526 1.368 . S
C2530 C2529 1.523 . S
H2531 C2506 0.950 1_455 S
H2532 C2508 0.950 . S
H2533 C2509 0.949 . S
H2534 C2511 0.950 . S
H2535 C2513 0.950 . S
C2536 C2537 1.349 . S
C2536 C2538 1.327 . S
C2536 H2561 0.950 . S
C2537 C2536 1.349 . S
C2537 C2553 1.349 . S
C2538 C2536 1.327 . S
C2538 C2557 1.429 . S
C2538 H2562 0.950 . S
C2539 C2556 1.574 . S
C2539 C2558 1.368 . S
C2539 H2563 0.949 . S
H2540 C2544 0.949 . S
C2541 C2542 1.349 . S
C2541 C2543 1.327 . S
C2541 H2564 0.950 . S
C2542 C2541 1.349 . S
C2542 C2554 1.349 . S
C2543 C2541 1.327 . S
C2543 C2559 1.429 . S
C2543 H2565 0.950 . S
C2544 H2540 0.949 . S
C2544 C2552 1.574 . S
C2544 C2560 1.368 . S
H2545 C2553 0.950 . S
H2546 C2551 0.950 . S
H2547 C2552 0.949 . S
H2548 C2554 0.950 . S
H2549 C2555 0.950 . S
H2550 C2556 0.949 . S
C2551 H2546 0.950 . S
C2551 C2553 1.327 . S
C2551 C2557 1.429 . S
C2552 C2544 1.574 . S
C2552 H2547 0.949 . S
C2552 C2558 1.368 . S
C2553 C2537 1.349 . S
C2553 H2545 0.950 . S
C2553 C2551 1.327 . S
C2554 C2542 1.349 . S
C2554 H2548 0.950 . S
C2554 C2555 1.327 . S
C2555 H2549 0.950 . S
C2555 C2554 1.327 . S
C2555 C2559 1.429 . S
C2556 C2539 1.574 . S
C2556 H2550 0.949 . S
C2556 C2560 1.368 . S
C2557 C2538 1.429 . S
C2557 C2551 1.429 . S
C2557 C2558 1.523 . S
C2558 C2539 1.368 . S
C2558 C2552 1.368 . S
C2558 C2557 1.523 . S
C2559 C2543 1.429 . S
C2559 C2555 1.429 . S
C2559 C2560 1.523 . S
C2560 C2544 1.368 . S
C2560 C2556 1.368 . S
C2560 C2559 1.523 . S
H2561 C2536 0.950 . S
H2562 C2538 0.950 . S
H2563 C2539 0.949 . S
H2564 C2541 0.950 . S
H2565 C2543 0.950 . S
C2566 C2567 1.349 . S
C2566 C2568 1.327 . S
C2566 H2591 0.950 . S
C2567 C2566 1.349 . S
C2567 C2583 1.349 . S
C2568 C2566 1.327 . S
C2568 C2587 1.429 . S
C2568 H2592 0.950 . S
C2569 C2586 1.574 . S
C2569 C2588 1.368 . S
C2569 H2593 0.949 . S
H2570 C2574 0.949 . S
C2571 C2572 1.349 . S
C2571 C2573 1.327 . S
C2571 H2594 0.950 . S
C2572 C2571 1.349 . S
C2572 C2584 1.349 . S
C2573 C2571 1.327 . S
C2573 C2589 1.429 . S
C2573 H2595 0.950 . S
C2574 H2570 0.949 . S
C2574 C2582 1.574 . S
C2574 C2590 1.368 . S
H2575 C2583 0.950 . S
H2576 C2581 0.950 . S
H2577 C2582 0.949 . S
H2578 C2584 0.950 . S
H2579 C2585 0.950 . S
H2580 C2586 0.949 . S
C2581 H2576 0.950 . S
C2581 C2583 1.327 . S
C2581 C2587 1.429 . S
C2582 C2574 1.574 . S
C2582 H2577 0.949 . S
C2582 C2588 1.368 . S
C2583 C2567 1.349 . S
C2583 H2575 0.950 . S
C2583 C2581 1.327 . S
C2584 C2572 1.349 . S
C2584 H2578 0.950 . S
C2584 C2585 1.327 . S
C2585 H2579 0.950 . S
C2585 C2584 1.327 . S
C2585 C2589 1.429 . S
C2586 C2569 1.574 . S
C2586 H2580 0.949 . S
C2586 C2590 1.368 . S
C2587 C2568 1.429 . S
C2587 C2581 1.429 . S
C2587 C2588 1.523 . S
C2588 C2569 1.368 . S
C2588 C2582 1.368 . S
C2588 C2587 1.523 . S
C2589 C2573 1.429 . S
C2589 C2585 1.429 . S
C2589 C2590 1.523 . S
C2590 C2574 1.368 . S
C2590 C2586 1.368 . S
C2590 C2589 1.523 . S
H2591 C2566 0.950 . S
H2592 C2568 0.950 . S
H2593 C2569 0.949 . S
H2594 C2571 0.950 . S
H2595 C2573 0.950 . S
C2596 C2597 1.349 . S
C2596 C2598 1.327 . S
C2596 H2621 0.950 . S
C2597 C2596 1.349 . S
C2597 C2613 1.349 . S
C2598 C2596 1.327 . S
C2598 C2617 1.429 . S
C2598 H2622 0.950 . S
C2599 C2616 1.574 . S
C2599 C2618 1.368 . S
C2599 H2623 0.949 . S
H2600 C2604 0.949 . S
C2601 C2602 1.349 . S
C2601 C2603 1.327 . S
C2601 H2624 0.950 . S
C2602 C2601 1.349 . S
C2602 C2614 1.349 . S
C2603 C2601 1.327 . S
C2603 C2619 1.429 . S
C2603 H2625 0.950 . S
C2604 H2600 0.949 . S
C2604 C2612 1.574 . S
C2604 C2620 1.368 . S
H2605 C2613 0.950 . S
H2606 C2611 0.950 . S
H2607 C2612 0.949 . S
H2608 C2614 0.950 . S
H2609 C2615 0.950 . S
H2610 C2616 0.949 . S
C2611 H2606 0.950 . S
C2611 C2613 1.327 . S
C2611 C2617 1.429 . S
C2612 C2604 1.574 . S
C2612 H2607 0.949 . S
C2612 C2618 1.368 . S
C2613 C2597 1.349 . S
C2613 H2605 0.950 . S
C2613 C2611 1.327 . S
C2614 C2602 1.349 . S
C2614 H2608 0.950 . S
C2614 C2615 1.327 . S
C2615 H2609 0.950 . S
C2615 C2614 1.327 . S
C2615 C2619 1.429 . S
C2616 C2599 1.574 . S
C2616 H2610 0.949 . S
C2616 C2620 1.368 . S
C2617 C2598 1.429 . S
C2617 C2611 1.429 . S
C2617 C2618 1.523 . S
C2618 C2599 1.368 . S
C2618 C2612 1.368 . S
C2618 C2617 1.523 . S
C2619 C2603 1.429 . S
C2619 C2615 1.429 . S
C2619 C2620 1.523 . S
C2620 C2604 1.368 . S
C2620 C2616 1.368 . S
C2620 C2619 1.523 . S
H2621 C2596 0.950 . S
H2622 C2598 0.950 . S
H2623 C2599 0.949 . S
H2624 C2601 0.950 . S
H2625 C2603 0.950 . S
C2626 C2627 1.349 . S
C2626 C2628 1.327 . S
C2626 H2651 0.950 . S
C2627 C2626 1.349 . S
C2627 C2643 1.349 . S
C2628 C2626 1.327 . S
C2628 C2647 1.429 . S
C2628 H2652 0.950 . S
C2629 C2646 1.574 . S
C2629 C2648 1.368 . S
C2629 H2653 0.949 . S
H2630 C2634 0.949 . S
C2631 C2632 1.349 . S
C2631 C2633 1.327 . S
C2631 H2654 0.950 . S
C2632 C2631 1.349 . S
C2632 C2644 1.349 . S
C2633 C2631 1.327 . S
C2633 C2649 1.429 . S
C2633 H2655 0.950 . S
C2634 H2630 0.949 . S
C2634 C2642 1.574 . S
C2634 C2650 1.368 . S
H2635 C2643 0.950 . S
H2636 C2641 0.950 . S
H2637 C2642 0.949 . S
H2638 C2644 0.950 . S
H2639 C2645 0.950 . S
H2640 C2646 0.949 . S
C2641 H2636 0.950 . S
C2641 C2643 1.327 . S
C2641 C2647 1.429 . S
C2642 C2634 1.574 . S
C2642 H2637 0.949 . S
C2642 C2648 1.368 . S
C2643 C2627 1.349 . S
C2643 H2635 0.950 . S
C2643 C2641 1.327 . S
C2644 C2632 1.349 . S
C2644 H2638 0.950 . S
C2644 C2645 1.327 . S
C2645 H2639 0.950 . S
C2645 C2644 1.327 . S
C2645 C2649 1.429 . S
C2646 C2629 1.574 . S
C2646 H2640 0.949 . S
C2646 C2650 1.368 . S
C2647 C2628 1.429 . S
C2647 C2641 1.429 . S
C2647 C2648 1.523 . S
C2648 C2629 1.368 . S
C2648 C2642 1.368 . S
C2648 C2647 1.523 . S
C2649 C2633 1.429 . S
C2649 C2645 1.429 . S
C2649 C2650 1.523 . S
C2650 C2634 1.368 . S
C2650 C2646 1.368 . S
C2650 C2649 1.523 . S
H2651 C2626 0.950 . S
H2652 C2628 0.950 . S
H2653 C2629 0.949 . S
H2654 C2631 0.950 . S
H2655 C2633 0.950 . S
C2656 C2657 1.349 . S
C2656 C2658 1.327 . S
C2656 H2681 0.950 . S
C2657 C2656 1.349 . S
C2657 C2673 1.349 . S
C2658 C2656 1.327 . S
C2658 C2677 1.429 . S
C2658 H2682 0.950 . S
C2659 C2676 1.574 . S
C2659 C2678 1.368 . S
C2659 H2683 0.949 . S
H2660 C2664 0.949 . S
C2661 C2662 1.349 . S
C2661 C2663 1.327 . S
C2661 H2684 0.950 . S
C2662 C2661 1.349 . S
C2662 C2674 1.349 . S
C2663 C2661 1.327 . S
C2663 C2679 1.429 . S
C2663 H2685 0.950 . S
C2664 H2660 0.949 . S
C2664 C2672 1.574 . S
C2664 C2680 1.368 . S
H2665 C2673 0.950 . S
H2666 C2671 0.950 . S
H2667 C2672 0.949 . S
H2668 C2674 0.950 . S
H2669 C2675 0.950 . S
H2670 C2676 0.949 . S
C2671 H2666 0.950 . S
C2671 C2673 1.327 . S
C2671 C2677 1.429 . S
C2672 C2664 1.574 . S
C2672 H2667 0.949 . S
C2672 C2678 1.368 . S
C2673 C2657 1.349 . S
C2673 H2665 0.950 . S
C2673 C2671 1.327 . S
C2674 C2662 1.349 . S
C2674 H2668 0.950 . S
C2674 C2675 1.327 . S
C2675 H2669 0.950 . S
C2675 C2674 1.327 . S
C2675 C2679 1.429 . S
C2676 C2659 1.574 . S
C2676 H2670 0.949 . S
C2676 C2680 1.368 . S
C2677 C2658 1.429 . S
C2677 C2671 1.429 . S
C2677 C2678 1.523 . S
C2678 C2659 1.368 . S
C2678 C2672 1.368 . S
C2678 C2677 1.523 . S
C2679 C2663 1.429 . S
C2679 C2675 1.429 . S
C2679 C2680 1.523 . S
C2680 C2664 1.368 . S
C2680 C2676 1.368 . S
C2680 C2679 1.523 . S
H2681 C2656 0.950 . S
H2682 C2658 0.950 . S
H2683 C2659 0.949 . S
H2684 C2661 0.950 . S
H2685 C2663 0.950 . S
C2686 C2687 1.349 . S
C2686 C2688 1.327 1_554 S
C2686 H2711 0.950 . S
C2687 C2686 1.349 . S
C2687 C2703 1.349 . S
C2688 C2686 1.327 1_556 S
C2688 C2707 1.429 . S
C2688 H2712 0.950 . S
C2689 C2706 1.574 . S
C2689 C2708 1.368 . S
C2689 H2713 0.949 . S
H2690 C2694 0.949 . S
C2691 C2692 1.349 . S
C2691 C2693 1.327 . S
C2691 H2714 0.950 . S
C2692 C2691 1.349 . S
C2692 C2704 1.349 . S
C2693 C2691 1.327 . S
C2693 C2709 1.429 . S
C2693 H2715 0.950 . S
C2694 H2690 0.949 . S
C2694 C2702 1.574 . S
C2694 C2710 1.368 . S
H2695 C2703 0.950 . S
H2696 C2701 0.950 . S
H2697 C2702 0.949 . S
H2698 C2704 0.950 . S
H2699 C2705 0.950 . S
H2700 C2706 0.949 . S
C2701 H2696 0.950 . S
C2701 C2703 1.327 1_556 S
C2701 C2707 1.429 . S
C2702 C2694 1.574 . S
C2702 H2697 0.949 . S
C2702 C2708 1.368 . S
C2703 C2687 1.349 . S
C2703 H2695 0.950 . S
C2703 C2701 1.327 1_554 S
C2704 C2692 1.349 . S
C2704 H2698 0.950 . S
C2704 C2705 1.327 . S
C2705 H2699 0.950 . S
C2705 C2704 1.327 . S
C2705 C2709 1.429 . S
C2706 C2689 1.574 . S
C2706 H2700 0.949 . S
C2706 C2710 1.368 . S
C2707 C2688 1.429 . S
C2707 C2701 1.429 . S
C2707 C2708 1.523 . S
C2708 C2689 1.368 . S
C2708 C2702 1.368 . S
C2708 C2707 1.523 . S
C2709 C2693 1.429 . S
C2709 C2705 1.429 . S
C2709 C2710 1.523 . S
C2710 C2694 1.368 . S
C2710 C2706 1.368 . S
C2710 C2709 1.523 . S
H2711 C2686 0.950 . S
H2712 C2688 0.950 . S
H2713 C2689 0.949 . S
H2714 C2691 0.950 . S
H2715 C2693 0.950 . S
C2716 C2717 1.349 . S
C2716 C2718 1.327 . S
C2716 H2741 0.950 . S
C2717 C2716 1.349 . S
C2717 C2733 1.349 . S
C2718 C2716 1.327 . S
C2718 C2737 1.429 . S
C2718 H2742 0.950 . S
C2719 C2736 1.574 . S
C2719 C2738 1.368 . S
C2719 H2743 0.949 . S
H2720 C2724 0.949 . S
C2721 C2722 1.349 . S
C2721 C2723 1.327 . S
C2721 H2744 0.950 . S
C2722 C2721 1.349 . S
C2722 C2734 1.349 . S
C2723 C2721 1.327 . S
C2723 C2739 1.429 . S
C2723 H2745 0.950 . S
C2724 H2720 0.949 . S
C2724 C2732 1.574 . S
C2724 C2740 1.368 . S
H2725 C2733 0.950 . S
H2726 C2731 0.950 . S
H2727 C2732 0.949 . S
H2728 C2734 0.950 . S
H2729 C2735 0.950 . S
H2730 C2736 0.949 . S
C2731 H2726 0.950 . S
C2731 C2733 1.327 . S
C2731 C2737 1.429 . S
C2732 C2724 1.574 . S
C2732 H2727 0.949 . S
C2732 C2738 1.368 . S
C2733 C2717 1.349 . S
C2733 H2725 0.950 . S
C2733 C2731 1.327 . S
C2734 C2722 1.349 . S
C2734 H2728 0.950 . S
C2734 C2735 1.327 . S
C2735 H2729 0.950 . S
C2735 C2734 1.327 . S
C2735 C2739 1.429 . S
C2736 C2719 1.574 . S
C2736 H2730 0.949 . S
C2736 C2740 1.368 . S
C2737 C2718 1.429 . S
C2737 C2731 1.429 . S
C2737 C2738 1.523 . S
C2738 C2719 1.368 . S
C2738 C2732 1.368 . S
C2738 C2737 1.523 . S
C2739 C2723 1.429 . S
C2739 C2735 1.429 . S
C2739 C2740 1.523 . S
C2740 C2724 1.368 . S
C2740 C2736 1.368 . S
C2740 C2739 1.523 . S
H2741 C2716 0.950 . S
H2742 C2718 0.950 . S
H2743 C2719 0.949 . S
H2744 C2721 0.950 . S
H2745 C2723 0.950 . S
C2746 C2747 1.349 . S
C2746 C2748 1.327 . S
C2746 H2771 0.950 . S
C2747 C2746 1.349 . S
C2747 C2763 1.349 . S
C2748 C2746 1.327 . S
C2748 C2767 1.429 . S
C2748 H2772 0.950 . S
C2749 C2766 1.574 . S
C2749 C2768 1.368 . S
C2749 H2773 0.949 . S
H2750 C2754 0.949 . S
C2751 C2752 1.349 . S
C2751 C2753 1.327 . S
C2751 H2774 0.950 . S
C2752 C2751 1.349 . S
C2752 C2764 1.349 . S
C2753 C2751 1.327 . S
C2753 C2769 1.429 . S
C2753 H2775 0.950 . S
C2754 H2750 0.949 . S
C2754 C2762 1.574 . S
C2754 C2770 1.368 . S
H2755 C2763 0.950 . S
H2756 C2761 0.950 . S
H2757 C2762 0.949 . S
H2758 C2764 0.950 . S
H2759 C2765 0.950 . S
H2760 C2766 0.949 . S
C2761 H2756 0.950 . S
C2761 C2763 1.327 . S
C2761 C2767 1.429 . S
C2762 C2754 1.574 . S
C2762 H2757 0.949 . S
C2762 C2768 1.368 . S
C2763 C2747 1.349 . S
C2763 H2755 0.950 . S
C2763 C2761 1.327 . S
C2764 C2752 1.349 . S
C2764 H2758 0.950 . S
C2764 C2765 1.327 . S
C2765 H2759 0.950 . S
C2765 C2764 1.327 . S
C2765 C2769 1.429 . S
C2766 C2749 1.574 . S
C2766 H2760 0.949 . S
C2766 C2770 1.368 . S
C2767 C2748 1.429 . S
C2767 C2761 1.429 . S
C2767 C2768 1.523 . S
C2768 C2749 1.368 . S
C2768 C2762 1.368 . S
C2768 C2767 1.523 . S
C2769 C2753 1.429 . S
C2769 C2765 1.429 . S
C2769 C2770 1.523 . S
C2770 C2754 1.368 . S
C2770 C2766 1.368 . S
C2770 C2769 1.523 . S
H2771 C2746 0.950 . S
H2772 C2748 0.950 . S
H2773 C2749 0.949 . S
H2774 C2751 0.950 . S
H2775 C2753 0.950 . S
C2776 C2777 1.349 . S
C2776 C2778 1.327 . S
C2776 H2801 0.950 . S
C2777 C2776 1.349 . S
C2777 C2793 1.349 . S
C2778 C2776 1.327 . S
C2778 C2797 1.429 . S
C2778 H2802 0.950 . S
C2779 C2796 1.574 . S
C2779 C2798 1.368 . S
C2779 H2803 0.949 . S
H2780 C2784 0.949 . S
C2781 C2782 1.349 . S
C2781 C2783 1.327 . S
C2781 H2804 0.950 . S
C2782 C2781 1.349 . S
C2782 C2794 1.349 . S
C2783 C2781 1.327 . S
C2783 C2799 1.429 . S
C2783 H2805 0.950 . S
C2784 H2780 0.949 . S
C2784 C2792 1.574 . S
C2784 C2800 1.368 . S
H2785 C2793 0.950 . S
H2786 C2791 0.950 . S
H2787 C2792 0.949 . S
H2788 C2794 0.950 . S
H2789 C2795 0.950 . S
H2790 C2796 0.949 . S
C2791 H2786 0.950 . S
C2791 C2793 1.327 . S
C2791 C2797 1.429 . S
C2792 C2784 1.574 . S
C2792 H2787 0.949 . S
C2792 C2798 1.368 . S
C2793 C2777 1.349 . S
C2793 H2785 0.950 . S
C2793 C2791 1.327 . S
C2794 C2782 1.349 . S
C2794 H2788 0.950 . S
C2794 C2795 1.327 . S
C2795 H2789 0.950 . S
C2795 C2794 1.327 . S
C2795 C2799 1.429 . S
C2796 C2779 1.574 . S
C2796 H2790 0.949 . S
C2796 C2800 1.368 . S
C2797 C2778 1.429 . S
C2797 C2791 1.429 . S
C2797 C2798 1.523 . S
C2798 C2779 1.368 . S
C2798 C2792 1.368 . S
C2798 C2797 1.523 . S
C2799 C2783 1.429 . S
C2799 C2795 1.429 . S
C2799 C2800 1.523 . S
C2800 C2784 1.368 . S
C2800 C2796 1.368 . S
C2800 C2799 1.523 . S
H2801 C2776 0.950 . S
H2802 C2778 0.950 . S
H2803 C2779 0.949 . S
H2804 C2781 0.950 . S
H2805 C2783 0.950 . S
C2806 C2807 1.349 . S
C2806 C2808 1.327 . S
C2806 H2831 0.950 . S
C2807 C2806 1.349 . S
C2807 C2823 1.349 . S
C2808 C2806 1.327 . S
C2808 C2827 1.429 . S
C2808 H2832 0.950 . S
C2809 C2826 1.574 . S
C2809 C2828 1.368 . S
C2809 H2833 0.949 . S
H2810 C2814 0.949 . S
C2811 C2812 1.349 . S
C2811 C2813 1.327 . S
C2811 H2834 0.950 . S
C2812 C2811 1.349 . S
C2812 C2824 1.349 . S
C2813 C2811 1.327 . S
C2813 C2829 1.429 . S
C2813 H2835 0.950 . S
C2814 H2810 0.949 . S
C2814 C2822 1.574 . S
C2814 C2830 1.368 . S
H2815 C2823 0.950 . S
H2816 C2821 0.950 . S
H2817 C2822 0.949 . S
H2818 C2824 0.950 . S
H2819 C2825 0.950 . S
H2820 C2826 0.949 . S
C2821 H2816 0.950 . S
C2821 C2823 1.327 . S
C2821 C2827 1.429 . S
C2822 C2814 1.574 . S
C2822 H2817 0.949 . S
C2822 C2828 1.368 . S
C2823 C2807 1.349 . S
C2823 H2815 0.950 . S
C2823 C2821 1.327 . S
C2824 C2812 1.349 . S
C2824 H2818 0.950 . S
C2824 C2825 1.327 . S
C2825 H2819 0.950 . S
C2825 C2824 1.327 . S
C2825 C2829 1.429 . S
C2826 C2809 1.574 . S
C2826 H2820 0.949 . S
C2826 C2830 1.368 . S
C2827 C2808 1.429 . S
C2827 C2821 1.429 . S
C2827 C2828 1.523 . S
C2828 C2809 1.368 . S
C2828 C2822 1.368 . S
C2828 C2827 1.523 . S
C2829 C2813 1.429 . S
C2829 C2825 1.429 . S
C2829 C2830 1.523 . S
C2830 C2814 1.368 . S
C2830 C2826 1.368 . S
C2830 C2829 1.523 . S
H2831 C2806 0.950 . S
H2832 C2808 0.950 . S
H2833 C2809 0.949 . S
H2834 C2811 0.950 . S
H2835 C2813 0.950 . S
C2836 C2837 1.349 . S
C2836 C2838 1.327 . S
C2836 H2861 0.950 . S
C2837 C2836 1.349 . S
C2837 C2853 1.349 . S
C2838 C2836 1.327 . S
C2838 C2857 1.429 . S
C2838 H2862 0.950 . S
C2839 C2856 1.574 . S
C2839 C2858 1.368 . S
C2839 H2863 0.949 . S
H2840 C2844 0.949 . S
C2841 C2842 1.349 . S
C2841 C2843 1.327 . S
C2841 H2864 0.950 . S
C2842 C2841 1.349 . S
C2842 C2854 1.349 . S
C2843 C2841 1.327 . S
C2843 C2859 1.429 . S
C2843 H2865 0.950 . S
C2844 H2840 0.949 . S
C2844 C2852 1.574 . S
C2844 C2860 1.368 . S
H2845 C2853 0.950 . S
H2846 C2851 0.950 . S
H2847 C2852 0.949 . S
H2848 C2854 0.950 . S
H2849 C2855 0.950 . S
H2850 C2856 0.949 . S
C2851 H2846 0.950 . S
C2851 C2853 1.327 . S
C2851 C2857 1.429 . S
C2852 C2844 1.574 . S
C2852 H2847 0.949 . S
C2852 C2858 1.368 . S
C2853 C2837 1.349 . S
C2853 H2845 0.950 . S
C2853 C2851 1.327 . S
C2854 C2842 1.349 . S
C2854 H2848 0.950 . S
C2854 C2855 1.327 . S
C2855 H2849 0.950 . S
C2855 C2854 1.327 . S
C2855 C2859 1.429 . S
C2856 C2839 1.574 . S
C2856 H2850 0.949 . S
C2856 C2860 1.368 . S
C2857 C2838 1.429 . S
C2857 C2851 1.429 . S
C2857 C2858 1.523 . S
C2858 C2839 1.368 . S
C2858 C2852 1.368 . S
C2858 C2857 1.523 . S
C2859 C2843 1.429 . S
C2859 C2855 1.429 . S
C2859 C2860 1.523 . S
C2860 C2844 1.368 . S
C2860 C2856 1.368 . S
C2860 C2859 1.523 . S
H2861 C2836 0.950 . S
H2862 C2838 0.950 . S
H2863 C2839 0.949 . S
H2864 C2841 0.950 . S
H2865 C2843 0.950 . S
C2866 C2867 1.349 . S
C2866 C2868 1.327 . S
C2866 H2891 0.950 . S
C2867 C2866 1.349 . S
C2867 C2883 1.349 . S
C2868 C2866 1.327 . S
C2868 C2887 1.429 . S
C2868 H2892 0.950 . S
C2869 C2886 1.574 . S
C2869 C2888 1.368 . S
C2869 H2893 0.949 . S
H2870 C2874 0.949 . S
C2871 C2872 1.349 . S
C2871 C2873 1.327 . S
C2871 H2894 0.950 . S
C2872 C2871 1.349 . S
C2872 C2884 1.349 . S
C2873 C2871 1.327 . S
C2873 C2889 1.429 . S
C2873 H2895 0.950 . S
C2874 H2870 0.949 . S
C2874 C2882 1.574 . S
C2874 C2890 1.368 . S
H2875 C2883 0.950 . S
H2876 C2881 0.950 . S
H2877 C2882 0.949 . S
H2878 C2884 0.950 . S
H2879 C2885 0.950 . S
H2880 C2886 0.949 . S
C2881 H2876 0.950 . S
C2881 C2883 1.327 . S
C2881 C2887 1.429 . S
C2882 C2874 1.574 . S
C2882 H2877 0.949 . S
C2882 C2888 1.368 . S
C2883 C2867 1.349 . S
C2883 H2875 0.950 . S
C2883 C2881 1.327 . S
C2884 C2872 1.349 . S
C2884 H2878 0.950 . S
C2884 C2885 1.327 . S
C2885 H2879 0.950 . S
C2885 C2884 1.327 . S
C2885 C2889 1.429 . S
C2886 C2869 1.574 . S
C2886 H2880 0.949 . S
C2886 C2890 1.368 . S
C2887 C2868 1.429 . S
C2887 C2881 1.429 . S
C2887 C2888 1.523 . S
C2888 C2869 1.368 . S
C2888 C2882 1.368 . S
C2888 C2887 1.523 . S
C2889 C2873 1.429 . S
C2889 C2885 1.429 . S
C2889 C2890 1.523 . S
C2890 C2874 1.368 . S
C2890 C2886 1.368 . S
C2890 C2889 1.523 . S
H2891 C2866 0.950 . S
H2892 C2868 0.950 . S
H2893 C2869 0.949 . S
H2894 C2871 0.950 . S
H2895 C2873 0.950 . S
C2896 C2897 1.349 . S
C2896 C2898 1.327 . S
C2896 H2921 0.950 . S
C2897 C2896 1.349 . S
C2897 C2913 1.349 . S
C2898 C2896 1.327 . S
C2898 C2917 1.429 . S
C2898 H2922 0.950 . S
C2899 C2916 1.574 . S
C2899 C2918 1.368 . S
C2899 H2923 0.949 . S
H2900 C2904 0.949 . S
C2901 C2902 1.349 . S
C2901 C2903 1.327 . S
C2901 H2924 0.950 . S
C2902 C2901 1.349 . S
C2902 C2914 1.349 . S
C2903 C2901 1.327 . S
C2903 C2919 1.429 . S
C2903 H2925 0.950 . S
C2904 H2900 0.949 . S
C2904 C2912 1.574 . S
C2904 C2920 1.368 . S
H2905 C2913 0.950 . S
H2906 C2911 0.950 . S
H2907 C2912 0.949 . S
H2908 C2914 0.950 . S
H2909 C2915 0.950 . S
H2910 C2916 0.949 . S
C2911 H2906 0.950 . S
C2911 C2913 1.327 . S
C2911 C2917 1.429 . S
C2912 C2904 1.574 . S
C2912 H2907 0.949 . S
C2912 C2918 1.368 . S
C2913 C2897 1.349 . S
C2913 H2905 0.950 . S
C2913 C2911 1.327 . S
C2914 C2902 1.349 . S
C2914 H2908 0.950 . S
C2914 C2915 1.327 . S
C2915 H2909 0.950 . S
C2915 C2914 1.327 . S
C2915 C2919 1.429 . S
C2916 C2899 1.574 . S
C2916 H2910 0.949 . S
C2916 C2920 1.368 . S
C2917 C2898 1.429 . S
C2917 C2911 1.429 . S
C2917 C2918 1.523 . S
C2918 C2899 1.368 . S
C2918 C2912 1.368 . S
C2918 C2917 1.523 . S
C2919 C2903 1.429 . S
C2919 C2915 1.429 . S
C2919 C2920 1.523 . S
C2920 C2904 1.368 . S
C2920 C2916 1.368 . S
C2920 C2919 1.523 . S
H2921 C2896 0.950 . S
H2922 C2898 0.950 . S
H2923 C2899 0.949 . S
H2924 C2901 0.950 . S
H2925 C2903 0.950 . S
C2926 C2927 1.349 . S
C2926 C2928 1.327 . S
C2926 H2951 0.950 . S
C2927 C2926 1.349 . S
C2927 C2943 1.349 . S
C2928 C2926 1.327 . S
C2928 C2947 1.429 . S
C2928 H2952 0.950 . S
C2929 C2946 1.574 . S
C2929 C2948 1.368 . S
C2929 H2953 0.949 . S
H2930 C2934 0.949 . S
C2931 C2932 1.349 . S
C2931 C2933 1.327 . S
C2931 H2954 0.950 . S
C2932 C2931 1.349 . S
C2932 C2944 1.349 . S
C2933 C2931 1.327 . S
C2933 C2949 1.429 . S
C2933 H2955 0.950 . S
C2934 H2930 0.949 . S
C2934 C2942 1.574 . S
C2934 C2950 1.368 . S
H2935 C2943 0.950 . S
H2936 C2941 0.950 . S
H2937 C2942 0.949 . S
H2938 C2944 0.950 . S
H2939 C2945 0.950 . S
H2940 C2946 0.949 . S
C2941 H2936 0.950 . S
C2941 C2943 1.327 . S
C2941 C2947 1.429 . S
C2942 C2934 1.574 . S
C2942 H2937 0.949 . S
C2942 C2948 1.368 . S
C2943 C2927 1.349 . S
C2943 H2935 0.950 . S
C2943 C2941 1.327 . S
C2944 C2932 1.349 . S
C2944 H2938 0.950 . S
C2944 C2945 1.327 . S
C2945 H2939 0.950 . S
C2945 C2944 1.327 . S
C2945 C2949 1.429 . S
C2946 C2929 1.574 . S
C2946 H2940 0.949 . S
C2946 C2950 1.368 . S
C2947 C2928 1.429 . S
C2947 C2941 1.429 . S
C2947 C2948 1.523 . S
C2948 C2929 1.368 . S
C2948 C2942 1.368 . S
C2948 C2947 1.523 . S
C2949 C2933 1.429 . S
C2949 C2945 1.429 . S
C2949 C2950 1.523 . S
C2950 C2934 1.368 . S
C2950 C2946 1.368 . S
C2950 C2949 1.523 . S
H2951 C2926 0.950 . S
H2952 C2928 0.950 . S
H2953 C2929 0.949 . S
H2954 C2931 0.950 . S
H2955 C2933 0.950 . S
C2956 C2957 1.349 . S
C2956 C2958 1.327 . S
C2956 H2981 0.950 . S
C2957 C2956 1.349 . S
C2957 C2973 1.349 . S
C2958 C2956 1.327 . S
C2958 C2977 1.429 . S
C2958 H2982 0.950 . S
C2959 C2976 1.574 . S
C2959 C2978 1.368 . S
C2959 H2983 0.949 . S
H2960 C2964 0.949 . S
C2961 C2962 1.349 . S
C2961 C2963 1.327 . S
C2961 H2984 0.950 . S
C2962 C2961 1.349 . S
C2962 C2974 1.349 . S
C2963 C2961 1.327 . S
C2963 C2979 1.429 . S
C2963 H2985 0.950 . S
C2964 H2960 0.949 . S
C2964 C2972 1.574 . S
C2964 C2980 1.368 . S
H2965 C2973 0.950 . S
H2966 C2971 0.950 . S
H2967 C2972 0.949 . S
H2968 C2974 0.950 . S
H2969 C2975 0.950 . S
H2970 C2976 0.949 . S
C2971 H2966 0.950 . S
C2971 C2973 1.327 . S
C2971 C2977 1.429 . S
C2972 C2964 1.574 . S
C2972 H2967 0.949 . S
C2972 C2978 1.368 . S
C2973 C2957 1.349 . S
C2973 H2965 0.950 . S
C2973 C2971 1.327 . S
C2974 C2962 1.349 . S
C2974 H2968 0.950 . S
C2974 C2975 1.327 . S
C2975 H2969 0.950 . S
C2975 C2974 1.327 . S
C2975 C2979 1.429 . S
C2976 C2959 1.574 . S
C2976 H2970 0.949 . S
C2976 C2980 1.368 . S
C2977 C2958 1.429 . S
C2977 C2971 1.429 . S
C2977 C2978 1.523 . S
C2978 C2959 1.368 . S
C2978 C2972 1.368 . S
C2978 C2977 1.523 . S
C2979 C2963 1.429 . S
C2979 C2975 1.429 . S
C2979 C2980 1.523 . S
C2980 C2964 1.368 . S
C2980 C2976 1.368 . S
C2980 C2979 1.523 . S
H2981 C2956 0.950 . S
H2982 C2958 0.950 . S
H2983 C2959 0.949 . S
H2984 C2961 0.950 . S
H2985 C2963 0.950 . S
C2986 C2987 1.349 1_556 S
C2986 C2988 1.327 . S
C2986 H3011 0.950 . S
C2987 C2986 1.349 1_554 S
C2987 C3003 1.349 . S
C2988 C2986 1.327 . S
C2988 C3007 1.429 1_556 S
C2988 H3012 0.950 . S
C2989 C3006 1.574 . S
C2989 C3008 1.368 . S
C2989 H3013 0.949 . S
H2990 C2994 0.949 . S
C2991 C2992 1.349 . S
C2991 C2993 1.327 . S
C2991 H3014 0.950 . S
C2992 C2991 1.349 . S
C2992 C3004 1.349 1_554 S
C2993 C2991 1.327 . S
C2993 C3009 1.429 . S
C2993 H3015 0.950 . S
C2994 H2990 0.949 . S
C2994 C3002 1.574 . S
C2994 C3010 1.368 1_556 S
H2995 C3003 0.950 . S
H2996 C3001 0.950 . S
H2997 C3002 0.949 . S
H2998 C3004 0.950 . S
H2999 C3005 0.950 . S
H3000 C3006 0.949 . S
C3001 H2996 0.950 . S
C3001 C3003 1.327 . S
C3001 C3007 1.429 . S
C3002 C2994 1.574 . S
C3002 H2997 0.949 . S
C3002 C3008 1.368 1_556 S
C3003 C2987 1.349 . S
C3003 H2995 0.950 . S
C3003 C3001 1.327 . S
C3004 C2992 1.349 1_556 S
C3004 H2998 0.950 . S
C3004 C3005 1.327 . S
C3005 H2999 0.950 . S
C3005 C3004 1.327 . S
C3005 C3009 1.429 1_556 S
C3006 C2989 1.574 . S
C3006 H3000 0.949 . S
C3006 C3010 1.368 . S
C3007 C2988 1.429 1_554 S
C3007 C3001 1.429 . S
C3007 C3008 1.523 . S
C3008 C2989 1.368 . S
C3008 C3002 1.368 1_554 S
C3008 C3007 1.523 . S
C3009 C2993 1.429 . S
C3009 C3005 1.429 1_554 S
C3009 C3010 1.523 . S
C3010 C2994 1.368 1_554 S
C3010 C3006 1.368 . S
C3010 C3009 1.523 . S
H3011 C2986 0.950 . S
H3012 C2988 0.950 . S
H3013 C2989 0.949 . S
H3014 C2991 0.950 . S
H3015 C2993 0.950 . S
C3016 C3017 1.349 . S
C3016 C3018 1.327 . S
C3016 H3041 0.950 . S
C3017 C3016 1.349 . S
C3017 C3033 1.349 . S
C3018 C3016 1.327 . S
C3018 C3037 1.429 . S
C3018 H3042 0.950 . S
C3019 C3036 1.574 . S
C3019 C3038 1.368 . S
C3019 H3043 0.949 . S
H3020 C3024 0.949 . S
C3021 C3022 1.349 . S
C3021 C3023 1.327 . S
C3021 H3044 0.950 . S
C3022 C3021 1.349 . S
C3022 C3034 1.349 . S
C3023 C3021 1.327 . S
C3023 C3039 1.429 . S
C3023 H3045 0.950 . S
C3024 H3020 0.949 . S
C3024 C3032 1.574 . S
C3024 C3040 1.368 . S
H3025 C3033 0.950 . S
H3026 C3031 0.950 . S
H3027 C3032 0.949 . S
H3028 C3034 0.950 . S
H3029 C3035 0.950 . S
H3030 C3036 0.949 . S
C3031 H3026 0.950 . S
C3031 C3033 1.327 . S
C3031 C3037 1.429 . S
C3032 C3024 1.574 . S
C3032 H3027 0.949 . S
C3032 C3038 1.368 . S
C3033 C3017 1.349 . S
C3033 H3025 0.950 . S
C3033 C3031 1.327 . S
C3034 C3022 1.349 . S
C3034 H3028 0.950 . S
C3034 C3035 1.327 . S
C3035 H3029 0.950 . S
C3035 C3034 1.327 . S
C3035 C3039 1.429 . S
C3036 C3019 1.574 . S
C3036 H3030 0.949 . S
C3036 C3040 1.368 . S
C3037 C3018 1.429 . S
C3037 C3031 1.429 . S
C3037 C3038 1.523 . S
C3038 C3019 1.368 . S
C3038 C3032 1.368 . S
C3038 C3037 1.523 . S
C3039 C3023 1.429 . S
C3039 C3035 1.429 . S
C3039 C3040 1.523 . S
C3040 C3024 1.368 . S
C3040 C3036 1.368 . S
C3040 C3039 1.523 . S
H3041 C3016 0.950 . S
H3042 C3018 0.950 . S
H3043 C3019 0.949 . S
H3044 C3021 0.950 . S
H3045 C3023 0.950 . S
C3046 C3047 1.349 . S
C3046 C3048 1.327 . S
C3046 H3071 0.950 . S
C3047 C3046 1.349 . S
C3047 C3063 1.349 . S
C3048 C3046 1.327 . S
C3048 C3067 1.429 . S
C3048 H3072 0.950 . S
C3049 C3066 1.574 . S
C3049 C3068 1.368 . S
C3049 H3073 0.949 . S
H3050 C3054 0.949 . S
C3051 C3052 1.349 . S
C3051 C3053 1.327 . S
C3051 H3074 0.950 . S
C3052 C3051 1.349 . S
C3052 C3064 1.349 . S
C3053 C3051 1.327 . S
C3053 C3069 1.429 . S
C3053 H3075 0.950 . S
C3054 H3050 0.949 . S
C3054 C3062 1.574 . S
C3054 C3070 1.368 . S
H3055 C3063 0.950 1_556 S
H3056 C3061 0.950 . S
H3057 C3062 0.949 . S
H3058 C3064 0.950 . S
H3059 C3065 0.950 . S
H3060 C3066 0.949 . S
C3061 H3056 0.950 . S
C3061 C3063 1.327 . S
C3061 C3067 1.429 . S
C3062 C3054 1.574 . S
C3062 H3057 0.949 . S
C3062 C3068 1.368 . S
C3063 C3047 1.349 . S
C3063 H3055 0.950 1_554 S
C3063 C3061 1.327 . S
C3064 C3052 1.349 . S
C3064 H3058 0.950 . S
C3064 C3065 1.327 . S
C3065 H3059 0.950 . S
C3065 C3064 1.327 . S
C3065 C3069 1.429 . S
C3066 C3049 1.574 . S
C3066 H3060 0.949 . S
C3066 C3070 1.368 . S
C3067 C3048 1.429 . S
C3067 C3061 1.429 . S
C3067 C3068 1.523 . S
C3068 C3049 1.368 . S
C3068 C3062 1.368 . S
C3068 C3067 1.523 . S
C3069 C3053 1.429 . S
C3069 C3065 1.429 . S
C3069 C3070 1.523 . S
C3070 C3054 1.368 . S
C3070 C3066 1.368 . S
C3070 C3069 1.523 . S
H3071 C3046 0.950 . S
H3072 C3048 0.950 . S
H3073 C3049 0.949 . S
H3074 C3051 0.950 . S
H3075 C3053 0.950 . S
C3076 C3077 1.349 . S
C3076 C3078 1.327 . S
C3076 H3101 0.950 . S
C3077 C3076 1.349 . S
C3077 C3093 1.349 . S
C3078 C3076 1.327 . S
C3078 C3097 1.429 . S
C3078 H3102 0.950 . S
C3079 C3096 1.574 . S
C3079 C3098 1.368 . S
C3079 H3103 0.949 . S
H3080 C3084 0.949 . S
C3081 C3082 1.349 . S
C3081 C3083 1.327 . S
C3081 H3104 0.950 . S
C3082 C3081 1.349 . S
C3082 C3094 1.349 . S
C3083 C3081 1.327 . S
C3083 C3099 1.429 . S
C3083 H3105 0.950 . S
C3084 H3080 0.949 . S
C3084 C3092 1.574 . S
C3084 C3100 1.368 . S
H3085 C3093 0.950 . S
H3086 C3091 0.950 . S
H3087 C3092 0.949 . S
H3088 C3094 0.950 . S
H3089 C3095 0.950 . S
H3090 C3096 0.949 . S
C3091 H3086 0.950 . S
C3091 C3093 1.327 . S
C3091 C3097 1.429 . S
C3092 C3084 1.574 . S
C3092 H3087 0.949 . S
C3092 C3098 1.368 . S
C3093 C3077 1.349 . S
C3093 H3085 0.950 . S
C3093 C3091 1.327 . S
C3094 C3082 1.349 . S
C3094 H3088 0.950 . S
C3094 C3095 1.327 . S
C3095 H3089 0.950 . S
C3095 C3094 1.327 . S
C3095 C3099 1.429 . S
C3096 C3079 1.574 . S
C3096 H3090 0.949 . S
C3096 C3100 1.368 . S
C3097 C3078 1.429 . S
C3097 C3091 1.429 . S
C3097 C3098 1.523 . S
C3098 C3079 1.368 . S
C3098 C3092 1.368 . S
C3098 C3097 1.523 . S
C3099 C3083 1.429 . S
C3099 C3095 1.429 . S
C3099 C3100 1.523 . S
C3100 C3084 1.368 . S
C3100 C3096 1.368 . S
C3100 C3099 1.523 . S
H3101 C3076 0.950 . S
H3102 C3078 0.950 . S
H3103 C3079 0.949 . S
H3104 C3081 0.950 . S
H3105 C3083 0.950 . S
C3106 C3107 1.349 . S
C3106 C3108 1.327 . S
C3106 H3131 0.950 . S
C3107 C3106 1.349 . S
C3107 C3123 1.349 . S
C3108 C3106 1.327 . S
C3108 C3127 1.429 . S
C3108 H3132 0.950 . S
C3109 C3126 1.574 . S
C3109 C3128 1.368 . S
C3109 H3133 0.949 . S
H3110 C3114 0.949 . S
C3111 C3112 1.349 . S
C3111 C3113 1.327 . S
C3111 H3134 0.950 . S
C3112 C3111 1.349 . S
C3112 C3124 1.349 . S
C3113 C3111 1.327 . S
C3113 C3129 1.429 . S
C3113 H3135 0.950 . S
C3114 H3110 0.949 . S
C3114 C3122 1.574 . S
C3114 C3130 1.368 . S
H3115 C3123 0.950 . S
H3116 C3121 0.950 . S
H3117 C3122 0.949 . S
H3118 C3124 0.950 . S
H3119 C3125 0.950 . S
H3120 C3126 0.949 . S
C3121 H3116 0.950 . S
C3121 C3123 1.327 . S
C3121 C3127 1.429 . S
C3122 C3114 1.574 . S
C3122 H3117 0.949 . S
C3122 C3128 1.368 . S
C3123 C3107 1.349 . S
C3123 H3115 0.950 . S
C3123 C3121 1.327 . S
C3124 C3112 1.349 . S
C3124 H3118 0.950 . S
C3124 C3125 1.327 . S
C3125 H3119 0.950 . S
C3125 C3124 1.327 . S
C3125 C3129 1.429 . S
C3126 C3109 1.574 . S
C3126 H3120 0.949 . S
C3126 C3130 1.368 . S
C3127 C3108 1.429 . S
C3127 C3121 1.429 . S
C3127 C3128 1.523 . S
C3128 C3109 1.368 . S
C3128 C3122 1.368 . S
C3128 C3127 1.523 . S
C3129 C3113 1.429 . S
C3129 C3125 1.429 . S
C3129 C3130 1.523 . S
C3130 C3114 1.368 . S
C3130 C3126 1.368 . S
C3130 C3129 1.523 . S
H3131 C3106 0.950 . S
H3132 C3108 0.950 . S
H3133 C3109 0.949 . S
H3134 C3111 0.950 . S
H3135 C3113 0.950 . S
C3136 C3137 1.349 . S
C3136 C3138 1.327 . S
C3136 H3161 0.950 . S
C3137 C3136 1.349 . S
C3137 C3153 1.349 . S
C3138 C3136 1.327 . S
C3138 C3157 1.429 . S
C3138 H3162 0.950 . S
C3139 C3156 1.574 . S
C3139 C3158 1.368 . S
C3139 H3163 0.949 . S
H3140 C3144 0.949 . S
C3141 C3142 1.349 . S
C3141 C3143 1.327 . S
C3141 H3164 0.950 . S
C3142 C3141 1.349 . S
C3142 C3154 1.349 . S
C3143 C3141 1.327 . S
C3143 C3159 1.429 . S
C3143 H3165 0.950 . S
C3144 H3140 0.949 . S
C3144 C3152 1.574 . S
C3144 C3160 1.368 . S
H3145 C3153 0.950 . S
H3146 C3151 0.950 . S
H3147 C3152 0.949 . S
H3148 C3154 0.950 . S
H3149 C3155 0.950 . S
H3150 C3156 0.949 . S
C3151 H3146 0.950 . S
C3151 C3153 1.327 . S
C3151 C3157 1.429 . S
C3152 C3144 1.574 . S
C3152 H3147 0.949 . S
C3152 C3158 1.368 . S
C3153 C3137 1.349 . S
C3153 H3145 0.950 . S
C3153 C3151 1.327 . S
C3154 C3142 1.349 . S
C3154 H3148 0.950 . S
C3154 C3155 1.327 . S
C3155 H3149 0.950 . S
C3155 C3154 1.327 . S
C3155 C3159 1.429 . S
C3156 C3139 1.574 . S
C3156 H3150 0.949 . S
C3156 C3160 1.368 . S
C3157 C3138 1.429 . S
C3157 C3151 1.429 . S
C3157 C3158 1.523 . S
C3158 C3139 1.368 . S
C3158 C3152 1.368 . S
C3158 C3157 1.523 . S
C3159 C3143 1.429 . S
C3159 C3155 1.429 . S
C3159 C3160 1.523 . S
C3160 C3144 1.368 . S
C3160 C3156 1.368 . S
C3160 C3159 1.523 . S
H3161 C3136 0.950 . S
H3162 C3138 0.950 . S
H3163 C3139 0.949 . S
H3164 C3141 0.950 . S
H3165 C3143 0.950 . S
C3166 C3167 1.349 . S
C3166 C3168 1.327 . S
C3166 H3191 0.950 . S
C3167 C3166 1.349 . S
C3167 C3183 1.349 . S
C3168 C3166 1.327 . S
C3168 C3187 1.429 . S
C3168 H3192 0.950 . S
C3169 C3186 1.574 . S
C3169 C3188 1.368 . S
C3169 H3193 0.949 . S
H3170 C3174 0.949 . S
C3171 C3172 1.349 . S
C3171 C3173 1.327 . S
C3171 H3194 0.950 . S
C3172 C3171 1.349 . S
C3172 C3184 1.349 . S
C3173 C3171 1.327 . S
C3173 C3189 1.429 . S
C3173 H3195 0.950 . S
C3174 H3170 0.949 . S
C3174 C3182 1.574 . S
C3174 C3190 1.368 . S
H3175 C3183 0.950 . S
H3176 C3181 0.950 . S
H3177 C3182 0.949 . S
H3178 C3184 0.950 . S
H3179 C3185 0.950 . S
H3180 C3186 0.949 . S
C3181 H3176 0.950 . S
C3181 C3183 1.327 . S
C3181 C3187 1.429 . S
C3182 C3174 1.574 . S
C3182 H3177 0.949 . S
C3182 C3188 1.368 . S
C3183 C3167 1.349 . S
C3183 H3175 0.950 . S
C3183 C3181 1.327 . S
C3184 C3172 1.349 . S
C3184 H3178 0.950 . S
C3184 C3185 1.327 . S
C3185 H3179 0.950 . S
C3185 C3184 1.327 . S
C3185 C3189 1.429 . S
C3186 C3169 1.574 . S
C3186 H3180 0.949 . S
C3186 C3190 1.368 . S
C3187 C3168 1.429 . S
C3187 C3181 1.429 . S
C3187 C3188 1.523 . S
C3188 C3169 1.368 . S
C3188 C3182 1.368 . S
C3188 C3187 1.523 . S
C3189 C3173 1.429 . S
C3189 C3185 1.429 . S
C3189 C3190 1.523 . S
C3190 C3174 1.368 . S
C3190 C3186 1.368 . S
C3190 C3189 1.523 . S
H3191 C3166 0.950 . S
H3192 C3168 0.950 . S
H3193 C3169 0.949 . S
H3194 C3171 0.950 . S
H3195 C3173 0.950 . S
C3196 C3197 1.349 . S
C3196 C3198 1.327 . S
C3196 H3221 0.950 . S
C3197 C3196 1.349 . S
C3197 C3213 1.349 . S
C3198 C3196 1.327 . S
C3198 C3217 1.429 . S
C3198 H3222 0.950 . S
C3199 C3216 1.574 . S
C3199 C3218 1.368 . S
C3199 H3223 0.949 . S
H3200 C3204 0.949 . S
C3201 C3202 1.349 . S
C3201 C3203 1.327 . S
C3201 H3224 0.950 . S
C3202 C3201 1.349 . S
C3202 C3214 1.349 . S
C3203 C3201 1.327 . S
C3203 C3219 1.429 . S
C3203 H3225 0.950 . S
C3204 H3200 0.949 . S
C3204 C3212 1.574 . S
C3204 C3220 1.368 . S
H3205 C3213 0.950 . S
H3206 C3211 0.950 . S
H3207 C3212 0.949 . S
H3208 C3214 0.950 . S
H3209 C3215 0.950 . S
H3210 C3216 0.949 . S
C3211 H3206 0.950 . S
C3211 C3213 1.327 . S
C3211 C3217 1.429 . S
C3212 C3204 1.574 . S
C3212 H3207 0.949 . S
C3212 C3218 1.368 . S
C3213 C3197 1.349 . S
C3213 H3205 0.950 . S
C3213 C3211 1.327 . S
C3214 C3202 1.349 . S
C3214 H3208 0.950 . S
C3214 C3215 1.327 . S
C3215 H3209 0.950 . S
C3215 C3214 1.327 . S
C3215 C3219 1.429 . S
C3216 C3199 1.574 . S
C3216 H3210 0.949 . S
C3216 C3220 1.368 . S
C3217 C3198 1.429 . S
C3217 C3211 1.429 . S
C3217 C3218 1.523 . S
C3218 C3199 1.368 . S
C3218 C3212 1.368 . S
C3218 C3217 1.523 . S
C3219 C3203 1.429 . S
C3219 C3215 1.429 . S
C3219 C3220 1.523 . S
C3220 C3204 1.368 . S
C3220 C3216 1.368 . S
C3220 C3219 1.523 . S
H3221 C3196 0.950 . S
H3222 C3198 0.950 . S
H3223 C3199 0.949 . S
H3224 C3201 0.950 . S
H3225 C3203 0.950 . S
C3226 C3227 1.349 . S
C3226 C3228 1.327 . S
C3226 H3251 0.950 . S
C3227 C3226 1.349 . S
C3227 C3243 1.349 . S
C3228 C3226 1.327 . S
C3228 C3247 1.429 . S
C3228 H3252 0.950 . S
C3229 C3246 1.574 . S
C3229 C3248 1.368 . S
C3229 H3253 0.949 . S
H3230 C3234 0.949 . S
C3231 C3232 1.349 . S
C3231 C3233 1.327 . S
C3231 H3254 0.950 . S
C3232 C3231 1.349 . S
C3232 C3244 1.349 . S
C3233 C3231 1.327 . S
C3233 C3249 1.429 . S
C3233 H3255 0.950 . S
C3234 H3230 0.949 . S
C3234 C3242 1.574 . S
C3234 C3250 1.368 . S
H3235 C3243 0.950 . S
H3236 C3241 0.950 . S
H3237 C3242 0.949 . S
H3238 C3244 0.950 . S
H3239 C3245 0.950 . S
H3240 C3246 0.949 . S
C3241 H3236 0.950 . S
C3241 C3243 1.327 . S
C3241 C3247 1.429 . S
C3242 C3234 1.574 . S
C3242 H3237 0.949 . S
C3242 C3248 1.368 . S
C3243 C3227 1.349 . S
C3243 H3235 0.950 . S
C3243 C3241 1.327 . S
C3244 C3232 1.349 . S
C3244 H3238 0.950 . S
C3244 C3245 1.327 . S
C3245 H3239 0.950 . S
C3245 C3244 1.327 . S
C3245 C3249 1.429 . S
C3246 C3229 1.574 . S
C3246 H3240 0.949 . S
C3246 C3250 1.368 . S
C3247 C3228 1.429 . S
C3247 C3241 1.429 . S
C3247 C3248 1.523 . S
C3248 C3229 1.368 . S
C3248 C3242 1.368 . S
C3248 C3247 1.523 . S
C3249 C3233 1.429 . S
C3249 C3245 1.429 . S
C3249 C3250 1.523 . S
C3250 C3234 1.368 . S
C3250 C3246 1.368 . S
C3250 C3249 1.523 . S
H3251 C3226 0.950 . S
H3252 C3228 0.950 . S
H3253 C3229 0.949 . S
H3254 C3231 0.950 . S
H3255 C3233 0.950 . S
C3256 C3257 1.349 . S
C3256 C3258 1.327 . S
C3256 H3281 0.950 . S
C3257 C3256 1.349 . S
C3257 C3273 1.349 . S
C3258 C3256 1.327 . S
C3258 C3277 1.429 . S
C3258 H3282 0.950 . S
C3259 C3276 1.574 . S
C3259 C3278 1.368 . S
C3259 H3283 0.949 . S
H3260 C3264 0.949 . S
C3261 C3262 1.349 . S
C3261 C3263 1.327 . S
C3261 H3284 0.950 . S
C3262 C3261 1.349 . S
C3262 C3274 1.349 . S
C3263 C3261 1.327 . S
C3263 C3279 1.429 . S
C3263 H3285 0.950 . S
C3264 H3260 0.949 . S
C3264 C3272 1.574 . S
C3264 C3280 1.368 . S
H3265 C3273 0.950 . S
H3266 C3271 0.950 . S
H3267 C3272 0.949 . S
H3268 C3274 0.950 . S
H3269 C3275 0.950 . S
H3270 C3276 0.949 . S
C3271 H3266 0.950 . S
C3271 C3273 1.327 . S
C3271 C3277 1.429 . S
C3272 C3264 1.574 . S
C3272 H3267 0.949 . S
C3272 C3278 1.368 . S
C3273 C3257 1.349 . S
C3273 H3265 0.950 . S
C3273 C3271 1.327 . S
C3274 C3262 1.349 . S
C3274 H3268 0.950 . S
C3274 C3275 1.327 . S
C3275 H3269 0.950 . S
C3275 C3274 1.327 . S
C3275 C3279 1.429 . S
C3276 C3259 1.574 . S
C3276 H3270 0.949 . S
C3276 C3280 1.368 . S
C3277 C3258 1.429 . S
C3277 C3271 1.429 . S
C3277 C3278 1.523 . S
C3278 C3259 1.368 . S
C3278 C3272 1.368 . S
C3278 C3277 1.523 . S
C3279 C3263 1.429 . S
C3279 C3275 1.429 . S
C3279 C3280 1.523 . S
C3280 C3264 1.368 . S
C3280 C3276 1.368 . S
C3280 C3279 1.523 . S
H3281 C3256 0.950 . S
H3282 C3258 0.950 . S
H3283 C3259 0.949 . S
H3284 C3261 0.950 . S
H3285 C3263 0.950 . S
C3286 C3287 1.349 . S
C3286 C3288 1.327 . S
C3286 H3311 0.950 . S
C3287 C3286 1.349 . S
C3287 C3303 1.349 . S
C3288 C3286 1.327 . S
C3288 C3307 1.429 . S
C3288 H3312 0.950 . S
C3289 C3306 1.574 . S
C3289 C3308 1.368 . S
C3289 H3313 0.949 . S
H3290 C3294 0.949 . S
C3291 C3292 1.349 . S
C3291 C3293 1.327 . S
C3291 H3314 0.950 . S
C3292 C3291 1.349 . S
C3292 C3304 1.349 . S
C3293 C3291 1.327 . S
C3293 C3309 1.429 . S
C3293 H3315 0.950 . S
C3294 H3290 0.949 . S
C3294 C3302 1.574 . S
C3294 C3310 1.368 . S
H3295 C3303 0.950 . S
H3296 C3301 0.950 . S
H3297 C3302 0.949 . S
H3298 C3304 0.950 . S
H3299 C3305 0.950 . S
H3300 C3306 0.949 . S
C3301 H3296 0.950 . S
C3301 C3303 1.327 . S
C3301 C3307 1.429 . S
C3302 C3294 1.574 . S
C3302 H3297 0.949 . S
C3302 C3308 1.368 . S
C3303 C3287 1.349 . S
C3303 H3295 0.950 . S
C3303 C3301 1.327 . S
C3304 C3292 1.349 . S
C3304 H3298 0.950 . S
C3304 C3305 1.327 . S
C3305 H3299 0.950 . S
C3305 C3304 1.327 . S
C3305 C3309 1.429 . S
C3306 C3289 1.574 . S
C3306 H3300 0.949 . S
C3306 C3310 1.368 . S
C3307 C3288 1.429 . S
C3307 C3301 1.429 . S
C3307 C3308 1.523 . S
C3308 C3289 1.368 . S
C3308 C3302 1.368 . S
C3308 C3307 1.523 . S
C3309 C3293 1.429 . S
C3309 C3305 1.429 . S
C3309 C3310 1.523 . S
C3310 C3294 1.368 . S
C3310 C3306 1.368 . S
C3310 C3309 1.523 . S
H3311 C3286 0.950 . S
H3312 C3288 0.950 . S
H3313 C3289 0.949 . S
H3314 C3291 0.950 . S
H3315 C3293 0.950 . S
C3316 C3317 1.349 1_655 S
C3316 C3318 1.333 1_655 S
C3316 H3341 0.950 . S
C3317 C3316 1.349 1_455 S
C3317 C3333 1.349 . S
C3318 C3316 1.333 1_455 S
C3318 C3337 1.444 . S
C3318 H3342 0.929 1_455 S
C3319 C3336 1.574 . S
C3319 C3338 1.368 . S
C3319 H3343 0.949 . S
H3320 C3324 0.949 . S
C3321 C3322 1.349 . S
C3321 C3323 1.327 . S
C3321 H3344 0.950 . S
C3322 C3321 1.349 . S
C3322 C3334 1.349 . S
C3323 C3321 1.327 . S
C3323 C3339 1.429 . S
C3323 H3345 0.950 . S
C3324 H3320 0.949 . S
C3324 C3332 1.574 . S
C3324 C3340 1.368 . S
H3325 C3333 0.950 . S
H3326 C3331 0.950 . S
H3327 C3332 0.949 1_655 S
H3328 C3334 0.950 . S
H3329 C3335 0.950 . S
H3330 C3336 0.949 . S
C3331 H3326 0.950 . S
C3331 C3333 1.327 . S
C3331 C3337 1.429 . S
C3332 C3324 1.574 . S
C3332 H3327 0.949 1_455 S
C3332 C3338 1.368 . S
C3333 C3317 1.349 . S
C3333 H3325 0.950 . S
C3333 C3331 1.327 . S
C3334 C3322 1.349 . S
C3334 H3328 0.950 . S
C3334 C3335 1.327 . S
C3335 H3329 0.950 . S
C3335 C3334 1.327 . S
C3335 C3339 1.429 . S
C3336 C3319 1.574 . S
C3336 H3330 0.949 . S
C3336 C3340 1.368 . S
C3337 C3318 1.444 . S
C3337 C3331 1.429 . S
C3337 C3338 1.523 . S
C3338 C3319 1.368 . S
C3338 C3332 1.368 . S
C3338 C3337 1.523 . S
C3339 C3323 1.429 . S
C3339 C3335 1.429 . S
C3339 C3340 1.523 . S
C3340 C3324 1.368 . S
C3340 C3336 1.368 . S
C3340 C3339 1.523 . S
H3341 C3316 0.950 . S
H3342 C3318 0.929 1_655 S
H3343 C3319 0.949 . S
H3344 C3321 0.950 . S
H3345 C3323 0.950 . S
C3346 C3347 1.349 . S
C3346 C3348 1.327 . S
C3346 H3371 0.950 . S
C3347 C3346 1.349 . S
C3347 C3363 1.349 . S
C3348 C3346 1.327 . S
C3348 C3367 1.429 . S
C3348 H3372 0.950 . S
C3349 C3366 1.574 . S
C3349 C3368 1.368 . S
C3349 H3373 0.949 . S
H3350 C3354 0.949 . S
C3351 C3352 1.349 . S
C3351 C3353 1.327 . S
C3351 H3374 0.950 . S
C3352 C3351 1.349 . S
C3352 C3364 1.349 . S
C3353 C3351 1.327 . S
C3353 C3369 1.429 . S
C3353 H3375 0.950 . S
C3354 H3350 0.949 . S
C3354 C3362 1.574 . S
C3354 C3370 1.368 . S
H3355 C3363 0.950 . S
H3356 C3361 0.950 . S
H3357 C3362 0.949 . S
H3358 C3364 0.950 . S
H3359 C3365 0.950 . S
H3360 C3366 0.949 . S
C3361 H3356 0.950 . S
C3361 C3363 1.327 . S
C3361 C3367 1.429 . S
C3362 C3354 1.574 . S
C3362 H3357 0.949 . S
C3362 C3368 1.368 . S
C3363 C3347 1.349 . S
C3363 H3355 0.950 . S
C3363 C3361 1.327 . S
C3364 C3352 1.349 . S
C3364 H3358 0.950 . S
C3364 C3365 1.327 . S
C3365 H3359 0.950 . S
C3365 C3364 1.327 . S
C3365 C3369 1.429 . S
C3366 C3349 1.574 . S
C3366 H3360 0.949 . S
C3366 C3370 1.368 . S
C3367 C3348 1.429 . S
C3367 C3361 1.429 . S
C3367 C3368 1.523 . S
C3368 C3349 1.368 . S
C3368 C3362 1.368 . S
C3368 C3367 1.523 . S
C3369 C3353 1.429 . S
C3369 C3365 1.429 . S
C3369 C3370 1.523 . S
C3370 C3354 1.368 . S
C3370 C3366 1.368 . S
C3370 C3369 1.523 . S
H3371 C3346 0.950 . S
H3372 C3348 0.950 . S
H3373 C3349 0.949 . S
H3374 C3351 0.950 . S
H3375 C3353 0.950 . S
C3376 C3377 1.349 . S
C3376 C3378 1.327 . S
C3376 H3401 0.950 . S
C3377 C3376 1.349 . S
C3377 C3393 1.349 . S
C3378 C3376 1.327 . S
C3378 C3397 1.429 . S
C3378 H3402 0.950 . S
C3379 C3396 1.574 . S
C3379 C3398 1.368 . S
C3379 H3403 0.949 . S
H3380 C3384 0.949 . S
C3381 C3382 1.349 . S
C3381 C3383 1.327 . S
C3381 H3404 0.950 . S
C3382 C3381 1.349 . S
C3382 C3394 1.349 . S
C3383 C3381 1.327 . S
C3383 C3399 1.429 . S
C3383 H3405 0.950 . S
C3384 H3380 0.949 . S
C3384 C3392 1.574 . S
C3384 C3400 1.368 . S
H3385 C3393 0.950 . S
H3386 C3391 0.950 . S
H3387 C3392 0.949 . S
H3388 C3394 0.950 . S
H3389 C3395 0.950 . S
H3390 C3396 0.949 . S
C3391 H3386 0.950 . S
C3391 C3393 1.327 . S
C3391 C3397 1.429 . S
C3392 C3384 1.574 . S
C3392 H3387 0.949 . S
C3392 C3398 1.368 . S
C3393 C3377 1.349 . S
C3393 H3385 0.950 . S
C3393 C3391 1.327 . S
C3394 C3382 1.349 . S
C3394 H3388 0.950 . S
C3394 C3395 1.327 . S
C3395 H3389 0.950 . S
C3395 C3394 1.327 . S
C3395 C3399 1.429 . S
C3396 C3379 1.574 . S
C3396 H3390 0.949 . S
C3396 C3400 1.368 . S
C3397 C3378 1.429 . S
C3397 C3391 1.429 . S
C3397 C3398 1.523 . S
C3398 C3379 1.368 . S
C3398 C3392 1.368 . S
C3398 C3397 1.523 . S
C3399 C3383 1.429 . S
C3399 C3395 1.429 . S
C3399 C3400 1.523 . S
C3400 C3384 1.368 . S
C3400 C3396 1.368 . S
C3400 C3399 1.523 . S
H3401 C3376 0.950 . S
H3402 C3378 0.950 . S
H3403 C3379 0.949 . S
H3404 C3381 0.950 . S
H3405 C3383 0.950 . S
C3406 C3407 1.349 . S
C3406 C3408 1.327 . S
C3406 H3431 0.950 . S
C3407 C3406 1.349 . S
C3407 C3423 1.349 . S
C3408 C3406 1.327 . S
C3408 C3427 1.429 . S
C3408 H3432 0.950 . S
C3409 C3426 1.574 . S
C3409 C3428 1.368 . S
C3409 H3433 0.949 . S
H3410 C3414 0.949 . S
C3411 C3412 1.349 . S
C3411 C3413 1.327 . S
C3411 H3434 0.950 . S
C3412 C3411 1.349 . S
C3412 C3424 1.349 . S
C3413 C3411 1.327 . S
C3413 C3429 1.429 . S
C3413 H3435 0.950 . S
C3414 H3410 0.949 . S
C3414 C3422 1.574 . S
C3414 C3430 1.368 . S
H3415 C3423 0.950 . S
H3416 C3421 0.950 . S
H3417 C3422 0.949 . S
H3418 C3424 0.950 . S
H3419 C3425 0.950 . S
H3420 C3426 0.949 . S
C3421 H3416 0.950 . S
C3421 C3423 1.327 . S
C3421 C3427 1.429 . S
C3422 C3414 1.574 . S
C3422 H3417 0.949 . S
C3422 C3428 1.368 . S
C3423 C3407 1.349 . S
C3423 H3415 0.950 . S
C3423 C3421 1.327 . S
C3424 C3412 1.349 . S
C3424 H3418 0.950 . S
C3424 C3425 1.327 . S
C3425 H3419 0.950 . S
C3425 C3424 1.327 . S
C3425 C3429 1.429 . S
C3426 C3409 1.574 . S
C3426 H3420 0.949 . S
C3426 C3430 1.368 . S
C3427 C3408 1.429 . S
C3427 C3421 1.429 . S
C3427 C3428 1.523 . S
C3428 C3409 1.368 . S
C3428 C3422 1.368 . S
C3428 C3427 1.523 . S
C3429 C3413 1.429 . S
C3429 C3425 1.429 . S
C3429 C3430 1.523 . S
C3430 C3414 1.368 . S
C3430 C3426 1.368 . S
C3430 C3429 1.523 . S
H3431 C3406 0.950 . S
H3432 C3408 0.950 . S
H3433 C3409 0.949 . S
H3434 C3411 0.950 . S
H3435 C3413 0.950 . S
C3436 C3437 1.349 . S
C3436 C3438 1.327 . S
C3436 H3461 0.950 . S
C3437 C3436 1.349 . S
C3437 C3453 1.349 . S
C3438 C3436 1.327 . S
C3438 C3457 1.429 . S
C3438 H3462 0.950 . S
C3439 C3456 1.574 . S
C3439 C3458 1.368 . S
C3439 H3463 0.949 . S
H3440 C3444 0.949 . S
C3441 C3442 1.349 1_655 S
C3441 C3443 1.327 . S
C3441 H3464 0.950 . S
C3442 C3441 1.349 1_455 S
C3442 C3454 1.349 . S
C3443 C3441 1.327 . S
C3443 C3459 1.429 . S
C3443 H3465 0.950 . S
C3444 H3440 0.949 . S
C3444 C3452 1.574 . S
C3444 C3460 1.368 . S
H3445 C3453 0.950 . S
H3446 C3451 0.950 . S
H3447 C3452 0.949 . S
H3448 C3454 0.950 . S
H3449 C3455 0.947 1_455 S
H3450 C3456 0.949 . S
C3451 H3446 0.950 . S
C3451 C3453 1.327 . S
C3451 C3457 1.429 . S
C3452 C3444 1.574 . S
C3452 H3447 0.949 . S
C3452 C3458 1.368 . S
C3453 C3437 1.349 . S
C3453 H3445 0.950 . S
C3453 C3451 1.327 . S
C3454 C3442 1.349 . S
C3454 H3448 0.950 . S
C3454 C3455 1.325 1_455 S
C3455 H3449 0.947 1_655 S
C3455 C3454 1.325 1_655 S
C3455 C3459 1.433 . S
C3456 C3439 1.574 . S
C3456 H3450 0.949 . S
C3456 C3460 1.368 . S
C3457 C3438 1.429 . S
C3457 C3451 1.429 . S
C3457 C3458 1.523 . S
C3458 C3439 1.368 . S
C3458 C3452 1.368 . S
C3458 C3457 1.523 . S
C3459 C3443 1.429 . S
C3459 C3455 1.433 . S
C3459 C3460 1.523 . S
C3460 C3444 1.368 . S
C3460 C3456 1.368 . S
C3460 C3459 1.523 . S
H3461 C3436 0.950 . S
H3462 C3438 0.950 . S
H3463 C3439 0.949 . S
H3464 C3441 0.950 . S
H3465 C3443 0.950 . S
C3466 C3467 1.349 . S
C3466 C3468 1.327 . S
C3466 H3491 0.950 . S
C3467 C3466 1.349 . S
C3467 C3483 1.349 . S
C3468 C3466 1.327 . S
C3468 C3487 1.429 . S
C3468 H3492 0.950 . S
C3469 C3486 1.574 . S
C3469 C3488 1.368 . S
C3469 H3493 0.949 . S
H3470 C3474 0.949 . S
C3471 C3472 1.349 . S
C3471 C3473 1.327 . S
C3471 H3494 0.950 . S
C3472 C3471 1.349 . S
C3472 C3484 1.349 . S
C3473 C3471 1.327 . S
C3473 C3489 1.429 . S
C3473 H3495 0.950 . S
C3474 H3470 0.949 . S
C3474 C3482 1.574 . S
C3474 C3490 1.368 . S
H3475 C3483 0.950 . S
H3476 C3481 0.950 . S
H3477 C3482 0.949 . S
H3478 C3484 0.950 . S
H3479 C3485 0.950 . S
H3480 C3486 0.949 . S
C3481 H3476 0.950 . S
C3481 C3483 1.327 . S
C3481 C3487 1.429 . S
C3482 C3474 1.574 . S
C3482 H3477 0.949 . S
C3482 C3488 1.368 . S
C3483 C3467 1.349 . S
C3483 H3475 0.950 . S
C3483 C3481 1.327 . S
C3484 C3472 1.349 . S
C3484 H3478 0.950 . S
C3484 C3485 1.327 . S
C3485 H3479 0.950 . S
C3485 C3484 1.327 . S
C3485 C3489 1.429 . S
C3486 C3469 1.574 . S
C3486 H3480 0.949 . S
C3486 C3490 1.368 . S
C3487 C3468 1.429 . S
C3487 C3481 1.429 . S
C3487 C3488 1.523 . S
C3488 C3469 1.368 . S
C3488 C3482 1.368 . S
C3488 C3487 1.523 . S
C3489 C3473 1.429 . S
C3489 C3485 1.429 . S
C3489 C3490 1.523 . S
C3490 C3474 1.368 . S
C3490 C3486 1.368 . S
C3490 C3489 1.523 . S
H3491 C3466 0.950 . S
H3492 C3468 0.950 . S
H3493 C3469 0.949 . S
H3494 C3471 0.950 . S
H3495 C3473 0.950 . S
C3496 C3497 1.349 . S
C3496 C3498 1.327 . S
C3496 H3521 0.950 . S
C3497 C3496 1.349 . S
C3497 C3513 1.349 . S
C3498 C3496 1.327 . S
C3498 C3517 1.429 . S
C3498 H3522 0.950 . S
C3499 C3516 1.574 . S
C3499 C3518 1.368 . S
C3499 H3523 0.949 . S
H3500 C3504 0.949 . S
C3501 C3502 1.349 . S
C3501 C3503 1.327 . S
C3501 H3524 0.950 . S
C3502 C3501 1.349 . S
C3502 C3514 1.349 . S
C3503 C3501 1.327 . S
C3503 C3519 1.429 . S
C3503 H3525 0.950 . S
C3504 H3500 0.949 . S
C3504 C3512 1.574 . S
C3504 C3520 1.368 . S
H3505 C3513 0.950 . S
H3506 C3511 0.950 . S
H3507 C3512 0.949 . S
H3508 C3514 0.950 . S
H3509 C3515 0.950 . S
H3510 C3516 0.949 . S
C3511 H3506 0.950 . S
C3511 C3513 1.327 . S
C3511 C3517 1.429 . S
C3512 C3504 1.574 . S
C3512 H3507 0.949 . S
C3512 C3518 1.368 . S
C3513 C3497 1.349 . S
C3513 H3505 0.950 . S
C3513 C3511 1.327 . S
C3514 C3502 1.349 . S
C3514 H3508 0.950 . S
C3514 C3515 1.327 . S
C3515 H3509 0.950 . S
C3515 C3514 1.327 . S
C3515 C3519 1.429 . S
C3516 C3499 1.574 . S
C3516 H3510 0.949 . S
C3516 C3520 1.368 . S
C3517 C3498 1.429 . S
C3517 C3511 1.429 . S
C3517 C3518 1.523 . S
C3518 C3499 1.368 . S
C3518 C3512 1.368 . S
C3518 C3517 1.523 . S
C3519 C3503 1.429 . S
C3519 C3515 1.429 . S
C3519 C3520 1.523 . S
C3520 C3504 1.368 . S
C3520 C3516 1.368 . S
C3520 C3519 1.523 . S
H3521 C3496 0.950 . S
H3522 C3498 0.950 . S
H3523 C3499 0.949 . S
H3524 C3501 0.950 . S
H3525 C3503 0.950 . S
C3526 C3527 1.349 . S
C3526 C3528 1.327 . S
C3526 H3551 0.950 . S
C3527 C3526 1.349 . S
C3527 C3543 1.349 . S
C3528 C3526 1.327 . S
C3528 C3547 1.429 . S
C3528 H3552 0.950 . S
C3529 C3546 1.574 . S
C3529 C3548 1.368 . S
C3529 H3553 0.949 . S
H3530 C3534 0.949 . S
C3531 C3532 1.349 . S
C3531 C3533 1.327 . S
C3531 H3554 0.950 . S
C3532 C3531 1.349 . S
C3532 C3544 1.349 . S
C3533 C3531 1.327 . S
C3533 C3549 1.429 . S
C3533 H3555 0.950 . S
C3534 H3530 0.949 . S
C3534 C3542 1.574 . S
C3534 C3550 1.368 . S
H3535 C3543 0.950 . S
H3536 C3541 0.950 . S
H3537 C3542 0.949 . S
H3538 C3544 0.950 . S
H3539 C3545 0.950 . S
H3540 C3546 0.949 . S
C3541 H3536 0.950 . S
C3541 C3543 1.327 . S
C3541 C3547 1.429 . S
C3542 C3534 1.574 . S
C3542 H3537 0.949 . S
C3542 C3548 1.368 . S
C3543 C3527 1.349 . S
C3543 H3535 0.950 . S
C3543 C3541 1.327 . S
C3544 C3532 1.349 . S
C3544 H3538 0.950 . S
C3544 C3545 1.327 . S
C3545 H3539 0.950 . S
C3545 C3544 1.327 . S
C3545 C3549 1.429 . S
C3546 C3529 1.574 . S
C3546 H3540 0.949 . S
C3546 C3550 1.368 . S
C3547 C3528 1.429 . S
C3547 C3541 1.429 . S
C3547 C3548 1.523 . S
C3548 C3529 1.368 . S
C3548 C3542 1.368 . S
C3548 C3547 1.523 . S
C3549 C3533 1.429 . S
C3549 C3545 1.429 . S
C3549 C3550 1.523 . S
C3550 C3534 1.368 . S
C3550 C3546 1.368 . S
C3550 C3549 1.523 . S
H3551 C3526 0.950 . S
H3552 C3528 0.950 . S
H3553 C3529 0.949 . S
H3554 C3531 0.950 . S
H3555 C3533 0.950 . S
C3556 C3557 1.349 . S
C3556 C3558 1.327 . S
C3556 H3581 0.950 . S
C3557 C3556 1.349 . S
C3557 C3573 1.349 . S
C3558 C3556 1.327 . S
C3558 C3577 1.429 . S
C3558 H3582 0.950 . S
C3559 C3576 1.574 . S
C3559 C3578 1.368 . S
C3559 H3583 0.949 . S
H3560 C3564 0.949 . S
C3561 C3562 1.349 1_655 S
C3561 C3563 1.327 . S
C3561 H3584 0.950 . S
C3562 C3561 1.349 1_455 S
C3562 C3574 1.349 . S
C3563 C3561 1.327 . S
C3563 C3579 1.429 . S
C3563 H3585 0.950 . S
C3564 H3560 0.949 . S
C3564 C3572 1.574 . S
C3564 C3580 1.368 . S
H3565 C3573 0.950 . S
H3566 C3571 0.950 . S
H3567 C3572 0.949 . S
H3568 C3574 0.950 . S
H3569 C3575 0.950 1_455 S
H3570 C3576 0.949 . S
C3571 H3566 0.950 . S
C3571 C3573 1.327 . S
C3571 C3577 1.429 . S
C3572 C3564 1.574 . S
C3572 H3567 0.949 . S
C3572 C3578 1.368 . S
C3573 C3557 1.349 . S
C3573 H3565 0.950 . S
C3573 C3571 1.327 . S
C3574 C3562 1.349 . S
C3574 H3568 0.950 . S
C3574 C3575 1.327 1_455 S
C3575 H3569 0.950 1_655 S
C3575 C3574 1.327 1_655 S
C3575 C3579 1.429 . S
C3576 C3559 1.574 . S
C3576 H3570 0.949 . S
C3576 C3580 1.368 . S
C3577 C3558 1.429 . S
C3577 C3571 1.429 . S
C3577 C3578 1.523 . S
C3578 C3559 1.368 . S
C3578 C3572 1.368 . S
C3578 C3577 1.523 . S
C3579 C3563 1.429 . S
C3579 C3575 1.429 . S
C3579 C3580 1.523 . S
C3580 C3564 1.368 . S
C3580 C3576 1.368 . S
C3580 C3579 1.523 . S
H3581 C3556 0.950 . S
H3582 C3558 0.950 . S
H3583 C3559 0.949 . S
H3584 C3561 0.950 . S
H3585 C3563 0.950 . S
C3586 C3587 1.349 . S
C3586 C3588 1.327 . S
C3586 H3611 0.950 . S
C3587 C3586 1.349 . S
C3587 C3603 1.349 . S
C3588 C3586 1.327 . S
C3588 C3607 1.429 . S
C3588 H3612 0.950 . S
C3589 C3606 1.574 . S
C3589 C3608 1.368 . S
C3589 H3613 0.949 . S
H3590 C3594 0.949 . S
C3591 C3592 1.349 . S
C3591 C3593 1.327 . S
C3591 H3614 0.950 . S
C3592 C3591 1.349 . S
C3592 C3604 1.349 . S
C3593 C3591 1.327 . S
C3593 C3609 1.429 . S
C3593 H3615 0.950 . S
C3594 H3590 0.949 . S
C3594 C3602 1.574 . S
C3594 C3610 1.368 . S
H3595 C3603 0.950 . S
H3596 C3601 0.950 . S
H3597 C3602 0.949 . S
H3598 C3604 0.950 . S
H3599 C3605 0.950 . S
H3600 C3606 0.949 . S
C3601 H3596 0.950 . S
C3601 C3603 1.327 . S
C3601 C3607 1.429 . S
C3602 C3594 1.574 . S
C3602 H3597 0.949 . S
C3602 C3608 1.368 . S
C3603 C3587 1.349 . S
C3603 H3595 0.950 . S
C3603 C3601 1.327 . S
C3604 C3592 1.349 . S
C3604 H3598 0.950 . S
C3604 C3605 1.327 . S
C3605 H3599 0.950 . S
C3605 C3604 1.327 . S
C3605 C3609 1.429 . S
C3606 C3589 1.574 . S
C3606 H3600 0.949 . S
C3606 C3610 1.368 . S
C3607 C3588 1.429 . S
C3607 C3601 1.429 . S
C3607 C3608 1.523 . S
C3608 C3589 1.368 . S
C3608 C3602 1.368 . S
C3608 C3607 1.523 . S
C3609 C3593 1.429 . S
C3609 C3605 1.429 . S
C3609 C3610 1.523 . S
C3610 C3594 1.368 . S
C3610 C3606 1.368 . S
C3610 C3609 1.523 . S
H3611 C3586 0.950 . S
H3612 C3588 0.950 . S
H3613 C3589 0.949 . S
H3614 C3591 0.950 . S
H3615 C3593 0.950 . S
C3616 C3617 1.349 . S
C3616 C3618 1.327 . S
C3616 H3641 0.950 . S
C3617 C3616 1.349 . S
C3617 C3633 1.349 . S
C3618 C3616 1.327 . S
C3618 C3637 1.429 . S
C3618 H3642 0.950 . S
C3619 C3636 1.574 . S
C3619 C3638 1.368 . S
C3619 H3643 0.949 . S
H3620 C3624 0.949 . S
C3621 C3622 1.349 . S
C3621 C3623 1.327 . S
C3621 H3644 0.950 . S
C3622 C3621 1.349 . S
C3622 C3634 1.349 . S
C3623 C3621 1.327 . S
C3623 C3639 1.429 . S
C3623 H3645 0.950 . S
C3624 H3620 0.949 . S
C3624 C3632 1.574 . S
C3624 C3640 1.368 . S
H3625 C3633 0.950 . S
H3626 C3631 0.950 . S
H3627 C3632 0.949 . S
H3628 C3634 0.950 . S
H3629 C3635 0.950 . S
H3630 C3636 0.949 . S
C3631 H3626 0.950 . S
C3631 C3633 1.327 . S
C3631 C3637 1.429 . S
C3632 C3624 1.574 . S
C3632 H3627 0.949 . S
C3632 C3638 1.368 . S
C3633 C3617 1.349 . S
C3633 H3625 0.950 . S
C3633 C3631 1.327 . S
C3634 C3622 1.349 . S
C3634 H3628 0.950 . S
C3634 C3635 1.327 . S
C3635 H3629 0.950 . S
C3635 C3634 1.327 . S
C3635 C3639 1.429 . S
C3636 C3619 1.574 . S
C3636 H3630 0.949 . S
C3636 C3640 1.368 . S
C3637 C3618 1.429 . S
C3637 C3631 1.429 . S
C3637 C3638 1.523 . S
C3638 C3619 1.368 . S
C3638 C3632 1.368 . S
C3638 C3637 1.523 . S
C3639 C3623 1.429 . S
C3639 C3635 1.429 . S
C3639 C3640 1.523 . S
C3640 C3624 1.368 . S
C3640 C3636 1.368 . S
C3640 C3639 1.523 . S
H3641 C3616 0.950 . S
H3642 C3618 0.950 . S
H3643 C3619 0.949 . S
H3644 C3621 0.950 . S
H3645 C3623 0.950 . S
C3646 C3647 1.349 . S
C3646 C3648 1.327 . S
C3646 H3671 0.950 . S
C3647 C3646 1.349 . S
C3647 C3663 1.349 . S
C3648 C3646 1.327 . S
C3648 C3667 1.429 . S
C3648 H3672 0.950 . S
C3649 C3666 1.574 . S
C3649 C3668 1.368 . S
C3649 H3673 0.949 . S
H3650 C3654 0.949 . S
C3651 C3652 1.349 . S
C3651 C3653 1.327 . S
C3651 H3674 0.950 . S
C3652 C3651 1.349 . S
C3652 C3664 1.349 . S
C3653 C3651 1.327 . S
C3653 C3669 1.429 . S
C3653 H3675 0.950 . S
C3654 H3650 0.949 . S
C3654 C3662 1.574 . S
C3654 C3670 1.368 . S
H3655 C3663 0.950 . S
H3656 C3661 0.950 . S
H3657 C3662 0.949 . S
H3658 C3664 0.950 . S
H3659 C3665 0.950 . S
H3660 C3666 0.949 . S
C3661 H3656 0.950 . S
C3661 C3663 1.327 . S
C3661 C3667 1.429 . S
C3662 C3654 1.574 . S
C3662 H3657 0.949 . S
C3662 C3668 1.368 . S
C3663 C3647 1.349 . S
C3663 H3655 0.950 . S
C3663 C3661 1.327 . S
C3664 C3652 1.349 . S
C3664 H3658 0.950 . S
C3664 C3665 1.327 . S
C3665 H3659 0.950 . S
C3665 C3664 1.327 . S
C3665 C3669 1.429 . S
C3666 C3649 1.574 . S
C3666 H3660 0.949 . S
C3666 C3670 1.368 . S
C3667 C3648 1.429 . S
C3667 C3661 1.429 . S
C3667 C3668 1.523 . S
C3668 C3649 1.368 . S
C3668 C3662 1.368 . S
C3668 C3667 1.523 . S
C3669 C3653 1.429 . S
C3669 C3665 1.429 . S
C3669 C3670 1.523 . S
C3670 C3654 1.368 . S
C3670 C3666 1.368 . S
C3670 C3669 1.523 . S
H3671 C3646 0.950 . S
H3672 C3648 0.950 . S
H3673 C3649 0.949 . S
H3674 C3651 0.950 . S
H3675 C3653 0.950 . S
C3676 C3677 1.349 . S
C3676 C3678 1.327 . S
C3676 H3701 0.950 . S
C3677 C3676 1.349 . S
C3677 C3693 1.349 . S
C3678 C3676 1.327 . S
C3678 C3697 1.429 . S
C3678 H3702 0.950 . S
C3679 C3696 1.574 . S
C3679 C3698 1.368 . S
C3679 H3703 0.949 . S
H3680 C3684 0.949 . S
C3681 C3682 1.349 . S
C3681 C3683 1.327 . S
C3681 H3704 0.950 . S
C3682 C3681 1.349 . S
C3682 C3694 1.349 . S
C3683 C3681 1.327 . S
C3683 C3699 1.429 . S
C3683 H3705 0.950 . S
C3684 H3680 0.949 . S
C3684 C3692 1.574 . S
C3684 C3700 1.368 . S
H3685 C3693 0.950 . S
H3686 C3691 0.950 . S
H3687 C3692 0.949 . S
H3688 C3694 0.950 . S
H3689 C3695 0.950 . S
H3690 C3696 0.949 . S
C3691 H3686 0.950 . S
C3691 C3693 1.327 . S
C3691 C3697 1.429 . S
C3692 C3684 1.574 . S
C3692 H3687 0.949 . S
C3692 C3698 1.368 . S
C3693 C3677 1.349 . S
C3693 H3685 0.950 . S
C3693 C3691 1.327 . S
C3694 C3682 1.349 . S
C3694 H3688 0.950 . S
C3694 C3695 1.327 . S
C3695 H3689 0.950 . S
C3695 C3694 1.327 . S
C3695 C3699 1.429 . S
C3696 C3679 1.574 . S
C3696 H3690 0.949 . S
C3696 C3700 1.368 . S
C3697 C3678 1.429 . S
C3697 C3691 1.429 . S
C3697 C3698 1.523 . S
C3698 C3679 1.368 . S
C3698 C3692 1.368 . S
C3698 C3697 1.523 . S
C3699 C3683 1.429 . S
C3699 C3695 1.429 . S
C3699 C3700 1.523 . S
C3700 C3684 1.368 . S
C3700 C3696 1.368 . S
C3700 C3699 1.523 . S
H3701 C3676 0.950 . S
H3702 C3678 0.950 . S
H3703 C3679 0.949 . S
H3704 C3681 0.950 . S
H3705 C3683 0.950 . S
C3706 C3707 1.349 . S
C3706 C3708 1.327 . S
C3706 H3731 0.950 . S
C3707 C3706 1.349 . S
C3707 C3723 1.349 . S
C3708 C3706 1.327 . S
C3708 C3727 1.429 . S
C3708 H3732 0.950 . S
C3709 C3726 1.574 . S
C3709 C3728 1.368 . S
C3709 H3733 0.949 . S
H3710 C3714 0.949 . S
C3711 C3712 1.349 . S
C3711 C3713 1.327 . S
C3711 H3734 0.950 . S
C3712 C3711 1.349 . S
C3712 C3724 1.349 . S
C3713 C3711 1.327 . S
C3713 C3729 1.429 . S
C3713 H3735 0.950 . S
C3714 H3710 0.949 . S
C3714 C3722 1.574 . S
C3714 C3730 1.368 . S
H3715 C3723 0.950 . S
H3716 C3721 0.950 . S
H3717 C3722 0.949 . S
H3718 C3724 0.950 . S
H3719 C3725 0.950 . S
H3720 C3726 0.949 . S
C3721 H3716 0.950 . S
C3721 C3723 1.327 . S
C3721 C3727 1.429 . S
C3722 C3714 1.574 . S
C3722 H3717 0.949 . S
C3722 C3728 1.368 . S
C3723 C3707 1.349 . S
C3723 H3715 0.950 . S
C3723 C3721 1.327 . S
C3724 C3712 1.349 . S
C3724 H3718 0.950 . S
C3724 C3725 1.327 . S
C3725 H3719 0.950 . S
C3725 C3724 1.327 . S
C3725 C3729 1.429 . S
C3726 C3709 1.574 . S
C3726 H3720 0.949 . S
C3726 C3730 1.368 . S
C3727 C3708 1.429 . S
C3727 C3721 1.429 . S
C3727 C3728 1.523 . S
C3728 C3709 1.368 . S
C3728 C3722 1.368 . S
C3728 C3727 1.523 . S
C3729 C3713 1.429 . S
C3729 C3725 1.429 . S
C3729 C3730 1.523 . S
C3730 C3714 1.368 . S
C3730 C3726 1.368 . S
C3730 C3729 1.523 . S
H3731 C3706 0.950 . S
H3732 C3708 0.950 . S
H3733 C3709 0.949 . S
H3734 C3711 0.950 . S
H3735 C3713 0.950 . S
C3736 C3737 1.349 . S
C3736 C3738 1.327 . S
C3736 H3761 0.950 . S
C3737 C3736 1.349 . S
C3737 C3753 1.349 . S
C3738 C3736 1.327 . S
C3738 C3757 1.429 . S
C3738 H3762 0.950 . S
C3739 C3756 1.574 . S
C3739 C3758 1.368 . S
C3739 H3763 0.949 . S
H3740 C3744 0.949 . S
C3741 C3742 1.349 . S
C3741 C3743 1.327 . S
C3741 H3764 0.950 . S
C3742 C3741 1.349 . S
C3742 C3754 1.349 . S
C3743 C3741 1.327 . S
C3743 C3759 1.429 . S
C3743 H3765 0.950 . S
C3744 H3740 0.949 . S
C3744 C3752 1.574 . S
C3744 C3760 1.368 . S
H3745 C3753 0.950 . S
H3746 C3751 0.950 . S
H3747 C3752 0.949 . S
H3748 C3754 0.950 . S
H3749 C3755 0.950 . S
H3750 C3756 0.949 . S
C3751 H3746 0.950 . S
C3751 C3753 1.327 . S
C3751 C3757 1.429 . S
C3752 C3744 1.574 . S
C3752 H3747 0.949 . S
C3752 C3758 1.368 . S
C3753 C3737 1.349 . S
C3753 H3745 0.950 . S
C3753 C3751 1.327 . S
C3754 C3742 1.349 . S
C3754 H3748 0.950 . S
C3754 C3755 1.327 . S
C3755 H3749 0.950 . S
C3755 C3754 1.327 . S
C3755 C3759 1.429 . S
C3756 C3739 1.574 . S
C3756 H3750 0.949 . S
C3756 C3760 1.368 . S
C3757 C3738 1.429 . S
C3757 C3751 1.429 . S
C3757 C3758 1.523 . S
C3758 C3739 1.368 . S
C3758 C3752 1.368 . S
C3758 C3757 1.523 . S
C3759 C3743 1.429 . S
C3759 C3755 1.429 . S
C3759 C3760 1.523 . S
C3760 C3744 1.368 . S
C3760 C3756 1.368 . S
C3760 C3759 1.523 . S
H3761 C3736 0.950 . S
H3762 C3738 0.950 . S
H3763 C3739 0.949 . S
H3764 C3741 0.950 . S
H3765 C3743 0.950 . S
C3766 C3767 1.351 . S
C3766 C3768 1.327 1_554 S
C3766 H3791 0.948 1_554 S
C3767 C3766 1.351 . S
C3767 C3783 1.349 . S
C3768 C3766 1.327 1_556 S
C3768 C3787 1.429 1_556 S
C3768 H3792 0.950 . S
C3769 C3786 1.574 . S
C3769 C3788 1.368 . S
C3769 H3793 0.949 . S
H3770 C3774 0.949 . S
C3771 C3772 1.349 1_554 S
C3771 C3773 1.327 . S
C3771 H3794 0.950 . S
C3772 C3771 1.349 1_556 S
C3772 C3784 1.349 . S
C3773 C3771 1.327 . S
C3773 C3789 1.429 . S
C3773 H3795 0.950 . S
C3774 H3770 0.949 . S
C3774 C3782 1.574 . S
C3774 C3790 1.368 1_556 S
H3775 C3783 0.950 . S
H3776 C3781 0.950 . S
H3777 C3782 0.949 . S
H3778 C3784 0.950 . S
H3779 C3785 0.950 . S
H3780 C3786 0.949 . S
C3781 H3776 0.950 . S
C3781 C3783 1.327 . S
C3781 C3787 1.429 . S
C3782 C3774 1.574 . S
C3782 H3777 0.949 . S
C3782 C3788 1.368 1_556 S
C3783 C3767 1.349 . S
C3783 H3775 0.950 . S
C3783 C3781 1.327 . S
C3784 C3772 1.349 . S
C3784 H3778 0.950 . S
C3784 C3785 1.327 . S
C3785 H3779 0.950 . S
C3785 C3784 1.327 . S
C3785 C3789 1.429 1_556 S
C3786 C3769 1.574 . S
C3786 H3780 0.949 . S
C3786 C3790 1.368 . S
C3787 C3768 1.429 1_554 S
C3787 C3781 1.429 . S
C3787 C3788 1.523 . S
C3788 C3769 1.368 . S
C3788 C3782 1.368 1_554 S
C3788 C3787 1.523 . S
C3789 C3773 1.429 . S
C3789 C3785 1.429 1_554 S
C3789 C3790 1.523 . S
C3790 C3774 1.368 1_554 S
C3790 C3786 1.368 . S
C3790 C3789 1.523 . S
H3791 C3766 0.948 1_556 S
H3792 C3768 0.950 . S
H3793 C3769 0.949 . S
H3794 C3771 0.950 . S
H3795 C3773 0.950 . S
C3796 C3797 1.349 . S
C3796 C3798 1.327 . S
C3796 H3821 0.950 . S
C3797 C3796 1.349 . S
C3797 C3813 1.349 . S
C3798 C3796 1.327 . S
C3798 C3817 1.429 . S
C3798 H3822 0.950 . S
C3799 C3816 1.574 . S
C3799 C3818 1.368 . S
C3799 H3823 0.949 . S
H3800 C3804 0.949 . S
C3801 C3802 1.349 . S
C3801 C3803 1.327 . S
C3801 H3824 0.950 . S
C3802 C3801 1.349 . S
C3802 C3814 1.349 . S
C3803 C3801 1.327 . S
C3803 C3819 1.429 . S
C3803 H3825 0.950 . S
C3804 H3800 0.949 . S
C3804 C3812 1.574 . S
C3804 C3820 1.368 . S
H3805 C3813 0.950 . S
H3806 C3811 0.950 . S
H3807 C3812 0.949 . S
H3808 C3814 0.950 . S
H3809 C3815 0.950 . S
H3810 C3816 0.949 . S
C3811 H3806 0.950 . S
C3811 C3813 1.327 . S
C3811 C3817 1.429 . S
C3812 C3804 1.574 . S
C3812 H3807 0.949 . S
C3812 C3818 1.368 . S
C3813 C3797 1.349 . S
C3813 H3805 0.950 . S
C3813 C3811 1.327 . S
C3814 C3802 1.349 . S
C3814 H3808 0.950 . S
C3814 C3815 1.327 . S
C3815 H3809 0.950 . S
C3815 C3814 1.327 . S
C3815 C3819 1.429 . S
C3816 C3799 1.574 . S
C3816 H3810 0.949 . S
C3816 C3820 1.368 . S
C3817 C3798 1.429 . S
C3817 C3811 1.429 . S
C3817 C3818 1.523 . S
C3818 C3799 1.368 . S
C3818 C3812 1.368 . S
C3818 C3817 1.523 . S
C3819 C3803 1.429 . S
C3819 C3815 1.429 . S
C3819 C3820 1.523 . S
C3820 C3804 1.368 . S
C3820 C3816 1.368 . S
C3820 C3819 1.523 . S
H3821 C3796 0.950 . S
H3822 C3798 0.950 . S
H3823 C3799 0.949 . S
H3824 C3801 0.950 . S
H3825 C3803 0.950 . S
C3826 C3827 1.349 . S
C3826 C3828 1.327 . S
C3826 H3851 0.950 . S
C3827 C3826 1.349 . S
C3827 C3843 1.349 . S
C3828 C3826 1.327 . S
C3828 C3847 1.429 . S
C3828 H3852 0.950 . S
C3829 C3846 1.574 . S
C3829 C3848 1.368 . S
C3829 H3853 0.949 . S
H3830 C3834 0.949 . S
C3831 C3832 1.349 . S
C3831 C3833 1.327 . S
C3831 H3854 0.950 . S
C3832 C3831 1.349 . S
C3832 C3844 1.349 . S
C3833 C3831 1.327 . S
C3833 C3849 1.429 . S
C3833 H3855 0.950 . S
C3834 H3830 0.949 . S
C3834 C3842 1.574 . S
C3834 C3850 1.368 . S
H3835 C3843 0.950 . S
H3836 C3841 0.950 . S
H3837 C3842 0.949 . S
H3838 C3844 0.950 . S
H3839 C3845 0.950 . S
H3840 C3846 0.949 . S
C3841 H3836 0.950 . S
C3841 C3843 1.327 . S
C3841 C3847 1.429 . S
C3842 C3834 1.574 . S
C3842 H3837 0.949 . S
C3842 C3848 1.368 . S
C3843 C3827 1.349 . S
C3843 H3835 0.950 . S
C3843 C3841 1.327 . S
C3844 C3832 1.349 . S
C3844 H3838 0.950 . S
C3844 C3845 1.327 . S
C3845 H3839 0.950 . S
C3845 C3844 1.327 . S
C3845 C3849 1.429 . S
C3846 C3829 1.574 . S
C3846 H3840 0.949 . S
C3846 C3850 1.368 . S
C3847 C3828 1.429 . S
C3847 C3841 1.429 . S
C3847 C3848 1.523 . S
C3848 C3829 1.368 . S
C3848 C3842 1.368 . S
C3848 C3847 1.523 . S
C3849 C3833 1.429 . S
C3849 C3845 1.429 . S
C3849 C3850 1.523 . S
C3850 C3834 1.368 . S
C3850 C3846 1.368 . S
C3850 C3849 1.523 . S
H3851 C3826 0.950 . S
H3852 C3828 0.950 . S
H3853 C3829 0.949 . S
H3854 C3831 0.950 . S
H3855 C3833 0.950 . S
C977 C109 2.125 . S
C982 C346 2.073 . S
C1007 C61 1.762 . S
C1012 C394 1.976 . S
C1037 C74 1.075 . S
C1042 C426 1.095 . S
C1072 C471 1.573 . S
C1067 C96 1.601 . S
C1097 C25 0.797 . S
C1102 C511 0.800 . S
C1132 C546 0.724 . S
C1127 C40 0.724 . S
C1162 C585 1.191 . S
C1157 C46 1.183 . S
C1187 C5 0.937 . S
C1192 C622 1.112 . S
C1222 C354 1.829 . S
C1217 C229 1.523 . S
C1247 C249 0.321 . S
C1252 C391 0.519 . S
C1282 C434 2.309 . S
C1277 C271 2.118 . S
C1312 C466 1.046 . S
C1307 C172 1.023 . S
C1337 C236 1.053 . S
C1342 C506 1.050 . S
C1372 C554 0.671 . S
C1367 C242 0.663 . S
C1402 C595 1.764 . S
C1397 C278 1.831 . S
C1432 C625 1.928 . S
C1427 C179 1.948 . S
C1462 C351 1.005 . S
C1457 C159 0.828 1_556 S
C1487 C285 1.876 . S
C1492 C674 2.077 . S
C1522 C711 0.999 . S
C1517 C333 0.999 . S
C1552 C742 0.276 . S
C1547 C320 0.159 . S
C1577 C123 2.700 . S
C1582 C635 2.669 . S
C1607 C138 1.428 . S
C1612 C431 1.412 . S
C1637 C326 1.834 . S
C1642 C794 1.838 . S
C1672 C826 1.748 . S
C1667 C298 1.676 . S
C1702 C355 2.062 . S
C1697 C67 2.084 . S
C1732 C825 1.875 . S
C1727 C110 1.890 . S
C1757 C88 1.086 . S
C1762 C435 1.087 . S
C1787 C75 1.296 . S
C1792 C782 1.469 . S
C1822 C502 0.740 . S
C1817 C11 0.740 . S
C1847 C47 0.731 . S
C1852 C715 0.717 . S
C1882 C594 1.112 . S
C1877 C32 1.098 . S
C1912 C871 1.146 . S
C1907 C26 1.146 . S
C1942 C345 1.942 . S
C1937 C152 1.951 . S
C1972 C822 0.536 . S
C1967 C319 0.603 . S
C1997 C124 2.317 . S
C2002 C425 2.289 . S
C2027 C284 1.063 . S
C2032 C795 1.062 . S
C2057 C145 0.894 . S
C2062 C515 0.965 . S
C2092 C705 0.519 . S
C2087 C312 0.568 . S
C2117 C117 1.349 . S
C2122 C586 1.554 . S
C2147 C291 1.868 . S
C2152 C874 1.873 . S
C2177 C194 1.136 . S
C2182 C342 1.120 . S
C2207 C180 2.032 . S
C2212 C665 2.000 . S
C2237 C263 0.914 . S
C2242 C542 0.921 . S
C2267 C243 0.815 . S
C2272 C751 0.272 . S
C2302 C866 2.676 . S
C2297 C277 2.714 . S
C2327 C215 1.187 . S
C2332 C422 1.357 . S
C2362 C465 1.711 . S
C2357 C256 1.647 . S
C2392 C395 1.801 . S
C2387 C200 1.829 . S
C2417 C81 2.125 . S
C2422 C906 2.073 . S
C2452 C834 1.975 . S
C2447 C89 1.762 . S
C2477 C102 1.075 . S
C2482 C946 1.095 . S
C2507 C68 1.601 . S
C2512 C791 1.573 . S
C2537 C53 0.797 . S
C2542 C671 0.800 . S
C2572 C706 0.724 . S
C2567 C12 0.724 . S
C2602 C745 1.191 . S
C2597 C18 1.182 . S
C2632 C862 1.112 . S
C2627 C33 0.936 . S
C2662 C914 1.829 . S
C2657 C257 1.523 . S
C2687 C193 0.321 . S
C2692 C831 0.519 . S
C2722 C954 2.309 . S
C2717 C201 2.099 . S
C2752 C786 1.046 . S
C2747 C214 1.023 . S
C2782 C666 1.050 . S
C2777 C264 1.053 . S
C2807 C186 0.662 . S
C2812 C714 0.671 . S
C2842 C755 1.764 . S
C2837 C208 1.831 . S
C2867 C221 1.948 . S
C2872 C865 1.928 . S
C2902 C911 1.005 . S
C2897 C313 0.824 . S
C2927 C131 1.876 . S
C2932 C514 2.077 . S
C2962 C551 0.999 . S
C2957 C151 0.999 . S
C2992 C582 0.276 . S
C2987 C166 0.159 . S
C3022 C875 2.669 . S
C3017 C305 2.700 . S
C3047 C292 1.428 . S
C3052 C951 1.412 . S
C3082 C474 1.838 . S
C3077 C144 1.834 . S
C3112 C386 1.748 . S
C3107 C116 1.676 . S
C3137 C95 2.084 . S
C3142 C915 2.062 . S
C3172 C385 1.875 . S
C3167 C82 1.890 . S
C3197 C60 1.086 . S
C3202 C955 1.087 . S
C3227 C103 1.296 . S
C3232 C462 1.469 . S
C3257 C39 0.740 . S
C3262 C662 0.740 . S
C3292 C555 0.717 . S
C3287 C19 0.731 . S
C3317 C4 1.098 . S
C3322 C754 1.112 . S
C3347 C54 1.146 . S
C3352 C631 1.146 . S
C3382 C905 1.942 . S
C3377 C334 1.951 . S
C3407 C165 0.603 . S
C3412 C382 0.539 . S
C3442 C945 2.289 . S
C3437 C306 2.317 . S
C3467 C130 1.062 . S
C3472 C475 1.062 . S
C3497 C327 0.894 . S
C3502 C675 0.965 . S
C3532 C545 0.519 . S
C3527 C158 0.572 . S
C3557 C299 1.349 . S
C3562 C746 1.542 . S
C3592 C634 1.873 . S
C3587 C137 1.868 . S
C3622 C902 1.120 . S
C3617 C250 1.136 . S
C3652 C505 2.000 1_565 S
C3647 C222 2.032 . S
C3677 C235 0.914 . S
C3682 C702 0.921 . S
C3712 C591 0.272 . S
C3707 C187 0.815 . S
C3737 C207 2.714 . S
C3742 C626 2.676 . S
C3767 C173 1.187 . S
C3772 C942 1.358 . S
C3802 C785 1.711 . S
C3797 C228 1.647 . S
C3832 C835 1.802 . S
C3827 C270 1.829 . S
