# Generated by pormake.
# Topology gar, (4,6)-cn, num edge types: 1
# Building blocks:
#     Node 0, Type 0, BuildingBlock: QUQFOY_clean_sbu_1, # of connection points: 4
#     Node 1, Type 0, BuildingBlock: QUQFOY_clean_sbu_1, # of connection points: 4
#     Node 2, Type 0, BuildingBlock: QUQFOY_clean_sbu_1, # of connection points: 4
#     Node 3, Type 0, BuildingBlock: QUQFOY_clean_sbu_1, # of connection points: 4
#     Node 4, Type 0, BuildingBlock: QUQFOY_clean_sbu_1, # of connection points: 4
#     Node 5, Type 0, BuildingBlock: QUQFOY_clean_sbu_1, # of connection points: 4
#     Node 6, Type 0, BuildingBlock: QUQFOY_clean_sbu_1, # of connection points: 4
#     Node 7, Type 0, BuildingBlock: QUQFOY_clean_sbu_1, # of connection points: 4
#     Node 8, Type 0, BuildingBlock: QUQFOY_clean_sbu_1, # of connection points: 4
#     Node 9, Type 0, BuildingBlock: QUQFOY_clean_sbu_1, # of connection points: 4
#     Node 10, Type 0, BuildingBlock: QUQFOY_clean_sbu_1, # of connection points: 4
#     Node 11, Type 0, BuildingBlock: QUQFOY_clean_sbu_1, # of connection points: 4
#     Node 12, Type 0, BuildingBlock: QUQFOY_clean_sbu_1, # of connection points: 4
#     Node 13, Type 0, BuildingBlock: QUQFOY_clean_sbu_1, # of connection points: 4
#     Node 14, Type 0, BuildingBlock: QUQFOY_clean_sbu_1, # of connection points: 4
#     Node 15, Type 0, BuildingBlock: QUQFOY_clean_sbu_1, # of connection points: 4
#     Node 16, Type 0, BuildingBlock: QUQFOY_clean_sbu_1, # of connection points: 4
#     Node 17, Type 0, BuildingBlock: QUQFOY_clean_sbu_1, # of connection points: 4
#     Node 18, Type 0, BuildingBlock: QUQFOY_clean_sbu_1, # of connection points: 4
#     Node 19, Type 0, BuildingBlock: QUQFOY_clean_sbu_1, # of connection points: 4
#     Node 20, Type 0, BuildingBlock: QUQFOY_clean_sbu_1, # of connection points: 4
#     Node 21, Type 0, BuildingBlock: QUQFOY_clean_sbu_1, # of connection points: 4
#     Node 22, Type 0, BuildingBlock: QUQFOY_clean_sbu_1, # of connection points: 4
#     Node 23, Type 0, BuildingBlock: QUQFOY_clean_sbu_1, # of connection points: 4
#     Node 24, Type 1, BuildingBlock: NUHQIS_clean_sbu_0, # of connection points: 6
#     Node 25, Type 1, BuildingBlock: NUHQIS_clean_sbu_0, # of connection points: 6
#     Node 26, Type 1, BuildingBlock: NUHQIS_clean_sbu_0, # of connection points: 6
#     Node 27, Type 1, BuildingBlock: NUHQIS_clean_sbu_0, # of connection points: 6
#     Node 28, Type 1, BuildingBlock: NUHQIS_clean_sbu_0, # of connection points: 6
#     Node 29, Type 1, BuildingBlock: NUHQIS_clean_sbu_0, # of connection points: 6
#     Node 30, Type 1, BuildingBlock: NUHQIS_clean_sbu_0, # of connection points: 6
#     Node 31, Type 1, BuildingBlock: NUHQIS_clean_sbu_0, # of connection points: 6
#     Node 32, Type 1, BuildingBlock: NUHQIS_clean_sbu_0, # of connection points: 6
#     Node 33, Type 1, BuildingBlock: NUHQIS_clean_sbu_0, # of connection points: 6
#     Node 34, Type 1, BuildingBlock: NUHQIS_clean_sbu_0, # of connection points: 6
#     Node 35, Type 1, BuildingBlock: NUHQIS_clean_sbu_0, # of connection points: 6
#     Node 36, Type 1, BuildingBlock: NUHQIS_clean_sbu_0, # of connection points: 6
#     Node 37, Type 1, BuildingBlock: NUHQIS_clean_sbu_0, # of connection points: 6
#     Node 38, Type 1, BuildingBlock: NUHQIS_clean_sbu_0, # of connection points: 6
#     Node 39, Type 1, BuildingBlock: NUHQIS_clean_sbu_0, # of connection points: 6
#     Edge 40, Type (0, 1), BuildingBlock: EZIPEK_clean_linker_0, # of connection points: 2
#     Edge 41, Type (0, 1), BuildingBlock: EZIPEK_clean_linker_0, # of connection points: 2
#     Edge 42, Type (0, 1), BuildingBlock: EZIPEK_clean_linker_0, # of connection points: 2
#     Edge 43, Type (0, 1), BuildingBlock: EZIPEK_clean_linker_0, # of connection points: 2
#     Edge 44, Type (0, 1), BuildingBlock: EZIPEK_clean_linker_0, # of connection points: 2
#     Edge 45, Type (0, 1), BuildingBlock: EZIPEK_clean_linker_0, # of connection points: 2
#     Edge 46, Type (0, 1), BuildingBlock: EZIPEK_clean_linker_0, # of connection points: 2
#     Edge 47, Type (0, 1), BuildingBlock: EZIPEK_clean_linker_0, # of connection points: 2
#     Edge 48, Type (0, 1), BuildingBlock: EZIPEK_clean_linker_0, # of connection points: 2
#     Edge 49, Type (0, 1), BuildingBlock: EZIPEK_clean_linker_0, # of connection points: 2
#     Edge 50, Type (0, 1), BuildingBlock: EZIPEK_clean_linker_0, # of connection points: 2
#     Edge 51, Type (0, 1), BuildingBlock: EZIPEK_clean_linker_0, # of connection points: 2
#     Edge 52, Type (0, 1), BuildingBlock: EZIPEK_clean_linker_0, # of connection points: 2
#     Edge 53, Type (0, 1), BuildingBlock: EZIPEK_clean_linker_0, # of connection points: 2
#     Edge 54, Type (0, 1), BuildingBlock: EZIPEK_clean_linker_0, # of connection points: 2
#     Edge 55, Type (0, 1), BuildingBlock: EZIPEK_clean_linker_0, # of connection points: 2
#     Edge 56, Type (0, 1), BuildingBlock: EZIPEK_clean_linker_0, # of connection points: 2
#     Edge 57, Type (0, 1), BuildingBlock: EZIPEK_clean_linker_0, # of connection points: 2
#     Edge 58, Type (0, 1), BuildingBlock: EZIPEK_clean_linker_0, # of connection points: 2
#     Edge 59, Type (0, 1), BuildingBlock: EZIPEK_clean_linker_0, # of connection points: 2
#     Edge 60, Type (0, 1), BuildingBlock: EZIPEK_clean_linker_0, # of connection points: 2
#     Edge 61, Type (0, 1), BuildingBlock: EZIPEK_clean_linker_0, # of connection points: 2
#     Edge 62, Type (0, 1), BuildingBlock: EZIPEK_clean_linker_0, # of connection points: 2
#     Edge 63, Type (0, 1), BuildingBlock: EZIPEK_clean_linker_0, # of connection points: 2
#     Edge 64, Type (0, 1), BuildingBlock: EZIPEK_clean_linker_0, # of connection points: 2
#     Edge 65, Type (0, 1), BuildingBlock: EZIPEK_clean_linker_0, # of connection points: 2
#     Edge 66, Type (0, 1), BuildingBlock: EZIPEK_clean_linker_0, # of connection points: 2
#     Edge 67, Type (0, 1), BuildingBlock: EZIPEK_clean_linker_0, # of connection points: 2
#     Edge 68, Type (0, 1), BuildingBlock: EZIPEK_clean_linker_0, # of connection points: 2
#     Edge 69, Type (0, 1), BuildingBlock: EZIPEK_clean_linker_0, # of connection points: 2
#     Edge 70, Type (0, 1), BuildingBlock: EZIPEK_clean_linker_0, # of connection points: 2
#     Edge 71, Type (0, 1), BuildingBlock: EZIPEK_clean_linker_0, # of connection points: 2
#     Edge 72, Type (0, 1), BuildingBlock: EZIPEK_clean_linker_0, # of connection points: 2
#     Edge 73, Type (0, 1), BuildingBlock: EZIPEK_clean_linker_0, # of connection points: 2
#     Edge 74, Type (0, 1), BuildingBlock: EZIPEK_clean_linker_0, # of connection points: 2
#     Edge 75, Type (0, 1), BuildingBlock: EZIPEK_clean_linker_0, # of connection points: 2
#     Edge 76, Type (0, 1), BuildingBlock: EZIPEK_clean_linker_0, # of connection points: 2
#     Edge 77, Type (0, 1), BuildingBlock: EZIPEK_clean_linker_0, # of connection points: 2
#     Edge 78, Type (0, 1), BuildingBlock: EZIPEK_clean_linker_0, # of connection points: 2
#     Edge 79, Type (0, 1), BuildingBlock: EZIPEK_clean_linker_0, # of connection points: 2
#     Edge 80, Type (0, 1), BuildingBlock: EZIPEK_clean_linker_0, # of connection points: 2
#     Edge 81, Type (0, 1), BuildingBlock: EZIPEK_clean_linker_0, # of connection points: 2
#     Edge 82, Type (0, 1), BuildingBlock: EZIPEK_clean_linker_0, # of connection points: 2
#     Edge 83, Type (0, 1), BuildingBlock: EZIPEK_clean_linker_0, # of connection points: 2
#     Edge 84, Type (0, 1), BuildingBlock: EZIPEK_clean_linker_0, # of connection points: 2
#     Edge 85, Type (0, 1), BuildingBlock: EZIPEK_clean_linker_0, # of connection points: 2
#     Edge 86, Type (0, 1), BuildingBlock: EZIPEK_clean_linker_0, # of connection points: 2
#     Edge 87, Type (0, 1), BuildingBlock: EZIPEK_clean_linker_0, # of connection points: 2
#     Edge 88, Type (0, 1), BuildingBlock: EZIPEK_clean_linker_0, # of connection points: 2
#     Edge 89, Type (0, 1), BuildingBlock: EZIPEK_clean_linker_0, # of connection points: 2
#     Edge 90, Type (0, 1), BuildingBlock: EZIPEK_clean_linker_0, # of connection points: 2
#     Edge 91, Type (0, 1), BuildingBlock: EZIPEK_clean_linker_0, # of connection points: 2
#     Edge 92, Type (0, 1), BuildingBlock: EZIPEK_clean_linker_0, # of connection points: 2
#     Edge 93, Type (0, 1), BuildingBlock: EZIPEK_clean_linker_0, # of connection points: 2
#     Edge 94, Type (0, 1), BuildingBlock: EZIPEK_clean_linker_0, # of connection points: 2
#     Edge 95, Type (0, 1), BuildingBlock: EZIPEK_clean_linker_0, # of connection points: 2
#     Edge 96, Type (0, 1), BuildingBlock: EZIPEK_clean_linker_0, # of connection points: 2
#     Edge 97, Type (0, 1), BuildingBlock: EZIPEK_clean_linker_0, # of connection points: 2
#     Edge 98, Type (0, 1), BuildingBlock: EZIPEK_clean_linker_0, # of connection points: 2
#     Edge 99, Type (0, 1), BuildingBlock: EZIPEK_clean_linker_0, # of connection points: 2
#     Edge 100, Type (0, 1), BuildingBlock: EZIPEK_clean_linker_0, # of connection points: 2
#     Edge 101, Type (0, 1), BuildingBlock: EZIPEK_clean_linker_0, # of connection points: 2
#     Edge 102, Type (0, 1), BuildingBlock: EZIPEK_clean_linker_0, # of connection points: 2
#     Edge 103, Type (0, 1), BuildingBlock: EZIPEK_clean_linker_0, # of connection points: 2
#     Edge 104, Type (0, 1), BuildingBlock: EZIPEK_clean_linker_0, # of connection points: 2
#     Edge 105, Type (0, 1), BuildingBlock: EZIPEK_clean_linker_0, # of connection points: 2
#     Edge 106, Type (0, 1), BuildingBlock: EZIPEK_clean_linker_0, # of connection points: 2
#     Edge 107, Type (0, 1), BuildingBlock: EZIPEK_clean_linker_0, # of connection points: 2
#     Edge 108, Type (0, 1), BuildingBlock: EZIPEK_clean_linker_0, # of connection points: 2
#     Edge 109, Type (0, 1), BuildingBlock: EZIPEK_clean_linker_0, # of connection points: 2
#     Edge 110, Type (0, 1), BuildingBlock: EZIPEK_clean_linker_0, # of connection points: 2
#     Edge 111, Type (0, 1), BuildingBlock: EZIPEK_clean_linker_0, # of connection points: 2
#     Edge 112, Type (0, 1), BuildingBlock: EZIPEK_clean_linker_0, # of connection points: 2
#     Edge 113, Type (0, 1), BuildingBlock: EZIPEK_clean_linker_0, # of connection points: 2
#     Edge 114, Type (0, 1), BuildingBlock: EZIPEK_clean_linker_0, # of connection points: 2
#     Edge 115, Type (0, 1), BuildingBlock: EZIPEK_clean_linker_0, # of connection points: 2
#     Edge 116, Type (0, 1), BuildingBlock: EZIPEK_clean_linker_0, # of connection points: 2
#     Edge 117, Type (0, 1), BuildingBlock: EZIPEK_clean_linker_0, # of connection points: 2
#     Edge 118, Type (0, 1), BuildingBlock: EZIPEK_clean_linker_0, # of connection points: 2
#     Edge 119, Type (0, 1), BuildingBlock: EZIPEK_clean_linker_0, # of connection points: 2
#     Edge 120, Type (0, 1), BuildingBlock: EZIPEK_clean_linker_0, # of connection points: 2
#     Edge 121, Type (0, 1), BuildingBlock: EZIPEK_clean_linker_0, # of connection points: 2
#     Edge 122, Type (0, 1), BuildingBlock: EZIPEK_clean_linker_0, # of connection points: 2
#     Edge 123, Type (0, 1), BuildingBlock: EZIPEK_clean_linker_0, # of connection points: 2
#     Edge 124, Type (0, 1), BuildingBlock: EZIPEK_clean_linker_0, # of connection points: 2
#     Edge 125, Type (0, 1), BuildingBlock: EZIPEK_clean_linker_0, # of connection points: 2
#     Edge 126, Type (0, 1), BuildingBlock: EZIPEK_clean_linker_0, # of connection points: 2
#     Edge 127, Type (0, 1), BuildingBlock: EZIPEK_clean_linker_0, # of connection points: 2
#     Edge 128, Type (0, 1), BuildingBlock: EZIPEK_clean_linker_0, # of connection points: 2
#     Edge 129, Type (0, 1), BuildingBlock: EZIPEK_clean_linker_0, # of connection points: 2
#     Edge 130, Type (0, 1), BuildingBlock: EZIPEK_clean_linker_0, # of connection points: 2
#     Edge 131, Type (0, 1), BuildingBlock: EZIPEK_clean_linker_0, # of connection points: 2
#     Edge 132, Type (0, 1), BuildingBlock: EZIPEK_clean_linker_0, # of connection points: 2
#     Edge 133, Type (0, 1), BuildingBlock: EZIPEK_clean_linker_0, # of connection points: 2
#     Edge 134, Type (0, 1), BuildingBlock: EZIPEK_clean_linker_0, # of connection points: 2
#     Edge 135, Type (0, 1), BuildingBlock: EZIPEK_clean_linker_0, # of connection points: 2
# Relax obj value: 0.300
# Max RMSD: 0.369
# Mean RMSD: 0.179
data_MOF--net-gar--node1-QUQFOY_clean_sbu_1--node2-NUHQIS_clean_sbu_0--edge1-EZIPEK_clean_linker_0
_symmetry_space_group_name_H-M    P1
_symmetry_Int_Tables_number       1
_symmetry_cell_setting            triclinic
loop_
_symmetry_equiv_pos_as_xyz
'x, y, z'
_cell_length_a     44.075072
_cell_length_b     46.703436
_cell_length_c     43.638811
_cell_angle_alpha  93.322951
_cell_angle_beta   97.956481
_cell_angle_gamma 103.60629
loop_
_atom_site_label
_atom_site_type_symbol
_atom_site_fract_x
_atom_site_fract_y
_atom_site_fract_z
_atom_type_partial_charge
O0 O 0.10585 0.27247 0.43825 0.0
Cd1 Cd 0.11182 0.30152 0.39887 0.0
Cd2 Cd 0.08056 0.34242 0.46254 0.0
O3 O 0.08919 0.29549 0.47766 0.0
O4 O 0.13635 0.28437 0.36438 0.0
O5 O 0.15825 0.3263 0.39029 0.0
C6 C 0.16095 0.30661 0.36934 0.0
C7 C 0.08534 0.39804 0.48727 0.0
C8 C 0.09703 0.27176 0.46564 0.0
C9 C 0.04303 0.32224 0.3907 0.0
O10 O 0.04747 0.33307 0.41936 0.0
O11 O 0.06484 0.31156 0.37985 0.0
O12 O 0.06409 0.37476 0.49165 0.0
O13 O 0.1055 0.3903 0.47146 0.0
O14 O 0.05795 0.7758 0.6573 0.0
Cd15 Cd 0.05775 0.8105 0.69478 0.0
Cd16 Cd 0.09756 0.85148 0.63941 0.0
O17 O 0.08291 0.80073 0.62127 0.0
O18 O 1.02617 0.79664 0.72875 0.0
O19 O 1.01797 0.83017 0.69922 0.0
C20 C 1.00849 0.81453 0.72123 0.0
C21 C 0.09532 0.90388 0.61656 0.0
C22 C 0.06998 0.77528 0.63166 0.0
C23 C 0.135 0.84031 0.70601 0.0
O24 O 0.13373 0.85158 0.6795 0.0
O25 O 0.10891 0.82711 0.71558 0.0
O26 O 0.11491 0.88816 0.61059 0.0
O27 O 0.07605 0.88999 0.63388 0.0
O28 O 0.65576 0.82326 0.92013 0.0
Cd29 Cd 0.62624 0.81862 0.95944 0.0
Cd30 Cd 0.58827 0.85269 0.89734 0.0
O31 O 0.63166 0.84263 0.88057 0.0
O32 O 0.64207 0.7872 0.99162 0.0
O33 O 0.59726 0.77276 0.96334 0.0
C34 C 0.61768 0.76492 0.98346 0.0
C35 C 0.53225 0.8444 0.86792 0.0
C36 C 0.65556 0.83247 0.89235 0.0
C37 C 0.60962 0.88931 0.96583 0.0
O38 O 0.59869 0.88636 0.93651 0.0
O39 O 0.61888 0.86656 0.97799 0.0
O40 O 0.55563 0.86539 0.86315 0.0
O41 O 0.54038 0.82686 0.88765 0.0
O42 O 0.57661 0.263 0.15635 0.0
Cd43 Cd 0.57557 0.29845 0.19299 0.0
Cd44 Cd 0.61579 0.33862 0.13931 0.0
O45 O 0.60143 0.28776 0.12031 0.0
O46 O 0.543 0.28579 0.22632 0.0
O47 O 0.53566 0.31848 0.19573 0.0
C48 C 0.5254 0.30354 0.21793 0.0
C49 C 0.61252 0.39115 0.11747 0.0
C50 C 0.58869 0.26224 0.13072 0.0
C51 C 0.65268 0.32858 0.20653 0.0
O52 O 0.65205 0.33947 0.17982 0.0
O53 O 0.62625 0.31531 0.2154 0.0
O54 O 0.63199 0.37567 0.11049 0.0
O55 O 0.59387 0.37698 0.13517 0.0
O56 O 0.17715 0.85904 0.14837 0.0
Cd57 Cd 0.17948 0.88857 0.18569 0.0
Cd58 Cd 0.21485 0.92131 0.14783 0.0
O59 O 0.21252 0.88258 0.12163 0.0
O60 O 0.15386 0.86263 0.21179 0.0
O61 O 0.14103 0.90224 0.19354 0.0
C62 C 0.13494 0.87981 0.20955 0.0
C63 C 0.17882 0.94726 0.12845 0.0
C64 C 0.19223 0.85939 0.12555 0.0
C65 C 0.24591 0.92304 0.21322 0.0
O66 O 0.24891 0.93405 0.18749 0.0
O67 O 0.22067 0.90423 0.2158 0.0
O68 O 0.20706 0.95317 0.12142 0.0
O69 O 0.17187 0.92784 0.14783 0.0
O70 O 0.58305 0.75223 0.40066 0.0
Cd71 Cd 0.55351 0.7499 0.43348 0.0
Cd72 Cd 0.51088 0.7516 0.37609 0.0
O73 O 0.549 0.74557 0.357 0.0
O74 O 0.5821 0.74475 0.4713 0.0
O75 O 0.53791 0.71151 0.45156 0.0
C76 C 0.56316 0.71933 0.47207 0.0
C77 C 0.46143 0.73341 0.34449 0.0
C78 C 0.57684 0.74878 0.37122 0.0
C79 C 0.52774 0.80307 0.42677 0.0
O80 O 0.51596 0.79277 0.39897 0.0
O81 O 0.54116 0.78821 0.44533 0.0
O82 O 0.46847 0.72158 0.36963 0.0
O83 O 0.48261 0.75495 0.33749 0.0
O84 O 0.66353 0.3613 0.68965 0.0
Cd85 Cd 0.6717 0.40191 0.71429 0.0
Cd86 Cd 0.70724 0.41665 0.6688 0.0
O87 O 0.6959 0.37207 0.65507 0.0
O88 O 0.64338 0.39224 0.74573 0.0
O89 O 0.63949 0.42651 0.71356 0.0
C90 C 0.6293 0.41175 0.73558 0.0
C91 C 0.67931 0.44792 0.64445 0.0
C92 C 0.67662 0.35335 0.66757 0.0
C93 C 0.74147 0.42545 0.73467 0.0
O94 O 0.74379 0.4294 0.70635 0.0
O95 O 0.71453 0.41473 0.74197 0.0
O96 O 0.70518 0.44481 0.63536 0.0
O97 O 0.66995 0.43339 0.667 0.0
O98 O 0.04391 0.19632 0.92386 0.0
Cd99 Cd 1.03275 0.2201 0.88729 0.0
Cd100 Cd 0.99784 0.23657 0.92983 0.0
O101 O 1.00992 0.20333 0.95439 0.0
O102 O 0.06356 0.21688 0.85892 0.0
O103 O 0.06351 0.25883 0.88548 0.0
C104 C 0.07579 0.24477 0.86615 0.0
C105 C 1.01601 0.28511 0.95088 0.0
C106 C 1.03208 0.19169 0.9486 0.0
C107 C 0.96525 0.22038 0.86392 0.0
O108 O 0.96341 0.22992 0.89126 0.0
O109 O 0.98964 0.21231 0.85821 0.0
O110 O 0.991 0.26831 0.95852 0.0
O111 O 1.03141 0.27392 0.93222 0.0
O112 O 0.58403 0.15972 0.29865 0.0
Cd113 Cd 0.54402 0.14268 0.31781 0.0
Cd114 Cd 0.59718 0.14128 0.36795 0.0
O115 O 0.62343 0.16108 0.33621 0.0
O116 O 0.50952 0.13933 0.28184 0.0
O117 O 0.51464 0.16903 0.32436 0.0
C118 C 0.49923 0.15841 0.29715 0.0
C119 C 0.61327 0.15861 0.42056 0.0
C120 C 0.61353 0.16645 0.30897 0.0
C121 C 0.54928 0.08438 0.34429 0.0
O122 O 0.57608 0.09662 0.36015 0.0
O123 O 0.53343 0.09918 0.32811 0.0
O124 O 0.58841 0.16397 0.40498 0.0
O125 O 0.62887 0.14387 0.40574 0.0
O126 O 0.37564 0.21139 0.60403 0.0
Cd127 Cd 0.3744 0.17362 0.57079 0.0
Cd128 Cd 0.3426 0.22399 0.5278 0.0
O129 O 0.35705 0.24497 0.57676 0.0
O130 O 0.40308 0.14486 0.59028 0.0
O131 O 0.4149 0.16704 0.55018 0.0
C132 C 0.42247 0.14952 0.57027 0.0
C133 C 0.34789 0.24664 0.47544 0.0
C134 C 0.36726 0.23624 0.60326 0.0
C135 C 0.29853 0.16195 0.54191 0.0
O136 O 0.30319 0.18687 0.52972 0.0
O137 O 0.32252 0.15291 0.55545 0.0
O138 O 0.32894 0.25222 0.49389 0.0
O139 O 0.36483 0.22934 0.48662 0.0
O140 O 0.16194 0.09983 0.83105 0.0
Cd141 Cd 0.21057 0.10785 0.84106 0.0
Cd142 Cd 0.19934 0.14142 0.88604 0.0
O143 O 0.15847 0.14048 0.85663 0.0
O144 O 0.22321 0.08062 0.81134 0.0
O145 O 0.23302 0.08016 0.86255 0.0
C146 C 0.23606 0.07035 0.83522 0.0
C147 C 0.19061 0.11056 0.92445 0.0
C148 C 0.14559 0.11776 0.83781 0.0
C149 C 0.24965 0.17051 0.8541 0.0
O150 O 0.24008 0.17169 0.88021 0.0
O151 O 0.23805 0.14827 0.83432 0.0
O152 O 0.18927 0.13784 0.92884 0.0
O153 O 0.19984 0.10184 0.89955 0.0
O154 O 0.35945 0.90889 0.11312 0.0
Cd155 Cd 0.36308 0.94146 0.0829 0.0
Cd156 Cd 0.37714 0.89277 0.04398 0.0
O157 O 0.36646 0.87056 0.08483 0.0
O158 O 0.35157 0.97346 0.1078 0.0
O159 O 0.32556 0.95459 0.06141 0.0
C160 C 0.32928 0.97334 0.08539 0.0
C161 C 0.35645 0.87625 0.98964 0.0
C162 C 0.36148 0.88217 0.11057 0.0
C163 C 0.42718 0.95174 0.06212 0.0
O164 O 0.42013 0.92505 0.04996 0.0
O165 O 0.4074 0.9621 0.07497 0.0
O166 O 0.37788 0.8658 1.00523 0.0
O167 O 0.34487 0.89432 1.00533 0.0
O168 O 0.32905 0.43726 0.11082 0.0
Cd169 Cd 0.32782 0.47441 0.08095 0.0
Cd170 Cd 0.35768 0.42006 0.03964 0.0
O171 O 0.34515 0.40181 0.08493 0.0
O172 O 0.30196 0.50445 0.09914 0.0
O173 O 0.28209 0.47717 0.05634 0.0
C174 C 0.27814 0.49658 0.07686 0.0
C175 C 0.3502 0.39515 0.9842 0.0
C176 C 0.33607 0.41168 0.10998 0.0
C177 C 0.40002 0.48717 0.05882 0.0
O178 O 0.39528 0.45998 0.04794 0.0
O179 O 0.37736 0.4962 0.07006 0.0
O180 O 0.37064 0.39091 1.00669 0.0
O181 O 0.33248 0.4116 0.99294 0.0
O182 O 0.85522 0.24452 0.10099 0.0
Cd183 Cd 0.84562 0.21538 0.06085 0.0
Cd184 Cd 0.81828 0.25831 0.03457 0.0
O185 O 0.8334 0.27897 0.08114 0.0
O186 O 0.86801 0.18366 0.07035 0.0
O187 O 0.87618 0.21103 0.03124 0.0
C188 C 0.88126 0.18904 0.04609 0.0
C189 C 0.83152 0.27744 0.98684 0.0
C190 C 0.84703 0.26878 0.10455 0.0
C191 C 0.77546 0.19787 0.03779 0.0
O192 O 0.77726 0.22388 0.02961 0.0
O193 O 0.79988 0.19052 0.0503 0.0
O194 O 0.81057 0.28564 1.0009 0.0
O195 O 0.84653 0.26003 1.00093 0.0
O196 O 0.13853 0.46228 0.23478 0.0
Cd197 Cd 0.15638 0.49481 0.27125 0.0
Cd198 Cd 0.07727 0.50433 0.24523 0.0
O199 O 0.09443 0.46792 0.24462 0.0
O200 O 0.20191 0.49527 0.27897 0.0
O201 O 0.17094 0.48577 0.31472 0.0
C202 C 0.1985 0.48842 0.30668 0.0
C203 C 1.03646 0.50864 0.27136 0.0
C204 C 0.11071 0.46312 0.22403 0.0
C205 C 0.1375 0.55389 0.25079 0.0
O206 O 0.1082 0.54355 0.2404 0.0
O207 O 0.15537 0.53834 0.26314 0.0
O208 O 1.03112 0.50337 0.24145 0.0
O209 O 0.06428 0.50986 0.28605 0.0
O210 O 0.82008 0.94039 0.61378 0.0
Cd211 Cd 0.81903 0.97727 0.58302 0.0
Cd212 Cd 0.85311 0.92173 0.54465 0.0
O213 O 0.84043 0.90593 0.59118 0.0
O214 O 0.79172 1.00621 0.6006 0.0
O215 O 0.77494 0.98151 0.55615 0.0
C216 C 0.76935 0.99985 0.57683 0.0
C217 C 0.84929 0.89354 0.49095 0.0
C218 C 0.82897 0.91569 0.61483 0.0
C219 C 0.89109 0.99123 0.56048 0.0
O220 O 0.8874 0.96396 0.55032 0.0
O221 O 0.86816 0.99952 0.57196 0.0
O222 O 0.87094 0.8938 0.51435 0.0
O223 O 0.82842 0.90714 0.49809 0.0
O224 O 0.94415 0.04856 0.16958 0.0
Cd225 Cd 0.90704 0.03567 0.19416 0.0
Cd226 Cd 0.95282 0.05013 0.24606 0.0
O227 O 0.97994 0.05625 0.21188 0.0
O228 O 0.86935 0.05197 0.1806 0.0
O229 O 0.90336 0.06737 0.22417 0.0
C230 C 0.87871 0.06965 0.20583 0.0
C231 C 0.97662 0.08586 0.28675 0.0
C232 C 0.97281 0.05589 0.18277 0.0
C233 C 0.91067 0.98791 0.23627 0.0
O234 O 0.93132 1.00756 0.25438 0.0
O235 O 0.89815 0.99395 0.21011 0.0
O236 O 0.98723 0.06296 0.28143 0.0
O237 O 0.95067 0.08777 0.27038 0.0
O238 O 0.33309 0.74427 0.59712 0.0
Cd239 Cd 0.32513 0.71256 0.55958 0.0
Cd240 Cd 0.30327 0.75916 0.52699 0.0
O241 O 0.31827 0.78079 0.57345 0.0
O242 O 0.34296 0.67947 0.57562 0.0
O243 O 0.36015 0.70426 0.53741 0.0
C244 C 0.36147 0.68316 0.55504 0.0
C245 C 0.31578 0.77845 0.47886 0.0
C246 C 0.32848 0.77022 0.59831 0.0
C247 C 0.25594 0.70023 0.53096 0.0
O248 O 0.26091 0.72619 0.52191 0.0
O249 O 0.27839 0.6909 0.54506 0.0
O250 O 0.29637 0.78775 0.49417 0.0
O251 O 0.32972 0.75964 0.49155 0.0
O252 O 0.42694 0.55669 0.65883 0.0
Cd253 Cd 0.39205 0.54428 0.68635 0.0
Cd254 Cd 0.44129 0.55738 0.73393 0.0
O255 O 0.46487 0.57328 0.69899 0.0
O256 O 0.3538 0.56011 0.6742 0.0
O257 O 0.38992 0.5772 0.71601 0.0
C258 C 0.3643 0.57871 0.69863 0.0
C259 C 0.45848 0.5814 0.78338 0.0
C260 C 0.45551 0.5695 0.66991 0.0
C261 C 0.40221 0.49425 0.72277 0.0
O262 O 0.42721 0.51256 0.73611 0.0
O263 O 0.38314 0.50222 0.70226 0.0
O264 O 0.47547 0.56726 0.76992 0.0
O265 O 0.43215 0.5837 0.76806 0.0
O266 O 0.61112 0.9651 0.72162 0.0
Cd267 Cd 0.63617 0.98448 0.76442 0.0
Cd268 Cd 0.58303 0.99489 0.77405 0.0
O269 O 0.56974 0.98186 0.72796 0.0
O270 O 0.67661 0.97205 0.77011 0.0
O271 O 0.64259 0.96408 0.8035 0.0
C272 C 0.66962 0.96274 0.79609 0.0
C273 C 0.55119 0.96968 0.80692 0.0
C274 C 0.58425 0.969 0.71062 0.0
C275 C 0.63553 0.048 0.77788 0.0
O276 O 0.60802 0.03869 0.78475 0.0
O277 O 0.65019 0.02996 0.76783 0.0
O278 O 0.5425 0.98913 0.79023 0.0
O279 O 0.57874 0.96509 0.8054 0.0
O280 O 0.88353 0.71044 0.11067 0.0
Cd281 Cd 0.8839 0.67271 0.07751 0.0
Cd282 Cd 0.84572 0.7236 0.03436 0.0
O283 O 0.86031 0.74222 0.08446 0.0
O284 O 0.91242 0.64353 0.09683 0.0
O285 O 0.92534 0.66687 0.05789 0.0
C286 C 0.93241 0.64869 0.07743 0.0
C287 C 0.84611 0.74962 0.9831 0.0
C288 C 0.87266 0.73408 0.11056 0.0
C289 C 0.8076 0.65803 0.0475 0.0
O290 O 0.81011 0.68303 0.03557 0.0
O291 O 0.83257 0.65073 0.06139 0.0
O292 O 0.82631 0.75084 1.0022 0.0
O293 O 0.86647 0.73492 0.99293 0.0
O294 O 0.07581 0.67678 0.78715 0.0
Cd295 Cd 1.03269 0.65389 0.7973 0.0
Cd296 Cd 0.081 0.6442 0.85048 0.0
O297 O 0.1112 0.67007 0.82532 0.0
O298 O 1.00154 0.66072 0.76241 0.0
O299 O 1.00169 0.67535 0.81159 0.0
C300 C 0.9888 0.67282 0.78281 0.0
C301 C 0.09241 0.64588 0.90415 0.0
C302 C 0.10445 0.6814 0.80026 0.0
C303 C 1.03346 0.59138 0.81218 0.0
O304 O 0.05684 0.60174 0.83347 0.0
O305 O 1.0208 0.60822 0.79569 0.0
O306 O 0.10865 0.63483 0.88648 0.0
O307 O 0.07166 0.65891 0.89155 0.0
O308 O 0.85249 0.40454 0.62038 0.0
Cd309 Cd 0.85401 0.44082 0.59545 0.0
Cd310 Cd 0.87493 0.39559 0.5499 0.0
O311 O 0.86711 0.37162 0.59023 0.0
O312 O 0.84404 0.46997 0.62554 0.0
O313 O 0.8158 0.45558 0.57895 0.0
C314 C 0.82126 0.47224 0.60475 0.0
C315 C 0.86013 0.37548 0.4959 0.0
C316 C 0.85888 0.37957 0.61598 0.0
C317 C 0.91677 0.45889 0.57163 0.0
O318 O 0.9121 0.43396 0.55584 0.0
O319 O 0.89691 0.4646 0.58791 0.0
O320 O 0.88413 0.3707 0.51356 0.0
O321 O 0.84302 0.38981 0.5093 0.0
O322 O 0.71752 0.5644 0.34244 0.0
Cd323 Cd 0.76072 0.5868 0.36796 0.0
Cd324 Cd 0.72477 0.61545 0.39337 0.0
O325 O 0.6905 0.59493 0.35745 0.0
O326 O 0.78961 0.56402 0.35401 0.0
O327 O 0.78172 0.56816 0.40298 0.0
C328 C 0.79558 0.55789 0.3822 0.0
C329 C 0.70995 0.60269 0.44004 0.0
C330 C 0.69158 0.57204 0.34098 0.0
C331 C 0.77703 0.65338 0.36805 0.0
O332 O 0.75607 0.6537 0.38528 0.0
O333 O 0.7818 0.62896 0.35812 0.0
O334 O 0.70094 0.62376 0.42644 0.0
O335 O 0.72997 0.59058 0.4286 0.0
Tb336 Tb 0.06081 0.05474 0.03799 0.0
Eu337 Eu 0.12997 0.09042 0.07796 0.0
C338 C 0.12454 0.05643 1.01229 0.0
C339 C 0.10275 1.01877 0.07436 0.0
C340 C 0.98356 0.05954 1.00495 0.0
C341 C 0.93577 0.0723 1.01713 0.0
C342 C 0.95367 0.05137 1.01423 0.0
C343 C 0.99441 0.08865 0.99713 0.0
C344 C 0.97678 0.10958 1.00039 0.0
C345 C 0.9477 0.10176 1.01113 0.0
C346 C 1.0055 0.03979 1.00856 0.0
O347 O 0.05768 0.05702 0.08701 0.0
O348 O 0.09312 0.10122 0.10441 0.0
O349 O 0.11619 0.11978 0.04189 0.0
O350 O 0.06396 0.10184 0.04305 0.0
C351 C 0.06759 0.08078 0.10662 0.0
O352 O 0.16362 0.10077 0.12119 0.0
O353 O 0.17752 0.11816 0.07893 0.0
O354 O 0.13947 0.06059 0.04075 0.0
O355 O 0.09534 0.05922 1.00632 0.0
O356 O 0.08123 1.01782 0.04981 0.0
O357 O 0.11831 0.04358 0.09104 0.0
C358 C 0.08687 0.12138 0.0345 0.0
O359 O 1.0305 0.0468 0.99505 0.0
O360 O 1.01282 0.03322 0.03682 0.0
C361 C 0.21292 0.09555 0.10838 0.0
C362 C 0.25345 0.05766 0.10168 0.0
C363 C 0.23233 0.05272 0.12319 0.0
C364 C 0.21223 0.07145 0.12651 0.0
C365 C 0.23537 0.10128 0.08807 0.0
C366 C 0.25533 0.08243 0.08465 0.0
C367 C 0.18723 0.11134 0.10659 0.0
H368 H 0.91341 0.06594 0.02562 0.0
H369 H 0.9449 0.02926 0.02074 0.0
H370 H 1.01732 0.09575 0.99 0.0
H371 H 0.98641 0.13219 0.99573 0.0
H372 H 0.23066 0.03377 0.13663 0.0
H373 H 0.19521 0.06618 0.14228 0.0
H374 H 0.23641 0.1195 0.07365 0.0
H375 H 0.27158 0.08663 0.068 0.0
Tb376 Tb 0.37581 0.84206 0.30557 0.0
Eu377 Eu 0.30378 0.80162 0.27849 0.0
C378 C 0.32045 0.87351 0.28667 0.0
C379 C 0.32937 0.81145 0.35155 0.0
C380 C 0.44978 0.90183 0.3312 0.0
C381 C 0.45516 0.95294 0.32013 0.0
C382 C 0.43707 0.92375 0.3175 0.0
C383 C 0.48079 0.9093 0.34735 0.0
C384 C 0.49894 0.93848 0.34988 0.0
C385 C 0.4861 0.96047 0.3365 0.0
C386 C 0.43057 0.87142 0.32999 0.0
O387 O 0.38086 0.79879 0.28978 0.0
O388 O 0.33245 0.76968 0.29452 0.0
O389 O 0.32652 0.81387 0.2358 0.0
O390 O 0.36992 0.8515 0.25634 0.0
C391 C 0.36283 0.77329 0.29443 0.0
O392 O 0.27322 0.77019 0.24196 0.0
O393 O 0.2532 0.78609 0.28019 0.0
O394 O 0.3009 0.84845 0.27454 0.0
O395 O 0.34819 0.87519 0.30324 0.0
O396 O 0.35812 0.81774 0.34421 0.0
O397 O 0.30481 0.8107 0.33038 0.0
C398 C 0.3499 0.83625 0.23227 0.0
O399 O 0.40565 0.86831 0.3436 0.0
O400 O 0.42437 0.85577 0.30315 0.0
C401 C 0.22975 0.73768 0.25634 0.0
C402 C 0.19673 0.67821 0.25339 0.0
C403 C 0.22659 0.68815 0.27178 0.0
C404 C 0.24304 0.71779 0.27328 0.0
C405 C 0.19972 0.72782 0.23831 0.0
C406 C 0.18319 0.69821 0.23693 0.0
C407 C 0.24806 0.76798 0.25506 0.0
H408 H 0.44499 0.96972 0.30966 0.0
H409 H 0.41309 0.91833 0.30514 0.0
H410 H 0.49085 0.89263 0.35822 0.0
H411 H 0.52286 0.944 0.36238 0.0
H412 H 0.23723 0.67289 0.28464 0.0
H413 H 0.26636 0.72507 0.28707 0.0
H414 H 0.18937 0.74288 0.22482 0.0
H415 H 0.16016 0.69076 0.22264 0.0
Tb416 Tb 0.57664 0.05137 0.54135 0.0
Eu417 Eu 0.61244 0.09499 0.60181 0.0
C418 C 0.58015 0.02683 0.60712 0.0
C419 C 0.53912 0.09695 0.57174 0.0
C420 C 0.54356 0.98511 0.48455 0.0
C421 C 0.53686 0.93384 0.49555 0.0
C422 C 0.541 0.96352 0.50584 0.0
C423 C 0.54223 0.97665 0.45293 0.0
C424 C 0.53846 0.94695 0.4427 0.0
C425 C 0.53568 0.92547 0.46398 0.0
C426 C 0.54713 1.01634 0.49494 0.0
O427 O 0.58791 0.09419 0.52349 0.0
O428 O 0.62686 0.12052 0.56198 0.0
O429 O 0.64789 0.06627 0.59428 0.0
O430 O 0.62658 0.04466 0.54511 0.0
C431 C 0.6111 0.11726 0.53383 0.0
O432 O 0.65591 0.12024 0.63061 0.0
O433 O 0.61096 0.12026 0.64514 0.0
O434 O 0.58696 0.05383 0.62061 0.0
O435 O 0.57903 1.0213 0.57722 0.0
O436 O 0.5379 0.07153 0.55538 0.0
O437 O 0.56654 0.11122 0.58861 0.0
C438 C 0.65029 0.04996 0.56914 0.0
O439 O 0.53515 1.02129 0.51983 0.0
O440 O 0.57492 0.03406 0.4953 0.0
C441 C 0.64949 0.16527 0.65217 0.0
C442 C 0.66032 0.22709 0.65578 0.0
C443 C 0.66358 0.21144 0.62859 0.0
C444 C 0.65802 0.18072 0.62671 0.0
C445 C 0.64674 0.18099 0.67959 0.0
C446 C 0.65209 0.2118 0.68138 0.0
C447 C 0.64112 0.1328 0.64919 0.0
H448 H 0.53511 0.91745 0.51223 0.0
H449 H 0.54221 0.96957 0.53041 0.0
H450 H 0.54429 0.99303 0.43625 0.0
H451 H 0.53792 0.94069 0.41832 0.0
H452 H 0.66991 0.22299 0.60868 0.0
H453 H 0.65988 0.16904 0.60515 0.0
H454 H 0.63984 0.16937 0.69928 0.0
H455 H 0.64948 0.2237 0.70252 0.0
Tb456 Tb 0.31859 0.32541 0.77727 0.0
Eu457 Eu 0.38913 0.32096 0.80181 0.0
C458 C 0.37451 0.37743 0.76668 0.0
C459 C 0.35881 0.29723 0.7288 0.0
C460 C 0.23382 0.31711 0.77636 0.0
C461 C 0.17796 0.29514 0.77476 0.0
C462 C 0.20367 0.30499 0.75932 0.0
C463 C 0.23797 0.31985 0.80898 0.0
C464 C 0.21226 0.31022 0.8244 0.0
C465 C 0.18225 0.29738 0.80735 0.0
C466 C 0.26125 0.324 0.76017 0.0
O467 O 0.31439 0.29238 0.81005 0.0
O468 O 0.35816 0.27566 0.8051 0.0
O469 O 0.37137 0.33375 0.84673 0.0
O470 O 0.32805 0.34908 0.82578 0.0
C471 C 0.3298 0.27177 0.81255 0.0
O472 O 0.43179 0.3055 0.79859 0.0
O473 O 0.42948 0.33342 0.839 0.0
O474 O 0.3947 0.36662 0.78472 0.0
O475 O 0.34485 0.36347 0.75865 0.0
O476 O 0.33145 0.30098 0.73623 0.0
O477 O 0.38459 0.30563 0.74986 0.0
C478 C 0.34865 0.34708 0.8506 0.0
O479 O 0.28276 0.34819 0.77072 0.0
O480 O 0.27365 0.30181 0.75507 0.0
C481 C 0.47626 0.34383 0.81751 0.0
C482 C 0.52571 0.38208 0.79547 0.0
C483 C 0.52648 0.35256 0.79886 0.0
C484 C 0.50185 0.33349 0.80988 0.0
C485 C 0.47635 0.37386 0.81554 0.0
C486 C 0.50111 0.39296 0.80473 0.0
C487 C 0.44771 0.32265 0.82298 0.0
H488 H 0.1549 0.28516 0.76135 0.0
H489 H 0.2002 0.30239 0.73415 0.0
H490 H 0.26121 0.32872 0.82252 0.0
H491 H 0.21589 0.31195 0.84957 0.0
H492 H 0.54549 0.34401 0.79173 0.0
H493 H 0.50199 0.31041 0.81096 0.0
H494 H 0.45664 0.3823 0.82096 0.0
H495 H 0.50031 0.41571 0.80211 0.0
Tb496 Tb 0.08691 0.07472 0.51539 0.0
Eu497 Eu 0.0965 0.10419 0.58094 0.0
C498 C 0.15916 0.10906 0.54584 0.0
C499 C 0.09517 0.03031 0.57076 0.0
C500 C 0.07778 0.0714 0.43114 0.0
C501 C 0.04969 0.07328 0.38016 0.0
C502 C 0.05929 0.05687 0.40354 0.0
C503 C 0.08937 0.10236 0.43387 0.0
C504 C 0.0792 0.11891 0.41067 0.0
C505 C 0.05811 0.10433 0.38442 0.0
C506 C 0.07756 0.0555 0.45894 0.0
O507 O 0.03974 0.05416 0.52961 0.0
O508 O 0.04216 0.08435 0.57281 0.0
O509 O 0.09707 0.14641 0.55332 0.0
O510 O 0.08437 0.12244 0.50516 0.0
C511 C 1.0255 0.06235 0.55234 0.0
O512 O 0.08242 0.13187 0.61546 0.0
O513 O 0.12343 0.11408 0.62764 0.0
O514 O 0.14727 0.11825 0.56962 0.0
O515 O 0.13985 0.09025 0.52364 0.0
O516 O 0.09207 0.0342 0.54046 0.0
O517 O 0.09749 0.05439 0.59017 0.0
C518 C 0.09116 0.14836 0.52288 0.0
O519 O 0.10447 0.05884 0.47702 0.0
O520 O 0.05523 0.05856 0.47451 0.0
C521 C 0.09666 0.12462 0.66835 0.0
C522 C 0.08404 0.11698 0.72886 0.0
C523 C 0.05919 0.10909 0.70376 0.0
C524 C 0.06551 0.11274 0.67344 0.0
C525 C 0.12116 0.13287 0.69359 0.0
C526 C 0.11493 0.129 0.72357 0.0
C527 C 0.10475 0.12933 0.63733 0.0
H528 H 1.03351 0.0618 0.35979 0.0
H529 H 0.05002 0.03306 0.40118 0.0
H530 H 0.10416 0.11385 0.45491 0.0
H531 H 0.08597 0.14285 0.41412 0.0
H532 H 1.03524 0.0998 0.70761 0.0
H533 H 0.04625 0.10626 0.65414 0.0
H534 H 0.14524 0.14221 0.69007 0.0
H535 H 0.13436 0.13515 0.74277 0.0
Tb536 Tb 0.32043 0.80216 0.79455 0.0
Eu537 Eu 0.34334 0.87007 0.78415 0.0
C538 C 0.33027 0.84907 0.8525 0.0
C539 C 0.2679 0.83811 0.76889 0.0
C540 C 0.30351 0.72047 0.78182 0.0
C541 C 0.31444 0.67189 0.77938 0.0
C542 C 0.30889 0.69583 0.79653 0.0
C543 C 0.30219 0.72028 0.74943 0.0
C544 C 0.30755 0.69623 0.73222 0.0
C545 C 0.31467 0.6723 0.74729 0.0
C546 C 0.30324 0.74736 0.80097 0.0
O547 O 0.33448 0.79885 0.74843 0.0
O548 O 0.33862 0.84644 0.73586 0.0
O549 O 0.3904 0.85658 0.79208 0.0
O550 O 0.37223 0.81477 0.81544 0.0
C551 C 0.3368 0.81842 0.72782 0.0
O552 O 0.33914 0.90721 0.7571 0.0
O553 O 0.37403 0.91411 0.79847 0.0
O554 O 0.34582 0.86913 0.83664 0.0
O555 O 0.31291 0.8237 0.83813 0.0
O556 O 0.2771 0.81295 0.76853 0.0
O557 O 0.28913 0.86251 0.78122 0.0
C558 C 0.39636 0.83573 0.80946 0.0
O559 O 0.33098 0.76409 0.8121 0.0
O560 O 0.28412 0.76297 0.79002 0.0
C561 C 0.34621 0.95095 0.7891 0.0
C562 C 0.31326 0.99155 0.80816 0.0
C563 C 0.31912 0.98951 0.77746 0.0
C564 C 0.33559 0.96932 0.76798 0.0
C565 C 0.34124 0.95383 0.82018 0.0
C566 C 0.32491 0.9741 0.82966 0.0
C567 C 0.35875 0.92659 0.77765 0.0
H568 H 0.31991 0.6536 0.79134 0.0
H569 H 0.31018 0.69567 0.82149 0.0
H570 H 0.29829 0.73918 0.73764 0.0
H571 H 0.30766 0.69688 0.70746 0.0
H572 H 0.3102 1.00296 0.7607 0.0
H573 H 0.33897 0.96724 0.7439 0.0
H574 H 0.34897 0.93975 0.83689 0.0
H575 H 0.32048 0.97553 0.85344 0.0
Tb576 Tb 0.6169 0.06946 0.08137 0.0
Eu577 Eu 0.58414 0.08177 1.01686 0.0
C578 C 0.60752 1.0162 0.02446 0.0
C579 C 0.65777 0.11041 0.03935 0.0
C580 C 0.65323 0.08496 0.16418 0.0
C581 C 0.64499 0.09915 0.21605 0.0
C582 C 0.64079 0.07762 0.19136 0.0
C583 C 0.67256 0.11343 0.16323 0.0
C584 C 0.6768 0.13507 0.18804 0.0
C585 C 0.66175 0.12825 0.2139 0.0
C586 C 0.64136 0.06435 0.136 0.0
O587 O 0.60423 0.11429 0.09257 0.0
O588 O 0.58673 0.12708 0.0451 0.0
O589 O 0.54377 0.05848 0.03961 0.0
O590 O 0.57219 0.03591 0.07357 0.0
C591 C 0.59475 0.13484 0.07558 0.0
O592 O 0.58486 0.08533 0.96748 0.0
O593 O 0.54342 0.08973 0.98723 0.0
O594 O 0.59518 0.03447 1.00658 0.0
O595 O 0.61811 0.02628 0.05438 0.0
O596 O 0.65698 0.09028 0.05919 0.0
O597 O 0.63196 0.11341 0.02263 0.0
C598 C 0.54521 0.0378 0.05822 0.0
O599 O 0.61109 0.05974 0.12671 0.0
O600 O 0.65722 0.06804 0.11283 0.0
C601 C 0.53585 0.0619 0.9387 0.0
C602 C 0.51564 1.00917 0.89975 0.0
C603 C 0.53334 0.03477 0.88926 0.0
C604 C 0.54338 0.06102 0.90863 0.0
C605 C 0.51525 0.03714 0.94794 0.0
C606 C 0.50512 1.01077 0.92844 0.0
C607 C 0.55502 0.08555 0.96186 0.0
H608 H 0.63331 0.0936 0.23597 0.0
H609 H 0.62591 0.05578 0.1926 0.0
H610 H 0.68278 0.11945 0.14269 0.0
H611 H 0.68989 0.15748 0.18618 0.0
H612 H 0.54145 0.0338 0.86696 0.0
H613 H 0.55927 0.0798 0.90113 0.0
H614 H 0.50891 0.03747 0.97102 0.0
H615 H 0.49116 0.99121 0.93657 0.0
Tb616 Tb 0.35666 0.34738 0.30482 0.0
Eu617 Eu 0.32704 0.28587 0.26973 0.0
C618 C 0.3504 0.29335 0.34676 0.0
C619 C 0.40443 0.31394 0.2721 0.0
C620 C 0.35352 0.41985 0.33542 0.0
C621 C 0.33323 0.45353 0.36705 0.0
C622 C 0.35576 0.4373 0.36338 0.0
C623 C 0.32896 0.4194 0.31103 0.0
C624 C 0.3066 0.43544 0.31472 0.0
C625 C 0.30821 0.45214 0.34285 0.0
C626 C 0.3734 0.39875 0.33304 0.0
O627 O 0.33888 0.36033 0.25776 0.0
O628 O 0.33042 0.31655 0.22883 0.0
O629 O 0.28118 0.29671 0.28214 0.0
O630 O 0.30652 0.33622 0.31677 0.0
C631 C 0.33436 0.34572 0.22976 0.0
O632 O 0.30816 0.2546 0.22808 0.0
O633 O 0.31399 0.2384 0.27316 0.0
O634 O 0.32997 0.27855 0.32265 0.0
O635 O 0.36897 0.3189 0.34193 0.0
O636 O 0.40007 0.33844 0.2865 0.0
O637 O 0.38026 0.29035 0.26715 0.0
C638 C 0.27987 0.31589 0.30528 0.0
O639 O 0.36461 0.37486 0.34659 0.0
O640 O 0.37944 0.3925 0.30544 0.0
C641 C 0.33171 0.21398 0.23443 0.0
C642 C 0.38436 0.18956 0.24381 0.0
C643 C 0.3866 0.2163 0.23018 0.0
C644 C 0.3604 0.22836 0.22535 0.0
C645 C 0.32843 0.18547 0.24425 0.0
C646 C 0.35459 0.1732 0.24872 0.0
C647 C 0.31024 0.23175 0.24334 0.0
H648 H 0.33474 0.46638 0.38892 0.0
H649 H 0.37421 0.43753 0.38264 0.0
H650 H 0.32625 0.40575 0.28946 0.0
H651 H 0.28741 0.43415 0.29584 0.0
H652 H 0.40916 0.22899 0.22561 0.0
H653 H 0.36358 0.25031 0.21754 0.0
H654 H 0.30663 0.17408 0.25161 0.0
H655 H 0.35234 0.15233 0.25888 0.0
Tb656 Tb 0.5993 0.56416 0.02085 0.0
Eu657 Eu 0.60939 0.59063 0.08786 0.0
C658 C 0.67081 0.59699 0.05153 0.0
C659 C 0.61038 0.51831 0.07499 0.0
C660 C 0.56528 0.55474 0.94055 0.0
C661 C 0.5442 0.5573 0.88692 0.0
C662 C 0.5645 0.54729 0.90891 0.0
C663 C 0.5458 0.57234 0.95005 0.0
C664 C 0.52572 0.58248 0.92815 0.0
C665 C 0.52474 0.57486 0.89651 0.0
C666 C 0.58721 0.5457 0.96407 0.0
O667 O 0.54864 0.55716 0.02924 0.0
O668 O 0.55714 0.56351 0.08178 0.0
O669 O 0.60508 0.63303 0.06187 0.0
O670 O 0.60126 0.61287 1.01262 0.0
C671 C 0.53714 0.5539 0.05576 0.0
O672 O 0.5927 0.61118 0.12637 0.0
O673 O 0.64015 0.60431 0.13208 0.0
O674 O 0.65821 0.60831 0.0735 0.0
O675 O 0.6523 0.57519 0.03173 0.0
O676 O 0.60398 0.52267 0.04492 0.0
O677 O 0.6155 0.54221 0.09523 0.0
C678 C 0.60418 0.6372 0.03179 0.0
O679 O 0.61168 0.56667 0.97611 0.0
O680 O 0.57418 0.53135 0.98544 0.0
C681 C 0.61508 0.60065 0.17557 0.0
C682 C 0.62054 0.57429 0.23129 0.0
C683 C 0.59973 0.55864 0.20523 0.0
C684 C 0.59722 0.57175 0.17728 0.0
C685 C 0.63401 0.61687 0.20221 0.0
C686 C 0.63674 0.60375 0.22994 0.0
C687 C 0.61853 0.61238 0.14564 0.0
H688 H 0.54358 0.55133 0.86243 0.0
H689 H 0.57959 0.53394 0.90128 0.0
H690 H 0.54628 0.57839 0.97444 0.0
H691 H 0.51083 0.59603 0.93579 0.0
H692 H 0.587 0.53591 0.20607 0.0
H693 H 0.58267 0.55893 0.15671 0.0
H694 H 0.6481 0.63908 0.20113 0.0
H695 H 0.65274 0.61611 0.24998 0.0
Tb696 Tb 0.83505 0.29302 0.30298 0.0
Eu697 Eu 0.86226 0.36112 0.29226 0.0
C698 C 0.84426 0.34126 0.36052 0.0
C699 C 0.78499 0.32896 0.27324 0.0
C700 C 0.81738 0.21152 0.28796 0.0
C701 C 0.82738 0.16258 0.28627 0.0
C702 C 0.8214 0.1866 0.3029 0.0
C703 C 0.81808 0.21165 0.25584 0.0
C704 C 0.82389 0.18756 0.23918 0.0
C705 C 0.82934 0.16323 0.2545 0.0
C706 C 0.81498 0.23798 0.3065 0.0
O707 O 0.84204 0.29129 0.25374 0.0
O708 O 0.86731 0.33891 0.24654 0.0
O709 O 0.90808 0.34809 0.31116 0.0
O710 O 0.88731 0.30043 0.3212 0.0
C711 C 0.85532 0.31103 0.23604 0.0
O712 O 0.85127 0.40279 0.28159 0.0
O713 O 0.90005 0.40128 0.29294 0.0
O714 O 0.85628 0.36201 0.34336 0.0
O715 O 0.83207 0.31374 0.3485 0.0
O716 O 0.79033 0.3081 0.29125 0.0
O717 O 0.80969 0.34954 0.26812 0.0
C718 C 0.9122 0.32346 0.32268 0.0
O719 O 0.84141 0.254 0.32195 0.0
O720 O 0.79828 0.25436 0.29271 0.0
C721 C 0.88465 0.44325 0.3121 0.0
C722 C 0.87073 0.48379 0.35444 0.0
C723 C 0.87129 0.48969 0.32334 0.0
C724 C 0.87819 0.46948 0.30224 0.0
C725 C 0.8876 0.43896 0.34392 0.0
C726 C 0.88082 0.4593 0.36512 0.0
C727 C 0.88041 0.41814 0.28884 0.0
H728 H 0.83168 0.14397 0.2984 0.0
H729 H 0.82102 0.18615 0.32765 0.0
H730 H 0.81514 0.23069 0.24382 0.0
H731 H 0.82547 0.18841 0.21468 0.0
H732 H 0.86368 0.50861 0.31483 0.0
H733 H 0.87564 0.47303 0.2778 0.0
H734 H 0.89246 0.41874 0.35195 0.0
H735 H 0.88053 0.45452 0.38909 0.0
Tb736 Tb 0.09802 0.58554 0.58493 0.0
Eu737 Eu 0.0607 0.59347 0.52004 0.0
C738 C 0.08509 0.52969 0.5299 0.0
C739 C 0.13481 0.62081 0.53638 0.0
C740 C 0.14216 0.60508 0.66367 0.0
C741 C 0.14151 0.62411 0.71624 0.0
C742 C 0.13453 0.60049 0.69337 0.0
C743 C 0.15964 0.63312 0.65801 0.0
C744 C 0.1673 0.65674 0.68128 0.0
C745 C 0.15652 0.65266 0.70988 0.0
C746 C 0.1265 0.5823 0.63809 0.0
O747 O 0.08373 0.6289 0.5962 0.0
O748 O 0.06585 0.63979 0.54768 0.0
O749 O 1.02418 0.57809 0.55057 0.0
O750 O 0.05324 0.55209 0.57859 0.0
C751 C 0.07419 0.64842 0.57801 0.0
O752 O 0.0584 0.61113 0.47481 0.0
O753 O 1.01565 0.58656 0.48902 0.0
O754 O 0.06622 0.54392 0.5133 0.0
O755 O 0.10253 0.5443 0.55639 0.0
O756 O 0.13154 0.61883 0.56555 0.0
O757 O 0.1121 0.60718 0.51409 0.0
C758 C 1.02568 0.55574 0.56677 0.0
O759 O 0.096 0.57919 0.63168 0.0
O760 O 0.13967 0.58233 0.61301 0.0
C761 C 1.01883 0.58224 0.43586 0.0
C762 C 1.00255 0.55338 0.3756 0.0
C763 C 0.98282 0.56968 0.38692 0.0
C764 C 0.99105 0.5842 0.41694 0.0
C765 C 1.03751 0.56453 0.42512 0.0
C766 C 1.02947 0.5503 0.39512 0.0
C767 C 1.02835 0.59902 0.46651 0.0
H768 H 0.13325 0.62048 0.7383 0.0
H769 H 0.12098 0.57911 0.69815 0.0
H770 H 0.1656 0.63724 0.63514 0.0
H771 H 0.17931 0.67855 0.67616 0.0
H772 H 0.96198 0.5722 0.37206 0.0
H773 H 0.97618 0.59751 0.42511 0.0
H774 H 0.05874 0.56234 0.43961 0.0
H775 H 0.04483 0.53763 0.38673 0.0
Tb776 Tb 0.82428 0.81608 0.28724 0.0
Eu777 Eu 0.89604 0.81591 0.31147 0.0
C778 C 0.8781 0.87022 0.27722 0.0
C779 C 0.86472 0.7916 0.23829 0.0
C780 C 0.73821 0.80044 0.28137 0.0
C781 C 0.68119 0.78399 0.27552 0.0
C782 C 0.70849 0.79551 0.26294 0.0
C783 C 0.74061 0.7928 0.3121 0.0
C784 C 0.71338 0.78157 0.32474 0.0
C785 C 0.6836 0.77756 0.30664 0.0
C786 C 0.76676 0.81332 0.26863 0.0
O787 O 0.82073 0.77224 0.30229 0.0
O788 O 0.86795 0.77876 0.33449 0.0
O789 O 0.88269 0.84099 0.3528 0.0
O790 O 0.82887 0.82813 0.33913 0.0
C791 C 0.83901 0.7635 0.32408 0.0
O792 O 0.93485 0.794 0.31624 0.0
O793 O 0.94256 0.83931 0.33571 0.0
O794 O 0.8988 0.85428 0.28192 0.0
O795 O 0.8491 0.86092 0.28238 0.0
O796 O 0.84207 0.80517 0.24288 0.0
O797 O 0.88579 0.78997 0.26255 0.0
C798 C 0.85443 0.84024 0.36024 0.0
O799 O 0.78614 0.83598 0.28534 0.0
O800 O 0.78155 0.79436 0.25902 0.0
C801 C 0.98192 0.82752 0.3108 0.0
C802 C 1.03133 0.84633 0.27713 0.0
C803 C 1.03709 0.83457 0.30564 0.0
C804 C 1.01236 0.82514 0.32247 0.0
C805 C 0.97634 0.83941 0.28236 0.0
C806 C 1.00089 0.84871 0.26556 0.0
C807 C 0.9557 0.81825 0.32803 0.0
H808 H 0.65824 0.78111 0.26144 0.0
H809 H 0.7064 0.80104 0.23909 0.0
H810 H 0.76349 0.7961 0.32645 0.0
H811 H 0.71546 0.77676 0.34882 0.0
H812 H 0.0606 0.83263 0.31469 0.0
H813 H 1.01695 0.81609 0.34446 0.0
H814 H 0.95299 0.84161 0.27327 0.0
H815 H 0.99621 0.85774 0.24356 0.0
Tb816 Tb 0.88397 0.34121 0.809 0.0
Eu817 Eu 0.81368 0.29287 0.78514 0.0
C818 C 0.82351 0.36556 0.7904 0.0
C819 C 0.84456 0.30789 0.8589 0.0
C820 C 0.95229 0.40637 0.81746 0.0
C821 C 0.94704 0.4531 0.79837 0.0
C822 C 0.93367 0.42357 0.80235 0.0
C823 C 0.98466 0.41863 0.82725 0.0
C824 C 0.9981 0.44812 0.82306 0.0
C825 C 0.9792 0.46567 0.80919 0.0
C826 C 0.93767 0.37652 0.82505 0.0
O827 O 0.89252 0.29749 0.81257 0.0
O828 O 0.84866 0.26477 0.78426 0.0
O829 O 0.82813 0.3092 0.74043 0.0
O830 O 0.8761 0.34256 0.75795 0.0
C831 C 0.87751 0.27089 0.79966 0.0
O832 O 0.78108 0.25761 0.75366 0.0
O833 O 0.76455 0.27738 0.79229 0.0
O834 O 0.80476 0.33869 0.78567 0.0
O835 O 0.85392 0.37112 0.80015 0.0
O836 O 0.86511 0.33143 0.85252 0.0
O837 O 0.82582 0.28886 0.83682 0.0
C838 C 0.85294 0.3292 0.73535 0.0
O839 O 0.91413 0.37484 0.84048 0.0
O840 O 0.9315 0.35534 0.80259 0.0
C841 C 0.73866 0.22778 0.77369 0.0
C842 C 0.70215 0.17058 0.77851 0.0
C843 C 0.73472 0.17827 0.78977 0.0
C844 C 0.7529 0.20676 0.78743 0.0
C845 C 0.70602 0.22028 0.76309 0.0
C846 C 0.68783 0.19189 0.76558 0.0
C847 C 0.75748 0.25711 0.76882 0.0
H848 H 0.93214 0.46643 0.78779 0.0
H849 H 0.90863 0.41445 0.79462 0.0
H850 H 0.99932 0.40567 0.83901 0.0
H851 H 1.02291 0.45762 0.83174 0.0
H852 H 0.74612 0.16203 0.79974 0.0
H853 H 0.77807 0.21222 0.79573 0.0
H854 H 0.6947 0.23624 0.75236 0.0
H855 H 0.66275 0.18629 0.75678 0.0
Tb856 Tb 0.84653 0.85884 0.81494 0.0
Eu857 Eu 0.81167 0.7983 0.7805 0.0
C858 C 0.83969 0.80326 0.85719 0.0
C859 C 0.89004 0.82407 0.77926 0.0
C860 C 0.84196 0.9264 0.85526 0.0
C861 C 0.79066 0.91739 0.87265 0.0
C862 C 0.81988 0.91049 0.8724 0.0
C863 C 0.83652 0.9522 0.84297 0.0
C864 C 0.80728 0.95894 0.843 0.0
C865 C 0.78342 0.94023 0.85578 0.0
C866 C 0.86266 0.91112 0.84038 0.0
O867 O 0.84309 0.86941 0.76457 0.0
O868 O 0.80614 0.82926 0.74059 0.0
O869 O 0.76861 0.80881 0.8006 0.0
O870 O 0.79699 0.85165 0.82844 0.0
C871 C 0.82459 0.85586 0.73856 0.0
O872 O 0.79323 0.76843 0.73782 0.0
O873 O 0.79456 0.75071 0.78219 0.0
O874 O 0.82262 0.78723 0.83181 0.0
O875 O 0.85404 0.83124 0.85464 0.0
O876 O 0.88922 0.84735 0.79821 0.0
O877 O 0.86361 0.80288 0.77154 0.0
C878 C 0.76974 0.83087 0.82172 0.0
O879 O 0.87085 0.88909 0.8535 0.0
O880 O 0.85261 0.90412 0.81088 0.0
C881 C 0.81589 0.72733 0.74481 0.0
C882 C 0.87082 0.70596 0.74872 0.0
C883 C 0.86714 0.72823 0.72933 0.0
C884 C 0.83993 0.73894 0.72747 0.0
C885 C 0.8183 0.70289 0.76148 0.0
C886 C 0.84565 0.69243 0.76361 0.0
C887 C 0.79371 0.745 0.75254 0.0
H888 H 0.77261 0.90306 0.88305 0.0
H889 H 0.82354 0.89064 0.88235 0.0
H890 H 0.85311 0.96482 0.82965 0.0
H891 H 0.80218 0.9769 0.83021 0.0
H892 H 0.88622 0.73871 0.71741 0.0
H893 H 0.83896 0.75783 0.71446 0.0
H894 H 0.80026 0.69362 0.77515 0.0
H895 H 0.84797 0.67497 0.77839 0.0
Tb896 Tb 0.56567 0.56279 0.55384 0.0
Eu897 Eu 0.63344 0.60333 0.60718 0.0
C898 C 0.63172 0.57445 0.53415 0.0
C899 C 0.60896 0.5306 0.59606 0.0
C900 C 0.48467 0.56539 0.53828 0.0
C901 C 0.43162 0.57331 0.52924 0.0
C902 C 0.45233 0.55484 0.5268 0.0
C903 C 0.49591 0.59454 0.55235 0.0
C904 C 0.47541 0.61299 0.55454 0.0
C905 C 0.44307 0.60262 0.54301 0.0
C906 C 0.50708 0.54646 0.53664 0.0
O907 O 0.57941 0.58888 0.59572 0.0
O908 O 0.59775 0.61357 0.63801 0.0
O909 O 0.61721 0.63673 0.57652 0.0
O910 O 0.57355 0.6081 0.54166 0.0
C911 C 0.5718 0.59908 0.62079 0.0
O912 O 0.66659 0.60832 0.65045 0.0
O913 O 0.68255 0.62876 0.6105 0.0
O914 O 0.64401 0.5791 0.56409 0.0
O915 O 0.60098 0.56718 0.52382 0.0
O916 O 0.5892 0.52843 0.56958 0.0
O917 O 0.6181 0.55492 0.6154 0.0
C918 C 0.59415 0.63333 0.55247 0.0
O919 O 0.52724 0.5534 0.5172 0.0
O920 O 0.52103 0.54177 0.56363 0.0
C921 C 0.71265 0.59902 0.63529 0.0
C922 C 0.75179 0.56005 0.62829 0.0
C923 C 0.76488 0.58918 0.64208 0.0
C924 C 0.74532 0.60865 0.64555 0.0
C925 C 0.69999 0.56987 0.62167 0.0
C926 C 0.71924 0.55058 0.61831 0.0
C927 C 0.69094 0.61864 0.63679 0.0
H928 H 0.4067 0.56483 0.52036 0.0
H929 H 0.44312 0.53238 0.51612 0.0
H930 H 0.52061 0.60305 0.5619 0.0
H931 H 0.48475 0.63538 0.56544 0.0
H932 H 0.79009 0.5968 0.64986 0.0
H933 H 0.75565 0.63109 0.65588 0.0
H934 H 0.6751 0.562 0.61319 0.0
H935 H 0.70875 0.52829 0.60755 0.0
Tb936 Tb 0.08358 0.5433 0.05243 0.0
Eu937 Eu 0.12543 0.5997 0.09674 0.0
C938 C 0.10203 0.53773 0.12491 0.0
C939 C 0.04899 0.5954 0.07803 0.0
C940 C 0.04543 0.4688 1.0099 0.0
C941 C 0.06887 0.42665 1.01049 0.0
C942 C 0.07119 0.45658 0.01873 0.0
C943 C 1.01725 0.4508 0.99336 0.0
C944 C 1.01487 0.42093 0.98527 0.0
C945 C 0.0407 0.40873 0.9936 0.0
C946 C 0.04762 0.50034 1.01697 0.0
O947 O 0.10792 0.57258 0.02215 0.0
O948 O 0.10997 0.61519 0.05038 0.0
O949 O 0.16159 0.57205 0.08643 0.0
O950 O 0.13001 0.52995 0.05865 0.0
C951 C 0.10867 0.60065 0.02361 0.0
O952 O 0.17069 0.63186 0.10326 0.0
O953 O 0.13746 0.63501 0.13486 0.0
O954 O 0.11508 0.56613 0.13105 0.0
O955 O 0.08982 0.52521 0.09685 0.0
O956 O 0.04892 0.57224 0.05831 0.0
O957 O 0.07548 0.60787 0.09734 0.0
C958 C 0.15872 0.54524 0.07236 0.0
O959 O 0.04268 0.50826 0.04458 0.0
O960 O 0.07173 0.51861 1.00891 0.0
C961 C 0.1672 0.67921 0.11958 0.0
C962 C 0.17503 0.73862 0.10783 0.0
C963 C 0.18486 0.73128 0.13774 0.0
C964 C 0.18109 0.70164 0.14356 0.0
C965 C 0.15722 0.68667 0.08976 0.0
C966 C 0.16152 0.7162 0.08379 0.0
C967 C 0.16356 0.64806 0.12521 0.0
H968 H 0.08902 0.41751 1.01699 0.0
H969 H 0.09312 0.47023 0.0316 0.0
H970 H 0.99719 0.45995 0.9864 0.0
H971 H 0.99302 0.40737 0.97217 0.0
H972 H 0.1953 0.74849 0.15651 0.0
H973 H 0.18892 0.69622 0.16666 0.0
H974 H 0.14612 0.66965 0.07106 0.0
H975 H 0.15374 0.72158 0.06066 0.0
C976 C 0.05473 0.14834 0.96062 0.0
C977 C 0.0462 0.17415 0.97152 0.0
C978 C 0.06721 0.16687 0.02494 0.0
C979 C 0.07821 0.14288 1.01338 0.0
N980 N 0.0906 0.11666 0.96945 0.0
N981 N 0.05247 0.2123 1.01373 0.0
C982 C 0.07473 0.13562 0.98094 0.0
C983 C 0.05455 0.18466 1.00366 0.0
N984 N 0.04245 0.13499 0.93138 0.0
N985 N 0.06907 0.17283 0.05624 0.0
H986 H 0.04558 0.22711 0.99893 0.0
H987 H 0.06101 0.22186 0.03638 0.0
H988 H 0.08065 0.16182 0.07241 0.0
H989 H 0.05781 0.18761 0.06592 0.0
H990 H 0.04577 0.11464 0.92344 0.0
H991 H 1.02591 0.14236 0.91644 0.0
H992 H 0.09069 0.11234 0.94576 0.0
H993 H 0.10685 0.10837 0.98367 0.0
C994 C 0.30388 0.93018 0.23428 0.0
C995 C 0.27256 0.92801 0.23972 0.0
C996 C 0.28342 0.90606 0.28829 0.0
C997 C 0.31097 0.90081 0.27836 0.0
N998 N 0.35221 0.91387 0.24715 0.0
N999 N 0.23921 0.92897 0.27855 0.0
C1000 C 0.32319 0.91557 0.25345 0.0
C1001 C 0.26481 0.92127 0.26935 0.0
N1002 N 0.31503 0.94649 0.21144 0.0
N1003 N 0.27421 0.89461 0.31457 0.0
H1004 H 0.22611 0.94075 0.26471 0.0
H1005 H 0.2327 0.92608 0.30041 0.0
H1006 H 0.28845 0.88436 0.3291 0.0
H1007 H 0.25264 0.89476 0.32164 0.0
H1008 H 0.33796 0.94972 0.20657 0.0
H1009 H 0.3022 0.95971 0.19965 0.0
H1010 H 0.36108 0.92056 0.22713 0.0
H1011 H 0.36759 0.90554 0.2624 0.0
C1012 C 0.55955 0.85447 0.44468 0.0
C1013 C 0.52944 0.83431 0.43638 0.0
C1014 C 0.50352 0.8749 0.44215 0.0
C1015 C 0.53345 0.89426 0.45361 0.0
N1016 N 0.58974 0.90236 0.46935 0.0
N1017 N 0.47259 0.82412 0.43058 0.0
C1018 C 0.56141 0.88398 0.45599 0.0
C1019 C 0.50131 0.8442 0.43585 0.0
N1020 N 0.58636 0.8459 0.44012 0.0
N1021 N 0.47734 0.88594 0.43696 0.0
H1022 H 0.47014 0.80142 0.42624 0.0
H1023 H 0.4514 0.82954 0.433 0.0
H1024 H 0.47797 0.90817 0.44222 0.0
H1025 H 0.45551 0.87364 0.42534 0.0
H1026 H 0.60853 0.86056 0.4423 0.0
H1027 H 0.58624 0.82466 0.43127 0.0
H1028 H 0.61015 0.89505 0.47533 0.0
H1029 H 0.59248 0.92465 0.4765 0.0
C1030 C 0.60521 0.42445 0.78066 0.0
C1031 C 0.60139 0.41568 0.74852 0.0
C1032 C 0.54445 0.39804 0.7467 0.0
C1033 C 0.5496 0.4004 0.7796 0.0
N1034 N 0.58297 0.41883 0.82851 0.0
N1035 N 0.56777 0.39671 0.69965 0.0
C1036 C 0.57934 0.4152 0.7968 0.0
C1037 C 0.57096 0.40409 0.73091 0.0
N1038 N 0.63379 0.44117 0.79546 0.0
N1039 N 0.51432 0.38925 0.73081 0.0
H1040 H 0.58658 0.4017 0.68718 0.0
H1041 H 0.54683 0.38465 0.68614 0.0
H1042 H 0.49454 0.38422 0.742 0.0
H1043 H 0.50865 0.38936 0.70687 0.0
H1044 H 0.6379 0.45007 0.8185 0.0
H1045 H 0.65282 0.44824 0.78358 0.0
H1046 H 0.6047 0.42653 0.8428 0.0
H1047 H 0.56391 0.41323 0.84064 0.0
C1048 C 0.08584 0.95922 0.62236 0.0
C1049 C 0.09536 0.93649 0.60477 0.0
C1050 C 0.10913 0.97667 0.5676 0.0
C1051 C 0.0957 0.99794 0.58298 0.0
N1052 N 0.0644 1.00302 0.62321 0.0
N1053 N 0.1099 0.92504 0.55506 0.0
C1054 C 0.08229 0.98722 0.60984 0.0
C1055 C 0.10529 0.94588 0.57593 0.0
N1056 N 0.08155 0.95516 0.65232 0.0
N1057 N 0.12743 0.98605 0.54561 0.0
H1058 H 0.10623 0.90278 0.5589 0.0
H1059 H 0.11366 0.92921 0.53251 0.0
H1060 H 0.13263 1.00787 0.54002 0.0
H1061 H 0.14064 0.97319 0.53581 0.0
H1062 H 0.07812 0.97172 0.66755 0.0
H1063 H 0.08527 0.93674 0.66314 0.0
H1064 H 0.051 0.99521 0.64024 0.0
H1065 H 0.05998 1.02225 0.6148 0.0
C1066 C 0.48224 0.86552 0.85748 0.0
C1067 C 0.49717 0.84178 0.85284 0.0
C1068 C 0.44634 0.81416 0.81901 0.0
C1069 C 0.43111 0.83742 0.82468 0.0
N1070 N 0.43409 0.88345 0.85406 0.0
N1071 N 0.491 0.79177 0.83131 0.0
C1072 C 0.44917 0.86268 0.84502 0.0
C1073 C 0.47832 0.8156 0.83435 0.0
N1074 N 0.49961 0.89104 0.87446 0.0
N1075 N 0.43072 0.79108 0.79757 0.0
H1076 H 0.51446 0.79249 0.83994 0.0
H1077 H 0.47798 0.7708 0.82181 0.0
H1078 H 0.40786 0.78927 0.78611 0.0
H1079 H 0.44102 0.77492 0.78927 0.0
H1080 H 0.4922 0.91056 0.87569 0.0
H1081 H 0.52228 0.89324 0.88649 0.0
H1082 H 0.44398 0.90073 0.87132 0.0
H1083 H 0.41033 0.8821 0.84621 0.0
C1084 C 0.61129 0.2134 0.13081 0.0
C1085 C 0.59103 0.23019 0.11546 0.0
C1086 C 0.57041 0.18353 0.07697 0.0
C1087 C 0.59283 0.16755 0.09054 0.0
N1088 N 0.63785 0.17298 0.13086 0.0
N1089 N 0.55404 0.23006 0.06979 0.0
C1090 C 0.61386 0.18423 0.11765 0.0
C1091 C 0.5717 0.21477 0.08728 0.0
N1092 N 0.62849 0.22532 0.15902 0.0
N1093 N 0.54566 0.16816 0.05537 0.0
H1094 H 0.55349 0.25165 0.07681 0.0
H1095 H 0.54234 0.22242 0.04736 0.0
H1096 H 0.54174 0.14558 0.04916 0.0
H1097 H 0.52677 0.17668 0.04663 0.0
H1098 H 0.6403 0.21364 0.17413 0.0
H1099 H 0.62936 0.24663 0.16821 0.0
H1100 H 0.6572 0.18539 0.14638 0.0
H1101 H 0.6394 0.15159 0.12535 0.0
C1102 C 0.20529 0.33517 0.33837 0.0
C1103 C 0.19119 0.30904 0.35223 0.0
C1104 C 0.23216 0.28623 0.33144 0.0
C1105 C 0.24837 0.31334 0.32046 0.0
N1106 N 0.24943 0.36468 0.3163 0.0
N1107 N 0.19708 0.26127 0.3658 0.0
C1108 C 0.23464 0.33803 0.32508 0.0
C1109 C 0.20618 0.28502 0.3494 0.0
N1110 N 0.18945 0.35696 0.33592 0.0
N1111 N 0.2416 0.26099 0.3251 0.0
H1112 H 0.17937 0.25959 0.3796 0.0
H1113 H 0.20924 0.24474 0.36844 0.0
H1114 H 0.2617 0.26066 0.31525 0.0
H1115 H 0.2284 0.23998 0.32806 0.0
H1116 H 0.19524 0.37449 0.3224 0.0
H1117 H 0.16841 0.35587 0.34469 0.0
H1118 H 0.24359 0.38443 0.32204 0.0
H1119 H 0.26865 0.3673 0.30435 0.0
C1120 C 1.00252 0.09133 0.14982 0.0
C1121 C 0.99894 0.06482 0.1649 0.0
C1122 C 0.05016 0.05986 0.15326 0.0
C1123 C 0.05017 0.08207 0.13279 0.0
N1124 N 1.02871 0.12113 0.1127 0.0
N1125 N 1.01862 1.0226 0.17966 0.0
C1126 C 1.02724 0.0988 0.13171 0.0
C1127 C 1.0228 0.04892 0.16666 0.0
N1128 N 0.98298 0.10962 0.15358 0.0
N1129 N 0.07655 0.04946 0.15987 0.0
H1130 H 0.99835 1.01321 0.18887 0.0
H1131 H 1.03396 1.00878 0.17871 0.0
H1132 H 0.09694 0.0576 0.15022 0.0
H1133 H 0.07927 0.03534 0.17711 0.0
H1134 H 0.9867 0.1308 0.14623 0.0
H1135 H 0.96449 0.10468 0.16648 0.0
H1136 H 1.01163 0.13309 0.10904 0.0
H1137 H 0.04722 0.12741 0.10006 0.0
C1138 C 0.30452 0.76672 0.42013 0.0
C1139 C 0.3196 0.7871 0.44639 0.0
C1140 C 0.34096 0.82349 0.4107 0.0
C1141 C 0.32479 0.80352 0.38427 0.0
N1142 N 0.28684 0.75747 0.36446 0.0
N1143 N 0.34929 0.83608 0.46682 0.0
C1144 C 0.30524 0.77561 0.38923 0.0
C1145 C 0.33701 0.81582 0.44164 0.0
N1146 N 0.2899 0.73837 0.42468 0.0
N1147 N 0.36003 0.85009 0.40623 0.0
H1148 H 0.34804 0.83088 0.48962 0.0
H1149 H 0.35914 0.85839 0.46534 0.0
H1150 H 0.3608 0.85806 0.38446 0.0
H1151 H 0.37593 0.86397 0.42386 0.0
H1152 H 0.28225 0.7212 0.40696 0.0
H1153 H 0.2873 0.7313 0.44661 0.0
H1154 H 0.26885 0.73912 0.36666 0.0
H1155 H 0.28808 0.76139 0.34139 0.0
C1156 C 0.54644 0.97596 0.66516 0.0
C1157 C 0.57393 0.96669 0.67637 0.0
C1158 C 0.59925 0.98645 0.63358 0.0
C1159 C 0.57517 1.00182 0.62672 0.0
N1160 N 0.52295 1.0073 0.63139 0.0
N1161 N 0.61549 0.94716 0.6606 0.0
C1162 C 0.54741 0.99482 0.64065 0.0
C1163 C 0.59664 0.96643 0.65677 0.0
N1164 N 0.51991 0.96655 0.67828 0.0
N1165 N 0.62576 0.99277 0.61997 0.0
H1166 H 0.61224 0.93146 0.67672 0.0
H1167 H 0.63129 0.94443 0.64565 0.0
H1168 H 0.62866 1.00776 0.60338 0.0
H1169 H 0.64559 0.98475 0.62665 0.0
H1170 H 0.49831 0.97125 0.67083 0.0
H1171 H 0.51927 0.95168 0.69532 0.0
H1172 H 0.50314 1.00532 0.64233 0.0
H1173 H 0.52281 1.02026 0.61269 0.0
C1174 C 0.35146 0.40167 0.9249 0.0
C1175 C 0.3481 0.3826 0.94951 0.0
C1176 C 0.34416 0.34033 0.90924 0.0
C1177 C 0.34633 0.35924 0.8844 0.0
N1178 N 0.34754 0.4082 0.86934 0.0
N1179 N 0.33619 0.33246 0.9629 0.0
C1180 C 0.3484 0.38991 0.89258 0.0
C1181 C 0.34332 0.3516 0.94093 0.0
N1182 N 0.35962 0.43156 0.93258 0.0
N1183 N 0.34253 0.31103 0.90252 0.0
H1184 H 0.33496 0.33958 0.98568 0.0
H1185 H 0.32889 0.30959 0.9582 0.0
H1186 H 0.33914 0.30127 0.87984 0.0
H1187 H 0.3456 0.29655 0.91927 0.0
H1188 H 0.36631 0.44704 0.91702 0.0
H1189 H 0.36251 0.44104 0.95535 0.0
H1190 H 0.34492 0.42969 0.87258 0.0
H1191 H 0.34715 0.40124 0.84615 0.0
C1192 C 1.02761 0.12038 0.3071 0.0
C1193 C 0.9955 0.10942 0.31018 0.0
C1194 C 1.00865 0.11805 0.36613 0.0
C1195 C 0.04066 0.12024 0.36302 0.0
N1196 N 0.08242 0.132 0.33271 0.0
N1197 N 0.95432 0.10666 0.34158 0.0
C1198 C 0.05083 0.12528 0.33413 0.0
C1199 C 0.98565 0.11214 0.3393 0.0
N1200 N 1.03537 0.12404 0.27812 0.0
N1201 N 0.99931 0.11833 0.39453 0.0
H1202 H 0.93686 0.10238 0.32199 0.0
H1203 H 0.94628 0.10746 0.36295 0.0
H1204 H 1.01515 0.12192 0.41531 0.0
H1205 H 1.01515 0.12192 0.41531 0.0
H1206 H 0.05824 0.13224 0.27369 0.0
H1207 H 1.01795 0.12024 0.25847 0.0
H1208 H 0.09195 0.13399 0.3122 0.0
H1209 H 0.0992 0.13581 0.35286 0.0
C1210 C 0.30501 0.77445 0.64762 0.0
C1211 C 0.32955 0.78543 0.63013 0.0
C1212 C 0.35946 0.81809 0.67672 0.0
C1213 C 0.33437 0.80779 0.69385 0.0
N1214 N 0.28031 0.78091 0.69301 0.0
N1215 N 0.37797 0.82072 0.62647 0.0
C1216 C 0.30638 0.78723 0.67854 0.0
C1217 C 0.35606 0.80831 0.64423 0.0
N1218 N 0.28037 0.75128 0.6348 0.0
N1219 N 0.38716 0.83616 0.69189 0.0
H1220 H 0.37636 0.81359 0.60306 0.0
H1221 H 0.39631 0.83937 0.63409 0.0
H1222 H 0.39048 0.84351 0.71543 0.0
H1223 H 0.4076 0.84216 0.68193 0.0
H1224 H 0.26421 0.73938 0.64754 0.0
H1225 H 0.27699 0.74268 0.61163 0.0
H1226 H 0.25808 0.76895 0.68201 0.0
H1227 H 0.28001 0.78995 0.71529 0.0
C1228 C 0.50076 0.96068 0.82783 0.0
C1229 C 0.532 0.95731 0.83061 0.0
C1230 C 0.53912 0.9678 0.88651 0.0
C1231 C 0.51294 0.98068 0.88193 0.0
N1232 N 0.4642 0.98293 0.85284 0.0
N1233 N 0.57115 0.93961 0.86259 0.0
C1234 C 0.49142 0.97376 0.85403 0.0
C1235 C 0.54786 0.95444 0.86018 0.0
N1236 N 0.48163 0.95304 0.79978 0.0
N1237 N 0.55683 0.97083 0.91528 0.0
H1238 H 0.576 0.92851 0.84309 0.0
H1239 H 0.583 0.93567 0.88365 0.0
H1240 H 0.55005 0.98001 0.93482 0.0
H1241 H 0.57808 0.96463 0.91966 0.0
H1242 H 0.45805 0.95388 0.79577 0.0
H1243 H 0.48947 0.94369 0.78096 0.0
H1244 H 0.44734 0.98057 0.833 0.0
H1245 H 0.44734 0.98057 0.833 0.0
C1246 C 0.31536 0.36531 0.14128 0.0
C1247 C 0.33572 0.39414 0.14039 0.0
C1248 C 0.35668 0.39036 0.19696 0.0
C1249 C 0.33434 0.36267 0.19878 0.0
N1250 N 0.28808 0.3275 0.17151 0.0
N1251 N 0.37373 0.43499 0.17078 0.0
C1252 C 0.31277 0.35117 0.17041 0.0
C1253 C 0.35545 0.40679 0.16935 0.0
N1254 N 0.29799 0.35105 0.11401 0.0
N1255 N 0.38095 0.4005 0.22103 0.0
H1256 H 0.37632 0.44671 0.15131 0.0
H1257 H 0.38484 0.44747 0.19158 0.0
H1258 H 0.38374 0.38966 0.24097 0.0
H1259 H 0.40029 0.418 0.22001 0.0
H1260 H 0.28577 0.32886 0.11159 0.0
H1261 H 0.2977 0.36089 0.09316 0.0
H1262 H 0.26951 0.31968 0.15325 0.0
H1263 H 0.28424 0.31759 0.19187 0.0
C1264 C 0.32456 0.02523 0.09711 0.0
C1265 C 0.30954 0.99506 0.08717 0.0
C1266 C 0.25804 1.00738 0.08172 0.0
C1267 C 0.27285 0.03625 0.09622 0.0
N1268 N 0.32003 0.07125 0.12231 0.0
N1269 N 0.26119 0.95644 0.07455 0.0
C1270 C 0.30609 0.0448 0.10521 0.0
C1271 C 0.27603 0.98583 0.08047 0.0
N1272 N 0.35632 0.03561 0.09743 0.0
N1273 N 0.22697 1.00071 0.06844 0.0
H1274 H 0.27325 0.93974 0.07499 0.0
H1275 H 0.23677 0.94839 0.07206 0.0
H1276 H 0.21287 1.01573 0.06908 0.0
H1277 H 0.21616 0.98131 0.05418 0.0
H1278 H 0.36788 0.05797 0.10168 0.0
H1279 H 0.37049 1.02248 0.08989 0.0
H1280 H 0.34378 0.07713 0.13229 0.0
H1281 H 0.3073 0.08613 0.12897 0.0
C1282 C 0.76236 0.63077 0.07636 0.0
C1283 C 0.77347 0.63872 0.04789 0.0
C1284 C 0.71712 0.61968 0.02148 0.0
C1285 C 0.70657 0.6096 0.0495 0.0
N1286 N 0.72248 0.60029 0.10226 0.0
N1287 N 0.76072 0.6348 0.99218 0.0
C1288 C 0.73027 0.61367 0.07644 0.0
C1289 C 0.75052 0.63135 0.0202 0.0
N1290 N 0.78179 0.64107 0.10392 0.0
N1291 N 0.6951 0.61982 0.99621 0.0
H1292 H 0.78452 0.64262 0.99025 0.0
H1293 H 0.7462 0.62711 0.97097 0.0
H1294 H 0.67088 0.61234 0.99615 0.0
H1295 H 0.70064 0.62991 0.97636 0.0
H1296 H 0.77409 0.63923 0.1254 0.0
H1297 H 0.80476 0.65404 0.10539 0.0
H1298 H 0.73909 0.59958 0.12147 0.0
H1299 H 0.69999 0.58715 0.10313 0.0
C1300 C 0.84982 0.54975 0.39096 0.0
C1301 C 0.81684 0.53831 0.38926 0.0
C1302 C 0.82141 0.4886 0.37444 0.0
C1303 C 0.85407 0.50041 0.37346 0.0
N1304 N 0.90113 0.53925 0.38951 0.0
N1305 N 0.77319 0.49674 0.39034 0.0
C1306 C 0.86893 0.53007 0.38497 0.0
C1307 C 0.80345 0.50753 0.38513 0.0
N1308 N 0.86232 0.57957 0.39656 0.0
N1309 N 0.80701 0.46011 0.36266 0.0
H1310 H 0.75969 0.51056 0.39788 0.0
H1311 H 0.76274 0.47427 0.3902 0.0
H1312 H 0.81916 0.44543 0.35438 0.0
H1313 H 0.78264 0.45145 0.35927 0.0
H1314 H 0.88553 0.58993 0.39464 0.0
H1315 H 0.84878 0.59408 0.40232 0.0
H1316 H 0.91367 0.55999 0.4001 0.0
H1317 H 0.91531 0.52493 0.38508 0.0
C1318 C 0.94849 0.49606 0.54183 0.0
C1319 C 0.94508 0.48293 0.57 0.0
C1320 C 0.99096 0.52098 0.59692 0.0
C1321 C 0.99671 0.53189 0.56802 0.0
N1322 N 0.98441 0.52471 0.51181 0.0
N1323 N 0.96546 0.48003 0.62361 0.0
C1324 C 0.97626 0.51826 0.54014 0.0
C1325 C 0.96701 0.49461 0.59738 0.0
N1326 N 0.9249 0.48789 0.5168 0.0
N1327 N 1.00755 0.53643 0.62404 0.0
H1328 H 0.9484 0.46054 0.62469 0.0
H1329 H 0.9827 0.48571 0.64331 0.0
H1330 H 1.02452 0.55633 0.62464 0.0
H1331 H 1.00231 0.53119 0.64589 0.0
H1332 H 0.92456 0.49924 0.49694 0.0
H1333 H 0.90424 0.47151 0.51686 0.0
H1334 H 0.97191 0.51335 0.4909 0.0
H1335 H 1.00601 0.53836 0.50931 0.0
C1336 C 0.4653 0.17234 0.25181 0.0
C1337 C 0.47021 0.16724 0.28376 0.0
C1338 C 0.42094 0.18086 0.28995 0.0
C1339 C 0.41366 0.18122 0.25725 0.0
N1340 N 0.42688 0.1722 0.20635 0.0
N1341 N 0.44785 0.15955 0.3312 0.0
C1342 C 0.4352 0.17531 0.23791 0.0
C1343 C 0.44672 0.16953 0.30235 0.0
N1344 N 0.48976 0.17608 0.23511 0.0
N1345 N 0.40418 0.19243 0.30943 0.0
H1346 H 0.46501 0.14916 0.3406 0.0
H1347 H 0.42956 0.15843 0.34423 0.0
H1348 H 0.38607 0.20237 0.30159 0.0
H1349 H 0.41072 0.19515 0.33351 0.0
H1350 H 0.488 0.18255 0.21261 0.0
H1351 H 0.51278 0.17627 0.2449 0.0
H1352 H 0.44066 0.16516 0.19131 0.0
H1353 H 0.40487 0.1739 0.1954 0.0
C1354 C 0.45999 0.12266 0.54288 0.0
C1355 C 0.45233 0.13568 0.5706 0.0
C1356 C 0.49925 0.12024 0.59927 0.0
C1357 C 0.50874 0.10996 0.57127 0.0
N1358 N 0.49916 0.10728 0.51538 0.0
N1359 N 0.47076 0.15122 0.62495 0.0
C1360 C 0.4892 0.11278 0.5429 0.0
C1361 C 0.47368 0.13547 0.59864 0.0
N1362 N 0.43853 0.11826 0.51627 0.0
N1363 N 0.51372 0.1143 0.62707 0.0
H1364 H 0.45361 0.16315 0.62562 0.0
H1365 H 0.48735 0.15507 0.64514 0.0
H1366 H 0.5314 0.1028 0.62879 0.0
H1367 H 0.50594 0.11792 0.6481 0.0
H1368 H 0.44047 0.10601 0.49623 0.0
H1369 H 0.41707 0.12418 0.51516 0.0
H1370 H 0.48859 0.11219 0.49414 0.0
H1371 H 0.51995 0.10063 0.51407 0.0
C1372 C 0.79528 0.68352 0.32509 0.0
C1373 C 0.79443 0.68137 0.35737 0.0
C1374 C 0.82214 0.73382 0.36801 0.0
C1375 C 0.82607 0.73491 0.33633 0.0
N1376 N 0.82235 0.70886 0.28606 0.0
N1377 N 0.81328 0.70299 0.41022 0.0
C1378 C 0.81455 0.70911 0.31531 0.0
C1379 C 0.80976 0.70608 0.37908 0.0
N1380 N 0.77619 0.66208 0.30354 0.0
N1381 N 0.82835 0.75937 0.38713 0.0
H1382 H 0.80532 0.68286 0.41923 0.0
H1383 H 0.82691 0.71967 0.42683 0.0
H1384 H 0.83566 0.78014 0.37931 0.0
H1385 H 0.82299 0.76009 0.40964 0.0
H1386 H 0.77368 0.66417 0.27974 0.0
H1387 H 0.76012 0.64378 0.30935 0.0
H1388 H 0.81709 0.68972 0.27082 0.0
H1389 H 0.83689 0.72707 0.2782 0.0
C1390 C 1.02013 0.54021 0.7843 0.0
C1391 C 1.01807 0.5594 0.80992 0.0
C1392 C 0.99158 0.51711 0.83524 0.0
C1393 C 0.99231 0.49798 0.80903 0.0
N1394 N 1.00294 0.49097 0.7568 0.0
N1395 N 0.99626 0.56731 0.85653 0.0
C1396 C 1.00526 0.50945 0.78294 0.0
C1397 C 1.00223 0.54817 0.83451 0.0
N1398 N 1.03727 0.55126 0.76192 0.0
N1399 N 0.98124 0.50555 0.86113 0.0
H1400 H 1.00317 0.59025 0.85646 0.0
H1401 H 0.98199 0.56065 0.87321 0.0
H1402 H 0.97198 0.48299 0.86223 0.0
H1403 H 0.98387 0.51801 0.88232 0.0
H1404 H 0.04263 0.53813 0.74437 0.0
H1405 H 0.04798 0.57372 0.76204 0.0
H1406 H 1.00883 0.49829 0.73581 0.0
H1407 H 0.99302 0.46824 0.75543 0.0
C1408 C 0.14935 0.96057 0.08012 0.0
C1409 C 0.15432 0.96094 0.11304 0.0
C1410 C 0.1116 0.98589 0.11507 0.0
C1411 C 0.11243 0.99193 0.08383 0.0
N1412 N 0.13194 0.98463 0.03571 0.0
N1413 N 0.14105 0.97601 0.1625 0.0
C1414 C 0.13086 0.97876 0.06587 0.0
C1415 C 0.13527 0.97367 0.13075 0.0
N1416 N 0.16126 0.94207 0.06241 0.0
N1417 N 0.08819 0.9922 0.12964 0.0
H1418 H 0.15922 0.96881 0.17514 0.0
H1419 H 0.12971 0.98773 0.1763 0.0
H1420 H 0.07038 1.00069 0.11798 0.0
H1421 H 0.08457 0.98598 0.15166 0.0
H1422 H 0.15596 0.93904 0.03825 0.0
H1423 H 0.17375 0.92745 0.07194 0.0
H1424 H 0.1484 0.97907 0.02298 0.0
H1425 H 0.11721 0.99617 0.02385 0.0
C1426 C 0.9089 0.21114 0.83791 0.0
C1427 C 0.94138 0.2244 0.83797 0.0
C1428 C 0.92671 0.25503 0.79746 0.0
C1429 C 0.89538 0.24763 0.80362 0.0
N1430 N 0.85425 0.21379 0.82361 0.0
N1431 N 0.98162 0.25933 0.81705 0.0
C1432 C 0.88552 0.22359 0.82139 0.0
C1433 C 0.95049 0.24574 0.81678 0.0
N1434 N 0.90079 0.187 0.85405 0.0
N1435 N 0.9336 0.27182 0.77356 0.0
H1436 H 1.00025 0.25381 0.83077 0.0
H1437 H 0.98909 0.27771 0.80508 0.0
H1438 H 0.9161 0.27873 0.75934 0.0
H1439 H 0.95545 0.27609 0.76592 0.0
H1440 H 0.87771 0.175 0.85405 0.0
H1441 H 0.91776 0.1776 0.86585 0.0
H1442 H 0.84549 0.19839 0.8385 0.0
H1443 H 0.83675 0.22155 0.81062 0.0
C1444 C 0.64668 0.30336 0.64248 0.0
C1445 C 0.67397 0.3215 0.66127 0.0
C1446 C 0.69336 0.27797 0.67416 0.0
C1447 C 0.66514 0.2596 0.65714 0.0
N1448 N 0.61311 0.25384 0.62788 0.0
N1449 N 0.72326 0.3257 0.69618 0.0
C1450 C 0.64133 0.27202 0.6418 0.0
C1451 C 0.69722 0.30886 0.67721 0.0
N1452 N 0.62625 0.31621 0.625 0.0
N1453 N 0.71667 0.26601 0.68803 0.0
H1454 H 0.72822 0.34868 0.7005 0.0
H1455 H 0.72822 0.34868 0.7005 0.0
H1456 H 0.7153 0.24336 0.68626 0.0
H1457 H 0.73771 0.27897 0.7008 0.0
H1458 H 0.60741 0.30449 0.6085 0.0
H1459 H 0.6296 0.33911 0.62532 0.0
H1460 H 0.59353 0.26137 0.61908 0.0
H1461 H 0.60834 0.23082 0.627 0.0
C1462 C 0.61801 0.78568 0.3514 0.0
C1463 C 0.60318 0.75552 0.3534 0.0
C1464 C 0.64074 0.73951 0.32414 0.0
C1465 C 0.65503 0.76966 0.32148 0.0
N1466 N 0.65566 0.82144 0.32865 0.0
N1467 N 0.59681 0.70369 0.339 0.0
C1468 C 0.64315 0.79276 0.33396 0.0
C1469 C 0.61345 0.73236 0.3389 0.0
N1470 N 0.60837 0.80755 0.36677 0.0
N1471 N 0.6538 0.71791 0.31318 0.0
H1472 H 0.57723 0.69785 0.35036 0.0
H1473 H 0.60104 0.68582 0.32638 0.0
H1474 H 0.6731 0.7224 0.30127 0.0
H1475 H 0.64673 0.69575 0.31714 0.0
H1476 H 0.62072 0.82969 0.36985 0.0
H1477 H 0.58862 0.8035 0.37804 0.0
H1478 H 0.64574 0.83893 0.33378 0.0
H1479 H 0.67508 0.82779 0.31719 0.0
C1480 C 0.11469 0.23706 0.50965 0.0
C1481 C 0.09416 0.24065 0.4821 0.0
C1482 C 0.06976 0.18468 0.48277 0.0
C1483 C 0.09221 0.18042 0.50856 0.0
N1484 N 0.14064 0.20541 0.54186 0.0
N1485 N 0.05414 0.21353 0.44062 0.0
C1486 C 0.11562 0.20764 0.52072 0.0
C1487 C 0.07257 0.21305 0.46833 0.0
N1488 N 0.13393 0.26215 0.52578 0.0
N1489 N 0.04389 0.16191 0.47278 0.0
H1490 H 0.05328 0.23307 0.43051 0.0
H1491 H 0.04137 0.19443 0.42676 0.0
H1492 H 0.04024 0.1417 0.48239 0.0
H1493 H 1.02441 0.16417 0.45752 0.0
H1494 H 0.1468 0.26251 0.54774 0.0
H1495 H 0.13485 0.28306 0.51817 0.0
H1496 H 0.16035 0.22284 0.54939 0.0
H1497 H 0.14342 0.18526 0.54932 0.0
C1498 C 0.70909 0.3558 0.23738 0.0
C1499 C 0.68574 0.32888 0.22619 0.0
C1500 C 0.72788 0.30224 0.24378 0.0
C1501 C 0.75035 0.32892 0.25756 0.0
N1502 N 0.75757 0.38088 0.27239 0.0
N1503 N 0.67315 0.27565 0.2254 0.0
C1504 C 0.73955 0.3556 0.25548 0.0
C1505 C 0.69526 0.302 0.23172 0.0
N1506 N 0.70222 0.38204 0.23096 0.0
N1507 N 0.73802 0.27697 0.23997 0.0
H1508 H 0.64973 0.27397 0.21598 0.0
H1509 H 0.67732 0.25572 0.23221 0.0
H1510 H 0.7614 0.2761 0.24645 0.0
H1511 H 0.72419 0.25773 0.22704 0.0
H1512 H 0.71906 0.40222 0.23463 0.0
H1513 H 0.68004 0.38338 0.22014 0.0
H1514 H 0.75004 0.40031 0.27474 0.0
H1515 H 0.7786 0.38156 0.28697 0.0
C1516 C 0.62597 0.94885 0.97153 0.0
C1517 C 0.61199 0.92161 0.98404 0.0
C1518 C 0.59729 0.95624 0.02462 0.0
C1519 C 0.60924 0.98329 1.0106 0.0
N1520 N 0.63257 1.00212 0.96692 0.0
N1521 N 0.58057 0.90164 0.02195 0.0
C1522 C 0.62265 0.97832 0.98295 0.0
C1523 C 0.59699 0.92626 1.01066 0.0
N1524 N 0.64453 0.94693 0.94925 0.0
N1525 N 0.58548 0.95891 0.05165 0.0
H1526 H 0.58027 0.88032 1.01314 0.0
H1527 H 0.5656 0.9021 0.03833 0.0
H1528 H 0.5823 0.97887 0.06087 0.0
H1529 H 0.58029 0.94179 0.06578 0.0
H1530 H 0.65856 0.96519 0.94113 0.0
H1531 H 0.64869 0.92695 0.94121 0.0
H1532 H 0.63784 1.00033 0.94446 0.0
H1533 H 0.6337 1.02374 0.97529 0.0
C1534 C 0.94702 0.80967 0.71872 0.0
C1535 C 0.97814 0.81659 0.73659 0.0
C1536 C 0.95153 0.82579 0.78318 0.0
C1537 C 0.92085 0.82161 0.76475 0.0
N1538 N 0.89203 0.81305 0.7125 0.0
N1539 N 1.00913 0.83463 0.78665 0.0
C1540 C 0.91952 0.81432 0.73192 0.0
C1541 C 0.97989 0.82543 0.76906 0.0
N1542 N 0.9432 0.7972 0.68892 0.0
N1543 N 0.95358 0.82863 0.81475 0.0
H1544 H 1.02982 0.83438 0.77768 0.0
H1545 H 1.01313 0.8447 0.80924 0.0
H1546 H 0.93402 0.82853 0.82576 0.0
H1547 H 0.97381 0.82825 0.83 0.0
H1548 H 0.92122 0.78784 0.67557 0.0
H1549 H 0.96206 0.79364 0.67847 0.0
H1550 H 0.89015 0.81176 0.6884 0.0
H1551 H 0.87168 0.81623 0.72029 0.0
C1552 C 0.19303 0.08351 0.9723 0.0
C1553 C 0.17582 0.08856 0.94411 0.0
C1554 C 0.12787 0.05531 0.95574 0.0
C1555 C 0.14327 0.05629 0.98641 0.0
N1556 N 0.19258 0.05487 1.01701 0.0
N1557 N 0.12736 0.07768 0.9072 0.0
C1558 C 0.17671 0.06521 0.99268 0.0
C1559 C 0.14353 0.07333 0.93488 0.0
N1560 N 0.22442 0.09716 0.98007 0.0
N1561 N 0.09868 0.03663 0.94676 0.0
H1562 H 0.13815 0.0904 0.89108 0.0
H1563 H 0.10298 0.0701 0.90094 0.0
H1564 H 0.08817 1.02205 0.96172 0.0
H1565 H 0.08676 0.03315 0.92402 0.0
H1566 H 0.2374 0.09704 1.00189 0.0
H1567 H 0.23711 0.10988 0.965 0.0
H1568 H 0.2171 0.0589 0.02163 0.0
H1569 H 0.18087 0.03896 0.02999 0.0
C1570 C 0.88357 0.35396 0.65972 0.0
C1571 C 0.85638 0.36029 0.64258 0.0
C1572 C 0.82722 0.34644 0.68599 0.0
C1573 C 0.85379 0.33854 0.70269 0.0
N1574 N 0.90478 0.32836 0.70141 0.0
N1575 N 0.80018 0.35467 0.6362 0.0
C1576 C 0.88124 0.34037 0.6883 0.0
C1577 C 0.82756 0.35384 0.65474 0.0
N1578 N 0.91206 0.36223 0.64963 0.0
N1579 N 0.80236 0.3492 0.70049 0.0
H1580 H 0.79957 0.35963 0.61314 0.0
H1581 H 0.77791 0.34738 0.6426 0.0
H1582 H 0.80098 0.34516 0.7235 0.0
H1583 H 0.78486 0.35902 0.69075 0.0
H1584 H 0.93338 0.3616 0.66294 0.0
H1585 H 0.91466 0.37161 0.62876 0.0
H1586 H 0.92392 0.32639 0.69059 0.0
H1587 H 0.90356 0.31762 0.72167 0.0
C1588 C 0.59747 0.16845 0.47285 0.0
C1589 C 0.62081 0.16397 0.45518 0.0
C1590 C 0.6465 0.14277 0.49833 0.0
C1591 C 0.61891 0.14018 0.51231 0.0
N1592 N 0.57125 0.15548 0.51741 0.0
N1593 N 0.67547 0.16375 0.45806 0.0
C1594 C 0.59562 0.15517 0.50128 0.0
C1595 C 0.64815 0.15677 0.47039 0.0
N1596 N 0.57823 0.18618 0.46297 0.0
N1597 N 0.66976 0.12983 0.51024 0.0
H1598 H 0.67701 0.17552 0.43846 0.0
H1599 H 0.69702 0.16098 0.46894 0.0
H1600 H 0.66957 0.11993 0.53104 0.0
H1601 H 0.68855 0.12783 0.49892 0.0
H1602 H 0.5614 0.19147 0.47531 0.0
H1603 H 0.58192 0.19852 0.44405 0.0
H1604 H 0.55147 0.16294 0.50913 0.0
H1605 H 0.57075 0.14757 0.53926 0.0
C1606 C 0.84124 0.74684 0.15428 0.0
C1607 C 0.87071 0.75036 0.14267 0.0
C1608 C 0.89563 0.78331 0.19204 0.0
C1609 C 0.86668 0.77773 0.20487 0.0
N1610 N 0.81297 0.74859 0.19854 0.0
N1611 N 0.927 0.76954 0.15401 0.0
C1612 C 0.83978 0.75817 0.18582 0.0
C1613 C 0.89811 0.7678 0.16277 0.0
N1614 N 0.81411 0.7323 0.13511 0.0
N1615 N 0.92073 0.80486 0.20701 0.0
H1616 H 0.92964 0.75999 0.13264 0.0
H1617 H 0.94828 0.77857 0.16869 0.0
H1618 H 0.9196 0.81731 0.22721 0.0
H1619 H 0.94144 0.81251 0.19788 0.0
H1620 H 0.79159 0.73201 0.14004 0.0
H1621 H 0.814 0.72226 0.11311 0.0
H1622 H 0.79375 0.73186 0.18782 0.0
H1623 H 0.81107 0.75515 0.22128 0.0
C1624 C 0.09883 0.0858 0.80309 0.0
C1625 C 0.11321 0.11356 0.82006 0.0
C1626 C 0.08462 0.1377 0.78229 0.0
C1627 C 0.07949 0.11227 0.76119 0.0
N1628 N 0.07417 0.05991 0.75264 0.0
N1629 N 0.10649 0.1625 0.83315 0.0
C1630 C 0.08305 0.08522 0.77235 0.0
C1631 C 0.10132 0.13828 0.81238 0.0
N1632 N 0.10122 0.06052 0.81636 0.0
N1633 N 0.07578 0.16232 0.77332 0.0
H1634 H 0.11558 0.16242 0.8565 0.0
H1635 H 0.09902 0.1814 0.82741 0.0
H1636 H 0.06346 0.16322 0.75129 0.0
H1637 H 0.06346 0.16322 0.75129 0.0
H1638 H 0.08999 0.03934 0.80602 0.0
H1639 H 0.11233 0.06124 0.83923 0.0
H1640 H 0.07941 0.04004 0.75811 0.0
H1641 H 0.06184 0.05918 0.73029 0.0
C1642 C 0.85687 0.33774 0.44985 0.0
C1643 C 0.85359 0.36592 0.46114 0.0
C1644 C 0.83827 0.37525 0.40642 0.0
C1645 C 0.84614 0.3491 0.3952 0.0
N1646 N 0.87085 0.30935 0.40817 0.0
N1647 N 0.84805 0.41435 0.44819 0.0
C1648 C 0.85751 0.33134 0.41746 0.0
C1649 C 0.84602 0.38543 0.43888 0.0
N1650 N 0.85838 0.31649 0.46983 0.0
N1651 N 0.82243 0.39009 0.38634 0.0
H1652 H 0.85542 0.42347 0.47112 0.0
H1653 H 0.84591 0.43009 0.43257 0.0
H1654 H 0.81532 0.38297 0.36279 0.0
H1655 H 0.81324 0.40743 0.39381 0.0
H1656 H 0.8578 0.29474 0.46234 0.0
H1657 H 0.85644 0.31961 0.49326 0.0
H1658 H 0.88229 0.2978 0.42382 0.0
H1659 H 0.87388 0.30494 0.38528 0.0
C1660 C 0.62362 0.17909 0.25614 0.0
C1661 C 0.63609 0.17474 0.28654 0.0
C1662 C 0.67742 0.15586 0.2667 0.0
C1663 C 0.65893 0.15169 0.23677 0.0
N1664 N 0.61585 0.16166 0.20177 0.0
N1665 N 0.68425 0.17628 0.32059 0.0
C1666 C 0.63313 0.16504 0.23082 0.0
C1667 C 0.66634 0.16885 0.29189 0.0
N1668 N 0.60227 0.19598 0.25194 0.0
N1669 N 0.70421 0.14574 0.27106 0.0
H1670 H 0.67718 0.18822 0.3381 0.0
H1671 H 0.70714 0.17371 0.32599 0.0
H1672 H 0.71307 0.1372 0.2525 0.0
H1673 H 0.71722 0.14527 0.29274 0.0
H1674 H 0.59375 0.20179 0.23031 0.0
H1675 H 0.59593 0.20668 0.27087 0.0
H1676 H 0.59474 0.16807 0.1969 0.0
H1677 H 0.62175 0.1509 0.18273 0.0
C1678 C 0.8721 0.78185 0.94097 0.0
C1679 C 0.84473 0.76356 0.95075 0.0
C1680 C 0.81391 0.77336 0.9007 0.0
C1681 C 0.84168 0.78947 0.88961 0.0
N1682 N 0.89852 0.8037 0.89899 0.0
N1683 N 0.79022 0.73767 0.93473 0.0
C1684 C 0.87104 0.79226 0.90989 0.0
C1685 C 0.8159 0.75836 0.92911 0.0
N1686 N 0.89928 0.79058 0.96194 0.0
N1687 N 0.78492 0.77328 0.88482 0.0
H1688 H 0.79052 0.72581 0.95423 0.0
H1689 H 0.76973 0.73 0.91855 0.0
H1690 H 0.7819 0.78372 0.86458 0.0
H1691 H 0.76389 0.76549 0.8934 0.0
H1692 H 0.91901 0.80645 0.95812 0.0
H1693 H 0.90108 0.7841 0.98445 0.0
H1694 H 0.92073 0.80343 0.9106 0.0
H1695 H 0.89899 0.81077 0.8768 0.0
C1696 C 0.9243 0.16271 0.05734 0.0
C1697 C 0.90067 0.16942 0.03543 0.0
C1698 C 0.91106 0.13456 0.99601 0.0
C1699 C 0.9315 0.12516 0.01918 0.0
N1700 N 0.95425 0.12738 0.07306 0.0
N1701 N 0.86794 0.15823 0.98483 0.0
C1702 C 0.93717 0.13842 0.05017 0.0
C1703 C 0.89326 0.15467 1.00484 0.0
N1704 N 0.93538 0.1803 0.08464 0.0
N1705 N 0.90858 0.12421 0.9656 0.0
H1706 H 0.8536 0.17196 0.9904 0.0
H1707 H 0.85935 0.14555 0.96363 0.0
H1708 H 0.92024 0.10856 0.95851 0.0
H1709 H 0.89693 0.13278 0.94725 0.0
H1710 H 0.95479 0.17828 0.10018 0.0
H1711 H 0.92736 0.19898 0.0902 0.0
H1712 H 0.95523 0.13348 0.09657 0.0
H1713 H 0.96522 0.11037 0.06881 0.0
C1714 C 0.4424 0.52897 0.03846 0.0
C1715 C 0.43447 0.50738 0.06001 0.0
C1716 C 0.49322 0.51449 0.07634 0.0
C1717 C 0.50134 0.53791 0.05675 0.0
N1718 N 0.48121 0.56968 0.02205 0.0
N1719 N 0.45425 0.48416 0.10353 0.0
C1720 C 0.47511 0.5456 0.03857 0.0
C1721 C 0.46057 0.5017 0.08008 0.0
N1722 N 0.41862 0.53305 1.01689 0.0
N1723 N 0.51668 0.50267 0.08997 0.0
H1724 H 0.43126 0.4745 0.10703 0.0
H1725 H 0.47157 0.48162 0.12125 0.0
H1726 H 0.54001 0.50966 0.08629 0.0
H1727 H 0.51254 0.48374 0.10179 0.0
H1728 H 0.42245 0.54539 0.99806 0.0
H1729 H 0.39499 0.52229 1.01675 0.0
H1730 H 0.46368 0.57869 1.01089 0.0
H1731 H 0.50406 0.5823 0.02174 0.0
C1732 C 0.31827 0.59612 0.71453 0.0
C1733 C 0.3489 0.60267 0.70597 0.0
C1734 C 0.35621 0.65519 0.7224 0.0
C1735 C 0.32528 0.64886 0.73032 0.0
N1736 N 0.27432 0.61497 0.72763 0.0
N1737 N 0.39319 0.63884 0.69353 0.0
C1738 C 0.30544 0.61979 0.72429 0.0
C1739 C 0.36664 0.63239 0.70729 0.0
N1740 N 0.30216 0.56735 0.71492 0.0
N1741 N 0.37627 0.68252 0.73077 0.0
H1742 H 0.40122 0.62267 0.68179 0.0
H1743 H 0.40534 0.66035 0.69095 0.0
H1744 H 0.3698 0.69994 0.74203 0.0
H1745 H 0.4002 0.68726 0.72884 0.0
H1746 H 0.28138 0.56114 0.72434 0.0
H1747 H 0.31069 0.54946 0.70776 0.0
H1748 H 0.25785 0.59487 0.72076 0.0
H1749 H 0.26432 0.6319 0.73475 0.0
C1750 C 0.19956 0.69113 0.54102 0.0
C1751 C 0.22316 0.68102 0.52753 0.0
C1752 C 0.18744 0.63107 0.51672 0.0
C1753 C 0.16364 0.64166 0.52918 0.0
N1754 N 0.14386 0.68346 0.54387 0.0
N1755 N 0.237 0.6432 0.49626 0.0
C1756 C 0.16874 0.67226 0.53835 0.0
C1757 C 0.21626 0.6515 0.5134 0.0
N1758 N 0.20692 0.71795 0.55823 0.0
N1759 N 0.18305 0.60141 0.50925 0.0
H1760 H 0.25793 0.65777 0.49289 0.0
H1761 H 0.23212 0.62291 0.48303 0.0
H1762 H 0.162 0.58604 0.51072 0.0
H1763 H 0.20086 0.59187 0.5035 0.0
H1764 H 0.19149 0.7247 0.57151 0.0
H1765 H 0.22935 0.73232 0.56184 0.0
H1766 H 0.14553 0.70603 0.54791 0.0
H1767 H 0.12083 0.67038 0.54084 0.0
C1768 C 0.70171 0.92629 0.80756 0.0
C1769 C 0.69324 0.95236 0.81719 0.0
C1770 C 0.73846 0.96406 0.85946 0.0
C1771 C 0.75007 0.9413 0.84599 0.0
N1772 N 0.74348 0.90089 0.80641 0.0
N1773 N 0.70259 0.99628 0.85256 0.0
C1774 C 0.7316 0.92201 0.82019 0.0
C1775 C 0.71096 0.97102 0.84367 0.0
N1776 N 0.68104 0.9057 0.78627 0.0
N1777 N 0.75391 0.979 0.8872 0.0
H1778 H 0.68221 1.00169 0.84206 0.0
H1779 H 0.71657 1.01262 0.86926 0.0
H1780 H 0.77415 0.97422 0.89899 0.0
H1781 H 0.74529 0.99412 0.89978 0.0
H1782 H 0.68436 0.88484 0.78043 0.0
H1783 H 0.65894 0.90847 0.77681 0.0
H1784 H 0.73281 0.88867 0.78536 0.0
H1785 H 0.76522 0.89681 0.81479 0.0
C1786 C 0.74013 0.04342 0.58245 0.0
C1787 C 0.73858 1.01281 0.57362 0.0
C1788 C 0.67894 1.00634 0.56038 0.0
C1789 C 0.68074 0.03705 0.56874 0.0
N1790 N 0.71565 0.08546 0.58132 0.0
N1791 N 0.7043 0.96584 0.55155 0.0
C1792 C 0.71211 0.0555 0.57831 0.0
C1793 C 0.70732 0.99475 0.56164 0.0
N1794 N 0.76882 0.06168 0.59467 0.0
N1795 N 0.64968 0.9874 0.55268 0.0
H1796 H 0.72238 0.95509 0.55596 0.0
H1797 H 0.68417 0.95256 0.53779 0.0
H1798 H 0.62881 0.9944 0.55041 0.0
H1799 H 0.64557 0.96447 0.55066 0.0
H1800 H 0.77154 0.08236 0.60647 0.0
H1801 H 0.79012 0.05582 0.59413 0.0
H1802 H 0.73738 0.10086 0.58449 0.0
H1803 H 0.69667 0.09522 0.57735 0.0
C1804 C 0.39392 0.461 0.76555 0.0
C1805 C 0.39478 0.46405 0.73342 0.0
C1806 C 0.38265 0.41003 0.72301 0.0
C1807 C 0.38457 0.40715 0.75548 0.0
N1808 N 0.39671 0.43023 0.80817 0.0
N1809 N 0.39585 0.44197 0.68239 0.0
C1810 C 0.39196 0.43277 0.77691 0.0
C1811 C 0.39069 0.43869 0.71232 0.0
N1812 N 0.39312 0.4848 0.78498 0.0
N1813 N 0.37271 0.38538 0.70227 0.0
H1814 H 0.40199 0.46255 0.67376 0.0
H1815 H 0.39676 0.42449 0.66688 0.0
H1816 H 0.36788 0.36395 0.70902 0.0
H1817 H 0.36721 0.38618 0.67839 0.0
H1818 H 0.38916 0.48336 0.80788 0.0
H1819 H 0.39312 0.50559 0.77743 0.0
H1820 H 0.40577 0.44829 0.82474 0.0
H1821 H 0.39398 0.41 0.81767 0.0
C1822 C 0.14343 0.60638 0.27112 0.0
C1823 C 0.15114 0.58585 0.25005 0.0
C1824 C 0.18497 0.62644 0.22815 0.0
C1825 C 0.17977 0.64661 0.25126 0.0
N1826 N 0.15634 0.65642 0.29623 0.0
N1827 N 0.18069 0.57531 0.2101 0.0
C1828 C 0.15945 0.63678 0.27306 0.0
C1829 C 0.17229 0.5956 0.22894 0.0
N1830 N 0.12075 0.5968 0.28923 0.0
N1831 N 0.20156 0.6369 0.20516 0.0
H1832 H 0.17106 0.5526 0.20937 0.0
H1833 H 0.19855 0.58066 0.19658 0.0
H1834 H 0.21181 0.65932 0.20429 0.0
H1835 H 0.20324 0.62378 0.18566 0.0
H1836 H 0.11129 0.61093 0.30224 0.0
H1837 H 0.10972 0.57454 0.2899 0.0
H1838 H 0.14501 0.65023 0.31508 0.0
H1839 H 0.16684 0.67904 0.29775 0.0
C1840 C 0.58256 0.67412 0.48132 0.0
C1841 C 0.57242 0.69843 0.49355 0.0
C1842 C 0.58161 0.68304 0.54627 0.0
C1843 C 0.59165 0.65866 0.53394 0.0
N1844 N 0.60969 0.63551 0.49164 0.0
N1845 N 0.56652 0.72912 0.53758 0.0
C1846 C 0.59441 0.65556 0.50197 0.0
C1847 C 0.5734 0.70392 0.52608 0.0
N1848 N 0.58077 0.66862 0.44988 0.0
N1849 N 0.57886 0.68556 0.57702 0.0
H1850 H 0.55875 0.74399 0.52336 0.0
H1851 H 0.57003 0.73619 0.56114 0.0
H1852 H 0.58705 0.67204 0.59262 0.0
H1853 H 0.56776 0.7003 0.58694 0.0
H1854 H 0.58371 0.64909 0.43932 0.0
H1855 H 0.57449 0.68277 0.43388 0.0
H1856 H 0.61567 0.63405 0.46944 0.0
H1857 H 0.61942 0.62229 0.50647 0.0
C1858 C 0.79925 0.42719 0.74701 0.0
C1859 C 0.77012 0.42554 0.75762 0.0
C1860 C 0.7851 0.39596 0.7989 0.0
C1861 C 0.80947 0.39076 0.78301 0.0
N1862 N 0.8432 0.40489 0.74415 0.0
N1863 N 0.74456 0.42135 0.80341 0.0
C1864 C 0.81823 0.40805 0.75824 0.0
C1865 C 0.76617 0.41444 0.78675 0.0
N1866 N 0.80885 0.4476 0.72698 0.0
N1867 N 0.77967 0.38308 0.82556 0.0
H1868 H 0.73142 0.43656 0.79697 0.0
H1869 H 0.73142 0.43656 0.79697 0.0
H1870 H 0.79378 0.37009 0.8359 0.0
H1871 H 0.76141 0.38597 0.83739 0.0
H1872 H 0.83084 0.45154 0.71965 0.0
H1873 H 0.79599 0.4631 0.72082 0.0
H1874 H 0.84801 0.41389 0.72356 0.0
H1875 H 0.8584 0.39202 0.75208 0.0
C1876 C 1.02782 0.33854 0.94041 0.0
C1877 C 1.02575 0.3169 0.96212 0.0
C1878 C 1.03442 0.35565 1.005 0.0
C1879 C 1.03821 0.37731 0.98343 0.0
N1880 N 0.04603 0.39013 0.93187 0.0
N1881 N 1.03414 0.30512 1.01522 0.0
C1882 C 1.03736 0.36895 0.95151 0.0
C1883 C 1.03118 0.32554 0.99451 0.0
N1884 N 1.01879 0.33018 0.90928 0.0
N1885 N 1.03265 0.36364 0.03521 0.0
H1886 H 1.03254 0.28298 1.00831 0.0
H1887 H 0.04119 0.31063 0.03903 0.0
H1888 H 1.03518 0.38551 0.04385 0.0
H1889 H 1.02629 0.3484 0.05113 0.0
H1890 H 1.01646 0.34513 0.89282 0.0
H1891 H 1.01069 0.30819 0.89999 0.0
H1892 H 0.04899 0.38521 0.90905 0.0
H1893 H 0.05324 0.41268 0.93926 0.0
C1894 C 0.08357 0.84638 0.2151 0.0
C1895 C 0.1067 0.87323 0.22475 0.0
C1896 C 0.07794 0.88427 0.26619 0.0
C1897 C 0.05707 0.8558 0.25888 0.0
N1898 N 0.04115 0.80833 0.22863 0.0
N1899 N 0.12836 0.91662 0.26103 0.0
C1900 C 0.0601 0.83645 0.23386 0.0
C1901 C 0.10445 0.89208 0.25055 0.0
N1902 N 0.08361 0.83086 0.18754 0.0
N1903 N 0.07206 0.90395 0.28767 0.0
H1904 H 0.14809 0.92324 0.25004 0.0
H1905 H 0.12984 0.92929 0.28186 0.0
H1906 H 0.05314 0.89875 0.30002 0.0
H1907 H 0.08438 0.9261 0.29154 0.0
H1908 H 0.06556 0.81269 0.17766 0.0
H1909 H 0.1003 0.83779 0.173 0.0
H1910 H 0.04457 0.79212 0.21299 0.0
H1911 H 1.0233 0.80038 0.24162 0.0
C1912 C 0.61835 0.43288 0.07637 0.0
C1913 C 0.61211 0.42391 0.10651 0.0
C1914 C 0.60205 0.47558 0.11512 0.0
C1915 C 0.61149 0.48569 0.08625 0.0
N1916 N 0.63651 0.47237 0.04364 0.0
N1917 N 0.60545 0.44307 0.15693 0.0
C1918 C 0.62166 0.46368 0.0682 0.0
C1919 C 0.60598 0.44716 0.12628 0.0
N1920 N 0.61993 0.41159 0.05431 0.0
N1921 N 0.58769 0.49244 0.13202 0.0
H1922 H 0.60927 0.42407 0.1665 0.0
H1923 H 0.60501 0.45988 0.17351 0.0
H1924 H 0.58341 0.5123 0.12538 0.0
H1925 H 0.57684 0.48512 0.15085 0.0
H1926 H 0.62071 0.41534 0.0311 0.0
H1927 H 0.61689 0.38942 0.05841 0.0
H1928 H 0.64753 0.45895 0.03151 0.0
H1929 H 0.64135 0.49412 0.03786 0.0
C1930 C 0.99795 0.34808 0.37241 0.0
C1931 C 1.01063 0.32254 0.37028 0.0
C1932 C 0.96013 0.29828 0.33376 0.0
C1933 C 0.94609 0.32255 0.3392 0.0
N1934 N 0.95146 0.36789 0.37121 0.0
N1935 N 0.99911 0.27089 0.35177 0.0
C1936 C 0.96512 0.34668 0.36053 0.0
C1937 C 0.99039 0.29705 0.35157 0.0
N1938 N 1.01769 0.37453 0.38492 0.0
N1939 N 0.94524 0.27661 0.3106 0.0
H1940 H 1.02016 0.26872 0.36441 0.0
H1941 H 0.98416 0.25083 0.34176 0.0
H1942 H 0.92403 0.27689 0.29682 0.0
H1943 H 0.95546 0.26005 0.30303 0.0
H1944 H 1.01101 0.39449 0.38439 0.0
H1945 H 0.04178 0.3771 0.39237 0.0
H1946 H 0.96289 0.38424 0.38908 0.0
H1947 H 0.92756 0.36713 0.36505 0.0
C1948 C 0.09851 0.73105 0.62394 0.0
C1949 C 0.07169 0.74345 0.61596 0.0
C1950 C 0.04562 0.69307 0.58532 0.0
C1951 C 0.07315 0.68127 0.59172 0.0
N1952 N 0.12801 0.69359 0.61449 0.0
N1953 N 1.0206 0.73511 0.58501 0.0
C1954 C 0.1 0.70167 0.61048 0.0
C1955 C 0.04565 0.72391 0.5955 0.0
N1956 N 0.12289 0.74725 0.64546 0.0
N1957 N 1.01829 0.67413 0.57064 0.0
H1958 H 1.01957 0.75653 0.59218 0.0
H1959 H 1.00227 0.72436 0.5675 0.0
H1960 H 1.01695 0.6521 0.56353 0.0
H1961 H 0.99639 0.67923 0.56798 0.0
H1962 H 0.14153 0.73912 0.65564 0.0
H1963 H 0.12337 0.76846 0.6548 0.0
H1964 H 0.14951 0.7079 0.62421 0.0
H1965 H 0.13028 0.6731 0.60571 0.0
C1966 C 0.71731 0.84207 0.88852 0.0
C1967 C 0.68479 0.83235 0.87374 0.0
C1968 C 0.70797 0.82564 0.82395 0.0
C1969 C 0.7402 0.83192 0.83951 0.0
N1970 N 0.77249 0.84034 0.89007 0.0
N1971 N 0.65118 0.80986 0.826 0.0
C1972 C 0.74377 0.83857 0.87271 0.0
C1973 C 0.68093 0.82293 0.84103 0.0
N1974 N 0.72359 0.85642 0.91769 0.0
N1975 N 0.70282 0.82347 0.79225 0.0
H1976 H 0.63137 0.80662 0.83713 0.0
H1977 H 0.64658 0.79948 0.80348 0.0
H1978 H 0.72118 0.826 0.77915 0.0
H1979 H 0.68088 0.82241 0.77917 0.0
H1980 H 0.74636 0.86711 0.92854 0.0
H1981 H 0.70597 0.8607 0.92958 0.0
H1982 H 0.77606 0.84153 0.91426 0.0
H1983 H 0.79201 0.83746 0.88042 0.0
C1984 C 0.4967 0.60797 0.65106 0.0
C1985 C 0.47978 0.57794 0.64966 0.0
C1986 C 0.52281 0.56209 0.62981 0.0
C1987 C 0.53967 0.59207 0.63002 0.0
N1988 N 0.54057 0.64389 0.6366 0.0
N1989 N 0.47274 0.52719 0.62983 0.0
C1990 C 0.52591 0.61516 0.63929 0.0
C1991 C 0.49141 0.55534 0.63613 0.0
N1992 N 0.48519 0.62947 0.6646 0.0
N1993 N 0.53754 0.53987 0.6259 0.0
H1994 H 0.44971 0.52112 0.63462 0.0
H1995 H 0.47899 0.51058 0.61696 0.0
H1996 H 0.56017 0.54371 0.62047 0.0
H1997 H 0.52805 0.51802 0.62988 0.0
H1998 H 0.49793 0.65139 0.66995 0.0
H1999 H 0.46296 0.62497 0.6716 0.0
H2000 H 0.53013 0.66148 0.63939 0.0
H2001 H 0.56268 0.64996 0.62973 0.0
C2002 C 0.83793 0.3156 0.94662 0.0
C2003 C 0.83657 0.28614 0.95457 0.0
C2004 C 0.84699 0.27367 0.90189 0.0
C2005 C 0.84335 0.30143 0.89244 0.0
N2006 N 0.83073 0.34766 0.90564 0.0
N2007 N 0.8323 0.23531 0.9357 0.0
C2008 C 0.83763 0.32214 0.91481 0.0
C2009 C 0.83913 0.26468 0.93111 0.0
N2010 N 0.84091 0.33773 0.96952 0.0
N2011 N 0.85936 0.25622 0.88353 0.0
H2012 H 0.82415 0.22712 0.95553 0.0
H2013 H 0.83106 0.21875 0.91815 0.0
H2014 H 0.86721 0.26299 0.86306 0.0
H2015 H 0.86545 0.23709 0.89059 0.0
H2016 H 0.84503 0.35999 0.96551 0.0
H2017 H 0.84277 0.33426 0.99302 0.0
H2018 H 0.82301 0.36206 0.92012 0.0
H2019 H 0.82996 0.3531 0.88276 0.0
C2020 C 0.0764 0.48209 0.18238 0.0
C2021 C 0.10572 0.47574 0.19337 0.0
C2022 C 0.13178 0.50884 0.1584 0.0
C2023 C 0.10347 0.51786 0.14991 0.0
N2024 N 0.04871 0.51398 0.15377 0.0
N2025 N 0.15413 0.46953 0.17716 0.0
C2026 C 0.07553 0.5044 0.16154 0.0
C2027 C 0.13146 0.48506 0.17708 0.0
N2028 N 0.04931 0.46529 0.19029 0.0
N2029 N 0.15929 0.52342 0.14935 0.0
H2030 H 0.15202 0.44938 0.18685 0.0
H2031 H 0.17207 0.474 0.16358 0.0
H2032 H 0.16082 0.54147 0.13624 0.0
H2033 H 0.18116 0.51947 0.15753 0.0
H2034 H 1.02672 0.46695 0.18134 0.0
H2035 H 0.0494 0.44733 0.20343 0.0
H2036 H 1.02844 0.5074 0.16387 0.0
H2037 H 0.04749 0.53037 0.13869 0.0
C2038 C 0.83986 0.89229 0.42941 0.0
C2039 C 0.84922 0.87916 0.45712 0.0
C2040 C 0.86455 0.84222 0.42146 0.0
C2041 C 0.85178 0.8532 0.39371 0.0
N2042 N 0.82323 0.88768 0.3731 0.0
N2043 N 0.8635 0.83604 0.47644 0.0
C2044 C 0.83792 0.87766 0.39842 0.0
C2045 C 0.85974 0.85266 0.45212 0.0
N2046 N 0.835 0.92007 0.43227 0.0
N2047 N 0.88182 0.8217 0.41896 0.0
H2048 H 0.85856 0.84146 0.49839 0.0
H2049 H 0.86774 0.81507 0.47391 0.0
H2050 H 0.88517 0.81255 0.39773 0.0
H2051 H 0.89495 0.81552 0.43806 0.0
H2052 H 0.83159 0.93229 0.41343 0.0
H2053 H 0.83809 0.93247 0.45356 0.0
H2054 H 0.80925 0.90267 0.37478 0.0
H2055 H 0.8231 0.87941 0.35037 0.0
C2056 C 0.45281 0.5733 0.83772 0.0
C2057 C 0.46812 0.5912 0.81663 0.0
C2058 C 0.51538 0.60819 0.85566 0.0
C2059 C 0.50299 0.5847 0.87301 0.0
N2060 N 0.45937 0.546 0.88273 0.0
N2061 N 0.51127 0.62933 0.80608 0.0
C2062 C 0.47118 0.56807 0.86518 0.0
C2063 C 0.49838 0.6104 0.82618 0.0
N2064 N 0.42115 0.56054 0.83081 0.0
N2065 N 0.54352 0.62773 0.86723 0.0
H2066 H 0.49824 0.63192 0.78497 0.0
H2067 H 0.53459 0.64177 0.80983 0.0
H2068 H 0.55619 0.62632 0.88891 0.0
H2069 H 0.55303 0.64651 0.85671 0.0
H2070 H 0.40808 0.54875 0.84615 0.0
H2071 H 0.40732 0.56438 0.81084 0.0
H2072 H 0.43771 0.53071 0.87614 0.0
H2073 H 0.47201 0.54196 0.90337 0.0
C2074 C 0.82172 0.28211 0.1506 0.0
C2075 C 0.8496 0.28267 0.13732 0.0
C2076 C 0.88158 0.30073 0.18921 0.0
C2077 C 0.85378 0.30184 0.2019 0.0
N2078 N 0.79799 0.29934 0.1928 0.0
N2079 N 0.90634 0.29653 0.14307 0.0
C2080 C 0.82406 0.29417 0.182 0.0
C2081 C 0.87962 0.29315 0.15645 0.0
N2082 N 0.7928 0.26859 0.13379 0.0
N2083 N 0.90976 0.30586 0.2087 0.0
H2084 H 0.90566 0.29134 0.11936 0.0
H2085 H 0.9289 0.30673 0.15473 0.0
H2086 H 0.91202 0.31162 0.23252 0.0
H2087 H 0.93038 0.30233 0.20184 0.0
H2088 H 0.77202 0.26403 0.1434 0.0
H2089 H 0.78971 0.25958 0.11083 0.0
H2090 H 0.77642 0.29745 0.17865 0.0
H2091 H 0.79868 0.30824 0.21539 0.0
C2092 C 0.99922 0.49795 0.30957 0.0
C2093 C 1.01321 0.5172 0.28881 0.0
C2094 C 1.00781 0.5602 0.31995 0.0
C2095 C 0.99732 0.54126 0.34268 0.0
N2096 N 0.97262 0.49264 0.35496 0.0
N2097 N 1.0199 0.56415 0.26751 0.0
C2098 C 0.98915 0.51015 0.33581 0.0
C2099 C 1.01326 0.54749 0.29156 0.0
N2100 N 0.99737 0.46839 0.30495 0.0
N2101 N 1.01517 0.59023 0.32654 0.0
H2102 H 1.02429 0.55511 0.24663 0.0
H2103 H 1.01801 0.58593 0.26703 0.0
H2104 H 1.01104 0.60046 0.34686 0.0
H2105 H 1.02682 0.60508 0.31258 0.0
H2106 H 0.99051 0.45332 0.32086 0.0
H2107 H 1.00358 0.45918 0.28506 0.0
H2108 H 0.96407 0.46982 0.35036 0.0
H2109 H 0.96513 0.50161 0.37421 0.0
C2110 C 0.79847 0.88482 0.65577 0.0
C2111 C 0.82769 0.89903 0.64588 0.0
C2112 C 0.85476 0.88343 0.69533 0.0
C2113 C 0.82551 0.87084 0.70633 0.0
N2114 N 0.76923 0.86494 0.697 0.0
N2115 N 0.88398 0.91502 0.66066 0.0
C2116 C 0.79739 0.8729 0.68624 0.0
C2117 C 0.85577 0.89896 0.66698 0.0
N2118 N 0.77122 0.88189 0.63544 0.0
N2119 N 0.88219 0.87961 0.71135 0.0
H2120 H 0.88598 0.92589 0.64054 0.0
H2121 H 0.90495 0.91964 0.67635 0.0
H2122 H 0.88312 0.86929 0.73184 0.0
H2123 H 0.90367 0.88425 0.70301 0.0
H2124 H 0.74938 0.86902 0.6387 0.0
H2125 H 0.77096 0.89039 0.61384 0.0
H2126 H 0.74826 0.86876 0.68595 0.0
H2127 H 0.76734 0.857 0.71867 0.0
C2128 C 0.78545 0.49241 0.63523 0.0
C2129 C 0.80305 0.49451 0.61024 0.0
C2130 C 0.78735 0.53994 0.59714 0.0
C2131 C 0.77164 0.53897 0.62348 0.0
N2132 N 0.75896 0.51688 0.67011 0.0
N2133 N 0.82569 0.52287 0.57083 0.0
C2134 C 0.77169 0.51594 0.64331 0.0
C2135 C 0.80531 0.51896 0.59205 0.0
N2136 N 0.78088 0.46736 0.65046 0.0
N2137 N 0.78425 0.56032 0.57641 0.0
H2138 H 0.83935 0.5081 0.5664 0.0
H2139 H 0.8311 0.54199 0.55945 0.0
H2140 H 0.77197 0.57653 0.57968 0.0
H2141 H 0.79187 0.55987 0.55488 0.0
H2142 H 0.7656 0.46313 0.66666 0.0
H2143 H 0.79021 0.44949 0.64497 0.0
H2144 H 0.76095 0.50248 0.68719 0.0
H2145 H 0.7485 0.53369 0.67656 0.0
C2146 C 0.25199 0.13584 0.57038 0.0
C2147 C 0.26337 0.14484 0.54229 0.0
C2148 C 0.20634 0.13188 0.51683 0.0
C2149 C 0.19527 0.12047 0.54414 0.0
N2150 N 0.2105 0.10596 0.59494 0.0
N2151 N 0.24973 0.14466 0.48693 0.0
C2152 C 0.21904 0.1209 0.57026 0.0
C2153 C 0.23993 0.14082 0.51508 0.0
N2154 N 0.27213 0.14298 0.59794 0.0
N2155 N 0.18484 0.13591 0.4928 0.0
H2156 H 0.27356 0.15014 0.48446 0.0
H2157 H 0.23443 0.13924 0.46586 0.0
H2158 H 0.1606 0.13088 0.49328 0.0
H2159 H 0.19122 0.1471 0.4738 0.0
H2160 H 0.26459 0.14042 0.61944 0.0
H2161 H 0.2958 0.15412 0.59966 0.0
H2162 H 0.22684 0.1026 0.61318 0.0
H2163 H 0.1874 0.09415 0.59557 0.0
C2164 C 0.289 0.05922 0.83881 0.0
C2165 C 0.2556 0.04925 0.83116 0.0
C2166 C 0.26017 1.00025 0.81242 0.0
C2167 C 0.29353 1.01107 0.8174 0.0
N2168 N 0.34027 0.05066 0.83309 0.0
N2169 N 0.20886 1.01146 0.80954 0.0
C2170 C 0.30815 0.04045 0.83025 0.0
C2171 C 0.24101 1.02004 0.81769 0.0
N2172 N 0.30237 0.08669 0.85409 0.0
N2173 N 0.24697 0.97092 0.8032 0.0
H2174 H 0.19395 0.02476 0.81484 0.0
H2175 H 0.1969 0.99181 0.79625 0.0
H2176 H 0.26028 0.9559 0.79849 0.0
H2177 H 0.2231 0.96084 0.80222 0.0
H2178 H 0.32617 0.09398 0.86355 0.0
H2179 H 0.2894 0.10189 0.85909 0.0
H2180 H 0.35227 0.07273 0.83882 0.0
H2181 H 0.35509 0.03725 0.82785 0.0
C2182 C 0.47678 0.98773 0.08948 0.0
C2183 C 0.45892 0.97163 0.06149 0.0
C2184 C 0.50095 0.99501 0.03304 0.0
C2185 C 0.51609 1.01447 0.05985 0.0
N2186 N 0.51685 0.03127 0.11328 0.0
N2187 N 0.45194 0.96385 1.00541 0.0
C2188 C 0.50365 1.01129 0.08808 0.0
C2189 C 0.47051 0.97614 0.03293 0.0
N2190 N 0.46879 0.97978 0.11751 0.0
N2191 N 0.5161 0.99363 1.00796 0.0
H2192 H 0.42905 0.95067 1.0039 0.0
H2193 H 0.45815 0.96915 0.98386 0.0
H2194 H 0.53836 1.00706 1.00702 0.0
H2195 H 0.50787 0.97719 0.98951 0.0
H2196 H 0.48264 0.9888 0.13873 0.0
H2197 H 0.45007 0.96193 0.11954 0.0
H2198 H 0.50671 0.03202 0.13341 0.0
H2199 H 0.5366 0.04869 0.11316 0.0
C2200 C 0.9576 0.71156 0.7798 0.0
C2201 C 0.95903 0.68183 0.77338 0.0
C2202 C 0.90448 0.66967 0.74589 0.0
C2203 C 0.9018 0.69831 0.75566 0.0
N2204 N 0.92432 0.74524 0.78638 0.0
N2205 N 0.93202 0.63115 0.75518 0.0
C2206 C 0.92799 0.719 0.77377 0.0
C2207 C 0.93201 0.66048 0.75761 0.0
N2208 N 0.98465 0.73288 0.79067 0.0
N2209 N 0.88098 0.65146 0.72489 0.0
H2210 H 0.95128 0.62323 0.7643 0.0
H2211 H 0.91188 0.61435 0.74687 0.0
H2212 H 0.86057 0.6576 0.71562 0.0
H2213 H 0.88306 0.63153 0.71446 0.0
H2214 H 0.98554 0.75542 0.79246 0.0
H2215 H 1.00681 0.7283 0.79512 0.0
H2216 H 0.94167 0.75967 0.80245 0.0
H2217 H 0.903 0.75151 0.78305 0.0
C2218 C 0.97254 0.62548 0.04954 0.0
C2219 C 0.96221 0.63454 0.07765 0.0
C2220 C 1.00636 0.61459 0.10575 0.0
C2221 C 1.01865 0.6086 0.07786 0.0
N2222 N 1.01557 0.61628 0.02367 0.0
N2223 N 0.97627 0.64238 0.13346 0.0
C2224 C 1.00211 0.6162 0.04998 0.0
C2225 C 0.98108 0.63018 0.10592 0.0
N2226 N 0.9534 0.62431 0.02186 0.0
N2227 N 1.01803 0.60442 0.13246 0.0
H2228 H 0.9597 0.65483 0.13494 0.0
H2229 H 0.99109 0.64303 0.1544 0.0
H2230 H 1.03559 0.59278 0.13342 0.0
H2231 H 1.00808 0.6048 0.15274 0.0
H2232 H 0.95763 0.6151 1.00103 0.0
H2233 H 0.93146 0.62935 0.0202 0.0
H2234 H 1.00695 0.62435 1.00334 0.0
H2235 H 1.03752 0.61167 0.02348 0.0
C2236 C 0.26035 0.2093 0.81779 0.0
C2237 C 0.27126 0.19642 0.84442 0.0
C2238 C 0.32306 0.23175 0.84947 0.0
C2239 C 0.31252 0.24314 0.82157 0.0
N2240 N 0.2745 0.23715 0.77485 0.0
N2241 N 0.31432 0.19159 0.88273 0.0
C2242 C 0.28219 0.23009 0.8044 0.0
C2243 C 0.30305 0.20654 0.85951 0.0
N2244 N 0.22882 0.20263 0.806 0.0
N2245 N 0.35148 0.24561 0.86694 0.0
H2246 H 0.30022 0.17323 0.89075 0.0
H2247 H 0.33809 0.19597 0.8924 0.0
H2248 H 0.36702 0.26361 0.85993 0.0
H2249 H 0.35874 0.24051 0.88926 0.0
H2250 H 0.21927 0.21372 0.78854 0.0
H2251 H 0.21168 0.18827 0.81582 0.0
H2252 H 0.25383 0.22625 0.76009 0.0
H2253 H 0.29042 0.2517 0.76396 0.0
C2254 C 0.53356 0.03381 0.31567 0.0
C2255 C 0.53635 0.05205 0.34363 0.0
C2256 C 0.50737 1.00989 0.36752 0.0
C2257 C 0.50497 0.9916 0.3397 0.0
N2258 N 0.52047 0.98408 0.28965 0.0
N2259 N 0.531 0.05706 0.39785 0.0
C2260 C 0.51948 1.00298 0.31444 0.0
C2261 C 0.52502 0.03989 0.37017 0.0
N2262 N 0.54408 0.04609 0.29019 0.0
N2263 N 0.49154 0.99887 0.39081 0.0
H2264 H 0.54238 0.07951 0.40037 0.0
H2265 H 0.5267 0.04873 0.41887 0.0
H2266 H 0.47885 0.97689 0.38995 0.0
H2267 H 0.48923 1.01178 0.41019 0.0
H2268 H 0.53918 0.03497 0.26802 0.0
H2269 H 0.55665 0.06809 0.2908 0.0
H2270 H 0.53344 0.99027 0.27188 0.0
H2271 H 0.51022 0.9614 0.28795 0.0
C2272 C 0.6491 0.48645 0.65077 0.0
C2273 C 0.66098 0.46837 0.63068 0.0
C2274 C 0.63782 0.49029 0.58618 0.0
C2275 C 0.62232 0.50529 0.60611 0.0
N2276 N 0.60673 0.50958 0.65685 0.0
N2277 N 0.66004 0.44821 0.57816 0.0
C2278 C 0.62586 0.50071 0.63821 0.0
C2279 C 0.65336 0.46874 0.59802 0.0
N2280 N 0.66111 0.49145 0.68174 0.0
N2281 N 0.63979 0.49779 0.55667 0.0
H2282 H 0.67041 0.43148 0.58574 0.0
H2283 H 0.65223 0.44601 0.55428 0.0
H2284 H 0.63021 0.51428 0.54744 0.0
H2285 H 0.65376 0.48972 0.54257 0.0
H2286 H 0.65497 0.50663 0.6967 0.0
H2287 H 0.68 0.48342 0.69167 0.0
H2288 H 0.60679 0.5045 0.67981 0.0
H2289 H 0.58829 0.51866 0.64826 0.0
C2290 C 0.42596 0.73237 0.29444 0.0
C2291 C 0.42912 0.72622 0.32596 0.0
C2292 C 0.37876 0.73744 0.33098 0.0
C2293 C 0.37862 0.74911 0.30153 0.0
N2294 N 0.39456 0.74812 0.25114 0.0
N2295 N 0.40068 0.70655 0.36631 0.0
C2296 C 0.39963 0.74296 0.2817 0.0
C2297 C 0.40275 0.7231 0.34159 0.0
N2298 N 0.449 0.72917 0.27754 0.0
N2299 N 0.3578 0.74195 0.34985 0.0
H2300 H 0.41688 0.69408 0.37273 0.0
H2301 H 0.38089 0.70196 0.37747 0.0
H2302 H 0.33904 0.7511 0.34268 0.0
H2303 H 0.35982 0.73768 0.37312 0.0
H2304 H 0.45022 0.73566 0.25525 0.0
H2305 H 0.46719 0.71964 0.2864 0.0
H2306 H 0.40818 0.74336 0.2348 0.0
H2307 H 0.37491 0.75541 0.24171 0.0
C2308 C 0.15519 0.81258 0.1017 0.0
C2309 C 0.18602 0.83133 0.10534 0.0
C2310 C 0.208 0.7884 0.0995 0.0
C2311 C 0.178 0.76993 0.10204 0.0
N2312 N 0.12166 0.76386 0.10065 0.0
N2313 N 0.23759 0.83735 0.09087 0.0
C2314 C 0.1511 0.78174 0.10086 0.0
C2315 C 0.21131 0.81939 0.09888 0.0
N2316 N 0.12933 0.82394 0.10012 0.0
N2317 N 0.23342 0.77645 0.09894 0.0
H2318 H 0.2392 0.85962 0.08794 0.0
H2319 H 0.25588 0.82957 0.08344 0.0
H2320 H 0.2314 0.75368 0.09784 0.0
H2321 H 0.25658 0.7891 0.10095 0.0
H2322 H 0.13055 0.84652 0.09968 0.0
H2323 H 0.13055 0.84652 0.09968 0.0
H2324 H 0.10163 0.77219 0.10038 0.0
H2325 H 0.11727 0.74096 0.10094 0.0
C2326 C 0.10316 0.28496 0.83632 0.0
C2327 C 0.1038 0.25983 0.85301 0.0
C2328 C 0.15503 0.25847 0.83827 0.0
C2329 C 0.15554 0.28488 0.82366 0.0
N2330 N 0.13338 0.32664 0.81397 0.0
N2331 N 0.13374 0.22741 0.87651 0.0
C2332 C 0.13058 0.29919 0.82428 0.0
C2333 C 0.13074 0.24794 0.85592 0.0
N2334 N 0.07597 0.29437 0.83058 0.0
N2335 N 0.17709 0.24284 0.83442 0.0
H2336 H 0.11691 0.21982 0.8907 0.0
H2337 H 0.1543 0.22013 0.88175 0.0
H2338 H 0.19528 0.24972 0.82152 0.0
H2339 H 0.17565 0.22176 0.84165 0.0
H2340 H 0.07318 0.31046 0.81561 0.0
H2341 H 0.05519 0.28439 0.83858 0.0
H2342 H 0.11743 0.3395 0.81691 0.0
H2343 H 0.15316 0.33772 0.80496 0.0
C2344 C 0.62784 0.72683 0.02658 0.0
C2345 C 0.61369 0.73195 0.99604 0.0
C2346 C 0.59 0.67552 0.99047 0.0
C2347 C 0.60717 0.67009 0.0194 0.0
N2348 N 0.64928 0.69403 0.06072 0.0
N2349 N 0.5862 0.70598 0.94687 0.0
C2350 C 0.62782 0.69686 0.03609 0.0
C2351 C 0.59612 0.70472 0.97767 0.0
N2352 N 0.64045 0.75071 0.04784 0.0
N2353 N 0.56622 0.65293 0.97526 0.0
H2354 H 0.59093 0.72548 0.93606 0.0
H2355 H 0.57661 0.68719 0.93133 0.0
H2356 H 0.55986 0.63248 0.98404 0.0
H2357 H 0.55049 0.65558 0.95611 0.0
H2358 H 0.64793 0.7488 0.07119 0.0
H2359 H 0.63994 0.7722 0.04313 0.0
H2360 H 0.66728 0.71173 0.07181 0.0
H2361 H 0.65156 0.67358 0.06767 0.0
C2362 C 0.19486 0.86555 0.72708 0.0
C2363 C 0.16845 0.84037 0.72459 0.0
C2364 C 0.20608 0.81553 0.75551 0.0
C2365 C 0.23332 0.8391 0.75408 0.0
N2366 N 0.2517 0.88395 0.7299 0.0
N2367 N 0.15333 0.78811 0.73118 0.0
C2368 C 0.22703 0.86342 0.73761 0.0
C2369 C 0.17536 0.81453 0.73747 0.0
N2370 N 0.18941 0.89222 0.72026 0.0
N2371 N 0.20883 0.79427 0.77516 0.0
H2372 H 0.13156 0.78554 0.71717 0.0
H2373 H 0.15817 0.76811 0.73689 0.0
H2374 H 0.22966 0.79484 0.79001 0.0
H2375 H 0.18947 0.77819 0.77946 0.0
H2376 H 0.20696 0.91194 0.72455 0.0
H2377 H 0.16673 0.89513 0.71383 0.0
H2378 H 0.2486 0.90044 0.71554 0.0
H2379 H 0.27502 0.88233 0.73429 0.0
C2380 C 0.05723 0.44248 0.49789 0.0
C2381 C 0.08568 0.43205 0.49859 0.0
C2382 C 0.11422 0.4863 0.51699 0.0
C2383 C 0.08565 0.49585 0.51911 0.0
N2384 N 1.02984 0.47766 0.51811 0.0
N2385 N 0.14198 0.44646 0.51532 0.0
C2386 C 0.05729 0.47228 0.51118 0.0
C2387 C 0.11426 0.45486 0.50983 0.0
N2388 N 1.02949 0.42441 0.48296 0.0
N2389 N 0.14193 0.50757 0.52074 0.0
H2390 H 0.14325 0.42457 0.51154 0.0
H2391 H 0.16305 0.4605 0.52661 0.0
H2392 H 0.14305 0.52994 0.52571 0.0
H2393 H 0.16313 0.50347 0.51605 0.0
H2394 H 1.00867 0.4314 0.47842 0.0
H2395 H 1.02802 0.40364 0.47195 0.0
H2396 H 1.00885 0.46131 0.51634 0.0
H2397 H 1.02928 0.49771 0.5294 0.0
C2398 C 0.47548 0.2827 0.24635 0.0
C2399 C 0.49486 0.30664 0.23298 0.0
C2400 C 0.45414 0.33506 0.24382 0.0
C2401 C 0.43682 0.31234 0.26011 0.0
N2402 N 0.43841 0.26674 0.28255 0.0
N2403 N 0.5043 0.35918 0.22822 0.0
C2404 C 0.44979 0.28689 0.26291 0.0
C2405 C 0.48449 0.33372 0.23436 0.0
N2406 N 0.48021 0.255 0.24207 0.0
N2407 N 0.44105 0.35778 0.23572 0.0
H2408 H 0.52702 0.36019 0.22351 0.0
H2409 H 0.49976 0.37994 0.23174 0.0
H2410 H 0.4191 0.35927 0.24085 0.0
H2411 H 0.45032 0.3732 0.22099 0.0
H2412 H 0.46559 0.23634 0.24886 0.0
H2413 H 0.49622 0.24994 0.22852 0.0
H2414 H 0.44874 0.24952 0.28852 0.0
H2415 H 0.42096 0.26918 0.29565 0.0
C2416 C 0.66871 0.56592 0.46089 0.0
C2417 C 0.69476 0.59107 0.46632 0.0
C2418 C 0.67981 0.60484 0.51565 0.0
C2419 C 0.65433 0.57885 0.51136 0.0
N2420 N 0.62877 0.53155 0.48245 0.0
N2421 N 0.73025 0.62941 0.50189 0.0
C2422 C 0.65009 0.55836 0.48477 0.0
C2423 C 0.70213 0.60863 0.49489 0.0
N2424 N 0.66081 0.55007 0.43237 0.0
N2425 N 0.68111 0.62744 0.53752 0.0
H2426 H 0.74691 0.6327 0.48676 0.0
H2427 H 0.73832 0.64098 0.52377 0.0
H2428 H 0.66351 0.62756 0.55104 0.0
H2429 H 0.69744 0.64785 0.53943 0.0
H2430 H 0.63973 0.534 0.42557 0.0
H2431 H 0.67452 0.55422 0.4147 0.0
H2432 H 0.62727 0.51456 0.46533 0.0
H2433 H 0.6143 0.52521 0.49903 0.0
C2434 C 0.38281 0.85657 0.15626 0.0
C2435 C 0.35715 0.86522 0.13886 0.0
C2436 C 0.32719 0.85538 0.18271 0.0
C2437 C 0.35231 0.84561 0.19975 0.0
N2438 N 0.40161 0.83178 0.20002 0.0
N2439 N 0.30291 0.86788 0.13345 0.0
C2440 C 0.37942 0.84474 0.18568 0.0
C2441 C 0.32878 0.86302 0.15157 0.0
N2442 N 0.41105 0.86107 0.14547 0.0
N2443 N 0.30223 0.85875 0.19675 0.0
H2444 H 0.30302 0.87299 0.1105 0.0
H2445 H 0.28062 0.86431 0.14002 0.0
H2446 H 0.29942 0.8527 0.21887 0.0
H2447 H 0.28555 0.86976 0.18766 0.0
H2448 H 0.43182 0.8588 0.15857 0.0
H2449 H 0.41425 0.86901 0.12401 0.0
H2450 H 0.42019 0.82747 0.1897 0.0
H2451 H 0.39993 0.82299 0.22135 0.0
C2452 C 0.12326 0.65019 0.95777 0.0
C2453 C 0.09447 0.63924 0.93703 0.0
C2454 C 0.07499 0.60366 0.97322 0.0
C2455 C 0.10362 0.61476 0.99433 0.0
N2456 N 0.15395 0.65016 1.00858 0.0
N2457 N 0.04047 0.60988 0.92731 0.0
C2458 C 0.12731 0.63878 0.9873 0.0
C2459 C 0.06954 0.61747 0.94559 0.0
N2460 N 0.14699 0.67089 0.94867 0.0
N2461 N 0.05323 0.5792 0.97898 0.0
H2462 H 1.03551 0.61813 0.90606 0.0
H2463 H 1.0203 0.59717 0.93431 0.0
H2464 H 0.05429 0.5698 1.0 0.0
H2465 H 1.03465 0.56719 0.96236 0.0
H2466 H 0.1699 0.6776 0.96079 0.0
H2467 H 0.14392 0.68088 0.92806 0.0
H2468 H 0.1705 0.66967 1.00669 0.0
H2469 H 0.15907 0.64061 0.02907 0.0
C2470 C 0.3882 0.27886 0.64895 0.0
C2471 C 0.36492 0.25304 0.63479 0.0
C2472 C 0.33908 0.25486 0.68275 0.0
C2473 C 0.36075 0.28217 0.69595 0.0
N2474 N 0.40427 0.32175 0.6877 0.0
N2475 N 0.31476 0.21981 0.63728 0.0
C2476 C 0.3849 0.29441 0.6779 0.0
C2477 C 0.33944 0.2422 0.65153 0.0
N2478 N 0.41427 0.28826 0.63512 0.0
N2479 N 0.3192 0.23959 0.70085 0.0
H2480 H 0.31411 0.20985 0.61509 0.0
H2481 H 0.29373 0.21298 0.64613 0.0
H2482 H 0.31926 0.2469 0.72384 0.0
H2483 H 0.30528 0.21822 0.69438 0.0
H2484 H 0.43416 0.30444 0.6455 0.0
H2485 H 0.41693 0.27818 0.61402 0.0
H2486 H 0.41967 0.33372 0.67432 0.0
H2487 H 0.4032 0.33371 0.70822 0.0
C2488 C 0.66832 0.5408 0.29042 0.0
C2489 C 0.664 0.55755 0.31675 0.0
C2490 C 0.61764 0.5686 0.28721 0.0
C2491 C 0.62816 0.55997 0.25969 0.0
N2492 N 0.66059 0.53405 0.23425 0.0
N2493 N 0.62516 0.57172 0.34375 0.0
C2494 C 0.65197 0.544 0.26099 0.0
C2495 C 0.6353 0.56627 0.31633 0.0
N2496 N 0.68705 0.52137 0.29382 0.0
N2497 N 0.59222 0.58079 0.28515 0.0
H2498 H 0.63719 0.568 0.36492 0.0
H2499 H 0.60372 0.57693 0.3454 0.0
H2500 H 0.57842 0.5815 0.26386 0.0
H2501 H 0.58517 0.59055 0.3041 0.0
H2502 H 0.68957 0.50713 0.2756 0.0
H2503 H 0.6965 0.51673 0.31571 0.0
H2504 H 0.68048 0.52571 0.23385 0.0
H2505 H 0.64855 0.53528 0.21225 0.0
C2506 C 0.34373 0.89112 0.93419 0.0
C2507 C 0.34684 0.86874 0.95455 0.0
C2508 C 0.34047 0.83354 0.90796 0.0
C2509 C 0.33385 0.85504 0.88774 0.0
N2510 N 0.32126 0.90234 0.88363 0.0
N2511 N 0.33948 0.81644 0.95935 0.0
C2512 C 0.33307 0.88321 0.90151 0.0
C2513 C 0.34257 0.8393 0.94095 0.0
N2514 N 0.35278 0.92027 0.94541 0.0
N2515 N 0.34678 0.80822 0.89613 0.0
H2516 H 0.33937 0.81939 0.9832 0.0
H2517 H 0.33334 0.79431 0.95038 0.0
H2518 H 0.34747 0.80357 0.87266 0.0
H2519 H 0.35488 0.79339 0.91014 0.0
H2520 H 0.35399 0.93743 0.93103 0.0
H2521 H 0.36257 0.9275 0.96846 0.0
H2522 H 0.31747 0.92205 0.89288 0.0
H2523 H 0.31186 0.89692 0.86016 0.0
C2524 C 0.12085 0.70373 0.75296 0.0
C2525 C 0.12997 0.69452 0.78226 0.0
C2526 C 0.1733 0.67886 0.76289 0.0
C2527 C 0.15674 0.67778 0.73242 0.0
N2528 N 0.11851 0.69479 0.6975 0.0
N2529 N 0.17478 0.69074 0.81838 0.0
C2530 C 0.13252 0.69315 0.72703 0.0
C2531 C 0.15988 0.6881 0.78844 0.0
N2532 N 0.10028 0.72148 0.75025 0.0
N2533 N 0.20017 0.66889 0.76692 0.0
H2534 H 0.16563 0.69953 0.83658 0.0
H2535 H 0.19698 0.68688 0.82481 0.0
H2536 H 0.21014 0.6628 0.74794 0.0
H2537 H 0.21242 0.66673 0.78846 0.0
H2538 H 0.09401 0.73063 0.72982 0.0
H2539 H 0.09221 0.72927 0.76976 0.0
H2540 H 0.09816 0.7024 0.6924 0.0
H2541 H 0.12679 0.68773 0.67794 0.0
C2542 C 0.37823 0.26892 0.43027 0.0
C2543 C 0.34917 0.25875 0.44237 0.0
C2544 C 0.32241 0.27513 0.39401 0.0
C2545 C 0.35059 0.28186 0.38015 0.0
N2546 N 0.40519 0.28042 0.38533 0.0
N2547 N 0.29228 0.24641 0.4294 0.0
C2548 C 0.37842 0.27742 0.39851 0.0
C2549 C 0.32101 0.26036 0.42238 0.0
N2550 N 0.40617 0.27202 0.44958 0.0
N2551 N 0.29692 0.28445 0.38108 0.0
H2552 H 0.28973 0.23404 0.4484 0.0
H2553 H 0.27118 0.24415 0.4143 0.0
H2554 H 0.29758 0.2967 0.36193 0.0
H2555 H 0.27686 0.28327 0.39157 0.0
H2556 H 0.42802 0.28212 0.44369 0.0
H2557 H 0.40738 0.26738 0.47271 0.0
H2558 H 0.42523 0.27436 0.3956 0.0
H2559 H 0.40629 0.28646 0.36279 0.0
C2560 C 0.40084 0.65586 0.57842 0.0
C2561 C 0.38296 0.66312 0.55158 0.0
C2562 C 0.40667 0.63257 0.51882 0.0
C2563 C 0.42144 0.62264 0.54577 0.0
N2564 N 0.4267 0.62005 0.60124 0.0
N2565 N 0.36342 0.65229 0.49649 0.0
C2566 C 0.41676 0.63287 0.57561 0.0
C2567 C 0.3844 0.64986 0.52178 0.0
N2568 N 0.40393 0.67179 0.60645 0.0
N2569 N 0.41452 0.62627 0.49041 0.0
H2570 H 0.34557 0.66331 0.49767 0.0
H2571 H 0.3615 0.64057 0.47496 0.0
H2572 H 0.43094 0.61396 0.48723 0.0
H2573 H 0.40698 0.63563 0.47054 0.0
H2574 H 0.41906 0.66915 0.62607 0.0
H2575 H 0.39422 0.68991 0.60929 0.0
H2576 H 0.42092 0.6245 0.62309 0.0
H2577 H 0.43785 0.60273 0.60006 0.0
C2578 C 0.94661 0.02518 0.58598 0.0
C2579 C 0.92406 1.01303 0.55873 0.0
C2580 C 0.96614 0.03719 0.52788 0.0
C2581 C 0.99003 0.0462 0.55489 0.0
N2582 N 1.00165 0.04392 0.61036 0.0
N2583 N 0.91515 1.00573 0.50288 0.0
C2584 C 0.97964 0.03912 0.5841 0.0
C2585 C 0.93488 1.01851 0.52957 0.0
N2586 N 0.9366 1.0233 0.6142 0.0
N2587 N 0.97241 0.04804 0.50042 0.0
H2588 H 0.89177 0.99418 0.50264 0.0
H2589 H 0.92254 1.00508 0.48124 0.0
H2590 H 0.99354 0.06293 0.49833 0.0
H2591 H 0.95545 0.04515 0.48061 0.0
H2592 H 0.95006 0.03461 0.63473 0.0
H2593 H 0.91369 1.01241 0.61672 0.0
H2594 H 0.99688 0.03605 0.63145 0.0
H2595 H 1.02554 0.05329 0.61064 0.0
C2596 C 0.8825 0.12322 0.21694 0.0
C2597 C 0.86357 0.09379 0.21302 0.0
C2598 C 0.81968 0.11128 0.22976 0.0
C2599 C 0.84031 0.13977 0.23815 0.0
N2600 N 0.89262 0.17228 0.24329 0.0
N2601 N 0.81486 0.05889 0.21761 0.0
C2602 C 0.87202 0.14569 0.23248 0.0
C2603 C 0.83215 0.08754 0.21955 0.0
N2604 N 0.91029 0.12976 0.20521 0.0
N2605 N 0.7882 0.10708 0.23131 0.0
H2606 H 0.82313 0.04098 0.21002 0.0
H2607 H 0.79323 0.05267 0.22549 0.0
H2608 H 0.77846 0.12405 0.23888 0.0
H2609 H 0.77138 0.08761 0.22267 0.0
H2610 H 0.9236 0.15129 0.20464 0.0
H2611 H 0.91837 0.11387 0.19308 0.0
H2612 H 0.91686 0.17646 0.24305 0.0
H2613 H 0.88607 0.18946 0.25492 0.0
C2614 C 0.73284 0.17179 0.06578 0.0
C2615 C 0.74427 0.17689 0.03725 0.0
C2616 C 0.70042 0.13668 1.0102 0.0
C2617 C 0.68807 0.13266 0.0385 0.0
N2618 N 0.68906 0.15051 0.09169 0.0
N2619 N 0.73743 0.16729 0.98163 0.0
C2620 C 0.70345 0.15125 0.06589 0.0
C2621 C 0.72748 0.16034 1.00919 0.0
N2622 N 0.75024 0.18647 0.09299 0.0
N2623 N 0.6871 0.11706 0.98472 0.0
H2624 H 0.75762 0.18385 0.98031 0.0
H2625 H 0.72464 0.15822 0.95999 0.0
H2626 H 0.66769 0.09929 0.98488 0.0
H2627 H 0.69663 0.11683 0.96421 0.0
H2628 H 0.74557 0.18069 0.11486 0.0
H2629 H 0.77062 0.20344 0.09393 0.0
H2630 H 0.69695 0.16596 0.11103 0.0
H2631 H 0.66758 0.13586 0.0928 0.0
C2632 C 0.25575 0.50448 0.3279 0.0
C2633 C 0.22625 0.48412 0.32786 0.0
C2634 C 0.25394 0.45036 0.35412 0.0
C2635 C 0.28252 0.46708 0.34621 0.0
N2636 N 0.31216 0.51145 0.32866 0.0
N2637 N 0.19666 0.43888 0.34486 0.0
C2638 C 0.28402 0.49495 0.33469 0.0
C2639 C 0.22505 0.45774 0.34296 0.0
N2640 N 0.25645 0.53288 0.32141 0.0
N2641 N 0.25463 0.42705 0.37151 0.0
H2642 H 0.17494 0.44331 0.33748 0.0
H2643 H 0.19429 0.41822 0.35322 0.0
H2644 H 0.27563 0.42127 0.37942 0.0
H2645 H 0.23522 0.41506 0.38029 0.0
H2646 H 0.2772 0.5495 0.32325 0.0
H2647 H 0.23589 0.54043 0.31728 0.0
H2648 H 0.31424 0.53026 0.31663 0.0
H2649 H 0.33343 0.50549 0.33475 0.0
C2650 C 0.24626 0.53713 0.06444 0.0
C2651 C 0.24729 0.50889 0.07522 0.0
C2652 C 0.18975 0.50302 0.0816 0.0
C2653 C 0.18911 0.5321 0.07248 0.0
N2654 N 0.21922 0.57692 0.05583 0.0
N2655 N 0.21965 0.46666 0.09755 0.0
C2656 C 0.21823 0.54905 0.0643 0.0
C2657 C 0.21874 0.49238 0.08447 0.0
N2658 N 0.27203 0.55234 0.05293 0.0
N2659 N 0.16239 0.48507 0.08767 0.0
H2660 H 0.23953 0.45802 0.09941 0.0
H2661 H 0.20185 0.45498 0.10866 0.0
H2662 H 0.14191 0.49222 0.0889 0.0
H2663 H 0.15932 0.46258 0.09006 0.0
H2664 H 0.27262 0.57121 0.04126 0.0
H2665 H 0.29257 0.54486 0.0532 0.0
H2666 H 0.23997 0.59246 0.05412 0.0
H2667 H 0.19915 0.58505 0.0513 0.0
C2668 C 0.8885 0.95302 0.27375 0.0
C2669 C 0.90165 0.95751 0.246 0.0
C2670 C 0.8981 0.90425 0.23772 0.0
C2671 C 0.88768 0.90031 0.26689 0.0
N2672 N 0.87904 0.9218 0.3156 0.0
N2673 N 0.92448 0.93847 0.20445 0.0
C2674 C 0.88457 0.92495 0.28574 0.0
C2675 C 0.90795 0.93341 0.22871 0.0
N2676 N 0.87873 0.97529 0.28811 0.0
N2677 N 0.8974 0.88015 0.21806 0.0
H2678 H 0.93233 0.95947 0.19722 0.0
H2679 H 0.93283 0.92228 0.19322 0.0
H2680 H 0.89007 0.85846 0.22367 0.0
H2681 H 0.90144 0.88152 0.19517 0.0
H2682 H 0.86591 0.97235 0.30651 0.0
H2683 H 0.88072 0.99603 0.27976 0.0
H2684 H 0.87975 0.93956 0.33148 0.0
H2685 H 0.87685 0.90178 0.32555 0.0
C2686 C 0.65995 0.09821 0.80688 0.0
C2687 C 0.64971 0.08013 0.77833 0.0
C2688 C 0.67448 0.12102 0.75019 0.0
C2689 C 0.68335 0.13964 0.77847 0.0
N2690 N 0.67989 0.14792 0.83277 0.0
N2691 N 0.64063 0.07595 0.72226 0.0
C2692 C 0.67466 0.12881 0.80658 0.0
C2693 C 0.65501 0.09205 0.7498 0.0
N2694 N 0.65684 0.0859 0.8343 0.0
N2695 N 0.68572 0.13058 0.72392 0.0
H2696 H 0.62578 0.05477 0.72102 0.0
H2697 H 0.64087 0.08461 0.7008 0.0
H2698 H 0.69996 0.1517 0.72308 0.0
H2699 H 0.68319 0.11676 0.70365 0.0
H2700 H 0.66702 0.0971 0.85597 0.0
H2701 H 0.64587 0.06369 0.83535 0.0
H2702 H 0.67123 0.1421 0.85315 0.0
H2703 H 0.69079 0.17039 0.83337 0.0
loop_
_geom_bond_atom_site_label_1
_geom_bond_atom_site_label_2
_geom_bond_distance
_geom_bond_site_symmetry_2
_ccdc_geom_bond_type
O0 Cd1 2.223 . S
O0 C8 1.315 . S
Cd1 O0 2.223 . S
Cd1 O4 2.297 . S
Cd1 O5 2.439 . S
Cd1 O11 2.240 . S
Cd2 O3 2.240 . S
Cd2 O10 2.223 1_455 S
Cd2 O12 2.297 . S
Cd2 O13 2.439 . S
O3 Cd2 2.240 . S
O3 C8 1.279 . S
O4 Cd1 2.297 . S
O4 C6 1.247 . S
O5 Cd1 2.439 . S
O5 C6 1.208 . S
C6 O4 1.247 . S
C6 O5 1.208 . S
C7 O12 1.247 . S
C7 O13 1.208 . S
C8 O0 1.315 . S
C8 O3 1.279 . S
C9 O10 1.315 . S
C9 O11 1.279 1_655 S
O10 Cd2 2.223 1_655 S
O10 C9 1.315 . S
O11 Cd1 2.240 . S
O11 C9 1.279 1_455 S
O12 Cd2 2.297 . S
O12 C7 1.247 . S
O13 Cd2 2.439 . S
O13 C7 1.208 . S
O14 Cd15 2.223 . S
O14 C22 1.315 . S
Cd15 O14 2.223 . S
Cd15 O18 2.297 1_455 S
Cd15 O19 2.439 1_455 S
Cd15 O25 2.240 . S
Cd16 O17 2.240 . S
Cd16 O24 2.223 . S
Cd16 O26 2.297 . S
Cd16 O27 2.439 . S
O17 Cd16 2.240 . S
O17 C22 1.279 . S
O18 Cd15 2.297 1_655 S
O18 C20 1.247 . S
O19 Cd15 2.439 1_655 S
O19 C20 1.208 . S
C20 O18 1.247 . S
C20 O19 1.208 . S
C21 O26 1.247 . S
C21 O27 1.208 . S
C22 O14 1.315 . S
C22 O17 1.279 . S
C23 O24 1.315 . S
C23 O25 1.279 . S
O24 Cd16 2.223 . S
O24 C23 1.315 . S
O25 Cd15 2.240 . S
O25 C23 1.279 . S
O26 Cd16 2.297 . S
O26 C21 1.247 . S
O27 Cd16 2.439 . S
O27 C21 1.208 . S
O28 Cd29 2.223 . S
O28 C36 1.315 . S
Cd29 O28 2.223 . S
Cd29 O32 2.297 . S
Cd29 O33 2.439 . S
Cd29 O39 2.240 . S
Cd30 O31 2.240 . S
Cd30 O38 2.223 . S
Cd30 O40 2.297 . S
Cd30 O41 2.439 . S
O31 Cd30 2.240 . S
O31 C36 1.279 . S
O32 Cd29 2.297 . S
O32 C34 1.247 . S
O33 Cd29 2.439 . S
O33 C34 1.208 . S
C34 O32 1.247 . S
C34 O33 1.208 . S
C35 O40 1.247 . S
C35 O41 1.208 . S
C36 O28 1.315 . S
C36 O31 1.279 . S
C37 O38 1.315 . S
C37 O39 1.279 . S
O38 Cd30 2.223 . S
O38 C37 1.315 . S
O39 Cd29 2.240 . S
O39 C37 1.279 . S
O40 Cd30 2.297 . S
O40 C35 1.247 . S
O41 Cd30 2.439 . S
O41 C35 1.208 . S
O42 Cd43 2.223 . S
O42 C50 1.315 . S
Cd43 O42 2.223 . S
Cd43 O46 2.297 . S
Cd43 O47 2.439 . S
Cd43 O53 2.240 . S
Cd44 O45 2.240 . S
Cd44 O52 2.223 . S
Cd44 O54 2.297 . S
Cd44 O55 2.439 . S
O45 Cd44 2.240 . S
O45 C50 1.279 . S
O46 Cd43 2.297 . S
O46 C48 1.247 . S
O47 Cd43 2.439 . S
O47 C48 1.208 . S
C48 O46 1.247 . S
C48 O47 1.208 . S
C49 O54 1.247 . S
C49 O55 1.208 . S
C50 O42 1.315 . S
C50 O45 1.279 . S
C51 O52 1.315 . S
C51 O53 1.279 . S
O52 Cd44 2.223 . S
O52 C51 1.315 . S
O53 Cd43 2.240 . S
O53 C51 1.279 . S
O54 Cd44 2.297 . S
O54 C49 1.247 . S
O55 Cd44 2.439 . S
O55 C49 1.208 . S
O56 Cd57 2.223 . S
O56 C64 1.315 . S
Cd57 O56 2.223 . S
Cd57 O60 2.297 . S
Cd57 O61 2.439 . S
Cd57 O67 2.240 . S
Cd58 O59 2.240 . S
Cd58 O66 2.223 . S
Cd58 O68 2.297 . S
Cd58 O69 2.439 . S
O59 Cd58 2.240 . S
O59 C64 1.279 . S
O60 Cd57 2.297 . S
O60 C62 1.247 . S
O61 Cd57 2.439 . S
O61 C62 1.208 . S
C62 O60 1.247 . S
C62 O61 1.208 . S
C63 O68 1.247 . S
C63 O69 1.208 . S
C64 O56 1.315 . S
C64 O59 1.279 . S
C65 O66 1.315 . S
C65 O67 1.279 . S
O66 Cd58 2.223 . S
O66 C65 1.315 . S
O67 Cd57 2.240 . S
O67 C65 1.279 . S
O68 Cd58 2.297 . S
O68 C63 1.247 . S
O69 Cd58 2.439 . S
O69 C63 1.208 . S
O70 Cd71 2.223 . S
O70 C78 1.315 . S
Cd71 O70 2.223 . S
Cd71 O74 2.297 . S
Cd71 O75 2.439 . S
Cd71 O81 2.240 . S
Cd72 O73 2.240 . S
Cd72 O80 2.223 . S
Cd72 O82 2.297 . S
Cd72 O83 2.439 . S
O73 Cd72 2.240 . S
O73 C78 1.279 . S
O74 Cd71 2.297 . S
O74 C76 1.247 . S
O75 Cd71 2.439 . S
O75 C76 1.208 . S
C76 O74 1.247 . S
C76 O75 1.208 . S
C77 O82 1.247 . S
C77 O83 1.208 . S
C78 O70 1.315 . S
C78 O73 1.279 . S
C79 O80 1.315 . S
C79 O81 1.279 . S
O80 Cd72 2.223 . S
O80 C79 1.315 . S
O81 Cd71 2.240 . S
O81 C79 1.279 . S
O82 Cd72 2.297 . S
O82 C77 1.247 . S
O83 Cd72 2.439 . S
O83 C77 1.208 . S
O84 Cd85 2.223 . S
O84 C92 1.315 . S
Cd85 O84 2.223 . S
Cd85 O88 2.297 . S
Cd85 O89 2.439 . S
Cd85 O95 2.240 . S
Cd86 O87 2.240 . S
Cd86 O94 2.223 . S
Cd86 O96 2.297 . S
Cd86 O97 2.439 . S
O87 Cd86 2.240 . S
O87 C92 1.279 . S
O88 Cd85 2.297 . S
O88 C90 1.247 . S
O89 Cd85 2.439 . S
O89 C90 1.208 . S
C90 O88 1.247 . S
C90 O89 1.208 . S
C91 O96 1.247 . S
C91 O97 1.208 . S
C92 O84 1.315 . S
C92 O87 1.279 . S
C93 O94 1.315 . S
C93 O95 1.279 . S
O94 Cd86 2.223 . S
O94 C93 1.315 . S
O95 Cd85 2.240 . S
O95 C93 1.279 . S
O96 Cd86 2.297 . S
O96 C91 1.247 . S
O97 Cd86 2.439 . S
O97 C91 1.208 . S
O98 Cd99 2.223 1_655 S
O98 C106 1.315 . S
Cd99 O98 2.223 1_455 S
Cd99 O102 2.297 . S
Cd99 O103 2.439 . S
Cd99 O109 2.240 1_455 S
Cd100 O101 2.240 1_655 S
Cd100 O108 2.223 . S
Cd100 O110 2.297 . S
Cd100 O111 2.439 1_655 S
O101 Cd100 2.240 1_455 S
O101 C106 1.279 1_455 S
O102 Cd99 2.297 . S
O102 C104 1.247 . S
O103 Cd99 2.439 . S
O103 C104 1.208 . S
C104 O102 1.247 . S
C104 O103 1.208 . S
C105 O110 1.247 1_455 S
C105 O111 1.208 . S
C106 O98 1.315 . S
C106 O101 1.279 1_655 S
C107 O108 1.315 . S
C107 O109 1.279 . S
O108 Cd100 2.223 . S
O108 C107 1.315 . S
O109 Cd99 2.240 1_655 S
O109 C107 1.279 . S
O110 Cd100 2.297 . S
O110 C105 1.247 1_655 S
O111 Cd100 2.439 1_455 S
O111 C105 1.208 . S
O112 Cd113 2.223 . S
O112 C120 1.315 . S
Cd113 O112 2.223 . S
Cd113 O116 2.297 . S
Cd113 O117 2.439 . S
Cd113 O123 2.240 . S
Cd114 O115 2.240 . S
Cd114 O122 2.223 . S
Cd114 O124 2.297 . S
Cd114 O125 2.439 . S
O115 Cd114 2.240 . S
O115 C120 1.279 . S
O116 Cd113 2.297 . S
O116 C118 1.247 . S
O117 Cd113 2.439 . S
O117 C118 1.208 . S
C118 O116 1.247 . S
C118 O117 1.208 . S
C119 O124 1.247 . S
C119 O125 1.208 . S
C120 O112 1.315 . S
C120 O115 1.279 . S
C121 O122 1.315 . S
C121 O123 1.279 . S
O122 Cd114 2.223 . S
O122 C121 1.315 . S
O123 Cd113 2.240 . S
O123 C121 1.279 . S
O124 Cd114 2.297 . S
O124 C119 1.247 . S
O125 Cd114 2.439 . S
O125 C119 1.208 . S
O126 Cd127 2.223 . S
O126 C134 1.315 . S
Cd127 O126 2.223 . S
Cd127 O130 2.297 . S
Cd127 O131 2.439 . S
Cd127 O137 2.240 . S
Cd128 O129 2.240 . S
Cd128 O136 2.223 . S
Cd128 O138 2.297 . S
Cd128 O139 2.439 . S
O129 Cd128 2.240 . S
O129 C134 1.279 . S
O130 Cd127 2.297 . S
O130 C132 1.247 . S
O131 Cd127 2.439 . S
O131 C132 1.208 . S
C132 O130 1.247 . S
C132 O131 1.208 . S
C133 O138 1.247 . S
C133 O139 1.208 . S
C134 O126 1.315 . S
C134 O129 1.279 . S
C135 O136 1.315 . S
C135 O137 1.279 . S
O136 Cd128 2.223 . S
O136 C135 1.315 . S
O137 Cd127 2.240 . S
O137 C135 1.279 . S
O138 Cd128 2.297 . S
O138 C133 1.247 . S
O139 Cd128 2.439 . S
O139 C133 1.208 . S
O140 Cd141 2.223 . S
O140 C148 1.315 . S
Cd141 O140 2.223 . S
Cd141 O144 2.297 . S
Cd141 O145 2.439 . S
Cd141 O151 2.240 . S
Cd142 O143 2.240 . S
Cd142 O150 2.223 . S
Cd142 O152 2.297 . S
Cd142 O153 2.439 . S
O143 Cd142 2.240 . S
O143 C148 1.279 . S
O144 Cd141 2.297 . S
O144 C146 1.247 . S
O145 Cd141 2.439 . S
O145 C146 1.208 . S
C146 O144 1.247 . S
C146 O145 1.208 . S
C147 O152 1.247 . S
C147 O153 1.208 . S
C148 O140 1.315 . S
C148 O143 1.279 . S
C149 O150 1.315 . S
C149 O151 1.279 . S
O150 Cd142 2.223 . S
O150 C149 1.315 . S
O151 Cd141 2.240 . S
O151 C149 1.279 . S
O152 Cd142 2.297 . S
O152 C147 1.247 . S
O153 Cd142 2.439 . S
O153 C147 1.208 . S
O154 Cd155 2.223 . S
O154 C162 1.315 . S
Cd155 O154 2.223 . S
Cd155 O158 2.297 . S
Cd155 O159 2.439 . S
Cd155 O165 2.240 . S
Cd156 O157 2.240 . S
Cd156 O164 2.223 . S
Cd156 O166 2.297 1_554 S
Cd156 O167 2.439 1_554 S
O157 Cd156 2.240 . S
O157 C162 1.279 . S
O158 Cd155 2.297 . S
O158 C160 1.247 . S
O159 Cd155 2.439 . S
O159 C160 1.208 . S
C160 O158 1.247 . S
C160 O159 1.208 . S
C161 O166 1.247 . S
C161 O167 1.208 . S
C162 O154 1.315 . S
C162 O157 1.279 . S
C163 O164 1.315 . S
C163 O165 1.279 . S
O164 Cd156 2.223 . S
O164 C163 1.315 . S
O165 Cd155 2.240 . S
O165 C163 1.279 . S
O166 Cd156 2.297 1_556 S
O166 C161 1.247 . S
O167 Cd156 2.439 1_556 S
O167 C161 1.208 . S
O168 Cd169 2.223 . S
O168 C176 1.315 . S
Cd169 O168 2.223 . S
Cd169 O172 2.297 . S
Cd169 O173 2.439 . S
Cd169 O179 2.240 . S
Cd170 O171 2.240 . S
Cd170 O178 2.223 . S
Cd170 O180 2.297 1_554 S
Cd170 O181 2.439 1_554 S
O171 Cd170 2.240 . S
O171 C176 1.279 . S
O172 Cd169 2.297 . S
O172 C174 1.247 . S
O173 Cd169 2.439 . S
O173 C174 1.208 . S
C174 O172 1.247 . S
C174 O173 1.208 . S
C175 O180 1.247 . S
C175 O181 1.208 . S
C176 O168 1.315 . S
C176 O171 1.279 . S
C177 O178 1.315 . S
C177 O179 1.279 . S
O178 Cd170 2.223 . S
O178 C177 1.315 . S
O179 Cd169 2.240 . S
O179 C177 1.279 . S
O180 Cd170 2.297 1_556 S
O180 C175 1.247 . S
O181 Cd170 2.439 1_556 S
O181 C175 1.208 . S
O182 Cd183 2.223 . S
O182 C190 1.315 . S
Cd183 O182 2.223 . S
Cd183 O186 2.297 . S
Cd183 O187 2.425 1_554 S
Cd183 O193 2.240 1_554 S
Cd184 O185 2.240 1_556 S
Cd184 O192 2.221 . S
Cd184 O194 2.297 . S
Cd184 O195 2.439 . S
O185 Cd184 2.240 1_554 S
O185 C190 1.279 . S
O186 Cd183 2.297 . S
O186 C188 1.247 . S
O187 Cd183 2.425 1_556 S
O187 C188 1.191 1_556 S
C188 O186 1.247 . S
C188 O187 1.191 1_554 S
C189 O194 1.247 . S
C189 O195 1.208 . S
C190 O182 1.315 . S
C190 O185 1.279 . S
C191 O192 1.315 . S
C191 O193 1.279 . S
O192 Cd184 2.221 . S
O192 C191 1.315 . S
O193 Cd183 2.240 1_556 S
O193 C191 1.279 . S
O194 Cd184 2.297 . S
O194 C189 1.247 . S
O195 Cd184 2.439 . S
O195 C189 1.208 . S
O196 Cd197 2.223 . S
O196 C204 1.315 . S
Cd197 O196 2.223 . S
Cd197 O200 2.297 . S
Cd197 O201 2.439 . S
Cd197 O207 2.240 . S
Cd198 O199 2.240 . S
Cd198 O206 2.223 . S
Cd198 O208 2.297 . S
Cd198 O209 2.439 . S
O199 Cd198 2.240 . S
O199 C204 1.279 . S
O200 Cd197 2.297 . S
O200 C202 1.247 . S
O201 Cd197 2.439 . S
O201 C202 1.208 . S
C202 O200 1.247 . S
C202 O201 1.208 . S
C203 O208 1.247 . S
C203 O209 1.208 . S
C204 O196 1.315 . S
C204 O199 1.279 . S
C205 O206 1.315 . S
C205 O207 1.279 . S
O206 Cd198 2.223 . S
O206 C205 1.315 . S
O207 Cd197 2.240 . S
O207 C205 1.279 . S
O208 Cd198 2.297 . S
O208 C203 1.247 . S
O209 Cd198 2.439 . S
O209 C203 1.208 . S
O210 Cd211 2.223 . S
O210 C218 1.315 . S
Cd211 O210 2.223 . S
Cd211 O214 2.297 . S
Cd211 O215 2.439 . S
Cd211 O221 2.240 . S
Cd212 O213 2.240 . S
Cd212 O220 2.223 . S
Cd212 O222 2.297 . S
Cd212 O223 2.439 . S
O213 Cd212 2.240 . S
O213 C218 1.279 . S
O214 Cd211 2.297 . S
O214 C216 1.247 . S
O215 Cd211 2.439 . S
O215 C216 1.208 . S
C216 O214 1.247 . S
C216 O215 1.208 . S
C217 O222 1.247 . S
C217 O223 1.208 . S
C218 O210 1.315 . S
C218 O213 1.279 . S
C219 O220 1.315 . S
C219 O221 1.279 . S
O220 Cd212 2.223 . S
O220 C219 1.315 . S
O221 Cd211 2.240 . S
O221 C219 1.279 . S
O222 Cd212 2.297 . S
O222 C217 1.247 . S
O223 Cd212 2.439 . S
O223 C217 1.208 . S
O224 Cd225 2.224 1_565 S
O224 C232 1.315 . S
Cd225 O224 2.224 1_545 S
Cd225 O228 2.295 . S
Cd225 O229 2.437 . S
Cd225 O235 2.242 1_545 S
Cd226 O227 2.240 1_565 S
Cd226 O234 2.223 . S
Cd226 O236 2.297 . S
Cd226 O237 2.439 1_565 S
O227 Cd226 2.240 1_545 S
O227 C232 1.279 1_545 S
O228 Cd225 2.295 . S
O228 C230 1.247 . S
O229 Cd225 2.437 . S
O229 C230 1.208 . S
C230 O228 1.247 . S
C230 O229 1.208 . S
C231 O236 1.247 . S
C231 O237 1.208 1_565 S
C232 O224 1.315 . S
C232 O227 1.279 1_565 S
C233 O234 1.315 . S
C233 O235 1.279 . S
O234 Cd226 2.223 . S
O234 C233 1.315 . S
O235 Cd225 2.242 1_565 S
O235 C233 1.279 . S
O236 Cd226 2.297 . S
O236 C231 1.247 . S
O237 Cd226 2.439 1_545 S
O237 C231 1.208 1_545 S
O238 Cd239 2.223 . S
O238 C246 1.315 . S
Cd239 O238 2.223 . S
Cd239 O242 2.297 . S
Cd239 O243 2.439 . S
Cd239 O249 2.240 . S
Cd240 O241 2.240 . S
Cd240 O248 2.223 . S
Cd240 O250 2.297 . S
Cd240 O251 2.439 . S
O241 Cd240 2.240 . S
O241 C246 1.279 . S
O242 Cd239 2.297 . S
O242 C244 1.247 . S
O243 Cd239 2.439 . S
O243 C244 1.208 . S
C244 O242 1.247 . S
C244 O243 1.208 . S
C245 O250 1.247 . S
C245 O251 1.208 . S
C246 O238 1.315 . S
C246 O241 1.279 . S
C247 O248 1.315 . S
C247 O249 1.279 . S
O248 Cd240 2.223 . S
O248 C247 1.315 . S
O249 Cd239 2.240 . S
O249 C247 1.279 . S
O250 Cd240 2.297 . S
O250 C245 1.247 . S
O251 Cd240 2.439 . S
O251 C245 1.208 . S
O252 Cd253 2.223 . S
O252 C260 1.315 . S
Cd253 O252 2.223 . S
Cd253 O256 2.297 . S
Cd253 O257 2.439 . S
Cd253 O263 2.240 . S
Cd254 O255 2.240 . S
Cd254 O262 2.223 . S
Cd254 O264 2.297 . S
Cd254 O265 2.439 . S
O255 Cd254 2.240 . S
O255 C260 1.279 . S
O256 Cd253 2.297 . S
O256 C258 1.247 . S
O257 Cd253 2.439 . S
O257 C258 1.208 . S
C258 O256 1.247 . S
C258 O257 1.208 . S
C259 O264 1.247 . S
C259 O265 1.208 . S
C260 O252 1.315 . S
C260 O255 1.279 . S
C261 O262 1.315 . S
C261 O263 1.279 . S
O262 Cd254 2.223 . S
O262 C261 1.315 . S
O263 Cd253 2.240 . S
O263 C261 1.279 . S
O264 Cd254 2.297 . S
O264 C259 1.247 . S
O265 Cd254 2.439 . S
O265 C259 1.208 . S
O266 Cd267 2.223 . S
O266 C274 1.315 . S
Cd267 O266 2.223 . S
Cd267 O270 2.297 1_545 S
Cd267 O271 2.439 1_545 S
Cd267 O277 2.240 . S
Cd268 O269 2.223 1_545 S
Cd268 O276 2.223 . S
Cd268 O278 2.297 . S
Cd268 O279 2.439 . S
O269 Cd268 2.223 1_565 S
O269 C274 1.268 1_565 S
O270 Cd267 2.297 1_565 S
O270 C272 1.247 . S
O271 Cd267 2.439 1_565 S
O271 C272 1.208 . S
C272 O270 1.247 . S
C272 O271 1.208 . S
C273 O278 1.247 . S
C273 O279 1.208 . S
C274 O266 1.315 . S
C274 O269 1.268 1_545 S
C275 O276 1.315 . S
C275 O277 1.279 . S
O276 Cd268 2.223 . S
O276 C275 1.315 . S
O277 Cd267 2.240 . S
O277 C275 1.279 . S
O278 Cd268 2.297 . S
O278 C273 1.247 . S
O279 Cd268 2.439 . S
O279 C273 1.208 . S
O280 Cd281 2.223 . S
O280 C288 1.315 . S
Cd281 O280 2.223 . S
Cd281 O284 2.297 . S
Cd281 O285 2.439 . S
Cd281 O291 2.240 . S
Cd282 O283 2.240 . S
Cd282 O290 2.223 . S
Cd282 O292 2.297 1_554 S
Cd282 O293 2.439 1_554 S
O283 Cd282 2.240 . S
O283 C288 1.279 . S
O284 Cd281 2.297 . S
O284 C286 1.247 . S
O285 Cd281 2.439 . S
O285 C286 1.208 . S
C286 O284 1.247 . S
C286 O285 1.208 . S
C287 O292 1.247 . S
C287 O293 1.208 . S
C288 O280 1.315 . S
C288 O283 1.279 . S
C289 O290 1.315 . S
C289 O291 1.279 . S
O290 Cd282 2.223 . S
O290 C289 1.315 . S
O291 Cd281 2.240 . S
O291 C289 1.279 . S
O292 Cd282 2.297 1_556 S
O292 C287 1.247 . S
O293 Cd282 2.439 1_556 S
O293 C287 1.208 . S
O294 Cd295 2.223 . S
O294 C302 1.315 1_655 S
Cd295 O294 2.223 . S
Cd295 O298 2.297 . S
Cd295 O299 2.439 . S
Cd295 O305 2.240 . S
Cd296 O297 2.240 . S
Cd296 O304 2.223 . S
Cd296 O306 2.297 . S
Cd296 O307 2.439 . S
O297 Cd296 2.240 . S
O297 C302 1.279 . S
O298 Cd295 2.297 . S
O298 C300 1.247 . S
O299 Cd295 2.439 . S
O299 C300 1.208 . S
C300 O298 1.247 . S
C300 O299 1.208 . S
C301 O306 1.247 . S
C301 O307 1.208 . S
C302 O294 1.315 1_455 S
C302 O297 1.279 . S
C303 O304 1.315 1_655 S
C303 O305 1.279 . S
O304 Cd296 2.223 . S
O304 C303 1.315 1_455 S
O305 Cd295 2.240 . S
O305 C303 1.279 . S
O306 Cd296 2.297 . S
O306 C301 1.247 . S
O307 Cd296 2.439 . S
O307 C301 1.208 . S
O308 Cd309 2.223 . S
O308 C316 1.315 . S
Cd309 O308 2.223 . S
Cd309 O312 2.297 . S
Cd309 O313 2.439 . S
Cd309 O319 2.240 . S
Cd310 O311 2.240 . S
Cd310 O318 2.223 . S
Cd310 O320 2.297 . S
Cd310 O321 2.439 . S
O311 Cd310 2.240 . S
O311 C316 1.279 . S
O312 Cd309 2.297 . S
O312 C314 1.247 . S
O313 Cd309 2.439 . S
O313 C314 1.208 . S
C314 O312 1.247 . S
C314 O313 1.208 . S
C315 O320 1.247 . S
C315 O321 1.208 . S
C316 O308 1.315 . S
C316 O311 1.279 . S
C317 O318 1.315 . S
C317 O319 1.279 . S
O318 Cd310 2.223 . S
O318 C317 1.315 . S
O319 Cd309 2.240 . S
O319 C317 1.279 . S
O320 Cd310 2.297 . S
O320 C315 1.247 . S
O321 Cd310 2.439 . S
O321 C315 1.208 . S
O322 Cd323 2.223 . S
O322 C330 1.315 . S
Cd323 O322 2.223 . S
Cd323 O326 2.297 . S
Cd323 O327 2.439 . S
Cd323 O333 2.240 . S
Cd324 O325 2.240 . S
Cd324 O332 2.223 . S
Cd324 O334 2.297 . S
Cd324 O335 2.439 . S
O325 Cd324 2.240 . S
O325 C330 1.279 . S
O326 Cd323 2.297 . S
O326 C328 1.247 . S
O327 Cd323 2.439 . S
O327 C328 1.208 . S
C328 O326 1.247 . S
C328 O327 1.208 . S
C329 O334 1.247 . S
C329 O335 1.208 . S
C330 O322 1.315 . S
C330 O325 1.279 . S
C331 O332 1.315 . S
C331 O333 1.279 . S
O332 Cd324 2.223 . S
O332 C331 1.315 . S
O333 Cd323 2.240 . S
O333 C331 1.279 . S
O334 Cd324 2.297 . S
O334 C329 1.247 . S
O335 Cd324 2.439 . S
O335 C329 1.208 . S
Tb336 C346 2.825 1_454 S
Tb336 O347 2.347 . S
Tb336 O350 2.366 . S
Tb336 O355 2.418 1_554 S
Tb336 O356 2.384 . S
Tb336 O359 2.479 1_454 S
Tb336 O360 2.471 1_455 S
Eu337 O348 2.418 . S
Eu337 O349 2.384 . S
Eu337 O352 2.479 . S
Eu337 O353 2.471 . S
Eu337 O354 2.347 . S
Eu337 O357 2.366 . S
Eu337 C367 2.825 . S
C338 O354 1.259 1_556 S
C338 O355 1.265 . S
C339 O356 1.255 . S
C339 O357 1.265 . S
C340 C342 1.380 . S
C340 C343 1.374 1_556 S
C340 C346 1.507 . S
C341 C342 1.384 . S
C341 C345 1.387 . S
C341 H368 0.930 . S
C342 C340 1.380 . S
C342 C341 1.384 . S
C342 H369 0.931 . S
C343 C340 1.374 1_554 S
C343 C344 1.390 1_554 S
C343 H370 0.930 . S
C344 C343 1.390 1_556 S
C344 C345 1.391 . S
C344 H371 0.930 1_556 S
C345 C341 1.387 . S
C345 C344 1.391 . S
C346 Tb336 2.825 1_656 S
C346 C340 1.507 . S
C346 O359 1.238 . S
C346 O360 1.247 1_556 S
O347 Tb336 2.347 . S
O347 C351 1.259 . S
O348 Eu337 2.418 . S
O348 C351 1.265 . S
O349 Eu337 2.384 . S
O349 C358 1.255 . S
O350 Tb336 2.366 . S
O350 C358 1.265 . S
C351 O347 1.259 . S
C351 O348 1.265 . S
O352 Eu337 2.479 . S
O352 C367 1.238 . S
O353 Eu337 2.471 . S
O353 C367 1.247 . S
O354 Eu337 2.347 . S
O354 C338 1.259 1_554 S
O355 Tb336 2.418 1_556 S
O355 C338 1.265 . S
O356 Tb336 2.384 . S
O356 C339 1.255 . S
O357 Eu337 2.366 . S
O357 C339 1.265 . S
C358 O349 1.255 . S
C358 O350 1.265 . S
O359 Tb336 2.479 1_656 S
O359 C346 1.238 . S
O360 Tb336 2.471 1_655 S
O360 C346 1.247 1_554 S
C361 C364 1.380 . S
C361 C365 1.374 . S
C361 C367 1.507 . S
C362 C363 1.387 . S
C362 C366 1.391 . S
C363 C362 1.387 . S
C363 C364 1.384 . S
C363 H372 0.930 . S
C364 C361 1.380 . S
C364 C363 1.384 . S
C364 H373 0.931 . S
C365 C361 1.374 . S
C365 C366 1.390 . S
C365 H374 0.930 . S
C366 C362 1.391 . S
C366 C365 1.390 . S
C366 H375 0.930 . S
C367 Eu337 2.825 . S
C367 O352 1.238 . S
C367 O353 1.247 . S
C367 C361 1.507 . S
H368 C341 0.930 . S
H369 C342 0.931 . S
H370 C343 0.930 . S
H371 C344 0.930 1_554 S
H372 C363 0.930 . S
H373 C364 0.931 . S
H374 C365 0.930 . S
H375 C366 0.930 . S
Tb376 C386 2.825 . S
Tb376 O387 2.347 . S
Tb376 O390 2.366 . S
Tb376 O395 2.418 . S
Tb376 O396 2.384 . S
Tb376 O399 2.479 . S
Tb376 O400 2.471 . S
Eu377 O388 2.418 . S
Eu377 O389 2.384 . S
Eu377 O392 2.479 . S
Eu377 O393 2.471 . S
Eu377 O394 2.347 . S
Eu377 O397 2.366 . S
Eu377 C407 2.825 . S
C378 O394 1.259 . S
C378 O395 1.265 . S
C379 O396 1.255 . S
C379 O397 1.265 . S
C380 C382 1.380 . S
C380 C383 1.374 . S
C380 C386 1.507 . S
C381 C382 1.384 . S
C381 C385 1.387 . S
C381 H408 0.930 . S
C382 C380 1.380 . S
C382 C381 1.384 . S
C382 H409 0.931 . S
C383 C380 1.374 . S
C383 C384 1.390 . S
C383 H410 0.930 . S
C384 C383 1.390 . S
C384 C385 1.391 . S
C384 H411 0.930 . S
C385 C381 1.387 . S
C385 C384 1.391 . S
C386 Tb376 2.825 . S
C386 C380 1.507 . S
C386 O399 1.238 . S
C386 O400 1.247 . S
O387 Tb376 2.347 . S
O387 C391 1.259 . S
O388 Eu377 2.418 . S
O388 C391 1.265 . S
O389 Eu377 2.384 . S
O389 C398 1.255 . S
O390 Tb376 2.366 . S
O390 C398 1.265 . S
C391 O387 1.259 . S
C391 O388 1.265 . S
O392 Eu377 2.479 . S
O392 C407 1.238 . S
O393 Eu377 2.471 . S
O393 C407 1.247 . S
O394 Eu377 2.347 . S
O394 C378 1.259 . S
O395 Tb376 2.418 . S
O395 C378 1.265 . S
O396 Tb376 2.384 . S
O396 C379 1.255 . S
O397 Eu377 2.366 . S
O397 C379 1.265 . S
C398 O389 1.255 . S
C398 O390 1.265 . S
O399 Tb376 2.479 . S
O399 C386 1.238 . S
O400 Tb376 2.471 . S
O400 C386 1.247 . S
C401 C404 1.380 . S
C401 C405 1.374 . S
C401 C407 1.507 . S
C402 C403 1.387 . S
C402 C406 1.391 . S
C403 C402 1.387 . S
C403 C404 1.384 . S
C403 H412 0.930 . S
C404 C401 1.380 . S
C404 C403 1.384 . S
C404 H413 0.931 . S
C405 C401 1.374 . S
C405 C406 1.390 . S
C405 H414 0.930 . S
C406 C402 1.391 . S
C406 C405 1.390 . S
C406 H415 0.930 . S
C407 Eu377 2.825 . S
C407 O392 1.238 . S
C407 O393 1.247 . S
C407 C401 1.507 . S
H408 C381 0.930 . S
H409 C382 0.931 . S
H410 C383 0.930 . S
H411 C384 0.930 . S
H412 C403 0.930 . S
H413 C404 0.931 . S
H414 C405 0.930 . S
H415 C406 0.930 . S
Tb416 C426 2.825 1_545 S
Tb416 O427 2.347 . S
Tb416 O430 2.366 . S
Tb416 O435 2.418 . S
Tb416 O436 2.384 . S
Tb416 O439 2.479 1_545 S
Tb416 O440 2.471 1_545 S
Eu417 O428 2.418 . S
Eu417 O429 2.384 . S
Eu417 O432 2.479 . S
Eu417 O433 2.471 . S
Eu417 O434 2.347 . S
Eu417 O437 2.366 . S
Eu417 C447 2.825 . S
C418 O434 1.259 . S
C418 O435 1.265 . S
C419 O436 1.255 . S
C419 O437 1.265 . S
C420 C422 1.380 . S
C420 C423 1.374 . S
C420 C426 1.507 . S
C421 C422 1.384 . S
C421 C425 1.387 . S
C421 H448 0.930 . S
C422 C420 1.380 . S
C422 C421 1.384 . S
C422 H449 0.931 . S
C423 C420 1.374 . S
C423 C424 1.390 . S
C423 H450 0.930 . S
C424 C423 1.390 . S
C424 C425 1.391 . S
C424 H451 0.930 . S
C425 C421 1.387 . S
C425 C424 1.391 . S
C426 Tb416 2.825 1_565 S
C426 C420 1.507 . S
C426 O439 1.238 . S
C426 O440 1.247 . S
O427 Tb416 2.347 . S
O427 C431 1.259 . S
O428 Eu417 2.418 . S
O428 C431 1.265 . S
O429 Eu417 2.384 . S
O429 C438 1.255 . S
O430 Tb416 2.366 . S
O430 C438 1.265 . S
C431 O427 1.259 . S
C431 O428 1.265 . S
O432 Eu417 2.479 . S
O432 C447 1.238 . S
O433 Eu417 2.471 . S
O433 C447 1.247 . S
O434 Eu417 2.347 . S
O434 C418 1.259 . S
O435 Tb416 2.418 . S
O435 C418 1.265 . S
O436 Tb416 2.384 . S
O436 C419 1.255 . S
O437 Eu417 2.366 . S
O437 C419 1.265 . S
C438 O429 1.255 . S
C438 O430 1.265 . S
O439 Tb416 2.479 1_565 S
O439 C426 1.238 . S
O440 Tb416 2.471 1_565 S
O440 C426 1.247 . S
C441 C444 1.380 . S
C441 C445 1.374 . S
C441 C447 1.507 . S
C442 C443 1.387 . S
C442 C446 1.391 . S
C443 C442 1.387 . S
C443 C444 1.384 . S
C443 H452 0.930 . S
C444 C441 1.380 . S
C444 C443 1.384 . S
C444 H453 0.931 . S
C445 C441 1.374 . S
C445 C446 1.390 . S
C445 H454 0.930 . S
C446 C442 1.391 . S
C446 C445 1.390 . S
C446 H455 0.930 . S
C447 Eu417 2.825 . S
C447 O432 1.238 . S
C447 O433 1.247 . S
C447 C441 1.507 . S
H448 C421 0.930 . S
H449 C422 0.931 . S
H450 C423 0.930 . S
H451 C424 0.930 . S
H452 C443 0.930 . S
H453 C444 0.931 . S
H454 C445 0.930 . S
H455 C446 0.930 . S
Tb456 C466 2.825 . S
Tb456 O467 2.347 . S
Tb456 O470 2.366 . S
Tb456 O475 2.418 . S
Tb456 O476 2.384 . S
Tb456 O479 2.479 . S
Tb456 O480 2.471 . S
Eu457 O468 2.418 . S
Eu457 O469 2.384 . S
Eu457 O472 2.479 . S
Eu457 O473 2.471 . S
Eu457 O474 2.347 . S
Eu457 O477 2.366 . S
Eu457 C487 2.825 . S
C458 O474 1.259 . S
C458 O475 1.265 . S
C459 O476 1.255 . S
C459 O477 1.265 . S
C460 C462 1.380 . S
C460 C463 1.374 . S
C460 C466 1.507 . S
C461 C462 1.384 . S
C461 C465 1.387 . S
C461 H488 0.930 . S
C462 C460 1.380 . S
C462 C461 1.384 . S
C462 H489 0.931 . S
C463 C460 1.374 . S
C463 C464 1.390 . S
C463 H490 0.930 . S
C464 C463 1.390 . S
C464 C465 1.391 . S
C464 H491 0.930 . S
C465 C461 1.387 . S
C465 C464 1.391 . S
C466 Tb456 2.825 . S
C466 C460 1.507 . S
C466 O479 1.238 . S
C466 O480 1.247 . S
O467 Tb456 2.347 . S
O467 C471 1.259 . S
O468 Eu457 2.418 . S
O468 C471 1.265 . S
O469 Eu457 2.384 . S
O469 C478 1.255 . S
O470 Tb456 2.366 . S
O470 C478 1.265 . S
C471 O467 1.259 . S
C471 O468 1.265 . S
O472 Eu457 2.479 . S
O472 C487 1.238 . S
O473 Eu457 2.471 . S
O473 C487 1.247 . S
O474 Eu457 2.347 . S
O474 C458 1.259 . S
O475 Tb456 2.418 . S
O475 C458 1.265 . S
O476 Tb456 2.384 . S
O476 C459 1.255 . S
O477 Eu457 2.366 . S
O477 C459 1.265 . S
C478 O469 1.255 . S
C478 O470 1.265 . S
O479 Tb456 2.479 . S
O479 C466 1.238 . S
O480 Tb456 2.471 . S
O480 C466 1.247 . S
C481 C484 1.380 . S
C481 C485 1.374 . S
C481 C487 1.507 . S
C482 C483 1.387 . S
C482 C486 1.391 . S
C483 C482 1.387 . S
C483 C484 1.384 . S
C483 H492 0.930 . S
C484 C481 1.380 . S
C484 C483 1.384 . S
C484 H493 0.931 . S
C485 C481 1.374 . S
C485 C486 1.390 . S
C485 H494 0.930 . S
C486 C482 1.391 . S
C486 C485 1.390 . S
C486 H495 0.930 . S
C487 Eu457 2.825 . S
C487 O472 1.238 . S
C487 O473 1.247 . S
C487 C481 1.507 . S
H488 C461 0.930 . S
H489 C462 0.931 . S
H490 C463 0.930 . S
H491 C464 0.930 . S
H492 C483 0.930 . S
H493 C484 0.931 . S
H494 C485 0.930 . S
H495 C486 0.930 . S
Tb496 C506 2.825 . S
Tb496 O507 2.347 . S
Tb496 O510 2.366 . S
Tb496 O515 2.418 . S
Tb496 O516 2.384 . S
Tb496 O519 2.479 . S
Tb496 O520 2.471 . S
Eu497 O508 2.418 . S
Eu497 O509 2.384 . S
Eu497 O512 2.479 . S
Eu497 O513 2.471 . S
Eu497 O514 2.347 . S
Eu497 O517 2.366 . S
Eu497 C527 2.825 . S
C498 O514 1.259 . S
C498 O515 1.265 . S
C499 O516 1.255 . S
C499 O517 1.265 . S
C500 C502 1.380 . S
C500 C503 1.374 1_455 S
C500 C506 1.507 . S
C501 C502 1.384 . S
C501 C505 1.387 1_455 S
C501 H528 0.930 . S
C502 C500 1.380 . S
C502 C501 1.384 . S
C502 H529 0.931 . S
C503 C500 1.374 1_655 S
C503 C504 1.390 . S
C503 H530 0.930 . S
C504 C503 1.390 . S
C504 C505 1.391 . S
C504 H531 0.930 . S
C505 C501 1.387 1_655 S
C505 C504 1.391 . S
C506 Tb496 2.825 . S
C506 C500 1.507 . S
C506 O519 1.238 . S
C506 O520 1.247 . S
O507 Tb496 2.347 . S
O507 C511 1.259 . S
O508 Eu497 2.418 . S
O508 C511 1.265 . S
O509 Eu497 2.384 . S
O509 C518 1.255 . S
O510 Tb496 2.366 . S
O510 C518 1.265 . S
C511 O507 1.259 . S
C511 O508 1.265 . S
O512 Eu497 2.479 . S
O512 C527 1.238 . S
O513 Eu497 2.471 . S
O513 C527 1.247 . S
O514 Eu497 2.347 . S
O514 C498 1.259 . S
O515 Tb496 2.418 . S
O515 C498 1.265 . S
O516 Tb496 2.384 . S
O516 C499 1.255 . S
O517 Eu497 2.366 . S
O517 C499 1.265 . S
C518 O509 1.255 . S
C518 O510 1.265 . S
O519 Tb496 2.479 . S
O519 C506 1.238 . S
O520 Tb496 2.471 . S
O520 C506 1.247 . S
C521 C524 1.380 . S
C521 C525 1.374 . S
C521 C527 1.507 . S
C522 C523 1.387 . S
C522 C526 1.391 . S
C523 C522 1.387 . S
C523 C524 1.384 . S
C523 H532 0.930 . S
C524 C521 1.380 . S
C524 C523 1.384 . S
C524 H533 0.931 . S
C525 C521 1.374 . S
C525 C526 1.390 . S
C525 H534 0.930 . S
C526 C522 1.391 . S
C526 C525 1.390 . S
C526 H535 0.930 . S
C527 Eu497 2.825 . S
C527 O512 1.238 . S
C527 O513 1.247 . S
C527 C521 1.507 . S
H528 C501 0.930 . S
H529 C502 0.931 . S
H530 C503 0.930 . S
H531 C504 0.930 . S
H532 C523 0.930 . S
H533 C524 0.931 . S
H534 C525 0.930 . S
H535 C526 0.930 . S
Tb536 C546 2.825 . S
Tb536 O547 2.347 . S
Tb536 O550 2.366 . S
Tb536 O555 2.418 . S
Tb536 O556 2.384 . S
Tb536 O559 2.479 . S
Tb536 O560 2.471 . S
Eu537 O548 2.418 . S
Eu537 O549 2.384 . S
Eu537 O552 2.479 . S
Eu537 O553 2.471 . S
Eu537 O554 2.347 . S
Eu537 O557 2.366 . S
Eu537 C567 2.825 . S
C538 O554 1.259 . S
C538 O555 1.265 . S
C539 O556 1.255 . S
C539 O557 1.265 . S
C540 C542 1.380 . S
C540 C543 1.374 . S
C540 C546 1.507 . S
C541 C542 1.384 . S
C541 C545 1.387 . S
C541 H568 0.930 . S
C542 C540 1.380 . S
C542 C541 1.384 . S
C542 H569 0.931 . S
C543 C540 1.374 . S
C543 C544 1.390 . S
C543 H570 0.930 . S
C544 C543 1.390 . S
C544 C545 1.391 . S
C544 H571 0.930 . S
C545 C541 1.387 . S
C545 C544 1.391 . S
C546 Tb536 2.825 . S
C546 C540 1.507 . S
C546 O559 1.238 . S
C546 O560 1.247 . S
O547 Tb536 2.347 . S
O547 C551 1.259 . S
O548 Eu537 2.418 . S
O548 C551 1.265 . S
O549 Eu537 2.384 . S
O549 C558 1.255 . S
O550 Tb536 2.366 . S
O550 C558 1.265 . S
C551 O547 1.259 . S
C551 O548 1.265 . S
O552 Eu537 2.479 . S
O552 C567 1.238 . S
O553 Eu537 2.471 . S
O553 C567 1.247 . S
O554 Eu537 2.347 . S
O554 C538 1.259 . S
O555 Tb536 2.418 . S
O555 C538 1.265 . S
O556 Tb536 2.384 . S
O556 C539 1.255 . S
O557 Eu537 2.366 . S
O557 C539 1.265 . S
C558 O549 1.255 . S
C558 O550 1.265 . S
O559 Tb536 2.479 . S
O559 C546 1.238 . S
O560 Tb536 2.471 . S
O560 C546 1.247 . S
C561 C564 1.380 . S
C561 C565 1.374 . S
C561 C567 1.507 . S
C562 C563 1.387 . S
C562 C566 1.391 . S
C563 C562 1.387 . S
C563 C564 1.384 . S
C563 H572 0.930 . S
C564 C561 1.380 . S
C564 C563 1.384 . S
C564 H573 0.931 . S
C565 C561 1.374 . S
C565 C566 1.390 . S
C565 H574 0.930 . S
C566 C562 1.391 . S
C566 C565 1.390 . S
C566 H575 0.930 . S
C567 Eu537 2.825 . S
C567 O552 1.238 . S
C567 O553 1.247 . S
C567 C561 1.507 . S
H568 C541 0.930 . S
H569 C542 0.931 . S
H570 C543 0.930 . S
H571 C544 0.930 . S
H572 C563 0.930 . S
H573 C564 0.931 . S
H574 C565 0.930 . S
H575 C566 0.930 . S
Tb576 C586 2.825 . S
Tb576 O587 2.347 . S
Tb576 O590 2.366 . S
Tb576 O595 2.445 . S
Tb576 O596 2.384 . S
Tb576 O599 2.479 . S
Tb576 O600 2.471 . S
Eu577 O588 2.418 1_556 S
Eu577 O589 2.384 1_556 S
Eu577 O592 2.479 . S
Eu577 O593 2.471 . S
Eu577 O594 2.347 1_556 S
Eu577 O597 2.366 1_556 S
Eu577 C607 2.825 . S
C578 O594 1.272 . S
C578 O595 1.267 . S
C579 O596 1.255 . S
C579 O597 1.265 . S
C580 C582 1.380 . S
C580 C583 1.374 . S
C580 C586 1.507 . S
C581 C582 1.384 . S
C581 C585 1.387 . S
C581 H608 0.930 1_545 S
C582 C580 1.380 . S
C582 C581 1.384 . S
C582 H609 0.931 . S
C583 C580 1.374 . S
C583 C584 1.390 . S
C583 H610 0.930 . S
C584 C583 1.390 . S
C584 C585 1.391 . S
C584 H611 0.930 . S
C585 C581 1.387 . S
C585 C584 1.391 . S
C586 Tb576 2.825 . S
C586 C580 1.507 . S
C586 O599 1.238 . S
C586 O600 1.247 . S
O587 Tb576 2.347 . S
O587 C591 1.259 . S
O588 Eu577 2.418 1_554 S
O588 C591 1.265 . S
O589 Eu577 2.384 1_554 S
O589 C598 1.255 . S
O590 Tb576 2.366 . S
O590 C598 1.265 . S
C591 O587 1.259 . S
C591 O588 1.265 . S
O592 Eu577 2.479 . S
O592 C607 1.238 . S
O593 Eu577 2.471 . S
O593 C607 1.247 . S
O594 Eu577 2.347 1_554 S
O594 C578 1.272 . S
O595 Tb576 2.445 . S
O595 C578 1.267 . S
O596 Tb576 2.384 . S
O596 C579 1.255 . S
O597 Eu577 2.366 1_554 S
O597 C579 1.265 . S
C598 O589 1.255 . S
C598 O590 1.265 . S
O599 Tb576 2.479 . S
O599 C586 1.238 . S
O600 Tb576 2.471 . S
O600 C586 1.247 . S
C601 C604 1.380 . S
C601 C605 1.374 . S
C601 C607 1.507 . S
C602 C603 1.387 . S
C602 C606 1.391 . S
C603 C602 1.387 . S
C603 C604 1.384 . S
C603 H612 0.930 . S
C604 C601 1.380 . S
C604 C603 1.384 . S
C604 H613 0.931 . S
C605 C601 1.374 . S
C605 C606 1.390 . S
C605 H614 0.930 . S
C606 C602 1.391 . S
C606 C605 1.390 . S
C606 H615 0.930 . S
C607 Eu577 2.825 . S
C607 O592 1.238 . S
C607 O593 1.247 . S
C607 C601 1.507 . S
H608 C581 0.930 1_565 S
H609 C582 0.931 . S
H610 C583 0.930 . S
H611 C584 0.930 . S
H612 C603 0.930 . S
H613 C604 0.931 . S
H614 C605 0.930 . S
H615 C606 0.930 . S
Tb616 C626 2.825 . S
Tb616 O627 2.347 . S
Tb616 O630 2.366 . S
Tb616 O635 2.418 . S
Tb616 O636 2.384 . S
Tb616 O639 2.479 . S
Tb616 O640 2.471 . S
Eu617 O628 2.418 . S
Eu617 O629 2.384 . S
Eu617 O632 2.479 . S
Eu617 O633 2.471 . S
Eu617 O634 2.347 . S
Eu617 O637 2.366 . S
Eu617 C647 2.825 . S
C618 O634 1.259 . S
C618 O635 1.265 . S
C619 O636 1.255 . S
C619 O637 1.265 . S
C620 C622 1.380 . S
C620 C623 1.374 . S
C620 C626 1.507 . S
C621 C622 1.384 . S
C621 C625 1.387 . S
C621 H648 0.930 . S
C622 C620 1.380 . S
C622 C621 1.384 . S
C622 H649 0.931 . S
C623 C620 1.374 . S
C623 C624 1.390 . S
C623 H650 0.930 . S
C624 C623 1.390 . S
C624 C625 1.391 . S
C624 H651 0.930 . S
C625 C621 1.387 . S
C625 C624 1.391 . S
C626 Tb616 2.825 . S
C626 C620 1.507 . S
C626 O639 1.238 . S
C626 O640 1.247 . S
O627 Tb616 2.347 . S
O627 C631 1.259 . S
O628 Eu617 2.418 . S
O628 C631 1.265 . S
O629 Eu617 2.384 . S
O629 C638 1.255 . S
O630 Tb616 2.366 . S
O630 C638 1.265 . S
C631 O627 1.259 . S
C631 O628 1.265 . S
O632 Eu617 2.479 . S
O632 C647 1.238 . S
O633 Eu617 2.471 . S
O633 C647 1.247 . S
O634 Eu617 2.347 . S
O634 C618 1.259 . S
O635 Tb616 2.418 . S
O635 C618 1.265 . S
O636 Tb616 2.384 . S
O636 C619 1.255 . S
O637 Eu617 2.366 . S
O637 C619 1.265 . S
C638 O629 1.255 . S
C638 O630 1.265 . S
O639 Tb616 2.479 . S
O639 C626 1.238 . S
O640 Tb616 2.471 . S
O640 C626 1.247 . S
C641 C644 1.380 . S
C641 C645 1.374 . S
C641 C647 1.507 . S
C642 C643 1.387 . S
C642 C646 1.391 . S
C643 C642 1.387 . S
C643 C644 1.384 . S
C643 H652 0.930 . S
C644 C641 1.380 . S
C644 C643 1.384 . S
C644 H653 0.931 . S
C645 C641 1.374 . S
C645 C646 1.390 . S
C645 H654 0.930 . S
C646 C642 1.391 . S
C646 C645 1.390 . S
C646 H655 0.930 . S
C647 Eu617 2.825 . S
C647 O632 1.238 . S
C647 O633 1.247 . S
C647 C641 1.507 . S
H648 C621 0.930 . S
H649 C622 0.931 . S
H650 C623 0.930 . S
H651 C624 0.930 . S
H652 C643 0.930 . S
H653 C644 0.931 . S
H654 C645 0.930 . S
H655 C646 0.930 . S
Tb656 C666 2.827 1_554 S
Tb656 O667 2.346 . S
Tb656 O670 2.367 1_554 S
Tb656 O675 2.418 . S
Tb656 O676 2.382 . S
Tb656 O679 2.480 1_554 S
Tb656 O680 2.473 1_554 S
Eu657 O668 2.418 . S
Eu657 O669 2.384 . S
Eu657 O672 2.479 . S
Eu657 O673 2.471 . S
Eu657 O674 2.347 . S
Eu657 O677 2.366 . S
Eu657 C687 2.825 . S
C658 O674 1.259 . S
C658 O675 1.265 . S
C659 O676 1.255 . S
C659 O677 1.265 . S
C660 C662 1.380 . S
C660 C663 1.374 . S
C660 C666 1.507 . S
C661 C662 1.384 . S
C661 C665 1.387 . S
C661 H688 0.930 . S
C662 C660 1.380 . S
C662 C661 1.384 . S
C662 H689 0.931 . S
C663 C660 1.374 . S
C663 C664 1.390 . S
C663 H690 0.930 . S
C664 C663 1.390 . S
C664 C665 1.391 . S
C664 H691 0.930 . S
C665 C661 1.387 . S
C665 C664 1.391 . S
C666 Tb656 2.827 1_556 S
C666 C660 1.507 . S
C666 O679 1.238 . S
C666 O680 1.247 . S
O667 Tb656 2.346 . S
O667 C671 1.259 . S
O668 Eu657 2.418 . S
O668 C671 1.265 . S
O669 Eu657 2.384 . S
O669 C678 1.255 . S
O670 Tb656 2.367 1_556 S
O670 C678 1.265 1_556 S
C671 O667 1.259 . S
C671 O668 1.265 . S
O672 Eu657 2.479 . S
O672 C687 1.238 . S
O673 Eu657 2.471 . S
O673 C687 1.247 . S
O674 Eu657 2.347 . S
O674 C658 1.259 . S
O675 Tb656 2.418 . S
O675 C658 1.265 . S
O676 Tb656 2.382 . S
O676 C659 1.255 . S
O677 Eu657 2.366 . S
O677 C659 1.265 . S
C678 O669 1.255 . S
C678 O670 1.265 1_554 S
O679 Tb656 2.480 1_556 S
O679 C666 1.238 . S
O680 Tb656 2.473 1_556 S
O680 C666 1.247 . S
C681 C684 1.380 . S
C681 C685 1.374 . S
C681 C687 1.507 . S
C682 C683 1.387 . S
C682 C686 1.391 . S
C683 C682 1.387 . S
C683 C684 1.384 . S
C683 H692 0.930 . S
C684 C681 1.380 . S
C684 C683 1.384 . S
C684 H693 0.931 . S
C685 C681 1.374 . S
C685 C686 1.390 . S
C685 H694 0.930 . S
C686 C682 1.391 . S
C686 C685 1.390 . S
C686 H695 0.930 . S
C687 Eu657 2.825 . S
C687 O672 1.238 . S
C687 O673 1.247 . S
C687 C681 1.507 . S
H688 C661 0.930 . S
H689 C662 0.931 . S
H690 C663 0.930 . S
H691 C664 0.930 . S
H692 C683 0.930 . S
H693 C684 0.931 . S
H694 C685 0.930 . S
H695 C686 0.930 . S
Tb696 C706 2.825 . S
Tb696 O707 2.347 . S
Tb696 O710 2.366 . S
Tb696 O715 2.418 . S
Tb696 O716 2.384 . S
Tb696 O719 2.479 . S
Tb696 O720 2.471 . S
Eu697 O708 2.418 . S
Eu697 O709 2.384 . S
Eu697 O712 2.479 . S
Eu697 O713 2.471 . S
Eu697 O714 2.347 . S
Eu697 O717 2.366 . S
Eu697 C727 2.825 . S
C698 O714 1.259 . S
C698 O715 1.265 . S
C699 O716 1.255 . S
C699 O717 1.265 . S
C700 C702 1.380 . S
C700 C703 1.374 . S
C700 C706 1.507 . S
C701 C702 1.384 . S
C701 C705 1.387 . S
C701 H728 0.930 . S
C702 C700 1.380 . S
C702 C701 1.384 . S
C702 H729 0.931 . S
C703 C700 1.374 . S
C703 C704 1.390 . S
C703 H730 0.930 . S
C704 C703 1.390 . S
C704 C705 1.391 . S
C704 H731 0.930 . S
C705 C701 1.387 . S
C705 C704 1.391 . S
C706 Tb696 2.825 . S
C706 C700 1.507 . S
C706 O719 1.238 . S
C706 O720 1.247 . S
O707 Tb696 2.347 . S
O707 C711 1.259 . S
O708 Eu697 2.418 . S
O708 C711 1.265 . S
O709 Eu697 2.384 . S
O709 C718 1.255 . S
O710 Tb696 2.366 . S
O710 C718 1.265 . S
C711 O707 1.259 . S
C711 O708 1.265 . S
O712 Eu697 2.479 . S
O712 C727 1.238 . S
O713 Eu697 2.471 . S
O713 C727 1.247 . S
O714 Eu697 2.347 . S
O714 C698 1.259 . S
O715 Tb696 2.418 . S
O715 C698 1.265 . S
O716 Tb696 2.384 . S
O716 C699 1.255 . S
O717 Eu697 2.366 . S
O717 C699 1.265 . S
C718 O709 1.255 . S
C718 O710 1.265 . S
O719 Tb696 2.479 . S
O719 C706 1.238 . S
O720 Tb696 2.471 . S
O720 C706 1.247 . S
C721 C724 1.380 . S
C721 C725 1.374 . S
C721 C727 1.507 . S
C722 C723 1.387 . S
C722 C726 1.391 . S
C723 C722 1.387 . S
C723 C724 1.384 . S
C723 H732 0.930 . S
C724 C721 1.380 . S
C724 C723 1.384 . S
C724 H733 0.931 . S
C725 C721 1.374 . S
C725 C726 1.390 . S
C725 H734 0.930 . S
C726 C722 1.391 . S
C726 C725 1.390 . S
C726 H735 0.930 . S
C727 Eu697 2.825 . S
C727 O712 1.238 . S
C727 O713 1.247 . S
C727 C721 1.507 . S
H728 C701 0.930 . S
H729 C702 0.931 . S
H730 C703 0.930 . S
H731 C704 0.930 . S
H732 C723 0.930 . S
H733 C724 0.931 . S
H734 C725 0.930 . S
H735 C726 0.930 . S
Tb736 C746 2.825 . S
Tb736 O747 2.347 . S
Tb736 O750 2.366 . S
Tb736 O755 2.418 . S
Tb736 O756 2.384 . S
Tb736 O759 2.479 . S
Tb736 O760 2.471 . S
Eu737 O748 2.418 . S
Eu737 O749 2.384 1_455 S
Eu737 O752 2.479 . S
Eu737 O753 2.471 . S
Eu737 O754 2.347 . S
Eu737 O757 2.366 . S
Eu737 C767 2.825 . S
C738 O754 1.259 . S
C738 O755 1.265 . S
C739 O756 1.255 . S
C739 O757 1.265 . S
C740 C742 1.380 . S
C740 C743 1.374 . S
C740 C746 1.507 . S
C741 C742 1.384 . S
C741 C745 1.387 . S
C741 H768 0.930 . S
C742 C740 1.380 . S
C742 C741 1.384 . S
C742 H769 0.931 . S
C743 C740 1.374 . S
C743 C744 1.390 . S
C743 H770 0.930 . S
C744 C743 1.390 . S
C744 C745 1.391 . S
C744 H771 0.930 1_455 S
C745 C741 1.387 . S
C745 C744 1.391 . S
C746 Tb736 2.825 . S
C746 C740 1.507 . S
C746 O759 1.238 . S
C746 O760 1.247 . S
O747 Tb736 2.347 . S
O747 C751 1.259 . S
O748 Eu737 2.418 . S
O748 C751 1.265 . S
O749 Eu737 2.384 1_655 S
O749 C758 1.255 . S
O750 Tb736 2.366 . S
O750 C758 1.265 1_455 S
C751 O747 1.259 . S
C751 O748 1.265 . S
O752 Eu737 2.479 . S
O752 C767 1.238 . S
O753 Eu737 2.471 . S
O753 C767 1.247 . S
O754 Eu737 2.347 . S
O754 C738 1.259 . S
O755 Tb736 2.418 . S
O755 C738 1.265 . S
O756 Tb736 2.384 . S
O756 C739 1.255 . S
O757 Eu737 2.366 . S
O757 C739 1.265 . S
C758 O749 1.255 . S
C758 O750 1.265 1_655 S
O759 Tb736 2.479 . S
O759 C746 1.238 . S
O760 Tb736 2.471 . S
O760 C746 1.247 . S
C761 C764 1.380 . S
C761 C765 1.374 . S
C761 C767 1.507 . S
C762 C763 1.387 . S
C762 C766 1.391 . S
C763 C762 1.387 . S
C763 C764 1.384 . S
C763 H772 0.930 . S
C764 C761 1.380 . S
C764 C763 1.384 . S
C764 H773 0.931 . S
C765 C761 1.374 . S
C765 C766 1.390 . S
C765 H774 0.930 . S
C766 C762 1.391 . S
C766 C765 1.390 . S
C766 H775 0.930 . S
C767 Eu737 2.825 . S
C767 O752 1.238 . S
C767 O753 1.247 . S
C767 C761 1.507 . S
H768 C741 0.930 . S
H769 C742 0.931 . S
H770 C743 0.930 . S
H771 C744 0.930 1_655 S
H772 C763 0.930 . S
H773 C764 0.931 . S
H774 C765 0.930 . S
H775 C766 0.930 . S
Tb776 C786 2.825 . S
Tb776 O787 2.347 . S
Tb776 O790 2.366 . S
Tb776 O795 2.418 . S
Tb776 O796 2.384 . S
Tb776 O799 2.479 . S
Tb776 O800 2.471 . S
Eu777 O788 2.418 . S
Eu777 O789 2.384 . S
Eu777 O792 2.479 . S
Eu777 O793 2.471 . S
Eu777 O794 2.347 . S
Eu777 O797 2.366 . S
Eu777 C807 2.825 . S
C778 O794 1.259 . S
C778 O795 1.265 . S
C779 O796 1.255 . S
C779 O797 1.265 . S
C780 C782 1.380 . S
C780 C783 1.374 . S
C780 C786 1.507 . S
C781 C782 1.384 . S
C781 C785 1.387 . S
C781 H808 0.930 . S
C782 C780 1.380 . S
C782 C781 1.384 . S
C782 H809 0.931 . S
C783 C780 1.374 . S
C783 C784 1.390 . S
C783 H810 0.930 . S
C784 C783 1.390 . S
C784 C785 1.391 . S
C784 H811 0.930 . S
C785 C781 1.387 . S
C785 C784 1.391 . S
C786 Tb776 2.825 . S
C786 C780 1.507 . S
C786 O799 1.238 . S
C786 O800 1.247 . S
O787 Tb776 2.347 . S
O787 C791 1.259 . S
O788 Eu777 2.418 . S
O788 C791 1.265 . S
O789 Eu777 2.384 . S
O789 C798 1.255 . S
O790 Tb776 2.366 . S
O790 C798 1.265 . S
C791 O787 1.259 . S
C791 O788 1.265 . S
O792 Eu777 2.479 . S
O792 C807 1.238 . S
O793 Eu777 2.471 . S
O793 C807 1.247 . S
O794 Eu777 2.347 . S
O794 C778 1.259 . S
O795 Tb776 2.418 . S
O795 C778 1.265 . S
O796 Tb776 2.384 . S
O796 C779 1.255 . S
O797 Eu777 2.366 . S
O797 C779 1.265 . S
C798 O789 1.255 . S
C798 O790 1.265 . S
O799 Tb776 2.479 . S
O799 C786 1.238 . S
O800 Tb776 2.471 . S
O800 C786 1.247 . S
C801 C804 1.380 . S
C801 C805 1.374 . S
C801 C807 1.507 . S
C802 C803 1.387 . S
C802 C806 1.391 . S
C803 C802 1.387 . S
C803 C804 1.384 . S
C803 H812 0.930 . S
C804 C801 1.380 . S
C804 C803 1.384 . S
C804 H813 0.931 . S
C805 C801 1.374 . S
C805 C806 1.390 . S
C805 H814 0.930 . S
C806 C802 1.391 . S
C806 C805 1.390 . S
C806 H815 0.930 . S
C807 Eu777 2.825 . S
C807 O792 1.238 . S
C807 O793 1.247 . S
C807 C801 1.507 . S
H808 C781 0.930 . S
H809 C782 0.931 . S
H810 C783 0.930 . S
H811 C784 0.930 . S
H812 C803 0.930 . S
H813 C804 0.931 . S
H814 C805 0.930 . S
H815 C806 0.930 . S
Tb816 C826 2.825 . S
Tb816 O827 2.347 . S
Tb816 O830 2.366 . S
Tb816 O835 2.418 . S
Tb816 O836 2.384 . S
Tb816 O839 2.479 . S
Tb816 O840 2.471 . S
Eu817 O828 2.418 . S
Eu817 O829 2.384 . S
Eu817 O832 2.479 . S
Eu817 O833 2.471 . S
Eu817 O834 2.347 . S
Eu817 O837 2.366 . S
Eu817 C847 2.825 . S
C818 O834 1.259 . S
C818 O835 1.265 . S
C819 O836 1.255 . S
C819 O837 1.265 . S
C820 C822 1.380 . S
C820 C823 1.374 . S
C820 C826 1.507 . S
C821 C822 1.384 . S
C821 C825 1.387 . S
C821 H848 0.930 . S
C822 C820 1.380 . S
C822 C821 1.384 . S
C822 H849 0.931 . S
C823 C820 1.374 . S
C823 C824 1.390 . S
C823 H850 0.930 . S
C824 C823 1.390 . S
C824 C825 1.391 . S
C824 H851 0.930 . S
C825 C821 1.387 . S
C825 C824 1.391 . S
C826 Tb816 2.825 . S
C826 C820 1.507 . S
C826 O839 1.238 . S
C826 O840 1.247 . S
O827 Tb816 2.347 . S
O827 C831 1.259 . S
O828 Eu817 2.418 . S
O828 C831 1.265 . S
O829 Eu817 2.384 . S
O829 C838 1.255 . S
O830 Tb816 2.366 . S
O830 C838 1.265 . S
C831 O827 1.259 . S
C831 O828 1.265 . S
O832 Eu817 2.479 . S
O832 C847 1.238 . S
O833 Eu817 2.471 . S
O833 C847 1.247 . S
O834 Eu817 2.347 . S
O834 C818 1.259 . S
O835 Tb816 2.418 . S
O835 C818 1.265 . S
O836 Tb816 2.384 . S
O836 C819 1.255 . S
O837 Eu817 2.366 . S
O837 C819 1.265 . S
C838 O829 1.255 . S
C838 O830 1.265 . S
O839 Tb816 2.479 . S
O839 C826 1.238 . S
O840 Tb816 2.471 . S
O840 C826 1.247 . S
C841 C844 1.380 . S
C841 C845 1.374 . S
C841 C847 1.507 . S
C842 C843 1.387 . S
C842 C846 1.391 . S
C843 C842 1.387 . S
C843 C844 1.384 . S
C843 H852 0.930 . S
C844 C841 1.380 . S
C844 C843 1.384 . S
C844 H853 0.931 . S
C845 C841 1.374 . S
C845 C846 1.390 . S
C845 H854 0.930 . S
C846 C842 1.391 . S
C846 C845 1.390 . S
C846 H855 0.930 . S
C847 Eu817 2.825 . S
C847 O832 1.238 . S
C847 O833 1.247 . S
C847 C841 1.507 . S
H848 C821 0.930 . S
H849 C822 0.931 . S
H850 C823 0.930 . S
H851 C824 0.930 . S
H852 C843 0.930 . S
H853 C844 0.931 . S
H854 C845 0.930 . S
H855 C846 0.930 . S
Tb856 C866 2.825 . S
Tb856 O867 2.347 . S
Tb856 O870 2.366 . S
Tb856 O875 2.418 . S
Tb856 O876 2.384 . S
Tb856 O879 2.479 . S
Tb856 O880 2.471 . S
Eu857 O868 2.418 . S
Eu857 O869 2.384 . S
Eu857 O872 2.479 . S
Eu857 O873 2.471 . S
Eu857 O874 2.347 . S
Eu857 O877 2.366 . S
Eu857 C887 2.825 . S
C858 O874 1.259 . S
C858 O875 1.265 . S
C859 O876 1.255 . S
C859 O877 1.265 . S
C860 C862 1.380 . S
C860 C863 1.374 . S
C860 C866 1.507 . S
C861 C862 1.384 . S
C861 C865 1.387 . S
C861 H888 0.930 . S
C862 C860 1.380 . S
C862 C861 1.384 . S
C862 H889 0.931 . S
C863 C860 1.374 . S
C863 C864 1.390 . S
C863 H890 0.930 . S
C864 C863 1.390 . S
C864 C865 1.391 . S
C864 H891 0.930 . S
C865 C861 1.387 . S
C865 C864 1.391 . S
C866 Tb856 2.825 . S
C866 C860 1.507 . S
C866 O879 1.238 . S
C866 O880 1.247 . S
O867 Tb856 2.347 . S
O867 C871 1.259 . S
O868 Eu857 2.418 . S
O868 C871 1.265 . S
O869 Eu857 2.384 . S
O869 C878 1.255 . S
O870 Tb856 2.366 . S
O870 C878 1.265 . S
C871 O867 1.259 . S
C871 O868 1.265 . S
O872 Eu857 2.479 . S
O872 C887 1.238 . S
O873 Eu857 2.471 . S
O873 C887 1.247 . S
O874 Eu857 2.347 . S
O874 C858 1.259 . S
O875 Tb856 2.418 . S
O875 C858 1.265 . S
O876 Tb856 2.384 . S
O876 C859 1.255 . S
O877 Eu857 2.366 . S
O877 C859 1.265 . S
C878 O869 1.255 . S
C878 O870 1.265 . S
O879 Tb856 2.479 . S
O879 C866 1.238 . S
O880 Tb856 2.471 . S
O880 C866 1.247 . S
C881 C884 1.380 . S
C881 C885 1.374 . S
C881 C887 1.507 . S
C882 C883 1.387 . S
C882 C886 1.391 . S
C883 C882 1.387 . S
C883 C884 1.384 . S
C883 H892 0.930 . S
C884 C881 1.380 . S
C884 C883 1.384 . S
C884 H893 0.931 . S
C885 C881 1.374 . S
C885 C886 1.390 . S
C885 H894 0.930 . S
C886 C882 1.391 . S
C886 C885 1.390 . S
C886 H895 0.930 . S
C887 Eu857 2.825 . S
C887 O872 1.238 . S
C887 O873 1.247 . S
C887 C881 1.507 . S
H888 C861 0.930 . S
H889 C862 0.931 . S
H890 C863 0.930 . S
H891 C864 0.930 . S
H892 C883 0.930 . S
H893 C884 0.931 . S
H894 C885 0.930 . S
H895 C886 0.930 . S
Tb896 C906 2.825 . S
Tb896 O907 2.347 . S
Tb896 O910 2.366 . S
Tb896 O915 2.418 . S
Tb896 O916 2.384 . S
Tb896 O919 2.479 . S
Tb896 O920 2.471 . S
Eu897 O908 2.418 . S
Eu897 O909 2.384 . S
Eu897 O912 2.479 . S
Eu897 O913 2.471 . S
Eu897 O914 2.347 . S
Eu897 O917 2.366 . S
Eu897 C927 2.825 . S
C898 O914 1.259 . S
C898 O915 1.265 . S
C899 O916 1.255 . S
C899 O917 1.265 . S
C900 C902 1.380 . S
C900 C903 1.374 . S
C900 C906 1.507 . S
C901 C902 1.384 . S
C901 C905 1.387 . S
C901 H928 0.930 . S
C902 C900 1.380 . S
C902 C901 1.384 . S
C902 H929 0.931 . S
C903 C900 1.374 . S
C903 C904 1.390 . S
C903 H930 0.930 . S
C904 C903 1.390 . S
C904 C905 1.391 . S
C904 H931 0.930 . S
C905 C901 1.387 . S
C905 C904 1.391 . S
C906 Tb896 2.825 . S
C906 C900 1.507 . S
C906 O919 1.238 . S
C906 O920 1.247 . S
O907 Tb896 2.347 . S
O907 C911 1.259 . S
O908 Eu897 2.418 . S
O908 C911 1.265 . S
O909 Eu897 2.384 . S
O909 C918 1.255 . S
O910 Tb896 2.366 . S
O910 C918 1.265 . S
C911 O907 1.259 . S
C911 O908 1.265 . S
O912 Eu897 2.479 . S
O912 C927 1.238 . S
O913 Eu897 2.471 . S
O913 C927 1.247 . S
O914 Eu897 2.347 . S
O914 C898 1.259 . S
O915 Tb896 2.418 . S
O915 C898 1.265 . S
O916 Tb896 2.384 . S
O916 C899 1.255 . S
O917 Eu897 2.366 . S
O917 C899 1.265 . S
C918 O909 1.255 . S
C918 O910 1.265 . S
O919 Tb896 2.479 . S
O919 C906 1.238 . S
O920 Tb896 2.471 . S
O920 C906 1.247 . S
C921 C924 1.380 . S
C921 C925 1.374 . S
C921 C927 1.507 . S
C922 C923 1.387 . S
C922 C926 1.391 . S
C923 C922 1.387 . S
C923 C924 1.384 . S
C923 H932 0.930 . S
C924 C921 1.380 . S
C924 C923 1.384 . S
C924 H933 0.931 . S
C925 C921 1.374 . S
C925 C926 1.390 . S
C925 H934 0.930 . S
C926 C922 1.391 . S
C926 C925 1.390 . S
C926 H935 0.930 . S
C927 Eu897 2.825 . S
C927 O912 1.238 . S
C927 O913 1.247 . S
C927 C921 1.507 . S
H928 C901 0.930 . S
H929 C902 0.931 . S
H930 C903 0.930 . S
H931 C904 0.930 . S
H932 C923 0.930 . S
H933 C924 0.931 . S
H934 C925 0.930 . S
H935 C926 0.930 . S
Tb936 C946 2.825 . S
Tb936 O947 2.347 . S
Tb936 O950 2.366 . S
Tb936 O955 2.418 . S
Tb936 O956 2.384 . S
Tb936 O959 2.479 . S
Tb936 O960 2.471 . S
Eu937 O948 2.418 . S
Eu937 O949 2.384 . S
Eu937 O952 2.479 . S
Eu937 O953 2.471 . S
Eu937 O954 2.347 . S
Eu937 O957 2.366 . S
Eu937 C967 2.825 . S
C938 O954 1.259 . S
C938 O955 1.265 . S
C939 O956 1.255 . S
C939 O957 1.265 . S
C940 C942 1.380 . S
C940 C943 1.374 1_554 S
C940 C946 1.507 . S
C941 C942 1.384 . S
C941 C945 1.387 1_554 S
C941 H968 0.930 . S
C942 C940 1.380 . S
C942 C941 1.384 . S
C942 H969 0.931 . S
C943 C940 1.374 1_556 S
C943 C944 1.390 . S
C943 H970 0.930 . S
C944 C943 1.390 . S
C944 C945 1.391 . S
C944 H971 0.930 . S
C945 C941 1.387 1_556 S
C945 C944 1.391 . S
C946 Tb936 2.825 . S
C946 C940 1.507 . S
C946 O959 1.238 . S
C946 O960 1.247 . S
O947 Tb936 2.347 . S
O947 C951 1.259 . S
O948 Eu937 2.418 . S
O948 C951 1.265 . S
O949 Eu937 2.384 . S
O949 C958 1.255 . S
O950 Tb936 2.366 . S
O950 C958 1.265 . S
C951 O947 1.259 . S
C951 O948 1.265 . S
O952 Eu937 2.479 . S
O952 C967 1.238 . S
O953 Eu937 2.471 . S
O953 C967 1.247 . S
O954 Eu937 2.347 . S
O954 C938 1.259 . S
O955 Tb936 2.418 . S
O955 C938 1.265 . S
O956 Tb936 2.384 . S
O956 C939 1.255 . S
O957 Eu937 2.366 . S
O957 C939 1.265 . S
C958 O949 1.255 . S
C958 O950 1.265 . S
O959 Tb936 2.479 . S
O959 C946 1.238 . S
O960 Tb936 2.471 . S
O960 C946 1.247 . S
C961 C964 1.380 . S
C961 C965 1.374 . S
C961 C967 1.507 . S
C962 C963 1.387 . S
C962 C966 1.391 . S
C963 C962 1.387 . S
C963 C964 1.384 . S
C963 H972 0.930 . S
C964 C961 1.380 . S
C964 C963 1.384 . S
C964 H973 0.931 . S
C965 C961 1.374 . S
C965 C966 1.390 . S
C965 H974 0.930 . S
C966 C962 1.391 . S
C966 C965 1.390 . S
C966 H975 0.930 . S
C967 Eu937 2.825 . S
C967 O952 1.238 . S
C967 O953 1.247 . S
C967 C961 1.507 . S
H968 C941 0.930 . S
H969 C942 0.931 . S
H970 C943 0.930 . S
H971 C944 0.930 . S
H972 C963 0.930 . S
H973 C964 0.931 . S
H974 C965 0.930 . S
H975 C966 0.930 . S
C976 C977 1.363 . S
C976 C982 1.379 . S
C976 N984 1.356 1_455 S
C977 C976 1.363 . S
C977 C983 1.363 . S
C978 C979 1.361 1_556 S
C978 C983 1.387 . S
C978 N985 1.348 1_556 S
C979 C978 1.361 1_554 S
C979 C982 1.363 1_554 S
N980 C982 1.356 . S
N980 H992 0.984 . S
N980 H993 0.985 1_556 S
N981 C983 1.356 . S
N981 H986 0.984 . S
N981 H987 0.985 . S
C982 C976 1.379 . S
C982 C979 1.363 1_556 S
C982 N980 1.356 . S
C983 C977 1.363 . S
C983 C978 1.387 . S
C983 N981 1.356 . S
N984 C976 1.356 1_655 S
N984 H990 0.984 . S
N984 H991 0.984 . S
N985 C978 1.348 1_554 S
N985 H988 0.984 . S
N985 H989 0.985 . S
H986 N981 0.984 . S
H987 N981 0.985 . S
H988 N985 0.984 . S
H989 N985 0.985 . S
H990 N984 0.984 . S
H991 N984 0.984 . S
H992 N980 0.984 . S
H993 N980 0.985 1_554 S
C994 C995 1.363 . S
C994 C1000 1.379 . S
C994 N1002 1.356 . S
C995 C994 1.363 . S
C995 C1001 1.363 . S
C996 C997 1.363 . S
C996 C1001 1.379 . S
C996 N1003 1.356 . S
C997 C996 1.363 . S
C997 C1000 1.363 . S
N998 C1000 1.356 . S
N998 H1010 0.984 . S
N998 H1011 0.985 . S
N999 C1001 1.356 . S
N999 H1004 0.984 . S
N999 H1005 0.985 . S
C1000 C994 1.379 . S
C1000 C997 1.363 . S
C1000 N998 1.356 . S
C1001 C995 1.363 . S
C1001 C996 1.379 . S
C1001 N999 1.356 . S
N1002 C994 1.356 . S
N1002 H1008 0.984 . S
N1002 H1009 0.984 . S
N1003 C996 1.356 . S
N1003 H1006 0.984 . S
N1003 H1007 0.985 . S
H1004 N999 0.984 . S
H1005 N999 0.985 . S
H1006 N1003 0.984 . S
H1007 N1003 0.985 . S
H1008 N1002 0.984 . S
H1009 N1002 0.984 . S
H1010 N998 0.984 . S
H1011 N998 0.985 . S
C1012 C1013 1.363 . S
C1012 C1018 1.379 . S
C1012 N1020 1.356 . S
C1013 C1012 1.363 . S
C1013 C1019 1.363 . S
C1014 C1015 1.363 . S
C1014 C1019 1.379 . S
C1014 N1021 1.356 . S
C1015 C1014 1.363 . S
C1015 C1018 1.363 . S
N1016 C1018 1.356 . S
N1016 H1028 0.984 . S
N1016 H1029 0.985 . S
N1017 C1019 1.356 . S
N1017 H1022 0.984 . S
N1017 H1023 0.985 . S
C1018 C1012 1.379 . S
C1018 C1015 1.363 . S
C1018 N1016 1.356 . S
C1019 C1013 1.363 . S
C1019 C1014 1.379 . S
C1019 N1017 1.356 . S
N1020 C1012 1.356 . S
N1020 H1026 0.984 . S
N1020 H1027 0.984 . S
N1021 C1014 1.356 . S
N1021 H1024 0.984 . S
N1021 H1025 0.985 . S
H1022 N1017 0.984 . S
H1023 N1017 0.985 . S
H1024 N1021 0.984 . S
H1025 N1021 0.985 . S
H1026 N1020 0.984 . S
H1027 N1020 0.984 . S
H1028 N1016 0.984 . S
H1029 N1016 0.985 . S
C1030 C1031 1.363 . S
C1030 C1036 1.379 . S
C1030 N1038 1.356 . S
C1031 C1030 1.363 . S
C1031 C1037 1.363 . S
C1032 C1033 1.363 . S
C1032 C1037 1.379 . S
C1032 N1039 1.356 . S
C1033 C1032 1.363 . S
C1033 C1036 1.363 . S
N1034 C1036 1.356 . S
N1034 H1046 0.984 . S
N1034 H1047 0.985 . S
N1035 C1037 1.356 . S
N1035 H1040 0.984 . S
N1035 H1041 0.985 . S
C1036 C1030 1.379 . S
C1036 C1033 1.363 . S
C1036 N1034 1.356 . S
C1037 C1031 1.363 . S
C1037 C1032 1.379 . S
C1037 N1035 1.356 . S
N1038 C1030 1.356 . S
N1038 H1044 0.984 . S
N1038 H1045 0.984 . S
N1039 C1032 1.356 . S
N1039 H1042 0.984 . S
N1039 H1043 0.985 . S
H1040 N1035 0.984 . S
H1041 N1035 0.985 . S
H1042 N1039 0.984 . S
H1043 N1039 0.985 . S
H1044 N1038 0.984 . S
H1045 N1038 0.984 . S
H1046 N1034 0.984 . S
H1047 N1034 0.985 . S
C1048 C1049 1.363 . S
C1048 C1054 1.379 . S
C1048 N1056 1.356 . S
C1049 C1048 1.363 . S
C1049 C1055 1.363 . S
C1050 C1051 1.363 . S
C1050 C1055 1.379 . S
C1050 N1057 1.356 . S
C1051 C1050 1.363 . S
C1051 C1054 1.363 . S
N1052 C1054 1.356 . S
N1052 H1064 0.984 . S
N1052 H1065 0.987 . S
N1053 C1055 1.356 . S
N1053 H1058 0.984 . S
N1053 H1059 0.985 . S
C1054 C1048 1.379 . S
C1054 C1051 1.363 . S
C1054 N1052 1.356 . S
C1055 C1049 1.363 . S
C1055 C1050 1.379 . S
C1055 N1053 1.356 . S
N1056 C1048 1.356 . S
N1056 H1062 0.984 . S
N1056 H1063 0.984 . S
N1057 C1050 1.356 . S
N1057 H1060 0.984 . S
N1057 H1061 0.985 . S
H1058 N1053 0.984 . S
H1059 N1053 0.985 . S
H1060 N1057 0.984 . S
H1061 N1057 0.985 . S
H1062 N1056 0.984 . S
H1063 N1056 0.984 . S
H1064 N1052 0.984 . S
H1065 N1052 0.987 . S
C1066 C1067 1.363 . S
C1066 C1072 1.379 . S
C1066 N1074 1.356 . S
C1067 C1066 1.363 . S
C1067 C1073 1.363 . S
C1068 C1069 1.363 . S
C1068 C1073 1.379 . S
C1068 N1075 1.356 . S
C1069 C1068 1.363 . S
C1069 C1072 1.363 . S
N1070 C1072 1.356 . S
N1070 H1082 0.984 . S
N1070 H1083 0.985 . S
N1071 C1073 1.356 . S
N1071 H1076 0.984 . S
N1071 H1077 0.985 . S
C1072 C1066 1.379 . S
C1072 C1069 1.363 . S
C1072 N1070 1.356 . S
C1073 C1067 1.363 . S
C1073 C1068 1.379 . S
C1073 N1071 1.356 . S
N1074 C1066 1.356 . S
N1074 H1080 0.984 . S
N1074 H1081 0.984 . S
N1075 C1068 1.356 . S
N1075 H1078 0.984 . S
N1075 H1079 0.985 . S
H1076 N1071 0.984 . S
H1077 N1071 0.985 . S
H1078 N1075 0.984 . S
H1079 N1075 0.985 . S
H1080 N1074 0.984 . S
H1081 N1074 0.984 . S
H1082 N1070 0.984 . S
H1083 N1070 0.985 . S
C1084 C1085 1.363 . S
C1084 C1090 1.379 . S
C1084 N1092 1.356 . S
C1085 C1084 1.363 . S
C1085 C1091 1.363 . S
C1086 C1087 1.363 . S
C1086 C1091 1.379 . S
C1086 N1093 1.356 . S
C1087 C1086 1.363 . S
C1087 C1090 1.363 . S
N1088 C1090 1.356 . S
N1088 H1100 0.984 . S
N1088 H1101 0.985 . S
N1089 C1091 1.356 . S
N1089 H1094 0.984 . S
N1089 H1095 0.985 . S
C1090 C1084 1.379 . S
C1090 C1087 1.363 . S
C1090 N1088 1.356 . S
C1091 C1085 1.363 . S
C1091 C1086 1.379 . S
C1091 N1089 1.356 . S
N1092 C1084 1.356 . S
N1092 H1098 0.984 . S
N1092 H1099 0.984 . S
N1093 C1086 1.356 . S
N1093 H1096 0.984 . S
N1093 H1097 0.985 . S
H1094 N1089 0.984 . S
H1095 N1089 0.985 . S
H1096 N1093 0.984 . S
H1097 N1093 0.985 . S
H1098 N1092 0.984 . S
H1099 N1092 0.984 . S
H1100 N1088 0.984 . S
H1101 N1088 0.985 . S
C1102 C1103 1.363 . S
C1102 C1108 1.379 . S
C1102 N1110 1.356 . S
C1103 C1102 1.363 . S
C1103 C1109 1.363 . S
C1104 C1105 1.363 . S
C1104 C1109 1.379 . S
C1104 N1111 1.356 . S
C1105 C1104 1.363 . S
C1105 C1108 1.363 . S
N1106 C1108 1.356 . S
N1106 H1118 0.984 . S
N1106 H1119 0.985 . S
N1107 C1109 1.356 . S
N1107 H1112 0.984 . S
N1107 H1113 0.985 . S
C1108 C1102 1.379 . S
C1108 C1105 1.363 . S
C1108 N1106 1.356 . S
C1109 C1103 1.363 . S
C1109 C1104 1.379 . S
C1109 N1107 1.356 . S
N1110 C1102 1.356 . S
N1110 H1116 0.984 . S
N1110 H1117 0.984 . S
N1111 C1104 1.356 . S
N1111 H1114 0.984 . S
N1111 H1115 0.985 . S
H1112 N1107 0.984 . S
H1113 N1107 0.985 . S
H1114 N1111 0.984 . S
H1115 N1111 0.985 . S
H1116 N1110 0.984 . S
H1117 N1110 0.984 . S
H1118 N1106 0.984 . S
H1119 N1106 0.985 . S
C1120 C1121 1.363 . S
C1120 C1126 1.379 . S
C1120 N1128 1.356 . S
C1121 C1120 1.363 . S
C1121 C1127 1.363 . S
C1122 C1123 1.366 1_655 S
C1122 C1127 1.379 . S
C1122 N1129 1.356 1_655 S
C1123 C1122 1.366 1_455 S
C1123 C1126 1.339 1_455 S
N1124 C1126 1.356 . S
N1124 H1136 0.984 . S
N1124 H1137 0.985 1_655 S
N1125 C1127 1.356 1_565 S
N1125 H1130 0.984 . S
N1125 H1131 0.985 . S
C1126 C1120 1.379 . S
C1126 C1123 1.339 1_655 S
C1126 N1124 1.356 . S
C1127 C1121 1.363 . S
C1127 C1122 1.379 . S
C1127 N1125 1.356 1_545 S
N1128 C1120 1.356 . S
N1128 H1134 0.984 . S
N1128 H1135 0.984 . S
N1129 C1122 1.356 1_455 S
N1129 H1132 0.984 . S
N1129 H1133 0.985 . S
H1130 N1125 0.984 . S
H1131 N1125 0.985 . S
H1132 N1129 0.984 . S
H1133 N1129 0.985 . S
H1134 N1128 0.984 . S
H1135 N1128 0.984 . S
H1136 N1124 0.984 . S
H1137 N1124 0.985 1_455 S
C1138 C1139 1.363 . S
C1138 C1144 1.379 . S
C1138 N1146 1.356 . S
C1139 C1138 1.363 . S
C1139 C1145 1.363 . S
C1140 C1141 1.363 . S
C1140 C1145 1.379 . S
C1140 N1147 1.356 . S
C1141 C1140 1.363 . S
C1141 C1144 1.363 . S
N1142 C1144 1.356 . S
N1142 H1154 0.984 . S
N1142 H1155 0.985 . S
N1143 C1145 1.356 . S
N1143 H1148 0.984 . S
N1143 H1149 0.985 . S
C1144 C1138 1.379 . S
C1144 C1141 1.363 . S
C1144 N1142 1.356 . S
C1145 C1139 1.363 . S
C1145 C1140 1.379 . S
C1145 N1143 1.356 . S
N1146 C1138 1.356 . S
N1146 H1152 0.984 . S
N1146 H1153 0.984 . S
N1147 C1140 1.356 . S
N1147 H1150 0.984 . S
N1147 H1151 0.985 . S
H1148 N1143 0.984 . S
H1149 N1143 0.985 . S
H1150 N1147 0.984 . S
H1151 N1147 0.985 . S
H1152 N1146 0.984 . S
H1153 N1146 0.984 . S
H1154 N1142 0.984 . S
H1155 N1142 0.985 . S
C1156 C1157 1.363 . S
C1156 C1162 1.379 . S
C1156 N1164 1.356 . S
C1157 C1156 1.363 . S
C1157 C1163 1.363 . S
C1158 C1159 1.363 . S
C1158 C1163 1.379 . S
C1158 N1165 1.356 . S
C1159 C1158 1.363 . S
C1159 C1162 1.363 . S
N1160 C1162 1.356 . S
N1160 H1172 0.984 . S
N1160 H1173 0.985 . S
N1161 C1163 1.356 1_565 S
N1161 H1166 0.984 . S
N1161 H1167 0.985 . S
C1162 C1156 1.379 . S
C1162 C1159 1.363 . S
C1162 N1160 1.356 . S
C1163 C1157 1.363 . S
C1163 C1158 1.379 . S
C1163 N1161 1.356 1_545 S
N1164 C1156 1.356 . S
N1164 H1170 0.984 . S
N1164 H1171 0.984 1_545 S
N1165 C1158 1.356 . S
N1165 H1168 0.984 . S
N1165 H1169 0.985 . S
H1166 N1161 0.984 . S
H1167 N1161 0.985 . S
H1168 N1165 0.984 . S
H1169 N1165 0.985 . S
H1170 N1164 0.984 . S
H1171 N1164 0.984 1_565 S
H1172 N1160 0.984 . S
H1173 N1160 0.985 . S
C1174 C1175 1.363 . S
C1174 C1180 1.379 . S
C1174 N1182 1.356 . S
C1175 C1174 1.363 . S
C1175 C1181 1.363 . S
C1176 C1177 1.363 . S
C1176 C1181 1.379 . S
C1176 N1183 1.356 . S
C1177 C1176 1.363 . S
C1177 C1180 1.363 . S
N1178 C1180 1.356 . S
N1178 H1190 0.984 . S
N1178 H1191 0.985 . S
N1179 C1181 1.356 . S
N1179 H1184 0.984 . S
N1179 H1185 0.985 . S
C1180 C1174 1.379 . S
C1180 C1177 1.363 . S
C1180 N1178 1.356 . S
C1181 C1175 1.363 . S
C1181 C1176 1.379 . S
C1181 N1179 1.356 . S
N1182 C1174 1.356 . S
N1182 H1188 0.984 . S
N1182 H1189 0.984 . S
N1183 C1176 1.356 . S
N1183 H1186 0.984 . S
N1183 H1187 0.985 . S
H1184 N1179 0.984 . S
H1185 N1179 0.985 . S
H1186 N1183 0.984 . S
H1187 N1183 0.985 . S
H1188 N1182 0.984 . S
H1189 N1182 0.984 . S
H1190 N1178 0.984 . S
H1191 N1178 0.985 . S
C1192 C1193 1.355 1_545 S
C1192 C1198 1.379 . S
C1192 N1200 1.345 1_545 S
C1193 C1192 1.355 1_565 S
C1193 C1199 1.354 1_565 S
C1194 C1195 1.363 . S
C1194 C1199 1.379 . S
C1194 N1201 1.356 . S
C1195 C1194 1.363 . S
C1195 C1198 1.363 . S
N1196 C1198 1.356 1_455 S
N1196 H1208 0.984 . S
N1196 H1209 0.985 . S
N1197 C1199 1.356 1_565 S
N1197 H1202 0.984 . S
N1197 H1203 0.985 . S
C1198 C1192 1.379 . S
C1198 C1195 1.363 . S
C1198 N1196 1.356 1_655 S
C1199 C1193 1.354 1_545 S
C1199 C1194 1.379 . S
C1199 N1197 1.356 1_545 S
N1200 C1192 1.345 1_565 S
N1200 H1206 0.983 1_565 S
N1200 H1207 0.999 . S
N1201 C1194 1.356 . S
N1201 H1204 0.984 . S
N1201 H1205 0.985 . S
H1202 N1197 0.984 . S
H1203 N1197 0.985 . S
H1204 N1201 0.984 . S
H1205 N1201 0.985 . S
H1206 N1200 0.983 1_545 S
H1207 N1200 0.999 . S
H1208 N1196 0.984 . S
H1209 N1196 0.985 . S
C1210 C1211 1.363 . S
C1210 C1216 1.379 . S
C1210 N1218 1.356 . S
C1211 C1210 1.363 . S
C1211 C1217 1.363 . S
C1212 C1213 1.363 . S
C1212 C1217 1.379 . S
C1212 N1219 1.356 . S
C1213 C1212 1.363 . S
C1213 C1216 1.363 . S
N1214 C1216 1.356 . S
N1214 H1226 0.984 . S
N1214 H1227 0.985 . S
N1215 C1217 1.356 . S
N1215 H1220 0.984 . S
N1215 H1221 0.985 . S
C1216 C1210 1.379 . S
C1216 C1213 1.363 . S
C1216 N1214 1.356 . S
C1217 C1211 1.363 . S
C1217 C1212 1.379 . S
C1217 N1215 1.356 . S
N1218 C1210 1.356 . S
N1218 H1224 0.984 . S
N1218 H1225 0.984 . S
N1219 C1212 1.356 . S
N1219 H1222 0.984 . S
N1219 H1223 0.985 . S
H1220 N1215 0.984 . S
H1221 N1215 0.985 . S
H1222 N1219 0.984 . S
H1223 N1219 0.985 . S
H1224 N1218 0.984 . S
H1225 N1218 0.984 . S
H1226 N1214 0.984 . S
H1227 N1214 0.985 . S
C1228 C1229 1.363 . S
C1228 C1234 1.379 . S
C1228 N1236 1.356 . S
C1229 C1228 1.363 . S
C1229 C1235 1.363 . S
C1230 C1231 1.363 . S
C1230 C1235 1.379 . S
C1230 N1237 1.356 . S
C1231 C1230 1.363 . S
C1231 C1234 1.363 . S
N1232 C1234 1.356 . S
N1232 H1244 0.984 . S
N1232 H1245 0.985 . S
N1233 C1235 1.356 . S
N1233 H1238 0.984 . S
N1233 H1239 0.985 . S
C1234 C1228 1.379 . S
C1234 C1231 1.363 . S
C1234 N1232 1.356 . S
C1235 C1229 1.363 . S
C1235 C1230 1.379 . S
C1235 N1233 1.356 . S
N1236 C1228 1.356 . S
N1236 H1242 0.984 . S
N1236 H1243 0.984 1_545 S
N1237 C1230 1.356 . S
N1237 H1240 0.984 . S
N1237 H1241 0.985 . S
H1238 N1233 0.984 . S
H1239 N1233 0.985 . S
H1240 N1237 0.984 . S
H1241 N1237 0.985 . S
H1242 N1236 0.984 . S
H1243 N1236 0.984 1_565 S
H1244 N1232 0.984 . S
H1245 N1232 0.985 . S
C1246 C1247 1.363 . S
C1246 C1252 1.379 . S
C1246 N1254 1.356 . S
C1247 C1246 1.363 . S
C1247 C1253 1.363 . S
C1248 C1249 1.363 . S
C1248 C1253 1.379 . S
C1248 N1255 1.356 . S
C1249 C1248 1.363 . S
C1249 C1252 1.363 . S
N1250 C1252 1.356 . S
N1250 H1262 0.984 . S
N1250 H1263 0.985 . S
N1251 C1253 1.356 . S
N1251 H1256 0.984 . S
N1251 H1257 0.985 . S
C1252 C1246 1.379 . S
C1252 C1249 1.363 . S
C1252 N1250 1.356 . S
C1253 C1247 1.363 . S
C1253 C1248 1.379 . S
C1253 N1251 1.356 . S
N1254 C1246 1.356 . S
N1254 H1260 0.984 . S
N1254 H1261 0.984 . S
N1255 C1248 1.356 . S
N1255 H1258 0.984 . S
N1255 H1259 0.985 . S
H1256 N1251 0.984 . S
H1257 N1251 0.985 . S
H1258 N1255 0.984 . S
H1259 N1255 0.985 . S
H1260 N1254 0.984 . S
H1261 N1254 0.984 . S
H1262 N1250 0.984 . S
H1263 N1250 0.985 . S
C1264 C1265 1.363 . S
C1264 C1270 1.379 1_565 S
C1264 N1272 1.356 . S
C1265 C1264 1.363 . S
C1265 C1271 1.363 . S
C1266 C1267 1.363 1_565 S
C1266 C1271 1.379 . S
C1266 N1273 1.356 . S
C1267 C1266 1.363 1_545 S
C1267 C1270 1.363 . S
N1268 C1270 1.356 . S
N1268 H1280 0.984 . S
N1268 H1281 0.985 . S
N1269 C1271 1.356 . S
N1269 H1274 0.984 . S
N1269 H1275 0.985 . S
C1270 C1264 1.379 1_545 S
C1270 C1267 1.363 . S
C1270 N1268 1.356 . S
C1271 C1265 1.363 . S
C1271 C1266 1.379 . S
C1271 N1269 1.356 . S
N1272 C1264 1.356 . S
N1272 H1278 0.984 . S
N1272 H1279 0.984 . S
N1273 C1266 1.356 . S
N1273 H1276 0.984 1_565 S
N1273 H1277 0.985 . S
H1274 N1269 0.984 . S
H1275 N1269 0.985 . S
H1276 N1273 0.984 1_545 S
H1277 N1273 0.985 . S
H1278 N1272 0.984 . S
H1279 N1272 0.984 . S
H1280 N1268 0.984 . S
H1281 N1268 0.985 . S
C1282 C1283 1.363 . S
C1282 C1288 1.379 . S
C1282 N1290 1.356 . S
C1283 C1282 1.363 . S
C1283 C1289 1.363 . S
C1284 C1285 1.363 . S
C1284 C1289 1.379 . S
C1284 N1291 1.356 1_554 S
C1285 C1284 1.363 . S
C1285 C1288 1.363 . S
N1286 C1288 1.356 . S
N1286 H1298 0.984 . S
N1286 H1299 0.985 . S
N1287 C1289 1.356 1_556 S
N1287 H1292 0.984 . S
N1287 H1293 0.985 . S
C1288 C1282 1.379 . S
C1288 C1285 1.363 . S
C1288 N1286 1.356 . S
C1289 C1283 1.363 . S
C1289 C1284 1.379 . S
C1289 N1287 1.356 1_554 S
N1290 C1282 1.356 . S
N1290 H1296 0.984 . S
N1290 H1297 0.984 . S
N1291 C1284 1.356 1_556 S
N1291 H1294 0.984 . S
N1291 H1295 0.985 . S
H1292 N1287 0.984 . S
H1293 N1287 0.985 . S
H1294 N1291 0.984 . S
H1295 N1291 0.985 . S
H1296 N1290 0.984 . S
H1297 N1290 0.984 . S
H1298 N1286 0.984 . S
H1299 N1286 0.985 . S
C1300 C1301 1.363 . S
C1300 C1306 1.379 . S
C1300 N1308 1.356 . S
C1301 C1300 1.363 . S
C1301 C1307 1.363 . S
C1302 C1303 1.363 . S
C1302 C1307 1.379 . S
C1302 N1309 1.356 . S
C1303 C1302 1.363 . S
C1303 C1306 1.363 . S
N1304 C1306 1.356 . S
N1304 H1316 0.984 . S
N1304 H1317 0.985 . S
N1305 C1307 1.356 . S
N1305 H1310 0.984 . S
N1305 H1311 0.985 . S
C1306 C1300 1.379 . S
C1306 C1303 1.363 . S
C1306 N1304 1.356 . S
C1307 C1301 1.363 . S
C1307 C1302 1.379 . S
C1307 N1305 1.356 . S
N1308 C1300 1.356 . S
N1308 H1314 0.984 . S
N1308 H1315 0.984 . S
N1309 C1302 1.356 . S
N1309 H1312 0.984 . S
N1309 H1313 0.985 . S
H1310 N1305 0.984 . S
H1311 N1305 0.985 . S
H1312 N1309 0.984 . S
H1313 N1309 0.985 . S
H1314 N1308 0.984 . S
H1315 N1308 0.984 . S
H1316 N1304 0.984 . S
H1317 N1304 0.985 . S
C1318 C1319 1.363 . S
C1318 C1324 1.379 . S
C1318 N1326 1.356 . S
C1319 C1318 1.363 . S
C1319 C1325 1.363 . S
C1320 C1321 1.363 . S
C1320 C1325 1.379 . S
C1320 N1327 1.356 . S
C1321 C1320 1.363 . S
C1321 C1324 1.363 . S
N1322 C1324 1.356 . S
N1322 H1334 0.984 . S
N1322 H1335 0.985 . S
N1323 C1325 1.356 . S
N1323 H1328 0.984 . S
N1323 H1329 0.985 . S
C1324 C1318 1.379 . S
C1324 C1321 1.363 . S
C1324 N1322 1.356 . S
C1325 C1319 1.363 . S
C1325 C1320 1.379 . S
C1325 N1323 1.356 . S
N1326 C1318 1.356 . S
N1326 H1332 0.984 . S
N1326 H1333 0.984 . S
N1327 C1320 1.356 . S
N1327 H1330 0.984 . S
N1327 H1331 0.985 . S
H1328 N1323 0.984 . S
H1329 N1323 0.985 . S
H1330 N1327 0.984 . S
H1331 N1327 0.985 . S
H1332 N1326 0.984 . S
H1333 N1326 0.984 . S
H1334 N1322 0.984 . S
H1335 N1322 0.985 . S
C1336 C1337 1.363 . S
C1336 C1342 1.379 . S
C1336 N1344 1.356 . S
C1337 C1336 1.363 . S
C1337 C1343 1.363 . S
C1338 C1339 1.363 . S
C1338 C1343 1.379 . S
C1338 N1345 1.356 . S
C1339 C1338 1.363 . S
C1339 C1342 1.363 . S
N1340 C1342 1.356 . S
N1340 H1352 0.984 . S
N1340 H1353 0.985 . S
N1341 C1343 1.356 . S
N1341 H1346 0.984 . S
N1341 H1347 0.985 . S
C1342 C1336 1.379 . S
C1342 C1339 1.363 . S
C1342 N1340 1.356 . S
C1343 C1337 1.363 . S
C1343 C1338 1.379 . S
C1343 N1341 1.356 . S
N1344 C1336 1.356 . S
N1344 H1350 0.984 . S
N1344 H1351 0.984 . S
N1345 C1338 1.356 . S
N1345 H1348 0.984 . S
N1345 H1349 0.985 . S
H1346 N1341 0.984 . S
H1347 N1341 0.985 . S
H1348 N1345 0.984 . S
H1349 N1345 0.985 . S
H1350 N1344 0.984 . S
H1351 N1344 0.984 . S
H1352 N1340 0.984 . S
H1353 N1340 0.985 . S
C1354 C1355 1.363 . S
C1354 C1360 1.379 . S
C1354 N1362 1.356 . S
C1355 C1354 1.363 . S
C1355 C1361 1.363 . S
C1356 C1357 1.363 . S
C1356 C1361 1.379 . S
C1356 N1363 1.356 . S
C1357 C1356 1.363 . S
C1357 C1360 1.363 . S
N1358 C1360 1.356 . S
N1358 H1370 0.984 . S
N1358 H1371 0.985 . S
N1359 C1361 1.356 . S
N1359 H1364 0.984 . S
N1359 H1365 0.985 . S
C1360 C1354 1.379 . S
C1360 C1357 1.363 . S
C1360 N1358 1.356 . S
C1361 C1355 1.363 . S
C1361 C1356 1.379 . S
C1361 N1359 1.356 . S
N1362 C1354 1.356 . S
N1362 H1368 0.984 . S
N1362 H1369 0.984 . S
N1363 C1356 1.356 . S
N1363 H1366 0.984 . S
N1363 H1367 0.985 . S
H1364 N1359 0.984 . S
H1365 N1359 0.985 . S
H1366 N1363 0.984 . S
H1367 N1363 0.985 . S
H1368 N1362 0.984 . S
H1369 N1362 0.984 . S
H1370 N1358 0.984 . S
H1371 N1358 0.985 . S
C1372 C1373 1.363 . S
C1372 C1378 1.379 . S
C1372 N1380 1.356 . S
C1373 C1372 1.363 . S
C1373 C1379 1.363 . S
C1374 C1375 1.363 . S
C1374 C1379 1.379 . S
C1374 N1381 1.356 . S
C1375 C1374 1.363 . S
C1375 C1378 1.363 . S
N1376 C1378 1.356 . S
N1376 H1388 0.984 . S
N1376 H1389 0.985 . S
N1377 C1379 1.356 . S
N1377 H1382 0.984 . S
N1377 H1383 0.985 . S
C1378 C1372 1.379 . S
C1378 C1375 1.363 . S
C1378 N1376 1.356 . S
C1379 C1373 1.363 . S
C1379 C1374 1.379 . S
C1379 N1377 1.356 . S
N1380 C1372 1.356 . S
N1380 H1386 0.984 . S
N1380 H1387 0.984 . S
N1381 C1374 1.356 . S
N1381 H1384 0.984 . S
N1381 H1385 0.985 . S
H1382 N1377 0.984 . S
H1383 N1377 0.985 . S
H1384 N1381 0.984 . S
H1385 N1381 0.985 . S
H1386 N1380 0.984 . S
H1387 N1380 0.984 . S
H1388 N1376 0.984 . S
H1389 N1376 0.985 . S
C1390 C1391 1.363 . S
C1390 C1396 1.379 . S
C1390 N1398 1.356 . S
C1391 C1390 1.363 . S
C1391 C1397 1.363 . S
C1392 C1393 1.363 . S
C1392 C1397 1.379 . S
C1392 N1399 1.356 . S
C1393 C1392 1.363 . S
C1393 C1396 1.363 . S
N1394 C1396 1.356 . S
N1394 H1406 0.984 . S
N1394 H1407 0.985 . S
N1395 C1397 1.356 1_455 S
N1395 H1400 0.984 . S
N1395 H1401 0.985 . S
C1396 C1390 1.379 . S
C1396 C1393 1.363 . S
C1396 N1394 1.356 . S
C1397 C1391 1.363 . S
C1397 C1392 1.379 . S
C1397 N1395 1.356 1_655 S
N1398 C1390 1.356 . S
N1398 H1404 0.984 . S
N1398 H1405 0.984 . S
N1399 C1392 1.356 . S
N1399 H1402 0.984 . S
N1399 H1403 0.985 . S
H1400 N1395 0.984 . S
H1401 N1395 0.985 . S
H1402 N1399 0.984 . S
H1403 N1399 0.985 . S
H1404 N1398 0.984 . S
H1405 N1398 0.984 . S
H1406 N1394 0.984 . S
H1407 N1394 0.985 . S
C1408 C1409 1.363 . S
C1408 C1414 1.379 . S
C1408 N1416 1.356 . S
C1409 C1408 1.363 . S
C1409 C1415 1.363 . S
C1410 C1411 1.366 . S
C1410 C1415 1.391 . S
C1410 N1417 1.340 1_565 S
C1411 C1410 1.366 . S
C1411 C1414 1.363 . S
N1412 C1414 1.356 . S
N1412 H1424 0.984 . S
N1412 H1425 0.985 . S
N1413 C1415 1.356 . S
N1413 H1418 0.984 . S
N1413 H1419 0.985 1_565 S
C1414 C1408 1.379 . S
C1414 C1411 1.363 . S
C1414 N1412 1.356 . S
C1415 C1409 1.363 . S
C1415 C1410 1.391 . S
C1415 N1413 1.356 . S
N1416 C1408 1.356 . S
N1416 H1422 0.984 . S
N1416 H1423 0.984 . S
N1417 C1410 1.340 1_545 S
N1417 H1420 0.984 . S
N1417 H1421 0.985 . S
H1418 N1413 0.984 . S
H1419 N1413 0.985 1_545 S
H1420 N1417 0.984 . S
H1421 N1417 0.985 . S
H1422 N1416 0.984 . S
H1423 N1416 0.984 . S
H1424 N1412 0.984 . S
H1425 N1412 0.985 . S
C1426 C1427 1.363 . S
C1426 C1432 1.379 . S
C1426 N1434 1.356 . S
C1427 C1426 1.363 . S
C1427 C1433 1.363 . S
C1428 C1429 1.363 . S
C1428 C1433 1.379 . S
C1428 N1435 1.356 . S
C1429 C1428 1.363 . S
C1429 C1432 1.363 . S
N1430 C1432 1.356 . S
N1430 H1442 0.984 . S
N1430 H1443 0.985 . S
N1431 C1433 1.356 . S
N1431 H1436 0.984 . S
N1431 H1437 0.985 . S
C1432 C1426 1.379 . S
C1432 C1429 1.363 . S
C1432 N1430 1.356 . S
C1433 C1427 1.363 . S
C1433 C1428 1.379 . S
C1433 N1431 1.356 . S
N1434 C1426 1.356 . S
N1434 H1440 0.984 . S
N1434 H1441 0.984 . S
N1435 C1428 1.356 . S
N1435 H1438 0.984 . S
N1435 H1439 0.985 . S
H1436 N1431 0.984 . S
H1437 N1431 0.985 . S
H1438 N1435 0.984 . S
H1439 N1435 0.985 . S
H1440 N1434 0.984 . S
H1441 N1434 0.984 . S
H1442 N1430 0.984 . S
H1443 N1430 0.985 . S
C1444 C1445 1.363 . S
C1444 C1450 1.379 . S
C1444 N1452 1.356 . S
C1445 C1444 1.363 . S
C1445 C1451 1.363 . S
C1446 C1447 1.363 . S
C1446 C1451 1.379 . S
C1446 N1453 1.356 . S
C1447 C1446 1.363 . S
C1447 C1450 1.363 . S
N1448 C1450 1.356 . S
N1448 H1460 0.984 . S
N1448 H1461 0.985 . S
N1449 C1451 1.356 . S
N1449 H1454 0.984 . S
N1449 H1455 0.985 . S
C1450 C1444 1.379 . S
C1450 C1447 1.363 . S
C1450 N1448 1.356 . S
C1451 C1445 1.363 . S
C1451 C1446 1.379 . S
C1451 N1449 1.356 . S
N1452 C1444 1.356 . S
N1452 H1458 0.984 . S
N1452 H1459 0.984 . S
N1453 C1446 1.356 . S
N1453 H1456 0.984 . S
N1453 H1457 0.985 . S
H1454 N1449 0.984 . S
H1455 N1449 0.985 . S
H1456 N1453 0.984 . S
H1457 N1453 0.985 . S
H1458 N1452 0.984 . S
H1459 N1452 0.984 . S
H1460 N1448 0.984 . S
H1461 N1448 0.985 . S
C1462 C1463 1.363 . S
C1462 C1468 1.379 . S
C1462 N1470 1.356 . S
C1463 C1462 1.363 . S
C1463 C1469 1.363 . S
C1464 C1465 1.363 . S
C1464 C1469 1.379 . S
C1464 N1471 1.356 . S
C1465 C1464 1.363 . S
C1465 C1468 1.363 . S
N1466 C1468 1.356 . S
N1466 H1478 0.984 . S
N1466 H1479 0.985 . S
N1467 C1469 1.356 . S
N1467 H1472 0.984 . S
N1467 H1473 0.985 . S
C1468 C1462 1.379 . S
C1468 C1465 1.363 . S
C1468 N1466 1.356 . S
C1469 C1463 1.363 . S
C1469 C1464 1.379 . S
C1469 N1467 1.356 . S
N1470 C1462 1.356 . S
N1470 H1476 0.984 . S
N1470 H1477 0.984 . S
N1471 C1464 1.356 . S
N1471 H1474 0.984 . S
N1471 H1475 0.985 . S
H1472 N1467 0.984 . S
H1473 N1467 0.985 . S
H1474 N1471 0.984 . S
H1475 N1471 0.985 . S
H1476 N1470 0.984 . S
H1477 N1470 0.984 . S
H1478 N1466 0.984 . S
H1479 N1466 0.985 . S
C1480 C1481 1.363 . S
C1480 C1486 1.379 . S
C1480 N1488 1.356 . S
C1481 C1480 1.363 . S
C1481 C1487 1.363 . S
C1482 C1483 1.363 . S
C1482 C1487 1.379 . S
C1482 N1489 1.356 . S
C1483 C1482 1.363 . S
C1483 C1486 1.363 . S
N1484 C1486 1.356 . S
N1484 H1496 0.984 . S
N1484 H1497 0.985 . S
N1485 C1487 1.356 . S
N1485 H1490 0.984 . S
N1485 H1491 0.985 . S
C1486 C1480 1.379 . S
C1486 C1483 1.363 . S
C1486 N1484 1.356 . S
C1487 C1481 1.363 . S
C1487 C1482 1.379 . S
C1487 N1485 1.356 . S
N1488 C1480 1.356 . S
N1488 H1494 0.984 . S
N1488 H1495 0.984 . S
N1489 C1482 1.356 . S
N1489 H1492 0.984 . S
N1489 H1493 0.985 . S
H1490 N1485 0.984 . S
H1491 N1485 0.985 . S
H1492 N1489 0.984 . S
H1493 N1489 0.985 . S
H1494 N1488 0.984 . S
H1495 N1488 0.984 . S
H1496 N1484 0.984 . S
H1497 N1484 0.985 . S
C1498 C1499 1.363 . S
C1498 C1504 1.379 . S
C1498 N1506 1.356 . S
C1499 C1498 1.363 . S
C1499 C1505 1.363 . S
C1500 C1501 1.363 . S
C1500 C1505 1.379 . S
C1500 N1507 1.356 . S
C1501 C1500 1.363 . S
C1501 C1504 1.363 . S
N1502 C1504 1.356 . S
N1502 H1514 0.984 . S
N1502 H1515 0.985 . S
N1503 C1505 1.356 . S
N1503 H1508 0.984 . S
N1503 H1509 0.985 . S
C1504 C1498 1.379 . S
C1504 C1501 1.363 . S
C1504 N1502 1.356 . S
C1505 C1499 1.363 . S
C1505 C1500 1.379 . S
C1505 N1503 1.356 . S
N1506 C1498 1.356 . S
N1506 H1512 0.984 . S
N1506 H1513 0.984 . S
N1507 C1500 1.356 . S
N1507 H1510 0.984 . S
N1507 H1511 0.985 . S
H1508 N1503 0.984 . S
H1509 N1503 0.985 . S
H1510 N1507 0.984 . S
H1511 N1507 0.985 . S
H1512 N1506 0.984 . S
H1513 N1506 0.984 . S
H1514 N1502 0.984 . S
H1515 N1502 0.985 . S
C1516 C1517 1.363 . S
C1516 C1522 1.379 . S
C1516 N1524 1.356 . S
C1517 C1516 1.363 . S
C1517 C1523 1.363 . S
C1518 C1519 1.363 1_554 S
C1518 C1523 1.379 1_554 S
C1518 N1525 1.356 . S
C1519 C1518 1.363 1_556 S
C1519 C1522 1.363 . S
N1520 C1522 1.356 . S
N1520 H1532 0.984 . S
N1520 H1533 0.985 . S
N1521 C1523 1.356 . S
N1521 H1526 0.984 . S
N1521 H1527 0.985 1_556 S
C1522 C1516 1.379 . S
C1522 C1519 1.363 . S
C1522 N1520 1.356 . S
C1523 C1517 1.363 . S
C1523 C1518 1.379 1_556 S
C1523 N1521 1.356 . S
N1524 C1516 1.356 . S
N1524 H1530 0.984 . S
N1524 H1531 0.984 . S
N1525 C1518 1.356 . S
N1525 H1528 0.984 . S
N1525 H1529 0.985 . S
H1526 N1521 0.984 . S
H1527 N1521 0.985 1_554 S
H1528 N1525 0.984 . S
H1529 N1525 0.985 . S
H1530 N1524 0.984 . S
H1531 N1524 0.984 . S
H1532 N1520 0.984 . S
H1533 N1520 0.985 . S
C1534 C1535 1.363 . S
C1534 C1540 1.379 . S
C1534 N1542 1.356 . S
C1535 C1534 1.363 . S
C1535 C1541 1.363 . S
C1536 C1537 1.363 . S
C1536 C1541 1.379 . S
C1536 N1543 1.356 . S
C1537 C1536 1.363 . S
C1537 C1540 1.363 . S
N1538 C1540 1.356 . S
N1538 H1550 0.984 . S
N1538 H1551 0.985 . S
N1539 C1541 1.356 . S
N1539 H1544 0.984 . S
N1539 H1545 0.985 . S
C1540 C1534 1.379 . S
C1540 C1537 1.363 . S
C1540 N1538 1.356 . S
C1541 C1535 1.363 . S
C1541 C1536 1.379 . S
C1541 N1539 1.356 . S
N1542 C1534 1.356 . S
N1542 H1548 0.984 . S
N1542 H1549 0.984 . S
N1543 C1536 1.356 . S
N1543 H1546 0.984 . S
N1543 H1547 0.985 . S
H1544 N1539 0.984 . S
H1545 N1539 0.985 . S
H1546 N1543 0.984 . S
H1547 N1543 0.985 . S
H1548 N1542 0.984 . S
H1549 N1542 0.984 . S
H1550 N1538 0.984 . S
H1551 N1538 0.985 . S
C1552 C1553 1.363 . S
C1552 C1558 1.379 . S
C1552 N1560 1.356 . S
C1553 C1552 1.363 . S
C1553 C1559 1.363 . S
C1554 C1555 1.363 . S
C1554 C1559 1.379 . S
C1554 N1561 1.356 . S
C1555 C1554 1.363 . S
C1555 C1558 1.363 . S
N1556 C1558 1.356 1_554 S
N1556 H1568 0.984 . S
N1556 H1569 0.985 . S
N1557 C1559 1.356 . S
N1557 H1562 0.984 . S
N1557 H1563 0.985 . S
C1558 C1552 1.379 . S
C1558 C1555 1.363 . S
C1558 N1556 1.356 1_556 S
C1559 C1553 1.363 . S
C1559 C1554 1.379 . S
C1559 N1557 1.356 . S
N1560 C1552 1.356 . S
N1560 H1566 0.984 . S
N1560 H1567 0.984 . S
N1561 C1554 1.356 . S
N1561 H1564 0.984 . S
N1561 H1565 0.985 . S
H1562 N1557 0.984 . S
H1563 N1557 0.985 . S
H1564 N1561 0.984 . S
H1565 N1561 0.985 . S
H1566 N1560 0.984 . S
H1567 N1560 0.984 . S
H1568 N1556 0.984 . S
H1569 N1556 0.985 . S
C1570 C1571 1.363 . S
C1570 C1576 1.379 . S
C1570 N1578 1.356 . S
C1571 C1570 1.363 . S
C1571 C1577 1.363 . S
C1572 C1573 1.363 . S
C1572 C1577 1.379 . S
C1572 N1579 1.356 . S
C1573 C1572 1.363 . S
C1573 C1576 1.363 . S
N1574 C1576 1.356 . S
N1574 H1586 0.984 . S
N1574 H1587 0.985 . S
N1575 C1577 1.356 . S
N1575 H1580 0.984 . S
N1575 H1581 0.985 . S
C1576 C1570 1.379 . S
C1576 C1573 1.363 . S
C1576 N1574 1.356 . S
C1577 C1571 1.363 . S
C1577 C1572 1.379 . S
C1577 N1575 1.356 . S
N1578 C1570 1.356 . S
N1578 H1584 0.984 . S
N1578 H1585 0.984 . S
N1579 C1572 1.356 . S
N1579 H1582 0.984 . S
N1579 H1583 0.985 . S
H1580 N1575 0.984 . S
H1581 N1575 0.985 . S
H1582 N1579 0.984 . S
H1583 N1579 0.985 . S
H1584 N1578 0.984 . S
H1585 N1578 0.984 . S
H1586 N1574 0.984 . S
H1587 N1574 0.985 . S
C1588 C1589 1.363 . S
C1588 C1594 1.379 . S
C1588 N1596 1.356 . S
C1589 C1588 1.363 . S
C1589 C1595 1.363 . S
C1590 C1591 1.363 . S
C1590 C1595 1.379 . S
C1590 N1597 1.356 . S
C1591 C1590 1.363 . S
C1591 C1594 1.363 . S
N1592 C1594 1.356 . S
N1592 H1604 0.984 . S
N1592 H1605 0.985 . S
N1593 C1595 1.356 . S
N1593 H1598 0.984 . S
N1593 H1599 0.985 . S
C1594 C1588 1.379 . S
C1594 C1591 1.363 . S
C1594 N1592 1.356 . S
C1595 C1589 1.363 . S
C1595 C1590 1.379 . S
C1595 N1593 1.356 . S
N1596 C1588 1.356 . S
N1596 H1602 0.984 . S
N1596 H1603 0.984 . S
N1597 C1590 1.356 . S
N1597 H1600 0.984 . S
N1597 H1601 0.985 . S
H1598 N1593 0.984 . S
H1599 N1593 0.985 . S
H1600 N1597 0.984 . S
H1601 N1597 0.985 . S
H1602 N1596 0.984 . S
H1603 N1596 0.984 . S
H1604 N1592 0.984 . S
H1605 N1592 0.985 . S
C1606 C1607 1.363 . S
C1606 C1612 1.379 . S
C1606 N1614 1.356 . S
C1607 C1606 1.363 . S
C1607 C1613 1.363 . S
C1608 C1609 1.363 . S
C1608 C1613 1.379 . S
C1608 N1615 1.356 . S
C1609 C1608 1.363 . S
C1609 C1612 1.363 . S
N1610 C1612 1.356 . S
N1610 H1622 0.984 . S
N1610 H1623 0.985 . S
N1611 C1613 1.356 . S
N1611 H1616 0.984 . S
N1611 H1617 0.985 . S
C1612 C1606 1.379 . S
C1612 C1609 1.363 . S
C1612 N1610 1.356 . S
C1613 C1607 1.363 . S
C1613 C1608 1.379 . S
C1613 N1611 1.356 . S
N1614 C1606 1.356 . S
N1614 H1620 0.984 . S
N1614 H1621 0.984 . S
N1615 C1608 1.356 . S
N1615 H1618 0.984 . S
N1615 H1619 0.985 . S
H1616 N1611 0.984 . S
H1617 N1611 0.985 . S
H1618 N1615 0.984 . S
H1619 N1615 0.985 . S
H1620 N1614 0.984 . S
H1621 N1614 0.984 . S
H1622 N1610 0.984 . S
H1623 N1610 0.985 . S
C1624 C1625 1.363 . S
C1624 C1630 1.379 . S
C1624 N1632 1.356 . S
C1625 C1624 1.363 . S
C1625 C1631 1.363 . S
C1626 C1627 1.363 . S
C1626 C1631 1.379 . S
C1626 N1633 1.356 . S
C1627 C1626 1.363 . S
C1627 C1630 1.363 . S
N1628 C1630 1.356 . S
N1628 H1640 0.984 . S
N1628 H1641 0.985 . S
N1629 C1631 1.356 . S
N1629 H1634 0.984 . S
N1629 H1635 0.985 . S
C1630 C1624 1.379 . S
C1630 C1627 1.363 . S
C1630 N1628 1.356 . S
C1631 C1625 1.363 . S
C1631 C1626 1.379 . S
C1631 N1629 1.356 . S
N1632 C1624 1.356 . S
N1632 H1638 0.984 . S
N1632 H1639 0.984 . S
N1633 C1626 1.356 . S
N1633 H1636 0.984 . S
N1633 H1637 0.985 . S
H1634 N1629 0.984 . S
H1635 N1629 0.985 . S
H1636 N1633 0.984 . S
H1637 N1633 0.985 . S
H1638 N1632 0.984 . S
H1639 N1632 0.984 . S
H1640 N1628 0.984 . S
H1641 N1628 0.985 . S
C1642 C1643 1.363 . S
C1642 C1648 1.379 . S
C1642 N1650 1.356 . S
C1643 C1642 1.363 . S
C1643 C1649 1.363 . S
C1644 C1645 1.363 . S
C1644 C1649 1.379 . S
C1644 N1651 1.356 . S
C1645 C1644 1.363 . S
C1645 C1648 1.363 . S
N1646 C1648 1.356 . S
N1646 H1658 0.984 . S
N1646 H1659 0.985 . S
N1647 C1649 1.356 . S
N1647 H1652 0.984 . S
N1647 H1653 0.985 . S
C1648 C1642 1.379 . S
C1648 C1645 1.363 . S
C1648 N1646 1.356 . S
C1649 C1643 1.363 . S
C1649 C1644 1.379 . S
C1649 N1647 1.356 . S
N1650 C1642 1.356 . S
N1650 H1656 0.984 . S
N1650 H1657 0.984 . S
N1651 C1644 1.356 . S
N1651 H1654 0.984 . S
N1651 H1655 0.985 . S
H1652 N1647 0.984 . S
H1653 N1647 0.985 . S
H1654 N1651 0.984 . S
H1655 N1651 0.985 . S
H1656 N1650 0.984 . S
H1657 N1650 0.984 . S
H1658 N1646 0.984 . S
H1659 N1646 0.985 . S
C1660 C1661 1.363 . S
C1660 C1666 1.379 . S
C1660 N1668 1.356 . S
C1661 C1660 1.363 . S
C1661 C1667 1.363 . S
C1662 C1663 1.363 . S
C1662 C1667 1.379 . S
C1662 N1669 1.356 . S
C1663 C1662 1.363 . S
C1663 C1666 1.363 . S
N1664 C1666 1.356 . S
N1664 H1676 0.984 . S
N1664 H1677 0.985 . S
N1665 C1667 1.356 . S
N1665 H1670 0.984 . S
N1665 H1671 0.985 . S
C1666 C1660 1.379 . S
C1666 C1663 1.363 . S
C1666 N1664 1.356 . S
C1667 C1661 1.363 . S
C1667 C1662 1.379 . S
C1667 N1665 1.356 . S
N1668 C1660 1.356 . S
N1668 H1674 0.984 . S
N1668 H1675 0.984 . S
N1669 C1662 1.356 . S
N1669 H1672 0.984 1_545 S
N1669 H1673 0.985 . S
H1670 N1665 0.984 . S
H1671 N1665 0.985 . S
H1672 N1669 0.984 1_565 S
H1673 N1669 0.985 . S
H1674 N1668 0.984 . S
H1675 N1668 0.984 . S
H1676 N1664 0.984 . S
H1677 N1664 0.985 . S
C1678 C1679 1.363 . S
C1678 C1684 1.379 . S
C1678 N1686 1.356 . S
C1679 C1678 1.363 . S
C1679 C1685 1.363 . S
C1680 C1681 1.363 . S
C1680 C1685 1.379 . S
C1680 N1687 1.356 . S
C1681 C1680 1.363 . S
C1681 C1684 1.363 . S
N1682 C1684 1.356 . S
N1682 H1694 0.984 . S
N1682 H1695 0.985 . S
N1683 C1685 1.356 . S
N1683 H1688 0.984 . S
N1683 H1689 0.985 . S
C1684 C1678 1.379 . S
C1684 C1681 1.363 . S
C1684 N1682 1.356 . S
C1685 C1679 1.363 . S
C1685 C1680 1.379 . S
C1685 N1683 1.356 . S
N1686 C1678 1.356 . S
N1686 H1692 0.984 . S
N1686 H1693 0.984 . S
N1687 C1680 1.356 . S
N1687 H1690 0.984 . S
N1687 H1691 0.985 . S
H1688 N1683 0.984 . S
H1689 N1683 0.985 . S
H1690 N1687 0.984 . S
H1691 N1687 0.985 . S
H1692 N1686 0.984 . S
H1693 N1686 0.984 . S
H1694 N1682 0.984 . S
H1695 N1682 0.985 . S
C1696 C1697 1.363 . S
C1696 C1702 1.379 . S
C1696 N1704 1.356 . S
C1697 C1696 1.363 . S
C1697 C1703 1.363 1_554 S
C1698 C1699 1.363 . S
C1698 C1703 1.379 . S
C1698 N1705 1.356 . S
C1699 C1698 1.363 . S
C1699 C1702 1.363 1_556 S
N1700 C1702 1.356 . S
N1700 H1712 0.984 . S
N1700 H1713 0.985 1_554 S
N1701 C1703 1.356 . S
N1701 H1706 0.984 . S
N1701 H1707 0.985 . S
C1702 C1696 1.379 . S
C1702 C1699 1.363 1_554 S
C1702 N1700 1.356 . S
C1703 C1697 1.363 1_556 S
C1703 C1698 1.379 . S
C1703 N1701 1.356 . S
N1704 C1696 1.356 . S
N1704 H1710 0.984 . S
N1704 H1711 0.984 . S
N1705 C1698 1.356 . S
N1705 H1708 0.984 . S
N1705 H1709 0.985 . S
H1706 N1701 0.984 . S
H1707 N1701 0.985 . S
H1708 N1705 0.984 . S
H1709 N1705 0.985 . S
H1710 N1704 0.984 . S
H1711 N1704 0.984 . S
H1712 N1700 0.984 . S
H1713 N1700 0.985 1_556 S
C1714 C1715 1.363 . S
C1714 C1720 1.379 . S
C1714 N1722 1.356 . S
C1715 C1714 1.363 . S
C1715 C1721 1.363 . S
C1716 C1717 1.363 . S
C1716 C1721 1.379 . S
C1716 N1723 1.356 . S
C1717 C1716 1.363 . S
C1717 C1720 1.363 . S
N1718 C1720 1.356 . S
N1718 H1730 0.984 . S
N1718 H1731 0.985 . S
N1719 C1721 1.356 . S
N1719 H1724 0.984 . S
N1719 H1725 0.985 . S
C1720 C1714 1.379 . S
C1720 C1717 1.363 . S
C1720 N1718 1.356 . S
C1721 C1715 1.363 . S
C1721 C1716 1.379 . S
C1721 N1719 1.356 . S
N1722 C1714 1.356 . S
N1722 H1728 0.984 . S
N1722 H1729 0.984 . S
N1723 C1716 1.356 . S
N1723 H1726 0.984 . S
N1723 H1727 0.985 . S
H1724 N1719 0.984 . S
H1725 N1719 0.985 . S
H1726 N1723 0.984 . S
H1727 N1723 0.985 . S
H1728 N1722 0.984 . S
H1729 N1722 0.984 . S
H1730 N1718 0.984 . S
H1731 N1718 0.985 . S
C1732 C1733 1.363 . S
C1732 C1738 1.379 . S
C1732 N1740 1.356 . S
C1733 C1732 1.363 . S
C1733 C1739 1.363 . S
C1734 C1735 1.363 . S
C1734 C1739 1.379 . S
C1734 N1741 1.356 . S
C1735 C1734 1.363 . S
C1735 C1738 1.363 . S
N1736 C1738 1.356 . S
N1736 H1748 0.984 . S
N1736 H1749 0.985 . S
N1737 C1739 1.356 . S
N1737 H1742 0.984 . S
N1737 H1743 0.985 . S
C1738 C1732 1.379 . S
C1738 C1735 1.363 . S
C1738 N1736 1.356 . S
C1739 C1733 1.363 . S
C1739 C1734 1.379 . S
C1739 N1737 1.356 . S
N1740 C1732 1.356 . S
N1740 H1746 0.984 . S
N1740 H1747 0.984 . S
N1741 C1734 1.356 . S
N1741 H1744 0.984 . S
N1741 H1745 0.985 . S
H1742 N1737 0.984 . S
H1743 N1737 0.985 . S
H1744 N1741 0.984 . S
H1745 N1741 0.985 . S
H1746 N1740 0.984 . S
H1747 N1740 0.984 . S
H1748 N1736 0.984 . S
H1749 N1736 0.985 . S
C1750 C1751 1.363 . S
C1750 C1756 1.379 . S
C1750 N1758 1.356 . S
C1751 C1750 1.363 . S
C1751 C1757 1.363 . S
C1752 C1753 1.363 . S
C1752 C1757 1.379 . S
C1752 N1759 1.356 . S
C1753 C1752 1.363 . S
C1753 C1756 1.363 . S
N1754 C1756 1.356 . S
N1754 H1766 0.984 . S
N1754 H1767 0.985 . S
N1755 C1757 1.356 . S
N1755 H1760 0.984 . S
N1755 H1761 0.985 . S
C1756 C1750 1.379 . S
C1756 C1753 1.363 . S
C1756 N1754 1.356 . S
C1757 C1751 1.363 . S
C1757 C1752 1.379 . S
C1757 N1755 1.356 . S
N1758 C1750 1.356 . S
N1758 H1764 0.984 . S
N1758 H1765 0.984 . S
N1759 C1752 1.356 . S
N1759 H1762 0.984 . S
N1759 H1763 0.985 . S
H1760 N1755 0.984 . S
H1761 N1755 0.985 . S
H1762 N1759 0.984 . S
H1763 N1759 0.985 . S
H1764 N1758 0.984 . S
H1765 N1758 0.984 . S
H1766 N1754 0.984 . S
H1767 N1754 0.985 . S
C1768 C1769 1.363 . S
C1768 C1774 1.379 . S
C1768 N1776 1.356 . S
C1769 C1768 1.363 . S
C1769 C1775 1.363 . S
C1770 C1771 1.363 . S
C1770 C1775 1.379 . S
C1770 N1777 1.356 . S
C1771 C1770 1.363 . S
C1771 C1774 1.363 . S
N1772 C1774 1.356 . S
N1772 H1784 0.984 . S
N1772 H1785 0.985 . S
N1773 C1775 1.356 . S
N1773 H1778 0.984 . S
N1773 H1779 0.985 . S
C1774 C1768 1.379 . S
C1774 C1771 1.363 . S
C1774 N1772 1.356 . S
C1775 C1769 1.363 . S
C1775 C1770 1.379 . S
C1775 N1773 1.356 . S
N1776 C1768 1.356 . S
N1776 H1782 0.984 . S
N1776 H1783 0.984 . S
N1777 C1770 1.356 . S
N1777 H1780 0.984 . S
N1777 H1781 0.985 . S
H1778 N1773 0.984 . S
H1779 N1773 0.985 . S
H1780 N1777 0.984 . S
H1781 N1777 0.985 . S
H1782 N1776 0.984 . S
H1783 N1776 0.984 . S
H1784 N1772 0.984 . S
H1785 N1772 0.985 . S
C1786 C1787 1.363 . S
C1786 C1792 1.379 1_565 S
C1786 N1794 1.356 . S
C1787 C1786 1.363 . S
C1787 C1793 1.363 . S
C1788 C1789 1.363 1_565 S
C1788 C1793 1.379 . S
C1788 N1795 1.356 . S
C1789 C1788 1.363 1_545 S
C1789 C1792 1.363 . S
N1790 C1792 1.356 . S
N1790 H1802 0.984 . S
N1790 H1803 0.985 . S
N1791 C1793 1.356 . S
N1791 H1796 0.984 . S
N1791 H1797 0.985 . S
C1792 C1786 1.379 1_545 S
C1792 C1789 1.363 . S
C1792 N1790 1.356 . S
C1793 C1787 1.363 . S
C1793 C1788 1.379 . S
C1793 N1791 1.356 . S
N1794 C1786 1.356 . S
N1794 H1800 0.984 1_565 S
N1794 H1801 0.984 . S
N1795 C1788 1.356 . S
N1795 H1798 0.984 . S
N1795 H1799 0.985 . S
H1796 N1791 0.984 . S
H1797 N1791 0.985 . S
H1798 N1795 0.984 . S
H1799 N1795 0.985 . S
H1800 N1794 0.984 1_545 S
H1801 N1794 0.984 . S
H1802 N1790 0.984 . S
H1803 N1790 0.985 . S
C1804 C1805 1.363 . S
C1804 C1810 1.379 . S
C1804 N1812 1.356 . S
C1805 C1804 1.363 . S
C1805 C1811 1.363 . S
C1806 C1807 1.363 . S
C1806 C1811 1.379 . S
C1806 N1813 1.356 . S
C1807 C1806 1.363 . S
C1807 C1810 1.363 . S
N1808 C1810 1.356 . S
N1808 H1820 0.984 . S
N1808 H1821 0.985 . S
N1809 C1811 1.356 . S
N1809 H1814 0.984 . S
N1809 H1815 0.985 . S
C1810 C1804 1.379 . S
C1810 C1807 1.363 . S
C1810 N1808 1.356 . S
C1811 C1805 1.363 . S
C1811 C1806 1.379 . S
C1811 N1809 1.356 . S
N1812 C1804 1.356 . S
N1812 H1818 0.984 . S
N1812 H1819 0.984 . S
N1813 C1806 1.356 . S
N1813 H1816 0.984 . S
N1813 H1817 0.985 . S
H1814 N1809 0.984 . S
H1815 N1809 0.985 . S
H1816 N1813 0.984 . S
H1817 N1813 0.985 . S
H1818 N1812 0.984 . S
H1819 N1812 0.984 . S
H1820 N1808 0.984 . S
H1821 N1808 0.985 . S
C1822 C1823 1.363 . S
C1822 C1828 1.379 . S
C1822 N1830 1.356 . S
C1823 C1822 1.363 . S
C1823 C1829 1.363 . S
C1824 C1825 1.363 . S
C1824 C1829 1.379 . S
C1824 N1831 1.356 . S
C1825 C1824 1.363 . S
C1825 C1828 1.363 . S
N1826 C1828 1.356 . S
N1826 H1838 0.984 . S
N1826 H1839 0.985 . S
N1827 C1829 1.356 . S
N1827 H1832 0.984 . S
N1827 H1833 0.985 . S
C1828 C1822 1.379 . S
C1828 C1825 1.363 . S
C1828 N1826 1.356 . S
C1829 C1823 1.363 . S
C1829 C1824 1.379 . S
C1829 N1827 1.356 . S
N1830 C1822 1.356 . S
N1830 H1836 0.984 . S
N1830 H1837 0.984 . S
N1831 C1824 1.356 . S
N1831 H1834 0.984 . S
N1831 H1835 0.985 . S
H1832 N1827 0.984 . S
H1833 N1827 0.985 . S
H1834 N1831 0.984 . S
H1835 N1831 0.985 . S
H1836 N1830 0.984 . S
H1837 N1830 0.984 . S
H1838 N1826 0.984 . S
H1839 N1826 0.985 . S
C1840 C1841 1.363 . S
C1840 C1846 1.379 . S
C1840 N1848 1.356 . S
C1841 C1840 1.363 . S
C1841 C1847 1.363 . S
C1842 C1843 1.363 . S
C1842 C1847 1.379 . S
C1842 N1849 1.356 . S
C1843 C1842 1.363 . S
C1843 C1846 1.363 . S
N1844 C1846 1.356 . S
N1844 H1856 0.984 . S
N1844 H1857 0.985 . S
N1845 C1847 1.356 . S
N1845 H1850 0.984 . S
N1845 H1851 0.985 . S
C1846 C1840 1.379 . S
C1846 C1843 1.363 . S
C1846 N1844 1.356 . S
C1847 C1841 1.363 . S
C1847 C1842 1.379 . S
C1847 N1845 1.356 . S
N1848 C1840 1.356 . S
N1848 H1854 0.984 . S
N1848 H1855 0.984 . S
N1849 C1842 1.356 . S
N1849 H1852 0.984 . S
N1849 H1853 0.985 . S
H1850 N1845 0.984 . S
H1851 N1845 0.985 . S
H1852 N1849 0.984 . S
H1853 N1849 0.985 . S
H1854 N1848 0.984 . S
H1855 N1848 0.984 . S
H1856 N1844 0.984 . S
H1857 N1844 0.985 . S
C1858 C1859 1.363 . S
C1858 C1864 1.379 . S
C1858 N1866 1.356 . S
C1859 C1858 1.363 . S
C1859 C1865 1.363 . S
C1860 C1861 1.363 . S
C1860 C1865 1.379 . S
C1860 N1867 1.356 . S
C1861 C1860 1.363 . S
C1861 C1864 1.363 . S
N1862 C1864 1.356 . S
N1862 H1874 0.984 . S
N1862 H1875 0.985 . S
N1863 C1865 1.356 . S
N1863 H1868 0.984 . S
N1863 H1869 0.985 . S
C1864 C1858 1.379 . S
C1864 C1861 1.363 . S
C1864 N1862 1.356 . S
C1865 C1859 1.363 . S
C1865 C1860 1.379 . S
C1865 N1863 1.356 . S
N1866 C1858 1.356 . S
N1866 H1872 0.984 . S
N1866 H1873 0.984 . S
N1867 C1860 1.356 . S
N1867 H1870 0.984 . S
N1867 H1871 0.985 . S
H1868 N1863 0.984 . S
H1869 N1863 0.985 . S
H1870 N1867 0.984 . S
H1871 N1867 0.985 . S
H1872 N1866 0.984 . S
H1873 N1866 0.984 . S
H1874 N1862 0.984 . S
H1875 N1862 0.985 . S
C1876 C1877 1.363 . S
C1876 C1882 1.379 . S
C1876 N1884 1.356 . S
C1877 C1876 1.363 . S
C1877 C1883 1.363 1_455 S
C1878 C1879 1.363 . S
C1878 C1883 1.379 1_455 S
C1878 N1885 1.356 1_556 S
C1879 C1878 1.363 . S
C1879 C1882 1.363 . S
N1880 C1882 1.356 . S
N1880 H1892 0.984 . S
N1880 H1893 0.985 . S
N1881 C1883 1.356 . S
N1881 H1886 0.984 . S
N1881 H1887 0.985 . S
C1882 C1876 1.379 . S
C1882 C1879 1.363 . S
C1882 N1880 1.356 . S
C1883 C1877 1.363 1_655 S
C1883 C1878 1.379 1_655 S
C1883 N1881 1.356 . S
N1884 C1876 1.356 . S
N1884 H1890 0.984 . S
N1884 H1891 0.984 . S
N1885 C1878 1.356 1_554 S
N1885 H1888 0.984 . S
N1885 H1889 0.985 1_455 S
H1886 N1881 0.984 . S
H1887 N1881 0.985 . S
H1888 N1885 0.984 . S
H1889 N1885 0.985 1_655 S
H1890 N1884 0.984 . S
H1891 N1884 0.984 . S
H1892 N1880 0.984 . S
H1893 N1880 0.985 . S
C1894 C1895 1.363 . S
C1894 C1900 1.379 . S
C1894 N1902 1.356 . S
C1895 C1894 1.363 . S
C1895 C1901 1.363 . S
C1896 C1897 1.363 . S
C1896 C1901 1.379 1_655 S
C1896 N1903 1.356 . S
C1897 C1896 1.363 . S
C1897 C1900 1.363 1_655 S
N1898 C1900 1.356 . S
N1898 H1910 0.984 . S
N1898 H1911 0.985 1_455 S
N1899 C1901 1.356 . S
N1899 H1904 0.984 . S
N1899 H1905 0.985 1_455 S
C1900 C1894 1.379 . S
C1900 C1897 1.363 1_455 S
C1900 N1898 1.356 . S
C1901 C1895 1.363 . S
C1901 C1896 1.379 1_455 S
C1901 N1899 1.356 . S
N1902 C1894 1.356 . S
N1902 H1908 0.984 . S
N1902 H1909 0.984 . S
N1903 C1896 1.356 . S
N1903 H1906 0.984 . S
N1903 H1907 0.985 . S
H1904 N1899 0.984 . S
H1905 N1899 0.985 1_655 S
H1906 N1903 0.984 . S
H1907 N1903 0.985 . S
H1908 N1902 0.984 . S
H1909 N1902 0.984 . S
H1910 N1898 0.984 . S
H1911 N1898 0.985 1_655 S
C1912 C1913 1.363 . S
C1912 C1918 1.379 . S
C1912 N1920 1.356 . S
C1913 C1912 1.363 . S
C1913 C1919 1.363 . S
C1914 C1915 1.363 . S
C1914 C1919 1.379 . S
C1914 N1921 1.356 . S
C1915 C1914 1.363 . S
C1915 C1918 1.363 . S
N1916 C1918 1.356 . S
N1916 H1928 0.984 . S
N1916 H1929 0.985 . S
N1917 C1919 1.356 . S
N1917 H1922 0.984 . S
N1917 H1923 0.985 . S
C1918 C1912 1.379 . S
C1918 C1915 1.363 . S
C1918 N1916 1.356 . S
C1919 C1913 1.363 . S
C1919 C1914 1.379 . S
C1919 N1917 1.356 . S
N1920 C1912 1.356 . S
N1920 H1926 0.984 . S
N1920 H1927 0.984 . S
N1921 C1914 1.356 . S
N1921 H1924 0.984 . S
N1921 H1925 0.985 . S
H1922 N1917 0.984 . S
H1923 N1917 0.985 . S
H1924 N1921 0.984 . S
H1925 N1921 0.985 . S
H1926 N1920 0.984 . S
H1927 N1920 0.984 . S
H1928 N1916 0.984 . S
H1929 N1916 0.985 . S
C1930 C1931 1.363 . S
C1930 C1936 1.379 . S
C1930 N1938 1.356 . S
C1931 C1930 1.363 . S
C1931 C1937 1.363 . S
C1932 C1933 1.363 . S
C1932 C1937 1.379 . S
C1932 N1939 1.356 . S
C1933 C1932 1.363 . S
C1933 C1936 1.363 . S
N1934 C1936 1.356 . S
N1934 H1946 0.984 . S
N1934 H1947 0.985 . S
N1935 C1937 1.356 . S
N1935 H1940 0.984 . S
N1935 H1941 0.985 . S
C1936 C1930 1.379 . S
C1936 C1933 1.363 . S
C1936 N1934 1.356 . S
C1937 C1931 1.363 . S
C1937 C1932 1.379 . S
C1937 N1935 1.356 . S
N1938 C1930 1.356 . S
N1938 H1944 0.984 . S
N1938 H1945 0.984 . S
N1939 C1932 1.356 . S
N1939 H1942 0.984 . S
N1939 H1943 0.985 . S
H1940 N1935 0.984 . S
H1941 N1935 0.985 . S
H1942 N1939 0.984 . S
H1943 N1939 0.985 . S
H1944 N1938 0.984 . S
H1945 N1938 0.984 . S
H1946 N1934 0.984 . S
H1947 N1934 0.985 . S
C1948 C1949 1.363 . S
C1948 C1954 1.379 . S
C1948 N1956 1.356 . S
C1949 C1948 1.363 . S
C1949 C1955 1.363 . S
C1950 C1951 1.363 . S
C1950 C1955 1.379 . S
C1950 N1957 1.356 1_455 S
C1951 C1950 1.363 . S
C1951 C1954 1.363 . S
N1952 C1954 1.356 . S
N1952 H1964 0.984 . S
N1952 H1965 0.985 . S
N1953 C1955 1.347 1_655 S
N1953 H1958 0.985 1_655 S
N1953 H1959 0.993 . S
C1954 C1948 1.379 . S
C1954 C1951 1.363 . S
C1954 N1952 1.356 . S
C1955 C1949 1.363 . S
C1955 C1950 1.379 . S
C1955 N1953 1.347 1_455 S
N1956 C1948 1.356 . S
N1956 H1962 0.984 . S
N1956 H1963 0.984 . S
N1957 C1950 1.356 1_655 S
N1957 H1960 0.998 . S
N1957 H1961 0.985 . S
H1958 N1953 0.985 1_455 S
H1959 N1953 0.993 . S
H1960 N1957 0.998 . S
H1961 N1957 0.985 . S
H1962 N1956 0.984 . S
H1963 N1956 0.984 . S
H1964 N1952 0.984 . S
H1965 N1952 0.985 . S
C1966 C1967 1.363 . S
C1966 C1972 1.379 . S
C1966 N1974 1.356 . S
C1967 C1966 1.363 . S
C1967 C1973 1.363 . S
C1968 C1969 1.363 . S
C1968 C1973 1.379 . S
C1968 N1975 1.356 . S
C1969 C1968 1.363 . S
C1969 C1972 1.363 . S
N1970 C1972 1.356 . S
N1970 H1982 0.984 . S
N1970 H1983 0.985 . S
N1971 C1973 1.356 . S
N1971 H1976 0.984 . S
N1971 H1977 0.985 . S
C1972 C1966 1.379 . S
C1972 C1969 1.363 . S
C1972 N1970 1.356 . S
C1973 C1967 1.363 . S
C1973 C1968 1.379 . S
C1973 N1971 1.356 . S
N1974 C1966 1.356 . S
N1974 H1980 0.984 . S
N1974 H1981 0.984 . S
N1975 C1968 1.356 . S
N1975 H1978 0.984 . S
N1975 H1979 0.985 . S
H1976 N1971 0.984 . S
H1977 N1971 0.985 . S
H1978 N1975 0.984 . S
H1979 N1975 0.985 . S
H1980 N1974 0.984 . S
H1981 N1974 0.984 . S
H1982 N1970 0.984 . S
H1983 N1970 0.985 . S
C1984 C1985 1.363 . S
C1984 C1990 1.379 . S
C1984 N1992 1.356 . S
C1985 C1984 1.363 . S
C1985 C1991 1.363 . S
C1986 C1987 1.363 . S
C1986 C1991 1.379 . S
C1986 N1993 1.356 . S
C1987 C1986 1.363 . S
C1987 C1990 1.363 . S
N1988 C1990 1.356 . S
N1988 H2000 0.984 . S
N1988 H2001 0.985 . S
N1989 C1991 1.356 . S
N1989 H1994 0.984 . S
N1989 H1995 0.985 . S
C1990 C1984 1.379 . S
C1990 C1987 1.363 . S
C1990 N1988 1.356 . S
C1991 C1985 1.363 . S
C1991 C1986 1.379 . S
C1991 N1989 1.356 . S
N1992 C1984 1.356 . S
N1992 H1998 0.984 . S
N1992 H1999 0.984 . S
N1993 C1986 1.356 . S
N1993 H1996 0.984 . S
N1993 H1997 0.985 . S
H1994 N1989 0.984 . S
H1995 N1989 0.985 . S
H1996 N1993 0.984 . S
H1997 N1993 0.985 . S
H1998 N1992 0.984 . S
H1999 N1992 0.984 . S
H2000 N1988 0.984 . S
H2001 N1988 0.985 . S
C2002 C2003 1.363 . S
C2002 C2008 1.379 . S
C2002 N2010 1.356 . S
C2003 C2002 1.363 . S
C2003 C2009 1.363 . S
C2004 C2005 1.363 . S
C2004 C2009 1.379 . S
C2004 N2011 1.356 . S
C2005 C2004 1.363 . S
C2005 C2008 1.363 . S
N2006 C2008 1.356 . S
N2006 H2018 0.984 . S
N2006 H2019 0.985 . S
N2007 C2009 1.356 . S
N2007 H2012 0.984 . S
N2007 H2013 0.985 . S
C2008 C2002 1.379 . S
C2008 C2005 1.363 . S
C2008 N2006 1.356 . S
C2009 C2003 1.363 . S
C2009 C2004 1.379 . S
C2009 N2007 1.356 . S
N2010 C2002 1.356 . S
N2010 H2016 0.984 . S
N2010 H2017 0.984 . S
N2011 C2004 1.356 . S
N2011 H2014 0.984 . S
N2011 H2015 0.985 . S
H2012 N2007 0.984 . S
H2013 N2007 0.985 . S
H2014 N2011 0.984 . S
H2015 N2011 0.985 . S
H2016 N2010 0.984 . S
H2017 N2010 0.984 . S
H2018 N2006 0.984 . S
H2019 N2006 0.985 . S
C2020 C2021 1.363 . S
C2020 C2026 1.379 . S
C2020 N2028 1.356 . S
C2021 C2020 1.363 . S
C2021 C2027 1.363 . S
C2022 C2023 1.363 . S
C2022 C2027 1.379 . S
C2022 N2029 1.356 . S
C2023 C2022 1.363 . S
C2023 C2026 1.363 . S
N2024 C2026 1.356 . S
N2024 H2036 0.984 . S
N2024 H2037 0.985 . S
N2025 C2027 1.356 . S
N2025 H2030 0.984 . S
N2025 H2031 0.985 . S
C2026 C2020 1.379 . S
C2026 C2023 1.363 . S
C2026 N2024 1.356 . S
C2027 C2021 1.363 . S
C2027 C2022 1.379 . S
C2027 N2025 1.356 . S
N2028 C2020 1.356 . S
N2028 H2034 0.984 . S
N2028 H2035 0.984 . S
N2029 C2022 1.356 . S
N2029 H2032 0.984 . S
N2029 H2033 0.985 . S
H2030 N2025 0.984 . S
H2031 N2025 0.985 . S
H2032 N2029 0.984 . S
H2033 N2029 0.985 . S
H2034 N2028 0.984 . S
H2035 N2028 0.984 . S
H2036 N2024 0.984 . S
H2037 N2024 0.985 . S
C2038 C2039 1.363 . S
C2038 C2044 1.379 . S
C2038 N2046 1.356 . S
C2039 C2038 1.363 . S
C2039 C2045 1.363 . S
C2040 C2041 1.363 . S
C2040 C2045 1.379 . S
C2040 N2047 1.356 . S
C2041 C2040 1.363 . S
C2041 C2044 1.363 . S
N2042 C2044 1.356 . S
N2042 H2054 0.984 . S
N2042 H2055 0.985 . S
N2043 C2045 1.356 . S
N2043 H2048 0.984 . S
N2043 H2049 0.985 . S
C2044 C2038 1.379 . S
C2044 C2041 1.363 . S
C2044 N2042 1.356 . S
C2045 C2039 1.363 . S
C2045 C2040 1.379 . S
C2045 N2043 1.356 . S
N2046 C2038 1.356 . S
N2046 H2052 0.984 . S
N2046 H2053 0.984 . S
N2047 C2040 1.356 . S
N2047 H2050 0.984 . S
N2047 H2051 0.985 . S
H2048 N2043 0.984 . S
H2049 N2043 0.985 . S
H2050 N2047 0.984 . S
H2051 N2047 0.985 . S
H2052 N2046 0.984 . S
H2053 N2046 0.984 . S
H2054 N2042 0.984 . S
H2055 N2042 0.985 . S
C2056 C2057 1.363 . S
C2056 C2062 1.379 . S
C2056 N2064 1.356 . S
C2057 C2056 1.363 . S
C2057 C2063 1.363 . S
C2058 C2059 1.363 . S
C2058 C2063 1.379 . S
C2058 N2065 1.356 . S
C2059 C2058 1.363 . S
C2059 C2062 1.363 . S
N2060 C2062 1.356 . S
N2060 H2072 0.984 . S
N2060 H2073 0.985 . S
N2061 C2063 1.356 . S
N2061 H2066 0.984 . S
N2061 H2067 0.985 . S
C2062 C2056 1.379 . S
C2062 C2059 1.363 . S
C2062 N2060 1.356 . S
C2063 C2057 1.363 . S
C2063 C2058 1.379 . S
C2063 N2061 1.356 . S
N2064 C2056 1.356 . S
N2064 H2070 0.984 . S
N2064 H2071 0.984 . S
N2065 C2058 1.356 . S
N2065 H2068 0.984 . S
N2065 H2069 0.985 . S
H2066 N2061 0.984 . S
H2067 N2061 0.985 . S
H2068 N2065 0.984 . S
H2069 N2065 0.985 . S
H2070 N2064 0.984 . S
H2071 N2064 0.984 . S
H2072 N2060 0.984 . S
H2073 N2060 0.985 . S
C2074 C2075 1.363 . S
C2074 C2080 1.379 . S
C2074 N2082 1.356 . S
C2075 C2074 1.363 . S
C2075 C2081 1.363 . S
C2076 C2077 1.363 . S
C2076 C2081 1.379 . S
C2076 N2083 1.356 . S
C2077 C2076 1.363 . S
C2077 C2080 1.363 . S
N2078 C2080 1.356 . S
N2078 H2090 0.984 . S
N2078 H2091 0.985 . S
N2079 C2081 1.356 . S
N2079 H2084 0.984 . S
N2079 H2085 0.985 . S
C2080 C2074 1.379 . S
C2080 C2077 1.363 . S
C2080 N2078 1.356 . S
C2081 C2075 1.363 . S
C2081 C2076 1.379 . S
C2081 N2079 1.356 . S
N2082 C2074 1.356 . S
N2082 H2088 0.984 . S
N2082 H2089 0.984 . S
N2083 C2076 1.356 . S
N2083 H2086 0.984 . S
N2083 H2087 0.985 . S
H2084 N2079 0.984 . S
H2085 N2079 0.985 . S
H2086 N2083 0.984 . S
H2087 N2083 0.985 . S
H2088 N2082 0.984 . S
H2089 N2082 0.984 . S
H2090 N2078 0.984 . S
H2091 N2078 0.985 . S
C2092 C2093 1.363 . S
C2092 C2098 1.379 . S
C2092 N2100 1.356 . S
C2093 C2092 1.363 . S
C2093 C2099 1.363 . S
C2094 C2095 1.363 . S
C2094 C2099 1.379 . S
C2094 N2101 1.356 . S
C2095 C2094 1.363 . S
C2095 C2098 1.363 . S
N2096 C2098 1.356 . S
N2096 H2108 0.984 . S
N2096 H2109 0.985 . S
N2097 C2099 1.356 . S
N2097 H2102 0.984 . S
N2097 H2103 0.985 . S
C2098 C2092 1.379 . S
C2098 C2095 1.363 . S
C2098 N2096 1.356 . S
C2099 C2093 1.363 . S
C2099 C2094 1.379 . S
C2099 N2097 1.356 . S
N2100 C2092 1.356 . S
N2100 H2106 0.984 . S
N2100 H2107 0.984 . S
N2101 C2094 1.356 . S
N2101 H2104 0.984 . S
N2101 H2105 0.985 . S
H2102 N2097 0.984 . S
H2103 N2097 0.985 . S
H2104 N2101 0.984 . S
H2105 N2101 0.985 . S
H2106 N2100 0.984 . S
H2107 N2100 0.984 . S
H2108 N2096 0.984 . S
H2109 N2096 0.985 . S
C2110 C2111 1.363 . S
C2110 C2116 1.379 . S
C2110 N2118 1.356 . S
C2111 C2110 1.363 . S
C2111 C2117 1.363 . S
C2112 C2113 1.363 . S
C2112 C2117 1.379 . S
C2112 N2119 1.356 . S
C2113 C2112 1.363 . S
C2113 C2116 1.363 . S
N2114 C2116 1.356 . S
N2114 H2126 0.984 . S
N2114 H2127 0.985 . S
N2115 C2117 1.356 . S
N2115 H2120 0.984 . S
N2115 H2121 0.985 . S
C2116 C2110 1.379 . S
C2116 C2113 1.363 . S
C2116 N2114 1.356 . S
C2117 C2111 1.363 . S
C2117 C2112 1.379 . S
C2117 N2115 1.356 . S
N2118 C2110 1.356 . S
N2118 H2124 0.984 . S
N2118 H2125 0.984 . S
N2119 C2112 1.356 . S
N2119 H2122 0.984 . S
N2119 H2123 0.985 . S
H2120 N2115 0.984 . S
H2121 N2115 0.985 . S
H2122 N2119 0.984 . S
H2123 N2119 0.985 . S
H2124 N2118 0.984 . S
H2125 N2118 0.984 . S
H2126 N2114 0.984 . S
H2127 N2114 0.985 . S
C2128 C2129 1.363 . S
C2128 C2134 1.379 . S
C2128 N2136 1.356 . S
C2129 C2128 1.363 . S
C2129 C2135 1.363 . S
C2130 C2131 1.363 . S
C2130 C2135 1.379 . S
C2130 N2137 1.356 . S
C2131 C2130 1.363 . S
C2131 C2134 1.363 . S
N2132 C2134 1.356 . S
N2132 H2144 0.984 . S
N2132 H2145 0.985 . S
N2133 C2135 1.356 . S
N2133 H2138 0.984 . S
N2133 H2139 0.985 . S
C2134 C2128 1.379 . S
C2134 C2131 1.363 . S
C2134 N2132 1.356 . S
C2135 C2129 1.363 . S
C2135 C2130 1.379 . S
C2135 N2133 1.356 . S
N2136 C2128 1.356 . S
N2136 H2142 0.984 . S
N2136 H2143 0.984 . S
N2137 C2130 1.356 . S
N2137 H2140 0.984 . S
N2137 H2141 0.985 . S
H2138 N2133 0.984 . S
H2139 N2133 0.985 . S
H2140 N2137 0.984 . S
H2141 N2137 0.985 . S
H2142 N2136 0.984 . S
H2143 N2136 0.984 . S
H2144 N2132 0.984 . S
H2145 N2132 0.985 . S
C2146 C2147 1.363 . S
C2146 C2152 1.379 . S
C2146 N2154 1.356 . S
C2147 C2146 1.363 . S
C2147 C2153 1.363 . S
C2148 C2149 1.363 . S
C2148 C2153 1.379 . S
C2148 N2155 1.356 . S
C2149 C2148 1.363 . S
C2149 C2152 1.363 . S
N2150 C2152 1.356 . S
N2150 H2162 0.984 . S
N2150 H2163 0.985 . S
N2151 C2153 1.356 . S
N2151 H2156 0.984 . S
N2151 H2157 0.985 . S
C2152 C2146 1.379 . S
C2152 C2149 1.363 . S
C2152 N2150 1.356 . S
C2153 C2147 1.363 . S
C2153 C2148 1.379 . S
C2153 N2151 1.356 . S
N2154 C2146 1.356 . S
N2154 H2160 0.984 . S
N2154 H2161 0.984 . S
N2155 C2148 1.356 . S
N2155 H2158 0.984 . S
N2155 H2159 0.985 . S
H2156 N2151 0.984 . S
H2157 N2151 0.985 . S
H2158 N2155 0.984 . S
H2159 N2155 0.985 . S
H2160 N2154 0.984 . S
H2161 N2154 0.984 . S
H2162 N2150 0.984 . S
H2163 N2150 0.985 . S
C2164 C2165 1.363 1_565 S
C2164 C2170 1.379 . S
C2164 N2172 1.356 . S
C2165 C2164 1.363 1_545 S
C2165 C2171 1.363 . S
C2166 C2167 1.363 1_545 S
C2166 C2171 1.379 . S
C2166 N2173 1.356 . S
C2167 C2166 1.363 1_565 S
C2167 C2170 1.363 . S
N2168 C2170 1.356 . S
N2168 H2180 0.984 . S
N2168 H2181 0.985 . S
N2169 C2171 1.356 . S
N2169 H2174 0.984 . S
N2169 H2175 0.985 . S
C2170 C2164 1.379 . S
C2170 C2167 1.363 . S
C2170 N2168 1.356 . S
C2171 C2165 1.363 . S
C2171 C2166 1.379 . S
C2171 N2169 1.356 . S
N2172 C2164 1.356 . S
N2172 H2178 0.984 . S
N2172 H2179 0.984 1_565 S
N2173 C2166 1.356 . S
N2173 H2176 0.984 1_545 S
N2173 H2177 0.985 . S
H2174 N2169 0.984 . S
H2175 N2169 0.985 . S
H2176 N2173 0.984 1_565 S
H2177 N2173 0.985 . S
H2178 N2172 0.984 . S
H2179 N2172 0.984 1_545 S
H2180 N2168 0.984 . S
H2181 N2168 0.985 . S
C2182 C2183 1.363 . S
C2182 C2188 1.379 . S
C2182 N2190 1.356 . S
C2183 C2182 1.363 . S
C2183 C2189 1.363 . S
C2184 C2185 1.363 . S
C2184 C2189 1.379 . S
C2184 N2191 1.356 . S
C2185 C2184 1.363 . S
C2185 C2188 1.363 . S
N2186 C2188 1.356 1_545 S
N2186 H2198 0.984 . S
N2186 H2199 0.985 . S
N2187 C2189 1.356 . S
N2187 H2192 0.984 . S
N2187 H2193 0.985 . S
C2188 C2182 1.379 . S
C2188 C2185 1.363 . S
C2188 N2186 1.356 1_565 S
C2189 C2183 1.363 . S
C2189 C2184 1.379 . S
C2189 N2187 1.356 . S
N2190 C2182 1.356 . S
N2190 H2196 0.984 . S
N2190 H2197 0.984 . S
N2191 C2184 1.356 . S
N2191 H2194 0.984 . S
N2191 H2195 0.985 . S
H2192 N2187 0.984 . S
H2193 N2187 0.985 . S
H2194 N2191 0.984 . S
H2195 N2191 0.985 . S
H2196 N2190 0.984 . S
H2197 N2190 0.984 . S
H2198 N2186 0.984 . S
H2199 N2186 0.985 . S
C2200 C2201 1.363 . S
C2200 C2206 1.379 . S
C2200 N2208 1.356 . S
C2201 C2200 1.363 . S
C2201 C2207 1.363 . S
C2202 C2203 1.363 . S
C2202 C2207 1.379 . S
C2202 N2209 1.356 . S
C2203 C2202 1.363 . S
C2203 C2206 1.363 . S
N2204 C2206 1.356 . S
N2204 H2216 0.984 . S
N2204 H2217 0.985 . S
N2205 C2207 1.356 . S
N2205 H2210 0.984 . S
N2205 H2211 0.985 . S
C2206 C2200 1.379 . S
C2206 C2203 1.363 . S
C2206 N2204 1.356 . S
C2207 C2201 1.363 . S
C2207 C2202 1.379 . S
C2207 N2205 1.356 . S
N2208 C2200 1.356 . S
N2208 H2214 0.984 . S
N2208 H2215 0.984 . S
N2209 C2202 1.356 . S
N2209 H2212 0.984 . S
N2209 H2213 0.985 . S
H2210 N2205 0.984 . S
H2211 N2205 0.985 . S
H2212 N2209 0.984 . S
H2213 N2209 0.985 . S
H2214 N2208 0.984 . S
H2215 N2208 0.984 . S
H2216 N2204 0.984 . S
H2217 N2204 0.985 . S
C2218 C2219 1.363 . S
C2218 C2224 1.379 . S
C2218 N2226 1.356 . S
C2219 C2218 1.363 . S
C2219 C2225 1.363 . S
C2220 C2221 1.363 . S
C2220 C2225 1.379 . S
C2220 N2227 1.356 1_655 S
C2221 C2220 1.363 . S
C2221 C2224 1.363 . S
N2222 C2224 1.356 . S
N2222 H2234 0.984 . S
N2222 H2235 0.985 . S
N2223 C2225 1.356 . S
N2223 H2228 0.984 . S
N2223 H2229 0.985 . S
C2224 C2218 1.379 . S
C2224 C2221 1.363 . S
C2224 N2222 1.356 . S
C2225 C2219 1.363 . S
C2225 C2220 1.379 . S
C2225 N2223 1.356 . S
N2226 C2218 1.356 . S
N2226 H2232 1.004 . S
N2226 H2233 0.984 . S
N2227 C2220 1.356 1_455 S
N2227 H2230 0.984 . S
N2227 H2231 0.985 . S
H2228 N2223 0.984 . S
H2229 N2223 0.985 . S
H2230 N2227 0.984 . S
H2231 N2227 0.985 . S
H2232 N2226 1.004 . S
H2233 N2226 0.984 . S
H2234 N2222 0.984 . S
H2235 N2222 0.985 . S
C2236 C2237 1.363 . S
C2236 C2242 1.379 . S
C2236 N2244 1.356 . S
C2237 C2236 1.363 . S
C2237 C2243 1.363 . S
C2238 C2239 1.363 . S
C2238 C2243 1.379 . S
C2238 N2245 1.356 . S
C2239 C2238 1.363 . S
C2239 C2242 1.363 . S
N2240 C2242 1.356 . S
N2240 H2252 0.984 . S
N2240 H2253 0.985 . S
N2241 C2243 1.356 . S
N2241 H2246 0.984 . S
N2241 H2247 0.985 . S
C2242 C2236 1.379 . S
C2242 C2239 1.363 . S
C2242 N2240 1.356 . S
C2243 C2237 1.363 . S
C2243 C2238 1.379 . S
C2243 N2241 1.356 . S
N2244 C2236 1.356 . S
N2244 H2250 0.984 . S
N2244 H2251 0.984 . S
N2245 C2238 1.356 . S
N2245 H2248 0.984 . S
N2245 H2249 0.985 . S
H2246 N2241 0.984 . S
H2247 N2241 0.985 . S
H2248 N2245 0.984 . S
H2249 N2245 0.985 . S
H2250 N2244 0.984 . S
H2251 N2244 0.984 . S
H2252 N2240 0.984 . S
H2253 N2240 0.985 . S
C2254 C2255 1.363 . S
C2254 C2260 1.379 . S
C2254 N2262 1.356 . S
C2255 C2254 1.363 . S
C2255 C2261 1.363 1_545 S
C2256 C2257 1.363 . S
C2256 C2261 1.379 . S
C2256 N2263 1.356 . S
C2257 C2256 1.363 . S
C2257 C2260 1.363 1_565 S
N2258 C2260 1.356 . S
N2258 H2270 0.984 . S
N2258 H2271 0.985 . S
N2259 C2261 1.356 . S
N2259 H2264 0.984 1_565 S
N2259 H2265 0.985 . S
C2260 C2254 1.379 . S
C2260 C2257 1.363 1_545 S
C2260 N2258 1.356 . S
C2261 C2255 1.363 1_565 S
C2261 C2256 1.379 . S
C2261 N2259 1.356 . S
N2262 C2254 1.356 . S
N2262 H2268 0.984 . S
N2262 H2269 0.984 . S
N2263 C2256 1.356 . S
N2263 H2266 0.984 . S
N2263 H2267 0.985 . S
H2264 N2259 0.984 1_545 S
H2265 N2259 0.985 . S
H2266 N2263 0.984 . S
H2267 N2263 0.985 . S
H2268 N2262 0.984 . S
H2269 N2262 0.984 . S
H2270 N2258 0.984 . S
H2271 N2258 0.985 . S
C2272 C2273 1.363 . S
C2272 C2278 1.379 . S
C2272 N2280 1.356 . S
C2273 C2272 1.363 . S
C2273 C2279 1.363 . S
C2274 C2275 1.363 . S
C2274 C2279 1.379 . S
C2274 N2281 1.356 . S
C2275 C2274 1.363 . S
C2275 C2278 1.363 . S
N2276 C2278 1.356 . S
N2276 H2288 0.984 . S
N2276 H2289 0.985 . S
N2277 C2279 1.356 . S
N2277 H2282 0.984 . S
N2277 H2283 0.985 . S
C2278 C2272 1.379 . S
C2278 C2275 1.363 . S
C2278 N2276 1.356 . S
C2279 C2273 1.363 . S
C2279 C2274 1.379 . S
C2279 N2277 1.356 . S
N2280 C2272 1.356 . S
N2280 H2286 0.984 . S
N2280 H2287 0.984 . S
N2281 C2274 1.356 . S
N2281 H2284 0.984 . S
N2281 H2285 0.985 . S
H2282 N2277 0.984 . S
H2283 N2277 0.985 . S
H2284 N2281 0.984 . S
H2285 N2281 0.985 . S
H2286 N2280 0.984 . S
H2287 N2280 0.984 . S
H2288 N2276 0.984 . S
H2289 N2276 0.985 . S
C2290 C2291 1.363 . S
C2290 C2296 1.379 . S
C2290 N2298 1.356 . S
C2291 C2290 1.363 . S
C2291 C2297 1.363 . S
C2292 C2293 1.363 . S
C2292 C2297 1.379 . S
C2292 N2299 1.356 . S
C2293 C2292 1.363 . S
C2293 C2296 1.363 . S
N2294 C2296 1.356 . S
N2294 H2306 0.984 . S
N2294 H2307 0.985 . S
N2295 C2297 1.356 . S
N2295 H2300 0.984 . S
N2295 H2301 0.985 . S
C2296 C2290 1.379 . S
C2296 C2293 1.363 . S
C2296 N2294 1.356 . S
C2297 C2291 1.363 . S
C2297 C2292 1.379 . S
C2297 N2295 1.356 . S
N2298 C2290 1.356 . S
N2298 H2304 0.984 . S
N2298 H2305 0.984 . S
N2299 C2292 1.356 . S
N2299 H2302 0.984 . S
N2299 H2303 0.985 . S
H2300 N2295 0.984 . S
H2301 N2295 0.985 . S
H2302 N2299 0.984 . S
H2303 N2299 0.985 . S
H2304 N2298 0.984 . S
H2305 N2298 0.984 . S
H2306 N2294 0.984 . S
H2307 N2294 0.985 . S
C2308 C2309 1.363 . S
C2308 C2314 1.379 . S
C2308 N2316 1.356 . S
C2309 C2308 1.363 . S
C2309 C2315 1.363 . S
C2310 C2311 1.363 . S
C2310 C2315 1.379 . S
C2310 N2317 1.356 . S
C2311 C2310 1.363 . S
C2311 C2314 1.363 . S
N2312 C2314 1.356 . S
N2312 H2324 0.984 . S
N2312 H2325 0.985 . S
N2313 C2315 1.356 . S
N2313 H2318 0.984 . S
N2313 H2319 0.985 . S
C2314 C2308 1.379 . S
C2314 C2311 1.363 . S
C2314 N2312 1.356 . S
C2315 C2309 1.363 . S
C2315 C2310 1.379 . S
C2315 N2313 1.356 . S
N2316 C2308 1.356 . S
N2316 H2322 0.984 . S
N2316 H2323 0.984 . S
N2317 C2310 1.356 . S
N2317 H2320 0.984 . S
N2317 H2321 0.985 . S
H2318 N2313 0.984 . S
H2319 N2313 0.985 . S
H2320 N2317 0.984 . S
H2321 N2317 0.985 . S
H2322 N2316 0.984 . S
H2323 N2316 0.984 . S
H2324 N2312 0.984 . S
H2325 N2312 0.985 . S
C2326 C2327 1.363 . S
C2326 C2332 1.379 . S
C2326 N2334 1.356 . S
C2327 C2326 1.363 . S
C2327 C2333 1.363 . S
C2328 C2329 1.363 . S
C2328 C2333 1.379 . S
C2328 N2335 1.356 . S
C2329 C2328 1.363 . S
C2329 C2332 1.363 . S
N2330 C2332 1.356 . S
N2330 H2342 0.984 . S
N2330 H2343 0.985 . S
N2331 C2333 1.356 . S
N2331 H2336 0.984 . S
N2331 H2337 0.985 . S
C2332 C2326 1.379 . S
C2332 C2329 1.363 . S
C2332 N2330 1.356 . S
C2333 C2327 1.363 . S
C2333 C2328 1.379 . S
C2333 N2331 1.356 . S
N2334 C2326 1.356 . S
N2334 H2340 0.984 . S
N2334 H2341 0.984 . S
N2335 C2328 1.356 . S
N2335 H2338 0.984 . S
N2335 H2339 0.985 . S
H2336 N2331 0.984 . S
H2337 N2331 0.985 . S
H2338 N2335 0.984 . S
H2339 N2335 0.985 . S
H2340 N2334 0.984 . S
H2341 N2334 0.984 . S
H2342 N2330 0.984 . S
H2343 N2330 0.985 . S
C2344 C2345 1.363 . S
C2344 C2350 1.379 . S
C2344 N2352 1.356 . S
C2345 C2344 1.363 . S
C2345 C2351 1.363 . S
C2346 C2347 1.363 . S
C2346 C2351 1.379 . S
C2346 N2353 1.356 . S
C2347 C2346 1.363 . S
C2347 C2350 1.363 . S
N2348 C2350 1.356 1_554 S
N2348 H2360 0.984 . S
N2348 H2361 0.985 . S
N2349 C2351 1.356 . S
N2349 H2354 0.984 . S
N2349 H2355 0.985 . S
C2350 C2344 1.379 . S
C2350 C2347 1.363 . S
C2350 N2348 1.356 1_556 S
C2351 C2345 1.363 . S
C2351 C2346 1.379 . S
C2351 N2349 1.356 . S
N2352 C2344 1.356 . S
N2352 H2358 0.984 1_556 S
N2352 H2359 0.984 . S
N2353 C2346 1.356 . S
N2353 H2356 0.984 . S
N2353 H2357 0.985 . S
H2354 N2349 0.984 . S
H2355 N2349 0.985 . S
H2356 N2353 0.984 . S
H2357 N2353 0.985 . S
H2358 N2352 0.984 1_554 S
H2359 N2352 0.984 . S
H2360 N2348 0.984 . S
H2361 N2348 0.985 . S
C2362 C2363 1.363 . S
C2362 C2368 1.379 . S
C2362 N2370 1.356 . S
C2363 C2362 1.363 . S
C2363 C2369 1.363 . S
C2364 C2365 1.363 . S
C2364 C2369 1.379 . S
C2364 N2371 1.356 . S
C2365 C2364 1.363 . S
C2365 C2368 1.363 . S
N2366 C2368 1.356 . S
N2366 H2378 0.984 . S
N2366 H2379 0.985 . S
N2367 C2369 1.356 . S
N2367 H2372 0.984 . S
N2367 H2373 0.985 . S
C2368 C2362 1.379 . S
C2368 C2365 1.363 . S
C2368 N2366 1.356 . S
C2369 C2363 1.363 . S
C2369 C2364 1.379 . S
C2369 N2367 1.356 . S
N2370 C2362 1.356 . S
N2370 H2376 0.984 . S
N2370 H2377 0.984 . S
N2371 C2364 1.356 . S
N2371 H2374 0.984 . S
N2371 H2375 0.985 . S
H2372 N2367 0.984 . S
H2373 N2367 0.985 . S
H2374 N2371 0.984 . S
H2375 N2371 0.985 . S
H2376 N2370 0.984 . S
H2377 N2370 0.984 . S
H2378 N2366 0.984 . S
H2379 N2366 0.985 . S
C2380 C2381 1.363 . S
C2380 C2386 1.379 . S
C2380 N2388 1.356 . S
C2381 C2380 1.363 . S
C2381 C2387 1.363 . S
C2382 C2383 1.363 . S
C2382 C2387 1.379 . S
C2382 N2389 1.356 . S
C2383 C2382 1.363 . S
C2383 C2386 1.363 . S
N2384 C2386 1.356 . S
N2384 H2396 0.984 1_455 S
N2384 H2397 0.985 . S
N2385 C2387 1.356 . S
N2385 H2390 0.984 . S
N2385 H2391 0.985 . S
C2386 C2380 1.379 . S
C2386 C2383 1.363 . S
C2386 N2384 1.356 . S
C2387 C2381 1.363 . S
C2387 C2382 1.379 . S
C2387 N2385 1.356 . S
N2388 C2380 1.356 . S
N2388 H2394 0.984 1_455 S
N2388 H2395 0.984 . S
N2389 C2382 1.356 . S
N2389 H2392 0.984 . S
N2389 H2393 0.985 . S
H2390 N2385 0.984 . S
H2391 N2385 0.985 . S
H2392 N2389 0.984 . S
H2393 N2389 0.985 . S
H2394 N2388 0.984 1_655 S
H2395 N2388 0.984 . S
H2396 N2384 0.984 1_655 S
H2397 N2384 0.985 . S
C2398 C2399 1.363 . S
C2398 C2404 1.379 . S
C2398 N2406 1.356 . S
C2399 C2398 1.363 . S
C2399 C2405 1.363 . S
C2400 C2401 1.363 . S
C2400 C2405 1.379 . S
C2400 N2407 1.356 . S
C2401 C2400 1.363 . S
C2401 C2404 1.363 . S
N2402 C2404 1.356 . S
N2402 H2414 0.984 . S
N2402 H2415 0.985 . S
N2403 C2405 1.356 . S
N2403 H2408 0.984 . S
N2403 H2409 0.985 . S
C2404 C2398 1.379 . S
C2404 C2401 1.363 . S
C2404 N2402 1.356 . S
C2405 C2399 1.363 . S
C2405 C2400 1.379 . S
C2405 N2403 1.356 . S
N2406 C2398 1.356 . S
N2406 H2412 0.984 . S
N2406 H2413 0.984 . S
N2407 C2400 1.356 . S
N2407 H2410 0.984 . S
N2407 H2411 0.985 . S
H2408 N2403 0.984 . S
H2409 N2403 0.985 . S
H2410 N2407 0.984 . S
H2411 N2407 0.985 . S
H2412 N2406 0.984 . S
H2413 N2406 0.984 . S
H2414 N2402 0.984 . S
H2415 N2402 0.985 . S
C2416 C2417 1.363 . S
C2416 C2422 1.379 . S
C2416 N2424 1.356 . S
C2417 C2416 1.363 . S
C2417 C2423 1.363 . S
C2418 C2419 1.363 . S
C2418 C2423 1.379 . S
C2418 N2425 1.356 . S
C2419 C2418 1.363 . S
C2419 C2422 1.363 . S
N2420 C2422 1.356 . S
N2420 H2432 0.984 . S
N2420 H2433 0.985 . S
N2421 C2423 1.356 . S
N2421 H2426 0.984 . S
N2421 H2427 0.985 . S
C2422 C2416 1.379 . S
C2422 C2419 1.363 . S
C2422 N2420 1.356 . S
C2423 C2417 1.363 . S
C2423 C2418 1.379 . S
C2423 N2421 1.356 . S
N2424 C2416 1.356 . S
N2424 H2430 0.984 . S
N2424 H2431 0.984 . S
N2425 C2418 1.356 . S
N2425 H2428 0.984 . S
N2425 H2429 0.985 . S
H2426 N2421 0.984 . S
H2427 N2421 0.985 . S
H2428 N2425 0.984 . S
H2429 N2425 0.985 . S
H2430 N2424 0.984 . S
H2431 N2424 0.984 . S
H2432 N2420 0.984 . S
H2433 N2420 0.985 . S
C2434 C2435 1.363 . S
C2434 C2440 1.379 . S
C2434 N2442 1.356 . S
C2435 C2434 1.363 . S
C2435 C2441 1.363 . S
C2436 C2437 1.363 . S
C2436 C2441 1.379 . S
C2436 N2443 1.356 . S
C2437 C2436 1.363 . S
C2437 C2440 1.363 . S
N2438 C2440 1.356 . S
N2438 H2450 0.984 . S
N2438 H2451 0.985 . S
N2439 C2441 1.356 . S
N2439 H2444 0.984 . S
N2439 H2445 0.985 . S
C2440 C2434 1.379 . S
C2440 C2437 1.363 . S
C2440 N2438 1.356 . S
C2441 C2435 1.363 . S
C2441 C2436 1.379 . S
C2441 N2439 1.356 . S
N2442 C2434 1.356 . S
N2442 H2448 0.984 . S
N2442 H2449 0.984 . S
N2443 C2436 1.356 . S
N2443 H2446 0.984 . S
N2443 H2447 0.985 . S
H2444 N2439 0.984 . S
H2445 N2439 0.985 . S
H2446 N2443 0.984 . S
H2447 N2443 0.985 . S
H2448 N2442 0.984 . S
H2449 N2442 0.984 . S
H2450 N2438 0.984 . S
H2451 N2438 0.985 . S
C2452 C2453 1.363 . S
C2452 C2458 1.379 . S
C2452 N2460 1.356 . S
C2453 C2452 1.363 . S
C2453 C2459 1.363 . S
C2454 C2455 1.363 . S
C2454 C2459 1.379 . S
C2454 N2461 1.356 . S
C2455 C2454 1.363 . S
C2455 C2458 1.363 . S
N2456 C2458 1.356 1_554 S
N2456 H2468 0.984 . S
N2456 H2469 0.985 . S
N2457 C2459 1.356 . S
N2457 H2462 0.984 . S
N2457 H2463 0.985 1_455 S
C2458 C2452 1.379 . S
C2458 C2455 1.363 . S
C2458 N2456 1.356 1_556 S
C2459 C2453 1.363 . S
C2459 C2454 1.379 . S
C2459 N2457 1.356 . S
N2460 C2452 1.356 . S
N2460 H2466 0.984 . S
N2460 H2467 0.984 . S
N2461 C2454 1.356 . S
N2461 H2464 0.984 . S
N2461 H2465 0.985 . S
H2462 N2457 0.984 . S
H2463 N2457 0.985 1_655 S
H2464 N2461 0.984 . S
H2465 N2461 0.985 . S
H2466 N2460 0.984 . S
H2467 N2460 0.984 . S
H2468 N2456 0.984 . S
H2469 N2456 0.985 . S
C2470 C2471 1.363 . S
C2470 C2476 1.379 . S
C2470 N2478 1.356 . S
C2471 C2470 1.363 . S
C2471 C2477 1.363 . S
C2472 C2473 1.363 . S
C2472 C2477 1.379 . S
C2472 N2479 1.356 . S
C2473 C2472 1.363 . S
C2473 C2476 1.363 . S
N2474 C2476 1.356 . S
N2474 H2486 0.984 . S
N2474 H2487 0.985 . S
N2475 C2477 1.356 . S
N2475 H2480 0.984 . S
N2475 H2481 0.985 . S
C2476 C2470 1.379 . S
C2476 C2473 1.363 . S
C2476 N2474 1.356 . S
C2477 C2471 1.363 . S
C2477 C2472 1.379 . S
C2477 N2475 1.356 . S
N2478 C2470 1.356 . S
N2478 H2484 0.984 . S
N2478 H2485 0.984 . S
N2479 C2472 1.356 . S
N2479 H2482 0.984 . S
N2479 H2483 0.985 . S
H2480 N2475 0.984 . S
H2481 N2475 0.985 . S
H2482 N2479 0.984 . S
H2483 N2479 0.985 . S
H2484 N2478 0.984 . S
H2485 N2478 0.984 . S
H2486 N2474 0.984 . S
H2487 N2474 0.985 . S
C2488 C2489 1.363 . S
C2488 C2494 1.379 . S
C2488 N2496 1.356 . S
C2489 C2488 1.363 . S
C2489 C2495 1.363 . S
C2490 C2491 1.363 . S
C2490 C2495 1.379 . S
C2490 N2497 1.356 . S
C2491 C2490 1.363 . S
C2491 C2494 1.363 . S
N2492 C2494 1.356 . S
N2492 H2504 0.984 . S
N2492 H2505 0.985 . S
N2493 C2495 1.356 . S
N2493 H2498 0.984 . S
N2493 H2499 0.985 . S
C2494 C2488 1.379 . S
C2494 C2491 1.363 . S
C2494 N2492 1.356 . S
C2495 C2489 1.363 . S
C2495 C2490 1.379 . S
C2495 N2493 1.356 . S
N2496 C2488 1.356 . S
N2496 H2502 0.984 . S
N2496 H2503 0.984 . S
N2497 C2490 1.356 . S
N2497 H2500 0.984 . S
N2497 H2501 0.985 . S
H2498 N2493 0.984 . S
H2499 N2493 0.985 . S
H2500 N2497 0.984 . S
H2501 N2497 0.985 . S
H2502 N2496 0.984 . S
H2503 N2496 0.984 . S
H2504 N2492 0.984 . S
H2505 N2492 0.985 . S
C2506 C2507 1.363 . S
C2506 C2512 1.379 . S
C2506 N2514 1.356 . S
C2507 C2506 1.363 . S
C2507 C2513 1.363 . S
C2508 C2509 1.363 . S
C2508 C2513 1.379 . S
C2508 N2515 1.356 . S
C2509 C2508 1.363 . S
C2509 C2512 1.363 . S
N2510 C2512 1.356 . S
N2510 H2522 0.984 . S
N2510 H2523 0.985 . S
N2511 C2513 1.356 . S
N2511 H2516 0.984 . S
N2511 H2517 0.985 . S
C2512 C2506 1.379 . S
C2512 C2509 1.363 . S
C2512 N2510 1.356 . S
C2513 C2507 1.363 . S
C2513 C2508 1.379 . S
C2513 N2511 1.356 . S
N2514 C2506 1.356 . S
N2514 H2520 0.984 . S
N2514 H2521 0.984 . S
N2515 C2508 1.356 . S
N2515 H2518 0.984 . S
N2515 H2519 0.985 . S
H2516 N2511 0.984 . S
H2517 N2511 0.985 . S
H2518 N2515 0.984 . S
H2519 N2515 0.985 . S
H2520 N2514 0.984 . S
H2521 N2514 0.984 . S
H2522 N2510 0.984 . S
H2523 N2510 0.985 . S
C2524 C2525 1.363 1_655 S
C2524 C2530 1.379 . S
C2524 N2532 1.356 . S
C2525 C2524 1.363 1_455 S
C2525 C2531 1.363 . S
C2526 C2527 1.363 . S
C2526 C2531 1.379 . S
C2526 N2533 1.356 . S
C2527 C2526 1.363 . S
C2527 C2530 1.363 1_455 S
N2528 C2530 1.356 . S
N2528 H2540 0.984 . S
N2528 H2541 0.985 . S
N2529 C2531 1.356 . S
N2529 H2534 0.984 . S
N2529 H2535 0.985 . S
C2530 C2524 1.379 . S
C2530 C2527 1.363 1_655 S
C2530 N2528 1.356 . S
C2531 C2525 1.363 . S
C2531 C2526 1.379 . S
C2531 N2529 1.356 . S
N2532 C2524 1.356 . S
N2532 H2538 0.984 . S
N2532 H2539 0.984 . S
N2533 C2526 1.356 . S
N2533 H2536 0.984 . S
N2533 H2537 0.985 . S
H2534 N2529 0.984 . S
H2535 N2529 0.985 . S
H2536 N2533 0.984 . S
H2537 N2533 0.985 . S
H2538 N2532 0.984 . S
H2539 N2532 0.984 . S
H2540 N2528 0.984 . S
H2541 N2528 0.985 . S
C2542 C2543 1.363 . S
C2542 C2548 1.379 . S
C2542 N2550 1.356 . S
C2543 C2542 1.363 . S
C2543 C2549 1.363 . S
C2544 C2545 1.363 . S
C2544 C2549 1.379 . S
C2544 N2551 1.356 . S
C2545 C2544 1.363 . S
C2545 C2548 1.363 . S
N2546 C2548 1.356 . S
N2546 H2558 0.984 . S
N2546 H2559 0.985 . S
N2547 C2549 1.356 . S
N2547 H2552 0.984 . S
N2547 H2553 0.985 . S
C2548 C2542 1.379 . S
C2548 C2545 1.363 . S
C2548 N2546 1.356 . S
C2549 C2543 1.363 . S
C2549 C2544 1.379 . S
C2549 N2547 1.356 . S
N2550 C2542 1.356 . S
N2550 H2556 0.984 . S
N2550 H2557 0.984 . S
N2551 C2544 1.356 . S
N2551 H2554 0.984 . S
N2551 H2555 0.985 . S
H2552 N2547 0.984 . S
H2553 N2547 0.985 . S
H2554 N2551 0.984 . S
H2555 N2551 0.985 . S
H2556 N2550 0.984 . S
H2557 N2550 0.984 . S
H2558 N2546 0.984 . S
H2559 N2546 0.985 . S
C2560 C2561 1.363 . S
C2560 C2566 1.379 . S
C2560 N2568 1.356 . S
C2561 C2560 1.363 . S
C2561 C2567 1.363 . S
C2562 C2563 1.363 . S
C2562 C2567 1.379 . S
C2562 N2569 1.356 . S
C2563 C2562 1.363 . S
C2563 C2566 1.363 . S
N2564 C2566 1.356 . S
N2564 H2576 0.984 . S
N2564 H2577 0.985 . S
N2565 C2567 1.356 . S
N2565 H2570 0.984 . S
N2565 H2571 0.985 . S
C2566 C2560 1.379 . S
C2566 C2563 1.363 . S
C2566 N2564 1.356 . S
C2567 C2561 1.363 . S
C2567 C2562 1.379 . S
C2567 N2565 1.356 . S
N2568 C2560 1.356 . S
N2568 H2574 0.984 . S
N2568 H2575 0.984 . S
N2569 C2562 1.356 . S
N2569 H2572 0.984 . S
N2569 H2573 0.985 . S
H2570 N2565 0.984 . S
H2571 N2565 0.985 . S
H2572 N2569 0.984 . S
H2573 N2569 0.985 . S
H2574 N2568 0.984 . S
H2575 N2568 0.984 . S
H2576 N2564 0.984 . S
H2577 N2564 0.985 . S
C2578 C2579 1.363 . S
C2578 C2584 1.366 1_565 S
C2578 N2586 1.356 . S
C2579 C2578 1.363 . S
C2579 C2585 1.363 . S
C2580 C2581 1.363 1_565 S
C2580 C2585 1.379 . S
C2580 N2587 1.365 . S
C2581 C2580 1.363 1_545 S
C2581 C2584 1.369 . S
N2582 C2584 1.368 . S
N2582 H2594 0.984 . S
N2582 H2595 0.985 . S
N2583 C2585 1.356 . S
N2583 H2588 0.984 . S
N2583 H2589 0.985 . S
C2584 C2578 1.366 1_545 S
C2584 C2581 1.369 . S
C2584 N2582 1.368 . S
C2585 C2579 1.363 . S
C2585 C2580 1.379 . S
C2585 N2583 1.356 . S
N2586 C2578 1.356 . S
N2586 H2592 0.984 . S
N2586 H2593 0.984 . S
N2587 C2580 1.365 . S
N2587 H2590 0.973 1_565 S
N2587 H2591 0.989 . S
H2588 N2583 0.984 . S
H2589 N2583 0.985 . S
H2590 N2587 0.973 1_545 S
H2591 N2587 0.989 . S
H2592 N2586 0.984 . S
H2593 N2586 0.984 . S
H2594 N2582 0.984 . S
H2595 N2582 0.985 . S
C2596 C2597 1.363 . S
C2596 C2602 1.379 . S
C2596 N2604 1.356 . S
C2597 C2596 1.363 . S
C2597 C2603 1.363 . S
C2598 C2599 1.363 . S
C2598 C2603 1.379 . S
C2598 N2605 1.356 . S
C2599 C2598 1.363 . S
C2599 C2602 1.363 . S
N2600 C2602 1.356 . S
N2600 H2612 0.984 . S
N2600 H2613 0.985 . S
N2601 C2603 1.356 . S
N2601 H2606 0.984 . S
N2601 H2607 0.985 . S
C2602 C2596 1.379 . S
C2602 C2599 1.363 . S
C2602 N2600 1.356 . S
C2603 C2597 1.363 . S
C2603 C2598 1.379 . S
C2603 N2601 1.356 . S
N2604 C2596 1.356 . S
N2604 H2610 0.984 . S
N2604 H2611 0.984 . S
N2605 C2598 1.356 . S
N2605 H2608 0.984 . S
N2605 H2609 0.985 . S
H2606 N2601 0.984 . S
H2607 N2601 0.985 . S
H2608 N2605 0.984 . S
H2609 N2605 0.985 . S
H2610 N2604 0.984 . S
H2611 N2604 0.984 . S
H2612 N2600 0.984 . S
H2613 N2600 0.985 . S
C2614 C2615 1.363 . S
C2614 C2620 1.379 . S
C2614 N2622 1.356 . S
C2615 C2614 1.363 . S
C2615 C2621 1.363 1_554 S
C2616 C2617 1.363 1_556 S
C2616 C2621 1.379 . S
C2616 N2623 1.356 . S
C2617 C2616 1.363 1_554 S
C2617 C2620 1.363 . S
N2618 C2620 1.356 . S
N2618 H2630 0.984 . S
N2618 H2631 0.985 . S
N2619 C2621 1.356 . S
N2619 H2624 0.984 . S
N2619 H2625 0.985 . S
C2620 C2614 1.379 . S
C2620 C2617 1.363 . S
C2620 N2618 1.356 . S
C2621 C2615 1.363 1_556 S
C2621 C2616 1.379 . S
C2621 N2619 1.356 . S
N2622 C2614 1.356 . S
N2622 H2628 0.984 . S
N2622 H2629 0.984 . S
N2623 C2616 1.356 . S
N2623 H2626 0.984 . S
N2623 H2627 0.985 . S
H2624 N2619 0.984 . S
H2625 N2619 0.985 . S
H2626 N2623 0.984 . S
H2627 N2623 0.985 . S
H2628 N2622 0.984 . S
H2629 N2622 0.984 . S
H2630 N2618 0.984 . S
H2631 N2618 0.985 . S
C2632 C2633 1.363 . S
C2632 C2638 1.379 . S
C2632 N2640 1.356 . S
C2633 C2632 1.363 . S
C2633 C2639 1.363 . S
C2634 C2635 1.363 . S
C2634 C2639 1.379 . S
C2634 N2641 1.356 . S
C2635 C2634 1.363 . S
C2635 C2638 1.363 . S
N2636 C2638 1.356 . S
N2636 H2648 0.984 . S
N2636 H2649 0.985 . S
N2637 C2639 1.356 . S
N2637 H2642 0.984 . S
N2637 H2643 0.985 . S
C2638 C2632 1.379 . S
C2638 C2635 1.363 . S
C2638 N2636 1.356 . S
C2639 C2633 1.363 . S
C2639 C2634 1.379 . S
C2639 N2637 1.356 . S
N2640 C2632 1.356 . S
N2640 H2646 0.984 . S
N2640 H2647 0.984 . S
N2641 C2634 1.356 . S
N2641 H2644 0.984 . S
N2641 H2645 0.985 . S
H2642 N2637 0.984 . S
H2643 N2637 0.985 . S
H2644 N2641 0.984 . S
H2645 N2641 0.985 . S
H2646 N2640 0.984 . S
H2647 N2640 0.984 . S
H2648 N2636 0.984 . S
H2649 N2636 0.985 . S
C2650 C2651 1.363 . S
C2650 C2656 1.379 . S
C2650 N2658 1.356 . S
C2651 C2650 1.363 . S
C2651 C2657 1.363 . S
C2652 C2653 1.363 . S
C2652 C2657 1.379 . S
C2652 N2659 1.356 . S
C2653 C2652 1.363 . S
C2653 C2656 1.363 . S
N2654 C2656 1.356 . S
N2654 H2666 0.984 . S
N2654 H2667 0.985 . S
N2655 C2657 1.356 . S
N2655 H2660 0.984 . S
N2655 H2661 0.985 . S
C2656 C2650 1.379 . S
C2656 C2653 1.363 . S
C2656 N2654 1.356 . S
C2657 C2651 1.363 . S
C2657 C2652 1.379 . S
C2657 N2655 1.356 . S
N2658 C2650 1.356 . S
N2658 H2664 0.984 . S
N2658 H2665 0.984 . S
N2659 C2652 1.356 . S
N2659 H2662 0.984 . S
N2659 H2663 0.985 . S
H2660 N2655 0.984 . S
H2661 N2655 0.985 . S
H2662 N2659 0.984 . S
H2663 N2659 0.985 . S
H2664 N2658 0.984 . S
H2665 N2658 0.984 . S
H2666 N2654 0.984 . S
H2667 N2654 0.985 . S
C2668 C2669 1.363 . S
C2668 C2674 1.379 . S
C2668 N2676 1.356 . S
C2669 C2668 1.363 . S
C2669 C2675 1.363 . S
C2670 C2671 1.363 . S
C2670 C2675 1.379 . S
C2670 N2677 1.356 . S
C2671 C2670 1.363 . S
C2671 C2674 1.363 . S
N2672 C2674 1.356 . S
N2672 H2684 0.984 . S
N2672 H2685 0.985 . S
N2673 C2675 1.356 . S
N2673 H2678 0.984 . S
N2673 H2679 0.985 . S
C2674 C2668 1.379 . S
C2674 C2671 1.363 . S
C2674 N2672 1.356 . S
C2675 C2669 1.363 . S
C2675 C2670 1.379 . S
C2675 N2673 1.356 . S
N2676 C2668 1.356 . S
N2676 H2682 0.984 . S
N2676 H2683 0.984 . S
N2677 C2670 1.356 . S
N2677 H2680 0.984 . S
N2677 H2681 0.985 . S
H2678 N2673 0.984 . S
H2679 N2673 0.985 . S
H2680 N2677 0.984 . S
H2681 N2677 0.985 . S
H2682 N2676 0.984 . S
H2683 N2676 0.984 . S
H2684 N2672 0.984 . S
H2685 N2672 0.985 . S
C2686 C2687 1.363 . S
C2686 C2692 1.379 . S
C2686 N2694 1.356 . S
C2687 C2686 1.363 . S
C2687 C2693 1.363 . S
C2688 C2689 1.363 . S
C2688 C2693 1.379 . S
C2688 N2695 1.356 . S
C2689 C2688 1.363 . S
C2689 C2692 1.363 . S
N2690 C2692 1.356 . S
N2690 H2702 0.984 . S
N2690 H2703 0.985 . S
N2691 C2693 1.356 . S
N2691 H2696 0.984 . S
N2691 H2697 0.985 . S
C2692 C2686 1.379 . S
C2692 C2689 1.363 . S
C2692 N2690 1.356 . S
C2693 C2687 1.363 . S
C2693 C2688 1.379 . S
C2693 N2691 1.356 . S
N2694 C2686 1.356 . S
N2694 H2700 0.984 . S
N2694 H2701 0.984 . S
N2695 C2688 1.356 . S
N2695 H2698 0.984 . S
N2695 H2699 0.985 . S
H2696 N2691 0.984 . S
H2697 N2691 0.985 . S
H2698 N2695 0.984 . S
H2699 N2695 0.985 . S
H2700 N2694 0.984 . S
H2701 N2694 0.984 . S
H2702 N2690 0.984 . S
H2703 N2690 0.985 . S
C977 C106 2.370 1_455 S
C979 C358 2.347 . S
C995 C65 1.460 . S
C997 C378 1.402 . S
C1013 C79 1.115 . S
C1015 C425 1.098 . S
C1033 C482 1.074 . S
C1031 C90 1.082 . S
C1049 C21 2.408 . S
C1051 C499 2.426 1_565 S
C1069 C558 1.939 . S
C1067 C35 1.889 . S
C1087 C591 2.809 . S
C1085 C50 2.807 . S
C1103 C6 2.530 . S
C1105 C638 2.570 . S
C1123 C351 2.363 . S
C1121 C232 2.252 1_545 S
C1139 C245 1.677 . S
C1141 C379 1.700 . S
C1159 C418 0.657 . S
C1157 C274 0.661 . S
C1177 C478 2.347 . S
C1175 C175 2.245 . S
C1193 C231 0.719 . S
C1195 C505 0.717 . S
C1213 C551 2.243 . S
C1211 C246 2.216 . S
C1231 C602 0.800 . S
C1229 C273 0.820 . S
C1249 C631 2.614 . S
C1247 C176 2.617 . S
C1267 C362 2.355 . S
C1265 C160 2.287 . S
C1283 C289 2.213 . S
C1285 C658 2.167 . S
C1303 C722 1.642 . S
C1301 C328 1.598 . S
C1321 C758 1.728 . S
C1319 C317 1.741 . S
C1337 C118 1.810 . S
C1339 C642 2.052 . S
C1355 C132 2.616 . S
C1357 C419 2.675 . S
C1373 C331 1.658 . S
C1375 C791 1.674 . S
C1393 C825 0.713 . S
C1391 C303 0.694 . S
C1411 C339 2.018 1_565 S
C1409 C63 1.943 . S
C1429 C831 2.064 . S
C1427 C107 2.011 . S
C1445 C92 0.971 . S
C1447 C442 0.988 . S
C1463 C78 1.316 . S
C1465 C785 1.271 . S
C1483 C518 2.972 . S
C1481 C8 2.948 . S
C1499 C51 2.041 . S
C1501 C699 2.024 . S
C1519 C578 3.060 1_566 S
C1517 C37 3.011 . S
C1537 C859 2.446 . S
C1535 C20 2.436 . S
C1555 C338 1.812 . S
C1553 C147 1.645 . S
C1573 C838 1.764 . S
C1571 C316 1.753 . S
C1589 C119 0.614 . S
C1591 C431 0.629 . S
C1607 C288 2.385 . S
C1609 C779 2.391 . S
C1625 C148 0.804 . S
C1627 C522 0.802 . S
C1645 C698 2.217 . S
C1643 C315 2.211 . S
C1661 C120 1.014 . S
C1663 C585 0.964 . S
C1679 C287 2.318 . S
C1681 C858 2.403 . S
C1697 C188 1.879 . S
C1699 C345 1.884 . S
C1715 C177 2.348 . S
C1717 C671 2.350 . S
C1733 C258 1.624 . S
C1735 C545 1.611 . S
C1751 C247 1.890 . S
C1753 C739 1.864 . S
C1771 C865 1.889 . S
C1769 C272 1.759 . S
C1787 C216 2.358 . S
C1789 C438 2.416 . S
C1807 C458 1.936 . S
C1805 C261 1.779 . S
C1825 C402 0.687 . S
C1823 C205 0.687 . S
C1841 C76 1.996 . S
C1843 C918 2.134 . S
C1861 C818 1.472 . S
C1859 C93 1.549 . S
C1877 C105 0.747 . S
C1879 C945 0.748 . S
C1895 C62 1.086 . S
C1897 C802 1.082 . S
C1913 C49 2.367 . S
C1915 C659 2.380 . S
C1933 C718 2.360 . S
C1931 C9 2.356 . S
C1951 C751 2.739 . S
C1949 C22 2.739 . S
C1969 C878 2.828 . S
C1967 C36 2.880 . S
C1987 C911 2.175 . S
C1985 C260 2.095 . S
C2003 C189 1.591 . S
C2005 C819 1.614 . S
C2023 C938 0.685 . S
C2021 C204 0.649 . S
C2041 C798 2.059 . S
C2039 C217 1.993 . S
C2059 C665 0.726 . S
C2057 C259 0.728 . S
C2075 C190 2.344 . S
C2077 C711 2.376 . S
C2095 C762 0.824 . S
C2093 C203 0.846 . S
C2111 C218 2.610 . S
C2113 C871 2.606 . S
C2131 C922 2.373 . S
C2129 C314 2.296 . S
C2147 C135 2.313 . S
C2149 C498 2.275 . S
C2167 C562 1.576 . S
C2165 C146 1.533 . S
C2185 C598 1.763 1_565 S
C2183 C163 1.764 . S
C2203 C882 1.782 . S
C2201 C300 1.590 . S
C2219 C286 2.539 . S
C2221 C939 2.611 1_655 S
C2239 C471 1.618 . S
C2237 C149 1.609 . S
C2257 C385 0.891 . S
C2255 C121 0.919 . S
C2273 C91 1.953 . S
C2275 C899 2.038 . S
C2293 C391 1.496 . S
C2291 C77 1.383 . S
C2309 C64 0.997 . S
C2311 C962 1.015 . S
C2327 C104 1.051 . S
C2329 C465 1.042 . S
C2345 C34 2.584 . S
C2347 C678 2.612 1_556 S
C2365 C539 2.007 . S
C2363 C23 2.017 . S
C2381 C7 2.610 . S
C2383 C738 2.686 . S
C2399 C48 2.355 . S
C2401 C619 2.364 . S
C2419 C898 1.794 . S
C2417 C329 1.624 . S
C2435 C162 1.730 . S
C2437 C398 1.762 . S
C2455 C951 0.632 1_556 S
C2453 C301 0.627 . S
C2471 C134 2.340 . S
C2473 C459 2.347 . S
C2489 C330 0.817 . S
C2491 C682 0.813 . S
C2509 C538 2.222 . S
C2507 C161 2.224 . S
C2525 C302 0.975 . S
C2527 C745 0.937 . S
C2545 C618 2.354 . S
C2543 C133 2.275 . S
C2563 C905 2.036 . S
C2561 C244 2.021 . S
C2581 C511 2.396 1_655 S
C2579 C219 2.397 . S
C2597 C230 1.559 . S
C2599 C705 1.533 . S
C2617 C579 1.820 . S
C2615 C191 1.855 1_554 S
C2633 C202 1.812 . S
C2635 C625 1.934 . S
C2651 C174 2.663 . S
C2653 C958 2.733 . S
C2671 C778 1.947 . S
C2669 C233 1.775 . S
C2689 C842 0.817 . S
C2687 C275 0.815 . S
