# Generated by pormake.
# Topology pth, (4,4)-cn, num edge types: 1
# Building blocks:
#     Node 0, Type 0, BuildingBlock: GALJAG_clean_sbu_0, # of connection points: 4
#     Node 1, Type 0, BuildingBlock: GALJAG_clean_sbu_0, # of connection points: 4
#     Node 2, Type 0, BuildingBlock: GALJAG_clean_sbu_0, # of connection points: 4
#     Node 3, Type 1, BuildingBlock: KOZSID_clean_sbu_0, # of connection points: 4
#     Node 4, Type 1, BuildingBlock: KOZSID_clean_sbu_0, # of connection points: 4
#     Node 5, Type 1, BuildingBlock: KOZSID_clean_sbu_0, # of connection points: 4
#     Edge 6, Type (0, 1), BuildingBlock: KIFKEQ_clean_linker_1, # of connection points: 2
#     Edge 7, Type (0, 1), BuildingBlock: KIFKEQ_clean_linker_1, # of connection points: 2
#     Edge 8, Type (0, 1), BuildingBlock: KIFKEQ_clean_linker_1, # of connection points: 2
#     Edge 9, Type (0, 1), BuildingBlock: KIFKEQ_clean_linker_1, # of connection points: 2
#     Edge 10, Type (0, 1), BuildingBlock: KIFKEQ_clean_linker_1, # of connection points: 2
#     Edge 11, Type (0, 1), BuildingBlock: KIFKEQ_clean_linker_1, # of connection points: 2
#     Edge 12, Type (0, 1), BuildingBlock: KIFKEQ_clean_linker_1, # of connection points: 2
#     Edge 13, Type (0, 1), BuildingBlock: KIFKEQ_clean_linker_1, # of connection points: 2
#     Edge 14, Type (0, 1), BuildingBlock: KIFKEQ_clean_linker_1, # of connection points: 2
#     Edge 15, Type (0, 1), BuildingBlock: KIFKEQ_clean_linker_1, # of connection points: 2
#     Edge 16, Type (0, 1), BuildingBlock: KIFKEQ_clean_linker_1, # of connection points: 2
#     Edge 17, Type (0, 1), BuildingBlock: KIFKEQ_clean_linker_1, # of connection points: 2
# Relax obj value: 0.002
# Max RMSD: 0.043
# Mean RMSD: 0.025
data_MOF--net-pth--node1-GALJAG_clean_sbu_0--node2-KOZSID_clean_sbu_0--edge1-KIFKEQ_clean_linker_1
_symmetry_space_group_name_H-M    P1
_symmetry_Int_Tables_number       1
_symmetry_cell_setting            triclinic
loop_
_symmetry_equiv_pos_as_xyz
'x, y, z'
_cell_length_a     27.474916
_cell_length_b     27.463931
_cell_length_c     59.651723
_cell_angle_alpha  87.648777
_cell_angle_beta   87.58114
_cell_angle_gamma 119.98092
loop_
_atom_site_label
_atom_site_type_symbol
_atom_site_fract_x
_atom_site_fract_y
_atom_site_fract_z
_atom_type_partial_charge
In0 In 0.06448 0.04867 0.04085 0.0
O1 O 0.01285 0.07893 0.06141 0.0
O2 O 0.10199 0.13027 0.05852 0.0
C3 C 0.98678 0.97525 0.01441 0.0
C4 C 0.14784 0.12213 0.0106 0.0
C5 C 0.0727 0.97741 0.07126 0.0
O6 O 0.98087 0.0126 0.02377 0.0
O7 O 0.03186 0.9758 0.01811 0.0
O8 O 0.10862 0.00301 0.05487 0.0
O9 O 0.03381 0.9891 0.07267 0.0
C10 C 0.05563 0.124 0.06615 0.0
O11 O 0.15631 0.09642 0.02667 0.0
O12 O 0.09709 0.10953 0.00945 0.0
In13 In 0.04338 0.07056 0.37461 0.0
O14 O 0.08534 0.16291 0.36086 0.0
O15 O 0.01402 0.10252 0.34516 0.0
C16 C 0.12414 0.07654 0.40076 0.0
C17 C 0.96092 0.06396 0.40319 0.0
C18 C 0.03684 0.98833 0.34915 0.0
O19 O 0.13533 0.10792 0.38299 0.0
O20 O 0.0723 0.04308 0.40559 0.0
O21 O 0.99797 0.97982 0.36363 0.0
O22 O 0.07791 0.03809 0.34734 0.0
C23 C 0.05108 0.15362 0.34593 0.0
O24 O 0.95212 0.02636 0.38979 0.0
O25 O 0.01128 0.10386 0.40246 0.0
In26 In 0.06317 0.0485 0.70817 0.0
O27 O 0.01429 0.95662 0.72245 0.0
O28 O 0.99441 0.01487 0.73675 0.0
C29 C 0.14032 0.04205 0.68051 0.0
C30 C 0.98932 0.05631 0.68176 0.0
C31 C 0.13491 0.12823 0.73433 0.0
O32 O 0.11412 0.00683 0.69706 0.0
O33 O 0.12677 0.07934 0.67777 0.0
O34 O 0.1185 0.14034 0.71661 0.0
O35 O 0.11424 0.07617 0.73909 0.0
C36 C 0.98386 0.96453 0.73664 0.0
O37 O 0.01798 0.09383 0.69483 0.0
O38 O 0.99885 0.01591 0.68174 0.0
C39 C 0.10936 0.65898 0.17295 0.0
C40 C 0.16235 0.69898 0.16346 0.0
C41 C 0.20032 0.68943 0.17393 0.0
C42 C 0.16858 0.6444 0.18915 0.0
N43 N 0.11259 0.62431 0.18892 0.0
Co44 Co 0.05156 0.55917 0.20829 0.0
N45 N 0.10782 0.55274 0.22672 0.0
C46 C 0.1644 0.58688 0.22459 0.0
C47 C 0.19228 0.57237 0.23956 0.0
C48 C 0.15109 0.5259 0.2519 0.0
C49 C 0.10021 0.51462 0.24367 0.0
N50 N 0.99065 0.49171 0.22669 0.0
C51 C 0.99432 0.45718 0.24261 0.0
C52 C 0.94164 0.41227 0.24995 0.0
C53 C 0.9034 0.41797 0.23792 0.0
C54 C 0.93478 0.46581 0.22398 0.0
N55 N 0.99531 0.56858 0.19102 0.0
C56 C 0.93857 0.53659 0.1939 0.0
C57 C 0.91078 0.55552 0.18079 0.0
C58 C 0.95227 0.60325 0.16918 0.0
C59 C 1.00312 0.61053 0.17588 0.0
N60 N 0.05388 0.50673 0.1866 0.0
C61 C 0.0534 0.42528 0.1587 0.0
C62 C 0.00836 0.43556 0.16 0.0
C63 C 0.00921 0.47555 0.17402 0.0
C64 C 0.09938 0.458 0.17122 0.0
C65 C 0.09921 0.49861 0.18454 0.0
N66 N 0.04895 0.61104 0.22986 0.0
C67 C 0.99558 0.63753 0.25474 0.0
C68 C 0.04393 0.68856 0.2582 0.0
C69 C 0.0951 0.69927 0.24758 0.0
C70 C 0.09671 0.66017 0.23374 0.0
C71 C 0.99897 0.59979 0.24062 0.0
H72 H 0.13697 0.67094 0.22606 0.0
H73 H 0.96046 0.56198 0.23845 0.0
H74 H 0.9728 0.47992 0.17438 0.0
H75 H 0.13623 0.52229 0.19319 0.0
C76 C 0.19021 0.6267 0.20636 0.0
C77 C 0.05766 0.65803 0.16748 0.0
C78 C 0.04655 0.46447 0.25097 0.0
C79 C 0.91297 0.48868 0.20883 0.0
H80 H 0.17277 0.73293 0.15091 0.0
H81 H 0.2458 0.71443 0.17163 0.0
H82 H 0.23734 0.59151 0.24061 0.0
H83 H 0.15808 0.50173 0.26483 0.0
H84 H 0.93197 0.37863 0.26258 0.0
H85 H 0.85813 0.39044 0.23914 0.0
H86 H 0.86574 0.53713 0.17995 0.0
H87 H 0.94589 0.62992 0.15722 0.0
H88 H 0.97225 0.41304 0.15024 0.0
H89 H 0.13539 0.45195 0.17122 0.0
H90 H 0.95507 0.62648 0.2629 0.0
H91 H 0.13379 0.73829 0.24946 0.0
C92 C 0.45374 1.0013 0.57694 0.0
C93 C 0.41182 0.94823 0.5856 0.0
C94 C 0.4195 0.91009 0.57435 0.0
C95 C 0.46535 0.94185 0.5595 0.0
N96 N 0.48798 0.99807 0.56074 0.0
Co97 Co 0.5536 0.05945 0.54157 0.0
N98 N 0.56171 0.00311 0.52371 0.0
C99 C 0.52916 0.9463 0.52626 0.0
C100 C 0.54606 0.91856 0.51218 0.0
C101 C 0.59268 0.96001 0.50005 0.0
C102 C 0.60143 0.01094 0.50742 0.0
N103 N 0.61952 0.12079 0.52253 0.0
C104 C 0.65411 0.1174 0.50653 0.0
C105 C 0.69616 0.17037 0.49788 0.0
C106 C 0.68861 0.20866 0.50911 0.0
C107 C 0.64248 0.17705 0.52387 0.0
N108 N 0.54517 0.11576 0.55933 0.0
C109 C 0.57743 0.17261 0.55672 0.0
C110 C 0.56024 0.20013 0.57083 0.0
C111 C 0.51369 0.15846 0.58297 0.0
C112 C 0.50511 0.10776 0.57548 0.0
N113 N 0.60653 0.05814 0.56305 0.0
C114 C 0.68745 0.05792 0.59078 0.0
C115 C 0.68834 0.10793 0.58442 0.0
C116 C 0.64814 0.1071 0.57064 0.0
C117 C 0.64404 0.00772 0.58353 0.0
C118 C 0.60416 0.00873 0.56997 0.0
N119 N 0.50082 0.06104 0.52009 0.0
C120 C 0.46597 0.11319 0.49911 0.0
C121 C 0.42137 0.06357 0.49206 0.0
C122 C 0.41827 0.01266 0.49894 0.0
C123 C 0.45781 0.01234 0.51291 0.0
C124 C 0.50506 0.111 0.51271 0.0
H125 H 0.45238 0.97213 0.51784 0.0
H126 H 0.53785 0.15041 0.51731 0.0
H127 H 0.65213 0.14686 0.56618 0.0
H128 H 0.57236 0.96911 0.56502 0.0
C129 C 0.48557 0.92016 0.54317 0.0
C130 C 0.45729 0.05331 0.58373 0.0
C131 C 0.64986 0.06528 0.49943 0.0
C132 C 0.62174 0.19887 0.54002 0.0
H133 H 0.37823 0.93804 0.59831 0.0
H134 H 0.39363 0.86462 0.57626 0.0
H135 H 0.52782 0.8735 0.51138 0.0
H136 H 0.61819 0.95325 0.48766 0.0
H137 H 0.72945 0.18024 0.48505 0.0
H138 H 0.71451 0.25411 0.50715 0.0
H139 H 0.57854 0.24515 0.57177 0.0
H140 H 0.48824 0.16465 0.59562 0.0
H141 H 0.71999 0.1479 0.59 0.0
H142 H 0.64135 0.9677 0.5878 0.0
H143 H 0.47036 0.15386 0.49464 0.0
H144 H 0.3855 0.97294 0.49362 0.0
C145 C 0.66472 0.59756 0.83937 0.0
C146 C 0.70842 0.58987 0.83133 0.0
C147 C 0.70184 0.54271 0.84274 0.0
C148 C 0.65493 0.52449 0.85712 0.0
N149 N 0.63049 0.55663 0.85539 0.0
Co150 Co 0.5636 0.54728 0.87424 0.0
N151 N 0.55663 0.48035 0.89219 0.0
C152 C 0.58991 0.45736 0.88971 0.0
C153 C 0.57317 0.40997 0.90364 0.0
C154 C 0.52574 0.4015 0.9155 0.0
C155 C 0.51641 0.44457 0.90813 0.0
N156 N 0.49702 0.5382 0.89323 0.0
C157 C 0.46264 0.49702 0.90912 0.0
C158 C 0.42018 0.5057 0.91784 0.0
C159 C 0.4272 0.55345 0.90672 0.0
C160 C 0.47348 0.57124 0.89197 0.0
N161 N 0.57023 0.61386 0.85618 0.0
C162 C 0.53622 0.63614 0.85833 0.0
C163 C 0.55212 0.68259 0.84392 0.0
C164 C 0.59957 0.69101 0.83204 0.0
C165 C 0.61003 0.64917 0.84 0.0
N166 N 0.51165 0.49574 0.85279 0.0
C167 C 0.43242 0.41721 0.82543 0.0
C168 C 0.42491 0.45954 0.8341 0.0
C169 C 0.46503 0.49845 0.84735 0.0
C170 C 0.4811 0.41575 0.83002 0.0
C171 C 0.51971 0.45489 0.8438 0.0
N172 N 0.61545 0.59899 0.8957 0.0
C173 C 0.64781 0.68223 0.91656 0.0
C174 C 0.69412 0.67853 0.92314 0.0
C175 C 0.69926 0.63306 0.91631 0.0
C176 C 0.65966 0.59399 0.90281 0.0
C177 C 0.60949 0.64252 0.903 0.0
H178 H 0.66623 0.56065 0.89805 0.0
H179 H 0.57578 0.64849 0.89844 0.0
H180 H 0.45687 0.52987 0.85322 0.0
H181 H 0.55521 0.45068 0.84723 0.0
C182 C 0.63457 0.47921 0.87324 0.0
C183 C 0.65939 0.64602 0.83222 0.0
C184 C 0.46702 0.44776 0.91579 0.0
C185 C 0.49259 0.61545 0.87532 0.0
H186 H 0.74249 0.61635 0.81892 0.0
H187 H 0.72901 0.52481 0.84122 0.0
H188 H 0.59213 0.38367 0.90454 0.0
H189 H 0.50011 0.36664 0.92773 0.0
H190 H 0.38672 0.47936 0.93052 0.0
H191 H 0.40052 0.57182 0.90858 0.0
H192 H 0.5326 0.70834 0.84269 0.0
H193 H 0.62444 0.72486 0.8193 0.0
H194 H 0.38817 0.46273 0.83062 0.0
H195 H 0.48853 0.38354 0.82358 0.0
H196 H 0.64091 0.71571 0.92182 0.0
H197 H 0.73443 0.62821 0.92086 0.0
H198 H 0.1285 0.2364 0.06216 0.0
H199 H 0.97588 0.10913 0.09905 0.0
H200 H 0.12559 0.30882 0.08312 0.0
H201 H 0.97491 0.18086 0.12161 0.0
H202 H 0.96144 0.32565 0.14803 0.0
H203 H 0.95997 0.25503 0.12466 0.0
H204 H 0.14202 0.34944 0.11617 0.0
H205 H 0.14303 0.42305 0.13712 0.0
C206 C 0.09462 0.22395 0.07505 0.0
C207 C 0.05252 0.16724 0.07905 0.0
C208 C 0.09315 0.26548 0.08731 0.0
C209 C 0.05045 0.25127 0.10449 0.0
C210 C 0.00807 0.19411 0.10837 0.0
C211 C 0.00871 0.1527 0.09558 0.0
C212 C 1.00121 0.33229 0.14074 0.0
C213 C 0.05237 0.38085 0.1446 0.0
C214 C 1.00042 0.29081 0.12761 0.0
C215 C 0.05084 0.29581 0.11834 0.0
C216 C 0.10198 0.34404 0.12246 0.0
C217 C 0.10268 0.38615 0.13505 0.0
H218 H 0.97142 0.13949 0.43362 0.0
H219 H 0.84812 0.98668 0.40592 0.0
H220 H 0.89677 0.14092 0.45667 0.0
H221 H 0.77333 0.98763 0.42926 0.0
H222 H 0.65015 0.04356 0.45526 0.0
H223 H 0.72564 0.04273 0.43215 0.0
H224 H 0.82929 0.08978 0.48878 0.0
H225 H 0.75371 0.091 0.51163 0.0
C226 C 0.92837 0.10594 0.43258 0.0
C227 C 0.91565 0.06296 0.41795 0.0
C228 C 0.88559 0.10665 0.44587 0.0
C229 C 0.82902 0.06448 0.44478 0.0
C230 C 0.81638 0.02118 0.43027 0.0
C231 C 0.85924 0.02038 0.41703 0.0
C232 C 0.68929 0.05389 0.4626 0.0
C233 C 0.69648 0.06722 0.4851 0.0
C234 C 0.73228 0.05304 0.4495 0.0
C235 C 0.78343 0.06589 0.45865 0.0
C236 C 0.79068 0.08016 0.48115 0.0
C237 C 0.74756 0.08077 0.49425 0.0
H238 H 0.91401 0.9724 0.76833 0.0
H239 H 0.949 0.85206 0.73795 0.0
H240 H 0.835 0.89597 0.79126 0.0
H241 H 0.87041 0.77554 0.76117 0.0
H242 H 0.68824 0.6493 0.78768 0.0
H243 H 0.76738 0.72668 0.76474 0.0
H244 H 0.81439 0.82677 0.82247 0.0
H245 H 0.73474 0.74932 0.84514 0.0
C246 C 0.90508 0.92962 0.76668 0.0
C247 C 0.93774 0.91825 0.75132 0.0
C248 C 0.85992 0.88582 0.77989 0.0
C249 C 0.84622 0.82957 0.77802 0.0
C250 C 0.8793 0.8183 0.7628 0.0
C251 C 0.9246 0.86217 0.74962 0.0
C252 C 0.71558 0.68806 0.7953 0.0
C253 C 0.70591 0.69372 0.81806 0.0
C254 C 0.76103 0.73215 0.78229 0.0
C255 C 0.79746 0.78285 0.7918 0.0
C256 C 0.78692 0.78855 0.81457 0.0
C257 C 0.74157 0.74435 0.82757 0.0
H258 H 0.14863 0.94064 0.07011 0.0
H259 H 0.99808 0.91558 0.10683 0.0
H260 H 0.14616 0.86471 0.09384 0.0
H261 H 0.99496 0.83907 0.13028 0.0
H262 H 0.0373 0.73926 0.18172 0.0
H263 H 0.0433 0.81912 0.15928 0.0
H264 H 0.08931 0.76249 0.0997 0.0
H265 H 0.08394 0.68331 0.12238 0.0
C266 C 0.11519 0.91911 0.08333 0.0
C267 C 0.07357 0.93411 0.0866 0.0
C268 C 0.11348 0.87528 0.09681 0.0
C269 C 0.07017 0.84552 0.1139 0.0
C270 C 0.02924 0.86142 0.11745 0.0
C271 C 0.0309 0.90517 0.10394 0.0
C272 C 0.04866 0.74422 0.16381 0.0
C273 C 0.0605 0.70578 0.15368 0.0
C274 C 0.0519 0.78965 0.15095 0.0
C275 C 0.06703 0.7974 0.12768 0.0
C276 C 0.07849 0.75837 0.11761 0.0
C277 C 0.0751 0.71292 0.13049 0.0
H278 H 0.11184 0.03233 0.44378 0.0
H279 H 0.23565 0.12088 0.38815 0.0
H280 H 0.18366 0.03046 0.46576 0.0
H281 H 0.30704 0.11629 0.40948 0.0
H282 H 0.43585 0.14514 0.4597 0.0
H283 H 0.36478 0.15054 0.43882 0.0
H284 H 0.23808 0.98848 0.4701 0.0
H285 H 0.30822 0.9856 0.49256 0.0
C286 C 0.15447 0.05114 0.43622 0.0
C287 C 0.1682 0.07691 0.41429 0.0
C288 C 0.19568 0.04961 0.44874 0.0
C289 C 0.2515 0.07289 0.43947 0.0
C290 C 0.265 0.09878 0.41745 0.0
C291 C 0.22396 0.1012 0.40511 0.0
C292 C 0.39272 0.11101 0.46248 0.0
C293 C 0.37814 0.0651 0.47808 0.0
C294 C 0.35185 0.11366 0.45013 0.0
C295 C 0.29525 0.06999 0.45264 0.0
C296 C 0.28087 0.02355 0.46791 0.0
C297 C 0.32156 0.02135 0.48056 0.0
H298 H 0.2095 0.23874 0.72152 0.0
H299 H 0.15572 0.11468 0.77773 0.0
H300 H 0.2825 0.30864 0.74353 0.0
H301 H 0.2278 0.18493 0.79984 0.0
H302 H 0.32024 0.35193 0.83715 0.0
H303 H 0.24751 0.28194 0.81514 0.0
H304 H 0.3735 0.31671 0.76155 0.0
H305 H 0.44658 0.38611 0.7838 0.0
C306 C 0.21296 0.22661 0.73863 0.0
C307 C 0.17693 0.17135 0.74795 0.0
C308 C 0.2549 0.26643 0.75113 0.0
C309 C 0.26074 0.25203 0.77333 0.0
C310 C 0.22401 0.19711 0.78279 0.0
C311 C 0.18289 0.15698 0.77013 0.0
C312 C 0.3323 0.3445 0.82067 0.0
C313 C 0.3889 0.37432 0.81212 0.0
C314 C 0.29083 0.3044 0.80815 0.0
C315 C 0.30497 0.29416 0.78665 0.0
C316 C 0.36153 0.32416 0.77803 0.0
C317 C 0.40326 0.36348 0.79077 0.0
H318 H 0.911 0.97194 0.65874 0.0
H319 H 0.97001 0.14407 0.67424 0.0
H320 H 0.83795 0.97294 0.63714 0.0
H321 H 0.8969 0.14511 0.65243 0.0
H322 H 0.79984 0.13815 0.58914 0.0
H323 H 0.87246 0.13908 0.61147 0.0
H324 H 0.74986 0.97916 0.64528 0.0
H325 H 0.67644 0.97885 0.62358 0.0
C326 C 0.90849 0.01008 0.65746 0.0
C327 C 0.94627 0.05797 0.66817 0.0
C328 C 0.86642 0.01048 0.64522 0.0
C329 C 0.86161 0.05901 0.64317 0.0
C330 C 0.89984 0.10721 0.65363 0.0
C331 C 0.94154 0.10657 0.66615 0.0
C332 C 0.78789 0.10356 0.60159 0.0
C333 C 0.73191 0.05845 0.60452 0.0
C334 C 0.82972 0.10408 0.61432 0.0
C335 C 0.81686 0.05919 0.63009 0.0
C336 C 0.76112 0.01405 0.63305 0.0
C337 C 0.7191 0.01381 0.62051 0.0
H338 H 0.88795 0.96708 1.0023 0.0
H339 H 0.98882 0.88746 0.99569 0.0
H340 H 0.81665 0.89523 0.98045 0.0
H341 H 0.91805 0.81618 0.97379 0.0
H342 H 0.75056 0.664 0.95739 0.0
H343 H 0.82087 0.73599 0.97926 0.0
H344 H 0.80462 0.86422 0.94166 0.0
H345 H 0.73505 0.79257 0.91954 0.0
C346 C 0.89498 0.9344 0.99611 0.0
C347 C 0.94398 0.93294 1.00071 0.0
C348 C 0.85429 0.89338 0.98353 0.0
C349 C 0.86159 0.84985 0.97544 0.0
C350 C 0.91075 0.84864 0.98002 0.0
C351 C 0.95149 0.88976 0.99245 0.0
C352 C 0.76232 0.70757 0.95361 0.0
C353 C 0.73691 0.72229 0.93668 0.0
C354 C 0.80258 0.74885 0.96619 0.0
C355 C 0.8183 0.80586 0.96223 0.0
C356 C 0.79282 0.8206 0.94538 0.0
C357 C 0.75282 0.77941 0.93271 0.0
H358 H 0.12198 0.99516 0.32169 0.0
H359 H 0.9497 0.88037 0.34656 0.0
H360 H 0.12221 0.92145 0.30035 0.0
H361 H 0.94996 0.80631 0.32507 0.0
H362 H 0.95985 0.71499 0.26202 0.0
H363 H 0.95631 0.78551 0.28449 0.0
H364 H 0.11817 0.82936 0.3086 0.0
H365 H 0.12129 0.75791 0.28668 0.0
C366 C 0.08407 0.95417 0.32256 0.0
C367 C 0.0358 0.94355 0.33582 0.0
C368 C 0.08436 0.91184 0.31044 0.0
C369 C 0.03621 0.85799 0.31111 0.0
C370 C 0.98759 0.84751 0.32413 0.0
C371 C 0.9875 0.8898 0.33648 0.0
C372 C 0.99433 0.73891 0.27238 0.0
C373 C 0.04096 0.73064 0.27242 0.0
C374 C 0.99229 0.77948 0.28522 0.0
C375 C 0.03707 0.81317 0.29823 0.0
C376 C 0.0834 0.80462 0.29847 0.0
C377 C 0.08522 0.76374 0.28582 0.0
H378 H 0.17839 0.96699 0.68295 0.0
H379 H 0.20355 0.11631 0.64519 0.0
H380 H 0.25414 0.96842 0.65936 0.0
H381 H 0.27982 0.11858 0.62201 0.0
H382 H 0.37611 0.07433 0.57027 0.0
H383 H 0.29758 0.06927 0.59329 0.0
H384 H 0.35581 0.02284 0.65224 0.0
H385 H 0.43355 0.02693 0.62889 0.0
C386 C 0.20007 1.00006 0.66961 0.0
C387 C 0.18493 0.04144 0.6659 0.0
C388 C 0.24374 1.00115 0.65619 0.0
C389 C 0.27319 0.04367 0.63877 0.0
C390 C 0.2576 0.08476 0.63503 0.0
C391 C 0.21401 0.08362 0.64841 0.0
C392 C 0.37179 0.06309 0.58817 0.0
C393 C 0.41034 0.05091 0.59794 0.0
C394 C 0.32713 0.0604 0.60138 0.0
C395 C 0.32029 0.04562 0.62465 0.0
C396 C 0.35927 0.03354 0.63435 0.0
C397 C 0.40393 0.03623 0.6211 0.0
H398 H 0.14022 0.18745 0.97673 0.0
H399 H 0.26032 0.15816 0.0104 0.0
H400 H 0.21708 0.26576 0.95369 0.0
H401 H 0.33723 0.23571 0.98701 0.0
H402 H 0.46225 0.41781 0.96027 0.0
H403 H 0.38477 0.33749 0.98262 0.0
H404 H 0.28882 0.28871 0.92379 0.0
H405 H 0.36622 0.36987 0.90176 0.0
C406 C 0.18303 0.19731 0.97901 0.0
C407 C 0.1942 0.16665 0.9954 0.0
C408 C 0.22713 0.24211 0.96574 0.0
C409 C 0.28346 0.2573 0.96854 0.0
C410 C 0.29445 0.2258 0.98465 0.0
C411 C 0.25034 0.18103 0.99793 0.0
C412 C 0.42441 0.38973 0.95227 0.0
C413 C 0.4198 0.39949 0.92942 0.0
C414 C 0.38024 0.34359 0.96495 0.0
C415 C 0.33056 0.30637 0.95499 0.0
C416 C 0.32613 0.31674 0.93207 0.0
C417 C 0.37035 0.36292 0.91942 0.0
H418 H 0.98078 0.14263 0.31311 0.0
H419 H 0.12339 0.26722 0.34578 0.0
H420 H 0.97899 0.21737 0.29029 0.0
H421 H 0.12225 0.34212 0.32266 0.0
H422 H 0.06217 0.46104 0.2957 0.0
H423 H 0.06406 0.38567 0.31845 0.0
H424 H 0.03239 0.28912 0.25991 0.0
H425 H 0.02988 0.36444 0.23745 0.0
C426 C 0.01208 0.18601 0.31527 0.0
C427 C 0.05223 0.19904 0.33125 0.0
C428 C 0.01119 0.22886 0.30213 0.0
C429 C 0.05038 0.28579 0.30467 0.0
C430 C 0.09096 0.29875 0.32049 0.0
C431 C 0.0919 0.25584 0.33362 0.0
C432 C 0.05547 0.42347 0.28787 0.0
C433 C 0.04591 0.41812 0.26497 0.0
C434 C 0.05694 0.38057 0.30076 0.0
C435 C 0.04861 0.3314 0.29098 0.0
C436 C 0.03839 0.32609 0.26803 0.0
C437 C 0.03709 0.36909 0.25516 0.0
loop_
_geom_bond_atom_site_label_1
_geom_bond_atom_site_label_2
_geom_bond_distance
_geom_bond_site_symmetry_2
_ccdc_geom_bond_type
In0 O1 2.294 . S
In0 O2 2.326 . S
In0 O6 2.266 1_445 S
In0 O7 2.326 1_545 S
In0 O8 2.266 1_545 S
In0 O9 2.326 1_545 S
In0 O11 2.294 . S
In0 O12 2.326 . S
O1 In0 2.294 . S
O1 C10 1.240 . S
O2 In0 2.326 . S
O2 C10 1.252 . S
C3 O6 1.252 . S
C3 O7 1.260 1_655 S
C4 O11 1.240 . S
C4 O12 1.252 . S
C5 O8 1.252 . S
C5 O9 1.260 . S
O6 In0 2.266 1_665 S
O6 C3 1.252 . S
O7 In0 2.326 1_565 S
O7 C3 1.260 1_455 S
O8 In0 2.266 1_565 S
O8 C5 1.252 . S
O9 In0 2.326 1_565 S
O9 C5 1.260 . S
C10 O1 1.240 . S
C10 O2 1.252 . S
O11 In0 2.294 . S
O11 C4 1.240 . S
O12 In0 2.326 . S
O12 C4 1.252 . S
In13 O14 2.294 . S
In13 O15 2.326 1_455 S
In13 O19 2.266 . S
In13 O20 2.326 . S
In13 O21 2.266 1_445 S
In13 O22 2.326 . S
In13 O24 2.294 1_455 S
In13 O25 2.326 . S
O14 In13 2.294 . S
O14 C23 1.240 . S
O15 In13 2.326 1_655 S
O15 C23 1.252 1_655 S
C16 O19 1.252 . S
C16 O20 1.260 . S
C17 O24 1.240 . S
C17 O25 1.252 1_655 S
C18 O21 1.255 1_445 S
C18 O22 1.271 . S
O19 In13 2.266 . S
O19 C16 1.252 . S
O20 In13 2.326 . S
O20 C16 1.260 . S
O21 In13 2.266 1_665 S
O21 C18 1.255 1_665 S
O22 In13 2.326 . S
O22 C18 1.271 . S
C23 O14 1.240 . S
C23 O15 1.252 1_455 S
O24 In13 2.294 1_655 S
O24 C17 1.240 . S
O25 In13 2.326 . S
O25 C17 1.252 1_455 S
In26 O27 2.294 1_545 S
In26 O28 2.326 1_455 S
In26 O32 2.266 . S
In26 O33 2.326 . S
In26 O34 2.266 . S
In26 O35 2.326 . S
In26 O37 2.294 . S
In26 O38 2.326 1_445 S
O27 In26 2.294 1_565 S
O27 C36 1.240 1_455 S
O28 In26 2.326 1_655 S
O28 C36 1.252 1_545 S
C29 O32 1.252 . S
C29 O33 1.260 . S
C30 O37 1.240 1_655 S
C30 O38 1.252 1_545 S
C31 O34 1.252 . S
C31 O35 1.260 . S
O32 In26 2.266 . S
O32 C29 1.252 . S
O33 In26 2.326 . S
O33 C29 1.260 . S
O34 In26 2.266 . S
O34 C31 1.252 . S
O35 In26 2.326 . S
O35 C31 1.260 . S
C36 O27 1.240 1_655 S
C36 O28 1.252 1_565 S
O37 In26 2.294 . S
O37 C30 1.240 1_455 S
O38 In26 2.326 1_665 S
O38 C30 1.252 1_565 S
C39 C40 1.443 . S
C39 N43 1.376 . S
C39 C77 1.389 . S
C40 C39 1.443 . S
C40 C41 1.340 . S
C40 H80 0.951 . S
C41 C40 1.340 . S
C41 C42 1.439 . S
C41 H81 0.950 . S
C42 C41 1.439 . S
C42 N43 1.374 . S
C42 C76 1.395 . S
N43 C39 1.376 . S
N43 C42 1.374 . S
N43 Co44 2.008 . S
Co44 N43 2.008 . S
Co44 N45 1.995 . S
Co44 N50 2.008 1_455 S
Co44 N55 1.995 1_455 S
Co44 N60 2.282 . S
Co44 N66 2.282 . S
N45 Co44 1.995 . S
N45 C46 1.376 . S
N45 C49 1.383 . S
C46 N45 1.376 . S
C46 C47 1.446 . S
C46 C76 1.391 . S
C47 C46 1.446 . S
C47 C48 1.339 . S
C47 H82 0.949 . S
C48 C47 1.339 . S
C48 C49 1.439 . S
C48 H83 0.950 . S
C49 N45 1.383 . S
C49 C48 1.439 . S
C49 C78 1.392 . S
N50 Co44 2.008 1_655 S
N50 C51 1.376 . S
N50 C54 1.374 . S
C51 N50 1.376 . S
C51 C52 1.443 . S
C51 C78 1.389 1_655 S
C52 C51 1.443 . S
C52 C53 1.340 . S
C52 H84 0.951 . S
C53 C52 1.340 . S
C53 C54 1.439 . S
C53 H85 0.950 . S
C54 N50 1.374 . S
C54 C53 1.439 . S
C54 C79 1.395 . S
N55 Co44 1.995 1_655 S
N55 C56 1.376 . S
N55 C59 1.383 . S
C56 N55 1.376 . S
C56 C57 1.446 . S
C56 C79 1.391 . S
C57 C56 1.446 . S
C57 C58 1.339 . S
C57 H86 0.949 . S
C58 C57 1.339 . S
C58 C59 1.439 . S
C58 H87 0.950 . S
C59 N55 1.383 . S
C59 C58 1.439 . S
C59 C77 1.392 1_655 S
N60 Co44 2.282 . S
N60 C63 1.332 . S
N60 C65 1.332 . S
C61 C62 1.386 . S
C61 C64 1.388 . S
C62 C61 1.386 . S
C62 C63 1.382 . S
C62 H88 0.950 1_455 S
C63 N60 1.332 . S
C63 C62 1.382 . S
C63 H74 0.952 1_455 S
C64 C61 1.388 . S
C64 C65 1.382 . S
C64 H89 0.950 . S
C65 N60 1.332 . S
C65 C64 1.382 . S
C65 H75 0.948 . S
N66 Co44 2.282 . S
N66 C70 1.332 . S
N66 C71 1.332 1_455 S
C67 C68 1.388 1_655 S
C67 C71 1.382 . S
C67 H90 0.950 . S
C68 C67 1.388 1_455 S
C68 C69 1.386 . S
C69 C68 1.386 . S
C69 C70 1.382 . S
C69 H91 0.950 . S
C70 N66 1.332 . S
C70 C69 1.382 . S
C70 H72 0.952 . S
C71 N66 1.332 1_655 S
C71 C67 1.382 . S
C71 H73 0.948 . S
H72 C70 0.952 . S
H73 C71 0.948 . S
H74 C63 0.952 1_655 S
H75 C65 0.948 . S
C76 C42 1.395 . S
C76 C46 1.391 . S
C77 C39 1.389 . S
C77 C59 1.392 1_455 S
C78 C49 1.392 . S
C78 C51 1.389 1_455 S
C79 C54 1.395 . S
C79 C56 1.391 . S
H80 C40 0.951 . S
H81 C41 0.950 . S
H82 C47 0.949 . S
H83 C48 0.950 . S
H84 C52 0.951 . S
H85 C53 0.950 . S
H86 C57 0.949 . S
H87 C58 0.950 . S
H88 C62 0.950 1_655 S
H89 C64 0.950 . S
H90 C67 0.950 . S
H91 C69 0.950 . S
C92 C93 1.443 1_545 S
C92 N96 1.380 . S
C92 C130 1.389 . S
C93 C92 1.443 1_565 S
C93 C94 1.340 . S
C93 H133 0.951 . S
C94 C93 1.340 . S
C94 C95 1.439 . S
C94 H134 0.950 . S
C95 C94 1.439 . S
C95 N96 1.368 1_565 S
C95 C129 1.395 . S
N96 C92 1.380 . S
N96 C95 1.368 1_545 S
N96 Co97 2.010 . S
Co97 N96 2.010 . S
Co97 N98 1.995 . S
Co97 N103 2.008 . S
Co97 N108 1.995 . S
Co97 N113 2.282 . S
Co97 N119 2.282 . S
N98 Co97 1.995 . S
N98 C99 1.376 1_545 S
N98 C102 1.383 . S
C99 N98 1.376 1_565 S
C99 C100 1.446 . S
C99 C129 1.391 . S
C100 C99 1.446 . S
C100 C101 1.339 . S
C100 H135 0.949 . S
C101 C100 1.339 . S
C101 C102 1.439 1_565 S
C101 H136 0.950 . S
C102 N98 1.383 . S
C102 C101 1.439 1_545 S
C102 C131 1.392 . S
N103 Co97 2.008 . S
N103 C104 1.376 . S
N103 C107 1.374 . S
C104 N103 1.376 . S
C104 C105 1.443 . S
C104 C131 1.389 . S
C105 C104 1.443 . S
C105 C106 1.340 . S
C105 H137 0.951 . S
C106 C105 1.340 . S
C106 C107 1.439 . S
C106 H138 0.950 . S
C107 N103 1.374 . S
C107 C106 1.439 . S
C107 C132 1.395 . S
N108 Co97 1.995 . S
N108 C109 1.376 . S
N108 C112 1.383 . S
C109 N108 1.376 . S
C109 C110 1.446 . S
C109 C132 1.391 . S
C110 C109 1.446 . S
C110 C111 1.339 . S
C110 H139 0.949 . S
C111 C110 1.339 . S
C111 C112 1.439 . S
C111 H140 0.950 . S
C112 N108 1.383 . S
C112 C111 1.439 . S
C112 C130 1.392 . S
N113 Co97 2.282 . S
N113 C116 1.332 . S
N113 C118 1.332 . S
C114 C115 1.386 . S
C114 C117 1.388 . S
C115 C114 1.386 . S
C115 C116 1.382 . S
C115 H141 0.950 . S
C116 N113 1.332 . S
C116 C115 1.382 . S
C116 H127 0.952 . S
C117 C114 1.388 . S
C117 C118 1.382 . S
C117 H142 0.950 1_545 S
C118 N113 1.332 . S
C118 C117 1.382 . S
C118 H128 0.948 1_545 S
N119 Co97 2.282 . S
N119 C123 1.332 . S
N119 C124 1.332 . S
C120 C121 1.388 . S
C120 C124 1.382 . S
C120 H143 0.950 . S
C121 C120 1.388 . S
C121 C122 1.386 . S
C122 C121 1.386 . S
C122 C123 1.382 . S
C122 H144 0.950 1_545 S
C123 N119 1.332 . S
C123 C122 1.382 . S
C123 H125 0.952 1_545 S
C124 N119 1.332 . S
C124 C120 1.382 . S
C124 H126 0.948 . S
H125 C123 0.952 1_565 S
H126 C124 0.948 . S
H127 C116 0.952 . S
H128 C118 0.948 1_565 S
C129 C95 1.395 . S
C129 C99 1.391 . S
C130 C92 1.389 . S
C130 C112 1.392 . S
C131 C102 1.392 . S
C131 C104 1.389 . S
C132 C107 1.395 . S
C132 C109 1.391 . S
H133 C93 0.951 . S
H134 C94 0.950 . S
H135 C100 0.949 . S
H136 C101 0.950 . S
H137 C105 0.951 . S
H138 C106 0.950 . S
H139 C110 0.949 . S
H140 C111 0.950 . S
H141 C115 0.950 . S
H142 C117 0.950 1_565 S
H143 C120 0.950 . S
H144 C122 0.950 1_565 S
C145 C146 1.443 . S
C145 N149 1.376 . S
C145 C183 1.389 . S
C146 C145 1.443 . S
C146 C147 1.340 . S
C146 H186 0.951 . S
C147 C146 1.340 . S
C147 C148 1.439 . S
C147 H187 0.950 . S
C148 C147 1.439 . S
C148 N149 1.374 . S
C148 C182 1.395 . S
N149 C145 1.376 . S
N149 C148 1.374 . S
N149 Co150 2.008 . S
Co150 N149 2.008 . S
Co150 N151 1.995 . S
Co150 N156 2.008 . S
Co150 N161 1.995 . S
Co150 N166 2.282 . S
Co150 N172 2.282 . S
N151 Co150 1.995 . S
N151 C152 1.376 . S
N151 C155 1.383 . S
C152 N151 1.376 . S
C152 C153 1.446 . S
C152 C182 1.391 . S
C153 C152 1.446 . S
C153 C154 1.339 . S
C153 H188 0.949 . S
C154 C153 1.339 . S
C154 C155 1.439 . S
C154 H189 0.950 . S
C155 N151 1.383 . S
C155 C154 1.439 . S
C155 C184 1.392 . S
N156 Co150 2.008 . S
N156 C157 1.376 . S
N156 C160 1.374 . S
C157 N156 1.376 . S
C157 C158 1.443 . S
C157 C184 1.389 . S
C158 C157 1.443 . S
C158 C159 1.340 . S
C158 H190 0.951 . S
C159 C158 1.340 . S
C159 C160 1.439 . S
C159 H191 0.950 . S
C160 N156 1.374 . S
C160 C159 1.439 . S
C160 C185 1.395 . S
N161 Co150 1.995 . S
N161 C162 1.376 . S
N161 C165 1.383 . S
C162 N161 1.376 . S
C162 C163 1.446 . S
C162 C185 1.391 . S
C163 C162 1.446 . S
C163 C164 1.339 . S
C163 H192 0.949 . S
C164 C163 1.339 . S
C164 C165 1.439 . S
C164 H193 0.950 . S
C165 N161 1.383 . S
C165 C164 1.439 . S
C165 C183 1.392 . S
N166 Co150 2.282 . S
N166 C169 1.332 . S
N166 C171 1.332 . S
C167 C168 1.386 . S
C167 C170 1.388 . S
C168 C167 1.386 . S
C168 C169 1.382 . S
C168 H194 0.950 . S
C169 N166 1.332 . S
C169 C168 1.382 . S
C169 H180 0.952 . S
C170 C167 1.388 . S
C170 C171 1.382 . S
C170 H195 0.950 . S
C171 N166 1.332 . S
C171 C170 1.382 . S
C171 H181 0.948 . S
N172 Co150 2.282 . S
N172 C176 1.332 . S
N172 C177 1.332 . S
C173 C174 1.388 . S
C173 C177 1.382 . S
C173 H196 0.950 . S
C174 C173 1.388 . S
C174 C175 1.386 . S
C175 C174 1.386 . S
C175 C176 1.382 . S
C175 H197 0.950 . S
C176 N172 1.332 . S
C176 C175 1.382 . S
C176 H178 0.952 . S
C177 N172 1.332 . S
C177 C173 1.382 . S
C177 H179 0.948 . S
H178 C176 0.952 . S
H179 C177 0.948 . S
H180 C169 0.952 . S
H181 C171 0.948 . S
C182 C148 1.395 . S
C182 C152 1.391 . S
C183 C145 1.389 . S
C183 C165 1.392 . S
C184 C155 1.392 . S
C184 C157 1.389 . S
C185 C160 1.395 . S
C185 C162 1.391 . S
H186 C146 0.951 . S
H187 C147 0.950 . S
H188 C153 0.949 . S
H189 C154 0.950 . S
H190 C158 0.951 . S
H191 C159 0.950 . S
H192 C163 0.949 . S
H193 C164 0.950 . S
H194 C168 0.950 . S
H195 C170 0.950 . S
H196 C173 0.950 . S
H197 C175 0.950 . S
H198 C206 0.950 . S
H199 C211 0.950 . S
H200 C208 0.950 . S
H201 C210 0.950 . S
H202 C212 0.950 . S
H203 C214 0.950 . S
H204 C216 0.950 . S
H205 C217 0.950 . S
C206 H198 0.950 . S
C206 C207 1.386 . S
C206 C208 1.391 . S
C207 C206 1.386 . S
C207 C211 1.393 . S
C208 H200 0.950 . S
C208 C206 1.391 . S
C208 C209 1.400 . S
C209 C208 1.400 . S
C209 C210 1.398 . S
C209 C215 1.491 . S
C210 H201 0.950 . S
C210 C209 1.398 . S
C210 C211 1.391 . S
C211 H199 0.950 . S
C211 C207 1.393 . S
C211 C210 1.391 . S
C212 H202 0.950 . S
C212 C213 1.386 . S
C212 C214 1.391 . S
C213 C212 1.386 . S
C213 C217 1.393 . S
C214 H203 0.950 . S
C214 C212 1.391 . S
C214 C215 1.400 . S
C215 C209 1.491 . S
C215 C214 1.400 . S
C215 C216 1.398 . S
C216 H204 0.950 . S
C216 C215 1.398 . S
C216 C217 1.391 . S
C217 H205 0.950 . S
C217 C213 1.393 . S
C217 C216 1.391 . S
H218 C226 0.950 . S
H219 C231 0.950 . S
H220 C228 0.950 . S
H221 C230 0.950 . S
H222 C232 0.943 1_565 S
H223 C234 0.950 . S
H224 C236 0.950 . S
H225 C237 0.950 . S
C226 H218 0.950 . S
C226 C227 1.386 . S
C226 C228 1.391 . S
C227 C226 1.386 . S
C227 C231 1.393 . S
C228 H220 0.950 . S
C228 C226 1.391 . S
C228 C229 1.400 . S
C229 C228 1.400 . S
C229 C230 1.398 . S
C229 C235 1.491 . S
C230 H221 0.950 . S
C230 C229 1.398 . S
C230 C231 1.391 . S
C231 H219 0.950 . S
C231 C227 1.393 . S
C231 C230 1.391 . S
C232 H222 0.943 1_545 S
C232 C233 1.386 . S
C232 C234 1.391 . S
C233 C232 1.386 . S
C233 C237 1.393 . S
C234 H223 0.950 . S
C234 C232 1.391 . S
C234 C235 1.400 . S
C235 C229 1.491 . S
C235 C234 1.400 . S
C235 C236 1.398 . S
C236 H224 0.950 . S
C236 C235 1.398 . S
C236 C237 1.391 . S
C237 H225 0.950 . S
C237 C233 1.393 . S
C237 C236 1.391 . S
H238 C246 0.950 . S
H239 C251 0.950 . S
H240 C248 0.950 . S
H241 C250 0.950 . S
H242 C252 0.950 . S
H243 C254 0.950 . S
H244 C256 0.950 . S
H245 C257 0.950 . S
C246 H238 0.950 . S
C246 C247 1.386 . S
C246 C248 1.391 . S
C247 C246 1.386 . S
C247 C251 1.393 . S
C248 H240 0.950 . S
C248 C246 1.391 . S
C248 C249 1.400 . S
C249 C248 1.400 . S
C249 C250 1.398 . S
C249 C255 1.491 . S
C250 H241 0.950 . S
C250 C249 1.398 . S
C250 C251 1.391 . S
C251 H239 0.950 . S
C251 C247 1.393 . S
C251 C250 1.391 . S
C252 H242 0.950 . S
C252 C253 1.386 . S
C252 C254 1.391 . S
C253 C252 1.386 . S
C253 C257 1.393 . S
C254 H243 0.950 . S
C254 C252 1.391 . S
C254 C255 1.400 . S
C255 C249 1.491 . S
C255 C254 1.400 . S
C255 C256 1.398 . S
C256 H244 0.950 . S
C256 C255 1.398 . S
C256 C257 1.391 . S
C257 H245 0.950 . S
C257 C253 1.393 . S
C257 C256 1.391 . S
H258 C266 0.950 . S
H259 C271 0.950 1_655 S
H260 C268 0.950 . S
H261 C270 0.950 1_655 S
H262 C272 0.937 1_655 S
H263 C274 0.950 1_655 S
H264 C276 0.950 . S
H265 C277 0.950 . S
C266 H258 0.950 . S
C266 C267 1.386 . S
C266 C268 1.391 . S
C267 C266 1.386 . S
C267 C271 1.393 . S
C268 H260 0.950 . S
C268 C266 1.391 . S
C268 C269 1.400 . S
C269 C268 1.400 . S
C269 C270 1.398 . S
C269 C275 1.491 . S
C270 H261 0.950 1_455 S
C270 C269 1.398 . S
C270 C271 1.391 . S
C271 H259 0.950 1_455 S
C271 C267 1.393 . S
C271 C270 1.391 . S
C272 H262 0.937 1_455 S
C272 C273 1.408 . S
C272 C274 1.382 . S
C273 C272 1.408 . S
C273 C277 1.393 . S
C274 H263 0.950 1_455 S
C274 C272 1.382 . S
C274 C275 1.400 . S
C275 C269 1.491 . S
C275 C274 1.400 . S
C275 C276 1.398 . S
C276 H264 0.950 . S
C276 C275 1.398 . S
C276 C277 1.391 . S
C277 H265 0.950 . S
C277 C273 1.393 . S
C277 C276 1.391 . S
H278 C286 0.950 . S
H279 C291 0.950 . S
H280 C288 0.950 . S
H281 C290 0.950 . S
H282 C292 0.950 . S
H283 C294 0.950 . S
H284 C296 0.950 . S
H285 C297 0.950 . S
C286 H278 0.950 . S
C286 C287 1.386 . S
C286 C288 1.391 . S
C287 C286 1.386 . S
C287 C291 1.393 . S
C288 H280 0.950 . S
C288 C286 1.391 . S
C288 C289 1.400 . S
C289 C288 1.400 . S
C289 C290 1.398 . S
C289 C295 1.491 . S
C290 H281 0.950 . S
C290 C289 1.398 . S
C290 C291 1.391 . S
C291 H279 0.950 . S
C291 C287 1.393 . S
C291 C290 1.391 . S
C292 H282 0.950 . S
C292 C293 1.386 . S
C292 C294 1.391 . S
C293 C292 1.386 . S
C293 C297 1.393 . S
C294 H283 0.950 . S
C294 C292 1.391 . S
C294 C295 1.400 . S
C295 C289 1.491 . S
C295 C294 1.400 . S
C295 C296 1.398 . S
C296 H284 0.950 . S
C296 C295 1.398 . S
C296 C297 1.391 . S
C297 H285 0.950 . S
C297 C293 1.393 . S
C297 C296 1.391 . S
H298 C306 0.950 . S
H299 C311 0.950 . S
H300 C308 0.950 . S
H301 C310 0.950 . S
H302 C312 0.950 . S
H303 C314 0.950 . S
H304 C316 0.950 . S
H305 C317 0.950 . S
C306 H298 0.950 . S
C306 C307 1.386 . S
C306 C308 1.391 . S
C307 C306 1.386 . S
C307 C311 1.393 . S
C308 H300 0.950 . S
C308 C306 1.391 . S
C308 C309 1.400 . S
C309 C308 1.400 . S
C309 C310 1.398 . S
C309 C315 1.491 . S
C310 H301 0.950 . S
C310 C309 1.398 . S
C310 C311 1.391 . S
C311 H299 0.950 . S
C311 C307 1.393 . S
C311 C310 1.391 . S
C312 H302 0.950 . S
C312 C313 1.386 . S
C312 C314 1.391 . S
C313 C312 1.386 . S
C313 C317 1.393 . S
C314 H303 0.950 . S
C314 C312 1.391 . S
C314 C315 1.400 . S
C315 C309 1.491 . S
C315 C314 1.400 . S
C315 C316 1.398 . S
C316 H304 0.950 . S
C316 C315 1.398 . S
C316 C317 1.391 . S
C317 H305 0.950 . S
C317 C313 1.393 . S
C317 C316 1.391 . S
H318 C326 0.950 . S
H319 C331 0.950 . S
H320 C328 0.950 . S
H321 C330 0.950 . S
H322 C332 0.950 . S
H323 C334 0.950 . S
H324 C336 0.929 1_565 S
H325 C337 0.950 1_565 S
C326 H318 0.950 . S
C326 C327 1.386 1_565 S
C326 C328 1.391 . S
C327 C326 1.386 1_545 S
C327 C331 1.393 . S
C328 H320 0.950 . S
C328 C326 1.391 . S
C328 C329 1.400 1_565 S
C329 C328 1.400 1_545 S
C329 C330 1.398 . S
C329 C335 1.491 . S
C330 H321 0.950 . S
C330 C329 1.398 . S
C330 C331 1.391 . S
C331 H319 0.950 . S
C331 C327 1.393 . S
C331 C330 1.391 . S
C332 H322 0.950 . S
C332 C333 1.386 . S
C332 C334 1.391 . S
C333 C332 1.386 . S
C333 C337 1.393 . S
C334 H323 0.950 . S
C334 C332 1.391 . S
C334 C335 1.400 . S
C335 C329 1.491 . S
C335 C334 1.400 . S
C335 C336 1.409 . S
C336 H324 0.929 1_545 S
C336 C335 1.409 . S
C336 C337 1.401 . S
C337 H325 0.950 1_545 S
C337 C333 1.393 . S
C337 C336 1.401 . S
H338 C346 0.950 . S
H339 C351 0.950 1_554 S
H340 C348 0.950 . S
H341 C350 0.950 . S
H342 C352 0.950 . S
H343 C354 0.950 . S
H344 C356 0.950 . S
H345 C357 0.950 . S
C346 H338 0.950 . S
C346 C347 1.386 . S
C346 C348 1.391 . S
C347 C346 1.386 . S
C347 C351 1.393 . S
C348 H340 0.950 . S
C348 C346 1.391 . S
C348 C349 1.400 . S
C349 C348 1.400 . S
C349 C350 1.398 . S
C349 C355 1.491 . S
C350 H341 0.950 . S
C350 C349 1.398 . S
C350 C351 1.391 . S
C351 H339 0.950 1_556 S
C351 C347 1.393 . S
C351 C350 1.391 . S
C352 H342 0.950 . S
C352 C353 1.386 . S
C352 C354 1.391 . S
C353 C352 1.386 . S
C353 C357 1.393 . S
C354 H343 0.950 . S
C354 C352 1.391 . S
C354 C355 1.400 . S
C355 C349 1.491 . S
C355 C354 1.400 . S
C355 C356 1.398 . S
C356 H344 0.950 . S
C356 C355 1.398 . S
C356 C357 1.391 . S
C357 H345 0.950 . S
C357 C353 1.393 . S
C357 C356 1.391 . S
H358 C366 0.950 . S
H359 C371 0.950 . S
H360 C368 0.950 . S
H361 C370 0.950 . S
H362 C372 0.950 . S
H363 C374 0.950 . S
H364 C376 0.950 . S
H365 C377 0.950 . S
C366 H358 0.950 . S
C366 C367 1.386 . S
C366 C368 1.391 . S
C367 C366 1.386 . S
C367 C371 1.393 1_455 S
C368 H360 0.950 . S
C368 C366 1.391 . S
C368 C369 1.400 . S
C369 C368 1.400 . S
C369 C370 1.398 1_455 S
C369 C375 1.491 . S
C370 H361 0.950 . S
C370 C369 1.398 1_655 S
C370 C371 1.391 . S
C371 H359 0.950 . S
C371 C367 1.393 1_655 S
C371 C370 1.391 . S
C372 H362 0.950 . S
C372 C373 1.386 1_655 S
C372 C374 1.391 . S
C373 C372 1.386 1_455 S
C373 C377 1.393 . S
C374 H363 0.950 . S
C374 C372 1.391 . S
C374 C375 1.400 1_655 S
C375 C369 1.491 . S
C375 C374 1.400 1_455 S
C375 C376 1.398 . S
C376 H364 0.950 . S
C376 C375 1.398 . S
C376 C377 1.391 . S
C377 H365 0.950 . S
C377 C373 1.393 . S
C377 C376 1.391 . S
H378 C386 0.950 1_565 S
H379 C391 0.950 . S
H380 C388 0.950 1_565 S
H381 C390 0.950 . S
H382 C392 0.950 . S
H383 C394 0.950 . S
H384 C396 0.950 1_565 S
H385 C397 0.950 1_565 S
C386 H378 0.950 1_545 S
C386 C387 1.386 . S
C386 C388 1.391 . S
C387 C386 1.386 . S
C387 C391 1.393 . S
C388 H380 0.950 1_545 S
C388 C386 1.391 . S
C388 C389 1.400 . S
C389 C388 1.400 . S
C389 C390 1.398 . S
C389 C395 1.491 . S
C390 H381 0.950 . S
C390 C389 1.398 . S
C390 C391 1.391 . S
C391 H379 0.950 . S
C391 C387 1.393 . S
C391 C390 1.391 . S
C392 H382 0.950 . S
C392 C393 1.386 . S
C392 C394 1.391 . S
C393 C392 1.386 . S
C393 C397 1.393 . S
C394 H383 0.950 . S
C394 C392 1.391 . S
C394 C395 1.400 . S
C395 C389 1.491 . S
C395 C394 1.400 . S
C395 C396 1.398 . S
C396 H384 0.950 1_545 S
C396 C395 1.398 . S
C396 C397 1.391 . S
C397 H385 0.950 1_545 S
C397 C393 1.393 . S
C397 C396 1.391 . S
H398 C406 0.950 . S
H399 C411 0.950 . S
H400 C408 0.950 . S
H401 C410 0.950 . S
H402 C412 0.950 . S
H403 C414 0.950 . S
H404 C416 0.950 . S
H405 C417 0.950 . S
C406 H398 0.950 . S
C406 C407 1.386 . S
C406 C408 1.391 . S
C407 C406 1.386 . S
C407 C411 1.393 1_556 S
C408 H400 0.950 . S
C408 C406 1.391 . S
C408 C409 1.400 . S
C409 C408 1.400 . S
C409 C410 1.398 . S
C409 C415 1.491 . S
C410 H401 0.950 . S
C410 C409 1.398 . S
C410 C411 1.391 1_556 S
C411 H399 0.950 . S
C411 C407 1.393 1_554 S
C411 C410 1.391 1_554 S
C412 H402 0.950 . S
C412 C413 1.386 . S
C412 C414 1.391 . S
C413 C412 1.386 . S
C413 C417 1.393 . S
C414 H403 0.950 . S
C414 C412 1.391 . S
C414 C415 1.400 . S
C415 C409 1.491 . S
C415 C414 1.400 . S
C415 C416 1.398 . S
C416 H404 0.950 . S
C416 C415 1.398 . S
C416 C417 1.391 . S
C417 H405 0.950 . S
C417 C413 1.393 . S
C417 C416 1.391 . S
H418 C426 0.950 . S
H419 C431 0.950 . S
H420 C428 0.950 . S
H421 C430 0.950 . S
H422 C432 0.950 . S
H423 C434 0.950 . S
H424 C436 0.950 . S
H425 C437 0.950 . S
C426 H418 0.950 . S
C426 C427 1.386 1_655 S
C426 C428 1.391 . S
C427 C426 1.386 1_455 S
C427 C431 1.393 . S
C428 H420 0.950 . S
C428 C426 1.391 . S
C428 C429 1.400 1_655 S
C429 C428 1.400 1_455 S
C429 C430 1.398 . S
C429 C435 1.491 . S
C430 H421 0.950 . S
C430 C429 1.398 . S
C430 C431 1.391 . S
C431 H419 0.950 . S
C431 C427 1.393 . S
C431 C430 1.391 . S
C432 H422 0.950 . S
C432 C433 1.386 . S
C432 C434 1.391 . S
C433 C432 1.386 . S
C433 C437 1.393 1_455 S
C434 H423 0.950 . S
C434 C432 1.391 . S
C434 C435 1.400 . S
C435 C429 1.491 . S
C435 C434 1.400 . S
C435 C436 1.398 1_455 S
C436 H424 0.950 . S
C436 C435 1.398 1_655 S
C436 C437 1.391 . S
C437 H425 0.950 . S
C437 C433 1.393 1_655 S
C437 C436 1.391 . S
C213 C61 1.516 . S
C207 C10 1.516 . S
C227 C17 1.517 . S
C233 C131 1.519 . S
C247 C36 1.520 . S
C253 C183 1.522 . S
C267 C5 1.520 . S
C273 C77 1.518 . S
C293 C121 1.519 . S
C287 C16 1.519 . S
C307 C31 1.520 . S
C313 C167 1.520 . S
C333 C114 1.517 . S
C327 C30 1.516 . S
C347 C3 1.520 1_556 S
C353 C174 1.518 . S
C373 C68 1.519 . S
C367 C18 1.504 1_565 S
C393 C130 1.519 . S
C387 C29 1.520 . S
C413 C184 1.522 . S
C407 C4 1.520 1_556 S
C427 C23 1.517 . S
C433 C78 1.519 . S
