# Generated by pormake.
# Topology ocu, (6,8)-cn, num edge types: 1
# Building blocks:
#     Node 0, Type 0, BuildingBlock: KUMJIN_clean_sbu_0, # of connection points: 6
#     Node 1, Type 0, BuildingBlock: KUMJIN_clean_sbu_0, # of connection points: 6
#     Node 2, Type 0, BuildingBlock: KUMJIN_clean_sbu_0, # of connection points: 6
#     Node 3, Type 0, BuildingBlock: KUMJIN_clean_sbu_0, # of connection points: 6
#     Node 4, Type 0, BuildingBlock: KUMJIN_clean_sbu_0, # of connection points: 6
#     Node 5, Type 0, BuildingBlock: KUMJIN_clean_sbu_0, # of connection points: 6
#     Node 6, Type 0, BuildingBlock: KUMJIN_clean_sbu_0, # of connection points: 6
#     Node 7, Type 0, BuildingBlock: KUMJIN_clean_sbu_0, # of connection points: 6
#     Node 8, Type 1, BuildingBlock: AJUNOK_clean_sbu_0, # of connection points: 8
#     Node 9, Type 1, BuildingBlock: AJUNOK_clean_sbu_0, # of connection points: 8
#     Node 10, Type 1, BuildingBlock: AJUNOK_clean_sbu_0, # of connection points: 8
#     Node 11, Type 1, BuildingBlock: AJUNOK_clean_sbu_0, # of connection points: 8
#     Node 12, Type 1, BuildingBlock: AJUNOK_clean_sbu_0, # of connection points: 8
#     Node 13, Type 1, BuildingBlock: AJUNOK_clean_sbu_0, # of connection points: 8
#     Edge 14, Type (0, 1), BuildingBlock: TEMPAE_clean_linker_10, # of connection points: 2
#     Edge 15, Type (0, 1), BuildingBlock: TEMPAE_clean_linker_10, # of connection points: 2
#     Edge 16, Type (0, 1), BuildingBlock: TEMPAE_clean_linker_10, # of connection points: 2
#     Edge 17, Type (0, 1), BuildingBlock: TEMPAE_clean_linker_10, # of connection points: 2
#     Edge 18, Type (0, 1), BuildingBlock: TEMPAE_clean_linker_10, # of connection points: 2
#     Edge 19, Type (0, 1), BuildingBlock: TEMPAE_clean_linker_10, # of connection points: 2
#     Edge 20, Type (0, 1), BuildingBlock: TEMPAE_clean_linker_10, # of connection points: 2
#     Edge 21, Type (0, 1), BuildingBlock: TEMPAE_clean_linker_10, # of connection points: 2
#     Edge 22, Type (0, 1), BuildingBlock: TEMPAE_clean_linker_10, # of connection points: 2
#     Edge 23, Type (0, 1), BuildingBlock: TEMPAE_clean_linker_10, # of connection points: 2
#     Edge 24, Type (0, 1), BuildingBlock: TEMPAE_clean_linker_10, # of connection points: 2
#     Edge 25, Type (0, 1), BuildingBlock: TEMPAE_clean_linker_10, # of connection points: 2
#     Edge 26, Type (0, 1), BuildingBlock: TEMPAE_clean_linker_10, # of connection points: 2
#     Edge 27, Type (0, 1), BuildingBlock: TEMPAE_clean_linker_10, # of connection points: 2
#     Edge 28, Type (0, 1), BuildingBlock: TEMPAE_clean_linker_10, # of connection points: 2
#     Edge 29, Type (0, 1), BuildingBlock: TEMPAE_clean_linker_10, # of connection points: 2
#     Edge 30, Type (0, 1), BuildingBlock: TEMPAE_clean_linker_10, # of connection points: 2
#     Edge 31, Type (0, 1), BuildingBlock: TEMPAE_clean_linker_10, # of connection points: 2
#     Edge 32, Type (0, 1), BuildingBlock: TEMPAE_clean_linker_10, # of connection points: 2
#     Edge 33, Type (0, 1), BuildingBlock: TEMPAE_clean_linker_10, # of connection points: 2
#     Edge 34, Type (0, 1), BuildingBlock: TEMPAE_clean_linker_10, # of connection points: 2
#     Edge 35, Type (0, 1), BuildingBlock: TEMPAE_clean_linker_10, # of connection points: 2
#     Edge 36, Type (0, 1), BuildingBlock: TEMPAE_clean_linker_10, # of connection points: 2
#     Edge 37, Type (0, 1), BuildingBlock: TEMPAE_clean_linker_10, # of connection points: 2
#     Edge 38, Type (0, 1), BuildingBlock: TEMPAE_clean_linker_10, # of connection points: 2
#     Edge 39, Type (0, 1), BuildingBlock: TEMPAE_clean_linker_10, # of connection points: 2
#     Edge 40, Type (0, 1), BuildingBlock: TEMPAE_clean_linker_10, # of connection points: 2
#     Edge 41, Type (0, 1), BuildingBlock: TEMPAE_clean_linker_10, # of connection points: 2
#     Edge 42, Type (0, 1), BuildingBlock: TEMPAE_clean_linker_10, # of connection points: 2
#     Edge 43, Type (0, 1), BuildingBlock: TEMPAE_clean_linker_10, # of connection points: 2
#     Edge 44, Type (0, 1), BuildingBlock: TEMPAE_clean_linker_10, # of connection points: 2
#     Edge 45, Type (0, 1), BuildingBlock: TEMPAE_clean_linker_10, # of connection points: 2
#     Edge 46, Type (0, 1), BuildingBlock: TEMPAE_clean_linker_10, # of connection points: 2
#     Edge 47, Type (0, 1), BuildingBlock: TEMPAE_clean_linker_10, # of connection points: 2
#     Edge 48, Type (0, 1), BuildingBlock: TEMPAE_clean_linker_10, # of connection points: 2
#     Edge 49, Type (0, 1), BuildingBlock: TEMPAE_clean_linker_10, # of connection points: 2
#     Edge 50, Type (0, 1), BuildingBlock: TEMPAE_clean_linker_10, # of connection points: 2
#     Edge 51, Type (0, 1), BuildingBlock: TEMPAE_clean_linker_10, # of connection points: 2
#     Edge 52, Type (0, 1), BuildingBlock: TEMPAE_clean_linker_10, # of connection points: 2
#     Edge 53, Type (0, 1), BuildingBlock: TEMPAE_clean_linker_10, # of connection points: 2
#     Edge 54, Type (0, 1), BuildingBlock: TEMPAE_clean_linker_10, # of connection points: 2
#     Edge 55, Type (0, 1), BuildingBlock: TEMPAE_clean_linker_10, # of connection points: 2
#     Edge 56, Type (0, 1), BuildingBlock: TEMPAE_clean_linker_10, # of connection points: 2
#     Edge 57, Type (0, 1), BuildingBlock: TEMPAE_clean_linker_10, # of connection points: 2
#     Edge 58, Type (0, 1), BuildingBlock: TEMPAE_clean_linker_10, # of connection points: 2
#     Edge 59, Type (0, 1), BuildingBlock: TEMPAE_clean_linker_10, # of connection points: 2
#     Edge 60, Type (0, 1), BuildingBlock: TEMPAE_clean_linker_10, # of connection points: 2
#     Edge 61, Type (0, 1), BuildingBlock: TEMPAE_clean_linker_10, # of connection points: 2
# Relax obj value: 0.159
# Max RMSD: 0.262
# Mean RMSD: 0.204
data_MOF--net-ocu--node1-KUMJIN_clean_sbu_0--node2-AJUNOK_clean_sbu_0--edge1-TEMPAE_clean_linker_10
_symmetry_space_group_name_H-M    P1
_symmetry_Int_Tables_number       1
_symmetry_cell_setting            triclinic
loop_
_symmetry_equiv_pos_as_xyz
'x, y, z'
_cell_length_a     44.521651
_cell_length_b     43.922277
_cell_length_c     40.231899
_cell_angle_alpha  85.72505
_cell_angle_beta   105.10175
_cell_angle_gamma 111.01708
loop_
_atom_site_label
_atom_site_type_symbol
_atom_site_fract_x
_atom_site_fract_y
_atom_site_fract_z
_atom_type_partial_charge
Eu0 Eu 0.24607 0.2055 0.20368 0.0
C1 C 0.34469 0.30156 0.32235 0.0
C2 C 0.35204 0.26669 0.3711 0.0
C3 C 0.39723 0.31678 0.36604 0.0
C4 C 0.33236 0.27336 0.33982 0.0
C5 C 0.37704 0.32395 0.33565 0.0
C6 C 0.38477 0.28817 0.38369 0.0
C7 C 0.36625 0.35991 0.28927 0.0
N8 N 0.32453 0.3078 0.29312 0.0
C9 C 0.33432 0.33702 0.27715 0.0
C10 C 0.38785 0.35319 0.31843 0.0
Eu11 Eu 0.27157 0.26679 0.2733 0.0
N12 N 0.30049 0.25336 0.32727 0.0
C13 C 0.28596 0.22783 0.3462 0.0
C14 C 0.3379 0.23919 0.38936 0.0
C15 C 0.3045 0.22001 0.37714 0.0
H16 H 0.31771 0.34223 0.25452 0.0
H17 H 0.29296 0.19925 0.39155 0.0
H18 H 0.40034 0.2833 0.4075 0.0
H19 H 0.3742 0.3827 0.27612 0.0
H20 H 0.26011 0.21323 0.33756 0.0
H21 H 0.22187 0.27355 0.08653 0.0
H22 H 0.3522 0.23316 0.41342 0.0
H23 H 0.20095 0.12973 0.22342 0.0
H24 H 0.25548 0.26063 0.14064 0.0
H25 H 0.14509 0.08829 0.2018 0.0
H26 H 0.42226 0.33354 0.3765 0.0
H27 H 0.16337 0.23776 0.06426 0.0
H28 H 0.11653 0.18633 0.06983 0.0
H29 H 0.41254 0.37101 0.32783 0.0
H30 H 0.09587 0.13573 0.10077 0.0
N31 N 0.21621 0.21879 0.15029 0.0
C32 C 0.22998 0.24498 0.13164 0.0
C33 C 0.17801 0.23208 0.08828 0.0
C34 C 0.16467 0.20412 0.10637 0.0
C35 C 0.211 0.2523 0.10072 0.0
C36 C 0.18474 0.19791 0.13763 0.0
H37 H 0.10645 0.09885 0.14967 0.0
N38 N 0.19354 0.16366 0.1844 0.0
C39 C 0.15263 0.11105 0.1885 0.0
C40 C 0.17312 0.16942 0.15506 0.0
C41 C 0.18421 0.13453 0.20066 0.0
C42 C 0.13087 0.11713 0.15909 0.0
C43 C 0.14111 0.1464 0.14174 0.0
O44 O 0.26976 0.16967 0.20391 0.0
O45 O 0.2799 0.22364 0.25591 0.0
O46 O 0.31559 0.27599 0.25145 0.0
O47 O 0.2867 0.25283 0.19699 0.0
O48 O 0.2569 0.17371 0.24921 0.0
O49 O 0.26663 0.20116 0.16067 0.0
O50 O 0.25124 0.30525 0.27327 0.0
O51 O 0.23756 0.24858 0.22119 0.0
O52 O 0.2021 0.19548 0.22577 0.0
O53 O 0.23065 0.21957 0.27999 0.0
O54 O 0.26092 0.29842 0.22758 0.0
O55 O 0.24811 0.27052 0.31402 0.0
C56 C 0.27799 0.19662 0.2707 0.0
C57 C 0.26714 0.14845 0.15062 0.0
C58 C 0.28314 0.11752 0.11394 0.0
C59 C 0.2902 0.14604 0.13339 0.0
C60 C 0.25284 0.09162 0.11274 0.0
C61 C 0.23696 0.12244 0.14789 0.0
C62 C 0.22997 0.09425 0.12922 0.0
C63 C 0.31307 0.27301 0.21844 0.0
C64 C 0.2755 0.17671 0.17366 0.0
C65 C 0.12062 0.15302 0.11127 0.0
C66 C 0.13236 0.18184 0.09366 0.0
C67 C 0.23942 0.27556 0.20634 0.0
C68 C 0.25081 0.32381 0.32655 0.0
C69 C 0.22613 0.32789 0.34001 0.0
C70 C 0.23384 0.35504 0.36168 0.0
C71 C 0.26638 0.37815 0.36887 0.0
C72 C 0.2831 0.34699 0.33488 0.0
C73 C 0.29072 0.37403 0.35571 0.0
C74 C 0.20463 0.19869 0.25876 0.0
C75 C 0.24238 0.29681 0.30194 0.0
H76 H 0.3135 0.16617 0.13541 0.0
H77 H 0.24689 0.06876 0.09963 0.0
H78 H 0.21906 0.12351 0.16091 0.0
H79 H 0.20689 0.07405 0.12801 0.0
H80 H 0.20112 0.31005 0.3336 0.0
H81 H 0.27301 0.39984 0.38434 0.0
H82 H 0.30235 0.34454 0.32481 0.0
H83 H 0.31558 0.39209 0.36143 0.0
Eu84 Eu 0.7827 0.20932 0.23484 0.0
C85 C 0.69445 0.25604 0.3011 0.0
C86 C 0.63772 0.21881 0.28054 0.0
C87 C 0.65244 0.25295 0.33115 0.0
C88 C 0.67074 0.23272 0.27717 0.0
C89 C 0.68541 0.26611 0.32851 0.0
C90 C 0.62856 0.22985 0.30686 0.0
C91 C 0.74074 0.30568 0.34593 0.0
N92 N 0.72575 0.27016 0.29672 0.0
C93 C 0.74804 0.29622 0.31754 0.0
C94 C 0.7093 0.29041 0.3516 0.0
Eu95 Eu 0.73329 0.25749 0.24339 0.0
N96 N 0.67965 0.22382 0.25052 0.0
C97 C 0.65748 0.19839 0.22907 0.0
C98 C 0.61469 0.19416 0.25735 0.0
C99 C 0.62483 0.18344 0.23198 0.0
H100 H 0.77169 0.3103 0.31218 0.0
H101 H 0.6076 0.16339 0.21478 0.0
H102 H 0.60316 0.22 0.30922 0.0
H103 H 0.75901 0.3256 0.36267 0.0
H104 H 0.66484 0.18789 0.21074 0.0
H105 H 0.90755 0.30283 0.24689 0.0
H106 H 0.58928 0.18265 0.25941 0.0
H107 H 0.74075 0.14902 0.17463 0.0
H108 H 0.85159 0.28055 0.25497 0.0
H109 H 0.75021 0.12482 0.1271 0.0
H110 H 0.64503 0.26078 0.35167 0.0
H111 H 0.92206 0.27817 0.20299 0.0
H112 H 0.9037 0.2375 0.15523 0.0
H113 H 0.7033 0.29853 0.37301 0.0
H114 H 0.86016 0.19097 0.12093 0.0
N115 N 0.83485 0.23981 0.2213 0.0
C116 C 0.85775 0.26768 0.23815 0.0
C117 C 0.89754 0.26739 0.20768 0.0
C118 C 0.87333 0.24068 0.18813 0.0
C119 C 0.88953 0.28121 0.23256 0.0
C120 C 0.8418 0.22721 0.19557 0.0
H121 H 0.80292 0.14948 0.10977 0.0
N122 N 0.78696 0.18903 0.18337 0.0
C123 C 0.769 0.14675 0.14009 0.0
C124 C 0.81708 0.20137 0.17585 0.0
C125 C 0.76375 0.16084 0.16705 0.0
C126 C 0.79883 0.16061 0.13054 0.0
C127 C 0.82359 0.1878 0.14886 0.0
O128 O 0.76016 0.15649 0.23795 0.0
O129 O 0.73623 0.20794 0.24872 0.0
O130 O 0.77377 0.26107 0.29243 0.0
O131 O 0.81409 0.2445 0.28038 0.0
O132 O 0.77035 0.19312 0.28591 0.0
O133 O 0.81398 0.18054 0.25438 0.0
O134 O 0.75676 0.31047 0.24662 0.0
O135 O 0.77909 0.25838 0.22882 0.0
O136 O 0.74073 0.20398 0.18589 0.0
O137 O 0.70498 0.23011 0.19277 0.0
O138 O 0.74774 0.27809 0.19433 0.0
O139 O 0.70281 0.28765 0.22933 0.0
C140 C 0.74136 0.19544 0.27806 0.0
C141 C 0.78863 0.1347 0.28501 0.0
C142 C 0.81187 0.13204 0.34617 0.0
C143 C 0.80927 0.14989 0.31618 0.0
C144 C 0.79145 0.09908 0.34564 0.0
C145 C 0.76832 0.10177 0.28434 0.0
C146 C 0.76942 0.08413 0.31477 0.0
C147 C 0.80424 0.2608 0.29932 0.0
C148 C 0.78852 0.15339 0.25337 0.0
C149 C 0.85486 0.20105 0.14159 0.0
C150 C 0.8797 0.22739 0.16123 0.0
C151 C 0.77492 0.27229 0.20022 0.0
C152 C 0.72879 0.33616 0.20317 0.0
C153 C 0.71075 0.32295 0.17034 0.0
C154 C 0.7096 0.34298 0.14187 0.0
C155 C 0.72831 0.37656 0.14615 0.0
C156 C 0.74726 0.3696 0.20739 0.0
C157 C 0.74721 0.3897 0.1788 0.0
C158 C 0.71336 0.21141 0.1751 0.0
C159 C 0.72862 0.31477 0.23274 0.0
H160 H 0.82529 0.1753 0.31694 0.0
H161 H 0.79398 0.08451 0.36843 0.0
H162 H 0.75198 0.08973 0.26036 0.0
H163 H 0.75417 0.05856 0.31417 0.0
H164 H 0.69644 0.29705 0.16693 0.0
H165 H 0.72701 0.39284 0.12467 0.0
H166 H 0.7615 0.38007 0.23268 0.0
H167 H 0.76111 0.41562 0.18209 0.0
Eu168 Eu 0.73246 0.72703 0.26718 0.0
C169 C 0.81651 0.81084 0.16604 0.0
C170 C 0.77472 0.81065 0.11355 0.0
C171 C 0.82789 0.85533 0.12598 0.0
C172 C 0.78517 0.7962 0.14486 0.0
C173 C 0.83857 0.84019 0.15646 0.0
C174 C 0.79599 0.84061 0.1046 0.0
C175 C 0.88109 0.83571 0.20601 0.0
N176 N 0.82619 0.79538 0.19502 0.0
C177 C 0.85836 0.80653 0.21422 0.0
C178 C 0.87103 0.85285 0.17722 0.0
Eu179 Eu 0.78678 0.74609 0.20749 0.0
N180 N 0.76545 0.76706 0.15405 0.0
C181 C 0.73588 0.75002 0.13186 0.0
C182 C 0.74358 0.79414 0.09175 0.0
C183 C 0.72427 0.76348 0.10077 0.0
H184 H 0.86634 0.79306 0.2362 0.0
H185 H 0.70045 0.75013 0.08377 0.0
H186 H 0.7883 0.85219 0.0808 0.0
H187 H 0.90636 0.84484 0.22175 0.0
H188 H 0.72072 0.72617 0.13805 0.0
H189 H 0.80902 0.72457 0.39695 0.0
H190 H 0.73459 0.80448 0.06757 0.0
H191 H 0.6546 0.67616 0.23068 0.0
H192 H 0.79289 0.74791 0.34064 0.0
H193 H 0.61509 0.62294 0.24195 0.0
H194 H 0.84437 0.87801 0.11831 0.0
H195 H 0.77531 0.66886 0.41012 0.0
H196 H 0.72402 0.61928 0.39231 0.0
H197 H 0.88874 0.87531 0.17072 0.0
H198 H 0.67109 0.59184 0.35037 0.0
N199 N 0.75073 0.70562 0.32126 0.0
C200 C 0.77799 0.72345 0.3457 0.0
C201 C 0.7681 0.67895 0.38518 0.0
C202 C 0.73916 0.66147 0.36078 0.0
C203 C 0.78718 0.71037 0.37786 0.0
C204 C 0.73074 0.67584 0.32877 0.0
H205 H 0.63014 0.5932 0.29458 0.0
N206 N 0.69238 0.67618 0.27587 0.0
C207 C 0.63913 0.63321 0.25994 0.0
C208 C 0.7007 0.66064 0.30539 0.0
C209 C 0.66163 0.6634 0.25365 0.0
C210 C 0.64774 0.61647 0.28963 0.0
C211 C 0.67862 0.63032 0.31304 0.0
O212 O 0.69507 0.74934 0.26307 0.0
O213 O 0.74374 0.75551 0.21972 0.0
O214 O 0.8016 0.79267 0.23797 0.0
O215 O 0.77948 0.77026 0.28475 0.0
O216 O 0.69461 0.72807 0.21825 0.0
O217 O 0.73181 0.75393 0.31103 0.0
O218 O 0.82545 0.72594 0.20872 0.0
O219 O 0.77554 0.71919 0.25489 0.0
O220 O 0.72284 0.67999 0.24049 0.0
O221 O 0.73918 0.70316 0.1913 0.0
O222 O 0.82478 0.7427 0.25656 0.0
O223 O 0.78315 0.7149 0.16513 0.0
C224 C 0.71382 0.74894 0.20156 0.0
C225 C 0.67922 0.75537 0.31306 0.0
C226 C 0.65398 0.77765 0.34842 0.0
C227 C 0.68099 0.78046 0.3344 0.0
C228 C 0.62539 0.74914 0.34018 0.0
C229 C 0.65083 0.72701 0.30663 0.0
C230 C 0.62414 0.72403 0.32005 0.0
C231 C 0.79805 0.79452 0.26935 0.0
C232 C 0.70535 0.76012 0.29476 0.0
C233 C 0.68765 0.6152 0.34414 0.0
C234 C 0.71782 0.63078 0.36799 0.0
C235 C 0.80465 0.72402 0.27375 0.0
C236 C 0.83392 0.71492 0.15588 0.0
C237 C 0.83632 0.68715 0.14258 0.0
C238 C 0.85986 0.6908 0.12342 0.0
C239 C 0.88065 0.7223 0.11766 0.0
C240 C 0.85462 0.74607 0.14905 0.0
C241 C 0.87784 0.74968 0.13016 0.0
C242 C 0.72265 0.6785 0.20785 0.0
C243 C 0.8116 0.71138 0.1787 0.0
H244 H 0.70317 0.80212 0.33952 0.0
H245 H 0.60332 0.74625 0.3485 0.0
H246 H 0.64881 0.70755 0.29028 0.0
H247 H 0.60196 0.70242 0.31412 0.0
H248 H 0.82071 0.66292 0.14793 0.0
H249 H 0.89915 0.72569 0.10341 0.0
H250 H 0.85325 0.76765 0.15877 0.0
H251 H 0.89399 0.77383 0.12548 0.0
Eu252 Eu 0.2802 0.7061 0.24639 0.0
C253 C 0.22086 0.80478 0.16617 0.0
C254 C 0.2695 0.85375 0.1697 0.0
C255 C 0.22061 0.84623 0.12241 0.0
C256 C 0.25299 0.82355 0.1833 0.0
C257 C 0.20422 0.81625 0.1358 0.0
C258 C 0.25314 0.86493 0.13932 0.0
C259 C 0.15507 0.76915 0.13557 0.0
N260 N 0.20544 0.77582 0.17953 0.0
C261 C 0.17237 0.7591 0.16584 0.0
C262 C 0.17119 0.79768 0.12019 0.0
Eu263 Eu 0.23505 0.76191 0.23289 0.0
N264 N 0.2684 0.81209 0.21263 0.0
C265 C 0.30084 0.82948 0.22871 0.0
C266 C 0.30222 0.87175 0.18667 0.0
C267 C 0.31805 0.85936 0.21605 0.0
H268 H 0.15913 0.73795 0.17856 0.0
H269 H 0.34369 0.87275 0.2289 0.0
H270 H 0.26552 0.88799 0.12859 0.0
H271 H 0.12913 0.75522 0.12453 0.0
H272 H 0.31448 0.8204 0.25076 0.0
H273 H 0.17404 0.59076 0.24196 0.0
H274 H 0.31562 0.89498 0.177 0.0
H275 H 0.35469 0.72841 0.3047 0.0
H276 H 0.2053 0.64149 0.21957 0.0
H277 H 0.37969 0.71392 0.36273 0.0
H278 H 0.20822 0.85531 0.09912 0.0
H279 H 0.19553 0.57389 0.30037 0.0
H280 H 0.23888 0.58625 0.35589 0.0
H281 H 0.15763 0.80569 0.09692 0.0
H282 H 0.29382 0.62057 0.38949 0.0
N283 N 0.24588 0.65536 0.26485 0.0
C284 C 0.21599 0.63544 0.24511 0.0
C285 C 0.20958 0.59693 0.29094 0.0
C286 C 0.23979 0.61714 0.31129 0.0
C287 C 0.19758 0.60619 0.25783 0.0
C288 C 0.25783 0.64648 0.29739 0.0
H289 H 0.34638 0.66795 0.39231 0.0
N290 N 0.30635 0.69334 0.3024 0.0
C291 C 0.3539 0.70056 0.35043 0.0
C292 C 0.28865 0.66612 0.31672 0.0
C293 C 0.33944 0.70885 0.31758 0.0
C294 C 0.33502 0.67465 0.36698 0.0
C295 C 0.30237 0.65644 0.34978 0.0
O296 O 0.33102 0.71912 0.24263 0.0
O297 O 0.28107 0.75589 0.22687 0.0
O298 O 0.21029 0.72302 0.18973 0.0
O299 O 0.23932 0.68672 0.19913 0.0
O300 O 0.28574 0.72471 0.19403 0.0
O301 O 0.29526 0.66905 0.22882 0.0
O302 O 0.18631 0.75023 0.24205 0.0
O303 O 0.23411 0.71183 0.25108 0.0
O304 O 0.30317 0.74466 0.2901 0.0
O305 O 0.27721 0.78331 0.27785 0.0
O306 O 0.22942 0.74175 0.28503 0.0
O307 O 0.22349 0.7994 0.25471 0.0
C308 C 0.28551 0.75348 0.19736 0.0
C309 C 0.35174 0.68145 0.22373 0.0
C310 C 0.36941 0.65183 0.18859 0.0
C311 C 0.34397 0.65844 0.19761 0.0
C312 C 0.40268 0.66822 0.20632 0.0
C313 C 0.38501 0.69782 0.24098 0.0
C314 C 0.41035 0.69104 0.23239 0.0
C315 C 0.21556 0.69709 0.18126 0.0
C316 C 0.32543 0.68996 0.2315 0.0
C317 C 0.28381 0.6281 0.36404 0.0
C318 C 0.25261 0.60849 0.34483 0.0
C319 C 0.22946 0.71321 0.28051 0.0
C320 C 0.16718 0.79092 0.25528 0.0
C321 C 0.17001 0.80821 0.28447 0.0
C322 C 0.14336 0.81646 0.28801 0.0
C323 C 0.11394 0.80779 0.26132 0.0
C324 C 0.1377 0.78225 0.22899 0.0
C325 C 0.11128 0.79095 0.23195 0.0
C326 C 0.29909 0.77163 0.29735 0.0
C327 C 0.1939 0.77901 0.25551 0.0
H328 H 0.31826 0.64612 0.18397 0.0
H329 H 0.42283 0.6639 0.19951 0.0
H330 H 0.39141 0.71591 0.26099 0.0
H331 H 0.43601 0.70378 0.24566 0.0
H332 H 0.19283 0.8146 0.30481 0.0
H333 H 0.09269 0.81333 0.26347 0.0
H334 H 0.13473 0.76819 0.20667 0.0
H335 H 0.08842 0.784 0.21178 0.0
Eu336 Eu 0.28387 0.71023 0.7368 0.0
C337 C 0.18594 0.75537 0.7894 0.0
C338 C 0.13212 0.71393 0.76734 0.0
C339 C 0.14017 0.74919 0.81496 0.0
C340 C 0.16554 0.73032 0.76617 0.0
C341 C 0.17351 0.76494 0.81425 0.0
C342 C 0.11939 0.72408 0.79121 0.0
C343 C 0.2268 0.80733 0.83371 0.0
N344 N 0.21786 0.77063 0.7876 0.0
C345 C 0.23759 0.79757 0.80808 0.0
C346 C 0.19467 0.79071 0.83706 0.0
Eu347 Eu 0.2329 0.75783 0.73925 0.0
N348 N 0.17867 0.72105 0.74346 0.0
C349 C 0.16077 0.69218 0.72534 0.0
C350 C 0.11268 0.6872 0.74518 0.0
C351 C 0.12748 0.67547 0.72514 0.0
H352 H 0.26167 0.8123 0.80429 0.0
H353 H 0.11339 0.65329 0.70983 0.0
H354 H 0.09369 0.71206 0.79211 0.0
H355 H 0.24296 0.8283 0.85015 0.0
H356 H 0.17176 0.68091 0.71158 0.0
H357 H 0.39803 0.81993 0.76914 0.0
H358 H 0.0868 0.6743 0.74488 0.0
H359 H 0.25673 0.66143 0.66583 0.0
H360 H 0.33995 0.78834 0.76656 0.0
H361 H 0.27705 0.65074 0.61892 0.0
H362 H 0.13017 0.75639 0.83365 0.0
H363 H 0.4272 0.80342 0.73333 0.0
H364 H 0.42337 0.76845 0.68485 0.0
H365 H 0.18609 0.79867 0.85654 0.0
H366 H 0.38933 0.72507 0.64144 0.0
N367 N 0.3363 0.7508 0.73319 0.0
C368 C 0.35231 0.77928 0.75225 0.0
C369 C 0.40158 0.78886 0.73261 0.0
C370 C 0.38379 0.7625 0.70953 0.0
C371 C 0.3853 0.79811 0.75302 0.0
C372 C 0.35066 0.74391 0.71018 0.0
H373 H 0.33453 0.68241 0.61563 0.0
N374 N 0.29949 0.70271 0.68645 0.0
C375 C 0.29255 0.67056 0.63715 0.0
C376 C 0.33156 0.71944 0.6858 0.0
C377 C 0.28055 0.67755 0.66332 0.0
C378 C 0.32504 0.68822 0.63561 0.0
C379 C 0.34516 0.71264 0.66037 0.0
O380 O 0.26337 0.65723 0.73062 0.0
O381 O 0.2376 0.70968 0.74929 0.0
O382 O 0.2748 0.76535 0.78926 0.0
O383 O 0.3098 0.7364 0.78805 0.0
O384 O 0.2674 0.68997 0.78549 0.0
O385 O 0.31628 0.68216 0.7529 0.0
O386 O 0.25962 0.81038 0.74287 0.0
O387 O 0.27866 0.75819 0.72545 0.0
O388 O 0.23929 0.6986 0.69013 0.0
O389 O 0.20512 0.72895 0.68918 0.0
O390 O 0.245 0.77266 0.68791 0.0
O391 O 0.20586 0.79098 0.72227 0.0
C392 C 0.24036 0.69629 0.77819 0.0
C393 C 0.29129 0.62951 0.77182 0.0
C394 C 0.30869 0.61718 0.83208 0.0
C395 C 0.3023 0.63904 0.80655 0.0
C396 C 0.30003 0.58427 0.82229 0.0
C397 C 0.28277 0.59692 0.76241 0.0
C398 C 0.28654 0.5742 0.78774 0.0
C399 C 0.30129 0.75687 0.80304 0.0
C400 C 0.29186 0.65412 0.74541 0.0
C401 C 0.37843 0.7302 0.66053 0.0
C402 C 0.3978 0.75487 0.68527 0.0
C403 C 0.27325 0.76873 0.69515 0.0
C404 C 0.23656 0.83925 0.69871 0.0
C405 C 0.22127 0.82722 0.66502 0.0
C406 C 0.22075 0.84836 0.63739 0.0
C407 C 0.23865 0.88196 0.64352 0.0
C408 C 0.25417 0.8727 0.70474 0.0
C409 C 0.25561 0.89394 0.67707 0.0
C410 C 0.21268 0.7065 0.67609 0.0
C411 C 0.23304 0.8169 0.72742 0.0
H412 H 0.30828 0.66422 0.81337 0.0
H413 H 0.30533 0.56652 0.84077 0.0
H414 H 0.27415 0.5893 0.73552 0.0
H415 H 0.28061 0.54908 0.78045 0.0
H416 H 0.20729 0.80142 0.66037 0.0
H417 H 0.23782 0.89916 0.62287 0.0
H418 H 0.26625 0.88235 0.73076 0.0
H419 H 0.26868 0.91987 0.68177 0.0
Eu420 Eu 0.22443 0.22159 0.76205 0.0
C421 C 0.31232 0.30993 0.66939 0.0
C422 C 0.27296 0.31002 0.61495 0.0
C423 C 0.32455 0.35625 0.63164 0.0
C424 C 0.28219 0.29484 0.64615 0.0
C425 C 0.33413 0.34054 0.6621 0.0
C426 C 0.29399 0.34105 0.60814 0.0
C427 C 0.37431 0.33675 0.71431 0.0
N428 N 0.32105 0.29391 0.69833 0.0
C429 C 0.35195 0.30633 0.72027 0.0
C430 C 0.36527 0.35406 0.68523 0.0
Eu431 Eu 0.282 0.24246 0.70656 0.0
N432 N 0.26278 0.26457 0.65313 0.0
C433 C 0.23494 0.24725 0.62893 0.0
C434 C 0.24338 0.29313 0.59101 0.0
C435 C 0.22454 0.26141 0.59785 0.0
H436 H 0.35909 0.29298 0.74273 0.0
H437 H 0.20199 0.24782 0.5792 0.0
H438 H 0.28723 0.35313 0.5844 0.0
H439 H 0.39852 0.34677 0.73207 0.0
H440 H 0.2201 0.22265 0.63359 0.0
H441 H 0.2944 0.23033 0.89759 0.0
H442 H 0.23535 0.30398 0.56682 0.0
H443 H 0.14837 0.16985 0.7269 0.0
H444 H 0.27989 0.24977 0.83951 0.0
H445 H 0.10811 0.11772 0.74019 0.0
H446 H 0.34089 0.37985 0.62566 0.0
H447 H 0.26168 0.17514 0.91311 0.0
H448 H 0.21251 0.12365 0.8961 0.0
H449 H 0.38273 0.37751 0.68052 0.0
H450 H 0.1616 0.09289 0.85324 0.0
N451 N 0.24031 0.20525 0.81992 0.0
C452 C 0.26568 0.22528 0.8448 0.0
C453 C 0.25536 0.18338 0.88703 0.0
C454 C 0.22808 0.16379 0.86228 0.0
C455 C 0.27388 0.2145 0.87838 0.0
C456 C 0.22089 0.17568 0.82862 0.0
H457 H 0.12208 0.09084 0.79536 0.0
N458 N 0.18507 0.17171 0.77345 0.0
C459 C 0.13183 0.12875 0.75845 0.0
C460 C 0.1924 0.15832 0.80457 0.0
C461 C 0.15465 0.15824 0.75101 0.0
C462 C 0.13986 0.11359 0.78954 0.0
C463 C 0.17016 0.12868 0.81338 0.0
O464 O 0.1813 0.2357 0.75826 0.0
O465 O 0.23829 0.25067 0.71658 0.0
O466 O 0.29107 0.2883 0.73508 0.0
O467 O 0.27293 0.26189 0.78194 0.0
O468 O 0.18864 0.22425 0.71093 0.0
O469 O 0.22692 0.26001 0.79582 0.0
O470 O 0.32497 0.22937 0.70695 0.0
O471 O 0.26853 0.21174 0.75219 0.0
O472 O 0.2149 0.17477 0.73398 0.0
O473 O 0.23596 0.19848 0.68737 0.0
O474 O 0.31774 0.23885 0.75683 0.0
O475 O 0.28084 0.21136 0.66558 0.0
C476 C 0.20975 0.2452 0.69634 0.0
C477 C 0.17664 0.25546 0.80923 0.0
C478 C 0.15696 0.28284 0.84536 0.0
C479 C 0.1762 0.28442 0.82195 0.0
C480 C 0.13812 0.25226 0.85561 0.0
C481 C 0.15774 0.2252 0.82015 0.0
C482 C 0.13854 0.22368 0.84308 0.0
C483 C 0.29001 0.28781 0.76748 0.0
C484 C 0.19581 0.2568 0.78379 0.0
C485 C 0.17818 0.11581 0.84614 0.0
C486 C 0.20714 0.13333 0.87054 0.0
C487 C 0.29771 0.21677 0.77174 0.0
C488 C 0.33231 0.21737 0.65389 0.0
C489 C 0.33636 0.19041 0.64095 0.0
C490 C 0.35855 0.19525 0.61989 0.0
C491 C 0.37602 0.2273 0.61158 0.0
C492 C 0.34995 0.24901 0.64497 0.0
C493 C 0.37161 0.25387 0.62391 0.0
C494 C 0.2185 0.17314 0.70255 0.0
C495 C 0.31128 0.21244 0.67822 0.0
H496 H 0.19045 0.30794 0.8135 0.0
H497 H 0.1228 0.25053 0.87315 0.0
H498 H 0.1575 0.20269 0.81065 0.0
H499 H 0.12376 0.20021 0.85102 0.0
H500 H 0.32316 0.16593 0.64816 0.0
H501 H 0.39314 0.23183 0.59542 0.0
H502 H 0.34736 0.26999 0.65467 0.0
H503 H 0.38531 0.27839 0.61736 0.0
Eu504 Eu 0.78238 0.2082 0.74083 0.0
C505 C 0.71737 0.30002 0.66332 0.0
C506 C 0.76585 0.34915 0.66659 0.0
C507 C 0.71807 0.33943 0.61743 0.0
C508 C 0.74913 0.31937 0.68062 0.0
C509 C 0.7012 0.31025 0.63191 0.0
C510 C 0.75033 0.35881 0.6347 0.0
C511 C 0.65175 0.2636 0.63291 0.0
N512 N 0.70165 0.27198 0.67794 0.0
C513 C 0.66868 0.25465 0.6642 0.0
C514 C 0.66822 0.29131 0.61645 0.0
Eu515 Eu 0.73224 0.25871 0.73103 0.0
N516 N 0.7635 0.30944 0.71142 0.0
C517 C 0.79397 0.32873 0.73016 0.0
C518 C 0.79762 0.36842 0.68512 0.0
C519 C 0.81166 0.35823 0.71714 0.0
H520 H 0.65585 0.23335 0.67714 0.0
H521 H 0.83606 0.37311 0.73186 0.0
H522 H 0.76291 0.38144 0.6234 0.0
H523 H 0.62599 0.24926 0.62164 0.0
H524 H 0.80496 0.32138 0.75501 0.0
H525 H 0.70533 0.07801 0.71919 0.0
H526 H 0.8113 0.39135 0.67514 0.0
H527 H 0.8498 0.23682 0.81 0.0
H528 H 0.7346 0.13319 0.70243 0.0
H529 H 0.86698 0.22434 0.87049 0.0
H530 H 0.70615 0.34753 0.59317 0.0
H531 H 0.71247 0.064 0.78067 0.0
H532 H 0.74165 0.08063 0.84209 0.0
H533 H 0.65496 0.29835 0.59233 0.0
H534 H 0.78585 0.12092 0.88367 0.0
N535 N 0.75545 0.15249 0.75407 0.0
C536 C 0.73685 0.12842 0.72951 0.0
C537 C 0.72479 0.08876 0.77352 0.0
C538 C 0.74623 0.11253 0.79848 0.0
C539 C 0.72067 0.09659 0.73883 0.0
C540 C 0.7618 0.14449 0.78782 0.0
H541 H 0.83331 0.1741 0.89433 0.0
N542 N 0.80386 0.19614 0.79933 0.0
C543 C 0.8439 0.20833 0.85439 0.0
C544 C 0.78662 0.16715 0.81123 0.0
C545 C 0.83349 0.21561 0.81989 0.0
C546 C 0.82485 0.18 0.86772 0.0
C547 C 0.79643 0.15847 0.84588 0.0
O548 O 0.83534 0.21869 0.74673 0.0
O549 O 0.77897 0.25665 0.72272 0.0
O550 O 0.71442 0.22828 0.68218 0.0
O551 O 0.73394 0.18571 0.70051 0.0
O552 O 0.78364 0.22771 0.68765 0.0
O553 O 0.79824 0.18376 0.70773 0.0
O554 O 0.68803 0.25433 0.74722 0.0
O555 O 0.74328 0.21682 0.75999 0.0
O556 O 0.81085 0.25529 0.7719 0.0
O557 O 0.76906 0.26875 0.78335 0.0
O558 O 0.69407 0.20959 0.73629 0.0
O559 O 0.73212 0.29766 0.76157 0.0
C560 C 0.7831 0.256 0.69285 0.0
C561 C 0.85184 0.18079 0.72291 0.0
C562 C 0.87104 0.15051 0.69056 0.0
C563 C 0.84821 0.16463 0.69268 0.0
C564 C 0.8977 0.15214 0.71899 0.0
C565 C 0.87839 0.18238 0.75151 0.0
C566 C 0.90119 0.16789 0.7495 0.0
C567 C 0.71467 0.19889 0.67849 0.0
C568 C 0.82973 0.1988 0.72155 0.0
C569 C 0.77896 0.12776 0.8571 0.0
C570 C 0.75385 0.10481 0.83342 0.0
C571 C 0.71385 0.19678 0.75654 0.0
C572 C 0.6803 0.30241 0.75733 0.0
C573 C 0.67441 0.31209 0.78641 0.0
C574 C 0.65404 0.3306 0.78324 0.0
C575 C 0.63866 0.3385 0.75022 0.0
C576 C 0.66545 0.31078 0.7245 0.0
C577 C 0.64437 0.32852 0.72099 0.0
C578 C 0.79982 0.26922 0.79161 0.0
C579 C 0.70129 0.28277 0.76257 0.0
H580 H 0.82818 0.16399 0.6702 0.0
H581 H 0.9158 0.14147 0.71746 0.0
H582 H 0.88186 0.19525 0.77495 0.0
H583 H 0.92187 0.16933 0.77139 0.0
H584 H 0.68563 0.30496 0.81163 0.0
H585 H 0.62285 0.35291 0.74701 0.0
H586 H 0.67 0.30372 0.70175 0.0
H587 H 0.63271 0.33482 0.69563 0.0
Eu588 Eu 0.74269 0.70105 0.70367 0.0
C589 C 0.84197 0.80006 0.82127 0.0
C590 C 0.84936 0.76593 0.87082 0.0
C591 C 0.89324 0.81743 0.86679 0.0
C592 C 0.82994 0.77169 0.83886 0.0
C593 C 0.87362 0.82341 0.83532 0.0
C594 C 0.88118 0.78873 0.88443 0.0
C595 C 0.8637 0.85767 0.7869 0.0
N596 N 0.82247 0.80527 0.79089 0.0
C597 C 0.83248 0.83391 0.77399 0.0
C598 C 0.88443 0.85234 0.81759 0.0
Eu599 Eu 0.7698 0.76385 0.77173 0.0
N600 N 0.79888 0.75025 0.82541 0.0
C601 C 0.78511 0.72359 0.84354 0.0
C602 C 0.83598 0.73774 0.88857 0.0
C603 C 0.80358 0.71666 0.87501 0.0
H604 H 0.8164 0.83822 0.75037 0.0
H605 H 0.79278 0.69504 0.88876 0.0
H606 H 0.89644 0.78465 0.90888 0.0
H607 H 0.8717 0.88014 0.77325 0.0
H608 H 0.76014 0.70697 0.83359 0.0
H609 H 0.72951 0.76861 0.58388 0.0
H610 H 0.85019 0.73237 0.91306 0.0
H611 H 0.69498 0.62555 0.7183 0.0
H612 H 0.75872 0.75523 0.64016 0.0
H613 H 0.63908 0.58532 0.6933 0.0
H614 H 0.91764 0.83504 0.87791 0.0
H615 H 0.67034 0.73627 0.55921 0.0
H616 H 0.62023 0.6876 0.56315 0.0
H617 H 0.90855 0.87086 0.82761 0.0
H618 H 0.59559 0.63735 0.59281 0.0
N619 N 0.71646 0.71596 0.6488 0.0
C620 C 0.7329 0.74083 0.6303 0.0
C621 C 0.68304 0.73026 0.58424 0.0
C622 C 0.66692 0.7035 0.60218 0.0
C623 C 0.71643 0.74849 0.59801 0.0
C624 C 0.68465 0.69667 0.63466 0.0
H625 H 0.60272 0.59863 0.6409 0.0
N626 N 0.68959 0.66144 0.68108 0.0
C627 C 0.6476 0.60869 0.68135 0.0
C628 C 0.67079 0.66845 0.6513 0.0
C629 C 0.67917 0.63147 0.69543 0.0
C630 C 0.6271 0.61635 0.65186 0.0
C631 C 0.63885 0.64624 0.63603 0.0
O632 O 0.759 0.65974 0.70316 0.0
O633 O 0.77725 0.71965 0.75539 0.0
O634 O 0.8139 0.77216 0.7506 0.0
O635 O 0.78483 0.7473 0.69697 0.0
O636 O 0.75247 0.6699 0.74985 0.0
O637 O 0.76979 0.69763 0.66633 0.0
O638 O 0.74587 0.79963 0.77016 0.0
O639 O 0.73479 0.74486 0.72019 0.0
O640 O 0.69933 0.69055 0.72761 0.0
O641 O 0.7284 0.71845 0.77984 0.0
O642 O 0.75925 0.79458 0.72504 0.0
O643 O 0.75192 0.77134 0.8157 0.0
C644 C 0.77478 0.69273 0.77057 0.0
C645 C 0.76327 0.64418 0.65013 0.0
C646 C 0.78058 0.61472 0.61363 0.0
C647 C 0.78858 0.63948 0.63836 0.0
C648 C 0.74721 0.59442 0.60161 0.0
C649 C 0.73017 0.62374 0.6373 0.0
C650 C 0.72228 0.5989 0.61343 0.0
C651 C 0.81148 0.76761 0.71795 0.0
C652 C 0.77156 0.66939 0.67676 0.0
C653 C 0.62031 0.65392 0.60476 0.0
C654 C 0.63432 0.68254 0.58787 0.0
C655 C 0.73708 0.77149 0.70436 0.0
C656 C 0.75049 0.82451 0.8221 0.0
C657 C 0.72822 0.82792 0.83981 0.0
C658 C 0.73425 0.85823 0.85551 0.0
C659 C 0.7631 0.88466 0.8526 0.0
C660 C 0.77943 0.85106 0.82132 0.0
C661 C 0.78562 0.88084 0.8364 0.0
C662 C 0.7018 0.69708 0.76 0.0
C663 C 0.7419 0.79472 0.80126 0.0
H664 H 0.81425 0.65505 0.64823 0.0
H665 H 0.74044 0.57473 0.58329 0.0
H666 H 0.71038 0.62672 0.64592 0.0
H667 H 0.69671 0.58298 0.60408 0.0
H668 H 0.7062 0.80707 0.84068 0.0
H669 H 0.76831 0.90891 0.86197 0.0
H670 H 0.79672 0.84921 0.80792 0.0
H671 H 0.80761 0.90144 0.83465 0.0
Cd672 Cd 0.96889 0.96027 0.52138 0.0
Cd673 Cd 0.04081 0.00615 0.44916 0.0
C674 C 0.01704 0.92406 0.55376 0.0
N675 N 0.9986 0.92733 0.52199 0.0
C676 C 0.02029 0.89556 0.49629 0.0
C677 C 0.04136 0.8939 0.52828 0.0
C678 C 0.03884 0.90737 0.55758 0.0
C679 C 0.9993 0.91294 0.4936 0.0
H680 H 0.01551 0.93537 0.57595 0.0
H681 H 0.98481 0.91574 0.46858 0.0
C682 C 0.96507 0.96276 0.43171 0.0
C683 C 0.99619 0.04742 0.42361 0.0
C684 C 0.97867 0.06748 0.42478 0.0
C685 C 0.98755 0.08728 0.45413 0.0
C686 C 0.01657 0.08967 0.47965 0.0
C687 C 0.03377 0.06932 0.47702 0.0
N688 N 0.0218 0.04733 0.45052 0.0
H689 H 0.98857 0.03104 0.40183 0.0
H690 H 0.0557 0.06993 0.49662 0.0
C691 C 0.05028 0.94347 0.43612 0.0
N692 N 0.06497 0.96729 0.46078 0.0
C693 C 0.1098 0.94773 0.48281 0.0
C694 C 0.09549 0.92339 0.45676 0.0
C695 C 0.06507 0.92117 0.43366 0.0
C696 C 0.09389 0.96975 0.48438 0.0
H697 H 0.02786 0.94292 0.41715 0.0
H698 H 0.10546 -0.01027 0.50301 0.0
C699 C 0.0416 0.00901 0.54004 0.0
C700 C 0.93277 0.92141 0.56492 0.0
N701 N 0.94242 -0.00309 0.50607 0.0
C702 C 0.96163 0.02828 0.51539 0.0
C703 C 0.94711 0.04994 0.52095 0.0
C704 C 0.91266 0.03882 0.5172 0.0
C705 C 0.893 0.00752 0.50328 0.0
C706 C 0.90869 -0.01349 0.49814 0.0
C707 C 0.07776 0.04236 0.40531 0.0
O708 O 0.97506 0.96756 0.46388 0.0
O709 O 0.98626 0.97416 0.4141 0.0
O710 O 0.03411 0.00253 0.50806 0.0
O711 O 0.01951 -0.00316 0.55647 0.0
O712 O 0.925 0.91296 0.53324 0.0
O713 O 0.95562 0.94865 0.57468 0.0
O714 O 0.08694 0.05024 0.43723 0.0
O715 O 0.0528 0.01667 0.395 0.0
H716 H 0.98836 0.03546 0.52228 0.0
H717 H 0.8943 0.96106 0.49169 0.0
H718 H 0.02124 0.88511 0.47325 0.0
H719 H 0.05415 0.90575 0.58296 0.0
H720 H 0.95734 0.06628 0.4037 0.0
H721 H 0.02458 0.10538 0.50217 0.0
H722 H 0.13348 0.95042 0.50075 0.0
H723 H 0.05366 0.90355 0.41249 0.0
H724 H 0.9629 0.07402 0.53164 0.0
H725 H 0.8664 -0.00184 0.50054 0.0
Cd726 Cd 0.49335 0.94627 0.03474 0.0
Cd727 Cd 0.52308 0.02538 0.94355 0.0
C728 C 0.56534 0.93665 0.07362 0.0
N729 N 0.53635 0.92161 0.04977 0.0
C730 C 0.55299 0.87508 0.04874 0.0
C731 C 0.58269 0.88963 0.07422 0.0
C732 C 0.58877 0.92124 0.08598 0.0
C733 C 0.53016 0.89143 0.03699 0.0
H734 H 0.5701 0.96035 0.08404 0.0
H735 H 0.50692 0.87945 0.01842 0.0
C736 C 0.47051 0.95014 0.93923 0.0
C737 C 0.45908 0.04153 0.89695 0.0
C738 C 0.43593 0.05699 0.88359 0.0
C739 C 0.4344 0.08179 0.90268 0.0
C740 C 0.4566 0.08973 0.93565 0.0
C741 C 0.47951 0.07355 0.94809 0.0
N742 N 0.48054 0.04999 0.9286 0.0
H743 H 0.46062 0.02335 0.8814 0.0
H744 H 0.49698 0.08043 0.973 0.0
C745 C 0.5395 0.97238 0.90547 0.0
N746 N 0.54746 -0.01307 0.93683 0.0
C747 C 0.58747 0.96085 0.95909 0.0
C748 C 0.58019 0.94604 0.9267 0.0
C749 C 0.5551 0.95139 0.90006 0.0
C750 C 0.57071 0.98127 0.96359 0.0
H751 H 0.52133 0.97749 0.88437 0.0
H752 H 0.57708 -0.00655 -0.01181 0.0
C753 C 0.54639 0.02037 0.03819 0.0
C754 C 0.44538 0.90148 0.06752 0.0
N755 N 0.46724 -0.01519 0.03638 0.0
C756 C 0.4727 -0.00127 0.06752 0.0
C757 C 0.45556 0.01881 0.07138 0.0
C758 C 0.43236 0.02469 0.04301 0.0
C759 C 0.42796 0.01109 0.01082 0.0
C760 C 0.44556 -0.00913 0.00812 0.0
C761 C 0.5699 0.07151 0.91075 0.0
O762 O 0.48211 0.95451 0.97167 0.0
O763 O 0.47924 0.97423 0.91982 0.0
O764 O 0.53318 0.0152 0.00607 0.0
O765 O 0.53754 -0.0028 0.05857 0.0
O766 O 0.44398 0.89696 0.03618 0.0
O767 O 0.46969 0.92543 0.08347 0.0
O768 O 0.5764 0.07013 0.94347 0.0
O769 O 0.54168 0.0526 0.89415 0.0
H770 H 0.48973 -0.00654 0.08973 0.0
H771 H 0.44096 0.97918 0.98369 0.0
H772 H 0.54672 0.85071 0.0389 0.0
H773 H 0.61135 0.93398 0.10506 0.0
H774 H 0.42013 0.05022 0.85786 0.0
H775 H 0.45646 0.10838 0.95168 0.0
H776 H 0.60683 0.95783 0.98034 0.0
H777 H 0.54803 0.94004 0.87486 0.0
H778 H 0.45976 0.02901 0.0966 0.0
H779 H 0.41002 0.01479 -0.0116 0.0
Cd780 Cd 0.98815 0.44091 0.0318 0.0
Cd781 Cd 0.02221 0.52246 0.94033 0.0
C782 C 0.05912 0.42866 0.06919 0.0
N783 N 0.02881 0.4132 0.04751 0.0
C784 C 0.04153 0.36374 0.05142 0.0
C785 C 0.07263 0.37881 0.07476 0.0
C786 C 0.08131 0.41208 0.08286 0.0
C787 C 0.02001 0.3813 0.03826 0.0
H788 H 0.06595 0.45377 0.07689 0.0
H789 H 0.99572 0.36899 0.02153 0.0
C790 C 0.96659 0.451 0.94001 0.0
C791 C 0.9558 0.5396 0.89876 0.0
C792 C 0.93454 0.55717 0.88542 0.0
C793 C 0.94131 0.58834 0.89889 0.0
C794 C 0.96936 0.60012 0.92702 0.0
C795 C 0.99005 0.58161 0.9397 0.0
N796 N 0.98325 0.55194 0.92529 0.0
H797 H 0.95075 0.51636 0.88702 0.0
H798 H 0.01218 0.59153 0.96036 0.0
C799 C 0.03513 0.46171 0.9097 0.0
N800 N 0.04739 0.48401 0.93611 0.0
C801 C 0.09401 0.46648 0.95792 0.0
C802 C 0.08163 0.44319 0.93111 0.0
C803 C 0.05165 0.44062 0.90708 0.0
C804 C 0.07621 0.48659 0.96011 0.0
H805 H 0.01291 0.46063 0.89014 0.0
H806 H 0.08581 0.50486 0.98053 0.0
C807 C 0.04272 0.51458 0.03572 0.0
C808 C 0.94048 0.39825 0.0651 0.0
N809 N 0.96348 0.48009 0.03629 0.0
C810 C 0.96839 0.49277 0.06794 0.0
C811 C 0.95279 0.51428 0.07207 0.0
C812 C 0.93195 0.52303 0.04341 0.0
C813 C 0.92767 0.51014 0.01092 0.0
C814 C 0.94347 0.48832 0.00798 0.0
C815 C 0.07023 0.56573 0.90722 0.0
O816 O 0.98318 0.45608 0.97116 0.0
O817 O 0.97466 0.47316 0.91838 0.0
O818 O 0.03097 0.51128 0.00321 0.0
O819 O 0.03198 0.49089 0.05488 0.0
O820 O 0.93425 0.3979 0.03228 0.0
O821 O 0.96891 0.41705 0.08145 0.0
O822 O 0.07619 0.56549 0.93994 0.0
O823 O 0.04194 0.54697 0.89048 0.0
H824 H 0.98416 0.48584 0.09015 0.0
H825 H 0.93917 0.47756 0.98314 0.0
H826 H 0.03319 0.3382 0.04434 0.0
H827 H 0.10506 0.42534 0.10002 0.0
H828 H 0.91304 0.54636 0.86435 0.0
H829 H 0.97608 0.62397 0.93839 0.0
H830 H 0.11726 0.46926 0.97672 0.0
H831 H 0.0417 0.42316 0.8858 0.0
H832 H 0.95685 0.52394 0.09751 0.0
H833 H 0.91156 0.51614 -0.01175 0.0
Cd834 Cd 0.46801 0.46188 0.01884 0.0
Cd835 Cd 0.54004 0.50709 0.95704 0.0
C836 C 0.51986 0.42909 0.04938 0.0
N837 N 0.49457 0.42561 0.02095 0.0
C838 C 0.50718 0.38485 -0.00272 0.0
C839 C 0.53564 0.39057 0.02466 0.0
C840 C 0.54057 0.41144 0.05202 0.0
C841 C 0.48647 0.4025 -0.00379 0.0
H842 H 0.52444 0.44632 0.06957 0.0
H843 H 0.46477 0.39859 0.97497 0.0
C844 C 0.46766 0.45299 0.9305 0.0
C845 C 0.48234 0.53263 0.95346 0.0
C846 C 0.46646 0.55464 0.95176 0.0
C847 C 0.48477 0.58627 0.96512 0.0
C848 C 0.51804 0.59407 0.98352 0.0
C849 C 0.53291 0.57053 0.98554 0.0
N850 N 0.51497 0.54079 0.96979 0.0
H851 H 0.46899 0.51022 0.93911 0.0
H852 H 0.55923 0.57682 -0.00284 0.0
C853 C 0.54939 0.43905 0.95179 0.0
N854 N 0.56607 0.46975 0.96516 0.0
C855 C 0.61806 0.46222 0.97566 0.0
C856 C 0.60164 0.43154 0.95922 0.0
C857 C 0.56684 0.41916 0.94896 0.0
C858 C 0.59954 0.48115 0.97837 0.0
H859 H 0.52287 0.43073 0.94112 0.0
H860 H 0.61203 0.50588 -0.01152 0.0
C861 C 0.54883 0.5118 0.04093 0.0
C862 C 0.43705 0.42469 0.06718 0.0
N863 N 0.43927 0.49739 0.00761 0.0
C864 C 0.45589 0.52568 0.02614 0.0
C865 C 0.43934 0.54583 0.03036 0.0
C866 C 0.405 0.53672 0.01579 0.0
C867 C 0.38879 0.50853 -0.00551 0.0
C868 C 0.40656 0.48883 -0.00907 0.0
C869 C 0.57438 0.5479 0.9122 0.0
O870 O 0.46783 0.45614 0.9614 0.0
O871 O 0.4927 0.4697 0.9197 0.0
O872 O 0.55589 0.49905 0.01818 0.0
O873 O 0.51937 0.50326 0.04407 0.0
O874 O 0.42529 0.41661 0.03535 0.0
O875 O 0.46198 0.45079 0.07563 0.0
O876 O 0.58863 0.54938 0.94413 0.0
O877 O 0.54505 0.52796 0.90204 0.0
H878 H 0.48157 0.53166 0.03986 0.0
H879 H 0.3938 0.46572 0.97706 0.0
H880 H 0.50189 0.36846 0.97602 0.0
H881 H 0.56088 0.415 0.07483 0.0
H882 H 0.44064 0.54784 0.93745 0.0
H883 H 0.53281 0.61851 -0.00627 0.0
H884 H 0.64496 0.47246 0.98348 0.0
H885 H 0.55351 0.39573 0.9357 0.0
H886 H 0.45302 0.56677 0.04762 0.0
H887 H 0.36237 0.50073 0.98258 0.0
Cd888 Cd 0.99395 0.44646 0.53456 0.0
Cd889 Cd 0.01846 0.52152 0.43832 0.0
C890 C 0.0526 0.42462 0.58519 0.0
N891 N 0.03705 0.42251 0.55101 0.0
C892 C 0.06677 0.38894 0.54129 0.0
C893 C 0.08227 0.38981 0.57675 0.0
C894 C 0.07516 0.40848 0.59855 0.0
C895 C 0.04399 0.40529 0.52896 0.0
H896 H 0.04678 0.43822 0.60241 0.0
H897 H 0.03122 0.40344 0.50192 0.0
C898 C 0.96407 0.45072 0.44181 0.0
C899 C 0.9478 0.53371 0.39912 0.0
C900 C 0.92578 0.5507 0.38702 0.0
C901 C 0.93444 0.58296 0.39828 0.0
C902 C 0.9649 0.59682 0.42274 0.0
C903 C 0.98595 0.57876 0.43465 0.0
N904 N 0.97745 0.54786 0.42245 0.0
H905 H 0.94148 0.50958 0.38882 0.0
H906 H 0.00967 0.58986 0.45288 0.0
C907 C 0.03361 0.46006 0.41323 0.0
N908 N 0.04562 0.48406 0.43789 0.0
C909 C 0.09476 0.47065 0.45961 0.0
C910 C 0.08309 0.44619 0.43408 0.0
C911 C 0.05188 0.4405 0.41114 0.0
C912 C 0.07541 0.48931 0.46118 0.0
H913 H 0.01047 0.45686 0.39423 0.0
H914 H 0.08478 0.50891 0.48012 0.0
C915 C 0.04429 0.52138 0.53331 0.0
C916 C 0.94813 0.40342 0.56996 0.0
N917 N 0.96462 0.48179 0.53609 0.0
C918 C 0.97471 0.50327 0.56295 0.0
C919 C 0.95668 0.52306 0.56488 0.0
C920 C 0.92714 0.51972 0.5398 0.0
C921 C 0.91685 0.49709 0.51261 0.0
C922 C 0.93623 0.47843 0.51111 0.0
C923 C 0.06552 0.56554 0.40475 0.0
O924 O 0.98219 0.45734 0.47236 0.0
O925 O 0.97055 0.47179 0.41878 0.0
O926 O 0.03164 0.51475 0.50136 0.0
O927 O 0.03766 0.49867 0.55484 0.0
O928 O 0.94701 0.39631 0.53936 0.0
O929 O 0.97129 0.42913 0.58396 0.0
O930 O 0.06423 0.57292 0.43423 0.0
O931 O 0.04433 0.53876 0.3908 0.0
H932 H 0.99623 0.5044 0.58355 0.0
H933 H 0.92803 0.46051 0.49058 0.0
H934 H 0.07122 0.37474 0.52344 0.0
H935 H 0.08669 0.4103 0.62594 0.0
H936 H 0.9028 0.53918 0.36785 0.0
H937 H 0.97257 0.62159 0.43223 0.0
H938 H 0.11903 0.47595 0.47737 0.0
H939 H 0.04254 0.42222 0.39071 0.0
H940 H 0.96485 0.53968 0.58669 0.0
H941 H 0.89384 0.49353 0.49313 0.0
Cd942 Cd 0.49117 0.94553 0.53463 0.0
Cd943 Cd 0.52456 0.02558 0.44171 0.0
C944 C 0.55013 0.92243 0.58334 0.0
N945 N 0.53023 0.91616 0.55073 0.0
C946 C 0.55253 0.87498 0.54359 0.0
C947 C 0.5733 0.88078 0.57746 0.0
C948 C 0.57158 0.90514 0.59713 0.0
C949 C 0.53114 0.89282 0.53081 0.0
H950 H 0.54881 0.94051 0.5992 0.0
H951 H 0.51494 0.8876 0.5051 0.0
C952 C 0.46685 0.95458 0.44005 0.0
C953 C 0.45603 0.04153 0.40094 0.0
C954 C 0.43436 0.05886 0.38842 0.0
C955 C 0.44272 0.09119 0.39972 0.0
C956 C 0.47297 0.10446 0.42492 0.0
C957 C 0.49391 0.08612 0.43698 0.0
N958 N 0.48545 0.0552 0.42472 0.0
H959 H 0.44937 0.01724 0.39086 0.0
H960 H 0.51742 0.09701 0.45559 0.0
C961 C 0.53424 0.96175 0.41318 0.0
N962 N 0.54954 -0.01362 0.43719 0.0
C963 C 0.5972 0.96965 0.45398 0.0
C964 C 0.58185 0.94395 0.42927 0.0
C965 C 0.54935 0.93973 0.40971 0.0
C966 C 0.58041 -0.00961 0.45772 0.0
H967 H 0.51047 0.95923 0.39587 0.0
H968 H 0.5925 0.0104 0.47633 0.0
C969 C 0.54722 0.01586 0.53361 0.0
C970 C 0.44268 0.90372 0.56797 0.0
N971 N 0.46751 -0.01495 0.53974 0.0
C972 C 0.47692 0.00212 0.56983 0.0
C973 C 0.46084 0.02305 0.57435 0.0
C974 C 0.4346 0.02641 0.54779 0.0
C975 C 0.42593 0.00917 0.51665 0.0
C976 C 0.4426 -0.0117 0.51329 0.0
C977 C 0.57522 0.06722 0.41167 0.0
O978 O 0.48077 0.95816 0.47214 0.0
O979 O 0.47648 0.97792 0.42011 0.0
O980 O 0.53078 0.01009 0.50247 0.0
O981 O 0.53937 -0.00566 0.55591 0.0
O982 O 0.43773 0.90235 0.53545 0.0
O983 O 0.47047 0.92334 0.58471 0.0
O984 O 0.57463 0.07363 0.44188 0.0
O985 O 0.55173 0.04279 0.39548 0.0
H986 H 0.49642 -0.00111 0.5907 0.0
H987 H 0.43492 0.97398 0.48985 0.0
H988 H 0.55273 0.85689 0.52689 0.0
H989 H 0.58601 0.91042 0.62354 0.0
H990 H 0.4112 0.04684 0.36976 0.0
H991 H 0.48104 0.12923 0.43453 0.0
H992 H 0.62226 0.97446 0.46963 0.0
H993 H 0.53551 0.91985 0.39119 0.0
H994 H 0.46862 0.03624 0.59862 0.0
H995 H 0.40572 0.01087 0.49562 0.0
C996 C 0.14744 0.16247 0.26104 0.0
C997 C 0.18186 0.17298 0.27459 0.0
C998 C 0.12628 0.13918 0.27844 0.0
C999 C 0.14038 0.12647 0.30953 0.0
C1000 C 0.17521 0.13589 0.322 0.0
C1001 C 0.19546 0.15884 0.3041 0.0
C1002 C 0.08914 0.12929 0.26452 0.0
C1003 C 0.19123 0.12259 0.35485 0.0
C1004 C 0.10137 0.09732 0.38342 0.0
C1005 C 0.09306 0.06366 0.3803 0.0
C1006 C 0.11401 0.11805 0.35843 0.0
C1007 C 0.11943 0.10462 0.33059 0.0
C1008 C 0.11014 0.07048 0.32687 0.0
C1009 C 0.09652 0.05025 0.35169 0.0
C1010 C 0.12307 0.15438 0.3627 0.0
C1011 C 0.11631 0.05554 0.29783 0.0
H1012 H 0.1372 0.17315 0.23768 0.0
H1013 H 0.22214 0.16581 0.31331 0.0
H1014 H 0.07698 0.1024 0.26478 0.0
H1015 H 0.07905 0.13996 0.28127 0.0
H1016 H 0.08232 0.13776 0.23785 0.0
H1017 H 0.21877 0.13154 0.35995 0.0
H1018 H 0.18471 0.12995 0.37705 0.0
H1019 H 0.18178 0.09555 0.35356 0.0
H1020 H 0.09755 0.10736 0.40516 0.0
H1021 H 0.08944 0.02401 0.34929 0.0
H1022 H 0.11382 0.165 0.33799 0.0
H1023 H 0.15052 0.16625 0.37033 0.0
H1024 H 0.11275 0.16034 0.38267 0.0
H1025 H 0.10644 0.0652 0.27275 0.0
H1026 H 0.10478 0.02851 0.29683 0.0
H1027 H 0.14347 0.06228 0.30123 0.0
C1028 C 0.87252 0.15439 0.36648 0.0
C1029 C 0.84169 0.14538 0.37433 0.0
C1030 C 0.90119 0.15779 0.39237 0.0
C1031 C 0.89857 0.15228 0.42679 0.0
C1032 C 0.86911 0.15051 0.43521 0.0
C1033 C 0.84016 0.14557 0.40859 0.0
C1034 C 0.93247 0.16109 0.38193 0.0
C1035 C 0.86755 0.14939 0.47222 0.0
C1036 C 0.93061 0.08506 0.44889 0.0
C1037 C 0.96467 0.10296 0.45832 0.0
C1038 C 0.90758 0.10054 0.44338 0.0
C1039 C 0.91925 0.1349 0.44827 0.0
C1040 C 0.95313 0.15195 0.46408 0.0
C1041 C 0.97586 0.13578 0.46841 0.0
C1042 C 0.87158 0.08058 0.42714 0.0
C1043 C 0.96602 0.18778 0.47315 0.0
H1044 H 0.87368 0.15503 0.33981 0.0
H1045 H 0.81636 0.14 0.41447 0.0
H1046 H 0.9544 0.17937 0.39861 0.0
H1047 H 0.93635 0.13733 0.38474 0.0
H1048 H 0.93117 0.16862 0.35475 0.0
H1049 H 0.84323 0.14919 0.47474 0.0
H1050 H 0.87199 0.12742 0.48446 0.0
H1051 H 0.88772 0.17085 0.48658 0.0
H1052 H 0.92204 0.05913 0.4431 0.0
H1053 H 1.00228 0.14937 0.47709 0.0
H1054 H 0.86498 0.08682 0.3996 0.0
H1055 H 0.85476 0.08572 0.44008 0.0
H1056 H 0.86672 0.05392 0.42846 0.0
H1057 H 0.97987 0.20192 0.45443 0.0
H1058 H 0.98388 0.19248 0.49891 0.0
H1059 H 0.94575 0.1968 0.47335 0.0
C1060 C 0.80383 0.83289 0.31404 0.0
C1061 C 0.81796 0.82364 0.29099 0.0
C1062 C 0.82338 0.85638 0.3399 0.0
C1063 C 0.85783 0.87068 0.34268 0.0
C1064 C 0.87216 0.86187 0.31902 0.0
C1065 C 0.85186 0.83853 0.29315 0.0
C1066 C 0.80732 0.8652 0.36464 0.0
C1067 C 0.90915 0.87591 0.32209 0.0
C1068 C 0.91488 0.95132 0.38421 0.0
C1069 C 0.93154 0.94138 0.41502 0.0
C1070 C 0.88796 0.92862 0.36199 0.0
C1071 C 0.87924 0.89519 0.37 0.0
C1072 C 0.89431 0.88538 0.40242 0.0
C1073 C 0.91939 0.9091 0.4254 0.0
C1074 C 0.87092 0.94002 0.32855 0.0
C1075 C 0.88608 0.84983 0.41173 0.0
H1076 H 0.77751 0.821 0.31241 0.0
H1077 H 0.86286 0.83058 0.2761 0.0
H1078 H 0.81621 0.85675 0.39075 0.0
H1079 H 0.81443 0.89208 0.3664 0.0
H1080 H 0.77977 0.85396 0.3569 0.0
H1081 H 0.91626 0.86623 0.30174 0.0
H1082 H 0.9175 0.90286 0.32035 0.0
H1083 H 0.92269 0.8701 0.34763 0.0
H1084 H 0.92405 0.97656 0.3767 0.0
H1085 H 0.93124 0.90173 0.44999 0.0
H1086 H 0.84357 0.92748 0.32314 0.0
H1087 H 0.87926 0.93385 0.30708 0.0
H1088 H 0.87666 0.9668 0.32894 0.0
H1089 H 0.86083 0.83993 0.41619 0.0
H1090 H 0.90392 0.84625 0.43539 0.0
H1091 H 0.8862 0.83527 0.39039 0.0
C1092 C 0.13256 0.85789 0.31763 0.0
C1093 C 0.14583 0.83316 0.31987 0.0
C1094 C 0.13182 0.87202 0.34728 0.0
C1095 C 0.14507 0.86141 0.38011 0.0
C1096 C 0.16041 0.83791 0.38273 0.0
C1097 C 0.16041 0.82381 0.3525 0.0
C1098 C 0.11522 0.89713 0.34331 0.0
C1099 C 0.17539 0.82659 0.41733 0.0
C1100 C 0.14613 0.91806 0.44617 0.0
C1101 C 0.11349 0.90319 0.44951 0.0
C1102 C 0.159 0.90268 0.42694 0.0
C1103 C 0.13852 0.87207 0.41077 0.0
C1104 C 0.10754 0.85513 0.41837 0.0
C1105 C 0.09545 0.87094 0.43778 0.0
C1106 C 0.19275 0.92095 0.42055 0.0
C1107 C 0.08512 0.82216 0.40217 0.0
H1108 H 0.12209 0.86579 0.29254 0.0
H1109 H 0.17071 0.80463 0.3545 0.0
H1110 H 0.09281 0.88752 0.35361 0.0
H1111 H 0.13231 0.91964 0.3583 0.0
H1112 H 0.10752 0.9037 0.31602 0.0
H1113 H 0.19189 0.81331 0.41523 0.0
H1114 H 0.18982 0.84755 0.4356 0.0
H1115 H 0.15527 0.80997 0.42851 0.0
H1116 H 0.1603 0.94296 0.45537 0.0
H1117 H 0.07036 0.85928 0.44074 0.0
H1118 H 0.18969 0.93346 0.39555 0.0
H1119 H 0.20588 0.90406 0.41912 0.0
H1120 H 0.20844 0.93972 0.44103 0.0
H1121 H 0.07585 0.82481 0.37409 0.0
H1122 H 0.06331 0.81102 0.41324 0.0
H1123 H 0.09906 0.80523 0.40558 0.0
C1124 C 0.16281 0.81699 0.60726 0.0
C1125 C 0.19501 0.83646 0.60496 0.0
C1126 C 0.13524 0.81714 0.58136 0.0
C1127 C 0.14053 0.83657 0.55232 0.0
C1128 C 0.17252 0.84902 0.5461 0.0
C1129 C 0.19995 0.84982 0.57324 0.0
C1130 C 0.10153 0.80316 0.58938 0.0
C1131 C 0.17814 0.8668 0.51348 0.0
C1132 C 0.06202 0.85276 0.51183 0.0
C1133 C 0.06778 0.88075 0.53069 0.0
C1134 C 0.08714 0.83979 0.51543 0.0
C1135 C 0.1179 0.85463 0.53931 0.0
C1136 C 0.12439 0.88418 0.55674 0.0
C1137 C 0.09932 0.89709 0.55159 0.0
C1138 C 0.08051 0.80991 0.49446 0.0
C1139 C 0.15674 0.90109 0.58295 0.0
H1140 H 0.15856 0.80589 0.63137 0.0
H1141 H 0.22489 0.86359 0.57079 0.0
H1142 H 0.095 0.82326 0.59715 0.0
H1143 H 0.08188 0.79051 0.56667 0.0
H1144 H 0.10125 0.78558 0.61073 0.0
H1145 H 0.20096 0.86602 0.50778 0.0
H1146 H 0.15656 0.85604 0.49134 0.0
H1147 H 0.18128 0.89276 0.51643 0.0
H1148 H 0.03773 0.84053 0.49497 0.0
H1149 H 0.10419 0.91969 0.56475 0.0
H1150 H 0.07782 0.78822 0.51087 0.0
H1151 H 0.10175 0.81325 0.48328 0.0
H1152 H 0.05742 0.80461 0.47339 0.0
H1153 H 0.16092 0.88449 0.60438 0.0
H1154 H 0.15705 0.92358 0.5942 0.0
H1155 H 0.1779 0.90805 0.57089 0.0
C1156 C 0.20521 0.14209 0.64838 0.0
C1157 C 0.19946 0.1434 0.68089 0.0
C1158 C 0.1836 0.11783 0.62412 0.0
C1159 C 0.15562 0.09423 0.63266 0.0
C1160 C 0.15137 0.09348 0.66646 0.0
C1161 C 0.17373 0.11798 0.69043 0.0
C1162 C 0.18906 0.11958 0.5884 0.0
C1163 C 0.12181 0.06835 0.67647 0.0
C1164 C 0.07436 0.06356 0.56561 0.0
C1165 C 0.07325 0.03272 0.55764 0.0
C1166 C 0.10222 0.08469 0.58835 0.0
C1167 C 0.12844 0.07362 0.60512 0.0
C1168 C 0.12762 0.04256 0.59675 0.0
C1169 C 0.09996 0.02246 0.57259 0.0
C1170 C 0.10279 0.11817 0.59569 0.0
C1171 C 0.15497 0.02994 0.61466 0.0
H1172 H 0.22566 0.16104 0.64095 0.0
H1173 H 0.17004 0.118 0.71591 0.0
H1174 H 0.18338 0.09494 0.57792 0.0
H1175 H 0.1721 0.13058 0.57092 0.0
H1176 H 0.21501 0.13482 0.58805 0.0
H1177 H 0.12426 0.06866 0.70465 0.0
H1178 H 0.09891 0.07331 0.6631 0.0
H1179 H 0.11857 0.04356 0.66829 0.0
H1180 H 0.05292 0.07072 0.55494 0.0
H1181 H 0.09825 -0.00198 0.56703 0.0
H1182 H 0.12668 0.1371 0.5936 0.0
H1183 H 0.10072 0.11944 0.6224 0.0
H1184 H 0.08213 0.12414 0.57774 0.0
H1185 H 0.17946 0.04763 0.61258 0.0
H1186 H 0.15139 0.00597 0.60385 0.0
H1187 H 0.15572 0.02723 0.64248 0.0
C1188 C 0.8846 0.15337 0.63432 0.0
C1189 C 0.86738 0.13531 0.65792 0.0
C1190 C 0.88332 0.13844 0.6042 0.0
C1191 C 0.86497 0.10466 0.59837 0.0
C1192 C 0.84468 0.08737 0.62042 0.0
C1193 C 0.84616 0.10304 0.65016 0.0
C1194 C 0.90451 0.15788 0.5807 0.0
C1195 C 0.82448 0.05145 0.61507 0.0
C1196 C 0.87077 0.0633 0.52175 0.0
C1197 C 0.8994 0.05588 0.53652 0.0
C1198 C 0.85856 0.079 0.5415 0.0
C1199 C 0.87509 0.08636 0.57671 0.0
C1200 C 0.90311 0.07744 0.59186 0.0
C1201 C 0.91499 0.06257 0.57151 0.0
C1202 C 0.82818 0.08758 0.52489 0.0
C1203 C 0.92084 0.08375 0.62965 0.0
H1204 H 0.90008 0.17876 0.64012 0.0
H1205 H 0.83207 0.08964 0.66821 0.0
H1206 H 0.92779 0.15239 0.58632 0.0
H1207 H 0.89142 0.15111 0.55333 0.0
H1208 H 0.91129 0.18455 0.58438 0.0
H1209 H 0.80273 0.04466 0.62636 0.0
H1210 H 0.81556 0.04423 0.58742 0.0
H1211 H 0.84026 0.03726 0.62816 0.0
H1212 H 0.85823 0.05707 0.49492 0.0
H1213 H 0.93638 0.05559 0.58321 0.0
H1214 H 0.83337 0.11377 0.52955 0.0
H1215 H 0.80751 0.07336 0.53659 0.0
H1216 H 0.81982 0.08241 0.49668 0.0
H1217 H 0.93176 0.11038 0.6353 0.0
H1218 H 0.94111 0.07358 0.63758 0.0
H1219 H 0.90299 0.07276 0.64576 0.0
C1220 C 0.82107 0.81277 0.67848 0.0
C1221 C 0.83411 0.79274 0.7017 0.0
C1222 C 0.84055 0.83529 0.65951 0.0
C1223 C 0.87373 0.83731 0.66374 0.0
C1224 C 0.88754 0.81805 0.68838 0.0
C1225 C 0.86741 0.79593 0.70757 0.0
C1226 C 0.82513 0.85584 0.63387 0.0
C1227 C 0.92293 0.81989 0.69333 0.0
C1228 C 0.90085 0.8665 0.58251 0.0
C1229 C 0.91803 0.8997 0.59033 0.0
C1230 C 0.88826 0.84532 0.60728 0.0
C1231 C 0.8926 0.85794 0.64025 0.0
C1232 C 0.91075 0.89128 0.64861 0.0
C1233 C 0.92333 0.91183 0.62345 0.0
C1234 C 0.86921 0.8097 0.59774 0.0
C1235 C 0.91541 0.90559 0.68339 0.0
H1236 H 0.79531 0.81034 0.6747 0.0
H1237 H 0.87715 0.78031 0.72593 0.0
H1238 H 0.84083 0.88202 0.63808 0.0
H1239 H 0.82361 0.84897 0.60733 0.0
H1240 H 0.7997 0.85275 0.63562 0.0
H1241 H 0.93004 0.80377 0.7141 0.0
H1242 H 0.92618 0.81273 0.66899 0.0
H1243 H 0.94024 0.84533 0.69972 0.0
H1244 H 0.89738 0.85704 0.55711 0.0
H1245 H 0.93692 0.93754 0.62962 0.0
H1246 H 0.84246 0.8041 0.59593 0.0
H1247 H 0.87806 0.79406 0.61793 0.0
H1248 H 0.87165 0.80313 0.57268 0.0
H1249 H 0.89171 0.90767 0.68499 0.0
H1250 H 0.93499 0.93024 0.68783 0.0
H1251 H 0.92204 0.88954 0.70442 0.0
C1252 C 0.29534 0.09385 0.06589 0.0
C1253 C 0.30724 0.11316 0.09622 0.0
C1254 C 0.31639 0.0834 0.05272 0.0
C1255 C 0.35068 0.09352 0.06933 0.0
C1256 C 0.36356 0.11604 0.09749 0.0
C1257 C 0.3417 0.12524 0.11093 0.0
C1258 C 0.30129 0.05923 0.02284 0.0
C1259 C 0.40024 0.12874 0.11486 0.0
C1260 C 0.39364 0.03201 0.07394 0.0
C1261 C 0.4109 0.0423 0.04822 0.0
C1262 C 0.3738 0.04829 0.08052 0.0
C1263 C 0.37158 0.07619 0.06142 0.0
C1264 C 0.38885 0.08671 0.03515 0.0
C1265 C 0.40794 0.06929 0.02849 0.0
C1266 C 0.35513 0.03546 0.10802 0.0
C1267 C 0.38743 0.11638 0.01426 0.0
H1268 H 0.26905 0.08547 0.05321 0.0
H1269 H 0.35154 0.14041 0.13406 0.0
H1270 H 0.31595 0.06649 0.00329 0.0
H1271 H 0.30167 0.03492 0.03222 0.0
H1272 H 0.27515 0.05681 0.01022 0.0
H1273 H 0.40703 0.14955 0.1328 0.0
H1274 H 0.40731 0.10894 0.12967 0.0
H1275 H 0.41498 0.13668 0.09535 0.0
H1276 H 0.39547 0.01084 0.08884 0.0
H1277 H 0.42122 0.07722 0.0085 0.0
H1278 H 0.3282 0.03058 0.09707 0.0
H1279 H 0.36399 0.05403 0.12898 0.0
H1280 H 0.3583 0.01263 0.11939 0.0
H1281 H 0.36233 0.111 -0.00333 0.0
H1282 H 0.40591 0.12403 -0.00152 0.0
H1283 H 0.39195 0.13708 0.03138 0.0
C1284 C 0.81612 0.32411 0.18765 0.0
C1285 C 0.80073 0.2903 0.18235 0.0
C1286 C 0.83742 0.34291 0.16754 0.0
C1287 C 0.84449 0.32724 0.14252 0.0
C1288 C 0.82877 0.29303 0.13712 0.0
C1289 C 0.80592 0.27525 0.1561 0.0
C1290 C 0.85225 0.37944 0.17305 0.0
C1291 C 0.8365 0.2751 0.11175 0.0
C1292 C 0.88153 0.37098 0.06918 0.0
C1293 C 0.91565 0.37906 0.08404 0.0
C1294 C 0.85814 0.35534 0.08842 0.0
C1295 C 0.86911 0.34628 0.12279 0.0
C1296 C 0.90369 0.35491 0.13792 0.0
C1297 C 0.9264 0.37136 0.11845 0.0
C1298 C 0.82188 0.35005 0.0726 0.0
C1299 C 0.91764 0.34792 0.17486 0.0
H1300 H 0.81072 0.33596 0.20692 0.0
H1301 H 0.79205 0.24958 0.15041 0.0
H1302 H 0.87896 0.38654 0.18662 0.0
H1303 H 0.85052 0.39195 0.14797 0.0
H1304 H 0.8397 0.38826 0.18871 0.0
H1305 H 0.8226 0.24844 0.11111 0.0
H1306 H 0.83023 0.28433 0.08544 0.0
H1307 H 0.86356 0.27954 0.11865 0.0
H1308 H 0.8732 0.378 0.04295 0.0
H1309 H 0.95281 0.37819 0.13036 0.0
H1310 H 0.81284 0.36243 0.08885 0.0
H1311 H 0.80661 0.32375 0.07165 0.0
H1312 H 0.81756 0.35959 0.04609 0.0
H1313 H 0.93131 0.37137 0.18953 0.0
H1314 H 0.93592 0.33581 0.17611 0.0
H1315 H 0.8985 0.33261 0.18783 0.0
C1316 C 0.71767 0.80235 0.16859 0.0
C1317 C 0.69917 0.77091 0.17746 0.0
C1318 C 0.70174 0.82266 0.14797 0.0
C1319 C 0.66639 0.81264 0.1385 0.0
C1320 C 0.64781 0.78124 0.14812 0.0
C1321 C 0.66425 0.76064 0.16608 0.0
C1322 C 0.7227 0.85474 0.13612 0.0
C1323 C 0.61035 0.7697 0.14077 0.0
C1324 C 0.62214 0.8749 0.12522 0.0
C1325 C 0.60621 0.87157 0.08982 0.0
C1326 C 0.64284 0.85712 0.14088 0.0
C1327 C 0.64838 0.83527 0.12092 0.0
C1328 C 0.63329 0.83251 0.08494 0.0
C1329 C 0.61238 0.85042 0.06996 0.0
C1330 C 0.65758 0.86066 0.17932 0.0
C1331 C 0.63918 0.81052 0.0622 0.0
H1332 H 0.74446 0.81118 0.17788 0.0
H1333 H 0.64933 0.73659 0.17271 0.0
H1334 H 0.71666 0.85458 0.10755 0.0
H1335 H 0.71701 0.87515 0.14437 0.0
H1336 H 0.74974 0.85945 0.1461 0.0
H1337 H 0.59965 0.74537 0.15165 0.0
H1338 H 0.60281 0.78741 0.15185 0.0
H1339 H 0.59925 0.76826 0.1126 0.0
H1340 H 0.61746 0.89063 0.1412 0.0
H1341 H 0.60092 0.8479 0.04254 0.0
H1342 H 0.68493 0.86726 0.18524 0.0
H1343 H 0.64749 0.837 0.19164 0.0
H1344 H 0.65212 0.87955 0.19108 0.0
H1345 H 0.66619 0.81825 0.06398 0.0
H1346 H 0.62576 0.81095 0.0348 0.0
H1347 H 0.6311 0.78502 0.07107 0.0
C1348 C 0.20284 0.65516 0.13653 0.0
C1349 C 0.19296 0.67707 0.15085 0.0
C1350 C 0.18002 0.6316 0.11202 0.0
C1351 C 0.14673 0.6303 0.10139 0.0
C1352 C 0.13737 0.65421 0.11331 0.0
C1353 C 0.16062 0.67719 0.1382 0.0
C1354 C 0.19079 0.60626 0.10009 0.0
C1355 C 0.102 0.65349 0.10247 0.0
C1356 C 0.08413 0.57019 0.03172 0.0
C1357 C 0.06963 0.54434 0.05169 0.0
C1358 C 0.10982 0.59841 0.04741 0.0
C1359 C 0.12067 0.60064 0.08375 0.0
C1360 C 0.10611 0.57455 0.10399 0.0
C1361 C 0.08082 0.54672 0.08768 0.0
C1362 C 0.1251 0.62586 0.02528 0.0
C1363 C 0.11709 0.57603 0.14293 0.0
H1364 H 0.22804 0.65527 0.14577 0.0
H1365 H 0.15261 0.69358 0.14931 0.0
H1366 H 0.18059 0.58282 0.11273 0.0
H1367 H 0.18091 0.60188 0.07189 0.0
H1368 H 0.21829 0.61351 0.10655 0.0
H1369 H 0.10018 0.67685 0.10885 0.0
H1370 H 0.09152 0.64843 0.07441 0.0
H1371 H 0.08642 0.63361 0.11601 0.0
H1372 H 0.07536 0.56841 0.00396 0.0
H1373 H 0.06967 0.52683 0.10333 0.0
H1374 H 0.1524 0.6319 0.03153 0.0
H1375 H 0.12074 0.6481 0.03078 0.0
H1376 H 0.11472 0.61972 -0.00265 0.0
H1377 H 0.14394 0.57964 0.15164 0.0
H1378 H 0.10305 0.55351 0.15472 0.0
H1379 H 0.1136 0.59709 0.1529 0.0
C1380 C 0.35923 0.77883 0.84119 0.0
C1381 C 0.32568 0.77594 0.8338 0.0
C1382 C 0.384 0.80399 0.86309 0.0
C1383 C 0.37503 0.82723 0.87695 0.0
C1384 C 0.34105 0.8226 0.87205 0.0
C1385 C 0.31687 0.79604 0.85193 0.0
C1386 C 0.41988 0.80701 0.86938 0.0
C1387 C 0.33022 0.84744 0.88492 0.0
C1388 C 0.43547 0.89162 0.94438 0.0
C1389 C 0.44648 0.91838 0.92378 0.0
C1390 C 0.41278 0.86146 0.92955 0.0
C1391 C 0.40086 0.85809 0.89327 0.0
C1392 C 0.41228 0.88495 0.87233 0.0
C1393 C 0.435 0.91467 0.88783 0.0
C1394 C 0.40133 0.83331 0.95268 0.0
C1395 C 0.40017 0.88252 0.8335 0.0
H1396 H 0.36649 0.76284 0.82824 0.0
H1397 H 0.29105 0.79219 0.84889 0.0
H1398 H 0.43257 0.82715 0.85395 0.0
H1399 H 0.433 0.81297 0.8969 0.0
H1400 H 0.42225 0.78422 0.86208 0.0
H1401 H 0.30301 0.83842 0.88244 0.0
H1402 H 0.34333 0.85438 0.91221 0.0
H1403 H 0.33673 0.8699 0.86962 0.0
H1404 H 0.44461 0.89422 0.97208 0.0
H1405 H 0.44367 0.93511 0.87162 0.0
H1406 H 0.40461 0.81143 0.94434 0.0
H1407 H 0.37445 0.82693 0.9507 0.0
H1408 H 0.41506 0.83906 0.98011 0.0
H1409 H 0.40811 0.8646 0.82344 0.0
H1410 H 0.40991 0.90627 0.82113 0.0
H1411 H 0.3726 0.87368 0.82563 0.0
C1412 C 0.17256 0.32458 0.89189 0.0
C1413 C 0.15472 0.31242 0.85851 0.0
C1414 C 0.16593 0.3485 0.90726 0.0
C1415 C 0.14036 0.35998 0.88899 0.0
C1416 C 0.12319 0.34854 0.85474 0.0
C1417 C 0.13061 0.32494 0.83994 0.0
C1418 C 0.185 0.35999 0.94368 0.0
C1419 C 0.09578 0.36006 0.83429 0.0
C1420 C 0.0884 0.38914 0.9316 0.0
C1421 C 0.10049 0.42278 0.92646 0.0
C1422 C 0.10297 0.36867 0.92204 0.0
C1423 C 0.12962 0.38211 0.90598 0.0
C1424 C 0.14313 0.41641 0.90268 0.0
C1425 C 0.12847 0.43637 0.91317 0.0
C1426 C 0.08863 0.33246 0.92744 0.0
C1427 C 0.17186 0.43186 0.88637 0.0
H1428 H 0.19084 0.31446 0.90644 0.0
H1429 H 0.11643 0.31509 0.81437 0.0
H1430 H 0.19165 0.38668 0.94669 0.0
H1431 H 0.16919 0.34784 0.9615 0.0
H1432 H 0.2081 0.3541 0.95158 0.0
H1433 H 0.08628 0.35043 0.80734 0.0
H1434 H 0.07479 0.35199 0.84678 0.0
H1435 H 0.10482 0.3871 0.83384 0.0
H1436 H 0.06686 0.37875 0.94214 0.0
H1437 H 0.13777 0.46247 0.90928 0.0
H1438 H 0.10877 0.32282 0.93932 0.0
H1439 H 0.07522 0.31972 0.90219 0.0
H1440 H 0.07103 0.32646 0.94415 0.0
H1441 H 0.19283 0.42369 0.89928 0.0
H1442 H 0.18081 0.45894 0.88772 0.0
H1443 H 0.16412 0.42395 0.85893 0.0
C1444 C 0.69843 0.19557 0.81144 0.0
C1445 C 0.70189 0.17843 0.78551 0.0
C1446 C 0.67874 0.17933 0.83405 0.0
C1447 C 0.66394 0.14485 0.8321 0.0
C1448 C 0.66911 0.12734 0.80719 0.0
C1449 C 0.68663 0.14453 0.78314 0.0
C1450 C 0.67161 0.19924 0.85801 0.0
C1451 C 0.65553 0.09051 0.80539 0.0
C1452 C 0.62862 0.10148 0.90677 0.0
C1453 C 0.59432 0.09264 0.89221 0.0
C1454 C 0.65168 0.1183 0.88751 0.0
C1455 C 0.64017 0.12746 0.85338 0.0
C1456 C 0.60556 0.11955 0.8391 0.0
C1457 C 0.58312 0.10183 0.85847 0.0
C1458 C 0.68825 0.12528 0.90319 0.0
C1459 C 0.59212 0.12931 0.80306 0.0
H1460 H 0.70894 0.22202 0.81221 0.0
H1461 H 0.68744 0.13156 0.76179 0.0
H1462 H 0.64444 0.1941 0.85209 0.0
H1463 H 0.67945 0.19235 0.88507 0.0
H1464 H 0.68442 0.22588 0.85579 0.0
H1465 H 0.66888 0.0811 0.82871 0.0
H1466 H 0.62879 0.08083 0.8051 0.0
H1467 H 0.65859 0.08075 0.7823 0.0
H1468 H 0.63736 0.09406 0.93271 0.0
H1469 H 0.55663 0.09504 0.8471 0.0
H1470 H 0.70192 0.15197 0.90534 0.0
H1471 H 0.69859 0.11511 0.88624 0.0
H1472 H 0.69304 0.1148 0.92919 0.0
H1473 H 0.60446 0.15586 0.79995 0.0
H1474 H 0.56482 0.12356 0.79682 0.0
H1475 H 0.59756 0.11634 0.78403 0.0
C1476 C 0.79302 0.65454 0.81314 0.0
C1477 C 0.8017 0.68454 0.79649 0.0
C1478 C 0.8172 0.64212 0.83259 0.0
C1479 C 0.85144 0.65987 0.83559 0.0
C1480 C 0.86054 0.6911 0.8203 0.0
C1481 C 0.83563 0.70304 0.80093 0.0
C1482 C 0.80586 0.60904 0.8485 0.0
C1483 C 0.89654 0.7112 0.82286 0.0
C1484 C 0.91312 0.62912 0.90278 0.0
C1485 C 0.9198 0.6084 0.88284 0.0
C1486 C 0.89202 0.64688 0.88779 0.0
C1487 C 0.87694 0.64411 0.85183 0.0
C1488 C 0.8843 0.62396 0.83151 0.0
C1489 C 0.90547 0.60662 0.84709 0.0
C1490 C 0.88525 0.66808 0.91065 0.0
C1491 C 0.86911 0.62002 0.79316 0.0
H1492 H 0.76691 0.64003 0.80986 0.0
H1493 H 0.84272 0.72607 0.78794 0.0
H1494 H 0.81212 0.59144 0.83568 0.0
H1495 H 0.81897 0.61035 0.87617 0.0
H1496 H 0.77864 0.59944 0.84613 0.0
H1497 H 0.89985 0.73639 0.81357 0.0
H1498 H 0.91146 0.71255 0.84986 0.0
H1499 H 0.90658 0.69937 0.80716 0.0
H1500 H 0.92368 0.63088 0.93036 0.0
H1501 H 0.91084 0.59159 0.83095 0.0
H1502 H 0.85847 0.65863 0.91028 0.0
H1503 H 0.89109 0.69328 0.90079 0.0
H1504 H 0.9 0.66903 0.93773 0.0
H1505 H 0.84175 0.60786 0.78812 0.0
H1506 H 0.87893 0.60532 0.78052 0.0
H1507 H 0.87398 0.64427 0.78104 0.0
C1508 C 0.17868 0.2676 0.17967 0.0
C1509 C 0.21238 0.28311 0.18001 0.0
C1510 C 0.15425 0.28024 0.16054 0.0
C1511 C 0.16345 0.30862 0.1405 0.0
C1512 C 0.19716 0.32285 0.13908 0.0
C1513 C 0.22109 0.31047 0.15932 0.0
C1514 C 0.1189 0.26433 0.16344 0.0
C1515 C 0.20845 0.35236 0.11752 0.0
C1516 C 0.09773 0.3348 0.07384 0.0
C1517 C 0.09532 0.36006 0.09149 0.0
C1518 C 0.11918 0.31755 0.08941 0.0
C1519 C 0.13893 0.32538 0.12373 0.0
C1520 C 0.1364 0.35059 0.14174 0.0
C1521 C 0.11478 0.36735 0.12563 0.0
C1522 C 0.12107 0.29121 0.06888 0.0
C1523 C 0.15658 0.35994 0.17835 0.0
H1524 H 0.1717 0.24688 0.19606 0.0
H1525 H 0.24705 0.32289 0.15969 0.0
H1526 H 0.11239 0.28127 0.17698 0.0
H1527 H 0.10151 0.25916 0.13748 0.0
H1528 H 0.11509 0.2412 0.17781 0.0
H1529 H 0.23435 0.35795 0.11564 0.0
H1530 H 0.19181 0.34851 0.09113 0.0
H1531 H 0.20719 0.37389 0.12907 0.0
H1532 H 0.08331 0.32885 0.04745 0.0
H1533 H 0.11289 0.38606 0.14018 0.0
H1534 H 0.114 0.2676 0.08217 0.0
H1535 H 0.14699 0.29707 0.06705 0.0
H1536 H 0.10454 0.28815 0.04243 0.0
H1537 H 0.14945 0.33881 0.19524 0.0
H1538 H 0.15294 0.38088 0.18845 0.0
H1539 H 0.18342 0.36649 0.17998 0.0
C1540 C 0.20921 0.69328 0.82252 0.0
C1541 C 0.21306 0.67908 0.79468 0.0
C1542 C 0.18498 0.67573 0.84019 0.0
C1543 C 0.16556 0.64255 0.83108 0.0
C1544 C 0.17002 0.628 0.80326 0.0
C1545 C 0.19339 0.64661 0.78515 0.0
C1546 C 0.18027 0.69268 0.86867 0.0
C1547 C 0.15045 0.5927 0.79267 0.0
C1548 C 0.12876 0.59038 0.90113 0.0
C1549 C 0.09502 0.5863 0.88894 0.0
C1550 C 0.15185 0.60793 0.88214 0.0
C1551 C 0.14117 0.62294 0.85108 0.0
C1552 C 0.10705 0.61881 0.83902 0.0
C1553 C 0.08442 0.60029 0.85783 0.0
C1554 C 0.18741 0.60947 0.89464 0.0
C1555 C 0.09443 0.6348 0.80684 0.0
H1556 H 0.22521 0.71809 0.83052 0.0
H1557 H 0.19696 0.63549 0.76398 0.0
H1558 H 0.15376 0.69014 0.86379 0.0
H1559 H 0.18687 0.68109 0.8936 0.0
H1560 H 0.19574 0.71904 0.87105 0.0
H1561 H 0.16227 0.58323 0.77671 0.0
H1562 H 0.14783 0.57707 0.81548 0.0
H1563 H 0.12513 0.59036 0.77718 0.0
H1564 H 0.13685 0.57885 0.92483 0.0
H1565 H 0.0583 0.59711 0.84841 0.0
H1566 H 0.20424 0.63509 0.90082 0.0
H1567 H 0.19473 0.60053 0.87397 0.0
H1568 H 0.19126 0.59464 0.91789 0.0
H1569 H 0.10447 0.6614 0.81189 0.0
H1570 H 0.06686 0.62667 0.79899 0.0
H1571 H 0.10331 0.62989 0.78525 0.0
C1572 C 0.33638 0.18524 0.78024 0.0
C1573 C 0.31087 0.19107 0.79041 0.0
C1574 C 0.35418 0.1663 0.79972 0.0
C1575 C 0.34732 0.15294 0.83121 0.0
C1576 C 0.32083 0.1575 0.84121 0.0
C1577 C 0.30279 0.17594 0.82047 0.0
C1578 C 0.38097 0.16117 0.78674 0.0
C1579 C 0.31206 0.14444 0.87455 0.0
C1580 C 0.37922 0.08329 0.86547 0.0
C1581 C 0.41067 0.09968 0.8874 0.0
C1582 C 0.35795 0.10001 0.84829 0.0
C1583 C 0.36791 0.13422 0.85292 0.0
C1584 C 0.39876 0.1507 0.87645 0.0
C1585 C 0.41972 0.1334 0.89317 0.0
C1586 C 0.32493 0.08108 0.82453 0.0
C1587 C 0.41001 0.18687 0.88341 0.0
H1588 H 0.34316 0.19613 0.75703 0.0
H1589 H 0.28317 0.17907 0.82867 0.0
H1590 H 0.40555 0.17291 0.80486 0.0
H1591 H 0.37662 0.13472 0.7855 0.0
H1592 H 0.38198 0.17142 0.76079 0.0
H1593 H 0.2847 0.13535 0.871 0.0
H1594 H 0.32137 0.1245 0.88496 0.0
H1595 H 0.32304 0.16465 0.89401 0.0
H1596 H 0.37118 0.05717 0.86142 0.0
H1597 H 0.44377 0.14664 0.9099 0.0
H1598 H 0.32418 0.08998 0.79787 0.0
H1599 H 0.30454 0.08512 0.83246 0.0
H1600 H 0.32017 0.05447 0.82442 0.0
H1601 H 0.41535 0.20038 0.85996 0.0
H1602 H 0.43273 0.19553 0.90493 0.0
H1603 H 0.38993 0.19291 0.88972 0.0
C1604 C 0.8134 0.29469 0.84946 0.0
C1605 C 0.82363 0.29032 0.82061 0.0
C1606 C 0.83519 0.31715 0.87575 0.0
C1607 C 0.86742 0.33617 0.87235 0.0
C1608 C 0.87821 0.3308 0.84387 0.0
C1609 C 0.85625 0.30759 0.81852 0.0
C1610 C 0.82313 0.32174 0.90611 0.0
C1611 C 0.91218 0.35108 0.83893 0.0
C1612 C 0.91073 0.42362 0.90247 0.0
C1613 C 0.93744 0.4215 0.92882 0.0
C1614 C 0.88593 0.39552 0.88586 0.0
C1615 C 0.8884 0.3647 0.89554 0.0
C1616 C 0.91393 0.36231 0.92404 0.0
C1617 C 0.93817 0.39095 0.94069 0.0
C1618 C 0.85879 0.39907 0.85593 0.0
C1619 C 0.91718 0.32981 0.93507 0.0
H1620 H 0.78821 0.28092 0.85117 0.0
H1621 H 0.86405 0.30425 0.79609 0.0
H1622 H 0.84249 0.32372 0.93049 0.0
H1623 H 0.81787 0.34478 0.90339 0.0
H1624 H 0.80006 0.30135 0.90804 0.0
H1625 H 0.91751 0.34228 0.81669 0.0
H1626 H 0.91381 0.37681 0.83448 0.0
H1627 H 0.93176 0.35083 0.86243 0.0
H1628 H 0.91009 0.44741 0.89373 0.0
H1629 H 0.95897 0.38952 0.96116 0.0
H1630 H 0.83413 0.3819 0.85815 0.0
H1631 H 0.86279 0.39299 0.83152 0.0
H1632 H 0.85827 0.42425 0.85428 0.0
H1633 H 0.89284 0.31177 0.93715 0.0
H1634 H 0.93571 0.3317 0.96014 0.0
H1635 H 0.9251 0.3203 0.91533 0.0
C1636 C 0.72157 0.88956 0.89725 0.0
C1637 C 0.71039 0.86361 0.87319 0.0
C1638 C 0.69934 0.89943 0.90895 0.0
C1639 C 0.66489 0.88128 0.89895 0.0
C1640 C 0.65361 0.85265 0.87831 0.0
C1641 C 0.67622 0.84469 0.86486 0.0
C1642 C 0.71271 0.93055 0.9303 0.0
C1643 C 0.61734 0.83134 0.86887 0.0
C1644 C 0.61165 0.90694 0.94412 0.0
C1645 C 0.60029 0.92748 0.91959 0.0
C1646 C 0.63161 0.89054 0.93745 0.0
C1647 C 0.64077 0.89511 0.90568 0.0
C1648 C 0.62889 0.91537 0.88075 0.0
C1649 C 0.60898 0.93122 0.88801 0.0
C1650 C 0.64304 0.8686 0.96449 0.0
C1651 C 0.63833 0.92148 0.84675 0.0
H1652 H 0.74785 0.90326 0.90629 0.0
H1653 H 0.66659 0.82433 0.84683 0.0
H1654 H 0.70039 0.94782 0.91757 0.0
H1655 H 0.70722 0.92524 0.95588 0.0
H1656 H 0.73998 0.94287 0.9342 0.0
H1657 H 0.61367 0.80674 0.85961 0.0
H1658 H 0.60647 0.82855 0.89131 0.0
H1659 H 0.60342 0.84285 0.8481 0.0
H1660 H 0.60486 0.90358 0.96848 0.0
H1661 H 0.6011 0.94754 0.86914 0.0
H1662 H 0.67011 0.87995 0.97599 0.0
H1663 H 0.63873 0.84486 0.95271 0.0
H1664 H 0.6301 0.86406 0.98553 0.0
H1665 H 0.66571 0.93323 0.85139 0.0
H1666 H 0.62647 0.93739 0.82988 0.0
H1667 H 0.6309 0.89806 0.83276 0.0
C1668 C 0.84177 0.64361 0.08196 0.0
C1669 C 0.86467 0.66243 0.11049 0.0
C1670 C 0.84875 0.61979 0.0667 0.0
C1671 C 0.87921 0.61452 0.08056 0.0
C1672 C 0.90201 0.63317 0.10982 0.0
C1673 C 0.89457 0.65697 0.12419 0.0
C1674 C 0.82393 0.6008 0.03534 0.0
C1675 C 0.93464 0.62833 0.12572 0.0
C1676 C 0.89344 0.53574 0.07081 0.0
C1677 C 0.91417 0.54466 0.04816 0.0
C1678 C 0.87961 0.55734 0.07933 0.0
C1679 C 0.88737 0.58908 0.06557 0.0
C1680 C 0.90666 0.59747 0.04092 0.0
C1681 C 0.91966 0.57502 0.03232 0.0
C1682 C 0.85829 0.54677 0.10471 0.0
C1683 C 0.91515 0.63076 0.02508 0.0
H1684 H 0.81892 0.6483 0.07092 0.0
H1685 H 0.91246 0.67181 0.14597 0.0
H1686 H 0.83521 0.60613 0.01305 0.0
H1687 H 0.81716 0.57422 0.0398 0.0
H1688 H 0.8009 0.60684 0.02848 0.0
H1689 H 0.94939 0.64438 0.14872 0.0
H1690 H 0.93004 0.60258 0.13342 0.0
H1691 H 0.94968 0.63346 0.10651 0.0
H1692 H 0.88873 0.51202 0.08261 0.0
H1693 H 0.93551 0.58185 0.01458 0.0
H1694 H 0.83573 0.5534 0.09567 0.0
H1695 H 0.87249 0.55959 0.12978 0.0
H1696 H 0.8505 0.52006 0.10891 0.0
H1697 H 0.89242 0.63694 0.01491 0.0
H1698 H 0.92732 0.6323 0.00384 0.0
H1699 H 0.93221 0.64943 0.04511 0.0
C1700 C 0.3413 0.78615 0.18973 0.0
C1701 C 0.30703 0.77992 0.18014 0.0
C1702 C 0.36207 0.80515 0.1693 0.0
C1703 C 0.34873 0.82043 0.13989 0.0
C1704 C 0.3142 0.81503 0.13067 0.0
C1705 C 0.29353 0.79339 0.14991 0.0
C1706 C 0.39802 0.80764 0.17837 0.0
C1707 C 0.2991 0.83177 0.10035 0.0
C1708 C 0.41521 0.89317 0.11364 0.0
C1709 C 0.41943 0.8809 0.08464 0.0
C1710 C 0.39106 0.8743 0.13064 0.0
C1711 C 0.37118 0.84192 0.11907 0.0
C1712 C 0.37485 0.82957 0.08929 0.0
C1713 C 0.3987 0.84937 0.07223 0.0
C1714 C 0.38692 0.88904 0.16113 0.0
C1715 C 0.35517 0.79492 0.07628 0.0
H1716 H 0.35161 0.77453 0.21223 0.0
H1717 H 0.26682 0.78673 0.14109 0.0
H1718 H 0.40436 0.80145 0.15545 0.0
H1719 H 0.41448 0.83301 0.18647 0.0
H1720 H 0.40346 0.79112 0.19949 0.0
H1721 H 0.27176 0.82442 0.09614 0.0
H1722 H 0.31052 0.8586 0.10474 0.0
H1723 H 0.30442 0.82615 0.07654 0.0
H1724 H 0.4307 0.91778 0.12297 0.0
H1725 H 0.4018 0.83978 0.04978 0.0
H1726 H 0.39429 0.87629 0.18497 0.0
H1727 H 0.36042 0.88589 0.1575 0.0
H1728 H 0.40207 0.91544 0.1649 0.0
H1729 H 0.36886 0.77893 0.08956 0.0
H1730 H 0.35216 0.79278 0.04816 0.0
H1731 H 0.3302 0.7856 0.08144 0.0
C1732 C 0.69952 0.17958 0.12079 0.0
C1733 C 0.68921 0.19433 0.14328 0.0
C1734 C 0.67665 0.15394 0.09841 0.0
C1735 C 0.64248 0.14406 0.09733 0.0
C1736 C 0.63155 0.16236 0.11597 0.0
C1737 C 0.6551 0.18758 0.13854 0.0
C1738 C 0.68952 0.13532 0.07891 0.0
C1739 C 0.59522 0.15322 0.11481 0.0
C1740 C 0.57816 0.07965 0.03188 0.0
C1741 C 0.57236 0.05175 0.05211 0.0
C1742 C 0.60132 0.10992 0.04599 0.0
C1743 C 0.61901 0.11218 0.08105 0.0
C1744 C 0.61381 0.08387 0.1013 0.0
C1745 C 0.59052 0.05407 0.08661 0.0
C1746 C 0.60637 0.13958 0.02366 0.0
C1747 C 0.63261 0.08506 0.13865 0.0
H1748 H 0.72572 0.18673 0.12216 0.0
H1749 H 0.64668 0.20019 0.15425 0.0
H1750 H 0.67285 0.12759 0.05291 0.0
H1751 H 0.71491 0.14998 0.07625 0.0
H1752 H 0.69052 0.11291 0.09312 0.0
H1753 H 0.59027 0.17288 0.1258 0.0
H1754 H 0.57974 0.14771 0.08797 0.0
H1755 H 0.58732 0.13089 0.12995 0.0
H1756 H 0.56402 0.07799 0.00529 0.0
H1757 H 0.58635 0.03256 0.10237 0.0
H1758 H 0.63292 0.15089 0.02334 0.0
H1759 H 0.59974 0.15807 0.03455 0.0
H1760 H 0.59114 0.13362 -0.00327 0.0
H1761 H 0.65975 0.09435 0.14076 0.0
H1762 H 0.62578 0.06077 0.15073 0.0
H1763 H 0.62757 0.10214 0.15356 0.0
C1764 C 0.64925 0.64999 0.76092 0.0
C1765 C 0.67651 0.67657 0.77758 0.0
C1766 C 0.62917 0.62735 0.77981 0.0
C1767 C 0.63643 0.63208 0.81586 0.0
C1768 C 0.66239 0.66009 0.8323 0.0
C1769 C 0.68178 0.68214 0.8129 0.0
C1770 C 0.60111 0.59789 0.76156 0.0
C1771 C 0.67084 0.66606 0.87076 0.0
C1772 C 0.57646 0.59151 0.87018 0.0
C1773 C 0.59023 0.569 0.88753 0.0
C1774 C 0.59031 0.61132 0.84527 0.0
C1775 C 0.6179 0.60765 0.8372 0.0
C1776 C 0.63087 0.58374 0.85365 0.0
C1777 C 0.61704 0.56484 0.87917 0.0
C1778 C 0.57652 0.63719 0.82889 0.0
C1779 C 0.65996 0.57894 0.84509 0.0
H1780 H 0.64405 0.64644 0.73345 0.0
H1781 H 0.70202 0.70321 0.826 0.0
H1782 H 0.60541 0.57529 0.77203 0.0
H1783 H 0.5773 0.59689 0.76622 0.0
H1784 H 0.59856 0.59803 0.73333 0.0
H1785 H 0.69104 0.68984 0.87918 0.0
H1786 H 0.6486 0.66553 0.87869 0.0
H1787 H 0.67893 0.64642 0.88463 0.0
H1788 H 0.5553 0.59405 0.87671 0.0
H1789 H 0.62684 0.54662 0.89228 0.0
H1790 H 0.57193 0.63613 0.80049 0.0
H1791 H 0.59499 0.66168 0.83783 0.0
H1792 H 0.553 0.63465 0.83547 0.0
H1793 H 0.65529 0.57604 0.81684 0.0
H1794 H 0.66492 0.55727 0.85777 0.0
H1795 H 0.68263 0.60082 0.85351 0.0
C1796 C 0.33041 0.60877 0.89463 0.0
C1797 C 0.33026 0.62988 0.86682 0.0
C1798 C 0.35925 0.61428 0.92125 0.0
C1799 C 0.38761 0.64231 0.92043 0.0
C1800 C 0.38422 0.66757 0.89777 0.0
C1801 C 0.35576 0.66082 0.87049 0.0
C1802 C 0.36114 0.58728 0.94619 0.0
C1803 C 0.41298 0.69901 0.89779 0.0
C1804 C 0.46304 0.62834 0.97731 0.0
C1805 C 0.46957 0.61108 0.9539 0.0
C1806 C 0.43905 0.64318 0.96585 0.0
C1807 C 0.42038 0.63847 0.93112 0.0
C1808 C 0.43007 0.62445 0.90692 0.0
C1809 C 0.45554 0.6121 0.91865 0.0
C1810 C 0.43246 0.66231 -0.0091 0.0
C1811 C 0.41136 0.61893 0.86931 0.0
H1812 H 0.30973 0.58599 0.89348 0.0
H1813 H 0.35611 0.67846 0.85023 0.0
H1814 H 0.37568 0.57404 0.93897 0.0
H1815 H 0.37395 0.59771 0.97236 0.0
H1816 H 0.33614 0.56945 0.94658 0.0
H1817 H 0.40385 0.71958 0.89009 0.0
H1818 H 0.43099 0.70472 0.92337 0.0
H1819 H 0.42626 0.69698 0.8787 0.0
H1820 H 0.47488 0.62836 0.00452 0.0
H1821 H 0.46179 0.59962 0.90061 0.0
H1822 H 0.40862 0.64815 -0.00267 0.0
H1823 H 0.43008 0.68527 0.97922 0.0
H1824 H 0.45273 0.66845 0.01495 0.0
H1825 H 0.38523 0.60258 0.86693 0.0
H1826 H 0.42253 0.6076 0.85435 0.0
H1827 H 0.41108 0.64234 0.85719 0.0
C1828 C 0.31819 0.34546 0.78667 0.0
C1829 C 0.31505 0.31282 0.79116 0.0
C1830 C 0.34006 0.36861 0.81207 0.0
C1831 C 0.35889 0.35833 0.84176 0.0
C1832 C 0.35509 0.32517 0.84654 0.0
C1833 C 0.33354 0.30281 0.82072 0.0
C1834 C 0.34371 0.40402 0.80696 0.0
C1835 C 0.37455 0.31346 0.87824 0.0
C1836 C 0.4441 0.41741 0.87896 0.0
C1837 C 0.43968 0.42886 0.90814 0.0
C1838 C 0.41772 0.39414 0.85723 0.0
C1839 C 0.38639 0.38258 0.86497 0.0
C1840 C 0.38187 0.39353 0.8948 0.0
C1841 C 0.40885 0.41678 0.91625 0.0
C1842 C 0.42344 0.38172 0.82619 0.0
C1843 C 0.3487 0.38123 0.90382 0.0
H1844 H 0.30326 0.35265 0.76382 0.0
H1845 H 0.33108 0.27734 0.82364 0.0
H1846 H 0.34114 0.41415 0.8301 0.0
H1847 H 0.36892 0.41825 0.80359 0.0
H1848 H 0.325 0.40751 0.78411 0.0
H1849 H 0.36546 0.28642 0.87967 0.0
H1850 H 0.40117 0.32218 0.87801 0.0
H1851 H 0.37298 0.3236 0.90191 0.0
H1852 H 0.46829 0.42637 0.87332 0.0
H1853 H 0.40575 0.42572 0.93909 0.0
H1854 H 0.40641 0.38604 0.8023 0.0
H1855 H 0.41791 0.35501 0.82791 0.0
H1856 H 0.44941 0.39363 0.82387 0.0
H1857 H 0.332 0.39277 0.88685 0.0
H1858 H 0.35118 0.38719 0.931 0.0
H1859 H 0.33656 0.35444 0.89964 0.0
C1860 C 0.67696 0.3539 0.84311 0.0
C1861 C 0.64968 0.3421 0.81456 0.0
C1862 C 0.67349 0.36589 0.87256 0.0
C1863 C 0.64228 0.36699 0.87288 0.0
C1864 C 0.61443 0.35426 0.84459 0.0
C1865 C 0.61843 0.34157 0.81588 0.0
C1866 C 0.70347 0.37848 0.90265 0.0
C1867 C 0.58084 0.35578 0.84369 0.0
C1868 C 0.61405 0.38312 0.94774 0.0
C1869 C 0.61985 0.41648 0.94444 0.0
C1870 C 0.62475 0.36713 0.92694 0.0
C1871 C 0.63921 0.38469 0.90074 0.0
C1872 C 0.64649 0.41878 0.89836 0.0
C1873 C 0.63749 0.43443 0.92103 0.0
C1874 C 0.6189 0.33123 0.93159 0.0
C1875 C 0.66168 0.43853 0.87057 0.0
H1876 H 0.7013 0.35458 0.84214 0.0
H1877 H 0.59721 0.33176 0.79417 0.0
H1878 H 0.71428 0.40544 0.90174 0.0
H1879 H 0.69649 0.37212 0.92751 0.0
H1880 H 0.72304 0.36859 0.90198 0.0
H1881 H 0.56168 0.34413 0.81999 0.0
H1882 H 0.57212 0.34349 0.86627 0.0
H1883 H 0.58291 0.38163 0.84499 0.0
H1884 H 0.60005 0.36941 0.96557 0.0
H1885 H 0.64147 0.46025 0.91821 0.0
H1886 H 0.6415 0.32623 0.93101 0.0
H1887 H 0.59838 0.31686 0.91026 0.0
H1888 H 0.61229 0.32252 0.95623 0.0
H1889 H 0.68877 0.44333 0.87768 0.0
H1890 H 0.65811 0.46246 0.86726 0.0
H1891 H 0.65089 0.42528 0.84537 0.0
C1892 C 0.6903 0.34014 0.07776 0.0
C1893 C 0.68395 0.33011 0.10979 0.0
C1894 C 0.66398 0.33897 0.04918 0.0
C1895 C 0.63129 0.32868 0.0538 0.0
C1896 C 0.62459 0.31179 0.08398 0.0
C1897 C 0.65126 0.31278 0.1118 0.0
C1898 C 0.67188 0.35303 0.01583 0.0
C1899 C 0.5899 0.29775 0.08945 0.0
C1900 C 0.59438 0.39424 0.04 0.0
C1901 C 0.5611 0.37631 0.02475 0.0
C1902 C 0.61825 0.37958 0.04772 0.0
C1903 C 0.60921 0.34672 0.03681 0.0
C1904 C 0.57678 0.33029 0.01625 0.0
C1905 C 0.55274 0.34498 0.01126 0.0
C1906 C 0.65208 0.39874 0.07036 0.0
C1907 C 0.56661 0.29697 0.0003 0.0
H1908 H 0.71577 0.35174 0.07589 0.0
H1909 H 0.64625 0.30375 0.13635 0.0
H1910 H 0.65559 0.36651 0.00262 0.0
H1911 H 0.69813 0.36973 0.01986 0.0
H1912 H 0.66804 0.3327 -0.00142 0.0
H1913 H 0.58936 0.28545 0.11456 0.0
H1914 H 0.57943 0.31734 0.08857 0.0
H1915 H 0.57347 0.27952 0.06886 0.0
H1916 H 0.60152 0.41942 0.04798 0.0
H1917 H 0.52728 0.33127 -0.00193 0.0
H1918 H 0.67145 0.40334 0.05612 0.0
H1919 H 0.6582 0.38492 0.09378 0.0
H1920 H 0.65344 0.42279 0.0789 0.0
H1921 H 0.5573 0.29826 0.97198 0.0
H1922 H 0.54553 0.27959 0.00965 0.0
H1923 H 0.58724 0.28735 0.00553 0.0
C1924 C 0.67434 0.66101 0.15899 0.0
C1925 C 0.69651 0.65246 0.18619 0.0
C1926 C 0.65172 0.63788 0.13428 0.0
C1927 C 0.65114 0.60549 0.13754 0.0
C1928 C 0.67323 0.5966 0.16529 0.0
C1929 C 0.69585 0.62045 0.18968 0.0
C1930 C 0.62851 0.64813 0.10487 0.0
C1931 C 0.67308 0.5621 0.16882 0.0
C1932 C 0.56949 0.54181 0.09658 0.0
C1933 C 0.57553 0.53467 0.06616 0.0
C1934 C 0.59431 0.56456 0.12036 0.0
C1935 C 0.62563 0.58046 0.11326 0.0
C1936 C 0.63195 0.57344 0.08259 0.0
C1937 C 0.60667 0.55039 0.05928 0.0
C1938 C 0.58686 0.57202 0.15278 0.0
C1939 C 0.66489 0.59092 0.07388 0.0
H1940 H 0.67505 0.686 0.15685 0.0
H1941 H 0.71358 0.61442 0.21068 0.0
H1942 H 0.62993 0.64046 0.07984 0.0
H1943 H 0.60249 0.63593 0.1068 0.0
H1944 H 0.63431 0.67494 0.10476 0.0
H1945 H 0.69232 0.55938 0.19155 0.0
H1946 H 0.64834 0.54519 0.1712 0.0
H1947 H 0.67748 0.55453 0.14533 0.0
H1948 H 0.54532 0.52971 0.1018 0.0
H1949 H 0.61102 0.54525 0.03536 0.0
H1950 H 0.58909 0.59798 0.15326 0.0
H1951 H 0.60522 0.56828 0.17579 0.0
H1952 H 0.5615 0.55655 0.15486 0.0
H1953 H 0.66774 0.6168 0.06836 0.0
H1954 H 0.66695 0.57983 0.05101 0.0
H1955 H 0.68578 0.59075 0.09601 0.0
C1956 C 0.37774 0.60623 0.16377 0.0
C1957 C 0.36178 0.62897 0.15985 0.0
C1958 C 0.37561 0.58822 0.1355 0.0
C1959 C 0.35694 0.59308 0.10251 0.0
C1960 C 0.33838 0.61388 0.0989 0.0
C1961 C 0.34102 0.63171 0.12775 0.0
C1962 C 0.39613 0.56653 0.14045 0.0
C1963 C 0.31784 0.61915 0.06421 0.0
C1964 C 0.40158 0.5867 0.0377 0.0
C1965 C 0.38635 0.55351 0.02839 0.0
C1966 C 0.39032 0.60079 0.05966 0.0
C1967 C 0.36249 0.58135 0.07185 0.0
C1968 C 0.34442 0.54903 0.0591 0.0
C1969 C 0.35672 0.53533 0.03762 0.0
C1970 C 0.41001 0.63567 0.0721 0.0
C1971 C 0.31417 0.52782 0.07092 0.0
H1972 H 0.39322 0.60366 0.18875 0.0
H1973 H 0.32848 0.64921 0.12469 0.0
H1974 H 0.38113 0.5425 0.12742 0.0
H1975 H 0.41744 0.57801 0.1287 0.0
H1976 H 0.40606 0.56252 0.1681 0.0
H1977 H 0.29989 0.63056 0.06667 0.0
H1978 H 0.33452 0.63546 0.04897 0.0
H1979 H 0.30398 0.59574 0.04956 0.0
H1980 H 0.42381 0.60116 0.02971 0.0
H1981 H 0.34467 0.50963 0.03072 0.0
H1982 H 0.41612 0.63766 0.10058 0.0
H1983 H 0.39495 0.65116 0.06146 0.0
H1984 H 0.43374 0.64567 0.06423 0.0
H1985 H 0.32222 0.5182 0.09669 0.0
H1986 H 0.29878 0.50674 0.05298 0.0
H1987 H 0.29861 0.54201 0.07328 0.0
C1988 C 0.32272 0.31466 0.17498 0.0
C1989 C 0.3361 0.29857 0.20284 0.0
C1990 C 0.34302 0.33716 0.15676 0.0
C1991 C 0.37761 0.34355 0.16681 0.0
C1992 C 0.39159 0.32865 0.19619 0.0
C1993 C 0.37045 0.3063 0.21431 0.0
C1994 C 0.32717 0.35289 0.12583 0.0
C1995 C 0.42847 0.3352 0.20738 0.0
C1996 C 0.41174 0.37002 0.08934 0.0
C1997 C 0.42368 0.4039 0.0937 0.0
C1998 C 0.39943 0.34979 0.11484 0.0
C1999 C 0.39814 0.36407 0.1446 0.0
C2000 C 0.41127 0.39831 0.1496 0.0
C2001 C 0.42434 0.41791 0.12411 0.0
C2002 C 0.38617 0.31325 0.10908 0.0
C2003 C 0.40936 0.4143 0.18057 0.0
H2004 H 0.29615 0.30925 0.1671 0.0
H2005 H 0.38049 0.29392 0.23632 0.0
H2006 H 0.33975 0.37977 0.1275 0.0
H2007 H 0.32994 0.34418 0.102 0.0
H2008 H 0.30024 0.34714 0.12338 0.0
H2009 H 0.43548 0.32278 0.23167 0.0
H2010 H 0.43632 0.32664 0.18692 0.0
H2011 H 0.44244 0.36179 0.2111 0.0
H2012 H 0.41213 0.35936 0.06605 0.0
H2013 H 0.43393 0.44425 0.12736 0.0
H2014 H 0.35862 0.30408 0.10309 0.0
H2015 H 0.39513 0.30103 0.13271 0.0
H2016 H 0.39366 0.3061 0.08744 0.0
H2017 H 0.3833 0.41245 0.17777 0.0
H2018 H 0.42535 0.44051 0.18336 0.0
H2019 H 0.41679 0.40172 0.20453 0.0
C2020 C 0.83382 0.60372 0.62318 0.0
C2021 C 0.80638 0.60886 0.60045 0.0
C2022 C 0.855 0.59252 0.61094 0.0
C2023 C 0.84884 0.58681 0.57512 0.0
C2024 C 0.82254 0.59418 0.55195 0.0
C2025 C 0.8015 0.60483 0.56491 0.0
C2026 C 0.8828 0.58501 0.63651 0.0
C2027 C 0.81555 0.58928 0.51355 0.0
C2028 C 0.91739 0.57146 0.54631 0.0
C2029 C 0.90564 0.5373 0.5444 0.0
C2030 C 0.89846 0.58811 0.55458 0.0
C2031 C 0.8677 0.57006 0.56238 0.0
C2032 C 0.85542 0.53552 0.55945 0.0
C2033 C 0.87439 0.51961 0.55012 0.0
C2034 C 0.9118 0.62492 0.55581 0.0
C2035 C 0.82291 0.51522 0.5677 0.0
H2036 H 0.83761 0.60667 0.65065 0.0
H2037 H 0.78051 0.60913 0.54722 0.0
H2038 H 0.87808 0.55845 0.63568 0.0
H2039 H 0.90674 0.59783 0.62962 0.0
H2040 H 0.88537 0.59226 0.66326 0.0
H2041 H 0.79767 0.60075 0.49888 0.0
H2042 H 0.83888 0.59961 0.50492 0.0
H2043 H 0.80494 0.56281 0.50707 0.0
H2044 H 0.94156 0.58508 0.54171 0.0
H2045 H 0.86551 0.49318 0.54888 0.0
H2046 H 0.91981 0.63371 0.58295 0.0
H2047 H 0.89214 0.63456 0.54201 0.0
H2048 H 0.93337 0.63518 0.54422 0.0
H2049 H 0.8247 0.51885 0.59526 0.0
H2050 H 0.81618 0.48877 0.56263 0.0
H2051 H 0.80251 0.52309 0.55226 0.0
C2052 C 0.30409 0.77484 0.65006 0.0
C2053 C 0.29894 0.78817 0.67763 0.0
C2054 C 0.32746 0.79384 0.63215 0.0
C2055 C 0.34378 0.82765 0.64005 0.0
C2056 C 0.33625 0.84173 0.66598 0.0
C2057 C 0.31464 0.82163 0.68512 0.0
C2058 C 0.33475 0.77768 0.60493 0.0
C2059 C 0.35071 0.87804 0.67321 0.0
C2060 C 0.42694 0.87429 0.61944 0.0
C2061 C 0.41715 0.88408 0.58577 0.0
C2062 C 0.40342 0.85627 0.63743 0.0
C2063 C 0.36901 0.84817 0.62159 0.0
C2064 C 0.35902 0.85933 0.58791 0.0
C2065 C 0.38322 0.87641 0.57006 0.0
C2066 C 0.41614 0.84504 0.6728 0.0
C2067 C 0.32302 0.8538 0.57043 0.0
H2068 H 0.28999 0.74951 0.64263 0.0
H2069 H 0.30918 0.83225 0.70529 0.0
H2070 H 0.3275 0.78802 0.57943 0.0
H2071 H 0.36185 0.78247 0.61068 0.0
H2072 H 0.32118 0.75092 0.60311 0.0
H2073 H 0.33905 0.88556 0.69089 0.0
H2074 H 0.37781 0.88557 0.68503 0.0
H2075 H 0.34724 0.89137 0.64877 0.0
H2076 H 0.4532 0.88021 0.63162 0.0
H2077 H 0.37559 0.8846 0.54418 0.0
H2078 H 0.41968 0.82181 0.66984 0.0
H2079 H 0.39893 0.84105 0.68947 0.0
H2080 H 0.44068 0.86284 0.68603 0.0
H2081 H 0.31284 0.83223 0.55282 0.0
H2082 H 0.32076 0.875 0.55445 0.0
H2083 H 0.30748 0.84971 0.58902 0.0
C2084 C 0.21152 0.30282 0.68175 0.0
C2085 C 0.19871 0.26943 0.673 0.0
C2086 C 0.1956 0.32431 0.66421 0.0
C2087 C 0.16661 0.31239 0.63667 0.0
C2088 C 0.15526 0.27916 0.62627 0.0
C2089 C 0.17083 0.25808 0.64501 0.0
C2090 C 0.20868 0.35937 0.67647 0.0
C2091 C 0.12559 0.26541 0.59622 0.0
C2092 C 0.09977 0.35149 0.62097 0.0
C2093 C 0.10426 0.37021 0.59157 0.0
C2094 C 0.11992 0.33299 0.63574 0.0
C2095 C 0.14591 0.33326 0.6213 0.0
C2096 C 0.15073 0.35222 0.59162 0.0
C2097 C 0.12978 0.37022 0.57703 0.0
C2098 C 0.11305 0.31275 0.66676 0.0
C2099 C 0.17835 0.35404 0.57551 0.0
H2100 H 0.23265 0.31175 0.70375 0.0
H2101 H 0.16068 0.2323 0.63822 0.0
H2102 H 0.21234 0.37593 0.65451 0.0
H2103 H 0.19021 0.36403 0.68735 0.0
H2104 H 0.23259 0.36553 0.6965 0.0
H2105 H 0.12191 0.2401 0.58918 0.0
H2106 H 0.10283 0.26534 0.60271 0.0
H2107 H 0.12866 0.28095 0.5734 0.0
H2108 H 0.07993 0.35087 0.63222 0.0
H2109 H 0.13378 0.38478 0.55455 0.0
H2110 H 0.13564 0.31995 0.6885 0.0
H2111 H 0.10667 0.2866 0.66068 0.0
H2112 H 0.09229 0.31544 0.67527 0.0
H2113 H 0.20244 0.36965 0.59203 0.0
H2114 H 0.17519 0.36464 0.54943 0.0
H2115 H 0.17979 0.32955 0.57361 0.0
C2116 C 0.66029 0.15622 0.65809 0.0
C2117 C 0.68934 0.17806 0.65084 0.0
C2118 C 0.63709 0.13312 0.63337 0.0
C2119 C 0.64367 0.13178 0.601 0.0
C2120 C 0.67247 0.1549 0.59315 0.0
C2121 C 0.69513 0.17803 0.61838 0.0
C2122 C 0.60659 0.10895 0.64271 0.0
C2123 C 0.68024 0.15395 0.55899 0.0
C2124 C 0.60431 0.04542 0.56699 0.0
C2125 C 0.57501 0.04629 0.54423 0.0
C2126 C 0.62849 0.07398 0.58334 0.0
C2127 C 0.62242 0.10368 0.57752 0.0
C2128 C 0.59369 0.10493 0.55289 0.0
C2129 C 0.57038 0.07605 0.53601 0.0
C2130 C 0.65924 0.07187 0.6089 0.0
C2131 C 0.58597 0.13595 0.54683 0.0
H2132 H 0.65628 0.15658 0.68351 0.0
H2133 H 0.71793 0.19518 0.61328 0.0
H2134 H 0.58399 0.10665 0.62176 0.0
H2135 H 0.60898 0.08455 0.6461 0.0
H2136 H 0.60308 0.11605 0.66697 0.0
H2137 H 0.70222 0.1752 0.55596 0.0
H2138 H 0.68522 0.13127 0.55674 0.0
H2139 H 0.6586 0.15346 0.53749 0.0
H2140 H 0.60764 0.02217 0.57306 0.0
H2141 H 0.54735 0.07634 0.51857 0.0
H2142 H 0.65741 0.07448 0.63546 0.0
H2143 H 0.68175 0.09196 0.60514 0.0
H2144 H 0.66246 0.04823 0.60667 0.0
H2145 H 0.57787 0.1409 0.56908 0.0
H2146 H 0.56582 0.13417 0.52313 0.0
H2147 H 0.60838 0.15706 0.54481 0.0
C2148 C 0.85543 0.30862 0.32094 0.0
C2149 C 0.82829 0.28295 0.32781 0.0
C2150 C 0.8749 0.33404 0.34479 0.0
C2151 C 0.86639 0.33464 0.37617 0.0
C2152 C 0.83862 0.3092 0.3833 0.0
C2153 C 0.82002 0.28345 0.35909 0.0
C2154 C 0.9037 0.36112 0.33545 0.0
C2155 C 0.82753 0.31017 0.41545 0.0
C2156 C 0.93919 0.39039 0.44162 0.0
C2157 C 0.93535 0.42038 0.43271 0.0
C2158 C 0.91526 0.36142 0.42533 0.0
C2159 C 0.88652 0.36265 0.40057 0.0
C2160 C 0.88094 0.3926 0.39458 0.0
C2161 C 0.90581 0.42128 0.41023 0.0
C2162 C 0.92253 0.33019 0.4317 0.0
C2163 C 0.85027 0.39506 0.36922 0.0
H2164 H 0.86044 0.31053 0.29608 0.0
H2165 H 0.79806 0.26449 0.36387 0.0
H2166 H 0.89784 0.38381 0.33081 0.0
H2167 H 0.92646 0.36627 0.35688 0.0
H2168 H 0.90919 0.3551 0.31186 0.0
H2169 H 0.80598 0.28809 0.41769 0.0
H2170 H 0.84826 0.3125 0.43862 0.0
H2171 H 0.82039 0.33196 0.41522 0.0
H2172 H 0.96224 0.38992 0.45886 0.0
H2173 H 0.90285 0.44462 0.40361 0.0
H2174 H 0.92866 0.32384 0.4087 0.0
H2175 H 0.90036 0.30979 0.43568 0.0
H2176 H 0.94375 0.33238 0.45439 0.0
H2177 H 0.85439 0.39813 0.34296 0.0
H2178 H 0.84482 0.4165 0.3753 0.0
H2179 H 0.82821 0.37273 0.36891 0.0
C2180 C 0.63408 0.7969 0.39352 0.0
C2181 C 0.65396 0.80445 0.36981 0.0
C2182 C 0.62768 0.82119 0.40829 0.0
C2183 C 0.64311 0.85432 0.40104 0.0
C2184 C 0.66685 0.86253 0.38118 0.0
C2185 C 0.67139 0.8376 0.36507 0.0
C2186 C 0.60244 0.81109 0.42958 0.0
C2187 C 0.68626 0.89772 0.37564 0.0
C2188 C 0.59115 0.90837 0.38948 0.0
C2189 C 0.59948 0.92241 0.42245 0.0
C2190 C 0.60509 0.88629 0.3826 0.0
C2191 C 0.6299 0.87928 0.40862 0.0
C2192 C 0.64012 0.89476 0.44148 0.0
C2193 C 0.62429 0.91549 0.44822 0.0
C2194 C 0.59246 0.86981 0.34744 0.0
C2195 C 0.66722 0.88923 0.46997 0.0
H2196 H 0.62211 0.7717 0.39953 0.0
H2197 H 0.68744 0.84434 0.3476 0.0
H2198 H 0.61358 0.82343 0.45521 0.0
H2199 H 0.58101 0.81867 0.41676 0.0
H2200 H 0.59302 0.78431 0.43334 0.0
H2201 H 0.70751 0.90019 0.36475 0.0
H2202 H 0.66978 0.90889 0.35769 0.0
H2203 H 0.69584 0.91174 0.40039 0.0
H2204 H 0.57341 0.91439 0.36861 0.0
H2205 H 0.63121 0.92582 0.47391 0.0
H2206 H 0.58431 0.84291 0.35009 0.0
H2207 H 0.61266 0.87722 0.33394 0.0
H2208 H 0.57124 0.87598 0.33102 0.0
H2209 H 0.65587 0.86942 0.48653 0.0
H2210 H 0.68136 0.91148 0.48657 0.0
H2211 H 0.68488 0.8823 0.45988 0.0
C2212 C 0.21987 0.68116 0.33258 0.0
C2213 C 0.20885 0.68588 0.29739 0.0
C2214 C 0.19823 0.65958 0.35082 0.0
C2215 C 0.16432 0.64384 0.33377 0.0
C2216 C 0.15325 0.64838 0.298 0.0
C2217 C 0.17578 0.66913 0.28018 0.0
C2218 C 0.21146 0.65438 0.38849 0.0
C2219 C 0.11721 0.63289 0.27897 0.0
C2220 C 0.10682 0.57109 0.37133 0.0
C2221 C 0.09151 0.58602 0.38791 0.0
C2222 C 0.13141 0.58969 0.35476 0.0
C2223 C 0.14001 0.62398 0.35352 0.0
C2224 C 0.1245 0.6392 0.37023 0.0
C2225 C 0.10092 0.62004 0.38793 0.0
C2226 C 0.14827 0.57263 0.33871 0.0
C2227 C 0.1323 0.67561 0.36881 0.0
H2228 H 0.24535 0.69478 0.34592 0.0
H2229 H 0.16712 0.67372 0.25314 0.0
H2230 H 0.20049 0.66502 0.40426 0.0
H2231 H 0.20422 0.6279 0.39376 0.0
H2232 H 0.23897 0.66575 0.39691 0.0
H2233 H 0.11287 0.63796 0.25099 0.0
H2234 H 0.10859 0.60609 0.28226 0.0
H2235 H 0.10171 0.64233 0.28991 0.0
H2236 H 0.09988 0.54476 0.37183 0.0
H2237 H 0.08904 0.63154 0.40078 0.0
H2238 H 0.17553 0.58297 0.34976 0.0
H2239 H 0.1435 0.57676 0.3106 0.0
H2240 H 0.13961 0.54592 0.34297 0.0
H2241 H 0.1586 0.68848 0.38246 0.0
H2242 H 0.1162 0.68331 0.38072 0.0
H2243 H 0.12906 0.68357 0.34167 0.0
C2244 C 0.33845 0.20579 0.30045 0.0
C2245 C 0.30446 0.18925 0.29808 0.0
C2246 C 0.36279 0.19338 0.32028 0.0
C2247 C 0.35313 0.16397 0.33871 0.0
C2248 C 0.31905 0.14884 0.33845 0.0
C2249 C 0.29529 0.16121 0.31775 0.0
C2250 C 0.39865 0.21066 0.31974 0.0
C2251 C 0.3073 0.11839 0.35859 0.0
C2252 C 0.40218 0.10594 0.3497 0.0
C2253 C 0.42051 0.11082 0.38438 0.0
C2254 C 0.38085 0.1233 0.33477 0.0
C2255 C 0.37746 0.14675 0.35458 0.0
C2256 C 0.3961 0.15221 0.38951 0.0
C2257 C 0.41732 0.13439 0.40386 0.0
C2258 C 0.3616 0.11622 0.29758 0.0
C2259 C 0.39362 0.17685 0.41189 0.0
H2260 H 0.34585 0.22721 0.28505 0.0
H2261 H 0.26914 0.14813 0.31602 0.0
H2262 H 0.41482 0.21439 0.34633 0.0
H2263 H 0.40648 0.19532 0.30553 0.0
H2264 H 0.40274 0.23471 0.30717 0.0
H2265 H 0.28087 0.1118 0.35906 0.0
H2266 H 0.30995 0.0977 0.34689 0.0
H2267 H 0.32279 0.12173 0.3855 0.0
H2268 H 0.40467 0.08862 0.33377 0.0
H2269 H 0.43093 0.13855 0.43067 0.0
H2270 H 0.36718 0.13902 0.28271 0.0
H2271 H 0.33453 0.1069 0.29581 0.0
H2272 H 0.36746 0.09793 0.2853 0.0
H2273 H 0.40559 0.2018 0.40312 0.0
H2274 H 0.40596 0.17523 0.43944 0.0
H2275 H 0.36723 0.17346 0.40961 0.0
C2276 C 0.71467 0.79874 0.65129 0.0
C2277 C 0.70896 0.77903 0.67979 0.0
C2278 C 0.69056 0.81098 0.63098 0.0
C2279 C 0.66119 0.80668 0.64136 0.0
C2280 C 0.65544 0.78712 0.67049 0.0
C2281 C 0.67885 0.77288 0.68867 0.0
C2282 C 0.69709 0.82937 0.59888 0.0
C2283 C 0.62554 0.7829 0.68382 0.0
C2284 C 0.62594 0.87594 0.61808 0.0
C2285 C 0.59619 0.86169 0.59263 0.0
C2286 C 0.64673 0.85831 0.63407 0.0
C2287 C 0.6386 0.8254 0.62413 0.0
C2288 C 0.60918 0.81097 0.59779 0.0
C2289 C 0.5884 0.82905 0.58265 0.0
C2290 C 0.67747 0.87507 0.66207 0.0
C2291 C 0.5999 0.77659 0.58491 0.0
H2292 H 0.7383 0.80491 0.64491 0.0
H2293 H 0.6747 0.75889 0.71147 0.0
H2294 H 0.67445 0.82121 0.57724 0.0
H2295 H 0.7035 0.85581 0.60331 0.0
H2296 H 0.71785 0.82585 0.59114 0.0
H2297 H 0.62443 0.76702 0.70663 0.0
H2298 H 0.62627 0.8071 0.69108 0.0
H2299 H 0.60237 0.77218 0.66337 0.0
H2300 H 0.63334 0.90124 0.62563 0.0
H2301 H 0.56572 0.81725 0.56324 0.0
H2302 H 0.70002 0.87743 0.65371 0.0
H2303 H 0.67765 0.86024 0.68566 0.0
H2304 H 0.67913 0.89982 0.66872 0.0
H2305 H 0.61723 0.77622 0.56962 0.0
H2306 H 0.57413 0.7671 0.56834 0.0
H2307 H 0.60229 0.75981 0.60663 0.0
C2308 C 0.68615 0.15554 0.28226 0.0
C2309 C 0.71667 0.17906 0.29801 0.0
C2310 C 0.66343 0.13788 0.30147 0.0
C2311 C 0.67256 0.14212 0.33777 0.0
C2312 C 0.7043 0.16458 0.35399 0.0
C2313 C 0.72581 0.18302 0.33387 0.0
C2314 C 0.62972 0.11476 0.28289 0.0
C2315 C 0.71572 0.16872 0.39266 0.0
C2316 C 0.60554 0.11931 0.38736 0.0
C2317 C 0.60191 0.08701 0.3956 0.0
C2318 C 0.62843 0.13741 0.36861 0.0
C2319 C 0.64894 0.12323 0.35878 0.0
C2320 C 0.64624 0.09083 0.3685 0.0
C2321 C 0.6221 0.07282 0.38604 0.0
C2322 C 0.62849 0.17068 0.35695 0.0
C2323 C 0.66825 0.0748 0.35997 0.0
H2324 H 0.68029 0.15045 0.25492 0.0
H2325 H 0.75012 0.20016 0.34622 0.0
H2326 H 0.62679 0.08942 0.29107 0.0
H2327 H 0.60993 0.12095 0.28964 0.0
H2328 H 0.6259 0.11556 0.25447 0.0
H2329 H 0.74178 0.18578 0.40139 0.0
H2330 H 0.69938 0.17815 0.40214 0.0
H2331 H 0.7138 0.1447 0.40462 0.0
H2332 H 0.5893 0.12992 0.39414 0.0
H2333 H 0.61906 0.04762 0.39239 0.0
H2334 H 0.61369 0.16807 0.32984 0.0
H2335 H 0.65398 0.18801 0.35804 0.0
H2336 H 0.61693 0.18102 0.37241 0.0
H2337 H 0.65768 0.06471 0.33327 0.0
H2338 H 0.66991 0.05432 0.37743 0.0
H2339 H 0.69373 0.09253 0.36169 0.0
C2340 C 0.81336 0.67044 0.28005 0.0
C2341 C 0.81542 0.69895 0.2956 0.0
C2342 C 0.8314 0.65067 0.29735 0.0
C2343 C 0.85015 0.65813 0.33206 0.0
C2344 C 0.85041 0.68572 0.34851 0.0
C2345 C 0.83509 0.70684 0.3294 0.0
C2346 C 0.832 0.62303 0.27769 0.0
C2347 C 0.86779 0.69356 0.38607 0.0
C2348 C 0.87875 0.59074 0.38132 0.0
C2349 C 0.91289 0.60261 0.38286 0.0
C2350 C 0.85824 0.60884 0.36595 0.0
C2351 C 0.87175 0.639 0.3502 0.0
C2352 C 0.90629 0.65094 0.35165 0.0
C2353 C 0.92637 0.63294 0.36835 0.0
C2354 C 0.82211 0.59547 0.36669 0.0
C2355 C 0.92196 0.68206 0.33411 0.0
H2356 H 0.79974 0.66503 0.25331 0.0
H2357 H 0.8392 0.72999 0.34082 0.0
H2358 H 0.85808 0.62517 0.27993 0.0
H2359 H 0.81968 0.59941 0.28877 0.0
H2360 H 0.8192 0.62261 0.24995 0.0
H2361 H 0.86163 0.7128 0.39624 0.0
H2362 H 0.86068 0.67131 0.40156 0.0
H2363 H 0.8951 0.7021 0.3897 0.0
H2364 H 0.86811 0.56738 0.39257 0.0
H2365 H 0.9526 0.64208 0.36899 0.0
H2366 H 0.80674 0.58347 0.34156 0.0
H2367 H 0.81351 0.61526 0.37117 0.0
H2368 H 0.81763 0.57702 0.387 0.0
H2369 H 0.91219 0.6783 0.3058 0.0
H2370 H 0.94949 0.68965 0.34045 0.0
H2371 H 0.91552 0.70234 0.34139 0.0
C2372 C 0.30885 0.81239 0.34198 0.0
C2373 C 0.31981 0.79058 0.32901 0.0
C2374 C 0.33032 0.83548 0.36752 0.0
C2375 C 0.36324 0.83627 0.38063 0.0
C2376 C 0.37303 0.81166 0.37094 0.0
C2377 C 0.35126 0.78931 0.34471 0.0
C2378 C 0.31894 0.86139 0.3771 0.0
C2379 C 0.40779 0.81131 0.38527 0.0
C2380 C 0.42913 0.91974 0.38975 0.0
C2381 C 0.43949 0.92462 0.42552 0.0
C2382 C 0.40417 0.89103 0.37502 0.0
C2383 C 0.38908 0.86671 0.39667 0.0
C2384 C 0.39899 0.87159 0.43278 0.0
C2385 C 0.42436 0.90062 0.44679 0.0
C2386 C 0.3943 0.88664 0.33624 0.0
C2387 C 0.38291 0.84631 0.45643 0.0
H2388 H 0.28409 0.81288 0.33066 0.0
H2389 H 0.35999 0.77275 0.33492 0.0
H2390 H 0.32935 0.86826 0.4048 0.0
H2391 H 0.32788 0.88359 0.36211 0.0
H2392 H 0.29139 0.85324 0.37121 0.0
H2393 H 0.40928 0.78728 0.38084 0.0
H2394 H 0.42506 0.83022 0.37245 0.0
H2395 H 0.41638 0.8171 0.41329 0.0
H2396 H 0.44093 0.93817 0.37313 0.0
H2397 H 0.43245 0.90456 0.47427 0.0
H2398 H 0.36734 0.88205 0.32617 0.0
H2399 H 0.399 0.86516 0.32905 0.0
H2400 H 0.40822 0.90829 0.32322 0.0
H2401 H 0.35641 0.84363 0.45181 0.0
H2402 H 0.39526 0.85287 0.48403 0.0
H2403 H 0.38351 0.82218 0.45096 0.0
C2404 C 0.21756 0.3735 0.40982 0.0
C2405 C 0.20846 0.36061 0.3762 0.0
C2406 C 0.19615 0.38399 0.42231 0.0
C2407 C 0.16453 0.38127 0.40087 0.0
C2408 C 0.15416 0.36608 0.36787 0.0
C2409 C 0.17626 0.356 0.35588 0.0
C2410 C 0.20816 0.39967 0.45778 0.0
C2411 C 0.12045 0.36225 0.34439 0.0
C2412 C 0.10015 0.39726 0.43723 0.0
C2413 C 0.10506 0.42978 0.42817 0.0
C2414 C 0.11978 0.38118 0.42929 0.0
C2415 C 0.14423 0.3979 0.41118 0.0
C2416 C 0.14937 0.43097 0.4025 0.0
C2417 C 0.12986 0.44652 0.41131 0.0
C2418 C 0.11401 0.34625 0.43981 0.0
C2419 C 0.17515 0.44986 0.38336 0.0
H2420 H 0.24204 0.37638 0.42612 0.0
H2421 H 0.16889 0.3461 0.32992 0.0
H2422 H 0.21166 0.42599 0.45552 0.0
H2423 H 0.18936 0.38852 0.4728 0.0
H2424 H 0.23208 0.39732 0.47239 0.0
H2425 H 0.11461 0.34672 0.32134 0.0
H2426 H 0.10077 0.35135 0.3584 0.0
H2427 H 0.11972 0.38661 0.33568 0.0
H2428 H 0.08088 0.38445 0.45033 0.0
H2429 H 0.13339 0.47166 0.40422 0.0
H2430 H 0.13779 0.34348 0.4541 0.0
H2431 H 0.10419 0.33021 0.41651 0.0
H2432 H 0.09612 0.33769 0.45623 0.0
H2433 H 0.2001 0.45029 0.39817 0.0
H2434 H 0.17614 0.47542 0.37871 0.0
H2435 H 0.16959 0.43766 0.35815 0.0
C2436 C 0.33901 0.14015 0.59037 0.0
C2437 C 0.36504 0.16755 0.60748 0.0
C2438 C 0.34561 0.11518 0.57671 0.0
C2439 C 0.37899 0.11745 0.58079 0.0
C2440 C 0.40521 0.14495 0.59837 0.0
C2441 C 0.39792 0.16956 0.61132 0.0
C2442 C 0.31695 0.08656 0.55772 0.0
C2443 C 0.44115 0.14831 0.60381 0.0
C2444 C 0.40607 0.04441 0.5843 0.0
C2445 C 0.41591 0.04692 0.55351 0.0
C2446 C 0.39165 0.06568 0.59225 0.0
C2447 C 0.38713 0.09045 0.56901 0.0
C2448 C 0.39491 0.09173 0.53675 0.0
C2449 C 0.40913 0.06986 0.52933 0.0
C2450 C 0.38317 0.06283 0.6266 0.0
C2451 C 0.3898 0.11722 0.51082 0.0
H2452 H 0.31355 0.13863 0.587 0.0
H2453 H 0.41814 0.19051 0.62477 0.0
H2454 H 0.31873 0.08527 0.5309 0.0
H2455 H 0.31806 0.06342 0.57008 0.0
H2456 H 0.29247 0.08823 0.55698 0.0
H2457 H 0.45862 0.17131 0.61778 0.0
H2458 H 0.44578 0.12745 0.61874 0.0
H2459 H 0.44677 0.14778 0.57861 0.0
H2460 H 0.4104 0.02614 0.60267 0.0
H2461 H 0.41636 0.07172 0.50531 0.0
H2462 H 0.35804 0.06382 0.6234 0.0
H2463 H 0.40117 0.0837 0.6436 0.0
H2464 H 0.384 0.03983 0.63963 0.0
H2465 H 0.36423 0.11745 0.50635 0.0
H2466 H 0.39398 0.11301 0.48576 0.0
H2467 H 0.40725 0.14173 0.52103 0.0
C2468 C 0.79392 0.29504 0.64559 0.0
C2469 C 0.80535 0.28383 0.67813 0.0
C2470 C 0.81622 0.31791 0.62893 0.0
C2471 C 0.85087 0.32755 0.64399 0.0
C2472 C 0.86243 0.31622 0.67704 0.0
C2473 C 0.83943 0.29503 0.69402 0.0
C2474 C 0.80277 0.33129 0.59499 0.0
C2475 C 0.89912 0.32504 0.69365 0.0
C2476 C 0.90704 0.35019 0.5822 0.0
C2477 C 0.92288 0.38385 0.58826 0.0
C2478 C 0.8837 0.3316 0.60036 0.0
C2479 C 0.87511 0.34727 0.62417 0.0
C2480 C 0.89047 0.38143 0.62968 0.0
C2481 C 0.91447 0.39921 0.61199 0.0
C2482 C 0.86876 0.29506 0.59465 0.0
C2483 C 0.88096 0.39941 0.65345 0.0
H2484 H 0.76757 0.28571 0.63308 0.0
H2485 H 0.84819 0.28557 0.71889 0.0
H2486 H 0.81278 0.35835 0.59643 0.0
H2487 H 0.81098 0.32372 0.57423 0.0
H2488 H 0.77518 0.32287 0.58787 0.0
H2489 H 0.90397 0.3135 0.71905 0.0
H2490 H 0.91106 0.3172 0.67653 0.0
H2491 H 0.91122 0.35187 0.6973 0.0
H2492 H 0.91355 0.33829 0.56392 0.0
H2493 H 0.92625 0.42539 0.61624 0.0
H2494 H 0.84143 0.28741 0.58436 0.0
H2495 H 0.87344 0.28268 0.61953 0.0
H2496 H 0.87908 0.28647 0.57639 0.0
H2497 H 0.85576 0.39996 0.64126 0.0
H2498 H 0.89852 0.42494 0.6588 0.0
H2499 H 0.87991 0.38683 0.67829 0.0
C2500 C 0.16424 0.69544 0.62353 0.0
C2501 C 0.18842 0.68562 0.64672 0.0
C2502 C 0.13962 0.67352 0.59795 0.0
C2503 C 0.13994 0.64161 0.59531 0.0
C2504 C 0.16549 0.63251 0.61743 0.0
C2505 C 0.18824 0.65398 0.64366 0.0
C2506 C 0.11216 0.68369 0.57539 0.0
C2507 C 0.16725 0.59893 0.61553 0.0
C2508 C 0.06539 0.56476 0.57802 0.0
C2509 C 0.06572 0.55462 0.54601 0.0
C2510 C 0.08721 0.59502 0.59258 0.0
C2511 C 0.11071 0.61532 0.57511 0.0
C2512 C 0.10993 0.60606 0.5418 0.0
C2513 C 0.08706 0.57576 0.5274 0.0
C2514 C 0.08703 0.60382 0.62815 0.0
C2515 C 0.13498 0.62675 0.52271 0.0
H2516 H 0.16384 0.71967 0.62612 0.0
H2517 H 0.2046 0.64492 0.6631 0.0
H2518 H 0.107 0.67591 0.54825 0.0
H2519 H 0.08902 0.67149 0.58402 0.0
H2520 H 0.11826 0.7105 0.57655 0.0
H2521 H 0.19176 0.59795 0.63017 0.0
H2522 H 0.14774 0.58086 0.62649 0.0
H2523 H 0.16279 0.59144 0.58843 0.0
H2524 H 0.04858 0.54861 0.59226 0.0
H2525 H 0.08726 0.56781 0.50263 0.0
H2526 H 0.08989 0.62985 0.6298 0.0
H2527 H 0.10827 0.60006 0.64739 0.0
H2528 H 0.06378 0.58855 0.63535 0.0
H2529 H 0.13756 0.65275 0.52372 0.0
H2530 H 0.12806 0.61872 0.49534 0.0
H2531 H 0.15967 0.62509 0.53527 0.0
loop_
_geom_bond_atom_site_label_1
_geom_bond_atom_site_label_2
_geom_bond_distance
_geom_bond_site_symmetry_2
_ccdc_geom_bond_type
Eu0 N31 2.657 . S
Eu0 N38 2.609 . S
Eu0 O44 2.558 . S
Eu0 O45 2.612 . S
Eu0 O47 2.339 . S
Eu0 O48 2.563 . S
Eu0 O49 2.419 . S
Eu0 O51 2.380 . S
Eu0 O52 2.432 . S
Eu0 C64 2.848 . S
C1 C4 1.429 . S
C1 C5 1.411 . S
C1 N8 1.377 . S
C2 C4 1.420 . S
C2 C6 1.423 . S
C2 C14 1.392 . S
C3 C5 1.420 . S
C3 C6 1.351 . S
C3 H26 0.931 . S
C4 C1 1.429 . S
C4 C2 1.420 . S
C4 N12 1.362 . S
C5 C1 1.411 . S
C5 C3 1.420 . S
C5 C10 1.395 . S
C6 C2 1.423 . S
C6 C3 1.351 . S
C6 H18 0.930 . S
C7 C9 1.400 . S
C7 C10 1.386 . S
C7 H19 0.930 . S
N8 C1 1.377 . S
N8 C9 1.321 . S
N8 Eu11 2.609 . S
C9 C7 1.400 . S
C9 N8 1.321 . S
C9 H16 0.930 . S
C10 C5 1.395 . S
C10 C7 1.386 . S
C10 H29 0.930 . S
Eu11 N8 2.609 . S
Eu11 N12 2.657 . S
Eu11 O45 2.380 . S
Eu11 O46 2.432 . S
Eu11 O50 2.558 . S
Eu11 O51 2.612 . S
Eu11 O53 2.339 . S
Eu11 O54 2.563 . S
Eu11 O55 2.419 . S
Eu11 C75 2.848 . S
N12 C4 1.362 . S
N12 Eu11 2.657 . S
N12 C13 1.334 . S
C13 N12 1.334 . S
C13 C15 1.413 . S
C13 H20 0.929 . S
C14 C2 1.392 . S
C14 C15 1.367 . S
C14 H22 0.930 . S
C15 C13 1.413 . S
C15 C14 1.367 . S
C15 H17 0.930 . S
H16 C9 0.930 . S
H17 C15 0.930 . S
H18 C6 0.930 . S
H19 C7 0.930 . S
H20 C13 0.929 . S
H21 C35 0.930 . S
H22 C14 0.930 . S
H23 C41 0.930 . S
H24 C32 0.929 . S
H25 C39 0.930 . S
H26 C3 0.931 . S
H27 C33 0.930 . S
H28 C66 0.930 . S
H29 C10 0.930 . S
H30 C65 0.931 . S
N31 Eu0 2.657 . S
N31 C32 1.334 . S
N31 C36 1.362 . S
C32 H24 0.929 . S
C32 N31 1.334 . S
C32 C35 1.413 . S
C33 H27 0.930 . S
C33 C34 1.392 . S
C33 C35 1.367 . S
C34 C33 1.392 . S
C34 C36 1.420 . S
C34 C66 1.423 . S
C35 H21 0.930 . S
C35 C32 1.413 . S
C35 C33 1.367 . S
C36 N31 1.362 . S
C36 C34 1.420 . S
C36 C40 1.429 . S
H37 C42 0.930 . S
N38 Eu0 2.609 . S
N38 C40 1.377 . S
N38 C41 1.321 . S
C39 H25 0.930 . S
C39 C41 1.400 . S
C39 C42 1.386 . S
C40 C36 1.429 . S
C40 N38 1.377 . S
C40 C43 1.411 . S
C41 H23 0.930 . S
C41 N38 1.321 . S
C41 C39 1.400 . S
C42 H37 0.930 . S
C42 C39 1.386 . S
C42 C43 1.395 . S
C43 C40 1.411 . S
C43 C42 1.395 . S
C43 C65 1.420 . S
O44 Eu0 2.558 . S
O44 C64 1.257 . S
O45 Eu0 2.612 . S
O45 Eu11 2.380 . S
O45 C56 1.276 . S
O46 Eu11 2.432 . S
O46 C63 1.264 . S
O47 Eu0 2.339 . S
O47 C63 1.254 . S
O48 Eu0 2.563 . S
O48 C56 1.235 . S
O49 Eu0 2.419 . S
O49 C64 1.249 . S
O50 Eu11 2.558 . S
O50 C75 1.257 . S
O51 Eu0 2.380 . S
O51 Eu11 2.612 . S
O51 C67 1.276 . S
O52 Eu0 2.432 . S
O52 C74 1.264 . S
O53 Eu11 2.339 . S
O53 C74 1.254 . S
O54 Eu11 2.563 . S
O54 C67 1.235 . S
O55 Eu11 2.419 . S
O55 C75 1.249 . S
C56 O45 1.276 . S
C56 O48 1.235 . S
C57 C59 1.393 . S
C57 C61 1.395 . S
C57 C64 1.492 . S
C58 C59 1.392 . S
C58 C60 1.386 . S
C59 C57 1.393 . S
C59 C58 1.392 . S
C59 H76 0.930 . S
C60 C58 1.386 . S
C60 C62 1.395 . S
C60 H77 0.930 . S
C61 C57 1.395 . S
C61 C62 1.379 . S
C61 H78 0.930 . S
C62 C60 1.395 . S
C62 C61 1.379 . S
C62 H79 0.930 . S
C63 O46 1.264 . S
C63 O47 1.254 . S
C64 Eu0 2.848 . S
C64 O44 1.257 . S
C64 O49 1.249 . S
C64 C57 1.492 . S
C65 H30 0.931 . S
C65 C43 1.420 . S
C65 C66 1.351 . S
C66 H28 0.930 . S
C66 C34 1.423 . S
C66 C65 1.351 . S
C67 O51 1.276 . S
C67 O54 1.235 . S
C68 C69 1.393 . S
C68 C72 1.395 . S
C68 C75 1.492 . S
C69 C68 1.393 . S
C69 C70 1.392 . S
C69 H80 0.930 . S
C70 C69 1.392 . S
C70 C71 1.386 . S
C71 C70 1.386 . S
C71 C73 1.395 . S
C71 H81 0.930 . S
C72 C68 1.395 . S
C72 C73 1.379 . S
C72 H82 0.930 . S
C73 C71 1.395 . S
C73 C72 1.379 . S
C73 H83 0.930 . S
C74 O52 1.264 . S
C74 O53 1.254 . S
C75 Eu11 2.848 . S
C75 O50 1.257 . S
C75 O55 1.249 . S
C75 C68 1.492 . S
H76 C59 0.930 . S
H77 C60 0.930 . S
H78 C61 0.930 . S
H79 C62 0.930 . S
H80 C69 0.930 . S
H81 C71 0.930 . S
H82 C72 0.930 . S
H83 C73 0.930 . S
Eu84 N115 2.657 . S
Eu84 N122 2.609 . S
Eu84 O128 2.558 . S
Eu84 O129 2.612 . S
Eu84 O131 2.339 . S
Eu84 O132 2.563 . S
Eu84 O133 2.419 . S
Eu84 O135 2.380 . S
Eu84 O136 2.432 . S
Eu84 C148 2.848 . S
C85 C88 1.429 . S
C85 C89 1.411 . S
C85 N92 1.377 . S
C86 C88 1.420 . S
C86 C90 1.423 . S
C86 C98 1.392 . S
C87 C89 1.420 . S
C87 C90 1.351 . S
C87 H110 0.931 . S
C88 C85 1.429 . S
C88 C86 1.420 . S
C88 N96 1.362 . S
C89 C85 1.411 . S
C89 C87 1.420 . S
C89 C94 1.395 . S
C90 C86 1.423 . S
C90 C87 1.351 . S
C90 H102 0.930 . S
C91 C93 1.400 . S
C91 C94 1.386 . S
C91 H103 0.930 . S
N92 C85 1.377 . S
N92 C93 1.321 . S
N92 Eu95 2.609 . S
C93 C91 1.400 . S
C93 N92 1.321 . S
C93 H100 0.930 . S
C94 C89 1.395 . S
C94 C91 1.386 . S
C94 H113 0.930 . S
Eu95 N92 2.609 . S
Eu95 N96 2.657 . S
Eu95 O129 2.380 . S
Eu95 O130 2.432 . S
Eu95 O134 2.558 . S
Eu95 O135 2.612 . S
Eu95 O137 2.339 . S
Eu95 O138 2.563 . S
Eu95 O139 2.419 . S
Eu95 C159 2.848 . S
N96 C88 1.362 . S
N96 Eu95 2.657 . S
N96 C97 1.334 . S
C97 N96 1.334 . S
C97 C99 1.413 . S
C97 H104 0.929 . S
C98 C86 1.392 . S
C98 C99 1.367 . S
C98 H106 0.930 . S
C99 C97 1.413 . S
C99 C98 1.367 . S
C99 H101 0.930 . S
H100 C93 0.930 . S
H101 C99 0.930 . S
H102 C90 0.930 . S
H103 C91 0.930 . S
H104 C97 0.929 . S
H105 C119 0.930 . S
H106 C98 0.930 . S
H107 C125 0.930 . S
H108 C116 0.929 . S
H109 C123 0.930 . S
H110 C87 0.931 . S
H111 C117 0.930 . S
H112 C150 0.930 . S
H113 C94 0.930 . S
H114 C149 0.931 . S
N115 Eu84 2.657 . S
N115 C116 1.334 . S
N115 C120 1.362 . S
C116 H108 0.929 . S
C116 N115 1.334 . S
C116 C119 1.413 . S
C117 H111 0.930 . S
C117 C118 1.392 . S
C117 C119 1.367 . S
C118 C117 1.392 . S
C118 C120 1.420 . S
C118 C150 1.423 . S
C119 H105 0.930 . S
C119 C116 1.413 . S
C119 C117 1.367 . S
C120 N115 1.362 . S
C120 C118 1.420 . S
C120 C124 1.429 . S
H121 C126 0.930 . S
N122 Eu84 2.609 . S
N122 C124 1.377 . S
N122 C125 1.321 . S
C123 H109 0.930 . S
C123 C125 1.400 . S
C123 C126 1.386 . S
C124 C120 1.429 . S
C124 N122 1.377 . S
C124 C127 1.411 . S
C125 H107 0.930 . S
C125 N122 1.321 . S
C125 C123 1.400 . S
C126 H121 0.930 . S
C126 C123 1.386 . S
C126 C127 1.395 . S
C127 C124 1.411 . S
C127 C126 1.395 . S
C127 C149 1.420 . S
O128 Eu84 2.558 . S
O128 C148 1.257 . S
O129 Eu84 2.612 . S
O129 Eu95 2.380 . S
O129 C140 1.276 . S
O130 Eu95 2.432 . S
O130 C147 1.264 . S
O131 Eu84 2.339 . S
O131 C147 1.254 . S
O132 Eu84 2.563 . S
O132 C140 1.235 . S
O133 Eu84 2.419 . S
O133 C148 1.249 . S
O134 Eu95 2.558 . S
O134 C159 1.257 . S
O135 Eu84 2.380 . S
O135 Eu95 2.612 . S
O135 C151 1.276 . S
O136 Eu84 2.432 . S
O136 C158 1.264 . S
O137 Eu95 2.339 . S
O137 C158 1.254 . S
O138 Eu95 2.563 . S
O138 C151 1.235 . S
O139 Eu95 2.419 . S
O139 C159 1.249 . S
C140 O129 1.276 . S
C140 O132 1.235 . S
C141 C143 1.393 . S
C141 C145 1.395 . S
C141 C148 1.492 . S
C142 C143 1.392 . S
C142 C144 1.386 . S
C143 C141 1.393 . S
C143 C142 1.392 . S
C143 H160 0.930 . S
C144 C142 1.386 . S
C144 C146 1.395 . S
C144 H161 0.930 . S
C145 C141 1.395 . S
C145 C146 1.379 . S
C145 H162 0.930 . S
C146 C144 1.395 . S
C146 C145 1.379 . S
C146 H163 0.930 . S
C147 O130 1.264 . S
C147 O131 1.254 . S
C148 Eu84 2.848 . S
C148 O128 1.257 . S
C148 O133 1.249 . S
C148 C141 1.492 . S
C149 H114 0.931 . S
C149 C127 1.420 . S
C149 C150 1.351 . S
C150 H112 0.930 . S
C150 C118 1.423 . S
C150 C149 1.351 . S
C151 O135 1.276 . S
C151 O138 1.235 . S
C152 C153 1.393 . S
C152 C156 1.395 . S
C152 C159 1.492 . S
C153 C152 1.393 . S
C153 C154 1.392 . S
C153 H164 0.930 . S
C154 C153 1.392 . S
C154 C155 1.386 . S
C155 C154 1.386 . S
C155 C157 1.395 . S
C155 H165 0.930 . S
C156 C152 1.395 . S
C156 C157 1.379 . S
C156 H166 0.930 . S
C157 C155 1.395 . S
C157 C156 1.379 . S
C157 H167 0.930 . S
C158 O136 1.264 . S
C158 O137 1.254 . S
C159 Eu95 2.848 . S
C159 O134 1.257 . S
C159 O139 1.249 . S
C159 C152 1.492 . S
H160 C143 0.930 . S
H161 C144 0.930 . S
H162 C145 0.930 . S
H163 C146 0.930 . S
H164 C153 0.930 . S
H165 C155 0.930 . S
H166 C156 0.930 . S
H167 C157 0.930 . S
Eu168 N199 2.657 . S
Eu168 N206 2.609 . S
Eu168 O212 2.558 . S
Eu168 O213 2.612 . S
Eu168 O215 2.339 . S
Eu168 O216 2.563 . S
Eu168 O217 2.419 . S
Eu168 O219 2.380 . S
Eu168 O220 2.432 . S
Eu168 C232 2.848 . S
C169 C172 1.429 . S
C169 C173 1.411 . S
C169 N176 1.377 . S
C170 C172 1.420 . S
C170 C174 1.423 . S
C170 C182 1.392 . S
C171 C173 1.420 . S
C171 C174 1.351 . S
C171 H194 0.931 . S
C172 C169 1.429 . S
C172 C170 1.420 . S
C172 N180 1.362 . S
C173 C169 1.411 . S
C173 C171 1.420 . S
C173 C178 1.395 . S
C174 C170 1.423 . S
C174 C171 1.351 . S
C174 H186 0.930 . S
C175 C177 1.400 . S
C175 C178 1.386 . S
C175 H187 0.930 . S
N176 C169 1.377 . S
N176 C177 1.321 . S
N176 Eu179 2.609 . S
C177 C175 1.400 . S
C177 N176 1.321 . S
C177 H184 0.930 . S
C178 C173 1.395 . S
C178 C175 1.386 . S
C178 H197 0.930 . S
Eu179 N176 2.609 . S
Eu179 N180 2.657 . S
Eu179 O213 2.380 . S
Eu179 O214 2.432 . S
Eu179 O218 2.558 . S
Eu179 O219 2.612 . S
Eu179 O221 2.339 . S
Eu179 O222 2.563 . S
Eu179 O223 2.419 . S
Eu179 C243 2.848 . S
N180 C172 1.362 . S
N180 Eu179 2.657 . S
N180 C181 1.334 . S
C181 N180 1.334 . S
C181 C183 1.413 . S
C181 H188 0.929 . S
C182 C170 1.392 . S
C182 C183 1.367 . S
C182 H190 0.930 . S
C183 C181 1.413 . S
C183 C182 1.367 . S
C183 H185 0.930 . S
H184 C177 0.930 . S
H185 C183 0.930 . S
H186 C174 0.930 . S
H187 C175 0.930 . S
H188 C181 0.929 . S
H189 C203 0.930 . S
H190 C182 0.930 . S
H191 C209 0.930 . S
H192 C200 0.929 . S
H193 C207 0.930 . S
H194 C171 0.931 . S
H195 C201 0.930 . S
H196 C234 0.930 . S
H197 C178 0.930 . S
H198 C233 0.931 . S
N199 Eu168 2.657 . S
N199 C200 1.334 . S
N199 C204 1.362 . S
C200 H192 0.929 . S
C200 N199 1.334 . S
C200 C203 1.413 . S
C201 H195 0.930 . S
C201 C202 1.392 . S
C201 C203 1.367 . S
C202 C201 1.392 . S
C202 C204 1.420 . S
C202 C234 1.423 . S
C203 H189 0.930 . S
C203 C200 1.413 . S
C203 C201 1.367 . S
C204 N199 1.362 . S
C204 C202 1.420 . S
C204 C208 1.429 . S
H205 C210 0.930 . S
N206 Eu168 2.609 . S
N206 C208 1.377 . S
N206 C209 1.321 . S
C207 H193 0.930 . S
C207 C209 1.400 . S
C207 C210 1.386 . S
C208 C204 1.429 . S
C208 N206 1.377 . S
C208 C211 1.411 . S
C209 H191 0.930 . S
C209 N206 1.321 . S
C209 C207 1.400 . S
C210 H205 0.930 . S
C210 C207 1.386 . S
C210 C211 1.395 . S
C211 C208 1.411 . S
C211 C210 1.395 . S
C211 C233 1.420 . S
O212 Eu168 2.558 . S
O212 C232 1.257 . S
O213 Eu168 2.612 . S
O213 Eu179 2.380 . S
O213 C224 1.276 . S
O214 Eu179 2.432 . S
O214 C231 1.264 . S
O215 Eu168 2.339 . S
O215 C231 1.254 . S
O216 Eu168 2.563 . S
O216 C224 1.235 . S
O217 Eu168 2.419 . S
O217 C232 1.249 . S
O218 Eu179 2.558 . S
O218 C243 1.257 . S
O219 Eu168 2.380 . S
O219 Eu179 2.612 . S
O219 C235 1.276 . S
O220 Eu168 2.432 . S
O220 C242 1.264 . S
O221 Eu179 2.339 . S
O221 C242 1.254 . S
O222 Eu179 2.563 . S
O222 C235 1.235 . S
O223 Eu179 2.419 . S
O223 C243 1.249 . S
C224 O213 1.276 . S
C224 O216 1.235 . S
C225 C227 1.393 . S
C225 C229 1.395 . S
C225 C232 1.492 . S
C226 C227 1.392 . S
C226 C228 1.386 . S
C227 C225 1.393 . S
C227 C226 1.392 . S
C227 H244 0.930 . S
C228 C226 1.386 . S
C228 C230 1.395 . S
C228 H245 0.930 . S
C229 C225 1.395 . S
C229 C230 1.379 . S
C229 H246 0.930 . S
C230 C228 1.395 . S
C230 C229 1.379 . S
C230 H247 0.930 . S
C231 O214 1.264 . S
C231 O215 1.254 . S
C232 Eu168 2.848 . S
C232 O212 1.257 . S
C232 O217 1.249 . S
C232 C225 1.492 . S
C233 H198 0.931 . S
C233 C211 1.420 . S
C233 C234 1.351 . S
C234 H196 0.930 . S
C234 C202 1.423 . S
C234 C233 1.351 . S
C235 O219 1.276 . S
C235 O222 1.235 . S
C236 C237 1.393 . S
C236 C240 1.395 . S
C236 C243 1.492 . S
C237 C236 1.393 . S
C237 C238 1.392 . S
C237 H248 0.930 . S
C238 C237 1.392 . S
C238 C239 1.386 . S
C239 C238 1.386 . S
C239 C241 1.395 . S
C239 H249 0.930 . S
C240 C236 1.395 . S
C240 C241 1.379 . S
C240 H250 0.930 . S
C241 C239 1.395 . S
C241 C240 1.379 . S
C241 H251 0.930 . S
C242 O220 1.264 . S
C242 O221 1.254 . S
C243 Eu179 2.848 . S
C243 O218 1.257 . S
C243 O223 1.249 . S
C243 C236 1.492 . S
H244 C227 0.930 . S
H245 C228 0.930 . S
H246 C229 0.930 . S
H247 C230 0.930 . S
H248 C237 0.930 . S
H249 C239 0.930 . S
H250 C240 0.930 . S
H251 C241 0.930 . S
Eu252 N283 2.657 . S
Eu252 N290 2.609 . S
Eu252 O296 2.558 . S
Eu252 O297 2.612 . S
Eu252 O299 2.339 . S
Eu252 O300 2.563 . S
Eu252 O301 2.419 . S
Eu252 O303 2.380 . S
Eu252 O304 2.432 . S
Eu252 C316 2.848 . S
C253 C256 1.429 . S
C253 C257 1.411 . S
C253 N260 1.377 . S
C254 C256 1.420 . S
C254 C258 1.423 . S
C254 C266 1.392 . S
C255 C257 1.420 . S
C255 C258 1.351 . S
C255 H278 0.931 . S
C256 C253 1.429 . S
C256 C254 1.420 . S
C256 N264 1.362 . S
C257 C253 1.411 . S
C257 C255 1.420 . S
C257 C262 1.395 . S
C258 C254 1.423 . S
C258 C255 1.351 . S
C258 H270 0.930 . S
C259 C261 1.400 . S
C259 C262 1.386 . S
C259 H271 0.930 . S
N260 C253 1.377 . S
N260 C261 1.321 . S
N260 Eu263 2.609 . S
C261 C259 1.400 . S
C261 N260 1.321 . S
C261 H268 0.930 . S
C262 C257 1.395 . S
C262 C259 1.386 . S
C262 H281 0.930 . S
Eu263 N260 2.609 . S
Eu263 N264 2.657 . S
Eu263 O297 2.380 . S
Eu263 O298 2.432 . S
Eu263 O302 2.558 . S
Eu263 O303 2.612 . S
Eu263 O305 2.339 . S
Eu263 O306 2.563 . S
Eu263 O307 2.419 . S
Eu263 C327 2.848 . S
N264 C256 1.362 . S
N264 Eu263 2.657 . S
N264 C265 1.334 . S
C265 N264 1.334 . S
C265 C267 1.413 . S
C265 H272 0.929 . S
C266 C254 1.392 . S
C266 C267 1.367 . S
C266 H274 0.930 . S
C267 C265 1.413 . S
C267 C266 1.367 . S
C267 H269 0.930 . S
H268 C261 0.930 . S
H269 C267 0.930 . S
H270 C258 0.930 . S
H271 C259 0.930 . S
H272 C265 0.929 . S
H273 C287 0.930 . S
H274 C266 0.930 . S
H275 C293 0.930 . S
H276 C284 0.929 . S
H277 C291 0.930 . S
H278 C255 0.931 . S
H279 C285 0.930 . S
H280 C318 0.930 . S
H281 C262 0.930 . S
H282 C317 0.931 . S
N283 Eu252 2.657 . S
N283 C284 1.334 . S
N283 C288 1.362 . S
C284 H276 0.929 . S
C284 N283 1.334 . S
C284 C287 1.413 . S
C285 H279 0.930 . S
C285 C286 1.392 . S
C285 C287 1.367 . S
C286 C285 1.392 . S
C286 C288 1.420 . S
C286 C318 1.423 . S
C287 H273 0.930 . S
C287 C284 1.413 . S
C287 C285 1.367 . S
C288 N283 1.362 . S
C288 C286 1.420 . S
C288 C292 1.429 . S
H289 C294 0.930 . S
N290 Eu252 2.609 . S
N290 C292 1.377 . S
N290 C293 1.321 . S
C291 H277 0.930 . S
C291 C293 1.400 . S
C291 C294 1.386 . S
C292 C288 1.429 . S
C292 N290 1.377 . S
C292 C295 1.411 . S
C293 H275 0.930 . S
C293 N290 1.321 . S
C293 C291 1.400 . S
C294 H289 0.930 . S
C294 C291 1.386 . S
C294 C295 1.395 . S
C295 C292 1.411 . S
C295 C294 1.395 . S
C295 C317 1.420 . S
O296 Eu252 2.558 . S
O296 C316 1.257 . S
O297 Eu252 2.612 . S
O297 Eu263 2.380 . S
O297 C308 1.276 . S
O298 Eu263 2.432 . S
O298 C315 1.264 . S
O299 Eu252 2.339 . S
O299 C315 1.254 . S
O300 Eu252 2.563 . S
O300 C308 1.235 . S
O301 Eu252 2.419 . S
O301 C316 1.249 . S
O302 Eu263 2.558 . S
O302 C327 1.257 . S
O303 Eu252 2.380 . S
O303 Eu263 2.612 . S
O303 C319 1.276 . S
O304 Eu252 2.432 . S
O304 C326 1.264 . S
O305 Eu263 2.339 . S
O305 C326 1.254 . S
O306 Eu263 2.563 . S
O306 C319 1.235 . S
O307 Eu263 2.419 . S
O307 C327 1.249 . S
C308 O297 1.276 . S
C308 O300 1.235 . S
C309 C311 1.393 . S
C309 C313 1.395 . S
C309 C316 1.492 . S
C310 C311 1.392 . S
C310 C312 1.386 . S
C311 C309 1.393 . S
C311 C310 1.392 . S
C311 H328 0.930 . S
C312 C310 1.386 . S
C312 C314 1.395 . S
C312 H329 0.930 . S
C313 C309 1.395 . S
C313 C314 1.379 . S
C313 H330 0.930 . S
C314 C312 1.395 . S
C314 C313 1.379 . S
C314 H331 0.930 . S
C315 O298 1.264 . S
C315 O299 1.254 . S
C316 Eu252 2.848 . S
C316 O296 1.257 . S
C316 O301 1.249 . S
C316 C309 1.492 . S
C317 H282 0.931 . S
C317 C295 1.420 . S
C317 C318 1.351 . S
C318 H280 0.930 . S
C318 C286 1.423 . S
C318 C317 1.351 . S
C319 O303 1.276 . S
C319 O306 1.235 . S
C320 C321 1.393 . S
C320 C324 1.395 . S
C320 C327 1.492 . S
C321 C320 1.393 . S
C321 C322 1.392 . S
C321 H332 0.930 . S
C322 C321 1.392 . S
C322 C323 1.386 . S
C323 C322 1.386 . S
C323 C325 1.395 . S
C323 H333 0.930 . S
C324 C320 1.395 . S
C324 C325 1.379 . S
C324 H334 0.930 . S
C325 C323 1.395 . S
C325 C324 1.379 . S
C325 H335 0.930 . S
C326 O304 1.264 . S
C326 O305 1.254 . S
C327 Eu263 2.848 . S
C327 O302 1.257 . S
C327 O307 1.249 . S
C327 C320 1.492 . S
H328 C311 0.930 . S
H329 C312 0.930 . S
H330 C313 0.930 . S
H331 C314 0.930 . S
H332 C321 0.930 . S
H333 C323 0.930 . S
H334 C324 0.930 . S
H335 C325 0.930 . S
Eu336 N367 2.657 . S
Eu336 N374 2.609 . S
Eu336 O380 2.558 . S
Eu336 O381 2.612 . S
Eu336 O383 2.339 . S
Eu336 O384 2.563 . S
Eu336 O385 2.419 . S
Eu336 O387 2.380 . S
Eu336 O388 2.432 . S
Eu336 C400 2.848 . S
C337 C340 1.429 . S
C337 C341 1.411 . S
C337 N344 1.377 . S
C338 C340 1.420 . S
C338 C342 1.423 . S
C338 C350 1.392 . S
C339 C341 1.420 . S
C339 C342 1.351 . S
C339 H362 0.931 . S
C340 C337 1.429 . S
C340 C338 1.420 . S
C340 N348 1.362 . S
C341 C337 1.411 . S
C341 C339 1.420 . S
C341 C346 1.395 . S
C342 C338 1.423 . S
C342 C339 1.351 . S
C342 H354 0.930 . S
C343 C345 1.400 . S
C343 C346 1.386 . S
C343 H355 0.930 . S
N344 C337 1.377 . S
N344 C345 1.321 . S
N344 Eu347 2.609 . S
C345 C343 1.400 . S
C345 N344 1.321 . S
C345 H352 0.930 . S
C346 C341 1.395 . S
C346 C343 1.386 . S
C346 H365 0.930 . S
Eu347 N344 2.609 . S
Eu347 N348 2.657 . S
Eu347 O381 2.380 . S
Eu347 O382 2.432 . S
Eu347 O386 2.558 . S
Eu347 O387 2.612 . S
Eu347 O389 2.339 . S
Eu347 O390 2.563 . S
Eu347 O391 2.419 . S
Eu347 C411 2.848 . S
N348 C340 1.362 . S
N348 Eu347 2.657 . S
N348 C349 1.334 . S
C349 N348 1.334 . S
C349 C351 1.413 . S
C349 H356 0.929 . S
C350 C338 1.392 . S
C350 C351 1.367 . S
C350 H358 0.930 . S
C351 C349 1.413 . S
C351 C350 1.367 . S
C351 H353 0.930 . S
H352 C345 0.930 . S
H353 C351 0.930 . S
H354 C342 0.930 . S
H355 C343 0.930 . S
H356 C349 0.929 . S
H357 C371 0.930 . S
H358 C350 0.930 . S
H359 C377 0.930 . S
H360 C368 0.929 . S
H361 C375 0.930 . S
H362 C339 0.931 . S
H363 C369 0.930 . S
H364 C402 0.930 . S
H365 C346 0.930 . S
H366 C401 0.931 . S
N367 Eu336 2.657 . S
N367 C368 1.334 . S
N367 C372 1.362 . S
C368 H360 0.929 . S
C368 N367 1.334 . S
C368 C371 1.413 . S
C369 H363 0.930 . S
C369 C370 1.392 . S
C369 C371 1.367 . S
C370 C369 1.392 . S
C370 C372 1.420 . S
C370 C402 1.423 . S
C371 H357 0.930 . S
C371 C368 1.413 . S
C371 C369 1.367 . S
C372 N367 1.362 . S
C372 C370 1.420 . S
C372 C376 1.429 . S
H373 C378 0.930 . S
N374 Eu336 2.609 . S
N374 C376 1.377 . S
N374 C377 1.321 . S
C375 H361 0.930 . S
C375 C377 1.400 . S
C375 C378 1.386 . S
C376 C372 1.429 . S
C376 N374 1.377 . S
C376 C379 1.411 . S
C377 H359 0.930 . S
C377 N374 1.321 . S
C377 C375 1.400 . S
C378 H373 0.930 . S
C378 C375 1.386 . S
C378 C379 1.395 . S
C379 C376 1.411 . S
C379 C378 1.395 . S
C379 C401 1.420 . S
O380 Eu336 2.558 . S
O380 C400 1.257 . S
O381 Eu336 2.612 . S
O381 Eu347 2.380 . S
O381 C392 1.276 . S
O382 Eu347 2.432 . S
O382 C399 1.264 . S
O383 Eu336 2.339 . S
O383 C399 1.254 . S
O384 Eu336 2.563 . S
O384 C392 1.235 . S
O385 Eu336 2.419 . S
O385 C400 1.249 . S
O386 Eu347 2.558 . S
O386 C411 1.257 . S
O387 Eu336 2.380 . S
O387 Eu347 2.612 . S
O387 C403 1.276 . S
O388 Eu336 2.432 . S
O388 C410 1.264 . S
O389 Eu347 2.339 . S
O389 C410 1.254 . S
O390 Eu347 2.563 . S
O390 C403 1.235 . S
O391 Eu347 2.419 . S
O391 C411 1.249 . S
C392 O381 1.276 . S
C392 O384 1.235 . S
C393 C395 1.393 . S
C393 C397 1.395 . S
C393 C400 1.492 . S
C394 C395 1.392 . S
C394 C396 1.386 . S
C395 C393 1.393 . S
C395 C394 1.392 . S
C395 H412 0.930 . S
C396 C394 1.386 . S
C396 C398 1.395 . S
C396 H413 0.930 . S
C397 C393 1.395 . S
C397 C398 1.379 . S
C397 H414 0.930 . S
C398 C396 1.395 . S
C398 C397 1.379 . S
C398 H415 0.930 . S
C399 O382 1.264 . S
C399 O383 1.254 . S
C400 Eu336 2.848 . S
C400 O380 1.257 . S
C400 O385 1.249 . S
C400 C393 1.492 . S
C401 H366 0.931 . S
C401 C379 1.420 . S
C401 C402 1.351 . S
C402 H364 0.930 . S
C402 C370 1.423 . S
C402 C401 1.351 . S
C403 O387 1.276 . S
C403 O390 1.235 . S
C404 C405 1.393 . S
C404 C408 1.395 . S
C404 C411 1.492 . S
C405 C404 1.393 . S
C405 C406 1.392 . S
C405 H416 0.930 . S
C406 C405 1.392 . S
C406 C407 1.386 . S
C407 C406 1.386 . S
C407 C409 1.395 . S
C407 H417 0.930 . S
C408 C404 1.395 . S
C408 C409 1.379 . S
C408 H418 0.930 . S
C409 C407 1.395 . S
C409 C408 1.379 . S
C409 H419 0.930 . S
C410 O388 1.264 . S
C410 O389 1.254 . S
C411 Eu347 2.848 . S
C411 O386 1.257 . S
C411 O391 1.249 . S
C411 C404 1.492 . S
H412 C395 0.930 . S
H413 C396 0.930 . S
H414 C397 0.930 . S
H415 C398 0.930 . S
H416 C405 0.930 . S
H417 C407 0.930 . S
H418 C408 0.930 . S
H419 C409 0.930 . S
Eu420 N451 2.657 . S
Eu420 N458 2.609 . S
Eu420 O464 2.558 . S
Eu420 O465 2.612 . S
Eu420 O467 2.339 . S
Eu420 O468 2.563 . S
Eu420 O469 2.419 . S
Eu420 O471 2.380 . S
Eu420 O472 2.432 . S
Eu420 C484 2.848 . S
C421 C424 1.429 . S
C421 C425 1.411 . S
C421 N428 1.377 . S
C422 C424 1.420 . S
C422 C426 1.423 . S
C422 C434 1.392 . S
C423 C425 1.420 . S
C423 C426 1.351 . S
C423 H446 0.931 . S
C424 C421 1.429 . S
C424 C422 1.420 . S
C424 N432 1.362 . S
C425 C421 1.411 . S
C425 C423 1.420 . S
C425 C430 1.395 . S
C426 C422 1.423 . S
C426 C423 1.351 . S
C426 H438 0.930 . S
C427 C429 1.400 . S
C427 C430 1.386 . S
C427 H439 0.930 . S
N428 C421 1.377 . S
N428 C429 1.321 . S
N428 Eu431 2.609 . S
C429 C427 1.400 . S
C429 N428 1.321 . S
C429 H436 0.930 . S
C430 C425 1.395 . S
C430 C427 1.386 . S
C430 H449 0.930 . S
Eu431 N428 2.609 . S
Eu431 N432 2.657 . S
Eu431 O465 2.380 . S
Eu431 O466 2.432 . S
Eu431 O470 2.558 . S
Eu431 O471 2.612 . S
Eu431 O473 2.339 . S
Eu431 O474 2.563 . S
Eu431 O475 2.419 . S
Eu431 C495 2.848 . S
N432 C424 1.362 . S
N432 Eu431 2.657 . S
N432 C433 1.334 . S
C433 N432 1.334 . S
C433 C435 1.413 . S
C433 H440 0.929 . S
C434 C422 1.392 . S
C434 C435 1.367 . S
C434 H442 0.930 . S
C435 C433 1.413 . S
C435 C434 1.367 . S
C435 H437 0.930 . S
H436 C429 0.930 . S
H437 C435 0.930 . S
H438 C426 0.930 . S
H439 C427 0.930 . S
H440 C433 0.929 . S
H441 C455 0.930 . S
H442 C434 0.930 . S
H443 C461 0.930 . S
H444 C452 0.929 . S
H445 C459 0.930 . S
H446 C423 0.931 . S
H447 C453 0.930 . S
H448 C486 0.930 . S
H449 C430 0.930 . S
H450 C485 0.931 . S
N451 Eu420 2.657 . S
N451 C452 1.334 . S
N451 C456 1.362 . S
C452 H444 0.929 . S
C452 N451 1.334 . S
C452 C455 1.413 . S
C453 H447 0.930 . S
C453 C454 1.392 . S
C453 C455 1.367 . S
C454 C453 1.392 . S
C454 C456 1.420 . S
C454 C486 1.423 . S
C455 H441 0.930 . S
C455 C452 1.413 . S
C455 C453 1.367 . S
C456 N451 1.362 . S
C456 C454 1.420 . S
C456 C460 1.429 . S
H457 C462 0.930 . S
N458 Eu420 2.609 . S
N458 C460 1.377 . S
N458 C461 1.321 . S
C459 H445 0.930 . S
C459 C461 1.400 . S
C459 C462 1.386 . S
C460 C456 1.429 . S
C460 N458 1.377 . S
C460 C463 1.411 . S
C461 H443 0.930 . S
C461 N458 1.321 . S
C461 C459 1.400 . S
C462 H457 0.930 . S
C462 C459 1.386 . S
C462 C463 1.395 . S
C463 C460 1.411 . S
C463 C462 1.395 . S
C463 C485 1.420 . S
O464 Eu420 2.558 . S
O464 C484 1.257 . S
O465 Eu420 2.612 . S
O465 Eu431 2.380 . S
O465 C476 1.276 . S
O466 Eu431 2.432 . S
O466 C483 1.264 . S
O467 Eu420 2.339 . S
O467 C483 1.254 . S
O468 Eu420 2.563 . S
O468 C476 1.235 . S
O469 Eu420 2.419 . S
O469 C484 1.249 . S
O470 Eu431 2.558 . S
O470 C495 1.257 . S
O471 Eu420 2.380 . S
O471 Eu431 2.612 . S
O471 C487 1.276 . S
O472 Eu420 2.432 . S
O472 C494 1.264 . S
O473 Eu431 2.339 . S
O473 C494 1.254 . S
O474 Eu431 2.563 . S
O474 C487 1.235 . S
O475 Eu431 2.419 . S
O475 C495 1.249 . S
C476 O465 1.276 . S
C476 O468 1.235 . S
C477 C479 1.393 . S
C477 C481 1.395 . S
C477 C484 1.492 . S
C478 C479 1.392 . S
C478 C480 1.386 . S
C479 C477 1.393 . S
C479 C478 1.392 . S
C479 H496 0.930 . S
C480 C478 1.386 . S
C480 C482 1.395 . S
C480 H497 0.930 . S
C481 C477 1.395 . S
C481 C482 1.379 . S
C481 H498 0.930 . S
C482 C480 1.395 . S
C482 C481 1.379 . S
C482 H499 0.930 . S
C483 O466 1.264 . S
C483 O467 1.254 . S
C484 Eu420 2.848 . S
C484 O464 1.257 . S
C484 O469 1.249 . S
C484 C477 1.492 . S
C485 H450 0.931 . S
C485 C463 1.420 . S
C485 C486 1.351 . S
C486 H448 0.930 . S
C486 C454 1.423 . S
C486 C485 1.351 . S
C487 O471 1.276 . S
C487 O474 1.235 . S
C488 C489 1.393 . S
C488 C492 1.395 . S
C488 C495 1.492 . S
C489 C488 1.393 . S
C489 C490 1.392 . S
C489 H500 0.930 . S
C490 C489 1.392 . S
C490 C491 1.386 . S
C491 C490 1.386 . S
C491 C493 1.395 . S
C491 H501 0.930 . S
C492 C488 1.395 . S
C492 C493 1.379 . S
C492 H502 0.930 . S
C493 C491 1.395 . S
C493 C492 1.379 . S
C493 H503 0.930 . S
C494 O472 1.264 . S
C494 O473 1.254 . S
C495 Eu431 2.848 . S
C495 O470 1.257 . S
C495 O475 1.249 . S
C495 C488 1.492 . S
H496 C479 0.930 . S
H497 C480 0.930 . S
H498 C481 0.930 . S
H499 C482 0.930 . S
H500 C489 0.930 . S
H501 C491 0.930 . S
H502 C492 0.930 . S
H503 C493 0.930 . S
Eu504 N535 2.657 . S
Eu504 N542 2.609 . S
Eu504 O548 2.558 . S
Eu504 O549 2.612 . S
Eu504 O551 2.339 . S
Eu504 O552 2.563 . S
Eu504 O553 2.419 . S
Eu504 O555 2.380 . S
Eu504 O556 2.432 . S
Eu504 C568 2.848 . S
C505 C508 1.429 . S
C505 C509 1.411 . S
C505 N512 1.377 . S
C506 C508 1.420 . S
C506 C510 1.423 . S
C506 C518 1.392 . S
C507 C509 1.420 . S
C507 C510 1.351 . S
C507 H530 0.931 . S
C508 C505 1.429 . S
C508 C506 1.420 . S
C508 N516 1.362 . S
C509 C505 1.411 . S
C509 C507 1.420 . S
C509 C514 1.395 . S
C510 C506 1.423 . S
C510 C507 1.351 . S
C510 H522 0.930 . S
C511 C513 1.400 . S
C511 C514 1.386 . S
C511 H523 0.930 . S
N512 C505 1.377 . S
N512 C513 1.321 . S
N512 Eu515 2.609 . S
C513 C511 1.400 . S
C513 N512 1.321 . S
C513 H520 0.930 . S
C514 C509 1.395 . S
C514 C511 1.386 . S
C514 H533 0.930 . S
Eu515 N512 2.609 . S
Eu515 N516 2.657 . S
Eu515 O549 2.380 . S
Eu515 O550 2.432 . S
Eu515 O554 2.558 . S
Eu515 O555 2.612 . S
Eu515 O557 2.339 . S
Eu515 O558 2.563 . S
Eu515 O559 2.419 . S
Eu515 C579 2.848 . S
N516 C508 1.362 . S
N516 Eu515 2.657 . S
N516 C517 1.334 . S
C517 N516 1.334 . S
C517 C519 1.413 . S
C517 H524 0.929 . S
C518 C506 1.392 . S
C518 C519 1.367 . S
C518 H526 0.930 . S
C519 C517 1.413 . S
C519 C518 1.367 . S
C519 H521 0.930 . S
H520 C513 0.930 . S
H521 C519 0.930 . S
H522 C510 0.930 . S
H523 C511 0.930 . S
H524 C517 0.929 . S
H525 C539 0.930 . S
H526 C518 0.930 . S
H527 C545 0.930 . S
H528 C536 0.929 . S
H529 C543 0.930 . S
H530 C507 0.931 . S
H531 C537 0.930 . S
H532 C570 0.930 . S
H533 C514 0.930 . S
H534 C569 0.931 . S
N535 Eu504 2.657 . S
N535 C536 1.334 . S
N535 C540 1.362 . S
C536 H528 0.929 . S
C536 N535 1.334 . S
C536 C539 1.413 . S
C537 H531 0.930 . S
C537 C538 1.392 . S
C537 C539 1.367 . S
C538 C537 1.392 . S
C538 C540 1.420 . S
C538 C570 1.423 . S
C539 H525 0.930 . S
C539 C536 1.413 . S
C539 C537 1.367 . S
C540 N535 1.362 . S
C540 C538 1.420 . S
C540 C544 1.429 . S
H541 C546 0.930 . S
N542 Eu504 2.609 . S
N542 C544 1.377 . S
N542 C545 1.321 . S
C543 H529 0.930 . S
C543 C545 1.400 . S
C543 C546 1.386 . S
C544 C540 1.429 . S
C544 N542 1.377 . S
C544 C547 1.411 . S
C545 H527 0.930 . S
C545 N542 1.321 . S
C545 C543 1.400 . S
C546 H541 0.930 . S
C546 C543 1.386 . S
C546 C547 1.395 . S
C547 C544 1.411 . S
C547 C546 1.395 . S
C547 C569 1.420 . S
O548 Eu504 2.558 . S
O548 C568 1.257 . S
O549 Eu504 2.612 . S
O549 Eu515 2.380 . S
O549 C560 1.276 . S
O550 Eu515 2.432 . S
O550 C567 1.264 . S
O551 Eu504 2.339 . S
O551 C567 1.254 . S
O552 Eu504 2.563 . S
O552 C560 1.235 . S
O553 Eu504 2.419 . S
O553 C568 1.249 . S
O554 Eu515 2.558 . S
O554 C579 1.257 . S
O555 Eu504 2.380 . S
O555 Eu515 2.612 . S
O555 C571 1.276 . S
O556 Eu504 2.432 . S
O556 C578 1.264 . S
O557 Eu515 2.339 . S
O557 C578 1.254 . S
O558 Eu515 2.563 . S
O558 C571 1.235 . S
O559 Eu515 2.419 . S
O559 C579 1.249 . S
C560 O549 1.276 . S
C560 O552 1.235 . S
C561 C563 1.393 . S
C561 C565 1.395 . S
C561 C568 1.492 . S
C562 C563 1.392 . S
C562 C564 1.386 . S
C563 C561 1.393 . S
C563 C562 1.392 . S
C563 H580 0.930 . S
C564 C562 1.386 . S
C564 C566 1.395 . S
C564 H581 0.930 . S
C565 C561 1.395 . S
C565 C566 1.379 . S
C565 H582 0.930 . S
C566 C564 1.395 . S
C566 C565 1.379 . S
C566 H583 0.930 . S
C567 O550 1.264 . S
C567 O551 1.254 . S
C568 Eu504 2.848 . S
C568 O548 1.257 . S
C568 O553 1.249 . S
C568 C561 1.492 . S
C569 H534 0.931 . S
C569 C547 1.420 . S
C569 C570 1.351 . S
C570 H532 0.930 . S
C570 C538 1.423 . S
C570 C569 1.351 . S
C571 O555 1.276 . S
C571 O558 1.235 . S
C572 C573 1.393 . S
C572 C576 1.395 . S
C572 C579 1.492 . S
C573 C572 1.393 . S
C573 C574 1.392 . S
C573 H584 0.930 . S
C574 C573 1.392 . S
C574 C575 1.386 . S
C575 C574 1.386 . S
C575 C577 1.395 . S
C575 H585 0.930 . S
C576 C572 1.395 . S
C576 C577 1.379 . S
C576 H586 0.930 . S
C577 C575 1.395 . S
C577 C576 1.379 . S
C577 H587 0.930 . S
C578 O556 1.264 . S
C578 O557 1.254 . S
C579 Eu515 2.848 . S
C579 O554 1.257 . S
C579 O559 1.249 . S
C579 C572 1.492 . S
H580 C563 0.930 . S
H581 C564 0.930 . S
H582 C565 0.930 . S
H583 C566 0.930 . S
H584 C573 0.930 . S
H585 C575 0.930 . S
H586 C576 0.930 . S
H587 C577 0.930 . S
Eu588 N619 2.657 . S
Eu588 N626 2.609 . S
Eu588 O632 2.558 . S
Eu588 O633 2.612 . S
Eu588 O635 2.339 . S
Eu588 O636 2.563 . S
Eu588 O637 2.419 . S
Eu588 O639 2.380 . S
Eu588 O640 2.432 . S
Eu588 C652 2.848 . S
C589 C592 1.429 . S
C589 C593 1.411 . S
C589 N596 1.377 . S
C590 C592 1.420 . S
C590 C594 1.423 . S
C590 C602 1.392 . S
C591 C593 1.420 . S
C591 C594 1.351 . S
C591 H614 0.931 . S
C592 C589 1.429 . S
C592 C590 1.420 . S
C592 N600 1.362 . S
C593 C589 1.411 . S
C593 C591 1.420 . S
C593 C598 1.395 . S
C594 C590 1.423 . S
C594 C591 1.351 . S
C594 H606 0.930 . S
C595 C597 1.400 . S
C595 C598 1.386 . S
C595 H607 0.930 . S
N596 C589 1.377 . S
N596 C597 1.321 . S
N596 Eu599 2.609 . S
C597 C595 1.400 . S
C597 N596 1.321 . S
C597 H604 0.930 . S
C598 C593 1.395 . S
C598 C595 1.386 . S
C598 H617 0.930 . S
Eu599 N596 2.609 . S
Eu599 N600 2.657 . S
Eu599 O633 2.380 . S
Eu599 O634 2.432 . S
Eu599 O638 2.558 . S
Eu599 O639 2.612 . S
Eu599 O641 2.339 . S
Eu599 O642 2.563 . S
Eu599 O643 2.419 . S
Eu599 C663 2.848 . S
N600 C592 1.362 . S
N600 Eu599 2.657 . S
N600 C601 1.334 . S
C601 N600 1.334 . S
C601 C603 1.413 . S
C601 H608 0.929 . S
C602 C590 1.392 . S
C602 C603 1.367 . S
C602 H610 0.930 . S
C603 C601 1.413 . S
C603 C602 1.367 . S
C603 H605 0.930 . S
H604 C597 0.930 . S
H605 C603 0.930 . S
H606 C594 0.930 . S
H607 C595 0.930 . S
H608 C601 0.929 . S
H609 C623 0.930 . S
H610 C602 0.930 . S
H611 C629 0.930 . S
H612 C620 0.929 . S
H613 C627 0.930 . S
H614 C591 0.931 . S
H615 C621 0.930 . S
H616 C654 0.930 . S
H617 C598 0.930 . S
H618 C653 0.931 . S
N619 Eu588 2.657 . S
N619 C620 1.334 . S
N619 C624 1.362 . S
C620 H612 0.929 . S
C620 N619 1.334 . S
C620 C623 1.413 . S
C621 H615 0.930 . S
C621 C622 1.392 . S
C621 C623 1.367 . S
C622 C621 1.392 . S
C622 C624 1.420 . S
C622 C654 1.423 . S
C623 H609 0.930 . S
C623 C620 1.413 . S
C623 C621 1.367 . S
C624 N619 1.362 . S
C624 C622 1.420 . S
C624 C628 1.429 . S
H625 C630 0.930 . S
N626 Eu588 2.609 . S
N626 C628 1.377 . S
N626 C629 1.321 . S
C627 H613 0.930 . S
C627 C629 1.400 . S
C627 C630 1.386 . S
C628 C624 1.429 . S
C628 N626 1.377 . S
C628 C631 1.411 . S
C629 H611 0.930 . S
C629 N626 1.321 . S
C629 C627 1.400 . S
C630 H625 0.930 . S
C630 C627 1.386 . S
C630 C631 1.395 . S
C631 C628 1.411 . S
C631 C630 1.395 . S
C631 C653 1.420 . S
O632 Eu588 2.558 . S
O632 C652 1.257 . S
O633 Eu588 2.612 . S
O633 Eu599 2.380 . S
O633 C644 1.276 . S
O634 Eu599 2.432 . S
O634 C651 1.264 . S
O635 Eu588 2.339 . S
O635 C651 1.254 . S
O636 Eu588 2.563 . S
O636 C644 1.235 . S
O637 Eu588 2.419 . S
O637 C652 1.249 . S
O638 Eu599 2.558 . S
O638 C663 1.257 . S
O639 Eu588 2.380 . S
O639 Eu599 2.612 . S
O639 C655 1.276 . S
O640 Eu588 2.432 . S
O640 C662 1.264 . S
O641 Eu599 2.339 . S
O641 C662 1.254 . S
O642 Eu599 2.563 . S
O642 C655 1.235 . S
O643 Eu599 2.419 . S
O643 C663 1.249 . S
C644 O633 1.276 . S
C644 O636 1.235 . S
C645 C647 1.393 . S
C645 C649 1.395 . S
C645 C652 1.492 . S
C646 C647 1.392 . S
C646 C648 1.386 . S
C647 C645 1.393 . S
C647 C646 1.392 . S
C647 H664 0.930 . S
C648 C646 1.386 . S
C648 C650 1.395 . S
C648 H665 0.930 . S
C649 C645 1.395 . S
C649 C650 1.379 . S
C649 H666 0.930 . S
C650 C648 1.395 . S
C650 C649 1.379 . S
C650 H667 0.930 . S
C651 O634 1.264 . S
C651 O635 1.254 . S
C652 Eu588 2.848 . S
C652 O632 1.257 . S
C652 O637 1.249 . S
C652 C645 1.492 . S
C653 H618 0.931 . S
C653 C631 1.420 . S
C653 C654 1.351 . S
C654 H616 0.930 . S
C654 C622 1.423 . S
C654 C653 1.351 . S
C655 O639 1.276 . S
C655 O642 1.235 . S
C656 C657 1.393 . S
C656 C660 1.395 . S
C656 C663 1.492 . S
C657 C656 1.393 . S
C657 C658 1.392 . S
C657 H668 0.930 . S
C658 C657 1.392 . S
C658 C659 1.386 . S
C659 C658 1.386 . S
C659 C661 1.395 . S
C659 H669 0.930 . S
C660 C656 1.395 . S
C660 C661 1.379 . S
C660 H670 0.930 . S
C661 C659 1.395 . S
C661 C660 1.379 . S
C661 H671 0.930 . S
C662 O640 1.264 . S
C662 O641 1.254 . S
C663 Eu599 2.848 . S
C663 O638 1.257 . S
C663 O643 1.249 . S
C663 C656 1.492 . S
H664 C647 0.930 . S
H665 C648 0.930 . S
H666 C649 0.930 . S
H667 C650 0.930 . S
H668 C657 0.930 . S
H669 C659 0.930 . S
H670 C660 0.930 . S
H671 C661 0.930 . S
Cd672 N675 2.334 1_655 S
Cd672 N701 2.304 1_565 S
Cd672 O708 2.268 . S
Cd672 O711 2.273 1_665 S
Cd672 O712 2.417 . S
Cd672 O713 2.330 . S
Cd673 N688 2.304 1_455 S
Cd673 N692 2.334 1_545 S
Cd673 O709 2.273 1_445 S
Cd673 O710 2.268 . S
Cd673 O714 2.417 . S
Cd673 O715 2.330 . S
C674 N675 1.332 . S
C674 C678 1.381 . S
C674 H680 0.931 . S
N675 Cd672 2.334 1_455 S
N675 C674 1.332 . S
N675 C679 1.328 . S
C676 C677 1.396 . S
C676 C679 1.378 . S
C676 H718 0.931 . S
C677 C676 1.396 . S
C677 C678 1.382 . S
C678 C674 1.381 . S
C678 C677 1.382 . S
C678 H719 0.930 . S
C679 N675 1.328 . S
C679 C676 1.378 . S
C679 H681 0.930 1_455 S
H680 C674 0.931 . S
H681 C679 0.930 1_655 S
C682 O708 1.238 . S
C682 O709 1.253 . S
C683 C684 1.379 . S
C683 N688 1.337 . S
C683 H689 0.929 . S
C684 C683 1.379 . S
C684 C685 1.380 . S
C684 H720 0.929 . S
C685 C684 1.380 . S
C685 C686 1.399 . S
C686 C685 1.399 . S
C686 C687 1.376 . S
C686 H721 0.931 . S
C687 C686 1.376 . S
C687 N688 1.338 . S
C687 H690 0.930 1_655 S
N688 Cd673 2.304 1_655 S
N688 C683 1.337 . S
N688 C687 1.338 . S
H689 C683 0.929 . S
H690 C687 0.930 1_455 S
C691 N692 1.332 . S
C691 C695 1.381 . S
C691 H697 0.931 . S
N692 Cd673 2.334 1_565 S
N692 C691 1.332 . S
N692 C696 1.328 . S
C693 C694 1.396 . S
C693 C696 1.378 . S
C693 H722 0.931 . S
C694 C693 1.396 . S
C694 C695 1.382 . S
C695 C691 1.381 . S
C695 C694 1.382 . S
C695 H723 0.930 . S
C696 N692 1.328 . S
C696 C693 1.378 . S
C696 H698 0.930 1_565 S
H697 C691 0.931 . S
H698 C696 0.930 1_545 S
C699 O710 1.238 . S
C699 O711 1.253 . S
C700 O712 1.239 . S
C700 O713 1.230 . S
N701 Cd672 2.304 1_545 S
N701 C702 1.337 . S
N701 C706 1.338 . S
C702 N701 1.337 . S
C702 C703 1.379 . S
C702 H716 0.929 . S
C703 C702 1.379 . S
C703 C704 1.380 . S
C703 H724 0.929 . S
C704 C703 1.380 . S
C704 C705 1.399 . S
C705 C704 1.399 . S
C705 C706 1.376 . S
C705 H725 0.931 . S
C706 N701 1.338 . S
C706 C705 1.376 . S
C706 H717 0.930 1_545 S
C707 O714 1.239 . S
C707 O715 1.230 . S
O708 Cd672 2.268 . S
O708 C682 1.238 . S
O709 Cd673 2.273 1_665 S
O709 C682 1.253 . S
O710 Cd673 2.268 . S
O710 C699 1.238 . S
O711 Cd672 2.273 1_445 S
O711 C699 1.253 . S
O712 Cd672 2.417 . S
O712 C700 1.239 . S
O713 Cd672 2.330 . S
O713 C700 1.230 . S
O714 Cd673 2.417 . S
O714 C707 1.239 . S
O715 Cd673 2.330 . S
O715 C707 1.230 . S
H716 C702 0.929 . S
H717 C706 0.930 1_565 S
H718 C676 0.931 . S
H719 C678 0.930 . S
H720 C684 0.929 . S
H721 C686 0.931 . S
H722 C693 0.931 . S
H723 C695 0.930 . S
H724 C703 0.929 . S
H725 C705 0.931 . S
Cd726 N729 2.334 . S
Cd726 N755 2.304 1_565 S
Cd726 O762 2.268 1_554 S
Cd726 O765 2.273 1_565 S
Cd726 O766 2.417 . S
Cd726 O767 2.330 . S
Cd727 N742 2.304 . S
Cd727 N746 2.334 1_545 S
Cd727 O763 2.273 1_545 S
Cd727 O764 2.268 1_556 S
Cd727 O768 2.417 . S
Cd727 O769 2.330 . S
C728 N729 1.332 . S
C728 C732 1.381 . S
C728 H734 0.931 . S
N729 Cd726 2.334 . S
N729 C728 1.332 . S
N729 C733 1.328 . S
C730 C731 1.396 . S
C730 C733 1.378 . S
C730 H772 0.931 . S
C731 C730 1.396 . S
C731 C732 1.382 . S
C732 C728 1.381 . S
C732 C731 1.382 . S
C732 H773 0.930 . S
C733 N729 1.328 . S
C733 C730 1.378 . S
C733 H735 0.929 . S
H734 C728 0.931 . S
H735 C733 0.929 . S
C736 O762 1.238 . S
C736 O763 1.253 . S
C737 C738 1.379 . S
C737 N742 1.337 . S
C737 H743 0.929 . S
C738 C737 1.379 . S
C738 C739 1.380 . S
C738 H774 0.929 . S
C739 C738 1.380 . S
C739 C740 1.399 . S
C740 C739 1.399 . S
C740 C741 1.376 . S
C740 H775 0.950 . S
C741 C740 1.376 . S
C741 N742 1.338 . S
C741 H744 0.930 1_556 S
N742 Cd727 2.304 . S
N742 C737 1.337 . S
N742 C741 1.338 . S
H743 C737 0.929 . S
H744 C741 0.930 1_554 S
C745 N746 1.332 . S
C745 C749 1.381 . S
C745 H751 0.931 . S
N746 Cd727 2.334 1_565 S
N746 C745 1.332 . S
N746 C750 1.321 . S
C747 C748 1.396 . S
C747 C750 1.412 . S
C747 H776 0.931 1_556 S
C748 C747 1.396 . S
C748 C749 1.382 . S
C749 C745 1.381 . S
C749 C748 1.382 . S
C749 H777 0.930 . S
C750 N746 1.321 . S
C750 C747 1.412 . S
C750 H752 0.902 1_566 S
H751 C745 0.931 . S
H752 C750 0.902 1_544 S
C753 O764 1.238 . S
C753 O765 1.253 . S
C754 O766 1.239 . S
C754 O767 1.230 . S
N755 Cd726 2.304 1_545 S
N755 C756 1.337 . S
N755 C760 1.338 . S
C756 N755 1.337 . S
C756 C757 1.379 . S
C756 H770 0.929 . S
C757 C756 1.379 . S
C757 C758 1.380 . S
C757 H778 0.929 . S
C758 C757 1.380 . S
C758 C759 1.399 . S
C759 C758 1.399 . S
C759 C760 1.376 . S
C759 H779 0.931 1_554 S
C760 N755 1.338 . S
C760 C759 1.376 . S
C760 H771 0.930 1_544 S
C761 O768 1.239 . S
C761 O769 1.230 . S
O762 Cd726 2.268 1_556 S
O762 C736 1.238 . S
O763 Cd727 2.273 1_565 S
O763 C736 1.253 . S
O764 Cd727 2.268 1_554 S
O764 C753 1.238 . S
O765 Cd726 2.273 1_545 S
O765 C753 1.253 . S
O766 Cd726 2.417 . S
O766 C754 1.239 . S
O767 Cd726 2.330 . S
O767 C754 1.230 . S
O768 Cd727 2.417 . S
O768 C761 1.239 . S
O769 Cd727 2.330 . S
O769 C761 1.230 . S
H770 C756 0.929 . S
H771 C760 0.930 1_566 S
H772 C730 0.931 . S
H773 C732 0.930 . S
H774 C738 0.929 . S
H775 C740 0.950 . S
H776 C747 0.931 1_554 S
H777 C749 0.930 . S
H778 C757 0.929 . S
H779 C759 0.931 1_556 S
Cd780 N783 2.334 1_655 S
Cd780 N809 2.304 . S
Cd780 O816 2.268 1_554 S
Cd780 O819 2.273 1_655 S
Cd780 O820 2.417 . S
Cd780 O821 2.330 . S
Cd781 N796 2.304 1_455 S
Cd781 N800 2.334 . S
Cd781 O817 2.273 1_455 S
Cd781 O818 2.268 1_556 S
Cd781 O822 2.417 . S
Cd781 O823 2.330 . S
C782 N783 1.332 . S
C782 C786 1.381 . S
C782 H788 0.931 . S
N783 Cd780 2.334 1_455 S
N783 C782 1.332 . S
N783 C787 1.328 . S
C784 C785 1.396 . S
C784 C787 1.378 . S
C784 H826 0.931 . S
C785 C784 1.396 . S
C785 C786 1.382 . S
C786 C782 1.381 . S
C786 C785 1.382 . S
C786 H827 0.930 . S
C787 N783 1.328 . S
C787 C784 1.378 . S
C787 H789 0.928 1_455 S
H788 C782 0.931 . S
H789 C787 0.928 1_655 S
C790 O816 1.238 . S
C790 O817 1.253 . S
C791 C792 1.379 . S
C791 N796 1.337 . S
C791 H797 0.929 . S
C792 C791 1.379 . S
C792 C793 1.380 . S
C792 H828 0.929 . S
C793 C792 1.380 . S
C793 C794 1.399 . S
C794 C793 1.399 . S
C794 C795 1.376 . S
C794 H829 0.950 . S
C795 C794 1.376 . S
C795 N796 1.338 . S
C795 H798 0.930 1_656 S
N796 Cd781 2.304 1_655 S
N796 C791 1.337 . S
N796 C795 1.338 . S
H797 C791 0.929 . S
H798 C795 0.930 1_454 S
C799 N800 1.332 . S
C799 C803 1.381 . S
C799 H805 0.931 . S
N800 Cd781 2.334 . S
N800 C799 1.332 . S
N800 C804 1.328 . S
C801 C802 1.396 . S
C801 C804 1.378 . S
C801 H830 0.931 1_556 S
C802 C801 1.396 . S
C802 C803 1.382 . S
C803 C799 1.381 . S
C803 C802 1.382 . S
C803 H831 0.930 . S
C804 N800 1.328 . S
C804 C801 1.378 . S
C804 H806 0.930 1_556 S
H805 C799 0.931 . S
H806 C804 0.930 1_554 S
C807 O818 1.238 . S
C807 O819 1.253 . S
C808 O820 1.239 . S
C808 O821 1.230 . S
N809 Cd780 2.304 . S
N809 C810 1.337 . S
N809 C814 1.338 . S
C810 N809 1.337 . S
C810 C811 1.379 . S
C810 H824 0.929 . S
C811 C810 1.379 . S
C811 C812 1.380 . S
C811 H832 0.929 . S
C812 C811 1.380 . S
C812 C813 1.399 . S
C813 C812 1.399 . S
C813 C814 1.376 . S
C813 H833 0.931 1_554 S
C814 N809 1.338 . S
C814 C813 1.376 . S
C814 H825 0.930 1_554 S
C815 O822 1.239 . S
C815 O823 1.230 . S
O816 Cd780 2.268 1_556 S
O816 C790 1.238 . S
O817 Cd781 2.273 1_655 S
O817 C790 1.253 . S
O818 Cd781 2.268 1_554 S
O818 C807 1.238 . S
O819 Cd780 2.273 1_455 S
O819 C807 1.253 . S
O820 Cd780 2.417 . S
O820 C808 1.239 . S
O821 Cd780 2.330 . S
O821 C808 1.230 . S
O822 Cd781 2.417 . S
O822 C815 1.239 . S
O823 Cd781 2.330 . S
O823 C815 1.230 . S
H824 C810 0.929 . S
H825 C814 0.930 1_556 S
H826 C784 0.931 . S
H827 C786 0.930 . S
H828 C792 0.929 . S
H829 C794 0.950 . S
H830 C801 0.931 1_554 S
H831 C803 0.930 . S
H832 C811 0.929 . S
H833 C813 0.931 1_556 S
Cd834 N837 2.334 . S
Cd834 N863 2.304 . S
Cd834 O870 2.268 1_554 S
Cd834 O873 2.273 . S
Cd834 O874 2.417 . S
Cd834 O875 2.330 . S
Cd835 N850 2.304 . S
Cd835 N854 2.334 . S
Cd835 O871 2.273 . S
Cd835 O872 2.268 1_556 S
Cd835 O876 2.417 . S
Cd835 O877 2.330 . S
C836 N837 1.332 . S
C836 C840 1.381 . S
C836 H842 0.931 . S
N837 Cd834 2.334 . S
N837 C836 1.332 . S
N837 C841 1.328 . S
C838 C839 1.396 . S
C838 C841 1.378 . S
C838 H880 0.931 . S
C839 C838 1.396 . S
C839 C840 1.382 . S
C840 C836 1.381 . S
C840 C839 1.382 . S
C840 H881 0.930 . S
C841 N837 1.328 . S
C841 C838 1.378 . S
C841 H843 0.928 . S
H842 C836 0.931 . S
H843 C841 0.928 . S
C844 O870 1.238 . S
C844 O871 1.253 . S
C845 C846 1.379 . S
C845 N850 1.337 . S
C845 H851 0.929 . S
C846 C845 1.379 . S
C846 C847 1.380 . S
C846 H882 0.929 . S
C847 C846 1.380 . S
C847 C848 1.399 . S
C848 C847 1.399 . S
C848 C849 1.376 . S
C848 H883 0.951 . S
C849 C848 1.376 . S
C849 N850 1.338 . S
C849 H852 0.930 1_556 S
N850 Cd835 2.304 . S
N850 C845 1.337 . S
N850 C849 1.338 . S
H851 C845 0.929 . S
H852 C849 0.930 1_554 S
C853 N854 1.332 . S
C853 C857 1.381 . S
C853 H859 0.931 . S
N854 Cd835 2.334 . S
N854 C853 1.332 . S
N854 C858 1.328 . S
C855 C856 1.396 . S
C855 C858 1.378 . S
C855 H884 0.931 1_556 S
C856 C855 1.396 . S
C856 C857 1.382 . S
C857 C853 1.381 . S
C857 C856 1.382 . S
C857 H885 0.930 . S
C858 N854 1.328 . S
C858 C855 1.378 . S
C858 H860 0.930 1_556 S
H859 C853 0.931 . S
H860 C858 0.930 1_554 S
C861 O872 1.238 . S
C861 O873 1.253 . S
C862 O874 1.239 . S
C862 O875 1.230 . S
N863 Cd834 2.304 . S
N863 C864 1.337 . S
N863 C868 1.338 . S
C864 N863 1.337 . S
C864 C865 1.379 . S
C864 H878 0.929 . S
C865 C864 1.379 . S
C865 C866 1.380 . S
C865 H886 0.929 . S
C866 C865 1.380 . S
C866 C867 1.399 . S
C867 C866 1.399 . S
C867 C868 1.376 . S
C867 H887 0.931 1_554 S
C868 N863 1.338 . S
C868 C867 1.376 . S
C868 H879 0.930 1_554 S
C869 O876 1.239 . S
C869 O877 1.230 . S
O870 Cd834 2.268 1_556 S
O870 C844 1.238 . S
O871 Cd835 2.273 . S
O871 C844 1.253 . S
O872 Cd835 2.268 1_554 S
O872 C861 1.238 . S
O873 Cd834 2.273 . S
O873 C861 1.253 . S
O874 Cd834 2.417 . S
O874 C862 1.239 . S
O875 Cd834 2.330 . S
O875 C862 1.230 . S
O876 Cd835 2.417 . S
O876 C869 1.239 . S
O877 Cd835 2.330 . S
O877 C869 1.230 . S
H878 C864 0.929 . S
H879 C868 0.930 1_556 S
H880 C838 0.931 . S
H881 C840 0.930 . S
H882 C846 0.929 . S
H883 C848 0.951 . S
H884 C855 0.931 1_554 S
H885 C857 0.930 . S
H886 C865 0.929 . S
H887 C867 0.931 1_556 S
Cd888 N891 2.334 1_655 S
Cd888 N917 2.304 . S
Cd888 O924 2.268 . S
Cd888 O927 2.273 1_655 S
Cd888 O928 2.417 . S
Cd888 O929 2.330 . S
Cd889 N904 2.304 1_455 S
Cd889 N908 2.334 . S
Cd889 O925 2.273 1_455 S
Cd889 O926 2.268 . S
Cd889 O930 2.417 . S
Cd889 O931 2.330 . S
C890 N891 1.332 . S
C890 C894 1.381 . S
C890 H896 0.931 . S
N891 Cd888 2.334 1_455 S
N891 C890 1.332 . S
N891 C895 1.328 . S
C892 C893 1.396 . S
C892 C895 1.378 . S
C892 H934 0.931 . S
C893 C892 1.396 . S
C893 C894 1.382 . S
C894 C890 1.381 . S
C894 C893 1.382 . S
C894 H935 0.930 . S
C895 N891 1.328 . S
C895 C892 1.378 . S
C895 H897 0.930 1_455 S
H896 C890 0.931 . S
H897 C895 0.930 1_655 S
C898 O924 1.238 . S
C898 O925 1.253 . S
C899 C900 1.379 . S
C899 N904 1.337 . S
C899 H905 0.929 . S
C900 C899 1.379 . S
C900 C901 1.380 . S
C900 H936 0.929 . S
C901 C900 1.380 . S
C901 C902 1.399 . S
C902 C901 1.399 . S
C902 C903 1.376 . S
C902 H937 0.931 . S
C903 C902 1.376 . S
C903 N904 1.338 . S
C903 H906 0.930 1_655 S
N904 Cd889 2.304 1_655 S
N904 C899 1.337 . S
N904 C903 1.338 . S
H905 C899 0.929 . S
H906 C903 0.930 1_455 S
C907 N908 1.332 . S
C907 C911 1.381 . S
C907 H913 0.931 . S
N908 Cd889 2.334 . S
N908 C907 1.332 . S
N908 C912 1.328 . S
C909 C910 1.396 . S
C909 C912 1.378 . S
C909 H938 0.931 . S
C910 C909 1.396 . S
C910 C911 1.382 . S
C911 C907 1.381 . S
C911 C910 1.382 . S
C911 H939 0.930 . S
C912 N908 1.328 . S
C912 C909 1.378 . S
C912 H914 0.930 . S
H913 C907 0.931 . S
H914 C912 0.930 . S
C915 O926 1.238 . S
C915 O927 1.253 . S
C916 O928 1.239 . S
C916 O929 1.230 . S
N917 Cd888 2.304 . S
N917 C918 1.337 . S
N917 C922 1.338 . S
C918 N917 1.337 . S
C918 C919 1.379 . S
C918 H932 0.929 . S
C919 C918 1.379 . S
C919 C920 1.380 . S
C919 H940 0.929 . S
C920 C919 1.380 . S
C920 C921 1.399 . S
C921 C920 1.399 . S
C921 C922 1.376 . S
C921 H941 0.931 . S
C922 N917 1.338 . S
C922 C921 1.376 . S
C922 H933 0.930 . S
C923 O930 1.239 . S
C923 O931 1.230 . S
O924 Cd888 2.268 . S
O924 C898 1.238 . S
O925 Cd889 2.273 1_655 S
O925 C898 1.253 . S
O926 Cd889 2.268 . S
O926 C915 1.238 . S
O927 Cd888 2.273 1_455 S
O927 C915 1.253 . S
O928 Cd888 2.417 . S
O928 C916 1.239 . S
O929 Cd888 2.330 . S
O929 C916 1.230 . S
O930 Cd889 2.417 . S
O930 C923 1.239 . S
O931 Cd889 2.330 . S
O931 C923 1.230 . S
H932 C918 0.929 . S
H933 C922 0.930 . S
H934 C892 0.931 . S
H935 C894 0.930 . S
H936 C900 0.929 . S
H937 C902 0.931 . S
H938 C909 0.931 . S
H939 C911 0.930 . S
H940 C919 0.929 . S
H941 C921 0.931 . S
Cd942 N945 2.334 . S
Cd942 N971 2.304 1_565 S
Cd942 O978 2.268 . S
Cd942 O981 2.273 1_565 S
Cd942 O982 2.417 . S
Cd942 O983 2.330 . S
Cd943 N958 2.304 . S
Cd943 N962 2.334 1_545 S
Cd943 O979 2.273 1_545 S
Cd943 O980 2.268 . S
Cd943 O984 2.417 . S
Cd943 O985 2.330 . S
C944 N945 1.332 . S
C944 C948 1.381 . S
C944 H950 0.931 . S
N945 Cd942 2.334 . S
N945 C944 1.332 . S
N945 C949 1.328 . S
C946 C947 1.396 . S
C946 C949 1.378 . S
C946 H988 0.931 . S
C947 C946 1.396 . S
C947 C948 1.382 . S
C948 C944 1.381 . S
C948 C947 1.382 . S
C948 H989 0.930 . S
C949 N945 1.328 . S
C949 C946 1.378 . S
C949 H951 0.930 . S
H950 C944 0.931 . S
H951 C949 0.930 . S
C952 O978 1.238 . S
C952 O979 1.253 . S
C953 C954 1.379 . S
C953 N958 1.337 . S
C953 H959 0.929 . S
C954 C953 1.379 . S
C954 C955 1.380 . S
C954 H990 0.929 . S
C955 C954 1.380 . S
C955 C956 1.399 . S
C956 C955 1.399 . S
C956 C957 1.376 . S
C956 H991 0.931 . S
C957 C956 1.376 . S
C957 N958 1.338 . S
C957 H960 0.930 . S
N958 Cd943 2.304 . S
N958 C953 1.337 . S
N958 C957 1.338 . S
H959 C953 0.929 . S
H960 C957 0.930 . S
C961 N962 1.332 . S
C961 C965 1.381 . S
C961 H967 0.931 . S
N962 Cd943 2.334 1_565 S
N962 C961 1.332 . S
N962 C966 1.328 . S
C963 C964 1.396 . S
C963 C966 1.378 . S
C963 H992 0.931 . S
C964 C963 1.396 . S
C964 C965 1.382 . S
C965 C961 1.381 . S
C965 C964 1.382 . S
C965 H993 0.930 . S
C966 N962 1.328 . S
C966 C963 1.378 . S
C966 H968 0.930 1_565 S
H967 C961 0.931 . S
H968 C966 0.930 1_545 S
C969 O980 1.238 . S
C969 O981 1.253 . S
C970 O982 1.239 . S
C970 O983 1.230 . S
N971 Cd942 2.304 1_545 S
N971 C972 1.337 . S
N971 C976 1.338 . S
C972 N971 1.337 . S
C972 C973 1.379 . S
C972 H986 0.929 . S
C973 C972 1.379 . S
C973 C974 1.380 . S
C973 H994 0.929 . S
C974 C973 1.380 . S
C974 C975 1.399 . S
C975 C974 1.399 . S
C975 C976 1.376 . S
C975 H995 0.931 . S
C976 N971 1.338 . S
C976 C975 1.376 . S
C976 H987 0.930 1_545 S
C977 O984 1.239 . S
C977 O985 1.230 . S
O978 Cd942 2.268 . S
O978 C952 1.238 . S
O979 Cd943 2.273 1_565 S
O979 C952 1.253 . S
O980 Cd943 2.268 . S
O980 C969 1.238 . S
O981 Cd942 2.273 1_545 S
O981 C969 1.253 . S
O982 Cd942 2.417 . S
O982 C970 1.239 . S
O983 Cd942 2.330 . S
O983 C970 1.230 . S
O984 Cd943 2.417 . S
O984 C977 1.239 . S
O985 Cd943 2.330 . S
O985 C977 1.230 . S
H986 C972 0.929 . S
H987 C976 0.930 1_565 S
H988 C946 0.931 . S
H989 C948 0.930 . S
H990 C954 0.929 . S
H991 C956 0.931 . S
H992 C963 0.931 . S
H993 C965 0.930 . S
H994 C973 0.929 . S
H995 C975 0.931 . S
C996 C997 1.391 . S
C996 C998 1.394 . S
C996 H1012 0.931 . S
C997 C996 1.391 . S
C997 C1001 1.376 . S
C998 C996 1.394 . S
C998 C999 1.369 . S
C998 C1002 1.531 . S
C999 C998 1.369 . S
C999 C1000 1.410 . S
C999 C1007 1.503 . S
C1000 C999 1.410 . S
C1000 C1001 1.392 . S
C1000 C1003 1.511 . S
C1001 C997 1.376 . S
C1001 C1000 1.392 . S
C1001 H1013 0.929 . S
C1002 C998 1.531 . S
C1002 H1014 0.960 . S
C1002 H1015 0.962 . S
C1002 H1016 0.960 . S
C1003 C1000 1.511 . S
C1003 H1017 0.961 . S
C1003 H1018 0.961 . S
C1003 H1019 0.961 . S
C1004 C1005 1.370 . S
C1004 C1006 1.363 . S
C1004 H1020 0.931 . S
C1005 C1004 1.370 . S
C1005 C1009 1.408 . S
C1006 C1004 1.363 . S
C1006 C1007 1.370 . S
C1006 C1010 1.524 . S
C1007 C999 1.503 . S
C1007 C1006 1.370 . S
C1007 C1008 1.403 . S
C1008 C1007 1.403 . S
C1008 C1009 1.404 . S
C1008 C1011 1.539 . S
C1009 C1005 1.408 . S
C1009 C1008 1.404 . S
C1009 H1021 0.930 . S
C1010 C1006 1.524 . S
C1010 H1022 0.956 . S
C1010 H1023 0.961 . S
C1010 H1024 0.961 . S
C1011 C1008 1.539 . S
C1011 H1025 0.958 . S
C1011 H1026 0.961 . S
C1011 H1027 0.960 . S
H1012 C996 0.931 . S
H1013 C1001 0.929 . S
H1014 C1002 0.960 . S
H1015 C1002 0.962 . S
H1016 C1002 0.960 . S
H1017 C1003 0.961 . S
H1018 C1003 0.961 . S
H1019 C1003 0.961 . S
H1020 C1004 0.931 . S
H1021 C1009 0.930 . S
H1022 C1010 0.956 . S
H1023 C1010 0.961 . S
H1024 C1010 0.961 . S
H1025 C1011 0.958 . S
H1026 C1011 0.961 . S
H1027 C1011 0.960 . S
C1028 C1029 1.391 . S
C1028 C1030 1.394 . S
C1028 H1044 0.931 . S
C1029 C1028 1.391 . S
C1029 C1033 1.376 . S
C1030 C1028 1.394 . S
C1030 C1031 1.369 . S
C1030 C1034 1.531 . S
C1031 C1030 1.369 . S
C1031 C1032 1.410 . S
C1031 C1039 1.503 . S
C1032 C1031 1.410 . S
C1032 C1033 1.392 . S
C1032 C1035 1.511 . S
C1033 C1029 1.376 . S
C1033 C1032 1.392 . S
C1033 H1045 0.929 . S
C1034 C1030 1.531 . S
C1034 H1046 0.960 . S
C1034 H1047 0.962 . S
C1034 H1048 0.960 . S
C1035 C1032 1.511 . S
C1035 H1049 0.961 . S
C1035 H1050 0.961 . S
C1035 H1051 0.961 . S
C1036 C1037 1.370 . S
C1036 C1038 1.363 . S
C1036 H1052 0.931 . S
C1037 C1036 1.370 . S
C1037 C1041 1.408 . S
C1038 C1036 1.363 . S
C1038 C1039 1.370 . S
C1038 C1042 1.524 . S
C1039 C1031 1.503 . S
C1039 C1038 1.370 . S
C1039 C1040 1.403 . S
C1040 C1039 1.403 . S
C1040 C1041 1.404 . S
C1040 C1043 1.539 . S
C1041 C1037 1.408 . S
C1041 C1040 1.404 . S
C1041 H1053 0.930 . S
C1042 C1038 1.524 . S
C1042 H1054 0.956 . S
C1042 H1055 0.961 . S
C1042 H1056 0.961 . S
C1043 C1040 1.539 . S
C1043 H1057 0.958 . S
C1043 H1058 0.961 . S
C1043 H1059 0.960 . S
H1044 C1028 0.931 . S
H1045 C1033 0.929 . S
H1046 C1034 0.960 . S
H1047 C1034 0.962 . S
H1048 C1034 0.960 . S
H1049 C1035 0.961 . S
H1050 C1035 0.961 . S
H1051 C1035 0.961 . S
H1052 C1036 0.931 . S
H1053 C1041 0.930 . S
H1054 C1042 0.956 . S
H1055 C1042 0.961 . S
H1056 C1042 0.961 . S
H1057 C1043 0.958 . S
H1058 C1043 0.961 . S
H1059 C1043 0.960 . S
C1060 C1061 1.391 . S
C1060 C1062 1.394 . S
C1060 H1076 0.931 . S
C1061 C1060 1.391 . S
C1061 C1065 1.376 . S
C1062 C1060 1.394 . S
C1062 C1063 1.369 . S
C1062 C1066 1.531 . S
C1063 C1062 1.369 . S
C1063 C1064 1.410 . S
C1063 C1071 1.503 . S
C1064 C1063 1.410 . S
C1064 C1065 1.392 . S
C1064 C1067 1.511 . S
C1065 C1061 1.376 . S
C1065 C1064 1.392 . S
C1065 H1077 0.929 . S
C1066 C1062 1.531 . S
C1066 H1078 0.960 . S
C1066 H1079 0.962 . S
C1066 H1080 0.960 . S
C1067 C1064 1.511 . S
C1067 H1081 0.961 . S
C1067 H1082 0.961 . S
C1067 H1083 0.961 . S
C1068 C1069 1.370 . S
C1068 C1070 1.363 . S
C1068 H1084 0.931 . S
C1069 C1068 1.370 . S
C1069 C1073 1.408 . S
C1070 C1068 1.363 . S
C1070 C1071 1.370 . S
C1070 C1074 1.524 . S
C1071 C1063 1.503 . S
C1071 C1070 1.370 . S
C1071 C1072 1.403 . S
C1072 C1071 1.403 . S
C1072 C1073 1.404 . S
C1072 C1075 1.539 . S
C1073 C1069 1.408 . S
C1073 C1072 1.404 . S
C1073 H1085 0.930 . S
C1074 C1070 1.524 . S
C1074 H1086 0.956 . S
C1074 H1087 0.961 . S
C1074 H1088 0.961 . S
C1075 C1072 1.539 . S
C1075 H1089 0.958 . S
C1075 H1090 0.961 . S
C1075 H1091 0.960 . S
H1076 C1060 0.931 . S
H1077 C1065 0.929 . S
H1078 C1066 0.960 . S
H1079 C1066 0.962 . S
H1080 C1066 0.960 . S
H1081 C1067 0.961 . S
H1082 C1067 0.961 . S
H1083 C1067 0.961 . S
H1084 C1068 0.931 . S
H1085 C1073 0.930 . S
H1086 C1074 0.956 . S
H1087 C1074 0.961 . S
H1088 C1074 0.961 . S
H1089 C1075 0.958 . S
H1090 C1075 0.961 . S
H1091 C1075 0.960 . S
C1092 C1093 1.391 . S
C1092 C1094 1.394 . S
C1092 H1108 0.931 . S
C1093 C1092 1.391 . S
C1093 C1097 1.376 . S
C1094 C1092 1.394 . S
C1094 C1095 1.369 . S
C1094 C1098 1.531 . S
C1095 C1094 1.369 . S
C1095 C1096 1.410 . S
C1095 C1103 1.503 . S
C1096 C1095 1.410 . S
C1096 C1097 1.392 . S
C1096 C1099 1.511 . S
C1097 C1093 1.376 . S
C1097 C1096 1.392 . S
C1097 H1109 0.929 . S
C1098 C1094 1.531 . S
C1098 H1110 0.960 . S
C1098 H1111 0.962 . S
C1098 H1112 0.960 . S
C1099 C1096 1.511 . S
C1099 H1113 0.961 . S
C1099 H1114 0.961 . S
C1099 H1115 0.961 . S
C1100 C1101 1.370 . S
C1100 C1102 1.363 . S
C1100 H1116 0.931 . S
C1101 C1100 1.370 . S
C1101 C1105 1.408 . S
C1102 C1100 1.363 . S
C1102 C1103 1.370 . S
C1102 C1106 1.524 . S
C1103 C1095 1.503 . S
C1103 C1102 1.370 . S
C1103 C1104 1.403 . S
C1104 C1103 1.403 . S
C1104 C1105 1.404 . S
C1104 C1107 1.539 . S
C1105 C1101 1.408 . S
C1105 C1104 1.404 . S
C1105 H1117 0.930 . S
C1106 C1102 1.524 . S
C1106 H1118 0.956 . S
C1106 H1119 0.961 . S
C1106 H1120 0.961 . S
C1107 C1104 1.539 . S
C1107 H1121 0.958 . S
C1107 H1122 0.961 . S
C1107 H1123 0.960 . S
H1108 C1092 0.931 . S
H1109 C1097 0.929 . S
H1110 C1098 0.960 . S
H1111 C1098 0.962 . S
H1112 C1098 0.960 . S
H1113 C1099 0.961 . S
H1114 C1099 0.961 . S
H1115 C1099 0.961 . S
H1116 C1100 0.931 . S
H1117 C1105 0.930 . S
H1118 C1106 0.956 . S
H1119 C1106 0.961 . S
H1120 C1106 0.961 . S
H1121 C1107 0.958 . S
H1122 C1107 0.961 . S
H1123 C1107 0.960 . S
C1124 C1125 1.391 . S
C1124 C1126 1.394 . S
C1124 H1140 0.931 . S
C1125 C1124 1.391 . S
C1125 C1129 1.376 . S
C1126 C1124 1.394 . S
C1126 C1127 1.369 . S
C1126 C1130 1.531 . S
C1127 C1126 1.369 . S
C1127 C1128 1.410 . S
C1127 C1135 1.503 . S
C1128 C1127 1.410 . S
C1128 C1129 1.392 . S
C1128 C1131 1.511 . S
C1129 C1125 1.376 . S
C1129 C1128 1.392 . S
C1129 H1141 0.929 . S
C1130 C1126 1.531 . S
C1130 H1142 0.960 . S
C1130 H1143 0.962 . S
C1130 H1144 0.960 . S
C1131 C1128 1.511 . S
C1131 H1145 0.961 . S
C1131 H1146 0.961 . S
C1131 H1147 0.961 . S
C1132 C1133 1.370 . S
C1132 C1134 1.363 . S
C1132 H1148 0.931 . S
C1133 C1132 1.370 . S
C1133 C1137 1.408 . S
C1134 C1132 1.363 . S
C1134 C1135 1.370 . S
C1134 C1138 1.524 . S
C1135 C1127 1.503 . S
C1135 C1134 1.370 . S
C1135 C1136 1.403 . S
C1136 C1135 1.403 . S
C1136 C1137 1.404 . S
C1136 C1139 1.539 . S
C1137 C1133 1.408 . S
C1137 C1136 1.404 . S
C1137 H1149 0.930 . S
C1138 C1134 1.524 . S
C1138 H1150 0.956 . S
C1138 H1151 0.961 . S
C1138 H1152 0.961 . S
C1139 C1136 1.539 . S
C1139 H1153 0.958 . S
C1139 H1154 0.961 . S
C1139 H1155 0.960 . S
H1140 C1124 0.931 . S
H1141 C1129 0.929 . S
H1142 C1130 0.960 . S
H1143 C1130 0.962 . S
H1144 C1130 0.960 . S
H1145 C1131 0.961 . S
H1146 C1131 0.961 . S
H1147 C1131 0.961 . S
H1148 C1132 0.931 . S
H1149 C1137 0.930 . S
H1150 C1138 0.956 . S
H1151 C1138 0.961 . S
H1152 C1138 0.961 . S
H1153 C1139 0.958 . S
H1154 C1139 0.961 . S
H1155 C1139 0.960 . S
C1156 C1157 1.391 . S
C1156 C1158 1.394 . S
C1156 H1172 0.931 . S
C1157 C1156 1.391 . S
C1157 C1161 1.376 . S
C1158 C1156 1.394 . S
C1158 C1159 1.369 . S
C1158 C1162 1.531 . S
C1159 C1158 1.369 . S
C1159 C1160 1.410 . S
C1159 C1167 1.503 . S
C1160 C1159 1.410 . S
C1160 C1161 1.392 . S
C1160 C1163 1.511 . S
C1161 C1157 1.376 . S
C1161 C1160 1.392 . S
C1161 H1173 0.929 . S
C1162 C1158 1.531 . S
C1162 H1174 0.960 . S
C1162 H1175 0.962 . S
C1162 H1176 0.960 . S
C1163 C1160 1.511 . S
C1163 H1177 0.961 . S
C1163 H1178 0.961 . S
C1163 H1179 0.961 . S
C1164 C1165 1.370 . S
C1164 C1166 1.363 . S
C1164 H1180 0.931 . S
C1165 C1164 1.370 . S
C1165 C1169 1.408 . S
C1166 C1164 1.363 . S
C1166 C1167 1.370 . S
C1166 C1170 1.524 . S
C1167 C1159 1.503 . S
C1167 C1166 1.370 . S
C1167 C1168 1.403 . S
C1168 C1167 1.403 . S
C1168 C1169 1.404 . S
C1168 C1171 1.539 . S
C1169 C1165 1.408 . S
C1169 C1168 1.404 . S
C1169 H1181 0.930 . S
C1170 C1166 1.524 . S
C1170 H1182 0.956 . S
C1170 H1183 0.961 . S
C1170 H1184 0.961 . S
C1171 C1168 1.539 . S
C1171 H1185 0.958 . S
C1171 H1186 0.961 . S
C1171 H1187 0.960 . S
H1172 C1156 0.931 . S
H1173 C1161 0.929 . S
H1174 C1162 0.960 . S
H1175 C1162 0.962 . S
H1176 C1162 0.960 . S
H1177 C1163 0.961 . S
H1178 C1163 0.961 . S
H1179 C1163 0.961 . S
H1180 C1164 0.931 . S
H1181 C1169 0.930 . S
H1182 C1170 0.956 . S
H1183 C1170 0.961 . S
H1184 C1170 0.961 . S
H1185 C1171 0.958 . S
H1186 C1171 0.961 . S
H1187 C1171 0.960 . S
C1188 C1189 1.391 . S
C1188 C1190 1.394 . S
C1188 H1204 0.931 . S
C1189 C1188 1.391 . S
C1189 C1193 1.376 . S
C1190 C1188 1.394 . S
C1190 C1191 1.369 . S
C1190 C1194 1.531 . S
C1191 C1190 1.369 . S
C1191 C1192 1.410 . S
C1191 C1199 1.503 . S
C1192 C1191 1.410 . S
C1192 C1193 1.392 . S
C1192 C1195 1.511 . S
C1193 C1189 1.376 . S
C1193 C1192 1.392 . S
C1193 H1205 0.929 . S
C1194 C1190 1.531 . S
C1194 H1206 0.960 . S
C1194 H1207 0.962 . S
C1194 H1208 0.960 . S
C1195 C1192 1.511 . S
C1195 H1209 0.961 . S
C1195 H1210 0.961 . S
C1195 H1211 0.961 . S
C1196 C1197 1.370 . S
C1196 C1198 1.363 . S
C1196 H1212 0.931 . S
C1197 C1196 1.370 . S
C1197 C1201 1.408 . S
C1198 C1196 1.363 . S
C1198 C1199 1.370 . S
C1198 C1202 1.524 . S
C1199 C1191 1.503 . S
C1199 C1198 1.370 . S
C1199 C1200 1.403 . S
C1200 C1199 1.403 . S
C1200 C1201 1.404 . S
C1200 C1203 1.539 . S
C1201 C1197 1.408 . S
C1201 C1200 1.404 . S
C1201 H1213 0.930 . S
C1202 C1198 1.524 . S
C1202 H1214 0.956 . S
C1202 H1215 0.961 . S
C1202 H1216 0.961 . S
C1203 C1200 1.539 . S
C1203 H1217 0.958 . S
C1203 H1218 0.961 . S
C1203 H1219 0.960 . S
H1204 C1188 0.931 . S
H1205 C1193 0.929 . S
H1206 C1194 0.960 . S
H1207 C1194 0.962 . S
H1208 C1194 0.960 . S
H1209 C1195 0.961 . S
H1210 C1195 0.961 . S
H1211 C1195 0.961 . S
H1212 C1196 0.931 . S
H1213 C1201 0.930 . S
H1214 C1202 0.956 . S
H1215 C1202 0.961 . S
H1216 C1202 0.961 . S
H1217 C1203 0.958 . S
H1218 C1203 0.961 . S
H1219 C1203 0.960 . S
C1220 C1221 1.391 . S
C1220 C1222 1.394 . S
C1220 H1236 0.931 . S
C1221 C1220 1.391 . S
C1221 C1225 1.376 . S
C1222 C1220 1.394 . S
C1222 C1223 1.369 . S
C1222 C1226 1.531 . S
C1223 C1222 1.369 . S
C1223 C1224 1.410 . S
C1223 C1231 1.503 . S
C1224 C1223 1.410 . S
C1224 C1225 1.392 . S
C1224 C1227 1.511 . S
C1225 C1221 1.376 . S
C1225 C1224 1.392 . S
C1225 H1237 0.929 . S
C1226 C1222 1.531 . S
C1226 H1238 0.960 . S
C1226 H1239 0.962 . S
C1226 H1240 0.960 . S
C1227 C1224 1.511 . S
C1227 H1241 0.961 . S
C1227 H1242 0.961 . S
C1227 H1243 0.961 . S
C1228 C1229 1.370 . S
C1228 C1230 1.363 . S
C1228 H1244 0.931 . S
C1229 C1228 1.370 . S
C1229 C1233 1.408 . S
C1230 C1228 1.363 . S
C1230 C1231 1.370 . S
C1230 C1234 1.524 . S
C1231 C1223 1.503 . S
C1231 C1230 1.370 . S
C1231 C1232 1.403 . S
C1232 C1231 1.403 . S
C1232 C1233 1.404 . S
C1232 C1235 1.539 . S
C1233 C1229 1.408 . S
C1233 C1232 1.404 . S
C1233 H1245 0.930 . S
C1234 C1230 1.524 . S
C1234 H1246 0.956 . S
C1234 H1247 0.961 . S
C1234 H1248 0.961 . S
C1235 C1232 1.539 . S
C1235 H1249 0.958 . S
C1235 H1250 0.961 . S
C1235 H1251 0.960 . S
H1236 C1220 0.931 . S
H1237 C1225 0.929 . S
H1238 C1226 0.960 . S
H1239 C1226 0.962 . S
H1240 C1226 0.960 . S
H1241 C1227 0.961 . S
H1242 C1227 0.961 . S
H1243 C1227 0.961 . S
H1244 C1228 0.931 . S
H1245 C1233 0.930 . S
H1246 C1234 0.956 . S
H1247 C1234 0.961 . S
H1248 C1234 0.961 . S
H1249 C1235 0.958 . S
H1250 C1235 0.961 . S
H1251 C1235 0.960 . S
C1252 C1253 1.391 . S
C1252 C1254 1.394 . S
C1252 H1268 0.931 . S
C1253 C1252 1.391 . S
C1253 C1257 1.376 . S
C1254 C1252 1.394 . S
C1254 C1255 1.369 . S
C1254 C1258 1.531 . S
C1255 C1254 1.369 . S
C1255 C1256 1.410 . S
C1255 C1263 1.503 . S
C1256 C1255 1.410 . S
C1256 C1257 1.392 . S
C1256 C1259 1.511 . S
C1257 C1253 1.376 . S
C1257 C1256 1.392 . S
C1257 H1269 0.929 . S
C1258 C1254 1.531 . S
C1258 H1270 0.960 . S
C1258 H1271 0.962 . S
C1258 H1272 0.960 . S
C1259 C1256 1.511 . S
C1259 H1273 0.961 . S
C1259 H1274 0.961 . S
C1259 H1275 0.961 . S
C1260 C1261 1.370 . S
C1260 C1262 1.363 . S
C1260 H1276 0.931 . S
C1261 C1260 1.370 . S
C1261 C1265 1.408 . S
C1262 C1260 1.363 . S
C1262 C1263 1.370 . S
C1262 C1266 1.524 . S
C1263 C1255 1.503 . S
C1263 C1262 1.370 . S
C1263 C1264 1.403 . S
C1264 C1263 1.403 . S
C1264 C1265 1.404 . S
C1264 C1267 1.539 . S
C1265 C1261 1.408 . S
C1265 C1264 1.404 . S
C1265 H1277 0.942 . S
C1266 C1262 1.524 . S
C1266 H1278 0.956 . S
C1266 H1279 0.961 . S
C1266 H1280 0.961 . S
C1267 C1264 1.539 . S
C1267 H1281 0.971 . S
C1267 H1282 0.961 . S
C1267 H1283 0.960 . S
H1268 C1252 0.931 . S
H1269 C1257 0.929 . S
H1270 C1258 0.960 . S
H1271 C1258 0.962 . S
H1272 C1258 0.960 . S
H1273 C1259 0.961 . S
H1274 C1259 0.961 . S
H1275 C1259 0.961 . S
H1276 C1260 0.931 . S
H1277 C1265 0.942 . S
H1278 C1266 0.956 . S
H1279 C1266 0.961 . S
H1280 C1266 0.961 . S
H1281 C1267 0.971 . S
H1282 C1267 0.961 . S
H1283 C1267 0.960 . S
C1284 C1285 1.391 . S
C1284 C1286 1.394 . S
C1284 H1300 0.931 . S
C1285 C1284 1.391 . S
C1285 C1289 1.376 . S
C1286 C1284 1.394 . S
C1286 C1287 1.369 . S
C1286 C1290 1.531 . S
C1287 C1286 1.369 . S
C1287 C1288 1.410 . S
C1287 C1295 1.503 . S
C1288 C1287 1.410 . S
C1288 C1289 1.392 . S
C1288 C1291 1.511 . S
C1289 C1285 1.376 . S
C1289 C1288 1.392 . S
C1289 H1301 0.929 . S
C1290 C1286 1.531 . S
C1290 H1302 0.960 . S
C1290 H1303 0.962 . S
C1290 H1304 0.960 . S
C1291 C1288 1.511 . S
C1291 H1305 0.961 . S
C1291 H1306 0.961 . S
C1291 H1307 0.961 . S
C1292 C1293 1.370 . S
C1292 C1294 1.363 . S
C1292 H1308 0.931 . S
C1293 C1292 1.370 . S
C1293 C1297 1.408 . S
C1294 C1292 1.363 . S
C1294 C1295 1.370 . S
C1294 C1298 1.524 . S
C1295 C1287 1.503 . S
C1295 C1294 1.370 . S
C1295 C1296 1.403 . S
C1296 C1295 1.403 . S
C1296 C1297 1.404 . S
C1296 C1299 1.539 . S
C1297 C1293 1.408 . S
C1297 C1296 1.404 . S
C1297 H1309 0.930 . S
C1298 C1294 1.524 . S
C1298 H1310 0.956 . S
C1298 H1311 0.961 . S
C1298 H1312 0.961 . S
C1299 C1296 1.539 . S
C1299 H1313 0.958 . S
C1299 H1314 0.961 . S
C1299 H1315 0.960 . S
H1300 C1284 0.931 . S
H1301 C1289 0.929 . S
H1302 C1290 0.960 . S
H1303 C1290 0.962 . S
H1304 C1290 0.960 . S
H1305 C1291 0.961 . S
H1306 C1291 0.961 . S
H1307 C1291 0.961 . S
H1308 C1292 0.931 . S
H1309 C1297 0.930 . S
H1310 C1298 0.956 . S
H1311 C1298 0.961 . S
H1312 C1298 0.961 . S
H1313 C1299 0.958 . S
H1314 C1299 0.961 . S
H1315 C1299 0.960 . S
C1316 C1317 1.391 . S
C1316 C1318 1.394 . S
C1316 H1332 0.931 . S
C1317 C1316 1.391 . S
C1317 C1321 1.376 . S
C1318 C1316 1.394 . S
C1318 C1319 1.369 . S
C1318 C1322 1.531 . S
C1319 C1318 1.369 . S
C1319 C1320 1.410 . S
C1319 C1327 1.503 . S
C1320 C1319 1.410 . S
C1320 C1321 1.392 . S
C1320 C1323 1.511 . S
C1321 C1317 1.376 . S
C1321 C1320 1.392 . S
C1321 H1333 0.929 . S
C1322 C1318 1.531 . S
C1322 H1334 0.960 . S
C1322 H1335 0.962 . S
C1322 H1336 0.960 . S
C1323 C1320 1.511 . S
C1323 H1337 0.961 . S
C1323 H1338 0.961 . S
C1323 H1339 0.961 . S
C1324 C1325 1.370 . S
C1324 C1326 1.363 . S
C1324 H1340 0.931 . S
C1325 C1324 1.370 . S
C1325 C1329 1.408 . S
C1326 C1324 1.363 . S
C1326 C1327 1.370 . S
C1326 C1330 1.524 . S
C1327 C1319 1.503 . S
C1327 C1326 1.370 . S
C1327 C1328 1.403 . S
C1328 C1327 1.403 . S
C1328 C1329 1.404 . S
C1328 C1331 1.539 . S
C1329 C1325 1.408 . S
C1329 C1328 1.404 . S
C1329 H1341 0.930 . S
C1330 C1326 1.524 . S
C1330 H1342 0.956 . S
C1330 H1343 0.961 . S
C1330 H1344 0.961 . S
C1331 C1328 1.539 . S
C1331 H1345 0.958 . S
C1331 H1346 0.961 . S
C1331 H1347 0.960 . S
H1332 C1316 0.931 . S
H1333 C1321 0.929 . S
H1334 C1322 0.960 . S
H1335 C1322 0.962 . S
H1336 C1322 0.960 . S
H1337 C1323 0.961 . S
H1338 C1323 0.961 . S
H1339 C1323 0.961 . S
H1340 C1324 0.931 . S
H1341 C1329 0.930 . S
H1342 C1330 0.956 . S
H1343 C1330 0.961 . S
H1344 C1330 0.961 . S
H1345 C1331 0.958 . S
H1346 C1331 0.961 . S
H1347 C1331 0.960 . S
C1348 C1349 1.391 . S
C1348 C1350 1.394 . S
C1348 H1364 0.931 . S
C1349 C1348 1.391 . S
C1349 C1353 1.376 . S
C1350 C1348 1.394 . S
C1350 C1351 1.369 . S
C1350 C1354 1.531 . S
C1351 C1350 1.369 . S
C1351 C1352 1.410 . S
C1351 C1359 1.503 . S
C1352 C1351 1.410 . S
C1352 C1353 1.392 . S
C1352 C1355 1.511 . S
C1353 C1349 1.376 . S
C1353 C1352 1.392 . S
C1353 H1365 0.929 . S
C1354 C1350 1.531 . S
C1354 H1366 0.960 . S
C1354 H1367 0.962 . S
C1354 H1368 0.960 . S
C1355 C1352 1.511 . S
C1355 H1369 0.961 . S
C1355 H1370 0.961 . S
C1355 H1371 0.961 . S
C1356 C1357 1.370 . S
C1356 C1358 1.363 . S
C1356 H1372 0.931 . S
C1357 C1356 1.370 . S
C1357 C1361 1.408 . S
C1358 C1356 1.363 . S
C1358 C1359 1.370 . S
C1358 C1362 1.524 . S
C1359 C1351 1.503 . S
C1359 C1358 1.370 . S
C1359 C1360 1.403 . S
C1360 C1359 1.403 . S
C1360 C1361 1.404 . S
C1360 C1363 1.539 . S
C1361 C1357 1.408 . S
C1361 C1360 1.404 . S
C1361 H1373 0.930 . S
C1362 C1358 1.524 . S
C1362 H1374 0.956 . S
C1362 H1375 0.961 . S
C1362 H1376 0.961 . S
C1363 C1360 1.539 . S
C1363 H1377 0.958 . S
C1363 H1378 0.961 . S
C1363 H1379 0.960 . S
H1364 C1348 0.931 . S
H1365 C1353 0.929 . S
H1366 C1354 0.960 . S
H1367 C1354 0.962 . S
H1368 C1354 0.960 . S
H1369 C1355 0.961 . S
H1370 C1355 0.961 . S
H1371 C1355 0.961 . S
H1372 C1356 0.931 . S
H1373 C1361 0.930 . S
H1374 C1362 0.956 . S
H1375 C1362 0.961 . S
H1376 C1362 0.961 . S
H1377 C1363 0.958 . S
H1378 C1363 0.961 . S
H1379 C1363 0.960 . S
C1380 C1381 1.391 . S
C1380 C1382 1.394 . S
C1380 H1396 0.931 . S
C1381 C1380 1.391 . S
C1381 C1385 1.376 . S
C1382 C1380 1.394 . S
C1382 C1383 1.369 . S
C1382 C1386 1.531 . S
C1383 C1382 1.369 . S
C1383 C1384 1.410 . S
C1383 C1391 1.503 . S
C1384 C1383 1.410 . S
C1384 C1385 1.392 . S
C1384 C1387 1.511 . S
C1385 C1381 1.376 . S
C1385 C1384 1.392 . S
C1385 H1397 0.929 . S
C1386 C1382 1.531 . S
C1386 H1398 0.960 . S
C1386 H1399 0.962 . S
C1386 H1400 0.960 . S
C1387 C1384 1.511 . S
C1387 H1401 0.961 . S
C1387 H1402 0.961 . S
C1387 H1403 0.961 . S
C1388 C1389 1.370 . S
C1388 C1390 1.363 . S
C1388 H1404 0.931 . S
C1389 C1388 1.370 . S
C1389 C1393 1.408 . S
C1390 C1388 1.363 . S
C1390 C1391 1.370 . S
C1390 C1394 1.524 . S
C1391 C1383 1.503 . S
C1391 C1390 1.370 . S
C1391 C1392 1.403 . S
C1392 C1391 1.403 . S
C1392 C1393 1.404 . S
C1392 C1395 1.539 . S
C1393 C1389 1.408 . S
C1393 C1392 1.404 . S
C1393 H1405 0.930 . S
C1394 C1390 1.524 . S
C1394 H1406 0.956 . S
C1394 H1407 0.961 . S
C1394 H1408 0.961 . S
C1395 C1392 1.539 . S
C1395 H1409 0.958 . S
C1395 H1410 0.961 . S
C1395 H1411 0.960 . S
H1396 C1380 0.931 . S
H1397 C1385 0.929 . S
H1398 C1386 0.960 . S
H1399 C1386 0.962 . S
H1400 C1386 0.960 . S
H1401 C1387 0.961 . S
H1402 C1387 0.961 . S
H1403 C1387 0.961 . S
H1404 C1388 0.931 . S
H1405 C1393 0.930 . S
H1406 C1394 0.956 . S
H1407 C1394 0.961 . S
H1408 C1394 0.961 . S
H1409 C1395 0.958 . S
H1410 C1395 0.961 . S
H1411 C1395 0.960 . S
C1412 C1413 1.391 . S
C1412 C1414 1.394 . S
C1412 H1428 0.931 . S
C1413 C1412 1.391 . S
C1413 C1417 1.376 . S
C1414 C1412 1.394 . S
C1414 C1415 1.369 . S
C1414 C1418 1.531 . S
C1415 C1414 1.369 . S
C1415 C1416 1.410 . S
C1415 C1423 1.503 . S
C1416 C1415 1.410 . S
C1416 C1417 1.392 . S
C1416 C1419 1.511 . S
C1417 C1413 1.376 . S
C1417 C1416 1.392 . S
C1417 H1429 0.929 . S
C1418 C1414 1.531 . S
C1418 H1430 0.960 . S
C1418 H1431 0.962 . S
C1418 H1432 0.960 . S
C1419 C1416 1.511 . S
C1419 H1433 0.961 . S
C1419 H1434 0.961 . S
C1419 H1435 0.961 . S
C1420 C1421 1.370 . S
C1420 C1422 1.363 . S
C1420 H1436 0.931 . S
C1421 C1420 1.370 . S
C1421 C1425 1.408 . S
C1422 C1420 1.363 . S
C1422 C1423 1.370 . S
C1422 C1426 1.524 . S
C1423 C1415 1.503 . S
C1423 C1422 1.370 . S
C1423 C1424 1.403 . S
C1424 C1423 1.403 . S
C1424 C1425 1.404 . S
C1424 C1427 1.539 . S
C1425 C1421 1.408 . S
C1425 C1424 1.404 . S
C1425 H1437 0.930 . S
C1426 C1422 1.524 . S
C1426 H1438 0.956 . S
C1426 H1439 0.961 . S
C1426 H1440 0.961 . S
C1427 C1424 1.539 . S
C1427 H1441 0.958 . S
C1427 H1442 0.961 . S
C1427 H1443 0.960 . S
H1428 C1412 0.931 . S
H1429 C1417 0.929 . S
H1430 C1418 0.960 . S
H1431 C1418 0.962 . S
H1432 C1418 0.960 . S
H1433 C1419 0.961 . S
H1434 C1419 0.961 . S
H1435 C1419 0.961 . S
H1436 C1420 0.931 . S
H1437 C1425 0.930 . S
H1438 C1426 0.956 . S
H1439 C1426 0.961 . S
H1440 C1426 0.961 . S
H1441 C1427 0.958 . S
H1442 C1427 0.961 . S
H1443 C1427 0.960 . S
C1444 C1445 1.391 . S
C1444 C1446 1.394 . S
C1444 H1460 0.931 . S
C1445 C1444 1.391 . S
C1445 C1449 1.376 . S
C1446 C1444 1.394 . S
C1446 C1447 1.369 . S
C1446 C1450 1.531 . S
C1447 C1446 1.369 . S
C1447 C1448 1.410 . S
C1447 C1455 1.503 . S
C1448 C1447 1.410 . S
C1448 C1449 1.392 . S
C1448 C1451 1.511 . S
C1449 C1445 1.376 . S
C1449 C1448 1.392 . S
C1449 H1461 0.929 . S
C1450 C1446 1.531 . S
C1450 H1462 0.960 . S
C1450 H1463 0.962 . S
C1450 H1464 0.960 . S
C1451 C1448 1.511 . S
C1451 H1465 0.961 . S
C1451 H1466 0.961 . S
C1451 H1467 0.961 . S
C1452 C1453 1.370 . S
C1452 C1454 1.363 . S
C1452 H1468 0.931 . S
C1453 C1452 1.370 . S
C1453 C1457 1.408 . S
C1454 C1452 1.363 . S
C1454 C1455 1.370 . S
C1454 C1458 1.524 . S
C1455 C1447 1.503 . S
C1455 C1454 1.370 . S
C1455 C1456 1.403 . S
C1456 C1455 1.403 . S
C1456 C1457 1.404 . S
C1456 C1459 1.539 . S
C1457 C1453 1.408 . S
C1457 C1456 1.404 . S
C1457 H1469 0.930 . S
C1458 C1454 1.524 . S
C1458 H1470 0.956 . S
C1458 H1471 0.961 . S
C1458 H1472 0.961 . S
C1459 C1456 1.539 . S
C1459 H1473 0.958 . S
C1459 H1474 0.961 . S
C1459 H1475 0.960 . S
H1460 C1444 0.931 . S
H1461 C1449 0.929 . S
H1462 C1450 0.960 . S
H1463 C1450 0.962 . S
H1464 C1450 0.960 . S
H1465 C1451 0.961 . S
H1466 C1451 0.961 . S
H1467 C1451 0.961 . S
H1468 C1452 0.931 . S
H1469 C1457 0.930 . S
H1470 C1458 0.956 . S
H1471 C1458 0.961 . S
H1472 C1458 0.961 . S
H1473 C1459 0.958 . S
H1474 C1459 0.961 . S
H1475 C1459 0.960 . S
C1476 C1477 1.391 . S
C1476 C1478 1.394 . S
C1476 H1492 0.931 . S
C1477 C1476 1.391 . S
C1477 C1481 1.376 . S
C1478 C1476 1.394 . S
C1478 C1479 1.369 . S
C1478 C1482 1.531 . S
C1479 C1478 1.369 . S
C1479 C1480 1.410 . S
C1479 C1487 1.503 . S
C1480 C1479 1.410 . S
C1480 C1481 1.392 . S
C1480 C1483 1.511 . S
C1481 C1477 1.376 . S
C1481 C1480 1.392 . S
C1481 H1493 0.929 . S
C1482 C1478 1.531 . S
C1482 H1494 0.960 . S
C1482 H1495 0.962 . S
C1482 H1496 0.960 . S
C1483 C1480 1.511 . S
C1483 H1497 0.961 . S
C1483 H1498 0.961 . S
C1483 H1499 0.961 . S
C1484 C1485 1.370 . S
C1484 C1486 1.363 . S
C1484 H1500 0.931 . S
C1485 C1484 1.370 . S
C1485 C1489 1.408 . S
C1486 C1484 1.363 . S
C1486 C1487 1.370 . S
C1486 C1490 1.524 . S
C1487 C1479 1.503 . S
C1487 C1486 1.370 . S
C1487 C1488 1.403 . S
C1488 C1487 1.403 . S
C1488 C1489 1.404 . S
C1488 C1491 1.539 . S
C1489 C1485 1.408 . S
C1489 C1488 1.404 . S
C1489 H1501 0.930 . S
C1490 C1486 1.524 . S
C1490 H1502 0.956 . S
C1490 H1503 0.961 . S
C1490 H1504 0.961 . S
C1491 C1488 1.539 . S
C1491 H1505 0.958 . S
C1491 H1506 0.961 . S
C1491 H1507 0.960 . S
H1492 C1476 0.931 . S
H1493 C1481 0.929 . S
H1494 C1482 0.960 . S
H1495 C1482 0.962 . S
H1496 C1482 0.960 . S
H1497 C1483 0.961 . S
H1498 C1483 0.961 . S
H1499 C1483 0.961 . S
H1500 C1484 0.931 . S
H1501 C1489 0.930 . S
H1502 C1490 0.956 . S
H1503 C1490 0.961 . S
H1504 C1490 0.961 . S
H1505 C1491 0.958 . S
H1506 C1491 0.961 . S
H1507 C1491 0.960 . S
C1508 C1509 1.391 . S
C1508 C1510 1.394 . S
C1508 H1524 0.931 . S
C1509 C1508 1.391 . S
C1509 C1513 1.376 . S
C1510 C1508 1.394 . S
C1510 C1511 1.369 . S
C1510 C1514 1.531 . S
C1511 C1510 1.369 . S
C1511 C1512 1.410 . S
C1511 C1519 1.503 . S
C1512 C1511 1.410 . S
C1512 C1513 1.392 . S
C1512 C1515 1.511 . S
C1513 C1509 1.376 . S
C1513 C1512 1.392 . S
C1513 H1525 0.929 . S
C1514 C1510 1.531 . S
C1514 H1526 0.960 . S
C1514 H1527 0.962 . S
C1514 H1528 0.960 . S
C1515 C1512 1.511 . S
C1515 H1529 0.961 . S
C1515 H1530 0.961 . S
C1515 H1531 0.961 . S
C1516 C1517 1.370 . S
C1516 C1518 1.363 . S
C1516 H1532 0.931 . S
C1517 C1516 1.370 . S
C1517 C1521 1.408 . S
C1518 C1516 1.363 . S
C1518 C1519 1.370 . S
C1518 C1522 1.524 . S
C1519 C1511 1.503 . S
C1519 C1518 1.370 . S
C1519 C1520 1.403 . S
C1520 C1519 1.403 . S
C1520 C1521 1.404 . S
C1520 C1523 1.539 . S
C1521 C1517 1.408 . S
C1521 C1520 1.404 . S
C1521 H1533 0.930 . S
C1522 C1518 1.524 . S
C1522 H1534 0.956 . S
C1522 H1535 0.961 . S
C1522 H1536 0.961 . S
C1523 C1520 1.539 . S
C1523 H1537 0.958 . S
C1523 H1538 0.961 . S
C1523 H1539 0.960 . S
H1524 C1508 0.931 . S
H1525 C1513 0.929 . S
H1526 C1514 0.960 . S
H1527 C1514 0.962 . S
H1528 C1514 0.960 . S
H1529 C1515 0.961 . S
H1530 C1515 0.961 . S
H1531 C1515 0.961 . S
H1532 C1516 0.931 . S
H1533 C1521 0.930 . S
H1534 C1522 0.956 . S
H1535 C1522 0.961 . S
H1536 C1522 0.961 . S
H1537 C1523 0.958 . S
H1538 C1523 0.961 . S
H1539 C1523 0.960 . S
C1540 C1541 1.391 . S
C1540 C1542 1.394 . S
C1540 H1556 0.931 . S
C1541 C1540 1.391 . S
C1541 C1545 1.376 . S
C1542 C1540 1.394 . S
C1542 C1543 1.369 . S
C1542 C1546 1.531 . S
C1543 C1542 1.369 . S
C1543 C1544 1.410 . S
C1543 C1551 1.503 . S
C1544 C1543 1.410 . S
C1544 C1545 1.392 . S
C1544 C1547 1.511 . S
C1545 C1541 1.376 . S
C1545 C1544 1.392 . S
C1545 H1557 0.929 . S
C1546 C1542 1.531 . S
C1546 H1558 0.960 . S
C1546 H1559 0.962 . S
C1546 H1560 0.960 . S
C1547 C1544 1.511 . S
C1547 H1561 0.961 . S
C1547 H1562 0.961 . S
C1547 H1563 0.961 . S
C1548 C1549 1.370 . S
C1548 C1550 1.363 . S
C1548 H1564 0.931 . S
C1549 C1548 1.370 . S
C1549 C1553 1.408 . S
C1550 C1548 1.363 . S
C1550 C1551 1.370 . S
C1550 C1554 1.524 . S
C1551 C1543 1.503 . S
C1551 C1550 1.370 . S
C1551 C1552 1.403 . S
C1552 C1551 1.403 . S
C1552 C1553 1.404 . S
C1552 C1555 1.539 . S
C1553 C1549 1.408 . S
C1553 C1552 1.404 . S
C1553 H1565 0.930 . S
C1554 C1550 1.524 . S
C1554 H1566 0.956 . S
C1554 H1567 0.961 . S
C1554 H1568 0.961 . S
C1555 C1552 1.539 . S
C1555 H1569 0.958 . S
C1555 H1570 0.961 . S
C1555 H1571 0.960 . S
H1556 C1540 0.931 . S
H1557 C1545 0.929 . S
H1558 C1546 0.960 . S
H1559 C1546 0.962 . S
H1560 C1546 0.960 . S
H1561 C1547 0.961 . S
H1562 C1547 0.961 . S
H1563 C1547 0.961 . S
H1564 C1548 0.931 . S
H1565 C1553 0.930 . S
H1566 C1554 0.956 . S
H1567 C1554 0.961 . S
H1568 C1554 0.961 . S
H1569 C1555 0.958 . S
H1570 C1555 0.961 . S
H1571 C1555 0.960 . S
C1572 C1573 1.391 . S
C1572 C1574 1.394 . S
C1572 H1588 0.931 . S
C1573 C1572 1.391 . S
C1573 C1577 1.376 . S
C1574 C1572 1.394 . S
C1574 C1575 1.369 . S
C1574 C1578 1.531 . S
C1575 C1574 1.369 . S
C1575 C1576 1.410 . S
C1575 C1583 1.503 . S
C1576 C1575 1.410 . S
C1576 C1577 1.392 . S
C1576 C1579 1.511 . S
C1577 C1573 1.376 . S
C1577 C1576 1.392 . S
C1577 H1589 0.929 . S
C1578 C1574 1.531 . S
C1578 H1590 0.960 . S
C1578 H1591 0.962 . S
C1578 H1592 0.960 . S
C1579 C1576 1.511 . S
C1579 H1593 0.961 . S
C1579 H1594 0.961 . S
C1579 H1595 0.961 . S
C1580 C1581 1.370 . S
C1580 C1582 1.363 . S
C1580 H1596 0.931 . S
C1581 C1580 1.370 . S
C1581 C1585 1.408 . S
C1582 C1580 1.363 . S
C1582 C1583 1.370 . S
C1582 C1586 1.524 . S
C1583 C1575 1.503 . S
C1583 C1582 1.370 . S
C1583 C1584 1.403 . S
C1584 C1583 1.403 . S
C1584 C1585 1.404 . S
C1584 C1587 1.539 . S
C1585 C1581 1.408 . S
C1585 C1584 1.404 . S
C1585 H1597 0.930 . S
C1586 C1582 1.524 . S
C1586 H1598 0.956 . S
C1586 H1599 0.961 . S
C1586 H1600 0.961 . S
C1587 C1584 1.539 . S
C1587 H1601 0.958 . S
C1587 H1602 0.961 . S
C1587 H1603 0.960 . S
H1588 C1572 0.931 . S
H1589 C1577 0.929 . S
H1590 C1578 0.960 . S
H1591 C1578 0.962 . S
H1592 C1578 0.960 . S
H1593 C1579 0.961 . S
H1594 C1579 0.961 . S
H1595 C1579 0.961 . S
H1596 C1580 0.931 . S
H1597 C1585 0.930 . S
H1598 C1586 0.956 . S
H1599 C1586 0.961 . S
H1600 C1586 0.961 . S
H1601 C1587 0.958 . S
H1602 C1587 0.961 . S
H1603 C1587 0.960 . S
C1604 C1605 1.391 . S
C1604 C1606 1.394 . S
C1604 H1620 0.931 . S
C1605 C1604 1.391 . S
C1605 C1609 1.376 . S
C1606 C1604 1.394 . S
C1606 C1607 1.369 . S
C1606 C1610 1.531 . S
C1607 C1606 1.369 . S
C1607 C1608 1.410 . S
C1607 C1615 1.503 . S
C1608 C1607 1.410 . S
C1608 C1609 1.392 . S
C1608 C1611 1.511 . S
C1609 C1605 1.376 . S
C1609 C1608 1.392 . S
C1609 H1621 0.929 . S
C1610 C1606 1.531 . S
C1610 H1622 0.960 . S
C1610 H1623 0.962 . S
C1610 H1624 0.960 . S
C1611 C1608 1.511 . S
C1611 H1625 0.961 . S
C1611 H1626 0.961 . S
C1611 H1627 0.961 . S
C1612 C1613 1.370 . S
C1612 C1614 1.363 . S
C1612 H1628 0.931 . S
C1613 C1612 1.370 . S
C1613 C1617 1.408 . S
C1614 C1612 1.363 . S
C1614 C1615 1.370 . S
C1614 C1618 1.524 . S
C1615 C1607 1.503 . S
C1615 C1614 1.370 . S
C1615 C1616 1.403 . S
C1616 C1615 1.403 . S
C1616 C1617 1.404 . S
C1616 C1619 1.539 . S
C1617 C1613 1.408 . S
C1617 C1616 1.404 . S
C1617 H1629 0.930 . S
C1618 C1614 1.524 . S
C1618 H1630 0.956 . S
C1618 H1631 0.961 . S
C1618 H1632 0.961 . S
C1619 C1616 1.539 . S
C1619 H1633 0.958 . S
C1619 H1634 0.961 . S
C1619 H1635 0.960 . S
H1620 C1604 0.931 . S
H1621 C1609 0.929 . S
H1622 C1610 0.960 . S
H1623 C1610 0.962 . S
H1624 C1610 0.960 . S
H1625 C1611 0.961 . S
H1626 C1611 0.961 . S
H1627 C1611 0.961 . S
H1628 C1612 0.931 . S
H1629 C1617 0.930 . S
H1630 C1618 0.956 . S
H1631 C1618 0.961 . S
H1632 C1618 0.961 . S
H1633 C1619 0.958 . S
H1634 C1619 0.961 . S
H1635 C1619 0.960 . S
C1636 C1637 1.391 . S
C1636 C1638 1.394 . S
C1636 H1652 0.931 . S
C1637 C1636 1.391 . S
C1637 C1641 1.376 . S
C1638 C1636 1.394 . S
C1638 C1639 1.369 . S
C1638 C1642 1.531 . S
C1639 C1638 1.369 . S
C1639 C1640 1.410 . S
C1639 C1647 1.503 . S
C1640 C1639 1.410 . S
C1640 C1641 1.392 . S
C1640 C1643 1.511 . S
C1641 C1637 1.376 . S
C1641 C1640 1.392 . S
C1641 H1653 0.929 . S
C1642 C1638 1.531 . S
C1642 H1654 0.960 . S
C1642 H1655 0.962 . S
C1642 H1656 0.960 . S
C1643 C1640 1.511 . S
C1643 H1657 0.961 . S
C1643 H1658 0.961 . S
C1643 H1659 0.961 . S
C1644 C1645 1.370 . S
C1644 C1646 1.363 . S
C1644 H1660 0.931 1_556 S
C1645 C1644 1.370 . S
C1645 C1649 1.408 . S
C1646 C1644 1.363 . S
C1646 C1647 1.370 . S
C1646 C1650 1.524 . S
C1647 C1639 1.503 . S
C1647 C1646 1.370 . S
C1647 C1648 1.403 . S
C1648 C1647 1.403 . S
C1648 C1649 1.404 . S
C1648 C1651 1.539 . S
C1649 C1645 1.408 . S
C1649 C1648 1.404 . S
C1649 H1661 0.930 . S
C1650 C1646 1.524 . S
C1650 H1662 0.956 . S
C1650 H1663 0.961 . S
C1650 H1664 0.961 1_556 S
C1651 C1648 1.539 . S
C1651 H1665 0.958 . S
C1651 H1666 0.961 . S
C1651 H1667 0.960 . S
H1652 C1636 0.931 . S
H1653 C1641 0.929 . S
H1654 C1642 0.960 . S
H1655 C1642 0.962 . S
H1656 C1642 0.960 . S
H1657 C1643 0.961 . S
H1658 C1643 0.961 . S
H1659 C1643 0.961 . S
H1660 C1644 0.931 1_554 S
H1661 C1649 0.930 . S
H1662 C1650 0.956 . S
H1663 C1650 0.961 . S
H1664 C1650 0.961 1_554 S
H1665 C1651 0.958 . S
H1666 C1651 0.961 . S
H1667 C1651 0.960 . S
C1668 C1669 1.391 . S
C1668 C1670 1.394 . S
C1668 H1684 0.931 . S
C1669 C1668 1.391 . S
C1669 C1673 1.376 . S
C1670 C1668 1.394 . S
C1670 C1671 1.369 . S
C1670 C1674 1.531 . S
C1671 C1670 1.369 . S
C1671 C1672 1.410 . S
C1671 C1679 1.503 . S
C1672 C1671 1.410 . S
C1672 C1673 1.392 . S
C1672 C1675 1.511 . S
C1673 C1669 1.376 . S
C1673 C1672 1.392 . S
C1673 H1685 0.929 . S
C1674 C1670 1.531 . S
C1674 H1686 0.960 . S
C1674 H1687 0.962 . S
C1674 H1688 0.960 . S
C1675 C1672 1.511 . S
C1675 H1689 0.961 . S
C1675 H1690 0.961 . S
C1675 H1691 0.961 . S
C1676 C1677 1.370 . S
C1676 C1678 1.363 . S
C1676 H1692 0.931 . S
C1677 C1676 1.370 . S
C1677 C1681 1.408 . S
C1678 C1676 1.363 . S
C1678 C1679 1.370 . S
C1678 C1682 1.524 . S
C1679 C1671 1.503 . S
C1679 C1678 1.370 . S
C1679 C1680 1.403 . S
C1680 C1679 1.403 . S
C1680 C1681 1.404 . S
C1680 C1683 1.539 . S
C1681 C1677 1.408 . S
C1681 C1680 1.404 . S
C1681 H1693 0.930 . S
C1682 C1678 1.524 . S
C1682 H1694 0.956 . S
C1682 H1695 0.961 . S
C1682 H1696 0.961 . S
C1683 C1680 1.539 . S
C1683 H1697 0.958 . S
C1683 H1698 0.961 . S
C1683 H1699 0.960 . S
H1684 C1668 0.931 . S
H1685 C1673 0.929 . S
H1686 C1674 0.960 . S
H1687 C1674 0.962 . S
H1688 C1674 0.960 . S
H1689 C1675 0.961 . S
H1690 C1675 0.961 . S
H1691 C1675 0.961 . S
H1692 C1676 0.931 . S
H1693 C1681 0.930 . S
H1694 C1682 0.956 . S
H1695 C1682 0.961 . S
H1696 C1682 0.961 . S
H1697 C1683 0.958 . S
H1698 C1683 0.961 . S
H1699 C1683 0.960 . S
C1700 C1701 1.391 . S
C1700 C1702 1.394 . S
C1700 H1716 0.931 . S
C1701 C1700 1.391 . S
C1701 C1705 1.376 . S
C1702 C1700 1.394 . S
C1702 C1703 1.369 . S
C1702 C1706 1.531 . S
C1703 C1702 1.369 . S
C1703 C1704 1.410 . S
C1703 C1711 1.503 . S
C1704 C1703 1.410 . S
C1704 C1705 1.392 . S
C1704 C1707 1.511 . S
C1705 C1701 1.376 . S
C1705 C1704 1.392 . S
C1705 H1717 0.929 . S
C1706 C1702 1.531 . S
C1706 H1718 0.960 . S
C1706 H1719 0.962 . S
C1706 H1720 0.960 . S
C1707 C1704 1.511 . S
C1707 H1721 0.961 . S
C1707 H1722 0.961 . S
C1707 H1723 0.961 . S
C1708 C1709 1.370 . S
C1708 C1710 1.363 . S
C1708 H1724 0.931 . S
C1709 C1708 1.370 . S
C1709 C1713 1.408 . S
C1710 C1708 1.363 . S
C1710 C1711 1.370 . S
C1710 C1714 1.524 . S
C1711 C1703 1.503 . S
C1711 C1710 1.370 . S
C1711 C1712 1.403 . S
C1712 C1711 1.403 . S
C1712 C1713 1.404 . S
C1712 C1715 1.539 . S
C1713 C1709 1.408 . S
C1713 C1712 1.404 . S
C1713 H1725 0.930 . S
C1714 C1710 1.524 . S
C1714 H1726 0.956 . S
C1714 H1727 0.961 . S
C1714 H1728 0.961 . S
C1715 C1712 1.539 . S
C1715 H1729 0.958 . S
C1715 H1730 0.961 . S
C1715 H1731 0.960 . S
H1716 C1700 0.931 . S
H1717 C1705 0.929 . S
H1718 C1706 0.960 . S
H1719 C1706 0.962 . S
H1720 C1706 0.960 . S
H1721 C1707 0.961 . S
H1722 C1707 0.961 . S
H1723 C1707 0.961 . S
H1724 C1708 0.931 . S
H1725 C1713 0.930 . S
H1726 C1714 0.956 . S
H1727 C1714 0.961 . S
H1728 C1714 0.961 . S
H1729 C1715 0.958 . S
H1730 C1715 0.961 . S
H1731 C1715 0.960 . S
C1732 C1733 1.391 . S
C1732 C1734 1.394 . S
C1732 H1748 0.931 . S
C1733 C1732 1.391 . S
C1733 C1737 1.376 . S
C1734 C1732 1.394 . S
C1734 C1735 1.369 . S
C1734 C1738 1.531 . S
C1735 C1734 1.369 . S
C1735 C1736 1.410 . S
C1735 C1743 1.503 . S
C1736 C1735 1.410 . S
C1736 C1737 1.392 . S
C1736 C1739 1.511 . S
C1737 C1733 1.376 . S
C1737 C1736 1.392 . S
C1737 H1749 0.929 . S
C1738 C1734 1.531 . S
C1738 H1750 0.960 . S
C1738 H1751 0.962 . S
C1738 H1752 0.960 . S
C1739 C1736 1.511 . S
C1739 H1753 0.961 . S
C1739 H1754 0.961 . S
C1739 H1755 0.961 . S
C1740 C1741 1.370 . S
C1740 C1742 1.363 . S
C1740 H1756 0.931 . S
C1741 C1740 1.370 . S
C1741 C1745 1.408 . S
C1742 C1740 1.363 . S
C1742 C1743 1.370 . S
C1742 C1746 1.524 . S
C1743 C1735 1.503 . S
C1743 C1742 1.370 . S
C1743 C1744 1.403 . S
C1744 C1743 1.403 . S
C1744 C1745 1.404 . S
C1744 C1747 1.539 . S
C1745 C1741 1.408 . S
C1745 C1744 1.404 . S
C1745 H1757 0.930 . S
C1746 C1742 1.524 . S
C1746 H1758 0.956 . S
C1746 H1759 0.961 . S
C1746 H1760 0.961 . S
C1747 C1744 1.539 . S
C1747 H1761 0.958 . S
C1747 H1762 0.961 . S
C1747 H1763 0.960 . S
H1748 C1732 0.931 . S
H1749 C1737 0.929 . S
H1750 C1738 0.960 . S
H1751 C1738 0.962 . S
H1752 C1738 0.960 . S
H1753 C1739 0.961 . S
H1754 C1739 0.961 . S
H1755 C1739 0.961 . S
H1756 C1740 0.931 . S
H1757 C1745 0.930 . S
H1758 C1746 0.956 . S
H1759 C1746 0.961 . S
H1760 C1746 0.961 . S
H1761 C1747 0.958 . S
H1762 C1747 0.961 . S
H1763 C1747 0.960 . S
C1764 C1765 1.391 . S
C1764 C1766 1.394 . S
C1764 H1780 0.931 . S
C1765 C1764 1.391 . S
C1765 C1769 1.376 . S
C1766 C1764 1.394 . S
C1766 C1767 1.369 . S
C1766 C1770 1.531 . S
C1767 C1766 1.369 . S
C1767 C1768 1.410 . S
C1767 C1775 1.503 . S
C1768 C1767 1.410 . S
C1768 C1769 1.392 . S
C1768 C1771 1.511 . S
C1769 C1765 1.376 . S
C1769 C1768 1.392 . S
C1769 H1781 0.929 . S
C1770 C1766 1.531 . S
C1770 H1782 0.960 . S
C1770 H1783 0.962 . S
C1770 H1784 0.960 . S
C1771 C1768 1.511 . S
C1771 H1785 0.961 . S
C1771 H1786 0.961 . S
C1771 H1787 0.961 . S
C1772 C1773 1.370 . S
C1772 C1774 1.363 . S
C1772 H1788 0.931 . S
C1773 C1772 1.370 . S
C1773 C1777 1.408 . S
C1774 C1772 1.363 . S
C1774 C1775 1.370 . S
C1774 C1778 1.524 . S
C1775 C1767 1.503 . S
C1775 C1774 1.370 . S
C1775 C1776 1.403 . S
C1776 C1775 1.403 . S
C1776 C1777 1.404 . S
C1776 C1779 1.539 . S
C1777 C1773 1.408 . S
C1777 C1776 1.404 . S
C1777 H1789 0.930 . S
C1778 C1774 1.524 . S
C1778 H1790 0.956 . S
C1778 H1791 0.961 . S
C1778 H1792 0.961 . S
C1779 C1776 1.539 . S
C1779 H1793 0.958 . S
C1779 H1794 0.961 . S
C1779 H1795 0.960 . S
H1780 C1764 0.931 . S
H1781 C1769 0.929 . S
H1782 C1770 0.960 . S
H1783 C1770 0.962 . S
H1784 C1770 0.960 . S
H1785 C1771 0.961 . S
H1786 C1771 0.961 . S
H1787 C1771 0.961 . S
H1788 C1772 0.931 . S
H1789 C1777 0.930 . S
H1790 C1778 0.956 . S
H1791 C1778 0.961 . S
H1792 C1778 0.961 . S
H1793 C1779 0.958 . S
H1794 C1779 0.961 . S
H1795 C1779 0.960 . S
C1796 C1797 1.391 . S
C1796 C1798 1.394 . S
C1796 H1812 0.931 . S
C1797 C1796 1.391 . S
C1797 C1801 1.376 . S
C1798 C1796 1.394 . S
C1798 C1799 1.369 . S
C1798 C1802 1.531 . S
C1799 C1798 1.369 . S
C1799 C1800 1.410 . S
C1799 C1807 1.503 . S
C1800 C1799 1.410 . S
C1800 C1801 1.392 . S
C1800 C1803 1.511 . S
C1801 C1797 1.376 . S
C1801 C1800 1.392 . S
C1801 H1813 0.929 . S
C1802 C1798 1.531 . S
C1802 H1814 0.960 . S
C1802 H1815 0.962 . S
C1802 H1816 0.960 . S
C1803 C1800 1.511 . S
C1803 H1817 0.961 . S
C1803 H1818 0.961 . S
C1803 H1819 0.961 . S
C1804 C1805 1.370 . S
C1804 C1806 1.363 . S
C1804 H1820 0.931 . S
C1805 C1804 1.370 . S
C1805 C1809 1.408 . S
C1806 C1804 1.363 . S
C1806 C1807 1.370 . S
C1806 C1810 1.524 . S
C1807 C1799 1.503 . S
C1807 C1806 1.370 . S
C1807 C1808 1.403 . S
C1808 C1807 1.403 . S
C1808 C1809 1.404 . S
C1808 C1811 1.539 . S
C1809 C1805 1.408 . S
C1809 C1808 1.404 . S
C1809 H1821 0.930 . S
C1810 C1806 1.524 . S
C1810 H1822 0.956 . S
C1810 H1823 0.961 . S
C1810 H1824 0.961 1_556 S
C1811 C1808 1.539 . S
C1811 H1825 0.958 . S
C1811 H1826 0.961 . S
C1811 H1827 0.960 . S
H1812 C1796 0.931 . S
H1813 C1801 0.929 . S
H1814 C1802 0.960 . S
H1815 C1802 0.962 . S
H1816 C1802 0.960 . S
H1817 C1803 0.961 . S
H1818 C1803 0.961 . S
H1819 C1803 0.961 . S
H1820 C1804 0.931 . S
H1821 C1809 0.930 . S
H1822 C1810 0.956 . S
H1823 C1810 0.961 . S
H1824 C1810 0.961 1_554 S
H1825 C1811 0.958 . S
H1826 C1811 0.961 . S
H1827 C1811 0.960 . S
C1828 C1829 1.391 . S
C1828 C1830 1.394 . S
C1828 H1844 0.931 . S
C1829 C1828 1.391 . S
C1829 C1833 1.376 . S
C1830 C1828 1.394 . S
C1830 C1831 1.369 . S
C1830 C1834 1.531 . S
C1831 C1830 1.369 . S
C1831 C1832 1.410 . S
C1831 C1839 1.503 . S
C1832 C1831 1.410 . S
C1832 C1833 1.392 . S
C1832 C1835 1.511 . S
C1833 C1829 1.376 . S
C1833 C1832 1.392 . S
C1833 H1845 0.929 . S
C1834 C1830 1.531 . S
C1834 H1846 0.960 . S
C1834 H1847 0.962 . S
C1834 H1848 0.960 . S
C1835 C1832 1.511 . S
C1835 H1849 0.961 . S
C1835 H1850 0.961 . S
C1835 H1851 0.961 . S
C1836 C1837 1.370 . S
C1836 C1838 1.363 . S
C1836 H1852 0.931 . S
C1837 C1836 1.370 . S
C1837 C1841 1.408 . S
C1838 C1836 1.363 . S
C1838 C1839 1.370 . S
C1838 C1842 1.524 . S
C1839 C1831 1.503 . S
C1839 C1838 1.370 . S
C1839 C1840 1.403 . S
C1840 C1839 1.403 . S
C1840 C1841 1.404 . S
C1840 C1843 1.539 . S
C1841 C1837 1.408 . S
C1841 C1840 1.404 . S
C1841 H1853 0.930 . S
C1842 C1838 1.524 . S
C1842 H1854 0.956 . S
C1842 H1855 0.961 . S
C1842 H1856 0.961 . S
C1843 C1840 1.539 . S
C1843 H1857 0.958 . S
C1843 H1858 0.961 . S
C1843 H1859 0.960 . S
H1844 C1828 0.931 . S
H1845 C1833 0.929 . S
H1846 C1834 0.960 . S
H1847 C1834 0.962 . S
H1848 C1834 0.960 . S
H1849 C1835 0.961 . S
H1850 C1835 0.961 . S
H1851 C1835 0.961 . S
H1852 C1836 0.931 . S
H1853 C1841 0.930 . S
H1854 C1842 0.956 . S
H1855 C1842 0.961 . S
H1856 C1842 0.961 . S
H1857 C1843 0.958 . S
H1858 C1843 0.961 . S
H1859 C1843 0.960 . S
C1860 C1861 1.391 . S
C1860 C1862 1.394 . S
C1860 H1876 0.931 . S
C1861 C1860 1.391 . S
C1861 C1865 1.376 . S
C1862 C1860 1.394 . S
C1862 C1863 1.369 . S
C1862 C1866 1.531 . S
C1863 C1862 1.369 . S
C1863 C1864 1.410 . S
C1863 C1871 1.503 . S
C1864 C1863 1.410 . S
C1864 C1865 1.392 . S
C1864 C1867 1.511 . S
C1865 C1861 1.376 . S
C1865 C1864 1.392 . S
C1865 H1877 0.929 . S
C1866 C1862 1.531 . S
C1866 H1878 0.960 . S
C1866 H1879 0.962 . S
C1866 H1880 0.960 . S
C1867 C1864 1.511 . S
C1867 H1881 0.961 . S
C1867 H1882 0.961 . S
C1867 H1883 0.961 . S
C1868 C1869 1.370 . S
C1868 C1870 1.363 . S
C1868 H1884 0.931 . S
C1869 C1868 1.370 . S
C1869 C1873 1.408 . S
C1870 C1868 1.363 . S
C1870 C1871 1.370 . S
C1870 C1874 1.524 . S
C1871 C1863 1.503 . S
C1871 C1870 1.370 . S
C1871 C1872 1.403 . S
C1872 C1871 1.403 . S
C1872 C1873 1.404 . S
C1872 C1875 1.539 . S
C1873 C1869 1.408 . S
C1873 C1872 1.404 . S
C1873 H1885 0.930 . S
C1874 C1870 1.524 . S
C1874 H1886 0.956 . S
C1874 H1887 0.961 . S
C1874 H1888 0.961 . S
C1875 C1872 1.539 . S
C1875 H1889 0.958 . S
C1875 H1890 0.961 . S
C1875 H1891 0.960 . S
H1876 C1860 0.931 . S
H1877 C1865 0.929 . S
H1878 C1866 0.960 . S
H1879 C1866 0.962 . S
H1880 C1866 0.960 . S
H1881 C1867 0.961 . S
H1882 C1867 0.961 . S
H1883 C1867 0.961 . S
H1884 C1868 0.931 . S
H1885 C1873 0.930 . S
H1886 C1874 0.956 . S
H1887 C1874 0.961 . S
H1888 C1874 0.961 . S
H1889 C1875 0.958 . S
H1890 C1875 0.961 . S
H1891 C1875 0.960 . S
C1892 C1893 1.391 . S
C1892 C1894 1.394 . S
C1892 H1908 0.931 . S
C1893 C1892 1.391 . S
C1893 C1897 1.376 . S
C1894 C1892 1.394 . S
C1894 C1895 1.369 . S
C1894 C1898 1.531 . S
C1895 C1894 1.369 . S
C1895 C1896 1.410 . S
C1895 C1903 1.503 . S
C1896 C1895 1.410 . S
C1896 C1897 1.392 . S
C1896 C1899 1.511 . S
C1897 C1893 1.376 . S
C1897 C1896 1.392 . S
C1897 H1909 0.929 . S
C1898 C1894 1.531 . S
C1898 H1910 0.960 . S
C1898 H1911 0.962 . S
C1898 H1912 0.960 . S
C1899 C1896 1.511 . S
C1899 H1913 0.961 . S
C1899 H1914 0.961 . S
C1899 H1915 0.961 . S
C1900 C1901 1.370 . S
C1900 C1902 1.363 . S
C1900 H1916 0.931 . S
C1901 C1900 1.370 . S
C1901 C1905 1.408 . S
C1902 C1900 1.363 . S
C1902 C1903 1.370 . S
C1902 C1906 1.524 . S
C1903 C1895 1.503 . S
C1903 C1902 1.370 . S
C1903 C1904 1.403 . S
C1904 C1903 1.403 . S
C1904 C1905 1.404 . S
C1904 C1907 1.539 . S
C1905 C1901 1.408 . S
C1905 C1904 1.404 . S
C1905 H1917 0.930 . S
C1906 C1902 1.524 . S
C1906 H1918 0.956 . S
C1906 H1919 0.961 . S
C1906 H1920 0.961 . S
C1907 C1904 1.539 . S
C1907 H1921 0.958 . S
C1907 H1922 0.961 . S
C1907 H1923 0.960 . S
H1908 C1892 0.931 . S
H1909 C1897 0.929 . S
H1910 C1898 0.960 . S
H1911 C1898 0.962 . S
H1912 C1898 0.960 . S
H1913 C1899 0.961 . S
H1914 C1899 0.961 . S
H1915 C1899 0.961 . S
H1916 C1900 0.931 . S
H1917 C1905 0.930 . S
H1918 C1906 0.956 . S
H1919 C1906 0.961 . S
H1920 C1906 0.961 . S
H1921 C1907 0.958 . S
H1922 C1907 0.961 . S
H1923 C1907 0.960 . S
C1924 C1925 1.391 . S
C1924 C1926 1.394 . S
C1924 H1940 0.931 . S
C1925 C1924 1.391 . S
C1925 C1929 1.376 . S
C1926 C1924 1.394 . S
C1926 C1927 1.369 . S
C1926 C1930 1.531 . S
C1927 C1926 1.369 . S
C1927 C1928 1.410 . S
C1927 C1935 1.503 . S
C1928 C1927 1.410 . S
C1928 C1929 1.392 . S
C1928 C1931 1.511 . S
C1929 C1925 1.376 . S
C1929 C1928 1.392 . S
C1929 H1941 0.929 . S
C1930 C1926 1.531 . S
C1930 H1942 0.960 . S
C1930 H1943 0.962 . S
C1930 H1944 0.960 . S
C1931 C1928 1.511 . S
C1931 H1945 0.961 . S
C1931 H1946 0.961 . S
C1931 H1947 0.961 . S
C1932 C1933 1.370 . S
C1932 C1934 1.363 . S
C1932 H1948 0.931 . S
C1933 C1932 1.370 . S
C1933 C1937 1.408 . S
C1934 C1932 1.363 . S
C1934 C1935 1.370 . S
C1934 C1938 1.524 . S
C1935 C1927 1.503 . S
C1935 C1934 1.370 . S
C1935 C1936 1.403 . S
C1936 C1935 1.403 . S
C1936 C1937 1.404 . S
C1936 C1939 1.539 . S
C1937 C1933 1.408 . S
C1937 C1936 1.404 . S
C1937 H1949 0.930 . S
C1938 C1934 1.524 . S
C1938 H1950 0.956 . S
C1938 H1951 0.961 . S
C1938 H1952 0.961 . S
C1939 C1936 1.539 . S
C1939 H1953 0.958 . S
C1939 H1954 0.961 . S
C1939 H1955 0.960 . S
H1940 C1924 0.931 . S
H1941 C1929 0.929 . S
H1942 C1930 0.960 . S
H1943 C1930 0.962 . S
H1944 C1930 0.960 . S
H1945 C1931 0.961 . S
H1946 C1931 0.961 . S
H1947 C1931 0.961 . S
H1948 C1932 0.931 . S
H1949 C1937 0.930 . S
H1950 C1938 0.956 . S
H1951 C1938 0.961 . S
H1952 C1938 0.961 . S
H1953 C1939 0.958 . S
H1954 C1939 0.961 . S
H1955 C1939 0.960 . S
C1956 C1957 1.391 . S
C1956 C1958 1.394 . S
C1956 H1972 0.931 . S
C1957 C1956 1.391 . S
C1957 C1961 1.376 . S
C1958 C1956 1.394 . S
C1958 C1959 1.369 . S
C1958 C1962 1.531 . S
C1959 C1958 1.369 . S
C1959 C1960 1.410 . S
C1959 C1967 1.503 . S
C1960 C1959 1.410 . S
C1960 C1961 1.392 . S
C1960 C1963 1.511 . S
C1961 C1957 1.376 . S
C1961 C1960 1.392 . S
C1961 H1973 0.929 . S
C1962 C1958 1.531 . S
C1962 H1974 0.960 . S
C1962 H1975 0.962 . S
C1962 H1976 0.960 . S
C1963 C1960 1.511 . S
C1963 H1977 0.961 . S
C1963 H1978 0.961 . S
C1963 H1979 0.961 . S
C1964 C1965 1.370 . S
C1964 C1966 1.363 . S
C1964 H1980 0.931 . S
C1965 C1964 1.370 . S
C1965 C1969 1.408 . S
C1966 C1964 1.363 . S
C1966 C1967 1.370 . S
C1966 C1970 1.524 . S
C1967 C1959 1.503 . S
C1967 C1966 1.370 . S
C1967 C1968 1.403 . S
C1968 C1967 1.403 . S
C1968 C1969 1.404 . S
C1968 C1971 1.539 . S
C1969 C1965 1.408 . S
C1969 C1968 1.404 . S
C1969 H1981 0.930 . S
C1970 C1966 1.524 . S
C1970 H1982 0.956 . S
C1970 H1983 0.961 . S
C1970 H1984 0.961 . S
C1971 C1968 1.539 . S
C1971 H1985 0.958 . S
C1971 H1986 0.961 . S
C1971 H1987 0.960 . S
H1972 C1956 0.931 . S
H1973 C1961 0.929 . S
H1974 C1962 0.960 . S
H1975 C1962 0.962 . S
H1976 C1962 0.960 . S
H1977 C1963 0.961 . S
H1978 C1963 0.961 . S
H1979 C1963 0.961 . S
H1980 C1964 0.931 . S
H1981 C1969 0.930 . S
H1982 C1970 0.956 . S
H1983 C1970 0.961 . S
H1984 C1970 0.961 . S
H1985 C1971 0.958 . S
H1986 C1971 0.961 . S
H1987 C1971 0.960 . S
C1988 C1989 1.391 . S
C1988 C1990 1.394 . S
C1988 H2004 0.931 . S
C1989 C1988 1.391 . S
C1989 C1993 1.376 . S
C1990 C1988 1.394 . S
C1990 C1991 1.369 . S
C1990 C1994 1.531 . S
C1991 C1990 1.369 . S
C1991 C1992 1.410 . S
C1991 C1999 1.503 . S
C1992 C1991 1.410 . S
C1992 C1993 1.392 . S
C1992 C1995 1.511 . S
C1993 C1989 1.376 . S
C1993 C1992 1.392 . S
C1993 H2005 0.929 . S
C1994 C1990 1.531 . S
C1994 H2006 0.960 . S
C1994 H2007 0.962 . S
C1994 H2008 0.960 . S
C1995 C1992 1.511 . S
C1995 H2009 0.961 . S
C1995 H2010 0.961 . S
C1995 H2011 0.961 . S
C1996 C1997 1.370 . S
C1996 C1998 1.363 . S
C1996 H2012 0.931 . S
C1997 C1996 1.370 . S
C1997 C2001 1.408 . S
C1998 C1996 1.363 . S
C1998 C1999 1.370 . S
C1998 C2002 1.524 . S
C1999 C1991 1.503 . S
C1999 C1998 1.370 . S
C1999 C2000 1.403 . S
C2000 C1999 1.403 . S
C2000 C2001 1.404 . S
C2000 C2003 1.539 . S
C2001 C1997 1.408 . S
C2001 C2000 1.404 . S
C2001 H2013 0.930 . S
C2002 C1998 1.524 . S
C2002 H2014 0.956 . S
C2002 H2015 0.961 . S
C2002 H2016 0.961 . S
C2003 C2000 1.539 . S
C2003 H2017 0.958 . S
C2003 H2018 0.961 . S
C2003 H2019 0.960 . S
H2004 C1988 0.931 . S
H2005 C1993 0.929 . S
H2006 C1994 0.960 . S
H2007 C1994 0.962 . S
H2008 C1994 0.960 . S
H2009 C1995 0.961 . S
H2010 C1995 0.961 . S
H2011 C1995 0.961 . S
H2012 C1996 0.931 . S
H2013 C2001 0.930 . S
H2014 C2002 0.956 . S
H2015 C2002 0.961 . S
H2016 C2002 0.961 . S
H2017 C2003 0.958 . S
H2018 C2003 0.961 . S
H2019 C2003 0.960 . S
C2020 C2021 1.391 . S
C2020 C2022 1.394 . S
C2020 H2036 0.931 . S
C2021 C2020 1.391 . S
C2021 C2025 1.376 . S
C2022 C2020 1.394 . S
C2022 C2023 1.369 . S
C2022 C2026 1.531 . S
C2023 C2022 1.369 . S
C2023 C2024 1.410 . S
C2023 C2031 1.503 . S
C2024 C2023 1.410 . S
C2024 C2025 1.392 . S
C2024 C2027 1.511 . S
C2025 C2021 1.376 . S
C2025 C2024 1.392 . S
C2025 H2037 0.929 . S
C2026 C2022 1.531 . S
C2026 H2038 0.960 . S
C2026 H2039 0.962 . S
C2026 H2040 0.960 . S
C2027 C2024 1.511 . S
C2027 H2041 0.961 . S
C2027 H2042 0.961 . S
C2027 H2043 0.961 . S
C2028 C2029 1.370 . S
C2028 C2030 1.363 . S
C2028 H2044 0.931 . S
C2029 C2028 1.370 . S
C2029 C2033 1.408 . S
C2030 C2028 1.363 . S
C2030 C2031 1.370 . S
C2030 C2034 1.524 . S
C2031 C2023 1.503 . S
C2031 C2030 1.370 . S
C2031 C2032 1.403 . S
C2032 C2031 1.403 . S
C2032 C2033 1.404 . S
C2032 C2035 1.539 . S
C2033 C2029 1.408 . S
C2033 C2032 1.404 . S
C2033 H2045 0.930 . S
C2034 C2030 1.524 . S
C2034 H2046 0.956 . S
C2034 H2047 0.961 . S
C2034 H2048 0.961 . S
C2035 C2032 1.539 . S
C2035 H2049 0.958 . S
C2035 H2050 0.961 . S
C2035 H2051 0.960 . S
H2036 C2020 0.931 . S
H2037 C2025 0.929 . S
H2038 C2026 0.960 . S
H2039 C2026 0.962 . S
H2040 C2026 0.960 . S
H2041 C2027 0.961 . S
H2042 C2027 0.961 . S
H2043 C2027 0.961 . S
H2044 C2028 0.931 . S
H2045 C2033 0.930 . S
H2046 C2034 0.956 . S
H2047 C2034 0.961 . S
H2048 C2034 0.961 . S
H2049 C2035 0.958 . S
H2050 C2035 0.961 . S
H2051 C2035 0.960 . S
C2052 C2053 1.391 . S
C2052 C2054 1.394 . S
C2052 H2068 0.931 . S
C2053 C2052 1.391 . S
C2053 C2057 1.376 . S
C2054 C2052 1.394 . S
C2054 C2055 1.369 . S
C2054 C2058 1.531 . S
C2055 C2054 1.369 . S
C2055 C2056 1.410 . S
C2055 C2063 1.503 . S
C2056 C2055 1.410 . S
C2056 C2057 1.392 . S
C2056 C2059 1.511 . S
C2057 C2053 1.376 . S
C2057 C2056 1.392 . S
C2057 H2069 0.929 . S
C2058 C2054 1.531 . S
C2058 H2070 0.960 . S
C2058 H2071 0.962 . S
C2058 H2072 0.960 . S
C2059 C2056 1.511 . S
C2059 H2073 0.961 . S
C2059 H2074 0.961 . S
C2059 H2075 0.961 . S
C2060 C2061 1.370 . S
C2060 C2062 1.363 . S
C2060 H2076 0.931 . S
C2061 C2060 1.370 . S
C2061 C2065 1.408 . S
C2062 C2060 1.363 . S
C2062 C2063 1.370 . S
C2062 C2066 1.524 . S
C2063 C2055 1.503 . S
C2063 C2062 1.370 . S
C2063 C2064 1.403 . S
C2064 C2063 1.403 . S
C2064 C2065 1.404 . S
C2064 C2067 1.539 . S
C2065 C2061 1.408 . S
C2065 C2064 1.404 . S
C2065 H2077 0.930 . S
C2066 C2062 1.524 . S
C2066 H2078 0.956 . S
C2066 H2079 0.961 . S
C2066 H2080 0.961 . S
C2067 C2064 1.539 . S
C2067 H2081 0.958 . S
C2067 H2082 0.961 . S
C2067 H2083 0.960 . S
H2068 C2052 0.931 . S
H2069 C2057 0.929 . S
H2070 C2058 0.960 . S
H2071 C2058 0.962 . S
H2072 C2058 0.960 . S
H2073 C2059 0.961 . S
H2074 C2059 0.961 . S
H2075 C2059 0.961 . S
H2076 C2060 0.931 . S
H2077 C2065 0.930 . S
H2078 C2066 0.956 . S
H2079 C2066 0.961 . S
H2080 C2066 0.961 . S
H2081 C2067 0.958 . S
H2082 C2067 0.961 . S
H2083 C2067 0.960 . S
C2084 C2085 1.391 . S
C2084 C2086 1.394 . S
C2084 H2100 0.931 . S
C2085 C2084 1.391 . S
C2085 C2089 1.376 . S
C2086 C2084 1.394 . S
C2086 C2087 1.369 . S
C2086 C2090 1.531 . S
C2087 C2086 1.369 . S
C2087 C2088 1.410 . S
C2087 C2095 1.503 . S
C2088 C2087 1.410 . S
C2088 C2089 1.392 . S
C2088 C2091 1.511 . S
C2089 C2085 1.376 . S
C2089 C2088 1.392 . S
C2089 H2101 0.929 . S
C2090 C2086 1.531 . S
C2090 H2102 0.960 . S
C2090 H2103 0.962 . S
C2090 H2104 0.960 . S
C2091 C2088 1.511 . S
C2091 H2105 0.961 . S
C2091 H2106 0.961 . S
C2091 H2107 0.961 . S
C2092 C2093 1.370 . S
C2092 C2094 1.363 . S
C2092 H2108 0.931 . S
C2093 C2092 1.370 . S
C2093 C2097 1.408 . S
C2094 C2092 1.363 . S
C2094 C2095 1.370 . S
C2094 C2098 1.524 . S
C2095 C2087 1.503 . S
C2095 C2094 1.370 . S
C2095 C2096 1.403 . S
C2096 C2095 1.403 . S
C2096 C2097 1.404 . S
C2096 C2099 1.539 . S
C2097 C2093 1.408 . S
C2097 C2096 1.404 . S
C2097 H2109 0.930 . S
C2098 C2094 1.524 . S
C2098 H2110 0.956 . S
C2098 H2111 0.961 . S
C2098 H2112 0.961 . S
C2099 C2096 1.539 . S
C2099 H2113 0.958 . S
C2099 H2114 0.961 . S
C2099 H2115 0.960 . S
H2100 C2084 0.931 . S
H2101 C2089 0.929 . S
H2102 C2090 0.960 . S
H2103 C2090 0.962 . S
H2104 C2090 0.960 . S
H2105 C2091 0.961 . S
H2106 C2091 0.961 . S
H2107 C2091 0.961 . S
H2108 C2092 0.931 . S
H2109 C2097 0.930 . S
H2110 C2098 0.956 . S
H2111 C2098 0.961 . S
H2112 C2098 0.961 . S
H2113 C2099 0.958 . S
H2114 C2099 0.961 . S
H2115 C2099 0.960 . S
C2116 C2117 1.391 . S
C2116 C2118 1.394 . S
C2116 H2132 0.931 . S
C2117 C2116 1.391 . S
C2117 C2121 1.376 . S
C2118 C2116 1.394 . S
C2118 C2119 1.369 . S
C2118 C2122 1.531 . S
C2119 C2118 1.369 . S
C2119 C2120 1.410 . S
C2119 C2127 1.503 . S
C2120 C2119 1.410 . S
C2120 C2121 1.392 . S
C2120 C2123 1.511 . S
C2121 C2117 1.376 . S
C2121 C2120 1.392 . S
C2121 H2133 0.929 . S
C2122 C2118 1.531 . S
C2122 H2134 0.960 . S
C2122 H2135 0.962 . S
C2122 H2136 0.960 . S
C2123 C2120 1.511 . S
C2123 H2137 0.961 . S
C2123 H2138 0.961 . S
C2123 H2139 0.961 . S
C2124 C2125 1.370 . S
C2124 C2126 1.363 . S
C2124 H2140 0.931 . S
C2125 C2124 1.370 . S
C2125 C2129 1.408 . S
C2126 C2124 1.363 . S
C2126 C2127 1.370 . S
C2126 C2130 1.524 . S
C2127 C2119 1.503 . S
C2127 C2126 1.370 . S
C2127 C2128 1.403 . S
C2128 C2127 1.403 . S
C2128 C2129 1.404 . S
C2128 C2131 1.539 . S
C2129 C2125 1.408 . S
C2129 C2128 1.404 . S
C2129 H2141 0.930 . S
C2130 C2126 1.524 . S
C2130 H2142 0.956 . S
C2130 H2143 0.961 . S
C2130 H2144 0.961 . S
C2131 C2128 1.539 . S
C2131 H2145 0.958 . S
C2131 H2146 0.961 . S
C2131 H2147 0.960 . S
H2132 C2116 0.931 . S
H2133 C2121 0.929 . S
H2134 C2122 0.960 . S
H2135 C2122 0.962 . S
H2136 C2122 0.960 . S
H2137 C2123 0.961 . S
H2138 C2123 0.961 . S
H2139 C2123 0.961 . S
H2140 C2124 0.931 . S
H2141 C2129 0.930 . S
H2142 C2130 0.956 . S
H2143 C2130 0.961 . S
H2144 C2130 0.961 . S
H2145 C2131 0.958 . S
H2146 C2131 0.961 . S
H2147 C2131 0.960 . S
C2148 C2149 1.391 . S
C2148 C2150 1.394 . S
C2148 H2164 0.931 . S
C2149 C2148 1.391 . S
C2149 C2153 1.376 . S
C2150 C2148 1.394 . S
C2150 C2151 1.369 . S
C2150 C2154 1.531 . S
C2151 C2150 1.369 . S
C2151 C2152 1.410 . S
C2151 C2159 1.503 . S
C2152 C2151 1.410 . S
C2152 C2153 1.392 . S
C2152 C2155 1.511 . S
C2153 C2149 1.376 . S
C2153 C2152 1.392 . S
C2153 H2165 0.929 . S
C2154 C2150 1.531 . S
C2154 H2166 0.960 . S
C2154 H2167 0.962 . S
C2154 H2168 0.960 . S
C2155 C2152 1.511 . S
C2155 H2169 0.961 . S
C2155 H2170 0.961 . S
C2155 H2171 0.961 . S
C2156 C2157 1.370 . S
C2156 C2158 1.363 . S
C2156 H2172 0.931 . S
C2157 C2156 1.370 . S
C2157 C2161 1.408 . S
C2158 C2156 1.363 . S
C2158 C2159 1.370 . S
C2158 C2162 1.524 . S
C2159 C2151 1.503 . S
C2159 C2158 1.370 . S
C2159 C2160 1.403 . S
C2160 C2159 1.403 . S
C2160 C2161 1.404 . S
C2160 C2163 1.539 . S
C2161 C2157 1.408 . S
C2161 C2160 1.404 . S
C2161 H2173 0.930 . S
C2162 C2158 1.524 . S
C2162 H2174 0.956 . S
C2162 H2175 0.961 . S
C2162 H2176 0.961 . S
C2163 C2160 1.539 . S
C2163 H2177 0.958 . S
C2163 H2178 0.961 . S
C2163 H2179 0.960 . S
H2164 C2148 0.931 . S
H2165 C2153 0.929 . S
H2166 C2154 0.960 . S
H2167 C2154 0.962 . S
H2168 C2154 0.960 . S
H2169 C2155 0.961 . S
H2170 C2155 0.961 . S
H2171 C2155 0.961 . S
H2172 C2156 0.931 . S
H2173 C2161 0.930 . S
H2174 C2162 0.956 . S
H2175 C2162 0.961 . S
H2176 C2162 0.961 . S
H2177 C2163 0.958 . S
H2178 C2163 0.961 . S
H2179 C2163 0.960 . S
C2180 C2181 1.391 . S
C2180 C2182 1.394 . S
C2180 H2196 0.931 . S
C2181 C2180 1.391 . S
C2181 C2185 1.376 . S
C2182 C2180 1.394 . S
C2182 C2183 1.369 . S
C2182 C2186 1.531 . S
C2183 C2182 1.369 . S
C2183 C2184 1.410 . S
C2183 C2191 1.503 . S
C2184 C2183 1.410 . S
C2184 C2185 1.392 . S
C2184 C2187 1.511 . S
C2185 C2181 1.376 . S
C2185 C2184 1.392 . S
C2185 H2197 0.929 . S
C2186 C2182 1.531 . S
C2186 H2198 0.960 . S
C2186 H2199 0.962 . S
C2186 H2200 0.960 . S
C2187 C2184 1.511 . S
C2187 H2201 0.961 . S
C2187 H2202 0.961 . S
C2187 H2203 0.961 . S
C2188 C2189 1.370 . S
C2188 C2190 1.363 . S
C2188 H2204 0.931 . S
C2189 C2188 1.370 . S
C2189 C2193 1.408 . S
C2190 C2188 1.363 . S
C2190 C2191 1.370 . S
C2190 C2194 1.524 . S
C2191 C2183 1.503 . S
C2191 C2190 1.370 . S
C2191 C2192 1.403 . S
C2192 C2191 1.403 . S
C2192 C2193 1.404 . S
C2192 C2195 1.539 . S
C2193 C2189 1.408 . S
C2193 C2192 1.404 . S
C2193 H2205 0.930 . S
C2194 C2190 1.524 . S
C2194 H2206 0.956 . S
C2194 H2207 0.961 . S
C2194 H2208 0.961 . S
C2195 C2192 1.539 . S
C2195 H2209 0.958 . S
C2195 H2210 0.961 . S
C2195 H2211 0.960 . S
H2196 C2180 0.931 . S
H2197 C2185 0.929 . S
H2198 C2186 0.960 . S
H2199 C2186 0.962 . S
H2200 C2186 0.960 . S
H2201 C2187 0.961 . S
H2202 C2187 0.961 . S
H2203 C2187 0.961 . S
H2204 C2188 0.931 . S
H2205 C2193 0.930 . S
H2206 C2194 0.956 . S
H2207 C2194 0.961 . S
H2208 C2194 0.961 . S
H2209 C2195 0.958 . S
H2210 C2195 0.961 . S
H2211 C2195 0.960 . S
C2212 C2213 1.391 . S
C2212 C2214 1.394 . S
C2212 H2228 0.931 . S
C2213 C2212 1.391 . S
C2213 C2217 1.376 . S
C2214 C2212 1.394 . S
C2214 C2215 1.369 . S
C2214 C2218 1.531 . S
C2215 C2214 1.369 . S
C2215 C2216 1.410 . S
C2215 C2223 1.503 . S
C2216 C2215 1.410 . S
C2216 C2217 1.392 . S
C2216 C2219 1.511 . S
C2217 C2213 1.376 . S
C2217 C2216 1.392 . S
C2217 H2229 0.929 . S
C2218 C2214 1.531 . S
C2218 H2230 0.960 . S
C2218 H2231 0.962 . S
C2218 H2232 0.960 . S
C2219 C2216 1.511 . S
C2219 H2233 0.961 . S
C2219 H2234 0.961 . S
C2219 H2235 0.961 . S
C2220 C2221 1.370 . S
C2220 C2222 1.363 . S
C2220 H2236 0.931 . S
C2221 C2220 1.370 . S
C2221 C2225 1.408 . S
C2222 C2220 1.363 . S
C2222 C2223 1.370 . S
C2222 C2226 1.524 . S
C2223 C2215 1.503 . S
C2223 C2222 1.370 . S
C2223 C2224 1.403 . S
C2224 C2223 1.403 . S
C2224 C2225 1.404 . S
C2224 C2227 1.539 . S
C2225 C2221 1.408 . S
C2225 C2224 1.404 . S
C2225 H2237 0.930 . S
C2226 C2222 1.524 . S
C2226 H2238 0.956 . S
C2226 H2239 0.961 . S
C2226 H2240 0.961 . S
C2227 C2224 1.539 . S
C2227 H2241 0.958 . S
C2227 H2242 0.961 . S
C2227 H2243 0.960 . S
H2228 C2212 0.931 . S
H2229 C2217 0.929 . S
H2230 C2218 0.960 . S
H2231 C2218 0.962 . S
H2232 C2218 0.960 . S
H2233 C2219 0.961 . S
H2234 C2219 0.961 . S
H2235 C2219 0.961 . S
H2236 C2220 0.931 . S
H2237 C2225 0.930 . S
H2238 C2226 0.956 . S
H2239 C2226 0.961 . S
H2240 C2226 0.961 . S
H2241 C2227 0.958 . S
H2242 C2227 0.961 . S
H2243 C2227 0.960 . S
C2244 C2245 1.391 . S
C2244 C2246 1.394 . S
C2244 H2260 0.931 . S
C2245 C2244 1.391 . S
C2245 C2249 1.376 . S
C2246 C2244 1.394 . S
C2246 C2247 1.369 . S
C2246 C2250 1.531 . S
C2247 C2246 1.369 . S
C2247 C2248 1.410 . S
C2247 C2255 1.503 . S
C2248 C2247 1.410 . S
C2248 C2249 1.392 . S
C2248 C2251 1.511 . S
C2249 C2245 1.376 . S
C2249 C2248 1.392 . S
C2249 H2261 0.929 . S
C2250 C2246 1.531 . S
C2250 H2262 0.960 . S
C2250 H2263 0.962 . S
C2250 H2264 0.960 . S
C2251 C2248 1.511 . S
C2251 H2265 0.961 . S
C2251 H2266 0.961 . S
C2251 H2267 0.961 . S
C2252 C2253 1.370 . S
C2252 C2254 1.363 . S
C2252 H2268 0.931 . S
C2253 C2252 1.370 . S
C2253 C2257 1.408 . S
C2254 C2252 1.363 . S
C2254 C2255 1.370 . S
C2254 C2258 1.524 . S
C2255 C2247 1.503 . S
C2255 C2254 1.370 . S
C2255 C2256 1.403 . S
C2256 C2255 1.403 . S
C2256 C2257 1.404 . S
C2256 C2259 1.539 . S
C2257 C2253 1.408 . S
C2257 C2256 1.404 . S
C2257 H2269 0.930 . S
C2258 C2254 1.524 . S
C2258 H2270 0.956 . S
C2258 H2271 0.961 . S
C2258 H2272 0.961 . S
C2259 C2256 1.539 . S
C2259 H2273 0.958 . S
C2259 H2274 0.961 . S
C2259 H2275 0.960 . S
H2260 C2244 0.931 . S
H2261 C2249 0.929 . S
H2262 C2250 0.960 . S
H2263 C2250 0.962 . S
H2264 C2250 0.960 . S
H2265 C2251 0.961 . S
H2266 C2251 0.961 . S
H2267 C2251 0.961 . S
H2268 C2252 0.931 . S
H2269 C2257 0.930 . S
H2270 C2258 0.956 . S
H2271 C2258 0.961 . S
H2272 C2258 0.961 . S
H2273 C2259 0.958 . S
H2274 C2259 0.961 . S
H2275 C2259 0.960 . S
C2276 C2277 1.391 . S
C2276 C2278 1.394 . S
C2276 H2292 0.931 . S
C2277 C2276 1.391 . S
C2277 C2281 1.376 . S
C2278 C2276 1.394 . S
C2278 C2279 1.369 . S
C2278 C2282 1.531 . S
C2279 C2278 1.369 . S
C2279 C2280 1.410 . S
C2279 C2287 1.503 . S
C2280 C2279 1.410 . S
C2280 C2281 1.392 . S
C2280 C2283 1.511 . S
C2281 C2277 1.376 . S
C2281 C2280 1.392 . S
C2281 H2293 0.929 . S
C2282 C2278 1.531 . S
C2282 H2294 0.960 . S
C2282 H2295 0.962 . S
C2282 H2296 0.960 . S
C2283 C2280 1.511 . S
C2283 H2297 0.961 . S
C2283 H2298 0.961 . S
C2283 H2299 0.961 . S
C2284 C2285 1.370 . S
C2284 C2286 1.363 . S
C2284 H2300 0.931 . S
C2285 C2284 1.370 . S
C2285 C2289 1.408 . S
C2286 C2284 1.363 . S
C2286 C2287 1.370 . S
C2286 C2290 1.524 . S
C2287 C2279 1.503 . S
C2287 C2286 1.370 . S
C2287 C2288 1.403 . S
C2288 C2287 1.403 . S
C2288 C2289 1.404 . S
C2288 C2291 1.539 . S
C2289 C2285 1.408 . S
C2289 C2288 1.404 . S
C2289 H2301 0.930 . S
C2290 C2286 1.524 . S
C2290 H2302 0.956 . S
C2290 H2303 0.961 . S
C2290 H2304 0.961 . S
C2291 C2288 1.539 . S
C2291 H2305 0.958 . S
C2291 H2306 0.961 . S
C2291 H2307 0.960 . S
H2292 C2276 0.931 . S
H2293 C2281 0.929 . S
H2294 C2282 0.960 . S
H2295 C2282 0.962 . S
H2296 C2282 0.960 . S
H2297 C2283 0.961 . S
H2298 C2283 0.961 . S
H2299 C2283 0.961 . S
H2300 C2284 0.931 . S
H2301 C2289 0.930 . S
H2302 C2290 0.956 . S
H2303 C2290 0.961 . S
H2304 C2290 0.961 . S
H2305 C2291 0.958 . S
H2306 C2291 0.961 . S
H2307 C2291 0.960 . S
C2308 C2309 1.391 . S
C2308 C2310 1.394 . S
C2308 H2324 0.931 . S
C2309 C2308 1.391 . S
C2309 C2313 1.376 . S
C2310 C2308 1.394 . S
C2310 C2311 1.369 . S
C2310 C2314 1.531 . S
C2311 C2310 1.369 . S
C2311 C2312 1.410 . S
C2311 C2319 1.503 . S
C2312 C2311 1.410 . S
C2312 C2313 1.392 . S
C2312 C2315 1.511 . S
C2313 C2309 1.376 . S
C2313 C2312 1.392 . S
C2313 H2325 0.929 . S
C2314 C2310 1.531 . S
C2314 H2326 0.960 . S
C2314 H2327 0.962 . S
C2314 H2328 0.960 . S
C2315 C2312 1.511 . S
C2315 H2329 0.961 . S
C2315 H2330 0.961 . S
C2315 H2331 0.961 . S
C2316 C2317 1.370 . S
C2316 C2318 1.363 . S
C2316 H2332 0.931 . S
C2317 C2316 1.370 . S
C2317 C2321 1.408 . S
C2318 C2316 1.363 . S
C2318 C2319 1.370 . S
C2318 C2322 1.524 . S
C2319 C2311 1.503 . S
C2319 C2318 1.370 . S
C2319 C2320 1.403 . S
C2320 C2319 1.403 . S
C2320 C2321 1.404 . S
C2320 C2323 1.539 . S
C2321 C2317 1.408 . S
C2321 C2320 1.404 . S
C2321 H2333 0.930 . S
C2322 C2318 1.524 . S
C2322 H2334 0.956 . S
C2322 H2335 0.961 . S
C2322 H2336 0.961 . S
C2323 C2320 1.539 . S
C2323 H2337 0.958 . S
C2323 H2338 0.961 . S
C2323 H2339 0.960 . S
H2324 C2308 0.931 . S
H2325 C2313 0.929 . S
H2326 C2314 0.960 . S
H2327 C2314 0.962 . S
H2328 C2314 0.960 . S
H2329 C2315 0.961 . S
H2330 C2315 0.961 . S
H2331 C2315 0.961 . S
H2332 C2316 0.931 . S
H2333 C2321 0.930 . S
H2334 C2322 0.956 . S
H2335 C2322 0.961 . S
H2336 C2322 0.961 . S
H2337 C2323 0.958 . S
H2338 C2323 0.961 . S
H2339 C2323 0.960 . S
C2340 C2341 1.391 . S
C2340 C2342 1.394 . S
C2340 H2356 0.931 . S
C2341 C2340 1.391 . S
C2341 C2345 1.376 . S
C2342 C2340 1.394 . S
C2342 C2343 1.369 . S
C2342 C2346 1.531 . S
C2343 C2342 1.369 . S
C2343 C2344 1.410 . S
C2343 C2351 1.503 . S
C2344 C2343 1.410 . S
C2344 C2345 1.392 . S
C2344 C2347 1.511 . S
C2345 C2341 1.376 . S
C2345 C2344 1.392 . S
C2345 H2357 0.929 . S
C2346 C2342 1.531 . S
C2346 H2358 0.960 . S
C2346 H2359 0.962 . S
C2346 H2360 0.960 . S
C2347 C2344 1.511 . S
C2347 H2361 0.961 . S
C2347 H2362 0.961 . S
C2347 H2363 0.961 . S
C2348 C2349 1.370 . S
C2348 C2350 1.363 . S
C2348 H2364 0.931 . S
C2349 C2348 1.370 . S
C2349 C2353 1.408 . S
C2350 C2348 1.363 . S
C2350 C2351 1.370 . S
C2350 C2354 1.524 . S
C2351 C2343 1.503 . S
C2351 C2350 1.370 . S
C2351 C2352 1.403 . S
C2352 C2351 1.403 . S
C2352 C2353 1.404 . S
C2352 C2355 1.539 . S
C2353 C2349 1.408 . S
C2353 C2352 1.404 . S
C2353 H2365 0.930 . S
C2354 C2350 1.524 . S
C2354 H2366 0.956 . S
C2354 H2367 0.961 . S
C2354 H2368 0.961 . S
C2355 C2352 1.539 . S
C2355 H2369 0.958 . S
C2355 H2370 0.961 . S
C2355 H2371 0.960 . S
H2356 C2340 0.931 . S
H2357 C2345 0.929 . S
H2358 C2346 0.960 . S
H2359 C2346 0.962 . S
H2360 C2346 0.960 . S
H2361 C2347 0.961 . S
H2362 C2347 0.961 . S
H2363 C2347 0.961 . S
H2364 C2348 0.931 . S
H2365 C2353 0.930 . S
H2366 C2354 0.956 . S
H2367 C2354 0.961 . S
H2368 C2354 0.961 . S
H2369 C2355 0.958 . S
H2370 C2355 0.961 . S
H2371 C2355 0.960 . S
C2372 C2373 1.391 . S
C2372 C2374 1.394 . S
C2372 H2388 0.931 . S
C2373 C2372 1.391 . S
C2373 C2377 1.376 . S
C2374 C2372 1.394 . S
C2374 C2375 1.369 . S
C2374 C2378 1.531 . S
C2375 C2374 1.369 . S
C2375 C2376 1.410 . S
C2375 C2383 1.503 . S
C2376 C2375 1.410 . S
C2376 C2377 1.392 . S
C2376 C2379 1.511 . S
C2377 C2373 1.376 . S
C2377 C2376 1.392 . S
C2377 H2389 0.929 . S
C2378 C2374 1.531 . S
C2378 H2390 0.960 . S
C2378 H2391 0.962 . S
C2378 H2392 0.960 . S
C2379 C2376 1.511 . S
C2379 H2393 0.961 . S
C2379 H2394 0.961 . S
C2379 H2395 0.961 . S
C2380 C2381 1.370 . S
C2380 C2382 1.363 . S
C2380 H2396 0.931 . S
C2381 C2380 1.370 . S
C2381 C2385 1.408 . S
C2382 C2380 1.363 . S
C2382 C2383 1.370 . S
C2382 C2386 1.524 . S
C2383 C2375 1.503 . S
C2383 C2382 1.370 . S
C2383 C2384 1.403 . S
C2384 C2383 1.403 . S
C2384 C2385 1.404 . S
C2384 C2387 1.539 . S
C2385 C2381 1.408 . S
C2385 C2384 1.404 . S
C2385 H2397 0.930 . S
C2386 C2382 1.524 . S
C2386 H2398 0.956 . S
C2386 H2399 0.961 . S
C2386 H2400 0.961 . S
C2387 C2384 1.539 . S
C2387 H2401 0.958 . S
C2387 H2402 0.961 . S
C2387 H2403 0.960 . S
H2388 C2372 0.931 . S
H2389 C2377 0.929 . S
H2390 C2378 0.960 . S
H2391 C2378 0.962 . S
H2392 C2378 0.960 . S
H2393 C2379 0.961 . S
H2394 C2379 0.961 . S
H2395 C2379 0.961 . S
H2396 C2380 0.931 . S
H2397 C2385 0.930 . S
H2398 C2386 0.956 . S
H2399 C2386 0.961 . S
H2400 C2386 0.961 . S
H2401 C2387 0.958 . S
H2402 C2387 0.961 . S
H2403 C2387 0.960 . S
C2404 C2405 1.391 . S
C2404 C2406 1.394 . S
C2404 H2420 0.931 . S
C2405 C2404 1.391 . S
C2405 C2409 1.376 . S
C2406 C2404 1.394 . S
C2406 C2407 1.369 . S
C2406 C2410 1.531 . S
C2407 C2406 1.369 . S
C2407 C2408 1.410 . S
C2407 C2415 1.503 . S
C2408 C2407 1.410 . S
C2408 C2409 1.392 . S
C2408 C2411 1.511 . S
C2409 C2405 1.376 . S
C2409 C2408 1.392 . S
C2409 H2421 0.929 . S
C2410 C2406 1.531 . S
C2410 H2422 0.960 . S
C2410 H2423 0.962 . S
C2410 H2424 0.960 . S
C2411 C2408 1.511 . S
C2411 H2425 0.961 . S
C2411 H2426 0.961 . S
C2411 H2427 0.961 . S
C2412 C2413 1.370 . S
C2412 C2414 1.363 . S
C2412 H2428 0.931 . S
C2413 C2412 1.370 . S
C2413 C2417 1.408 . S
C2414 C2412 1.363 . S
C2414 C2415 1.370 . S
C2414 C2418 1.524 . S
C2415 C2407 1.503 . S
C2415 C2414 1.370 . S
C2415 C2416 1.403 . S
C2416 C2415 1.403 . S
C2416 C2417 1.404 . S
C2416 C2419 1.539 . S
C2417 C2413 1.408 . S
C2417 C2416 1.404 . S
C2417 H2429 0.930 . S
C2418 C2414 1.524 . S
C2418 H2430 0.956 . S
C2418 H2431 0.961 . S
C2418 H2432 0.961 . S
C2419 C2416 1.539 . S
C2419 H2433 0.958 . S
C2419 H2434 0.961 . S
C2419 H2435 0.960 . S
H2420 C2404 0.931 . S
H2421 C2409 0.929 . S
H2422 C2410 0.960 . S
H2423 C2410 0.962 . S
H2424 C2410 0.960 . S
H2425 C2411 0.961 . S
H2426 C2411 0.961 . S
H2427 C2411 0.961 . S
H2428 C2412 0.931 . S
H2429 C2417 0.930 . S
H2430 C2418 0.956 . S
H2431 C2418 0.961 . S
H2432 C2418 0.961 . S
H2433 C2419 0.958 . S
H2434 C2419 0.961 . S
H2435 C2419 0.960 . S
C2436 C2437 1.391 . S
C2436 C2438 1.394 . S
C2436 H2452 0.931 . S
C2437 C2436 1.391 . S
C2437 C2441 1.376 . S
C2438 C2436 1.394 . S
C2438 C2439 1.369 . S
C2438 C2442 1.531 . S
C2439 C2438 1.369 . S
C2439 C2440 1.410 . S
C2439 C2447 1.503 . S
C2440 C2439 1.410 . S
C2440 C2441 1.392 . S
C2440 C2443 1.511 . S
C2441 C2437 1.376 . S
C2441 C2440 1.392 . S
C2441 H2453 0.929 . S
C2442 C2438 1.531 . S
C2442 H2454 0.960 . S
C2442 H2455 0.962 . S
C2442 H2456 0.960 . S
C2443 C2440 1.511 . S
C2443 H2457 0.961 . S
C2443 H2458 0.961 . S
C2443 H2459 0.961 . S
C2444 C2445 1.370 . S
C2444 C2446 1.363 . S
C2444 H2460 0.931 . S
C2445 C2444 1.370 . S
C2445 C2449 1.408 . S
C2446 C2444 1.363 . S
C2446 C2447 1.370 . S
C2446 C2450 1.524 . S
C2447 C2439 1.503 . S
C2447 C2446 1.370 . S
C2447 C2448 1.403 . S
C2448 C2447 1.403 . S
C2448 C2449 1.404 . S
C2448 C2451 1.539 . S
C2449 C2445 1.408 . S
C2449 C2448 1.404 . S
C2449 H2461 0.930 . S
C2450 C2446 1.524 . S
C2450 H2462 0.956 . S
C2450 H2463 0.961 . S
C2450 H2464 0.961 . S
C2451 C2448 1.539 . S
C2451 H2465 0.958 . S
C2451 H2466 0.961 . S
C2451 H2467 0.960 . S
H2452 C2436 0.931 . S
H2453 C2441 0.929 . S
H2454 C2442 0.960 . S
H2455 C2442 0.962 . S
H2456 C2442 0.960 . S
H2457 C2443 0.961 . S
H2458 C2443 0.961 . S
H2459 C2443 0.961 . S
H2460 C2444 0.931 . S
H2461 C2449 0.930 . S
H2462 C2450 0.956 . S
H2463 C2450 0.961 . S
H2464 C2450 0.961 . S
H2465 C2451 0.958 . S
H2466 C2451 0.961 . S
H2467 C2451 0.960 . S
C2468 C2469 1.391 . S
C2468 C2470 1.394 . S
C2468 H2484 0.931 . S
C2469 C2468 1.391 . S
C2469 C2473 1.376 . S
C2470 C2468 1.394 . S
C2470 C2471 1.369 . S
C2470 C2474 1.531 . S
C2471 C2470 1.369 . S
C2471 C2472 1.410 . S
C2471 C2479 1.503 . S
C2472 C2471 1.410 . S
C2472 C2473 1.392 . S
C2472 C2475 1.511 . S
C2473 C2469 1.376 . S
C2473 C2472 1.392 . S
C2473 H2485 0.929 . S
C2474 C2470 1.531 . S
C2474 H2486 0.960 . S
C2474 H2487 0.962 . S
C2474 H2488 0.960 . S
C2475 C2472 1.511 . S
C2475 H2489 0.961 . S
C2475 H2490 0.961 . S
C2475 H2491 0.961 . S
C2476 C2477 1.370 . S
C2476 C2478 1.363 . S
C2476 H2492 0.931 . S
C2477 C2476 1.370 . S
C2477 C2481 1.408 . S
C2478 C2476 1.363 . S
C2478 C2479 1.370 . S
C2478 C2482 1.524 . S
C2479 C2471 1.503 . S
C2479 C2478 1.370 . S
C2479 C2480 1.403 . S
C2480 C2479 1.403 . S
C2480 C2481 1.404 . S
C2480 C2483 1.539 . S
C2481 C2477 1.408 . S
C2481 C2480 1.404 . S
C2481 H2493 0.930 . S
C2482 C2478 1.524 . S
C2482 H2494 0.956 . S
C2482 H2495 0.961 . S
C2482 H2496 0.961 . S
C2483 C2480 1.539 . S
C2483 H2497 0.958 . S
C2483 H2498 0.961 . S
C2483 H2499 0.960 . S
H2484 C2468 0.931 . S
H2485 C2473 0.929 . S
H2486 C2474 0.960 . S
H2487 C2474 0.962 . S
H2488 C2474 0.960 . S
H2489 C2475 0.961 . S
H2490 C2475 0.961 . S
H2491 C2475 0.961 . S
H2492 C2476 0.931 . S
H2493 C2481 0.930 . S
H2494 C2482 0.956 . S
H2495 C2482 0.961 . S
H2496 C2482 0.961 . S
H2497 C2483 0.958 . S
H2498 C2483 0.961 . S
H2499 C2483 0.960 . S
C2500 C2501 1.391 . S
C2500 C2502 1.394 . S
C2500 H2516 0.931 . S
C2501 C2500 1.391 . S
C2501 C2505 1.376 . S
C2502 C2500 1.394 . S
C2502 C2503 1.369 . S
C2502 C2506 1.531 . S
C2503 C2502 1.369 . S
C2503 C2504 1.410 . S
C2503 C2511 1.503 . S
C2504 C2503 1.410 . S
C2504 C2505 1.392 . S
C2504 C2507 1.511 . S
C2505 C2501 1.376 . S
C2505 C2504 1.392 . S
C2505 H2517 0.929 . S
C2506 C2502 1.531 . S
C2506 H2518 0.960 . S
C2506 H2519 0.962 . S
C2506 H2520 0.960 . S
C2507 C2504 1.511 . S
C2507 H2521 0.961 . S
C2507 H2522 0.961 . S
C2507 H2523 0.961 . S
C2508 C2509 1.370 . S
C2508 C2510 1.363 . S
C2508 H2524 0.931 . S
C2509 C2508 1.370 . S
C2509 C2513 1.408 . S
C2510 C2508 1.363 . S
C2510 C2511 1.370 . S
C2510 C2514 1.524 . S
C2511 C2503 1.503 . S
C2511 C2510 1.370 . S
C2511 C2512 1.403 . S
C2512 C2511 1.403 . S
C2512 C2513 1.404 . S
C2512 C2515 1.539 . S
C2513 C2509 1.408 . S
C2513 C2512 1.404 . S
C2513 H2525 0.930 . S
C2514 C2510 1.524 . S
C2514 H2526 0.956 . S
C2514 H2527 0.961 . S
C2514 H2528 0.961 . S
C2515 C2512 1.539 . S
C2515 H2529 0.958 . S
C2515 H2530 0.961 . S
C2515 H2531 0.960 . S
H2516 C2500 0.931 . S
H2517 C2505 0.929 . S
H2518 C2506 0.960 . S
H2519 C2506 0.962 . S
H2520 C2506 0.960 . S
H2521 C2507 0.961 . S
H2522 C2507 0.961 . S
H2523 C2507 0.961 . S
H2524 C2508 0.931 . S
H2525 C2513 0.930 . S
H2526 C2514 0.956 . S
H2527 C2514 0.961 . S
H2528 C2514 0.961 . S
H2529 C2515 0.958 . S
H2530 C2515 0.961 . S
H2531 C2515 0.960 . S
C1005 C707 1.241 . S
C997 C74 1.140 . S
C1037 C685 0.315 . S
C1029 C142 0.808 . S
C1069 C682 0.796 . S
C1061 C231 0.706 . S
C1093 C322 1.590 . S
C1101 C694 1.654 . S
C1125 C406 0.644 . S
C1133 C677 0.262 . S
C1165 C699 0.779 . S
C1157 C494 0.853 . S
C1189 C562 1.570 . S
C1197 C704 1.648 . S
C1221 C651 1.167 . S
C1229 C700 1.245 . S
C1261 C758 1.697 . S
C1253 C58 1.631 . S
C1285 C151 1.294 . S
C1293 C808 1.375 . S
C1325 C731 2.800 . S
C1317 C224 2.680 . S
C1357 C807 0.772 . S
C1349 C315 0.701 . S
C1381 C399 0.715 . S
C1389 C736 0.796 . S
C1421 C802 1.675 . S
C1413 C478 1.654 . S
C1445 C571 1.206 . S
C1453 C761 1.354 . S
C1477 C644 2.676 . S
C1485 C793 2.780 . S
C1509 C67 2.673 . S
C1517 C785 2.783 . S
C1541 C392 1.322 . S
C1549 C815 1.380 . S
C1581 C739 2.817 . S
C1573 C487 2.677 . S
C1613 C790 0.795 . S
C1605 C578 0.808 . S
C1637 C658 1.621 . S
C1645 C748 1.677 . S
C1669 C238 1.600 . S
C1677 C812 1.703 . S
C1709 C754 1.353 . S
C1701 C308 1.284 . S
C1733 C158 0.720 . S
C1741 C753 0.807 . S
C1765 C662 1.121 . S
C1773 C869 1.240 . S
C1797 C394 0.630 . S
C1805 C847 0.242 . S
C1837 C844 0.802 . S
C1829 C483 0.803 . S
C1869 C856 1.642 . S
C1861 C574 1.586 . S
C1893 C154 0.837 . S
C1901 C839 0.326 . S
C1933 C861 0.799 . S
C1925 C242 0.793 . S
C1957 C310 1.611 . S
C1965 C866 1.659 . S
C1989 C63 1.149 . S
C1997 C862 1.244 . S
C2021 C646 1.579 . S
C2029 C920 1.683 . S
C2061 C970 1.361 . S
C2053 C403 1.315 . S
C2085 C476 2.704 . S
C2093 C893 2.799 . S
C2117 C567 0.786 . S
C2125 C969 0.783 . S
C2157 C898 0.808 . S
C2149 C147 0.738 . S
C2181 C226 1.626 . S
C2189 C964 1.692 . S
C2221 C923 1.348 . S
C2213 C319 1.236 . S
C2253 C955 2.792 . S
C2245 C56 2.708 . S
C2285 C947 2.789 . S
C2277 C655 2.715 . S
C2309 C140 1.283 . S
C2317 C977 1.369 . S
C2341 C235 2.671 . S
C2349 C901 2.813 . S
C2381 C952 0.805 . S
C2373 C326 0.858 . S
C2405 C70 1.593 . S
C2413 C910 1.679 . S
C2437 C490 1.615 . S
C2445 C974 1.707 . S
C2477 C916 1.364 . S
C2469 C560 1.261 . S
C2509 C915 0.826 . S
C2501 C410 0.866 . S
