# Generated by pormake.
# Topology ocu, (6,8)-cn, num edge types: 1
# Building blocks:
#     Node 0, Type 0, BuildingBlock: KUMJIN_clean_sbu_1, # of connection points: 6
#     Node 1, Type 0, BuildingBlock: KUMJIN_clean_sbu_1, # of connection points: 6
#     Node 2, Type 0, BuildingBlock: KUMJIN_clean_sbu_1, # of connection points: 6
#     Node 3, Type 0, BuildingBlock: KUMJIN_clean_sbu_1, # of connection points: 6
#     Node 4, Type 0, BuildingBlock: KUMJIN_clean_sbu_1, # of connection points: 6
#     Node 5, Type 0, BuildingBlock: KUMJIN_clean_sbu_1, # of connection points: 6
#     Node 6, Type 0, BuildingBlock: KUMJIN_clean_sbu_1, # of connection points: 6
#     Node 7, Type 0, BuildingBlock: KUMJIN_clean_sbu_1, # of connection points: 6
#     Node 8, Type 1, BuildingBlock: VETTIZ_charged_sbu_0, # of connection points: 8
#     Node 9, Type 1, BuildingBlock: VETTIZ_charged_sbu_0, # of connection points: 8
#     Node 10, Type 1, BuildingBlock: VETTIZ_charged_sbu_0, # of connection points: 8
#     Node 11, Type 1, BuildingBlock: VETTIZ_charged_sbu_0, # of connection points: 8
#     Node 12, Type 1, BuildingBlock: VETTIZ_charged_sbu_0, # of connection points: 8
#     Node 13, Type 1, BuildingBlock: VETTIZ_charged_sbu_0, # of connection points: 8
#     Edge 14, Type (0, 1), BuildingBlock: CIFDUS_clean_linker_0, # of connection points: 2
#     Edge 15, Type (0, 1), BuildingBlock: CIFDUS_clean_linker_0, # of connection points: 2
#     Edge 16, Type (0, 1), BuildingBlock: CIFDUS_clean_linker_0, # of connection points: 2
#     Edge 17, Type (0, 1), BuildingBlock: CIFDUS_clean_linker_0, # of connection points: 2
#     Edge 18, Type (0, 1), BuildingBlock: CIFDUS_clean_linker_0, # of connection points: 2
#     Edge 19, Type (0, 1), BuildingBlock: CIFDUS_clean_linker_0, # of connection points: 2
#     Edge 20, Type (0, 1), BuildingBlock: CIFDUS_clean_linker_0, # of connection points: 2
#     Edge 21, Type (0, 1), BuildingBlock: CIFDUS_clean_linker_0, # of connection points: 2
#     Edge 22, Type (0, 1), BuildingBlock: CIFDUS_clean_linker_0, # of connection points: 2
#     Edge 23, Type (0, 1), BuildingBlock: CIFDUS_clean_linker_0, # of connection points: 2
#     Edge 24, Type (0, 1), BuildingBlock: CIFDUS_clean_linker_0, # of connection points: 2
#     Edge 25, Type (0, 1), BuildingBlock: CIFDUS_clean_linker_0, # of connection points: 2
#     Edge 26, Type (0, 1), BuildingBlock: CIFDUS_clean_linker_0, # of connection points: 2
#     Edge 27, Type (0, 1), BuildingBlock: CIFDUS_clean_linker_0, # of connection points: 2
#     Edge 28, Type (0, 1), BuildingBlock: CIFDUS_clean_linker_0, # of connection points: 2
#     Edge 29, Type (0, 1), BuildingBlock: CIFDUS_clean_linker_0, # of connection points: 2
#     Edge 30, Type (0, 1), BuildingBlock: CIFDUS_clean_linker_0, # of connection points: 2
#     Edge 31, Type (0, 1), BuildingBlock: CIFDUS_clean_linker_0, # of connection points: 2
#     Edge 32, Type (0, 1), BuildingBlock: CIFDUS_clean_linker_0, # of connection points: 2
#     Edge 33, Type (0, 1), BuildingBlock: CIFDUS_clean_linker_0, # of connection points: 2
#     Edge 34, Type (0, 1), BuildingBlock: CIFDUS_clean_linker_0, # of connection points: 2
#     Edge 35, Type (0, 1), BuildingBlock: CIFDUS_clean_linker_0, # of connection points: 2
#     Edge 36, Type (0, 1), BuildingBlock: CIFDUS_clean_linker_0, # of connection points: 2
#     Edge 37, Type (0, 1), BuildingBlock: CIFDUS_clean_linker_0, # of connection points: 2
#     Edge 38, Type (0, 1), BuildingBlock: CIFDUS_clean_linker_0, # of connection points: 2
#     Edge 39, Type (0, 1), BuildingBlock: CIFDUS_clean_linker_0, # of connection points: 2
#     Edge 40, Type (0, 1), BuildingBlock: CIFDUS_clean_linker_0, # of connection points: 2
#     Edge 41, Type (0, 1), BuildingBlock: CIFDUS_clean_linker_0, # of connection points: 2
#     Edge 42, Type (0, 1), BuildingBlock: CIFDUS_clean_linker_0, # of connection points: 2
#     Edge 43, Type (0, 1), BuildingBlock: CIFDUS_clean_linker_0, # of connection points: 2
#     Edge 44, Type (0, 1), BuildingBlock: CIFDUS_clean_linker_0, # of connection points: 2
#     Edge 45, Type (0, 1), BuildingBlock: CIFDUS_clean_linker_0, # of connection points: 2
#     Edge 46, Type (0, 1), BuildingBlock: CIFDUS_clean_linker_0, # of connection points: 2
#     Edge 47, Type (0, 1), BuildingBlock: CIFDUS_clean_linker_0, # of connection points: 2
#     Edge 48, Type (0, 1), BuildingBlock: CIFDUS_clean_linker_0, # of connection points: 2
#     Edge 49, Type (0, 1), BuildingBlock: CIFDUS_clean_linker_0, # of connection points: 2
#     Edge 50, Type (0, 1), BuildingBlock: CIFDUS_clean_linker_0, # of connection points: 2
#     Edge 51, Type (0, 1), BuildingBlock: CIFDUS_clean_linker_0, # of connection points: 2
#     Edge 52, Type (0, 1), BuildingBlock: CIFDUS_clean_linker_0, # of connection points: 2
#     Edge 53, Type (0, 1), BuildingBlock: CIFDUS_clean_linker_0, # of connection points: 2
#     Edge 54, Type (0, 1), BuildingBlock: CIFDUS_clean_linker_0, # of connection points: 2
#     Edge 55, Type (0, 1), BuildingBlock: CIFDUS_clean_linker_0, # of connection points: 2
#     Edge 56, Type (0, 1), BuildingBlock: CIFDUS_clean_linker_0, # of connection points: 2
#     Edge 57, Type (0, 1), BuildingBlock: CIFDUS_clean_linker_0, # of connection points: 2
#     Edge 58, Type (0, 1), BuildingBlock: CIFDUS_clean_linker_0, # of connection points: 2
#     Edge 59, Type (0, 1), BuildingBlock: CIFDUS_clean_linker_0, # of connection points: 2
#     Edge 60, Type (0, 1), BuildingBlock: CIFDUS_clean_linker_0, # of connection points: 2
#     Edge 61, Type (0, 1), BuildingBlock: CIFDUS_clean_linker_0, # of connection points: 2
# Relax obj value: 0.082
# Max RMSD: 0.134
# Mean RMSD: 0.103
data_MOF--net-ocu--node1-KUMJIN_clean_sbu_1--node2-VETTIZ_charged_sbu_0--edge1-CIFDUS_clean_linker_0
_symmetry_space_group_name_H-M    P1
_symmetry_Int_Tables_number       1
_symmetry_cell_setting            triclinic
loop_
_symmetry_equiv_pos_as_xyz
'x, y, z'
_cell_length_a     34.895737
_cell_length_b     35.38309
_cell_length_c     36.596949
_cell_angle_alpha  102.00871
_cell_angle_beta   78.73199
_cell_angle_gamma 105.47478
loop_
_atom_site_label
_atom_site_type_symbol
_atom_site_fract_x
_atom_site_fract_y
_atom_site_fract_z
_atom_type_partial_charge
Eu0 Eu 0.25606 0.26752 0.24746 0.0
C1 C 0.36611 0.39062 0.36511 0.0
N2 N 0.37932 0.37014 0.33136 0.0
C3 C 0.43434 0.42568 0.32005 0.0
C4 C 0.38651 0.43002 0.37745 0.0
C5 C 0.4133 0.38659 0.30914 0.0
C6 C 0.42075 0.4476 0.35424 0.0
C7 C 0.31906 0.3919 0.42357 0.0
C8 C 0.33268 0.37181 0.38788 0.0
C9 C 0.33888 0.43138 0.43564 0.0
C10 C 0.37247 0.4504 0.41264 0.0
Eu11 Eu 0.34067 0.30544 0.31452 0.0
N12 N 0.31359 0.33377 0.37522 0.0
C13 C 0.2861 0.37157 0.44621 0.0
C14 C 0.28253 0.31329 0.39779 0.0
C15 C 0.26799 0.33199 0.43338 0.0
H16 H 0.42449 0.36916 0.28334 0.0
H17 H 0.24272 0.31593 0.45082 0.0
H18 H 0.17846 0.19315 0.27125 0.0
H19 H 0.3612 0.27623 0.11575 0.0
H20 H 0.26805 0.28308 0.38775 0.0
H21 H 0.27469 0.38601 0.47377 0.0
H22 H 0.32779 0.30216 0.17824 0.0
H23 H 0.46119 0.43876 0.30225 0.0
H24 H 0.3287 0.44737 0.46287 0.0
H25 H 0.38767 0.48074 0.42252 0.0
H26 H 0.15235 0.12165 0.24808 0.0
H27 H 0.43724 0.47782 0.36272 0.0
H28 H 0.34014 0.20507 0.08861 0.0
N29 N 0.22725 0.20004 0.22656 0.0
C30 C 0.24445 0.18359 0.19244 0.0
C31 C 0.1786 0.13857 0.2324 0.0
C32 C 0.22999 0.14324 0.17754 0.0
C33 C 0.1939 0.17873 0.24591 0.0
C34 C 0.19703 0.12059 0.19828 0.0
N35 N 0.28967 0.24613 0.18714 0.0
C36 C 0.31879 0.27109 0.16693 0.0
C37 C 0.29409 0.1913 0.13616 0.0
C38 C 0.27608 0.20738 0.17189 0.0
C39 C 0.32545 0.21633 0.11609 0.0
C40 C 0.33753 0.25649 0.13138 0.0
H41 H 0.18501 0.08951 0.18778 0.0
H42 H 0.23789 0.09594 0.13054 0.0
H43 H 0.29408 0.13795 0.09442 0.0
O44 O 0.24122 0.30534 0.21452 0.0
O45 O 0.30865 0.23605 0.23778 0.0
O46 O 0.36377 0.2848 0.25361 0.0
O47 O 0.19559 0.25582 0.23291 0.0
O48 O 0.2939 0.33147 0.25162 0.0
O49 O 0.35727 0.33108 0.26012 0.0
O50 O 0.35465 0.25486 0.32994 0.0
O51 O 0.28876 0.3367 0.328 0.0
O52 O 0.23146 0.29456 0.30682 0.0
O53 O 0.39714 0.31204 0.3354 0.0
O54 O 0.29852 0.24431 0.31648 0.0
O55 O 0.23621 0.24146 0.30215 0.0
C56 C 0.34813 0.25001 0.2349 0.0
C57 C 0.17379 0.31109 0.2248 0.0
C58 C 0.13205 0.3459 0.20367 0.0
C59 C 0.11736 0.35817 0.24178 0.0
C60 C 0.15886 0.32403 0.26247 0.0
C61 C 0.13072 0.34732 0.27083 0.0
C62 C 0.1603 0.32202 0.19547 0.0
C63 C 0.33314 0.34532 0.24602 0.0
C64 C 0.20356 0.28641 0.21579 0.0
C65 C 0.24842 0.12695 0.14229 0.0
C66 C 0.28036 0.1509 0.12167 0.0
C67 C 0.24947 0.32655 0.32828 0.0
C68 C 0.3935 0.26962 0.37894 0.0
C69 C 0.41331 0.23008 0.4162 0.0
C70 C 0.4013 0.25511 0.4493 0.0
C71 C 0.38179 0.29427 0.41226 0.0
C72 C 0.40916 0.2376 0.38104 0.0
C73 C 0.38566 0.28695 0.44724 0.0
C74 C 0.25927 0.23116 0.32119 0.0
C75 C 0.38805 0.27562 0.3419 0.0
H76 H 0.09526 0.37598 0.24923 0.0
H77 H 0.16888 0.31602 0.28538 0.0
H78 H 0.11918 0.35704 0.29999 0.0
H79 H 0.17234 0.31249 0.16638 0.0
H80 H 0.40458 0.25051 0.47677 0.0
H81 H 0.36961 0.31905 0.41129 0.0
H82 H 0.41756 0.21823 0.35526 0.0
H83 H 0.37663 0.30611 0.47286 0.0
Eu84 Eu 0.742 0.32429 0.2978 0.0
C85 C 0.9143 0.2906 0.23816 0.0
N86 N 0.87862 0.26556 0.23153 0.0
C87 C 0.90531 0.24918 0.16627 0.0
C88 C 0.94663 0.29743 0.20858 0.0
C89 C 0.87408 0.24365 0.19659 0.0
C90 C 0.94149 0.27683 0.17214 0.0
C91 C 0.95723 0.32961 0.28376 0.0
C92 C 0.91945 0.30638 0.27512 0.0
C93 C 0.98872 0.33916 0.25426 0.0
C94 C 0.98345 0.32303 0.21668 0.0
Eu95 Eu 0.8263 0.259 0.28331 0.0
N96 N 0.88879 0.29538 0.30276 0.0
C97 C 0.96286 0.34046 0.3217 0.0
C98 C 0.89542 0.30242 0.33939 0.0
C99 C 0.93215 0.32585 0.34956 0.0
H100 H 0.84603 0.22251 0.19207 0.0
H101 H 0.9368 0.33246 0.37882 0.0
H102 H 0.77929 0.41551 0.34593 0.0
H103 H 0.59582 0.22726 0.33896 0.0
H104 H 0.87216 0.29035 0.36094 0.0
H105 H 0.99138 0.35833 0.3296 0.0
H106 H 0.65271 0.25885 0.2944 0.0
H107 H 0.90136 0.23239 0.13841 0.0
H108 H 1.01777 0.35746 0.26031 0.0
H109 H 1.0085 0.32919 0.19431 0.0
H110 H 0.77736 0.44944 0.4123 0.0
H111 H 0.96561 0.28113 0.14865 0.0
H112 H 0.59467 0.24918 0.4079 0.0
N113 N 0.73748 0.36255 0.35955 0.0
C114 C 0.71003 0.34535 0.3866 0.0
C115 C 0.75856 0.41994 0.40555 0.0
C116 C 0.70725 0.36381 0.42475 0.0
C117 C 0.75968 0.40057 0.36804 0.0
C118 C 0.73291 0.40106 0.43419 0.0
N119 N 0.68342 0.29704 0.33795 0.0
C120 C 0.65194 0.26877 0.3245 0.0
C121 C 0.65014 0.29456 0.40181 0.0
C122 C 0.68185 0.3114 0.37535 0.0
C123 C 0.61952 0.26308 0.38851 0.0
C124 C 0.61994 0.25076 0.3496 0.0
H125 H 0.73179 0.41626 0.46318 0.0
H126 H 0.67541 0.35888 0.48135 0.0
H127 H 0.62537 0.29798 0.46121 0.0
O128 O 0.73173 0.33998 0.24638 0.0
O129 O 0.72776 0.2603 0.30617 0.0
O130 O 0.7789 0.2596 0.3353 0.0
O131 O 0.70089 0.36187 0.30032 0.0
O132 O 0.73162 0.26994 0.25137 0.0
O133 O 0.78182 0.23439 0.24065 0.0
O134 O 0.85872 0.21904 0.296 0.0
O135 O 0.82914 0.29763 0.2386 0.0
O136 O 0.80559 0.3514 0.27284 0.0
O137 O 0.80156 0.19482 0.27621 0.0
O138 O 0.81376 0.30089 0.33822 0.0
O139 O 0.80248 0.35368 0.31886 0.0
C140 C 0.74083 0.24844 0.3318 0.0
C141 C 0.71397 0.40091 0.25283 0.0
C142 C 0.69107 0.44395 0.2222 0.0
C143 C 0.72326 0.47542 0.233 0.0
C144 C 0.74608 0.43236 0.26323 0.0
C145 C 0.75068 0.46947 0.25322 0.0
C146 C 0.68677 0.40666 0.23217 0.0
C147 C 0.74871 0.24079 0.23285 0.0
C148 C 0.70747 0.36221 0.26423 0.0
C149 C 0.67762 0.34552 0.45179 0.0
C150 C 0.64909 0.31087 0.44032 0.0
C151 C 0.82786 0.33545 0.24356 0.0
C152 C 0.81567 0.16327 0.32212 0.0
C153 C 0.83087 0.13229 0.37048 0.0
C154 C 0.7895 0.1149 0.37863 0.0
C155 C 0.7747 0.1453 0.3312 0.0
C156 C 0.84354 0.15686 0.34215 0.0
C157 C 0.76181 0.12168 0.3594 0.0
C158 C 0.81872 0.33933 0.34083 0.0
C159 C 0.8293 0.18776 0.29129 0.0
H160 H 0.72753 0.5044 0.22536 0.0
H161 H 0.76726 0.42824 0.27925 0.0
H162 H 0.77551 0.49365 0.26122 0.0
H163 H 0.66182 0.38226 0.22444 0.0
H164 H 0.77833 0.09513 0.39925 0.0
H165 H 0.75244 0.14915 0.31632 0.0
H166 H 0.87503 0.17115 0.33556 0.0
H167 H 0.73015 0.10799 0.36598 0.0
Eu168 Eu 0.76175 0.72095 0.33036 0.0
C169 C 0.87254 0.85229 0.22579 0.0
N170 N 0.84562 0.85673 0.2577 0.0
C171 C 0.88732 0.91982 0.27984 0.0
C172 C 0.90871 0.88134 0.2201 0.0
C173 C 0.85165 0.89041 0.28397 0.0
C174 C 0.91621 0.91505 0.24797 0.0
C175 C 0.88894 0.81558 0.16326 0.0
C176 C 0.86282 0.81973 0.19772 0.0
C177 C 0.92575 0.84362 0.15811 0.0
C178 C 0.93563 0.87639 0.18647 0.0
Eu179 Eu 0.7883 0.80409 0.26354 0.0
N180 N 0.82706 0.793 0.2035 0.0
C181 C 0.87679 0.78389 0.13467 0.0
C182 C 0.81387 0.76365 0.17491 0.0
C183 C 0.83884 0.75816 0.14034 0.0
H184 H 0.82886 0.89449 0.30813 0.0
H185 H 0.82881 0.73416 0.11811 0.0
H186 H 0.67521 0.67042 0.29926 0.0
H187 H 0.78968 0.81588 0.46577 0.0
H188 H 0.7846 0.74382 0.17929 0.0
H189 H 0.89604 0.77964 0.10782 0.0
H190 H 0.80848 0.77975 0.40246 0.0
H191 H 0.89238 0.94623 0.30106 0.0
H192 H 0.94639 0.84072 0.13197 0.0
H193 H 0.96373 0.89824 0.18173 0.0
H194 H 0.60232 0.65772 0.32354 0.0
H195 H 0.94368 0.93803 0.24469 0.0
H196 H 0.71792 0.80903 0.49282 0.0
N197 N 0.69194 0.70839 0.34957 0.0
C198 C 0.67981 0.72501 0.38561 0.0
C199 C 0.6238 0.6768 0.34116 0.0
C200 C 0.63859 0.71879 0.40043 0.0
C201 C 0.66494 0.68413 0.32743 0.0
C202 C 0.61055 0.69425 0.37776 0.0
N203 N 0.74833 0.75646 0.39175 0.0
C204 C 0.77724 0.77837 0.41291 0.0
C205 C 0.69651 0.76922 0.44364 0.0
C206 C 0.70865 0.75017 0.40695 0.0
C207 C 0.72605 0.79385 0.46456 0.0
C208 C 0.76659 0.79803 0.44929 0.0
H209 H 0.57862 0.68877 0.38815 0.0
H210 H 0.59505 0.7336 0.44869 0.0
H211 H 0.64562 0.7776 0.48647 0.0
O212 O 0.78592 0.69518 0.36778 0.0
O213 O 0.72143 0.76208 0.32704 0.0
O214 O 0.76333 0.82264 0.3246 0.0
O215 O 0.73883 0.65868 0.33658 0.0
O216 O 0.82266 0.76456 0.33187 0.0
O217 O 0.81324 0.82252 0.31922 0.0
O218 O 0.7289 0.8082 0.25719 0.0
O219 O 0.82658 0.75798 0.24384 0.0
O220 O 0.81039 0.70788 0.28081 0.0
O221 O 0.78094 0.85111 0.23633 0.0
O222 O 0.7395 0.74734 0.25334 0.0
O223 O 0.75117 0.69343 0.27109 0.0
C224 C 0.72944 0.80075 0.33903 0.0
C225 C 0.78844 0.62822 0.3449 0.0
C226 C 0.83481 0.59309 0.35751 0.0
C227 C 0.83466 0.57135 0.3206 0.0
C228 C 0.78951 0.6067 0.30794 0.0
C229 C 0.8124 0.57839 0.29602 0.0
C230 C 0.81108 0.62121 0.3696 0.0
C231 C 0.8331 0.8034 0.3333 0.0
C232 C 0.76537 0.65922 0.35734 0.0
C233 C 0.6266 0.73787 0.43692 0.0
C234 C 0.65543 0.76305 0.4584 0.0
C235 C 0.8316 0.72504 0.25196 0.0
C236 C 0.72538 0.83134 0.20242 0.0
C237 C 0.69582 0.85625 0.15972 0.0
C238 C 0.6871 0.81782 0.13859 0.0
C239 C 0.71702 0.79333 0.18039 0.0
C240 C 0.71528 0.86299 0.19161 0.0
C241 C 0.69796 0.78666 0.14873 0.0
C242 C 0.74222 0.71019 0.24618 0.0
C243 C 0.74225 0.83724 0.23774 0.0
H244 H 0.85212 0.54912 0.31055 0.0
H245 H 0.773 0.61194 0.28805 0.0
H246 H 0.8133 0.56222 0.26743 0.0
H247 H 0.81127 0.63866 0.3977 0.0
H248 H 0.67222 0.81204 0.11394 0.0
H249 H 0.72458 0.76861 0.18806 0.0
H250 H 0.72157 0.89243 0.2084 0.0
H251 H 0.6913 0.75717 0.13219 0.0
Eu252 Eu 0.26043 0.80991 0.26426 0.0
C253 C 0.31606 0.69591 0.3527 0.0
N254 N 0.33536 0.73208 0.34321 0.0
C255 C 0.3569 0.75404 0.40403 0.0
C256 C 0.31597 0.68765 0.38882 0.0
C257 C 0.35631 0.76078 0.36787 0.0
C258 C 0.33643 0.71739 0.41466 0.0
C259 C 0.27642 0.62907 0.33523 0.0
C260 C 0.29638 0.66702 0.32618 0.0
C261 C 0.2756 0.62103 0.37141 0.0
C262 C 0.29544 0.65018 0.39807 0.0
Eu263 Eu 0.33093 0.74172 0.2825 0.0
N264 N 0.29762 0.67561 0.29132 0.0
C265 C 0.25855 0.59997 0.3074 0.0
C266 C 0.28253 0.64641 0.26342 0.0
C267 C 0.26216 0.60853 0.2712 0.0
H268 H 0.37318 0.78871 0.35946 0.0
H269 H 0.24971 0.58578 0.24908 0.0
H270 H 0.27536 0.80441 0.16956 0.0
H271 H 0.26243 0.94769 0.36656 0.0
H272 H 0.28664 0.65148 0.23476 0.0
H273 H 0.24295 0.5705 0.31325 0.0
H274 H 0.23804 0.87628 0.34174 0.0
H275 H 0.37332 0.77702 0.42359 0.0
H276 H 0.26017 0.59215 0.37888 0.0
H277 H 0.2948 0.64342 0.42576 0.0
H278 H 0.312 0.84678 0.12182 0.0
H279 H 0.33691 0.71224 0.44272 0.0
H280 H 0.31359 0.99091 0.32657 0.0
N281 N 0.29383 0.84825 0.2162 0.0
C282 C 0.3109 0.887 0.22801 0.0
C283 C 0.31236 0.85833 0.15158 0.0
C284 C 0.33257 0.91212 0.20183 0.0
C285 C 0.2917 0.83448 0.17864 0.0
C286 C 0.33402 0.89693 0.1632 0.0
N287 N 0.27692 0.87889 0.28925 0.0
C288 C 0.26047 0.89507 0.32418 0.0
C289 C 0.31676 0.94371 0.27855 0.0
C290 C 0.30257 0.90271 0.26585 0.0
C291 C 0.30328 0.95961 0.31571 0.0
C292 C 0.27426 0.93536 0.33831 0.0
H293 H 0.35024 0.91528 0.1422 0.0
H294 H 0.36739 0.97161 0.19528 0.0
H295 H 0.35384 0.99927 0.26268 0.0
O296 O 0.20654 0.83249 0.27152 0.0
O297 O 0.31222 0.79292 0.22129 0.0
O298 O 0.35666 0.79945 0.26035 0.0
O299 O 0.21576 0.78479 0.22605 0.0
O300 O 0.28985 0.83287 0.31825 0.0
O301 O 0.34599 0.80649 0.30935 0.0
O302 O 0.36956 0.71502 0.23571 0.0
O303 O 0.27339 0.74128 0.3247 0.0
O304 O 0.23434 0.78391 0.31828 0.0
O305 O 0.3907 0.73846 0.28959 0.0
O306 O 0.29656 0.71905 0.23181 0.0
O307 O 0.24278 0.74341 0.26045 0.0
C308 C 0.34925 0.80365 0.2282 0.0
C309 C 0.14814 0.78787 0.24992 0.0
C310 C 0.0807 0.79239 0.28108 0.0
C311 C 0.06484 0.75443 0.26185 0.0
C312 C 0.13187 0.7503 0.22993 0.0
C313 C 0.09042 0.73368 0.23605 0.0
C314 C 0.12224 0.80872 0.27487 0.0
C315 C 0.32414 0.83161 0.32758 0.0
C316 C 0.19147 0.80696 0.2438 0.0
C317 C 0.34979 0.95213 0.21488 0.0
C318 C 0.34202 0.96789 0.25326 0.0
C319 C 0.24255 0.75824 0.33569 0.0
C320 C 0.43381 0.75844 0.23494 0.0
C321 C 0.46714 0.78303 0.1764 0.0
C322 C 0.4872 0.81817 0.19711 0.0
C323 C 0.4536 0.7942 0.25553 0.0
C324 C 0.44124 0.7532 0.19557 0.0
C325 C 0.48026 0.82371 0.23662 0.0
C326 C 0.25873 0.71936 0.23347 0.0
C327 C 0.4009 0.72922 0.2533 0.0
H328 H 1.03294 0.74098 0.26682 0.0
H329 H 0.15102 0.73387 0.20959 0.0
H330 H 0.07816 0.70457 0.22089 0.0
H331 H 0.1347 0.83764 0.29041 0.0
H332 H 0.50834 0.8409 0.18278 0.0
H333 H 0.44792 0.79979 0.28611 0.0
H334 H 0.42667 0.72537 0.17965 0.0
H335 H 0.49538 0.85105 0.25266 0.0
Eu336 Eu 0.24308 0.79576 0.78816 0.0
C337 C 0.3847 0.72497 0.6925 0.0
N338 N 0.34625 0.70781 0.70632 0.0
C339 C 0.33796 0.66576 0.64652 0.0
C340 C 0.40064 0.71411 0.65436 0.0
C341 C 0.32335 0.67761 0.68439 0.0
C342 C 0.37663 0.68433 0.63132 0.0
C343 C 0.44741 0.77332 0.70227 0.0
C344 C 0.40782 0.75429 0.71632 0.0
C345 C 0.46313 0.76283 0.66423 0.0
C346 C 0.43986 0.73328 0.64038 0.0
Eu347 Eu 0.32478 0.72842 0.771 0.0
N348 N 0.39168 0.76429 0.75303 0.0
C349 C 0.47024 0.80222 0.72689 0.0
C350 C 0.41464 0.7912 0.7774 0.0
C351 C 0.45388 0.8109 0.7647 0.0
H352 H 0.29403 0.66195 0.69606 0.0
H353 H 0.47169 0.83242 0.78424 0.0
H354 H 0.2631 0.86352 0.86739 0.0
H355 H 0.09938 0.69737 0.75903 0.0
H356 H 0.40359 0.79701 0.80689 0.0
H357 H 0.50073 0.81745 0.71719 0.0
H358 H 0.16873 0.73678 0.74347 0.0
H359 H 0.31951 0.64207 0.62915 0.0
H360 H 0.49338 0.77728 0.65301 0.0
H361 H 0.45249 0.72544 0.61113 0.0
H362 H 0.23361 0.87563 0.93413 0.0
H363 H 0.38783 0.67512 0.60192 0.0
H364 H 0.06617 0.70209 0.8256 0.0
N365 N 0.21564 0.8141 0.85223 0.0
C366 C 0.1779 0.79302 0.86357 0.0
C367 C 0.21784 0.85189 0.9147 0.0
C368 C 0.15931 0.79962 0.90144 0.0
C369 C 0.23492 0.84441 0.87681 0.0
C370 C 0.18015 0.82898 0.92723 0.0
N371 N 0.17556 0.7606 0.80058 0.0
C372 C 0.15491 0.73778 0.77257 0.0
C373 C 0.11734 0.74453 0.84718 0.0
C374 C 0.15706 0.76582 0.83689 0.0
C375 C 0.09677 0.71892 0.81888 0.0
C376 C 0.11544 0.71606 0.7813 0.0
H377 H 0.16693 0.835 0.95656 0.0
H378 H 0.10567 0.78187 0.94121 0.0
H379 H 0.06892 0.73363 0.89367 0.0
O380 O 0.22978 0.81325 0.7389 0.0
O381 O 0.22457 0.73709 0.81094 0.0
O382 O 0.2839 0.73559 0.82771 0.0
O383 O 0.2248 0.8513 0.79306 0.0
O384 O 0.24717 0.74954 0.73499 0.0
O385 O 0.26302 0.69814 0.75377 0.0
O386 O 0.36825 0.70367 0.78906 0.0
O387 O 0.32682 0.76583 0.72637 0.0
O388 O 0.30848 0.81779 0.76674 0.0
O389 O 0.313 0.66455 0.77035 0.0
O390 O 0.33308 0.77814 0.82246 0.0
O391 O 0.29865 0.8251 0.81791 0.0
C392 C 0.24436 0.72662 0.8327 0.0
C393 C 0.18404 0.85438 0.74951 0.0
C394 C 0.15338 0.88812 0.71517 0.0
C395 C 0.11571 0.87333 0.73572 0.0
C396 C 0.14614 0.83991 0.76958 0.0
C397 C 0.11215 0.84921 0.76252 0.0
C398 C 0.18755 0.87812 0.72188 0.0
C399 C 0.24332 0.71134 0.73376 0.0
C400 C 0.22021 0.84575 0.75769 0.0
C401 C 0.12026 0.77743 0.91218 0.0
C402 C 0.0993 0.74997 0.8851 0.0
C403 C 0.32491 0.80318 0.73349 0.0
C404 C 0.35866 0.63234 0.78769 0.0
C405 C 0.4017 0.60292 0.81297 0.0
C406 C 0.38336 0.56524 0.79458 0.0
C407 C 0.3406 0.59435 0.76985 0.0
C408 C 0.38914 0.63647 0.8094 0.0
C409 C 0.353 0.56107 0.77326 0.0
C410 C 0.32556 0.81405 0.83207 0.0
C411 C 0.3468 0.66746 0.782 0.0
H412 H 0.08894 0.88047 0.73098 0.0
H413 H 0.14286 0.82178 0.79095 0.0
H414 H 0.08298 0.83801 0.77814 0.0
H415 H 0.21682 0.8896 0.70645 0.0
H416 H 0.39193 0.53882 0.79733 0.0
H417 H 0.31726 0.59041 0.7528 0.0
H418 H 0.40325 0.66567 0.82326 0.0
H419 H 0.33903 0.53192 0.75933 0.0
Eu420 Eu 0.27027 0.24255 0.80391 0.0
C421 C 0.39157 0.32525 0.67476 0.0
N422 N 0.37541 0.34262 0.70907 0.0
C423 C 0.43949 0.38684 0.7177 0.0
C424 C 0.43287 0.33767 0.6611 0.0
C425 C 0.39844 0.37368 0.73014 0.0
C426 C 0.45684 0.3686 0.6832 0.0
C427 C 0.38301 0.27622 0.61761 0.0
C428 C 0.36683 0.29481 0.65306 0.0
C429 C 0.42414 0.28846 0.60421 0.0
C430 C 0.44897 0.31904 0.62587 0.0
Eu431 Eu 0.30562 0.31792 0.7262 0.0
N432 N 0.32729 0.28233 0.66725 0.0
C433 C 0.35739 0.24556 0.5968 0.0
C434 C 0.30194 0.25368 0.64646 0.0
C435 C 0.31663 0.23446 0.61118 0.0
H436 H 0.38527 0.38913 0.75618 0.0
H437 H 0.29644 0.21131 0.59499 0.0
H438 H 0.20587 0.15775 0.77245 0.0
H439 H 0.25814 0.3429 0.93857 0.0
H440 H 0.27046 0.24592 0.65685 0.0
H441 H 0.36871 0.23052 0.56949 0.0
H442 H 0.29213 0.31546 0.8767 0.0
H443 H 0.45767 0.41132 0.73458 0.0
H444 H 0.43709 0.27438 0.57713 0.0
H445 H 0.48065 0.32814 0.61507 0.0
H446 H 0.13569 0.12191 0.79038 0.0
H447 H 0.48867 0.37897 0.67365 0.0
H448 H 0.18684 0.31232 0.95996 0.0
N449 N 0.20424 0.20486 0.81909 0.0
C450 C 0.18308 0.21894 0.85209 0.0
C451 C 0.14854 0.14934 0.80781 0.0
C452 C 0.14323 0.19889 0.86388 0.0
C453 C 0.1881 0.16998 0.79748 0.0
C454 C 0.12587 0.16402 0.84098 0.0
N455 N 0.24016 0.27152 0.86276 0.0
C456 C 0.26099 0.30239 0.88577 0.0
C457 C 0.18121 0.2671 0.91002 0.0
C458 C 0.20174 0.25276 0.87485 0.0
C459 C 0.20163 0.30031 0.93282 0.0
C460 C 0.24185 0.31774 0.92081 0.0
H461 H 0.09532 0.14779 0.84905 0.0
H462 H 0.09155 0.1989 0.90777 0.0
H463 H 0.12482 0.25856 0.94816 0.0
O464 O 0.31557 0.24022 0.83659 0.0
O465 O 0.23929 0.29515 0.81544 0.0
O466 O 0.27672 0.34678 0.78312 0.0
O467 O 0.2691 0.18774 0.82374 0.0
O468 O 0.33142 0.28477 0.79396 0.0
O469 O 0.32721 0.34368 0.78183 0.0
O470 O 0.26547 0.33326 0.69525 0.0
O471 O 0.33733 0.26671 0.71916 0.0
O472 O 0.29332 0.21415 0.74517 0.0
O473 O 0.32327 0.37289 0.70311 0.0
O474 O 0.24237 0.27861 0.73435 0.0
O475 O 0.24417 0.21916 0.7487 0.0
C476 C 0.24785 0.33252 0.80957 0.0
C477 C 0.33196 0.17846 0.83124 0.0
C478 C 0.3727 0.14295 0.85325 0.0
C479 C 0.39055 0.1338 0.81551 0.0
C480 C 0.35072 0.16916 0.79418 0.0
C481 C 0.37969 0.14687 0.78638 0.0
C482 C 0.34301 0.16535 0.8608 0.0
C483 C 0.33807 0.32346 0.80252 0.0
C484 C 0.30173 0.2027 0.83914 0.0
C485 C 0.12225 0.2138 0.89837 0.0
C486 C 0.14121 0.24775 0.9214 0.0
C487 C 0.32536 0.22859 0.72196 0.0
C488 C 0.27069 0.4026 0.70285 0.0
C489 C 0.23092 0.44377 0.68893 0.0
C490 C 0.23878 0.47009 0.72269 0.0
C491 C 0.27739 0.42889 0.73672 0.0
C492 C 0.24731 0.41002 0.67912 0.0
C493 C 0.26156 0.46246 0.74646 0.0
C494 C 0.23157 0.23965 0.72914 0.0
C495 C 0.28904 0.36817 0.69164 0.0
H496 H 0.41265 0.11598 0.80827 0.0
H497 H 0.34297 0.17927 0.77132 0.0
H498 H 0.39377 0.13964 0.75755 0.0
H499 H 0.32897 0.17314 0.88956 0.0
H500 H 0.22744 0.49677 0.73075 0.0
H501 H 0.29529 0.42374 0.75544 0.0
H502 H 0.24157 0.38928 0.65336 0.0
H503 H 0.26715 0.48277 0.77245 0.0
Eu504 Eu 0.72263 0.30047 0.78406 0.0
C505 C 0.82515 0.25274 0.86552 0.0
N506 N 0.8406 0.27783 0.83993 0.0
C507 C 0.88208 0.32179 0.88384 0.0
C508 C 0.83461 0.2633 0.90263 0.0
C509 C 0.87136 0.31017 0.84756 0.0
C510 C 0.86242 0.29911 0.91196 0.0
C511 C 0.78981 0.18664 0.87824 0.0
C512 C 0.80386 0.21453 0.85332 0.0
C513 C 0.79572 0.19839 0.9162 0.0
C514 C 0.8183 0.2366 0.92834 0.0
Eu515 Eu 0.81824 0.25555 0.77998 0.0
N516 N 0.79927 0.20384 0.81634 0.0
C517 C 0.77153 0.14743 0.8639 0.0
C518 C 0.78394 0.16517 0.8016 0.0
C519 C 0.7693 0.13648 0.82526 0.0
H520 H 0.88726 0.32757 0.8259 0.0
H521 H 0.75601 0.10608 0.81378 0.0
H522 H 0.71516 0.30633 0.69633 0.0
H523 H 0.6794 0.39486 0.916 0.0
H524 H 0.78161 0.15693 0.77182 0.0
H525 H 0.76017 0.12517 0.88217 0.0
H526 H 0.69728 0.33488 0.87605 0.0
H527 H 0.90556 0.34818 0.89007 0.0
H528 H 0.78457 0.17759 0.93595 0.0
H529 H 0.82454 0.24455 0.95718 0.0
H530 H 0.70452 0.35448 0.66113 0.0
H531 H 0.87078 0.30821 0.94004 0.0
H532 H 0.67261 0.4492 0.88651 0.0
N533 N 0.71016 0.34416 0.74943 0.0
C534 C 0.70187 0.37873 0.76888 0.0
C535 C 0.70388 0.36178 0.69143 0.0
C536 C 0.69526 0.40697 0.75021 0.0
C537 C 0.70991 0.33464 0.71137 0.0
C538 C 0.697 0.39835 0.71089 0.0
N539 N 0.7023 0.35571 0.82439 0.0
C540 C 0.69481 0.35856 0.86281 0.0
C541 C 0.68707 0.41931 0.8294 0.0
C542 C 0.6978 0.38473 0.80774 0.0
C543 C 0.68088 0.42311 0.86883 0.0
C544 C 0.6845 0.39243 0.88558 0.0
H545 H 0.69214 0.41925 0.69544 0.0
H546 H 0.68121 0.46447 0.75765 0.0
H547 H 0.67407 0.47532 0.82713 0.0
O548 O 0.65731 0.28656 0.78676 0.0
O549 O 0.7748 0.32433 0.7405 0.0
O550 O 0.83232 0.30262 0.74178 0.0
O551 O 0.68712 0.23883 0.77765 0.0
O552 O 0.76263 0.32926 0.83024 0.0
O553 O 0.82524 0.32187 0.79991 0.0
O554 O 0.85975 0.24404 0.72794 0.0
O555 O 0.75309 0.22828 0.79939 0.0
O556 O 0.7321 0.28037 0.83538 0.0
O557 O 0.86785 0.22902 0.77946 0.0
O558 O 0.77163 0.21671 0.74394 0.0
O559 O 0.74796 0.26516 0.72893 0.0
C560 C 0.81311 0.32374 0.72913 0.0
C561 C 0.62515 0.23068 0.81637 0.0
C562 C 0.59574 0.23766 0.88259 0.0
C563 C 0.57347 0.19817 0.87707 0.0
C564 C 0.60354 0.19086 0.81091 0.0
C565 C 0.57793 0.17464 0.84131 0.0
C566 C 0.62175 0.25336 0.85235 0.0
C567 C 0.80216 0.34136 0.82532 0.0
C568 C 0.65288 0.24852 0.78549 0.0
C569 C 0.68608 0.44223 0.77146 0.0
C570 C 0.68199 0.44839 0.81102 0.0
C571 C 0.73475 0.24373 0.83144 0.0
C572 C 0.92533 0.26003 0.74397 0.0
C573 C 0.99677 0.26408 0.73995 0.0
C574 C 1.00387 0.30564 0.7498 0.0
C575 C 0.93277 0.30161 0.75345 0.0
C576 C 0.95712 0.24161 0.73752 0.0
C577 C 0.97187 0.32424 0.75663 0.0
C578 C 0.7506 0.22792 0.72367 0.0
C579 C 0.88423 0.23524 0.7457 0.0
H580 H 0.5525 0.18593 0.90005 0.0
H581 H 0.60653 0.17247 0.78335 0.0
H582 H 0.56109 0.144 0.83698 0.0
H583 H 0.63822 0.28416 0.85666 0.0
H584 H 0.03415 0.32365 0.75111 0.0
H585 H 0.90834 0.31647 0.75895 0.0
H586 H 0.95077 0.20955 0.72934 0.0
H587 H 0.97743 0.35628 0.76402 0.0
Eu588 Eu 0.73627 0.75495 0.73108 0.0
C589 C 0.81685 0.85347 0.87364 0.0
N590 N 0.83654 0.83931 0.83981 0.0
C591 C 0.88877 0.89919 0.84305 0.0
C592 C 0.83227 0.89163 0.89329 0.0
C593 C 0.87235 0.86115 0.82468 0.0
C594 C 0.86852 0.91462 0.8774 0.0
C595 C 0.76046 0.84321 0.92417 0.0
C596 C 0.78124 0.8296 0.88885 0.0
C597 C 0.7755 0.88138 0.94357 0.0
C598 C 0.81126 0.90553 0.92815 0.0
Eu599 Eu 0.80608 0.77528 0.81043 0.0
N600 N 0.76689 0.79304 0.86901 0.0
C601 C 0.7252 0.81799 0.93896 0.0
C602 C 0.73373 0.76764 0.88423 0.0
C603 C 0.71204 0.7799 0.91908 0.0
H604 H 0.88874 0.84879 0.7989 0.0
H605 H 0.68536 0.75982 0.93073 0.0
H606 H 0.6572 0.67822 0.7469 0.0
H607 H 0.85397 0.7708 0.60855 0.0
H608 H 0.72411 0.73783 0.86989 0.0
H609 H 0.7083 0.82739 0.96595 0.0
H610 H 0.81509 0.79324 0.66918 0.0
H611 H 0.91717 0.91644 0.83087 0.0
H612 H 0.75976 0.89244 0.97059 0.0
H613 H 0.82258 0.93484 0.94356 0.0
H614 H 0.63162 0.60892 0.71734 0.0
H615 H 0.88137 0.94407 0.89163 0.0
H616 H 0.83334 0.70167 0.57571 0.0
N617 N 0.70776 0.68913 0.70413 0.0
C618 C 0.7272 0.67489 0.67018 0.0
C619 C 0.65869 0.62706 0.70392 0.0
C620 C 0.71339 0.63556 0.65211 0.0
C621 C 0.67354 0.66619 0.72083 0.0
C622 C 0.67882 0.61158 0.66954 0.0
N623 N 0.7744 0.73718 0.672 0.0
C624 C 0.8064 0.76295 0.65572 0.0
C625 C 0.78226 0.68558 0.61849 0.0
C626 C 0.76125 0.69965 0.65351 0.0
C627 C 0.81632 0.71138 0.60252 0.0
C628 C 0.82817 0.75036 0.62104 0.0
H629 H 0.66725 0.58122 0.65654 0.0
H630 H 0.72435 0.59123 0.60318 0.0
H631 H 0.78465 0.63496 0.57381 0.0
O632 O 0.72627 0.80124 0.70536 0.0
O633 O 0.7799 0.71544 0.72628 0.0
O634 O 0.83581 0.75455 0.75083 0.0
O635 O 0.6807 0.74637 0.70845 0.0
O636 O 0.78204 0.81497 0.73816 0.0
O637 O 0.83593 0.80467 0.75944 0.0
O638 O 0.81344 0.72665 0.83479 0.0
O639 O 0.76167 0.81544 0.81747 0.0
O640 O 0.70708 0.77702 0.79 0.0
O641 O 0.86199 0.77886 0.8311 0.0
O642 O 0.76086 0.71551 0.80055 0.0
O643 O 0.7062 0.72803 0.78324 0.0
C644 C 0.81895 0.72488 0.72644 0.0
C645 C 0.65893 0.80566 0.71725 0.0
C646 C 0.63042 0.86093 0.71548 0.0
C647 C 0.60313 0.85211 0.74813 0.0
C648 C 0.63161 0.79739 0.7499 0.0
C649 C 0.6039 0.82061 0.76523 0.0
C650 C 0.65837 0.8375 0.70032 0.0
C651 C 0.82059 0.82416 0.74115 0.0
C652 C 0.6893 0.78252 0.70145 0.0
C653 C 0.73443 0.62141 0.61737 0.0
C654 C 0.76877 0.64633 0.60063 0.0
C655 C 0.72302 0.80699 0.81458 0.0
C656 C 0.85624 0.74432 0.88144 0.0
C657 C 0.89159 0.72469 0.92312 0.0
C658 C 0.87085 0.74524 0.95437 0.0
C659 C 0.83558 0.76422 0.91316 0.0
C660 C 0.88403 0.72405 0.88653 0.0
C661 C 0.84285 0.76466 0.94937 0.0
C662 C 0.72209 0.70686 0.79893 0.0
C663 C 0.84915 0.74491 0.84315 0.0
H664 H 0.58068 0.86906 0.76009 0.0
H665 H 0.63173 0.77309 0.76359 0.0
H666 H 0.58283 0.81405 0.79033 0.0
H667 H 0.68006 0.84422 0.67556 0.0
H668 H 0.87619 0.74602 0.98275 0.0
H669 H 0.81389 0.77948 0.91007 0.0
H670 H 0.90013 0.70848 0.86225 0.0
H671 H 0.8268 0.78023 0.97363 0.0
Fe672 Fe 0.0521 0.11222 0.51553 0.0
O673 O 0.03845 0.05371 0.50778 0.0
Fe674 Fe 0.08256 1.0252 0.51275 0.0
Fe675 Fe 0.99098 1.02307 0.53895 0.0
O676 O 0.04282 0.05404 0.5066 0.0
O677 O 0.03508 0.99436 0.5436 0.0
O678 O 1.03069 0.99386 0.54446 0.0
Fe679 Fe 1.02094 0.93578 0.53586 0.0
C680 C 1.01321 0.09884 0.59196 0.0
O681 O 1.00189 0.10117 0.48997 0.0
O682 O 0.95578 0.0583 0.52621 0.0
O683 O 0.05888 0.93038 0.48594 0.0
O684 O 0.06833 0.98656 0.46433 0.0
O685 O 0.12673 0.06185 0.47746 0.0
O686 O 0.09296 0.10619 0.46764 0.0
O687 O 0.97534 0.98483 0.49107 0.0
O688 O 0.97387 0.92625 0.50561 0.0
C689 C 0.12219 0.0883 0.45931 0.0
O690 O 0.07092 0.94638 0.56114 0.0
O691 O 0.11775 0.99041 0.5263 0.0
O692 O 1.01359 0.11641 0.56504 0.0
O693 O 1.0061 0.06126 0.58745 0.0
C694 C 0.9655 0.08191 0.50084 0.0
C695 C 0.96474 0.94711 0.48557 0.0
C696 C 0.95075 0.95989 0.5921 0.0
O697 O 0.94653 0.98645 0.57395 0.0
O698 O 0.98029 0.94237 0.58386 0.0
C699 C 0.06178 0.94894 0.45903 0.0
O700 O 0.09768 0.06377 0.56071 0.0
O701 O 0.09952 0.12235 0.54612 0.0
C702 C 0.10729 0.96586 0.55085 0.0
C703 C 0.1088 0.10148 0.56613 0.0
Fe704 Fe 0.53705 0.9804 1.02282 0.0
O705 O 0.57222 0.03064 1.00671 0.0
Fe706 Fe 0.44489 1.00666 0.05424 0.0
Fe707 Fe 0.6308 0.04536 1.00788 0.0
O708 O 0.50312 1.01746 0.05265 0.0
O709 O 0.50353 1.02225 0.05506 0.0
O710 O 0.57257 0.03545 1.00905 0.0
Fe711 Fe 0.53862 0.07263 0.03897 0.0
C712 C 0.60285 0.98924 0.06681 0.0
O713 O 0.57956 0.94857 0.98798 0.0
O714 O 0.62896 0.99849 0.96367 0.0
O715 O 0.50892 0.06399 0.99316 0.0
O716 O 0.4451 0.04668 1.01967 0.0
O717 O 0.44365 0.96258 1.00747 0.0
O718 O 0.50638 0.96765 0.97687 0.0
O719 O 0.62999 0.0887 0.9786 0.0
O720 O 0.58077 0.11932 1.01493 0.0
C721 C 0.46835 0.95506 0.97799 0.0
O722 O 0.49572 0.1042 0.07354 0.0
O723 O 0.44682 0.05396 0.09794 0.0
O724 O 0.56616 0.9892 0.06854 0.0
O725 O 0.62977 1.00438 0.04154 0.0
C726 C 0.61213 0.96122 0.96471 0.0
C727 C 0.61125 0.11727 0.98799 0.0
C728 C 0.60783 0.09704 0.08449 0.0
O729 O 0.63221 0.08892 0.05493 0.0
O730 O 0.56965 0.08546 0.08527 0.0
C731 C 0.47167 0.06146 0.99388 0.0
O732 O 0.44644 0.96369 0.08422 0.0
O733 O 0.49536 0.93359 0.0467 0.0
C734 C 0.46289 0.09128 0.09643 0.0
C735 C 0.46546 0.93529 0.07423 0.0
Fe736 Fe 0.05211 0.61204 0.06181 0.0
O737 O 0.03569 0.55339 0.05666 0.0
Fe738 Fe 0.07769 0.52184 1.02215 0.0
Fe739 Fe 0.98477 0.52 0.03809 0.0
O740 O 0.04022 0.55393 0.05466 0.0
O741 O 1.02725 0.48957 1.00206 0.0
O742 O 1.02241 0.48919 1.00376 0.0
Fe743 Fe 1.01099 0.43096 0.99653 0.0
C744 C 0.96506 0.58976 0.103 0.0
O745 O 1.01363 0.61582 1.02739 0.0
O746 O 0.99103 0.5545 0.99716 0.0
O747 O 0.06033 0.43563 0.95464 0.0
O748 O 0.11006 0.48134 0.98439 0.0
O749 O 0.0901 0.55671 0.98008 0.0
O750 O 0.09852 0.61641 1.0164 0.0
O751 O 0.93699 0.48052 1.01103 0.0
O752 O 0.96828 0.43668 0.96693 0.0
C753 C 0.10345 0.5944 0.98435 0.0
O754 O 0.04945 0.42663 0.03208 0.0
O755 O 0.06715 0.48801 0.06383 0.0
O756 O 1.00253 0.60827 0.10418 0.0
O757 O 0.95273 0.55858 0.07792 0.0
C758 C 0.99662 0.5921 1.00084 0.0
C759 C 0.93861 0.45398 0.98022 0.0
C760 C 0.96264 0.44631 0.07408 0.0
O761 O 0.97489 0.4842 0.07966 0.0
O762 O 0.96491 0.42636 0.04095 0.0
C763 C 0.09782 0.45091 0.95848 0.0
O764 O 0.12507 0.56082 0.05083 0.0
O765 O 0.09375 0.6066 0.09186 0.0
C766 C 0.06266 0.45067 0.0606 0.0
C767 C 0.12291 0.58849 0.08076 0.0
Fe768 Fe 0.53642 0.51746 0.979 0.0
O769 O 0.5787 0.54015 1.01269 0.0
Fe770 Fe 0.44745 0.52599 0.03887 0.0
Fe771 Fe 0.62975 0.5231 1.00564 0.0
O772 O 0.49836 0.50963 1.02665 0.0
O773 O 0.49838 0.50838 1.03001 0.0
O774 O 0.57868 0.53854 1.01589 0.0
Fe775 Fe 0.54053 0.53214 0.06354 0.0
C776 C 0.57493 0.44834 0.96902 0.0
O777 O 0.58215 0.52886 0.93291 0.0
O778 O 0.64109 0.55109 0.95913 0.0
O779 O 0.53384 0.58722 0.0635 0.0
O780 O 0.46755 0.57766 0.07504 0.0
O781 O 0.46095 0.55931 0.99637 0.0
O782 O 0.52746 0.57283 0.97965 0.0
O783 O 0.64481 0.57237 0.04704 0.0
O784 O 0.58876 0.56 0.09262 0.0
C785 C 0.49324 0.57944 0.98013 0.0
O786 O 0.49516 0.522 0.11001 0.0
O787 O 0.43665 0.49588 0.08404 0.0
O788 O 0.54379 0.46203 0.97628 0.0
O789 O 0.61031 0.47037 0.97027 0.0
C790 C 0.62019 0.54664 0.93212 0.0
C791 C 0.6253 0.57854 0.08115 0.0
C792 C 0.58355 0.47146 0.06548 0.0
O793 O 0.61587 0.49174 0.04955 0.0
O794 O 0.54931 0.47723 0.0647 0.0
C795 C 0.50258 0.60051 0.07097 0.0
O796 O 0.43172 0.47846 0.99677 0.0
O797 O 0.48712 0.49106 0.95026 0.0
C798 C 0.45822 0.50088 0.11065 0.0
C799 C 0.45012 0.47379 0.96215 0.0
Fe800 Fe 1.03353 0.48536 0.5222 0.0
O801 O 1.00719 0.52758 0.55416 0.0
Fe802 Fe 0.08109 0.5297 0.44326 0.0
Fe803 Fe 0.99565 0.53398 0.60944 0.0
O804 O 0.06833 0.53116 0.49806 0.0
O805 O 0.06832 0.53555 0.49837 0.0
O806 O 1.00717 0.53178 0.55449 0.0
Fe807 Fe 0.0406 0.5772 0.52929 0.0
C808 C 0.96062 0.44813 0.57954 0.0
O809 O 0.0744 0.49486 0.5593 0.0
O810 O 1.03162 0.49796 0.61297 0.0
O811 O 0.08102 0.61919 0.4979 0.0
O812 O 0.12228 0.5826 0.45664 0.0
O813 O 0.11349 0.4899 0.44736 0.0
O814 O 0.06746 0.44737 0.48387 0.0
O815 O 0.04294 0.58258 0.62112 0.0
O816 O 0.08188 0.59105 0.56587 0.0
C817 C 0.10008 0.45597 0.45935 0.0
O818 O 0.99982 0.56529 0.49172 0.0
O819 O 0.04442 0.56502 0.43923 0.0
O820 O 0.99188 0.44361 0.55398 0.0
O821 O 0.95362 0.48222 0.59661 0.0
C822 C 0.06571 0.49426 0.59471 0.0
C823 C 0.07656 0.59626 0.60177 0.0
C824 C 0.97438 0.60642 0.59223 0.0
O825 O 0.96299 0.57354 0.60597 0.0
O826 O 1.00598 0.61498 0.5667 0.0
C827 C 0.11371 0.61595 0.47421 0.0
O828 O 0.03494 0.48061 0.43116 0.0
O829 O 0.99253 0.47411 0.48491 0.0
C830 C 1.0094 0.56676 0.45649 0.0
C831 C 0.99962 0.46981 0.44891 0.0
Fe832 Fe 0.52943 0.97643 0.52628 0.0
O833 O 0.50741 1.02049 0.56046 0.0
Fe834 Fe 0.5631 1.016 0.44254 0.0
Fe835 Fe 0.50429 0.03037 0.61583 0.0
O836 O 0.56043 1.02002 0.49733 0.0
O837 O 0.56135 1.02453 0.49793 0.0
O838 O 0.5084 1.02483 0.56112 0.0
Fe839 Fe 0.53891 0.06819 0.5322 0.0
C840 C 0.46468 0.94311 0.59146 0.0
O841 O 0.57604 0.98669 0.55665 0.0
O842 O 0.54282 0.99555 0.61524 0.0
O843 O 0.57553 0.10769 0.49619 0.0
O844 O 0.60747 0.06726 0.44871 0.0
O845 O 0.59678 0.97547 0.44158 0.0
O846 O 0.55943 0.93655 0.48577 0.0
O847 O 0.5522 0.07971 0.62076 0.0
O848 O 0.58612 0.08292 0.56272 0.0
C849 C 0.58856 0.94422 0.45771 0.0
O850 O 0.49206 0.0561 0.50219 0.0
O851 O 0.52609 0.05379 0.44431 0.0
O852 O 0.49246 0.93701 0.56262 0.0
O853 O 0.46094 0.97794 0.60975 0.0
C854 C 0.57239 0.98639 0.59188 0.0
C855 C 0.58411 0.09181 0.59847 0.0
C856 C 0.47901 0.10066 0.59943 0.0
O857 O 0.46955 0.06906 0.61515 0.0
O858 O 0.50889 0.10803 0.57203 0.0
C859 C 0.60335 0.10176 0.46746 0.0
O860 O 0.51404 0.96825 0.43781 0.0
O861 O 0.48181 0.96322 0.49615 0.0
C862 C 0.49673 0.06225 0.46852 0.0
C863 C 0.48229 0.95697 0.46053 0.0
H864 H 0.1903 0.17109 0.31966 0.0
H865 H 0.2899 0.22322 0.3817 0.0
H866 H 0.2598 0.17917 0.42806 0.0
H867 H 0.20073 0.13041 0.45487 0.0
H868 H 0.10478 0.0748 0.38905 0.0
H869 H 0.1386 0.1142 0.33958 0.0
C870 C 0.20568 0.17278 0.34295 0.0
C871 C 0.24168 0.20166 0.34749 0.0
C872 C 0.18908 0.14603 0.36872 0.0
C873 C 0.26158 0.20214 0.37771 0.0
C874 C 0.2445 0.17669 0.40428 0.0
C875 C 0.18829 0.12564 0.4289 0.0
C876 C 0.1505 0.09943 0.42545 0.0
C877 C 0.20778 0.14895 0.40053 0.0
C878 C 0.13416 0.09435 0.39204 0.0
C879 C 0.15315 0.11738 0.36401 0.0
H880 H 0.82029 0.11673 0.44342 0.0
H881 H 0.90871 0.12681 0.34281 0.0
H882 H 0.95688 0.11234 0.3744 0.0
H883 H 0.97439 0.09633 0.42981 0.0
H884 H 0.88572 0.08056 0.529 0.0
H885 H 0.83661 0.09601 0.49794 0.0
C886 C 0.84981 0.11523 0.42796 0.0
C887 C 0.8605 0.1235 0.39052 0.0
C888 C 0.8773 0.10537 0.44592 0.0
C889 C 0.89947 0.12191 0.37177 0.0
C890 C 0.9271 0.11306 0.3897 0.0
C891 C 0.94429 0.09624 0.44478 0.0
C892 C 0.9339 0.08774 0.48193 0.0
C893 C 0.91638 0.10481 0.42669 0.0
C894 C 0.89453 0.08698 0.50046 0.0
C895 C 0.86656 0.09605 0.48273 0.0
H896 H 0.8473 0.8824 0.36364 0.0
H897 H 0.88786 0.77597 0.35807 0.0
H898 H 0.93215 0.81099 0.40454 0.0
H899 H 0.95588 0.87042 0.44991 0.0
H900 H 0.91905 0.97819 0.45242 0.0
H901 H 0.87685 0.944 0.40384 0.0
C902 C 0.86649 0.86705 0.37179 0.0
C903 C 0.86396 0.82648 0.3574 0.0
C904 C 0.89217 0.88744 0.39841 0.0
C905 C 0.88884 0.80708 0.36886 0.0
C906 C 0.91416 0.82705 0.39555 0.0
C907 C 0.93892 0.88655 0.43962 0.0
C908 C 0.94043 0.92672 0.45504 0.0
C909 C 0.91542 0.86698 0.4111 0.0
C910 C 0.91838 0.94721 0.44117 0.0
C911 C 0.89421 0.92768 0.41337 0.0
H912 H 0.07833 0.86938 0.28923 0.0
H913 H 1.02966 0.76437 0.34097 0.0
H914 H 1.01393 0.80549 0.40175 0.0
H915 H 1.02954 0.87043 0.44176 0.0
H916 H 0.0835 0.97582 0.39115 0.0
H917 H 0.08276 0.93538 0.32821 0.0
C918 C 0.06301 0.85559 0.31365 0.0
C919 C 0.0561 0.81418 0.31114 0.0
C920 C 0.05679 0.87947 0.34882 0.0
C921 C 0.03548 0.79625 0.34242 0.0
C922 C 1.02724 0.8198 0.37728 0.0
C923 C 0.04084 0.88466 0.41697 0.0
C924 C 0.05785 0.9258 0.42099 0.0
C925 C 0.04047 0.86132 0.38115 0.0
C926 C 0.07112 0.94402 0.3887 0.0
C927 C 0.0705 0.92097 0.35278 0.0
H928 H 0.17941 0.87735 0.63892 0.0
H929 H 0.13227 0.95851 0.73066 0.0
H930 H 0.12364 0.99702 0.68596 0.0
H931 H 0.11711 0.99968 0.62138 0.0
H932 H 0.15833 0.91601 0.52895 0.0
H933 H 0.18266 0.88697 0.57275 0.0
C934 C 0.16832 0.90411 0.64897 0.0
C935 C 0.15613 0.91497 0.68797 0.0
C936 C 0.16229 0.92554 0.62286 0.0
C937 C 0.14149 0.94947 0.70076 0.0
C938 C 0.13653 0.97146 0.67522 0.0
C939 C 0.13354 0.97662 0.61063 0.0
C940 C 0.13696 0.96072 0.57194 0.0
C941 C 0.14527 0.95885 0.63623 0.0
C942 C 0.15648 0.9295 0.55847 0.0
C943 C 0.16964 0.91241 0.58368 0.0
H944 H 0.20899 0.1596 0.70305 0.0
H945 H 0.19337 0.27297 0.69036 0.0
H946 H 0.15642 0.24094 0.63791 0.0
H947 H 0.13017 0.18117 0.59399 0.0
H948 H 0.14143 0.06709 0.60908 0.0
H949 H 0.17845 0.09894 0.66173 0.0
C950 C 0.19686 0.17724 0.68933 0.0
C951 C 0.20431 0.21877 0.70075 0.0
C952 C 0.17502 0.15852 0.65921 0.0
C953 C 0.18842 0.24102 0.68228 0.0
C954 C 0.16727 0.22272 0.65208 0.0
C955 C 0.14033 0.16313 0.60894 0.0
C956 C 0.13244 0.12158 0.59758 0.0
C957 C 0.16076 0.18156 0.63998 0.0
C958 C 0.14656 0.09901 0.61723 0.0
C959 C 0.16779 0.11723 0.64748 0.0
H960 H 1.00533 0.19411 0.75396 0.0
H961 H 0.06303 0.2882 0.68944 0.0
H962 H 0.08124 0.24011 0.63551 0.0
H963 H 0.05709 0.17361 0.60172 0.0
H964 H 0.99215 0.07838 0.66296 0.0
H965 H 0.99843 0.12441 0.72288 0.0
C966 C 1.02373 0.20403 0.72862 0.0
C967 C 1.02995 0.24396 0.72432 0.0
C968 C 1.03008 0.17581 0.69645 0.0
C969 C 0.05606 0.25727 0.69278 0.0
C970 C 0.0656 0.22963 0.66149 0.0
C971 C 0.0451 0.16264 0.62821 0.0
C972 C 1.0227 0.1233 0.62817 0.0
C973 C 0.0487 0.18907 0.66201 0.0
C974 C 1.0085 0.10899 0.6625 0.0
C975 C 1.01236 0.1352 0.69666 0.0
H976 H 0.80311 0.87079 0.69746 0.0
H977 H 0.9022 0.84592 0.73557 0.0
H978 H 0.94953 0.89227 0.69886 0.0
H979 H 0.96411 0.93385 0.65102 0.0
H980 H 0.86818 0.95329 0.60419 0.0
H981 H 0.81847 0.91599 0.64958 0.0
C982 C 0.83503 0.87593 0.69812 0.0
C983 C 0.84869 0.85516 0.72025 0.0
C984 C 0.86279 0.90155 0.67507 0.0
C985 C 0.8903 0.862 0.72012 0.0
C986 C 0.91767 0.88833 0.69863 0.0
C987 C 0.93229 0.93038 0.65083 0.0
C988 C 0.91993 0.94597 0.62386 0.0
C989 C 0.90434 0.90748 0.67544 0.0
C990 C 0.87859 0.94175 0.62467 0.0
C991 C 0.85021 0.91999 0.65035 0.0
H992 H 0.32903 0.17313 0.19889 0.0
H993 H 0.42974 0.27393 0.21223 0.0
H994 H 0.4746 0.23555 0.16998 0.0
H995 H 0.48567 0.17171 0.12925 0.0
H996 H 0.38235 0.07303 0.11626 0.0
H997 H 0.33886 0.11229 0.15694 0.0
C998 C 0.36065 0.18706 0.19225 0.0
C999 C 0.37559 0.22662 0.20876 0.0
C1000 C 0.38628 0.16497 0.16757 0.0
C1001 C 0.41707 0.24354 0.20013 0.0
C1002 C 0.44288 0.22157 0.17576 0.0
C1003 C 0.45367 0.15896 0.13517 0.0
C1004 C 0.43792 0.11889 0.11989 0.0
C1005 C 0.42794 0.18201 0.15925 0.0
C1006 C 0.39603 0.10327 0.128 0.0
C1007 C 0.37074 0.1258 0.15134 0.0
H1008 H 0.87513 0.3161 0.17664 0.0
H1009 H 0.83737 0.41595 0.24972 0.0
H1010 H 0.87695 0.45996 0.20579 0.0
H1011 H 0.92124 0.47009 0.14459 0.0
H1012 H 0.96071 0.36954 0.07392 0.0
H1013 H 0.92318 0.32675 0.11918 0.0
C1014 C 0.87622 0.3475 0.18347 0.0
C1015 C 0.8533 0.36222 0.21676 0.0
C1016 C 0.89976 0.37298 0.15832 0.0
C1017 C 0.85444 0.40327 0.22433 0.0
C1018 C 0.87731 0.42873 0.19919 0.0
C1019 C 0.92206 0.43899 0.13943 0.0
C1020 C 0.94343 0.42317 0.10544 0.0
C1021 C 0.90001 0.41395 0.16584 0.0
C1022 C 0.94404 0.38262 0.0994 0.0
C1023 C 0.92253 0.35792 0.12534 0.0
H1024 H 0.62096 0.86116 0.15506 0.0
H1025 H 0.74546 0.92344 0.13691 0.0
H1026 H 0.72766 0.97213 0.10832 0.0
H1027 H 0.67703 0.9934 0.08371 0.0
H1028 H 0.55206 0.93199 0.10452 0.0
H1029 H 0.56954 0.88699 0.13719 0.0
C1030 C 0.64401 0.88581 0.14533 0.0
C1031 C 0.68443 0.88879 0.14781 0.0
C1032 C 0.63348 0.91369 0.12923 0.0
C1033 C 0.71415 0.9208 0.13536 0.0
C1034 C 0.70398 0.94844 0.11885 0.0
C1035 C 0.65359 0.97048 0.09581 0.0
C1036 C 0.61335 0.96594 0.09124 0.0
C1037 C 0.66381 0.94469 0.1149 0.0
C1038 C 0.58329 0.93631 0.10752 0.0
C1039 C 0.59326 0.91034 0.1261 0.0
H1040 H 0.27512 0.68113 0.15998 0.0
H1041 H 0.18045 0.68731 0.25506 0.0
H1042 H 0.13165 0.64279 0.21719 0.0
H1043 H 0.1139 0.60791 0.15613 0.0
H1044 H 0.20542 0.60227 0.05872 0.0
H1045 H 0.25731 0.6396 0.09827 0.0
C1046 C 0.24393 0.67211 0.1724 0.0
C1047 C 0.23146 0.68804 0.21027 0.0
C1048 C 0.21535 0.64659 0.14999 0.0
C1049 C 0.1909 0.67606 0.22596 0.0
C1050 C 0.16285 0.65043 0.20432 0.0
C1051 C 0.14532 0.61423 0.14357 0.0
C1052 C 0.15572 0.60252 0.10449 0.0
C1053 C 0.17448 0.63644 0.16616 0.0
C1054 C 0.19659 0.61065 0.08877 0.0
C1055 C 0.22619 0.63242 0.11137 0.0
H1056 H 0.38131 0.80559 0.87231 0.0
H1057 H 0.32905 0.89401 0.84852 0.0
H1058 H 0.36909 0.94524 0.89022 0.0
H1059 H 0.41827 0.96548 0.93499 0.0
H1060 H 0.47756 0.87979 0.95223 0.0
H1061 H 0.43717 0.82762 0.91028 0.0
C1062 C 0.37893 0.83609 0.87575 0.0
C1063 C 0.35105 0.84524 0.85764 0.0
C1064 C 0.40412 0.86629 0.89812 0.0
C1065 C 0.34882 0.88526 0.86286 0.0
C1066 C 0.37231 0.91497 0.88637 0.0
C1067 C 0.42301 0.93556 0.9287 0.0
C1068 C 0.45119 0.92652 0.94619 0.0
C1069 C 0.39997 0.90588 0.90425 0.0
C1070 C 0.45667 0.88758 0.93839 0.0
C1071 C 0.43317 0.85767 0.91481 0.0
H1072 H 0.17693 0.31526 0.85741 0.0
H1073 H 0.2684 0.41471 0.82197 0.0
H1074 H 0.23253 0.46083 0.86553 0.0
H1075 H 0.17329 0.47326 0.91414 0.0
H1076 H 0.08483 0.37177 0.95011 0.0
H1077 H 0.122 0.32692 0.90774 0.0
C1078 C 0.18966 0.34693 0.85967 0.0
C1079 C 0.22572 0.36099 0.83627 0.0
C1080 C 0.16932 0.37339 0.88554 0.0
C1081 C 0.24062 0.40256 0.83913 0.0
C1082 C 0.22018 0.42915 0.86442 0.0
C1083 C 0.16259 0.44141 0.91309 0.0
C1084 C 0.12589 0.42619 0.93542 0.0
C1085 C 0.18429 0.41503 0.88793 0.0
C1086 C 0.11259 0.38458 0.9332 0.0
C1087 C 0.13383 0.35868 0.9088 0.0
H1088 H 0.71355 0.25976 0.90736 0.0
H1089 H 0.6934 0.16837 0.81013 0.0
H1090 H 0.64892 0.12278 0.85028 0.0
H1091 H 0.61935 0.10737 0.91312 0.0
H1092 H 0.63965 0.19678 1.01148 0.0
H1093 H 0.68008 0.24504 0.97107 0.0
C1094 C 0.6989 0.22999 0.89515 0.0
C1095 C 0.70659 0.21732 0.85602 0.0
C1096 C 0.6734 0.20377 0.91857 0.0
C1097 C 0.68811 0.17861 0.84028 0.0
C1098 C 0.66254 0.1526 0.86317 0.0
C1099 C 0.63181 0.13781 0.92553 0.0
C1100 C 0.62647 0.14891 0.96492 0.0
C1101 C 0.65533 0.16474 0.90229 0.0
C1102 C 0.6429 0.18805 0.98106 0.0
C1103 C 0.66639 0.21534 0.958 0.0
H1104 H 0.88744 0.64528 0.91203 0.0
H1105 H 0.96113 0.76 0.95075 0.0
H1106 H 1.00386 0.72837 0.97397 0.0
H1107 H 1.01462 0.66903 0.99067 0.0
H1108 H 0.93942 0.55381 0.95495 0.0
H1109 H 0.90334 0.58444 0.92275 0.0
C1110 C 0.91349 0.66309 0.92471 0.0
C1111 C 0.92132 0.70481 0.92976 0.0
C1112 C 0.93723 0.64465 0.93904 0.0
C1113 C 0.95474 0.72783 0.94662 0.0
C1114 C 0.97897 0.70976 0.96006 0.0
C1115 C 0.99066 0.65046 0.97547 0.0
C1116 C 0.97935 0.60924 0.97584 0.0
C1117 C 0.96962 0.66832 0.95763 0.0
C1118 C 0.94868 0.58564 0.95537 0.0
C1119 C 0.92786 0.60318 0.93708 0.0
H1120 H 0.12019 0.41866 0.20251 0.0
H1121 H 0.11268 0.30196 0.13547 0.0
H1122 H 0.08956 0.3232 0.08569 0.0
H1123 H 0.0718 0.37557 0.06089 0.0
H1124 H 0.08007 0.492 0.12924 0.0
H1125 H 0.10171 0.46991 0.17871 0.0
C1126 C 0.11312 0.39763 0.17721 0.0
C1127 C 0.1182 0.35869 0.17294 0.0
C1128 C 0.09977 0.41001 0.14878 0.0
C1129 C 0.10955 0.33225 0.13948 0.0
C1130 C 0.09605 0.34432 0.11105 0.0
C1131 C 0.07814 0.39604 0.08667 0.0
C1132 C 0.07431 0.43552 0.09099 0.0
C1133 C 0.0911 0.38323 0.11531 0.0
C1134 C 0.08285 0.46154 0.12473 0.0
C1135 C 0.09528 0.44895 0.15323 0.0
H1136 H 0.17739 0.66512 0.83249 0.0
H1137 H 0.26065 0.74176 0.90456 0.0
H1138 H 0.22405 0.70851 0.95785 0.0
H1139 H 0.16859 0.6572 0.9841 0.0
H1140 H 0.08931 0.57572 0.91092 0.0
H1141 H 0.12408 0.6107 0.85803 0.0
C1142 C 0.18742 0.67443 0.85991 0.0
C1143 C 0.22166 0.70595 0.86464 0.0
C1144 C 0.16703 0.65405 0.89018 0.0
C1145 C 0.23456 0.71749 0.90018 0.0
C1146 C 0.21359 0.6985 0.93067 0.0
C1147 C 0.15902 0.647 0.95652 0.0
C1148 C 0.12629 0.61387 0.95153 0.0
C1149 C 0.17989 0.66663 0.92601 0.0
C1150 C 0.11456 0.60087 0.91549 0.0
C1151 C 0.13432 0.62105 0.88529 0.0
H1152 H 0.44812 0.13854 0.86043 0.0
H1153 H 0.32505 0.11428 0.91563 0.0
H1154 H 0.34448 0.08715 0.96362 0.0
H1155 H 0.39621 0.06848 0.98915 0.0
H1156 H 0.51897 0.09201 0.93275 0.0
H1157 H 0.49946 0.12 0.88568 0.0
C1158 C 0.42533 0.12704 0.88272 0.0
C1159 C 0.38498 0.12842 0.88401 0.0
C1160 C 0.43662 0.11089 0.91 0.0
C1161 C 0.35634 0.11415 0.91389 0.0
C1162 C 0.36741 0.09824 0.94126 0.0
C1163 C 0.41876 0.07963 0.96654 0.0
C1164 C 0.45909 0.07778 0.96469 0.0
C1165 C 0.40743 0.09616 0.93947 0.0
C1166 C 0.48774 0.09275 0.93512 0.0
C1167 C 0.47664 0.10899 0.90813 0.0
H1168 H 0.78674 0.35871 0.90294 0.0
H1169 H 0.86702 0.39822 0.80556 0.0
H1170 H 0.91503 0.44062 0.84588 0.0
H1171 H 0.93928 0.45772 0.90723 0.0
H1172 H 0.86064 0.41901 1.00542 0.0
H1173 H 0.80712 0.38527 0.96685 0.0
C1174 C 0.81397 0.37789 0.89084 0.0
C1175 C 0.82337 0.37521 0.85124 0.0
C1176 C 0.84223 0.40173 0.91435 0.0
C1177 C 0.85913 0.39974 0.8359 0.0
C1178 C 0.88682 0.42375 0.85894 0.0
C1179 C 0.91003 0.44275 0.92029 0.0
C1180 C 0.90387 0.44073 0.95901 0.0
C1181 C 0.87953 0.42363 0.89795 0.0
C1182 C 0.86593 0.42118 0.97568 0.0
C1183 C 0.83541 0.40174 0.95355 0.0
H1184 H 0.74423 0.87886 0.85991 0.0
H1185 H 0.64038 0.78717 0.83115 0.0
H1186 H 0.59625 0.82474 0.87552 0.0
H1187 H 0.58683 0.8853 0.92291 0.0
H1188 H 0.6927 0.97435 0.952 0.0
H1189 H 0.7356 0.93577 0.90875 0.0
C1190 C 0.712 0.86669 0.8636 0.0
C1191 C 0.69599 0.83008 0.84188 0.0
C1192 C 0.68675 0.88806 0.88987 0.0
C1193 C 0.65387 0.81546 0.84693 0.0
C1194 C 0.62847 0.83686 0.87267 0.0
C1195 C 0.61924 0.89594 0.92006 0.0
C1196 C 0.63618 0.93319 0.94063 0.0
C1197 C 0.64447 0.87341 0.89443 0.0
C1198 C 0.67847 0.94628 0.93629 0.0
C1199 C 0.70329 0.92418 0.91144 0.0
H1200 H 0.82773 0.64445 0.23051 0.0
H1201 H 0.90165 0.75965 0.21171 0.0
H1202 H 0.94862 0.72817 0.1648 0.0
H1203 H 0.96896 0.66821 0.12837 0.0
H1204 H 0.89316 0.55245 0.14186 0.0
H1205 H 0.84669 0.58356 0.19097 0.0
C1206 C 0.85419 0.66265 0.21623 0.0
C1207 C 0.86096 0.70464 0.22486 0.0
C1208 C 0.88071 0.64412 0.18803 0.0
C1209 C 0.89536 0.7275 0.20567 0.0
C1210 C 0.92235 0.70943 0.17876 0.0
C1211 C 0.94226 0.64965 0.14202 0.0
C1212 C 0.93489 0.60786 0.13148 0.0
C1213 C 0.9153 0.66783 0.16955 0.0
C1214 C 0.89969 0.58456 0.14918 0.0
C1215 C 0.87318 0.60242 0.17745 0.0
H1216 H 0.36183 0.79234 0.1522 0.0
H1217 H 0.40492 0.87069 0.25011 0.0
H1218 H 0.44892 0.9172 0.21 0.0
H1219 H 0.46872 0.93881 0.14763 0.0
H1220 H 0.42769 0.85933 0.04939 0.0
H1221 H 0.38985 0.8093 0.08874 0.0
C1222 C 0.38161 0.81923 0.1645 0.0
C1223 C 0.37996 0.82851 0.20385 0.0
C1224 C 0.40714 0.84539 0.14118 0.0
C1225 C 0.40562 0.86319 0.21979 0.0
C1226 C 0.43068 0.88975 0.19689 0.0
C1227 C 0.45232 0.91004 0.13488 0.0
C1228 C 0.45074 0.90241 0.09592 0.0
C1229 C 0.43082 0.88164 0.15766 0.0
C1230 C 0.42943 0.86538 0.07936 0.0
C1231 C 0.40764 0.83703 0.10187 0.0
H1232 H 0.66939 0.2264 0.22296 0.0
H1233 H 0.77873 0.18736 0.17671 0.0
H1234 H 0.74424 0.13876 0.12882 0.0
H1235 H 0.68396 0.10822 0.09879 0.0
H1236 H 0.57356 0.14508 0.14472 0.0
H1237 H 0.60732 0.19298 0.19426 0.0
C1238 C 0.6858 0.2074 0.20233 0.0
C1239 C 0.72706 0.21118 0.20345 0.0
C1240 C 0.66544 0.1788 0.1749 0.0
C1241 C 0.74729 0.18559 0.17671 0.0
C1242 C 0.72748 0.15762 0.14922 0.0
C1243 C 0.66702 0.12654 0.1197 0.0
C1244 C 0.62611 0.123 0.11767 0.0
C1245 C 0.68668 0.15407 0.14792 0.0
C1246 C 0.60487 0.14683 0.14549 0.0
C1247 C 0.62434 0.1745 0.1737 0.0
H1248 H 0.74414 0.64788 0.82058 0.0
H1249 H 0.64031 0.69176 0.81953 0.0
H1250 H 0.59785 0.64141 0.8562 0.0
H1251 H 0.59192 0.58995 0.89479 0.0
H1252 H 0.69674 0.54881 0.89787 0.0
H1253 H 0.73698 0.59259 0.85382 0.0
C1254 C 0.71215 0.64623 0.82804 0.0
C1255 C 0.69553 0.67375 0.81753 0.0
C1256 C 0.68807 0.61765 0.84958 0.0
C1257 C 0.65393 0.6709 0.82715 0.0
C1258 C 0.62962 0.6422 0.84827 0.0
C1259 C 0.62324 0.58978 0.88488 0.0
C1260 C 0.64138 0.56626 0.89949 0.0
C1261 C 0.64653 0.616 0.86041 0.0
C1262 C 0.68222 0.56681 0.88704 0.0
C1263 C 0.70527 0.59196 0.86203 0.0
H1264 H 0.40512 0.64313 0.88452 0.0
H1265 H 0.46642 0.56959 0.79603 0.0
H1266 H 0.50855 0.56399 0.83978 0.0
H1267 H 0.51834 0.56931 0.90544 0.0
H1268 H 0.45286 0.63784 0.99477 0.0
H1269 H 0.42292 0.65728 0.94857 0.0
C1270 C 0.4285 0.62687 0.8746 0.0
C1271 C 0.43226 0.60629 0.83731 0.0
C1272 C 0.45183 0.62285 0.9002 0.0
C1273 C 0.4625 0.58508 0.82484 0.0
C1274 C 0.48663 0.58192 0.84981 0.0
C1275 C 0.49918 0.59017 0.9145 0.0
C1276 C 0.4882 0.60269 0.95324 0.0
C1277 C 0.48036 0.59925 0.88791 0.0
C1278 C 0.46207 0.6284 0.96497 0.0
C1279 C 0.44455 0.63901 0.93858 0.0
H1280 H 0.3432 0.39971 0.83481 0.0
H1281 H 0.38521 0.29641 0.83819 0.0
H1282 H 0.42297 0.33384 0.88929 0.0
H1283 H 0.44443 0.39654 0.93256 0.0
H1284 H 0.40303 0.49945 0.92778 0.0
H1285 H 0.36434 0.46154 0.87736 0.0
C1286 C 0.36083 0.3854 0.84652 0.0
C1287 C 0.36156 0.34546 0.83278 0.0
C1288 C 0.38234 0.407 0.87561 0.0
C1289 C 0.38404 0.32712 0.84852 0.0
C1290 C 0.40568 0.3485 0.87763 0.0
C1291 C 0.42684 0.41034 0.92031 0.0
C1292 C 0.42607 0.45026 0.93339 0.0
C1293 C 0.40504 0.38845 0.89134 0.0
C1294 C 0.40342 0.46845 0.91789 0.0
C1295 C 0.38157 0.44692 0.88915 0.0
H1296 H 0.5306 0.26675 0.90403 0.0
H1297 H 0.64634 0.27554 0.93347 0.0
H1298 H 0.64824 0.34249 0.96758 0.0
H1299 H 0.62381 0.40314 0.97633 0.0
H1300 H 0.51151 0.39644 0.93985 0.0
H1301 H 0.50164 0.32484 0.92047 0.0
C1302 C 0.55511 0.28269 0.91971 0.0
C1303 C 0.588 0.26613 0.91688 0.0
C1304 C 0.55753 0.32248 0.93624 0.0
C1305 C 0.6202 0.28718 0.93634 0.0
C1306 C 0.62178 0.32602 0.9549 0.0
C1307 C 0.5972 0.3859 0.96419 0.0
C1308 C 0.56898 0.40502 0.95858 0.0
C1309 C 0.59187 0.34476 0.95279 0.0
C1310 C 0.53397 0.38233 0.94392 0.0
C1311 C 0.52817 0.34137 0.93301 0.0
H1312 H 0.66524 0.39702 0.15875 0.0
H1313 H 0.65256 0.50423 0.23655 0.0
H1314 H 0.609 0.51692 0.19792 0.0
H1315 H 0.58188 0.50201 0.13831 0.0
H1316 H 0.60134 0.39959 0.05677 0.0
H1317 H 0.63329 0.37924 0.10114 0.0
C1318 C 0.6523 0.42274 0.16753 0.0
C1319 C 0.66227 0.44985 0.20024 0.0
C1320 C 0.62805 0.43028 0.14471 0.0
C1321 C 0.64573 0.48331 0.21117 0.0
C1322 C 0.62065 0.49041 0.18925 0.0
C1323 C 0.59165 0.47436 0.13104 0.0
C1324 C 0.58848 0.45163 0.09497 0.0
C1325 C 0.61242 0.46463 0.15554 0.0
C1326 C 0.60256 0.41675 0.08491 0.0
C1327 C 0.62142 0.4056 0.11 0.0
H1328 H 0.67518 0.70871 0.2194 0.0
H1329 H 0.77539 0.65396 0.19885 0.0
H1330 H 0.75088 0.61109 0.14239 0.0
H1331 H 0.69871 0.5872 0.10048 0.0
H1332 H 0.59385 0.63574 0.12763 0.0
H1333 H 0.62254 0.68379 0.17909 0.0
C1334 C 0.69162 0.68748 0.20234 0.0
C1335 C 0.72694 0.6843 0.21283 0.0
C1336 C 0.67665 0.66225 0.17083 0.0
C1337 C 0.74792 0.65648 0.19113 0.0
C1338 C 0.73404 0.6322 0.15884 0.0
C1339 C 0.68271 0.60885 0.11735 0.0
C1340 C 0.64498 0.60909 0.1097 0.0
C1341 C 0.69822 0.6346 0.14856 0.0
C1342 C 0.62357 0.63612 0.13239 0.0
C1343 C 0.6397 0.6632 0.1621 0.0
H1344 H 0.53984 0.77848 0.1375 0.0
H1345 H 0.41686 0.76154 0.12274 0.0
H1346 H 0.4194 0.70014 0.07953 0.0
H1347 H 0.44805 0.64146 0.06773 0.0
H1348 H 0.57107 0.65721 0.08309 0.0
H1349 H 0.57677 0.72792 0.10546 0.0
C1350 C 0.51449 0.76262 0.12288 0.0
C1351 C 0.47739 0.77273 0.13517 0.0
C1352 C 0.51526 0.72548 0.1006 0.0
C1353 C 0.44547 0.7536 0.11458 0.0
C1354 C 0.44645 0.71753 0.09076 0.0
C1355 C 0.47624 0.66052 0.07541 0.0
C1356 C 0.50797 0.64387 0.07692 0.0
C1357 C 0.47969 0.70135 0.08725 0.0
C1358 C 0.54522 0.66907 0.08447 0.0
C1359 C 0.54881 0.70966 0.09655 0.0
H1360 H 0.41227 0.38324 0.22853 0.0
H1361 H 0.29275 0.37984 0.21037 0.0
H1362 H 0.32055 0.42933 0.16895 0.0
H1363 H 0.37895 0.47119 0.13521 0.0
H1364 H 0.49827 0.47707 0.15567 0.0
H1365 H 0.47021 0.43015 0.1999 0.0
C1366 C 0.39214 0.39381 0.21627 0.0
C1367 C 0.35036 0.37759 0.22285 0.0
C1368 C 0.4083 0.42299 0.19291 0.0
C1369 C 0.325 0.39148 0.20592 0.0
C1370 C 0.34088 0.41993 0.18217 0.0
C1371 C 0.39882 0.46263 0.1497 0.0
C1372 C 0.44071 0.47762 0.14192 0.0
C1373 C 0.3825 0.43556 0.17511 0.0
C1374 C 0.46592 0.46634 0.16123 0.0
C1375 C 0.44991 0.43918 0.18632 0.0
H1376 H 0.89862 0.74508 0.69369 0.0
H1377 H 0.79379 0.64721 0.69742 0.0
H1378 H 0.83121 0.60382 0.65296 0.0
H1379 H 0.89436 0.59183 0.61604 0.0
H1380 H 1.00019 0.68802 0.61016 0.0
H1381 H 0.96184 0.73383 0.65151 0.0
C1382 C 0.88416 0.7142 0.68487 0.0
C1383 C 0.84345 0.69939 0.69946 0.0
C1384 C 0.90598 0.68909 0.65857 0.0
C1385 C 0.82499 0.65949 0.68699 0.0
C1386 C 0.84639 0.63455 0.66142 0.0
C1387 C 0.90899 0.62299 0.62328 0.0
C1388 C 0.95021 0.63636 0.61 0.0
C1389 C 0.88694 0.64883 0.64737 0.0
C1390 C 0.96847 0.67692 0.61956 0.0
C1391 C 0.9466 0.70302 0.64364 0.0
H1392 H 0.37904 0.79186 0.66863 0.0
H1393 H 0.31152 0.87533 0.73466 0.0
H1394 H 0.34491 0.92329 0.69293 0.0
H1395 H 0.39706 0.94416 0.64209 0.0
H1396 H 0.47041 0.86473 0.57869 0.0
H1397 H 0.43069 0.81238 0.61476 0.0
C1398 C 0.3717 0.82046 0.67393 0.0
C1399 C 0.34331 0.83009 0.70534 0.0
C1400 C 0.39213 0.8487 0.65034 0.0
C1401 C 0.33359 0.86718 0.71114 0.0
C1402 C 0.35267 0.89471 0.68723 0.0
C1403 C 0.40444 0.91537 0.63575 0.0
C1404 C 0.43716 0.90873 0.6079 0.0
C1405 C 0.38263 0.88617 0.6574 0.0
C1406 C 0.44547 0.87082 0.5999 0.0
C1407 C 0.42294 0.84096 0.62077 0.0
H1408 H 0.16328 0.47108 0.71244 0.0
H1409 H 0.23936 0.43281 0.61115 0.0
H1410 H 0.19558 0.44536 0.57248 0.0
H1411 H 0.13503 0.46749 0.56774 0.0
H1412 H 0.0615 0.50707 0.67073 0.0
H1413 H 0.10564 0.49485 0.7081 0.0
C1414 C 0.17081 0.46604 0.68191 0.0
C1415 C 0.20474 0.45123 0.66485 0.0
C1416 C 0.14595 0.47375 0.66 0.0
C1417 C 0.21321 0.44385 0.62514 0.0
C1418 C 0.18832 0.45129 0.60298 0.0
C1419 C 0.12884 0.47355 0.59833 0.0
C1420 C 0.09466 0.48782 0.61621 0.0
C1421 C 0.1545 0.46626 0.62012 0.0
C1422 C 0.08718 0.49558 0.65598 0.0
C1423 C 0.11247 0.48868 0.67756 0.0
H1424 H 0.72384 0.23244 0.65945 0.0
H1425 H 0.71283 0.15379 0.73846 0.0
H1426 H 0.66051 0.10489 0.70703 0.0
H1427 H 0.61546 0.08533 0.65859 0.0
H1428 H 0.63052 0.16042 0.57556 0.0
H1429 H 0.68365 0.20946 0.60653 0.0
C1430 C 0.71026 0.20439 0.66944 0.0
C1431 C 0.72219 0.1969 0.70136 0.0
C1432 C 0.68076 0.17573 0.6505 0.0
C1433 C 0.70448 0.16028 0.71385 0.0
C1434 C 0.67433 0.13231 0.69599 0.0
C1435 C 0.63065 0.11233 0.64718 0.0
C1436 C 0.61889 0.11945 0.61505 0.0
C1437 C 0.6619 0.13985 0.66454 0.0
C1438 C 0.63913 0.15426 0.6002 0.0
C1439 C 0.66938 0.18237 0.61802 0.0
H1440 H 0.88077 0.40222 0.32765 0.0
H1441 H 0.81408 0.33484 0.41462 0.0
H1442 H 0.86245 0.3715 0.45744 0.0
H1443 H 0.92736 0.41852 0.46802 0.0
H1444 H 0.99676 0.48145 0.3785 0.0
H1445 H 0.94421 0.45099 0.33906 0.0
C1446 C 0.87644 0.3964 0.35632 0.0
C1447 C 0.84394 0.3662 0.3682 0.0
C1448 C 0.90536 0.41638 0.38016 0.0
C1449 C 0.83895 0.35813 0.40505 0.0
C1450 C 0.8667 0.37891 0.42941 0.0
C1451 C 0.93078 0.42578 0.44002 0.0
C1452 C 0.96621 0.45197 0.42621 0.0
C1453 C 0.90066 0.40739 0.41696 0.0
C1454 C 0.97014 0.46095 0.38973 0.0
C1455 C 0.93995 0.4437 0.36714 0.0
H1456 H 0.73923 0.87244 0.38602 0.0
H1457 H 0.64753 0.77354 0.34409 0.0
H1458 H 0.59519 0.80621 0.38071 0.0
H1459 H 0.57519 0.86596 0.42145 0.0
H1460 H 0.66778 0.96524 0.46125 0.0
H1461 H 0.71942 0.92971 0.42935 0.0
C1462 C 0.70777 0.85801 0.38494 0.0
C1463 C 0.69751 0.82045 0.36226 0.0
C1464 C 0.6777 0.87721 0.40599 0.0
C1465 C 0.65648 0.80219 0.36152 0.0
C1466 C 0.62642 0.82101 0.38242 0.0
C1467 C 0.60658 0.87927 0.42389 0.0
C1468 C 0.61751 0.91811 0.44423 0.0
C1469 C 0.63656 0.85883 0.4045 0.0
C1470 C 0.65849 0.93529 0.44621 0.0
C1471 C 0.68814 0.91507 0.42769 0.0
H1472 H 0.25684 0.73387 0.3961 0.0
H1473 H 0.16107 0.74931 0.34626 0.0
H1474 H 0.11128 0.71176 0.3907 0.0
H1475 H 0.0958 0.66525 0.43646 0.0
H1476 H 0.19242 0.64489 0.48142 0.0
H1477 H 0.24099 0.69417 0.44706 0.0
C1478 C 0.22508 0.72913 0.39512 0.0
C1479 C 0.21272 0.74344 0.36737 0.0
C1480 C 0.1968 0.70647 0.41991 0.0
C1481 C 0.1714 0.73847 0.36729 0.0
C1482 C 0.14292 0.71672 0.39251 0.0
C1483 C 0.12739 0.67261 0.43948 0.0
C1484 C 0.14072 0.65199 0.46158 0.0
C1485 C 0.15533 0.69928 0.41794 0.0
C1486 C 0.18168 0.66079 0.46473 0.0
C1487 C 0.20943 0.68853 0.44474 0.0
H1488 H 0.38828 0.17827 0.46652 0.0
H1489 H 0.47797 0.20704 0.37068 0.0
H1490 H 0.50894 0.15452 0.37584 0.0
H1491 H 0.51348 0.1037 0.41022 0.0
H1492 H 0.42591 0.07722 0.50813 0.0
H1493 H 0.3912 0.12544 0.4994 0.0
C1494 C 0.41465 0.1731 0.4468 0.0
C1495 C 0.43082 0.19672 0.41835 0.0
C1496 C 0.43268 0.14318 0.45025 0.0
C1497 C 0.46461 0.1891 0.39262 0.0
C1498 C 0.48249 0.15917 0.39566 0.0
C1499 C 0.48636 0.10787 0.42925 0.0
C1500 C 0.47234 0.08679 0.45978 0.0
C1501 C 0.46708 0.13635 0.42463 0.0
C1502 C 0.4374 0.09302 0.4844 0.0
C1503 C 0.4176 0.12073 0.47953 0.0
H1504 H 0.63869 0.86095 0.63989 0.0
H1505 H 0.61841 0.93437 0.74859 0.0
H1506 H 0.60584 0.98412 0.71818 0.0
H1507 H 0.59141 1.00188 0.6621 0.0
H1508 H 0.61015 0.92809 0.55353 0.0
H1509 H 0.63471 0.8843 0.58233 0.0
C1510 C 0.63256 0.88827 0.6569 0.0
C1511 C 0.62861 0.89352 0.69656 0.0
C1512 C 0.6253 0.91673 0.63924 0.0
C1513 C 0.62046 0.92907 0.71812 0.0
C1514 C 0.61357 0.95767 0.70075 0.0
C1515 C 0.60181 0.97672 0.64461 0.0
C1516 C 0.59833 0.96771 0.60599 0.0
C1517 C 0.6145 0.95109 0.66152 0.0
C1518 C 0.6125 0.93555 0.58339 0.0
C1519 C 0.62604 0.91024 0.59994 0.0
H1520 H 0.73377 0.24509 0.40655 0.0
H1521 H 0.68532 0.18609 0.30412 0.0
H1522 H 0.63682 0.137 0.33814 0.0
H1523 H 0.60931 0.10994 0.39614 0.0
H1524 H 0.65395 0.16873 0.50016 0.0
H1525 H 0.70242 0.21963 0.46678 0.0
C1526 C 0.71273 0.22118 0.39188 0.0
C1527 C 0.71327 0.21856 0.35294 0.0
C1528 C 0.68411 0.19358 0.41192 0.0
C1529 C 0.68542 0.18831 0.33409 0.0
C1530 C 0.65768 0.16038 0.35349 0.0
C1531 C 0.62951 0.13415 0.41151 0.0
C1532 C 0.62857 0.13577 0.45025 0.0
C1533 C 0.65686 0.16271 0.39227 0.0
C1534 C 0.65427 0.16727 0.47025 0.0
C1535 C 0.68209 0.196 0.45111 0.0
H1536 H 0.91141 0.5856 0.33678 0.0
H1537 H 0.81906 0.59021 0.43383 0.0
H1538 H 0.86469 0.58282 0.47365 0.0
H1539 H 0.9314 0.5746 0.48048 0.0
H1540 H 1.02192 0.56937 0.38145 0.0
H1541 H 0.97612 0.57661 0.34302 0.0
C1542 C 0.90092 0.58439 0.36654 0.0
C1543 C 0.86176 0.58811 0.38216 0.0
C1544 C 0.92707 0.57997 0.38905 0.0
C1545 C 0.84917 0.58761 0.42106 0.0
C1546 C 0.87519 0.58321 0.44381 0.0
C1547 C 0.94107 0.57514 0.45053 0.0
C1548 C 0.9803 0.57167 0.43417 0.0
C1549 C 0.91434 0.57938 0.4281 0.0
C1550 C 0.99215 0.57223 0.39516 0.0
C1551 C 0.96592 0.57631 0.37293 0.0
H1552 H 0.32979 0.83475 0.40119 0.0
H1553 H 0.36797 0.90229 0.30993 0.0
H1554 H 0.4195 0.94907 0.34432 0.0
H1555 H 0.45937 0.96543 0.39651 0.0
H1556 H 0.42179 0.89808 0.48817 0.0
H1557 H 0.3647 0.85641 0.45759 0.0
C1558 C 0.34869 0.86044 0.38949 0.0
C1559 C 0.34502 0.86537 0.35325 0.0
C1560 C 0.37902 0.8866 0.40912 0.0
C1561 C 0.36984 0.8984 0.33805 0.0
C1562 C 0.39968 0.92478 0.3575 0.0
C1563 C 0.43847 0.94183 0.40996 0.0
C1564 C 0.44525 0.93443 0.44427 0.0
C1565 C 0.40553 0.91831 0.3924 0.0
C1566 C 0.41742 0.90428 0.4617 0.0
C1567 C 0.38478 0.88041 0.44419 0.0
H1568 H 0.16915 0.31043 0.36157 0.0
H1569 H 0.27673 0.40496 0.35326 0.0
H1570 H 0.2413 0.4516 0.39498 0.0
H1571 H 0.17961 0.46722 0.43193 0.0
H1572 H 0.07126 0.37449 0.44308 0.0
H1573 H 0.10698 0.32585 0.403 0.0
C1574 C 0.18471 0.34125 0.36884 0.0
C1575 C 0.22572 0.35394 0.35383 0.0
C1576 C 0.16403 0.36842 0.39368 0.0
C1577 C 0.24537 0.39401 0.36416 0.0
C1578 C 0.22508 0.42093 0.38815 0.0
C1579 C 0.16377 0.43627 0.42603 0.0
C1580 C 0.12264 0.42474 0.44063 0.0
C1581 C 0.18443 0.40863 0.40289 0.0
C1582 C 0.10293 0.38433 0.43269 0.0
C1583 C 0.12333 0.35653 0.40937 0.0
H1584 H 0.40135 0.24511 0.6808 0.0
H1585 H 0.30172 0.14769 0.70814 0.0
H1586 H 0.33963 0.10034 0.67131 0.0
H1587 H 0.40156 0.08604 0.63345 0.0
H1588 H 0.50065 0.18216 0.60261 0.0
H1589 H 0.46174 0.2305 0.63723 0.0
C1590 C 0.38748 0.2136 0.67799 0.0
C1591 C 0.34845 0.20027 0.69738 0.0
C1592 C 0.4093 0.18621 0.65592 0.0
C1593 C 0.33163 0.15909 0.69392 0.0
C1594 C 0.35329 0.13185 0.6727 0.0
C1595 C 0.4147 0.11758 0.63402 0.0
C1596 C 0.45426 0.13038 0.61573 0.0
C1597 C 0.39224 0.14503 0.65393 0.0
C1598 C 0.47034 0.17138 0.61633 0.0
C1599 C 0.44816 0.19904 0.63639 0.0
H1600 H 0.88399 0.31735 0.68234 0.0
H1601 H 0.79144 0.38328 0.70777 0.0
H1602 H 0.82517 0.42157 0.65798 0.0
H1603 H 0.88315 0.44054 0.61104 0.0
H1604 H 0.9792 0.3796 0.58745 0.0
H1605 H 0.94126 0.33424 0.63145 0.0
C1606 C 0.87123 0.3401 0.67697 0.0
C1607 C 0.83503 0.34724 0.69894 0.0
C1608 C 0.89117 0.36261 0.64821 0.0
C1609 C 0.81888 0.37668 0.69127 0.0
C1610 C 0.83821 0.39874 0.66273 0.0
C1611 C 0.89551 0.4168 0.61488 0.0
C1612 C 0.93405 0.41362 0.59609 0.0
C1613 C 0.87452 0.39231 0.64139 0.0
C1614 C 0.94944 0.3825 0.60119 0.0
C1615 C 0.92802 0.357 0.62689 0.0
H1616 H 0.22546 0.7183 0.66712 0.0
H1617 H 0.19385 0.6412 0.75072 0.0
H1618 H 0.13867 0.59888 0.7178 0.0
H1619 H 0.09733 0.58576 0.66653 0.0
H1620 H 0.13253 0.66071 0.58081 0.0
H1621 H 0.18808 0.70203 0.61328 0.0
C1622 C 0.20672 0.69196 0.67785 0.0
C1623 C 0.21357 0.6829 0.71131 0.0
C1624 C 0.17537 0.66769 0.65863 0.0
C1625 C 0.18934 0.64857 0.72483 0.0
C1626 C 0.15756 0.62461 0.7062 0.0
C1627 C 0.1172 0.61116 0.65506 0.0
C1628 C 0.11051 0.62048 0.62158 0.0
C1629 C 0.1499 0.63421 0.67336 0.0
C1630 C 0.13694 0.65302 0.6066 0.0
C1631 C 0.16872 0.67666 0.62515 0.0
loop_
_geom_bond_atom_site_label_1
_geom_bond_atom_site_label_2
_geom_bond_distance
_geom_bond_site_symmetry_2
_ccdc_geom_bond_type
Eu0 N29 2.600 . S
Eu0 N35 2.562 . S
Eu0 O44 2.462 . S
Eu0 O45 2.373 . S
Eu0 O47 2.432 . S
Eu0 O48 2.291 . S
Eu0 O52 2.335 . S
Eu0 O55 2.372 . S
Eu0 C64 2.787 . S
C1 N2 1.365 . S
C1 C4 1.405 . S
C1 C8 1.448 . S
N2 C1 1.365 . S
N2 C5 1.319 . S
N2 Eu11 2.600 . S
C3 C5 1.397 . S
C3 C6 1.367 . S
C3 H23 0.931 . S
C4 C1 1.405 . S
C4 C6 1.403 . S
C4 C10 1.439 . S
C5 N2 1.319 . S
C5 C3 1.397 . S
C5 H16 0.930 . S
C6 C3 1.367 . S
C6 C4 1.403 . S
C6 H27 0.929 . S
C7 C8 1.430 . S
C7 C9 1.387 . S
C7 C13 1.404 . S
C8 C1 1.448 . S
C8 C7 1.430 . S
C8 N12 1.351 . S
C9 C7 1.387 . S
C9 C10 1.374 . S
C9 H24 0.931 . S
C10 C4 1.439 . S
C10 C9 1.374 . S
C10 H25 0.931 . S
Eu11 N2 2.600 . S
Eu11 N12 2.562 . S
Eu11 O46 2.335 . S
Eu11 O49 2.372 . S
Eu11 O50 2.462 . S
Eu11 O51 2.373 . S
Eu11 O53 2.432 . S
Eu11 O54 2.291 . S
Eu11 C75 2.787 . S
N12 C8 1.351 . S
N12 Eu11 2.562 . S
N12 C14 1.325 . S
C13 C7 1.404 . S
C13 C15 1.366 . S
C13 H21 0.930 . S
C14 N12 1.325 . S
C14 C15 1.416 . S
C14 H20 0.929 . S
C15 C13 1.366 . S
C15 C14 1.416 . S
C15 H17 0.930 . S
H16 C5 0.930 . S
H17 C15 0.930 . S
H18 C33 0.930 . S
H19 C40 0.930 . S
H20 C14 0.929 . S
H21 C13 0.930 . S
H22 C36 0.929 . S
H23 C3 0.931 . S
H24 C9 0.931 . S
H25 C10 0.931 . S
H26 C31 0.931 . S
H27 C6 0.929 . S
H28 C39 0.930 . S
N29 Eu0 2.600 . S
N29 C30 1.365 . S
N29 C33 1.319 . S
C30 N29 1.365 . S
C30 C32 1.405 . S
C30 C38 1.448 . S
C31 H26 0.931 . S
C31 C33 1.397 . S
C31 C34 1.367 . S
C32 C30 1.405 . S
C32 C34 1.403 . S
C32 C65 1.439 . S
C33 H18 0.930 . S
C33 N29 1.319 . S
C33 C31 1.397 . S
C34 C31 1.367 . S
C34 C32 1.403 . S
C34 H41 0.929 . S
N35 Eu0 2.562 . S
N35 C36 1.325 . S
N35 C38 1.351 . S
C36 H22 0.929 . S
C36 N35 1.325 . S
C36 C40 1.416 . S
C37 C38 1.430 . S
C37 C39 1.404 . S
C37 C66 1.387 . S
C38 C30 1.448 . S
C38 N35 1.351 . S
C38 C37 1.430 . S
C39 H28 0.930 . S
C39 C37 1.404 . S
C39 C40 1.366 . S
C40 H19 0.930 . S
C40 C36 1.416 . S
C40 C39 1.366 . S
H41 C34 0.929 . S
H42 C65 0.931 . S
H43 C66 0.931 . S
O44 Eu0 2.462 . S
O44 C64 1.252 . S
O45 Eu0 2.373 . S
O45 C56 1.249 . S
O46 Eu11 2.335 . S
O46 C56 1.264 . S
O47 Eu0 2.432 . S
O47 C64 1.268 . S
O48 Eu0 2.291 . S
O48 C63 1.255 . S
O49 Eu11 2.372 . S
O49 C63 1.257 . S
O50 Eu11 2.462 . S
O50 C75 1.252 . S
O51 Eu11 2.373 . S
O51 C67 1.249 . S
O52 Eu0 2.335 . S
O52 C67 1.264 . S
O53 Eu11 2.432 . S
O53 C75 1.268 . S
O54 Eu11 2.291 . S
O54 C74 1.255 . S
O55 Eu0 2.372 . S
O55 C74 1.257 . S
C56 O45 1.249 . S
C56 O46 1.264 . S
C57 C60 1.382 . S
C57 C62 1.390 . S
C57 C64 1.506 . S
C58 C59 1.398 . S
C58 C62 1.392 . S
C59 C58 1.398 . S
C59 C61 1.372 . S
C59 H76 0.931 . S
C60 C57 1.382 . S
C60 C61 1.390 . S
C60 H77 0.931 . S
C61 C59 1.372 . S
C61 C60 1.390 . S
C61 H78 0.929 . S
C62 C57 1.390 . S
C62 C58 1.392 . S
C62 H79 0.930 . S
C63 O48 1.255 . S
C63 O49 1.257 . S
C64 Eu0 2.787 . S
C64 O44 1.252 . S
C64 O47 1.268 . S
C64 C57 1.506 . S
C65 C32 1.439 . S
C65 H42 0.931 . S
C65 C66 1.374 . S
C66 C37 1.387 . S
C66 H43 0.931 . S
C66 C65 1.374 . S
C67 O51 1.249 . S
C67 O52 1.264 . S
C68 C71 1.382 . S
C68 C72 1.390 . S
C68 C75 1.506 . S
C69 C70 1.398 . S
C69 C72 1.392 . S
C70 C69 1.398 . S
C70 C73 1.372 . S
C70 H80 0.931 . S
C71 C68 1.382 . S
C71 C73 1.390 . S
C71 H81 0.931 . S
C72 C68 1.390 . S
C72 C69 1.392 . S
C72 H82 0.930 . S
C73 C70 1.372 . S
C73 C71 1.390 . S
C73 H83 0.929 . S
C74 O54 1.255 . S
C74 O55 1.257 . S
C75 Eu11 2.787 . S
C75 O50 1.252 . S
C75 O53 1.268 . S
C75 C68 1.506 . S
H76 C59 0.931 . S
H77 C60 0.931 . S
H78 C61 0.929 . S
H79 C62 0.930 . S
H80 C70 0.931 . S
H81 C71 0.931 . S
H82 C72 0.930 . S
H83 C73 0.929 . S
Eu84 N113 2.600 . S
Eu84 N119 2.562 . S
Eu84 O128 2.462 . S
Eu84 O129 2.373 . S
Eu84 O131 2.432 . S
Eu84 O132 2.291 . S
Eu84 O136 2.335 . S
Eu84 O139 2.372 . S
Eu84 C148 2.787 . S
C85 N86 1.365 . S
C85 C88 1.405 . S
C85 C92 1.448 . S
N86 C85 1.365 . S
N86 C89 1.319 . S
N86 Eu95 2.600 . S
C87 C89 1.397 . S
C87 C90 1.367 . S
C87 H107 0.931 . S
C88 C85 1.405 . S
C88 C90 1.403 . S
C88 C94 1.439 . S
C89 N86 1.319 . S
C89 C87 1.397 . S
C89 H100 0.930 . S
C90 C87 1.367 . S
C90 C88 1.403 . S
C90 H111 0.929 . S
C91 C92 1.430 . S
C91 C93 1.387 . S
C91 C97 1.404 . S
C92 C85 1.448 . S
C92 C91 1.430 . S
C92 N96 1.351 . S
C93 C91 1.387 . S
C93 C94 1.374 . S
C93 H108 0.931 . S
C94 C88 1.439 . S
C94 C93 1.374 . S
C94 H109 0.931 . S
Eu95 N86 2.600 . S
Eu95 N96 2.562 . S
Eu95 O130 2.335 . S
Eu95 O133 2.372 . S
Eu95 O134 2.462 . S
Eu95 O135 2.373 . S
Eu95 O137 2.432 . S
Eu95 O138 2.291 . S
Eu95 C159 2.787 . S
N96 C92 1.351 . S
N96 Eu95 2.562 . S
N96 C98 1.325 . S
C97 C91 1.404 . S
C97 C99 1.366 . S
C97 H105 0.930 . S
C98 N96 1.325 . S
C98 C99 1.416 . S
C98 H104 0.929 . S
C99 C97 1.366 . S
C99 C98 1.416 . S
C99 H101 0.930 . S
H100 C89 0.930 . S
H101 C99 0.930 . S
H102 C117 0.930 . S
H103 C124 0.930 . S
H104 C98 0.929 . S
H105 C97 0.930 . S
H106 C120 0.929 . S
H107 C87 0.931 . S
H108 C93 0.931 . S
H109 C94 0.931 . S
H110 C115 0.931 . S
H111 C90 0.929 . S
H112 C123 0.930 . S
N113 Eu84 2.600 . S
N113 C114 1.365 . S
N113 C117 1.319 . S
C114 N113 1.365 . S
C114 C116 1.405 . S
C114 C122 1.448 . S
C115 H110 0.931 . S
C115 C117 1.397 . S
C115 C118 1.367 . S
C116 C114 1.405 . S
C116 C118 1.403 . S
C116 C149 1.439 . S
C117 H102 0.930 . S
C117 N113 1.319 . S
C117 C115 1.397 . S
C118 C115 1.367 . S
C118 C116 1.403 . S
C118 H125 0.929 . S
N119 Eu84 2.562 . S
N119 C120 1.325 . S
N119 C122 1.351 . S
C120 H106 0.929 . S
C120 N119 1.325 . S
C120 C124 1.416 . S
C121 C122 1.430 . S
C121 C123 1.404 . S
C121 C150 1.387 . S
C122 C114 1.448 . S
C122 N119 1.351 . S
C122 C121 1.430 . S
C123 H112 0.930 . S
C123 C121 1.404 . S
C123 C124 1.366 . S
C124 H103 0.930 . S
C124 C120 1.416 . S
C124 C123 1.366 . S
H125 C118 0.929 . S
H126 C149 0.931 . S
H127 C150 0.931 . S
O128 Eu84 2.462 . S
O128 C148 1.252 . S
O129 Eu84 2.373 . S
O129 C140 1.249 . S
O130 Eu95 2.335 . S
O130 C140 1.264 . S
O131 Eu84 2.432 . S
O131 C148 1.268 . S
O132 Eu84 2.291 . S
O132 C147 1.255 . S
O133 Eu95 2.372 . S
O133 C147 1.257 . S
O134 Eu95 2.462 . S
O134 C159 1.252 . S
O135 Eu95 2.373 . S
O135 C151 1.249 . S
O136 Eu84 2.335 . S
O136 C151 1.264 . S
O137 Eu95 2.432 . S
O137 C159 1.268 . S
O138 Eu95 2.291 . S
O138 C158 1.255 . S
O139 Eu84 2.372 . S
O139 C158 1.257 . S
C140 O129 1.249 . S
C140 O130 1.264 . S
C141 C144 1.382 . S
C141 C146 1.390 . S
C141 C148 1.506 . S
C142 C143 1.398 . S
C142 C146 1.392 . S
C143 C142 1.398 . S
C143 C145 1.372 . S
C143 H160 0.931 . S
C144 C141 1.382 . S
C144 C145 1.390 . S
C144 H161 0.931 . S
C145 C143 1.372 . S
C145 C144 1.390 . S
C145 H162 0.929 . S
C146 C141 1.390 . S
C146 C142 1.392 . S
C146 H163 0.930 . S
C147 O132 1.255 . S
C147 O133 1.257 . S
C148 Eu84 2.787 . S
C148 O128 1.252 . S
C148 O131 1.268 . S
C148 C141 1.506 . S
C149 C116 1.439 . S
C149 H126 0.931 . S
C149 C150 1.374 . S
C150 C121 1.387 . S
C150 H127 0.931 . S
C150 C149 1.374 . S
C151 O135 1.249 . S
C151 O136 1.264 . S
C152 C155 1.382 . S
C152 C156 1.390 . S
C152 C159 1.506 . S
C153 C154 1.398 . S
C153 C156 1.392 . S
C154 C153 1.398 . S
C154 C157 1.372 . S
C154 H164 0.931 . S
C155 C152 1.382 . S
C155 C157 1.390 . S
C155 H165 0.931 . S
C156 C152 1.390 . S
C156 C153 1.392 . S
C156 H166 0.930 . S
C157 C154 1.372 . S
C157 C155 1.390 . S
C157 H167 0.929 . S
C158 O138 1.255 . S
C158 O139 1.257 . S
C159 Eu95 2.787 . S
C159 O134 1.252 . S
C159 O137 1.268 . S
C159 C152 1.506 . S
H160 C143 0.931 . S
H161 C144 0.931 . S
H162 C145 0.929 . S
H163 C146 0.930 . S
H164 C154 0.931 . S
H165 C155 0.931 . S
H166 C156 0.930 . S
H167 C157 0.929 . S
Eu168 N197 2.600 . S
Eu168 N203 2.562 . S
Eu168 O212 2.462 . S
Eu168 O213 2.373 . S
Eu168 O215 2.432 . S
Eu168 O216 2.291 . S
Eu168 O220 2.335 . S
Eu168 O223 2.372 . S
Eu168 C232 2.787 . S
C169 N170 1.365 . S
C169 C172 1.405 . S
C169 C176 1.448 . S
N170 C169 1.365 . S
N170 C173 1.319 . S
N170 Eu179 2.600 . S
C171 C173 1.397 . S
C171 C174 1.367 . S
C171 H191 0.931 . S
C172 C169 1.405 . S
C172 C174 1.403 . S
C172 C178 1.439 . S
C173 N170 1.319 . S
C173 C171 1.397 . S
C173 H184 0.930 . S
C174 C171 1.367 . S
C174 C172 1.403 . S
C174 H195 0.929 . S
C175 C176 1.430 . S
C175 C177 1.387 . S
C175 C181 1.404 . S
C176 C169 1.448 . S
C176 C175 1.430 . S
C176 N180 1.351 . S
C177 C175 1.387 . S
C177 C178 1.374 . S
C177 H192 0.931 . S
C178 C172 1.439 . S
C178 C177 1.374 . S
C178 H193 0.931 . S
Eu179 N170 2.600 . S
Eu179 N180 2.562 . S
Eu179 O214 2.335 . S
Eu179 O217 2.372 . S
Eu179 O218 2.462 . S
Eu179 O219 2.373 . S
Eu179 O221 2.432 . S
Eu179 O222 2.291 . S
Eu179 C243 2.787 . S
N180 C176 1.351 . S
N180 Eu179 2.562 . S
N180 C182 1.325 . S
C181 C175 1.404 . S
C181 C183 1.366 . S
C181 H189 0.930 . S
C182 N180 1.325 . S
C182 C183 1.416 . S
C182 H188 0.929 . S
C183 C181 1.366 . S
C183 C182 1.416 . S
C183 H185 0.930 . S
H184 C173 0.930 . S
H185 C183 0.930 . S
H186 C201 0.930 . S
H187 C208 0.930 . S
H188 C182 0.929 . S
H189 C181 0.930 . S
H190 C204 0.929 . S
H191 C171 0.931 . S
H192 C177 0.931 . S
H193 C178 0.931 . S
H194 C199 0.931 . S
H195 C174 0.929 . S
H196 C207 0.930 . S
N197 Eu168 2.600 . S
N197 C198 1.365 . S
N197 C201 1.319 . S
C198 N197 1.365 . S
C198 C200 1.405 . S
C198 C206 1.448 . S
C199 H194 0.931 . S
C199 C201 1.397 . S
C199 C202 1.367 . S
C200 C198 1.405 . S
C200 C202 1.403 . S
C200 C233 1.439 . S
C201 H186 0.930 . S
C201 N197 1.319 . S
C201 C199 1.397 . S
C202 C199 1.367 . S
C202 C200 1.403 . S
C202 H209 0.929 . S
N203 Eu168 2.562 . S
N203 C204 1.325 . S
N203 C206 1.351 . S
C204 H190 0.929 . S
C204 N203 1.325 . S
C204 C208 1.416 . S
C205 C206 1.430 . S
C205 C207 1.404 . S
C205 C234 1.387 . S
C206 C198 1.448 . S
C206 N203 1.351 . S
C206 C205 1.430 . S
C207 H196 0.930 . S
C207 C205 1.404 . S
C207 C208 1.366 . S
C208 H187 0.930 . S
C208 C204 1.416 . S
C208 C207 1.366 . S
H209 C202 0.929 . S
H210 C233 0.931 . S
H211 C234 0.931 . S
O212 Eu168 2.462 . S
O212 C232 1.252 . S
O213 Eu168 2.373 . S
O213 C224 1.249 . S
O214 Eu179 2.335 . S
O214 C224 1.264 . S
O215 Eu168 2.432 . S
O215 C232 1.268 . S
O216 Eu168 2.291 . S
O216 C231 1.255 . S
O217 Eu179 2.372 . S
O217 C231 1.257 . S
O218 Eu179 2.462 . S
O218 C243 1.252 . S
O219 Eu179 2.373 . S
O219 C235 1.249 . S
O220 Eu168 2.335 . S
O220 C235 1.264 . S
O221 Eu179 2.432 . S
O221 C243 1.268 . S
O222 Eu179 2.291 . S
O222 C242 1.255 . S
O223 Eu168 2.372 . S
O223 C242 1.257 . S
C224 O213 1.249 . S
C224 O214 1.264 . S
C225 C228 1.382 . S
C225 C230 1.390 . S
C225 C232 1.506 . S
C226 C227 1.398 . S
C226 C230 1.392 . S
C227 C226 1.398 . S
C227 C229 1.372 . S
C227 H244 0.931 . S
C228 C225 1.382 . S
C228 C229 1.390 . S
C228 H245 0.931 . S
C229 C227 1.372 . S
C229 C228 1.390 . S
C229 H246 0.929 . S
C230 C225 1.390 . S
C230 C226 1.392 . S
C230 H247 0.930 . S
C231 O216 1.255 . S
C231 O217 1.257 . S
C232 Eu168 2.787 . S
C232 O212 1.252 . S
C232 O215 1.268 . S
C232 C225 1.506 . S
C233 C200 1.439 . S
C233 H210 0.931 . S
C233 C234 1.374 . S
C234 C205 1.387 . S
C234 H211 0.931 . S
C234 C233 1.374 . S
C235 O219 1.249 . S
C235 O220 1.264 . S
C236 C239 1.382 . S
C236 C240 1.390 . S
C236 C243 1.506 . S
C237 C238 1.398 . S
C237 C240 1.392 . S
C238 C237 1.398 . S
C238 C241 1.372 . S
C238 H248 0.931 . S
C239 C236 1.382 . S
C239 C241 1.390 . S
C239 H249 0.931 . S
C240 C236 1.390 . S
C240 C237 1.392 . S
C240 H250 0.930 . S
C241 C238 1.372 . S
C241 C239 1.390 . S
C241 H251 0.929 . S
C242 O222 1.255 . S
C242 O223 1.257 . S
C243 Eu179 2.787 . S
C243 O218 1.252 . S
C243 O221 1.268 . S
C243 C236 1.506 . S
H244 C227 0.931 . S
H245 C228 0.931 . S
H246 C229 0.929 . S
H247 C230 0.930 . S
H248 C238 0.931 . S
H249 C239 0.931 . S
H250 C240 0.930 . S
H251 C241 0.929 . S
Eu252 N281 2.600 . S
Eu252 N287 2.562 . S
Eu252 O296 2.462 . S
Eu252 O297 2.373 . S
Eu252 O299 2.432 . S
Eu252 O300 2.291 . S
Eu252 O304 2.335 . S
Eu252 O307 2.372 . S
Eu252 C316 2.787 . S
C253 N254 1.365 . S
C253 C256 1.405 . S
C253 C260 1.448 . S
N254 C253 1.365 . S
N254 C257 1.319 . S
N254 Eu263 2.600 . S
C255 C257 1.397 . S
C255 C258 1.367 . S
C255 H275 0.931 . S
C256 C253 1.405 . S
C256 C258 1.403 . S
C256 C262 1.439 . S
C257 N254 1.319 . S
C257 C255 1.397 . S
C257 H268 0.930 . S
C258 C255 1.367 . S
C258 C256 1.403 . S
C258 H279 0.929 . S
C259 C260 1.430 . S
C259 C261 1.387 . S
C259 C265 1.404 . S
C260 C253 1.448 . S
C260 C259 1.430 . S
C260 N264 1.351 . S
C261 C259 1.387 . S
C261 C262 1.374 . S
C261 H276 0.931 . S
C262 C256 1.439 . S
C262 C261 1.374 . S
C262 H277 0.931 . S
Eu263 N254 2.600 . S
Eu263 N264 2.562 . S
Eu263 O298 2.335 . S
Eu263 O301 2.372 . S
Eu263 O302 2.462 . S
Eu263 O303 2.373 . S
Eu263 O305 2.432 . S
Eu263 O306 2.291 . S
Eu263 C327 2.787 . S
N264 C260 1.351 . S
N264 Eu263 2.562 . S
N264 C266 1.325 . S
C265 C259 1.404 . S
C265 C267 1.366 . S
C265 H273 0.930 . S
C266 N264 1.325 . S
C266 C267 1.416 . S
C266 H272 0.929 . S
C267 C265 1.366 . S
C267 C266 1.416 . S
C267 H269 0.930 . S
H268 C257 0.930 . S
H269 C267 0.930 . S
H270 C285 0.930 . S
H271 C292 0.930 . S
H272 C266 0.929 . S
H273 C265 0.930 . S
H274 C288 0.929 . S
H275 C255 0.931 . S
H276 C261 0.931 . S
H277 C262 0.931 . S
H278 C283 0.931 . S
H279 C258 0.929 . S
H280 C291 0.930 . S
N281 Eu252 2.600 . S
N281 C282 1.365 . S
N281 C285 1.319 . S
C282 N281 1.365 . S
C282 C284 1.405 . S
C282 C290 1.448 . S
C283 H278 0.931 . S
C283 C285 1.397 . S
C283 C286 1.367 . S
C284 C282 1.405 . S
C284 C286 1.403 . S
C284 C317 1.439 . S
C285 H270 0.930 . S
C285 N281 1.319 . S
C285 C283 1.397 . S
C286 C283 1.367 . S
C286 C284 1.403 . S
C286 H293 0.929 . S
N287 Eu252 2.562 . S
N287 C288 1.325 . S
N287 C290 1.351 . S
C288 H274 0.929 . S
C288 N287 1.325 . S
C288 C292 1.416 . S
C289 C290 1.430 . S
C289 C291 1.404 . S
C289 C318 1.387 . S
C290 C282 1.448 . S
C290 N287 1.351 . S
C290 C289 1.430 . S
C291 H280 0.930 . S
C291 C289 1.404 . S
C291 C292 1.366 . S
C292 H271 0.930 . S
C292 C288 1.416 . S
C292 C291 1.366 . S
H293 C286 0.929 . S
H294 C317 0.931 . S
H295 C318 0.931 . S
O296 Eu252 2.462 . S
O296 C316 1.252 . S
O297 Eu252 2.373 . S
O297 C308 1.249 . S
O298 Eu263 2.335 . S
O298 C308 1.264 . S
O299 Eu252 2.432 . S
O299 C316 1.268 . S
O300 Eu252 2.291 . S
O300 C315 1.255 . S
O301 Eu263 2.372 . S
O301 C315 1.257 . S
O302 Eu263 2.462 . S
O302 C327 1.252 . S
O303 Eu263 2.373 . S
O303 C319 1.249 . S
O304 Eu252 2.335 . S
O304 C319 1.264 . S
O305 Eu263 2.432 . S
O305 C327 1.268 . S
O306 Eu263 2.291 . S
O306 C326 1.255 . S
O307 Eu252 2.372 . S
O307 C326 1.257 . S
C308 O297 1.249 . S
C308 O298 1.264 . S
C309 C312 1.382 . S
C309 C314 1.390 . S
C309 C316 1.506 . S
C310 C311 1.398 . S
C310 C314 1.392 . S
C311 C310 1.398 . S
C311 C313 1.372 . S
C311 H328 0.931 . S
C312 C309 1.382 . S
C312 C313 1.390 . S
C312 H329 0.931 . S
C313 C311 1.372 . S
C313 C312 1.390 . S
C313 H330 0.929 . S
C314 C309 1.390 . S
C314 C310 1.392 . S
C314 H331 0.930 . S
C315 O300 1.255 . S
C315 O301 1.257 . S
C316 Eu252 2.787 . S
C316 O296 1.252 . S
C316 O299 1.268 . S
C316 C309 1.506 . S
C317 C284 1.439 . S
C317 H294 0.931 . S
C317 C318 1.374 . S
C318 C289 1.387 . S
C318 H295 0.931 . S
C318 C317 1.374 . S
C319 O303 1.249 . S
C319 O304 1.264 . S
C320 C323 1.382 . S
C320 C324 1.390 . S
C320 C327 1.506 . S
C321 C322 1.398 . S
C321 C324 1.392 . S
C322 C321 1.398 . S
C322 C325 1.372 . S
C322 H332 0.931 . S
C323 C320 1.382 . S
C323 C325 1.390 . S
C323 H333 0.931 . S
C324 C320 1.390 . S
C324 C321 1.392 . S
C324 H334 0.930 . S
C325 C322 1.372 . S
C325 C323 1.390 . S
C325 H335 0.929 . S
C326 O306 1.255 . S
C326 O307 1.257 . S
C327 Eu263 2.787 . S
C327 O302 1.252 . S
C327 O305 1.268 . S
C327 C320 1.506 . S
H328 C311 0.931 . S
H329 C312 0.931 . S
H330 C313 0.929 . S
H331 C314 0.930 . S
H332 C322 0.931 . S
H333 C323 0.931 . S
H334 C324 0.930 . S
H335 C325 0.929 . S
Eu336 N365 2.600 . S
Eu336 N371 2.562 . S
Eu336 O380 2.462 . S
Eu336 O381 2.373 . S
Eu336 O383 2.432 . S
Eu336 O384 2.291 . S
Eu336 O388 2.335 . S
Eu336 O391 2.372 . S
Eu336 C400 2.787 . S
C337 N338 1.365 . S
C337 C340 1.405 . S
C337 C344 1.448 . S
N338 C337 1.365 . S
N338 C341 1.319 . S
N338 Eu347 2.600 . S
C339 C341 1.397 . S
C339 C342 1.367 . S
C339 H359 0.931 . S
C340 C337 1.405 . S
C340 C342 1.403 . S
C340 C346 1.439 . S
C341 N338 1.319 . S
C341 C339 1.397 . S
C341 H352 0.930 . S
C342 C339 1.367 . S
C342 C340 1.403 . S
C342 H363 0.929 . S
C343 C344 1.430 . S
C343 C345 1.387 . S
C343 C349 1.404 . S
C344 C337 1.448 . S
C344 C343 1.430 . S
C344 N348 1.351 . S
C345 C343 1.387 . S
C345 C346 1.374 . S
C345 H360 0.931 . S
C346 C340 1.439 . S
C346 C345 1.374 . S
C346 H361 0.931 . S
Eu347 N338 2.600 . S
Eu347 N348 2.562 . S
Eu347 O382 2.335 . S
Eu347 O385 2.372 . S
Eu347 O386 2.462 . S
Eu347 O387 2.373 . S
Eu347 O389 2.432 . S
Eu347 O390 2.291 . S
Eu347 C411 2.787 . S
N348 C344 1.351 . S
N348 Eu347 2.562 . S
N348 C350 1.325 . S
C349 C343 1.404 . S
C349 C351 1.366 . S
C349 H357 0.930 . S
C350 N348 1.325 . S
C350 C351 1.416 . S
C350 H356 0.929 . S
C351 C349 1.366 . S
C351 C350 1.416 . S
C351 H353 0.930 . S
H352 C341 0.930 . S
H353 C351 0.930 . S
H354 C369 0.930 . S
H355 C376 0.930 . S
H356 C350 0.929 . S
H357 C349 0.930 . S
H358 C372 0.929 . S
H359 C339 0.931 . S
H360 C345 0.931 . S
H361 C346 0.931 . S
H362 C367 0.931 . S
H363 C342 0.929 . S
H364 C375 0.930 . S
N365 Eu336 2.600 . S
N365 C366 1.365 . S
N365 C369 1.319 . S
C366 N365 1.365 . S
C366 C368 1.405 . S
C366 C374 1.448 . S
C367 H362 0.931 . S
C367 C369 1.397 . S
C367 C370 1.367 . S
C368 C366 1.405 . S
C368 C370 1.403 . S
C368 C401 1.439 . S
C369 H354 0.930 . S
C369 N365 1.319 . S
C369 C367 1.397 . S
C370 C367 1.367 . S
C370 C368 1.403 . S
C370 H377 0.929 . S
N371 Eu336 2.562 . S
N371 C372 1.325 . S
N371 C374 1.351 . S
C372 H358 0.929 . S
C372 N371 1.325 . S
C372 C376 1.416 . S
C373 C374 1.430 . S
C373 C375 1.404 . S
C373 C402 1.387 . S
C374 C366 1.448 . S
C374 N371 1.351 . S
C374 C373 1.430 . S
C375 H364 0.930 . S
C375 C373 1.404 . S
C375 C376 1.366 . S
C376 H355 0.930 . S
C376 C372 1.416 . S
C376 C375 1.366 . S
H377 C370 0.929 . S
H378 C401 0.931 . S
H379 C402 0.931 . S
O380 Eu336 2.462 . S
O380 C400 1.252 . S
O381 Eu336 2.373 . S
O381 C392 1.249 . S
O382 Eu347 2.335 . S
O382 C392 1.264 . S
O383 Eu336 2.432 . S
O383 C400 1.268 . S
O384 Eu336 2.291 . S
O384 C399 1.255 . S
O385 Eu347 2.372 . S
O385 C399 1.257 . S
O386 Eu347 2.462 . S
O386 C411 1.252 . S
O387 Eu347 2.373 . S
O387 C403 1.249 . S
O388 Eu336 2.335 . S
O388 C403 1.264 . S
O389 Eu347 2.432 . S
O389 C411 1.268 . S
O390 Eu347 2.291 . S
O390 C410 1.255 . S
O391 Eu336 2.372 . S
O391 C410 1.257 . S
C392 O381 1.249 . S
C392 O382 1.264 . S
C393 C396 1.382 . S
C393 C398 1.390 . S
C393 C400 1.506 . S
C394 C395 1.398 . S
C394 C398 1.392 . S
C395 C394 1.398 . S
C395 C397 1.372 . S
C395 H412 0.931 . S
C396 C393 1.382 . S
C396 C397 1.390 . S
C396 H413 0.931 . S
C397 C395 1.372 . S
C397 C396 1.390 . S
C397 H414 0.929 . S
C398 C393 1.390 . S
C398 C394 1.392 . S
C398 H415 0.930 . S
C399 O384 1.255 . S
C399 O385 1.257 . S
C400 Eu336 2.787 . S
C400 O380 1.252 . S
C400 O383 1.268 . S
C400 C393 1.506 . S
C401 C368 1.439 . S
C401 H378 0.931 . S
C401 C402 1.374 . S
C402 C373 1.387 . S
C402 H379 0.931 . S
C402 C401 1.374 . S
C403 O387 1.249 . S
C403 O388 1.264 . S
C404 C407 1.382 . S
C404 C408 1.390 . S
C404 C411 1.506 . S
C405 C406 1.398 . S
C405 C408 1.392 . S
C406 C405 1.398 . S
C406 C409 1.372 . S
C406 H416 0.931 . S
C407 C404 1.382 . S
C407 C409 1.390 . S
C407 H417 0.931 . S
C408 C404 1.390 . S
C408 C405 1.392 . S
C408 H418 0.930 . S
C409 C406 1.372 . S
C409 C407 1.390 . S
C409 H419 0.929 . S
C410 O390 1.255 . S
C410 O391 1.257 . S
C411 Eu347 2.787 . S
C411 O386 1.252 . S
C411 O389 1.268 . S
C411 C404 1.506 . S
H412 C395 0.931 . S
H413 C396 0.931 . S
H414 C397 0.929 . S
H415 C398 0.930 . S
H416 C406 0.931 . S
H417 C407 0.931 . S
H418 C408 0.930 . S
H419 C409 0.929 . S
Eu420 N449 2.600 . S
Eu420 N455 2.562 . S
Eu420 O464 2.462 . S
Eu420 O465 2.373 . S
Eu420 O467 2.432 . S
Eu420 O468 2.291 . S
Eu420 O472 2.335 . S
Eu420 O475 2.372 . S
Eu420 C484 2.787 . S
C421 N422 1.365 . S
C421 C424 1.405 . S
C421 C428 1.448 . S
N422 C421 1.365 . S
N422 C425 1.319 . S
N422 Eu431 2.600 . S
C423 C425 1.397 . S
C423 C426 1.367 . S
C423 H443 0.931 . S
C424 C421 1.405 . S
C424 C426 1.403 . S
C424 C430 1.439 . S
C425 N422 1.319 . S
C425 C423 1.397 . S
C425 H436 0.930 . S
C426 C423 1.367 . S
C426 C424 1.403 . S
C426 H447 0.929 . S
C427 C428 1.430 . S
C427 C429 1.387 . S
C427 C433 1.404 . S
C428 C421 1.448 . S
C428 C427 1.430 . S
C428 N432 1.351 . S
C429 C427 1.387 . S
C429 C430 1.374 . S
C429 H444 0.931 . S
C430 C424 1.439 . S
C430 C429 1.374 . S
C430 H445 0.931 . S
Eu431 N422 2.600 . S
Eu431 N432 2.562 . S
Eu431 O466 2.335 . S
Eu431 O469 2.372 . S
Eu431 O470 2.462 . S
Eu431 O471 2.373 . S
Eu431 O473 2.432 . S
Eu431 O474 2.291 . S
Eu431 C495 2.787 . S
N432 C428 1.351 . S
N432 Eu431 2.562 . S
N432 C434 1.325 . S
C433 C427 1.404 . S
C433 C435 1.366 . S
C433 H441 0.930 . S
C434 N432 1.325 . S
C434 C435 1.416 . S
C434 H440 0.929 . S
C435 C433 1.366 . S
C435 C434 1.416 . S
C435 H437 0.930 . S
H436 C425 0.930 . S
H437 C435 0.930 . S
H438 C453 0.930 . S
H439 C460 0.930 . S
H440 C434 0.929 . S
H441 C433 0.930 . S
H442 C456 0.929 . S
H443 C423 0.931 . S
H444 C429 0.931 . S
H445 C430 0.931 . S
H446 C451 0.931 . S
H447 C426 0.929 . S
H448 C459 0.930 . S
N449 Eu420 2.600 . S
N449 C450 1.365 . S
N449 C453 1.319 . S
C450 N449 1.365 . S
C450 C452 1.405 . S
C450 C458 1.448 . S
C451 H446 0.931 . S
C451 C453 1.397 . S
C451 C454 1.367 . S
C452 C450 1.405 . S
C452 C454 1.403 . S
C452 C485 1.439 . S
C453 H438 0.930 . S
C453 N449 1.319 . S
C453 C451 1.397 . S
C454 C451 1.367 . S
C454 C452 1.403 . S
C454 H461 0.929 . S
N455 Eu420 2.562 . S
N455 C456 1.325 . S
N455 C458 1.351 . S
C456 H442 0.929 . S
C456 N455 1.325 . S
C456 C460 1.416 . S
C457 C458 1.430 . S
C457 C459 1.404 . S
C457 C486 1.387 . S
C458 C450 1.448 . S
C458 N455 1.351 . S
C458 C457 1.430 . S
C459 H448 0.930 . S
C459 C457 1.404 . S
C459 C460 1.366 . S
C460 H439 0.930 . S
C460 C456 1.416 . S
C460 C459 1.366 . S
H461 C454 0.929 . S
H462 C485 0.931 . S
H463 C486 0.931 . S
O464 Eu420 2.462 . S
O464 C484 1.252 . S
O465 Eu420 2.373 . S
O465 C476 1.249 . S
O466 Eu431 2.335 . S
O466 C476 1.264 . S
O467 Eu420 2.432 . S
O467 C484 1.268 . S
O468 Eu420 2.291 . S
O468 C483 1.255 . S
O469 Eu431 2.372 . S
O469 C483 1.257 . S
O470 Eu431 2.462 . S
O470 C495 1.252 . S
O471 Eu431 2.373 . S
O471 C487 1.249 . S
O472 Eu420 2.335 . S
O472 C487 1.264 . S
O473 Eu431 2.432 . S
O473 C495 1.268 . S
O474 Eu431 2.291 . S
O474 C494 1.255 . S
O475 Eu420 2.372 . S
O475 C494 1.257 . S
C476 O465 1.249 . S
C476 O466 1.264 . S
C477 C480 1.382 . S
C477 C482 1.390 . S
C477 C484 1.506 . S
C478 C479 1.398 . S
C478 C482 1.392 . S
C479 C478 1.398 . S
C479 C481 1.372 . S
C479 H496 0.931 . S
C480 C477 1.382 . S
C480 C481 1.390 . S
C480 H497 0.931 . S
C481 C479 1.372 . S
C481 C480 1.390 . S
C481 H498 0.929 . S
C482 C477 1.390 . S
C482 C478 1.392 . S
C482 H499 0.930 . S
C483 O468 1.255 . S
C483 O469 1.257 . S
C484 Eu420 2.787 . S
C484 O464 1.252 . S
C484 O467 1.268 . S
C484 C477 1.506 . S
C485 C452 1.439 . S
C485 H462 0.931 . S
C485 C486 1.374 . S
C486 C457 1.387 . S
C486 H463 0.931 . S
C486 C485 1.374 . S
C487 O471 1.249 . S
C487 O472 1.264 . S
C488 C491 1.382 . S
C488 C492 1.390 . S
C488 C495 1.506 . S
C489 C490 1.398 . S
C489 C492 1.392 . S
C490 C489 1.398 . S
C490 C493 1.372 . S
C490 H500 0.931 . S
C491 C488 1.382 . S
C491 C493 1.390 . S
C491 H501 0.931 . S
C492 C488 1.390 . S
C492 C489 1.392 . S
C492 H502 0.930 . S
C493 C490 1.372 . S
C493 C491 1.390 . S
C493 H503 0.929 . S
C494 O474 1.255 . S
C494 O475 1.257 . S
C495 Eu431 2.787 . S
C495 O470 1.252 . S
C495 O473 1.268 . S
C495 C488 1.506 . S
H496 C479 0.931 . S
H497 C480 0.931 . S
H498 C481 0.929 . S
H499 C482 0.930 . S
H500 C490 0.931 . S
H501 C491 0.931 . S
H502 C492 0.930 . S
H503 C493 0.929 . S
Eu504 N533 2.600 . S
Eu504 N539 2.562 . S
Eu504 O548 2.462 . S
Eu504 O549 2.373 . S
Eu504 O551 2.432 . S
Eu504 O552 2.291 . S
Eu504 O556 2.335 . S
Eu504 O559 2.372 . S
Eu504 C568 2.787 . S
C505 N506 1.365 . S
C505 C508 1.405 . S
C505 C512 1.448 . S
N506 C505 1.365 . S
N506 C509 1.319 . S
N506 Eu515 2.600 . S
C507 C509 1.397 . S
C507 C510 1.367 . S
C507 H527 0.931 . S
C508 C505 1.405 . S
C508 C510 1.403 . S
C508 C514 1.439 . S
C509 N506 1.319 . S
C509 C507 1.397 . S
C509 H520 0.930 . S
C510 C507 1.367 . S
C510 C508 1.403 . S
C510 H531 0.929 . S
C511 C512 1.430 . S
C511 C513 1.387 . S
C511 C517 1.404 . S
C512 C505 1.448 . S
C512 C511 1.430 . S
C512 N516 1.351 . S
C513 C511 1.387 . S
C513 C514 1.374 . S
C513 H528 0.931 . S
C514 C508 1.439 . S
C514 C513 1.374 . S
C514 H529 0.931 . S
Eu515 N506 2.600 . S
Eu515 N516 2.562 . S
Eu515 O550 2.335 . S
Eu515 O553 2.372 . S
Eu515 O554 2.462 . S
Eu515 O555 2.373 . S
Eu515 O557 2.432 . S
Eu515 O558 2.291 . S
Eu515 C579 2.787 . S
N516 C512 1.351 . S
N516 Eu515 2.562 . S
N516 C518 1.325 . S
C517 C511 1.404 . S
C517 C519 1.366 . S
C517 H525 0.930 . S
C518 N516 1.325 . S
C518 C519 1.416 . S
C518 H524 0.929 . S
C519 C517 1.366 . S
C519 C518 1.416 . S
C519 H521 0.930 . S
H520 C509 0.930 . S
H521 C519 0.930 . S
H522 C537 0.930 . S
H523 C544 0.930 . S
H524 C518 0.929 . S
H525 C517 0.930 . S
H526 C540 0.929 . S
H527 C507 0.931 . S
H528 C513 0.931 . S
H529 C514 0.931 . S
H530 C535 0.931 . S
H531 C510 0.929 . S
H532 C543 0.930 . S
N533 Eu504 2.600 . S
N533 C534 1.365 . S
N533 C537 1.319 . S
C534 N533 1.365 . S
C534 C536 1.405 . S
C534 C542 1.448 . S
C535 H530 0.931 . S
C535 C537 1.397 . S
C535 C538 1.367 . S
C536 C534 1.405 . S
C536 C538 1.403 . S
C536 C569 1.439 . S
C537 H522 0.930 . S
C537 N533 1.319 . S
C537 C535 1.397 . S
C538 C535 1.367 . S
C538 C536 1.403 . S
C538 H545 0.929 . S
N539 Eu504 2.562 . S
N539 C540 1.325 . S
N539 C542 1.351 . S
C540 H526 0.929 . S
C540 N539 1.325 . S
C540 C544 1.416 . S
C541 C542 1.430 . S
C541 C543 1.404 . S
C541 C570 1.387 . S
C542 C534 1.448 . S
C542 N539 1.351 . S
C542 C541 1.430 . S
C543 H532 0.930 . S
C543 C541 1.404 . S
C543 C544 1.366 . S
C544 H523 0.930 . S
C544 C540 1.416 . S
C544 C543 1.366 . S
H545 C538 0.929 . S
H546 C569 0.931 . S
H547 C570 0.931 . S
O548 Eu504 2.462 . S
O548 C568 1.252 . S
O549 Eu504 2.373 . S
O549 C560 1.249 . S
O550 Eu515 2.335 . S
O550 C560 1.264 . S
O551 Eu504 2.432 . S
O551 C568 1.268 . S
O552 Eu504 2.291 . S
O552 C567 1.255 . S
O553 Eu515 2.372 . S
O553 C567 1.257 . S
O554 Eu515 2.462 . S
O554 C579 1.252 . S
O555 Eu515 2.373 . S
O555 C571 1.249 . S
O556 Eu504 2.335 . S
O556 C571 1.264 . S
O557 Eu515 2.432 . S
O557 C579 1.268 . S
O558 Eu515 2.291 . S
O558 C578 1.255 . S
O559 Eu504 2.372 . S
O559 C578 1.257 . S
C560 O549 1.249 . S
C560 O550 1.264 . S
C561 C564 1.382 . S
C561 C566 1.390 . S
C561 C568 1.506 . S
C562 C563 1.398 . S
C562 C566 1.392 . S
C563 C562 1.398 . S
C563 C565 1.372 . S
C563 H580 0.931 . S
C564 C561 1.382 . S
C564 C565 1.390 . S
C564 H581 0.931 . S
C565 C563 1.372 . S
C565 C564 1.390 . S
C565 H582 0.929 . S
C566 C561 1.390 . S
C566 C562 1.392 . S
C566 H583 0.930 . S
C567 O552 1.255 . S
C567 O553 1.257 . S
C568 Eu504 2.787 . S
C568 O548 1.252 . S
C568 O551 1.268 . S
C568 C561 1.506 . S
C569 C536 1.439 . S
C569 H546 0.931 . S
C569 C570 1.374 . S
C570 C541 1.387 . S
C570 H547 0.931 . S
C570 C569 1.374 . S
C571 O555 1.249 . S
C571 O556 1.264 . S
C572 C575 1.382 . S
C572 C576 1.390 . S
C572 C579 1.506 . S
C573 C574 1.398 . S
C573 C576 1.392 . S
C574 C573 1.398 . S
C574 C577 1.372 . S
C574 H584 0.931 . S
C575 C572 1.382 . S
C575 C577 1.390 . S
C575 H585 0.931 . S
C576 C572 1.390 . S
C576 C573 1.392 . S
C576 H586 0.930 . S
C577 C574 1.372 . S
C577 C575 1.390 . S
C577 H587 0.929 . S
C578 O558 1.255 . S
C578 O559 1.257 . S
C579 Eu515 2.787 . S
C579 O554 1.252 . S
C579 O557 1.268 . S
C579 C572 1.506 . S
H580 C563 0.931 . S
H581 C564 0.931 . S
H582 C565 0.929 . S
H583 C566 0.930 . S
H584 C574 0.931 . S
H585 C575 0.931 . S
H586 C576 0.930 . S
H587 C577 0.929 . S
Eu588 N617 2.600 . S
Eu588 N623 2.562 . S
Eu588 O632 2.462 . S
Eu588 O633 2.373 . S
Eu588 O635 2.432 . S
Eu588 O636 2.291 . S
Eu588 O640 2.335 . S
Eu588 O643 2.372 . S
Eu588 C652 2.787 . S
C589 N590 1.365 . S
C589 C592 1.405 . S
C589 C596 1.448 . S
N590 C589 1.365 . S
N590 C593 1.319 . S
N590 Eu599 2.600 . S
C591 C593 1.397 . S
C591 C594 1.367 . S
C591 H611 0.931 . S
C592 C589 1.405 . S
C592 C594 1.403 . S
C592 C598 1.439 . S
C593 N590 1.319 . S
C593 C591 1.397 . S
C593 H604 0.930 . S
C594 C591 1.367 . S
C594 C592 1.403 . S
C594 H615 0.929 . S
C595 C596 1.430 . S
C595 C597 1.387 . S
C595 C601 1.404 . S
C596 C589 1.448 . S
C596 C595 1.430 . S
C596 N600 1.351 . S
C597 C595 1.387 . S
C597 C598 1.374 . S
C597 H612 0.931 . S
C598 C592 1.439 . S
C598 C597 1.374 . S
C598 H613 0.931 . S
Eu599 N590 2.600 . S
Eu599 N600 2.562 . S
Eu599 O634 2.335 . S
Eu599 O637 2.372 . S
Eu599 O638 2.462 . S
Eu599 O639 2.373 . S
Eu599 O641 2.432 . S
Eu599 O642 2.291 . S
Eu599 C663 2.787 . S
N600 C596 1.351 . S
N600 Eu599 2.562 . S
N600 C602 1.325 . S
C601 C595 1.404 . S
C601 C603 1.366 . S
C601 H609 0.930 . S
C602 N600 1.325 . S
C602 C603 1.416 . S
C602 H608 0.929 . S
C603 C601 1.366 . S
C603 C602 1.416 . S
C603 H605 0.930 . S
H604 C593 0.930 . S
H605 C603 0.930 . S
H606 C621 0.930 . S
H607 C628 0.930 . S
H608 C602 0.929 . S
H609 C601 0.930 . S
H610 C624 0.929 . S
H611 C591 0.931 . S
H612 C597 0.931 . S
H613 C598 0.931 . S
H614 C619 0.931 . S
H615 C594 0.929 . S
H616 C627 0.930 . S
N617 Eu588 2.600 . S
N617 C618 1.365 . S
N617 C621 1.319 . S
C618 N617 1.365 . S
C618 C620 1.405 . S
C618 C626 1.448 . S
C619 H614 0.931 . S
C619 C621 1.397 . S
C619 C622 1.367 . S
C620 C618 1.405 . S
C620 C622 1.403 . S
C620 C653 1.439 . S
C621 H606 0.930 . S
C621 N617 1.319 . S
C621 C619 1.397 . S
C622 C619 1.367 . S
C622 C620 1.403 . S
C622 H629 0.929 . S
N623 Eu588 2.562 . S
N623 C624 1.325 . S
N623 C626 1.351 . S
C624 H610 0.929 . S
C624 N623 1.325 . S
C624 C628 1.416 . S
C625 C626 1.430 . S
C625 C627 1.404 . S
C625 C654 1.387 . S
C626 C618 1.448 . S
C626 N623 1.351 . S
C626 C625 1.430 . S
C627 H616 0.930 . S
C627 C625 1.404 . S
C627 C628 1.366 . S
C628 H607 0.930 . S
C628 C624 1.416 . S
C628 C627 1.366 . S
H629 C622 0.929 . S
H630 C653 0.931 . S
H631 C654 0.931 . S
O632 Eu588 2.462 . S
O632 C652 1.252 . S
O633 Eu588 2.373 . S
O633 C644 1.249 . S
O634 Eu599 2.335 . S
O634 C644 1.264 . S
O635 Eu588 2.432 . S
O635 C652 1.268 . S
O636 Eu588 2.291 . S
O636 C651 1.255 . S
O637 Eu599 2.372 . S
O637 C651 1.257 . S
O638 Eu599 2.462 . S
O638 C663 1.252 . S
O639 Eu599 2.373 . S
O639 C655 1.249 . S
O640 Eu588 2.335 . S
O640 C655 1.264 . S
O641 Eu599 2.432 . S
O641 C663 1.268 . S
O642 Eu599 2.291 . S
O642 C662 1.255 . S
O643 Eu588 2.372 . S
O643 C662 1.257 . S
C644 O633 1.249 . S
C644 O634 1.264 . S
C645 C648 1.382 . S
C645 C650 1.390 . S
C645 C652 1.506 . S
C646 C647 1.398 . S
C646 C650 1.392 . S
C647 C646 1.398 . S
C647 C649 1.372 . S
C647 H664 0.931 . S
C648 C645 1.382 . S
C648 C649 1.390 . S
C648 H665 0.931 . S
C649 C647 1.372 . S
C649 C648 1.390 . S
C649 H666 0.929 . S
C650 C645 1.390 . S
C650 C646 1.392 . S
C650 H667 0.930 . S
C651 O636 1.255 . S
C651 O637 1.257 . S
C652 Eu588 2.787 . S
C652 O632 1.252 . S
C652 O635 1.268 . S
C652 C645 1.506 . S
C653 C620 1.439 . S
C653 H630 0.931 . S
C653 C654 1.374 . S
C654 C625 1.387 . S
C654 H631 0.931 . S
C654 C653 1.374 . S
C655 O639 1.249 . S
C655 O640 1.264 . S
C656 C659 1.382 . S
C656 C660 1.390 . S
C656 C663 1.506 . S
C657 C658 1.398 . S
C657 C660 1.392 . S
C658 C657 1.398 . S
C658 C661 1.372 . S
C658 H668 0.931 . S
C659 C656 1.382 . S
C659 C661 1.390 . S
C659 H669 0.931 . S
C660 C656 1.390 . S
C660 C657 1.392 . S
C660 H670 0.930 . S
C661 C658 1.372 . S
C661 C659 1.390 . S
C661 H671 0.929 . S
C662 O642 1.255 . S
C662 O643 1.257 . S
C663 Eu599 2.787 . S
C663 O638 1.252 . S
C663 O641 1.268 . S
C663 C656 1.506 . S
H664 C647 0.931 . S
H665 C648 0.931 . S
H666 C649 0.929 . S
H667 C650 0.930 . S
H668 C658 0.931 . S
H669 C659 0.931 . S
H670 C660 0.930 . S
H671 C661 0.929 . S
Fe672 O673 1.886 1_455 S
Fe672 O676 1.715 . S
Fe672 O681 2.077 1_455 S
Fe672 O686 1.935 . S
Fe672 O692 2.077 1_455 S
Fe672 O701 1.935 . S
O673 Fe672 1.886 1_655 S
O673 Fe675 1.715 1_545 S
Fe674 O676 1.886 . S
Fe674 O677 1.715 1_545 S
Fe674 O684 1.935 1_545 S
Fe674 O685 2.077 . S
Fe674 O691 1.935 1_545 S
Fe674 O700 2.077 . S
Fe675 O673 1.715 1_565 S
Fe675 O678 1.886 . S
Fe675 O682 1.935 1_565 S
Fe675 O687 2.077 . S
Fe675 O693 1.935 1_565 S
Fe675 O697 2.077 . S
O676 Fe672 1.715 . S
O676 Fe674 1.886 . S
O677 Fe674 1.715 1_565 S
O677 Fe679 1.886 1_455 S
O678 Fe675 1.886 . S
O678 Fe679 1.715 . S
Fe679 O677 1.886 1_655 S
Fe679 O678 1.715 . S
Fe679 O683 2.077 1_655 S
Fe679 O688 1.935 . S
Fe679 O690 2.077 1_655 S
Fe679 O698 1.935 . S
C680 O692 1.381 . S
C680 O693 1.421 . S
O681 Fe672 2.077 1_655 S
O681 C694 1.381 . S
O682 Fe675 1.935 1_545 S
O682 C694 1.421 . S
O683 Fe679 2.077 1_455 S
O683 C699 1.381 . S
O684 Fe674 1.935 1_565 S
O684 C699 1.421 . S
O685 Fe674 2.077 . S
O685 C689 1.381 . S
O686 Fe672 1.935 . S
O686 C689 1.421 . S
O687 Fe675 2.077 . S
O687 C695 1.381 . S
O688 Fe679 1.935 . S
O688 C695 1.421 . S
C689 O685 1.381 . S
C689 O686 1.421 . S
O690 Fe679 2.077 1_455 S
O690 C702 1.381 . S
O691 Fe674 1.935 1_565 S
O691 C702 1.421 . S
O692 Fe672 2.077 1_655 S
O692 C680 1.381 . S
O693 Fe675 1.935 1_545 S
O693 C680 1.421 . S
C694 O681 1.381 . S
C694 O682 1.421 . S
C695 O687 1.381 . S
C695 O688 1.421 . S
C696 O697 1.381 . S
C696 O698 1.421 . S
O697 Fe675 2.077 . S
O697 C696 1.381 . S
O698 Fe679 1.935 . S
O698 C696 1.421 . S
C699 O683 1.381 . S
C699 O684 1.421 . S
O700 Fe674 2.077 . S
O700 C703 1.381 . S
O701 Fe672 1.935 . S
O701 C703 1.421 . S
C702 O690 1.381 . S
C702 O691 1.421 . S
C703 O700 1.381 . S
C703 O701 1.421 . S
Fe704 O705 1.886 . S
Fe704 O708 1.714 . S
Fe704 O713 2.077 . S
Fe704 O718 1.935 . S
Fe704 O724 2.077 1_556 S
Fe704 O733 1.935 1_556 S
O705 Fe704 1.886 . S
O705 Fe707 1.715 1_565 S
Fe706 O708 1.886 1_554 S
Fe706 O709 1.715 1_565 S
Fe706 O716 1.935 1_564 S
Fe706 O717 2.077 1_554 S
Fe706 O723 1.935 1_565 S
Fe706 O732 2.077 . S
Fe707 O705 1.715 1_545 S
Fe707 O710 1.887 1_556 S
Fe707 O714 1.935 1_545 S
Fe707 O719 2.077 . S
Fe707 O725 1.935 1_546 S
Fe707 O729 2.077 1_556 S
O708 Fe704 1.714 . S
O708 Fe706 1.886 1_556 S
O709 Fe706 1.715 1_545 S
O709 Fe711 1.886 . S
O710 Fe707 1.887 1_554 S
O710 Fe711 1.714 . S
Fe711 O709 1.886 . S
Fe711 O710 1.714 . S
Fe711 O715 2.077 1_554 S
Fe711 O720 1.935 1_554 S
Fe711 O722 2.077 . S
Fe711 O730 1.935 . S
C712 O724 1.381 . S
C712 O725 1.421 . S
O713 Fe704 2.077 . S
O713 C726 1.381 . S
O714 Fe707 1.935 1_565 S
O714 C726 1.421 . S
O715 Fe711 2.077 1_556 S
O715 C731 1.381 . S
O716 Fe706 1.935 1_546 S
O716 C731 1.421 . S
O717 Fe706 2.077 1_556 S
O717 C721 1.381 . S
O718 Fe704 1.935 . S
O718 C721 1.421 . S
O719 Fe707 2.077 . S
O719 C727 1.381 . S
O720 Fe711 1.935 1_556 S
O720 C727 1.421 . S
C721 O717 1.381 . S
C721 O718 1.421 . S
O722 Fe711 2.077 . S
O722 C734 1.381 . S
O723 Fe706 1.935 1_545 S
O723 C734 1.421 . S
O724 Fe704 2.077 1_554 S
O724 C712 1.381 . S
O725 Fe707 1.935 1_564 S
O725 C712 1.421 . S
C726 O713 1.381 . S
C726 O714 1.421 . S
C727 O719 1.381 . S
C727 O720 1.421 . S
C728 O729 1.381 . S
C728 O730 1.421 . S
O729 Fe707 2.077 1_554 S
O729 C728 1.381 . S
O730 Fe711 1.935 . S
O730 C728 1.421 . S
C731 O715 1.381 . S
C731 O716 1.421 . S
O732 Fe706 2.077 . S
O732 C735 1.381 . S
O733 Fe704 1.935 1_554 S
O733 C735 1.421 . S
C734 O722 1.381 . S
C734 O723 1.421 . S
C735 O732 1.381 . S
C735 O733 1.421 . S
Fe736 O737 1.886 1_455 S
Fe736 O740 1.714 . S
Fe736 O745 2.077 1_454 S
Fe736 O750 1.935 1_554 S
Fe736 O756 2.077 1_455 S
Fe736 O765 1.935 . S
O737 Fe736 1.886 1_655 S
O737 Fe739 1.715 . S
Fe738 O740 1.887 1_556 S
Fe738 O741 1.715 . S
Fe738 O748 1.935 . S
Fe738 O749 2.077 . S
Fe738 O755 1.935 1_556 S
Fe738 O764 2.077 1_556 S
Fe739 O737 1.715 . S
Fe739 O742 1.886 1_554 S
Fe739 O746 1.935 1_554 S
Fe739 O751 2.077 1_554 S
Fe739 O757 1.935 . S
Fe739 O761 2.077 . S
O740 Fe736 1.714 . S
O740 Fe738 1.887 1_554 S
O741 Fe738 1.715 . S
O741 Fe743 1.886 1_455 S
O742 Fe739 1.886 1_556 S
O742 Fe743 1.715 . S
Fe743 O741 1.886 1_655 S
Fe743 O742 1.715 . S
Fe743 O747 2.077 1_655 S
Fe743 O752 1.935 . S
Fe743 O754 2.077 1_656 S
Fe743 O762 1.935 1_556 S
C744 O756 1.381 . S
C744 O757 1.421 . S
O745 Fe736 2.077 1_656 S
O745 C758 1.381 . S
O746 Fe739 1.935 1_556 S
O746 C758 1.421 . S
O747 Fe743 2.077 1_455 S
O747 C763 1.381 . S
O748 Fe738 1.935 . S
O748 C763 1.421 . S
O749 Fe738 2.077 . S
O749 C753 1.381 . S
O750 Fe736 1.935 1_556 S
O750 C753 1.421 . S
O751 Fe739 2.077 1_556 S
O751 C759 1.381 . S
O752 Fe743 1.935 . S
O752 C759 1.421 . S
C753 O749 1.381 . S
C753 O750 1.421 . S
O754 Fe743 2.077 1_454 S
O754 C766 1.381 . S
O755 Fe738 1.935 1_554 S
O755 C766 1.421 . S
O756 Fe736 2.077 1_655 S
O756 C744 1.381 . S
O757 Fe739 1.935 . S
O757 C744 1.421 . S
C758 O745 1.381 . S
C758 O746 1.421 . S
C759 O751 1.381 . S
C759 O752 1.421 . S
C760 O761 1.381 . S
C760 O762 1.421 . S
O761 Fe739 2.077 . S
O761 C760 1.381 . S
O762 Fe743 1.935 1_554 S
O762 C760 1.421 . S
C763 O747 1.381 . S
C763 O748 1.421 . S
O764 Fe738 2.077 1_554 S
O764 C767 1.381 . S
O765 Fe736 1.935 . S
O765 C767 1.421 . S
C766 O754 1.381 . S
C766 O755 1.421 . S
C767 O764 1.381 . S
C767 O765 1.421 . S
Fe768 O769 1.886 . S
Fe768 O772 1.715 . S
Fe768 O777 2.077 . S
Fe768 O782 1.935 . S
Fe768 O788 2.077 . S
Fe768 O797 1.935 . S
O769 Fe768 1.886 . S
O769 Fe771 1.715 . S
Fe770 O772 1.886 1_554 S
Fe770 O773 1.715 . S
Fe770 O780 1.935 . S
Fe770 O781 2.077 1_554 S
Fe770 O787 1.935 . S
Fe770 O796 2.077 1_554 S
Fe771 O769 1.715 . S
Fe771 O774 1.886 1_556 S
Fe771 O778 1.935 . S
Fe771 O783 2.077 1_556 S
Fe771 O789 1.935 . S
Fe771 O793 2.077 1_556 S
O772 Fe768 1.715 . S
O772 Fe770 1.886 1_556 S
O773 Fe770 1.715 . S
O773 Fe775 1.886 . S
O774 Fe771 1.886 1_554 S
O774 Fe775 1.715 . S
Fe775 O773 1.886 . S
Fe775 O774 1.715 . S
Fe775 O779 2.077 . S
Fe775 O784 1.935 . S
Fe775 O786 2.077 . S
Fe775 O794 1.935 . S
C776 O788 1.381 . S
C776 O789 1.421 . S
O777 Fe768 2.077 . S
O777 C790 1.381 . S
O778 Fe771 1.935 . S
O778 C790 1.421 . S
O779 Fe775 2.077 . S
O779 C795 1.381 . S
O780 Fe770 1.935 . S
O780 C795 1.421 . S
O781 Fe770 2.077 1_556 S
O781 C785 1.381 . S
O782 Fe768 1.935 . S
O782 C785 1.421 . S
O783 Fe771 2.077 1_554 S
O783 C791 1.381 . S
O784 Fe775 1.935 . S
O784 C791 1.421 . S
C785 O781 1.381 . S
C785 O782 1.421 . S
O786 Fe775 2.077 . S
O786 C798 1.381 . S
O787 Fe770 1.935 . S
O787 C798 1.421 . S
O788 Fe768 2.077 . S
O788 C776 1.381 . S
O789 Fe771 1.935 . S
O789 C776 1.421 . S
C790 O777 1.381 . S
C790 O778 1.421 . S
C791 O783 1.381 . S
C791 O784 1.421 . S
C792 O793 1.381 . S
C792 O794 1.421 . S
O793 Fe771 2.077 1_554 S
O793 C792 1.381 . S
O794 Fe775 1.935 . S
O794 C792 1.421 . S
C795 O779 1.381 . S
C795 O780 1.421 . S
O796 Fe770 2.077 1_556 S
O796 C799 1.381 . S
O797 Fe768 1.935 . S
O797 C799 1.421 . S
C798 O786 1.381 . S
C798 O787 1.421 . S
C799 O796 1.381 . S
C799 O797 1.421 . S
Fe800 O801 1.886 . S
Fe800 O804 1.715 . S
Fe800 O809 2.077 1_655 S
Fe800 O814 1.935 1_655 S
Fe800 O820 2.077 . S
Fe800 O829 1.935 . S
O801 Fe800 1.886 . S
O801 Fe803 1.715 . S
Fe802 O804 1.886 1_455 S
Fe802 O805 1.715 . S
Fe802 O812 1.935 . S
Fe802 O813 2.077 . S
Fe802 O819 1.935 1_455 S
Fe802 O828 2.077 1_455 S
Fe803 O801 1.715 . S
Fe803 O806 1.886 1_655 S
Fe803 O810 1.935 1_655 S
Fe803 O815 2.077 1_655 S
Fe803 O821 1.935 . S
Fe803 O825 2.077 . S
O804 Fe800 1.715 . S
O804 Fe802 1.886 1_655 S
O805 Fe802 1.715 . S
O805 Fe807 1.886 . S
O806 Fe803 1.886 1_455 S
O806 Fe807 1.715 . S
Fe807 O805 1.886 . S
Fe807 O806 1.715 . S
Fe807 O811 2.077 . S
Fe807 O816 1.935 . S
Fe807 O818 2.077 1_455 S
Fe807 O826 1.935 1_455 S
C808 O820 1.381 . S
C808 O821 1.421 . S
O809 Fe800 2.077 1_455 S
O809 C822 1.381 . S
O810 Fe803 1.935 1_455 S
O810 C822 1.421 . S
O811 Fe807 2.077 . S
O811 C827 1.381 . S
O812 Fe802 1.935 . S
O812 C827 1.421 . S
O813 Fe802 2.077 . S
O813 C817 1.381 . S
O814 Fe800 1.935 1_455 S
O814 C817 1.421 . S
O815 Fe803 2.077 1_455 S
O815 C823 1.381 . S
O816 Fe807 1.935 . S
O816 C823 1.421 . S
C817 O813 1.381 . S
C817 O814 1.421 . S
O818 Fe807 2.077 1_655 S
O818 C830 1.381 . S
O819 Fe802 1.935 1_655 S
O819 C830 1.421 . S
O820 Fe800 2.077 . S
O820 C808 1.381 . S
O821 Fe803 1.935 . S
O821 C808 1.421 . S
C822 O809 1.381 . S
C822 O810 1.421 . S
C823 O815 1.381 . S
C823 O816 1.421 . S
C824 O825 1.381 . S
C824 O826 1.421 . S
O825 Fe803 2.077 . S
O825 C824 1.381 . S
O826 Fe807 1.935 1_655 S
O826 C824 1.421 . S
C827 O811 1.381 . S
C827 O812 1.421 . S
O828 Fe802 2.077 1_655 S
O828 C831 1.381 . S
O829 Fe800 1.935 . S
O829 C831 1.421 . S
C830 O818 1.381 . S
C830 O819 1.421 . S
C831 O828 1.381 . S
C831 O829 1.421 . S
Fe832 O833 1.886 . S
Fe832 O836 1.715 . S
Fe832 O841 2.077 . S
Fe832 O846 1.935 . S
Fe832 O852 2.077 . S
Fe832 O861 1.935 . S
O833 Fe832 1.886 . S
O833 Fe835 1.715 1_565 S
Fe834 O836 1.886 . S
Fe834 O837 1.715 1_565 S
Fe834 O844 1.935 1_565 S
Fe834 O845 2.077 . S
Fe834 O851 1.935 1_565 S
Fe834 O860 2.077 . S
Fe835 O833 1.715 1_545 S
Fe835 O838 1.886 . S
Fe835 O842 1.935 1_545 S
Fe835 O847 2.077 . S
Fe835 O853 1.935 1_545 S
Fe835 O857 2.077 . S
O836 Fe832 1.715 . S
O836 Fe834 1.886 . S
O837 Fe834 1.715 1_545 S
O837 Fe839 1.886 . S
O838 Fe835 1.886 . S
O838 Fe839 1.715 . S
Fe839 O837 1.886 . S
Fe839 O838 1.715 . S
Fe839 O843 2.077 . S
Fe839 O848 1.935 . S
Fe839 O850 2.077 . S
Fe839 O858 1.935 . S
C840 O852 1.381 . S
C840 O853 1.421 . S
O841 Fe832 2.077 . S
O841 C854 1.381 . S
O842 Fe835 1.935 1_565 S
O842 C854 1.421 . S
O843 Fe839 2.077 . S
O843 C859 1.381 . S
O844 Fe834 1.935 1_545 S
O844 C859 1.421 . S
O845 Fe834 2.077 . S
O845 C849 1.381 . S
O846 Fe832 1.935 . S
O846 C849 1.421 . S
O847 Fe835 2.077 . S
O847 C855 1.381 . S
O848 Fe839 1.935 . S
O848 C855 1.421 . S
C849 O845 1.381 . S
C849 O846 1.421 . S
O850 Fe839 2.077 . S
O850 C862 1.381 . S
O851 Fe834 1.935 1_545 S
O851 C862 1.421 . S
O852 Fe832 2.077 . S
O852 C840 1.381 . S
O853 Fe835 1.935 1_565 S
O853 C840 1.421 . S
C854 O841 1.381 . S
C854 O842 1.421 . S
C855 O847 1.381 . S
C855 O848 1.421 . S
C856 O857 1.381 . S
C856 O858 1.421 . S
O857 Fe835 2.077 . S
O857 C856 1.381 . S
O858 Fe839 1.935 . S
O858 C856 1.421 . S
C859 O843 1.381 . S
C859 O844 1.421 . S
O860 Fe834 2.077 . S
O860 C863 1.381 . S
O861 Fe832 1.935 . S
O861 C863 1.421 . S
C862 O850 1.381 . S
C862 O851 1.421 . S
C863 O860 1.381 . S
C863 O861 1.421 . S
H864 C870 0.930 . S
H865 C873 0.930 . S
H866 C874 0.930 . S
H867 C875 0.930 . S
H868 C878 0.930 . S
H869 C879 0.930 . S
C870 H864 0.930 . S
C870 C871 1.355 . S
C870 C872 1.415 . S
C871 C870 1.355 . S
C871 C873 1.419 . S
C872 C870 1.415 . S
C872 C877 1.425 . S
C872 C879 1.409 . S
C873 H865 0.930 . S
C873 C871 1.419 . S
C873 C874 1.362 . S
C874 H866 0.930 . S
C874 C873 1.362 . S
C874 C877 1.409 . S
C875 H867 0.930 . S
C875 C876 1.355 . S
C875 C877 1.415 . S
C876 C875 1.355 . S
C876 C878 1.419 . S
C877 C872 1.425 . S
C877 C874 1.409 . S
C877 C875 1.415 . S
C878 H868 0.930 . S
C878 C876 1.419 . S
C878 C879 1.362 . S
C879 H869 0.930 . S
C879 C872 1.409 . S
C879 C878 1.362 . S
H880 C886 0.930 . S
H881 C889 0.930 . S
H882 C890 0.930 . S
H883 C891 0.930 . S
H884 C894 0.930 . S
H885 C895 0.930 . S
C886 H880 0.930 . S
C886 C887 1.355 . S
C886 C888 1.415 . S
C887 C886 1.355 . S
C887 C889 1.419 . S
C888 C886 1.415 . S
C888 C893 1.425 . S
C888 C895 1.409 . S
C889 H881 0.930 . S
C889 C887 1.419 . S
C889 C890 1.362 . S
C890 H882 0.930 . S
C890 C889 1.362 . S
C890 C893 1.409 . S
C891 H883 0.930 . S
C891 C892 1.355 . S
C891 C893 1.415 . S
C892 C891 1.355 . S
C892 C894 1.419 . S
C893 C888 1.425 . S
C893 C890 1.409 . S
C893 C891 1.415 . S
C894 H884 0.930 . S
C894 C892 1.419 . S
C894 C895 1.362 . S
C895 H885 0.930 . S
C895 C888 1.409 . S
C895 C894 1.362 . S
H896 C902 0.930 . S
H897 C905 0.930 . S
H898 C906 0.930 . S
H899 C907 0.930 . S
H900 C910 0.930 . S
H901 C911 0.930 . S
C902 H896 0.930 . S
C902 C903 1.355 . S
C902 C904 1.415 . S
C903 C902 1.355 . S
C903 C905 1.419 . S
C904 C902 1.415 . S
C904 C909 1.425 . S
C904 C911 1.409 . S
C905 H897 0.930 . S
C905 C903 1.419 . S
C905 C906 1.362 . S
C906 H898 0.930 . S
C906 C905 1.362 . S
C906 C909 1.409 . S
C907 H899 0.930 . S
C907 C908 1.355 . S
C907 C909 1.415 . S
C908 C907 1.355 . S
C908 C910 1.419 . S
C909 C904 1.425 . S
C909 C906 1.409 . S
C909 C907 1.415 . S
C910 H900 0.930 . S
C910 C908 1.419 . S
C910 C911 1.362 . S
C911 H901 0.930 . S
C911 C904 1.409 . S
C911 C910 1.362 . S
H912 C918 0.930 . S
H913 C921 0.930 . S
H914 C922 0.930 . S
H915 C923 0.930 . S
H916 C926 0.930 . S
H917 C927 0.930 . S
C918 H912 0.930 . S
C918 C919 1.355 . S
C918 C920 1.415 . S
C919 C918 1.355 . S
C919 C921 1.419 . S
C920 C918 1.415 . S
C920 C925 1.425 . S
C920 C927 1.409 . S
C921 H913 0.930 . S
C921 C919 1.419 . S
C921 C922 1.362 . S
C922 H914 0.930 . S
C922 C921 1.362 . S
C922 C925 1.409 . S
C923 H915 0.930 . S
C923 C924 1.355 . S
C923 C925 1.415 . S
C924 C923 1.355 . S
C924 C926 1.419 . S
C925 C920 1.425 . S
C925 C922 1.409 . S
C925 C923 1.415 . S
C926 H916 0.930 . S
C926 C924 1.419 . S
C926 C927 1.362 . S
C927 H917 0.930 . S
C927 C920 1.409 . S
C927 C926 1.362 . S
H928 C934 0.930 . S
H929 C937 0.930 . S
H930 C938 0.930 . S
H931 C939 0.930 . S
H932 C942 0.930 . S
H933 C943 0.930 . S
C934 H928 0.930 . S
C934 C935 1.355 . S
C934 C936 1.415 . S
C935 C934 1.355 . S
C935 C937 1.419 . S
C936 C934 1.415 . S
C936 C941 1.425 . S
C936 C943 1.409 . S
C937 H929 0.930 . S
C937 C935 1.419 . S
C937 C938 1.362 . S
C938 H930 0.930 . S
C938 C937 1.362 . S
C938 C941 1.409 . S
C939 H931 0.930 . S
C939 C940 1.355 . S
C939 C941 1.415 . S
C940 C939 1.355 . S
C940 C942 1.419 . S
C941 C936 1.425 . S
C941 C938 1.409 . S
C941 C939 1.415 . S
C942 H932 0.930 . S
C942 C940 1.419 . S
C942 C943 1.362 . S
C943 H933 0.930 . S
C943 C936 1.409 . S
C943 C942 1.362 . S
H944 C950 0.930 . S
H945 C953 0.930 . S
H946 C954 0.930 . S
H947 C955 0.930 . S
H948 C958 0.930 . S
H949 C959 0.930 . S
C950 H944 0.930 . S
C950 C951 1.355 . S
C950 C952 1.415 . S
C951 C950 1.355 . S
C951 C953 1.419 . S
C952 C950 1.415 . S
C952 C957 1.425 . S
C952 C959 1.409 . S
C953 H945 0.930 . S
C953 C951 1.419 . S
C953 C954 1.362 . S
C954 H946 0.930 . S
C954 C953 1.362 . S
C954 C957 1.409 . S
C955 H947 0.930 . S
C955 C956 1.355 . S
C955 C957 1.415 . S
C956 C955 1.355 . S
C956 C958 1.419 . S
C957 C952 1.425 . S
C957 C954 1.409 . S
C957 C955 1.415 . S
C958 H948 0.930 . S
C958 C956 1.419 . S
C958 C959 1.362 . S
C959 H949 0.930 . S
C959 C952 1.409 . S
C959 C958 1.362 . S
H960 C966 0.930 . S
H961 C969 0.930 . S
H962 C970 0.930 . S
H963 C971 0.930 . S
H964 C974 0.930 . S
H965 C975 0.930 . S
C966 H960 0.930 . S
C966 C967 1.355 . S
C966 C968 1.415 . S
C967 C966 1.355 . S
C967 C969 1.419 . S
C968 C966 1.415 . S
C968 C973 1.425 . S
C968 C975 1.409 . S
C969 H961 0.930 . S
C969 C967 1.419 . S
C969 C970 1.362 . S
C970 H962 0.930 . S
C970 C969 1.362 . S
C970 C973 1.409 . S
C971 H963 0.930 . S
C971 C972 1.355 . S
C971 C973 1.415 . S
C972 C971 1.355 . S
C972 C974 1.419 . S
C973 C968 1.425 . S
C973 C970 1.409 . S
C973 C971 1.415 . S
C974 H964 0.930 . S
C974 C972 1.419 . S
C974 C975 1.362 . S
C975 H965 0.930 . S
C975 C968 1.409 . S
C975 C974 1.362 . S
H976 C982 0.930 . S
H977 C985 0.930 . S
H978 C986 0.930 . S
H979 C987 0.930 . S
H980 C990 0.930 . S
H981 C991 0.930 . S
C982 H976 0.930 . S
C982 C983 1.355 . S
C982 C984 1.415 . S
C983 C982 1.355 . S
C983 C985 1.419 . S
C984 C982 1.415 . S
C984 C989 1.425 . S
C984 C991 1.409 . S
C985 H977 0.930 . S
C985 C983 1.419 . S
C985 C986 1.362 . S
C986 H978 0.930 . S
C986 C985 1.362 . S
C986 C989 1.409 . S
C987 H979 0.930 . S
C987 C988 1.355 . S
C987 C989 1.415 . S
C988 C987 1.355 . S
C988 C990 1.419 . S
C989 C984 1.425 . S
C989 C986 1.409 . S
C989 C987 1.415 . S
C990 H980 0.930 . S
C990 C988 1.419 . S
C990 C991 1.362 . S
C991 H981 0.930 . S
C991 C984 1.409 . S
C991 C990 1.362 . S
H992 C998 0.930 . S
H993 C1001 0.930 . S
H994 C1002 0.930 . S
H995 C1003 0.930 . S
H996 C1006 0.930 . S
H997 C1007 0.930 . S
C998 H992 0.930 . S
C998 C999 1.355 . S
C998 C1000 1.415 . S
C999 C998 1.355 . S
C999 C1001 1.419 . S
C1000 C998 1.415 . S
C1000 C1005 1.425 . S
C1000 C1007 1.409 . S
C1001 H993 0.930 . S
C1001 C999 1.419 . S
C1001 C1002 1.362 . S
C1002 H994 0.930 . S
C1002 C1001 1.362 . S
C1002 C1005 1.409 . S
C1003 H995 0.930 . S
C1003 C1004 1.355 . S
C1003 C1005 1.415 . S
C1004 C1003 1.355 . S
C1004 C1006 1.419 . S
C1005 C1000 1.425 . S
C1005 C1002 1.409 . S
C1005 C1003 1.415 . S
C1006 H996 0.930 . S
C1006 C1004 1.419 . S
C1006 C1007 1.362 . S
C1007 H997 0.930 . S
C1007 C1000 1.409 . S
C1007 C1006 1.362 . S
H1008 C1014 0.930 . S
H1009 C1017 0.930 . S
H1010 C1018 0.930 . S
H1011 C1019 0.930 . S
H1012 C1022 0.930 . S
H1013 C1023 0.930 . S
C1014 H1008 0.930 . S
C1014 C1015 1.355 . S
C1014 C1016 1.415 . S
C1015 C1014 1.355 . S
C1015 C1017 1.419 . S
C1016 C1014 1.415 . S
C1016 C1021 1.425 . S
C1016 C1023 1.409 . S
C1017 H1009 0.930 . S
C1017 C1015 1.419 . S
C1017 C1018 1.362 . S
C1018 H1010 0.930 . S
C1018 C1017 1.362 . S
C1018 C1021 1.409 . S
C1019 H1011 0.930 . S
C1019 C1020 1.355 . S
C1019 C1021 1.415 . S
C1020 C1019 1.355 . S
C1020 C1022 1.419 . S
C1021 C1016 1.425 . S
C1021 C1018 1.409 . S
C1021 C1019 1.415 . S
C1022 H1012 0.930 . S
C1022 C1020 1.419 . S
C1022 C1023 1.362 . S
C1023 H1013 0.930 . S
C1023 C1016 1.409 . S
C1023 C1022 1.362 . S
H1024 C1030 0.930 . S
H1025 C1033 0.930 . S
H1026 C1034 0.930 . S
H1027 C1035 0.930 . S
H1028 C1038 0.930 . S
H1029 C1039 0.930 . S
C1030 H1024 0.930 . S
C1030 C1031 1.355 . S
C1030 C1032 1.415 . S
C1031 C1030 1.355 . S
C1031 C1033 1.419 . S
C1032 C1030 1.415 . S
C1032 C1037 1.425 . S
C1032 C1039 1.409 . S
C1033 H1025 0.930 . S
C1033 C1031 1.419 . S
C1033 C1034 1.362 . S
C1034 H1026 0.930 . S
C1034 C1033 1.362 . S
C1034 C1037 1.409 . S
C1035 H1027 0.930 . S
C1035 C1036 1.355 . S
C1035 C1037 1.415 . S
C1036 C1035 1.355 . S
C1036 C1038 1.419 . S
C1037 C1032 1.425 . S
C1037 C1034 1.409 . S
C1037 C1035 1.415 . S
C1038 H1028 0.930 . S
C1038 C1036 1.419 . S
C1038 C1039 1.362 . S
C1039 H1029 0.930 . S
C1039 C1032 1.409 . S
C1039 C1038 1.362 . S
H1040 C1046 0.930 . S
H1041 C1049 0.930 . S
H1042 C1050 0.930 . S
H1043 C1051 0.930 . S
H1044 C1054 0.930 . S
H1045 C1055 0.930 . S
C1046 H1040 0.930 . S
C1046 C1047 1.355 . S
C1046 C1048 1.415 . S
C1047 C1046 1.355 . S
C1047 C1049 1.419 . S
C1048 C1046 1.415 . S
C1048 C1053 1.425 . S
C1048 C1055 1.409 . S
C1049 H1041 0.930 . S
C1049 C1047 1.419 . S
C1049 C1050 1.362 . S
C1050 H1042 0.930 . S
C1050 C1049 1.362 . S
C1050 C1053 1.409 . S
C1051 H1043 0.930 . S
C1051 C1052 1.355 . S
C1051 C1053 1.415 . S
C1052 C1051 1.355 . S
C1052 C1054 1.419 . S
C1053 C1048 1.425 . S
C1053 C1050 1.409 . S
C1053 C1051 1.415 . S
C1054 H1044 0.930 . S
C1054 C1052 1.419 . S
C1054 C1055 1.362 . S
C1055 H1045 0.930 . S
C1055 C1048 1.409 . S
C1055 C1054 1.362 . S
H1056 C1062 0.930 . S
H1057 C1065 0.930 . S
H1058 C1066 0.930 . S
H1059 C1067 0.930 . S
H1060 C1070 0.930 . S
H1061 C1071 0.930 . S
C1062 H1056 0.930 . S
C1062 C1063 1.355 . S
C1062 C1064 1.415 . S
C1063 C1062 1.355 . S
C1063 C1065 1.419 . S
C1064 C1062 1.415 . S
C1064 C1069 1.425 . S
C1064 C1071 1.409 . S
C1065 H1057 0.930 . S
C1065 C1063 1.419 . S
C1065 C1066 1.362 . S
C1066 H1058 0.930 . S
C1066 C1065 1.362 . S
C1066 C1069 1.409 . S
C1067 H1059 0.930 . S
C1067 C1068 1.355 . S
C1067 C1069 1.415 . S
C1068 C1067 1.355 . S
C1068 C1070 1.419 . S
C1069 C1064 1.425 . S
C1069 C1066 1.409 . S
C1069 C1067 1.415 . S
C1070 H1060 0.930 . S
C1070 C1068 1.419 . S
C1070 C1071 1.362 . S
C1071 H1061 0.930 . S
C1071 C1064 1.409 . S
C1071 C1070 1.362 . S
H1072 C1078 0.930 . S
H1073 C1081 0.930 . S
H1074 C1082 0.930 . S
H1075 C1083 0.930 . S
H1076 C1086 0.930 . S
H1077 C1087 0.930 . S
C1078 H1072 0.930 . S
C1078 C1079 1.355 . S
C1078 C1080 1.415 . S
C1079 C1078 1.355 . S
C1079 C1081 1.419 . S
C1080 C1078 1.415 . S
C1080 C1085 1.425 . S
C1080 C1087 1.409 . S
C1081 H1073 0.930 . S
C1081 C1079 1.419 . S
C1081 C1082 1.362 . S
C1082 H1074 0.930 . S
C1082 C1081 1.362 . S
C1082 C1085 1.409 . S
C1083 H1075 0.930 . S
C1083 C1084 1.355 . S
C1083 C1085 1.415 . S
C1084 C1083 1.355 . S
C1084 C1086 1.419 . S
C1085 C1080 1.425 . S
C1085 C1082 1.409 . S
C1085 C1083 1.415 . S
C1086 H1076 0.930 . S
C1086 C1084 1.419 . S
C1086 C1087 1.362 . S
C1087 H1077 0.930 . S
C1087 C1080 1.409 . S
C1087 C1086 1.362 . S
H1088 C1094 0.930 . S
H1089 C1097 0.930 . S
H1090 C1098 0.930 . S
H1091 C1099 0.930 . S
H1092 C1102 0.930 . S
H1093 C1103 0.930 . S
C1094 H1088 0.930 . S
C1094 C1095 1.355 . S
C1094 C1096 1.415 . S
C1095 C1094 1.355 . S
C1095 C1097 1.419 . S
C1096 C1094 1.415 . S
C1096 C1101 1.425 . S
C1096 C1103 1.409 . S
C1097 H1089 0.930 . S
C1097 C1095 1.419 . S
C1097 C1098 1.362 . S
C1098 H1090 0.930 . S
C1098 C1097 1.362 . S
C1098 C1101 1.409 . S
C1099 H1091 0.930 . S
C1099 C1100 1.355 . S
C1099 C1101 1.415 . S
C1100 C1099 1.355 . S
C1100 C1102 1.419 . S
C1101 C1096 1.425 . S
C1101 C1098 1.409 . S
C1101 C1099 1.415 . S
C1102 H1092 0.930 . S
C1102 C1100 1.419 . S
C1102 C1103 1.362 . S
C1103 H1093 0.930 . S
C1103 C1096 1.409 . S
C1103 C1102 1.362 . S
H1104 C1110 0.930 . S
H1105 C1113 0.930 . S
H1106 C1114 0.930 . S
H1107 C1115 0.930 . S
H1108 C1118 0.930 . S
H1109 C1119 0.930 . S
C1110 H1104 0.930 . S
C1110 C1111 1.355 . S
C1110 C1112 1.415 . S
C1111 C1110 1.355 . S
C1111 C1113 1.419 . S
C1112 C1110 1.415 . S
C1112 C1117 1.425 . S
C1112 C1119 1.409 . S
C1113 H1105 0.930 . S
C1113 C1111 1.419 . S
C1113 C1114 1.362 . S
C1114 H1106 0.930 . S
C1114 C1113 1.362 . S
C1114 C1117 1.409 . S
C1115 H1107 0.930 . S
C1115 C1116 1.355 . S
C1115 C1117 1.415 . S
C1116 C1115 1.355 . S
C1116 C1118 1.419 . S
C1117 C1112 1.425 . S
C1117 C1114 1.409 . S
C1117 C1115 1.415 . S
C1118 H1108 0.930 . S
C1118 C1116 1.419 . S
C1118 C1119 1.362 . S
C1119 H1109 0.930 . S
C1119 C1112 1.409 . S
C1119 C1118 1.362 . S
H1120 C1126 0.930 . S
H1121 C1129 0.930 . S
H1122 C1130 0.930 . S
H1123 C1131 0.930 . S
H1124 C1134 0.930 . S
H1125 C1135 0.930 . S
C1126 H1120 0.930 . S
C1126 C1127 1.355 . S
C1126 C1128 1.415 . S
C1127 C1126 1.355 . S
C1127 C1129 1.419 . S
C1128 C1126 1.415 . S
C1128 C1133 1.425 . S
C1128 C1135 1.409 . S
C1129 H1121 0.930 . S
C1129 C1127 1.419 . S
C1129 C1130 1.362 . S
C1130 H1122 0.930 . S
C1130 C1129 1.362 . S
C1130 C1133 1.409 . S
C1131 H1123 0.930 . S
C1131 C1132 1.355 . S
C1131 C1133 1.415 . S
C1132 C1131 1.355 . S
C1132 C1134 1.419 . S
C1133 C1128 1.425 . S
C1133 C1130 1.409 . S
C1133 C1131 1.415 . S
C1134 H1124 0.930 . S
C1134 C1132 1.419 . S
C1134 C1135 1.362 . S
C1135 H1125 0.930 . S
C1135 C1128 1.409 . S
C1135 C1134 1.362 . S
H1136 C1142 0.930 . S
H1137 C1145 0.930 . S
H1138 C1146 0.930 . S
H1139 C1147 0.930 . S
H1140 C1150 0.930 . S
H1141 C1151 0.930 . S
C1142 H1136 0.930 . S
C1142 C1143 1.355 . S
C1142 C1144 1.415 . S
C1143 C1142 1.355 . S
C1143 C1145 1.419 . S
C1144 C1142 1.415 . S
C1144 C1149 1.425 . S
C1144 C1151 1.409 . S
C1145 H1137 0.930 . S
C1145 C1143 1.419 . S
C1145 C1146 1.362 . S
C1146 H1138 0.930 . S
C1146 C1145 1.362 . S
C1146 C1149 1.409 . S
C1147 H1139 0.930 . S
C1147 C1148 1.355 . S
C1147 C1149 1.415 . S
C1148 C1147 1.355 . S
C1148 C1150 1.419 . S
C1149 C1144 1.425 . S
C1149 C1146 1.409 . S
C1149 C1147 1.415 . S
C1150 H1140 0.930 . S
C1150 C1148 1.419 . S
C1150 C1151 1.362 . S
C1151 H1141 0.930 . S
C1151 C1144 1.409 . S
C1151 C1150 1.362 . S
H1152 C1158 0.930 . S
H1153 C1161 0.930 . S
H1154 C1162 0.930 . S
H1155 C1163 0.930 . S
H1156 C1166 0.930 . S
H1157 C1167 0.930 . S
C1158 H1152 0.930 . S
C1158 C1159 1.355 . S
C1158 C1160 1.415 . S
C1159 C1158 1.355 . S
C1159 C1161 1.419 . S
C1160 C1158 1.415 . S
C1160 C1165 1.425 . S
C1160 C1167 1.409 . S
C1161 H1153 0.930 . S
C1161 C1159 1.419 . S
C1161 C1162 1.362 . S
C1162 H1154 0.930 . S
C1162 C1161 1.362 . S
C1162 C1165 1.409 . S
C1163 H1155 0.930 . S
C1163 C1164 1.355 . S
C1163 C1165 1.415 . S
C1164 C1163 1.355 . S
C1164 C1166 1.419 . S
C1165 C1160 1.425 . S
C1165 C1162 1.409 . S
C1165 C1163 1.415 . S
C1166 H1156 0.930 . S
C1166 C1164 1.419 . S
C1166 C1167 1.362 . S
C1167 H1157 0.930 . S
C1167 C1160 1.409 . S
C1167 C1166 1.362 . S
H1168 C1174 0.930 . S
H1169 C1177 0.930 . S
H1170 C1178 0.930 . S
H1171 C1179 0.930 . S
H1172 C1182 0.930 . S
H1173 C1183 0.930 . S
C1174 H1168 0.930 . S
C1174 C1175 1.355 . S
C1174 C1176 1.415 . S
C1175 C1174 1.355 . S
C1175 C1177 1.419 . S
C1176 C1174 1.415 . S
C1176 C1181 1.425 . S
C1176 C1183 1.409 . S
C1177 H1169 0.930 . S
C1177 C1175 1.419 . S
C1177 C1178 1.362 . S
C1178 H1170 0.930 . S
C1178 C1177 1.362 . S
C1178 C1181 1.409 . S
C1179 H1171 0.930 . S
C1179 C1180 1.355 . S
C1179 C1181 1.415 . S
C1180 C1179 1.355 . S
C1180 C1182 1.419 . S
C1181 C1176 1.425 . S
C1181 C1178 1.409 . S
C1181 C1179 1.415 . S
C1182 H1172 0.930 . S
C1182 C1180 1.419 . S
C1182 C1183 1.362 . S
C1183 H1173 0.930 . S
C1183 C1176 1.409 . S
C1183 C1182 1.362 . S
H1184 C1190 0.930 . S
H1185 C1193 0.930 . S
H1186 C1194 0.930 . S
H1187 C1195 0.930 . S
H1188 C1198 0.930 . S
H1189 C1199 0.930 . S
C1190 H1184 0.930 . S
C1190 C1191 1.355 . S
C1190 C1192 1.415 . S
C1191 C1190 1.355 . S
C1191 C1193 1.419 . S
C1192 C1190 1.415 . S
C1192 C1197 1.425 . S
C1192 C1199 1.409 . S
C1193 H1185 0.930 . S
C1193 C1191 1.419 . S
C1193 C1194 1.362 . S
C1194 H1186 0.930 . S
C1194 C1193 1.362 . S
C1194 C1197 1.409 . S
C1195 H1187 0.930 . S
C1195 C1196 1.355 . S
C1195 C1197 1.415 . S
C1196 C1195 1.355 . S
C1196 C1198 1.419 . S
C1197 C1192 1.425 . S
C1197 C1194 1.409 . S
C1197 C1195 1.415 . S
C1198 H1188 0.930 . S
C1198 C1196 1.419 . S
C1198 C1199 1.362 . S
C1199 H1189 0.930 . S
C1199 C1192 1.409 . S
C1199 C1198 1.362 . S
H1200 C1206 0.930 . S
H1201 C1209 0.930 . S
H1202 C1210 0.930 . S
H1203 C1211 0.930 . S
H1204 C1214 0.930 . S
H1205 C1215 0.930 . S
C1206 H1200 0.930 . S
C1206 C1207 1.355 . S
C1206 C1208 1.415 . S
C1207 C1206 1.355 . S
C1207 C1209 1.419 . S
C1208 C1206 1.415 . S
C1208 C1213 1.425 . S
C1208 C1215 1.409 . S
C1209 H1201 0.930 . S
C1209 C1207 1.419 . S
C1209 C1210 1.362 . S
C1210 H1202 0.930 . S
C1210 C1209 1.362 . S
C1210 C1213 1.409 . S
C1211 H1203 0.930 . S
C1211 C1212 1.355 . S
C1211 C1213 1.415 . S
C1212 C1211 1.355 . S
C1212 C1214 1.419 . S
C1213 C1208 1.425 . S
C1213 C1210 1.409 . S
C1213 C1211 1.415 . S
C1214 H1204 0.930 . S
C1214 C1212 1.419 . S
C1214 C1215 1.362 . S
C1215 H1205 0.930 . S
C1215 C1208 1.409 . S
C1215 C1214 1.362 . S
H1216 C1222 0.930 . S
H1217 C1225 0.930 . S
H1218 C1226 0.930 . S
H1219 C1227 0.930 . S
H1220 C1230 0.930 . S
H1221 C1231 0.930 . S
C1222 H1216 0.930 . S
C1222 C1223 1.355 . S
C1222 C1224 1.415 . S
C1223 C1222 1.355 . S
C1223 C1225 1.419 . S
C1224 C1222 1.415 . S
C1224 C1229 1.425 . S
C1224 C1231 1.409 . S
C1225 H1217 0.930 . S
C1225 C1223 1.419 . S
C1225 C1226 1.362 . S
C1226 H1218 0.930 . S
C1226 C1225 1.362 . S
C1226 C1229 1.409 . S
C1227 H1219 0.930 . S
C1227 C1228 1.355 . S
C1227 C1229 1.415 . S
C1228 C1227 1.355 . S
C1228 C1230 1.419 . S
C1229 C1224 1.425 . S
C1229 C1226 1.409 . S
C1229 C1227 1.415 . S
C1230 H1220 0.930 . S
C1230 C1228 1.419 . S
C1230 C1231 1.362 . S
C1231 H1221 0.930 . S
C1231 C1224 1.409 . S
C1231 C1230 1.362 . S
H1232 C1238 0.930 . S
H1233 C1241 0.930 . S
H1234 C1242 0.930 . S
H1235 C1243 0.930 . S
H1236 C1246 0.930 . S
H1237 C1247 0.930 . S
C1238 H1232 0.930 . S
C1238 C1239 1.355 . S
C1238 C1240 1.415 . S
C1239 C1238 1.355 . S
C1239 C1241 1.419 . S
C1240 C1238 1.415 . S
C1240 C1245 1.425 . S
C1240 C1247 1.409 . S
C1241 H1233 0.930 . S
C1241 C1239 1.419 . S
C1241 C1242 1.362 . S
C1242 H1234 0.930 . S
C1242 C1241 1.362 . S
C1242 C1245 1.409 . S
C1243 H1235 0.930 . S
C1243 C1244 1.355 . S
C1243 C1245 1.415 . S
C1244 C1243 1.355 . S
C1244 C1246 1.419 . S
C1245 C1240 1.425 . S
C1245 C1242 1.409 . S
C1245 C1243 1.415 . S
C1246 H1236 0.930 . S
C1246 C1244 1.419 . S
C1246 C1247 1.362 . S
C1247 H1237 0.930 . S
C1247 C1240 1.409 . S
C1247 C1246 1.362 . S
H1248 C1254 0.930 . S
H1249 C1257 0.930 . S
H1250 C1258 0.930 . S
H1251 C1259 0.930 . S
H1252 C1262 0.930 . S
H1253 C1263 0.930 . S
C1254 H1248 0.930 . S
C1254 C1255 1.355 . S
C1254 C1256 1.415 . S
C1255 C1254 1.355 . S
C1255 C1257 1.419 . S
C1256 C1254 1.415 . S
C1256 C1261 1.425 . S
C1256 C1263 1.409 . S
C1257 H1249 0.930 . S
C1257 C1255 1.419 . S
C1257 C1258 1.362 . S
C1258 H1250 0.930 . S
C1258 C1257 1.362 . S
C1258 C1261 1.409 . S
C1259 H1251 0.930 . S
C1259 C1260 1.355 . S
C1259 C1261 1.415 . S
C1260 C1259 1.355 . S
C1260 C1262 1.419 . S
C1261 C1256 1.425 . S
C1261 C1258 1.409 . S
C1261 C1259 1.415 . S
C1262 H1252 0.930 . S
C1262 C1260 1.419 . S
C1262 C1263 1.362 . S
C1263 H1253 0.930 . S
C1263 C1256 1.409 . S
C1263 C1262 1.362 . S
H1264 C1270 0.930 . S
H1265 C1273 0.930 . S
H1266 C1274 0.930 . S
H1267 C1275 0.930 . S
H1268 C1278 0.930 . S
H1269 C1279 0.930 . S
C1270 H1264 0.930 . S
C1270 C1271 1.355 . S
C1270 C1272 1.415 . S
C1271 C1270 1.355 . S
C1271 C1273 1.419 . S
C1272 C1270 1.415 . S
C1272 C1277 1.425 . S
C1272 C1279 1.409 . S
C1273 H1265 0.930 . S
C1273 C1271 1.419 . S
C1273 C1274 1.362 . S
C1274 H1266 0.930 . S
C1274 C1273 1.362 . S
C1274 C1277 1.409 . S
C1275 H1267 0.930 . S
C1275 C1276 1.355 . S
C1275 C1277 1.415 . S
C1276 C1275 1.355 . S
C1276 C1278 1.419 . S
C1277 C1272 1.425 . S
C1277 C1274 1.409 . S
C1277 C1275 1.415 . S
C1278 H1268 0.930 . S
C1278 C1276 1.419 . S
C1278 C1279 1.362 . S
C1279 H1269 0.930 . S
C1279 C1272 1.409 . S
C1279 C1278 1.362 . S
H1280 C1286 0.930 . S
H1281 C1289 0.930 . S
H1282 C1290 0.930 . S
H1283 C1291 0.930 . S
H1284 C1294 0.930 . S
H1285 C1295 0.930 . S
C1286 H1280 0.930 . S
C1286 C1287 1.355 . S
C1286 C1288 1.415 . S
C1287 C1286 1.355 . S
C1287 C1289 1.419 . S
C1288 C1286 1.415 . S
C1288 C1293 1.425 . S
C1288 C1295 1.409 . S
C1289 H1281 0.930 . S
C1289 C1287 1.419 . S
C1289 C1290 1.362 . S
C1290 H1282 0.930 . S
C1290 C1289 1.362 . S
C1290 C1293 1.409 . S
C1291 H1283 0.930 . S
C1291 C1292 1.355 . S
C1291 C1293 1.415 . S
C1292 C1291 1.355 . S
C1292 C1294 1.419 . S
C1293 C1288 1.425 . S
C1293 C1290 1.409 . S
C1293 C1291 1.415 . S
C1294 H1284 0.930 . S
C1294 C1292 1.419 . S
C1294 C1295 1.362 . S
C1295 H1285 0.930 . S
C1295 C1288 1.409 . S
C1295 C1294 1.362 . S
H1296 C1302 0.930 . S
H1297 C1305 0.930 . S
H1298 C1306 0.930 . S
H1299 C1307 0.930 . S
H1300 C1310 0.930 . S
H1301 C1311 0.930 . S
C1302 H1296 0.930 . S
C1302 C1303 1.355 . S
C1302 C1304 1.415 . S
C1303 C1302 1.355 . S
C1303 C1305 1.419 . S
C1304 C1302 1.415 . S
C1304 C1309 1.425 . S
C1304 C1311 1.409 . S
C1305 H1297 0.930 . S
C1305 C1303 1.419 . S
C1305 C1306 1.362 . S
C1306 H1298 0.930 . S
C1306 C1305 1.362 . S
C1306 C1309 1.409 . S
C1307 H1299 0.930 . S
C1307 C1308 1.355 . S
C1307 C1309 1.415 . S
C1308 C1307 1.355 . S
C1308 C1310 1.419 . S
C1309 C1304 1.425 . S
C1309 C1306 1.409 . S
C1309 C1307 1.415 . S
C1310 H1300 0.930 . S
C1310 C1308 1.419 . S
C1310 C1311 1.362 . S
C1311 H1301 0.930 . S
C1311 C1304 1.409 . S
C1311 C1310 1.362 . S
H1312 C1318 0.930 . S
H1313 C1321 0.930 . S
H1314 C1322 0.930 . S
H1315 C1323 0.930 . S
H1316 C1326 0.930 . S
H1317 C1327 0.930 . S
C1318 H1312 0.930 . S
C1318 C1319 1.355 . S
C1318 C1320 1.415 . S
C1319 C1318 1.355 . S
C1319 C1321 1.419 . S
C1320 C1318 1.415 . S
C1320 C1325 1.425 . S
C1320 C1327 1.409 . S
C1321 H1313 0.930 . S
C1321 C1319 1.419 . S
C1321 C1322 1.362 . S
C1322 H1314 0.930 . S
C1322 C1321 1.362 . S
C1322 C1325 1.409 . S
C1323 H1315 0.930 . S
C1323 C1324 1.355 . S
C1323 C1325 1.415 . S
C1324 C1323 1.355 . S
C1324 C1326 1.419 . S
C1325 C1320 1.425 . S
C1325 C1322 1.409 . S
C1325 C1323 1.415 . S
C1326 H1316 0.930 . S
C1326 C1324 1.419 . S
C1326 C1327 1.362 . S
C1327 H1317 0.930 . S
C1327 C1320 1.409 . S
C1327 C1326 1.362 . S
H1328 C1334 0.930 . S
H1329 C1337 0.930 . S
H1330 C1338 0.930 . S
H1331 C1339 0.930 . S
H1332 C1342 0.930 . S
H1333 C1343 0.930 . S
C1334 H1328 0.930 . S
C1334 C1335 1.355 . S
C1334 C1336 1.415 . S
C1335 C1334 1.355 . S
C1335 C1337 1.419 . S
C1336 C1334 1.415 . S
C1336 C1341 1.425 . S
C1336 C1343 1.409 . S
C1337 H1329 0.930 . S
C1337 C1335 1.419 . S
C1337 C1338 1.362 . S
C1338 H1330 0.930 . S
C1338 C1337 1.362 . S
C1338 C1341 1.409 . S
C1339 H1331 0.930 . S
C1339 C1340 1.355 . S
C1339 C1341 1.415 . S
C1340 C1339 1.355 . S
C1340 C1342 1.419 . S
C1341 C1336 1.425 . S
C1341 C1338 1.409 . S
C1341 C1339 1.415 . S
C1342 H1332 0.930 . S
C1342 C1340 1.419 . S
C1342 C1343 1.362 . S
C1343 H1333 0.930 . S
C1343 C1336 1.409 . S
C1343 C1342 1.362 . S
H1344 C1350 0.930 . S
H1345 C1353 0.930 . S
H1346 C1354 0.930 . S
H1347 C1355 0.930 . S
H1348 C1358 0.930 . S
H1349 C1359 0.930 . S
C1350 H1344 0.930 . S
C1350 C1351 1.355 . S
C1350 C1352 1.415 . S
C1351 C1350 1.355 . S
C1351 C1353 1.419 . S
C1352 C1350 1.415 . S
C1352 C1357 1.425 . S
C1352 C1359 1.409 . S
C1353 H1345 0.930 . S
C1353 C1351 1.419 . S
C1353 C1354 1.362 . S
C1354 H1346 0.930 . S
C1354 C1353 1.362 . S
C1354 C1357 1.409 . S
C1355 H1347 0.930 . S
C1355 C1356 1.355 . S
C1355 C1357 1.415 . S
C1356 C1355 1.355 . S
C1356 C1358 1.419 . S
C1357 C1352 1.425 . S
C1357 C1354 1.409 . S
C1357 C1355 1.415 . S
C1358 H1348 0.930 . S
C1358 C1356 1.419 . S
C1358 C1359 1.362 . S
C1359 H1349 0.930 . S
C1359 C1352 1.409 . S
C1359 C1358 1.362 . S
H1360 C1366 0.930 . S
H1361 C1369 0.930 . S
H1362 C1370 0.930 . S
H1363 C1371 0.930 . S
H1364 C1374 0.930 . S
H1365 C1375 0.930 . S
C1366 H1360 0.930 . S
C1366 C1367 1.355 . S
C1366 C1368 1.415 . S
C1367 C1366 1.355 . S
C1367 C1369 1.419 . S
C1368 C1366 1.415 . S
C1368 C1373 1.425 . S
C1368 C1375 1.409 . S
C1369 H1361 0.930 . S
C1369 C1367 1.419 . S
C1369 C1370 1.362 . S
C1370 H1362 0.930 . S
C1370 C1369 1.362 . S
C1370 C1373 1.409 . S
C1371 H1363 0.930 . S
C1371 C1372 1.355 . S
C1371 C1373 1.415 . S
C1372 C1371 1.355 . S
C1372 C1374 1.419 . S
C1373 C1368 1.425 . S
C1373 C1370 1.409 . S
C1373 C1371 1.415 . S
C1374 H1364 0.930 . S
C1374 C1372 1.419 . S
C1374 C1375 1.362 . S
C1375 H1365 0.930 . S
C1375 C1368 1.409 . S
C1375 C1374 1.362 . S
H1376 C1382 0.930 . S
H1377 C1385 0.930 . S
H1378 C1386 0.930 . S
H1379 C1387 0.930 . S
H1380 C1390 0.930 . S
H1381 C1391 0.930 . S
C1382 H1376 0.930 . S
C1382 C1383 1.355 . S
C1382 C1384 1.415 . S
C1383 C1382 1.355 . S
C1383 C1385 1.419 . S
C1384 C1382 1.415 . S
C1384 C1389 1.425 . S
C1384 C1391 1.409 . S
C1385 H1377 0.930 . S
C1385 C1383 1.419 . S
C1385 C1386 1.362 . S
C1386 H1378 0.930 . S
C1386 C1385 1.362 . S
C1386 C1389 1.409 . S
C1387 H1379 0.930 . S
C1387 C1388 1.355 . S
C1387 C1389 1.415 . S
C1388 C1387 1.355 . S
C1388 C1390 1.419 . S
C1389 C1384 1.425 . S
C1389 C1386 1.409 . S
C1389 C1387 1.415 . S
C1390 H1380 0.930 . S
C1390 C1388 1.419 . S
C1390 C1391 1.362 . S
C1391 H1381 0.930 . S
C1391 C1384 1.409 . S
C1391 C1390 1.362 . S
H1392 C1398 0.930 . S
H1393 C1401 0.930 . S
H1394 C1402 0.930 . S
H1395 C1403 0.930 . S
H1396 C1406 0.930 . S
H1397 C1407 0.930 . S
C1398 H1392 0.930 . S
C1398 C1399 1.355 . S
C1398 C1400 1.415 . S
C1399 C1398 1.355 . S
C1399 C1401 1.419 . S
C1400 C1398 1.415 . S
C1400 C1405 1.425 . S
C1400 C1407 1.409 . S
C1401 H1393 0.930 . S
C1401 C1399 1.419 . S
C1401 C1402 1.362 . S
C1402 H1394 0.930 . S
C1402 C1401 1.362 . S
C1402 C1405 1.409 . S
C1403 H1395 0.930 . S
C1403 C1404 1.355 . S
C1403 C1405 1.415 . S
C1404 C1403 1.355 . S
C1404 C1406 1.419 . S
C1405 C1400 1.425 . S
C1405 C1402 1.409 . S
C1405 C1403 1.415 . S
C1406 H1396 0.930 . S
C1406 C1404 1.419 . S
C1406 C1407 1.362 . S
C1407 H1397 0.930 . S
C1407 C1400 1.409 . S
C1407 C1406 1.362 . S
H1408 C1414 0.930 . S
H1409 C1417 0.930 . S
H1410 C1418 0.930 . S
H1411 C1419 0.930 . S
H1412 C1422 0.930 . S
H1413 C1423 0.930 . S
C1414 H1408 0.930 . S
C1414 C1415 1.355 . S
C1414 C1416 1.415 . S
C1415 C1414 1.355 . S
C1415 C1417 1.419 . S
C1416 C1414 1.415 . S
C1416 C1421 1.425 . S
C1416 C1423 1.409 . S
C1417 H1409 0.930 . S
C1417 C1415 1.419 . S
C1417 C1418 1.362 . S
C1418 H1410 0.930 . S
C1418 C1417 1.362 . S
C1418 C1421 1.409 . S
C1419 H1411 0.930 . S
C1419 C1420 1.355 . S
C1419 C1421 1.415 . S
C1420 C1419 1.355 . S
C1420 C1422 1.419 . S
C1421 C1416 1.425 . S
C1421 C1418 1.409 . S
C1421 C1419 1.415 . S
C1422 H1412 0.930 . S
C1422 C1420 1.419 . S
C1422 C1423 1.362 . S
C1423 H1413 0.930 . S
C1423 C1416 1.409 . S
C1423 C1422 1.362 . S
H1424 C1430 0.930 . S
H1425 C1433 0.930 . S
H1426 C1434 0.930 . S
H1427 C1435 0.930 . S
H1428 C1438 0.930 . S
H1429 C1439 0.930 . S
C1430 H1424 0.930 . S
C1430 C1431 1.355 . S
C1430 C1432 1.415 . S
C1431 C1430 1.355 . S
C1431 C1433 1.419 . S
C1432 C1430 1.415 . S
C1432 C1437 1.425 . S
C1432 C1439 1.409 . S
C1433 H1425 0.930 . S
C1433 C1431 1.419 . S
C1433 C1434 1.362 . S
C1434 H1426 0.930 . S
C1434 C1433 1.362 . S
C1434 C1437 1.409 . S
C1435 H1427 0.930 . S
C1435 C1436 1.355 . S
C1435 C1437 1.415 . S
C1436 C1435 1.355 . S
C1436 C1438 1.419 . S
C1437 C1432 1.425 . S
C1437 C1434 1.409 . S
C1437 C1435 1.415 . S
C1438 H1428 0.930 . S
C1438 C1436 1.419 . S
C1438 C1439 1.362 . S
C1439 H1429 0.930 . S
C1439 C1432 1.409 . S
C1439 C1438 1.362 . S
H1440 C1446 0.930 . S
H1441 C1449 0.930 . S
H1442 C1450 0.930 . S
H1443 C1451 0.930 . S
H1444 C1454 0.930 . S
H1445 C1455 0.930 . S
C1446 H1440 0.930 . S
C1446 C1447 1.355 . S
C1446 C1448 1.415 . S
C1447 C1446 1.355 . S
C1447 C1449 1.419 . S
C1448 C1446 1.415 . S
C1448 C1453 1.425 . S
C1448 C1455 1.409 . S
C1449 H1441 0.930 . S
C1449 C1447 1.419 . S
C1449 C1450 1.362 . S
C1450 H1442 0.930 . S
C1450 C1449 1.362 . S
C1450 C1453 1.409 . S
C1451 H1443 0.930 . S
C1451 C1452 1.355 . S
C1451 C1453 1.415 . S
C1452 C1451 1.355 . S
C1452 C1454 1.419 . S
C1453 C1448 1.425 . S
C1453 C1450 1.409 . S
C1453 C1451 1.415 . S
C1454 H1444 0.930 . S
C1454 C1452 1.419 . S
C1454 C1455 1.362 . S
C1455 H1445 0.930 . S
C1455 C1448 1.409 . S
C1455 C1454 1.362 . S
H1456 C1462 0.930 . S
H1457 C1465 0.930 . S
H1458 C1466 0.930 . S
H1459 C1467 0.930 . S
H1460 C1470 0.930 . S
H1461 C1471 0.930 . S
C1462 H1456 0.930 . S
C1462 C1463 1.355 . S
C1462 C1464 1.415 . S
C1463 C1462 1.355 . S
C1463 C1465 1.419 . S
C1464 C1462 1.415 . S
C1464 C1469 1.425 . S
C1464 C1471 1.409 . S
C1465 H1457 0.930 . S
C1465 C1463 1.419 . S
C1465 C1466 1.362 . S
C1466 H1458 0.930 . S
C1466 C1465 1.362 . S
C1466 C1469 1.409 . S
C1467 H1459 0.930 . S
C1467 C1468 1.355 . S
C1467 C1469 1.415 . S
C1468 C1467 1.355 . S
C1468 C1470 1.419 . S
C1469 C1464 1.425 . S
C1469 C1466 1.409 . S
C1469 C1467 1.415 . S
C1470 H1460 0.930 . S
C1470 C1468 1.419 . S
C1470 C1471 1.362 . S
C1471 H1461 0.930 . S
C1471 C1464 1.409 . S
C1471 C1470 1.362 . S
H1472 C1478 0.930 . S
H1473 C1481 0.930 . S
H1474 C1482 0.930 . S
H1475 C1483 0.930 . S
H1476 C1486 0.930 . S
H1477 C1487 0.930 . S
C1478 H1472 0.930 . S
C1478 C1479 1.355 . S
C1478 C1480 1.415 . S
C1479 C1478 1.355 . S
C1479 C1481 1.419 . S
C1480 C1478 1.415 . S
C1480 C1485 1.425 . S
C1480 C1487 1.409 . S
C1481 H1473 0.930 . S
C1481 C1479 1.419 . S
C1481 C1482 1.362 . S
C1482 H1474 0.930 . S
C1482 C1481 1.362 . S
C1482 C1485 1.409 . S
C1483 H1475 0.930 . S
C1483 C1484 1.355 . S
C1483 C1485 1.415 . S
C1484 C1483 1.355 . S
C1484 C1486 1.419 . S
C1485 C1480 1.425 . S
C1485 C1482 1.409 . S
C1485 C1483 1.415 . S
C1486 H1476 0.930 . S
C1486 C1484 1.419 . S
C1486 C1487 1.362 . S
C1487 H1477 0.930 . S
C1487 C1480 1.409 . S
C1487 C1486 1.362 . S
H1488 C1494 0.930 . S
H1489 C1497 0.930 . S
H1490 C1498 0.930 . S
H1491 C1499 0.930 . S
H1492 C1502 0.930 . S
H1493 C1503 0.930 . S
C1494 H1488 0.930 . S
C1494 C1495 1.355 . S
C1494 C1496 1.415 . S
C1495 C1494 1.355 . S
C1495 C1497 1.419 . S
C1496 C1494 1.415 . S
C1496 C1501 1.425 . S
C1496 C1503 1.409 . S
C1497 H1489 0.930 . S
C1497 C1495 1.419 . S
C1497 C1498 1.362 . S
C1498 H1490 0.930 . S
C1498 C1497 1.362 . S
C1498 C1501 1.409 . S
C1499 H1491 0.930 . S
C1499 C1500 1.355 . S
C1499 C1501 1.415 . S
C1500 C1499 1.355 . S
C1500 C1502 1.419 . S
C1501 C1496 1.425 . S
C1501 C1498 1.409 . S
C1501 C1499 1.415 . S
C1502 H1492 0.930 . S
C1502 C1500 1.419 . S
C1502 C1503 1.362 . S
C1503 H1493 0.930 . S
C1503 C1496 1.409 . S
C1503 C1502 1.362 . S
H1504 C1510 0.930 . S
H1505 C1513 0.930 . S
H1506 C1514 0.930 . S
H1507 C1515 0.930 . S
H1508 C1518 0.930 . S
H1509 C1519 0.930 . S
C1510 H1504 0.930 . S
C1510 C1511 1.355 . S
C1510 C1512 1.415 . S
C1511 C1510 1.355 . S
C1511 C1513 1.419 . S
C1512 C1510 1.415 . S
C1512 C1517 1.425 . S
C1512 C1519 1.409 . S
C1513 H1505 0.930 . S
C1513 C1511 1.419 . S
C1513 C1514 1.362 . S
C1514 H1506 0.930 . S
C1514 C1513 1.362 . S
C1514 C1517 1.409 . S
C1515 H1507 0.930 . S
C1515 C1516 1.355 . S
C1515 C1517 1.415 . S
C1516 C1515 1.355 . S
C1516 C1518 1.419 . S
C1517 C1512 1.425 . S
C1517 C1514 1.409 . S
C1517 C1515 1.415 . S
C1518 H1508 0.930 . S
C1518 C1516 1.419 . S
C1518 C1519 1.362 . S
C1519 H1509 0.930 . S
C1519 C1512 1.409 . S
C1519 C1518 1.362 . S
H1520 C1526 0.930 . S
H1521 C1529 0.930 . S
H1522 C1530 0.930 . S
H1523 C1531 0.930 . S
H1524 C1534 0.930 . S
H1525 C1535 0.930 . S
C1526 H1520 0.930 . S
C1526 C1527 1.355 . S
C1526 C1528 1.415 . S
C1527 C1526 1.355 . S
C1527 C1529 1.419 . S
C1528 C1526 1.415 . S
C1528 C1533 1.425 . S
C1528 C1535 1.409 . S
C1529 H1521 0.930 . S
C1529 C1527 1.419 . S
C1529 C1530 1.362 . S
C1530 H1522 0.930 . S
C1530 C1529 1.362 . S
C1530 C1533 1.409 . S
C1531 H1523 0.930 . S
C1531 C1532 1.355 . S
C1531 C1533 1.415 . S
C1532 C1531 1.355 . S
C1532 C1534 1.419 . S
C1533 C1528 1.425 . S
C1533 C1530 1.409 . S
C1533 C1531 1.415 . S
C1534 H1524 0.930 . S
C1534 C1532 1.419 . S
C1534 C1535 1.362 . S
C1535 H1525 0.930 . S
C1535 C1528 1.409 . S
C1535 C1534 1.362 . S
H1536 C1542 0.930 . S
H1537 C1545 0.930 . S
H1538 C1546 0.930 . S
H1539 C1547 0.930 . S
H1540 C1550 0.930 . S
H1541 C1551 0.930 . S
C1542 H1536 0.930 . S
C1542 C1543 1.355 . S
C1542 C1544 1.415 . S
C1543 C1542 1.355 . S
C1543 C1545 1.419 . S
C1544 C1542 1.415 . S
C1544 C1549 1.425 . S
C1544 C1551 1.409 . S
C1545 H1537 0.930 . S
C1545 C1543 1.419 . S
C1545 C1546 1.362 . S
C1546 H1538 0.930 . S
C1546 C1545 1.362 . S
C1546 C1549 1.409 . S
C1547 H1539 0.930 . S
C1547 C1548 1.355 . S
C1547 C1549 1.415 . S
C1548 C1547 1.355 . S
C1548 C1550 1.419 . S
C1549 C1544 1.425 . S
C1549 C1546 1.409 . S
C1549 C1547 1.415 . S
C1550 H1540 0.930 . S
C1550 C1548 1.419 . S
C1550 C1551 1.362 . S
C1551 H1541 0.930 . S
C1551 C1544 1.409 . S
C1551 C1550 1.362 . S
H1552 C1558 0.930 . S
H1553 C1561 0.930 . S
H1554 C1562 0.930 . S
H1555 C1563 0.930 . S
H1556 C1566 0.930 . S
H1557 C1567 0.930 . S
C1558 H1552 0.930 . S
C1558 C1559 1.355 . S
C1558 C1560 1.415 . S
C1559 C1558 1.355 . S
C1559 C1561 1.419 . S
C1560 C1558 1.415 . S
C1560 C1565 1.425 . S
C1560 C1567 1.409 . S
C1561 H1553 0.930 . S
C1561 C1559 1.419 . S
C1561 C1562 1.362 . S
C1562 H1554 0.930 . S
C1562 C1561 1.362 . S
C1562 C1565 1.409 . S
C1563 H1555 0.930 . S
C1563 C1564 1.355 . S
C1563 C1565 1.415 . S
C1564 C1563 1.355 . S
C1564 C1566 1.419 . S
C1565 C1560 1.425 . S
C1565 C1562 1.409 . S
C1565 C1563 1.415 . S
C1566 H1556 0.930 . S
C1566 C1564 1.419 . S
C1566 C1567 1.362 . S
C1567 H1557 0.930 . S
C1567 C1560 1.409 . S
C1567 C1566 1.362 . S
H1568 C1574 0.930 . S
H1569 C1577 0.930 . S
H1570 C1578 0.930 . S
H1571 C1579 0.930 . S
H1572 C1582 0.930 . S
H1573 C1583 0.930 . S
C1574 H1568 0.930 . S
C1574 C1575 1.355 . S
C1574 C1576 1.415 . S
C1575 C1574 1.355 . S
C1575 C1577 1.419 . S
C1576 C1574 1.415 . S
C1576 C1581 1.425 . S
C1576 C1583 1.409 . S
C1577 H1569 0.930 . S
C1577 C1575 1.419 . S
C1577 C1578 1.362 . S
C1578 H1570 0.930 . S
C1578 C1577 1.362 . S
C1578 C1581 1.409 . S
C1579 H1571 0.930 . S
C1579 C1580 1.355 . S
C1579 C1581 1.415 . S
C1580 C1579 1.355 . S
C1580 C1582 1.419 . S
C1581 C1576 1.425 . S
C1581 C1578 1.409 . S
C1581 C1579 1.415 . S
C1582 H1572 0.930 . S
C1582 C1580 1.419 . S
C1582 C1583 1.362 . S
C1583 H1573 0.930 . S
C1583 C1576 1.409 . S
C1583 C1582 1.362 . S
H1584 C1590 0.930 . S
H1585 C1593 0.930 . S
H1586 C1594 0.930 . S
H1587 C1595 0.930 . S
H1588 C1598 0.930 . S
H1589 C1599 0.930 . S
C1590 H1584 0.930 . S
C1590 C1591 1.355 . S
C1590 C1592 1.415 . S
C1591 C1590 1.355 . S
C1591 C1593 1.419 . S
C1592 C1590 1.415 . S
C1592 C1597 1.425 . S
C1592 C1599 1.409 . S
C1593 H1585 0.930 . S
C1593 C1591 1.419 . S
C1593 C1594 1.362 . S
C1594 H1586 0.930 . S
C1594 C1593 1.362 . S
C1594 C1597 1.409 . S
C1595 H1587 0.930 . S
C1595 C1596 1.355 . S
C1595 C1597 1.415 . S
C1596 C1595 1.355 . S
C1596 C1598 1.419 . S
C1597 C1592 1.425 . S
C1597 C1594 1.409 . S
C1597 C1595 1.415 . S
C1598 H1588 0.930 . S
C1598 C1596 1.419 . S
C1598 C1599 1.362 . S
C1599 H1589 0.930 . S
C1599 C1592 1.409 . S
C1599 C1598 1.362 . S
H1600 C1606 0.930 . S
H1601 C1609 0.930 . S
H1602 C1610 0.930 . S
H1603 C1611 0.930 . S
H1604 C1614 0.930 . S
H1605 C1615 0.930 . S
C1606 H1600 0.930 . S
C1606 C1607 1.355 . S
C1606 C1608 1.415 . S
C1607 C1606 1.355 . S
C1607 C1609 1.419 . S
C1608 C1606 1.415 . S
C1608 C1613 1.425 . S
C1608 C1615 1.409 . S
C1609 H1601 0.930 . S
C1609 C1607 1.419 . S
C1609 C1610 1.362 . S
C1610 H1602 0.930 . S
C1610 C1609 1.362 . S
C1610 C1613 1.409 . S
C1611 H1603 0.930 . S
C1611 C1612 1.355 . S
C1611 C1613 1.415 . S
C1612 C1611 1.355 . S
C1612 C1614 1.419 . S
C1613 C1608 1.425 . S
C1613 C1610 1.409 . S
C1613 C1611 1.415 . S
C1614 H1604 0.930 . S
C1614 C1612 1.419 . S
C1614 C1615 1.362 . S
C1615 H1605 0.930 . S
C1615 C1608 1.409 . S
C1615 C1614 1.362 . S
H1616 C1622 0.930 . S
H1617 C1625 0.930 . S
H1618 C1626 0.930 . S
H1619 C1627 0.930 . S
H1620 C1630 0.930 . S
H1621 C1631 0.930 . S
C1622 H1616 0.930 . S
C1622 C1623 1.355 . S
C1622 C1624 1.415 . S
C1623 C1622 1.355 . S
C1623 C1625 1.419 . S
C1624 C1622 1.415 . S
C1624 C1629 1.425 . S
C1624 C1631 1.409 . S
C1625 H1617 0.930 . S
C1625 C1623 1.419 . S
C1625 C1626 1.362 . S
C1626 H1618 0.930 . S
C1626 C1625 1.362 . S
C1626 C1629 1.409 . S
C1627 H1619 0.930 . S
C1627 C1628 1.355 . S
C1627 C1629 1.415 . S
C1628 C1627 1.355 . S
C1628 C1630 1.419 . S
C1629 C1624 1.425 . S
C1629 C1626 1.409 . S
C1629 C1627 1.415 . S
C1630 H1620 0.930 . S
C1630 C1628 1.419 . S
C1630 C1631 1.362 . S
C1631 H1621 0.930 . S
C1631 C1624 1.409 . S
C1631 C1630 1.362 . S
C876 C689 1.704 . S
C871 C74 1.654 . S
C892 C694 1.188 . S
C887 C153 1.105 . S
C908 C695 1.626 . S
C903 C231 1.631 . S
C919 C310 0.966 . S
C924 C699 0.749 . S
C935 C394 1.115 . S
C940 C702 1.234 . S
C956 C703 1.657 . S
C951 C494 1.615 . S
C967 C573 0.964 . S
C972 C680 0.747 . S
C983 C651 1.646 . S
C988 C696 1.705 . S
C1004 C734 2.348 . S
C999 C56 2.448 . S
C1015 C151 1.606 . S
C1020 C760 1.556 . S
C1036 C712 1.218 . S
C1031 C237 1.117 . S
C1052 C767 1.567 . S
C1047 C326 1.550 . S
C1063 C410 1.592 . S
C1068 C721 1.598 . S
C1084 C763 2.345 . S
C1079 C476 2.435 . S
C1095 C571 1.630 . S
C1100 C727 1.590 . S
C1111 C657 1.113 . S
C1116 C758 1.203 . S
C1127 C58 1.113 . S
C1132 C766 1.193 . S
C1143 C392 1.606 . S
C1148 C753 1.543 . S
C1164 C731 1.233 . S
C1159 C478 1.122 . S
C1180 C759 1.568 . S
C1175 C567 1.548 . S
C1191 C655 2.448 . S
C1196 C726 2.346 . S
C1207 C235 2.438 . S
C1212 C744 2.325 . S
C1228 C735 1.571 . S
C1223 C308 1.628 . S
C1239 C147 1.588 . S
C1244 C728 1.572 . S
C1255 C662 1.617 . S
C1260 C790 1.580 . S
C1271 C405 1.195 . S
C1276 C785 1.162 . S
C1292 C799 1.545 . S
C1287 C483 1.617 . S
C1308 C776 0.342 . S
C1303 C562 0.798 . S
C1319 C142 1.135 . S
C1324 C792 1.198 . S
C1340 C791 1.519 . S
C1335 C242 1.577 . S
C1351 C321 0.992 . S
C1356 C795 0.532 . S
C1367 C63 1.637 . S
C1372 C798 1.627 . S
C1383 C644 2.459 . S
C1388 C824 2.409 . S
C1404 C840 1.515 . S
C1399 C403 1.605 . S
C1415 C489 1.235 . S
C1420 C822 1.247 . S
C1431 C578 1.564 . S
C1436 C855 1.611 . S
C1452 C831 1.592 . S
C1447 C158 1.583 . S
C1463 C224 2.472 . S
C1468 C849 2.414 . S
C1484 C827 1.499 . S
C1479 C319 1.594 . S
C1500 C862 1.279 . S
C1495 C69 1.134 . S
C1516 C854 1.196 . S
C1511 C646 1.250 . S
C1527 C140 1.609 . S
C1532 C859 1.559 . S
C1543 C226 1.151 . S
C1548 C830 1.215 . S
C1564 C863 1.579 . S
C1559 C315 1.597 . S
C1575 C67 2.463 . S
C1580 C817 2.401 . S
C1591 C487 2.468 . S
C1596 C856 2.379 . S
C1612 C808 1.477 . S
C1607 C560 1.589 . S
C1628 C823 1.592 . S
C1623 C399 1.581 . S
