# Generated by pormake.
# Topology ctn, (3,4)-cn, num edge types: 1
# Building blocks:
#     Node 0, Type 0, BuildingBlock: OLANEW_clean_sbu_2, # of connection points: 3
#     Node 1, Type 0, BuildingBlock: OLANEW_clean_sbu_2, # of connection points: 3
#     Node 2, Type 0, BuildingBlock: OLANEW_clean_sbu_2, # of connection points: 3
#     Node 3, Type 0, BuildingBlock: OLANEW_clean_sbu_2, # of connection points: 3
#     Node 4, Type 0, BuildingBlock: OLANEW_clean_sbu_2, # of connection points: 3
#     Node 5, Type 0, BuildingBlock: OLANEW_clean_sbu_2, # of connection points: 3
#     Node 6, Type 0, BuildingBlock: OLANEW_clean_sbu_2, # of connection points: 3
#     Node 7, Type 0, BuildingBlock: OLANEW_clean_sbu_2, # of connection points: 3
#     Node 8, Type 0, BuildingBlock: OLANEW_clean_sbu_2, # of connection points: 3
#     Node 9, Type 0, BuildingBlock: OLANEW_clean_sbu_2, # of connection points: 3
#     Node 10, Type 0, BuildingBlock: OLANEW_clean_sbu_2, # of connection points: 3
#     Node 11, Type 0, BuildingBlock: OLANEW_clean_sbu_2, # of connection points: 3
#     Node 12, Type 0, BuildingBlock: OLANEW_clean_sbu_2, # of connection points: 3
#     Node 13, Type 0, BuildingBlock: OLANEW_clean_sbu_2, # of connection points: 3
#     Node 14, Type 0, BuildingBlock: OLANEW_clean_sbu_2, # of connection points: 3
#     Node 15, Type 0, BuildingBlock: OLANEW_clean_sbu_2, # of connection points: 3
#     Node 16, Type 1, BuildingBlock: KUFVIS_clean_sbu_0, # of connection points: 4
#     Node 17, Type 1, BuildingBlock: KUFVIS_clean_sbu_0, # of connection points: 4
#     Node 18, Type 1, BuildingBlock: KUFVIS_clean_sbu_0, # of connection points: 4
#     Node 19, Type 1, BuildingBlock: KUFVIS_clean_sbu_0, # of connection points: 4
#     Node 20, Type 1, BuildingBlock: KUFVIS_clean_sbu_0, # of connection points: 4
#     Node 21, Type 1, BuildingBlock: KUFVIS_clean_sbu_0, # of connection points: 4
#     Node 22, Type 1, BuildingBlock: KUFVIS_clean_sbu_0, # of connection points: 4
#     Node 23, Type 1, BuildingBlock: KUFVIS_clean_sbu_0, # of connection points: 4
#     Node 24, Type 1, BuildingBlock: KUFVIS_clean_sbu_0, # of connection points: 4
#     Node 25, Type 1, BuildingBlock: KUFVIS_clean_sbu_0, # of connection points: 4
#     Node 26, Type 1, BuildingBlock: KUFVIS_clean_sbu_0, # of connection points: 4
#     Node 27, Type 1, BuildingBlock: KUFVIS_clean_sbu_0, # of connection points: 4
#     Edge 28, Type (0, 1), BuildingBlock: MIFKUJ_clean_linker_0, # of connection points: 2
#     Edge 29, Type (0, 1), BuildingBlock: MIFKUJ_clean_linker_0, # of connection points: 2
#     Edge 30, Type (0, 1), BuildingBlock: MIFKUJ_clean_linker_0, # of connection points: 2
#     Edge 31, Type (0, 1), BuildingBlock: MIFKUJ_clean_linker_0, # of connection points: 2
#     Edge 32, Type (0, 1), BuildingBlock: MIFKUJ_clean_linker_0, # of connection points: 2
#     Edge 33, Type (0, 1), BuildingBlock: MIFKUJ_clean_linker_0, # of connection points: 2
#     Edge 34, Type (0, 1), BuildingBlock: MIFKUJ_clean_linker_0, # of connection points: 2
#     Edge 35, Type (0, 1), BuildingBlock: MIFKUJ_clean_linker_0, # of connection points: 2
#     Edge 36, Type (0, 1), BuildingBlock: MIFKUJ_clean_linker_0, # of connection points: 2
#     Edge 37, Type (0, 1), BuildingBlock: MIFKUJ_clean_linker_0, # of connection points: 2
#     Edge 38, Type (0, 1), BuildingBlock: MIFKUJ_clean_linker_0, # of connection points: 2
#     Edge 39, Type (0, 1), BuildingBlock: MIFKUJ_clean_linker_0, # of connection points: 2
#     Edge 40, Type (0, 1), BuildingBlock: MIFKUJ_clean_linker_0, # of connection points: 2
#     Edge 41, Type (0, 1), BuildingBlock: MIFKUJ_clean_linker_0, # of connection points: 2
#     Edge 42, Type (0, 1), BuildingBlock: MIFKUJ_clean_linker_0, # of connection points: 2
#     Edge 43, Type (0, 1), BuildingBlock: MIFKUJ_clean_linker_0, # of connection points: 2
#     Edge 44, Type (0, 1), BuildingBlock: MIFKUJ_clean_linker_0, # of connection points: 2
#     Edge 45, Type (0, 1), BuildingBlock: MIFKUJ_clean_linker_0, # of connection points: 2
#     Edge 46, Type (0, 1), BuildingBlock: MIFKUJ_clean_linker_0, # of connection points: 2
#     Edge 47, Type (0, 1), BuildingBlock: MIFKUJ_clean_linker_0, # of connection points: 2
#     Edge 48, Type (0, 1), BuildingBlock: MIFKUJ_clean_linker_0, # of connection points: 2
#     Edge 49, Type (0, 1), BuildingBlock: MIFKUJ_clean_linker_0, # of connection points: 2
#     Edge 50, Type (0, 1), BuildingBlock: MIFKUJ_clean_linker_0, # of connection points: 2
#     Edge 51, Type (0, 1), BuildingBlock: MIFKUJ_clean_linker_0, # of connection points: 2
#     Edge 52, Type (0, 1), BuildingBlock: MIFKUJ_clean_linker_0, # of connection points: 2
#     Edge 53, Type (0, 1), BuildingBlock: MIFKUJ_clean_linker_0, # of connection points: 2
#     Edge 54, Type (0, 1), BuildingBlock: MIFKUJ_clean_linker_0, # of connection points: 2
#     Edge 55, Type (0, 1), BuildingBlock: MIFKUJ_clean_linker_0, # of connection points: 2
#     Edge 56, Type (0, 1), BuildingBlock: MIFKUJ_clean_linker_0, # of connection points: 2
#     Edge 57, Type (0, 1), BuildingBlock: MIFKUJ_clean_linker_0, # of connection points: 2
#     Edge 58, Type (0, 1), BuildingBlock: MIFKUJ_clean_linker_0, # of connection points: 2
#     Edge 59, Type (0, 1), BuildingBlock: MIFKUJ_clean_linker_0, # of connection points: 2
#     Edge 60, Type (0, 1), BuildingBlock: MIFKUJ_clean_linker_0, # of connection points: 2
#     Edge 61, Type (0, 1), BuildingBlock: MIFKUJ_clean_linker_0, # of connection points: 2
#     Edge 62, Type (0, 1), BuildingBlock: MIFKUJ_clean_linker_0, # of connection points: 2
#     Edge 63, Type (0, 1), BuildingBlock: MIFKUJ_clean_linker_0, # of connection points: 2
#     Edge 64, Type (0, 1), BuildingBlock: MIFKUJ_clean_linker_0, # of connection points: 2
#     Edge 65, Type (0, 1), BuildingBlock: MIFKUJ_clean_linker_0, # of connection points: 2
#     Edge 66, Type (0, 1), BuildingBlock: MIFKUJ_clean_linker_0, # of connection points: 2
#     Edge 67, Type (0, 1), BuildingBlock: MIFKUJ_clean_linker_0, # of connection points: 2
#     Edge 68, Type (0, 1), BuildingBlock: MIFKUJ_clean_linker_0, # of connection points: 2
#     Edge 69, Type (0, 1), BuildingBlock: MIFKUJ_clean_linker_0, # of connection points: 2
#     Edge 70, Type (0, 1), BuildingBlock: MIFKUJ_clean_linker_0, # of connection points: 2
#     Edge 71, Type (0, 1), BuildingBlock: MIFKUJ_clean_linker_0, # of connection points: 2
#     Edge 72, Type (0, 1), BuildingBlock: MIFKUJ_clean_linker_0, # of connection points: 2
#     Edge 73, Type (0, 1), BuildingBlock: MIFKUJ_clean_linker_0, # of connection points: 2
#     Edge 74, Type (0, 1), BuildingBlock: MIFKUJ_clean_linker_0, # of connection points: 2
#     Edge 75, Type (0, 1), BuildingBlock: MIFKUJ_clean_linker_0, # of connection points: 2
# Relax obj value: 0.059
# Max RMSD: 0.168
# Mean RMSD: 0.105
data_MOF--net-ctn--node1-OLANEW_clean_sbu_2--node2-KUFVIS_clean_sbu_0--edge1-MIFKUJ_clean_linker_0
_symmetry_space_group_name_H-M    P1
_symmetry_Int_Tables_number       1
_symmetry_cell_setting            triclinic
loop_
_symmetry_equiv_pos_as_xyz
'x, y, z'
_cell_length_a     73.916795
_cell_length_b     75.540915
_cell_length_c     72.135455
_cell_angle_alpha  92.107302
_cell_angle_beta   94.288026
_cell_angle_gamma 96.938633
loop_
_atom_site_label
_atom_site_type_symbol
_atom_site_fract_x
_atom_site_fract_y
_atom_site_fract_z
_atom_type_partial_charge
O0 O 0.04528 0.04927 0.99545 0.0
Cd1 Cd 0.0459 0.0172 0.9995 0.0
O2 O 0.02894 0.04826 0.01943 0.0
Cd3 Cd 0.01291 0.05609 0.04204 0.0
O4 O 0.99964 0.05223 0.06794 0.0
C5 C 0.98811 0.06182 0.07389 0.0
O6 O 0.9837 0.07529 0.06422 0.0
C7 C 0.03587 0.05713 0.00647 0.0
C8 C 0.07963 0.00392 0.00162 0.0
O9 O 0.07107 0.00594 0.98586 0.0
O10 O 0.07258 0.00881 0.01639 0.0
O11 O 0.34227 0.70903 0.22255 0.0
Cd12 Cd 0.31437 0.70402 0.2015 0.0
O13 O 0.34779 0.68113 0.21939 0.0
Cd14 Cd 0.32158 0.67146 0.20428 0.0
O15 O 0.29565 0.65408 0.20347 0.0
C16 C 0.29644 0.63764 0.20616 0.0
O17 O 0.31256 0.63194 0.20805 0.0
C18 C 0.35246 0.69695 0.22613 0.0
C19 C 0.30944 0.73256 0.17878 0.0
O20 O 0.30298 0.73176 0.19477 0.0
O21 O 0.3184 0.71997 0.17363 0.0
O22 O 0.96736 0.50301 0.0879 0.0
Cd23 Cd 0.95394 0.5024 0.0557 0.0
O24 O 0.97672 0.47642 0.08556 0.0
Cd25 Cd 0.96697 0.46784 0.05693 0.0
O26 O 0.96799 0.44561 0.03682 0.0
C27 C 0.97263 0.43157 0.04408 0.0
O28 O 0.9758 0.43164 0.06225 0.0
C29 C 0.97545 0.49066 0.09508 0.0
C30 C 0.92918 0.52735 0.04977 0.0
O31 O 0.92359 0.51103 0.05268 0.0
O32 O 0.94645 0.53195 0.04984 0.0
O33 O 0.69285 0.85341 0.18785 0.0
Cd34 Cd 0.66835 0.82848 0.18357 0.0
O35 O 0.70122 0.84503 0.21577 0.0
Cd36 Cd 0.67641 0.8269 0.21879 0.0
O37 O 0.65375 0.81748 0.23517 0.0
C38 C 0.65795 0.81555 0.25233 0.0
O39 O 0.67524 0.8185 0.25861 0.0
C40 C 0.70403 0.8551 0.20226 0.0
C41 C 0.6788 0.8024 0.15953 0.0
O42 O 0.6694 0.81444 0.15339 0.0
O43 O 0.683 0.8025 0.1771 0.0
O44 O 0.07133 0.99158 0.51653 0.0
Cd45 Cd 0.04132 0.97351 0.51331 0.0
O46 O 0.05919 0.01568 0.50847 0.0
Cd47 Cd 0.03246 0.00226 0.49769 0.0
O48 O 0.01165 0.99867 0.4742 0.0
C49 C 0.00519 0.01252 0.46845 0.0
O50 O 0.0104 0.02789 0.47756 0.0
C51 C 0.073 0.00832 0.51431 0.0
C52 C 0.03956 0.94315 0.53448 0.0
O53 O 0.0424 0.94217 0.51718 0.0
O54 O 0.03773 0.95848 0.54182 0.0
O55 O 0.20343 0.70177 0.85322 0.0
Cd56 Cd 0.19394 0.67806 0.82918 0.0
O57 O 0.18871 0.68877 0.87546 0.0
Cd58 Cd 0.17306 0.67065 0.85428 0.0
O59 O 0.15378 0.67164 0.83 0.0
C60 C 0.1373 0.67352 0.83261 0.0
O61 O 0.13214 0.67318 0.84965 0.0
C62 C 0.19966 0.70154 0.87015 0.0
C63 C 0.22124 0.65615 0.82434 0.0
O64 O 0.2206 0.6704 0.81532 0.0
O65 O 0.20897 0.65226 0.83569 0.0
O66 O 0.98748 0.51944 0.47139 0.0
Cd67 Cd 0.97184 0.53223 0.49652 0.0
O68 O 0.01345 0.52056 0.48864 0.0
Cd69 Cd 0.00393 0.53592 0.51132 0.0
O70 O 0.00183 0.5599 0.52843 0.0
C71 C 0.01632 0.57084 0.5315 0.0
O72 O 0.03144 0.56686 0.52475 0.0
C73 C 0.00402 0.51626 0.47332 0.0
C74 C 0.93907 0.51193 0.50334 0.0
O75 O 0.93946 0.52413 0.49143 0.0
O76 O 0.95423 0.50922 0.51194 0.0
O77 O 0.8515 0.82791 0.86837 0.0
Cd78 Cd 0.86189 0.85247 0.84895 0.0
O79 O 0.82428 0.83611 0.86363 0.0
Cd80 Cd 0.79516 0.83869 0.86514 0.0
O81 O 0.7705 0.85176 0.85953 0.0
C82 C 0.7713 0.86815 0.86466 0.0
O83 O 0.78637 0.87602 0.87376 0.0
C84 C 0.8346 0.82558 0.8711 0.0
C85 C 0.88072 0.84159 0.81928 0.0
O86 O 0.88932 0.84769 0.83472 0.0
O87 O 0.86323 0.84057 0.81792 0.0
O88 O 0.34899 0.32543 0.37203 0.0
Cd89 Cd 0.35922 0.35065 0.35341 0.0
O90 O 0.32151 0.33218 0.36511 0.0
Cd91 Cd 0.29196 0.33352 0.36386 0.0
O92 O 0.26898 0.34745 0.35395 0.0
C93 C 0.25536 0.34988 0.3631 0.0
O94 O 0.25415 0.3431 0.37954 0.0
C95 C 0.33188 0.32218 0.37341 0.0
C96 C 0.37737 0.3407 0.32287 0.0
O97 O 0.38629 0.34641 0.33829 0.0
O98 O 0.35989 0.33962 0.32194 0.0
O99 O 0.47442 0.00395 0.58402 0.0
Cd100 Cd 0.46199 0.00395 0.55152 0.0
O101 O 0.48948 0.9809 0.57932 0.0
Cd102 Cd 0.48086 0.97338 0.55019 0.0
O103 O 0.48209 0.95215 0.52899 0.0
C104 C 0.47487 0.93663 0.53252 0.0
O105 O 0.46616 0.93463 0.54768 0.0
C106 C 0.48515 0.99313 0.59011 0.0
C107 C 0.4355 0.02721 0.54563 0.0
O108 O 0.4309 0.01057 0.5479 0.0
O109 O 0.4526 0.03292 0.54634 0.0
O110 O 0.1972 0.33661 0.69836 0.0
Cd111 Cd 0.17581 0.3093 0.6982 0.0
O112 O 0.17988 0.35421 0.71179 0.0
Cd113 Cd 0.15902 0.33287 0.71829 0.0
O114 O 0.14114 0.32028 0.7381 0.0
C115 C 0.12795 0.3283 0.7429 0.0
O116 O 0.12494 0.34314 0.73491 0.0
C117 C 0.19451 0.35208 0.70423 0.0
C118 C 0.18458 0.28513 0.67106 0.0
O119 O 0.17281 0.29589 0.66729 0.0
O120 O 0.19193 0.28557 0.68776 0.0
O121 O 0.83861 0.20763 0.72209 0.0
Cd122 Cd 0.81263 0.20184 0.69859 0.0
O123 O 0.84371 0.1795 0.72181 0.0
Cd124 Cd 0.81921 0.16925 0.7041 0.0
O125 O 0.79316 0.15201 0.70164 0.0
C126 C 0.79326 0.13641 0.70767 0.0
O127 O 0.80894 0.13132 0.71374 0.0
C128 C 0.84806 0.19561 0.72782 0.0
C129 C 0.80685 0.2312 0.67733 0.0
O130 O 0.79932 0.22878 0.69262 0.0
O131 O 0.8173 0.21987 0.67221 0.0
O132 O 0.55577 0.56718 0.53452 0.0
Cd133 Cd 0.5613 0.54323 0.55558 0.0
O134 O 0.52887 0.56901 0.54515 0.0
Cd135 Cd 0.52943 0.54919 0.5664 0.0
O136 O 0.51765 0.53852 0.59122 0.0
C137 C 0.50716 0.54841 0.59861 0.0
O138 O 0.50477 0.56363 0.59111 0.0
C139 C 0.54097 0.57424 0.53424 0.0
C140 C 0.58655 0.52084 0.5447 0.0
O141 O 0.5695 0.51734 0.53939 0.0
O142 O 0.59171 0.53512 0.55483 0.0
O143 O 0.57288 0.49866 0.01301 0.0
Cd144 Cd 0.54489 0.47845 0.00402 0.0
O145 O 0.5597 0.52284 0.00792 0.0
Cd146 Cd 0.53369 0.50899 0.99569 0.0
O147 O 0.51169 0.50485 0.9734 0.0
C148 C 0.50835 0.51856 0.96468 0.0
O149 O 0.51768 0.53407 0.96997 0.0
C150 C 0.57374 0.51559 0.01322 0.0
C151 C 0.53917 0.45042 0.02799 0.0
O152 O 0.5492 0.44932 0.01435 0.0
O153 O 0.53192 0.46483 0.0304 0.0
O154 O 0.70608 0.17717 0.39646 0.0
Cd155 Cd 0.69939 0.14816 0.37954 0.0
O156 O 0.67913 0.18153 0.38413 0.0
Cd157 Cd 0.65731 0.19759 0.37639 0.0
O158 O 0.63663 0.20797 0.35807 0.0
C159 C 0.64081 0.22165 0.34879 0.0
O160 O 0.65749 0.23008 0.35122 0.0
C161 C 0.6935 0.18718 0.39446 0.0
C162 C 0.72967 0.1333 0.368 0.0
O163 O 0.72232 0.14484 0.35834 0.0
O164 O 0.72296 0.12908 0.38335 0.0
O165 O 0.50752 0.00722 0.99371 0.0
Cd166 Cd 0.49602 0.01584 0.0233 0.0
O167 O 0.51296 0.03547 0.98702 0.0
Cd168 Cd 0.50397 0.04759 0.01211 0.0
O169 O 0.5008 0.06988 0.03125 0.0
C170 C 0.51514 0.07826 0.03979 0.0
O171 O 0.53097 0.07255 0.03753 0.0
C172 C 0.51323 0.01904 0.98268 0.0
C173 C 0.46075 0.99958 0.0278 0.0
O174 O 0.46338 0.01399 0.01902 0.0
O175 O 0.47481 0.99277 0.03438 0.0
Mn176 Mn 0.25484 0.8744 0.01844 0.0
Mn177 Mn 0.26154 0.89233 0.97706 0.0
C178 C 0.24481 0.85811 0.99096 0.0
C179 C 0.26489 0.85851 0.04355 0.0
C180 C 0.23192 0.90175 0.00114 0.0
O181 O 0.2746 0.89525 0.02537 0.0
O182 O 0.27834 0.90575 0.9969 0.0
C183 C 0.29914 0.88379 0.97301 0.0
N184 N 0.28122 0.88244 0.96647 0.0
C185 C 0.28726 0.86696 0.93833 0.0
C186 C 0.30578 0.86823 0.9447 0.0
C187 C 0.31172 0.87656 0.96219 0.0
C188 C 0.27529 0.87406 0.94988 0.0
H189 H 0.30383 0.89044 0.98632 0.0
C190 C 0.28245 0.90614 0.0145 0.0
O191 O 0.25257 0.86924 0.04516 0.0
O192 O 0.27152 0.85726 0.02747 0.0
N193 N 0.2464 0.88048 0.95654 0.0
C194 C 0.2281 0.88042 0.95237 0.0
C195 C 0.2199 0.87212 0.93556 0.0
C196 C 0.23066 0.86434 0.92306 0.0
C197 C 0.24952 0.8649 0.9275 0.0
C198 C 0.25687 0.87306 0.9446 0.0
H199 H 0.21981 0.88658 0.96182 0.0
O200 O 0.23758 0.8541 0.00636 0.0
O201 O 0.25772 0.87146 0.99216 0.0
O202 O 0.23555 0.89161 0.01434 0.0
O203 O 0.24083 0.903 0.98666 0.0
C204 C 0.26139 0.85807 0.91546 0.0
C205 C 0.28026 0.85921 0.92083 0.0
H206 H 0.31556 0.86287 0.93628 0.0
H207 H 0.32599 0.87759 0.96721 0.0
H208 H 0.20535 0.87184 0.93219 0.0
H209 H 0.22433 0.8581 0.91002 0.0
H210 H 0.25616 0.8521 0.90194 0.0
H211 H 0.28937 0.85431 0.91134 0.0
Mn212 Mn 0.12757 0.5033 0.28384 0.0
Mn213 Mn 0.1176 0.54575 0.28694 0.0
C214 C 0.1443 0.52524 0.26836 0.0
C215 C 0.14275 0.48042 0.29605 0.0
C216 C 0.09554 0.51689 0.26145 0.0
O217 O 0.1117 0.50303 0.30569 0.0
O218 O 0.10702 0.53185 0.30723 0.0
C219 C 0.13962 0.55706 0.3223 0.0
N220 N 0.13522 0.55963 0.30401 0.0
C221 C 0.15594 0.58684 0.30509 0.0
C222 C 0.16063 0.58455 0.32397 0.0
C223 C 0.15249 0.56955 0.33259 0.0
C224 C 0.1431 0.5739 0.29554 0.0
H225 H 0.13332 0.54559 0.32898 0.0
C226 C 0.10501 0.51604 0.31319 0.0
O227 O 0.12799 0.47698 0.28492 0.0
O228 O 0.14855 0.4971 0.30016 0.0
N229 N 0.12678 0.56117 0.26849 0.0
C230 C 0.12125 0.56102 0.25003 0.0
C231 C 0.12788 0.57523 0.23941 0.0
C232 C 0.14004 0.58946 0.2479 0.0
C233 C 0.14576 0.58918 0.26682 0.0
C234 C 0.13842 0.57485 0.27678 0.0
H235 H 0.11163 0.55029 0.24353 0.0
O236 O 0.14395 0.50848 0.26353 0.0
O237 O 0.13521 0.52876 0.2826 0.0
O238 O 0.10503 0.50433 0.2656 0.0
O239 O 0.09897 0.53268 0.26883 0.0
C240 C 0.15841 0.60259 0.27622 0.0
C241 C 0.16361 0.60134 0.29531 0.0
H242 H 0.17054 0.59417 0.33196 0.0
H243 H 0.15609 0.56766 0.34714 0.0
H244 H 0.12339 0.57534 0.2248 0.0
H245 H 0.14475 0.60064 0.23982 0.0
H246 H 0.16438 0.61381 0.26885 0.0
H247 H 0.17354 0.6116 0.30233 0.0
Mn248 Mn 0.76434 0.65597 0.01151 0.0
Mn249 Mn 0.72486 0.66369 0.98818 0.0
C250 C 0.73781 0.63688 0.01408 0.0
C251 C 0.79159 0.64312 0.01268 0.0
C252 C 0.74006 0.68353 0.02433 0.0
O253 O 0.77315 0.67412 0.99284 0.0
O254 O 0.74608 0.67747 0.97787 0.0
C255 C 0.73093 0.64636 0.9521 0.0
N256 N 0.72035 0.64792 0.96659 0.0
C257 C 0.69663 0.62613 0.95207 0.0
C258 C 0.70722 0.62433 0.93693 0.0
C259 C 0.7245 0.63442 0.937 0.0
C260 C 0.70386 0.63806 0.96682 0.0
H261 H 0.74414 0.6542 0.95204 0.0
C262 C 0.76348 0.68106 0.98032 0.0
O263 O 0.78965 0.65667 0.02366 0.0
O264 O 0.77803 0.6376 0.00059 0.0
N265 N 0.70284 0.65145 0.99625 0.0
C266 C 0.69443 0.65462 0.01201 0.0
C267 C 0.67711 0.6454 0.01425 0.0
C268 C 0.66842 0.63339 1.00007 0.0
C269 C 0.67715 0.63069 0.98378 0.0
C270 C 0.69448 0.64011 0.98242 0.0
H271 H 0.7009 0.66407 0.02281 0.0
O272 O 0.75152 0.63741 0.02648 0.0
O273 O 0.74015 0.64716 0.00013 0.0
O274 O 0.75438 0.67567 0.02676 0.0
O275 O 0.7283 0.68011 0.01036 0.0
C276 C 0.66934 0.61905 0.96881 0.0
C277 C 0.67916 0.6166 0.95308 0.0
H278 H 0.70225 0.61522 0.92521 0.0
H279 H 0.73277 0.63308 0.92539 0.0
H280 H 0.67041 0.64766 0.02682 0.0
H281 H 0.65505 0.62634 0.00184 0.0
H282 H 0.65583 0.61182 0.96929 0.0
H283 H 0.67311 0.60741 0.94179 0.0
Mn284 Mn 0.8719 0.01368 0.2653 0.0
Mn285 Mn 0.88985 0.9752 0.25821 0.0
C286 C 0.85521 0.99061 0.24704 0.0
C287 C 0.85587 0.03184 0.2831 0.0
C288 C 0.901 0.009 0.23825 0.0
O289 O 0.89276 0.0152 0.28561 0.0
O290 O 0.90215 0.98825 0.28103 0.0
C291 C 0.87769 0.95631 0.29121 0.0
N292 N 0.87839 0.95681 0.27242 0.0
C293 C 0.86219 0.92719 0.26782 0.0
C294 C 0.86138 0.92632 0.28713 0.0
C295 C 0.86911 0.94097 0.29887 0.0
C296 C 0.87092 0.94283 0.261 0.0
H297 H 0.88363 0.96754 0.30029 0.0
C298 C 0.90275 0.00318 0.29021 0.0
O299 O 0.86735 0.0385 0.27167 0.0
O300 O 0.85389 0.01463 0.28439 0.0
N301 N 0.87914 0.96095 0.23681 0.0
C302 C 0.88016 0.96433 0.21846 0.0
C303 C 0.87304 0.95103 0.20487 0.0
C304 C 0.86502 0.9344 0.21031 0.0
C305 C 0.86382 0.93135 0.22923 0.0
C306 C 0.87144 0.94498 0.24214 0.0
H307 H 0.88655 0.977 0.21423 0.0
O308 O 0.8516 0.00692 0.24562 0.0
O309 O 0.8684 0.98821 0.25937 0.0
O310 O 0.88991 0.01843 0.24539 0.0
O311 O 0.90245 0.99297 0.24258 0.0
C312 C 0.85532 0.91532 0.23577 0.0
C313 C 0.8544 0.91329 0.25506 0.0
H314 H 0.85472 0.91453 0.29309 0.0
H315 H 0.86847 0.94043 0.31378 0.0
H316 H 0.87392 0.9535 0.19026 0.0
H317 H 0.85991 0.924 0.19987 0.0
H318 H 0.84925 0.90457 0.22608 0.0
H319 H 0.84759 0.90102 0.25991 0.0
Mn320 Mn 0.26374 0.14834 0.50933 0.0
Mn321 Mn 0.22379 0.15591 0.48684 0.0
C322 C 0.23759 0.12866 0.51166 0.0
C323 C 0.29137 0.13621 0.50995 0.0
C324 C 0.23894 0.17488 0.52343 0.0
O325 O 0.27203 0.16712 0.49111 0.0
O326 O 0.24467 0.17053 0.47682 0.0
C327 C 0.23006 0.14002 0.45011 0.0
N328 N 0.21951 0.1408 0.46474 0.0
C329 C 0.19624 0.11885 0.44972 0.0
C330 C 0.2068 0.11786 0.43444 0.0
C331 C 0.22383 0.12842 0.43468 0.0
C332 C 0.20327 0.13048 0.46479 0.0
H333 H 0.24309 0.14821 0.45019 0.0
C334 C 0.26207 0.17431 0.47906 0.0
O335 O 0.28914 0.1494 0.52126 0.0
O336 O 0.27785 0.13059 0.49785 0.0
N337 N 0.20205 0.14288 0.49463 0.0
C338 C 0.19359 0.14537 0.51051 0.0
C339 C 0.17647 0.13566 0.51257 0.0
C340 C 0.16803 0.12385 0.4981 0.0
C341 C 0.17678 0.12187 0.48169 0.0
C342 C 0.1939 0.13176 0.48051 0.0
H343 H 0.19988 0.15465 0.52155 0.0
O344 O 0.25142 0.12915 0.5239 0.0
O345 O 0.23957 0.13934 0.49799 0.0
O346 O 0.25352 0.16735 0.52522 0.0
O347 O 0.22699 0.17161 0.50959 0.0
C348 C 0.16918 0.1105 0.46643 0.0
C349 C 0.17899 0.10883 0.45055 0.0
H350 H 0.20198 0.10902 0.42246 0.0
H351 H 0.23208 0.1277 0.42296 0.0
H352 H 0.16975 0.13736 0.52522 0.0
H353 H 0.15481 0.11641 0.49972 0.0
H354 H 0.15583 0.1029 0.46677 0.0
H355 H 0.1731 0.09986 0.43902 0.0
Mn356 Mn 0.36207 0.51105 0.76789 0.0
Mn357 Mn 0.37389 0.46929 0.76643 0.0
C358 C 0.34355 0.48838 0.75085 0.0
C359 C 0.34758 0.53322 0.78186 0.0
C360 C 0.3919 0.49938 0.7448 0.0
O361 O 0.38133 0.51165 0.78975 0.0
O362 O 0.38621 0.48272 0.78903 0.0
C363 C 0.35629 0.45538 0.7994 0.0
N364 N 0.3584 0.45412 0.78083 0.0
C365 C 0.33754 0.42696 0.77701 0.0
C366 C 0.33522 0.42792 0.79612 0.0
C367 C 0.34458 0.44223 0.80735 0.0
C368 C 0.34933 0.4405 0.76987 0.0
H369 H 0.36349 0.46635 0.80808 0.0
C370 C 0.38874 0.4986 0.79648 0.0
O371 O 0.36075 0.53713 0.77119 0.0
O372 O 0.34324 0.51646 0.78486 0.0
N373 N 0.36268 0.45482 0.74536 0.0
C374 C 0.36555 0.45646 0.72702 0.0
C375 C 0.35667 0.44355 0.71383 0.0
C376 C 0.34513 0.42899 0.71963 0.0
C377 C 0.34253 0.42751 0.73859 0.0
C378 C 0.35167 0.44082 0.7511 0.0
H379 H 0.3745 0.46755 0.72249 0.0
O380 O 0.34246 0.50492 0.74719 0.0
O381 O 0.35531 0.48566 0.76441 0.0
O382 O 0.38184 0.51106 0.74955 0.0
O383 O 0.39043 0.48361 0.75079 0.0
C384 C 0.3311 0.41343 0.74555 0.0
C385 C 0.32849 0.41322 0.76473 0.0
H386 H 0.32621 0.4178 0.8023 0.0
H387 H 0.3428 0.4431 0.82209 0.0
H388 H 0.35874 0.44479 0.69922 0.0
H389 H 0.33827 0.41908 0.70941 0.0
H390 H 0.32401 0.40285 0.73623 0.0
H391 H 0.31936 0.40251 0.76984 0.0
Mn392 Mn 0.74221 0.3731 0.52226 0.0
Mn393 Mn 0.74198 0.38741 0.47851 0.0
C394 C 0.7271 0.35512 0.49781 0.0
C395 C 0.75546 0.3585 0.5468 0.0
C396 C 0.7175 0.39997 0.50675 0.0
O397 O 0.76318 0.39332 0.52447 0.0
O398 O 0.76136 0.40205 0.49496 0.0
C399 C 0.77805 0.37729 0.46993 0.0
N400 N 0.75968 0.37636 0.46566 0.0
C401 C 0.7614 0.35796 0.43807 0.0
C402 C 0.78035 0.35881 0.4421 0.0
C403 C 0.78869 0.36848 0.45813 0.0
C404 C 0.7515 0.36703 0.45034 0.0
H405 H 0.78454 0.3847 0.48223 0.0
C406 C 0.76861 0.40346 0.51172 0.0
O407 O 0.7443 0.37016 0.5497 0.0
O408 O 0.7592 0.35567 0.52975 0.0
N409 N 0.72422 0.37446 0.46083 0.0
C410 C 0.70571 0.37421 0.45945 0.0
C411 C 0.69529 0.36507 0.44419 0.0
C412 C 0.70405 0.3564 0.4305 0.0
C413 C 0.72306 0.35661 0.43235 0.0
C414 C 0.73275 0.36616 0.44769 0.0
H415 H 0.69898 0.38106 0.46985 0.0
O416 O 0.72269 0.35301 0.51473 0.0
O417 O 0.74029 0.36778 0.49565 0.0
O418 O 0.72352 0.39113 0.52014 0.0
O419 O 0.72321 0.39928 0.49049 0.0
C420 C 0.73275 0.34767 0.4196 0.0
C421 C 0.75191 0.34826 0.42252 0.0
H422 H 0.7886 0.35199 0.43306 0.0
H423 H 0.8033 0.36913 0.46138 0.0
H424 H 0.68059 0.36485 0.44287 0.0
H425 H 0.69611 0.3497 0.41852 0.0
H426 H 0.72559 0.34013 0.40763 0.0
H427 H 0.75919 0.34114 0.41277 0.0
Mn428 Mn 0.62635 0.00689 0.78689 0.0
Mn429 Mn 0.61118 0.04708 0.79113 0.0
C430 C 0.64093 0.03127 0.77288 0.0
C431 C 0.64408 0.98567 0.79871 0.0
C432 C 0.59279 0.01725 0.76437 0.0
O433 O 0.60964 0.00371 0.80814 0.0
O434 O 0.60239 0.03167 0.81105 0.0
C435 C 0.63181 0.05994 0.82681 0.0
N436 N 0.62731 0.06224 0.80847 0.0
C437 C 0.64447 0.09147 0.8102 0.0
C438 C 0.64924 0.08947 0.82912 0.0
C439 C 0.64301 0.07357 0.83742 0.0
C440 C 0.63362 0.07727 0.80024 0.0
H441 H 0.62681 0.04783 0.83329 0.0
C442 C 0.60188 0.01564 0.81633 0.0
O443 O 0.62997 0.98115 0.78693 0.0
O444 O 0.64777 0.00248 0.8037 0.0
N445 N 0.61864 0.06361 0.77294 0.0
C446 C 0.61318 0.06324 0.75444 0.0
C447 C 0.61864 0.07797 0.74397 0.0
C448 C 0.62917 0.09312 0.75273 0.0
C449 C 0.63433 0.09327 0.77185 0.0
C450 C 0.62888 0.07806 0.78146 0.0
H451 H 0.60472 0.0518 0.74772 0.0
O452 O 0.64297 0.01511 0.76746 0.0
O453 O 0.63094 0.03274 0.78681 0.0
O454 O 0.60411 0.00609 0.76792 0.0
O455 O 0.59393 0.03261 0.7727 0.0
C456 C 0.64436 0.10806 0.78181 0.0
C457 C 0.64974 0.10709 0.80089 0.0
H458 H 0.65766 0.10006 0.83741 0.0
H459 H 0.64664 0.07191 0.85201 0.0
H460 H 0.61453 0.07776 0.72924 0.0
H461 H 0.63318 0.10456 0.74467 0.0
H462 H 0.64763 0.12033 0.77497 0.0
H463 H 0.65769 0.11851 0.80831 0.0
Mn464 Mn 0.00042 0.25 0.90623 0.0
Mn465 Mn 0.95775 0.24018 0.91956 0.0
C466 C 0.97796 0.234 0.88625 0.0
C467 C 0.02216 0.26853 0.89195 0.0
C468 C 0.98955 0.22077 0.93304 0.0
O469 O 0.99997 0.2677 0.92812 0.0
O470 O 0.97075 0.26086 0.93508 0.0
C471 C 0.94237 0.27302 0.90845 0.0
N472 N 0.94186 0.25492 0.90709 0.0
C473 C 0.9156 0.25221 0.88486 0.0
C474 C 0.91581 0.2708 0.88609 0.0
C475 C 0.92924 0.28124 0.89794 0.0
C476 C 0.92891 0.24474 0.89581 0.0
H477 H 0.95273 0.28113 0.91744 0.0
C478 C 0.98645 0.27033 0.93749 0.0
O479 O 0.02695 0.25708 0.9038 0.0
O480 O 0.00485 0.2698 0.88917 0.0
N481 N 0.94377 0.2207 0.90517 0.0
C482 C 0.94607 0.20307 0.9048 0.0
C483 C 0.93403 0.19087 0.89322 0.0
C484 C 0.91977 0.19691 0.88217 0.0
C485 C 0.9176 0.2151 0.88287 0.0
C486 C 0.9299 0.22661 0.89483 0.0
H487 H 0.95709 0.19836 0.91316 0.0
O488 O 0.99507 0.23283 0.8842 0.0
O489 O 0.97459 0.24428 0.90007 0.0
O490 O 0.00143 0.22937 0.92373 0.0
O491 O 0.97295 0.22398 0.93275 0.0
C492 C 0.90397 0.22231 0.87189 0.0
C493 C 0.90296 0.24085 0.87289 0.0
H494 H 0.90581 0.27722 0.87789 0.0
H495 H 0.92953 0.2956 0.8989 0.0
H496 H 0.93582 0.17686 0.89272 0.0
H497 H 0.91065 0.18749 0.87308 0.0
H498 H 0.89433 0.21374 0.86245 0.0
H499 H 0.89256 0.24625 0.86421 0.0
Mn500 Mn 0.50548 0.75126 0.4008 0.0
Mn501 Mn 0.46442 0.74208 0.41807 0.0
C502 C 0.4821 0.73316 0.38366 0.0
C503 C 0.52625 0.76835 0.38393 0.0
C504 C 0.49775 0.72487 0.43123 0.0
O505 O 0.50594 0.77095 0.42102 0.0
O506 O 0.47761 0.76435 0.43056 0.0
C507 C 0.4465 0.77276 0.40469 0.0
N508 N 0.44674 0.7548 0.40545 0.0
C509 C 0.41787 0.74889 0.38721 0.0
C510 C 0.41728 0.76732 0.38628 0.0
C511 C 0.43168 0.7793 0.39502 0.0
C512 C 0.43298 0.74315 0.39705 0.0
H513 H 0.45753 0.78201 0.4114 0.0
C514 C 0.49307 0.77419 0.43105 0.0
O515 O 0.53159 0.75819 0.39684 0.0
O516 O 0.50879 0.76917 0.3813 0.0
N517 N 0.45031 0.721 0.40687 0.0
C518 C 0.45357 0.70369 0.40807 0.0
C519 C 0.44064 0.69001 0.39981 0.0
C520 C 0.4245 0.69428 0.39047 0.0
C521 C 0.42155 0.7122 0.3892 0.0
C522 C 0.43485 0.72525 0.39785 0.0
H523 H 0.4659 0.70031 0.41536 0.0
O524 O 0.49906 0.73204 0.38077 0.0
O525 O 0.47939 0.74463 0.39673 0.0
O526 O 0.50847 0.73259 0.4202 0.0
O527 O 0.48119 0.72785 0.43187 0.0
C528 C 0.40598 0.71765 0.37964 0.0
C529 C 0.4042 0.73597 0.37854 0.0
H530 H 0.40589 0.77242 0.3788 0.0
H531 H 0.43135 0.79354 0.39431 0.0
H532 H 0.44304 0.67621 0.40076 0.0
H533 H 0.41446 0.68367 0.38444 0.0
H534 H 0.39534 0.70787 0.37299 0.0
H535 H 0.3923 0.74 0.3709 0.0
Mn536 Mn 0.01059 0.75983 0.65752 0.0
Mn537 Mn 0.98143 0.72499 0.66975 0.0
C538 C 0.01031 0.73231 0.64223 0.0
C539 C 0.01551 0.78567 0.64091 0.0
C540 C 0.01758 0.73809 0.69161 0.0
O541 O 0.99355 0.77151 0.67369 0.0
O542 O 0.97323 0.74777 0.67818 0.0
C543 C 0.94914 0.73147 0.6453 0.0
N544 N 0.96121 0.72031 0.65145 0.0
C545 C 0.94517 0.69573 0.63237 0.0
C546 C 0.93248 0.70691 0.62591 0.0
C547 C 0.93453 0.72489 0.63234 0.0
C548 C 0.9595 0.70308 0.64519 0.0
H549 H 0.95067 0.74528 0.65027 0.0
C550 C 0.97886 0.76446 0.67996 0.0
O551 O 0.02563 0.78341 0.65594 0.0
O552 O 0.00254 0.77296 0.6356 0.0
N553 N 0.98692 0.7017 0.66286 0.0
C554 C 0.00067 0.69288 0.67004 0.0
C555 C 0.00052 0.6747 0.66526 0.0
C556 C 0.98625 0.66576 0.65319 0.0
C557 C 0.9723 0.67511 0.64592 0.0
C558 C 0.97295 0.69313 0.6515 0.0
H559 H 0.01148 0.69958 0.67961 0.0
O560 O 0.02384 0.74484 0.64138 0.0
O561 O 0.9966 0.73659 0.65116 0.0
O562 O 0.02311 0.75016 0.68067 0.0
O563 O 0.002 0.72856 0.68921 0.0
C564 C 0.95777 0.66729 0.63335 0.0
C565 C 0.9443 0.67763 0.62646 0.0
H566 H 0.92117 0.70188 0.61594 0.0
H567 H 0.92484 0.73363 0.62736 0.0
H568 H 0.01122 0.66756 0.67116 0.0
H569 H 0.98599 0.65166 0.64975 0.0
H570 H 0.95695 0.65339 0.62873 0.0
H571 H 0.93334 0.67154 0.61661 0.0
Mn572 Mn 0.50949 0.27155 0.15701 0.0
Mn573 Mn 0.48436 0.23389 0.16892 0.0
C574 C 0.51128 0.24496 0.1408 0.0
C575 C 0.51141 0.29776 0.14079 0.0
C576 C 0.51932 0.25067 0.19092 0.0
O577 O 0.49137 0.28064 0.17376 0.0
O578 O 0.47326 0.25508 0.17771 0.0
C579 C 0.45066 0.2364 0.14481 0.0
N580 N 0.46452 0.22705 0.15056 0.0
C581 C 0.45222 0.20181 0.13024 0.0
C582 C 0.43772 0.21111 0.12418 0.0
C583 C 0.43698 0.2285 0.13144 0.0
C584 C 0.46546 0.21038 0.14354 0.0
H585 H 0.45006 0.24977 0.15037 0.0
C586 C 0.47734 0.27203 0.17993 0.0
O587 O 0.52222 0.29618 0.15552 0.0
O588 O 0.4994 0.28416 0.13561 0.0
N589 N 0.49317 0.21212 0.16149 0.0
C590 C 0.50844 0.20526 0.16826 0.0
C591 C 0.5113 0.18797 0.16235 0.0
C592 C 0.49834 0.17783 0.14974 0.0
C593 C 0.48271 0.18513 0.14302 0.0
C594 C 0.4805 0.20237 0.14955 0.0
H595 H 0.51834 0.2129 0.17813 0.0
O596 O 0.5239 0.25838 0.14007 0.0
O597 O 0.49761 0.24768 0.15048 0.0
O598 O 0.52353 0.26304 0.17984 0.0
O599 O 0.50472 0.23962 0.18842 0.0
C600 C 0.46936 0.17609 0.12991 0.0
C601 C 0.45417 0.18446 0.12344 0.0
H602 H 0.42716 0.20507 0.11386 0.0
H603 H 0.42589 0.23579 0.12676 0.0
H604 H 0.52341 0.18242 0.16757 0.0
H605 H 0.50053 0.16446 0.14529 0.0
H606 H 0.47077 0.1628 0.1245 0.0
H607 H 0.44414 0.17748 0.11316 0.0
H608 H 0.20106 0.70329 0.90834 0.0
H609 H 0.21112 0.72956 0.92919 0.0
H610 H 0.2231 0.76084 0.88171 0.0
H611 H 0.21402 0.73461 0.86107 0.0
H612 H 0.24821 0.7698 0.9069 0.0
H613 H 0.18239 0.76129 0.90619 0.0
H614 H 0.15229 0.74469 0.91059 0.0
H615 H 0.16863 0.73969 0.96836 0.0
H616 H 0.19892 0.75609 0.96423 0.0
H617 H 0.21356 0.84612 0.96956 0.0
H618 H 0.20883 0.82075 0.94696 0.0
H619 H 0.26532 0.81231 0.95823 0.0
H620 H 0.27046 0.83915 0.97853 0.0
H621 H 0.2076 0.78989 0.95285 0.0
H622 H 0.27927 0.78851 0.93995 0.0
H623 H 0.3074 0.80286 0.92757 0.0
H624 H 0.27504 0.8281 0.88689 0.0
H625 H 0.2468 0.81477 0.89986 0.0
C626 C 0.20603 0.71576 0.90242 0.0
C627 C 0.20676 0.71688 0.88307 0.0
C628 C 0.21163 0.7308 0.91433 0.0
C629 C 0.2176 0.74731 0.90704 0.0
C630 C 0.21862 0.74829 0.88773 0.0
C631 C 0.21339 0.73324 0.87591 0.0
C632 C 0.22271 0.76374 0.91923 0.0
C633 C 0.23926 0.77425 0.91691 0.0
C634 C 0.21115 0.76958 0.93234 0.0
C635 C 0.19297 0.75973 0.93485 0.0
C636 C 0.1796 0.75653 0.9198 0.0
C637 C 0.1625 0.74718 0.92225 0.0
C638 C 0.15857 0.74109 0.93974 0.0
C639 C 0.17171 0.74438 0.95482 0.0
C640 C 0.18884 0.75371 0.95243 0.0
C641 C 0.22509 0.83924 0.96643 0.0
C642 C 0.24243 0.84475 0.97533 0.0
C643 C 0.2224 0.82458 0.95369 0.0
C644 C 0.23674 0.81438 0.95049 0.0
C645 C 0.25416 0.82013 0.95941 0.0
C646 C 0.25705 0.8354 0.97135 0.0
C647 C 0.23272 0.7968 0.93973 0.0
C648 C 0.21651 0.78573 0.94268 0.0
C649 C 0.24429 0.7907 0.92667 0.0
C650 C 0.26103 0.8013 0.92137 0.0
C651 C 0.27823 0.79765 0.92881 0.0
C652 C 0.29417 0.80556 0.92167 0.0
C653 C 0.29301 0.81656 0.90658 0.0
C654 C 0.27592 0.81979 0.89875 0.0
C655 C 0.25997 0.81239 0.90625 0.0
H656 H 0.30535 0.82247 0.90088 0.0
H657 H 0.14532 0.73385 0.94161 0.0
H658 H 0.03798 0.50537 0.47336 0.0
H659 H 0.05484 0.49978 0.44634 0.0
H660 H 0.0076 0.50692 0.40985 0.0
H661 H 0.99048 0.51219 0.43681 0.0
H662 H 0.02681 0.48192 0.39506 0.0
H663 H 0.03908 0.54199 0.42219 0.0
H664 H 0.0483 0.5647 0.44767 0.0
H665 H 0.10089 0.54612 0.45525 0.0
H666 H 0.09187 0.52312 0.42996 0.0
H667 H 0.08769 0.54018 0.33201 0.0
H668 H 0.07033 0.53558 0.35908 0.0
H669 H 0.08093 0.48068 0.3594 0.0
H670 H 0.09823 0.48506 0.33189 0.0
H671 H 0.08091 0.5274 0.39296 0.0
H672 H 0.04372 0.45621 0.37763 0.0
H673 H 0.03254 0.43569 0.3507 0.0
H674 H 0.02665 0.48035 0.31656 0.0
H675 H 0.03756 0.50112 0.34335 0.0
C676 C 0.03102 0.50537 0.45961 0.0
C677 C 0.01297 0.50954 0.45724 0.0
C678 C 0.0407 0.50217 0.44417 0.0
C679 C 0.03259 0.5033 0.4261 0.0
C680 C 0.01414 0.50604 0.42368 0.0
C681 C 0.00439 0.50912 0.43912 0.0
C682 C 0.04387 0.50382 0.40991 0.0
C683 C 0.03874 0.49174 0.39464 0.0
C684 C 0.05925 0.51684 0.40923 0.0
C685 C 0.06474 0.53072 0.42435 0.0
C686 C 0.05256 0.54267 0.42939 0.0
C687 C 0.05775 0.5556 0.44378 0.0
C688 C 0.07515 0.55682 0.45311 0.0
C689 C 0.08741 0.54513 0.44803 0.0
C690 C 0.08227 0.53215 0.43367 0.0
C691 C 0.08635 0.52707 0.33772 0.0
C692 C 0.0944 0.51298 0.3297 0.0
C693 C 0.07643 0.52449 0.35328 0.0
C694 C 0.07427 0.50779 0.36124 0.0
C695 C 0.08226 0.49364 0.35335 0.0
C696 C 0.0922 0.49619 0.33767 0.0
C697 C 0.06387 0.50553 0.37799 0.0
C698 C 0.06918 0.51734 0.39344 0.0
C699 C 0.04845 0.49254 0.37859 0.0
C700 C 0.04168 0.48019 0.36244 0.0
C701 C 0.04 0.46164 0.36439 0.0
C702 C 0.03371 0.44997 0.34915 0.0
C703 C 0.02896 0.45671 0.33191 0.0
C704 C 0.03041 0.47514 0.3299 0.0
C705 C 0.03667 0.48687 0.3451 0.0
H706 H 0.02411 0.44765 0.32013 0.0
H707 H 0.07915 0.56684 0.46425 0.0
H708 H 0.79967 0.80819 0.87055 0.0
H709 H 0.78873 0.78364 0.8896 0.0
H710 H 0.84286 0.78507 0.91695 0.0
H711 H 0.85389 0.80953 0.89784 0.0
H712 H 0.82897 0.75174 0.90849 0.0
H713 H 0.80803 0.80207 0.9387 0.0
H714 H 0.79235 0.82901 0.94075 0.0
H715 H 0.74133 0.79812 0.92155 0.0
H716 H 0.75676 0.77102 0.91915 0.0
H717 H 0.79938 0.69666 0.98291 0.0
H718 H 0.81272 0.72093 0.96457 0.0
H719 H 0.761 0.72044 0.93253 0.0
H720 H 0.7476 0.69643 0.95063 0.0
H721 H 0.77485 0.75385 0.94485 0.0
H722 H 0.79639 0.70361 0.91403 0.0
H723 H 0.81235 0.67683 0.91237 0.0
H724 H 0.86265 0.70786 0.93357 0.0
H725 H 0.84692 0.73481 0.9356 0.0
C726 C 0.80916 0.80355 0.88086 0.0
C727 C 0.82757 0.81106 0.88292 0.0
C728 C 0.80291 0.78942 0.8917 0.0
C729 C 0.81491 0.78265 0.90493 0.0
C730 C 0.83333 0.79006 0.90688 0.0
C731 C 0.8396 0.80408 0.89597 0.0
C732 C 0.80832 0.7677 0.91657 0.0
C733 C 0.81729 0.75232 0.91665 0.0
C734 C 0.79294 0.7683 0.92704 0.0
C735 C 0.78359 0.78455 0.92858 0.0
C736 C 0.79349 0.80104 0.93479 0.0
C737 C 0.78464 0.81634 0.93604 0.0
C738 C 0.76586 0.81528 0.93124 0.0
C739 C 0.75588 0.79892 0.92524 0.0
C740 C 0.76467 0.78358 0.92395 0.0
C741 C 0.79091 0.70159 0.97183 0.0
C742 C 0.77237 0.69462 0.96837 0.0
C743 C 0.79856 0.71546 0.96135 0.0
C744 C 0.78783 0.72252 0.9472 0.0
C745 C 0.7695 0.71529 0.94346 0.0
C746 C 0.76188 0.70149 0.95384 0.0
C747 C 0.79536 0.73784 0.93659 0.0
C748 C 0.78657 0.75332 0.93674 0.0
C749 C 0.81095 0.73735 0.92643 0.0
C750 C 0.82043 0.72118 0.92516 0.0
C751 C 0.81082 0.7047 0.91849 0.0
C752 C 0.81983 0.68949 0.91745 0.0
C753 C 0.83849 0.69063 0.92292 0.0
C754 C 0.84819 0.70699 0.92938 0.0
C755 C 0.83923 0.72224 0.93046 0.0
H756 H 0.84544 0.67884 0.9221 0.0
H757 H 0.75904 0.82714 0.93221 0.0
H758 H 0.98811 0.03935 0.45333 0.0
H759 H 0.97068 0.03882 0.42312 0.0
H760 H 0.97829 0.98363 0.41334 0.0
H761 H 0.99583 0.98405 0.44354 0.0
H762 H 0.98647 0.00394 0.38365 0.0
H763 H 0.93735 0.99449 0.42381 0.0
H764 H 0.91981 0.00138 0.45035 0.0
H765 H 0.91118 0.05186 0.42797 0.0
H766 H 0.9289 0.04537 0.40141 0.0
H767 H 0.92324 0.97933 0.30652 0.0
H768 H 0.9409 0.98262 0.33651 0.0
H769 H 0.92743 0.03628 0.34399 0.0
H770 H 0.90924 0.03298 0.314 0.0
H771 H 0.92288 0.01869 0.37475 0.0
H772 H 0.97079 0.02812 0.3341 0.0
H773 H 0.98843 0.02174 0.30748 0.0
H774 H 0.99984 0.97233 0.33061 0.0
H775 H 0.98205 0.97829 0.35726 0.0
C776 C 0.98595 0.02704 0.44484 0.0
C777 C 0.99338 0.01174 0.45085 0.0
C778 C 0.97594 0.02676 0.42759 0.0
C779 C 0.97314 0.01117 0.41601 0.0
C780 C 0.98032 0.99581 0.42206 0.0
C781 C 0.99026 0.99605 0.43936 0.0
C782 C 0.96329 0.01106 0.39731 0.0
C783 C 0.97249 0.00694 0.3817 0.0
C784 C 0.94527 0.0156 0.39476 0.0
C785 C 0.93462 0.01952 0.41072 0.0
C786 C 0.93185 0.00713 0.42463 0.0
C787 C 0.92185 0.01095 0.43966 0.0
C788 C 0.91443 0.02707 0.44088 0.0
C789 C 0.91696 0.03939 0.42703 0.0
C790 C 0.92697 0.03564 0.41198 0.0
C791 C 0.92415 0.99195 0.31437 0.0
C792 C 0.91481 0.00593 0.30774 0.0
C793 C 0.93434 0.99382 0.33155 0.0
C794 C 0.9357 0.00978 0.34243 0.0
C795 C 0.92661 0.02386 0.33581 0.0
C796 C 0.91628 0.02197 0.31862 0.0
C797 C 0.946 0.01136 0.36104 0.0
C798 C 0.93691 0.01578 0.37665 0.0
C799 C 0.96417 0.00721 0.36359 0.0
C800 C 0.97496 0.0036 0.34761 0.0
C801 C 0.97695 0.01583 0.33345 0.0
C802 C 0.98699 0.0123 0.31836 0.0
C803 C 0.99522 0.99662 0.31733 0.0
C804 C 0.99345 0.98446 0.33142 0.0
C805 C 0.98341 0.98793 0.34653 0.0
H806 H 0.00298 0.99391 0.30564 0.0
H807 H 0.90669 0.03 0.45252 0.0
H808 H 0.21129 0.26306 0.67399 0.0
H809 H 0.22108 0.24409 0.64938 0.0
H810 H 0.18 0.26079 0.61048 0.0
H811 H 0.17006 0.27975 0.63501 0.0
H812 H 0.18156 0.22463 0.60742 0.0
H813 H 0.22355 0.27885 0.61009 0.0
H814 H 0.24605 0.30265 0.62544 0.0
H815 H 0.28173 0.26387 0.64086 0.0
H816 H 0.25931 0.23979 0.62581 0.0
H817 H 0.21238 0.19713 0.52274 0.0
H818 H 0.20422 0.21582 0.54829 0.0
H819 H 0.24799 0.19947 0.58407 0.0
H820 H 0.25656 0.18093 0.5584 0.0
H821 H 0.24549 0.23452 0.5897 0.0
H822 H 0.20432 0.18036 0.58614 0.0
H823 H 0.18229 0.15648 0.57025 0.0
H824 H 0.14522 0.19457 0.55685 0.0
H825 H 0.16719 0.21876 0.57236 0.0
C826 C 0.20427 0.26263 0.66023 0.0
C827 C 0.18994 0.27297 0.65644 0.0
C828 C 0.20993 0.25183 0.64617 0.0
C829 C 0.20139 0.25118 0.62806 0.0
C830 C 0.18679 0.26113 0.62435 0.0
C831 C 0.18116 0.27199 0.63838 0.0
C832 C 0.20786 0.24036 0.6129 0.0
C833 C 0.19548 0.22691 0.60341 0.0
C834 C 0.22615 0.24304 0.60801 0.0
C835 C 0.23967 0.2575 0.617 0.0
C836 C 0.23613 0.27538 0.61689 0.0
C837 C 0.24888 0.28892 0.62551 0.0
C838 C 0.26529 0.28477 0.63417 0.0
C839 C 0.269 0.26707 0.63417 0.0
C840 C 0.25628 0.25347 0.62559 0.0
C841 C 0.2204 0.19756 0.53598 0.0
C842 C 0.23505 0.18738 0.53854 0.0
C843 C 0.21565 0.20823 0.55061 0.0
C844 C 0.22525 0.20875 0.56819 0.0
C845 C 0.24033 0.19918 0.57063 0.0
C846 C 0.2452 0.18858 0.55594 0.0
C847 C 0.21916 0.21889 0.5841 0.0
C848 C 0.2316 0.23217 0.59376 0.0
C849 C 0.20094 0.216 0.58922 0.0
C850 C 0.18748 0.2014 0.58029 0.0
C851 C 0.19151 0.18367 0.57972 0.0
C852 C 0.17904 0.17007 0.57078 0.0
C853 C 0.16238 0.17401 0.56252 0.0
C854 C 0.15814 0.19155 0.56324 0.0
C855 C 0.17059 0.2052 0.57212 0.0
H856 H 0.15275 0.16347 0.55557 0.0
H857 H 0.27514 0.29528 0.64083 0.0
H858 H 0.50829 0.51759 0.61754 0.0
H859 H 0.49106 0.50839 0.64404 0.0
H860 H 0.46634 0.55727 0.6429 0.0
H861 H 0.48363 0.56666 0.61674 0.0
H862 H 0.47654 0.54994 0.67784 0.0
H863 H 0.44342 0.51765 0.62413 0.0
H864 H 0.4399 0.49719 0.5963 0.0
H865 H 0.45555 0.45478 0.62967 0.0
H866 H 0.45938 0.47507 0.65767 0.0
H867 H 0.39781 0.53051 0.72657 0.0
H868 H 0.41965 0.53783 0.70347 0.0
H869 H 0.43915 0.48659 0.70919 0.0
H870 H 0.41706 0.47895 0.73207 0.0
H871 H 0.43408 0.49356 0.67355 0.0
H872 H 0.46462 0.5252 0.72782 0.0
H873 H 0.46778 0.54562 0.75566 0.0
H874 H 0.4571 0.58916 0.72153 0.0
H875 H 0.45362 0.56896 0.6935 0.0
C876 C 0.49923 0.5264 0.62299 0.0
C877 C 0.49728 0.54283 0.61497 0.0
C878 C 0.48935 0.5211 0.63809 0.0
C879 C 0.47727 0.53207 0.64533 0.0
C880 C 0.47558 0.54859 0.63756 0.0
C881 C 0.48545 0.55391 0.62254 0.0
C882 C 0.4661 0.52637 0.66083 0.0
C883 C 0.46715 0.53768 0.67686 0.0
C884 C 0.45422 0.51013 0.65976 0.0
C885 C 0.45189 0.49793 0.64295 0.0
C886 C 0.44625 0.504 0.6255 0.0
C887 C 0.44417 0.49243 0.60971 0.0
C888 C 0.44755 0.47472 0.6112 0.0
C889 C 0.45297 0.46852 0.62852 0.0
C890 C 0.45509 0.48004 0.64436 0.0
C891 C 0.40679 0.5208 0.72304 0.0
C892 C 0.40567 0.50414 0.73127 0.0
C893 C 0.41935 0.52506 0.70986 0.0
C894 C 0.43122 0.51286 0.70477 0.0
C895 C 0.43016 0.49623 0.71294 0.0
C896 C 0.41754 0.49192 0.72607 0.0
C897 C 0.4443 0.51728 0.69047 0.0
C898 C 0.44361 0.50573 0.67466 0.0
C899 C 0.45652 0.5333 0.69175 0.0
C900 C 0.45872 0.54552 0.70857 0.0
C901 C 0.46282 0.53911 0.72626 0.0
C902 C 0.46469 0.55064 0.74208 0.0
C903 C 0.46261 0.56867 0.74037 0.0
C904 C 0.4587 0.5752 0.72283 0.0
C905 C 0.4568 0.56371 0.70698 0.0
H906 H 0.46406 0.57758 0.75263 0.0
H907 H 0.44593 0.46578 0.59896 0.0
H908 H 0.81969 0.23904 0.6436 0.0
H909 H 0.81246 0.26311 0.6237 0.0
H910 H 0.77866 0.28179 0.66466 0.0
H911 H 0.78559 0.25753 0.68454 0.0
H912 H 0.76137 0.28028 0.631 0.0
H913 H 0.82057 0.30478 0.65766 0.0
H914 H 0.85346 0.30529 0.66678 0.0
H915 H 0.86413 0.29845 0.60942 0.0
H916 H 0.83126 0.29764 0.59997 0.0
H917 H 0.74725 0.35874 0.58322 0.0
H918 H 0.75753 0.33956 0.60751 0.0
H919 H 0.79025 0.3154 0.56898 0.0
H920 H 0.78016 0.33457 0.54472 0.0
H921 H 0.80833 0.32161 0.60345 0.0
H922 H 0.74891 0.2948 0.5773 0.0
H923 H 0.71601 0.29418 0.56816 0.0
H924 H 0.70593 0.30549 0.62499 0.0
H925 H 0.73884 0.30642 0.63442 0.0
C926 C 0.81082 0.24833 0.64846 0.0
C927 C 0.80322 0.24635 0.66567 0.0
C928 C 0.80677 0.26216 0.63709 0.0
C929 C 0.79517 0.2744 0.64276 0.0
C930 C 0.78767 0.27253 0.66001 0.0
C931 C 0.79168 0.25867 0.67137 0.0
C932 C 0.79023 0.28864 0.63031 0.0
C933 C 0.77165 0.28953 0.62527 0.0
C934 C 0.80362 0.3005 0.6225 0.0
C935 C 0.82341 0.301 0.62812 0.0
C936 C 0.82991 0.30324 0.647 0.0
C937 C 0.84855 0.30361 0.65223 0.0
C938 C 0.86087 0.30186 0.63869 0.0
C939 C 0.85457 0.29978 0.61989 0.0
C940 C 0.83593 0.29939 0.61459 0.0
C941 C 0.75678 0.34948 0.57998 0.0
C942 C 0.7628 0.34809 0.56201 0.0
C943 C 0.76259 0.33848 0.59385 0.0
C944 C 0.77449 0.32589 0.58999 0.0
C945 C 0.78106 0.32499 0.57227 0.0
C946 C 0.77522 0.33593 0.55839 0.0
C947 C 0.77953 0.31312 0.60409 0.0
C948 C 0.79809 0.31247 0.60938 0.0
C949 C 0.76614 0.30149 0.61216 0.0
C950 C 0.74635 0.30088 0.60652 0.0
C951 C 0.7397 0.2973 0.58782 0.0
C952 C 0.72105 0.29687 0.58259 0.0
C953 C 0.70889 0.29985 0.59598 0.0
C954 C 0.71537 0.30322 0.61463 0.0
C955 C 0.73401 0.30369 0.61992 0.0
H956 H 0.69446 0.2995 0.5919 0.0
H957 H 0.8753 0.30216 0.64276 0.0
H958 H 0.47998 0.01781 0.61763 0.0
H959 H 0.49468 0.02114 0.64936 0.0
H960 H 0.52344 0.97594 0.63836 0.0
H961 H 0.50864 0.97232 0.60692 0.0
H962 H 0.51151 0.97473 0.6723 0.0
H963 H 0.54402 0.01908 0.63626 0.0
H964 H 0.54691 0.04483 0.61616 0.0
H965 H 0.52612 0.07715 0.65789 0.0
H966 H 0.5229 0.05151 0.67815 0.0
H967 H 0.58867 0.98905 0.73862 0.0
H968 H 0.56685 0.98416 0.71122 0.0
H969 H 0.5423 0.03068 0.72768 0.0
H970 H 0.56421 0.03588 0.75488 0.0
H971 H 0.54939 0.03186 0.69253 0.0
H972 H 0.51987 0.98801 0.73001 0.0
H973 H 0.51761 0.96225 0.7501 0.0
H974 H 0.53309 0.92891 0.70597 0.0
H975 H 0.53569 0.95454 0.68568 0.0
C976 C 0.48933 0.00852 0.62201 0.0
C977 C 0.49321 0.99488 0.60966 0.0
C978 C 0.49777 0.01046 0.64014 0.0
C979 C 0.51033 0.9989 0.64617 0.0
C980 C 0.5138 0.98501 0.63403 0.0
C981 C 0.50536 0.98302 0.61599 0.0
C982 C 0.52045 0.00155 0.66484 0.0
C983 C 0.51988 0.98718 0.6767 0.0
C984 C 0.53106 0.01792 0.67076 0.0
C985 C 0.53302 0.03333 0.65861 0.0
C986 C 0.53993 0.03164 0.64108 0.0
C987 C 0.54166 0.04622 0.62967 0.0
C988 C 0.53665 0.0626 0.63572 0.0
C989 C 0.52996 0.06444 0.65321 0.0
C990 C 0.52819 0.0499 0.66466 0.0
C991 C 0.57846 0.99809 0.73659 0.0
C992 C 0.57828 0.0129 0.74896 0.0
C993 C 0.56593 0.99524 0.72092 0.0
C994 C 0.55285 0.007 0.71742 0.0
C995 C 0.55229 0.02145 0.73006 0.0
C996 C 0.56483 0.02437 0.74565 0.0
C997 C 0.54062 0.00498 0.69997 0.0
C998 C 0.54083 0.01946 0.6883 0.0
C999 C 0.52973 0.98871 0.69423 0.0
C1000 C 0.52812 0.97324 0.70637 0.0
C1001 C 0.52293 0.97522 0.72463 0.0
C1002 C 0.52156 0.96063 0.73605 0.0
C1003 C 0.52524 0.94397 0.72933 0.0
C1004 C 0.53026 0.94184 0.71116 0.0
C1005 C 0.53165 0.95638 0.69969 0.0
H1006 H 0.52418 0.93269 0.73819 0.0
H1007 H 0.538 0.07387 0.62687 0.0
H1008 H 0.87025 0.17287 0.74351 0.0
H1009 H 0.89312 0.17922 0.76983 0.0
H1010 H 0.88297 0.23426 0.77216 0.0
H1011 H 0.86009 0.22808 0.74565 0.0
H1012 H 0.91935 0.23118 0.77732 0.0
H1013 H 0.86401 0.20571 0.80188 0.0
H1014 H 0.83724 0.1833 0.80435 0.0
H1015 H 0.87268 0.14361 0.81712 0.0
H1016 H 0.89968 0.16574 0.81446 0.0
H1017 H 0.95658 0.25574 0.8689 0.0
H1018 H 0.93522 0.24864 0.84133 0.0
H1019 H 0.94867 0.19461 0.83946 0.0
H1020 H 0.97005 0.20174 0.86732 0.0
H1021 H 0.91112 0.19666 0.83399 0.0
H1022 H 0.96662 0.22267 0.81006 0.0
H1023 H 0.99313 0.24561 0.8085 0.0
H1024 H 0.95713 0.28469 0.79529 0.0
H1025 H 0.93038 0.26204 0.797 0.0
C1026 C 0.87297 0.18639 0.74947 0.0
C1027 C 0.86322 0.19995 0.74253 0.0
C1028 C 0.886 0.18996 0.76459 0.0
C1029 C 0.88951 0.20713 0.77315 0.0
C1030 C 0.88039 0.22089 0.76581 0.0
C1031 C 0.86731 0.21732 0.75066 0.0
C1032 C 0.90237 0.2106 0.79004 0.0
C1033 C 0.91745 0.22376 0.78977 0.0
C1034 C 0.90006 0.20067 0.80617 0.0
C1035 C 0.88386 0.18734 0.80775 0.0
C1036 C 0.86609 0.19217 0.80505 0.0
C1037 C 0.85088 0.17952 0.80651 0.0
C1038 C 0.85326 0.16202 0.81083 0.0
C1039 C 0.87086 0.15716 0.81374 0.0
C1040 C 0.88612 0.16975 0.81226 0.0
C1041 C 0.95473 0.24228 0.86274 0.0
C1042 C 0.96444 0.22909 0.87041 0.0
C1043 C 0.94271 0.23829 0.84692 0.0
C1044 C 0.94046 0.22113 0.83832 0.0
C1045 C 0.9502 0.20791 0.84596 0.0
C1046 C 0.96236 0.21196 0.86178 0.0
C1047 C 0.92808 0.21717 0.82121 0.0
C1048 C 0.91307 0.20397 0.82148 0.0
C1049 C 0.93042 0.22709 0.80511 0.0
C1050 C 0.94649 0.24069 0.80381 0.0
C1051 C 0.96435 0.23619 0.80694 0.0
C1052 C 0.97942 0.24913 0.80602 0.0
C1053 C 0.97682 0.26661 0.80186 0.0
C1054 C 0.95913 0.27116 0.79853 0.0
C1055 C 0.944 0.25826 0.79945 0.0
H1056 H 0.98851 0.27661 0.80117 0.0
H1057 H 0.84146 0.15225 0.81197 0.0
H1058 H 0.49707 0.93492 0.50382 0.0
H1059 H 0.50334 0.90815 0.48649 0.0
H1060 H 0.46514 0.87577 0.51744 0.0
H1061 H 0.45912 0.90234 0.53504 0.0
H1062 H 0.49562 0.86111 0.51617 0.0
H1063 H 0.45509 0.88592 0.47147 0.0
H1064 H 0.44474 0.9092 0.4516 0.0
H1065 H 0.49397 0.91114 0.42329 0.0
H1066 H 0.50473 0.88802 0.44318 0.0
H1067 H 0.47368 0.78166 0.46045 0.0
H1068 H 0.47458 0.81009 0.47779 0.0
H1069 H 0.51792 0.8331 0.44597 0.0
H1070 H 0.51713 0.80453 0.42843 0.0
H1071 H 0.48918 0.85369 0.44729 0.0
H1072 H 0.52783 0.82605 0.49031 0.0
H1073 H 0.53708 0.80211 0.5099 0.0
H1074 H 0.49026 0.80492 0.54122 0.0
H1075 H 0.48057 0.82871 0.52165 0.0
C1076 C 0.48988 0.92212 0.50681 0.0
C1077 C 0.4776 0.92077 0.52083 0.0
C1078 C 0.49347 0.90682 0.49687 0.0
C1079 C 0.48467 0.88993 0.50061 0.0
C1080 C 0.47217 0.88863 0.51437 0.0
C1081 C 0.46868 0.90387 0.52437 0.0
C1082 C 0.48869 0.87348 0.49058 0.0
C1083 C 0.49405 0.85945 0.50111 0.0
C1084 C 0.48724 0.87149 0.47091 0.0
C1085 C 0.4808 0.8854 0.45896 0.0
C1086 C 0.46378 0.89142 0.46112 0.0
C1087 C 0.45782 0.90457 0.44983 0.0
C1088 C 0.46872 0.91169 0.43623 0.0
C1089 C 0.48557 0.90564 0.43386 0.0
C1090 C 0.49159 0.89251 0.44513 0.0
C1091 C 0.4836 0.79267 0.45726 0.0
C1092 C 0.49533 0.79081 0.44303 0.0
C1093 C 0.48413 0.80892 0.46725 0.0
C1094 C 0.49636 0.82369 0.46322 0.0
C1095 C 0.5084 0.82183 0.44931 0.0
C1096 C 0.50801 0.80547 0.43939 0.0
C1097 C 0.49568 0.84124 0.47292 0.0
C1098 C 0.49097 0.85547 0.46234 0.0
C1099 C 0.4976 0.84338 0.49255 0.0
C1100 C 0.50341 0.8291 0.50441 0.0
C1101 C 0.51942 0.82148 0.50128 0.0
C1102 C 0.52476 0.80795 0.5124 0.0
C1103 C 0.51425 0.80198 0.52677 0.0
C1104 C 0.49839 0.80955 0.53008 0.0
C1105 C 0.49298 0.82308 0.51899 0.0
H1106 H 0.5184 0.7915 0.53537 0.0
H1107 H 0.46408 0.92186 0.4275 0.0
H1108 H 0.09751 0.34098 0.75481 0.0
H1109 H 0.08085 0.33183 0.78155 0.0
H1110 H 0.11754 0.29261 0.79314 0.0
H1111 H 0.13402 0.30139 0.76612 0.0
H1112 H 0.08363 0.279 0.79733 0.0
H1113 H 0.12154 0.33297 0.81849 0.0
H1114 H 0.13443 0.36457 0.81757 0.0
H1115 H 0.08094 0.38061 0.82091 0.0
H1116 H 0.06769 0.34908 0.8216 0.0
H1117 H 0.05727 0.2622 0.88775 0.0
H1118 H 0.0769 0.27391 0.86401 0.0
H1119 H 0.03651 0.3075 0.84561 0.0
H1120 H 0.01675 0.29578 0.86921 0.0
H1121 H 0.07332 0.32411 0.84595 0.0
H1122 H 0.03557 0.26982 0.82348 0.0
H1123 H 0.02304 0.23819 0.82511 0.0
H1124 H 0.07708 0.22284 0.82471 0.0
H1125 H 0.08999 0.25443 0.82345 0.0
C1126 C 0.10199 0.33034 0.76298 0.0
C1127 C 0.11716 0.32197 0.75838 0.0
C1128 C 0.09251 0.3252 0.77835 0.0
C1129 C 0.09816 0.31178 0.78959 0.0
C1130 C 0.11299 0.30307 0.78473 0.0
C1131 C 0.1224 0.30811 0.76928 0.0
C1132 C 0.08857 0.3068 0.80637 0.0
C1133 C 0.08165 0.28885 0.80808 0.0
C1134 C 0.08567 0.31967 0.82028 0.0
C1135 C 0.09361 0.33865 0.81993 0.0
C1136 C 0.11251 0.34323 0.81889 0.0
C1137 C 0.11988 0.36113 0.81843 0.0
C1138 C 0.10851 0.37459 0.81913 0.0
C1139 C 0.08973 0.37017 0.82034 0.0
C1140 C 0.08229 0.35229 0.82079 0.0
C1141 C 0.05275 0.27237 0.87894 0.0
C1142 C 0.03541 0.27797 0.88024 0.0
C1143 C 0.06394 0.27899 0.86534 0.0
C1144 C 0.05802 0.29138 0.85294 0.0
C1145 C 0.04129 0.29791 0.85504 0.0
C1146 C 0.03001 0.29117 0.86851 0.0
C1147 C 0.06849 0.2964 0.83682 0.0
C1148 C 0.07548 0.31432 0.83522 0.0
C1149 C 0.07153 0.28351 0.82304 0.0
C1150 C 0.06377 0.2645 0.82358 0.0
C1151 C 0.0448 0.25971 0.8239 0.0
C1152 C 0.03763 0.24179 0.82473 0.0
C1153 C 0.04926 0.22852 0.82504 0.0
C1154 C 0.06809 0.23314 0.82449 0.0
C1155 C 0.07534 0.25105 0.82372 0.0
H1156 H 0.04367 0.21466 0.82568 0.0
H1157 H 0.11424 0.38844 0.81877 0.0
H1158 H 0.56469 0.59183 0.51137 0.0
H1159 H 0.55938 0.61729 0.4924 0.0
H1160 H 0.50489 0.61557 0.51044 0.0
H1161 H 0.50993 0.59018 0.5291 0.0
H1162 H 0.50469 0.6207 0.47401 0.0
H1163 H 0.5401 0.64571 0.52998 0.0
H1164 H 0.56673 0.64942 0.55314 0.0
H1165 H 0.60204 0.66558 0.51057 0.0
H1166 H 0.57563 0.66174 0.4871 0.0
H1167 H 0.47908 0.70495 0.45628 0.0
H1168 H 0.48871 0.67968 0.47282 0.0
H1169 H 0.5407 0.68709 0.44894 0.0
H1170 H 0.53133 0.71262 0.43246 0.0
H1171 H 0.54433 0.67851 0.48561 0.0
H1172 H 0.50808 0.65607 0.4301 0.0
H1173 H 0.481 0.65366 0.40761 0.0
H1174 H 0.44698 0.63295 0.4495 0.0
H1175 H 0.47382 0.63556 0.47237 0.0
C1176 C 0.55154 0.5968 0.51117 0.0
C1177 C 0.53778 0.58899 0.52184 0.0
C1178 C 0.54856 0.6114 0.5004 0.0
C1179 C 0.53179 0.61846 0.50015 0.0
C1180 C 0.51792 0.61037 0.5104 0.0
C1181 C 0.52088 0.59586 0.52114 0.0
C1182 C 0.5286 0.63448 0.4896 0.0
C1183 C 0.51331 0.63335 0.47663 0.0
C1184 C 0.54007 0.65091 0.49268 0.0
C1185 C 0.55594 0.65323 0.50676 0.0
C1186 C 0.55357 0.64991 0.52554 0.0
C1187 C 0.56862 0.65206 0.53872 0.0
C1188 C 0.58608 0.65767 0.53332 0.0
C1189 C 0.58852 0.6612 0.51472 0.0
C1190 C 0.57352 0.65904 0.50148 0.0
C1191 C 0.49266 0.70139 0.45466 0.0
C1192 C 0.50435 0.71078 0.44286 0.0
C1193 C 0.49811 0.68687 0.4641 0.0
C1194 C 0.51529 0.6813 0.46183 0.0
C1195 C 0.52735 0.69111 0.4508 0.0
C1196 C 0.52193 0.70569 0.44136 0.0
C1197 C 0.52024 0.66478 0.47035 0.0
C1198 C 0.53585 0.6658 0.48286 0.0
C1199 C 0.50906 0.64823 0.46687 0.0
C1200 C 0.49296 0.64613 0.45299 0.0
C1201 C 0.49481 0.65108 0.43455 0.0
C1202 C 0.4795 0.64969 0.42173 0.0
C1203 C 0.46228 0.64319 0.42713 0.0
C1204 C 0.46034 0.638 0.44534 0.0
C1205 C 0.4756 0.63942 0.45824 0.0
H1206 H 0.45043 0.64215 0.41719 0.0
H1207 H 0.59771 0.65934 0.54355 0.0
H1208 H 0.86638 0.82272 0.78745 0.0
H1209 H 0.88293 0.81206 0.76197 0.0
H1210 H 0.93391 0.83667 0.78981 0.0
H1211 H 0.91749 0.84726 0.81549 0.0
H1212 H 0.92972 0.84185 0.75011 0.0
H1213 H 0.92466 0.79485 0.79382 0.0
H1214 H 0.908 0.77356 0.81356 0.0
H1215 H 0.87542 0.7493 0.76541 0.0
H1216 H 0.89173 0.77062 0.74541 0.0
H1217 H 0.99131 0.79453 0.70165 0.0
H1218 H 0.97416 0.81015 0.7234 0.0
H1219 H 0.92492 0.77559 0.70432 0.0
H1220 H 0.9422 0.75946 0.68326 0.0
H1221 H 0.92801 0.77639 0.73956 0.0
H1222 H 0.93287 0.82195 0.69523 0.0
H1223 H 0.94849 0.84326 0.67478 0.0
H1224 H 0.97979 0.87041 0.72224 0.0
H1225 H 0.96454 0.8491 0.74296 0.0
C1226 C 0.8811 0.82595 0.78812 0.0
C1227 C 0.89065 0.83573 0.80354 0.0
C1228 C 0.89052 0.81986 0.77356 0.0
C1229 C 0.90962 0.82355 0.77408 0.0
C1230 C 0.91916 0.83374 0.78916 0.0
C1231 C 0.90977 0.83967 0.80385 0.0
C1232 C 0.91969 0.81597 0.75931 0.0
C1233 C 0.92954 0.82755 0.74785 0.0
C1234 C 0.91903 0.79733 0.75616 0.0
C1235 C 0.90928 0.78445 0.76815 0.0
C1236 C 0.91384 0.78507 0.78747 0.0
C1237 C 0.90448 0.77298 0.7987 0.0
C1238 C 0.89063 0.76012 0.79075 0.0
C1239 C 0.88614 0.75929 0.77155 0.0
C1240 C 0.89544 0.77136 0.76026 0.0
C1241 C 0.97676 0.79051 0.70187 0.0
C1242 C 0.9681 0.77574 0.69085 0.0
C1243 C 0.96693 0.79949 0.71427 0.0
C1244 C 0.94818 0.79413 0.71549 0.0
C1245 C 0.93939 0.77992 0.70376 0.0
C1246 C 0.94926 0.77074 0.69168 0.0
C1247 C 0.93801 0.80222 0.72999 0.0
C1248 C 0.92816 0.79072 0.74157 0.0
C1249 C 0.93853 0.82093 0.73305 0.0
C1250 C 0.94767 0.83382 0.72063 0.0
C1251 C 0.94318 0.83238 0.7013 0.0
C1252 C 0.95195 0.84447 0.68966 0.0
C1253 C 0.96516 0.85815 0.6972 0.0
C1254 C 0.96958 0.8598 0.71641 0.0
C1255 C 0.96086 0.84772 0.72812 0.0
H1256 H 0.97193 0.8675 0.68817 0.0
H1257 H 0.8834 0.75076 0.79947 0.0
H1258 H 0.04351 0.94151 0.57233 0.0
H1259 H 0.04035 0.91475 0.59065 0.0
H1260 H 0.02846 0.88173 0.54016 0.0
H1261 H 0.03207 0.90836 0.5217 0.0
H1262 H 0.00277 0.8761 0.57072 0.0
H1263 H 0.06675 0.88014 0.55837 0.0
H1264 H 0.09806 0.89573 0.55846 0.0
H1265 H 0.10052 0.90393 0.61786 0.0
H1266 H 0.0691 0.88861 0.61808 0.0
H1267 H 0.00342 0.79021 0.60501 0.0
H1268 H 0.00827 0.81708 0.58734 0.0
H1269 H 0.03862 0.84512 0.63529 0.0
H1270 H 0.03453 0.81791 0.65275 0.0
H1271 H 0.05494 0.85433 0.6066 0.0
H1272 H 0.99282 0.85118 0.6208 0.0
H1273 H 0.96101 0.83759 0.62278 0.0
H1274 H 0.95387 0.8304 0.56324 0.0
H1275 H 0.98573 0.84373 0.56091 0.0
C1276 C 0.0403 0.92854 0.56513 0.0
C1277 C 0.03806 0.92702 0.54558 0.0
C1278 C 0.03853 0.9133 0.57561 0.0
C1279 C 0.03418 0.89632 0.56672 0.0
C1280 C 0.03183 0.89475 0.54723 0.0
C1281 C 0.03396 0.90995 0.53673 0.0
C1282 C 0.0318 0.88021 0.5778 0.0
C1283 C 0.01417 0.87115 0.5784 0.0
C1284 C 0.0466 0.87427 0.58833 0.0
C1285 C 0.06551 0.88341 0.58821 0.0
C1286 C 0.0739 0.88542 0.57143 0.0
C1287 C 0.09168 0.89418 0.57143 0.0
C1288 C 0.10125 0.90087 0.58815 0.0
C1289 C 0.09308 0.89877 0.60492 0.0
C1290 C 0.0753 0.89004 0.60499 0.0
C1291 C 0.01112 0.80211 0.61179 0.0
C1292 C 0.01852 0.802 0.63029 0.0
C1293 C 0.01381 0.81752 0.6017 0.0
C1294 C 0.02349 0.83332 0.61006 0.0
C1295 C 0.03106 0.83315 0.62851 0.0
C1296 C 0.02868 0.81761 0.6385 0.0
C1297 C 0.02583 0.84991 0.59948 0.0
C1298 C 0.04345 0.85918 0.59899 0.0
C1299 C 0.01092 0.85629 0.58937 0.0
C1300 C 0.99172 0.8483 0.5907 0.0
C1301 C 0.98451 0.84658 0.60813 0.0
C1302 C 0.96646 0.83895 0.60932 0.0
C1303 C 0.95544 0.8331 0.59315 0.0
C1304 C 0.96243 0.83492 0.57576 0.0
C1305 C 0.98048 0.84253 0.57449 0.0
H1306 H 0.94147 0.82719 0.5941 0.0
H1307 H 0.11502 0.90764 0.58812 0.0
H1308 H 0.10065 0.67551 0.83273 0.0
H1309 H 0.0806 0.68628 0.80826 0.0
H1310 H 0.12551 0.69363 0.77329 0.0
H1311 H 0.14567 0.6828 0.79766 0.0
H1312 H 0.10665 0.72353 0.77633 0.0
H1313 H 0.09307 0.66024 0.7628 0.0
H1314 H 0.084 0.62897 0.77024 0.0
H1315 H 0.03249 0.6425 0.7865 0.0
H1316 H 0.04136 0.67391 0.77941 0.0
H1317 H 0.0549 0.74212 0.69363 0.0
H1318 H 0.07555 0.73133 0.7175 0.0
H1319 H 0.02956 0.71374 0.74865 0.0
H1320 H 0.00882 0.72375 0.72437 0.0
H1321 H 0.04968 0.68879 0.74737 0.0
H1322 H 0.06247 0.75166 0.76217 0.0
H1323 H 0.07101 0.78338 0.75615 0.0
H1324 H 0.123 0.77167 0.73945 0.0
H1325 H 0.11468 0.73982 0.74514 0.0
C1326 C 0.10623 0.67922 0.81975 0.0
C1327 C 0.12476 0.6783 0.81714 0.0
C1328 C 0.09474 0.68535 0.80578 0.0
C1329 C 0.10159 0.69073 0.78898 0.0
C1330 C 0.11999 0.68956 0.78619 0.0
C1331 C 0.13145 0.68327 0.80009 0.0
C1332 C 0.08967 0.69819 0.7746 0.0
C1333 C 0.09431 0.71589 0.76976 0.0
C1334 C 0.07333 0.68836 0.76653 0.0
C1335 C 0.06795 0.66946 0.77074 0.0
C1336 C 0.07987 0.65658 0.76811 0.0
C1337 C 0.07476 0.63882 0.77223 0.0
C1338 C 0.0577 0.63376 0.77888 0.0
C1339 C 0.04571 0.64644 0.78137 0.0
C1340 C 0.05076 0.66422 0.77729 0.0
C1341 C 0.04924 0.73623 0.70573 0.0
C1342 C 0.03026 0.73382 0.70717 0.0
C1343 C 0.06106 0.73008 0.71941 0.0
C1344 C 0.05417 0.72185 0.73503 0.0
C1345 C 0.03523 0.71997 0.73673 0.0
C1346 C 0.02339 0.72577 0.72288 0.0
C1347 C 0.0665 0.71431 0.7491 0.0
C1348 C 0.06198 0.69653 0.75389 0.0
C1349 C 0.08283 0.72418 0.75733 0.0
C1350 C 0.08787 0.74333 0.75391 0.0
C1351 C 0.07567 0.75582 0.75708 0.0
C1352 C 0.08048 0.77383 0.75375 0.0
C1353 C 0.09751 0.77953 0.74737 0.0
C1354 C 0.1098 0.76724 0.74436 0.0
C1355 C 0.10505 0.74921 0.74766 0.0
H1356 H 0.10121 0.79348 0.7448 0.0
H1357 H 0.05377 0.62 0.78207 0.0
H1358 H 0.9868 0.58535 0.54351 0.0
H1359 H 0.98694 0.61356 0.5614 0.0
H1360 H 0.04567 0.62305 0.56163 0.0
H1361 H 0.04569 0.59493 0.54377 0.0
H1362 H 0.03369 0.62797 0.59614 0.0
H1363 H 0.02053 0.64673 0.53458 0.0
H1364 H 0.00398 0.64567 0.50351 0.0
H1365 H 0.9545 0.65384 0.52843 0.0
H1366 H 0.97069 0.65469 0.55968 0.0
H1367 H 0.03963 0.71443 0.64032 0.0
H1368 H 0.04246 0.68833 0.62065 0.0
H1369 H 0.98504 0.68463 0.6024 0.0
H1370 H 0.98339 0.71287 0.61939 0.0
H1371 H 0.99886 0.67679 0.57555 0.0
H1372 H 0.01085 0.64339 0.63552 0.0
H1373 H 0.02712 0.64066 0.66633 0.0
H1374 H 0.07825 0.65815 0.64417 0.0
H1375 H 0.06216 0.66072 0.61328 0.0
C1376 C 0.99974 0.59346 0.54734 0.0
C1377 C 0.01624 0.58789 0.54225 0.0
C1378 C 0.99978 0.60962 0.55745 0.0
C1379 C 0.01631 0.62045 0.56269 0.0
C1380 C 0.03278 0.6149 0.55767 0.0
C1381 C 0.03274 0.59883 0.54746 0.0
C1382 C 0.01649 0.63719 0.5741 0.0
C1383 C 0.02617 0.63875 0.59163 0.0
C1384 C 0.00656 0.6511 0.56827 0.0
C1385 C 0.99679 0.6506 0.54948 0.0
C1386 C 0.00608 0.64814 0.53345 0.0
C1387 C 0.99677 0.64761 0.5158 0.0
C1388 C 0.97819 0.64964 0.51399 0.0
C1389 C 0.96889 0.65225 0.52984 0.0
C1390 C 0.97813 0.65277 0.54753 0.0
C1391 C 0.02757 0.70785 0.63224 0.0
C1392 C 0.01092 0.71501 0.63228 0.0
C1393 C 0.02909 0.69256 0.62127 0.0
C1394 C 0.01378 0.68354 0.61063 0.0
C1395 C 0.99713 0.69094 0.61058 0.0
C1396 C 0.99595 0.70685 0.62074 0.0
C1397 C 0.0153 0.66741 0.59836 0.0
C1398 C 0.00616 0.666 0.58039 0.0
C1399 C 0.02565 0.65351 0.60383 0.0
C1400 C 0.03522 0.65304 0.62248 0.0
C1401 C 0.02547 0.64712 0.63747 0.0
C1402 C 0.03469 0.64538 0.65483 0.0
C1403 C 0.05368 0.64956 0.6573 0.0
C1404 C 0.06352 0.65514 0.64231 0.0
C1405 C 0.05437 0.65664 0.62487 0.0
H1406 H 0.06078 0.64826 0.67076 0.0
H1407 H 0.97101 0.64923 0.50032 0.0
H1408 H 0.73332 0.85827 0.22793 0.0
H1409 H 0.75872 0.88216 0.2319 0.0
H1410 H 0.73631 0.90776 0.18444 0.0
H1411 H 0.71093 0.8835 0.18004 0.0
H1412 H 0.77261 0.91035 0.18456 0.0
H1413 H 0.73061 0.92317 0.22814 0.0
H1414 H 0.70976 0.91735 0.25295 0.0
H1415 H 0.75465 0.90639 0.29028 0.0
H1416 H 0.77574 0.9119 0.26561 0.0
H1417 H 0.83638 0.98875 0.21295 0.0
H1418 H 0.81015 0.96713 0.20179 0.0
H1419 H 0.81772 0.93773 0.2515 0.0
H1420 H 0.84176 0.96092 0.2637 0.0
H1421 H 0.7854 0.94038 0.24722 0.0
H1422 H 0.82616 0.92349 0.1984 0.0
H1423 H 0.84467 0.93045 0.17165 0.0
H1424 H 0.79967 0.95197 0.14346 0.0
H1425 H 0.78096 0.94505 0.16981 0.0
C1426 C 0.73379 0.86892 0.21825 0.0
C1427 C 0.71999 0.86908 0.20378 0.0
C1428 C 0.74831 0.88261 0.22058 0.0
C1429 C 0.74921 0.89696 0.20872 0.0
C1430 C 0.73583 0.89687 0.19382 0.0
C1431 C 0.72133 0.88302 0.19135 0.0
C1432 C 0.76393 0.91214 0.21232 0.0
C1433 C 0.7754 0.91701 0.19823 0.0
C1434 C 0.76736 0.92107 0.23003 0.0
C1435 C 0.75474 0.91783 0.24497 0.0
C1436 C 0.73602 0.9194 0.2416 0.0
C1437 C 0.72416 0.91617 0.25565 0.0
C1438 C 0.73087 0.91147 0.27317 0.0
C1439 C 0.74947 0.91003 0.2767 0.0
C1440 C 0.76139 0.91322 0.26269 0.0
C1441 C 0.83254 0.97745 0.22127 0.0
C1442 C 0.84176 0.97591 0.23877 0.0
C1443 C 0.81767 0.96492 0.21477 0.0
C1444 C 0.81207 0.95032 0.22546 0.0
C1445 C 0.82168 0.9487 0.24279 0.0
C1446 C 0.83587 0.96167 0.24961 0.0
C1447 C 0.79521 0.9377 0.21992 0.0
C1448 C 0.78294 0.93358 0.2336 0.0
C1449 C 0.79093 0.92972 0.20175 0.0
C1450 C 0.80233 0.93399 0.18613 0.0
C1451 C 0.82036 0.92985 0.18654 0.0
C1452 C 0.83083 0.93373 0.17147 0.0
C1453 C 0.82341 0.94177 0.15601 0.0
C1454 C 0.80544 0.94581 0.15548 0.0
C1455 C 0.79488 0.94185 0.17042 0.0
H1456 H 0.83156 0.94477 0.14441 0.0
H1457 H 0.72166 0.90897 0.28403 0.0
H1458 H 0.74235 0.10294 0.38018 0.0
H1459 H 0.76576 0.08712 0.36719 0.0
H1460 H 0.77517 0.12819 0.32774 0.0
H1461 H 0.75121 0.14368 0.3402 0.0
H1462 H 0.77299 0.09772 0.31047 0.0
H1463 H 0.80636 0.12283 0.36648 0.0
H1464 H 0.81225 0.12985 0.40021 0.0
H1465 H 0.8092 0.07395 0.41034 0.0
H1466 H 0.80305 0.06658 0.37668 0.0
H1467 H 0.85304 0.06719 0.27895 0.0
H1468 H 0.83347 0.08565 0.29495 0.0
H1469 H 0.81459 0.04101 0.32702 0.0
H1470 H 0.83404 0.02238 0.31099 0.0
H1471 H 0.82284 0.07406 0.34816 0.0
H1472 H 0.78834 0.04971 0.29151 0.0
H1473 H 0.78337 0.04351 0.25759 0.0
H1474 H 0.78994 0.09975 0.24874 0.0
H1475 H 0.79521 0.10628 0.28262 0.0
C1476 C 0.74954 0.1087 0.36886 0.0
C1477 C 0.74493 0.12455 0.3612 0.0
C1478 C 0.76301 0.09968 0.3615 0.0
C1479 C 0.77245 0.10655 0.34661 0.0
C1480 C 0.7681 0.1226 0.33921 0.0
C1481 C 0.75443 0.13147 0.34637 0.0
C1482 C 0.78608 0.09651 0.33806 0.0
C1483 C 0.78407 0.09286 0.31873 0.0
C1484 C 0.80036 0.08977 0.34881 0.0
C1485 C 0.80408 0.09415 0.36906 0.0
C1486 C 0.80681 0.11203 0.37591 0.0
C1487 C 0.81022 0.11607 0.39502 0.0
C1488 C 0.81106 0.10236 0.40741 0.0
C1489 C 0.80853 0.08456 0.40072 0.0
C1490 C 0.8051 0.08045 0.38163 0.0
C1491 C 0.84484 0.06133 0.28951 0.0
C1492 C 0.84499 0.0433 0.29364 0.0
C1493 C 0.83365 0.07189 0.2986 0.0
C1494 C 0.82251 0.06464 0.31205 0.0
C1495 C 0.8231 0.04683 0.31667 0.0
C1496 C 0.83416 0.0362 0.30745 0.0
C1497 C 0.80967 0.07542 0.32072 0.0
C1498 C 0.81181 0.07912 0.34001 0.0
C1499 C 0.79563 0.08238 0.30994 0.0
C1500 C 0.79236 0.07847 0.28958 0.0
C1501 C 0.78888 0.06075 0.28232 0.0
C1502 C 0.78598 0.05718 0.2631 0.0
C1503 C 0.78639 0.07123 0.25101 0.0
C1504 C 0.78966 0.08888 0.25812 0.0
C1505 C 0.79259 0.09253 0.27733 0.0
H1506 H 0.78414 0.06844 0.23614 0.0
H1507 H 0.8137 0.10551 0.4222 0.0
H1508 H 0.42876 0.00686 0.01005 0.0
H1509 H 0.39793 0.99247 0.01357 0.0
H1510 H 0.41937 0.95906 0.05501 0.0
H1511 H 0.4504 0.97299 0.051 0.0
H1512 H 0.39553 0.93966 0.03282 0.0
H1513 H 0.39493 0.9948 0.06645 0.0
H1514 H 0.3994 0.02744 0.07244 0.0
H1515 H 0.3603 0.0335 0.02675 0.0
H1516 H 0.35578 0.00091 0.0203 0.0
H1517 H 0.30447 0.90422 0.04653 0.0
H1518 H 0.33398 0.92216 0.05529 0.0
H1519 H 0.32608 0.95432 0.00787 0.0
H1520 H 0.29668 0.93661 0.99908 0.0
H1521 H 0.34315 0.9742 0.03924 0.0
H1522 H 0.34825 0.91891 0.00362 0.0
H1523 H 0.34321 0.88613 0.99887 0.0
H1524 H 0.37384 0.88063 0.05087 0.0
H1525 H 0.37886 0.91341 0.05604 0.0
C1526 C 0.42691 0.9965 0.01997 0.0
C1527 C 0.44202 0.99108 0.03026 0.0
C1528 C 0.40924 0.98836 0.02209 0.0
C1529 C 0.40622 0.9749 0.03484 0.0
C1530 C 0.42131 0.96946 0.04515 0.0
C1531 C 0.43904 0.97744 0.04284 0.0
C1532 C 0.38741 0.96596 0.0367 0.0
C1533 C 0.38418 0.94725 0.03466 0.0
C1534 C 0.37248 0.97577 0.03897 0.0
C1535 C 0.37511 0.9954 0.04282 0.0
C1536 C 0.38738 0.0031 0.05759 0.0
C1537 C 0.38991 0.02159 0.06109 0.0
C1538 C 0.38017 0.03254 0.04996 0.0
C1539 C 0.36784 0.02501 0.03535 0.0
C1540 C 0.36527 0.00652 0.03179 0.0
C1541 C 0.3088 0.91541 0.03826 0.0
C1542 C 0.29835 0.91886 0.02198 0.0
C1543 C 0.32568 0.9256 0.04324 0.0
C1544 C 0.33229 0.9394 0.03207 0.0
C1545 C 0.32124 0.94371 0.01665 0.0
C1546 C 0.30448 0.9335 0.0116 0.0
C1547 C 0.35141 0.94811 0.03499 0.0
C1548 C 0.35465 0.96672 0.03785 0.0
C1549 C 0.36638 0.93823 0.03367 0.0
C1550 C 0.36378 0.91858 0.0303 0.0
C1551 C 0.35385 0.9107 0.01407 0.0
C1552 C 0.351 0.89213 0.0113 0.0
C1553 C 0.35817 0.8813 0.02457 0.0
C1554 C 0.36828 0.88904 0.04061 0.0
C1555 C 0.37114 0.90761 0.04346 0.0
H1556 H 0.35593 0.86693 0.02241 0.0
H1557 H 0.38215 0.04685 0.05269 0.0
H1558 H 0.25596 0.36844 0.33129 0.0
H1559 H 0.23501 0.3891 0.32037 0.0
H1560 H 0.20286 0.37788 0.36703 0.0
H1561 H 0.22408 0.35745 0.37833 0.0
H1562 H 0.20035 0.38656 0.30909 0.0
H1563 H 0.18558 0.41564 0.38085 0.0
H1564 H 0.20028 0.42043 0.4128 0.0
H1565 H 0.25322 0.42218 0.39165 0.0
H1566 H 0.23885 0.41763 0.35958 0.0
H1567 H 0.13191 0.44435 0.29386 0.0
H1568 H 0.14898 0.42078 0.30581 0.0
H1569 H 0.19353 0.46051 0.3265 0.0
H1570 H 0.17633 0.48406 0.31515 0.0
H1571 H 0.18878 0.43675 0.35108 0.0
H1572 H 0.19412 0.43475 0.28504 0.0
H1573 H 0.18284 0.43223 0.25188 0.0
H1574 H 0.15462 0.38021 0.25946 0.0
H1575 H 0.16557 0.38252 0.29274 0.0
C1576 C 0.24439 0.37027 0.33921 0.0
C1577 C 0.2418 0.36138 0.35579 0.0
C1578 C 0.23237 0.38206 0.3329 0.0
C1579 C 0.21746 0.38524 0.34297 0.0
C1580 C 0.21445 0.37589 0.35918 0.0
C1581 C 0.22655 0.36416 0.36559 0.0
C1582 C 0.20553 0.39876 0.33674 0.0
C1583 C 0.19773 0.39747 0.31831 0.0
C1584 C 0.20233 0.41319 0.34864 0.0
C1585 C 0.21112 0.41607 0.36785 0.0
C1586 C 0.20036 0.41709 0.38303 0.0
C1587 C 0.20863 0.41976 0.40115 0.0
C1588 C 0.22767 0.42154 0.40425 0.0
C1589 C 0.23848 0.42072 0.38923 0.0
C1590 C 0.23027 0.41808 0.37108 0.0
C1591 C 0.14532 0.44804 0.30101 0.0
C1592 C 0.1528 0.46606 0.3035 0.0
C1593 C 0.1551 0.43455 0.30778 0.0
C1594 C 0.17268 0.43882 0.31687 0.0
C1595 C 0.18001 0.45684 0.31958 0.0
C1596 C 0.17017 0.47032 0.31301 0.0
C1597 C 0.18362 0.42461 0.32339 0.0
C1598 C 0.19121 0.42573 0.3419 0.0
C1599 C 0.18706 0.41032 0.3114 0.0
C1600 C 0.1805 0.40889 0.29141 0.0
C1601 C 0.1854 0.42283 0.27966 0.0
C1602 C 0.17909 0.42143 0.26084 0.0
C1603 C 0.16798 0.4061 0.25358 0.0
C1604 C 0.1632 0.3921 0.26511 0.0
C1605 C 0.16947 0.39344 0.28395 0.0
H1606 H 0.16311 0.40504 0.23901 0.0
H1607 H 0.23405 0.42359 0.41829 0.0
H1608 H 0.08013 0.04461 0.51568 0.0
H1609 H 0.10984 0.0627 0.51691 0.0
H1610 H 0.13668 0.01518 0.52046 0.0
H1611 H 0.10684 0.99687 0.51955 0.0
H1612 H 0.15537 0.04279 0.5424 0.0
H1613 H 0.13099 0.03315 0.47895 0.0
H1614 H 0.10772 0.03264 0.45251 0.0
H1615 H 0.10698 0.08913 0.46074 0.0
H1616 H 0.13001 0.08991 0.48743 0.0
H1617 H 0.22351 0.10374 0.48471 0.0
H1618 H 0.1979 0.08015 0.48648 0.0
H1619 H 0.19118 0.09896 0.54253 0.0
H1620 H 0.21723 0.12205 0.5409 0.0
H1621 H 0.16434 0.08173 0.48921 0.0
H1622 H 0.17176 0.06631 0.56777 0.0
H1623 H 0.19635 0.06487 0.59255 0.0
H1624 H 0.23365 0.05539 0.55147 0.0
H1625 H 0.20924 0.05651 0.52647 0.0
C1626 C 0.09232 0.03796 0.51693 0.0
C1627 C 0.0911 0.01926 0.51728 0.0
C1628 C 0.10931 0.04834 0.5176 0.0
C1629 C 0.12545 0.04026 0.5184 0.0
C1630 C 0.12437 0.02167 0.51975 0.0
C1631 C 0.10732 0.01123 0.5192 0.0
C1632 C 0.14325 0.05121 0.51666 0.0
C1633 C 0.15737 0.05137 0.53081 0.0
C1634 C 0.14604 0.062 0.50125 0.0
C1635 C 0.13216 0.06156 0.48523 0.0
C1636 C 0.12577 0.04544 0.47519 0.0
C1637 C 0.11263 0.0451 0.46015 0.0
C1638 C 0.10586 0.06084 0.45496 0.0
C1639 C 0.11223 0.07695 0.46478 0.0
C1640 C 0.12533 0.07734 0.47985 0.0
C1641 C 0.21647 0.10277 0.49734 0.0
C1642 C 0.22186 0.11491 0.51248 0.0
C1643 C 0.20194 0.08926 0.49842 0.0
C1644 C 0.19263 0.08763 0.5147 0.0
C1645 C 0.19832 0.09965 0.52995 0.0
C1646 C 0.21304 0.11295 0.52897 0.0
C1647 C 0.17633 0.07407 0.51532 0.0
C1648 C 0.16244 0.07332 0.50087 0.0
C1649 C 0.17397 0.06257 0.53028 0.0
C1650 C 0.18869 0.06165 0.54524 0.0
C1651 C 0.18519 0.06383 0.56403 0.0
C1652 C 0.1991 0.06309 0.57811 0.0
C1653 C 0.21656 0.06009 0.57358 0.0
C1654 C 0.22014 0.05777 0.55496 0.0
C1655 C 0.20627 0.05848 0.54082 0.0
H1656 H 0.22732 0.05954 0.58451 0.0
H1657 H 0.0957 0.06056 0.44331 0.0
H1658 H 0.78885 0.10356 0.72256 0.0
H1659 H 0.76037 0.08672 0.73044 0.0
H1660 H 0.7299 0.12654 0.70622 0.0
H1661 H 0.75837 0.14364 0.69854 0.0
H1662 H 0.72109 0.12039 0.74046 0.0
H1663 H 0.72721 0.08427 0.68599 0.0
H1664 H 0.74286 0.0657 0.66508 0.0
H1665 H 0.74836 0.02811 0.70775 0.0
H1666 H 0.73295 0.04658 0.72902 0.0
H1667 H 0.64276 0.03879 0.73665 0.0
H1668 H 0.66528 0.06019 0.72345 0.0
H1669 H 0.68817 0.0776 0.77883 0.0
H1670 H 0.66502 0.05685 0.79196 0.0
H1671 H 0.69971 0.05616 0.72722 0.0
H1672 H 0.70694 0.10626 0.78267 0.0
H1673 H 0.69668 0.13138 0.80018 0.0
H1674 H 0.66653 0.1455 0.75082 0.0
H1675 H 0.67591 0.11987 0.73333 0.0
C1676 C 0.77608 0.10861 0.71863 0.0
C1677 C 0.7759 0.12503 0.71007 0.0
C1678 C 0.75978 0.0989 0.72306 0.0
C1679 C 0.74299 0.10534 0.71888 0.0
C1680 C 0.74271 0.12134 0.70961 0.0
C1681 C 0.759 0.13108 0.7052 0.0
C1682 C 0.72597 0.09636 0.72577 0.0
C1683 C 0.7163 0.10635 0.7374 0.0
C1684 C 0.71981 0.07805 0.72192 0.0
C1685 C 0.72906 0.06689 0.70915 0.0
C1686 C 0.73188 0.07211 0.69097 0.0
C1687 C 0.74069 0.06159 0.67904 0.0
C1688 C 0.74664 0.04576 0.6851 0.0
C1689 C 0.74375 0.04039 0.70308 0.0
C1690 C 0.73497 0.05087 0.71507 0.0
C1691 C 0.6522 0.0477 0.74595 0.0
C1692 C 0.65201 0.04645 0.76527 0.0
C1693 C 0.66506 0.05994 0.73844 0.0
C1694 C 0.67839 0.0708 0.75009 0.0
C1695 C 0.67775 0.06998 0.76948 0.0
C1696 C 0.6646 0.05796 0.77701 0.0
C1697 C 0.69457 0.08026 0.74189 0.0
C1698 C 0.70429 0.07025 0.73011 0.0
C1699 C 0.70077 0.09861 0.7455 0.0
C1700 C 0.69147 0.11073 0.75694 0.0
C1701 C 0.69745 0.11424 0.7758 0.0
C1702 C 0.692 0.12871 0.78566 0.0
C1703 C 0.681 0.14007 0.77661 0.0
C1704 C 0.67504 0.13669 0.75782 0.0
C1705 C 0.6801 0.12198 0.74804 0.0
H1706 H 0.67701 0.15141 0.78419 0.0
H1707 H 0.75345 0.03763 0.67584 0.0
H1708 H 0.43989 0.06371 0.54911 0.0
H1709 H 0.41671 0.08379 0.54259 0.0
H1710 H 0.37654 0.03847 0.52683 0.0
H1711 H 0.39949 0.01828 0.53371 0.0
H1712 H 0.37918 0.06792 0.50079 0.0
H1713 H 0.37337 0.0564 0.56603 0.0
H1714 H 0.38522 0.05571 0.59884 0.0
H1715 H 0.40261 0.1121 0.59998 0.0
H1716 H 0.39109 0.11307 0.56707 0.0
H1717 H 0.29522 0.10303 0.49605 0.0
H1718 H 0.32117 0.08634 0.50143 0.0
H1719 H 0.3511 0.13166 0.533 0.0
H1720 H 0.32462 0.14812 0.52843 0.0
H1721 H 0.35605 0.10407 0.55059 0.0
H1722 H 0.36126 0.11739 0.48724 0.0
H1723 H 0.35127 0.11965 0.45411 0.0
H1724 H 0.3379 0.0627 0.44832 0.0
H1725 H 0.34758 0.06011 0.48148 0.0
C1726 C 0.42611 0.05802 0.54431 0.0
C1727 C 0.4215 0.0394 0.54196 0.0
C1728 C 0.4129 0.0695 0.54061 0.0
C1729 C 0.39495 0.06259 0.53423 0.0
C1730 C 0.39035 0.04404 0.53172 0.0
C1731 C 0.40345 0.03254 0.53574 0.0
C1732 C 0.38092 0.07467 0.53013 0.0
C1733 C 0.37395 0.07572 0.51165 0.0
C1734 C 0.3747 0.08534 0.54425 0.0
C1735 C 0.38157 0.08476 0.56403 0.0
C1736 C 0.37989 0.06862 0.57322 0.0
C1737 C 0.3865 0.06818 0.59185 0.0
C1738 C 0.39472 0.08384 0.60147 0.0
C1739 C 0.39628 0.09998 0.5925 0.0
C1740 C 0.3897 0.10048 0.57387 0.0
C1741 C 0.30741 0.10954 0.50395 0.0
C1742 C 0.30791 0.12693 0.51175 0.0
C1743 C 0.32233 0.09999 0.50695 0.0
C1744 C 0.33834 0.10778 0.51736 0.0
C1745 C 0.33896 0.12531 0.52489 0.0
C1746 C 0.32386 0.13475 0.52221 0.0
C1747 C 0.35395 0.09727 0.52112 0.0
C1748 C 0.3613 0.09647 0.53958 0.0
C1749 C 0.36081 0.08711 0.50688 0.0
C1750 C 0.35502 0.08858 0.4869 0.0
C1751 C 0.35607 0.10536 0.47893 0.0
C1752 C 0.35048 0.10669 0.46014 0.0
C1753 C 0.34392 0.09133 0.44913 0.0
C1754 C 0.34298 0.07459 0.45688 0.0
C1755 C 0.34854 0.07318 0.47566 0.0
H1756 H 0.3396 0.09239 0.43459 0.0
H1757 H 0.39982 0.08348 0.61589 0.0
H1758 H 0.62335 0.52427 0.55444 0.0
H1759 H 0.64493 0.50343 0.54708 0.0
H1760 H 0.60141 0.46874 0.51632 0.0
H1761 H 0.57968 0.4894 0.52384 0.0
H1762 H 0.62187 0.44981 0.53793 0.0
H1763 H 0.63289 0.49486 0.49378 0.0
H1764 H 0.6398 0.52547 0.48328 0.0
H1765 H 0.69139 0.53143 0.51586 0.0
H1766 H 0.68468 0.50093 0.52676 0.0
H1767 H 0.69994 0.41962 0.48154 0.0
H1768 H 0.67706 0.43948 0.48715 0.0
H1769 H 0.6801 0.42746 0.5452 0.0
H1770 H 0.70287 0.40733 0.53971 0.0
H1771 H 0.67889 0.46924 0.50817 0.0
H1772 H 0.63817 0.42921 0.56176 0.0
H1773 H 0.62993 0.39788 0.56956 0.0
H1774 H 0.63524 0.38053 0.51308 0.0
H1775 H 0.64327 0.41175 0.50489 0.0
C1776 C 0.61837 0.51224 0.54604 0.0
C1777 C 0.59979 0.50853 0.53968 0.0
C1778 C 0.63074 0.50036 0.5418 0.0
C1779 C 0.62483 0.48457 0.53101 0.0
C1780 C 0.60629 0.48082 0.52467 0.0
C1781 C 0.5939 0.49269 0.52892 0.0
C1782 C 0.63795 0.47189 0.52651 0.0
C1783 C 0.63434 0.45407 0.53143 0.0
C1784 C 0.6541 0.47734 0.51777 0.0
C1785 C 0.6582 0.49567 0.51122 0.0
C1786 C 0.64564 0.50275 0.49882 0.0
C1787 C 0.64954 0.52007 0.49278 0.0
C1788 C 0.666 0.5304 0.49894 0.0
C1789 C 0.67863 0.52342 0.51112 0.0
C1790 C 0.6748 0.50611 0.51722 0.0
C1791 C 0.69575 0.42111 0.49552 0.0
C1792 C 0.7033 0.41181 0.51017 0.0
C1793 C 0.68267 0.43255 0.4987 0.0
C1794 C 0.67676 0.4349 0.51656 0.0
C1795 C 0.68426 0.42567 0.53124 0.0
C1796 C 0.69733 0.41419 0.52807 0.0
C1797 C 0.66294 0.44721 0.51982 0.0
C1798 C 0.66644 0.46498 0.5147 0.0
C1799 C 0.64653 0.44162 0.52805 0.0
C1800 C 0.64151 0.42281 0.53277 0.0
C1801 C 0.63752 0.41871 0.55099 0.0
C1802 C 0.63289 0.40097 0.55548 0.0
C1803 C 0.63212 0.38722 0.54184 0.0
C1804 C 0.63591 0.39119 0.52366 0.0
C1805 C 0.64052 0.4089 0.51909 0.0
H1806 H 0.62855 0.3735 0.54535 0.0
H1807 H 0.66899 0.54381 0.49424 0.0
H1808 H 0.72407 0.21136 0.39832 0.0
H1809 H 0.72779 0.24091 0.41416 0.0
H1810 H 0.67184 0.23217 0.42864 0.0
H1811 H 0.66783 0.20315 0.41166 0.0
H1812 H 0.67762 0.26402 0.42139 0.0
H1813 H 0.71122 0.22851 0.46053 0.0
H1814 H 0.73352 0.20792 0.4694 0.0
H1815 H 0.77732 0.24593 0.45424 0.0
H1816 H 0.75525 0.26667 0.44505 0.0
H1817 H 0.6933 0.33619 0.49151 0.0
H1818 H 0.68518 0.30838 0.47268 0.0
H1819 H 0.73953 0.31336 0.45366 0.0
H1820 H 0.74811 0.33978 0.47425 0.0
H1821 H 0.7325 0.28262 0.46458 0.0
H1822 H 0.6928 0.31645 0.42215 0.0
H1823 H 0.667 0.33419 0.41595 0.0
H1824 H 0.6318 0.29648 0.44392 0.0
H1825 H 0.65709 0.27838 0.44987 0.0
C1826 C 0.71258 0.21585 0.40482 0.0
C1827 C 0.69567 0.20508 0.40378 0.0
C1828 C 0.71473 0.23267 0.41402 0.0
C1829 C 0.70023 0.23871 0.42305 0.0
C1830 C 0.68326 0.22792 0.42182 0.0
C1831 C 0.68096 0.21133 0.41213 0.0
C1832 C 0.70277 0.25623 0.43373 0.0
C1833 C 0.6896 0.26801 0.43093 0.0
C1834 C 0.71821 0.2615 0.44642 0.0
C1835 C 0.73155 0.24907 0.45193 0.0
C1836 C 0.72559 0.23243 0.45896 0.0
C1837 C 0.73819 0.22074 0.46407 0.0
C1838 C 0.75682 0.2256 0.46234 0.0
C1839 C 0.76289 0.24218 0.45555 0.0
C1840 C 0.75034 0.25391 0.4504 0.0
C1841 C 0.70332 0.33149 0.48294 0.0
C1842 C 0.72111 0.34058 0.48365 0.0
C1843 C 0.69862 0.31567 0.47198 0.0
C1844 C 0.71156 0.30882 0.46126 0.0
C1845 C 0.72918 0.31833 0.4616 0.0
C1846 C 0.73401 0.33372 0.47305 0.0
C1847 C 0.70781 0.2908 0.45157 0.0
C1848 C 0.72067 0.27875 0.45482 0.0
C1849 C 0.69176 0.28505 0.43987 0.0
C1850 C 0.67685 0.29626 0.43664 0.0
C1851 C 0.67958 0.31209 0.42709 0.0
C1852 C 0.66507 0.32214 0.42358 0.0
C1853 C 0.64791 0.31657 0.42973 0.0
C1854 C 0.64512 0.30083 0.43923 0.0
C1855 C 0.65948 0.29062 0.44257 0.0
H1856 H 0.63675 0.32441 0.42702 0.0
H1857 H 0.76655 0.21653 0.4663 0.0
H1858 H 0.52704 0.04144 0.95714 0.0
H1859 H 0.53888 0.03382 0.92779 0.0
H1860 H 0.52762 0.97779 0.93785 0.0
H1861 H 0.51581 0.98535 0.96774 0.0
H1862 H 0.56155 0.98633 0.92446 0.0
H1863 H 0.50047 0.99467 0.90588 0.0
H1864 H 0.47239 0.00932 0.90515 0.0
H1865 H 0.5008 0.05592 0.88318 0.0
H1866 H 0.52912 0.04167 0.88403 0.0
H1867 H 0.59135 0.98245 0.82981 0.0
H1868 H 0.57349 0.97598 0.85675 0.0
H1869 H 0.57229 0.0324 0.86727 0.0
H1870 H 0.58965 0.03892 0.84065 0.0
H1871 H 0.53888 0.01426 0.86751 0.0
H1872 H 0.60124 0.00715 0.89261 0.0
H1873 H 0.62927 0.99234 0.89466 0.0
H1874 H 0.59758 0.9425 0.90417 0.0
H1875 H 0.56934 0.95696 0.90192 0.0
C1876 C 0.52698 0.02746 0.95319 0.0
C1877 C 0.52034 0.01401 0.96479 0.0
C1878 C 0.53371 0.02312 0.93632 0.0
C1879 C 0.53383 0.00523 0.93046 0.0
C1880 C 0.52752 0.99168 0.94207 0.0
C1881 C 0.52075 0.99603 0.95909 0.0
C1882 C 0.54088 0.00112 0.91227 0.0
C1883 C 0.55635 0.99205 0.91186 0.0
C1884 C 0.53403 0.00849 0.89582 0.0
C1885 C 0.51695 0.01709 0.89506 0.0
C1886 C 0.50076 0.00807 0.90098 0.0
C1887 C 0.48479 0.01631 0.90053 0.0
C1888 C 0.48481 0.03354 0.89412 0.0
C1889 C 0.50079 0.04256 0.88812 0.0
C1890 C 0.5168 0.0344 0.88854 0.0
C1891 C 0.58731 0.99345 0.83794 0.0
C1892 C 0.5918 0.0112 0.83292 0.0
C1893 C 0.57714 0.98973 0.85333 0.0
C1894 C 0.57148 0.00372 0.86397 0.0
C1895 C 0.57631 0.02138 0.85915 0.0
C1896 C 0.58629 0.02507 0.84387 0.0
C1897 C 0.56024 0.00052 0.88001 0.0
C1898 C 0.54382 0.00811 0.87995 0.0
C1899 C 0.56621 0.99173 0.89593 0.0
C1900 C 0.58317 0.98307 0.89686 0.0
C1901 C 0.60023 0.99299 0.89492 0.0
C1902 C 0.61616 0.98467 0.89617 0.0
C1903 C 0.61519 0.96649 0.89951 0.0
C1904 C 0.5983 0.95657 0.90155 0.0
C1905 C 0.58234 0.96482 0.90029 0.0
H1906 H 0.62751 0.96009 0.90064 0.0
H1907 H 0.47244 0.0399 0.8938 0.0
H1908 H 0.29748 0.30335 0.37046 0.0
H1909 H 0.28634 0.27812 0.38854 0.0
H1910 H 0.33903 0.28168 0.41945 0.0
H1911 H 0.35027 0.30676 0.40127 0.0
H1912 H 0.32722 0.24809 0.41 0.0
H1913 H 0.30145 0.29673 0.4384 0.0
H1914 H 0.28398 0.32255 0.43888 0.0
H1915 H 0.23562 0.28913 0.41638 0.0
H1916 H 0.25286 0.26314 0.41554 0.0
H1917 H 0.2973 0.19155 0.48266 0.0
H1918 H 0.31001 0.21637 0.4647 0.0
H1919 H 0.25885 0.2135 0.43115 0.0
H1920 H 0.24604 0.18897 0.44898 0.0
H1921 H 0.27052 0.2471 0.44284 0.0
H1922 H 0.29655 0.19854 0.41415 0.0
H1923 H 0.31415 0.17282 0.41363 0.0
H1924 H 0.36217 0.20623 0.437 0.0
H1925 H 0.34478 0.23212 0.43789 0.0
C1926 C 0.30658 0.29899 0.38132 0.0
C1927 C 0.32466 0.30727 0.38463 0.0
C1928 C 0.30023 0.28449 0.39161 0.0
C1929 C 0.31177 0.27812 0.40556 0.0
C1930 C 0.32986 0.28633 0.40879 0.0
C1931 C 0.33624 0.30071 0.39842 0.0
C1932 C 0.30511 0.26278 0.41665 0.0
C1933 C 0.31495 0.24799 0.4174 0.0
C1934 C 0.28894 0.26246 0.42605 0.0
C1935 C 0.27849 0.27802 0.42675 0.0
C1936 C 0.28711 0.29491 0.43345 0.0
C1937 C 0.27725 0.30957 0.4338 0.0
C1938 C 0.25872 0.30749 0.42762 0.0
C1939 C 0.24998 0.29072 0.42114 0.0
C1940 C 0.25979 0.27602 0.42075 0.0
C1941 C 0.28883 0.19608 0.47133 0.0
C1942 C 0.27061 0.18829 0.46737 0.0
C1943 C 0.29611 0.21027 0.46107 0.0
C1944 C 0.28537 0.21681 0.44656 0.0
C1945 C 0.26736 0.20878 0.44234 0.0
C1946 C 0.26007 0.19469 0.45257 0.0
C1947 C 0.29255 0.23237 0.43607 0.0
C1948 C 0.28281 0.24723 0.43548 0.0
C1949 C 0.30883 0.23275 0.42687 0.0
C1950 C 0.31931 0.21722 0.42627 0.0
C1951 C 0.31083 0.20037 0.41932 0.0
C1952 C 0.32077 0.18577 0.41893 0.0
C1953 C 0.33925 0.18788 0.42533 0.0
C1954 C 0.34784 0.20461 0.43208 0.0
C1955 C 0.33795 0.21925 0.43251 0.0
H1956 H 0.34692 0.17655 0.42502 0.0
H1957 H 0.25111 0.31886 0.42788 0.0
H1958 H 0.49814 0.54545 0.94347 0.0
H1959 H 0.4773 0.54289 0.91533 0.0
H1960 H 0.46739 0.48588 0.92032 0.0
H1961 H 0.4884 0.48828 0.94843 0.0
H1962 H 0.47474 0.49468 0.88526 0.0
H1963 H 0.43534 0.51255 0.93093 0.0
H1964 H 0.42653 0.53179 0.95625 0.0
H1965 H 0.42935 0.57627 0.92074 0.0
H1966 H 0.43842 0.55734 0.89528 0.0
H1967 H 0.39994 0.47345 0.81942 0.0
H1968 H 0.41976 0.47805 0.84808 0.0
H1969 H 0.42482 0.53502 0.8421 0.0
H1970 H 0.40443 0.53055 0.81347 0.0
H1971 H 0.42065 0.52751 0.87725 0.0
H1972 H 0.45949 0.51031 0.83152 0.0
H1973 H 0.46876 0.49174 0.80592 0.0
H1974 H 0.46802 0.44703 0.84104 0.0
H1975 H 0.45849 0.46527 0.86679 0.0
C1976 C 0.49144 0.53236 0.93868 0.0
C1977 C 0.49494 0.51706 0.94821 0.0
C1978 C 0.47948 0.53094 0.92261 0.0
C1979 C 0.47069 0.51421 0.91581 0.0
C1980 C 0.47403 0.49892 0.92535 0.0
C1981 C 0.48599 0.50033 0.94145 0.0
C1982 C 0.45849 0.51258 0.89838 0.0
C1983 C 0.46277 0.50166 0.88359 0.0
C1984 C 0.44326 0.5222 0.89599 0.0
C1985 C 0.43773 0.53357 0.91126 0.0
C1986 C 0.43422 0.52646 0.92857 0.0
C1987 C 0.42916 0.53731 0.94294 0.0
C1988 C 0.42743 0.55525 0.94012 0.0
C1989 C 0.43072 0.56237 0.92291 0.0
C1990 C 0.4358 0.55159 0.9085 0.0
C1991 C 0.40528 0.487 0.8241 0.0
C1992 C 0.40072 0.50164 0.81401 0.0
C1993 C 0.41668 0.48959 0.84051 0.0
C1994 C 0.4241 0.50686 0.84706 0.0
C1995 C 0.41933 0.52156 0.83725 0.0
C1996 C 0.40771 0.51899 0.82087 0.0
C1997 C 0.43677 0.50942 0.86418 0.0
C1998 C 0.43264 0.52055 0.87889 0.0
C1999 C 0.45226 0.50011 0.86646 0.0
C2000 C 0.45813 0.48913 0.85104 0.0
C2001 C 0.46118 0.49649 0.83375 0.0
C2002 C 0.4665 0.48602 0.81922 0.0
C2003 C 0.46894 0.4682 0.82184 0.0
C2004 C 0.46611 0.46083 0.83903 0.0
C2005 C 0.46077 0.47123 0.8536 0.0
H2006 H 0.47305 0.46012 0.81057 0.0
H2007 H 0.42351 0.56362 0.95126 0.0
H2008 H 0.70268 0.77823 0.16759 0.0
H2009 H 0.71402 0.75724 0.14591 0.0
H2010 H 0.6805 0.77552 0.10077 0.0
H2011 H 0.66911 0.79653 0.12231 0.0
H2012 H 0.67903 0.73858 0.10031 0.0
H2013 H 0.72481 0.79036 0.10606 0.0
H2014 H 0.74715 0.81313 0.1233 0.0
H2015 H 0.77707 0.77205 0.14486 0.0
H2016 H 0.75474 0.74901 0.12793 0.0
H2017 H 0.71604 0.70813 0.02094 0.0
H2018 H 0.70713 0.72772 0.04528 0.0
H2019 H 0.74572 0.70821 0.08495 0.0
H2020 H 0.75507 0.68869 0.06045 0.0
H2021 H 0.74516 0.74381 0.09036 0.0
H2022 H 0.70113 0.69203 0.08315 0.0
H2023 H 0.67945 0.66899 0.0655 0.0
H2024 H 0.64632 0.70902 0.04749 0.0
H2025 H 0.66801 0.73238 0.06471 0.0
C2026 C 0.69764 0.77772 0.15306 0.0
C2027 C 0.68504 0.7891 0.14665 0.0
C2028 C 0.70418 0.76576 0.14069 0.0
C2029 C 0.6982 0.76494 0.12172 0.0
C2030 C 0.68529 0.77596 0.11536 0.0
C2031 C 0.67884 0.788 0.12768 0.0
C2032 C 0.70563 0.75285 0.10835 0.0
C2033 C 0.69346 0.73981 0.09801 0.0
C2034 C 0.72454 0.75412 0.10579 0.0
C2035 C 0.73799 0.76796 0.1159 0.0
C2036 C 0.73606 0.78618 0.1146 0.0
C2037 C 0.74874 0.79913 0.12429 0.0
C2038 C 0.76349 0.79404 0.13521 0.0
C2039 C 0.76562 0.77598 0.13642 0.0
C2040 C 0.75296 0.76296 0.12678 0.0
C2041 C 0.72278 0.70806 0.03479 0.0
C2042 C 0.73615 0.69668 0.03878 0.0
C2043 C 0.71761 0.71925 0.04871 0.0
C2044 C 0.72545 0.71912 0.06702 0.0
C2045 C 0.73941 0.70842 0.07093 0.0
C2046 C 0.74473 0.69728 0.05691 0.0
C2047 C 0.71852 0.72974 0.08207 0.0
C2048 C 0.73076 0.74246 0.09276 0.0
C2049 C 0.69967 0.72807 0.08508 0.0
C2050 C 0.68629 0.71399 0.07513 0.0
C2051 C 0.68927 0.69595 0.07535 0.0
C2052 C 0.67698 0.68282 0.06541 0.0
C2053 C 0.66153 0.68754 0.05536 0.0
C2054 C 0.6583 0.70539 0.05528 0.0
C2055 C 0.67059 0.71858 0.06513 0.0
H2056 H 0.65205 0.67736 0.04765 0.0
H2057 H 0.77329 0.80409 0.1427 0.0
H2058 H 0.96324 0.07955 0.09109 0.0
H2059 H 0.94887 0.07191 0.11972 0.0
H2060 H 0.97924 0.02681 0.12487 0.0
H2061 H 0.99351 0.03421 0.09625 0.0
H2062 H 0.94363 0.01781 0.13061 0.0
H2063 H 0.99167 0.06474 0.15193 0.0
H2064 H 0.00887 0.09484 0.15212 0.0
H2065 H 0.9607 0.11822 0.16426 0.0
H2066 H 0.94315 0.08826 0.16391 0.0
H2067 H 0.92856 0.9948 0.22185 0.0
H2068 H 0.94407 0.00546 0.19497 0.0
H2069 H 0.91324 0.05042 0.19325 0.0
H2070 H 0.89789 0.04009 0.22043 0.0
H2071 H 0.94803 0.06016 0.18547 0.0
H2072 H 0.90003 0.01376 0.16502 0.0
H2073 H 0.88258 0.98385 0.1656 0.0
H2074 H 0.92973 0.95972 0.15147 0.0
H2075 H 0.94759 0.98949 0.15117 0.0
C2076 C 0.96689 0.06803 0.09833 0.0
C2077 C 0.97955 0.05751 0.09138 0.0
C2078 C 0.95871 0.06372 0.11473 0.0
C2079 C 0.96309 0.04886 0.1245 0.0
C2080 C 0.97565 0.03832 0.11755 0.0
C2081 C 0.98384 0.04262 0.1012 0.0
C2082 C 0.95446 0.04409 0.14187 0.0
C2083 C 0.94477 0.027 0.14268 0.0
C2084 C 0.95551 0.05625 0.15743 0.0
C2085 C 0.96606 0.07427 0.1577 0.0
C2086 C 0.98471 0.07631 0.15449 0.0
C2087 C 0.99453 0.09334 0.15466 0.0
C2088 C 0.98587 0.10844 0.15815 0.0
C2089 C 0.96738 0.10652 0.16153 0.0
C2090 C 0.9575 0.08952 0.16137 0.0
C2091 C 0.92519 0.00707 0.21592 0.0
C2092 C 0.91183 0.01649 0.22323 0.0
C2093 C 0.93404 0.01311 0.20049 0.0
C2094 C 0.92954 0.02854 0.19187 0.0
C2095 C 0.91686 0.03844 0.19963 0.0
C2096 C 0.90808 0.03248 0.21517 0.0
C2097 C 0.93743 0.03382 0.17427 0.0
C2098 C 0.94687 0.05099 0.17339 0.0
C2099 C 0.93605 0.02177 0.15857 0.0
C2100 C 0.9252 0.00386 0.15823 0.0
C2101 C 0.90671 0.00207 0.16213 0.0
C2102 C 0.89674 0.98515 0.16242 0.0
C2103 C 0.90505 0.9699 0.15862 0.0
C2104 C 0.92332 0.97155 0.15444 0.0
C2105 C 0.93337 0.98845 0.1542 0.0
H2106 H 0.89731 0.95681 0.15887 0.0
H2107 H 0.99349 0.12161 0.15827 0.0
H2108 H 0.29015 0.7606 0.18531 0.0
H2109 H 0.28378 0.78414 0.16426 0.0
H2110 H 0.31489 0.76139 0.12322 0.0
H2111 H 0.3215 0.73793 0.14425 0.0
H2112 H 0.32211 0.79754 0.12579 0.0
H2113 H 0.26855 0.75374 0.1197 0.0
H2114 H 0.24271 0.73455 0.13111 0.0
H2115 H 0.22133 0.78084 0.15264 0.0
H2116 H 0.2472 0.8003 0.14156 0.0
H2117 H 0.28878 0.83372 0.04301 0.0
H2118 H 0.29732 0.81466 0.06794 0.0
H2119 H 0.26297 0.83961 0.10417 0.0
H2120 H 0.25402 0.85854 0.07905 0.0
H2121 H 0.25764 0.80435 0.10614 0.0
H2122 H 0.30994 0.84845 0.10997 0.0
H2123 H 0.33544 0.8676 0.09792 0.0
H2124 H 0.35917 0.82117 0.08056 0.0
H2125 H 0.33366 0.80172 0.09226 0.0
C2126 C 0.29572 0.76065 0.17184 0.0
C2127 C 0.30625 0.74731 0.16641 0.0
C2128 C 0.29202 0.77409 0.15981 0.0
C2129 C 0.29868 0.77441 0.14207 0.0
C2130 C 0.3096 0.7614 0.13682 0.0
C2131 C 0.3133 0.74795 0.14884 0.0
C2132 C 0.29388 0.78798 0.12876 0.0
C2133 C 0.30803 0.79895 0.12136 0.0
C2134 C 0.27549 0.79013 0.12337 0.0
C2135 C 0.25992 0.77845 0.12999 0.0
C2136 C 0.25842 0.75981 0.127 0.0
C2137 C 0.24375 0.74889 0.13339 0.0
C2138 C 0.23041 0.75647 0.14265 0.0
C2139 C 0.23169 0.77499 0.1455 0.0
C2140 C 0.24634 0.78597 0.13916 0.0
C2141 C 0.28312 0.83526 0.05631 0.0
C2142 C 0.27073 0.84767 0.05906 0.0
C2143 C 0.2881 0.8244 0.07061 0.0
C2144 C 0.28098 0.82585 0.08803 0.0
C2145 C 0.26867 0.83829 0.09086 0.0
C2146 C 0.26361 0.84913 0.07651 0.0
C2147 C 0.28587 0.81384 0.10299 0.0
C2148 C 0.27174 0.80313 0.1107 0.0
C2149 C 0.30428 0.81196 0.10868 0.0
C2150 C 0.3198 0.82362 0.10188 0.0
C2151 C 0.32054 0.84231 0.10348 0.0
C2152 C 0.335 0.85323 0.09673 0.0
C2153 C 0.34889 0.84561 0.08844 0.0
C2154 C 0.34839 0.82706 0.08697 0.0
C2155 C 0.33394 0.81608 0.09368 0.0
H2156 H 0.36006 0.85408 0.08319 0.0
H2157 H 0.21907 0.74799 0.14758 0.0
H2158 H 0.97842 0.52018 0.11909 0.0
H2159 H 0.99562 0.52459 0.14961 0.0
H2160 H 0.01019 0.47111 0.14478 0.0
H2161 H 0.99288 0.46648 0.11454 0.0
H2162 H 0.00249 0.47892 0.17971 0.0
H2163 H 0.03957 0.50684 0.13403 0.0
H2164 H 0.04653 0.52736 0.10899 0.0
H2165 H 0.03978 0.57209 0.14519 0.0
H2166 H 0.03253 0.5518 0.17039 0.0
H2167 H 0.08422 0.48592 0.24031 0.0
H2168 H 0.06071 0.48143 0.21429 0.0
H2169 H 0.04885 0.53549 0.223 0.0
H2170 H 0.07236 0.54021 0.2488 0.0
H2171 H 0.0535 0.52838 0.18732 0.0
H2172 H 0.01901 0.50025 0.23407 0.0
H2173 H 0.01283 0.47947 0.25905 0.0
H2174 H 0.0153 0.43489 0.22103 0.0
H2175 H 0.02177 0.45543 0.19587 0.0
C2176 C 0.98511 0.50929 0.12462 0.0
C2177 C 0.9844 0.49304 0.11426 0.0
C2178 C 0.99499 0.51185 0.14204 0.0
C2179 C 0.00441 0.49826 0.14936 0.0
C2180 C 0.00306 0.48179 0.13941 0.0
C2181 C 0.99321 0.47921 0.12205 0.0
C2182 C 0.01648 0.50138 0.16686 0.0
C2183 C 0.01372 0.48966 0.18135 0.0
C2184 C 0.03093 0.51558 0.16913 0.0
C2185 C 0.0353 0.52779 0.15401 0.0
C2186 C 0.03942 0.52104 0.1366 0.0
C2187 C 0.04345 0.53263 0.12239 0.0
C2188 C 0.04354 0.55102 0.12548 0.0
C2189 C 0.03966 0.55785 0.14281 0.0
C2190 C 0.0356 0.54631 0.15706 0.0
C2191 C 0.07649 0.4968 0.23684 0.0
C2192 C 0.08028 0.51344 0.24667 0.0
C2193 C 0.06299 0.49419 0.22199 0.0
C2194 C 0.05295 0.50811 0.21676 0.0
C2195 C 0.05644 0.52458 0.22678 0.0
C2196 C 0.06989 0.52721 0.24159 0.0
C2197 C 0.03957 0.50589 0.20019 0.0
C2198 C 0.04214 0.51775 0.18582 0.0
C2199 C 0.02501 0.49179 0.19804 0.0
C2200 C 0.02103 0.4794 0.21312 0.0
C2201 C 0.01838 0.48602 0.23106 0.0
C2202 C 0.0148 0.47429 0.24525 0.0
C2203 C 0.01371 0.45587 0.24164 0.0
C2204 C 0.01616 0.44916 0.22381 0.0
C2205 C 0.01977 0.46084 0.20958 0.0
H2206 H 0.01094 0.44681 0.25264 0.0
H2207 H 0.04667 0.55997 0.11446 0.0
H2208 H 0.36384 0.72761 0.24747 0.0
H2209 H 0.38824 0.73209 0.27257 0.0
H2210 H 0.4025 0.67943 0.26028 0.0
H2211 H 0.37794 0.67471 0.23539 0.0
H2212 H 0.39839 0.6838 0.29602 0.0
H2213 H 0.43114 0.71735 0.25176 0.0
H2214 H 0.43631 0.73997 0.22831 0.0
H2215 H 0.43043 0.78148 0.26889 0.0
H2216 H 0.42497 0.75909 0.29253 0.0
H2217 H 0.47756 0.70097 0.36435 0.0
H2218 H 0.45714 0.69244 0.33627 0.0
H2219 H 0.43422 0.74209 0.34153 0.0
H2220 H 0.45579 0.75126 0.36837 0.0
H2221 H 0.44526 0.73655 0.30759 0.0
H2222 H 0.39291 0.69586 0.33898 0.0
H2223 H 0.38429 0.67181 0.36013 0.0
H2224 H 0.42825 0.64412 0.34334 0.0
H2225 H 0.43657 0.66767 0.32155 0.0
C2226 C 0.37237 0.71709 0.24987 0.0
C2227 C 0.36884 0.70076 0.23948 0.0
C2228 C 0.38638 0.7197 0.2642 0.0
C2229 C 0.39726 0.70611 0.26828 0.0
C2230 C 0.39425 0.69008 0.25742 0.0
C2231 C 0.38021 0.68743 0.24316 0.0
C2232 C 0.41069 0.70804 0.28483 0.0
C2233 C 0.40888 0.69519 0.29836 0.0
C2234 C 0.4242 0.72298 0.28806 0.0
C2235 C 0.42751 0.73651 0.27389 0.0
C2236 C 0.43081 0.73129 0.25565 0.0
C2237 C 0.43382 0.74408 0.24233 0.0
C2238 C 0.43366 0.76215 0.2471 0.0
C2239 C 0.43054 0.76748 0.26521 0.0
C2240 C 0.42751 0.75474 0.27859 0.0
C2241 C 0.46781 0.70981 0.35971 0.0
C2242 C 0.46767 0.72645 0.36899 0.0
C2243 C 0.45595 0.70482 0.34381 0.0
C2244 C 0.44365 0.71634 0.33706 0.0
C2245 C 0.44334 0.73282 0.3466 0.0
C2246 C 0.45546 0.73795 0.36216 0.0
C2247 C 0.4327 0.71249 0.31891 0.0
C2248 C 0.43495 0.72503 0.30508 0.0
C2249 C 0.41969 0.69722 0.31529 0.0
C2250 C 0.41578 0.6838 0.32927 0.0
C2251 C 0.40085 0.68473 0.34003 0.0
C2252 C 0.39585 0.67107 0.35189 0.0
C2253 C 0.40584 0.65654 0.35324 0.0
C2254 C 0.42066 0.65549 0.34247 0.0
C2255 C 0.42547 0.66894 0.3303 0.0
H2256 H 0.40204 0.64605 0.36255 0.0
H2257 H 0.43599 0.77203 0.23676 0.0
H2258 H 0.98097 0.39949 0.05601 0.0
H2259 H 0.98543 0.37313 0.03723 0.0
H2260 H 0.97442 0.40078 0.98714 0.0
H2261 H 0.96959 0.42726 0.00593 0.0
H2262 H 0.95732 0.36781 0.98398 0.0
H2263 H 0.01815 0.39421 0.00171 0.0
H2264 H 0.04422 0.40763 0.02304 0.0
H2265 H 0.04325 0.35894 0.05206 0.0
H2266 H 0.017 0.3453 0.03105 0.0
H2267 H 0.01352 0.29885 0.94092 0.0
H2268 H 0.01335 0.32702 0.95876 0.0
H2269 H 0.9632 0.30596 0.98134 0.0
H2270 H 0.96307 0.27795 0.96344 0.0
H2271 H 0.01311 0.33786 0.99495 0.0
H2272 H 0.93468 0.3375 0.98128 0.0
H2273 H 0.91007 0.3249 0.95779 0.0
H2274 H 0.94887 0.32426 0.91641 0.0
H2275 H 0.97363 0.33713 0.93955 0.0
C2276 C 0.97949 0.40002 0.041 0.0
C2277 C 0.97498 0.41553 0.03247 0.0
C2278 C 0.98215 0.38493 0.03027 0.0
C2279 C 0.98056 0.38505 0.01077 0.0
C2280 C 0.9758 0.40041 0.00218 0.0
C2281 C 0.97306 0.41554 0.01293 0.0
C2282 C 0.98355 0.36897 0.99947 0.0
C2283 C 0.96954 0.36131 0.98635 0.0
C2284 C 0.99967 0.36066 0.00224 0.0
C2285 C 0.01551 0.36878 0.01488 0.0
C2286 C 0.02341 0.3864 0.01272 0.0
C2287 C 0.03823 0.39404 0.02474 0.0
C2288 C 0.04536 0.38416 0.03892 0.0
C2289 C 0.0377 0.36659 0.04108 0.0
C2290 C 0.02286 0.35889 0.0291 0.0
C2291 C 0.00262 0.30008 0.94993 0.0
C2292 C 0.98819 0.28618 0.95055 0.0
C2293 C 0.00254 0.31621 0.96011 0.0
C2294 C 0.98806 0.31871 0.97106 0.0
C2295 C 0.97431 0.30445 0.97266 0.0
C2296 C 0.9743 0.28841 0.96245 0.0
C2297 C 0.98665 0.33646 0.97997 0.0
C2298 C 0.00093 0.34442 0.99257 0.0
C2299 C 0.97098 0.34529 0.97641 0.0
C2300 C 0.95603 0.33814 0.96221 0.0
C2301 C 0.93793 0.33479 0.96714 0.0
C2302 C 0.92396 0.32758 0.95389 0.0
C2303 C 0.92791 0.32373 0.93564 0.0
C2304 C 0.94582 0.32719 0.93057 0.0
C2305 C 0.95983 0.33445 0.94375 0.0
H2306 H 0.91708 0.31808 0.92542 0.0
H2307 H 0.05684 0.3901 0.04821 0.0
H2308 H 0.66294 0.80792 0.28887 0.0
H2309 H 0.63963 0.80126 0.31068 0.0
H2310 H 0.59737 0.80623 0.26729 0.0
H2311 H 0.6207 0.813 0.24527 0.0
H2312 H 0.59207 0.82397 0.30074 0.0
H2313 H 0.60429 0.7659 0.27986 0.0
H2314 H 0.62361 0.74243 0.27302 0.0
H2315 H 0.64357 0.7438 0.33057 0.0
H2316 H 0.62455 0.76747 0.33772 0.0
H2317 H 0.51876 0.78317 0.35062 0.0
H2318 H 0.54058 0.79306 0.32811 0.0
H2319 H 0.58516 0.7829 0.36679 0.0
H2320 H 0.56341 0.77256 0.38909 0.0
H2321 H 0.58832 0.76769 0.33435 0.0
H2322 H 0.57683 0.82597 0.3555 0.0
H2323 H 0.55797 0.84974 0.36268 0.0
H2324 H 0.53711 0.84844 0.30541 0.0
H2325 H 0.55567 0.82449 0.29793 0.0
C2326 C 0.64869 0.80755 0.2839 0.0
C2327 C 0.64367 0.81093 0.2653 0.0
C2328 C 0.63538 0.80371 0.2964 0.0
C2329 C 0.61678 0.80314 0.29057 0.0
C2330 C 0.61167 0.80661 0.27205 0.0
C2331 C 0.62501 0.81037 0.25948 0.0
C2332 C 0.60274 0.79887 0.30391 0.0
C2333 C 0.59103 0.81157 0.30792 0.0
C2334 C 0.60171 0.78286 0.31354 0.0
C2335 C 0.61312 0.76858 0.30929 0.0
C2336 C 0.61291 0.7613 0.29103 0.0
C2337 C 0.62379 0.74794 0.2871 0.0
C2338 C 0.63485 0.74166 0.30134 0.0
C2339 C 0.63501 0.74869 0.31955 0.0
C2340 C 0.62417 0.76207 0.32355 0.0
C2341 C 0.53324 0.78338 0.35445 0.0
C2342 C 0.53938 0.77702 0.37158 0.0
C2343 C 0.54571 0.78906 0.34158 0.0
C2344 C 0.56454 0.78875 0.34575 0.0
C2345 C 0.5707 0.78317 0.36321 0.0
C2346 C 0.55825 0.77733 0.37598 0.0
C2347 C 0.57776 0.79292 0.33151 0.0
C2348 C 0.5893 0.78013 0.32723 0.0
C2349 C 0.57866 0.80889 0.32174 0.0
C2350 C 0.5675 0.8233 0.3262 0.0
C2351 C 0.5681 0.83065 0.34447 0.0
C2352 C 0.55749 0.84418 0.34858 0.0
C2353 C 0.54631 0.85056 0.33452 0.0
C2354 C 0.54576 0.84347 0.31629 0.0
C2355 C 0.55633 0.82992 0.3121 0.0
H2356 H 0.5381 0.86104 0.33774 0.0
H2357 H 0.64326 0.73131 0.29827 0.0
H2358 H 0.00677 0.07381 0.01629 0.0
H2359 H 0.99971 0.10342 0.00805 0.0
H2360 H 0.04939 0.11182 0.98008 0.0
H2361 H 0.05681 0.08237 0.98877 0.0
H2362 H 0.04282 0.14233 0.99899 0.0
H2363 H 0.0095 0.09752 0.9557 0.0
H2364 H 0.98842 0.07017 0.94679 0.0
H2365 H 0.94512 0.09272 0.9721 0.0
H2366 H 0.96603 0.12012 0.98138 0.0
H2367 H 0.02235 0.20711 0.93451 0.0
H2368 H 0.03053 0.18113 0.95076 0.0
H2369 H 0.97765 0.17437 0.97293 0.0
H2370 H 0.96915 0.20013 0.95635 0.0
H2371 H 0.98512 0.1437 0.95953 0.0
H2372 H 0.01763 0.18968 0.00062 0.0
H2373 H 0.03862 0.21707 0.00951 0.0
H2374 H 0.0832 0.19283 0.98882 0.0
H2375 H 0.06243 0.16536 0.97956 0.0
C2376 C 0.01652 0.08215 0.00896 0.0
C2377 C 0.03248 0.07579 0.00342 0.0
C2378 C 0.01233 0.09901 0.00402 0.0
C2379 C 0.02393 0.10977 0.99328 0.0
C2380 C 0.04024 0.10376 0.98837 0.0
C2381 C 0.04442 0.0869 0.99329 0.0
C2382 C 0.01854 0.12673 0.98611 0.0
C2383 C 0.03027 0.14265 0.99026 0.0
C2384 C 0.00197 0.1272 0.97506 0.0
C2385 C 0.98937 0.11078 0.96942 0.0
C2386 C 0.99552 0.09658 0.95949 0.0
C2387 C 0.9836 0.08109 0.95435 0.0
C2388 C 0.96546 0.07969 0.95892 0.0
C2389 C 0.95918 0.09381 0.9686 0.0
C2390 C 0.97106 0.10933 0.97379 0.0
C2391 C 0.01248 0.20025 0.94298 0.0
C2392 C 0.99506 0.20578 0.94407 0.0
C2393 C 0.01724 0.1854 0.95237 0.0
C2394 C 0.00479 0.17587 0.96327 0.0
C2395 C 0.9875 0.18151 0.96463 0.0
C2396 C 0.98268 0.1963 0.95516 0.0
C2397 C 0.00942 0.15942 0.97233 0.0
C2398 C 0.99757 0.14352 0.96846 0.0
C2399 C 0.02587 0.15902 0.98367 0.0
C2400 C 0.03842 0.1755 0.98926 0.0
C2401 C 0.03188 0.19023 0.99784 0.0
C2402 C 0.04375 0.20577 0.00297 0.0
C2403 C 0.06222 0.2067 0.9997 0.0
C2404 C 0.06888 0.19209 0.99133 0.0
C2405 C 0.05707 0.17652 0.98616 0.0
H2406 H 0.07139 0.21874 0.00368 0.0
H2407 H 0.95625 0.06768 0.95493 0.0
H2408 H 0.36264 0.32176 0.29122 0.0
H2409 H 0.37873 0.3121 0.26491 0.0
H2410 H 0.42974 0.33814 0.29138 0.0
H2411 H 0.4138 0.34768 0.31789 0.0
H2412 H 0.42352 0.34386 0.25172 0.0
H2413 H 0.42254 0.29637 0.29507 0.0
H2414 H 0.40759 0.27414 0.31503 0.0
H2415 H 0.37466 0.24906 0.26747 0.0
H2416 H 0.38925 0.27132 0.24727 0.0
H2417 H 0.48758 0.30212 0.20212 0.0
H2418 H 0.4694 0.31573 0.22431 0.0
H2419 H 0.42251 0.27788 0.20547 0.0
H2420 H 0.44097 0.26365 0.18397 0.0
H2421 H 0.42544 0.27894 0.24058 0.0
H2422 H 0.42674 0.32462 0.19644 0.0
H2423 H 0.44086 0.34666 0.17577 0.0
H2424 H 0.47142 0.37523 0.22286 0.0
H2425 H 0.45767 0.35322 0.24381 0.0
C2426 C 0.37726 0.32551 0.29141 0.0
C2427 C 0.38698 0.33539 0.30667 0.0
C2428 C 0.38642 0.31999 0.27637 0.0
C2429 C 0.4054 0.3244 0.27626 0.0
C2430 C 0.41507 0.33467 0.29122 0.0
C2431 C 0.40596 0.34 0.30638 0.0
C2432 C 0.41527 0.31755 0.26094 0.0
C2433 C 0.42412 0.32969 0.2493 0.0
C2434 C 0.41557 0.29905 0.25758 0.0
C2435 C 0.40684 0.28563 0.2697 0.0
C2436 C 0.412 0.28622 0.2889 0.0
C2437 C 0.40361 0.27359 0.30025 0.0
C2438 C 0.39015 0.26023 0.29253 0.0
C2439 C 0.38507 0.25944 0.27344 0.0
C2440 C 0.3934 0.27205 0.26203 0.0
C2441 C 0.47331 0.29691 0.2025 0.0
C2442 C 0.46569 0.28181 0.19135 0.0
C2443 C 0.46287 0.30475 0.21514 0.0
C2444 C 0.44447 0.29798 0.21649 0.0
C2445 C 0.43668 0.28333 0.20478 0.0
C2446 C 0.44721 0.27524 0.19245 0.0
C2447 C 0.43376 0.30522 0.23105 0.0
C2448 C 0.42477 0.29313 0.2427 0.0
C2449 C 0.43315 0.32377 0.23421 0.0
C2450 C 0.44127 0.33717 0.22168 0.0
C2451 C 0.43655 0.33554 0.20239 0.0
C2452 C 0.44448 0.34804 0.19062 0.0
C2453 C 0.45707 0.36231 0.19799 0.0
C2454 C 0.46169 0.36416 0.21717 0.0
C2455 C 0.4538 0.35169 0.229 0.0
H2456 H 0.46322 0.37195 0.18886 0.0
H2457 H 0.38367 0.25046 0.30134 0.0
H2458 H 0.55684 0.42073 0.03013 0.0
H2459 H 0.5509 0.39558 0.05007 0.0
H2460 H 0.50772 0.42059 0.07343 0.0
H2461 H 0.51403 0.4461 0.05395 0.0
H2462 H 0.52581 0.40645 0.09991 0.0
H2463 H 0.49872 0.38556 0.03986 0.0
H2464 H 0.49722 0.37944 0.00593 0.0
H2465 H 0.5391 0.34498 0.01323 0.0
H2466 H 0.54102 0.35109 0.0472 0.0
H2467 H 0.48881 0.30569 0.11139 0.0
H2468 H 0.49171 0.3324 0.0932 0.0
H2469 H 0.54057 0.3533 0.12739 0.0
H2470 H 0.53747 0.32681 0.14593 0.0
H2471 H 0.51654 0.34471 0.07196 0.0
H2472 H 0.54522 0.39845 0.13008 0.0
H2473 H 0.54241 0.40454 0.16351 0.0
H2474 H 0.48959 0.37333 0.15925 0.0
H2475 H 0.49198 0.36726 0.12576 0.0
C2476 C 0.5461 0.4209 0.03955 0.0
C2477 C 0.53584 0.43537 0.04039 0.0
C2478 C 0.54266 0.40647 0.05089 0.0
C2479 C 0.52863 0.40601 0.06305 0.0
C2480 C 0.51859 0.4206 0.06415 0.0
C2481 C 0.52218 0.43516 0.05297 0.0
C2482 C 0.52439 0.39027 0.07448 0.0
C2483 C 0.52378 0.39295 0.09379 0.0
C2484 C 0.52124 0.37265 0.06649 0.0
C2485 C 0.52012 0.36891 0.04606 0.0
C2486 C 0.5077 0.37678 0.03422 0.0
C2487 C 0.50676 0.3733 0.01498 0.0
C2488 C 0.51809 0.36187 0.00743 0.0
C2489 C 0.53035 0.35386 0.0191 0.0
C2490 C 0.53135 0.35731 0.03835 0.0
C2491 C 0.5001 0.31603 0.11512 0.0
C2492 C 0.5129 0.31416 0.13013 0.0
C2493 C 0.50177 0.33128 0.10468 0.0
C2494 C 0.51627 0.34495 0.10899 0.0
C2495 C 0.52908 0.3431 0.12398 0.0
C2496 C 0.52734 0.32791 0.13453 0.0
C2497 C 0.51833 0.36086 0.09743 0.0
C2498 C 0.51855 0.3582 0.07809 0.0
C2499 C 0.52052 0.37851 0.10533 0.0
C2500 C 0.51888 0.38226 0.12544 0.0
C2501 C 0.53298 0.39294 0.13626 0.0
C2502 C 0.53146 0.39638 0.15522 0.0
C2503 C 0.51586 0.38928 0.16351 0.0
C2504 C 0.5017 0.37877 0.15283 0.0
C2505 C 0.50314 0.3753 0.13386 0.0
H2506 H 0.51472 0.39195 0.17819 0.0
H2507 H 0.51734 0.35918 0.99253 0.0
H2508 H 0.60656 0.20496 0.33792 0.0
H2509 H 0.58614 0.21171 0.31164 0.0
H2510 H 0.62477 0.25656 0.29983 0.0
H2511 H 0.64532 0.24996 0.3262 0.0
H2512 H 0.58871 0.26401 0.2961 0.0
H2513 H 0.624 0.21913 0.27497 0.0
H2514 H 0.63704 0.19061 0.27589 0.0
H2515 H 0.58302 0.16179 0.27104 0.0
H2516 H 0.56965 0.19017 0.27035 0.0
H2517 H 0.55094 0.27228 0.20299 0.0
H2518 H 0.57167 0.26891 0.23033 0.0
H2519 H 0.53704 0.22179 0.24386 0.0
H2520 H 0.5164 0.22486 0.21653 0.0
H2521 H 0.57232 0.21645 0.24629 0.0
H2522 H 0.53697 0.26136 0.26787 0.0
H2523 H 0.52391 0.28987 0.26691 0.0
H2524 H 0.57791 0.31868 0.27075 0.0
H2525 H 0.5913 0.29031 0.27147 0.0
C2526 C 0.61066 0.21638 0.32988 0.0
C2527 C 0.62766 0.22682 0.33406 0.0
C2528 C 0.59899 0.22018 0.31483 0.0
C2529 C 0.60408 0.23447 0.30364 0.0
C2530 C 0.62063 0.24543 0.30826 0.0
C2531 C 0.63237 0.2416 0.3233 0.0
C2532 C 0.59245 0.23742 0.28667 0.0
C2533 C 0.5853 0.25373 0.28507 0.0
C2534 C 0.58783 0.22388 0.27244 0.0
C2535 C 0.59582 0.20678 0.27279 0.0
C2536 C 0.6149 0.20671 0.27425 0.0
C2537 C 0.62235 0.19057 0.27471 0.0
C2538 C 0.61087 0.17439 0.27357 0.0
C2539 C 0.5919 0.17433 0.27194 0.0
C2540 C 0.58438 0.19044 0.2715 0.0
C2541 C 0.54771 0.2612 0.21177 0.0
C2542 C 0.53195 0.24887 0.20753 0.0
C2543 C 0.55954 0.25935 0.22745 0.0
C2544 C 0.5558 0.24519 0.23922 0.0
C2545 C 0.54017 0.23283 0.23497 0.0
C2546 C 0.52835 0.23466 0.21935 0.0
C2547 C 0.56832 0.24296 0.25579 0.0
C2548 C 0.57572 0.22678 0.25728 0.0
C2549 C 0.57314 0.25662 0.26988 0.0
C2550 C 0.56513 0.2737 0.26952 0.0
C2551 C 0.54606 0.27377 0.26835 0.0
C2552 C 0.53859 0.28991 0.26788 0.0
C2553 C 0.55007 0.30608 0.26871 0.0
C2554 C 0.56904 0.30614 0.27008 0.0
C2555 C 0.57657 0.29004 0.27053 0.0
H2556 H 0.54427 0.31856 0.26835 0.0
H2557 H 0.61667 0.16191 0.27392 0.0
H2558 H 0.54298 0.09828 0.06094 0.0
H2559 H 0.54207 0.12676 0.07778 0.0
H2560 H 0.48466 0.12468 0.06065 0.0
H2561 H 0.48545 0.09617 0.04364 0.0
H2562 H 0.50381 0.15737 0.05536 0.0
H2563 H 0.49767 0.11664 0.10464 0.0
H2564 H 0.50594 0.09229 0.1242 0.0
H2565 H 0.55796 0.12249 0.141 0.0
H2566 H 0.5501 0.14692 0.12133 0.0
H2567 H 0.48519 0.22855 0.1153 0.0
H2568 H 0.48604 0.2006 0.09727 0.0
H2569 H 0.54101 0.19805 0.12109 0.0
H2570 H 0.53964 0.22551 0.13984 0.0
H2571 H 0.52337 0.16748 0.12255 0.0
H2572 H 0.52969 0.20817 0.07373 0.0
H2573 H 0.52198 0.23267 0.05411 0.0
H2574 H 0.46994 0.20294 0.0364 0.0
H2575 H 0.47724 0.17834 0.05612 0.0
C2576 C 0.53012 0.10379 0.06084 0.0
C2577 C 0.51428 0.09494 0.05095 0.0
C2578 C 0.52961 0.12006 0.07052 0.0
C2579 C 0.51327 0.12778 0.07054 0.0
C2580 C 0.49741 0.11894 0.06079 0.0
C2581 C 0.49787 0.10261 0.05116 0.0
C2582 C 0.51289 0.14528 0.08041 0.0
C2583 C 0.50773 0.15954 0.07015 0.0
C2584 C 0.51858 0.14821 0.09954 0.0
C2585 C 0.52337 0.13352 0.11134 0.0
C2586 C 0.51094 0.11802 0.11237 0.0
C2587 C 0.51554 0.10422 0.12351 0.0
C2588 C 0.53248 0.10582 0.13379 0.0
C2589 C 0.54485 0.12125 0.133 0.0
C2590 C 0.54032 0.13508 0.12187 0.0
C2591 C 0.49733 0.22183 0.11676 0.0
C2592 C 0.51203 0.22857 0.12946 0.0
C2593 C 0.49798 0.20607 0.10621 0.0
C2594 C 0.51363 0.19715 0.10775 0.0
C2595 C 0.52871 0.20452 0.11979 0.0
C2596 C 0.52795 0.22018 0.13046 0.0
C2597 C 0.51394 0.17967 0.09765 0.0
C2598 C 0.5192 0.16537 0.10783 0.0
C2599 C 0.50836 0.17674 0.07845 0.0
C2600 C 0.50396 0.19148 0.06652 0.0
C2601 C 0.51655 0.2069 0.06575 0.0
C2602 C 0.51226 0.2208 0.0546 0.0
C2603 C 0.49547 0.21938 0.04405 0.0
C2604 C 0.48294 0.20403 0.04459 0.0
C2605 C 0.48716 0.1901 0.05574 0.0
H2606 H 0.49217 0.23015 0.03542 0.0
H2607 H 0.53602 0.09512 0.14242 0.0
H2608 H 0.22873 0.35185 0.69212 0.0
H2609 H 0.25402 0.37607 0.69569 0.0
H2610 H 0.21869 0.41093 0.71908 0.0
H2611 H 0.19327 0.38688 0.71545 0.0
H2612 H 0.243 0.42897 0.69709 0.0
H2613 H 0.24371 0.38852 0.7474 0.0
H2614 H 0.24422 0.35924 0.76136 0.0
H2615 H 0.29484 0.3531 0.7377 0.0
H2616 H 0.29445 0.38222 0.72334 0.0
H2617 H 0.32188 0.46682 0.77108 0.0
H2618 H 0.29625 0.44462 0.75978 0.0
H2619 H 0.30603 0.45697 0.70312 0.0
H2620 H 0.3315 0.47966 0.71462 0.0
H2621 H 0.29419 0.41539 0.74046 0.0
H2622 H 0.26536 0.44949 0.67591 0.0
H2623 H 0.26349 0.47985 0.665 0.0
H2624 H 0.26755 0.50064 0.72157 0.0
H2625 H 0.26919 0.47039 0.7328 0.0
C2626 C 0.22622 0.36475 0.69771 0.0
C2627 C 0.20904 0.36735 0.70376 0.0
C2628 C 0.2407 0.37857 0.69973 0.0
C2629 C 0.23826 0.39519 0.70787 0.0
C2630 C 0.22085 0.39819 0.71277 0.0
C2631 C 0.20636 0.38438 0.71078 0.0
C2632 C 0.25417 0.40878 0.71313 0.0
C2633 C 0.25438 0.42597 0.70635 0.0
C2634 C 0.26876 0.40497 0.72558 0.0
C2635 C 0.26893 0.38743 0.73411 0.0
C2636 C 0.25485 0.38084 0.74503 0.0
C2637 C 0.25514 0.36429 0.75303 0.0
C2638 C 0.26953 0.35429 0.75037 0.0
C2639 C 0.28368 0.36084 0.73972 0.0
C2640 C 0.28344 0.37736 0.73164 0.0
C2641 C 0.31862 0.46464 0.75622 0.0
C2642 C 0.32883 0.47449 0.74364 0.0
C2643 C 0.30396 0.45202 0.74976 0.0
C2644 C 0.29913 0.44914 0.73059 0.0
C2645 C 0.30933 0.45911 0.71798 0.0
C2646 C 0.32391 0.47194 0.7245 0.0
C2647 C 0.28352 0.43556 0.72402 0.0
C2648 C 0.28324 0.41834 0.73072 0.0
C2649 C 0.2688 0.43948 0.71176 0.0
C2650 C 0.26762 0.4577 0.70517 0.0
C2651 C 0.2658 0.46053 0.68601 0.0
C2652 C 0.26478 0.47772 0.67978 0.0
C2653 C 0.26547 0.49217 0.69258 0.0
C2654 C 0.2671 0.48945 0.71166 0.0
C2655 C 0.26809 0.47229 0.71797 0.0
H2656 H 0.2647 0.50547 0.68773 0.0
H2657 H 0.26973 0.34149 0.75659 0.0
H2658 H 0.22431 0.62353 0.83874 0.0
H2659 H 0.2475 0.60386 0.83329 0.0
H2660 H 0.27399 0.64265 0.79847 0.0
H2661 H 0.2506 0.6622 0.8035 0.0
H2662 H 0.27122 0.61066 0.78226 0.0
H2663 H 0.29206 0.63569 0.84318 0.0
H2664 H 0.28955 0.64393 0.8762 0.0
H2665 H 0.27637 0.58868 0.88762 0.0
H2666 H 0.27856 0.58012 0.8546 0.0
H2667 H 0.35096 0.56867 0.77458 0.0
H2668 H 0.33124 0.5907 0.78378 0.0
H2669 H 0.30042 0.55107 0.81435 0.0
H2670 H 0.32012 0.52896 0.80526 0.0
H2671 H 0.30645 0.58419 0.83314 0.0
H2672 H 0.28435 0.55954 0.77196 0.0
H2673 H 0.28701 0.55133 0.73896 0.0
H2674 H 0.30286 0.60635 0.72822 0.0
H2675 H 0.30054 0.61485 0.76124 0.0
C2676 C 0.23512 0.62792 0.82999 0.0
C2677 C 0.23561 0.64444 0.82155 0.0
C2678 C 0.24844 0.61669 0.82697 0.0
C2679 C 0.26264 0.62186 0.81565 0.0
C2680 C 0.26318 0.63838 0.80727 0.0
C2681 C 0.24981 0.64956 0.81019 0.0
C2682 C 0.27655 0.60976 0.81198 0.0
C2683 C 0.27913 0.60514 0.79341 0.0
C2684 C 0.2866 0.60218 0.8265 0.0
C2685 C 0.28531 0.60728 0.84638 0.0
C2686 C 0.28849 0.62531 0.8527 0.0
C2687 C 0.28715 0.63003 0.87142 0.0
C2688 C 0.28276 0.61684 0.88399 0.0
C2689 C 0.27974 0.59889 0.87786 0.0
C2690 C 0.28105 0.59409 0.85915 0.0
C2691 C 0.34014 0.5647 0.78346 0.0
C2692 C 0.33702 0.54704 0.78909 0.0
C2693 C 0.32885 0.57729 0.78865 0.0
C2694 C 0.31423 0.57245 0.79954 0.0
C2695 C 0.31161 0.55506 0.8059 0.0
C2696 C 0.32285 0.54244 0.80065 0.0
C2697 C 0.30109 0.58521 0.80349 0.0
C2698 C 0.29861 0.58987 0.82205 0.0
C2699 C 0.29114 0.59288 0.78898 0.0
C2700 C 0.29246 0.5878 0.76911 0.0
C2701 C 0.28854 0.56987 0.7626 0.0
C2702 C 0.28997 0.56517 0.74388 0.0
C2703 C 0.29516 0.5783 0.73152 0.0
C2704 C 0.29888 0.59618 0.73783 0.0
C2705 C 0.2975 0.60095 0.75654 0.0
H2706 H 0.29625 0.57464 0.71703 0.0
H2707 H 0.28172 0.62053 0.89848 0.0
H2708 H 0.905 0.51425 0.48685 0.0
H2709 H 0.87621 0.49687 0.49297 0.0
H2710 H 0.90463 0.46853 0.53456 0.0
H2711 H 0.93361 0.48571 0.5283 0.0
H2712 H 0.88103 0.44597 0.51262 0.0
H2713 H 0.87815 0.50035 0.5473 0.0
H2714 H 0.87983 0.53292 0.55289 0.0
H2715 H 0.83574 0.53461 0.51097 0.0
H2716 H 0.83396 0.50207 0.50494 0.0
H2717 H 0.79619 0.40351 0.53939 0.0
H2718 H 0.82522 0.42329 0.54288 0.0
H2719 H 0.80701 0.45304 0.49664 0.0
H2720 H 0.77812 0.4334 0.49301 0.0
H2721 H 0.82619 0.47483 0.5257 0.0
H2722 H 0.83196 0.42131 0.48866 0.0
H2723 H 0.82998 0.38872 0.48303 0.0
H2724 H 0.86874 0.38565 0.52985 0.0
H2725 H 0.87071 0.41823 0.53595 0.0
C2726 C 0.90515 0.50436 0.49734 0.0
C2727 C 0.92161 0.5014 0.50711 0.0
C2728 C 0.88864 0.49449 0.5009 0.0
C2729 C 0.88821 0.48158 0.51443 0.0
C2730 C 0.90463 0.47848 0.52412 0.0
C2731 C 0.92118 0.48833 0.52053 0.0
C2732 C 0.87064 0.47097 0.51798 0.0
C2733 C 0.86916 0.45229 0.51588 0.0
C2734 C 0.85504 0.47919 0.52197 0.0
C2735 C 0.85602 0.49878 0.52558 0.0
C2736 C 0.8689 0.50768 0.53918 0.0
C2737 C 0.86986 0.52614 0.54244 0.0
C2738 C 0.85792 0.53584 0.53227 0.0
C2739 C 0.84498 0.52709 0.51883 0.0
C2740 C 0.84398 0.50863 0.51551 0.0
C2741 C 0.79823 0.41449 0.53022 0.0
C2742 C 0.78493 0.4168 0.51582 0.0
C2743 C 0.81484 0.42572 0.53219 0.0
C2744 C 0.81829 0.43951 0.51989 0.0
C2745 C 0.80461 0.44248 0.50626 0.0
C2746 C 0.78814 0.43117 0.50415 0.0
C2747 C 0.83661 0.44996 0.52009 0.0
C2748 C 0.8382 0.46857 0.52281 0.0
C2749 C 0.85231 0.4417 0.51669 0.0
C2750 C 0.85131 0.42216 0.5129 0.0
C2751 C 0.83995 0.41366 0.49785 0.0
C2752 C 0.83884 0.3952 0.49455 0.0
C2753 C 0.84919 0.38511 0.50611 0.0
C2754 C 0.86071 0.39348 0.52094 0.0
C2755 C 0.86182 0.41195 0.52432 0.0
H2756 H 0.84832 0.37082 0.50353 0.0
H2757 H 0.85868 0.55013 0.53481 0.0
H2758 H 0.73934 0.857 0.8433 0.0
H2759 H 0.71553 0.87514 0.83291 0.0
H2760 H 0.74536 0.92117 0.86324 0.0
H2761 H 0.76903 0.90315 0.87386 0.0
H2762 H 0.70943 0.9197 0.86733 0.0
H2763 H 0.74752 0.91498 0.81643 0.0
H2764 H 0.76292 0.89911 0.79291 0.0
H2765 H 0.71096 0.87362 0.76886 0.0
H2766 H 0.69526 0.88918 0.79242 0.0
H2767 H 0.67437 0.99164 0.82322 0.0
H2768 H 0.69373 0.96987 0.83494 0.0
H2769 H 0.65936 0.9278 0.80262 0.0
H2770 H 0.64 0.94962 0.79059 0.0
H2771 H 0.69519 0.92513 0.79961 0.0
H2772 H 0.65701 0.93248 0.84929 0.0
H2773 H 0.6422 0.94965 0.87219 0.0
H2774 H 0.69476 0.97093 0.8985 0.0
H2775 H 0.70992 0.95414 0.87549 0.0
C2776 C 0.74076 0.87095 0.84789 0.0
C2777 C 0.75616 0.87864 0.85933 0.0
C2778 C 0.72717 0.88132 0.84186 0.0
C2779 C 0.72877 0.89958 0.8471 0.0
C2780 C 0.74383 0.90712 0.859 0.0
C2781 C 0.7574 0.89679 0.86501 0.0
C2782 C 0.7151 0.91104 0.83981 0.0
C2783 C 0.70641 0.92098 0.85252 0.0
C2784 C 0.71084 0.91242 0.82049 0.0
C2785 C 0.72024 0.90307 0.80632 0.0
C2786 C 0.73939 0.90588 0.80622 0.0
C2787 C 0.74817 0.89696 0.79287 0.0
C2788 C 0.73792 0.88532 0.77943 0.0
C2789 C 0.71887 0.88261 0.7793 0.0
C2790 C 0.71003 0.89148 0.79264 0.0
C2791 C 0.67087 0.97776 0.81863 0.0
C2792 C 0.6556 0.97235 0.80602 0.0
C2793 C 0.68193 0.9653 0.82541 0.0
C2794 C 0.67788 0.94715 0.81985 0.0
C2795 C 0.66272 0.94172 0.80714 0.0
C2796 C 0.65164 0.9542 0.80033 0.0
C2797 C 0.68968 0.93396 0.82712 0.0
C2798 C 0.69803 0.92369 0.81442 0.0
C2799 C 0.69369 0.93233 0.84645 0.0
C2800 C 0.68461 0.94215 0.86056 0.0
C2801 C 0.66542 0.9409 0.85989 0.0
C2802 C 0.65696 0.95057 0.8729 0.0
C2803 C 0.66754 0.96141 0.88679 0.0
C2804 C 0.68659 0.96254 0.88773 0.0
C2805 C 0.69512 0.95294 0.8747 0.0
H2806 H 0.66099 0.96893 0.89683 0.0
H2807 H 0.74474 0.87843 0.7691 0.0
H2808 H 0.57967 0.55194 0.01748 0.0
H2809 H 0.609 0.57086 0.02032 0.0
H2810 H 0.63724 0.52414 0.02183 0.0
H2811 H 0.60786 0.50501 0.01922 0.0
H2812 H 0.65506 0.55165 0.04514 0.0
H2813 H 0.63066 0.5428 0.98146 0.0
H2814 H 0.60734 0.54261 0.95512 0.0
H2815 H 0.60625 0.59893 0.96448 0.0
H2816 H 0.62933 0.59939 0.99108 0.0
H2817 H 0.72349 0.61174 0.98748 0.0
H2818 H 0.6975 0.5886 0.98948 0.0
H2819 H 0.69096 0.60831 0.04524 0.0
H2820 H 0.71728 0.63108 0.04333 0.0
H2821 H 0.66377 0.59124 0.99242 0.0
H2822 H 0.67151 0.57531 0.07071 0.0
H2823 H 0.69616 0.57369 0.09538 0.0
H2824 H 0.73323 0.56414 0.05409 0.0
H2825 H 0.70876 0.56545 0.0292 0.0
C2826 C 0.59209 0.54565 0.01872 0.0
C2827 C 0.59141 0.52694 0.01786 0.0
C2828 C 0.60885 0.5565 0.02033 0.0
C2829 C 0.62528 0.54889 0.02094 0.0
C2830 C 0.62471 0.53027 0.02131 0.0
C2831 C 0.6079 0.51937 0.01977 0.0
C2832 C 0.64285 0.56033 0.01955 0.0
C2833 C 0.65699 0.56041 0.03368 0.0
C2834 C 0.64552 0.57135 0.00431 0.0
C2835 C 0.6316 0.57109 0.98835 0.0
C2836 C 0.62533 0.55511 0.97799 0.0
C2837 C 0.61217 0.55496 0.96301 0.0
C2838 C 0.60529 0.57074 0.95815 0.0
C2839 C 0.61157 0.58671 0.96827 0.0
C2840 C 0.62469 0.58692 0.9833 0.0
C2841 C 0.71638 0.6111 1.00009 0.0
C2842 C 0.72187 0.62341 0.01504 0.0
C2843 C 0.70165 0.59784 0.0013 0.0
C2844 C 0.6923 0.5966 0.01757 0.0
C2845 C 0.6981 0.60876 0.03267 0.0
C2846 C 0.71299 0.62186 0.03152 0.0
C2847 C 0.67588 0.58326 0.01832 0.0
C2848 C 0.66191 0.5827 0.00399 0.0
C2849 C 0.67356 0.57166 0.0332 0.0
C2850 C 0.68832 0.57064 0.04809 0.0
C2851 C 0.6849 0.57278 0.0669 0.0
C2852 C 0.69885 0.57194 0.08092 0.0
C2853 C 0.71627 0.56887 0.0763 0.0
C2854 C 0.71976 0.56658 0.05765 0.0
C2855 C 0.70586 0.5674 0.04358 0.0
H2856 H 0.72705 0.56823 0.08718 0.0
H2857 H 0.59511 0.5706 0.94654 0.0
H2858 H 0.26139 0.64583 0.20695 0.0
H2859 H 0.23456 0.62639 0.21517 0.0
H2860 H 0.26673 0.58256 0.22012 0.0
H2861 H 0.29369 0.60195 0.21221 0.0
H2862 H 0.21544 0.59578 0.20075 0.0
H2863 H 0.25329 0.5583 0.25667 0.0
H2864 H 0.2813 0.56283 0.27803 0.0
H2865 H 0.28009 0.61954 0.27876 0.0
H2866 H 0.25195 0.61533 0.25761 0.0
H2867 H 0.15168 0.5266 0.23215 0.0
H2868 H 0.17655 0.54506 0.21915 0.0
H2869 H 0.19091 0.57239 0.27288 0.0
H2870 H 0.16787 0.55192 0.28626 0.0
H2871 H 0.21939 0.56716 0.26144 0.0
H2872 H 0.17154 0.59696 0.22546 0.0
H2873 H 0.14331 0.59655 0.2045 0.0
H2874 H 0.16387 0.5607 0.16599 0.0
H2875 H 0.19216 0.56116 0.18665 0.0
C2876 C 0.26273 0.63201 0.20961 0.0
C2877 C 0.27973 0.62549 0.20911 0.0
C2878 C 0.24736 0.6209 0.21426 0.0
C2879 C 0.24871 0.6031 0.21853 0.0
C2880 C 0.26546 0.59634 0.21719 0.0
C2881 C 0.28084 0.60744 0.2126 0.0
C2882 C 0.23281 0.5919 0.22518 0.0
C2883 C 0.21626 0.58953 0.21404 0.0
C2884 C 0.23383 0.58381 0.24253 0.0
C2885 C 0.25065 0.58649 0.25539 0.0
C2886 C 0.25899 0.57173 0.26143 0.0
C2887 C 0.27488 0.57424 0.2735 0.0
C2888 C 0.28251 0.59147 0.27969 0.0
C2889 C 0.27421 0.60621 0.27389 0.0
C2890 C 0.2583 0.60377 0.26185 0.0
C2891 C 0.16001 0.53679 0.24105 0.0
C2892 C 0.15723 0.53852 0.26004 0.0
C2893 C 0.17411 0.5476 0.23353 0.0
C2894 C 0.18544 0.56074 0.24474 0.0
C2895 C 0.18241 0.56254 0.26373 0.0
C2896 C 0.16887 0.55117 0.27137 0.0
C2897 C 0.20152 0.57142 0.23734 0.0
C2898 C 0.21833 0.57347 0.24821 0.0
C2899 C 0.20064 0.57951 0.2199 0.0
C2900 C 0.18355 0.57872 0.20778 0.0
C2901 C 0.16976 0.58878 0.21266 0.0
C2902 C 0.15388 0.58864 0.20079 0.0
C2903 C 0.1517 0.57842 0.18406 0.0
C2904 C 0.1655 0.56851 0.17902 0.0
C2905 C 0.18148 0.56878 0.19075 0.0
H2906 H 0.13938 0.57829 0.17492 0.0
H2907 H 0.29482 0.59339 0.28902 0.0
H2908 H 0.93584 0.56381 0.05289 0.0
H2909 H 0.91409 0.58533 0.04631 0.0
H2910 H 0.87144 0.542 0.03115 0.0
H2911 H 0.89292 0.5204 0.03815 0.0
H2912 H 0.87675 0.57179 0.00462 0.0
H2913 H 0.86866 0.55985 0.06955 0.0
H2914 H 0.87973 0.55833 0.10249 0.0
H2915 H 0.90021 0.6141 0.10446 0.0
H2916 H 0.88948 0.61588 0.07143 0.0
H2917 H 0.79469 0.60981 0.99872 0.0
H2918 H 0.8199 0.59228 0.00447 0.0
H2919 H 0.85053 0.63665 0.03694 0.0
H2920 H 0.82474 0.654 0.03196 0.0
H2921 H 0.85424 0.60857 0.05432 0.0
H2922 H 0.86137 0.62251 0.99154 0.0
H2923 H 0.85238 0.62564 0.95832 0.0
H2924 H 0.83698 0.569 0.95124 0.0
H2925 H 0.84565 0.56555 0.98448 0.0
C2926 C 0.92181 0.55887 0.04821 0.0
C2927 C 0.91607 0.54041 0.04607 0.0
C2928 C 0.90943 0.57117 0.04448 0.0
C2929 C 0.8912 0.56522 0.03824 0.0
C2930 C 0.88547 0.54683 0.03594 0.0
C2931 C 0.89773 0.53452 0.04002 0.0
C2932 C 0.87805 0.57814 0.03402 0.0
C2933 C 0.87166 0.57975 0.01545 0.0
C2934 C 0.87208 0.58901 0.04812 0.0
C2935 C 0.87847 0.58794 0.06797 0.0
C2936 C 0.87569 0.57174 0.07695 0.0
C2937 C 0.88187 0.57085 0.09565 0.0
C2938 C 0.89072 0.5861 0.10555 0.0
C2939 C 0.89338 0.60229 0.09677 0.0
C2940 C 0.88724 0.60325 0.07807 0.0
C2941 C 0.80687 0.61594 0.0069 0.0
C2942 C 0.80776 0.63334 0.01481 0.0
C2943 C 0.82138 0.60591 0.01011 0.0
C2944 C 0.83737 0.61318 0.02087 0.0
C2945 C 0.83839 0.6307 0.02856 0.0
C2946 C 0.82369 0.64065 0.02564 0.0
C2947 C 0.85251 0.60211 0.02479 0.0
C2948 C 0.85937 0.60083 0.04334 0.0
C2949 C 0.85924 0.59181 0.01059 0.0
C2950 C 0.85404 0.5938 0.99055 0.0
C2951 C 0.85595 0.61074 0.98293 0.0
C2952 C 0.85093 0.61256 0.96409 0.0
C2953 C 0.84408 0.59753 0.95269 0.0
C2954 C 0.84228 0.58064 0.96009 0.0
C2955 C 0.84727 0.57873 0.97893 0.0
H2956 H 0.8402 0.59898 0.93811 0.0
H2957 H 0.89549 0.58538 0.12002 0.0
H2958 H 0.09991 0.99557 0.9731 0.0
H2959 H 0.12623 0.97885 0.97451 0.0
H2960 H 0.12358 0.9751 0.0338 0.0
H2961 H 0.09754 0.9923 0.03258 0.0
H2962 H 0.15801 0.98064 0.02608 0.0
H2963 H 0.10604 0.9399 0.00308 0.0
H2964 H 0.07842 0.9289 0.98265 0.0
H2965 H 0.11031 0.92998 0.93524 0.0
H2966 H 0.13809 0.94122 0.95536 0.0
H2967 H 0.2127 0.90803 0.03145 0.0
H2968 H 0.18719 0.92584 0.03298 0.0
H2969 H 0.1906 0.93744 0.97517 0.0
H2970 H 0.21599 0.91981 0.97348 0.0
H2971 H 0.15522 0.92688 0.98381 0.0
H2972 H 0.20727 0.96843 0.00793 0.0
H2973 H 0.23449 0.97854 0.02927 0.0
H2974 H 0.20162 0.97447 0.07592 0.0
H2975 H 0.17423 0.96409 0.05486 0.0
C2976 C 0.10502 0.99133 0.98647 0.0
C2977 C 0.09655 0.99516 0.00271 0.0
C2978 C 0.12001 0.98167 0.98725 0.0
C2979 C 0.12665 0.97536 0.0042 0.0
C2980 C 0.11865 0.97974 0.02054 0.0
C2981 C 0.10375 0.98957 0.01981 0.0
C2982 C 0.14164 0.96384 0.00477 0.0
C2983 C 0.15727 0.96875 0.01701 0.0
C2984 C 0.14079 0.94836 0.99286 0.0
C2985 C 0.12412 0.94156 0.98071 0.0
C2986 C 0.10714 0.93791 0.98828 0.0
C2987 C 0.09146 0.93162 0.97676 0.0
C2988 C 0.0926 0.92879 0.95765 0.0
C2989 C 0.10944 0.9322 0.95004 0.0
C2990 C 0.12516 0.93852 0.9615 0.0
C2991 C 0.20803 0.91437 0.01907 0.0
C2992 C 0.21646 0.91249 0.00236 0.0
C2993 C 0.19349 0.9246 0.01999 0.0
C2994 C 0.18708 0.93304 0.00421 0.0
C2995 C 0.19534 0.93105 0.98751 0.0
C2996 C 0.20992 0.92099 0.98661 0.0
C2997 C 0.17164 0.94384 0.00489 0.0
C2998 C 0.15589 0.93874 0.99291 0.0
C2999 C 0.17231 0.95899 0.01718 0.0
C3000 C 0.18874 0.96529 0.02984 0.0
C3001 C 0.20587 0.96954 0.02275 0.0
C3002 C 0.22132 0.97535 0.0348 0.0
C3003 C 0.21979 0.97709 0.05395 0.0
C3004 C 0.20279 0.97308 0.06109 0.0
C3005 C 0.1873 0.96725 0.0491 0.0
H3006 H 0.23177 0.98159 0.06325 0.0
H3007 H 0.08045 0.92391 0.94875 0.0
loop_
_geom_bond_atom_site_label_1
_geom_bond_atom_site_label_2
_geom_bond_distance
_geom_bond_site_symmetry_2
_ccdc_geom_bond_type
O0 Cd1 2.300 . S
O0 C7 1.275 . S
Cd1 O0 2.300 . S
Cd1 O9 2.381 . S
Cd1 O10 2.378 . S
O2 Cd3 2.385 . S
O2 C7 1.255 . S
Cd3 O2 2.385 . S
Cd3 O4 2.317 . S
O4 Cd3 2.317 . S
O4 C5 1.232 . S
C5 O4 1.232 . S
C5 O6 1.219 1_455 S
O6 C5 1.219 1_655 S
C7 O0 1.275 . S
C7 O2 1.255 . S
C8 O9 1.258 . S
C8 O10 1.256 . S
O9 Cd1 2.381 . S
O9 C8 1.258 . S
O10 Cd1 2.378 . S
O10 C8 1.256 . S
O11 Cd12 2.300 . S
O11 C18 1.275 . S
Cd12 O11 2.300 . S
Cd12 O20 2.381 . S
Cd12 O21 2.378 . S
O13 Cd14 2.385 . S
O13 C18 1.255 . S
Cd14 O13 2.385 . S
Cd14 O15 2.317 . S
O15 Cd14 2.317 . S
O15 C16 1.232 . S
C16 O15 1.232 . S
C16 O17 1.218 . S
O17 C16 1.218 . S
C18 O11 1.275 . S
C18 O13 1.255 . S
C19 O20 1.258 . S
C19 O21 1.256 . S
O20 Cd12 2.381 . S
O20 C19 1.258 . S
O21 Cd12 2.378 . S
O21 C19 1.256 . S
O22 Cd23 2.300 . S
O22 C29 1.275 . S
Cd23 O22 2.300 . S
Cd23 O31 2.381 . S
Cd23 O32 2.378 . S
O24 Cd25 2.385 . S
O24 C29 1.255 . S
Cd25 O24 2.385 . S
Cd25 O26 2.317 . S
O26 Cd25 2.317 . S
O26 C27 1.232 . S
C27 O26 1.232 . S
C27 O28 1.218 . S
O28 C27 1.218 . S
C29 O22 1.275 . S
C29 O24 1.255 . S
C30 O31 1.258 . S
C30 O32 1.256 . S
O31 Cd23 2.381 . S
O31 C30 1.258 . S
O32 Cd23 2.378 . S
O32 C30 1.256 . S
O33 Cd34 2.300 . S
O33 C40 1.275 . S
Cd34 O33 2.300 . S
Cd34 O42 2.381 . S
Cd34 O43 2.378 . S
O35 Cd36 2.385 . S
O35 C40 1.255 . S
Cd36 O35 2.385 . S
Cd36 O37 2.317 . S
O37 Cd36 2.317 . S
O37 C38 1.232 . S
C38 O37 1.232 . S
C38 O39 1.218 . S
O39 C38 1.218 . S
C40 O33 1.275 . S
C40 O35 1.255 . S
C41 O42 1.258 . S
C41 O43 1.256 . S
O42 Cd34 2.381 . S
O42 C41 1.258 . S
O43 Cd34 2.378 . S
O43 C41 1.256 . S
O44 Cd45 2.300 . S
O44 C51 1.303 . S
Cd45 O44 2.300 . S
Cd45 O53 2.381 . S
Cd45 O54 2.378 . S
O46 Cd47 2.385 . S
O46 C51 1.245 1_545 S
Cd47 O46 2.385 . S
Cd47 O48 2.317 1_545 S
O48 Cd47 2.317 1_565 S
O48 C49 1.232 . S
C49 O48 1.232 . S
C49 O50 1.218 1_565 S
O50 C49 1.218 1_545 S
C51 O44 1.303 . S
C51 O46 1.245 1_565 S
C52 O53 1.258 . S
C52 O54 1.256 . S
O53 Cd45 2.381 . S
O53 C52 1.258 . S
O54 Cd45 2.378 . S
O54 C52 1.256 . S
O55 Cd56 2.300 . S
O55 C62 1.275 . S
Cd56 O55 2.300 . S
Cd56 O64 2.381 . S
Cd56 O65 2.378 . S
O57 Cd58 2.385 . S
O57 C62 1.255 . S
Cd58 O57 2.385 . S
Cd58 O59 2.317 . S
O59 Cd58 2.317 . S
O59 C60 1.232 . S
C60 O59 1.232 . S
C60 O61 1.218 . S
O61 C60 1.218 . S
C62 O55 1.275 . S
C62 O57 1.255 . S
C63 O64 1.258 . S
C63 O65 1.256 . S
O64 Cd56 2.381 . S
O64 C63 1.258 . S
O65 Cd56 2.378 . S
O65 C63 1.256 . S
O66 Cd67 2.300 . S
O66 C73 1.275 . S
Cd67 O66 2.300 . S
Cd67 O75 2.381 . S
Cd67 O76 2.378 . S
O68 Cd69 2.396 . S
O68 C73 1.248 1_455 S
Cd69 O68 2.396 . S
Cd69 O70 2.317 1_455 S
O70 Cd69 2.317 1_655 S
O70 C71 1.219 1_655 S
C71 O70 1.219 1_455 S
C71 O72 1.246 . S
O72 C71 1.246 . S
C73 O66 1.275 . S
C73 O68 1.248 1_655 S
C74 O75 1.258 . S
C74 O76 1.256 . S
O75 Cd67 2.381 . S
O75 C74 1.258 . S
O76 Cd67 2.378 . S
O76 C74 1.256 . S
O77 Cd78 2.300 . S
O77 C84 1.275 . S
Cd78 O77 2.300 . S
Cd78 O86 2.381 . S
Cd78 O87 2.378 . S
O79 Cd80 2.385 . S
O79 C84 1.255 . S
Cd80 O79 2.385 . S
Cd80 O81 2.317 . S
O81 Cd80 2.317 . S
O81 C82 1.232 . S
C82 O81 1.232 . S
C82 O83 1.218 . S
O83 C82 1.218 . S
C84 O77 1.275 . S
C84 O79 1.255 . S
C85 O86 1.258 . S
C85 O87 1.256 . S
O86 Cd78 2.381 . S
O86 C85 1.258 . S
O87 Cd78 2.378 . S
O87 C85 1.256 . S
O88 Cd89 2.300 . S
O88 C95 1.275 . S
Cd89 O88 2.300 . S
Cd89 O97 2.381 . S
Cd89 O98 2.378 . S
O90 Cd91 2.385 . S
O90 C95 1.255 . S
Cd91 O90 2.385 . S
Cd91 O92 2.317 . S
O92 Cd91 2.317 . S
O92 C93 1.232 . S
C93 O92 1.232 . S
C93 O94 1.218 . S
O94 C93 1.218 . S
C95 O88 1.275 . S
C95 O90 1.255 . S
C96 O97 1.258 . S
C96 O98 1.256 . S
O97 Cd89 2.381 . S
O97 C96 1.258 . S
O98 Cd89 2.378 . S
O98 C96 1.256 . S
O99 Cd100 2.304 . S
O99 C106 1.275 . S
Cd100 O99 2.304 . S
Cd100 O108 2.378 1_565 S
Cd100 O109 2.373 1_565 S
O101 Cd102 2.385 . S
O101 C106 1.255 . S
Cd102 O101 2.385 . S
Cd102 O103 2.317 . S
O103 Cd102 2.317 . S
O103 C104 1.232 . S
C104 O103 1.232 . S
C104 O105 1.218 . S
O105 C104 1.218 . S
C106 O99 1.275 . S
C106 O101 1.255 . S
C107 O108 1.258 . S
C107 O109 1.256 . S
O108 Cd100 2.378 1_545 S
O108 C107 1.258 . S
O109 Cd100 2.373 1_545 S
O109 C107 1.256 . S
O110 Cd111 2.300 . S
O110 C117 1.275 . S
Cd111 O110 2.300 . S
Cd111 O119 2.381 . S
Cd111 O120 2.378 . S
O112 Cd113 2.385 . S
O112 C117 1.255 . S
Cd113 O112 2.385 . S
Cd113 O114 2.317 . S
O114 Cd113 2.317 . S
O114 C115 1.232 . S
C115 O114 1.232 . S
C115 O116 1.218 . S
O116 C115 1.218 . S
C117 O110 1.275 . S
C117 O112 1.255 . S
C118 O119 1.258 . S
C118 O120 1.256 . S
O119 Cd111 2.381 . S
O119 C118 1.258 . S
O120 Cd111 2.378 . S
O120 C118 1.256 . S
O121 Cd122 2.300 . S
O121 C128 1.275 . S
Cd122 O121 2.300 . S
Cd122 O130 2.381 . S
Cd122 O131 2.378 . S
O123 Cd124 2.385 . S
O123 C128 1.255 . S
Cd124 O123 2.385 . S
Cd124 O125 2.317 . S
O125 Cd124 2.317 . S
O125 C126 1.232 . S
C126 O125 1.232 . S
C126 O127 1.218 . S
O127 C126 1.218 . S
C128 O121 1.275 . S
C128 O123 1.255 . S
C129 O130 1.258 . S
C129 O131 1.256 . S
O130 Cd122 2.381 . S
O130 C129 1.258 . S
O131 Cd122 2.378 . S
O131 C129 1.256 . S
O132 Cd133 2.300 . S
O132 C139 1.275 . S
Cd133 O132 2.300 . S
Cd133 O141 2.381 . S
Cd133 O142 2.378 . S
O134 Cd135 2.385 . S
O134 C139 1.255 . S
Cd135 O134 2.385 . S
Cd135 O136 2.317 . S
O136 Cd135 2.317 . S
O136 C137 1.232 . S
C137 O136 1.232 . S
C137 O138 1.218 . S
O138 C137 1.218 . S
C139 O132 1.275 . S
C139 O134 1.255 . S
C140 O141 1.258 . S
C140 O142 1.256 . S
O141 Cd133 2.381 . S
O141 C140 1.258 . S
O142 Cd133 2.378 . S
O142 C140 1.256 . S
O143 Cd144 2.300 1_556 S
O143 C150 1.275 . S
Cd144 O143 2.300 1_554 S
Cd144 O152 2.381 . S
Cd144 O153 2.378 . S
O145 Cd146 2.385 . S
O145 C150 1.255 . S
Cd146 O145 2.385 . S
Cd146 O147 2.317 . S
O147 Cd146 2.317 . S
O147 C148 1.232 . S
C148 O147 1.232 . S
C148 O149 1.218 . S
O149 C148 1.218 . S
C150 O143 1.275 . S
C150 O145 1.255 . S
C151 O152 1.258 . S
C151 O153 1.256 . S
O152 Cd144 2.381 . S
O152 C151 1.258 . S
O153 Cd144 2.378 . S
O153 C151 1.256 . S
O154 Cd155 2.300 . S
O154 C161 1.275 . S
Cd155 O154 2.300 . S
Cd155 O163 2.381 . S
Cd155 O164 2.378 . S
O156 Cd157 2.385 . S
O156 C161 1.255 . S
Cd157 O156 2.385 . S
Cd157 O158 2.317 . S
O158 Cd157 2.317 . S
O158 C159 1.232 . S
C159 O158 1.232 . S
C159 O160 1.218 . S
O160 C159 1.218 . S
C161 O154 1.275 . S
C161 O156 1.255 . S
C162 O163 1.258 . S
C162 O164 1.256 . S
O163 Cd155 2.381 . S
O163 C162 1.258 . S
O164 Cd155 2.378 . S
O164 C162 1.256 . S
O165 Cd166 2.300 1_556 S
O165 C172 1.275 . S
Cd166 O165 2.300 1_554 S
Cd166 O174 2.381 1_554 S
Cd166 O175 2.378 . S
O167 Cd168 2.385 1_556 S
O167 C172 1.255 . S
Cd168 O167 2.385 1_554 S
Cd168 O169 2.317 . S
O169 Cd168 2.317 . S
O169 C170 1.232 . S
C170 O169 1.232 . S
C170 O171 1.218 . S
O171 C170 1.218 . S
C172 O165 1.275 . S
C172 O167 1.255 . S
C173 O174 1.209 1_554 S
C173 O175 1.304 . S
O174 Cd166 2.381 1_556 S
O174 C173 1.209 1_556 S
O175 Cd166 2.378 . S
O175 C173 1.304 . S
Mn176 O181 2.095 . S
Mn176 O191 2.162 . S
Mn176 O192 2.297 . S
Mn176 O200 2.385 . S
Mn176 O201 2.209 1_554 S
Mn176 O202 2.094 . S
Mn177 O182 2.121 . S
Mn177 N184 2.257 . S
Mn177 N193 2.282 . S
Mn177 O201 2.215 . S
Mn177 O203 2.117 . S
C178 O200 1.234 1_556 S
C178 O201 1.283 . S
C179 O191 1.281 . S
C179 O192 1.236 . S
C180 O202 1.240 . S
C180 O203 1.264 1_554 S
O181 Mn176 2.095 . S
O181 C190 1.250 . S
O182 Mn177 2.121 . S
O182 C190 1.258 1_556 S
C183 N184 1.326 . S
C183 C187 1.460 . S
C183 H189 0.929 . S
N184 Mn177 2.257 . S
N184 C183 1.326 . S
N184 C188 1.362 . S
C185 C186 1.258 . S
C185 C188 1.431 . S
C185 C205 1.449 . S
C186 C185 1.258 . S
C186 C187 1.477 . S
C186 H206 0.931 . S
C187 C183 1.460 . S
C187 C186 1.477 . S
C187 H207 0.930 . S
C188 N184 1.362 . S
C188 C185 1.431 . S
C188 C198 1.476 . S
H189 C183 0.929 . S
C190 O181 1.250 . S
C190 O182 1.258 1_554 S
O191 Mn176 2.162 . S
O191 C179 1.281 . S
O192 Mn176 2.297 . S
O192 C179 1.236 . S
N193 Mn177 2.282 . S
N193 C194 1.328 . S
N193 C198 1.318 . S
C194 N193 1.328 . S
C194 C195 1.457 . S
C194 H199 0.929 . S
C195 C194 1.457 . S
C195 C196 1.291 . S
C195 H208 0.931 . S
C196 C195 1.291 . S
C196 C197 1.373 . S
C196 H209 0.929 . S
C197 C196 1.373 . S
C197 C198 1.396 . S
C197 C204 1.403 . S
C198 C188 1.476 . S
C198 N193 1.318 . S
C198 C197 1.396 . S
H199 C194 0.929 . S
O200 Mn176 2.385 . S
O200 C178 1.234 1_554 S
O201 Mn176 2.209 1_556 S
O201 Mn177 2.215 . S
O201 C178 1.283 . S
O202 Mn176 2.094 . S
O202 C180 1.240 . S
O203 Mn177 2.117 . S
O203 C180 1.264 1_556 S
C204 C197 1.403 . S
C204 C205 1.399 . S
C204 H210 0.929 . S
C205 C185 1.449 . S
C205 C204 1.399 . S
C205 H211 0.930 . S
H206 C186 0.931 . S
H207 C187 0.930 . S
H208 C195 0.931 . S
H209 C196 0.929 . S
H210 C204 0.929 . S
H211 C205 0.930 . S
Mn212 O217 2.095 . S
Mn212 O227 2.162 . S
Mn212 O228 2.297 . S
Mn212 O236 2.385 . S
Mn212 O237 2.209 . S
Mn212 O238 2.094 . S
Mn213 O218 2.121 . S
Mn213 N220 2.257 . S
Mn213 N229 2.282 . S
Mn213 O237 2.215 . S
Mn213 O239 2.117 . S
C214 O236 1.234 . S
C214 O237 1.283 . S
C215 O227 1.281 . S
C215 O228 1.236 . S
C216 O238 1.240 . S
C216 O239 1.264 . S
O217 Mn212 2.095 . S
O217 C226 1.250 . S
O218 Mn213 2.121 . S
O218 C226 1.258 . S
C219 N220 1.326 . S
C219 C223 1.460 . S
C219 H225 0.929 . S
N220 Mn213 2.257 . S
N220 C219 1.326 . S
N220 C224 1.362 . S
C221 C222 1.258 . S
C221 C224 1.431 . S
C221 C241 1.449 . S
C222 C221 1.258 . S
C222 C223 1.477 . S
C222 H242 0.931 . S
C223 C219 1.460 . S
C223 C222 1.477 . S
C223 H243 0.930 . S
C224 N220 1.362 . S
C224 C221 1.431 . S
C224 C234 1.476 . S
H225 C219 0.929 . S
C226 O217 1.250 . S
C226 O218 1.258 . S
O227 Mn212 2.162 . S
O227 C215 1.281 . S
O228 Mn212 2.297 . S
O228 C215 1.236 . S
N229 Mn213 2.282 . S
N229 C230 1.328 . S
N229 C234 1.318 . S
C230 N229 1.328 . S
C230 C231 1.457 . S
C230 H235 0.929 . S
C231 C230 1.457 . S
C231 C232 1.291 . S
C231 H244 0.931 . S
C232 C231 1.291 . S
C232 C233 1.373 . S
C232 H245 0.929 . S
C233 C232 1.373 . S
C233 C234 1.396 . S
C233 C240 1.403 . S
C234 C224 1.476 . S
C234 N229 1.318 . S
C234 C233 1.396 . S
H235 C230 0.929 . S
O236 Mn212 2.385 . S
O236 C214 1.234 . S
O237 Mn212 2.209 . S
O237 Mn213 2.215 . S
O237 C214 1.283 . S
O238 Mn212 2.094 . S
O238 C216 1.240 . S
O239 Mn213 2.117 . S
O239 C216 1.264 . S
C240 C233 1.403 . S
C240 C241 1.399 . S
C240 H246 0.929 . S
C241 C221 1.449 . S
C241 C240 1.399 . S
C241 H247 0.930 . S
H242 C222 0.931 . S
H243 C223 0.930 . S
H244 C231 0.931 . S
H245 C232 0.929 . S
H246 C240 0.929 . S
H247 C241 0.930 . S
Mn248 O253 2.095 1_554 S
Mn248 O263 2.162 . S
Mn248 O264 2.297 1_554 S
Mn248 O272 2.385 . S
Mn248 O273 2.209 1_554 S
Mn248 O274 2.094 . S
Mn249 O254 2.121 . S
Mn249 N256 2.257 . S
Mn249 N265 2.282 . S
Mn249 O273 2.215 . S
Mn249 O275 2.117 1_556 S
C250 O272 1.234 . S
C250 O273 1.283 1_554 S
C251 O263 1.281 . S
C251 O264 1.236 1_554 S
C252 O274 1.240 . S
C252 O275 1.264 . S
O253 Mn248 2.095 1_556 S
O253 C262 1.250 . S
O254 Mn249 2.121 . S
O254 C262 1.258 . S
C255 N256 1.326 . S
C255 C259 1.460 . S
C255 H261 0.929 . S
N256 Mn249 2.257 . S
N256 C255 1.326 . S
N256 C260 1.362 . S
C257 C258 1.258 . S
C257 C260 1.431 . S
C257 C277 1.449 . S
C258 C257 1.258 . S
C258 C259 1.477 . S
C258 H278 0.931 . S
C259 C255 1.460 . S
C259 C258 1.477 . S
C259 H279 0.930 . S
C260 N256 1.362 . S
C260 C257 1.431 . S
C260 C270 1.476 . S
H261 C255 0.929 . S
C262 O253 1.250 . S
C262 O254 1.258 . S
O263 Mn248 2.162 . S
O263 C251 1.281 . S
O264 Mn248 2.297 1_556 S
O264 C251 1.236 1_556 S
N265 Mn249 2.282 . S
N265 C266 1.328 1_556 S
N265 C270 1.318 . S
C266 N265 1.328 1_554 S
C266 C267 1.457 . S
C266 H271 0.929 . S
C267 C266 1.457 . S
C267 C268 1.291 . S
C267 H280 0.931 . S
C268 C267 1.291 . S
C268 C269 1.373 1_554 S
C268 H281 0.929 . S
C269 C268 1.373 1_556 S
C269 C270 1.396 . S
C269 C276 1.403 . S
C270 C260 1.476 . S
C270 N265 1.318 . S
C270 C269 1.396 . S
H271 C266 0.929 . S
O272 Mn248 2.385 . S
O272 C250 1.234 . S
O273 Mn248 2.209 1_556 S
O273 Mn249 2.215 . S
O273 C250 1.283 1_556 S
O274 Mn248 2.094 . S
O274 C252 1.240 . S
O275 Mn249 2.117 1_554 S
O275 C252 1.264 . S
C276 C269 1.403 . S
C276 C277 1.399 . S
C276 H282 0.929 . S
C277 C257 1.449 . S
C277 C276 1.399 . S
C277 H283 0.930 . S
H278 C258 0.931 . S
H279 C259 0.930 . S
H280 C267 0.931 . S
H281 C268 0.929 . S
H282 C276 0.929 . S
H283 C277 0.930 . S
Mn284 O289 2.095 . S
Mn284 O299 2.162 . S
Mn284 O300 2.297 . S
Mn284 O308 2.385 . S
Mn284 O309 2.177 1_545 S
Mn284 O310 2.094 . S
Mn285 O290 2.123 1_565 S
Mn285 N292 2.257 . S
Mn285 N301 2.282 . S
Mn285 O309 2.231 . S
Mn285 O311 2.117 1_565 S
C286 O308 1.208 1_565 S
C286 O309 1.283 . S
C287 O299 1.281 . S
C287 O300 1.236 . S
C288 O310 1.240 . S
C288 O311 1.264 . S
O289 Mn284 2.095 . S
O289 C298 1.250 . S
O290 Mn285 2.123 1_545 S
O290 C298 1.253 . S
C291 N292 1.326 . S
C291 C295 1.460 . S
C291 H297 0.929 . S
N292 Mn285 2.257 . S
N292 C291 1.326 . S
N292 C296 1.362 . S
C293 C294 1.258 . S
C293 C296 1.431 . S
C293 C313 1.449 . S
C294 C293 1.258 . S
C294 C295 1.477 . S
C294 H314 0.931 . S
C295 C291 1.460 . S
C295 C294 1.477 . S
C295 H315 0.930 . S
C296 N292 1.362 . S
C296 C293 1.431 . S
C296 C306 1.476 . S
H297 C291 0.929 . S
C298 O289 1.250 . S
C298 O290 1.253 . S
O299 Mn284 2.162 . S
O299 C287 1.281 . S
O300 Mn284 2.297 . S
O300 C287 1.236 . S
N301 Mn285 2.282 . S
N301 C302 1.328 . S
N301 C306 1.318 . S
C302 N301 1.328 . S
C302 C303 1.457 . S
C302 H307 0.929 . S
C303 C302 1.457 . S
C303 C304 1.291 . S
C303 H316 0.931 . S
C304 C303 1.291 . S
C304 C305 1.373 . S
C304 H317 0.929 . S
C305 C304 1.373 . S
C305 C306 1.396 . S
C305 C312 1.403 . S
C306 C296 1.476 . S
C306 N301 1.318 . S
C306 C305 1.396 . S
H307 C302 0.929 . S
O308 Mn284 2.385 . S
O308 C286 1.208 1_545 S
O309 Mn284 2.177 1_565 S
O309 Mn285 2.231 . S
O309 C286 1.283 . S
O310 Mn284 2.094 . S
O310 C288 1.240 . S
O311 Mn285 2.117 1_545 S
O311 C288 1.264 . S
C312 C305 1.403 . S
C312 C313 1.399 . S
C312 H318 0.929 . S
C313 C293 1.449 . S
C313 C312 1.399 . S
C313 H319 0.930 . S
H314 C294 0.931 . S
H315 C295 0.930 . S
H316 C303 0.931 . S
H317 C304 0.929 . S
H318 C312 0.929 . S
H319 C313 0.930 . S
Mn320 O325 2.095 . S
Mn320 O335 2.162 . S
Mn320 O336 2.297 . S
Mn320 O344 2.385 . S
Mn320 O345 2.209 . S
Mn320 O346 2.094 . S
Mn321 O326 2.121 . S
Mn321 N328 2.257 . S
Mn321 N337 2.282 . S
Mn321 O345 2.215 . S
Mn321 O347 2.117 . S
C322 O344 1.234 . S
C322 O345 1.283 . S
C323 O335 1.281 . S
C323 O336 1.236 . S
C324 O346 1.240 . S
C324 O347 1.264 . S
O325 Mn320 2.095 . S
O325 C334 1.250 . S
O326 Mn321 2.121 . S
O326 C334 1.258 . S
C327 N328 1.326 . S
C327 C331 1.460 . S
C327 H333 0.929 . S
N328 Mn321 2.257 . S
N328 C327 1.326 . S
N328 C332 1.362 . S
C329 C330 1.258 . S
C329 C332 1.431 . S
C329 C349 1.449 . S
C330 C329 1.258 . S
C330 C331 1.477 . S
C330 H350 0.931 . S
C331 C327 1.460 . S
C331 C330 1.477 . S
C331 H351 0.930 . S
C332 N328 1.362 . S
C332 C329 1.431 . S
C332 C342 1.476 . S
H333 C327 0.929 . S
C334 O325 1.250 . S
C334 O326 1.258 . S
O335 Mn320 2.162 . S
O335 C323 1.281 . S
O336 Mn320 2.297 . S
O336 C323 1.236 . S
N337 Mn321 2.282 . S
N337 C338 1.328 . S
N337 C342 1.318 . S
C338 N337 1.328 . S
C338 C339 1.457 . S
C338 H343 0.929 . S
C339 C338 1.457 . S
C339 C340 1.291 . S
C339 H352 0.931 . S
C340 C339 1.291 . S
C340 C341 1.373 . S
C340 H353 0.929 . S
C341 C340 1.373 . S
C341 C342 1.396 . S
C341 C348 1.403 . S
C342 C332 1.476 . S
C342 N337 1.318 . S
C342 C341 1.396 . S
H343 C338 0.929 . S
O344 Mn320 2.385 . S
O344 C322 1.234 . S
O345 Mn320 2.209 . S
O345 Mn321 2.215 . S
O345 C322 1.283 . S
O346 Mn320 2.094 . S
O346 C324 1.240 . S
O347 Mn321 2.117 . S
O347 C324 1.264 . S
C348 C341 1.403 . S
C348 C349 1.399 . S
C348 H354 0.929 . S
C349 C329 1.449 . S
C349 C348 1.399 . S
C349 H355 0.930 . S
H350 C330 0.931 . S
H351 C331 0.930 . S
H352 C339 0.931 . S
H353 C340 0.929 . S
H354 C348 0.929 . S
H355 C349 0.930 . S
Mn356 O361 2.095 . S
Mn356 O371 2.162 . S
Mn356 O372 2.297 . S
Mn356 O380 2.385 . S
Mn356 O381 2.209 . S
Mn356 O382 2.094 . S
Mn357 O362 2.121 . S
Mn357 N364 2.257 . S
Mn357 N373 2.282 . S
Mn357 O381 2.215 . S
Mn357 O383 2.117 . S
C358 O380 1.234 . S
C358 O381 1.283 . S
C359 O371 1.281 . S
C359 O372 1.236 . S
C360 O382 1.240 . S
C360 O383 1.264 . S
O361 Mn356 2.095 . S
O361 C370 1.250 . S
O362 Mn357 2.121 . S
O362 C370 1.258 . S
C363 N364 1.326 . S
C363 C367 1.460 . S
C363 H369 0.929 . S
N364 Mn357 2.257 . S
N364 C363 1.326 . S
N364 C368 1.362 . S
C365 C366 1.258 . S
C365 C368 1.431 . S
C365 C385 1.449 . S
C366 C365 1.258 . S
C366 C367 1.477 . S
C366 H386 0.931 . S
C367 C363 1.460 . S
C367 C366 1.477 . S
C367 H387 0.930 . S
C368 N364 1.362 . S
C368 C365 1.431 . S
C368 C378 1.476 . S
H369 C363 0.929 . S
C370 O361 1.250 . S
C370 O362 1.258 . S
O371 Mn356 2.162 . S
O371 C359 1.281 . S
O372 Mn356 2.297 . S
O372 C359 1.236 . S
N373 Mn357 2.282 . S
N373 C374 1.328 . S
N373 C378 1.318 . S
C374 N373 1.328 . S
C374 C375 1.457 . S
C374 H379 0.929 . S
C375 C374 1.457 . S
C375 C376 1.291 . S
C375 H388 0.931 . S
C376 C375 1.291 . S
C376 C377 1.373 . S
C376 H389 0.929 . S
C377 C376 1.373 . S
C377 C378 1.396 . S
C377 C384 1.403 . S
C378 C368 1.476 . S
C378 N373 1.318 . S
C378 C377 1.396 . S
H379 C374 0.929 . S
O380 Mn356 2.385 . S
O380 C358 1.234 . S
O381 Mn356 2.209 . S
O381 Mn357 2.215 . S
O381 C358 1.283 . S
O382 Mn356 2.094 . S
O382 C360 1.240 . S
O383 Mn357 2.117 . S
O383 C360 1.264 . S
C384 C377 1.403 . S
C384 C385 1.399 . S
C384 H390 0.929 . S
C385 C365 1.449 . S
C385 C384 1.399 . S
C385 H391 0.930 . S
H386 C366 0.931 . S
H387 C367 0.930 . S
H388 C375 0.931 . S
H389 C376 0.929 . S
H390 C384 0.929 . S
H391 C385 0.930 . S
Mn392 O397 2.095 . S
Mn392 O407 2.162 . S
Mn392 O408 2.297 . S
Mn392 O416 2.385 . S
Mn392 O417 2.209 . S
Mn392 O418 2.094 . S
Mn393 O398 2.121 . S
Mn393 N400 2.257 . S
Mn393 N409 2.282 . S
Mn393 O417 2.215 . S
Mn393 O419 2.117 . S
C394 O416 1.234 . S
C394 O417 1.283 . S
C395 O407 1.281 . S
C395 O408 1.236 . S
C396 O418 1.240 . S
C396 O419 1.264 . S
O397 Mn392 2.095 . S
O397 C406 1.250 . S
O398 Mn393 2.121 . S
O398 C406 1.258 . S
C399 N400 1.326 . S
C399 C403 1.460 . S
C399 H405 0.929 . S
N400 Mn393 2.257 . S
N400 C399 1.326 . S
N400 C404 1.362 . S
C401 C402 1.258 . S
C401 C404 1.431 . S
C401 C421 1.449 . S
C402 C401 1.258 . S
C402 C403 1.477 . S
C402 H422 0.931 . S
C403 C399 1.460 . S
C403 C402 1.477 . S
C403 H423 0.930 . S
C404 N400 1.362 . S
C404 C401 1.431 . S
C404 C414 1.476 . S
H405 C399 0.929 . S
C406 O397 1.250 . S
C406 O398 1.258 . S
O407 Mn392 2.162 . S
O407 C395 1.281 . S
O408 Mn392 2.297 . S
O408 C395 1.236 . S
N409 Mn393 2.282 . S
N409 C410 1.328 . S
N409 C414 1.318 . S
C410 N409 1.328 . S
C410 C411 1.457 . S
C410 H415 0.929 . S
C411 C410 1.457 . S
C411 C412 1.291 . S
C411 H424 0.931 . S
C412 C411 1.291 . S
C412 C413 1.373 . S
C412 H425 0.929 . S
C413 C412 1.373 . S
C413 C414 1.396 . S
C413 C420 1.403 . S
C414 C404 1.476 . S
C414 N409 1.318 . S
C414 C413 1.396 . S
H415 C410 0.929 . S
O416 Mn392 2.385 . S
O416 C394 1.234 . S
O417 Mn392 2.209 . S
O417 Mn393 2.215 . S
O417 C394 1.283 . S
O418 Mn392 2.094 . S
O418 C396 1.240 . S
O419 Mn393 2.117 . S
O419 C396 1.264 . S
C420 C413 1.403 . S
C420 C421 1.399 . S
C420 H426 0.929 . S
C421 C401 1.449 . S
C421 C420 1.399 . S
C421 H427 0.930 . S
H422 C402 0.931 . S
H423 C403 0.930 . S
H424 C411 0.931 . S
H425 C412 0.929 . S
H426 C420 0.929 . S
H427 C421 0.930 . S
Mn428 O433 2.095 . S
Mn428 O443 2.162 . S
Mn428 O444 2.297 . S
Mn428 O452 2.385 1_565 S
Mn428 O453 2.209 1_565 S
Mn428 O454 2.094 . S
Mn429 O434 2.121 . S
Mn429 N436 2.257 . S
Mn429 N445 2.282 . S
Mn429 O453 2.215 . S
Mn429 O455 2.117 . S
C430 O452 1.234 . S
C430 O453 1.283 . S
C431 O443 1.281 . S
C431 O444 1.236 . S
C432 O454 1.240 1_545 S
C432 O455 1.264 . S
O433 Mn428 2.095 . S
O433 C442 1.250 1_565 S
O434 Mn429 2.121 . S
O434 C442 1.258 . S
C435 N436 1.326 . S
C435 C439 1.460 . S
C435 H441 0.929 . S
N436 Mn429 2.257 . S
N436 C435 1.326 . S
N436 C440 1.362 . S
C437 C438 1.258 . S
C437 C440 1.431 . S
C437 C457 1.449 . S
C438 C437 1.258 . S
C438 C439 1.477 . S
C438 H458 0.931 . S
C439 C435 1.460 . S
C439 C438 1.477 . S
C439 H459 0.930 . S
C440 N436 1.362 . S
C440 C437 1.431 . S
C440 C450 1.476 . S
H441 C435 0.929 . S
C442 O433 1.250 1_545 S
C442 O434 1.258 . S
O443 Mn428 2.162 . S
O443 C431 1.281 . S
O444 Mn428 2.297 . S
O444 C431 1.236 . S
N445 Mn429 2.282 . S
N445 C446 1.328 . S
N445 C450 1.318 . S
C446 N445 1.328 . S
C446 C447 1.457 . S
C446 H451 0.929 . S
C447 C446 1.457 . S
C447 C448 1.291 . S
C447 H460 0.931 . S
C448 C447 1.291 . S
C448 C449 1.373 . S
C448 H461 0.929 . S
C449 C448 1.373 . S
C449 C450 1.396 . S
C449 C456 1.403 . S
C450 C440 1.476 . S
C450 N445 1.318 . S
C450 C449 1.396 . S
H451 C446 0.929 . S
O452 Mn428 2.385 1_545 S
O452 C430 1.234 . S
O453 Mn428 2.209 1_545 S
O453 Mn429 2.215 . S
O453 C430 1.283 . S
O454 Mn428 2.094 . S
O454 C432 1.240 1_565 S
O455 Mn429 2.117 . S
O455 C432 1.264 . S
C456 C449 1.403 . S
C456 C457 1.399 . S
C456 H462 0.929 . S
C457 C437 1.449 . S
C457 C456 1.399 . S
C457 H463 0.930 . S
H458 C438 0.931 . S
H459 C439 0.930 . S
H460 C447 0.931 . S
H461 C448 0.929 . S
H462 C456 0.929 . S
H463 C457 0.930 . S
Mn464 O469 2.095 . S
Mn464 O479 2.162 . S
Mn464 O480 2.297 . S
Mn464 O488 2.385 1_455 S
Mn464 O489 2.209 1_455 S
Mn464 O490 2.094 . S
Mn465 O470 2.121 . S
Mn465 N472 2.257 . S
Mn465 N481 2.282 . S
Mn465 O489 2.215 . S
Mn465 O491 2.117 . S
C466 O488 1.234 . S
C466 O489 1.283 . S
C467 O479 1.281 . S
C467 O480 1.236 . S
C468 O490 1.240 . S
C468 O491 1.264 1_455 S
O469 Mn464 2.095 . S
O469 C478 1.250 . S
O470 Mn465 2.121 . S
O470 C478 1.258 1_655 S
C471 N472 1.326 . S
C471 C475 1.460 . S
C471 H477 0.929 . S
N472 Mn465 2.257 . S
N472 C471 1.326 . S
N472 C476 1.362 . S
C473 C474 1.258 . S
C473 C476 1.431 . S
C473 C493 1.449 . S
C474 C473 1.258 . S
C474 C475 1.477 . S
C474 H494 0.931 . S
C475 C471 1.460 . S
C475 C474 1.477 . S
C475 H495 0.930 . S
C476 N472 1.362 . S
C476 C473 1.431 . S
C476 C486 1.476 . S
H477 C471 0.929 . S
C478 O469 1.250 . S
C478 O470 1.258 1_455 S
O479 Mn464 2.162 . S
O479 C467 1.281 . S
O480 Mn464 2.297 . S
O480 C467 1.236 . S
N481 Mn465 2.282 . S
N481 C482 1.328 . S
N481 C486 1.318 . S
C482 N481 1.328 . S
C482 C483 1.457 . S
C482 H487 0.929 . S
C483 C482 1.457 . S
C483 C484 1.291 . S
C483 H496 0.931 . S
C484 C483 1.291 . S
C484 C485 1.373 . S
C484 H497 0.929 . S
C485 C484 1.373 . S
C485 C486 1.396 . S
C485 C492 1.403 . S
C486 C476 1.476 . S
C486 N481 1.318 . S
C486 C485 1.396 . S
H487 C482 0.929 . S
O488 Mn464 2.385 1_655 S
O488 C466 1.234 . S
O489 Mn464 2.209 1_655 S
O489 Mn465 2.215 . S
O489 C466 1.283 . S
O490 Mn464 2.094 . S
O490 C468 1.240 . S
O491 Mn465 2.117 . S
O491 C468 1.264 1_655 S
C492 C485 1.403 . S
C492 C493 1.399 . S
C492 H498 0.929 . S
C493 C473 1.449 . S
C493 C492 1.399 . S
C493 H499 0.930 . S
H494 C474 0.931 . S
H495 C475 0.930 . S
H496 C483 0.931 . S
H497 C484 0.929 . S
H498 C492 0.929 . S
H499 C493 0.930 . S
Mn500 O505 2.095 . S
Mn500 O515 2.162 . S
Mn500 O516 2.297 . S
Mn500 O524 2.385 . S
Mn500 O525 2.209 . S
Mn500 O526 2.094 . S
Mn501 O506 2.121 . S
Mn501 N508 2.257 . S
Mn501 N517 2.282 . S
Mn501 O525 2.215 . S
Mn501 O527 2.117 . S
C502 O524 1.234 . S
C502 O525 1.283 . S
C503 O515 1.281 . S
C503 O516 1.236 . S
C504 O526 1.240 . S
C504 O527 1.264 . S
O505 Mn500 2.095 . S
O505 C514 1.250 . S
O506 Mn501 2.121 . S
O506 C514 1.258 . S
C507 N508 1.326 . S
C507 C511 1.460 . S
C507 H513 0.929 . S
N508 Mn501 2.257 . S
N508 C507 1.326 . S
N508 C512 1.362 . S
C509 C510 1.258 . S
C509 C512 1.431 . S
C509 C529 1.449 . S
C510 C509 1.258 . S
C510 C511 1.477 . S
C510 H530 0.931 . S
C511 C507 1.460 . S
C511 C510 1.477 . S
C511 H531 0.930 . S
C512 N508 1.362 . S
C512 C509 1.431 . S
C512 C522 1.476 . S
H513 C507 0.929 . S
C514 O505 1.250 . S
C514 O506 1.258 . S
O515 Mn500 2.162 . S
O515 C503 1.281 . S
O516 Mn500 2.297 . S
O516 C503 1.236 . S
N517 Mn501 2.282 . S
N517 C518 1.328 . S
N517 C522 1.318 . S
C518 N517 1.328 . S
C518 C519 1.457 . S
C518 H523 0.929 . S
C519 C518 1.457 . S
C519 C520 1.291 . S
C519 H532 0.931 . S
C520 C519 1.291 . S
C520 C521 1.373 . S
C520 H533 0.929 . S
C521 C520 1.373 . S
C521 C522 1.396 . S
C521 C528 1.403 . S
C522 C512 1.476 . S
C522 N517 1.318 . S
C522 C521 1.396 . S
H523 C518 0.929 . S
O524 Mn500 2.385 . S
O524 C502 1.234 . S
O525 Mn500 2.209 . S
O525 Mn501 2.215 . S
O525 C502 1.283 . S
O526 Mn500 2.094 . S
O526 C504 1.240 . S
O527 Mn501 2.117 . S
O527 C504 1.264 . S
C528 C521 1.403 . S
C528 C529 1.399 . S
C528 H534 0.929 . S
C529 C509 1.449 . S
C529 C528 1.399 . S
C529 H535 0.930 . S
H530 C510 0.931 . S
H531 C511 0.930 . S
H532 C519 0.931 . S
H533 C520 0.929 . S
H534 C528 0.929 . S
H535 C529 0.930 . S
Mn536 O541 2.095 . S
Mn536 O551 2.162 . S
Mn536 O552 2.297 . S
Mn536 O560 2.385 . S
Mn536 O561 2.209 . S
Mn536 O562 2.094 . S
Mn537 O542 2.121 1_455 S
Mn537 N544 2.257 1_455 S
Mn537 N553 2.282 . S
Mn537 O561 2.215 . S
Mn537 O563 2.117 . S
C538 O560 1.234 . S
C538 O561 1.283 . S
C539 O551 1.281 . S
C539 O552 1.236 . S
C540 O562 1.240 . S
C540 O563 1.264 . S
O541 Mn536 2.095 . S
O541 C550 1.250 . S
O542 Mn537 2.121 1_655 S
O542 C550 1.258 1_655 S
C543 N544 1.326 . S
C543 C547 1.460 . S
C543 H549 0.929 . S
N544 Mn537 2.257 1_655 S
N544 C543 1.326 . S
N544 C548 1.362 . S
C545 C546 1.258 . S
C545 C548 1.431 . S
C545 C565 1.449 . S
C546 C545 1.258 . S
C546 C547 1.477 . S
C546 H566 0.931 . S
C547 C543 1.460 . S
C547 C546 1.477 . S
C547 H567 0.930 . S
C548 N544 1.362 . S
C548 C545 1.431 . S
C548 C558 1.476 1_655 S
H549 C543 0.929 . S
C550 O541 1.250 . S
C550 O542 1.258 1_455 S
O551 Mn536 2.162 . S
O551 C539 1.281 . S
O552 Mn536 2.297 . S
O552 C539 1.236 . S
N553 Mn537 2.282 . S
N553 C554 1.328 . S
N553 C558 1.318 . S
C554 N553 1.328 . S
C554 C555 1.457 . S
C554 H559 0.929 . S
C555 C554 1.457 . S
C555 C556 1.291 . S
C555 H568 0.931 . S
C556 C555 1.291 . S
C556 C557 1.373 . S
C556 H569 0.929 . S
C557 C556 1.373 . S
C557 C558 1.396 . S
C557 C564 1.403 1_455 S
C558 C548 1.476 1_455 S
C558 N553 1.318 . S
C558 C557 1.396 . S
H559 C554 0.929 . S
O560 Mn536 2.385 . S
O560 C538 1.234 . S
O561 Mn536 2.209 . S
O561 Mn537 2.215 . S
O561 C538 1.283 . S
O562 Mn536 2.094 . S
O562 C540 1.240 . S
O563 Mn537 2.117 . S
O563 C540 1.264 . S
C564 C557 1.403 1_655 S
C564 C565 1.399 . S
C564 H570 0.929 . S
C565 C545 1.449 . S
C565 C564 1.399 . S
C565 H571 0.930 . S
H566 C546 0.931 . S
H567 C547 0.930 . S
H568 C555 0.931 . S
H569 C556 0.929 . S
H570 C564 0.929 . S
H571 C565 0.930 . S
Mn572 O577 2.095 . S
Mn572 O587 2.162 . S
Mn572 O588 2.297 . S
Mn572 O596 2.385 . S
Mn572 O597 2.209 . S
Mn572 O598 2.094 . S
Mn573 O578 2.121 . S
Mn573 N580 2.257 . S
Mn573 N589 2.282 . S
Mn573 O597 2.215 . S
Mn573 O599 2.117 . S
C574 O596 1.234 . S
C574 O597 1.283 . S
C575 O587 1.281 . S
C575 O588 1.236 . S
C576 O598 1.240 . S
C576 O599 1.264 . S
O577 Mn572 2.095 . S
O577 C586 1.250 . S
O578 Mn573 2.121 . S
O578 C586 1.258 . S
C579 N580 1.326 . S
C579 C583 1.460 . S
C579 H585 0.929 . S
N580 Mn573 2.257 . S
N580 C579 1.326 . S
N580 C584 1.362 . S
C581 C582 1.258 . S
C581 C584 1.431 . S
C581 C601 1.449 . S
C582 C581 1.258 . S
C582 C583 1.477 . S
C582 H602 0.931 . S
C583 C579 1.460 . S
C583 C582 1.477 . S
C583 H603 0.930 . S
C584 N580 1.362 . S
C584 C581 1.431 . S
C584 C594 1.476 . S
H585 C579 0.929 . S
C586 O577 1.250 . S
C586 O578 1.258 . S
O587 Mn572 2.162 . S
O587 C575 1.281 . S
O588 Mn572 2.297 . S
O588 C575 1.236 . S
N589 Mn573 2.282 . S
N589 C590 1.328 . S
N589 C594 1.318 . S
C590 N589 1.328 . S
C590 C591 1.457 . S
C590 H595 0.929 . S
C591 C590 1.457 . S
C591 C592 1.291 . S
C591 H604 0.931 . S
C592 C591 1.291 . S
C592 C593 1.373 . S
C592 H605 0.929 . S
C593 C592 1.373 . S
C593 C594 1.396 . S
C593 C600 1.403 . S
C594 C584 1.476 . S
C594 N589 1.318 . S
C594 C593 1.396 . S
H595 C590 0.929 . S
O596 Mn572 2.385 . S
O596 C574 1.234 . S
O597 Mn572 2.209 . S
O597 Mn573 2.215 . S
O597 C574 1.283 . S
O598 Mn572 2.094 . S
O598 C576 1.240 . S
O599 Mn573 2.117 . S
O599 C576 1.264 . S
C600 C593 1.403 . S
C600 C601 1.399 . S
C600 H606 0.929 . S
C601 C581 1.449 . S
C601 C600 1.399 . S
C601 H607 0.930 . S
H602 C582 0.931 . S
H603 C583 0.930 . S
H604 C591 0.931 . S
H605 C592 0.929 . S
H606 C600 0.929 . S
H607 C601 0.930 . S
H608 C626 0.951 . S
H609 C628 0.951 . S
H610 C630 0.950 . S
H611 C631 0.950 . S
H612 C633 0.950 . S
H613 C636 0.950 . S
H614 C637 0.950 . S
H615 C639 0.950 . S
H616 C640 0.950 . S
H617 C641 0.951 . S
H618 C643 0.951 . S
H619 C645 0.950 . S
H620 C646 0.950 . S
H621 C648 0.950 . S
H622 C651 0.950 . S
H623 C652 0.950 . S
H624 C654 0.950 . S
H625 C655 0.950 . S
C626 H608 0.951 . S
C626 C627 1.366 . S
C626 C628 1.388 . S
C627 C626 1.366 . S
C627 C631 1.385 . S
C628 H609 0.951 . S
C628 C626 1.388 . S
C628 C629 1.366 . S
C629 C628 1.366 . S
C629 C630 1.414 . S
C629 C632 1.499 . S
C630 H610 0.950 . S
C630 C629 1.414 . S
C630 C631 1.374 . S
C631 H611 0.950 . S
C631 C627 1.385 . S
C631 C630 1.374 . S
C632 C629 1.499 . S
C632 C633 1.373 . S
C632 C634 1.389 . S
C633 H612 0.950 . S
C633 C632 1.373 . S
C633 C649 1.377 . S
C634 C632 1.389 . S
C634 C635 1.524 . S
C634 C648 1.377 . S
C635 C634 1.524 . S
C635 C636 1.397 . S
C635 C640 1.363 . S
C636 H613 0.950 . S
C636 C635 1.397 . S
C636 C637 1.334 . S
C637 H614 0.950 . S
C637 C636 1.334 . S
C637 C638 1.287 . S
C638 C637 1.287 . S
C638 C639 1.524 . S
C638 H657 0.913 . S
C639 H615 0.950 . S
C639 C638 1.524 . S
C639 C640 1.415 . S
C640 H616 0.950 . S
C640 C635 1.363 . S
C640 C639 1.415 . S
C641 H617 0.951 . S
C641 C642 1.366 . S
C641 C643 1.388 . S
C642 C641 1.366 . S
C642 C646 1.385 . S
C643 H618 0.951 . S
C643 C641 1.388 . S
C643 C644 1.366 . S
C644 C643 1.366 . S
C644 C645 1.414 . S
C644 C647 1.499 . S
C645 H619 0.950 . S
C645 C644 1.414 . S
C645 C646 1.374 . S
C646 H620 0.950 . S
C646 C642 1.385 . S
C646 C645 1.374 . S
C647 C644 1.499 . S
C647 C648 1.373 . S
C647 C649 1.389 . S
C648 H621 0.950 . S
C648 C634 1.377 . S
C648 C647 1.373 . S
C649 C633 1.377 . S
C649 C647 1.389 . S
C649 C650 1.524 . S
C650 C649 1.524 . S
C650 C651 1.397 . S
C650 C655 1.363 . S
C651 H622 0.950 . S
C651 C650 1.397 . S
C651 C652 1.334 . S
C652 H623 0.950 . S
C652 C651 1.334 . S
C652 C653 1.287 . S
C653 C652 1.287 . S
C653 C654 1.524 . S
C653 H656 0.999 . S
C654 H624 0.950 . S
C654 C653 1.524 . S
C654 C655 1.415 . S
C655 H625 0.950 . S
C655 C650 1.363 . S
C655 C654 1.415 . S
H656 C653 0.999 . S
H657 C638 0.913 . S
H658 C676 0.951 . S
H659 C678 0.951 . S
H660 C680 0.950 . S
H661 C681 0.950 1_655 S
H662 C683 0.950 . S
H663 C686 0.950 . S
H664 C687 0.950 . S
H665 C689 0.950 . S
H666 C690 0.950 . S
H667 C691 0.951 . S
H668 C693 0.951 . S
H669 C695 0.950 . S
H670 C696 0.950 . S
H671 C698 0.950 . S
H672 C701 0.950 . S
H673 C702 0.950 . S
H674 C704 0.950 . S
H675 C705 0.950 . S
C676 H658 0.951 . S
C676 C677 1.366 . S
C676 C678 1.388 . S
C677 C676 1.366 . S
C677 C681 1.385 . S
C678 H659 0.951 . S
C678 C676 1.388 . S
C678 C679 1.366 . S
C679 C678 1.366 . S
C679 C680 1.414 . S
C679 C682 1.499 . S
C680 H660 0.950 . S
C680 C679 1.414 . S
C680 C681 1.374 . S
C681 H661 0.950 1_455 S
C681 C677 1.385 . S
C681 C680 1.374 . S
C682 C679 1.499 . S
C682 C683 1.373 . S
C682 C684 1.389 . S
C683 H662 0.950 . S
C683 C682 1.373 . S
C683 C699 1.377 . S
C684 C682 1.389 . S
C684 C685 1.524 . S
C684 C698 1.377 . S
C685 C684 1.524 . S
C685 C686 1.397 . S
C685 C690 1.363 . S
C686 H663 0.950 . S
C686 C685 1.397 . S
C686 C687 1.334 . S
C687 H664 0.950 . S
C687 C686 1.334 . S
C687 C688 1.287 . S
C688 C687 1.287 . S
C688 C689 1.524 . S
C688 H707 0.913 . S
C689 H665 0.950 . S
C689 C688 1.524 . S
C689 C690 1.415 . S
C690 H666 0.950 . S
C690 C685 1.363 . S
C690 C689 1.415 . S
C691 H667 0.951 . S
C691 C692 1.366 . S
C691 C693 1.388 . S
C692 C691 1.366 . S
C692 C696 1.385 . S
C693 H668 0.951 . S
C693 C691 1.388 . S
C693 C694 1.366 . S
C694 C693 1.366 . S
C694 C695 1.414 . S
C694 C697 1.499 . S
C695 H669 0.950 . S
C695 C694 1.414 . S
C695 C696 1.374 . S
C696 H670 0.950 . S
C696 C692 1.385 . S
C696 C695 1.374 . S
C697 C694 1.499 . S
C697 C698 1.373 . S
C697 C699 1.389 . S
C698 H671 0.950 . S
C698 C684 1.377 . S
C698 C697 1.373 . S
C699 C683 1.377 . S
C699 C697 1.389 . S
C699 C700 1.524 . S
C700 C699 1.524 . S
C700 C701 1.397 . S
C700 C705 1.363 . S
C701 H672 0.950 . S
C701 C700 1.397 . S
C701 C702 1.334 . S
C702 H673 0.950 . S
C702 C701 1.334 . S
C702 C703 1.287 . S
C703 C702 1.287 . S
C703 C704 1.524 . S
C703 H706 0.999 . S
C704 H674 0.950 . S
C704 C703 1.524 . S
C704 C705 1.415 . S
C705 H675 0.950 . S
C705 C700 1.363 . S
C705 C704 1.415 . S
H706 C703 0.999 . S
H707 C688 0.913 . S
H708 C726 0.951 . S
H709 C728 0.951 . S
H710 C730 0.950 . S
H711 C731 0.950 . S
H712 C733 0.950 . S
H713 C736 0.950 . S
H714 C737 0.950 . S
H715 C739 0.950 . S
H716 C740 0.950 . S
H717 C741 0.951 . S
H718 C743 0.951 . S
H719 C745 0.950 . S
H720 C746 0.950 . S
H721 C748 0.950 . S
H722 C751 0.950 . S
H723 C752 0.950 . S
H724 C754 0.950 . S
H725 C755 0.950 . S
C726 H708 0.951 . S
C726 C727 1.366 . S
C726 C728 1.388 . S
C727 C726 1.366 . S
C727 C731 1.385 . S
C728 H709 0.951 . S
C728 C726 1.388 . S
C728 C729 1.366 . S
C729 C728 1.366 . S
C729 C730 1.414 . S
C729 C732 1.499 . S
C730 H710 0.950 . S
C730 C729 1.414 . S
C730 C731 1.374 . S
C731 H711 0.950 . S
C731 C727 1.385 . S
C731 C730 1.374 . S
C732 C729 1.499 . S
C732 C733 1.373 . S
C732 C734 1.389 . S
C733 H712 0.950 . S
C733 C732 1.373 . S
C733 C749 1.377 . S
C734 C732 1.389 . S
C734 C735 1.524 . S
C734 C748 1.377 . S
C735 C734 1.524 . S
C735 C736 1.397 . S
C735 C740 1.363 . S
C736 H713 0.950 . S
C736 C735 1.397 . S
C736 C737 1.334 . S
C737 H714 0.950 . S
C737 C736 1.334 . S
C737 C738 1.287 . S
C738 C737 1.287 . S
C738 C739 1.524 . S
C738 H757 0.913 . S
C739 H715 0.950 . S
C739 C738 1.524 . S
C739 C740 1.415 . S
C740 H716 0.950 . S
C740 C735 1.363 . S
C740 C739 1.415 . S
C741 H717 0.951 . S
C741 C742 1.366 . S
C741 C743 1.388 . S
C742 C741 1.366 . S
C742 C746 1.385 . S
C743 H718 0.951 . S
C743 C741 1.388 . S
C743 C744 1.366 . S
C744 C743 1.366 . S
C744 C745 1.414 . S
C744 C747 1.499 . S
C745 H719 0.950 . S
C745 C744 1.414 . S
C745 C746 1.374 . S
C746 H720 0.950 . S
C746 C742 1.385 . S
C746 C745 1.374 . S
C747 C744 1.499 . S
C747 C748 1.373 . S
C747 C749 1.389 . S
C748 H721 0.950 . S
C748 C734 1.377 . S
C748 C747 1.373 . S
C749 C733 1.377 . S
C749 C747 1.389 . S
C749 C750 1.524 . S
C750 C749 1.524 . S
C750 C751 1.397 . S
C750 C755 1.363 . S
C751 H722 0.950 . S
C751 C750 1.397 . S
C751 C752 1.334 . S
C752 H723 0.950 . S
C752 C751 1.334 . S
C752 C753 1.287 . S
C753 C752 1.287 . S
C753 C754 1.524 . S
C753 H756 0.999 . S
C754 H724 0.950 . S
C754 C753 1.524 . S
C754 C755 1.415 . S
C755 H725 0.950 . S
C755 C750 1.363 . S
C755 C754 1.415 . S
H756 C753 0.999 . S
H757 C738 0.913 . S
H758 C776 0.965 . S
H759 C778 0.951 . S
H760 C780 0.950 . S
H761 C781 0.946 1_455 S
H762 C783 0.950 . S
H763 C786 0.950 1_565 S
H764 C787 0.950 . S
H765 C789 0.950 . S
H766 C790 0.950 . S
H767 C791 0.951 1_565 S
H768 C793 0.951 . S
H769 C795 0.950 . S
H770 C796 0.950 . S
H771 C798 0.950 . S
H772 C801 0.950 . S
H773 C802 0.950 . S
H774 C804 0.950 . S
H775 C805 0.950 . S
C776 H758 0.965 . S
C776 C777 1.382 1_545 S
C776 C778 1.359 1_455 S
C777 C776 1.382 1_565 S
C777 C781 1.385 1_455 S
C778 H759 0.951 . S
C778 C776 1.359 1_655 S
C778 C779 1.349 1_545 S
C779 C778 1.349 1_565 S
C779 C780 1.437 . S
C779 C782 1.493 1_565 S
C780 H760 0.950 . S
C780 C779 1.437 . S
C780 C781 1.374 . S
C781 H761 0.946 1_655 S
C781 C777 1.385 1_655 S
C781 C780 1.374 . S
C782 C779 1.493 1_545 S
C782 C783 1.373 1_545 S
C782 C784 1.389 . S
C783 H762 0.950 . S
C783 C782 1.373 1_565 S
C783 C799 1.384 . S
C784 C782 1.389 . S
C784 C785 1.524 . S
C784 C798 1.377 . S
C785 C784 1.524 . S
C785 C786 1.397 . S
C785 C790 1.363 . S
C786 H763 0.950 1_545 S
C786 C785 1.397 . S
C786 C787 1.334 . S
C787 H764 0.950 . S
C787 C786 1.334 . S
C787 C788 1.287 . S
C788 C787 1.287 . S
C788 C789 1.524 . S
C788 H807 0.913 . S
C789 H765 0.950 . S
C789 C788 1.524 . S
C789 C790 1.415 . S
C790 H766 0.950 . S
C790 C785 1.363 . S
C790 C789 1.415 . S
C791 H767 0.951 1_545 S
C791 C792 1.366 . S
C791 C793 1.388 1_545 S
C792 C791 1.366 . S
C792 C796 1.385 . S
C793 H768 0.951 . S
C793 C791 1.388 1_565 S
C793 C794 1.366 1_565 S
C794 C793 1.366 1_545 S
C794 C795 1.414 . S
C794 C797 1.499 . S
C795 H769 0.950 . S
C795 C794 1.414 . S
C795 C796 1.374 . S
C796 H770 0.950 . S
C796 C792 1.385 . S
C796 C795 1.374 . S
C797 C794 1.499 . S
C797 C798 1.373 . S
C797 C799 1.374 1_545 S
C798 H771 0.950 . S
C798 C784 1.377 . S
C798 C797 1.373 . S
C799 C783 1.384 . S
C799 C797 1.374 1_565 S
C799 C800 1.532 . S
C800 C799 1.532 . S
C800 C801 1.397 1_565 S
C800 C805 1.363 . S
C801 H772 0.950 . S
C801 C800 1.397 1_545 S
C801 C802 1.334 . S
C802 H773 0.950 . S
C802 C801 1.334 . S
C802 C803 1.287 1_545 S
C803 C802 1.287 1_565 S
C803 C804 1.524 . S
C803 H806 0.999 . S
C804 H774 0.950 . S
C804 C803 1.524 . S
C804 C805 1.415 . S
C805 H775 0.950 . S
C805 C800 1.363 . S
C805 C804 1.415 . S
H806 C803 0.999 . S
H807 C788 0.913 . S
H808 C826 0.951 . S
H809 C828 0.951 . S
H810 C830 0.950 . S
H811 C831 0.950 . S
H812 C833 0.950 . S
H813 C836 0.950 . S
H814 C837 0.950 . S
H815 C839 0.950 . S
H816 C840 0.950 . S
H817 C841 0.951 . S
H818 C843 0.951 . S
H819 C845 0.950 . S
H820 C846 0.950 . S
H821 C848 0.950 . S
H822 C851 0.950 . S
H823 C852 0.950 . S
H824 C854 0.950 . S
H825 C855 0.950 . S
C826 H808 0.951 . S
C826 C827 1.366 . S
C826 C828 1.388 . S
C827 C826 1.366 . S
C827 C831 1.385 . S
C828 H809 0.951 . S
C828 C826 1.388 . S
C828 C829 1.366 . S
C829 C828 1.366 . S
C829 C830 1.414 . S
C829 C832 1.499 . S
C830 H810 0.950 . S
C830 C829 1.414 . S
C830 C831 1.374 . S
C831 H811 0.950 . S
C831 C827 1.385 . S
C831 C830 1.374 . S
C832 C829 1.499 . S
C832 C833 1.373 . S
C832 C834 1.389 . S
C833 H812 0.950 . S
C833 C832 1.373 . S
C833 C849 1.377 . S
C834 C832 1.389 . S
C834 C835 1.524 . S
C834 C848 1.377 . S
C835 C834 1.524 . S
C835 C836 1.397 . S
C835 C840 1.363 . S
C836 H813 0.950 . S
C836 C835 1.397 . S
C836 C837 1.334 . S
C837 H814 0.950 . S
C837 C836 1.334 . S
C837 C838 1.287 . S
C838 C837 1.287 . S
C838 C839 1.524 . S
C838 H857 0.913 . S
C839 H815 0.950 . S
C839 C838 1.524 . S
C839 C840 1.415 . S
C840 H816 0.950 . S
C840 C835 1.363 . S
C840 C839 1.415 . S
C841 H817 0.951 . S
C841 C842 1.366 . S
C841 C843 1.388 . S
C842 C841 1.366 . S
C842 C846 1.385 . S
C843 H818 0.951 . S
C843 C841 1.388 . S
C843 C844 1.366 . S
C844 C843 1.366 . S
C844 C845 1.414 . S
C844 C847 1.499 . S
C845 H819 0.950 . S
C845 C844 1.414 . S
C845 C846 1.374 . S
C846 H820 0.950 . S
C846 C842 1.385 . S
C846 C845 1.374 . S
C847 C844 1.499 . S
C847 C848 1.373 . S
C847 C849 1.389 . S
C848 H821 0.950 . S
C848 C834 1.377 . S
C848 C847 1.373 . S
C849 C833 1.377 . S
C849 C847 1.389 . S
C849 C850 1.524 . S
C850 C849 1.524 . S
C850 C851 1.397 . S
C850 C855 1.363 . S
C851 H822 0.950 . S
C851 C850 1.397 . S
C851 C852 1.334 . S
C852 H823 0.950 . S
C852 C851 1.334 . S
C852 C853 1.287 . S
C853 C852 1.287 . S
C853 C854 1.524 . S
C853 H856 0.999 . S
C854 H824 0.950 . S
C854 C853 1.524 . S
C854 C855 1.415 . S
C855 H825 0.950 . S
C855 C850 1.363 . S
C855 C854 1.415 . S
H856 C853 0.999 . S
H857 C838 0.913 . S
H858 C876 0.951 . S
H859 C878 0.951 . S
H860 C880 0.950 . S
H861 C881 0.950 . S
H862 C883 0.950 . S
H863 C886 0.950 . S
H864 C887 0.950 . S
H865 C889 0.950 . S
H866 C890 0.950 . S
H867 C891 0.951 . S
H868 C893 0.951 . S
H869 C895 0.950 . S
H870 C896 0.950 . S
H871 C898 0.950 . S
H872 C901 0.950 . S
H873 C902 0.950 . S
H874 C904 0.950 . S
H875 C905 0.950 . S
C876 H858 0.951 . S
C876 C877 1.366 . S
C876 C878 1.388 . S
C877 C876 1.366 . S
C877 C881 1.385 . S
C878 H859 0.951 . S
C878 C876 1.388 . S
C878 C879 1.366 . S
C879 C878 1.366 . S
C879 C880 1.414 . S
C879 C882 1.499 . S
C880 H860 0.950 . S
C880 C879 1.414 . S
C880 C881 1.374 . S
C881 H861 0.950 . S
C881 C877 1.385 . S
C881 C880 1.374 . S
C882 C879 1.499 . S
C882 C883 1.373 . S
C882 C884 1.389 . S
C883 H862 0.950 . S
C883 C882 1.373 . S
C883 C899 1.377 . S
C884 C882 1.389 . S
C884 C885 1.524 . S
C884 C898 1.377 . S
C885 C884 1.524 . S
C885 C886 1.397 . S
C885 C890 1.363 . S
C886 H863 0.950 . S
C886 C885 1.397 . S
C886 C887 1.334 . S
C887 H864 0.950 . S
C887 C886 1.334 . S
C887 C888 1.287 . S
C888 C887 1.287 . S
C888 C889 1.524 . S
C888 H907 0.913 . S
C889 H865 0.950 . S
C889 C888 1.524 . S
C889 C890 1.415 . S
C890 H866 0.950 . S
C890 C885 1.363 . S
C890 C889 1.415 . S
C891 H867 0.951 . S
C891 C892 1.366 . S
C891 C893 1.388 . S
C892 C891 1.366 . S
C892 C896 1.385 . S
C893 H868 0.951 . S
C893 C891 1.388 . S
C893 C894 1.366 . S
C894 C893 1.366 . S
C894 C895 1.414 . S
C894 C897 1.499 . S
C895 H869 0.950 . S
C895 C894 1.414 . S
C895 C896 1.374 . S
C896 H870 0.950 . S
C896 C892 1.385 . S
C896 C895 1.374 . S
C897 C894 1.499 . S
C897 C898 1.373 . S
C897 C899 1.389 . S
C898 H871 0.950 . S
C898 C884 1.377 . S
C898 C897 1.373 . S
C899 C883 1.377 . S
C899 C897 1.389 . S
C899 C900 1.524 . S
C900 C899 1.524 . S
C900 C901 1.397 . S
C900 C905 1.363 . S
C901 H872 0.950 . S
C901 C900 1.397 . S
C901 C902 1.334 . S
C902 H873 0.950 . S
C902 C901 1.334 . S
C902 C903 1.287 . S
C903 C902 1.287 . S
C903 C904 1.524 . S
C903 H906 0.999 . S
C904 H874 0.950 . S
C904 C903 1.524 . S
C904 C905 1.415 . S
C905 H875 0.950 . S
C905 C900 1.363 . S
C905 C904 1.415 . S
H906 C903 0.999 . S
H907 C888 0.913 . S
H908 C926 0.951 . S
H909 C928 0.951 . S
H910 C930 0.950 . S
H911 C931 0.950 . S
H912 C933 0.950 . S
H913 C936 0.950 . S
H914 C937 0.950 . S
H915 C939 0.950 . S
H916 C940 0.950 . S
H917 C941 0.951 . S
H918 C943 0.951 . S
H919 C945 0.950 . S
H920 C946 0.950 . S
H921 C948 0.950 . S
H922 C951 0.950 . S
H923 C952 0.950 . S
H924 C954 0.950 . S
H925 C955 0.950 . S
C926 H908 0.951 . S
C926 C927 1.366 . S
C926 C928 1.388 . S
C927 C926 1.366 . S
C927 C931 1.385 . S
C928 H909 0.951 . S
C928 C926 1.388 . S
C928 C929 1.366 . S
C929 C928 1.366 . S
C929 C930 1.414 . S
C929 C932 1.499 . S
C930 H910 0.950 . S
C930 C929 1.414 . S
C930 C931 1.374 . S
C931 H911 0.950 . S
C931 C927 1.385 . S
C931 C930 1.374 . S
C932 C929 1.499 . S
C932 C933 1.373 . S
C932 C934 1.389 . S
C933 H912 0.950 . S
C933 C932 1.373 . S
C933 C949 1.377 . S
C934 C932 1.389 . S
C934 C935 1.524 . S
C934 C948 1.377 . S
C935 C934 1.524 . S
C935 C936 1.397 . S
C935 C940 1.363 . S
C936 H913 0.950 . S
C936 C935 1.397 . S
C936 C937 1.334 . S
C937 H914 0.950 . S
C937 C936 1.334 . S
C937 C938 1.287 . S
C938 C937 1.287 . S
C938 C939 1.524 . S
C938 H957 0.913 . S
C939 H915 0.950 . S
C939 C938 1.524 . S
C939 C940 1.415 . S
C940 H916 0.950 . S
C940 C935 1.363 . S
C940 C939 1.415 . S
C941 H917 0.951 . S
C941 C942 1.366 . S
C941 C943 1.388 . S
C942 C941 1.366 . S
C942 C946 1.385 . S
C943 H918 0.951 . S
C943 C941 1.388 . S
C943 C944 1.366 . S
C944 C943 1.366 . S
C944 C945 1.414 . S
C944 C947 1.499 . S
C945 H919 0.950 . S
C945 C944 1.414 . S
C945 C946 1.374 . S
C946 H920 0.950 . S
C946 C942 1.385 . S
C946 C945 1.374 . S
C947 C944 1.499 . S
C947 C948 1.373 . S
C947 C949 1.389 . S
C948 H921 0.950 . S
C948 C934 1.377 . S
C948 C947 1.373 . S
C949 C933 1.377 . S
C949 C947 1.389 . S
C949 C950 1.524 . S
C950 C949 1.524 . S
C950 C951 1.397 . S
C950 C955 1.363 . S
C951 H922 0.950 . S
C951 C950 1.397 . S
C951 C952 1.334 . S
C952 H923 0.950 . S
C952 C951 1.334 . S
C952 C953 1.287 . S
C953 C952 1.287 . S
C953 C954 1.524 . S
C953 H956 0.999 . S
C954 H924 0.950 . S
C954 C953 1.524 . S
C954 C955 1.415 . S
C955 H925 0.950 . S
C955 C950 1.363 . S
C955 C954 1.415 . S
H956 C953 0.999 . S
H957 C938 0.913 . S
H958 C976 0.951 . S
H959 C978 0.951 . S
H960 C980 0.950 . S
H961 C981 0.950 . S
H962 C983 0.950 . S
H963 C986 0.950 . S
H964 C987 0.950 . S
H965 C989 0.950 . S
H966 C990 0.950 . S
H967 C991 0.951 . S
H968 C993 0.951 . S
H969 C995 0.950 . S
H970 C996 0.950 . S
H971 C998 0.950 . S
H972 C1001 0.950 . S
H973 C1002 0.950 . S
H974 C1004 0.950 . S
H975 C1005 0.950 . S
C976 H958 0.951 . S
C976 C977 1.366 . S
C976 C978 1.388 . S
C977 C976 1.366 . S
C977 C981 1.385 . S
C978 H959 0.951 . S
C978 C976 1.388 . S
C978 C979 1.366 . S
C979 C978 1.366 . S
C979 C980 1.414 . S
C979 C982 1.499 . S
C980 H960 0.950 . S
C980 C979 1.414 . S
C980 C981 1.374 . S
C981 H961 0.950 . S
C981 C977 1.385 . S
C981 C980 1.374 . S
C982 C979 1.499 . S
C982 C983 1.373 . S
C982 C984 1.389 1_565 S
C983 H962 0.950 . S
C983 C982 1.373 . S
C983 C999 1.377 . S
C984 C982 1.389 1_545 S
C984 C985 1.524 . S
C984 C998 1.377 . S
C985 C984 1.524 . S
C985 C986 1.397 . S
C985 C990 1.363 . S
C986 H963 0.950 . S
C986 C985 1.397 . S
C986 C987 1.334 . S
C987 H964 0.950 . S
C987 C986 1.334 . S
C987 C988 1.287 . S
C988 C987 1.287 . S
C988 C989 1.524 . S
C988 H1007 0.913 . S
C989 H965 0.950 . S
C989 C988 1.524 . S
C989 C990 1.415 . S
C990 H966 0.950 . S
C990 C985 1.363 . S
C990 C989 1.415 . S
C991 H967 0.951 . S
C991 C992 1.366 . S
C991 C993 1.388 . S
C992 C991 1.366 . S
C992 C996 1.385 . S
C993 H968 0.951 . S
C993 C991 1.388 . S
C993 C994 1.366 . S
C994 C993 1.366 . S
C994 C995 1.414 . S
C994 C997 1.499 . S
C995 H969 0.950 . S
C995 C994 1.414 . S
C995 C996 1.374 . S
C996 H970 0.950 . S
C996 C992 1.385 . S
C996 C995 1.374 . S
C997 C994 1.499 . S
C997 C998 1.373 1_565 S
C997 C999 1.389 . S
C998 H971 0.950 . S
C998 C984 1.377 . S
C998 C997 1.373 1_545 S
C999 C983 1.377 . S
C999 C997 1.389 . S
C999 C1000 1.524 . S
C1000 C999 1.524 . S
C1000 C1001 1.397 . S
C1000 C1005 1.363 . S
C1001 H972 0.950 . S
C1001 C1000 1.397 . S
C1001 C1002 1.334 . S
C1002 H973 0.950 . S
C1002 C1001 1.334 . S
C1002 C1003 1.287 . S
C1003 C1002 1.287 . S
C1003 C1004 1.524 . S
C1003 H1006 0.999 . S
C1004 H974 0.950 . S
C1004 C1003 1.524 . S
C1004 C1005 1.415 . S
C1005 H975 0.950 . S
C1005 C1000 1.363 . S
C1005 C1004 1.415 . S
H1006 C1003 0.999 . S
H1007 C988 0.913 . S
H1008 C1026 0.951 . S
H1009 C1028 0.951 . S
H1010 C1030 0.950 . S
H1011 C1031 0.950 . S
H1012 C1033 0.950 . S
H1013 C1036 0.950 . S
H1014 C1037 0.950 . S
H1015 C1039 0.950 . S
H1016 C1040 0.950 . S
H1017 C1041 0.951 . S
H1018 C1043 0.951 . S
H1019 C1045 0.950 . S
H1020 C1046 0.950 . S
H1021 C1048 0.950 . S
H1022 C1051 0.950 . S
H1023 C1052 0.950 . S
H1024 C1054 0.950 . S
H1025 C1055 0.950 . S
C1026 H1008 0.951 . S
C1026 C1027 1.366 . S
C1026 C1028 1.388 . S
C1027 C1026 1.366 . S
C1027 C1031 1.385 . S
C1028 H1009 0.951 . S
C1028 C1026 1.388 . S
C1028 C1029 1.366 . S
C1029 C1028 1.366 . S
C1029 C1030 1.414 . S
C1029 C1032 1.499 . S
C1030 H1010 0.950 . S
C1030 C1029 1.414 . S
C1030 C1031 1.374 . S
C1031 H1011 0.950 . S
C1031 C1027 1.385 . S
C1031 C1030 1.374 . S
C1032 C1029 1.499 . S
C1032 C1033 1.373 . S
C1032 C1034 1.389 . S
C1033 H1012 0.950 . S
C1033 C1032 1.373 . S
C1033 C1049 1.377 . S
C1034 C1032 1.389 . S
C1034 C1035 1.524 . S
C1034 C1048 1.377 . S
C1035 C1034 1.524 . S
C1035 C1036 1.397 . S
C1035 C1040 1.363 . S
C1036 H1013 0.950 . S
C1036 C1035 1.397 . S
C1036 C1037 1.334 . S
C1037 H1014 0.950 . S
C1037 C1036 1.334 . S
C1037 C1038 1.287 . S
C1038 C1037 1.287 . S
C1038 C1039 1.524 . S
C1038 H1057 0.913 . S
C1039 H1015 0.950 . S
C1039 C1038 1.524 . S
C1039 C1040 1.415 . S
C1040 H1016 0.950 . S
C1040 C1035 1.363 . S
C1040 C1039 1.415 . S
C1041 H1017 0.951 . S
C1041 C1042 1.366 . S
C1041 C1043 1.388 . S
C1042 C1041 1.366 . S
C1042 C1046 1.385 . S
C1043 H1018 0.951 . S
C1043 C1041 1.388 . S
C1043 C1044 1.366 . S
C1044 C1043 1.366 . S
C1044 C1045 1.414 . S
C1044 C1047 1.499 . S
C1045 H1019 0.950 . S
C1045 C1044 1.414 . S
C1045 C1046 1.374 . S
C1046 H1020 0.950 . S
C1046 C1042 1.385 . S
C1046 C1045 1.374 . S
C1047 C1044 1.499 . S
C1047 C1048 1.373 . S
C1047 C1049 1.389 . S
C1048 H1021 0.950 . S
C1048 C1034 1.377 . S
C1048 C1047 1.373 . S
C1049 C1033 1.377 . S
C1049 C1047 1.389 . S
C1049 C1050 1.524 . S
C1050 C1049 1.524 . S
C1050 C1051 1.397 . S
C1050 C1055 1.363 . S
C1051 H1022 0.950 . S
C1051 C1050 1.397 . S
C1051 C1052 1.334 . S
C1052 H1023 0.950 . S
C1052 C1051 1.334 . S
C1052 C1053 1.287 . S
C1053 C1052 1.287 . S
C1053 C1054 1.524 . S
C1053 H1056 0.999 . S
C1054 H1024 0.950 . S
C1054 C1053 1.524 . S
C1054 C1055 1.415 . S
C1055 H1025 0.950 . S
C1055 C1050 1.363 . S
C1055 C1054 1.415 . S
H1056 C1053 0.999 . S
H1057 C1038 0.913 . S
H1058 C1076 0.951 . S
H1059 C1078 0.951 . S
H1060 C1080 0.950 . S
H1061 C1081 0.950 . S
H1062 C1083 0.950 . S
H1063 C1086 0.950 . S
H1064 C1087 0.950 . S
H1065 C1089 0.950 . S
H1066 C1090 0.950 . S
H1067 C1091 0.951 . S
H1068 C1093 0.951 . S
H1069 C1095 0.950 . S
H1070 C1096 0.950 . S
H1071 C1098 0.950 . S
H1072 C1101 0.950 . S
H1073 C1102 0.950 . S
H1074 C1104 0.950 . S
H1075 C1105 0.950 . S
C1076 H1058 0.951 . S
C1076 C1077 1.366 . S
C1076 C1078 1.388 . S
C1077 C1076 1.366 . S
C1077 C1081 1.385 . S
C1078 H1059 0.951 . S
C1078 C1076 1.388 . S
C1078 C1079 1.366 . S
C1079 C1078 1.366 . S
C1079 C1080 1.414 . S
C1079 C1082 1.499 . S
C1080 H1060 0.950 . S
C1080 C1079 1.414 . S
C1080 C1081 1.374 . S
C1081 H1061 0.950 . S
C1081 C1077 1.385 . S
C1081 C1080 1.374 . S
C1082 C1079 1.499 . S
C1082 C1083 1.373 . S
C1082 C1084 1.389 . S
C1083 H1062 0.950 . S
C1083 C1082 1.373 . S
C1083 C1099 1.377 . S
C1084 C1082 1.389 . S
C1084 C1085 1.524 . S
C1084 C1098 1.377 . S
C1085 C1084 1.524 . S
C1085 C1086 1.397 . S
C1085 C1090 1.363 . S
C1086 H1063 0.950 . S
C1086 C1085 1.397 . S
C1086 C1087 1.334 . S
C1087 H1064 0.950 . S
C1087 C1086 1.334 . S
C1087 C1088 1.287 . S
C1088 C1087 1.287 . S
C1088 C1089 1.524 . S
C1088 H1107 0.913 . S
C1089 H1065 0.950 . S
C1089 C1088 1.524 . S
C1089 C1090 1.415 . S
C1090 H1066 0.950 . S
C1090 C1085 1.363 . S
C1090 C1089 1.415 . S
C1091 H1067 0.951 . S
C1091 C1092 1.366 . S
C1091 C1093 1.388 . S
C1092 C1091 1.366 . S
C1092 C1096 1.385 . S
C1093 H1068 0.951 . S
C1093 C1091 1.388 . S
C1093 C1094 1.366 . S
C1094 C1093 1.366 . S
C1094 C1095 1.414 . S
C1094 C1097 1.499 . S
C1095 H1069 0.950 . S
C1095 C1094 1.414 . S
C1095 C1096 1.374 . S
C1096 H1070 0.950 . S
C1096 C1092 1.385 . S
C1096 C1095 1.374 . S
C1097 C1094 1.499 . S
C1097 C1098 1.373 . S
C1097 C1099 1.389 . S
C1098 H1071 0.950 . S
C1098 C1084 1.377 . S
C1098 C1097 1.373 . S
C1099 C1083 1.377 . S
C1099 C1097 1.389 . S
C1099 C1100 1.524 . S
C1100 C1099 1.524 . S
C1100 C1101 1.397 . S
C1100 C1105 1.363 . S
C1101 H1072 0.950 . S
C1101 C1100 1.397 . S
C1101 C1102 1.334 . S
C1102 H1073 0.950 . S
C1102 C1101 1.334 . S
C1102 C1103 1.287 . S
C1103 C1102 1.287 . S
C1103 C1104 1.524 . S
C1103 H1106 0.999 . S
C1104 H1074 0.950 . S
C1104 C1103 1.524 . S
C1104 C1105 1.415 . S
C1105 H1075 0.950 . S
C1105 C1100 1.363 . S
C1105 C1104 1.415 . S
H1106 C1103 0.999 . S
H1107 C1088 0.913 . S
H1108 C1126 0.951 . S
H1109 C1128 0.951 . S
H1110 C1130 0.950 . S
H1111 C1131 0.950 . S
H1112 C1133 0.950 . S
H1113 C1136 0.950 . S
H1114 C1137 0.950 . S
H1115 C1139 0.950 . S
H1116 C1140 0.950 . S
H1117 C1141 0.951 . S
H1118 C1143 0.951 . S
H1119 C1145 0.950 . S
H1120 C1146 0.950 . S
H1121 C1148 0.950 . S
H1122 C1151 0.950 . S
H1123 C1152 0.950 . S
H1124 C1154 0.950 . S
H1125 C1155 0.950 . S
C1126 H1108 0.951 . S
C1126 C1127 1.366 . S
C1126 C1128 1.388 . S
C1127 C1126 1.366 . S
C1127 C1131 1.385 . S
C1128 H1109 0.951 . S
C1128 C1126 1.388 . S
C1128 C1129 1.366 . S
C1129 C1128 1.366 . S
C1129 C1130 1.414 . S
C1129 C1132 1.499 . S
C1130 H1110 0.950 . S
C1130 C1129 1.414 . S
C1130 C1131 1.374 . S
C1131 H1111 0.950 . S
C1131 C1127 1.385 . S
C1131 C1130 1.374 . S
C1132 C1129 1.499 . S
C1132 C1133 1.373 . S
C1132 C1134 1.389 . S
C1133 H1112 0.950 . S
C1133 C1132 1.373 . S
C1133 C1149 1.377 . S
C1134 C1132 1.389 . S
C1134 C1135 1.524 . S
C1134 C1148 1.377 . S
C1135 C1134 1.524 . S
C1135 C1136 1.397 . S
C1135 C1140 1.363 . S
C1136 H1113 0.950 . S
C1136 C1135 1.397 . S
C1136 C1137 1.334 . S
C1137 H1114 0.950 . S
C1137 C1136 1.334 . S
C1137 C1138 1.287 . S
C1138 C1137 1.287 . S
C1138 C1139 1.524 . S
C1138 H1157 0.913 . S
C1139 H1115 0.950 . S
C1139 C1138 1.524 . S
C1139 C1140 1.415 . S
C1140 H1116 0.950 . S
C1140 C1135 1.363 . S
C1140 C1139 1.415 . S
C1141 H1117 0.951 . S
C1141 C1142 1.366 . S
C1141 C1143 1.388 . S
C1142 C1141 1.366 . S
C1142 C1146 1.385 . S
C1143 H1118 0.951 . S
C1143 C1141 1.388 . S
C1143 C1144 1.366 . S
C1144 C1143 1.366 . S
C1144 C1145 1.414 . S
C1144 C1147 1.499 . S
C1145 H1119 0.950 . S
C1145 C1144 1.414 . S
C1145 C1146 1.374 . S
C1146 H1120 0.950 . S
C1146 C1142 1.385 . S
C1146 C1145 1.374 . S
C1147 C1144 1.499 . S
C1147 C1148 1.373 . S
C1147 C1149 1.389 . S
C1148 H1121 0.950 . S
C1148 C1134 1.377 . S
C1148 C1147 1.373 . S
C1149 C1133 1.377 . S
C1149 C1147 1.389 . S
C1149 C1150 1.524 . S
C1150 C1149 1.524 . S
C1150 C1151 1.397 . S
C1150 C1155 1.363 . S
C1151 H1122 0.950 . S
C1151 C1150 1.397 . S
C1151 C1152 1.334 . S
C1152 H1123 0.950 . S
C1152 C1151 1.334 . S
C1152 C1153 1.287 . S
C1153 C1152 1.287 . S
C1153 C1154 1.524 . S
C1153 H1156 0.999 . S
C1154 H1124 0.950 . S
C1154 C1153 1.524 . S
C1154 C1155 1.415 . S
C1155 H1125 0.950 . S
C1155 C1150 1.363 . S
C1155 C1154 1.415 . S
H1156 C1153 0.999 . S
H1157 C1138 0.913 . S
H1158 C1176 0.951 . S
H1159 C1178 0.951 . S
H1160 C1180 0.950 . S
H1161 C1181 0.950 . S
H1162 C1183 0.950 . S
H1163 C1186 0.950 . S
H1164 C1187 0.950 . S
H1165 C1189 0.950 . S
H1166 C1190 0.950 . S
H1167 C1191 0.951 . S
H1168 C1193 0.951 . S
H1169 C1195 0.950 . S
H1170 C1196 0.950 . S
H1171 C1198 0.950 . S
H1172 C1201 0.950 . S
H1173 C1202 0.950 . S
H1174 C1204 0.950 . S
H1175 C1205 0.950 . S
C1176 H1158 0.951 . S
C1176 C1177 1.366 . S
C1176 C1178 1.388 . S
C1177 C1176 1.366 . S
C1177 C1181 1.385 . S
C1178 H1159 0.951 . S
C1178 C1176 1.388 . S
C1178 C1179 1.366 . S
C1179 C1178 1.366 . S
C1179 C1180 1.414 . S
C1179 C1182 1.499 . S
C1180 H1160 0.950 . S
C1180 C1179 1.414 . S
C1180 C1181 1.374 . S
C1181 H1161 0.950 . S
C1181 C1177 1.385 . S
C1181 C1180 1.374 . S
C1182 C1179 1.499 . S
C1182 C1183 1.373 . S
C1182 C1184 1.389 . S
C1183 H1162 0.950 . S
C1183 C1182 1.373 . S
C1183 C1199 1.377 . S
C1184 C1182 1.389 . S
C1184 C1185 1.524 . S
C1184 C1198 1.377 . S
C1185 C1184 1.524 . S
C1185 C1186 1.397 . S
C1185 C1190 1.363 . S
C1186 H1163 0.950 . S
C1186 C1185 1.397 . S
C1186 C1187 1.334 . S
C1187 H1164 0.950 . S
C1187 C1186 1.334 . S
C1187 C1188 1.287 . S
C1188 C1187 1.287 . S
C1188 C1189 1.524 . S
C1188 H1207 0.913 . S
C1189 H1165 0.950 . S
C1189 C1188 1.524 . S
C1189 C1190 1.415 . S
C1190 H1166 0.950 . S
C1190 C1185 1.363 . S
C1190 C1189 1.415 . S
C1191 H1167 0.951 . S
C1191 C1192 1.366 . S
C1191 C1193 1.388 . S
C1192 C1191 1.366 . S
C1192 C1196 1.385 . S
C1193 H1168 0.951 . S
C1193 C1191 1.388 . S
C1193 C1194 1.366 . S
C1194 C1193 1.366 . S
C1194 C1195 1.414 . S
C1194 C1197 1.499 . S
C1195 H1169 0.950 . S
C1195 C1194 1.414 . S
C1195 C1196 1.374 . S
C1196 H1170 0.950 . S
C1196 C1192 1.385 . S
C1196 C1195 1.374 . S
C1197 C1194 1.499 . S
C1197 C1198 1.373 . S
C1197 C1199 1.389 . S
C1198 H1171 0.950 . S
C1198 C1184 1.377 . S
C1198 C1197 1.373 . S
C1199 C1183 1.377 . S
C1199 C1197 1.389 . S
C1199 C1200 1.524 . S
C1200 C1199 1.524 . S
C1200 C1201 1.397 . S
C1200 C1205 1.363 . S
C1201 H1172 0.950 . S
C1201 C1200 1.397 . S
C1201 C1202 1.334 . S
C1202 H1173 0.950 . S
C1202 C1201 1.334 . S
C1202 C1203 1.287 . S
C1203 C1202 1.287 . S
C1203 C1204 1.524 . S
C1203 H1206 0.999 . S
C1204 H1174 0.950 . S
C1204 C1203 1.524 . S
C1204 C1205 1.415 . S
C1205 H1175 0.950 . S
C1205 C1200 1.363 . S
C1205 C1204 1.415 . S
H1206 C1203 0.999 . S
H1207 C1188 0.913 . S
H1208 C1226 0.951 . S
H1209 C1228 0.951 . S
H1210 C1230 0.950 . S
H1211 C1231 0.950 . S
H1212 C1233 0.950 . S
H1213 C1236 0.950 . S
H1214 C1237 0.950 . S
H1215 C1239 0.950 . S
H1216 C1240 0.950 . S
H1217 C1241 0.951 1_455 S
H1218 C1243 0.951 . S
H1219 C1245 0.950 . S
H1220 C1246 0.950 . S
H1221 C1248 0.950 . S
H1222 C1251 0.950 . S
H1223 C1252 0.950 . S
H1224 C1254 0.950 1_455 S
H1225 C1255 0.950 . S
C1226 H1208 0.951 . S
C1226 C1227 1.366 . S
C1226 C1228 1.388 . S
C1227 C1226 1.366 . S
C1227 C1231 1.385 . S
C1228 H1209 0.951 . S
C1228 C1226 1.388 . S
C1228 C1229 1.366 . S
C1229 C1228 1.366 . S
C1229 C1230 1.414 . S
C1229 C1232 1.499 . S
C1230 H1210 0.950 . S
C1230 C1229 1.414 . S
C1230 C1231 1.374 . S
C1231 H1211 0.950 . S
C1231 C1227 1.385 . S
C1231 C1230 1.374 . S
C1232 C1229 1.499 . S
C1232 C1233 1.373 . S
C1232 C1234 1.389 . S
C1233 H1212 0.950 . S
C1233 C1232 1.373 . S
C1233 C1249 1.377 . S
C1234 C1232 1.389 . S
C1234 C1235 1.524 . S
C1234 C1248 1.377 . S
C1235 C1234 1.524 . S
C1235 C1236 1.397 . S
C1235 C1240 1.363 . S
C1236 H1213 0.950 . S
C1236 C1235 1.397 . S
C1236 C1237 1.334 . S
C1237 H1214 0.950 . S
C1237 C1236 1.334 . S
C1237 C1238 1.287 . S
C1238 C1237 1.287 . S
C1238 C1239 1.524 . S
C1238 H1257 0.913 . S
C1239 H1215 0.950 . S
C1239 C1238 1.524 . S
C1239 C1240 1.415 . S
C1240 H1216 0.950 . S
C1240 C1235 1.363 . S
C1240 C1239 1.415 . S
C1241 H1217 0.951 1_655 S
C1241 C1242 1.366 . S
C1241 C1243 1.388 . S
C1242 C1241 1.366 . S
C1242 C1246 1.385 . S
C1243 H1218 0.951 . S
C1243 C1241 1.388 . S
C1243 C1244 1.366 . S
C1244 C1243 1.366 . S
C1244 C1245 1.414 . S
C1244 C1247 1.499 . S
C1245 H1219 0.950 . S
C1245 C1244 1.414 . S
C1245 C1246 1.374 . S
C1246 H1220 0.950 . S
C1246 C1242 1.385 . S
C1246 C1245 1.374 . S
C1247 C1244 1.499 . S
C1247 C1248 1.373 . S
C1247 C1249 1.389 . S
C1248 H1221 0.950 . S
C1248 C1234 1.377 . S
C1248 C1247 1.373 . S
C1249 C1233 1.377 . S
C1249 C1247 1.389 . S
C1249 C1250 1.524 . S
C1250 C1249 1.524 . S
C1250 C1251 1.397 . S
C1250 C1255 1.363 . S
C1251 H1222 0.950 . S
C1251 C1250 1.397 . S
C1251 C1252 1.334 . S
C1252 H1223 0.950 . S
C1252 C1251 1.334 . S
C1252 C1253 1.287 . S
C1253 C1252 1.287 . S
C1253 C1254 1.524 . S
C1253 H1256 0.999 1_655 S
C1254 H1224 0.950 1_655 S
C1254 C1253 1.524 . S
C1254 C1255 1.415 . S
C1255 H1225 0.950 . S
C1255 C1250 1.363 . S
C1255 C1254 1.415 . S
H1256 C1253 0.999 1_455 S
H1257 C1238 0.913 . S
H1258 C1276 0.951 . S
H1259 C1278 0.951 . S
H1260 C1280 0.950 . S
H1261 C1281 0.950 . S
H1262 C1283 0.950 . S
H1263 C1286 0.950 . S
H1264 C1287 0.950 . S
H1265 C1289 0.950 . S
H1266 C1290 0.950 . S
H1267 C1291 0.951 . S
H1268 C1293 0.951 . S
H1269 C1295 0.950 . S
H1270 C1296 0.950 . S
H1271 C1298 0.950 . S
H1272 C1301 0.950 . S
H1273 C1302 0.950 . S
H1274 C1304 0.950 . S
H1275 C1305 0.950 . S
C1276 H1258 0.951 . S
C1276 C1277 1.366 . S
C1276 C1278 1.388 . S
C1277 C1276 1.366 . S
C1277 C1281 1.385 . S
C1278 H1259 0.951 . S
C1278 C1276 1.388 . S
C1278 C1279 1.366 . S
C1279 C1278 1.366 . S
C1279 C1280 1.414 . S
C1279 C1282 1.499 . S
C1280 H1260 0.950 . S
C1280 C1279 1.414 . S
C1280 C1281 1.374 . S
C1281 H1261 0.950 . S
C1281 C1277 1.385 . S
C1281 C1280 1.374 . S
C1282 C1279 1.499 . S
C1282 C1283 1.373 . S
C1282 C1284 1.389 . S
C1283 H1262 0.950 . S
C1283 C1282 1.373 . S
C1283 C1299 1.377 . S
C1284 C1282 1.389 . S
C1284 C1285 1.524 . S
C1284 C1298 1.377 . S
C1285 C1284 1.524 . S
C1285 C1286 1.397 . S
C1285 C1290 1.363 . S
C1286 H1263 0.950 . S
C1286 C1285 1.397 . S
C1286 C1287 1.334 . S
C1287 H1264 0.950 . S
C1287 C1286 1.334 . S
C1287 C1288 1.287 . S
C1288 C1287 1.287 . S
C1288 C1289 1.524 . S
C1288 H1307 0.913 . S
C1289 H1265 0.950 . S
C1289 C1288 1.524 . S
C1289 C1290 1.415 . S
C1290 H1266 0.950 . S
C1290 C1285 1.363 . S
C1290 C1289 1.415 . S
C1291 H1267 0.951 . S
C1291 C1292 1.366 . S
C1291 C1293 1.388 . S
C1292 C1291 1.366 . S
C1292 C1296 1.385 . S
C1293 H1268 0.951 . S
C1293 C1291 1.388 . S
C1293 C1294 1.366 . S
C1294 C1293 1.366 . S
C1294 C1295 1.414 . S
C1294 C1297 1.499 . S
C1295 H1269 0.950 . S
C1295 C1294 1.414 . S
C1295 C1296 1.374 . S
C1296 H1270 0.950 . S
C1296 C1292 1.385 . S
C1296 C1295 1.374 . S
C1297 C1294 1.499 . S
C1297 C1298 1.373 . S
C1297 C1299 1.389 . S
C1298 H1271 0.950 . S
C1298 C1284 1.377 . S
C1298 C1297 1.373 . S
C1299 C1283 1.377 . S
C1299 C1297 1.389 . S
C1299 C1300 1.524 . S
C1300 C1299 1.524 . S
C1300 C1301 1.397 1_455 S
C1300 C1305 1.363 . S
C1301 H1272 0.950 . S
C1301 C1300 1.397 1_655 S
C1301 C1302 1.334 . S
C1302 H1273 0.950 . S
C1302 C1301 1.334 . S
C1302 C1303 1.287 . S
C1303 C1302 1.287 . S
C1303 C1304 1.524 . S
C1303 H1306 0.999 . S
C1304 H1274 0.950 . S
C1304 C1303 1.524 . S
C1304 C1305 1.415 1_655 S
C1305 H1275 0.950 . S
C1305 C1300 1.363 . S
C1305 C1304 1.415 1_455 S
H1306 C1303 0.999 . S
H1307 C1288 0.913 . S
H1308 C1326 0.951 . S
H1309 C1328 0.951 . S
H1310 C1330 0.950 . S
H1311 C1331 0.950 . S
H1312 C1333 0.950 . S
H1313 C1336 0.950 . S
H1314 C1337 0.950 . S
H1315 C1339 0.950 . S
H1316 C1340 0.950 . S
H1317 C1341 0.951 . S
H1318 C1343 0.951 . S
H1319 C1345 0.950 . S
H1320 C1346 0.950 . S
H1321 C1348 0.950 . S
H1322 C1351 0.950 . S
H1323 C1352 0.950 . S
H1324 C1354 0.950 . S
H1325 C1355 0.950 . S
C1326 H1308 0.951 . S
C1326 C1327 1.366 . S
C1326 C1328 1.388 . S
C1327 C1326 1.366 . S
C1327 C1331 1.385 . S
C1328 H1309 0.951 . S
C1328 C1326 1.388 . S
C1328 C1329 1.366 . S
C1329 C1328 1.366 . S
C1329 C1330 1.414 . S
C1329 C1332 1.499 . S
C1330 H1310 0.950 . S
C1330 C1329 1.414 . S
C1330 C1331 1.374 . S
C1331 H1311 0.950 . S
C1331 C1327 1.385 . S
C1331 C1330 1.374 . S
C1332 C1329 1.499 . S
C1332 C1333 1.373 . S
C1332 C1334 1.389 . S
C1333 H1312 0.950 . S
C1333 C1332 1.373 . S
C1333 C1349 1.377 . S
C1334 C1332 1.389 . S
C1334 C1335 1.524 . S
C1334 C1348 1.377 . S
C1335 C1334 1.524 . S
C1335 C1336 1.397 . S
C1335 C1340 1.363 . S
C1336 H1313 0.950 . S
C1336 C1335 1.397 . S
C1336 C1337 1.334 . S
C1337 H1314 0.950 . S
C1337 C1336 1.334 . S
C1337 C1338 1.287 . S
C1338 C1337 1.287 . S
C1338 C1339 1.524 . S
C1338 H1357 0.913 . S
C1339 H1315 0.950 . S
C1339 C1338 1.524 . S
C1339 C1340 1.415 . S
C1340 H1316 0.950 . S
C1340 C1335 1.363 . S
C1340 C1339 1.415 . S
C1341 H1317 0.951 . S
C1341 C1342 1.366 . S
C1341 C1343 1.388 . S
C1342 C1341 1.366 . S
C1342 C1346 1.385 . S
C1343 H1318 0.951 . S
C1343 C1341 1.388 . S
C1343 C1344 1.366 . S
C1344 C1343 1.366 . S
C1344 C1345 1.414 . S
C1344 C1347 1.499 . S
C1345 H1319 0.950 . S
C1345 C1344 1.414 . S
C1345 C1346 1.374 . S
C1346 H1320 0.950 . S
C1346 C1342 1.385 . S
C1346 C1345 1.374 . S
C1347 C1344 1.499 . S
C1347 C1348 1.373 . S
C1347 C1349 1.389 . S
C1348 H1321 0.950 . S
C1348 C1334 1.377 . S
C1348 C1347 1.373 . S
C1349 C1333 1.377 . S
C1349 C1347 1.389 . S
C1349 C1350 1.524 . S
C1350 C1349 1.524 . S
C1350 C1351 1.397 . S
C1350 C1355 1.363 . S
C1351 H1322 0.950 . S
C1351 C1350 1.397 . S
C1351 C1352 1.334 . S
C1352 H1323 0.950 . S
C1352 C1351 1.334 . S
C1352 C1353 1.287 . S
C1353 C1352 1.287 . S
C1353 C1354 1.524 . S
C1353 H1356 0.999 . S
C1354 H1324 0.950 . S
C1354 C1353 1.524 . S
C1354 C1355 1.415 . S
C1355 H1325 0.950 . S
C1355 C1350 1.363 . S
C1355 C1354 1.415 . S
H1356 C1353 0.999 . S
H1357 C1338 0.913 . S
H1358 C1376 0.951 . S
H1359 C1378 0.951 . S
H1360 C1380 0.950 . S
H1361 C1381 0.950 . S
H1362 C1383 0.950 . S
H1363 C1386 0.964 . S
H1364 C1387 0.932 1_455 S
H1365 C1389 0.950 . S
H1366 C1390 0.950 . S
H1367 C1391 0.951 . S
H1368 C1393 0.951 . S
H1369 C1395 0.950 . S
H1370 C1396 0.906 1_655 S
H1371 C1398 0.935 1_655 S
H1372 C1401 0.950 . S
H1373 C1402 0.950 . S
H1374 C1404 0.950 . S
H1375 C1405 0.950 . S
C1376 H1358 0.951 . S
C1376 C1377 1.366 . S
C1376 C1378 1.388 . S
C1377 C1376 1.366 . S
C1377 C1381 1.385 1_655 S
C1378 H1359 0.951 . S
C1378 C1376 1.388 . S
C1378 C1379 1.366 1_655 S
C1379 C1378 1.366 1_455 S
C1379 C1380 1.414 . S
C1379 C1382 1.499 . S
C1380 H1360 0.950 . S
C1380 C1379 1.414 . S
C1380 C1381 1.374 . S
C1381 H1361 0.950 . S
C1381 C1377 1.385 1_455 S
C1381 C1380 1.374 . S
C1382 C1379 1.499 . S
C1382 C1383 1.373 . S
C1382 C1384 1.389 1_455 S
C1383 H1362 0.950 . S
C1383 C1382 1.373 . S
C1383 C1399 1.377 . S
C1384 C1382 1.389 1_655 S
C1384 C1385 1.524 . S
C1384 C1398 1.379 1_655 S
C1385 C1384 1.524 . S
C1385 C1386 1.387 1_655 S
C1385 C1390 1.363 . S
C1386 H1363 0.964 . S
C1386 C1385 1.387 1_455 S
C1386 C1387 1.329 1_455 S
C1387 H1364 0.932 1_655 S
C1387 C1386 1.329 1_655 S
C1387 C1388 1.287 . S
C1388 C1387 1.287 . S
C1388 C1389 1.524 . S
C1388 H1407 0.913 . S
C1389 H1365 0.950 . S
C1389 C1388 1.524 . S
C1389 C1390 1.415 . S
C1390 H1366 0.950 . S
C1390 C1385 1.363 . S
C1390 C1389 1.415 . S
C1391 H1367 0.951 . S
C1391 C1392 1.366 . S
C1391 C1393 1.388 . S
C1392 C1391 1.366 . S
C1392 C1396 1.429 . S
C1393 H1368 0.951 . S
C1393 C1391 1.388 . S
C1393 C1394 1.366 . S
C1394 C1393 1.366 . S
C1394 C1395 1.414 1_455 S
C1394 C1397 1.499 . S
C1395 H1369 0.950 . S
C1395 C1394 1.414 1_655 S
C1395 C1396 1.375 1_655 S
C1396 H1370 0.906 1_455 S
C1396 C1392 1.429 . S
C1396 C1395 1.375 1_455 S
C1397 C1394 1.499 . S
C1397 C1398 1.388 . S
C1397 C1399 1.389 . S
C1398 H1371 0.935 1_455 S
C1398 C1384 1.379 1_455 S
C1398 C1397 1.388 . S
C1399 C1383 1.377 . S
C1399 C1397 1.389 . S
C1399 C1400 1.524 . S
C1400 C1399 1.524 . S
C1400 C1401 1.397 . S
C1400 C1405 1.363 . S
C1401 H1372 0.950 . S
C1401 C1400 1.397 . S
C1401 C1402 1.334 . S
C1402 H1373 0.950 . S
C1402 C1401 1.334 . S
C1402 C1403 1.287 . S
C1403 C1402 1.287 . S
C1403 C1404 1.524 . S
C1403 H1406 0.999 . S
C1404 H1374 0.950 . S
C1404 C1403 1.524 . S
C1404 C1405 1.415 . S
C1405 H1375 0.950 . S
C1405 C1400 1.363 . S
C1405 C1404 1.415 . S
H1406 C1403 0.999 . S
H1407 C1388 0.913 . S
H1408 C1426 0.951 . S
H1409 C1428 0.951 . S
H1410 C1430 0.950 . S
H1411 C1431 0.950 . S
H1412 C1433 0.950 . S
H1413 C1436 0.950 . S
H1414 C1437 0.950 . S
H1415 C1439 0.950 . S
H1416 C1440 0.950 . S
H1417 C1441 0.951 . S
H1418 C1443 0.951 . S
H1419 C1445 0.950 . S
H1420 C1446 0.950 . S
H1421 C1448 0.950 . S
H1422 C1451 0.950 . S
H1423 C1452 0.950 . S
H1424 C1454 0.950 . S
H1425 C1455 0.950 . S
C1426 H1408 0.951 . S
C1426 C1427 1.366 . S
C1426 C1428 1.388 . S
C1427 C1426 1.366 . S
C1427 C1431 1.385 . S
C1428 H1409 0.951 . S
C1428 C1426 1.388 . S
C1428 C1429 1.366 . S
C1429 C1428 1.366 . S
C1429 C1430 1.414 . S
C1429 C1432 1.499 . S
C1430 H1410 0.950 . S
C1430 C1429 1.414 . S
C1430 C1431 1.374 . S
C1431 H1411 0.950 . S
C1431 C1427 1.385 . S
C1431 C1430 1.374 . S
C1432 C1429 1.499 . S
C1432 C1433 1.373 . S
C1432 C1434 1.389 . S
C1433 H1412 0.950 . S
C1433 C1432 1.373 . S
C1433 C1449 1.377 . S
C1434 C1432 1.389 . S
C1434 C1435 1.524 . S
C1434 C1448 1.377 . S
C1435 C1434 1.524 . S
C1435 C1436 1.397 . S
C1435 C1440 1.363 . S
C1436 H1413 0.950 . S
C1436 C1435 1.397 . S
C1436 C1437 1.334 . S
C1437 H1414 0.950 . S
C1437 C1436 1.334 . S
C1437 C1438 1.287 . S
C1438 C1437 1.287 . S
C1438 C1439 1.524 . S
C1438 H1457 0.913 . S
C1439 H1415 0.950 . S
C1439 C1438 1.524 . S
C1439 C1440 1.415 . S
C1440 H1416 0.950 . S
C1440 C1435 1.363 . S
C1440 C1439 1.415 . S
C1441 H1417 0.951 . S
C1441 C1442 1.366 . S
C1441 C1443 1.388 . S
C1442 C1441 1.366 . S
C1442 C1446 1.385 . S
C1443 H1418 0.951 . S
C1443 C1441 1.388 . S
C1443 C1444 1.366 . S
C1444 C1443 1.366 . S
C1444 C1445 1.414 . S
C1444 C1447 1.499 . S
C1445 H1419 0.950 . S
C1445 C1444 1.414 . S
C1445 C1446 1.374 . S
C1446 H1420 0.950 . S
C1446 C1442 1.385 . S
C1446 C1445 1.374 . S
C1447 C1444 1.499 . S
C1447 C1448 1.373 . S
C1447 C1449 1.389 . S
C1448 H1421 0.950 . S
C1448 C1434 1.377 . S
C1448 C1447 1.373 . S
C1449 C1433 1.377 . S
C1449 C1447 1.389 . S
C1449 C1450 1.524 . S
C1450 C1449 1.524 . S
C1450 C1451 1.397 . S
C1450 C1455 1.363 . S
C1451 H1422 0.950 . S
C1451 C1450 1.397 . S
C1451 C1452 1.334 . S
C1452 H1423 0.950 . S
C1452 C1451 1.334 . S
C1452 C1453 1.287 . S
C1453 C1452 1.287 . S
C1453 C1454 1.524 . S
C1453 H1456 0.999 . S
C1454 H1424 0.950 . S
C1454 C1453 1.524 . S
C1454 C1455 1.415 . S
C1455 H1425 0.950 . S
C1455 C1450 1.363 . S
C1455 C1454 1.415 . S
H1456 C1453 0.999 . S
H1457 C1438 0.913 . S
H1458 C1476 0.951 . S
H1459 C1478 0.951 . S
H1460 C1480 0.950 . S
H1461 C1481 0.950 . S
H1462 C1483 0.950 . S
H1463 C1486 0.950 . S
H1464 C1487 0.950 . S
H1465 C1489 0.950 . S
H1466 C1490 0.950 . S
H1467 C1491 0.951 . S
H1468 C1493 0.951 . S
H1469 C1495 0.950 . S
H1470 C1496 0.950 . S
H1471 C1498 0.950 . S
H1472 C1501 0.950 . S
H1473 C1502 0.950 . S
H1474 C1504 0.950 . S
H1475 C1505 0.950 . S
C1476 H1458 0.951 . S
C1476 C1477 1.366 . S
C1476 C1478 1.388 . S
C1477 C1476 1.366 . S
C1477 C1481 1.385 . S
C1478 H1459 0.951 . S
C1478 C1476 1.388 . S
C1478 C1479 1.366 . S
C1479 C1478 1.366 . S
C1479 C1480 1.414 . S
C1479 C1482 1.499 . S
C1480 H1460 0.950 . S
C1480 C1479 1.414 . S
C1480 C1481 1.374 . S
C1481 H1461 0.950 . S
C1481 C1477 1.385 . S
C1481 C1480 1.374 . S
C1482 C1479 1.499 . S
C1482 C1483 1.373 . S
C1482 C1484 1.389 . S
C1483 H1462 0.950 . S
C1483 C1482 1.373 . S
C1483 C1499 1.377 . S
C1484 C1482 1.389 . S
C1484 C1485 1.524 . S
C1484 C1498 1.377 . S
C1485 C1484 1.524 . S
C1485 C1486 1.397 . S
C1485 C1490 1.363 . S
C1486 H1463 0.950 . S
C1486 C1485 1.397 . S
C1486 C1487 1.334 . S
C1487 H1464 0.950 . S
C1487 C1486 1.334 . S
C1487 C1488 1.287 . S
C1488 C1487 1.287 . S
C1488 C1489 1.524 . S
C1488 H1507 0.913 . S
C1489 H1465 0.950 . S
C1489 C1488 1.524 . S
C1489 C1490 1.415 . S
C1490 H1466 0.950 . S
C1490 C1485 1.363 . S
C1490 C1489 1.415 . S
C1491 H1467 0.951 . S
C1491 C1492 1.366 . S
C1491 C1493 1.388 . S
C1492 C1491 1.366 . S
C1492 C1496 1.385 . S
C1493 H1468 0.951 . S
C1493 C1491 1.388 . S
C1493 C1494 1.366 . S
C1494 C1493 1.366 . S
C1494 C1495 1.414 . S
C1494 C1497 1.499 . S
C1495 H1469 0.950 . S
C1495 C1494 1.414 . S
C1495 C1496 1.374 . S
C1496 H1470 0.950 . S
C1496 C1492 1.385 . S
C1496 C1495 1.374 . S
C1497 C1494 1.499 . S
C1497 C1498 1.373 . S
C1497 C1499 1.389 . S
C1498 H1471 0.950 . S
C1498 C1484 1.377 . S
C1498 C1497 1.373 . S
C1499 C1483 1.377 . S
C1499 C1497 1.389 . S
C1499 C1500 1.524 . S
C1500 C1499 1.524 . S
C1500 C1501 1.397 . S
C1500 C1505 1.363 . S
C1501 H1472 0.950 . S
C1501 C1500 1.397 . S
C1501 C1502 1.334 . S
C1502 H1473 0.950 . S
C1502 C1501 1.334 . S
C1502 C1503 1.287 . S
C1503 C1502 1.287 . S
C1503 C1504 1.524 . S
C1503 H1506 0.999 . S
C1504 H1474 0.950 . S
C1504 C1503 1.524 . S
C1504 C1505 1.415 . S
C1505 H1475 0.950 . S
C1505 C1500 1.363 . S
C1505 C1504 1.415 . S
H1506 C1503 0.999 . S
H1507 C1488 0.913 . S
H1508 C1526 0.951 . S
H1509 C1528 0.951 . S
H1510 C1530 0.950 . S
H1511 C1531 0.950 . S
H1512 C1533 0.950 . S
H1513 C1536 0.950 . S
H1514 C1537 0.953 . S
H1515 C1539 0.950 . S
H1516 C1540 0.950 . S
H1517 C1541 0.951 . S
H1518 C1543 0.951 . S
H1519 C1545 0.950 . S
H1520 C1546 0.950 . S
H1521 C1548 0.950 . S
H1522 C1551 0.950 . S
H1523 C1552 0.950 . S
H1524 C1554 0.950 . S
H1525 C1555 0.950 . S
C1526 H1508 0.951 . S
C1526 C1527 1.364 1_546 S
C1526 C1528 1.388 1_545 S
C1527 C1526 1.364 1_564 S
C1527 C1531 1.394 . S
C1528 H1509 0.951 . S
C1528 C1526 1.388 1_565 S
C1528 C1529 1.365 1_556 S
C1529 C1528 1.365 1_554 S
C1529 C1530 1.414 . S
C1529 C1532 1.499 . S
C1530 H1510 0.950 . S
C1530 C1529 1.414 . S
C1530 C1531 1.374 . S
C1531 H1511 0.950 . S
C1531 C1527 1.394 . S
C1531 C1530 1.374 . S
C1532 C1529 1.499 . S
C1532 C1533 1.373 1_554 S
C1532 C1534 1.389 . S
C1533 H1512 0.950 . S
C1533 C1532 1.373 1_556 S
C1533 C1549 1.377 . S
C1534 C1532 1.389 . S
C1534 C1535 1.524 . S
C1534 C1548 1.377 . S
C1535 C1534 1.524 . S
C1535 C1536 1.397 . S
C1535 C1540 1.363 . S
C1536 H1513 0.950 . S
C1536 C1535 1.397 . S
C1536 C1537 1.334 . S
C1537 H1514 0.953 . S
C1537 C1536 1.334 . S
C1537 C1538 1.287 1_565 S
C1538 C1537 1.287 1_545 S
C1538 C1539 1.524 . S
C1538 H1557 0.913 . S
C1539 H1515 0.950 . S
C1539 C1538 1.524 . S
C1539 C1540 1.415 1_545 S
C1540 H1516 0.950 . S
C1540 C1535 1.363 . S
C1540 C1539 1.415 1_565 S
C1541 H1517 0.951 . S
C1541 C1542 1.366 . S
C1541 C1543 1.388 . S
C1542 C1541 1.366 . S
C1542 C1546 1.385 . S
C1543 H1518 0.951 . S
C1543 C1541 1.388 . S
C1543 C1544 1.366 . S
C1544 C1543 1.366 . S
C1544 C1545 1.414 . S
C1544 C1547 1.499 . S
C1545 H1519 0.950 . S
C1545 C1544 1.414 . S
C1545 C1546 1.374 . S
C1546 H1520 0.950 . S
C1546 C1542 1.385 . S
C1546 C1545 1.374 . S
C1547 C1544 1.499 . S
C1547 C1548 1.373 . S
C1547 C1549 1.389 1_554 S
C1548 H1521 0.950 . S
C1548 C1534 1.377 . S
C1548 C1547 1.373 . S
C1549 C1533 1.377 . S
C1549 C1547 1.389 1_556 S
C1549 C1550 1.524 . S
C1550 C1549 1.524 . S
C1550 C1551 1.397 . S
C1550 C1555 1.363 . S
C1551 H1522 0.950 . S
C1551 C1550 1.397 . S
C1551 C1552 1.334 . S
C1552 H1523 0.950 . S
C1552 C1551 1.334 . S
C1552 C1553 1.287 . S
C1553 C1552 1.287 . S
C1553 C1554 1.524 . S
C1553 H1556 0.999 . S
C1554 H1524 0.950 . S
C1554 C1553 1.524 . S
C1554 C1555 1.415 . S
C1555 H1525 0.950 . S
C1555 C1550 1.363 . S
C1555 C1554 1.415 . S
H1556 C1553 0.999 . S
H1557 C1538 0.913 . S
H1558 C1576 0.951 . S
H1559 C1578 0.951 . S
H1560 C1580 0.950 . S
H1561 C1581 0.950 . S
H1562 C1583 0.950 . S
H1563 C1586 0.950 . S
H1564 C1587 0.950 . S
H1565 C1589 0.950 . S
H1566 C1590 0.950 . S
H1567 C1591 0.951 . S
H1568 C1593 0.951 . S
H1569 C1595 0.950 . S
H1570 C1596 0.950 . S
H1571 C1598 0.950 . S
H1572 C1601 0.950 . S
H1573 C1602 0.950 . S
H1574 C1604 0.950 . S
H1575 C1605 0.950 . S
C1576 H1558 0.951 . S
C1576 C1577 1.366 . S
C1576 C1578 1.388 . S
C1577 C1576 1.366 . S
C1577 C1581 1.385 . S
C1578 H1559 0.951 . S
C1578 C1576 1.388 . S
C1578 C1579 1.366 . S
C1579 C1578 1.366 . S
C1579 C1580 1.414 . S
C1579 C1582 1.499 . S
C1580 H1560 0.950 . S
C1580 C1579 1.414 . S
C1580 C1581 1.374 . S
C1581 H1561 0.950 . S
C1581 C1577 1.385 . S
C1581 C1580 1.374 . S
C1582 C1579 1.499 . S
C1582 C1583 1.373 . S
C1582 C1584 1.389 . S
C1583 H1562 0.950 . S
C1583 C1582 1.373 . S
C1583 C1599 1.377 . S
C1584 C1582 1.389 . S
C1584 C1585 1.524 . S
C1584 C1598 1.377 . S
C1585 C1584 1.524 . S
C1585 C1586 1.397 . S
C1585 C1590 1.363 . S
C1586 H1563 0.950 . S
C1586 C1585 1.397 . S
C1586 C1587 1.334 . S
C1587 H1564 0.950 . S
C1587 C1586 1.334 . S
C1587 C1588 1.287 . S
C1588 C1587 1.287 . S
C1588 C1589 1.524 . S
C1588 H1607 0.913 . S
C1589 H1565 0.950 . S
C1589 C1588 1.524 . S
C1589 C1590 1.415 . S
C1590 H1566 0.950 . S
C1590 C1585 1.363 . S
C1590 C1589 1.415 . S
C1591 H1567 0.951 . S
C1591 C1592 1.366 . S
C1591 C1593 1.388 . S
C1592 C1591 1.366 . S
C1592 C1596 1.385 . S
C1593 H1568 0.951 . S
C1593 C1591 1.388 . S
C1593 C1594 1.366 . S
C1594 C1593 1.366 . S
C1594 C1595 1.414 . S
C1594 C1597 1.499 . S
C1595 H1569 0.950 . S
C1595 C1594 1.414 . S
C1595 C1596 1.374 . S
C1596 H1570 0.950 . S
C1596 C1592 1.385 . S
C1596 C1595 1.374 . S
C1597 C1594 1.499 . S
C1597 C1598 1.373 . S
C1597 C1599 1.389 . S
C1598 H1571 0.950 . S
C1598 C1584 1.377 . S
C1598 C1597 1.373 . S
C1599 C1583 1.377 . S
C1599 C1597 1.389 . S
C1599 C1600 1.524 . S
C1600 C1599 1.524 . S
C1600 C1601 1.397 . S
C1600 C1605 1.363 . S
C1601 H1572 0.950 . S
C1601 C1600 1.397 . S
C1601 C1602 1.334 . S
C1602 H1573 0.950 . S
C1602 C1601 1.334 . S
C1602 C1603 1.287 . S
C1603 C1602 1.287 . S
C1603 C1604 1.524 . S
C1603 H1606 0.999 . S
C1604 H1574 0.950 . S
C1604 C1603 1.524 . S
C1604 C1605 1.415 . S
C1605 H1575 0.950 . S
C1605 C1600 1.363 . S
C1605 C1604 1.415 . S
H1606 C1603 0.999 . S
H1607 C1588 0.913 . S
H1608 C1626 0.951 . S
H1609 C1628 0.951 . S
H1610 C1630 0.950 . S
H1611 C1631 0.950 1_565 S
H1612 C1633 0.950 . S
H1613 C1636 0.950 . S
H1614 C1637 0.950 . S
H1615 C1639 0.950 . S
H1616 C1640 0.950 . S
H1617 C1641 0.951 . S
H1618 C1643 0.951 . S
H1619 C1645 0.950 . S
H1620 C1646 0.950 . S
H1621 C1648 0.950 . S
H1622 C1651 0.950 . S
H1623 C1652 0.950 . S
H1624 C1654 0.950 . S
H1625 C1655 0.950 . S
C1626 H1608 0.951 . S
C1626 C1627 1.366 . S
C1626 C1628 1.388 . S
C1627 C1626 1.366 . S
C1627 C1631 1.385 . S
C1628 H1609 0.951 . S
C1628 C1626 1.388 . S
C1628 C1629 1.366 . S
C1629 C1628 1.366 . S
C1629 C1630 1.414 . S
C1629 C1632 1.499 . S
C1630 H1610 0.950 . S
C1630 C1629 1.414 . S
C1630 C1631 1.374 . S
C1631 H1611 0.950 1_545 S
C1631 C1627 1.385 . S
C1631 C1630 1.374 . S
C1632 C1629 1.499 . S
C1632 C1633 1.373 . S
C1632 C1634 1.389 . S
C1633 H1612 0.950 . S
C1633 C1632 1.373 . S
C1633 C1649 1.377 . S
C1634 C1632 1.389 . S
C1634 C1635 1.524 . S
C1634 C1648 1.377 . S
C1635 C1634 1.524 . S
C1635 C1636 1.397 . S
C1635 C1640 1.363 . S
C1636 H1613 0.950 . S
C1636 C1635 1.397 . S
C1636 C1637 1.334 . S
C1637 H1614 0.950 . S
C1637 C1636 1.334 . S
C1637 C1638 1.287 . S
C1638 C1637 1.287 . S
C1638 C1639 1.524 . S
C1638 H1657 0.913 . S
C1639 H1615 0.950 . S
C1639 C1638 1.524 . S
C1639 C1640 1.415 . S
C1640 H1616 0.950 . S
C1640 C1635 1.363 . S
C1640 C1639 1.415 . S
C1641 H1617 0.951 . S
C1641 C1642 1.366 . S
C1641 C1643 1.388 . S
C1642 C1641 1.366 . S
C1642 C1646 1.385 . S
C1643 H1618 0.951 . S
C1643 C1641 1.388 . S
C1643 C1644 1.366 . S
C1644 C1643 1.366 . S
C1644 C1645 1.414 . S
C1644 C1647 1.499 . S
C1645 H1619 0.950 . S
C1645 C1644 1.414 . S
C1645 C1646 1.374 . S
C1646 H1620 0.950 . S
C1646 C1642 1.385 . S
C1646 C1645 1.374 . S
C1647 C1644 1.499 . S
C1647 C1648 1.373 . S
C1647 C1649 1.389 . S
C1648 H1621 0.950 . S
C1648 C1634 1.377 . S
C1648 C1647 1.373 . S
C1649 C1633 1.377 . S
C1649 C1647 1.389 . S
C1649 C1650 1.524 . S
C1650 C1649 1.524 . S
C1650 C1651 1.397 . S
C1650 C1655 1.363 . S
C1651 H1622 0.950 . S
C1651 C1650 1.397 . S
C1651 C1652 1.334 . S
C1652 H1623 0.950 . S
C1652 C1651 1.334 . S
C1652 C1653 1.287 . S
C1653 C1652 1.287 . S
C1653 C1654 1.524 . S
C1653 H1656 0.999 . S
C1654 H1624 0.950 . S
C1654 C1653 1.524 . S
C1654 C1655 1.415 . S
C1655 H1625 0.950 . S
C1655 C1650 1.363 . S
C1655 C1654 1.415 . S
H1656 C1653 0.999 . S
H1657 C1638 0.913 . S
H1658 C1676 0.951 . S
H1659 C1678 0.951 . S
H1660 C1680 0.950 . S
H1661 C1681 0.950 . S
H1662 C1683 0.950 . S
H1663 C1686 0.950 . S
H1664 C1687 0.950 . S
H1665 C1689 0.950 . S
H1666 C1690 0.950 . S
H1667 C1691 0.951 . S
H1668 C1693 0.951 . S
H1669 C1695 0.950 . S
H1670 C1696 0.950 . S
H1671 C1698 0.950 . S
H1672 C1701 0.950 . S
H1673 C1702 0.950 . S
H1674 C1704 0.950 . S
H1675 C1705 0.950 . S
C1676 H1658 0.951 . S
C1676 C1677 1.366 . S
C1676 C1678 1.388 . S
C1677 C1676 1.366 . S
C1677 C1681 1.385 . S
C1678 H1659 0.951 . S
C1678 C1676 1.388 . S
C1678 C1679 1.366 . S
C1679 C1678 1.366 . S
C1679 C1680 1.414 . S
C1679 C1682 1.499 . S
C1680 H1660 0.950 . S
C1680 C1679 1.414 . S
C1680 C1681 1.374 . S
C1681 H1661 0.950 . S
C1681 C1677 1.385 . S
C1681 C1680 1.374 . S
C1682 C1679 1.499 . S
C1682 C1683 1.373 . S
C1682 C1684 1.389 . S
C1683 H1662 0.950 . S
C1683 C1682 1.373 . S
C1683 C1699 1.377 . S
C1684 C1682 1.389 . S
C1684 C1685 1.524 . S
C1684 C1698 1.377 . S
C1685 C1684 1.524 . S
C1685 C1686 1.397 . S
C1685 C1690 1.363 . S
C1686 H1663 0.950 . S
C1686 C1685 1.397 . S
C1686 C1687 1.334 . S
C1687 H1664 0.950 . S
C1687 C1686 1.334 . S
C1687 C1688 1.287 . S
C1688 C1687 1.287 . S
C1688 C1689 1.524 . S
C1688 H1707 0.913 . S
C1689 H1665 0.950 . S
C1689 C1688 1.524 . S
C1689 C1690 1.415 . S
C1690 H1666 0.950 . S
C1690 C1685 1.363 . S
C1690 C1689 1.415 . S
C1691 H1667 0.951 . S
C1691 C1692 1.366 . S
C1691 C1693 1.388 . S
C1692 C1691 1.366 . S
C1692 C1696 1.385 . S
C1693 H1668 0.951 . S
C1693 C1691 1.388 . S
C1693 C1694 1.366 . S
C1694 C1693 1.366 . S
C1694 C1695 1.414 . S
C1694 C1697 1.499 . S
C1695 H1669 0.950 . S
C1695 C1694 1.414 . S
C1695 C1696 1.374 . S
C1696 H1670 0.950 . S
C1696 C1692 1.385 . S
C1696 C1695 1.374 . S
C1697 C1694 1.499 . S
C1697 C1698 1.373 . S
C1697 C1699 1.389 . S
C1698 H1671 0.950 . S
C1698 C1684 1.377 . S
C1698 C1697 1.373 . S
C1699 C1683 1.377 . S
C1699 C1697 1.389 . S
C1699 C1700 1.524 . S
C1700 C1699 1.524 . S
C1700 C1701 1.397 . S
C1700 C1705 1.363 . S
C1701 H1672 0.950 . S
C1701 C1700 1.397 . S
C1701 C1702 1.334 . S
C1702 H1673 0.950 . S
C1702 C1701 1.334 . S
C1702 C1703 1.287 . S
C1703 C1702 1.287 . S
C1703 C1704 1.524 . S
C1703 H1706 0.999 . S
C1704 H1674 0.950 . S
C1704 C1703 1.524 . S
C1704 C1705 1.415 . S
C1705 H1675 0.950 . S
C1705 C1700 1.363 . S
C1705 C1704 1.415 . S
H1706 C1703 0.999 . S
H1707 C1688 0.913 . S
H1708 C1726 0.951 . S
H1709 C1728 0.951 . S
H1710 C1730 0.950 . S
H1711 C1731 0.950 . S
H1712 C1733 0.950 . S
H1713 C1736 0.950 . S
H1714 C1737 0.950 . S
H1715 C1739 0.950 . S
H1716 C1740 0.950 . S
H1717 C1741 0.951 . S
H1718 C1743 0.951 . S
H1719 C1745 0.950 . S
H1720 C1746 0.950 . S
H1721 C1748 0.950 . S
H1722 C1751 0.950 . S
H1723 C1752 0.950 . S
H1724 C1754 0.950 . S
H1725 C1755 0.950 . S
C1726 H1708 0.951 . S
C1726 C1727 1.366 . S
C1726 C1728 1.388 . S
C1727 C1726 1.366 . S
C1727 C1731 1.385 . S
C1728 H1709 0.951 . S
C1728 C1726 1.388 . S
C1728 C1729 1.366 . S
C1729 C1728 1.366 . S
C1729 C1730 1.414 . S
C1729 C1732 1.499 . S
C1730 H1710 0.950 . S
C1730 C1729 1.414 . S
C1730 C1731 1.374 . S
C1731 H1711 0.950 . S
C1731 C1727 1.385 . S
C1731 C1730 1.374 . S
C1732 C1729 1.499 . S
C1732 C1733 1.373 . S
C1732 C1734 1.389 . S
C1733 H1712 0.950 . S
C1733 C1732 1.373 . S
C1733 C1749 1.377 . S
C1734 C1732 1.389 . S
C1734 C1735 1.524 . S
C1734 C1748 1.377 . S
C1735 C1734 1.524 . S
C1735 C1736 1.397 . S
C1735 C1740 1.363 . S
C1736 H1713 0.950 . S
C1736 C1735 1.397 . S
C1736 C1737 1.334 . S
C1737 H1714 0.950 . S
C1737 C1736 1.334 . S
C1737 C1738 1.287 . S
C1738 C1737 1.287 . S
C1738 C1739 1.524 . S
C1738 H1757 0.913 . S
C1739 H1715 0.950 . S
C1739 C1738 1.524 . S
C1739 C1740 1.415 . S
C1740 H1716 0.950 . S
C1740 C1735 1.363 . S
C1740 C1739 1.415 . S
C1741 H1717 0.951 . S
C1741 C1742 1.366 . S
C1741 C1743 1.388 . S
C1742 C1741 1.366 . S
C1742 C1746 1.385 . S
C1743 H1718 0.951 . S
C1743 C1741 1.388 . S
C1743 C1744 1.366 . S
C1744 C1743 1.366 . S
C1744 C1745 1.414 . S
C1744 C1747 1.499 . S
C1745 H1719 0.950 . S
C1745 C1744 1.414 . S
C1745 C1746 1.374 . S
C1746 H1720 0.950 . S
C1746 C1742 1.385 . S
C1746 C1745 1.374 . S
C1747 C1744 1.499 . S
C1747 C1748 1.373 . S
C1747 C1749 1.389 . S
C1748 H1721 0.950 . S
C1748 C1734 1.377 . S
C1748 C1747 1.373 . S
C1749 C1733 1.377 . S
C1749 C1747 1.389 . S
C1749 C1750 1.524 . S
C1750 C1749 1.524 . S
C1750 C1751 1.397 . S
C1750 C1755 1.363 . S
C1751 H1722 0.950 . S
C1751 C1750 1.397 . S
C1751 C1752 1.334 . S
C1752 H1723 0.950 . S
C1752 C1751 1.334 . S
C1752 C1753 1.287 . S
C1753 C1752 1.287 . S
C1753 C1754 1.524 . S
C1753 H1756 0.999 . S
C1754 H1724 0.950 . S
C1754 C1753 1.524 . S
C1754 C1755 1.415 . S
C1755 H1725 0.950 . S
C1755 C1750 1.363 . S
C1755 C1754 1.415 . S
H1756 C1753 0.999 . S
H1757 C1738 0.913 . S
H1758 C1776 0.951 . S
H1759 C1778 0.951 . S
H1760 C1780 0.950 . S
H1761 C1781 0.950 . S
H1762 C1783 0.950 . S
H1763 C1786 0.950 . S
H1764 C1787 0.950 . S
H1765 C1789 0.950 . S
H1766 C1790 0.950 . S
H1767 C1791 0.951 . S
H1768 C1793 0.951 . S
H1769 C1795 0.950 . S
H1770 C1796 0.950 . S
H1771 C1798 0.950 . S
H1772 C1801 0.950 . S
H1773 C1802 0.950 . S
H1774 C1804 0.950 . S
H1775 C1805 0.950 . S
C1776 H1758 0.951 . S
C1776 C1777 1.366 . S
C1776 C1778 1.388 . S
C1777 C1776 1.366 . S
C1777 C1781 1.385 . S
C1778 H1759 0.951 . S
C1778 C1776 1.388 . S
C1778 C1779 1.366 . S
C1779 C1778 1.366 . S
C1779 C1780 1.414 . S
C1779 C1782 1.499 . S
C1780 H1760 0.950 . S
C1780 C1779 1.414 . S
C1780 C1781 1.374 . S
C1781 H1761 0.950 . S
C1781 C1777 1.385 . S
C1781 C1780 1.374 . S
C1782 C1779 1.499 . S
C1782 C1783 1.373 . S
C1782 C1784 1.389 . S
C1783 H1762 0.950 . S
C1783 C1782 1.373 . S
C1783 C1799 1.377 . S
C1784 C1782 1.389 . S
C1784 C1785 1.524 . S
C1784 C1798 1.377 . S
C1785 C1784 1.524 . S
C1785 C1786 1.397 . S
C1785 C1790 1.363 . S
C1786 H1763 0.950 . S
C1786 C1785 1.397 . S
C1786 C1787 1.334 . S
C1787 H1764 0.950 . S
C1787 C1786 1.334 . S
C1787 C1788 1.287 . S
C1788 C1787 1.287 . S
C1788 C1789 1.524 . S
C1788 H1807 0.913 . S
C1789 H1765 0.950 . S
C1789 C1788 1.524 . S
C1789 C1790 1.415 . S
C1790 H1766 0.950 . S
C1790 C1785 1.363 . S
C1790 C1789 1.415 . S
C1791 H1767 0.951 . S
C1791 C1792 1.366 . S
C1791 C1793 1.388 . S
C1792 C1791 1.366 . S
C1792 C1796 1.385 . S
C1793 H1768 0.951 . S
C1793 C1791 1.388 . S
C1793 C1794 1.366 . S
C1794 C1793 1.366 . S
C1794 C1795 1.414 . S
C1794 C1797 1.499 . S
C1795 H1769 0.950 . S
C1795 C1794 1.414 . S
C1795 C1796 1.374 . S
C1796 H1770 0.950 . S
C1796 C1792 1.385 . S
C1796 C1795 1.374 . S
C1797 C1794 1.499 . S
C1797 C1798 1.373 . S
C1797 C1799 1.389 . S
C1798 H1771 0.950 . S
C1798 C1784 1.377 . S
C1798 C1797 1.373 . S
C1799 C1783 1.377 . S
C1799 C1797 1.389 . S
C1799 C1800 1.524 . S
C1800 C1799 1.524 . S
C1800 C1801 1.397 . S
C1800 C1805 1.363 . S
C1801 H1772 0.950 . S
C1801 C1800 1.397 . S
C1801 C1802 1.334 . S
C1802 H1773 0.950 . S
C1802 C1801 1.334 . S
C1802 C1803 1.287 . S
C1803 C1802 1.287 . S
C1803 C1804 1.524 . S
C1803 H1806 0.999 . S
C1804 H1774 0.950 . S
C1804 C1803 1.524 . S
C1804 C1805 1.415 . S
C1805 H1775 0.950 . S
C1805 C1800 1.363 . S
C1805 C1804 1.415 . S
H1806 C1803 0.999 . S
H1807 C1788 0.913 . S
H1808 C1826 0.951 . S
H1809 C1828 0.951 . S
H1810 C1830 0.950 . S
H1811 C1831 0.950 . S
H1812 C1833 0.950 . S
H1813 C1836 0.950 . S
H1814 C1837 0.950 . S
H1815 C1839 0.950 . S
H1816 C1840 0.950 . S
H1817 C1841 0.951 . S
H1818 C1843 0.951 . S
H1819 C1845 0.950 . S
H1820 C1846 0.950 . S
H1821 C1848 0.950 . S
H1822 C1851 0.950 . S
H1823 C1852 0.950 . S
H1824 C1854 0.950 . S
H1825 C1855 0.950 . S
C1826 H1808 0.951 . S
C1826 C1827 1.366 . S
C1826 C1828 1.388 . S
C1827 C1826 1.366 . S
C1827 C1831 1.385 . S
C1828 H1809 0.951 . S
C1828 C1826 1.388 . S
C1828 C1829 1.366 . S
C1829 C1828 1.366 . S
C1829 C1830 1.414 . S
C1829 C1832 1.499 . S
C1830 H1810 0.950 . S
C1830 C1829 1.414 . S
C1830 C1831 1.374 . S
C1831 H1811 0.950 . S
C1831 C1827 1.385 . S
C1831 C1830 1.374 . S
C1832 C1829 1.499 . S
C1832 C1833 1.373 . S
C1832 C1834 1.389 . S
C1833 H1812 0.950 . S
C1833 C1832 1.373 . S
C1833 C1849 1.377 . S
C1834 C1832 1.389 . S
C1834 C1835 1.524 . S
C1834 C1848 1.377 . S
C1835 C1834 1.524 . S
C1835 C1836 1.397 . S
C1835 C1840 1.363 . S
C1836 H1813 0.950 . S
C1836 C1835 1.397 . S
C1836 C1837 1.334 . S
C1837 H1814 0.950 . S
C1837 C1836 1.334 . S
C1837 C1838 1.287 . S
C1838 C1837 1.287 . S
C1838 C1839 1.524 . S
C1838 H1857 0.913 . S
C1839 H1815 0.950 . S
C1839 C1838 1.524 . S
C1839 C1840 1.415 . S
C1840 H1816 0.950 . S
C1840 C1835 1.363 . S
C1840 C1839 1.415 . S
C1841 H1817 0.951 . S
C1841 C1842 1.366 . S
C1841 C1843 1.388 . S
C1842 C1841 1.366 . S
C1842 C1846 1.385 . S
C1843 H1818 0.951 . S
C1843 C1841 1.388 . S
C1843 C1844 1.366 . S
C1844 C1843 1.366 . S
C1844 C1845 1.414 . S
C1844 C1847 1.499 . S
C1845 H1819 0.950 . S
C1845 C1844 1.414 . S
C1845 C1846 1.374 . S
C1846 H1820 0.950 . S
C1846 C1842 1.385 . S
C1846 C1845 1.374 . S
C1847 C1844 1.499 . S
C1847 C1848 1.373 . S
C1847 C1849 1.389 . S
C1848 H1821 0.950 . S
C1848 C1834 1.377 . S
C1848 C1847 1.373 . S
C1849 C1833 1.377 . S
C1849 C1847 1.389 . S
C1849 C1850 1.524 . S
C1850 C1849 1.524 . S
C1850 C1851 1.397 . S
C1850 C1855 1.363 . S
C1851 H1822 0.950 . S
C1851 C1850 1.397 . S
C1851 C1852 1.334 . S
C1852 H1823 0.950 . S
C1852 C1851 1.334 . S
C1852 C1853 1.287 . S
C1853 C1852 1.287 . S
C1853 C1854 1.524 . S
C1853 H1856 0.999 . S
C1854 H1824 0.950 . S
C1854 C1853 1.524 . S
C1854 C1855 1.415 . S
C1855 H1825 0.950 . S
C1855 C1850 1.363 . S
C1855 C1854 1.415 . S
H1856 C1853 0.999 . S
H1857 C1838 0.913 . S
H1858 C1876 0.951 . S
H1859 C1878 0.951 . S
H1860 C1880 0.950 . S
H1861 C1881 0.950 . S
H1862 C1883 0.971 . S
H1863 C1886 0.950 . S
H1864 C1887 0.950 . S
H1865 C1889 0.950 . S
H1866 C1890 0.950 . S
H1867 C1891 0.951 . S
H1868 C1893 0.929 1_565 S
H1869 C1895 0.950 . S
H1870 C1896 0.950 . S
H1871 C1898 0.950 . S
H1872 C1901 0.950 . S
H1873 C1902 0.950 . S
H1874 C1904 0.950 . S
H1875 C1905 0.950 . S
C1876 H1858 0.951 . S
C1876 C1877 1.366 . S
C1876 C1878 1.388 . S
C1877 C1876 1.366 . S
C1877 C1881 1.385 . S
C1878 H1859 0.951 . S
C1878 C1876 1.388 . S
C1878 C1879 1.366 . S
C1879 C1878 1.366 . S
C1879 C1880 1.414 . S
C1879 C1882 1.499 . S
C1880 H1860 0.950 . S
C1880 C1879 1.414 . S
C1880 C1881 1.374 . S
C1881 H1861 0.950 . S
C1881 C1877 1.385 . S
C1881 C1880 1.374 . S
C1882 C1879 1.499 . S
C1882 C1883 1.373 . S
C1882 C1884 1.389 . S
C1883 H1862 0.971 . S
C1883 C1882 1.373 . S
C1883 C1899 1.377 . S
C1884 C1882 1.389 . S
C1884 C1885 1.524 . S
C1884 C1898 1.377 . S
C1885 C1884 1.524 . S
C1885 C1886 1.397 . S
C1885 C1890 1.363 . S
C1886 H1863 0.950 . S
C1886 C1885 1.397 . S
C1886 C1887 1.334 . S
C1887 H1864 0.950 . S
C1887 C1886 1.334 . S
C1887 C1888 1.287 . S
C1888 C1887 1.287 . S
C1888 C1889 1.524 . S
C1888 H1907 0.913 . S
C1889 H1865 0.950 . S
C1889 C1888 1.524 . S
C1889 C1890 1.415 . S
C1890 H1866 0.950 . S
C1890 C1885 1.363 . S
C1890 C1889 1.415 . S
C1891 H1867 0.951 . S
C1891 C1892 1.366 1_565 S
C1891 C1893 1.378 1_565 S
C1892 C1891 1.366 1_545 S
C1892 C1896 1.385 . S
C1893 H1868 0.929 1_545 S
C1893 C1891 1.378 1_545 S
C1893 C1894 1.399 . S
C1894 C1893 1.399 . S
C1894 C1895 1.414 . S
C1894 C1897 1.499 . S
C1895 H1869 0.950 . S
C1895 C1894 1.414 . S
C1895 C1896 1.374 . S
C1896 H1870 0.950 . S
C1896 C1892 1.385 . S
C1896 C1895 1.374 . S
C1897 C1894 1.499 . S
C1897 C1898 1.373 . S
C1897 C1899 1.389 . S
C1898 H1871 0.950 . S
C1898 C1884 1.377 . S
C1898 C1897 1.373 . S
C1899 C1883 1.377 . S
C1899 C1897 1.389 . S
C1899 C1900 1.524 1_545 S
C1900 C1899 1.524 1_565 S
C1900 C1901 1.397 . S
C1900 C1905 1.363 . S
C1901 H1872 0.950 . S
C1901 C1900 1.397 . S
C1901 C1902 1.334 . S
C1902 H1873 0.950 . S
C1902 C1901 1.334 . S
C1902 C1903 1.287 . S
C1903 C1902 1.287 . S
C1903 C1904 1.524 . S
C1903 H1906 0.999 . S
C1904 H1874 0.950 . S
C1904 C1903 1.524 . S
C1904 C1905 1.415 . S
C1905 H1875 0.950 . S
C1905 C1900 1.363 . S
C1905 C1904 1.415 . S
H1906 C1903 0.999 . S
H1907 C1888 0.913 . S
H1908 C1926 0.951 . S
H1909 C1928 0.951 . S
H1910 C1930 0.950 . S
H1911 C1931 0.950 . S
H1912 C1933 0.950 . S
H1913 C1936 0.950 . S
H1914 C1937 0.950 . S
H1915 C1939 0.950 . S
H1916 C1940 0.950 . S
H1917 C1941 0.951 . S
H1918 C1943 0.951 . S
H1919 C1945 0.950 . S
H1920 C1946 0.950 . S
H1921 C1948 0.950 . S
H1922 C1951 0.950 . S
H1923 C1952 0.950 . S
H1924 C1954 0.950 . S
H1925 C1955 0.950 . S
C1926 H1908 0.951 . S
C1926 C1927 1.366 . S
C1926 C1928 1.388 . S
C1927 C1926 1.366 . S
C1927 C1931 1.385 . S
C1928 H1909 0.951 . S
C1928 C1926 1.388 . S
C1928 C1929 1.366 . S
C1929 C1928 1.366 . S
C1929 C1930 1.414 . S
C1929 C1932 1.499 . S
C1930 H1910 0.950 . S
C1930 C1929 1.414 . S
C1930 C1931 1.374 . S
C1931 H1911 0.950 . S
C1931 C1927 1.385 . S
C1931 C1930 1.374 . S
C1932 C1929 1.499 . S
C1932 C1933 1.373 . S
C1932 C1934 1.389 . S
C1933 H1912 0.950 . S
C1933 C1932 1.373 . S
C1933 C1949 1.377 . S
C1934 C1932 1.389 . S
C1934 C1935 1.524 . S
C1934 C1948 1.377 . S
C1935 C1934 1.524 . S
C1935 C1936 1.397 . S
C1935 C1940 1.363 . S
C1936 H1913 0.950 . S
C1936 C1935 1.397 . S
C1936 C1937 1.334 . S
C1937 H1914 0.950 . S
C1937 C1936 1.334 . S
C1937 C1938 1.287 . S
C1938 C1937 1.287 . S
C1938 C1939 1.524 . S
C1938 H1957 0.913 . S
C1939 H1915 0.950 . S
C1939 C1938 1.524 . S
C1939 C1940 1.415 . S
C1940 H1916 0.950 . S
C1940 C1935 1.363 . S
C1940 C1939 1.415 . S
C1941 H1917 0.951 . S
C1941 C1942 1.366 . S
C1941 C1943 1.388 . S
C1942 C1941 1.366 . S
C1942 C1946 1.385 . S
C1943 H1918 0.951 . S
C1943 C1941 1.388 . S
C1943 C1944 1.366 . S
C1944 C1943 1.366 . S
C1944 C1945 1.414 . S
C1944 C1947 1.499 . S
C1945 H1919 0.950 . S
C1945 C1944 1.414 . S
C1945 C1946 1.374 . S
C1946 H1920 0.950 . S
C1946 C1942 1.385 . S
C1946 C1945 1.374 . S
C1947 C1944 1.499 . S
C1947 C1948 1.373 . S
C1947 C1949 1.389 . S
C1948 H1921 0.950 . S
C1948 C1934 1.377 . S
C1948 C1947 1.373 . S
C1949 C1933 1.377 . S
C1949 C1947 1.389 . S
C1949 C1950 1.524 . S
C1950 C1949 1.524 . S
C1950 C1951 1.397 . S
C1950 C1955 1.363 . S
C1951 H1922 0.950 . S
C1951 C1950 1.397 . S
C1951 C1952 1.334 . S
C1952 H1923 0.950 . S
C1952 C1951 1.334 . S
C1952 C1953 1.287 . S
C1953 C1952 1.287 . S
C1953 C1954 1.524 . S
C1953 H1956 0.999 . S
C1954 H1924 0.950 . S
C1954 C1953 1.524 . S
C1954 C1955 1.415 . S
C1955 H1925 0.950 . S
C1955 C1950 1.363 . S
C1955 C1954 1.415 . S
H1956 C1953 0.999 . S
H1957 C1938 0.913 . S
H1958 C1976 0.951 . S
H1959 C1978 0.951 . S
H1960 C1980 0.950 . S
H1961 C1981 0.950 . S
H1962 C1983 0.950 . S
H1963 C1986 0.950 . S
H1964 C1987 0.950 . S
H1965 C1989 0.950 . S
H1966 C1990 0.950 . S
H1967 C1991 0.951 . S
H1968 C1993 0.951 . S
H1969 C1995 0.950 . S
H1970 C1996 0.950 . S
H1971 C1998 0.950 . S
H1972 C2001 0.950 . S
H1973 C2002 0.950 . S
H1974 C2004 0.950 . S
H1975 C2005 0.950 . S
C1976 H1958 0.951 . S
C1976 C1977 1.366 . S
C1976 C1978 1.388 . S
C1977 C1976 1.366 . S
C1977 C1981 1.385 . S
C1978 H1959 0.951 . S
C1978 C1976 1.388 . S
C1978 C1979 1.366 . S
C1979 C1978 1.366 . S
C1979 C1980 1.414 . S
C1979 C1982 1.499 . S
C1980 H1960 0.950 . S
C1980 C1979 1.414 . S
C1980 C1981 1.374 . S
C1981 H1961 0.950 . S
C1981 C1977 1.385 . S
C1981 C1980 1.374 . S
C1982 C1979 1.499 . S
C1982 C1983 1.373 . S
C1982 C1984 1.389 . S
C1983 H1962 0.950 . S
C1983 C1982 1.373 . S
C1983 C1999 1.377 . S
C1984 C1982 1.389 . S
C1984 C1985 1.524 . S
C1984 C1998 1.377 . S
C1985 C1984 1.524 . S
C1985 C1986 1.397 . S
C1985 C1990 1.363 . S
C1986 H1963 0.950 . S
C1986 C1985 1.397 . S
C1986 C1987 1.334 . S
C1987 H1964 0.950 . S
C1987 C1986 1.334 . S
C1987 C1988 1.287 . S
C1988 C1987 1.287 . S
C1988 C1989 1.524 . S
C1988 H2007 0.913 . S
C1989 H1965 0.950 . S
C1989 C1988 1.524 . S
C1989 C1990 1.415 . S
C1990 H1966 0.950 . S
C1990 C1985 1.363 . S
C1990 C1989 1.415 . S
C1991 H1967 0.951 . S
C1991 C1992 1.366 . S
C1991 C1993 1.388 . S
C1992 C1991 1.366 . S
C1992 C1996 1.385 . S
C1993 H1968 0.951 . S
C1993 C1991 1.388 . S
C1993 C1994 1.366 . S
C1994 C1993 1.366 . S
C1994 C1995 1.414 . S
C1994 C1997 1.499 . S
C1995 H1969 0.950 . S
C1995 C1994 1.414 . S
C1995 C1996 1.374 . S
C1996 H1970 0.950 . S
C1996 C1992 1.385 . S
C1996 C1995 1.374 . S
C1997 C1994 1.499 . S
C1997 C1998 1.373 . S
C1997 C1999 1.389 . S
C1998 H1971 0.950 . S
C1998 C1984 1.377 . S
C1998 C1997 1.373 . S
C1999 C1983 1.377 . S
C1999 C1997 1.389 . S
C1999 C2000 1.524 . S
C2000 C1999 1.524 . S
C2000 C2001 1.397 . S
C2000 C2005 1.363 . S
C2001 H1972 0.950 . S
C2001 C2000 1.397 . S
C2001 C2002 1.334 . S
C2002 H1973 0.950 . S
C2002 C2001 1.334 . S
C2002 C2003 1.287 . S
C2003 C2002 1.287 . S
C2003 C2004 1.524 . S
C2003 H2006 0.999 . S
C2004 H1974 0.950 . S
C2004 C2003 1.524 . S
C2004 C2005 1.415 . S
C2005 H1975 0.950 . S
C2005 C2000 1.363 . S
C2005 C2004 1.415 . S
H2006 C2003 0.999 . S
H2007 C1988 0.913 . S
H2008 C2026 0.951 . S
H2009 C2028 0.951 . S
H2010 C2030 0.950 . S
H2011 C2031 0.950 . S
H2012 C2033 0.950 . S
H2013 C2036 0.950 . S
H2014 C2037 0.950 . S
H2015 C2039 0.950 . S
H2016 C2040 0.950 . S
H2017 C2041 0.951 . S
H2018 C2043 0.951 . S
H2019 C2045 0.950 . S
H2020 C2046 0.950 . S
H2021 C2048 0.950 . S
H2022 C2051 0.950 . S
H2023 C2052 0.950 . S
H2024 C2054 0.950 . S
H2025 C2055 0.950 . S
C2026 H2008 0.951 . S
C2026 C2027 1.366 . S
C2026 C2028 1.388 . S
C2027 C2026 1.366 . S
C2027 C2031 1.385 . S
C2028 H2009 0.951 . S
C2028 C2026 1.388 . S
C2028 C2029 1.366 . S
C2029 C2028 1.366 . S
C2029 C2030 1.414 . S
C2029 C2032 1.499 . S
C2030 H2010 0.950 . S
C2030 C2029 1.414 . S
C2030 C2031 1.374 . S
C2031 H2011 0.950 . S
C2031 C2027 1.385 . S
C2031 C2030 1.374 . S
C2032 C2029 1.499 . S
C2032 C2033 1.373 . S
C2032 C2034 1.389 . S
C2033 H2012 0.950 . S
C2033 C2032 1.373 . S
C2033 C2049 1.377 . S
C2034 C2032 1.389 . S
C2034 C2035 1.524 . S
C2034 C2048 1.377 . S
C2035 C2034 1.524 . S
C2035 C2036 1.397 . S
C2035 C2040 1.363 . S
C2036 H2013 0.950 . S
C2036 C2035 1.397 . S
C2036 C2037 1.334 . S
C2037 H2014 0.950 . S
C2037 C2036 1.334 . S
C2037 C2038 1.287 . S
C2038 C2037 1.287 . S
C2038 C2039 1.524 . S
C2038 H2057 0.913 . S
C2039 H2015 0.950 . S
C2039 C2038 1.524 . S
C2039 C2040 1.415 . S
C2040 H2016 0.950 . S
C2040 C2035 1.363 . S
C2040 C2039 1.415 . S
C2041 H2017 0.951 . S
C2041 C2042 1.366 . S
C2041 C2043 1.388 . S
C2042 C2041 1.366 . S
C2042 C2046 1.385 . S
C2043 H2018 0.951 . S
C2043 C2041 1.388 . S
C2043 C2044 1.366 . S
C2044 C2043 1.366 . S
C2044 C2045 1.414 . S
C2044 C2047 1.499 . S
C2045 H2019 0.950 . S
C2045 C2044 1.414 . S
C2045 C2046 1.374 . S
C2046 H2020 0.950 . S
C2046 C2042 1.385 . S
C2046 C2045 1.374 . S
C2047 C2044 1.499 . S
C2047 C2048 1.373 . S
C2047 C2049 1.389 . S
C2048 H2021 0.950 . S
C2048 C2034 1.377 . S
C2048 C2047 1.373 . S
C2049 C2033 1.377 . S
C2049 C2047 1.389 . S
C2049 C2050 1.524 . S
C2050 C2049 1.524 . S
C2050 C2051 1.397 . S
C2050 C2055 1.363 . S
C2051 H2022 0.950 . S
C2051 C2050 1.397 . S
C2051 C2052 1.334 . S
C2052 H2023 0.950 . S
C2052 C2051 1.334 . S
C2052 C2053 1.287 . S
C2053 C2052 1.287 . S
C2053 C2054 1.524 . S
C2053 H2056 0.999 . S
C2054 H2024 0.950 . S
C2054 C2053 1.524 . S
C2054 C2055 1.415 . S
C2055 H2025 0.950 . S
C2055 C2050 1.363 . S
C2055 C2054 1.415 . S
H2056 C2053 0.999 . S
H2057 C2038 0.913 . S
H2058 C2076 0.951 . S
H2059 C2078 0.951 . S
H2060 C2080 0.950 . S
H2061 C2081 0.950 1_455 S
H2062 C2083 0.950 . S
H2063 C2086 0.950 . S
H2064 C2087 0.950 . S
H2065 C2089 0.950 . S
H2066 C2090 0.950 . S
H2067 C2091 0.951 . S
H2068 C2093 0.951 . S
H2069 C2095 0.950 . S
H2070 C2096 0.950 . S
H2071 C2098 0.950 . S
H2072 C2101 0.950 . S
H2073 C2102 0.950 . S
H2074 C2104 0.950 . S
H2075 C2105 0.950 1_545 S
C2076 H2058 0.951 . S
C2076 C2077 1.366 . S
C2076 C2078 1.388 . S
C2077 C2076 1.366 . S
C2077 C2081 1.385 . S
C2078 H2059 0.951 . S
C2078 C2076 1.388 . S
C2078 C2079 1.366 . S
C2079 C2078 1.366 . S
C2079 C2080 1.414 . S
C2079 C2082 1.499 . S
C2080 H2060 0.950 . S
C2080 C2079 1.414 . S
C2080 C2081 1.374 . S
C2081 H2061 0.950 1_655 S
C2081 C2077 1.385 . S
C2081 C2080 1.374 . S
C2082 C2079 1.499 . S
C2082 C2083 1.373 . S
C2082 C2084 1.389 . S
C2083 H2062 0.950 . S
C2083 C2082 1.373 . S
C2083 C2099 1.377 . S
C2084 C2082 1.389 . S
C2084 C2085 1.524 . S
C2084 C2098 1.377 . S
C2085 C2084 1.524 . S
C2085 C2086 1.397 . S
C2085 C2090 1.363 . S
C2086 H2063 0.950 . S
C2086 C2085 1.397 . S
C2086 C2087 1.334 . S
C2087 H2064 0.950 . S
C2087 C2086 1.334 . S
C2087 C2088 1.287 . S
C2088 C2087 1.287 . S
C2088 C2089 1.524 . S
C2088 H2107 0.913 . S
C2089 H2065 0.950 . S
C2089 C2088 1.524 . S
C2089 C2090 1.415 . S
C2090 H2066 0.950 . S
C2090 C2085 1.363 . S
C2090 C2089 1.415 . S
C2091 H2067 0.951 . S
C2091 C2092 1.366 . S
C2091 C2093 1.388 . S
C2092 C2091 1.366 . S
C2092 C2096 1.385 . S
C2093 H2068 0.951 . S
C2093 C2091 1.388 . S
C2093 C2094 1.366 . S
C2094 C2093 1.366 . S
C2094 C2095 1.414 . S
C2094 C2097 1.499 . S
C2095 H2069 0.950 . S
C2095 C2094 1.414 . S
C2095 C2096 1.374 . S
C2096 H2070 0.950 . S
C2096 C2092 1.385 . S
C2096 C2095 1.374 . S
C2097 C2094 1.499 . S
C2097 C2098 1.373 . S
C2097 C2099 1.389 . S
C2098 H2071 0.950 . S
C2098 C2084 1.377 . S
C2098 C2097 1.373 . S
C2099 C2083 1.377 . S
C2099 C2097 1.389 . S
C2099 C2100 1.524 1_545 S
C2100 C2099 1.524 1_565 S
C2100 C2101 1.397 . S
C2100 C2105 1.363 . S
C2101 H2072 0.950 . S
C2101 C2100 1.397 . S
C2101 C2102 1.334 . S
C2102 H2073 0.950 . S
C2102 C2101 1.334 . S
C2102 C2103 1.287 . S
C2103 C2102 1.287 . S
C2103 C2104 1.524 . S
C2103 H2106 0.999 . S
C2104 H2074 0.950 . S
C2104 C2103 1.524 . S
C2104 C2105 1.415 . S
C2105 H2075 0.950 1_565 S
C2105 C2100 1.363 . S
C2105 C2104 1.415 . S
H2106 C2103 0.999 . S
H2107 C2088 0.913 . S
H2108 C2126 0.951 . S
H2109 C2128 0.951 . S
H2110 C2130 0.950 . S
H2111 C2131 0.950 . S
H2112 C2133 0.950 . S
H2113 C2136 0.950 . S
H2114 C2137 0.950 . S
H2115 C2139 0.950 . S
H2116 C2140 0.950 . S
H2117 C2141 0.951 . S
H2118 C2143 0.951 . S
H2119 C2145 0.950 . S
H2120 C2146 0.950 . S
H2121 C2148 0.950 . S
H2122 C2151 0.950 . S
H2123 C2152 0.950 . S
H2124 C2154 0.950 . S
H2125 C2155 0.950 . S
C2126 H2108 0.951 . S
C2126 C2127 1.366 . S
C2126 C2128 1.388 . S
C2127 C2126 1.366 . S
C2127 C2131 1.385 . S
C2128 H2109 0.951 . S
C2128 C2126 1.388 . S
C2128 C2129 1.366 . S
C2129 C2128 1.366 . S
C2129 C2130 1.414 . S
C2129 C2132 1.499 . S
C2130 H2110 0.950 . S
C2130 C2129 1.414 . S
C2130 C2131 1.374 . S
C2131 H2111 0.950 . S
C2131 C2127 1.385 . S
C2131 C2130 1.374 . S
C2132 C2129 1.499 . S
C2132 C2133 1.373 . S
C2132 C2134 1.389 . S
C2133 H2112 0.950 . S
C2133 C2132 1.373 . S
C2133 C2149 1.377 . S
C2134 C2132 1.389 . S
C2134 C2135 1.524 . S
C2134 C2148 1.377 . S
C2135 C2134 1.524 . S
C2135 C2136 1.397 . S
C2135 C2140 1.363 . S
C2136 H2113 0.950 . S
C2136 C2135 1.397 . S
C2136 C2137 1.334 . S
C2137 H2114 0.950 . S
C2137 C2136 1.334 . S
C2137 C2138 1.287 . S
C2138 C2137 1.287 . S
C2138 C2139 1.524 . S
C2138 H2157 0.913 . S
C2139 H2115 0.950 . S
C2139 C2138 1.524 . S
C2139 C2140 1.415 . S
C2140 H2116 0.950 . S
C2140 C2135 1.363 . S
C2140 C2139 1.415 . S
C2141 H2117 0.951 . S
C2141 C2142 1.366 . S
C2141 C2143 1.388 . S
C2142 C2141 1.366 . S
C2142 C2146 1.385 . S
C2143 H2118 0.951 . S
C2143 C2141 1.388 . S
C2143 C2144 1.366 . S
C2144 C2143 1.366 . S
C2144 C2145 1.414 . S
C2144 C2147 1.499 . S
C2145 H2119 0.950 . S
C2145 C2144 1.414 . S
C2145 C2146 1.374 . S
C2146 H2120 0.950 . S
C2146 C2142 1.385 . S
C2146 C2145 1.374 . S
C2147 C2144 1.499 . S
C2147 C2148 1.373 . S
C2147 C2149 1.389 . S
C2148 H2121 0.950 . S
C2148 C2134 1.377 . S
C2148 C2147 1.373 . S
C2149 C2133 1.377 . S
C2149 C2147 1.389 . S
C2149 C2150 1.524 . S
C2150 C2149 1.524 . S
C2150 C2151 1.397 . S
C2150 C2155 1.363 . S
C2151 H2122 0.950 . S
C2151 C2150 1.397 . S
C2151 C2152 1.334 . S
C2152 H2123 0.950 . S
C2152 C2151 1.334 . S
C2152 C2153 1.287 . S
C2153 C2152 1.287 . S
C2153 C2154 1.524 . S
C2153 H2156 0.999 . S
C2154 H2124 0.950 . S
C2154 C2153 1.524 . S
C2154 C2155 1.415 . S
C2155 H2125 0.950 . S
C2155 C2150 1.363 . S
C2155 C2154 1.415 . S
H2156 C2153 0.999 . S
H2157 C2138 0.913 . S
H2158 C2176 0.951 . S
H2159 C2178 0.951 . S
H2160 C2180 0.950 . S
H2161 C2181 0.961 . S
H2162 C2183 0.950 . S
H2163 C2186 0.950 . S
H2164 C2187 0.950 . S
H2165 C2189 0.950 . S
H2166 C2190 0.950 . S
H2167 C2191 0.951 . S
H2168 C2193 0.951 . S
H2169 C2195 0.950 . S
H2170 C2196 0.950 . S
H2171 C2198 0.950 . S
H2172 C2201 0.950 . S
H2173 C2202 0.950 . S
H2174 C2204 0.950 . S
H2175 C2205 0.950 . S
C2176 H2158 0.951 . S
C2176 C2177 1.366 . S
C2176 C2178 1.387 1_655 S
C2177 C2176 1.366 . S
C2177 C2181 1.405 . S
C2178 H2159 0.951 . S
C2178 C2176 1.387 1_455 S
C2178 C2179 1.366 . S
C2179 C2178 1.366 . S
C2179 C2180 1.414 . S
C2179 C2182 1.499 . S
C2180 H2160 0.950 . S
C2180 C2179 1.414 . S
C2180 C2181 1.345 1_455 S
C2181 H2161 0.961 . S
C2181 C2177 1.405 . S
C2181 C2180 1.345 1_655 S
C2182 C2179 1.499 . S
C2182 C2183 1.373 . S
C2182 C2184 1.389 . S
C2183 H2162 0.950 . S
C2183 C2182 1.373 . S
C2183 C2199 1.377 . S
C2184 C2182 1.389 . S
C2184 C2185 1.524 . S
C2184 C2198 1.377 . S
C2185 C2184 1.524 . S
C2185 C2186 1.397 . S
C2185 C2190 1.363 . S
C2186 H2163 0.950 . S
C2186 C2185 1.397 . S
C2186 C2187 1.334 . S
C2187 H2164 0.950 . S
C2187 C2186 1.334 . S
C2187 C2188 1.287 . S
C2188 C2187 1.287 . S
C2188 C2189 1.524 . S
C2188 H2207 0.913 . S
C2189 H2165 0.950 . S
C2189 C2188 1.524 . S
C2189 C2190 1.415 . S
C2190 H2166 0.950 . S
C2190 C2185 1.363 . S
C2190 C2189 1.415 . S
C2191 H2167 0.951 . S
C2191 C2192 1.366 . S
C2191 C2193 1.388 . S
C2192 C2191 1.366 . S
C2192 C2196 1.385 . S
C2193 H2168 0.951 . S
C2193 C2191 1.388 . S
C2193 C2194 1.366 . S
C2194 C2193 1.366 . S
C2194 C2195 1.414 . S
C2194 C2197 1.499 . S
C2195 H2169 0.950 . S
C2195 C2194 1.414 . S
C2195 C2196 1.374 . S
C2196 H2170 0.950 . S
C2196 C2192 1.385 . S
C2196 C2195 1.374 . S
C2197 C2194 1.499 . S
C2197 C2198 1.373 . S
C2197 C2199 1.389 . S
C2198 H2171 0.950 . S
C2198 C2184 1.377 . S
C2198 C2197 1.373 . S
C2199 C2183 1.377 . S
C2199 C2197 1.389 . S
C2199 C2200 1.524 . S
C2200 C2199 1.524 . S
C2200 C2201 1.397 . S
C2200 C2205 1.363 . S
C2201 H2172 0.950 . S
C2201 C2200 1.397 . S
C2201 C2202 1.334 . S
C2202 H2173 0.950 . S
C2202 C2201 1.334 . S
C2202 C2203 1.287 . S
C2203 C2202 1.287 . S
C2203 C2204 1.524 . S
C2203 H2206 0.999 . S
C2204 H2174 0.950 . S
C2204 C2203 1.524 . S
C2204 C2205 1.415 . S
C2205 H2175 0.950 . S
C2205 C2200 1.363 . S
C2205 C2204 1.415 . S
H2206 C2203 0.999 . S
H2207 C2188 0.913 . S
H2208 C2226 0.951 . S
H2209 C2228 0.951 . S
H2210 C2230 0.950 . S
H2211 C2231 0.950 . S
H2212 C2233 0.950 . S
H2213 C2236 0.950 . S
H2214 C2237 0.950 . S
H2215 C2239 0.950 . S
H2216 C2240 0.950 . S
H2217 C2241 0.951 . S
H2218 C2243 0.951 . S
H2219 C2245 0.950 . S
H2220 C2246 0.950 . S
H2221 C2248 0.950 . S
H2222 C2251 0.950 . S
H2223 C2252 0.950 . S
H2224 C2254 0.950 . S
H2225 C2255 0.950 . S
C2226 H2208 0.951 . S
C2226 C2227 1.366 . S
C2226 C2228 1.388 . S
C2227 C2226 1.366 . S
C2227 C2231 1.385 . S
C2228 H2209 0.951 . S
C2228 C2226 1.388 . S
C2228 C2229 1.366 . S
C2229 C2228 1.366 . S
C2229 C2230 1.414 . S
C2229 C2232 1.499 . S
C2230 H2210 0.950 . S
C2230 C2229 1.414 . S
C2230 C2231 1.374 . S
C2231 H2211 0.950 . S
C2231 C2227 1.385 . S
C2231 C2230 1.374 . S
C2232 C2229 1.499 . S
C2232 C2233 1.373 . S
C2232 C2234 1.389 . S
C2233 H2212 0.950 . S
C2233 C2232 1.373 . S
C2233 C2249 1.377 . S
C2234 C2232 1.389 . S
C2234 C2235 1.524 . S
C2234 C2248 1.377 . S
C2235 C2234 1.524 . S
C2235 C2236 1.397 . S
C2235 C2240 1.363 . S
C2236 H2213 0.950 . S
C2236 C2235 1.397 . S
C2236 C2237 1.334 . S
C2237 H2214 0.950 . S
C2237 C2236 1.334 . S
C2237 C2238 1.287 . S
C2238 C2237 1.287 . S
C2238 C2239 1.524 . S
C2238 H2257 0.913 . S
C2239 H2215 0.950 . S
C2239 C2238 1.524 . S
C2239 C2240 1.415 . S
C2240 H2216 0.950 . S
C2240 C2235 1.363 . S
C2240 C2239 1.415 . S
C2241 H2217 0.951 . S
C2241 C2242 1.366 . S
C2241 C2243 1.388 . S
C2242 C2241 1.366 . S
C2242 C2246 1.385 . S
C2243 H2218 0.951 . S
C2243 C2241 1.388 . S
C2243 C2244 1.366 . S
C2244 C2243 1.366 . S
C2244 C2245 1.414 . S
C2244 C2247 1.499 . S
C2245 H2219 0.950 . S
C2245 C2244 1.414 . S
C2245 C2246 1.374 . S
C2246 H2220 0.950 . S
C2246 C2242 1.385 . S
C2246 C2245 1.374 . S
C2247 C2244 1.499 . S
C2247 C2248 1.373 . S
C2247 C2249 1.389 . S
C2248 H2221 0.950 . S
C2248 C2234 1.377 . S
C2248 C2247 1.373 . S
C2249 C2233 1.377 . S
C2249 C2247 1.389 . S
C2249 C2250 1.524 . S
C2250 C2249 1.524 . S
C2250 C2251 1.397 . S
C2250 C2255 1.363 . S
C2251 H2222 0.950 . S
C2251 C2250 1.397 . S
C2251 C2252 1.334 . S
C2252 H2223 0.950 . S
C2252 C2251 1.334 . S
C2252 C2253 1.287 . S
C2253 C2252 1.287 . S
C2253 C2254 1.524 . S
C2253 H2256 0.999 . S
C2254 H2224 0.950 . S
C2254 C2253 1.524 . S
C2254 C2255 1.415 . S
C2255 H2225 0.950 . S
C2255 C2250 1.363 . S
C2255 C2254 1.415 . S
H2256 C2253 0.999 . S
H2257 C2238 0.913 . S
H2258 C2276 0.951 . S
H2259 C2278 0.951 . S
H2260 C2280 0.950 1_556 S
H2261 C2281 0.950 . S
H2262 C2283 0.950 . S
H2263 C2286 0.950 . S
H2264 C2287 0.950 . S
H2265 C2289 0.950 . S
H2266 C2290 0.950 . S
H2267 C2291 0.951 . S
H2268 C2293 0.951 . S
H2269 C2295 0.950 . S
H2270 C2296 0.950 . S
H2271 C2298 0.950 . S
H2272 C2301 0.950 . S
H2273 C2302 0.950 . S
H2274 C2304 0.950 . S
H2275 C2305 0.950 . S
C2276 H2258 0.951 . S
C2276 C2277 1.366 . S
C2276 C2278 1.388 . S
C2277 C2276 1.366 . S
C2277 C2281 1.385 . S
C2278 H2259 0.951 . S
C2278 C2276 1.388 . S
C2278 C2279 1.366 . S
C2279 C2278 1.366 . S
C2279 C2280 1.414 . S
C2279 C2282 1.499 . S
C2280 H2260 0.950 1_554 S
C2280 C2279 1.414 . S
C2280 C2281 1.374 . S
C2281 H2261 0.950 . S
C2281 C2277 1.385 . S
C2281 C2280 1.374 . S
C2282 C2279 1.499 . S
C2282 C2283 1.373 1_554 S
C2282 C2284 1.389 1_655 S
C2283 H2262 0.950 . S
C2283 C2282 1.373 1_556 S
C2283 C2299 1.377 . S
C2284 C2282 1.389 1_455 S
C2284 C2285 1.524 . S
C2284 C2298 1.377 1_554 S
C2285 C2284 1.524 . S
C2285 C2286 1.397 . S
C2285 C2290 1.363 . S
C2286 H2263 0.950 . S
C2286 C2285 1.397 . S
C2286 C2287 1.334 . S
C2287 H2264 0.950 . S
C2287 C2286 1.334 . S
C2287 C2288 1.287 . S
C2288 C2287 1.287 . S
C2288 C2289 1.524 . S
C2288 H2307 0.913 . S
C2289 H2265 0.950 . S
C2289 C2288 1.524 . S
C2289 C2290 1.415 . S
C2290 H2266 0.950 . S
C2290 C2285 1.363 . S
C2290 C2289 1.415 . S
C2291 H2267 0.951 . S
C2291 C2292 1.366 1_655 S
C2291 C2293 1.388 . S
C2292 C2291 1.366 1_455 S
C2292 C2296 1.385 . S
C2293 H2268 0.951 . S
C2293 C2291 1.388 . S
C2293 C2294 1.366 . S
C2294 C2293 1.366 . S
C2294 C2295 1.414 1_655 S
C2294 C2297 1.499 . S
C2295 H2269 0.950 . S
C2295 C2294 1.414 1_455 S
C2295 C2296 1.374 . S
C2296 H2270 0.950 . S
C2296 C2292 1.385 . S
C2296 C2295 1.374 . S
C2297 C2294 1.499 . S
C2297 C2298 1.373 1_655 S
C2297 C2299 1.389 . S
C2298 H2271 0.950 . S
C2298 C2284 1.377 1_556 S
C2298 C2297 1.373 1_455 S
C2299 C2283 1.377 . S
C2299 C2297 1.389 . S
C2299 C2300 1.524 . S
C2300 C2299 1.524 . S
C2300 C2301 1.397 . S
C2300 C2305 1.363 . S
C2301 H2272 0.950 . S
C2301 C2300 1.397 . S
C2301 C2302 1.334 . S
C2302 H2273 0.950 . S
C2302 C2301 1.334 . S
C2302 C2303 1.287 . S
C2303 C2302 1.287 . S
C2303 C2304 1.524 . S
C2303 H2306 0.999 . S
C2304 H2274 0.950 . S
C2304 C2303 1.524 . S
C2304 C2305 1.415 . S
C2305 H2275 0.950 . S
C2305 C2300 1.363 . S
C2305 C2304 1.415 . S
H2306 C2303 0.999 . S
H2307 C2288 0.913 . S
H2308 C2326 0.951 . S
H2309 C2328 0.951 . S
H2310 C2330 0.950 . S
H2311 C2331 0.950 . S
H2312 C2333 0.950 . S
H2313 C2336 0.950 . S
H2314 C2337 0.950 . S
H2315 C2339 0.950 . S
H2316 C2340 0.950 . S
H2317 C2341 0.951 . S
H2318 C2343 0.951 . S
H2319 C2345 0.950 . S
H2320 C2346 0.950 . S
H2321 C2348 0.950 . S
H2322 C2351 0.950 . S
H2323 C2352 0.950 . S
H2324 C2354 0.950 . S
H2325 C2355 0.950 . S
C2326 H2308 0.951 . S
C2326 C2327 1.366 . S
C2326 C2328 1.388 . S
C2327 C2326 1.366 . S
C2327 C2331 1.385 . S
C2328 H2309 0.951 . S
C2328 C2326 1.388 . S
C2328 C2329 1.366 . S
C2329 C2328 1.366 . S
C2329 C2330 1.414 . S
C2329 C2332 1.499 . S
C2330 H2310 0.950 . S
C2330 C2329 1.414 . S
C2330 C2331 1.374 . S
C2331 H2311 0.950 . S
C2331 C2327 1.385 . S
C2331 C2330 1.374 . S
C2332 C2329 1.499 . S
C2332 C2333 1.373 . S
C2332 C2334 1.389 . S
C2333 H2312 0.950 . S
C2333 C2332 1.373 . S
C2333 C2349 1.377 . S
C2334 C2332 1.389 . S
C2334 C2335 1.524 . S
C2334 C2348 1.377 . S
C2335 C2334 1.524 . S
C2335 C2336 1.397 . S
C2335 C2340 1.363 . S
C2336 H2313 0.950 . S
C2336 C2335 1.397 . S
C2336 C2337 1.334 . S
C2337 H2314 0.950 . S
C2337 C2336 1.334 . S
C2337 C2338 1.287 . S
C2338 C2337 1.287 . S
C2338 C2339 1.524 . S
C2338 H2357 0.913 . S
C2339 H2315 0.950 . S
C2339 C2338 1.524 . S
C2339 C2340 1.415 . S
C2340 H2316 0.950 . S
C2340 C2335 1.363 . S
C2340 C2339 1.415 . S
C2341 H2317 0.951 . S
C2341 C2342 1.366 . S
C2341 C2343 1.388 . S
C2342 C2341 1.366 . S
C2342 C2346 1.385 . S
C2343 H2318 0.951 . S
C2343 C2341 1.388 . S
C2343 C2344 1.366 . S
C2344 C2343 1.366 . S
C2344 C2345 1.414 . S
C2344 C2347 1.499 . S
C2345 H2319 0.950 . S
C2345 C2344 1.414 . S
C2345 C2346 1.374 . S
C2346 H2320 0.950 . S
C2346 C2342 1.385 . S
C2346 C2345 1.374 . S
C2347 C2344 1.499 . S
C2347 C2348 1.373 . S
C2347 C2349 1.389 . S
C2348 H2321 0.950 . S
C2348 C2334 1.377 . S
C2348 C2347 1.373 . S
C2349 C2333 1.377 . S
C2349 C2347 1.389 . S
C2349 C2350 1.524 . S
C2350 C2349 1.524 . S
C2350 C2351 1.397 . S
C2350 C2355 1.363 . S
C2351 H2322 0.950 . S
C2351 C2350 1.397 . S
C2351 C2352 1.334 . S
C2352 H2323 0.950 . S
C2352 C2351 1.334 . S
C2352 C2353 1.287 . S
C2353 C2352 1.287 . S
C2353 C2354 1.524 . S
C2353 H2356 0.999 . S
C2354 H2324 0.950 . S
C2354 C2353 1.524 . S
C2354 C2355 1.415 . S
C2355 H2325 0.950 . S
C2355 C2350 1.363 . S
C2355 C2354 1.415 . S
H2356 C2353 0.999 . S
H2357 C2338 0.913 . S
H2358 C2376 0.951 1_655 S
H2359 C2378 0.951 1_655 S
H2360 C2380 0.950 . S
H2361 C2381 0.950 . S
H2362 C2383 0.949 1_554 S
H2363 C2386 0.951 1_455 S
H2364 C2387 0.950 . S
H2365 C2389 0.950 . S
H2366 C2390 0.950 . S
H2367 C2391 0.951 . S
H2368 C2393 0.951 . S
H2369 C2395 0.950 . S
H2370 C2396 0.950 . S
H2371 C2398 0.950 1_655 S
H2372 C2401 0.950 . S
H2373 C2402 0.950 . S
H2374 C2404 0.950 . S
H2375 C2405 0.935 1_556 S
C2376 H2358 0.951 1_455 S
C2376 C2377 1.366 . S
C2376 C2378 1.388 . S
C2377 C2376 1.366 . S
C2377 C2381 1.385 . S
C2378 H2359 0.951 1_455 S
C2378 C2376 1.388 . S
C2378 C2379 1.366 . S
C2379 C2378 1.366 . S
C2379 C2380 1.414 . S
C2379 C2382 1.499 1_554 S
C2380 H2360 0.950 . S
C2380 C2379 1.414 . S
C2380 C2381 1.374 . S
C2381 H2361 0.950 . S
C2381 C2377 1.385 . S
C2381 C2380 1.374 . S
C2382 C2379 1.499 1_556 S
C2382 C2383 1.374 . S
C2382 C2384 1.389 . S
C2383 H2362 0.949 1_556 S
C2383 C2382 1.374 . S
C2383 C2399 1.377 . S
C2384 C2382 1.389 . S
C2384 C2385 1.524 1_455 S
C2384 C2398 1.377 . S
C2385 C2384 1.524 1_655 S
C2385 C2386 1.396 . S
C2385 C2390 1.363 . S
C2386 H2363 0.951 1_655 S
C2386 C2385 1.396 . S
C2386 C2387 1.334 . S
C2387 H2364 0.950 . S
C2387 C2386 1.334 . S
C2387 C2388 1.287 . S
C2388 C2387 1.287 . S
C2388 C2389 1.524 . S
C2388 H2407 0.913 . S
C2389 H2365 0.950 . S
C2389 C2388 1.524 . S
C2389 C2390 1.415 . S
C2390 H2366 0.950 . S
C2390 C2385 1.363 . S
C2390 C2389 1.415 . S
C2391 H2367 0.951 . S
C2391 C2392 1.366 . S
C2391 C2393 1.388 . S
C2392 C2391 1.366 . S
C2392 C2396 1.385 1_455 S
C2393 H2368 0.951 . S
C2393 C2391 1.388 . S
C2393 C2394 1.366 . S
C2394 C2393 1.366 . S
C2394 C2395 1.414 1_455 S
C2394 C2397 1.499 . S
C2395 H2369 0.950 . S
C2395 C2394 1.414 1_655 S
C2395 C2396 1.374 . S
C2396 H2370 0.950 . S
C2396 C2392 1.385 1_655 S
C2396 C2395 1.374 . S
C2397 C2394 1.499 . S
C2397 C2398 1.373 . S
C2397 C2399 1.389 . S
C2398 H2371 0.950 1_455 S
C2398 C2384 1.377 . S
C2398 C2397 1.373 . S
C2399 C2383 1.377 . S
C2399 C2397 1.389 . S
C2399 C2400 1.524 1_556 S
C2400 C2399 1.524 1_554 S
C2400 C2401 1.397 . S
C2400 C2405 1.363 . S
C2401 H2372 0.950 . S
C2401 C2400 1.397 . S
C2401 C2402 1.334 . S
C2402 H2373 0.950 . S
C2402 C2401 1.334 . S
C2402 C2403 1.287 . S
C2403 C2402 1.287 . S
C2403 C2404 1.524 . S
C2403 H2406 0.999 . S
C2404 H2374 0.950 . S
C2404 C2403 1.524 . S
C2404 C2405 1.415 . S
C2405 H2375 0.935 1_554 S
C2405 C2400 1.363 . S
C2405 C2404 1.415 . S
H2406 C2403 0.999 . S
H2407 C2388 0.913 . S
H2408 C2426 0.951 . S
H2409 C2428 0.951 . S
H2410 C2430 0.950 . S
H2411 C2431 0.950 . S
H2412 C2433 0.950 . S
H2413 C2436 0.950 . S
H2414 C2437 0.950 . S
H2415 C2439 0.950 . S
H2416 C2440 0.950 . S
H2417 C2441 0.951 . S
H2418 C2443 0.951 . S
H2419 C2445 0.950 . S
H2420 C2446 0.950 . S
H2421 C2448 0.950 . S
H2422 C2451 0.950 . S
H2423 C2452 0.950 . S
H2424 C2454 0.950 . S
H2425 C2455 0.950 . S
C2426 H2408 0.951 . S
C2426 C2427 1.366 . S
C2426 C2428 1.388 . S
C2427 C2426 1.366 . S
C2427 C2431 1.385 . S
C2428 H2409 0.951 . S
C2428 C2426 1.388 . S
C2428 C2429 1.366 . S
C2429 C2428 1.366 . S
C2429 C2430 1.414 . S
C2429 C2432 1.499 . S
C2430 H2410 0.950 . S
C2430 C2429 1.414 . S
C2430 C2431 1.374 . S
C2431 H2411 0.950 . S
C2431 C2427 1.385 . S
C2431 C2430 1.374 . S
C2432 C2429 1.499 . S
C2432 C2433 1.373 . S
C2432 C2434 1.389 . S
C2433 H2412 0.950 . S
C2433 C2432 1.373 . S
C2433 C2449 1.377 . S
C2434 C2432 1.389 . S
C2434 C2435 1.524 . S
C2434 C2448 1.377 . S
C2435 C2434 1.524 . S
C2435 C2436 1.397 . S
C2435 C2440 1.363 . S
C2436 H2413 0.950 . S
C2436 C2435 1.397 . S
C2436 C2437 1.334 . S
C2437 H2414 0.950 . S
C2437 C2436 1.334 . S
C2437 C2438 1.287 . S
C2438 C2437 1.287 . S
C2438 C2439 1.524 . S
C2438 H2457 0.913 . S
C2439 H2415 0.950 . S
C2439 C2438 1.524 . S
C2439 C2440 1.415 . S
C2440 H2416 0.950 . S
C2440 C2435 1.363 . S
C2440 C2439 1.415 . S
C2441 H2417 0.951 . S
C2441 C2442 1.366 . S
C2441 C2443 1.388 . S
C2442 C2441 1.366 . S
C2442 C2446 1.385 . S
C2443 H2418 0.951 . S
C2443 C2441 1.388 . S
C2443 C2444 1.366 . S
C2444 C2443 1.366 . S
C2444 C2445 1.414 . S
C2444 C2447 1.499 . S
C2445 H2419 0.950 . S
C2445 C2444 1.414 . S
C2445 C2446 1.374 . S
C2446 H2420 0.950 . S
C2446 C2442 1.385 . S
C2446 C2445 1.374 . S
C2447 C2444 1.499 . S
C2447 C2448 1.373 . S
C2447 C2449 1.389 . S
C2448 H2421 0.950 . S
C2448 C2434 1.377 . S
C2448 C2447 1.373 . S
C2449 C2433 1.377 . S
C2449 C2447 1.389 . S
C2449 C2450 1.524 . S
C2450 C2449 1.524 . S
C2450 C2451 1.397 . S
C2450 C2455 1.363 . S
C2451 H2422 0.950 . S
C2451 C2450 1.397 . S
C2451 C2452 1.334 . S
C2452 H2423 0.950 . S
C2452 C2451 1.334 . S
C2452 C2453 1.287 . S
C2453 C2452 1.287 . S
C2453 C2454 1.524 . S
C2453 H2456 0.999 . S
C2454 H2424 0.950 . S
C2454 C2453 1.524 . S
C2454 C2455 1.415 . S
C2455 H2425 0.950 . S
C2455 C2450 1.363 . S
C2455 C2454 1.415 . S
H2456 C2453 0.999 . S
H2457 C2438 0.913 . S
H2458 C2476 0.951 . S
H2459 C2478 0.951 . S
H2460 C2480 0.950 . S
H2461 C2481 0.950 . S
H2462 C2483 0.950 . S
H2463 C2486 0.950 . S
H2464 C2487 0.965 . S
H2465 C2489 0.950 . S
H2466 C2490 0.950 . S
H2467 C2491 0.951 . S
H2468 C2493 0.951 . S
H2469 C2495 0.950 . S
H2470 C2496 0.950 . S
H2471 C2498 0.950 . S
H2472 C2501 0.950 . S
H2473 C2502 0.950 . S
H2474 C2504 0.950 . S
H2475 C2505 0.950 . S
C2476 H2458 0.951 . S
C2476 C2477 1.366 . S
C2476 C2478 1.388 . S
C2477 C2476 1.366 . S
C2477 C2481 1.385 . S
C2478 H2459 0.951 . S
C2478 C2476 1.388 . S
C2478 C2479 1.366 . S
C2479 C2478 1.366 . S
C2479 C2480 1.414 . S
C2479 C2482 1.499 . S
C2480 H2460 0.950 . S
C2480 C2479 1.414 . S
C2480 C2481 1.374 . S
C2481 H2461 0.950 . S
C2481 C2477 1.385 . S
C2481 C2480 1.374 . S
C2482 C2479 1.499 . S
C2482 C2483 1.373 . S
C2482 C2484 1.389 . S
C2483 H2462 0.950 . S
C2483 C2482 1.373 . S
C2483 C2499 1.377 . S
C2484 C2482 1.389 . S
C2484 C2485 1.524 . S
C2484 C2498 1.377 . S
C2485 C2484 1.524 . S
C2485 C2486 1.397 . S
C2485 C2490 1.363 . S
C2486 H2463 0.950 . S
C2486 C2485 1.397 . S
C2486 C2487 1.334 . S
C2487 H2464 0.965 . S
C2487 C2486 1.334 . S
C2487 C2488 1.287 . S
C2488 C2487 1.287 . S
C2488 C2489 1.524 . S
C2488 H2507 0.913 1_554 S
C2489 H2465 0.950 . S
C2489 C2488 1.524 . S
C2489 C2490 1.415 . S
C2490 H2466 0.950 . S
C2490 C2485 1.363 . S
C2490 C2489 1.415 . S
C2491 H2467 0.951 . S
C2491 C2492 1.366 . S
C2491 C2493 1.388 . S
C2492 C2491 1.366 . S
C2492 C2496 1.385 . S
C2493 H2468 0.951 . S
C2493 C2491 1.388 . S
C2493 C2494 1.366 . S
C2494 C2493 1.366 . S
C2494 C2495 1.414 . S
C2494 C2497 1.499 . S
C2495 H2469 0.950 . S
C2495 C2494 1.414 . S
C2495 C2496 1.374 . S
C2496 H2470 0.950 . S
C2496 C2492 1.385 . S
C2496 C2495 1.374 . S
C2497 C2494 1.499 . S
C2497 C2498 1.373 . S
C2497 C2499 1.389 . S
C2498 H2471 0.950 . S
C2498 C2484 1.377 . S
C2498 C2497 1.373 . S
C2499 C2483 1.377 . S
C2499 C2497 1.389 . S
C2499 C2500 1.524 . S
C2500 C2499 1.524 . S
C2500 C2501 1.397 . S
C2500 C2505 1.363 . S
C2501 H2472 0.950 . S
C2501 C2500 1.397 . S
C2501 C2502 1.334 . S
C2502 H2473 0.950 . S
C2502 C2501 1.334 . S
C2502 C2503 1.287 . S
C2503 C2502 1.287 . S
C2503 C2504 1.524 . S
C2503 H2506 0.999 . S
C2504 H2474 0.950 . S
C2504 C2503 1.524 . S
C2504 C2505 1.415 . S
C2505 H2475 0.950 . S
C2505 C2500 1.363 . S
C2505 C2504 1.415 . S
H2506 C2503 0.999 . S
H2507 C2488 0.913 1_556 S
H2508 C2526 0.951 . S
H2509 C2528 0.951 . S
H2510 C2530 0.950 . S
H2511 C2531 0.950 . S
H2512 C2533 0.950 . S
H2513 C2536 0.950 . S
H2514 C2537 0.950 . S
H2515 C2539 0.950 . S
H2516 C2540 0.950 . S
H2517 C2541 0.951 . S
H2518 C2543 0.951 . S
H2519 C2545 0.950 . S
H2520 C2546 0.950 . S
H2521 C2548 0.950 . S
H2522 C2551 0.950 . S
H2523 C2552 0.950 . S
H2524 C2554 0.950 . S
H2525 C2555 0.950 . S
C2526 H2508 0.951 . S
C2526 C2527 1.366 . S
C2526 C2528 1.388 . S
C2527 C2526 1.366 . S
C2527 C2531 1.385 . S
C2528 H2509 0.951 . S
C2528 C2526 1.388 . S
C2528 C2529 1.366 . S
C2529 C2528 1.366 . S
C2529 C2530 1.414 . S
C2529 C2532 1.499 . S
C2530 H2510 0.950 . S
C2530 C2529 1.414 . S
C2530 C2531 1.374 . S
C2531 H2511 0.950 . S
C2531 C2527 1.385 . S
C2531 C2530 1.374 . S
C2532 C2529 1.499 . S
C2532 C2533 1.373 . S
C2532 C2534 1.389 . S
C2533 H2512 0.950 . S
C2533 C2532 1.373 . S
C2533 C2549 1.377 . S
C2534 C2532 1.389 . S
C2534 C2535 1.524 . S
C2534 C2548 1.377 . S
C2535 C2534 1.524 . S
C2535 C2536 1.397 . S
C2535 C2540 1.363 . S
C2536 H2513 0.950 . S
C2536 C2535 1.397 . S
C2536 C2537 1.334 . S
C2537 H2514 0.950 . S
C2537 C2536 1.334 . S
C2537 C2538 1.287 . S
C2538 C2537 1.287 . S
C2538 C2539 1.524 . S
C2538 H2557 0.913 . S
C2539 H2515 0.950 . S
C2539 C2538 1.524 . S
C2539 C2540 1.415 . S
C2540 H2516 0.950 . S
C2540 C2535 1.363 . S
C2540 C2539 1.415 . S
C2541 H2517 0.951 . S
C2541 C2542 1.366 . S
C2541 C2543 1.388 . S
C2542 C2541 1.366 . S
C2542 C2546 1.385 . S
C2543 H2518 0.951 . S
C2543 C2541 1.388 . S
C2543 C2544 1.366 . S
C2544 C2543 1.366 . S
C2544 C2545 1.414 . S
C2544 C2547 1.499 . S
C2545 H2519 0.950 . S
C2545 C2544 1.414 . S
C2545 C2546 1.374 . S
C2546 H2520 0.950 . S
C2546 C2542 1.385 . S
C2546 C2545 1.374 . S
C2547 C2544 1.499 . S
C2547 C2548 1.373 . S
C2547 C2549 1.389 . S
C2548 H2521 0.950 . S
C2548 C2534 1.377 . S
C2548 C2547 1.373 . S
C2549 C2533 1.377 . S
C2549 C2547 1.389 . S
C2549 C2550 1.524 . S
C2550 C2549 1.524 . S
C2550 C2551 1.397 . S
C2550 C2555 1.363 . S
C2551 H2522 0.950 . S
C2551 C2550 1.397 . S
C2551 C2552 1.334 . S
C2552 H2523 0.950 . S
C2552 C2551 1.334 . S
C2552 C2553 1.287 . S
C2553 C2552 1.287 . S
C2553 C2554 1.524 . S
C2553 H2556 0.999 . S
C2554 H2524 0.950 . S
C2554 C2553 1.524 . S
C2554 C2555 1.415 . S
C2555 H2525 0.950 . S
C2555 C2550 1.363 . S
C2555 C2554 1.415 . S
H2556 C2553 0.999 . S
H2557 C2538 0.913 . S
H2558 C2576 0.951 . S
H2559 C2578 0.951 . S
H2560 C2580 0.950 . S
H2561 C2581 0.950 . S
H2562 C2583 0.950 . S
H2563 C2586 0.950 . S
H2564 C2587 0.950 . S
H2565 C2589 0.950 . S
H2566 C2590 0.950 . S
H2567 C2591 0.951 . S
H2568 C2593 0.951 . S
H2569 C2595 0.950 . S
H2570 C2596 0.950 . S
H2571 C2598 0.950 . S
H2572 C2601 0.950 . S
H2573 C2602 0.950 . S
H2574 C2604 0.950 . S
H2575 C2605 0.950 . S
C2576 H2558 0.951 . S
C2576 C2577 1.366 . S
C2576 C2578 1.388 . S
C2577 C2576 1.366 . S
C2577 C2581 1.385 . S
C2578 H2559 0.951 . S
C2578 C2576 1.388 . S
C2578 C2579 1.366 . S
C2579 C2578 1.366 . S
C2579 C2580 1.414 . S
C2579 C2582 1.499 . S
C2580 H2560 0.950 . S
C2580 C2579 1.414 . S
C2580 C2581 1.374 . S
C2581 H2561 0.950 . S
C2581 C2577 1.385 . S
C2581 C2580 1.374 . S
C2582 C2579 1.499 . S
C2582 C2583 1.373 . S
C2582 C2584 1.389 . S
C2583 H2562 0.950 . S
C2583 C2582 1.373 . S
C2583 C2599 1.377 . S
C2584 C2582 1.389 . S
C2584 C2585 1.524 . S
C2584 C2598 1.377 . S
C2585 C2584 1.524 . S
C2585 C2586 1.397 . S
C2585 C2590 1.363 . S
C2586 H2563 0.950 . S
C2586 C2585 1.397 . S
C2586 C2587 1.334 . S
C2587 H2564 0.950 . S
C2587 C2586 1.334 . S
C2587 C2588 1.287 . S
C2588 C2587 1.287 . S
C2588 C2589 1.524 . S
C2588 H2607 0.913 . S
C2589 H2565 0.950 . S
C2589 C2588 1.524 . S
C2589 C2590 1.415 . S
C2590 H2566 0.950 . S
C2590 C2585 1.363 . S
C2590 C2589 1.415 . S
C2591 H2567 0.951 . S
C2591 C2592 1.366 . S
C2591 C2593 1.388 . S
C2592 C2591 1.366 . S
C2592 C2596 1.385 . S
C2593 H2568 0.951 . S
C2593 C2591 1.388 . S
C2593 C2594 1.366 . S
C2594 C2593 1.366 . S
C2594 C2595 1.414 . S
C2594 C2597 1.499 . S
C2595 H2569 0.950 . S
C2595 C2594 1.414 . S
C2595 C2596 1.374 . S
C2596 H2570 0.950 . S
C2596 C2592 1.385 . S
C2596 C2595 1.374 . S
C2597 C2594 1.499 . S
C2597 C2598 1.373 . S
C2597 C2599 1.389 . S
C2598 H2571 0.950 . S
C2598 C2584 1.377 . S
C2598 C2597 1.373 . S
C2599 C2583 1.377 . S
C2599 C2597 1.389 . S
C2599 C2600 1.524 . S
C2600 C2599 1.524 . S
C2600 C2601 1.397 . S
C2600 C2605 1.363 . S
C2601 H2572 0.950 . S
C2601 C2600 1.397 . S
C2601 C2602 1.334 . S
C2602 H2573 0.950 . S
C2602 C2601 1.334 . S
C2602 C2603 1.287 . S
C2603 C2602 1.287 . S
C2603 C2604 1.524 . S
C2603 H2606 0.999 . S
C2604 H2574 0.950 . S
C2604 C2603 1.524 . S
C2604 C2605 1.415 . S
C2605 H2575 0.950 . S
C2605 C2600 1.363 . S
C2605 C2604 1.415 . S
H2606 C2603 0.999 . S
H2607 C2588 0.913 . S
H2608 C2626 0.951 . S
H2609 C2628 0.951 . S
H2610 C2630 0.950 . S
H2611 C2631 0.950 . S
H2612 C2633 0.950 . S
H2613 C2636 0.950 . S
H2614 C2637 0.950 . S
H2615 C2639 0.950 . S
H2616 C2640 0.950 . S
H2617 C2641 0.951 . S
H2618 C2643 0.951 . S
H2619 C2645 0.950 . S
H2620 C2646 0.950 . S
H2621 C2648 0.950 . S
H2622 C2651 0.950 . S
H2623 C2652 0.950 . S
H2624 C2654 0.950 . S
H2625 C2655 0.950 . S
C2626 H2608 0.951 . S
C2626 C2627 1.366 . S
C2626 C2628 1.388 . S
C2627 C2626 1.366 . S
C2627 C2631 1.385 . S
C2628 H2609 0.951 . S
C2628 C2626 1.388 . S
C2628 C2629 1.366 . S
C2629 C2628 1.366 . S
C2629 C2630 1.414 . S
C2629 C2632 1.499 . S
C2630 H2610 0.950 . S
C2630 C2629 1.414 . S
C2630 C2631 1.374 . S
C2631 H2611 0.950 . S
C2631 C2627 1.385 . S
C2631 C2630 1.374 . S
C2632 C2629 1.499 . S
C2632 C2633 1.373 . S
C2632 C2634 1.389 . S
C2633 H2612 0.950 . S
C2633 C2632 1.373 . S
C2633 C2649 1.377 . S
C2634 C2632 1.389 . S
C2634 C2635 1.524 . S
C2634 C2648 1.377 . S
C2635 C2634 1.524 . S
C2635 C2636 1.397 . S
C2635 C2640 1.363 . S
C2636 H2613 0.950 . S
C2636 C2635 1.397 . S
C2636 C2637 1.334 . S
C2637 H2614 0.950 . S
C2637 C2636 1.334 . S
C2637 C2638 1.287 . S
C2638 C2637 1.287 . S
C2638 C2639 1.524 . S
C2638 H2657 0.913 . S
C2639 H2615 0.950 . S
C2639 C2638 1.524 . S
C2639 C2640 1.415 . S
C2640 H2616 0.950 . S
C2640 C2635 1.363 . S
C2640 C2639 1.415 . S
C2641 H2617 0.951 . S
C2641 C2642 1.366 . S
C2641 C2643 1.388 . S
C2642 C2641 1.366 . S
C2642 C2646 1.385 . S
C2643 H2618 0.951 . S
C2643 C2641 1.388 . S
C2643 C2644 1.366 . S
C2644 C2643 1.366 . S
C2644 C2645 1.414 . S
C2644 C2647 1.499 . S
C2645 H2619 0.950 . S
C2645 C2644 1.414 . S
C2645 C2646 1.374 . S
C2646 H2620 0.950 . S
C2646 C2642 1.385 . S
C2646 C2645 1.374 . S
C2647 C2644 1.499 . S
C2647 C2648 1.373 . S
C2647 C2649 1.389 . S
C2648 H2621 0.950 . S
C2648 C2634 1.377 . S
C2648 C2647 1.373 . S
C2649 C2633 1.377 . S
C2649 C2647 1.389 . S
C2649 C2650 1.524 . S
C2650 C2649 1.524 . S
C2650 C2651 1.397 . S
C2650 C2655 1.363 . S
C2651 H2622 0.950 . S
C2651 C2650 1.397 . S
C2651 C2652 1.334 . S
C2652 H2623 0.950 . S
C2652 C2651 1.334 . S
C2652 C2653 1.287 . S
C2653 C2652 1.287 . S
C2653 C2654 1.524 . S
C2653 H2656 0.999 . S
C2654 H2624 0.950 . S
C2654 C2653 1.524 . S
C2654 C2655 1.415 . S
C2655 H2625 0.950 . S
C2655 C2650 1.363 . S
C2655 C2654 1.415 . S
H2656 C2653 0.999 . S
H2657 C2638 0.913 . S
H2658 C2676 0.951 . S
H2659 C2678 0.951 . S
H2660 C2680 0.950 . S
H2661 C2681 0.950 . S
H2662 C2683 0.950 . S
H2663 C2686 0.950 . S
H2664 C2687 0.950 . S
H2665 C2689 0.950 . S
H2666 C2690 0.950 . S
H2667 C2691 0.951 . S
H2668 C2693 0.951 . S
H2669 C2695 0.950 . S
H2670 C2696 0.950 . S
H2671 C2698 0.950 . S
H2672 C2701 0.950 . S
H2673 C2702 0.950 . S
H2674 C2704 0.950 . S
H2675 C2705 0.950 . S
C2676 H2658 0.951 . S
C2676 C2677 1.366 . S
C2676 C2678 1.388 . S
C2677 C2676 1.366 . S
C2677 C2681 1.385 . S
C2678 H2659 0.951 . S
C2678 C2676 1.388 . S
C2678 C2679 1.366 . S
C2679 C2678 1.366 . S
C2679 C2680 1.414 . S
C2679 C2682 1.499 . S
C2680 H2660 0.950 . S
C2680 C2679 1.414 . S
C2680 C2681 1.374 . S
C2681 H2661 0.950 . S
C2681 C2677 1.385 . S
C2681 C2680 1.374 . S
C2682 C2679 1.499 . S
C2682 C2683 1.373 . S
C2682 C2684 1.389 . S
C2683 H2662 0.950 . S
C2683 C2682 1.373 . S
C2683 C2699 1.377 . S
C2684 C2682 1.389 . S
C2684 C2685 1.524 . S
C2684 C2698 1.377 . S
C2685 C2684 1.524 . S
C2685 C2686 1.397 . S
C2685 C2690 1.363 . S
C2686 H2663 0.950 . S
C2686 C2685 1.397 . S
C2686 C2687 1.334 . S
C2687 H2664 0.950 . S
C2687 C2686 1.334 . S
C2687 C2688 1.287 . S
C2688 C2687 1.287 . S
C2688 C2689 1.524 . S
C2688 H2707 0.913 . S
C2689 H2665 0.950 . S
C2689 C2688 1.524 . S
C2689 C2690 1.415 . S
C2690 H2666 0.950 . S
C2690 C2685 1.363 . S
C2690 C2689 1.415 . S
C2691 H2667 0.951 . S
C2691 C2692 1.366 . S
C2691 C2693 1.388 . S
C2692 C2691 1.366 . S
C2692 C2696 1.385 . S
C2693 H2668 0.951 . S
C2693 C2691 1.388 . S
C2693 C2694 1.366 . S
C2694 C2693 1.366 . S
C2694 C2695 1.414 . S
C2694 C2697 1.499 . S
C2695 H2669 0.950 . S
C2695 C2694 1.414 . S
C2695 C2696 1.374 . S
C2696 H2670 0.950 . S
C2696 C2692 1.385 . S
C2696 C2695 1.374 . S
C2697 C2694 1.499 . S
C2697 C2698 1.373 . S
C2697 C2699 1.389 . S
C2698 H2671 0.950 . S
C2698 C2684 1.377 . S
C2698 C2697 1.373 . S
C2699 C2683 1.377 . S
C2699 C2697 1.389 . S
C2699 C2700 1.524 . S
C2700 C2699 1.524 . S
C2700 C2701 1.397 . S
C2700 C2705 1.363 . S
C2701 H2672 0.950 . S
C2701 C2700 1.397 . S
C2701 C2702 1.334 . S
C2702 H2673 0.950 . S
C2702 C2701 1.334 . S
C2702 C2703 1.287 . S
C2703 C2702 1.287 . S
C2703 C2704 1.524 . S
C2703 H2706 0.999 . S
C2704 H2674 0.950 . S
C2704 C2703 1.524 . S
C2704 C2705 1.415 . S
C2705 H2675 0.950 . S
C2705 C2700 1.363 . S
C2705 C2704 1.415 . S
H2706 C2703 0.999 . S
H2707 C2688 0.913 . S
H2708 C2726 0.951 . S
H2709 C2728 0.951 . S
H2710 C2730 0.950 . S
H2711 C2731 0.950 . S
H2712 C2733 0.950 . S
H2713 C2736 0.950 . S
H2714 C2737 0.950 . S
H2715 C2739 0.950 . S
H2716 C2740 0.950 . S
H2717 C2741 0.951 . S
H2718 C2743 0.951 . S
H2719 C2745 0.950 . S
H2720 C2746 0.950 . S
H2721 C2748 0.950 . S
H2722 C2751 0.950 . S
H2723 C2752 0.950 . S
H2724 C2754 0.950 . S
H2725 C2755 0.950 . S
C2726 H2708 0.951 . S
C2726 C2727 1.366 . S
C2726 C2728 1.388 . S
C2727 C2726 1.366 . S
C2727 C2731 1.385 . S
C2728 H2709 0.951 . S
C2728 C2726 1.388 . S
C2728 C2729 1.366 . S
C2729 C2728 1.366 . S
C2729 C2730 1.414 . S
C2729 C2732 1.499 . S
C2730 H2710 0.950 . S
C2730 C2729 1.414 . S
C2730 C2731 1.374 . S
C2731 H2711 0.950 . S
C2731 C2727 1.385 . S
C2731 C2730 1.374 . S
C2732 C2729 1.499 . S
C2732 C2733 1.373 . S
C2732 C2734 1.389 . S
C2733 H2712 0.950 . S
C2733 C2732 1.373 . S
C2733 C2749 1.377 . S
C2734 C2732 1.389 . S
C2734 C2735 1.524 . S
C2734 C2748 1.377 . S
C2735 C2734 1.524 . S
C2735 C2736 1.397 . S
C2735 C2740 1.363 . S
C2736 H2713 0.950 . S
C2736 C2735 1.397 . S
C2736 C2737 1.334 . S
C2737 H2714 0.950 . S
C2737 C2736 1.334 . S
C2737 C2738 1.287 . S
C2738 C2737 1.287 . S
C2738 C2739 1.524 . S
C2738 H2757 0.913 . S
C2739 H2715 0.950 . S
C2739 C2738 1.524 . S
C2739 C2740 1.415 . S
C2740 H2716 0.950 . S
C2740 C2735 1.363 . S
C2740 C2739 1.415 . S
C2741 H2717 0.951 . S
C2741 C2742 1.366 . S
C2741 C2743 1.388 . S
C2742 C2741 1.366 . S
C2742 C2746 1.385 . S
C2743 H2718 0.951 . S
C2743 C2741 1.388 . S
C2743 C2744 1.366 . S
C2744 C2743 1.366 . S
C2744 C2745 1.414 . S
C2744 C2747 1.499 . S
C2745 H2719 0.950 . S
C2745 C2744 1.414 . S
C2745 C2746 1.374 . S
C2746 H2720 0.950 . S
C2746 C2742 1.385 . S
C2746 C2745 1.374 . S
C2747 C2744 1.499 . S
C2747 C2748 1.373 . S
C2747 C2749 1.389 . S
C2748 H2721 0.950 . S
C2748 C2734 1.377 . S
C2748 C2747 1.373 . S
C2749 C2733 1.377 . S
C2749 C2747 1.389 . S
C2749 C2750 1.524 . S
C2750 C2749 1.524 . S
C2750 C2751 1.397 . S
C2750 C2755 1.363 . S
C2751 H2722 0.950 . S
C2751 C2750 1.397 . S
C2751 C2752 1.334 . S
C2752 H2723 0.950 . S
C2752 C2751 1.334 . S
C2752 C2753 1.287 . S
C2753 C2752 1.287 . S
C2753 C2754 1.524 . S
C2753 H2756 0.999 . S
C2754 H2724 0.950 . S
C2754 C2753 1.524 . S
C2754 C2755 1.415 . S
C2755 H2725 0.950 . S
C2755 C2750 1.363 . S
C2755 C2754 1.415 . S
H2756 C2753 0.999 . S
H2757 C2738 0.913 . S
H2758 C2776 0.951 . S
H2759 C2778 0.951 . S
H2760 C2780 0.950 . S
H2761 C2781 0.950 . S
H2762 C2783 0.950 . S
H2763 C2786 0.950 . S
H2764 C2787 0.950 . S
H2765 C2789 0.950 . S
H2766 C2790 0.950 . S
H2767 C2791 0.951 . S
H2768 C2793 0.951 . S
H2769 C2795 0.950 . S
H2770 C2796 0.950 . S
H2771 C2798 0.950 . S
H2772 C2801 0.950 . S
H2773 C2802 0.950 . S
H2774 C2804 0.950 . S
H2775 C2805 0.950 . S
C2776 H2758 0.951 . S
C2776 C2777 1.366 . S
C2776 C2778 1.388 . S
C2777 C2776 1.366 . S
C2777 C2781 1.385 . S
C2778 H2759 0.951 . S
C2778 C2776 1.388 . S
C2778 C2779 1.366 . S
C2779 C2778 1.366 . S
C2779 C2780 1.414 . S
C2779 C2782 1.499 . S
C2780 H2760 0.950 . S
C2780 C2779 1.414 . S
C2780 C2781 1.374 . S
C2781 H2761 0.950 . S
C2781 C2777 1.385 . S
C2781 C2780 1.374 . S
C2782 C2779 1.499 . S
C2782 C2783 1.373 . S
C2782 C2784 1.389 . S
C2783 H2762 0.950 . S
C2783 C2782 1.373 . S
C2783 C2799 1.377 . S
C2784 C2782 1.389 . S
C2784 C2785 1.524 . S
C2784 C2798 1.377 . S
C2785 C2784 1.524 . S
C2785 C2786 1.397 . S
C2785 C2790 1.363 . S
C2786 H2763 0.950 . S
C2786 C2785 1.397 . S
C2786 C2787 1.334 . S
C2787 H2764 0.950 . S
C2787 C2786 1.334 . S
C2787 C2788 1.287 . S
C2788 C2787 1.287 . S
C2788 C2789 1.524 . S
C2788 H2807 0.913 . S
C2789 H2765 0.950 . S
C2789 C2788 1.524 . S
C2789 C2790 1.415 . S
C2790 H2766 0.950 . S
C2790 C2785 1.363 . S
C2790 C2789 1.415 . S
C2791 H2767 0.951 . S
C2791 C2792 1.366 . S
C2791 C2793 1.388 . S
C2792 C2791 1.366 . S
C2792 C2796 1.385 . S
C2793 H2768 0.951 . S
C2793 C2791 1.388 . S
C2793 C2794 1.366 . S
C2794 C2793 1.366 . S
C2794 C2795 1.414 . S
C2794 C2797 1.499 . S
C2795 H2769 0.950 . S
C2795 C2794 1.414 . S
C2795 C2796 1.374 . S
C2796 H2770 0.950 . S
C2796 C2792 1.385 . S
C2796 C2795 1.374 . S
C2797 C2794 1.499 . S
C2797 C2798 1.373 . S
C2797 C2799 1.389 . S
C2798 H2771 0.950 . S
C2798 C2784 1.377 . S
C2798 C2797 1.373 . S
C2799 C2783 1.377 . S
C2799 C2797 1.389 . S
C2799 C2800 1.524 . S
C2800 C2799 1.524 . S
C2800 C2801 1.397 . S
C2800 C2805 1.363 . S
C2801 H2772 0.950 . S
C2801 C2800 1.397 . S
C2801 C2802 1.334 . S
C2802 H2773 0.950 . S
C2802 C2801 1.334 . S
C2802 C2803 1.287 . S
C2803 C2802 1.287 . S
C2803 C2804 1.524 . S
C2803 H2806 0.999 . S
C2804 H2774 0.950 . S
C2804 C2803 1.524 . S
C2804 C2805 1.415 . S
C2805 H2775 0.950 . S
C2805 C2800 1.363 . S
C2805 C2804 1.415 . S
H2806 C2803 0.999 . S
H2807 C2788 0.913 . S
H2808 C2826 0.951 . S
H2809 C2828 0.951 . S
H2810 C2830 0.950 . S
H2811 C2831 0.950 . S
H2812 C2833 0.933 1_554 S
H2813 C2836 0.950 . S
H2814 C2837 0.950 . S
H2815 C2839 0.950 . S
H2816 C2840 0.950 . S
H2817 C2841 0.951 . S
H2818 C2843 0.951 . S
H2819 C2845 0.955 . S
H2820 C2846 0.943 1_554 S
H2821 C2848 0.950 . S
H2822 C2851 0.950 . S
H2823 C2852 0.950 . S
H2824 C2854 0.950 . S
H2825 C2855 0.950 . S
C2826 H2808 0.951 . S
C2826 C2827 1.366 . S
C2826 C2828 1.388 . S
C2827 C2826 1.366 . S
C2827 C2831 1.385 . S
C2828 H2809 0.951 . S
C2828 C2826 1.388 . S
C2828 C2829 1.366 . S
C2829 C2828 1.366 . S
C2829 C2830 1.414 . S
C2829 C2832 1.499 . S
C2830 H2810 0.950 . S
C2830 C2829 1.414 . S
C2830 C2831 1.374 . S
C2831 H2811 0.950 . S
C2831 C2827 1.385 . S
C2831 C2830 1.374 . S
C2832 C2829 1.499 . S
C2832 C2833 1.393 . S
C2832 C2834 1.389 . S
C2833 H2812 0.933 1_556 S
C2833 C2832 1.393 . S
C2833 C2849 1.375 1_556 S
C2834 C2832 1.389 . S
C2834 C2835 1.524 . S
C2834 C2848 1.377 . S
C2835 C2834 1.524 . S
C2835 C2836 1.397 . S
C2835 C2840 1.363 . S
C2836 H2813 0.950 . S
C2836 C2835 1.397 . S
C2836 C2837 1.334 . S
C2837 H2814 0.950 . S
C2837 C2836 1.334 . S
C2837 C2838 1.287 . S
C2838 C2837 1.287 . S
C2838 C2839 1.524 . S
C2838 H2857 0.913 . S
C2839 H2815 0.950 . S
C2839 C2838 1.524 . S
C2839 C2840 1.415 . S
C2840 H2816 0.950 . S
C2840 C2835 1.363 . S
C2840 C2839 1.415 . S
C2841 H2817 0.951 . S
C2841 C2842 1.366 . S
C2841 C2843 1.388 . S
C2842 C2841 1.366 . S
C2842 C2846 1.396 . S
C2843 H2818 0.951 . S
C2843 C2841 1.388 . S
C2843 C2844 1.366 . S
C2844 C2843 1.366 . S
C2844 C2845 1.414 . S
C2844 C2847 1.499 . S
C2845 H2819 0.955 . S
C2845 C2844 1.414 . S
C2845 C2846 1.373 . S
C2846 H2820 0.943 1_556 S
C2846 C2842 1.396 . S
C2846 C2845 1.373 . S
C2847 C2844 1.499 . S
C2847 C2848 1.373 . S
C2847 C2849 1.389 1_556 S
C2848 H2821 0.950 . S
C2848 C2834 1.377 . S
C2848 C2847 1.373 . S
C2849 C2833 1.375 1_554 S
C2849 C2847 1.389 1_554 S
C2849 C2850 1.524 . S
C2850 C2849 1.524 . S
C2850 C2851 1.397 . S
C2850 C2855 1.363 . S
C2851 H2822 0.950 . S
C2851 C2850 1.397 . S
C2851 C2852 1.334 . S
C2852 H2823 0.950 . S
C2852 C2851 1.334 . S
C2852 C2853 1.287 . S
C2853 C2852 1.287 . S
C2853 C2854 1.524 . S
C2853 H2856 0.999 . S
C2854 H2824 0.950 . S
C2854 C2853 1.524 . S
C2854 C2855 1.415 . S
C2855 H2825 0.950 . S
C2855 C2850 1.363 . S
C2855 C2854 1.415 . S
H2856 C2853 0.999 . S
H2857 C2838 0.913 . S
H2858 C2876 0.951 . S
H2859 C2878 0.951 . S
H2860 C2880 0.950 . S
H2861 C2881 0.950 . S
H2862 C2883 0.950 . S
H2863 C2886 0.950 . S
H2864 C2887 0.950 . S
H2865 C2889 0.950 . S
H2866 C2890 0.950 . S
H2867 C2891 0.951 . S
H2868 C2893 0.951 . S
H2869 C2895 0.950 . S
H2870 C2896 0.950 . S
H2871 C2898 0.950 . S
H2872 C2901 0.950 . S
H2873 C2902 0.950 . S
H2874 C2904 0.950 . S
H2875 C2905 0.950 . S
C2876 H2858 0.951 . S
C2876 C2877 1.366 . S
C2876 C2878 1.388 . S
C2877 C2876 1.366 . S
C2877 C2881 1.385 . S
C2878 H2859 0.951 . S
C2878 C2876 1.388 . S
C2878 C2879 1.366 . S
C2879 C2878 1.366 . S
C2879 C2880 1.414 . S
C2879 C2882 1.499 . S
C2880 H2860 0.950 . S
C2880 C2879 1.414 . S
C2880 C2881 1.374 . S
C2881 H2861 0.950 . S
C2881 C2877 1.385 . S
C2881 C2880 1.374 . S
C2882 C2879 1.499 . S
C2882 C2883 1.373 . S
C2882 C2884 1.389 . S
C2883 H2862 0.950 . S
C2883 C2882 1.373 . S
C2883 C2899 1.377 . S
C2884 C2882 1.389 . S
C2884 C2885 1.524 . S
C2884 C2898 1.377 . S
C2885 C2884 1.524 . S
C2885 C2886 1.397 . S
C2885 C2890 1.363 . S
C2886 H2863 0.950 . S
C2886 C2885 1.397 . S
C2886 C2887 1.334 . S
C2887 H2864 0.950 . S
C2887 C2886 1.334 . S
C2887 C2888 1.287 . S
C2888 C2887 1.287 . S
C2888 C2889 1.524 . S
C2888 H2907 0.913 . S
C2889 H2865 0.950 . S
C2889 C2888 1.524 . S
C2889 C2890 1.415 . S
C2890 H2866 0.950 . S
C2890 C2885 1.363 . S
C2890 C2889 1.415 . S
C2891 H2867 0.951 . S
C2891 C2892 1.366 . S
C2891 C2893 1.388 . S
C2892 C2891 1.366 . S
C2892 C2896 1.385 . S
C2893 H2868 0.951 . S
C2893 C2891 1.388 . S
C2893 C2894 1.366 . S
C2894 C2893 1.366 . S
C2894 C2895 1.414 . S
C2894 C2897 1.499 . S
C2895 H2869 0.950 . S
C2895 C2894 1.414 . S
C2895 C2896 1.374 . S
C2896 H2870 0.950 . S
C2896 C2892 1.385 . S
C2896 C2895 1.374 . S
C2897 C2894 1.499 . S
C2897 C2898 1.373 . S
C2897 C2899 1.389 . S
C2898 H2871 0.950 . S
C2898 C2884 1.377 . S
C2898 C2897 1.373 . S
C2899 C2883 1.377 . S
C2899 C2897 1.389 . S
C2899 C2900 1.524 . S
C2900 C2899 1.524 . S
C2900 C2901 1.397 . S
C2900 C2905 1.363 . S
C2901 H2872 0.950 . S
C2901 C2900 1.397 . S
C2901 C2902 1.334 . S
C2902 H2873 0.950 . S
C2902 C2901 1.334 . S
C2902 C2903 1.287 . S
C2903 C2902 1.287 . S
C2903 C2904 1.524 . S
C2903 H2906 0.999 . S
C2904 H2874 0.950 . S
C2904 C2903 1.524 . S
C2904 C2905 1.415 . S
C2905 H2875 0.950 . S
C2905 C2900 1.363 . S
C2905 C2904 1.415 . S
H2906 C2903 0.999 . S
H2907 C2888 0.913 . S
H2908 C2926 0.951 . S
H2909 C2928 0.951 . S
H2910 C2930 0.950 . S
H2911 C2931 0.950 . S
H2912 C2933 0.950 . S
H2913 C2936 0.950 . S
H2914 C2937 0.950 . S
H2915 C2939 0.950 . S
H2916 C2940 0.950 . S
H2917 C2941 0.951 . S
H2918 C2943 0.951 . S
H2919 C2945 0.950 . S
H2920 C2946 0.950 . S
H2921 C2948 0.950 . S
H2922 C2951 0.950 . S
H2923 C2952 0.950 . S
H2924 C2954 0.950 . S
H2925 C2955 0.950 . S
C2926 H2908 0.951 . S
C2926 C2927 1.366 . S
C2926 C2928 1.388 . S
C2927 C2926 1.366 . S
C2927 C2931 1.385 . S
C2928 H2909 0.951 . S
C2928 C2926 1.388 . S
C2928 C2929 1.366 . S
C2929 C2928 1.366 . S
C2929 C2930 1.414 . S
C2929 C2932 1.499 . S
C2930 H2910 0.950 . S
C2930 C2929 1.414 . S
C2930 C2931 1.374 . S
C2931 H2911 0.950 . S
C2931 C2927 1.385 . S
C2931 C2930 1.374 . S
C2932 C2929 1.499 . S
C2932 C2933 1.373 . S
C2932 C2934 1.389 . S
C2933 H2912 0.950 . S
C2933 C2932 1.373 . S
C2933 C2949 1.377 . S
C2934 C2932 1.389 . S
C2934 C2935 1.524 . S
C2934 C2948 1.377 . S
C2935 C2934 1.524 . S
C2935 C2936 1.397 . S
C2935 C2940 1.363 . S
C2936 H2913 0.950 . S
C2936 C2935 1.397 . S
C2936 C2937 1.334 . S
C2937 H2914 0.950 . S
C2937 C2936 1.334 . S
C2937 C2938 1.287 . S
C2938 C2937 1.287 . S
C2938 C2939 1.524 . S
C2938 H2957 0.913 . S
C2939 H2915 0.950 . S
C2939 C2938 1.524 . S
C2939 C2940 1.415 . S
C2940 H2916 0.950 . S
C2940 C2935 1.363 . S
C2940 C2939 1.415 . S
C2941 H2917 0.951 . S
C2941 C2942 1.366 . S
C2941 C2943 1.388 . S
C2942 C2941 1.366 . S
C2942 C2946 1.385 . S
C2943 H2918 0.951 . S
C2943 C2941 1.388 . S
C2943 C2944 1.366 . S
C2944 C2943 1.366 . S
C2944 C2945 1.414 . S
C2944 C2947 1.499 . S
C2945 H2919 0.950 . S
C2945 C2944 1.414 . S
C2945 C2946 1.374 . S
C2946 H2920 0.950 . S
C2946 C2942 1.385 . S
C2946 C2945 1.374 . S
C2947 C2944 1.499 . S
C2947 C2948 1.373 . S
C2947 C2949 1.389 . S
C2948 H2921 0.950 . S
C2948 C2934 1.377 . S
C2948 C2947 1.373 . S
C2949 C2933 1.377 . S
C2949 C2947 1.389 . S
C2949 C2950 1.524 . S
C2950 C2949 1.524 . S
C2950 C2951 1.397 1_554 S
C2950 C2955 1.363 . S
C2951 H2922 0.950 . S
C2951 C2950 1.397 1_556 S
C2951 C2952 1.334 . S
C2952 H2923 0.950 . S
C2952 C2951 1.334 . S
C2952 C2953 1.287 . S
C2953 C2952 1.287 . S
C2953 C2954 1.524 . S
C2953 H2956 0.999 . S
C2954 H2924 0.950 . S
C2954 C2953 1.524 . S
C2954 C2955 1.415 1_556 S
C2955 H2925 0.950 . S
C2955 C2950 1.363 . S
C2955 C2954 1.415 1_554 S
H2956 C2953 0.999 . S
H2957 C2938 0.913 . S
H2958 C2976 0.964 . S
H2959 C2978 0.951 . S
H2960 C2980 0.950 . S
H2961 C2981 0.950 . S
H2962 C2983 0.950 . S
H2963 C2986 0.950 1_554 S
H2964 C2987 0.950 . S
H2965 C2989 0.950 . S
H2966 C2990 0.950 . S
H2967 C2991 0.951 . S
H2968 C2993 0.951 . S
H2969 C2995 0.950 1_556 S
H2970 C2996 0.918 1_556 S
H2971 C2998 0.950 1_556 S
H2972 C3001 0.950 . S
H2973 C3002 0.950 . S
H2974 C3004 0.950 . S
H2975 C3005 0.950 . S
C2976 H2958 0.964 . S
C2976 C2977 1.366 . S
C2976 C2978 1.388 . S
C2977 C2976 1.366 . S
C2977 C2981 1.385 . S
C2978 H2959 0.951 . S
C2978 C2976 1.388 . S
C2978 C2979 1.366 . S
C2979 C2978 1.366 . S
C2979 C2980 1.414 . S
C2979 C2982 1.499 . S
C2980 H2960 0.950 . S
C2980 C2979 1.414 . S
C2980 C2981 1.374 . S
C2981 H2961 0.950 . S
C2981 C2977 1.385 . S
C2981 C2980 1.374 . S
C2982 C2979 1.499 . S
C2982 C2983 1.373 . S
C2982 C2984 1.389 . S
C2983 H2962 0.950 . S
C2983 C2982 1.373 . S
C2983 C2999 1.377 . S
C2984 C2982 1.389 . S
C2984 C2985 1.524 1_554 S
C2984 C2998 1.377 . S
C2985 C2984 1.524 1_556 S
C2985 C2986 1.397 . S
C2985 C2990 1.363 . S
C2986 H2963 0.950 1_556 S
C2986 C2985 1.397 . S
C2986 C2987 1.334 . S
C2987 H2964 0.950 . S
C2987 C2986 1.334 . S
C2987 C2988 1.287 . S
C2988 C2987 1.287 . S
C2988 C2989 1.524 . S
C2988 H3007 0.913 . S
C2989 H2965 0.950 . S
C2989 C2988 1.524 . S
C2989 C2990 1.415 . S
C2990 H2966 0.950 . S
C2990 C2985 1.363 . S
C2990 C2989 1.415 . S
C2991 H2967 0.951 . S
C2991 C2992 1.366 . S
C2991 C2993 1.388 . S
C2992 C2991 1.366 . S
C2992 C2996 1.411 . S
C2993 H2968 0.951 . S
C2993 C2991 1.388 . S
C2993 C2994 1.366 . S
C2994 C2993 1.366 . S
C2994 C2995 1.414 . S
C2994 C2997 1.499 . S
C2995 H2969 0.950 1_554 S
C2995 C2994 1.414 . S
C2995 C2996 1.380 . S
C2996 H2970 0.918 1_554 S
C2996 C2992 1.411 . S
C2996 C2995 1.380 . S
C2997 C2994 1.499 . S
C2997 C2998 1.373 . S
C2997 C2999 1.389 . S
C2998 H2971 0.950 1_554 S
C2998 C2984 1.377 . S
C2998 C2997 1.373 . S
C2999 C2983 1.377 . S
C2999 C2997 1.389 . S
C2999 C3000 1.524 . S
C3000 C2999 1.524 . S
C3000 C3001 1.397 . S
C3000 C3005 1.363 . S
C3001 H2972 0.950 . S
C3001 C3000 1.397 . S
C3001 C3002 1.334 . S
C3002 H2973 0.950 . S
C3002 C3001 1.334 . S
C3002 C3003 1.287 . S
C3003 C3002 1.287 . S
C3003 C3004 1.524 . S
C3003 H3006 0.999 . S
C3004 H2974 0.950 . S
C3004 C3003 1.524 . S
C3004 C3005 1.415 . S
C3005 H2975 0.950 . S
C3005 C3000 1.363 . S
C3005 C3004 1.415 . S
H3006 C3003 0.999 . S
H3007 C2988 0.913 . S
C642 C178 1.068 . S
C627 C62 1.069 . S
C692 C226 1.633 . S
C677 C73 1.645 1_455 S
C727 C84 1.371 . S
C742 C262 1.388 . S
C792 C298 1.335 . S
C777 C49 1.226 . S
C842 C324 1.327 . S
C827 C118 1.302 . S
C892 C360 1.699 . S
C877 C137 1.457 . S
C927 C129 1.512 . S
C942 C395 1.513 . S
C992 C432 2.036 1_565 S
C977 C106 1.990 . S
C1027 C128 1.739 . S
C1042 C466 1.765 . S
C1092 C514 1.719 . S
C1077 C104 1.577 . S
C1127 C115 1.511 . S
C1142 C467 1.822 . S
C1192 C504 1.921 . S
C1177 C139 1.856 . S
C1227 C85 1.526 . S
C1242 C550 1.483 1_655 S
C1277 C52 1.231 . S
C1292 C539 1.234 . S
C1327 C60 0.891 . S
C1342 C540 0.915 . S
C1377 C71 1.549 1_655 S
C1392 C538 1.716 . S
C1427 C40 1.586 . S
C1442 C286 1.718 . S
C1477 C162 1.027 . S
C1492 C287 1.028 . S
C1542 C190 1.179 . S
C1527 C173 1.208 1_565 S
C1592 C215 1.729 . S
C1577 C93 1.469 . S
C1627 C51 1.480 1_545 S
C1642 C322 1.533 . S
C1692 C430 1.432 . S
C1677 C126 1.332 . S
C1742 C323 1.912 . S
C1727 C107 1.909 . S
C1792 C396 1.747 . S
C1777 C140 1.728 . S
C1842 C394 1.069 . S
C1827 C161 1.070 . S
C1877 C172 1.645 . S
C1892 C442 1.626 . S
C1927 C95 1.372 . S
C1942 C334 1.388 . S
C1992 C370 1.335 . S
C1977 C148 1.227 . S
C2027 C41 1.302 . S
C2042 C252 1.327 . S
C2092 C288 1.699 . S
C2077 C5 1.459 1_655 S
C2142 C179 1.513 . S
C2127 C19 1.512 . S
C2192 C216 2.036 . S
C2177 C29 1.990 . S
C2227 C18 1.739 . S
C2242 C502 1.765 . S
C2277 C27 1.577 . S
C2292 C478 1.719 . S
C2327 C38 1.512 . S
C2342 C503 1.822 . S
C2377 C7 1.856 . S
C2392 C468 1.921 . S
C2442 C586 1.483 . S
C2427 C96 1.526 . S
C2492 C575 1.234 . S
C2477 C151 1.231 . S
C2542 C576 0.916 . S
C2527 C159 0.888 . S
C2577 C170 1.558 . S
C2592 C574 1.720 . S
C2627 C117 1.586 . S
C2642 C358 1.697 . S
C2692 C359 1.028 . S
C2677 C63 1.027 . S
C2742 C406 1.179 . S
C2727 C74 1.206 . S
C2792 C431 1.729 . S
C2777 C82 1.470 . S
C2827 C150 1.498 . S
C2842 C250 1.533 1_556 S
C2892 C214 1.433 . S
C2877 C16 1.330 . S
C2927 C30 1.909 . S
C2942 C251 1.912 . S
C2992 C180 1.747 . S
C2977 C8 1.727 1_565 S
