# Generated by pormake.
# Topology zzz, (3,6)-cn, num edge types: 1
# Building blocks:
#     Node 0, Type 0, BuildingBlock: OLANEW_clean_sbu_2, # of connection points: 3
#     Node 1, Type 0, BuildingBlock: OLANEW_clean_sbu_2, # of connection points: 3
#     Node 2, Type 0, BuildingBlock: OLANEW_clean_sbu_2, # of connection points: 3
#     Node 3, Type 0, BuildingBlock: OLANEW_clean_sbu_2, # of connection points: 3
#     Node 4, Type 0, BuildingBlock: OLANEW_clean_sbu_2, # of connection points: 3
#     Node 5, Type 0, BuildingBlock: OLANEW_clean_sbu_2, # of connection points: 3
#     Node 6, Type 0, BuildingBlock: OLANEW_clean_sbu_2, # of connection points: 3
#     Node 7, Type 0, BuildingBlock: OLANEW_clean_sbu_2, # of connection points: 3
#     Node 8, Type 1, BuildingBlock: PAMTUU_clean_sbu_0, # of connection points: 6
#     Node 9, Type 1, BuildingBlock: PAMTUU_clean_sbu_0, # of connection points: 6
#     Node 10, Type 1, BuildingBlock: PAMTUU_clean_sbu_0, # of connection points: 6
#     Node 11, Type 1, BuildingBlock: PAMTUU_clean_sbu_0, # of connection points: 6
#     Edge 12, Type (0, 1), None
#     Edge 13, Type (0, 1), None
#     Edge 14, Type (0, 1), None
#     Edge 15, Type (0, 1), None
#     Edge 16, Type (0, 1), None
#     Edge 17, Type (0, 1), None
#     Edge 18, Type (0, 1), None
#     Edge 19, Type (0, 1), None
#     Edge 20, Type (0, 1), None
#     Edge 21, Type (0, 1), None
#     Edge 22, Type (0, 1), None
#     Edge 23, Type (0, 1), None
#     Edge 24, Type (0, 1), None
#     Edge 25, Type (0, 1), None
#     Edge 26, Type (0, 1), None
#     Edge 27, Type (0, 1), None
#     Edge 28, Type (0, 1), None
#     Edge 29, Type (0, 1), None
#     Edge 30, Type (0, 1), None
#     Edge 31, Type (0, 1), None
#     Edge 32, Type (0, 1), None
#     Edge 33, Type (0, 1), None
#     Edge 34, Type (0, 1), None
#     Edge 35, Type (0, 1), None
# Relax obj value: 0.362
# Max RMSD: 0.297
# Mean RMSD: 0.117
data_MOF--net-zzz--node1-OLANEW_clean_sbu_2--node2-PAMTUU_clean_sbu_0--edge1-none
_symmetry_space_group_name_H-M    P1
_symmetry_Int_Tables_number       1
_symmetry_cell_setting            triclinic
loop_
_symmetry_equiv_pos_as_xyz
'x, y, z'
_cell_length_a     27.386854
_cell_length_b     27.249216
_cell_length_c     10.109172
_cell_angle_alpha  108.09568
_cell_angle_beta   90.779967
_cell_angle_gamma 86.212279
loop_
_atom_site_label
_atom_site_type_symbol
_atom_site_fract_x
_atom_site_fract_y
_atom_site_fract_z
_atom_type_partial_charge
O0 O 0.71825 0.40289 0.17389 0.0
Cd1 Cd 0.6339 0.39437 0.23425 0.0
O2 O 0.73105 0.45274 0.38595 0.0
Cd3 Cd 0.77961 0.49008 0.55422 0.0
O4 O 0.84454 0.49789 0.68276 0.0
C5 C 0.87623 0.5296 0.68067 0.0
O6 O 0.86884 0.56059 0.60448 0.0
C7 C 0.74702 0.42937 0.26347 0.0
C8 C 0.56774 0.45463 0.1298 0.0
O9 O 0.57988 0.46991 0.25802 0.0
O10 O 0.58656 0.41116 0.052 0.0
O11 O 0.02136 0.7927 0.24198 0.0
Cd12 Cd 0.98525 0.74321 0.37234 0.0
O13 O 0.0739 0.8321 0.39938 0.0
Cd14 Cd 0.02362 0.82724 0.56026 0.0
O15 O 0.95309 0.83527 0.66713 0.0
C16 C 0.93207 0.87747 0.74329 0.0
O17 O 0.8883 0.87682 0.79398 0.0
C18 C 0.05944 0.81797 0.2739 0.0
C19 C 0.99025 0.64647 0.17241 0.0
O20 O 0.94893 0.67232 0.20233 0.0
O21 O 0.02784 0.6645 0.24274 0.0
O22 O 0.81329 1.00131 0.37987 0.0
Cd23 Cd 0.89741 0.9917 0.45229 0.0
O24 O 0.78764 0.98885 0.57002 0.0
Cd25 Cd 0.72947 0.98301 0.706 0.0
O26 O 0.66213 0.98808 0.8195 0.0
C27 C 0.62165 0.98774 0.75672 0.0
O28 O 0.62117 0.98244 0.62313 0.0
C29 C 0.77831 1.00046 0.45958 0.0
C30 C 0.9521 1.00473 0.24049 0.0
O31 O 0.94734 0.95944 0.24967 0.0
O32 O 0.9334 0.04402 0.33562 0.0
O33 O 0.49826 0.71841 0.112 0.0
Cd34 Cd 0.54611 0.79623 0.14014 0.0
O35 O 0.5688 0.67218 0.08221 0.0
Cd36 Cd 0.61148 0.73387 0.21011 0.0
O37 O 0.61362 0.68452 0.34546 0.0
C38 C 0.57367 0.68267 0.40586 0.0
O39 O 0.53689 0.71548 0.40045 0.0
C40 C 0.52233 0.67452 0.07912 0.0
C41 C 0.51357 0.88634 0.07205 0.0
O42 O 0.52794 0.84476 0.97645 0.0
O43 O 0.51171 0.88468 0.19726 0.0
O44 O 0.28452 0.68558 0.54496 0.0
Cd45 Cd 0.2883 0.69569 0.7933 0.0
O46 O 0.26478 0.64683 0.32952 0.0
Cd47 Cd 0.22323 0.5938 0.16766 0.0
O48 O 0.17129 0.55095 0.01842 0.0
C49 C 0.14424 0.51968 0.04813 0.0
O50 O 0.15001 0.51021 0.16704 0.0
C51 C 0.25467 0.65934 0.45864 0.0
C52 C 0.35432 0.61896 0.83673 0.0
O53 O 0.30825 0.61719 0.85316 0.0
O54 O 0.36917 0.65702 0.803 0.0
O55 O 0.95978 0.23861 0.4794 0.0
Cd56 Cd 0.01829 0.27631 0.36691 0.0
O57 O 0.92618 0.18054 0.30647 0.0
Cd58 Cd 0.97879 0.19336 0.16184 0.0
O59 O 0.05299 0.19052 0.08137 0.0
C60 C 0.07483 0.14779 0.01226 0.0
O61 O 0.12144 0.14612 0.98149 0.0
C62 C 0.92896 0.20441 0.43601 0.0
C63 C 0.02778 0.37447 0.55337 0.0
O64 O 0.00204 0.36834 0.44332 0.0
O65 O 0.05087 0.33481 0.57216 0.0
O66 O 0.19345 0.96154 0.37725 0.0
Cd67 Cd 0.11819 0.98519 0.27286 0.0
O68 O 0.21521 0.03371 0.35372 0.0
Cd69 Cd 0.26952 0.08363 0.32657 0.0
O70 O 0.33252 0.06833 0.19104 0.0
C71 C 0.3739 0.08255 0.23959 0.0
O72 O 0.37779 0.10988 0.3711 0.0
C73 C 0.22533 0.99456 0.39451 0.0
C74 C 0.05361 1.00911 0.49028 0.0
O75 O 0.05439 0.96456 0.39782 0.0
O76 O 0.08081 0.04321 0.47374 0.0
O77 O 0.46099 0.34597 0.89671 0.0
Cd78 Cd 0.42828 0.27298 0.96346 0.0
O79 O 0.38303 0.36894 0.92322 0.0
Cd80 Cd 0.32164 0.42415 0.93243 0.0
O81 O 0.31348 0.46678 0.78537 0.0
C82 C 0.3376 0.4457 0.67334 0.0
O83 O 0.36023 0.39994 0.65353 0.0
C84 C 0.42596 0.37958 0.89998 0.0
C85 C 0.46752 0.17291 0.94728 0.0
O86 O 0.48228 0.21286 0.04046 0.0
O87 O 0.43751 0.18025 0.85568 0.0
Tb88 Tb 0.95188 0.0461 0.85442 0.0
Tb89 Tb 0.05397 0.97861 0.88294 0.0
C90 C 0.97415 1.01079 0.11667 0.0
C91 C 0.87685 0.13605 0.72867 0.0
C92 C 0.90272 0.18723 0.5393 0.0
C93 C 0.87267 0.14538 0.49682 0.0
C94 C 0.85968 0.12018 0.59122 0.0
C95 C 0.90115 0.18212 0.77521 0.0
C96 C 0.91381 0.20753 0.6815 0.0
C97 C 0.87848 0.09964 0.8115 0.0
O98 O 0.00867 0.10058 0.89326 0.0
O99 O 0.06775 0.05883 -0.0081 0.0
O100 O 0.06735 1.01127 0.72016 0.0
O101 O 0.98768 1.01662 0.65068 0.0
O102 O 0.11437 0.96623 0.00036 0.0
O103 O 0.10366 0.91466 0.79358 0.0
O104 O 0.0031 0.92587 0.7531 0.0
O105 O 0.93087 0.9696 0.84464 0.0
O106 O 0.95659 0.04864 0.07153 0.0
O107 O 0.00472 0.97372 0.0432 0.0
C108 C 0.04842 0.10052 0.96716 0.0
O109 O 0.88796 0.05111 0.74054 0.0
O110 O 0.90395 0.11255 0.92576 0.0
C111 C 0.03483 1.01509 0.62773 0.0
C112 C 0.12059 0.87862 0.97545 0.0
C113 C 0.08445 0.83315 0.16542 0.0
C114 C 0.12844 0.85818 0.19252 0.0
C115 C 0.14676 0.88017 0.0968 0.0
C116 C 0.08006 0.84818 0.94111 0.0
C117 C 0.06233 0.82545 0.0349 0.0
C118 C 0.12497 0.92035 0.91338 0.0
C119 C 0.95618 0.9265 0.77883 0.0
H120 H 0.86243 0.12959 0.38876 0.0
H121 H 0.83985 0.08564 0.55381 0.0
H122 H 0.91405 0.19631 0.88121 0.0
H123 H 0.93586 0.24061 0.71891 0.0
H124 H 0.14705 0.86345 0.29071 0.0
H125 H 0.1784 0.90297 0.12401 0.0
H126 H 0.05905 0.84596 0.84807 0.0
H127 H 0.02905 0.80522 0.00896 0.0
Tb128 Tb 0.46251 1.00034 0.85217 0.0
Tb129 Tb 0.53104 0.05108 0.13008 0.0
C130 C 0.50364 0.93586 0.04183 0.0
C131 C 0.36327 0.96928 0.58095 0.0
C132 C 0.27356 0.98608 0.45515 0.0
C133 C 0.29209 0.93564 0.44461 0.0
C134 C 0.33662 0.92736 0.50631 0.0
C135 C 0.34472 1.01981 0.59308 0.0
C136 C 0.30023 0.02811 0.53076 0.0
C137 C 0.41045 0.95908 0.64294 0.0
O138 O 0.41324 0.02798 0.0318 0.0
O139 O 0.45893 0.08406 0.20048 0.0
O140 O 0.51581 0.11335 0.03741 0.0
O141 O 0.4518 0.08323 0.88799 0.0
O142 O 0.55166 0.05753 0.33606 0.0
O143 O 0.59113 0.09407 0.21308 0.0
O144 O 0.57811 1.00067 0.96759 0.0
O145 O 0.53496 1.00604 0.77676 0.0
O146 O 0.49858 0.93641 0.91279 0.0
O147 O 0.50497 0.97906 0.14522 0.0
C148 C 0.41745 0.06455 0.15202 0.0
O149 O 0.44492 0.98982 0.64288 0.0
O150 O 0.40854 0.94885 0.76039 0.0
C151 C 0.48016 0.12013 0.95429 0.0
C152 C 0.63736 0.05777 0.36148 0.0
C153 C 0.72823 1.01668 0.42764 0.0
C154 C 0.69801 0.05031 0.53299 0.0
C155 C 0.6529 0.07073 0.50004 0.0
C156 C 0.66708 1.02331 0.25644 0.0
C157 C 0.71235 1.00337 0.28913 0.0
C158 C 0.5908 0.081 0.32668 0.0
C159 C 0.57606 0.99792 0.83635 0.0
H160 H 0.27224 0.90249 0.38811 0.0
H161 H 0.35029 0.88808 0.49574 0.0
H162 H 0.36444 0.05282 0.65131 0.0
H163 H 0.28612 0.06748 0.54522 0.0
H164 H 0.71007 0.06251 0.64006 0.0
H165 H 0.63053 0.09731 0.58243 0.0
H166 H 0.65578 1.0126 0.14871 0.0
H167 H 0.73525 0.97802 0.20593 0.0
Tb168 Tb 0.42959 0.55067 0.113 0.0
Tb169 Tb 0.49174 0.51719 0.82032 0.0
C170 C 0.38974 0.58011 0.86266 0.0
C171 C 0.37006 0.5395 0.42118 0.0
C172 C 0.34644 0.47544 0.57806 0.0
C173 C 0.31718 0.52045 0.58649 0.0
C174 C 0.32946 0.55254 0.51018 0.0
C175 C 0.39825 0.49329 0.40743 0.0
C176 C 0.38666 0.46153 0.48597 0.0
C177 C 0.3802 0.57165 0.33392 0.0
O178 O 0.4272 0.4672 0.03746 0.0
O179 O 0.45393 0.44673 0.80892 0.0
O180 O 0.52999 0.4728 0.93668 0.0
O181 O 0.50243 0.52072 0.15696 0.0
O182 O 0.55949 0.51373 0.72172 0.0
O183 O 0.49297 0.49772 0.6023 0.0
O184 O 0.52314 0.58341 0.96787 0.0
O185 O 0.45519 0.62273 0.09404 0.0
O186 O 0.37881 0.55677 0.95185 0.0
O187 O 0.43447 0.57625 0.81556 0.0
C188 C 0.43543 0.43387 0.91329 0.0
O189 O 0.42543 0.58344 0.33021 0.0
O190 O 0.36145 0.55616 0.21011 0.0
C191 C 0.53226 0.485 0.07249 0.0
C192 C 0.54733 0.55292 0.547 0.0
C193 C 0.56579 0.63942 0.46138 0.0
C194 C 0.60372 0.60206 0.46223 0.0
C195 C 0.59465 0.5595 0.50626 0.0
C196 C 0.50974 0.59072 0.54833 0.0
C197 C 0.51884 0.63339 0.50613 0.0
C198 C 0.53835 0.51025 0.6031 0.0
C199 C 0.49814 0.62542 0.04168 0.0
H200 H 0.2855 0.53158 0.65479 0.0
H201 H 0.30751 0.58774 0.52215 0.0
H202 H 0.42937 0.48203 0.33694 0.0
H203 H 0.4099 0.4269 0.47711 0.0
H204 H 0.64033 0.60557 0.42851 0.0
H205 H 0.62454 0.53162 0.5081 0.0
H206 H 0.47316 0.58762 0.58295 0.0
H207 H 0.48874 0.66136 0.50709 0.0
Tb208 Tb 0.03529 0.54305 0.75378 0.0
Tb209 Tb 0.98798 0.48143 0.95307 0.0
C210 C -0.00433 0.59919 0.05424 0.0
C211 C 0.12475 0.60316 0.57827 0.0
C212 C 0.21208 0.63909 0.50746 0.0
C213 C 0.17973 0.67247 0.60694 0.0
C214 C 0.13605 0.65487 0.64067 0.0
C215 C 0.15883 0.56924 0.48524 0.0
C216 C 0.20174 0.58713 0.4491 0.0
C217 C 0.07608 0.5854 0.59833 0.0
O218 O 0.0973 0.51208 0.84467 0.0
O219 O 0.06058 0.49976 0.03532 0.0
O220 O 0.03306 0.42695 0.79081 0.0
O221 O 0.01494 0.46691 0.62811 0.0
O222 O 0.96996 0.47641 0.1497 0.0
O223 O 0.9547 0.41523 0.96197 0.0
O224 O 0.93095 0.49031 0.80895 0.0
O225 O 0.9569 0.55754 0.73917 0.0
O226 O 0.03265 0.59357 0.96838 0.0
O227 O 0.96494 0.56298 0.03872 0.0
C228 C 0.09931 0.50663 0.96923 0.0
O229 O 0.07319 0.53564 0.5698 0.0
O230 O 0.05051 0.61122 0.70906 0.0
C231 C 0.02758 0.42498 0.66051 0.0
C232 C 0.89674 0.43316 0.14461 0.0
C233 C 0.79884 0.43058 0.22591 0.0
C234 C 0.82285 0.38689 0.13111 0.0
C235 C 0.87141 0.38804 0.0918 0.0
C236 C 0.87276 0.4769 0.23999 0.0
C237 C 0.82425 0.47559 0.28003 0.0
C238 C 0.94736 0.43409 0.09598 0.0
C239 C 0.92321 0.52674 0.74947 0.0
H240 H 0.1871 0.71278 0.65353 0.0
H241 H 0.11059 0.68208 0.71241 0.0
H242 H 0.15166 0.52903 0.43686 0.0
H243 H 0.22663 0.56039 0.37433 0.0
H244 H 0.80411 0.35169 0.08761 0.0
H245 H 0.88901 0.35374 0.01855 0.0
H246 H 0.89109 0.51242 0.28215 0.0
H247 H 0.80623 0.51031 0.35001 0.0
loop_
_geom_bond_atom_site_label_1
_geom_bond_atom_site_label_2
_geom_bond_distance
_geom_bond_site_symmetry_2
_ccdc_geom_bond_type
O0 Cd1 2.300 . S
O0 C7 1.275 . S
Cd1 O0 2.300 . S
Cd1 O9 2.381 . S
Cd1 O10 2.378 . S
O2 Cd3 2.385 . S
O2 C7 1.255 . S
Cd3 O2 2.385 . S
Cd3 O4 2.317 . S
O4 Cd3 2.317 . S
O4 C5 1.232 . S
C5 O4 1.232 . S
C5 O6 1.218 . S
O6 C5 1.218 . S
C7 O0 1.275 . S
C7 O2 1.255 . S
C8 O9 1.258 . S
C8 O10 1.256 . S
O9 Cd1 2.381 . S
O9 C8 1.258 . S
O10 Cd1 2.378 . S
O10 C8 1.256 . S
O11 Cd12 2.300 1_655 S
O11 C18 1.275 1_655 S
Cd12 O11 2.300 1_455 S
Cd12 O20 2.381 1_455 S
Cd12 O21 2.378 . S
O13 Cd14 2.385 . S
O13 C18 1.255 . S
Cd14 O13 2.385 . S
Cd14 O15 2.317 . S
O15 Cd14 2.317 . S
O15 C16 1.232 . S
C16 O15 1.232 . S
C16 O17 1.218 . S
O17 C16 1.218 . S
C18 O11 1.275 1_455 S
C18 O13 1.255 . S
C19 O20 1.258 1_455 S
C19 O21 1.256 . S
O20 Cd12 2.381 1_655 S
O20 C19 1.258 1_655 S
O21 Cd12 2.378 . S
O21 C19 1.256 . S
O22 Cd23 2.300 1_565 S
O22 C29 1.275 1_565 S
Cd23 O22 2.300 1_545 S
Cd23 O31 2.381 1_545 S
Cd23 O32 2.378 . S
O24 Cd25 2.385 . S
O24 C29 1.255 . S
Cd25 O24 2.385 . S
Cd25 O26 2.317 . S
O26 Cd25 2.317 . S
O26 C27 1.232 . S
C27 O26 1.232 . S
C27 O28 1.218 . S
O28 C27 1.218 . S
C29 O22 1.275 1_545 S
C29 O24 1.255 . S
C30 O31 1.258 1_545 S
C30 O32 1.256 . S
O31 Cd23 2.381 1_565 S
O31 C30 1.258 1_565 S
O32 Cd23 2.378 . S
O32 C30 1.256 . S
O33 Cd34 2.300 . S
O33 C40 1.275 . S
Cd34 O33 2.300 . S
Cd34 O42 2.381 . S
Cd34 O43 2.378 . S
O35 Cd36 2.385 1_556 S
O35 C40 1.255 . S
Cd36 O35 2.385 1_554 S
Cd36 O37 2.317 . S
O37 Cd36 2.317 . S
O37 C38 1.232 . S
C38 O37 1.232 . S
C38 O39 1.218 . S
O39 C38 1.218 . S
C40 O33 1.275 . S
C40 O35 1.255 . S
C41 O42 1.258 . S
C41 O43 1.256 . S
O42 Cd34 2.381 . S
O42 C41 1.258 . S
O43 Cd34 2.378 . S
O43 C41 1.256 . S
O44 Cd45 2.300 . S
O44 C51 1.275 . S
Cd45 O44 2.300 . S
Cd45 O53 2.381 . S
Cd45 O54 2.378 . S
O46 Cd47 2.385 . S
O46 C51 1.255 . S
Cd47 O46 2.385 . S
Cd47 O48 2.317 1_554 S
O48 Cd47 2.317 1_556 S
O48 C49 1.232 . S
C49 O48 1.232 . S
C49 O50 1.218 . S
O50 C49 1.218 . S
C51 O44 1.275 . S
C51 O46 1.255 . S
C52 O53 1.258 . S
C52 O54 1.256 . S
O53 Cd45 2.381 . S
O53 C52 1.258 . S
O54 Cd45 2.378 . S
O54 C52 1.256 . S
O55 Cd56 2.300 1_655 S
O55 C62 1.275 1_655 S
Cd56 O55 2.300 1_455 S
Cd56 O64 2.381 1_455 S
Cd56 O65 2.378 . S
O57 Cd58 2.385 . S
O57 C62 1.255 . S
Cd58 O57 2.385 . S
Cd58 O59 2.317 . S
O59 Cd58 2.317 . S
O59 C60 1.232 . S
C60 O59 1.232 . S
C60 O61 1.218 . S
O61 C60 1.218 . S
C62 O55 1.275 1_455 S
C62 O57 1.255 . S
C63 O64 1.258 1_455 S
C63 O65 1.256 . S
O64 Cd56 2.381 1_655 S
O64 C63 1.258 1_655 S
O65 Cd56 2.378 . S
O65 C63 1.256 . S
O66 Cd67 2.300 1_565 S
O66 C73 1.275 1_565 S
Cd67 O66 2.300 1_545 S
Cd67 O75 2.381 1_545 S
Cd67 O76 2.378 . S
O68 Cd69 2.385 . S
O68 C73 1.255 . S
Cd69 O68 2.385 . S
Cd69 O70 2.317 . S
O70 Cd69 2.317 . S
O70 C71 1.232 . S
C71 O70 1.232 . S
C71 O72 1.218 . S
O72 C71 1.218 . S
C73 O66 1.275 1_545 S
C73 O68 1.255 . S
C74 O75 1.258 1_545 S
C74 O76 1.256 . S
O75 Cd67 2.381 1_565 S
O75 C74 1.258 1_565 S
O76 Cd67 2.378 . S
O76 C74 1.256 . S
O77 Cd78 2.300 1_554 S
O77 C84 1.275 . S
Cd78 O77 2.300 1_556 S
Cd78 O86 2.381 1_556 S
Cd78 O87 2.378 . S
O79 Cd80 2.385 . S
O79 C84 1.255 1_556 S
Cd80 O79 2.385 . S
Cd80 O81 2.317 . S
O81 Cd80 2.317 . S
O81 C82 1.232 . S
C82 O81 1.232 . S
C82 O83 1.218 . S
O83 C82 1.218 . S
C84 O77 1.275 . S
C84 O79 1.255 1_554 S
C85 O86 1.258 1_556 S
C85 O87 1.256 . S
O86 Cd78 2.381 1_554 S
O86 C85 1.258 1_554 S
O87 Cd78 2.378 . S
O87 C85 1.256 . S
Tb88 C97 2.764 . S
Tb88 O98 2.325 . S
Tb88 O101 2.303 1_655 S
Tb88 O105 2.322 1_545 S
Tb88 O106 2.349 . S
Tb88 O109 2.415 . S
Tb88 O110 2.399 . S
Tb89 O99 2.322 1_565 S
Tb89 O100 2.349 1_554 S
Tb89 O102 2.415 . S
Tb89 O103 2.399 . S
Tb89 O104 2.325 1_554 S
Tb89 O107 2.303 1_455 S
Tb89 C118 2.764 . S
C90 O106 1.261 1_554 S
C90 O107 1.257 1_545 S
C91 C94 1.358 . S
C91 C95 1.332 . S
C91 C97 1.504 . S
C92 C93 1.373 . S
C92 C96 1.308 . S
C93 C92 1.373 . S
C93 C94 1.429 . S
C93 H120 0.932 . S
C94 C91 1.358 . S
C94 C93 1.429 . S
C94 H121 0.930 . S
C95 C91 1.332 . S
C95 C96 1.394 . S
C95 H122 0.932 . S
C96 C92 1.308 . S
C96 C95 1.394 . S
C96 H123 0.929 . S
C97 Tb88 2.764 . S
C97 C91 1.504 . S
C97 O109 1.239 . S
C97 O110 1.263 . S
O98 Tb88 2.325 . S
O98 C108 1.236 1_656 S
O99 Tb89 2.322 1_545 S
O99 C108 1.257 . S
O100 Tb89 2.349 1_556 S
O100 C111 1.261 . S
O101 Tb88 2.303 1_455 S
O101 C111 1.257 1_545 S
O102 Tb89 2.415 . S
O102 C118 1.239 . S
O103 Tb89 2.399 . S
O103 C118 1.263 . S
O104 Tb89 2.325 1_556 S
O104 C119 1.236 1_455 S
O105 Tb88 2.322 1_565 S
O105 C119 1.257 . S
O106 Tb88 2.349 . S
O106 C90 1.261 1_556 S
O107 Tb89 2.303 1_655 S
O107 C90 1.257 1_565 S
C108 O98 1.236 1_454 S
C108 O99 1.257 . S
O109 Tb88 2.415 . S
O109 C97 1.239 . S
O110 Tb88 2.399 . S
O110 C97 1.263 . S
C111 O100 1.261 . S
C111 O101 1.257 1_565 S
C112 C115 1.358 . S
C112 C116 1.332 . S
C112 C118 1.504 . S
C113 C114 1.373 . S
C113 C117 1.308 . S
C114 C113 1.373 . S
C114 C115 1.429 . S
C114 H124 0.932 . S
C115 C112 1.358 . S
C115 C114 1.429 . S
C115 H125 0.930 . S
C116 C112 1.332 . S
C116 C117 1.394 . S
C116 H126 0.932 . S
C117 C113 1.308 . S
C117 C116 1.394 . S
C117 H127 0.929 . S
C118 Tb89 2.764 . S
C118 O102 1.239 . S
C118 O103 1.263 . S
C118 C112 1.504 . S
C119 O104 1.236 1_655 S
C119 O105 1.257 . S
H120 C93 0.932 . S
H121 C94 0.930 . S
H122 C95 0.932 . S
H123 C96 0.929 . S
H124 C114 0.932 . S
H125 C115 0.930 . S
H126 C116 0.932 . S
H127 C117 0.929 . S
Tb128 C137 2.764 . S
Tb128 O138 2.325 . S
Tb128 O141 2.303 1_565 S
Tb128 O145 2.322 . S
Tb128 O146 2.349 . S
Tb128 O149 2.415 1_565 S
Tb128 O150 2.399 . S
Tb129 O139 2.322 . S
Tb129 O140 2.349 . S
Tb129 O142 2.415 1_545 S
Tb129 O143 2.399 . S
Tb129 O144 2.325 1_554 S
Tb129 O147 2.303 1_544 S
Tb129 C158 2.764 . S
C130 O146 1.261 . S
C130 O147 1.257 . S
C131 C134 1.358 . S
C131 C135 1.332 1_565 S
C131 C137 1.504 . S
C132 C133 1.373 . S
C132 C136 1.308 1_565 S
C133 C132 1.373 . S
C133 C134 1.429 . S
C133 H160 0.932 . S
C134 C131 1.358 . S
C134 C133 1.429 . S
C134 H161 0.930 . S
C135 C131 1.332 1_545 S
C135 C136 1.394 . S
C135 H162 0.932 . S
C136 C132 1.308 1_545 S
C136 C135 1.394 . S
C136 H163 0.929 . S
C137 Tb128 2.764 . S
C137 C131 1.504 . S
C137 O149 1.239 1_565 S
C137 O150 1.263 . S
O138 Tb128 2.325 . S
O138 C148 1.236 1_566 S
O139 Tb129 2.322 . S
O139 C148 1.257 . S
O140 Tb129 2.349 . S
O140 C151 1.261 1_554 S
O141 Tb128 2.303 1_545 S
O141 C151 1.257 . S
O142 Tb129 2.415 1_565 S
O142 C158 1.239 1_565 S
O143 Tb129 2.399 . S
O143 C158 1.263 . S
O144 Tb129 2.325 1_556 S
O144 C159 1.236 1_545 S
O145 Tb128 2.322 . S
O145 C159 1.257 . S
O146 Tb128 2.349 . S
O146 C130 1.261 . S
O147 Tb129 2.303 1_566 S
O147 C130 1.257 . S
C148 O138 1.236 1_544 S
C148 O139 1.257 . S
O149 Tb128 2.415 1_545 S
O149 C137 1.239 1_545 S
O150 Tb128 2.399 . S
O150 C137 1.263 . S
C151 O140 1.261 1_556 S
C151 O141 1.257 . S
C152 C155 1.358 . S
C152 C156 1.332 1_545 S
C152 C158 1.504 . S
C153 C154 1.373 . S
C153 C157 1.308 1_545 S
C154 C153 1.373 . S
C154 C155 1.429 . S
C154 H164 0.932 . S
C155 C152 1.358 . S
C155 C154 1.429 . S
C155 H165 0.930 . S
C156 C152 1.332 1_565 S
C156 C157 1.394 . S
C156 H166 0.932 . S
C157 C153 1.308 1_565 S
C157 C156 1.394 . S
C157 H167 0.929 . S
C158 Tb129 2.764 . S
C158 O142 1.239 1_545 S
C158 O143 1.263 . S
C158 C152 1.504 . S
C159 O144 1.236 1_565 S
C159 O145 1.257 . S
H160 C133 0.932 . S
H161 C134 0.930 . S
H162 C135 0.932 . S
H163 C136 0.929 . S
H164 C154 0.932 . S
H165 C155 0.930 . S
H166 C156 0.932 . S
H167 C157 0.929 . S
Tb168 C177 2.764 . S
Tb168 O178 2.325 1_554 S
Tb168 O181 2.303 . S
Tb168 O185 2.322 . S
Tb168 O186 2.349 1_554 S
Tb168 O189 2.415 . S
Tb168 O190 2.399 . S
Tb169 O179 2.322 . S
Tb169 O180 2.349 . S
Tb169 O182 2.415 . S
Tb169 O183 2.399 . S
Tb169 O184 2.325 . S
Tb169 O187 2.303 . S
Tb169 C198 2.764 . S
C170 O186 1.261 . S
C170 O187 1.257 . S
C171 C174 1.358 . S
C171 C175 1.332 . S
C171 C177 1.504 . S
C172 C173 1.373 . S
C172 C176 1.308 . S
C173 C172 1.373 . S
C173 C174 1.429 . S
C173 H200 0.932 . S
C174 C171 1.358 . S
C174 C173 1.429 . S
C174 H201 0.930 . S
C175 C171 1.332 . S
C175 C176 1.394 . S
C175 H202 0.932 . S
C176 C172 1.308 . S
C176 C175 1.394 . S
C176 H203 0.929 . S
C177 Tb168 2.764 . S
C177 C171 1.504 . S
C177 O189 1.239 . S
C177 O190 1.263 . S
O178 Tb168 2.325 1_556 S
O178 C188 1.236 . S
O179 Tb169 2.322 . S
O179 C188 1.257 . S
O180 Tb169 2.349 . S
O180 C191 1.261 1_556 S
O181 Tb168 2.303 . S
O181 C191 1.257 . S
O182 Tb169 2.415 . S
O182 C198 1.239 . S
O183 Tb169 2.399 . S
O183 C198 1.263 . S
O184 Tb169 2.325 . S
O184 C199 1.236 . S
O185 Tb168 2.322 . S
O185 C199 1.257 1_554 S
O186 Tb168 2.349 1_556 S
O186 C170 1.261 . S
O187 Tb169 2.303 . S
O187 C170 1.257 . S
C188 O178 1.236 . S
C188 O179 1.257 . S
O189 Tb168 2.415 . S
O189 C177 1.239 . S
O190 Tb168 2.399 . S
O190 C177 1.263 . S
C191 O180 1.261 1_554 S
C191 O181 1.257 . S
C192 C195 1.358 . S
C192 C196 1.332 . S
C192 C198 1.504 . S
C193 C194 1.373 . S
C193 C197 1.308 . S
C194 C193 1.373 . S
C194 C195 1.429 . S
C194 H204 0.932 . S
C195 C192 1.358 . S
C195 C194 1.429 . S
C195 H205 0.930 . S
C196 C192 1.332 . S
C196 C197 1.394 . S
C196 H206 0.932 . S
C197 C193 1.308 . S
C197 C196 1.394 . S
C197 H207 0.929 . S
C198 Tb169 2.764 . S
C198 O182 1.239 . S
C198 O183 1.263 . S
C198 C192 1.504 . S
C199 O184 1.236 . S
C199 O185 1.257 1_556 S
H200 C173 0.932 . S
H201 C174 0.930 . S
H202 C175 0.932 . S
H203 C176 0.929 . S
H204 C194 0.932 . S
H205 C195 0.930 . S
H206 C196 0.932 . S
H207 C197 0.929 . S
Tb208 C217 2.764 . S
Tb208 O218 2.325 . S
Tb208 O221 2.303 . S
Tb208 O225 2.322 1_455 S
Tb208 O226 2.345 1_556 S
Tb208 O229 2.415 . S
Tb208 O230 2.399 . S
Tb209 O219 2.322 1_655 S
Tb209 O220 2.349 1_554 S
Tb209 O222 2.415 . S
Tb209 O223 2.399 . S
Tb209 O224 2.325 1_554 S
Tb209 O227 2.303 . S
Tb209 C238 2.764 . S
C210 O226 1.267 . S
C210 O227 1.257 1_455 S
C211 C214 1.358 . S
C211 C215 1.332 . S
C211 C217 1.504 . S
C212 C213 1.373 . S
C212 C216 1.308 . S
C213 C212 1.373 . S
C213 C214 1.429 . S
C213 H240 0.932 . S
C214 C211 1.358 . S
C214 C213 1.429 . S
C214 H241 0.930 . S
C215 C211 1.332 . S
C215 C216 1.394 . S
C215 H242 0.932 . S
C216 C212 1.308 . S
C216 C215 1.394 . S
C216 H243 0.929 . S
C217 Tb208 2.764 . S
C217 C211 1.504 . S
C217 O229 1.239 . S
C217 O230 1.263 . S
O218 Tb208 2.325 . S
O218 C228 1.236 1_556 S
O219 Tb209 2.322 1_455 S
O219 C228 1.257 . S
O220 Tb209 2.349 1_556 S
O220 C231 1.261 . S
O221 Tb208 2.303 . S
O221 C231 1.257 1_455 S
O222 Tb209 2.415 . S
O222 C238 1.239 . S
O223 Tb209 2.399 . S
O223 C238 1.263 . S
O224 Tb209 2.325 1_556 S
O224 C239 1.236 . S
O225 Tb208 2.322 1_655 S
O225 C239 1.257 . S
O226 Tb208 2.345 1_554 S
O226 C210 1.267 . S
O227 Tb209 2.303 . S
O227 C210 1.257 1_655 S
C228 O218 1.236 1_554 S
C228 O219 1.257 . S
O229 Tb208 2.415 . S
O229 C217 1.239 . S
O230 Tb208 2.399 . S
O230 C217 1.263 . S
C231 O220 1.261 . S
C231 O221 1.257 1_655 S
C232 C235 1.358 . S
C232 C236 1.332 . S
C232 C238 1.504 . S
C233 C234 1.373 . S
C233 C237 1.308 . S
C234 C233 1.373 . S
C234 C235 1.429 . S
C234 H244 0.932 . S
C235 C232 1.358 . S
C235 C234 1.429 . S
C235 H245 0.930 . S
C236 C232 1.332 . S
C236 C237 1.394 . S
C236 H246 0.932 . S
C237 C233 1.308 . S
C237 C236 1.394 . S
C237 H247 0.929 . S
C238 Tb209 2.764 . S
C238 O222 1.239 . S
C238 O223 1.263 . S
C238 C232 1.504 . S
C239 O224 1.236 . S
C239 O225 1.257 . S
H240 C213 0.932 . S
H241 C214 0.930 . S
H242 C215 0.932 . S
H243 C216 0.929 . S
H244 C234 0.932 . S
H245 C235 0.930 . S
H246 C236 0.932 . S
H247 C237 0.929 . S
C74 C111 3.971 1_545 S
C151 C85 2.441 . S
C170 C52 3.982 . S
C231 C63 2.464 1_655 S
C90 C30 3.960 . S
C41 C130 2.289 . S
C8 C191 3.864 . S
C19 C210 2.439 . S
C92 C62 2.999 1_655 S
C132 C73 1.358 1_565 S
C188 C84 3.051 1_556 S
C51 C212 2.044 . S
C18 C113 2.532 . S
C153 C29 0.921 . S
C199 C40 2.790 . S
C7 C233 1.584 . S
C60 C108 2.460 . S
C71 C148 3.758 . S
C172 C82 2.228 . S
C228 C49 3.860 1_554 S
C16 C119 2.696 1_455 S
C159 C27 3.823 1_565 S
C193 C38 3.188 . S
C5 C239 3.616 . S
