# Generated by pormake.
# Topology gar, (4,6)-cn, num edge types: 1
# Building blocks:
#     Node 0, Type 0, BuildingBlock: CEKHIL_clean_sbu_0, # of connection points: 4
#     Node 1, Type 0, BuildingBlock: CEKHIL_clean_sbu_0, # of connection points: 4
#     Node 2, Type 0, BuildingBlock: CEKHIL_clean_sbu_0, # of connection points: 4
#     Node 3, Type 0, BuildingBlock: CEKHIL_clean_sbu_0, # of connection points: 4
#     Node 4, Type 0, BuildingBlock: CEKHIL_clean_sbu_0, # of connection points: 4
#     Node 5, Type 0, BuildingBlock: CEKHIL_clean_sbu_0, # of connection points: 4
#     Node 6, Type 0, BuildingBlock: CEKHIL_clean_sbu_0, # of connection points: 4
#     Node 7, Type 0, BuildingBlock: CEKHIL_clean_sbu_0, # of connection points: 4
#     Node 8, Type 0, BuildingBlock: CEKHIL_clean_sbu_0, # of connection points: 4
#     Node 9, Type 0, BuildingBlock: CEKHIL_clean_sbu_0, # of connection points: 4
#     Node 10, Type 0, BuildingBlock: CEKHIL_clean_sbu_0, # of connection points: 4
#     Node 11, Type 0, BuildingBlock: CEKHIL_clean_sbu_0, # of connection points: 4
#     Node 12, Type 0, BuildingBlock: CEKHIL_clean_sbu_0, # of connection points: 4
#     Node 13, Type 0, BuildingBlock: CEKHIL_clean_sbu_0, # of connection points: 4
#     Node 14, Type 0, BuildingBlock: CEKHIL_clean_sbu_0, # of connection points: 4
#     Node 15, Type 0, BuildingBlock: CEKHIL_clean_sbu_0, # of connection points: 4
#     Node 16, Type 0, BuildingBlock: CEKHIL_clean_sbu_0, # of connection points: 4
#     Node 17, Type 0, BuildingBlock: CEKHIL_clean_sbu_0, # of connection points: 4
#     Node 18, Type 0, BuildingBlock: CEKHIL_clean_sbu_0, # of connection points: 4
#     Node 19, Type 0, BuildingBlock: CEKHIL_clean_sbu_0, # of connection points: 4
#     Node 20, Type 0, BuildingBlock: CEKHIL_clean_sbu_0, # of connection points: 4
#     Node 21, Type 0, BuildingBlock: CEKHIL_clean_sbu_0, # of connection points: 4
#     Node 22, Type 0, BuildingBlock: CEKHIL_clean_sbu_0, # of connection points: 4
#     Node 23, Type 0, BuildingBlock: CEKHIL_clean_sbu_0, # of connection points: 4
#     Node 24, Type 1, BuildingBlock: KUMBUR_clean_sbu_0, # of connection points: 6
#     Node 25, Type 1, BuildingBlock: KUMBUR_clean_sbu_0, # of connection points: 6
#     Node 26, Type 1, BuildingBlock: KUMBUR_clean_sbu_0, # of connection points: 6
#     Node 27, Type 1, BuildingBlock: KUMBUR_clean_sbu_0, # of connection points: 6
#     Node 28, Type 1, BuildingBlock: KUMBUR_clean_sbu_0, # of connection points: 6
#     Node 29, Type 1, BuildingBlock: KUMBUR_clean_sbu_0, # of connection points: 6
#     Node 30, Type 1, BuildingBlock: KUMBUR_clean_sbu_0, # of connection points: 6
#     Node 31, Type 1, BuildingBlock: KUMBUR_clean_sbu_0, # of connection points: 6
#     Node 32, Type 1, BuildingBlock: KUMBUR_clean_sbu_0, # of connection points: 6
#     Node 33, Type 1, BuildingBlock: KUMBUR_clean_sbu_0, # of connection points: 6
#     Node 34, Type 1, BuildingBlock: KUMBUR_clean_sbu_0, # of connection points: 6
#     Node 35, Type 1, BuildingBlock: KUMBUR_clean_sbu_0, # of connection points: 6
#     Node 36, Type 1, BuildingBlock: KUMBUR_clean_sbu_0, # of connection points: 6
#     Node 37, Type 1, BuildingBlock: KUMBUR_clean_sbu_0, # of connection points: 6
#     Node 38, Type 1, BuildingBlock: KUMBUR_clean_sbu_0, # of connection points: 6
#     Node 39, Type 1, BuildingBlock: KUMBUR_clean_sbu_0, # of connection points: 6
#     Edge 40, Type (0, 1), BuildingBlock: UVAHIK_clean_linker_0, # of connection points: 2
#     Edge 41, Type (0, 1), BuildingBlock: UVAHIK_clean_linker_0, # of connection points: 2
#     Edge 42, Type (0, 1), BuildingBlock: UVAHIK_clean_linker_0, # of connection points: 2
#     Edge 43, Type (0, 1), BuildingBlock: UVAHIK_clean_linker_0, # of connection points: 2
#     Edge 44, Type (0, 1), BuildingBlock: UVAHIK_clean_linker_0, # of connection points: 2
#     Edge 45, Type (0, 1), BuildingBlock: UVAHIK_clean_linker_0, # of connection points: 2
#     Edge 46, Type (0, 1), BuildingBlock: UVAHIK_clean_linker_0, # of connection points: 2
#     Edge 47, Type (0, 1), BuildingBlock: UVAHIK_clean_linker_0, # of connection points: 2
#     Edge 48, Type (0, 1), BuildingBlock: UVAHIK_clean_linker_0, # of connection points: 2
#     Edge 49, Type (0, 1), BuildingBlock: UVAHIK_clean_linker_0, # of connection points: 2
#     Edge 50, Type (0, 1), BuildingBlock: UVAHIK_clean_linker_0, # of connection points: 2
#     Edge 51, Type (0, 1), BuildingBlock: UVAHIK_clean_linker_0, # of connection points: 2
#     Edge 52, Type (0, 1), BuildingBlock: UVAHIK_clean_linker_0, # of connection points: 2
#     Edge 53, Type (0, 1), BuildingBlock: UVAHIK_clean_linker_0, # of connection points: 2
#     Edge 54, Type (0, 1), BuildingBlock: UVAHIK_clean_linker_0, # of connection points: 2
#     Edge 55, Type (0, 1), BuildingBlock: UVAHIK_clean_linker_0, # of connection points: 2
#     Edge 56, Type (0, 1), BuildingBlock: UVAHIK_clean_linker_0, # of connection points: 2
#     Edge 57, Type (0, 1), BuildingBlock: UVAHIK_clean_linker_0, # of connection points: 2
#     Edge 58, Type (0, 1), BuildingBlock: UVAHIK_clean_linker_0, # of connection points: 2
#     Edge 59, Type (0, 1), BuildingBlock: UVAHIK_clean_linker_0, # of connection points: 2
#     Edge 60, Type (0, 1), BuildingBlock: UVAHIK_clean_linker_0, # of connection points: 2
#     Edge 61, Type (0, 1), BuildingBlock: UVAHIK_clean_linker_0, # of connection points: 2
#     Edge 62, Type (0, 1), BuildingBlock: UVAHIK_clean_linker_0, # of connection points: 2
#     Edge 63, Type (0, 1), BuildingBlock: UVAHIK_clean_linker_0, # of connection points: 2
#     Edge 64, Type (0, 1), BuildingBlock: UVAHIK_clean_linker_0, # of connection points: 2
#     Edge 65, Type (0, 1), BuildingBlock: UVAHIK_clean_linker_0, # of connection points: 2
#     Edge 66, Type (0, 1), BuildingBlock: UVAHIK_clean_linker_0, # of connection points: 2
#     Edge 67, Type (0, 1), BuildingBlock: UVAHIK_clean_linker_0, # of connection points: 2
#     Edge 68, Type (0, 1), BuildingBlock: UVAHIK_clean_linker_0, # of connection points: 2
#     Edge 69, Type (0, 1), BuildingBlock: UVAHIK_clean_linker_0, # of connection points: 2
#     Edge 70, Type (0, 1), BuildingBlock: UVAHIK_clean_linker_0, # of connection points: 2
#     Edge 71, Type (0, 1), BuildingBlock: UVAHIK_clean_linker_0, # of connection points: 2
#     Edge 72, Type (0, 1), BuildingBlock: UVAHIK_clean_linker_0, # of connection points: 2
#     Edge 73, Type (0, 1), BuildingBlock: UVAHIK_clean_linker_0, # of connection points: 2
#     Edge 74, Type (0, 1), BuildingBlock: UVAHIK_clean_linker_0, # of connection points: 2
#     Edge 75, Type (0, 1), BuildingBlock: UVAHIK_clean_linker_0, # of connection points: 2
#     Edge 76, Type (0, 1), BuildingBlock: UVAHIK_clean_linker_0, # of connection points: 2
#     Edge 77, Type (0, 1), BuildingBlock: UVAHIK_clean_linker_0, # of connection points: 2
#     Edge 78, Type (0, 1), BuildingBlock: UVAHIK_clean_linker_0, # of connection points: 2
#     Edge 79, Type (0, 1), BuildingBlock: UVAHIK_clean_linker_0, # of connection points: 2
#     Edge 80, Type (0, 1), BuildingBlock: UVAHIK_clean_linker_0, # of connection points: 2
#     Edge 81, Type (0, 1), BuildingBlock: UVAHIK_clean_linker_0, # of connection points: 2
#     Edge 82, Type (0, 1), BuildingBlock: UVAHIK_clean_linker_0, # of connection points: 2
#     Edge 83, Type (0, 1), BuildingBlock: UVAHIK_clean_linker_0, # of connection points: 2
#     Edge 84, Type (0, 1), BuildingBlock: UVAHIK_clean_linker_0, # of connection points: 2
#     Edge 85, Type (0, 1), BuildingBlock: UVAHIK_clean_linker_0, # of connection points: 2
#     Edge 86, Type (0, 1), BuildingBlock: UVAHIK_clean_linker_0, # of connection points: 2
#     Edge 87, Type (0, 1), BuildingBlock: UVAHIK_clean_linker_0, # of connection points: 2
#     Edge 88, Type (0, 1), BuildingBlock: UVAHIK_clean_linker_0, # of connection points: 2
#     Edge 89, Type (0, 1), BuildingBlock: UVAHIK_clean_linker_0, # of connection points: 2
#     Edge 90, Type (0, 1), BuildingBlock: UVAHIK_clean_linker_0, # of connection points: 2
#     Edge 91, Type (0, 1), BuildingBlock: UVAHIK_clean_linker_0, # of connection points: 2
#     Edge 92, Type (0, 1), BuildingBlock: UVAHIK_clean_linker_0, # of connection points: 2
#     Edge 93, Type (0, 1), BuildingBlock: UVAHIK_clean_linker_0, # of connection points: 2
#     Edge 94, Type (0, 1), BuildingBlock: UVAHIK_clean_linker_0, # of connection points: 2
#     Edge 95, Type (0, 1), BuildingBlock: UVAHIK_clean_linker_0, # of connection points: 2
#     Edge 96, Type (0, 1), BuildingBlock: UVAHIK_clean_linker_0, # of connection points: 2
#     Edge 97, Type (0, 1), BuildingBlock: UVAHIK_clean_linker_0, # of connection points: 2
#     Edge 98, Type (0, 1), BuildingBlock: UVAHIK_clean_linker_0, # of connection points: 2
#     Edge 99, Type (0, 1), BuildingBlock: UVAHIK_clean_linker_0, # of connection points: 2
#     Edge 100, Type (0, 1), BuildingBlock: UVAHIK_clean_linker_0, # of connection points: 2
#     Edge 101, Type (0, 1), BuildingBlock: UVAHIK_clean_linker_0, # of connection points: 2
#     Edge 102, Type (0, 1), BuildingBlock: UVAHIK_clean_linker_0, # of connection points: 2
#     Edge 103, Type (0, 1), BuildingBlock: UVAHIK_clean_linker_0, # of connection points: 2
#     Edge 104, Type (0, 1), BuildingBlock: UVAHIK_clean_linker_0, # of connection points: 2
#     Edge 105, Type (0, 1), BuildingBlock: UVAHIK_clean_linker_0, # of connection points: 2
#     Edge 106, Type (0, 1), BuildingBlock: UVAHIK_clean_linker_0, # of connection points: 2
#     Edge 107, Type (0, 1), BuildingBlock: UVAHIK_clean_linker_0, # of connection points: 2
#     Edge 108, Type (0, 1), BuildingBlock: UVAHIK_clean_linker_0, # of connection points: 2
#     Edge 109, Type (0, 1), BuildingBlock: UVAHIK_clean_linker_0, # of connection points: 2
#     Edge 110, Type (0, 1), BuildingBlock: UVAHIK_clean_linker_0, # of connection points: 2
#     Edge 111, Type (0, 1), BuildingBlock: UVAHIK_clean_linker_0, # of connection points: 2
#     Edge 112, Type (0, 1), BuildingBlock: UVAHIK_clean_linker_0, # of connection points: 2
#     Edge 113, Type (0, 1), BuildingBlock: UVAHIK_clean_linker_0, # of connection points: 2
#     Edge 114, Type (0, 1), BuildingBlock: UVAHIK_clean_linker_0, # of connection points: 2
#     Edge 115, Type (0, 1), BuildingBlock: UVAHIK_clean_linker_0, # of connection points: 2
#     Edge 116, Type (0, 1), BuildingBlock: UVAHIK_clean_linker_0, # of connection points: 2
#     Edge 117, Type (0, 1), BuildingBlock: UVAHIK_clean_linker_0, # of connection points: 2
#     Edge 118, Type (0, 1), BuildingBlock: UVAHIK_clean_linker_0, # of connection points: 2
#     Edge 119, Type (0, 1), BuildingBlock: UVAHIK_clean_linker_0, # of connection points: 2
#     Edge 120, Type (0, 1), BuildingBlock: UVAHIK_clean_linker_0, # of connection points: 2
#     Edge 121, Type (0, 1), BuildingBlock: UVAHIK_clean_linker_0, # of connection points: 2
#     Edge 122, Type (0, 1), BuildingBlock: UVAHIK_clean_linker_0, # of connection points: 2
#     Edge 123, Type (0, 1), BuildingBlock: UVAHIK_clean_linker_0, # of connection points: 2
#     Edge 124, Type (0, 1), BuildingBlock: UVAHIK_clean_linker_0, # of connection points: 2
#     Edge 125, Type (0, 1), BuildingBlock: UVAHIK_clean_linker_0, # of connection points: 2
#     Edge 126, Type (0, 1), BuildingBlock: UVAHIK_clean_linker_0, # of connection points: 2
#     Edge 127, Type (0, 1), BuildingBlock: UVAHIK_clean_linker_0, # of connection points: 2
#     Edge 128, Type (0, 1), BuildingBlock: UVAHIK_clean_linker_0, # of connection points: 2
#     Edge 129, Type (0, 1), BuildingBlock: UVAHIK_clean_linker_0, # of connection points: 2
#     Edge 130, Type (0, 1), BuildingBlock: UVAHIK_clean_linker_0, # of connection points: 2
#     Edge 131, Type (0, 1), BuildingBlock: UVAHIK_clean_linker_0, # of connection points: 2
#     Edge 132, Type (0, 1), BuildingBlock: UVAHIK_clean_linker_0, # of connection points: 2
#     Edge 133, Type (0, 1), BuildingBlock: UVAHIK_clean_linker_0, # of connection points: 2
#     Edge 134, Type (0, 1), BuildingBlock: UVAHIK_clean_linker_0, # of connection points: 2
#     Edge 135, Type (0, 1), BuildingBlock: UVAHIK_clean_linker_0, # of connection points: 2
# Relax obj value: 0.114
# Max RMSD: 0.306
# Mean RMSD: 0.147
data_MOF--net-gar--node1-CEKHIL_clean_sbu_0--node2-KUMBUR_clean_sbu_0--edge1-UVAHIK_clean_linker_0
_symmetry_space_group_name_H-M    P1
_symmetry_Int_Tables_number       1
_symmetry_cell_setting            triclinic
loop_
_symmetry_equiv_pos_as_xyz
'x, y, z'
_cell_length_a     77.145047
_cell_length_b     71.644099
_cell_length_c     70.962841
_cell_angle_alpha  99.79897
_cell_angle_beta   93.175152
_cell_angle_gamma 101.9055
loop_
_atom_site_label
_atom_site_type_symbol
_atom_site_fract_x
_atom_site_fract_y
_atom_site_fract_z
_atom_type_partial_charge
Co0 Co 0.10198 0.3189 0.39122 0.0
O1 O 0.12636 0.31662 0.39155 0.0
O2 O 0.10562 0.30328 0.36739 0.0
C3 C 0.10779 0.35115 0.40204 0.0
O4 O 0.07582 0.31892 0.38526 0.0
Co5 Co 0.08588 0.33359 0.42883 0.0
O6 O 0.06546 0.33447 0.41105 0.0
C7 C 0.09478 0.29504 0.422 0.0
C8 C 0.12218 0.30662 0.37426 0.0
C9 C 0.06364 0.32633 0.3934 0.0
O10 O 0.09589 0.29548 0.40401 0.0
O11 O 0.09293 0.30958 0.43435 0.0
O12 O 0.10845 0.34446 0.38395 0.0
O13 O 0.10521 0.33835 0.41291 0.0
Co14 Co 0.00974 0.77561 0.6601 0.0
O15 O 0.98521 0.77722 0.65892 0.0
O16 O 1.00073 0.77326 0.68462 0.0
C17 C 0.01914 0.80093 0.64548 0.0
O18 O 0.03516 0.77388 0.667 0.0
Co19 Co 0.02879 0.76754 0.62301 0.0
O20 O 0.05055 0.77217 0.64102 0.0
C21 C 1.00263 0.7362 0.63444 0.0
C22 C 0.98575 0.77527 0.67679 0.0
C23 C 0.04966 0.77321 0.65905 0.0
O24 O 1.00275 0.74663 0.65112 0.0
O25 O 0.01042 0.74272 0.62066 0.0
O26 O 0.0171 0.80397 0.66373 0.0
O27 O 0.01423 0.78316 0.63668 0.0
Co28 Co 0.59909 0.8211 0.88881 0.0
O29 O 0.62321 0.8186 0.89253 0.0
O30 O 0.60465 0.80382 0.86692 0.0
C31 C 0.60544 0.85362 0.89752 0.0
O32 O 0.57363 0.82135 0.87945 0.0
Co33 Co 0.58015 0.83884 0.92285 0.0
O34 O 0.56246 0.84023 0.90219 0.0
C35 C 0.58419 0.79815 0.91887 0.0
C36 C 0.62062 0.80764 0.87565 0.0
C37 C 0.56158 0.83047 0.88525 0.0
O38 O 0.59078 0.79876 0.90262 0.0
O39 O 0.58028 0.81283 0.92934 0.0
O40 O 0.60714 0.84564 0.88007 0.0
O41 O 0.60125 0.8419 0.90927 0.0
Co42 Co 0.51049 0.27535 0.16259 0.0
O43 O 0.48576 0.2761 0.16087 0.0
O44 O 0.5012 0.27352 0.1872 0.0
C45 C 0.51923 0.30014 0.14693 0.0
O46 O 0.53631 0.27467 0.16966 0.0
Co47 Co 0.52858 0.26603 0.1249 0.0
O48 O 0.55039 0.27056 0.14277 0.0
C49 C 0.50374 0.23519 0.13833 0.0
C50 C 0.48608 0.2746 0.17883 0.0
C51 C 0.55031 0.27299 0.161 0.0
O52 O 0.5043 0.24619 0.15477 0.0
O53 O 0.51066 0.24113 0.12385 0.0
O54 O 0.51715 0.30373 0.16515 0.0
O55 O 0.51459 0.28215 0.13878 0.0
Co56 Co 0.08103 0.81914 0.12646 0.0
O57 O 0.05509 0.81524 0.12358 0.0
O58 O 0.0707 0.8128 0.14957 0.0
C59 C 0.08551 0.84766 0.11393 0.0
O60 O 0.1074 0.82238 0.13693 0.0
Co61 Co 0.10485 0.81961 0.09455 0.0
O62 O 0.12553 0.82226 0.11348 0.0
C63 C 0.08402 0.7817 0.09962 0.0
C64 C 0.05519 0.8122 0.14112 0.0
C65 C 0.12301 0.82268 0.13108 0.0
O66 O 0.07932 0.79026 0.11547 0.0
O67 O 0.09301 0.79125 0.08837 0.0
O68 O 0.08309 0.84748 0.13187 0.0
O69 O 0.08509 0.83066 0.10381 0.0
Co70 Co 0.52723 0.77424 0.41815 0.0
O71 O 0.55308 0.77852 0.42086 0.0
O72 O 0.53619 0.76375 0.39435 0.0
C73 C 0.5263 0.80549 0.43182 0.0
O74 O 0.50037 0.7686 0.40837 0.0
Co75 Co 0.50488 0.77737 0.4518 0.0
O76 O 0.48588 0.77971 0.43282 0.0
C77 C 0.52106 0.74319 0.44409 0.0
C78 C 0.55216 0.77034 0.40294 0.0
C79 C 0.48637 0.77375 0.41494 0.0
O80 O 0.52543 0.7483 0.42799 0.0
O81 O 0.51364 0.75369 0.45618 0.0
O82 O 0.52903 0.80088 0.41391 0.0
O83 O 0.52538 0.79146 0.44138 0.0
Co84 Co 0.58049 0.31727 0.62499 0.0
O85 O 0.55457 0.31309 0.6219 0.0
O86 O 0.57006 0.31024 0.64781 0.0
C87 C 0.5849 0.3462 0.61323 0.0
O88 O 0.60685 0.3207 0.6355 0.0
Co89 Co 0.60419 0.31829 0.59306 0.0
O90 O 0.62494 0.32117 0.61199 0.0
C91 C 0.58374 0.28013 0.59763 0.0
C92 C 0.55457 0.30957 0.63926 0.0
C93 C 0.62248 0.32135 0.62958 0.0
O94 O 0.57905 0.28856 0.61355 0.0
O95 O 0.59263 0.28983 0.58642 0.0
O96 O 0.58229 0.34552 0.63104 0.0
O97 O 0.58457 0.32939 0.60271 0.0
Co98 Co 0.02504 0.27423 0.91958 0.0
O99 O 0.05091 0.27887 0.9224 0.0
O100 O 0.03417 0.26367 0.89591 0.0
C101 C 0.02374 0.30546 0.93275 0.0
O102 O 0.9982 0.26818 0.9097 0.0
Co103 Co 1.00263 0.27749 0.95314 0.0
O104 O 0.98348 0.27917 0.93399 0.0
C105 C 0.01916 0.24358 0.94597 0.0
C106 C 0.05009 0.27061 0.90452 0.0
C107 C 0.98407 0.27309 0.91615 0.0
O108 O 0.02346 0.24851 0.92977 0.0
O109 O 0.01169 0.25412 0.95796 0.0
O110 O 0.02651 0.30064 0.91489 0.0
O111 O 0.02302 0.29167 0.9426 0.0
Co112 Co 0.41249 0.05776 0.30156 0.0
O113 O 0.4128 0.08464 0.30161 0.0
O114 O 0.38922 0.06034 0.29271 0.0
C115 C 0.42785 0.06236 0.33037 0.0
O116 O 0.40677 0.02857 0.30029 0.0
Co117 Co 0.4474 0.04247 0.30291 0.0
O118 O 0.43154 0.0177 0.30586 0.0
C119 C 0.4352 0.05631 0.26888 0.0
C120 C 0.39617 0.07882 0.29495 0.0
C121 C 0.41466 0.01496 0.30304 0.0
O122 O 0.41951 0.05479 0.27449 0.0
O123 O 0.44858 0.05422 0.27914 0.0
O124 O 0.41081 0.06168 0.3294 0.0
O125 O 0.43489 0.0617 0.31434 0.0
Co126 Co 0.29777 0.17709 0.5043 0.0
O127 O 0.3234 0.17997 0.50799 0.0
O128 O 0.30358 0.15412 0.51162 0.0
C129 C 0.29751 0.18812 0.476 0.0
O130 O 0.27064 0.16771 0.50115 0.0
Co131 Co 0.2796 0.21152 0.5024 0.0
O132 O 0.25704 0.1916 0.49642 0.0
C133 C 0.29467 0.20628 0.53994 0.0
C134 C 0.32023 0.16254 0.51182 0.0
C135 C 0.25648 0.174 0.49784 0.0
O136 O 0.29722 0.18947 0.53227 0.0
O137 O 0.28941 0.21779 0.53005 0.0
O138 O 0.29837 0.17024 0.47634 0.0
O139 O 0.29802 0.19892 0.49263 0.0
Co140 Co 0.17401 1.00612 0.77157 0.0
O141 O 0.17142 0.9769 0.76902 0.0
O142 O 0.19558 0.99558 0.76401 0.0
C143 C 0.16137 0.01037 0.8023 0.0
O144 O 0.18536 0.03621 0.77397 0.0
Co145 Co 0.14583 0.03036 0.77614 0.0
O146 O 0.16527 0.05406 0.78157 0.0
C147 C 0.15018 0.01269 0.73587 0.0
C148 C 0.18796 0.97802 0.76546 0.0
C149 C 0.18113 0.05307 0.77824 0.0
O150 O 0.1632 1.00517 0.74239 0.0
O151 O 0.14139 0.02182 0.74759 0.0
O152 O 0.17764 0.00842 0.80064 0.0
O153 O 0.15308 0.00911 0.78566 0.0
Co154 Co 0.30974 0.94268 0.01718 0.0
O155 O 0.28568 0.94301 0.0226 0.0
O156 O 0.30789 0.96895 0.0271 0.0
C157 C 0.30288 0.92337 0.98812 0.0
O158 O 0.33606 0.94814 0.0126 0.0
Co159 Co 0.32353 0.90432 0.01071 0.0
O160 O 0.34375 0.92019 1.00063 0.0
C161 C 0.31952 0.92365 0.05004 0.0
C162 C 0.29112 0.96166 0.028 0.0
C163 C 0.34716 0.93865 0.00487 0.0
O164 O 0.31532 0.93816 0.0439 0.0
O165 O 0.32234 0.90862 0.03915 0.0
O166 O 0.30342 0.94185 0.98993 0.0
O167 O 0.305 0.91709 0.00388 0.0
Co168 Co 0.30565 0.40047 0.03194 0.0
O169 O 0.28002 0.39694 0.03014 0.0
O170 O 0.29885 0.42399 0.04409 0.0
C171 C 0.30706 0.38746 1.00068 0.0
O172 O 0.33281 0.41029 0.0356 0.0
Co173 Co 0.32414 0.36572 0.024 0.0
O174 O 0.34543 0.38615 0.02253 0.0
C175 C 0.30775 0.37345 0.06051 0.0
C176 C 0.28245 0.41491 0.03873 0.0
C177 C 0.34644 0.40394 0.02975 0.0
O178 O 0.30548 0.38995 0.05696 0.0
O179 O 0.31353 0.36129 0.04843 0.0
O180 O 0.30579 0.40541 0.00554 0.0
O181 O 0.30612 0.37774 0.01446 0.0
Co182 Co 0.79971 0.14989 0.00785 0.0
O183 O 0.82483 0.15079 0.00938 0.0
O184 O 0.80463 0.12826 0.01863 0.0
C185 C 0.79811 0.15554 0.97755 0.0
O186 O 0.77273 0.14364 0.00796 0.0
Co187 Co 0.78411 0.18504 1.00055 0.0
O188 O 0.76087 0.16618 0.99672 0.0
C189 C 0.80128 0.18486 0.03901 0.0
C190 C 0.82119 0.13481 0.01609 0.0
C191 C 0.75925 0.15009 1.00254 0.0
O192 O 0.80228 0.16697 0.03404 0.0
O193 O 0.796 0.19474 0.02728 0.0
O194 O 0.79748 0.13802 0.98053 0.0
O195 O 0.8005 0.16887 0.99269 0.0
Co196 Co 0.19106 0.52825 0.2573 0.0
O197 O 0.187 0.50053 0.24968 0.0
O198 O 0.21215 0.52124 0.24756 0.0
C199 C 0.17927 0.5274 0.2855 0.0
O200 O 0.20071 0.55746 0.26441 0.0
Co201 Co 0.16094 0.55049 0.26664 0.0
O202 O 0.1808 0.57175 0.27969 0.0
C203 C 0.16815 0.53788 0.22611 0.0
C204 C 0.20341 0.50333 0.24554 0.0
C205 C 0.1964 0.57219 0.27454 0.0
O206 O 0.1814 0.53082 0.23108 0.0
O207 O 0.15837 0.54528 0.23795 0.0
O208 O 0.19572 0.52605 0.28423 0.0
O209 O 0.17052 0.5283 0.26984 0.0
Co210 Co 0.80269 0.89713 0.53179 0.0
O211 O 0.77707 0.89445 0.52975 0.0
O212 O 0.79654 0.92136 0.54272 0.0
C213 C 0.80405 0.88262 0.50099 0.0
O214 O 0.82992 0.90654 0.53542 0.0
Co215 Co 0.82104 0.86239 0.52611 0.0
O216 O 0.84208 0.88209 0.52235 0.0
C217 C 0.80648 0.87328 0.5632 0.0
C218 C 0.78001 0.91273 0.53751 0.0
C219 C 0.84333 0.89999 0.52917 0.0
O220 O 0.80209 0.88805 0.55757 0.0
O221 O 0.81347 0.8611 0.55252 0.0
O222 O 0.80314 0.90074 0.50509 0.0
O223 O 0.80284 0.8735 0.51525 0.0
Co224 Co 0.92947 0.07373 0.2759 0.0
O225 O 0.93177 0.10302 0.27973 0.0
O226 O 0.90733 0.08281 0.26843 0.0
C227 C 0.94386 0.07197 0.30647 0.0
O228 O 0.91874 0.04329 0.27133 0.0
Co229 Co 0.95934 0.05129 0.27498 0.0
O230 O 0.94065 0.02843 0.27782 0.0
C231 C 0.95276 0.06742 0.24026 0.0
C232 C 0.9151 0.10101 0.27369 0.0
C233 C 0.92413 0.02777 0.27422 0.0
O234 O 0.93862 0.07238 0.24766 0.0
O235 O 0.96338 0.06018 0.24986 0.0
O236 O 0.92763 0.07445 0.30447 0.0
O237 O 0.95127 0.07234 0.29058 0.0
Co238 Co 0.29961 0.64668 0.50588 0.0
O239 O 0.32474 0.64769 0.50823 0.0
O240 O 0.30413 0.62449 0.51591 0.0
C241 C 0.29919 0.65356 0.47603 0.0
O242 O 0.27252 0.64018 0.50494 0.0
Co243 Co 0.28385 0.68179 0.49872 0.0
O244 O 0.26094 0.66248 0.49294 0.0
C245 C 0.29811 0.67974 0.53806 0.0
C246 C 0.32083 0.63127 0.51411 0.0
C247 C 0.25917 0.6464 0.49877 0.0
O248 O 0.30125 0.66277 0.53246 0.0
O249 O 0.29234 0.68967 0.52668 0.0
O250 O 0.29831 0.63581 0.47839 0.0
O251 O 0.30098 0.6664 0.49149 0.0
Co252 Co 0.43104 0.57342 0.77768 0.0
O253 O 0.43349 0.60269 0.78116 0.0
O254 O 0.40901 0.58249 0.76985 0.0
C255 C 0.44529 0.57207 0.80843 0.0
O256 O 0.42 0.54309 0.77351 0.0
Co257 Co 0.46049 0.55041 0.77766 0.0
O258 O 0.44149 0.52746 0.77933 0.0
C259 C 0.45478 0.56655 0.74263 0.0
C260 C 0.41684 0.60068 0.77502 0.0
C261 C 0.42506 0.52726 0.77587 0.0
O262 O 0.44046 0.57163 0.74948 0.0
O263 O 0.46504 0.55933 0.75272 0.0
O264 O 0.42909 0.57461 0.80631 0.0
O265 O 0.4527 0.57202 0.79254 0.0
Co266 Co 0.68401 0.02941 0.75784 0.0
O267 O 0.6855 1.00322 0.75942 0.0
O268 O 0.70593 0.02458 0.7488 0.0
C269 C 0.67508 0.03734 0.78711 0.0
O270 O 0.68827 0.05769 0.7553 0.0
Co271 Co 0.64876 0.04384 0.75952 0.0
O272 O 0.66441 0.07011 0.76214 0.0
C273 C 0.65471 0.01716 0.72544 0.0
C274 C 0.70107 0.00747 0.75307 0.0
C275 C 0.68066 0.07211 0.75869 0.0
O276 O 0.67138 0.02053 0.73115 0.0
O277 O 0.64324 0.02332 0.73575 0.0
O278 O 0.6918 0.03766 0.78525 0.0
O279 O 0.66434 0.03047 0.77175 0.0
Co280 Co 0.80013 0.67936 0.0042 0.0
O281 O 0.82576 0.682 0.00805 0.0
O282 O 0.80571 0.6569 0.01292 0.0
C283 C 0.80005 0.68904 0.97517 0.0
O284 O 0.773 0.67009 1.00111 0.0
Co285 Co 0.78205 0.71341 1.00057 0.0
O286 O 0.75944 0.69349 0.99485 0.0
C287 C 0.79685 0.70989 0.03881 0.0
C288 C 0.8224 0.66501 0.0129 0.0
C289 C 0.75885 0.67612 0.99712 0.0
O290 O 0.7996 0.69299 0.03177 0.0
O291 O 0.79148 0.72087 0.02836 0.0
O292 O 0.80075 0.67129 0.97636 0.0
O293 O 0.80055 0.7005 0.99142 0.0
Co294 Co 0.91693 0.54818 0.80126 0.0
O295 O 0.91553 0.57248 0.7935 0.0
O296 O 0.89281 0.54757 0.79292 0.0
C297 C 0.93493 0.56125 0.82836 0.0
O298 O 0.91194 0.52162 0.80862 0.0
Co299 Co 0.95119 0.53282 0.80739 0.0
O300 O 0.93623 0.51191 0.81812 0.0
C301 C 0.93468 0.53055 0.768 0.0
C302 C 0.89857 0.56496 0.78971 0.0
C303 C 0.9194 0.50951 0.81554 0.0
O304 O 0.92132 0.53691 0.77442 0.0
O305 O 0.948 0.52896 0.77872 0.0
O306 O 0.91789 0.56036 0.82833 0.0
O307 O 0.94045 0.55522 0.81212 0.0
Co308 Co 0.80867 0.44199 0.52329 0.0
O309 O 0.78445 0.44316 0.52689 0.0
O310 O 0.80743 0.46828 0.53415 0.0
C311 C 0.80324 0.42411 0.49347 0.0
O312 O 0.83528 0.44636 0.52066 0.0
Co313 Co 0.81998 0.40222 0.51704 0.0
O314 O 0.8425 0.41771 0.51039 0.0
C315 C 0.81147 0.4195 0.55515 0.0
C316 C 0.79035 0.46157 0.53345 0.0
C317 C 0.84646 0.43622 0.51441 0.0
O318 O 0.81205 0.43584 0.54974 0.0
O319 O 0.81233 0.4039 0.54372 0.0
O320 O 0.80455 0.44277 0.49598 0.0
O321 O 0.80357 0.41694 0.50891 0.0
Co322 Co 0.67488 0.50777 0.27315 0.0
O323 O 0.67206 0.47856 0.27078 0.0
O324 O 0.69646 0.49701 0.26602 0.0
C325 C 0.66189 0.5125 0.30351 0.0
O326 O 0.68618 0.53791 0.27541 0.0
Co327 Co 0.64619 0.53152 0.27611 0.0
O328 O 0.66537 0.55541 0.28041 0.0
C329 C 0.65062 0.51217 0.23676 0.0
C330 C 0.6886 0.47948 0.26734 0.0
C331 C 0.68151 0.55462 0.27831 0.0
O332 O 0.6644 0.50626 0.24387 0.0
O333 O 0.64117 0.52101 0.24785 0.0
O334 O 0.67817 0.51042 0.30221 0.0
O335 O 0.65378 0.51093 0.2867 0.0
Tb336 Tb 0.03523 0.02645 0.00884 0.0
C337 C 0.08056 0.09919 0.05935 0.0
C338 C 0.08409 0.12313 0.03887 0.0
C339 C 0.0847 0.13341 0.07337 0.0
C340 C 0.081 0.1036 0.04128 0.0
C341 C 0.08304 0.11406 0.07571 0.0
C342 C 0.08522 0.13795 0.05493 0.0
C343 C 0.08482 0.08998 0.0953 0.0
N344 N 0.07949 0.08043 0.06093 0.0
C345 C 0.08247 0.0758 0.07862 0.0
C346 C 0.08475 0.10915 0.09387 0.0
Tb347 Tb 0.07499 0.05788 0.03283 0.0
N348 N 0.08033 0.08888 0.02629 0.0
C349 C 0.08468 0.09305 0.00877 0.0
C350 C 0.08697 0.12724 0.02059 0.0
C351 C 0.08769 0.11216 0.00558 0.0
H352 H 0.08252 0.06105 0.08003 0.0
H353 H 0.09048 0.11521 0.9915 0.0
H354 H 0.08732 0.153 0.05335 0.0
H355 H 0.08667 0.0861 0.10925 0.0
H356 H 0.08524 0.08169 0.9969 0.0
H357 H 0.01911 0.96949 0.05058 0.0
H358 H 0.08938 0.14202 0.0181 0.0
H359 H 0.02777 0.02326 0.96166 0.0
H360 H 0.02484 1.00289 0.04504 0.0
H361 H 0.02296 0.9981 0.93249 0.0
H362 H 0.08638 0.14503 0.08574 0.0
H363 H 0.01926 0.94237 0.02393 0.0
H364 H 0.02051 0.93107 0.98858 0.0
H365 H 0.08671 0.12014 0.10679 0.0
H366 H 0.02135 0.93889 0.95612 0.0
N367 N 0.02918 0.99544 0.01547 0.0
C368 C 0.02502 0.99146 0.0331 0.0
C369 C 0.02189 0.95713 0.02137 0.0
C370 C 0.02453 0.96107 0.003 0.0
C371 C 0.02172 0.97238 0.0364 0.0
C372 C 0.02795 0.98058 1.0005 0.0
H373 H 0.02174 0.96384 0.935 0.0
N374 N 0.02984 1.0037 0.98084 0.0
C375 C 0.02454 0.99417 0.94645 0.0
C376 C 0.02829 0.98489 0.98242 0.0
C377 C 0.02725 0.00841 0.96311 0.0
C378 C 0.02395 0.97488 0.94792 0.0
C379 C 0.02544 0.96995 0.96608 0.0
O380 O 0.01328 0.03348 0.99484 0.0
O381 O 0.04981 0.05651 0.01734 0.0
O382 O 0.05387 0.06292 0.05249 0.0
O383 O 0.03191 0.03524 0.04038 0.0
O384 O 0.03709 0.04809 0.9903 0.0
O385 O 0.01105 0.02322 0.02152 0.0
O386 O 0.09663 0.04997 0.04644 0.0
O387 O 0.06055 0.02767 0.02417 0.0
O388 O 0.05624 0.02152 0.98898 0.0
O389 O 0.07863 0.0488 1.00134 0.0
O390 O 0.07317 0.03627 0.05131 0.0
O391 O 0.10005 0.0642 0.0222 0.0
C392 C 0.04648 0.06271 1.00202 0.0
C393 C 0.98463 0.01836 1.00125 0.0
C394 C 0.95315 0.01912 0.99756 0.0
C395 C 0.97095 0.02845 0.00365 0.0
C396 C 0.94926 0.99927 0.98921 0.0
C397 C 0.98062 0.99863 0.99284 0.0
C398 C 0.96294 0.98914 0.98688 0.0
C399 C 0.03872 0.0506 0.05428 0.0
C400 C 1.00286 0.02901 0.00789 0.0
C401 C 0.02335 0.95057 0.96846 0.0
C402 C 0.02289 0.94612 0.98694 0.0
C403 C 0.06386 0.02156 0.0396 0.0
C404 C 0.12483 0.06942 0.04504 0.0
C405 C 0.13932 0.06062 0.04641 0.0
C406 C 0.15583 0.07124 0.05578 0.0
C407 C 0.15763 0.091 0.06369 0.0
C408 C 0.12679 0.08912 0.053 0.0
C409 C 0.14315 0.09984 0.0623 0.0
C410 C 0.07154 0.03367 0.98725 0.0
C411 C 0.10788 0.05748 0.03541 0.0
H412 H 0.97422 0.04364 0.01049 0.0
H413 H 0.93572 0.99167 0.98421 0.0
H414 H 0.99108 0.99064 0.99094 0.0
H415 H 0.95983 0.9739 0.98035 0.0
H416 H 0.13774 0.04545 0.03991 0.0
H417 H 0.17013 0.09955 0.0711 0.0
H418 H 0.11577 0.09619 0.052 0.0
H419 H 0.14462 0.11504 0.06846 0.0
Tb420 Tb 0.30597 0.77925 0.25412 0.0
C421 C 0.29407 0.85047 0.31306 0.0
C422 C 0.32267 0.86586 0.33025 0.0
C423 C 0.29945 0.88401 0.33009 0.0
C424 C 0.31093 0.84928 0.31909 0.0
C425 C 0.28812 0.86789 0.3184 0.0
C426 C 0.31673 0.883 0.336 0.0
C427 C 0.26012 0.85236 0.30029 0.0
N428 N 0.28362 0.83479 0.30143 0.0
C429 C 0.26654 0.83549 0.29549 0.0
C430 C 0.27096 0.86868 0.31179 0.0
Tb431 Tb 0.29362 0.80619 0.29631 0.0
N432 N 0.3163 0.83256 0.31265 0.0
C433 C 0.33426 0.83296 0.31553 0.0
C434 C 0.3403 0.86515 0.33458 0.0
C435 C 0.34618 0.84876 0.32682 0.0
H436 H 0.25746 0.82296 0.28716 0.0
H437 H 0.36013 0.84849 0.32893 0.0
H438 H 0.32554 0.89571 0.34461 0.0
H439 H 0.24667 0.85265 0.29529 0.0
H440 H 0.34038 0.82203 0.30827 0.0
H441 H 0.2546 0.71315 0.23764 0.0
H442 H 0.34969 0.87755 0.34296 0.0
H443 H 0.34896 0.78466 0.24618 0.0
H444 H 0.26624 0.74822 0.24253 0.0
H445 H 0.3712 0.76452 0.24359 0.0
H446 H 0.29508 0.89742 0.33438 0.0
H447 H 0.2749 0.69112 0.24098 0.0
H448 H 0.30621 0.68676 0.2454 0.0
H449 H 0.26594 0.88175 0.31557 0.0
H450 H 0.33828 0.70089 0.24715 0.0
N451 N 0.2932 0.74673 0.24945 0.0
C452 C 0.27547 0.7391 0.24421 0.0
C453 C 0.28019 0.70665 0.24324 0.0
C454 C 0.29847 0.71437 0.24708 0.0
C455 C 0.26871 0.71903 0.24128 0.0
C456 C 0.30467 0.7347 0.24981 0.0
H457 H 0.36261 0.7298 0.24579 0.0
N458 N 0.32794 0.76198 0.25119 0.0
C459 C 0.35766 0.75823 0.24591 0.0
C460 C 0.32269 0.7426 0.25074 0.0
C461 C 0.34496 0.76967 0.24757 0.0
C462 C 0.35277 0.73865 0.2472 0.0
C463 C 0.335 0.73046 0.24907 0.0
O464 O 0.3045 0.79594 0.2326 0.0
O465 O 0.30622 0.80742 0.2706 0.0
O466 O 0.28096 0.81158 0.2692 0.0
O467 O 0.2779 0.78144 0.25066 0.0
O468 O 0.32905 0.80384 0.2583 0.0
O469 O 0.30412 0.76573 0.22503 0.0
O470 O 0.26622 0.79537 0.29561 0.0
O471 O 0.28906 0.77807 0.27718 0.0
O472 O 0.32584 0.77834 0.27792 0.0
O473 O 0.31769 0.79632 0.30591 0.0
O474 O 0.29455 0.77943 0.30646 0.0
O475 O 0.28206 0.80665 0.32272 0.0
C476 C 0.32177 0.81603 0.26873 0.0
C477 C 0.31749 0.78639 0.20455 0.0
C478 C 0.32768 0.80707 0.1816 0.0
C479 C 0.31635 0.80211 0.19563 0.0
C480 C 0.34051 0.79612 0.17679 0.0
C481 C 0.33031 0.77552 0.19957 0.0
C482 C 0.34181 0.78047 0.18578 0.0
C483 C 0.27252 0.79794 0.25461 0.0
C484 C 0.30491 0.7818 0.21878 0.0
C485 C 0.329 0.71041 0.24812 0.0
C486 C 0.31074 0.70237 0.24711 0.0
C487 C 0.29029 0.76796 0.29004 0.0
C488 C 0.25561 0.78171 0.32138 0.0
C489 C 0.26334 0.76923 0.33076 0.0
C490 C 0.25268 0.75228 0.33507 0.0
C491 C 0.23415 0.74841 0.3305 0.0
C492 C 0.23709 0.77756 0.31705 0.0
C493 C 0.22644 0.76106 0.32167 0.0
C494 C 0.32843 0.786 0.2967 0.0
C495 C 0.26628 0.7981 0.31417 0.0
H496 H 0.30662 0.81063 0.19981 0.0
H497 H 0.34934 0.79942 0.16589 0.0
H498 H 0.33144 0.76325 0.20624 0.0
H499 H 0.35166 0.77205 0.18194 0.0
H500 H 0.27759 0.77234 0.3342 0.0
H501 H 0.22556 0.73573 0.33399 0.0
H502 H 0.23089 0.78695 0.30973 0.0
H503 H 0.21218 0.75796 0.31822 0.0
Tb504 Tb 0.57327 0.04608 0.51575 0.0
C505 C 0.51407 1.00048 0.55533 0.0
C506 C 0.49899 0.97327 0.53092 0.0
C507 C 0.49944 0.97041 0.56458 0.0
C508 C 0.50917 0.99242 0.53626 0.0
C509 C 0.50895 0.98977 0.56978 0.0
C510 C 0.49448 0.96216 0.54516 0.0
C511 C 0.5217 0.01859 0.59335 0.0
N512 N 0.5231 0.01925 0.55971 0.0
C513 C 0.52645 0.02862 0.57847 0.0
C514 C 0.51309 0.99901 0.589 0.0
Tb515 Tb 0.53035 0.03445 0.53438 0.0
N516 N 0.51359 1.00375 0.52302 0.0
C517 C 0.50699 0.99719 0.50422 0.0
C518 C 0.49318 0.96611 0.51153 0.0
C519 C 0.49699 0.97823 0.49816 0.0
H520 H 0.53314 0.04372 0.58207 0.0
H521 H 0.49226 0.97297 0.48316 0.0
H522 H 0.48679 0.94737 0.54135 0.0
H523 H 0.52469 0.02598 0.60816 0.0
H524 H 0.50979 1.00629 0.49363 0.0
H525 H 0.6093 0.1082 0.56778 0.0
H526 H 0.48538 0.95145 0.50681 0.0
H527 H 0.57427 0.03617 0.46854 0.0
H528 H 0.59262 0.07464 0.55695 0.0
H529 H 0.58413 0.05363 0.44266 0.0
H530 H 0.49549 0.96186 0.57546 0.0
H531 H 0.6166 0.12981 0.54429 0.0
H532 H 0.61649 0.13371 0.5097 0.0
H533 H 0.50937 0.9913 0.60055 0.0
H534 H 0.60973 0.11876 0.47545 0.0
N535 N 0.58962 0.07701 0.52741 0.0
C536 C 0.59559 0.08371 0.54638 0.0
C537 C 0.60916 0.11502 0.53939 0.0
C538 C 0.60416 0.1077 0.51987 0.0
C539 C 0.60511 0.10285 0.55268 0.0
C540 C 0.59439 0.08838 0.51431 0.0
H541 H 0.59802 0.08872 0.45028 0.0
N542 N 0.5821 0.06116 0.49076 0.0
C543 C 0.5859 0.06131 0.45739 0.0
C544 C 0.59051 0.08012 0.49522 0.0
C545 C 0.58033 0.05145 0.47216 0.0
C546 C 0.59367 0.08113 0.46173 0.0
C547 C 0.59636 0.09072 0.48089 0.0
O548 O 0.58832 0.02701 0.50221 0.0
O549 O 0.5507 0.02351 0.519 0.0
O550 O 0.54867 0.02179 0.55028 0.0
O551 O 0.57481 0.0428 0.54601 0.0
O552 O 0.56205 0.02014 0.49386 0.0
O553 O 0.59688 0.04363 0.53044 0.0
O554 O 0.51562 0.05326 0.54883 0.0
O555 O 0.55257 0.05717 0.53051 0.0
O556 O 0.55502 0.05736 0.49822 0.0
O557 O 0.52808 0.03847 0.50439 0.0
O558 O 0.54172 0.06056 0.55597 0.0
O559 O 0.5059 0.03626 0.52092 0.0
C560 C 0.54979 0.01195 0.50316 0.0
C561 C 0.61927 0.03478 0.51179 0.0
C562 C 0.64852 0.02635 0.51294 0.0
C563 C 0.63045 0.02269 0.51669 0.0
C564 C 0.65504 0.04213 0.50397 0.0
C565 C 0.62616 0.05041 0.50293 0.0
C566 C 0.64393 0.054 0.499 0.0
C567 C 0.56587 0.02939 0.5547 0.0
C568 C 0.60063 0.03125 0.5165 0.0
C569 C 0.60529 0.11028 0.48623 0.0
C570 C 0.60915 0.11879 0.50573 0.0
C571 C 0.55349 0.06895 0.54622 0.0
C572 C 0.48441 0.04524 0.54104 0.0
C573 C 0.47262 0.05669 0.53609 0.0
C574 C 0.45511 0.05362 0.54172 0.0
C575 C 0.4498 0.03898 0.55252 0.0
C576 C 0.47865 0.03069 0.55163 0.0
C577 C 0.46145 0.02762 0.55734 0.0
C578 C 0.53756 0.0506 0.49468 0.0
C579 C 0.50267 0.04872 0.53516 0.0
H580 H 0.62519 0.01074 0.52376 0.0
H581 H 0.66875 0.04521 0.5006 0.0
H582 H 0.61784 0.05988 0.49913 0.0
H583 H 0.64914 0.06607 0.4921 0.0
H584 H 0.47705 0.06778 0.5277 0.0
H585 H 0.43666 0.03642 0.55751 0.0
H586 H 0.48746 0.02177 0.55558 0.0
H587 H 0.45715 0.01645 0.56565 0.0
Tb588 Tb 0.28113 0.29405 0.77196 0.0
C589 C 0.3357 0.26098 0.80491 0.0
C590 C 0.34708 0.28432 0.83407 0.0
C591 C 0.34507 0.25002 0.83371 0.0
C592 C 0.33976 0.27995 0.81472 0.0
C593 C 0.33926 0.24595 0.81405 0.0
C594 C 0.34894 0.2692 0.84373 0.0
C595 C 0.33498 0.22498 0.78299 0.0
N596 N 0.33057 0.25766 0.78581 0.0
C597 C 0.33179 0.24038 0.77458 0.0
C598 C 0.33819 0.2276 0.80289 0.0
Tb599 Tb 0.32503 0.28413 0.7738 0.0
N600 N 0.3382 0.29425 0.80481 0.0
C601 C 0.34535 0.31325 0.81302 0.0
C602 C 0.35311 0.30377 0.84288 0.0
C603 C 0.35261 0.31826 0.83217 0.0
H604 H 0.32915 0.23809 0.75913 0.0
H605 H 0.35776 0.33335 0.83866 0.0
H606 H 0.35422 0.27228 0.85867 0.0
H607 H 0.33497 0.21111 0.7741 0.0
H608 H 0.34531 0.32488 0.80525 0.0
H609 H 0.24983 0.24284 0.7077 0.0
H610 H 0.35878 0.30772 0.8577 0.0
H611 H 0.27639 0.34 0.78524 0.0
H612 H 0.26218 0.25237 0.74111 0.0
H613 H 0.26985 0.36612 0.7694 0.0
H614 H 0.34753 0.2386 0.84104 0.0
H615 H 0.24799 0.26771 0.68793 0.0
H616 H 0.25159 0.30286 0.68606 0.0
H617 H 0.34086 0.21571 0.80936 0.0
H618 H 0.25753 0.33681 0.70289 0.0
N619 N 0.26822 0.28292 0.74092 0.0
C620 C 0.26168 0.2637 0.73306 0.0
C621 C 0.25355 0.27213 0.70277 0.0
C622 C 0.25904 0.29175 0.71117 0.0
C623 C 0.25451 0.25807 0.7139 0.0
C624 C 0.26627 0.29676 0.73056 0.0
H625 H 0.26382 0.36046 0.73409 0.0
N626 N 0.27511 0.31979 0.75902 0.0
C627 C 0.27007 0.35214 0.76087 0.0
C628 C 0.26995 0.31588 0.7399 0.0
C629 C 0.27368 0.33721 0.76978 0.0
C630 C 0.26678 0.34892 0.74095 0.0
C631 C 0.26604 0.33044 0.73027 0.0
O632 O 0.2662 0.30699 0.79261 0.0
O633 O 0.30635 0.29794 0.7895 0.0
O634 O 0.3051 0.25603 0.77411 0.0
O635 O 0.2768 0.26263 0.77145 0.0
O636 O 0.28343 0.28884 0.80116 0.0
O637 O 0.25433 0.28061 0.77288 0.0
O638 O 0.33945 0.27155 0.7524 0.0
O639 O 0.29987 0.28024 0.75616 0.0
O640 O 0.30099 0.32233 0.7719 0.0
O641 O 0.32927 0.31582 0.77563 0.0
O642 O 0.32286 0.29054 0.74508 0.0
O643 O 0.35206 0.29692 0.77311 0.0
C644 C 0.30029 0.29334 0.80466 0.0
C645 C 0.23452 0.29974 0.78544 0.0
C646 C 0.20441 0.29916 0.79562 0.0
C647 C 0.22145 0.29492 0.79816 0.0
C648 C 0.201 0.30886 0.78064 0.0
C649 C 0.23044 0.309 0.77043 0.0
C650 C 0.2139 0.31375 0.76823 0.0
C651 C 0.28734 0.25046 0.77322 0.0
C652 C 0.25172 0.29363 0.787 0.0
C653 C 0.26026 0.32575 0.71059 0.0
C654 C 0.25681 0.30642 0.70104 0.0
C655 C 0.30604 0.28538 0.74124 0.0
C656 C 0.37101 0.27721 0.7594 0.0
C657 C 0.38404 0.28166 0.74653 0.0
C658 C 0.4005 0.2759 0.74816 0.0
C659 C 0.40324 0.26498 0.76236 0.0
C660 C 0.37463 0.26704 0.77382 0.0
C661 C 0.39047 0.26069 0.77506 0.0
C662 C 0.3188 0.32803 0.77351 0.0
C663 C 0.35426 0.28428 0.75842 0.0
H664 H 0.2243 0.28728 0.80949 0.0
H665 H 0.18823 0.31262 0.77843 0.0
H666 H 0.23984 0.31224 0.76013 0.0
H667 H 0.21096 0.32099 0.75663 0.0
H668 H 0.38159 0.2901 0.73576 0.0
H669 H 0.41538 0.25978 0.76378 0.0
H670 H 0.36538 0.2642 0.78434 0.0
H671 H 0.39298 0.25262 0.78611 0.0
Tb672 Tb 0.04608 0.05708 0.52999 0.0
C673 C 0.0734 0.00793 0.46606 0.0
C674 C 0.05118 1.00443 0.43945 0.0
C675 C 0.08164 1.00334 0.43326 0.0
C676 C 0.05616 0.00784 0.45939 0.0
C677 C 0.08615 1.00496 0.45301 0.0
C678 C 0.06417 1.00306 0.42648 0.0
C679 C 0.10585 1.00219 0.47952 0.0
N680 N 0.07716 0.00908 0.48523 0.0
C681 C 0.09279 1.00514 0.49193 0.0
C682 C 0.1027 1.00261 0.46007 0.0
Tb683 Tb 0.05472 0.01455 0.50399 0.0
N684 N 0.04385 0.00868 0.47231 0.0
C685 C 0.02611 1.00349 0.46604 0.0
C686 C 0.03314 1.00118 0.43309 0.0
C687 C 0.02052 1.00013 0.44643 0.0
H688 H 0.09543 1.00431 0.50679 0.0
H689 H 0.00648 0.99679 0.44163 0.0
H690 H 0.06065 1.00078 0.41114 0.0
H691 H 0.11832 0.99955 0.48499 0.0
H692 H 0.0161 1.0024 0.47604 0.0
H693 H 0.09924 0.0794 0.58769 0.0
H694 H 0.02877 0.99848 0.41791 0.0
H695 H 1.00334 0.05895 0.53024 0.0
H696 H 0.08651 0.07023 0.55419 0.0
H697 H 0.98199 0.06396 0.55403 0.0
H698 H 0.09133 1.00133 0.42304 0.0
H699 H 0.07956 0.08109 0.61398 0.0
H700 H 0.0486 0.07921 0.624 0.0
H701 H 0.11281 1.0002 0.45049 0.0
H702 H 0.0166 0.07516 0.61482 0.0
N703 N 0.05948 0.06586 0.56094 0.0
C704 C 0.07756 0.07079 0.56529 0.0
C705 C 0.0738 0.07694 0.5992 0.0
C706 C 0.0554 0.07312 0.59468 0.0
C707 C 0.08494 0.07606 0.5844 0.0
C708 C 0.04861 0.06772 0.57518 0.0
H709 H 0.99169 0.06985 0.58874 0.0
N710 N 0.02512 0.06154 0.55112 0.0
C711 C 0.99566 0.06436 0.55876 0.0
C712 C 0.03076 0.06551 0.57008 0.0
C713 C 0.00789 0.06155 0.54529 0.0
C714 C 1.00117 0.06761 0.57833 0.0
C715 C 0.01897 0.06851 0.58423 0.0
O716 O 0.03549 0.07967 0.5219 0.0
O717 O 0.04534 0.04085 0.50041 0.0
O718 O 0.07725 0.0367 0.49913 0.0
O719 O 0.07358 0.06264 0.52199 0.0
O720 O 0.0243 0.05275 0.50721 0.0
O721 O 0.06305 0.08456 0.53271 0.0
O722 O 0.05155 0.99274 0.52099 0.0
O723 O 0.05596 0.03118 0.5333 0.0
O724 O 0.02688 0.03291 0.5374 0.0
O725 O 0.02652 0.01139 0.50912 0.0
O726 O 0.07681 0.01893 0.52653 0.0
O727 O 0.04632 0.98527 0.49048 0.0
C728 C 0.03056 0.04355 0.49299 0.0
C729 C 0.05005 0.11184 0.53539 0.0
C730 C 0.05319 0.14567 0.53225 0.0
C731 C 0.05331 0.12638 0.52435 0.0
C732 C 0.04983 0.15025 0.55159 0.0
C733 C 0.04661 0.11646 0.5546 0.0
C734 C 0.0465 0.13567 0.56265 0.0
C735 C 0.08277 0.05456 0.50897 0.0
C736 C 0.05059 0.09216 0.52615 0.0
C737 C 0.02546 0.07295 0.60372 0.0
C738 C 0.04366 0.07525 0.60894 0.0
C739 C 0.07093 0.0289 0.54066 0.0
C740 C 0.05825 0.96346 0.50609 0.0
C741 C 0.05638 0.95227 0.52054 0.0
C742 C 0.06563 0.93732 0.52073 0.0
C743 C 0.07708 0.93393 0.50639 0.0
C744 C 0.06947 0.9596 0.49165 0.0
C745 C 0.07896 0.94504 0.49197 0.0
C746 C 0.01929 0.01695 0.525 0.0
C747 C 0.04806 0.97874 0.50624 0.0
H748 H 0.05627 0.12266 0.50959 0.0
H749 H 0.0496 0.16501 0.55807 0.0
H750 H 0.04409 0.10534 0.56331 0.0
H751 H 0.04386 0.13929 0.5775 0.0
H752 H 0.0473 0.95488 0.53133 0.0
H753 H 0.08451 0.92264 0.50629 0.0
H754 H 0.07085 0.96769 0.48006 0.0
H755 H 0.08768 0.94223 0.48089 0.0
Tb756 Tb 0.32432 0.80495 0.77194 0.0
C757 C 0.28805 0.73688 0.77991 0.0
C758 C 0.28799 0.71283 0.75148 0.0
C759 C 0.29328 0.70508 0.78297 0.0
C760 C 0.28675 0.73171 0.7602 0.0
C761 C 0.29086 0.7234 0.79153 0.0
C762 C 0.29181 0.69977 0.76295 0.0
C763 C 0.28635 0.74602 0.819 0.0
N764 N 0.2857 0.75477 0.78765 0.0
C765 C 0.28342 0.75874 0.80685 0.0
C766 C 0.29055 0.72847 0.81137 0.0
Tb767 Tb 0.28302 0.77544 0.76624 0.0
N768 N 0.28315 0.74475 0.74959 0.0
C769 C 0.2782 0.73867 0.73029 0.0
C770 C 0.2849 0.70744 0.73152 0.0
C771 C 0.27956 0.72028 0.72093 0.0
H772 H 0.27873 0.77131 0.81313 0.0
H773 H 0.2762 0.71594 0.70557 0.0
H774 H 0.29315 0.68537 0.75649 0.0
H775 H 0.28495 0.74962 0.8342 0.0
H776 H 0.27297 0.74779 0.72184 0.0
H777 H 0.328 0.86513 0.83121 0.0
H778 H 0.28579 0.69313 0.72427 0.0
H779 H 0.3301 0.80833 0.72515 0.0
H780 H 0.33287 0.83363 0.81588 0.0
H781 H 0.32427 0.82935 0.70316 0.0
H782 H 0.29573 0.69468 0.79169 0.0
H783 H 0.31818 0.88697 0.81143 0.0
H784 H 0.31175 0.89391 0.77861 0.0
H785 H 0.29264 0.71855 0.82079 0.0
H786 H 0.3108 0.88413 0.74357 0.0
N787 N 0.32313 0.83568 0.78766 0.0
C788 C 0.32741 0.84221 0.80701 0.0
C789 C 0.31973 0.87275 0.80462 0.0
C790 C 0.31744 0.86701 0.78466 0.0
C791 C 0.32518 0.86045 0.81582 0.0
C792 C 0.31952 0.84827 0.77652 0.0
H793 H 0.31551 0.86015 0.7153 0.0
N794 N 0.32183 0.82493 0.74978 0.0
C795 C 0.32224 0.83311 0.71818 0.0
C796 C 0.31895 0.84276 0.7569 0.0
C797 C 0.32493 0.82077 0.73082 0.0
C798 C 0.31744 0.85053 0.72509 0.0
C799 C 0.31632 0.85586 0.74476 0.0
O800 O 0.34738 0.8054 0.75739 0.0
O801 O 0.31155 0.77369 0.76672 0.0
O802 O 0.28718 0.79498 0.79431 0.0
O803 O 0.31759 0.80236 0.80092 0.0
O804 O 0.33177 0.78368 0.78814 0.0
O805 O 0.34932 0.81737 0.78743 0.0
O806 O 0.26025 0.77366 0.78146 0.0
O807 O 0.29578 0.80664 0.77164 0.0
O808 O 0.3204 0.78514 0.74402 0.0
O809 O 0.29003 0.77799 0.73735 0.0
O810 O 0.27547 0.79698 0.75041 0.0
O811 O 0.25784 0.7651 0.7508 0.0
C812 C 0.32166 0.76783 0.77865 0.0
C813 C 0.37275 0.82994 0.77 0.0
C814 C 0.40478 0.84347 0.77431 0.0
C815 C 0.38994 0.82938 0.77698 0.0
C816 C 0.40203 0.85839 0.76468 0.0
C817 C 0.37021 0.84493 0.76052 0.0
C818 C 0.38484 0.85911 0.7579 0.0
C819 C 0.30156 0.80112 0.8066 0.0
C820 C 0.358 0.81428 0.77251 0.0
C821 C 0.31316 0.87405 0.75269 0.0
C822 C 0.31369 0.87961 0.77263 0.0
C823 C 0.2857 0.81274 0.75987 0.0
C824 C 0.23432 0.75077 0.76692 0.0
C825 C 0.21742 0.7527 0.76054 0.0
C826 C 0.20229 0.738 0.76072 0.0
C827 C 0.20439 0.72109 0.76732 0.0
C828 C 0.23629 0.73391 0.77354 0.0
C829 C 0.22131 0.71912 0.77373 0.0
C830 C 0.30605 0.77898 0.73173 0.0
C831 C 0.24941 0.76667 0.76607 0.0
H832 H 0.39166 0.81794 0.78467 0.0
H833 H 0.41315 0.86938 0.76219 0.0
H834 H 0.35704 0.84564 0.75508 0.0
H835 H 0.38286 0.87062 0.75049 0.0
H836 H 0.21613 0.76564 0.75505 0.0
H837 H 0.19297 0.70951 0.76766 0.0
H838 H 0.24928 0.73217 0.77847 0.0
H839 H 0.22282 0.7061 0.77884 0.0
Tb840 Tb 0.56396 0.03402 0.04474 0.0
C841 C 0.51161 0.06929 1.00037 0.0
C842 C 0.49102 0.04207 0.98063 0.0
C843 C 0.48135 0.0719 0.99193 0.0
C844 C 0.50797 0.05049 0.99045 0.0
C845 C 0.49849 0.08041 1.001 0.0
C846 C 0.47762 0.05274 0.98175 0.0
C847 C 0.52058 0.10779 0.01833 0.0
N848 N 0.52832 0.07693 0.00884 0.0
C849 C 0.53315 0.09618 0.01719 0.0
C850 C 0.50311 0.09982 0.01037 0.0
Tb851 Tb 0.54788 0.05664 0.0071 0.0
N852 N 0.52131 0.04076 0.98972 0.0
C853 C 0.51885 0.0229 0.97813 0.0
C854 C 0.48819 0.02339 0.96963 0.0
C855 C 0.50226 0.0139 0.96814 0.0
H856 H 0.54657 0.10246 0.02354 0.0
H857 H 0.50032 0.99956 0.95941 0.0
H858 H 0.46446 0.04646 0.97447 0.0
H859 H 0.52437 0.12286 0.02536 0.0
H860 H 0.52938 0.01512 0.97683 0.0
H861 H 0.60938 0.09518 0.08978 0.0
H862 H 0.47535 0.01636 0.96193 0.0
H863 H 0.56761 0.9886 0.03124 0.0
H864 H 0.58046 0.07695 0.07359 0.0
H865 H 0.59127 0.96996 0.03073 0.0
H866 H 0.47102 0.08013 0.99236 0.0
H867 H 0.63581 0.08069 0.08722 0.0
H868 H 0.64857 0.05162 0.07565 0.0
H869 H 0.49341 0.10885 0.01121 0.0
H870 H 0.64362 0.01737 0.05968 0.0
N871 N 0.59014 0.05216 0.06134 0.0
C872 C 0.59169 0.0702 0.07232 0.0
C873 C 0.62307 0.07252 0.08004 0.0
C874 C 0.6212 0.05363 0.0698 0.0
C875 C 0.60817 0.08071 0.08157 0.0
C876 C 0.60432 0.04369 0.06066 0.0
H877 H 0.62218 0.98663 0.04325 0.0
N878 N 0.58501 0.01557 0.04375 0.0
C879 C 0.5944 0.98537 0.03656 0.0
C880 C 0.60163 0.02464 0.05159 0.0
C881 C 0.58103 0.99595 0.03695 0.0
C882 C 0.61184 0.99484 0.04358 0.0
C883 C 0.61559 0.01467 0.05149 0.0
O884 O 0.55292 0.01017 0.05725 0.0
O885 O 0.54229 0.03568 0.02538 0.0
O886 O 0.53388 0.06384 0.03202 0.0
O887 O 0.55297 0.05938 0.05681 0.0
O888 O 0.54278 0.00894 0.03082 0.0
O889 O 0.55844 0.04002 0.07366 0.0
O890 O 0.56063 0.07943 0.99416 0.0
O891 O 0.56976 0.05474 0.02621 0.0
O892 O 0.57649 0.02496 0.0189 0.0
O893 O 0.55665 0.03003 0.99518 0.0
O894 O 0.56849 0.08159 0.022 0.0
O895 O 0.55419 0.04971 0.97881 0.0
C896 C 0.53377 0.01836 0.02173 0.0
C897 C 0.54557 0.01418 0.09022 0.0
C898 C 0.52653 0.01584 0.11637 0.0
C899 C 0.53465 0.02389 0.1015 0.0
C900 C 0.52998 0.99826 0.12024 0.0
C901 C 0.54879 0.99659 0.09412 0.0
C902 C 0.54114 0.98878 0.10923 0.0
C903 C 0.53958 0.06642 0.05039 0.0
C904 C 0.55232 0.02158 0.07345 0.0
C905 C 0.63265 0.02468 0.05979 0.0
C906 C 0.63546 0.04417 0.0689 0.0
C907 C 0.57801 0.07214 0.03039 0.0
C908 C 0.55598 0.0741 0.96037 0.0
C909 C 0.56892 0.07693 0.94756 0.0
C910 C 0.56466 0.08104 0.92952 0.0
C911 C 0.54726 0.08266 0.92444 0.0
C912 C 0.53865 0.07599 0.95542 0.0
C913 C 0.53436 0.08039 0.9375 0.0
C914 C 0.56986 0.02232 1.00077 0.0
C915 C 0.56087 0.06776 0.97801 0.0
H916 H 0.53181 0.03722 0.09811 0.0
H917 H 0.52406 0.99189 0.1318 0.0
H918 H 0.55712 0.98886 0.08543 0.0
H919 H 0.54369 0.97524 0.11225 0.0
H920 H 0.58221 0.07505 0.9513 0.0
H921 H 0.54367 0.08556 0.91041 0.0
H922 H 0.52847 0.07375 0.96519 0.0
H923 H 0.52095 0.08167 0.93358 0.0
Tb924 Tb 0.31528 0.30833 0.28388 0.0
C925 C 0.24434 0.2645 0.26118 0.0
C926 C 0.23261 0.24067 0.28021 0.0
C927 C 0.21343 0.25994 0.2685 0.0
C928 C 0.24688 0.25064 0.27158 0.0
C929 C 0.22742 0.26899 0.25908 0.0
C930 C 0.21603 0.2458 0.27908 0.0
C931 C 0.23904 0.29001 0.23754 0.0
N932 N 0.25828 0.27304 0.2525 0.0
C933 C 0.25554 0.28515 0.24013 0.0
C934 C 0.22497 0.28213 0.24728 0.0
Tb935 Tb 0.28523 0.2644 0.25801 0.0
N936 N 0.26299 0.24592 0.27202 0.0
C937 C 0.26484 0.2295 0.27879 0.0
C938 C 0.2352 0.2253 0.28898 0.0
C939 C 0.25129 0.21941 0.28789 0.0
H940 H 0.26581 0.29123 0.23199 0.0
H941 H 0.25321 0.20695 0.29383 0.0
H942 H 0.20499 0.2385 0.28583 0.0
H943 H 0.23719 0.29984 0.22796 0.0
H944 H 0.27702 0.22432 0.27753 0.0
H945 H 0.35342 0.35392 0.2397 0.0
H946 H 0.22461 0.21733 0.29582 0.0
H947 H 0.33214 0.28783 0.31909 0.0
H948 H 0.32826 0.34319 0.25759 0.0
H949 H 0.35876 0.27688 0.3266 0.0
H950 H 0.20045 0.26346 0.26732 0.0
H951 H 0.38055 0.34099 0.24259 0.0
H952 H 0.39762 0.32147 0.25923 0.0
H953 H 0.2122 0.28595 0.24528 0.0
H954 H 0.39914 0.30063 0.28312 0.0
N955 N 0.33929 0.32145 0.26825 0.0
C956 C 0.33933 0.33616 0.25804 0.0
C957 C 0.36917 0.33558 0.24995 0.0
C958 C 0.36999 0.32244 0.26223 0.0
C959 C 0.35388 0.34283 0.24822 0.0
C960 C 0.35471 0.3157 0.27139 0.0
H961 H 0.38479 0.28398 0.30824 0.0
N962 N 0.34083 0.29877 0.29398 0.0
C963 C 0.35797 0.28416 0.31451 0.0
C964 C 0.35558 0.30415 0.28487 0.0
C965 C 0.34237 0.28996 0.30957 0.0
C966 C 0.37265 0.28832 0.30424 0.0
C967 C 0.37178 0.29891 0.28959 0.0
O968 O 0.31543 0.31918 0.31344 0.0
O969 O 0.28847 0.29113 0.27842 0.0
O970 O 0.29361 0.28427 0.23804 0.0
O971 O 0.30689 0.31479 0.25614 0.0
O972 O 0.29157 0.32042 0.28053 0.0
O973 O 0.3239 0.33833 0.29396 0.0
O974 O 0.2814 0.25747 0.22775 0.0
O975 O 0.31214 0.28157 0.26344 0.0
O976 O 0.30594 0.28904 0.30418 0.0
O977 O 0.29232 0.25849 0.28636 0.0
O978 O 0.30878 0.25224 0.26153 0.0
O979 O 0.28101 0.23522 0.24457 0.0
C980 C 0.27994 0.30435 0.27876 0.0
C981 C 0.30685 0.34929 0.3185 0.0
C982 C 0.28688 0.3707 0.31321 0.0
C983 C 0.29997 0.3607 0.30695 0.0
C984 C 0.2809 0.36952 0.33139 0.0
C985 C 0.30088 0.3485 0.33674 0.0
C986 C 0.28799 0.3586 0.34313 0.0
C987 C 0.30022 0.30317 0.2397 0.0
C988 C 0.31921 0.33714 0.31109 0.0
C989 C 0.38672 0.30476 0.27986 0.0
C990 C 0.38583 0.31654 0.26621 0.0
C991 C 0.32052 0.26827 0.26369 0.0
C992 C 0.29338 0.23075 0.21479 0.0
C993 C 0.30443 0.21953 0.22155 0.0
C994 C 0.31513 0.21054 0.20927 0.0
C995 C 0.31492 0.21295 0.19006 0.0
C996 C 0.29344 0.23323 0.19559 0.0
C997 C 0.30422 0.22443 0.18333 0.0
C998 C 0.29915 0.27017 0.3027 0.0
C999 C 0.28133 0.23927 0.22743 0.0
H1000 H 0.30429 0.36132 0.29275 0.0
H1001 H 0.27089 0.3772 0.33661 0.0
H1002 H 0.30596 0.33982 0.3459 0.0
H1003 H 0.28337 0.35783 0.35716 0.0
H1004 H 0.3044 0.21722 0.23626 0.0
H1005 H 0.32302 0.20601 0.18034 0.0
H1006 H 0.28502 0.24182 0.19003 0.0
H1007 H 0.30414 0.22633 0.16852 0.0
Tb1008 Tb 0.54934 0.56072 0.03174 0.0
C1009 C 0.57557 0.50879 0.96868 0.0
C1010 C 0.55346 0.50518 0.94196 0.0
C1011 C 0.5837 0.50289 0.9359 0.0
C1012 C 0.55847 0.50905 0.96191 0.0
C1013 C 0.58819 0.50503 0.95572 0.0
C1014 C 0.56634 0.50294 0.92902 0.0
C1015 C 0.60768 0.50261 0.98256 0.0
N1016 N 0.57928 0.51043 0.98792 0.0
C1017 C 0.59472 0.50627 0.99485 0.0
C1018 C 0.60459 0.50246 0.96298 0.0
Tb1019 Tb 0.55712 0.5172 0.00657 0.0
N1020 N 0.54628 0.51073 0.97482 0.0
C1021 C 0.52852 0.506 0.96863 0.0
C1022 C 0.53546 0.50237 0.9356 0.0
C1023 C 0.52289 0.50221 0.949 0.0
H1024 H 0.59728 0.50581 0.00982 0.0
H1025 H 0.50886 0.49922 0.94424 0.0
H1026 H 0.5628 0.50028 0.91366 0.0
H1027 H 0.62002 0.4998 0.98821 0.0
H1028 H 0.51856 0.50558 0.97871 0.0
H1029 H 0.60299 0.58291 0.08887 0.0
H1030 H 0.53106 0.49934 0.92041 0.0
H1031 H 0.50699 0.56415 0.03227 0.0
H1032 H 0.58992 0.57371 0.05545 0.0
H1033 H 0.486 0.57013 0.05624 0.0
H1034 H 0.5933 0.50026 0.92574 0.0
H1035 H 0.58359 0.58513 0.1154 0.0
H1036 H 0.55281 0.58407 0.12573 0.0
H1037 H 0.61461 0.49948 0.95349 0.0
H1038 H 0.52087 0.58081 0.11682 0.0
N1039 N 0.56302 0.56978 0.06255 0.0
C1040 C 0.58112 0.5745 0.06669 0.0
C1041 C 0.5777 0.58094 0.10066 0.0
C1042 C 0.55929 0.57747 0.09634 0.0
C1043 C 0.58868 0.57978 0.08574 0.0
C1044 C 0.55233 0.572 0.0769 0.0
H1045 H 0.4959 0.57604 0.09091 0.0
N1046 N 0.52875 0.56626 0.05302 0.0
C1047 C 0.4996 0.57012 0.06088 0.0
C1048 C 0.53451 0.57024 0.07195 0.0
C1049 C 0.51162 0.56676 0.0473 0.0
C1050 C 0.50521 0.57338 0.08042 0.0
C1051 C 0.52294 0.57377 0.08619 0.0
O1052 O 0.53932 0.58355 0.02333 0.0
O1053 O 0.54805 0.5436 1.0025 0.0
O1054 O 0.57982 0.53865 1.00083 0.0
O1055 O 0.57666 0.56532 0.02316 0.0
O1056 O 0.52744 0.55634 0.00915 0.0
O1057 O 0.56692 0.58769 0.0336 0.0
O1058 O 0.55512 0.49587 0.0241 0.0
O1059 O 0.55865 0.53466 0.03551 0.0
O1060 O 0.52981 0.53723 0.03981 0.0
O1061 O 0.5291 0.51491 0.01202 0.0
O1062 O 0.57927 0.52186 0.0291 0.0
O1063 O 0.5465 0.48791 0.99419 0.0
C1064 C 0.53334 0.54649 0.9951 0.0
C1065 C 0.55484 0.61556 0.03621 0.0
C1066 C 0.55907 0.64947 0.03293 0.0
C1067 C 0.55862 0.63001 0.0251 0.0
C1068 C 0.55554 0.65426 0.0522 0.0
C1069 C 0.55144 0.62046 0.0554 0.0
C1070 C 0.55178 0.6398 0.06334 0.0
C1071 C 0.58557 0.55669 0.01018 0.0
C1072 C 0.55468 0.59563 0.02711 0.0
C1073 C 0.52957 0.57821 0.10564 0.0
C1074 C 0.54774 0.58005 0.11071 0.0
C1075 C 0.57356 0.53236 0.04296 0.0
C1076 C 0.55821 0.46515 0.00853 0.0
C1077 C 0.55561 0.45321 0.02233 0.0
C1078 C 0.56345 0.43704 0.02131 0.0
C1079 C 0.57419 0.43315 0.00638 0.0
C1080 C 0.56875 0.46085 0.99355 0.0
C1081 C 0.57681 0.44501 0.99262 0.0
C1082 C 0.52206 0.52102 0.02785 0.0
C1083 C 0.54937 0.48162 0.00986 0.0
H1084 H 0.56098 0.62598 0.01018 0.0
H1085 H 0.55588 0.66916 0.0587 0.0
H1086 H 0.54854 0.60942 0.06416 0.0
H1087 H 0.54916 0.64361 0.07817 0.0
H1088 H 0.54707 0.45626 0.03357 0.0
H1089 H 0.58059 0.42095 0.00534 0.0
H1090 H 0.57066 0.46956 0.98248 0.0
H1091 H 0.585 0.44184 0.98111 0.0
Tb1092 Tb 0.82303 0.30705 0.27114 0.0
C1093 C 0.78579 0.23365 0.27375 0.0
C1094 C 0.77025 0.21297 0.24457 0.0
C1095 C 0.78499 0.19902 0.2681 0.0
C1096 C 0.77628 0.23153 0.25613 0.0
C1097 C 0.78994 0.21734 0.28012 0.0
C1098 C 0.77512 0.19683 0.25038 0.0
C1099 C 0.80229 0.23818 0.31033 0.0
N1100 N 0.79016 0.25154 0.28507 0.0
C1101 C 0.79789 0.25392 0.30339 0.0
C1102 C 0.79852 0.21986 0.29856 0.0
Tb1103 Tb 0.78231 0.27608 0.27205 0.0
N1104 N 0.7717 0.24741 0.25106 0.0
C1105 C 0.75916 0.24532 0.23595 0.0
C1106 C 0.75882 0.21108 0.22801 0.0
C1107 C 0.75295 0.22727 0.2239 0.0
H1108 H 0.80086 0.26791 0.31269 0.0
H1109 H 0.74356 0.22582 0.21156 0.0
H1110 H 0.77083 0.18249 0.24157 0.0
H1111 H 0.80864 0.24022 0.32474 0.0
H1112 H 0.75446 0.2578 0.23289 0.0
H1113 H 0.80401 0.37343 0.30191 0.0
H1114 H 0.75386 0.19707 0.21877 0.0
H1115 H 0.84953 0.30022 0.23676 0.0
H1116 H 0.81001 0.34091 0.30163 0.0
H1117 H 0.85902 0.31476 0.20877 0.0
H1118 H 0.78826 0.18636 0.27264 0.0
H1119 H 0.80829 0.38869 0.27324 0.0
H1120 H 0.81882 0.38738 0.24016 0.0
H1121 H 0.80196 0.20771 0.30397 0.0
H1122 H 0.83362 0.37109 0.21437 0.0
N1123 N 0.81725 0.33745 0.27294 0.0
C1124 C 0.81195 0.34735 0.28904 0.0
C1125 C 0.81092 0.37438 0.27304 0.0
C1126 C 0.81732 0.36464 0.25701 0.0
C1127 C 0.80857 0.36585 0.28927 0.0
C1128 C 0.82049 0.34603 0.25751 0.0
H1129 H 0.84903 0.34407 0.20267 0.0
N1130 N 0.83302 0.31997 0.24527 0.0
C1131 C 0.85025 0.32099 0.21814 0.0
C1132 C 0.82864 0.33688 0.24303 0.0
C1133 C 0.84477 0.31271 0.2339 0.0
C1134 C 0.84455 0.3375 0.21472 0.0
C1135 C 0.83407 0.34603 0.22761 0.0
O1136 O 0.84955 0.30408 0.2753 0.0
O1137 O 0.81121 0.278 0.27688 0.0
O1138 O 0.78834 0.29447 0.30039 0.0
O1139 O 0.81842 0.30761 0.30126 0.0
O1140 O 0.83158 0.2802 0.25955 0.0
O1141 O 0.84111 0.32815 0.29122 0.0
O1142 O 0.76496 0.2664 0.29209 0.0
O1143 O 0.79453 0.30692 0.27363 0.0
O1144 O 0.81207 0.29648 0.24114 0.0
O1145 O 0.7904 0.26915 0.24325 0.0
O1146 O 0.77281 0.29535 0.2545 0.0
O1147 O 0.7556 0.27822 0.26871 0.0
C1148 C 0.82115 0.26783 0.26731 0.0
C1149 C 0.87108 0.33322 0.28409 0.0
C1150 C 0.90355 0.34249 0.28877 0.0
C1151 C 0.88736 0.33056 0.29173 0.0
C1152 C 0.90313 0.35702 0.27777 0.0
C1153 C 0.87095 0.34806 0.27353 0.0
C1154 C 0.88691 0.35978 0.27027 0.0
C1155 C 0.80361 0.30432 0.30968 0.0
C1156 C 0.85452 0.32031 0.28739 0.0
C1157 C 0.8298 0.36393 0.22625 0.0
C1158 C 0.8214 0.37322 0.24096 0.0
C1159 C 0.78349 0.31168 0.26182 0.0
C1160 C 0.73539 0.25287 0.27768 0.0
C1161 C 0.7194 0.25639 0.27013 0.0
C1162 C 0.70474 0.241 0.26328 0.0
C1163 C 0.70609 0.22197 0.26441 0.0
C1164 C 0.73643 0.23376 0.27896 0.0
C1165 C 0.72181 0.21843 0.27238 0.0
C1166 C 0.80091 0.27998 0.23341 0.0
C1167 C 0.75108 0.26914 0.28261 0.0
H1168 H 0.88734 0.31941 0.30033 0.0
H1169 H 0.91532 0.36626 0.27493 0.0
H1170 H 0.85857 0.35069 0.2679 0.0
H1171 H 0.88672 0.37109 0.26196 0.0
H1172 H 0.71862 0.27108 0.26885 0.0
H1173 H 0.69498 0.20986 0.25918 0.0
H1174 H 0.74857 0.23059 0.28471 0.0
H1175 H 0.72274 0.20372 0.27323 0.0
Tb1176 Tb 0.06134 0.53812 0.54058 0.0
C1177 C 0.01094 0.57152 0.49125 0.0
C1178 C 0.9896 0.54361 0.47359 0.0
C1179 C 0.9812 0.57472 0.48132 0.0
C1180 C 0.00664 0.55213 0.48312 0.0
C1181 C 0.99844 0.58322 0.4901 0.0
C1182 C 0.97677 0.55492 0.4731 0.0
C1183 C 0.0214 0.61096 0.50503 0.0
N1184 N 0.02773 0.57911 0.49951 0.0
C1185 C 0.0333 0.59872 0.5058 0.0
C1186 C 1.00382 0.60314 0.49736 0.0
Tb1187 Tb 0.04629 0.558 0.50038 0.0
N1188 N 0.01949 0.54183 0.48378 0.0
C1189 C 0.01646 0.52315 0.47385 0.0
C1190 C 0.98613 0.52417 0.46442 0.0
C1191 C 0.99972 0.51398 0.46432 0.0
H1192 H 0.04681 0.60495 0.51187 0.0
H1193 H 0.99731 0.49903 0.45697 0.0
H1194 H 0.96354 0.54862 0.46599 0.0
H1195 H 0.02578 0.6264 0.5104 0.0
H1196 H 0.02669 0.51493 0.47364 0.0
H1197 H 0.10945 0.59849 0.58309 0.0
H1198 H 0.97319 0.51704 0.45702 0.0
H1199 H 0.06219 0.49152 0.5292 0.0
H1200 H 0.07999 0.58148 0.56719 0.0
H1201 H 0.08437 0.47116 0.52946 0.0
H1202 H 0.97133 0.58341 0.48043 0.0
H1203 H 0.13447 0.58171 0.58207 0.0
H1204 H 0.14523 0.55088 0.5724 0.0
H1205 H 0.99463 0.61265 0.49675 0.0
H1206 H 0.13837 0.51609 0.55791 0.0
N1207 N 0.08805 0.55516 0.55671 0.0
C1208 C 0.09063 0.57379 0.56663 0.0
C1209 C 0.1215 0.5741 0.57505 0.0
C1210 C 0.11853 0.55469 0.56585 0.0
C1211 C 0.1074 0.58359 0.5757 0.0
C1212 C 0.10141 0.54551 0.5569 0.0
H1213 H 0.11561 0.48613 0.54206 0.0
N1214 N 0.08073 0.51786 0.54121 0.0
C1215 C 0.08829 0.48662 0.53491 0.0
C1216 C 0.0976 0.5261 0.54887 0.0
C1217 C 0.07574 0.4982 0.53488 0.0
C1218 C 0.10592 0.49513 0.54199 0.0
C1219 C 0.11072 0.51507 0.54935 0.0
O1220 O 0.04783 0.51738 0.5554 0.0
O1221 O 0.03992 0.53874 0.52027 0.0
O1222 O 0.03249 0.56815 0.52471 0.0
O1223 O 0.05187 0.56505 0.54991 0.0
O1224 O 0.04033 0.51266 0.52761 0.0
O1225 O 0.05607 0.5477 0.5688 0.0
O1226 O 0.06159 0.57836 0.48648 0.0
O1227 O 0.06772 0.55709 0.52058 0.0
O1228 O 0.07458 0.52779 0.51594 0.0
O1229 O 0.05483 0.53051 0.49089 0.0
O1230 O 0.06731 0.58328 0.51392 0.0
O1231 O 0.05077 0.54891 0.47166 0.0
C1232 C 0.03142 0.5214 0.51757 0.0
C1233 C 0.05243 0.52488 0.5892 0.0
C1234 C 0.04201 0.51863 0.6197 0.0
C1235 C 0.03895 0.52309 0.60152 0.0
C1236 C 0.05894 0.516 0.62549 0.0
C1237 C 0.06925 0.52211 0.59492 0.0
C1238 C 0.07245 0.51764 0.61307 0.0
C1239 C 0.0384 0.57173 0.54314 0.0
C1240 C 0.04834 0.53031 0.57085 0.0
C1241 C 0.12803 0.52425 0.55753 0.0
C1242 C 0.13194 0.54405 0.56577 0.0
C1243 C 0.07634 0.57438 0.52363 0.0
C1244 C 0.05627 0.57335 0.45295 0.0
C1245 C 0.0696 0.57518 0.44045 0.0
C1246 C 0.06719 0.58232 0.42352 0.0
C1247 C 0.05104 0.58757 0.41917 0.0
C1248 C 0.04024 0.5787 0.44863 0.0
C1249 C 0.03767 0.58581 0.43175 0.0
C1250 C 0.06809 0.52357 0.4977 0.0
C1251 C 0.05988 0.56604 0.47041 0.0
H1252 H 0.0261 0.52568 0.59706 0.0
H1253 H 0.06165 0.51258 0.6395 0.0
H1254 H 0.07982 0.52353 0.5855 0.0
H1255 H 0.08544 0.51555 0.61756 0.0
H1256 H 0.08181 0.57063 0.4438 0.0
H1257 H 0.0488 0.59307 0.40616 0.0
H1258 H 0.02982 0.57739 0.45822 0.0
H1259 H 0.02529 0.58992 0.42837 0.0
Tb1260 Tb 0.78247 0.79576 0.26843 0.0
C1261 C 0.83813 0.76216 0.30877 0.0
C1262 C 0.84934 0.78609 0.33741 0.0
C1263 C 0.84895 0.7521 0.33743 0.0
C1264 C 0.84151 0.78106 0.31827 0.0
C1265 C 0.84243 0.74751 0.31794 0.0
C1266 C 0.85239 0.77141 0.34718 0.0
C1267 C 0.83619 0.72575 0.28725 0.0
N1268 N 0.83235 0.75855 0.28988 0.0
C1269 C 0.83216 0.74083 0.27883 0.0
C1270 C 0.84099 0.72898 0.30698 0.0
Tb1271 Tb 0.82543 0.78388 0.2772 0.0
N1272 N 0.83882 0.79474 0.30808 0.0
C1273 C 0.84551 0.81396 0.31569 0.0
C1274 C 0.85476 0.80574 0.34575 0.0
C1275 C 0.85321 0.81973 0.33467 0.0
H1276 H 0.82839 0.73806 0.26358 0.0
H1277 H 0.85787 0.83499 0.34076 0.0
H1278 H 0.85815 0.77494 0.36196 0.0
H1279 H 0.83555 0.71164 0.27851 0.0
H1280 H 0.84442 0.82509 0.30753 0.0
H1281 H 0.75099 0.74397 0.20493 0.0
H1282 H 0.8608 0.81024 0.36041 0.0
H1283 H 0.77935 0.84154 0.28149 0.0
H1284 H 0.76399 0.75424 0.23832 0.0
H1285 H 0.77219 0.86774 0.26613 0.0
H1286 H 0.85211 0.74101 0.34483 0.0
H1287 H 0.74806 0.76845 0.18493 0.0
H1288 H 0.75039 0.80364 0.18305 0.0
H1289 H 0.84422 0.71733 0.31346 0.0
H1290 H 0.75605 0.83765 0.1999 0.0
N1291 N 0.76935 0.78454 0.23749 0.0
C1292 C 0.76289 0.76526 0.23 0.0
C1293 C 0.7539 0.77311 0.19966 0.0
C1294 C 0.75905 0.79281 0.20788 0.0
C1295 C 0.75545 0.75927 0.21093 0.0
C1296 C 0.76664 0.79806 0.2271 0.0
H1297 H 0.76367 0.86164 0.23112 0.0
N1298 N 0.77544 0.82081 0.25538 0.0
C1299 C 0.77158 0.85356 0.25756 0.0
C1300 C 0.7698 0.817 0.23644 0.0
C1301 C 0.77558 0.83862 0.26622 0.0
C1302 C 0.76687 0.85009 0.23779 0.0
C1303 C 0.76553 0.8315 0.22703 0.0
O1304 O 0.76539 0.80559 0.28835 0.0
O1305 O 0.80291 0.79318 0.28949 0.0
O1306 O 0.80534 0.75962 0.28477 0.0
O1307 O 0.77926 0.76417 0.26953 0.0
O1308 O 0.79095 0.81636 0.29518 0.0
O1309 O 0.75775 0.77744 0.2707 0.0
O1310 O 0.84191 0.7744 0.2564 0.0
O1311 O 0.80503 0.78657 0.25603 0.0
O1312 O 0.80262 0.82021 0.26129 0.0
O1313 O 0.82864 0.81561 0.27659 0.0
O1314 O 0.81651 0.763 0.25078 0.0
O1315 O 0.85057 0.80167 0.27534 0.0
C1316 C 0.80252 0.80807 0.30184 0.0
C1317 C 0.73447 0.79285 0.28044 0.0
C1318 C 0.70402 0.79059 0.29013 0.0
C1319 C 0.7217 0.78835 0.29356 0.0
C1320 C 0.69961 0.79778 0.27365 0.0
C1321 C 0.7295 0.79983 0.26414 0.0
C1322 C 0.71223 0.80235 0.26084 0.0
C1323 C 0.78821 0.75325 0.27801 0.0
C1324 C 0.75285 0.79002 0.28359 0.0
C1325 C 0.7592 0.82669 0.20749 0.0
C1326 C 0.75598 0.80733 0.1979 0.0
C1327 C 0.80514 0.77141 0.24389 0.0
C1328 C 0.87296 0.78541 0.26423 0.0
C1329 C 0.88585 0.79 0.25124 0.0
C1330 C 0.90305 0.7861 0.25384 0.0
C1331 C 0.90675 0.77711 0.26934 0.0
C1332 C 0.87737 0.77686 0.27965 0.0
C1333 C 0.89408 0.77264 0.28209 0.0
C1334 C 0.81969 0.82661 0.26825 0.0
C1335 C 0.85494 0.78941 0.26171 0.0
H1336 H 0.72542 0.78279 0.30611 0.0
H1337 H 0.68635 0.80005 0.27069 0.0
H1338 H 0.73895 0.80327 0.25389 0.0
H1339 H 0.70857 0.80784 0.24824 0.0
H1340 H 0.88257 0.79682 0.23942 0.0
H1341 H 0.91951 0.77334 0.27159 0.0
H1342 H 0.86788 0.7734 0.28983 0.0
H1343 H 0.89725 0.76584 0.29395 0.0
Tb1344 Tb 0.80763 0.28033 0.75185 0.0
C1345 C 0.79018 0.34586 0.81367 0.0
C1346 C 0.81738 0.36074 0.83387 0.0
C1347 C 0.79376 0.37827 0.83295 0.0
C1348 C 0.80673 0.34469 0.82087 0.0
C1349 C 0.78348 0.36269 0.81961 0.0
C1350 C 0.81069 0.3773 0.84007 0.0
C1351 C 0.7567 0.34754 0.79909 0.0
N1352 N 0.78073 0.33072 0.80053 0.0
C1353 C 0.76382 0.33122 0.79377 0.0
C1354 C 0.76661 0.36342 0.81202 0.0
Tb1355 Tb 0.79182 0.30286 0.7943 0.0
N1356 N 0.81291 0.32859 0.814 0.0
C1357 C 0.83068 0.3292 0.81862 0.0
C1358 C 0.83474 0.36015 0.8397 0.0
C1359 C 0.84151 0.34446 0.83172 0.0
H1360 H 0.7554 0.31894 0.78432 0.0
H1361 H 0.85535 0.34439 0.83511 0.0
H1362 H 0.81869 0.38962 0.85005 0.0
H1363 H 0.74344 0.34771 0.79338 0.0
H1364 H 0.83762 0.319 0.81148 0.0
H1365 H 0.75663 0.21454 0.72768 0.0
H1366 H 0.84331 0.37218 0.84952 0.0
H1367 H 0.85133 0.28649 0.74795 0.0
H1368 H 0.76835 0.24958 0.7349 0.0
H1369 H 0.87359 0.26631 0.74552 0.0
H1370 H 0.7888 0.39123 0.83768 0.0
H1371 H 0.77642 0.19209 0.73139 0.0
H1372 H 0.80744 0.18741 0.7376 0.0
H1373 H 0.76104 0.37604 0.81622 0.0
H1374 H 0.83959 0.2016 0.74248 0.0
N1375 N 0.7948 0.24772 0.74385 0.0
C1376 C 0.77737 0.24032 0.73687 0.0
C1377 C 0.78175 0.20762 0.73476 0.0
C1378 C 0.79986 0.21518 0.74025 0.0
C1379 C 0.77056 0.22025 0.73258 0.0
C1380 C 0.8061 0.23554 0.74452 0.0
H1381 H 0.8644 0.23098 0.74469 0.0
N1382 N 0.82961 0.26304 0.74953 0.0
C1383 C 0.85977 0.25973 0.74633 0.0
C1384 C 0.82416 0.24348 0.74738 0.0
C1385 C 0.84706 0.27116 0.74787 0.0
C1386 C 0.85453 0.2398 0.74592 0.0
C1387 C 0.83648 0.23135 0.74592 0.0
O1388 O 0.80745 0.29931 0.73221 0.0
O1389 O 0.80649 0.3071 0.77031 0.0
O1390 O 0.7806 0.31047 0.76757 0.0
O1391 O 0.77969 0.28219 0.74641 0.0
O1392 O 0.8305 0.30492 0.75995 0.0
O1393 O 0.80949 0.2701 0.72249 0.0
O1394 O 0.76443 0.29108 0.79168 0.0
O1395 O 0.78878 0.27653 0.7728 0.0
O1396 O 0.82589 0.2777 0.77641 0.0
O1397 O 0.81541 0.29266 0.80451 0.0
O1398 O 0.79219 0.27455 0.80139 0.0
O1399 O 0.77898 0.30078 0.81966 0.0
C1400 C 0.8223 0.31612 0.77039 0.0
C1401 C 0.82588 0.29448 0.70756 0.0
C1402 C 0.84147 0.32054 0.69248 0.0
C1403 C 0.82665 0.31211 0.70124 0.0
C1404 C 0.85555 0.31087 0.69 0.0
C1405 C 0.83986 0.28481 0.70449 0.0
C1406 C 0.85465 0.29307 0.69586 0.0
C1407 C 0.77341 0.29797 0.75162 0.0
C1408 C 0.81069 0.28707 0.71798 0.0
C1409 C 0.83032 0.21114 0.7433 0.0
C1410 C 0.81201 0.20306 0.74051 0.0
C1411 C 0.78903 0.26469 0.78412 0.0
C1412 C 0.75357 0.27422 0.81543 0.0
C1413 C 0.76175 0.26252 0.82543 0.0
C1414 C 0.75203 0.24446 0.82833 0.0
C1415 C 0.73391 0.23852 0.82148 0.0
C1416 C 0.73545 0.26804 0.80889 0.0
C1417 C 0.7257 0.25031 0.81193 0.0
C1418 C 0.82706 0.28359 0.79546 0.0
C1419 C 0.76369 0.29205 0.81005 0.0
H1420 H 0.81553 0.31913 0.70303 0.0
H1421 H 0.86726 0.31704 0.68354 0.0
H1422 H 0.83947 0.27098 0.70884 0.0
H1423 H 0.86548 0.28567 0.69375 0.0
H1424 H 0.77574 0.26715 0.83047 0.0
H1425 H 0.72599 0.22489 0.82378 0.0
H1426 H 0.72892 0.2768 0.80105 0.0
H1427 H 0.71175 0.24562 0.80673 0.0
Tb1428 Tb 0.81603 0.80906 0.78352 0.0
C1429 C 0.7488 0.76044 0.73266 0.0
C1430 C 0.72472 0.75335 0.75246 0.0
C1431 C 0.71826 0.75669 0.71945 0.0
C1432 C 0.74308 0.75765 0.75015 0.0
C1433 C 0.73649 0.75951 0.7169 0.0
C1434 C 0.71237 0.75356 0.73722 0.0
C1435 C 0.76086 0.7617 0.69689 0.0
N1436 N 0.76641 0.76253 0.73075 0.0
C1437 C 0.77248 0.76223 0.71292 0.0
C1438 C 0.74281 0.76063 0.69894 0.0
Tb1439 Tb 0.78479 0.76468 0.75803 0.0
N1440 N 0.75546 0.75729 0.76433 0.0
C1441 C 0.75011 0.75047 0.78043 0.0
C1442 C 0.71931 0.74791 0.76958 0.0
C1443 C 0.73205 0.74597 0.78341 0.0
H1444 H 0.78643 0.76324 0.71118 0.0
H1445 H 0.728 0.7411 0.79644 0.0
H1446 H 0.69823 0.75057 0.7388 0.0
H1447 H 0.76585 0.76212 0.68297 0.0
H1448 H 0.75964 0.74871 0.79131 0.0
H1449 H 0.87231 0.82741 0.74259 0.0
H1450 H 0.70535 0.74443 0.77193 0.0
H1451 H 0.81591 0.81826 0.8306 0.0
H1452 H 0.8409 0.821 0.74853 0.0
H1453 H 0.83669 0.82172 0.85932 0.0
H1454 H 0.70859 0.75614 0.70759 0.0
H1455 H 0.8953 0.82594 0.76767 0.0
H1456 H 0.90288 0.82266 0.80175 0.0
H1457 H 0.7338 0.76003 0.68647 0.0
H1458 H 0.89302 0.82086 0.83397 0.0
N1459 N 0.84535 0.81494 0.77657 0.0
C1460 C 0.85051 0.82003 0.75965 0.0
C1461 C 0.8814 0.82297 0.77036 0.0
C1462 C 0.87624 0.81922 0.78815 0.0
C1463 C 0.86847 0.82385 0.75621 0.0
C1464 C 0.85795 0.81555 0.79087 0.0
H1465 H 0.8683 0.82099 0.85576 0.0
N1466 N 0.8351 0.81391 0.81084 0.0
C1467 C 0.84133 0.81957 0.84517 0.0
C1468 C 0.85254 0.81482 0.80878 0.0
C1469 C 0.82957 0.81751 0.82883 0.0
C1470 C 0.85913 0.81907 0.8431 0.0
C1471 C 0.86507 0.81732 0.82475 0.0
O1472 O 0.81117 0.83476 0.79946 0.0
O1473 O 0.78918 0.79247 0.77641 0.0
O1474 O 0.78184 0.78958 0.74463 0.0
O1475 O 0.81056 0.80843 0.75247 0.0
O1476 O 0.79419 0.81193 0.80166 0.0
O1477 O 0.81833 0.83347 0.77043 0.0
O1478 O 0.78869 0.73977 0.73986 0.0
O1479 O 0.81194 0.78041 0.76622 0.0
O1480 O 0.81694 0.78595 0.80035 0.0
O1481 O 0.79003 0.76351 0.78874 0.0
O1482 O 0.80649 0.76284 0.73966 0.0
O1483 O 0.78296 0.73921 0.76929 0.0
C1484 C 0.7819 0.79959 0.79049 0.0
C1485 C 0.82599 0.86388 0.79094 0.0
C1486 C 0.82779 0.89862 0.79477 0.0
C1487 C 0.81778 0.87947 0.79085 0.0
C1488 C 0.84633 0.90204 0.79876 0.0
C1489 C 0.84447 0.86732 0.79521 0.0
C1490 C 0.85459 0.8864 0.79912 0.0
C1491 C 0.79535 0.80298 0.74123 0.0
C1492 C 0.81477 0.84434 0.78566 0.0
C1493 C 0.88319 0.81919 0.82194 0.0
C1494 C 0.88879 0.8202 0.80362 0.0
C1495 C 0.81895 0.7739 0.75162 0.0
C1496 C 0.77495 0.70965 0.74743 0.0
C1497 C 0.78232 0.69448 0.75166 0.0
C1498 C 0.77277 0.67518 0.74674 0.0
C1499 C 0.75561 0.67118 0.73716 0.0
C1500 C 0.75773 0.70569 0.73813 0.0
C1501 C 0.74812 0.68644 0.73298 0.0
C1502 C 0.80412 0.77065 0.80157 0.0
C1503 C 0.78589 0.72927 0.75312 0.0
H1504 H 0.80351 0.87663 0.7872 0.0
H1505 H 0.85433 0.91671 0.8017 0.0
H1506 H 0.85102 0.85536 0.79533 0.0
H1507 H 0.86886 0.88907 0.8023 0.0
H1508 H 0.79578 0.69777 0.75859 0.0
H1509 H 0.74799 0.65639 0.7331 0.0
H1510 H 0.75184 0.71736 0.73482 0.0
H1511 H 0.73485 0.68332 0.72572 0.0
Tb1512 Tb 0.53497 0.5284 0.51058 0.0
C1513 C 0.58111 0.59046 0.56825 0.0
C1514 C 0.58481 0.62013 0.55547 0.0
C1515 C 0.58597 0.62151 0.59002 0.0
C1516 C 0.58152 0.5997 0.55266 0.0
C1517 C 0.58368 0.60122 0.58711 0.0
C1518 C 0.58652 0.63095 0.57421 0.0
C1519 C 0.58305 0.57123 0.59868 0.0
N1520 N 0.5789 0.57083 0.56481 0.0
C1521 C 0.58063 0.56119 0.57968 0.0
C1522 C 0.58438 0.59131 0.60243 0.0
Tb1523 Tb 0.5758 0.55593 0.53318 0.0
N1524 N 0.58037 0.58876 0.53484 0.0
C1525 C 0.58429 0.5975 0.51946 0.0
C1526 C 0.58719 0.62906 0.53944 0.0
C1527 C 0.58729 0.6177 0.52141 0.0
H1528 H 0.57956 0.54565 0.57675 0.0
H1529 H 0.58979 0.62449 0.50902 0.0
H1530 H 0.58889 0.64665 0.57666 0.0
H1531 H 0.58393 0.5635 0.61042 0.0
H1532 H 0.5848 0.58884 0.50555 0.0
H1533 H 0.52378 0.4561 0.52648 0.0
H1534 H 0.58971 0.64472 0.54096 0.0
H1535 H 0.53023 0.5441 0.47022 0.0
H1536 H 0.5287 0.49191 0.534 0.0
H1537 H 0.52379 0.53014 0.43541 0.0
H1538 H 0.58782 0.63007 0.60441 0.0
H1539 H 0.52082 0.43917 0.49261 0.0
H1540 H 0.51848 0.44131 0.45746 0.0
H1541 H 0.58633 0.59905 0.61716 0.0
H1542 H 0.51785 0.46145 0.4326 0.0
N1543 N 0.53074 0.49527 0.505 0.0
C1544 C 0.52833 0.48466 0.51928 0.0
C1545 C 0.5235 0.45488 0.4959 0.0
C1546 C 0.52439 0.46577 0.48123 0.0
C1547 C 0.52518 0.46438 0.51503 0.0
C1548 C 0.52793 0.48616 0.48635 0.0
H1549 H 0.5196 0.49467 0.42425 0.0
N1550 N 0.53025 0.51688 0.47825 0.0
C1551 C 0.52484 0.52077 0.44569 0.0
C1552 C 0.52731 0.49735 0.47244 0.0
C1553 C 0.52849 0.52864 0.46531 0.0
C1554 C 0.52247 0.50072 0.43943 0.0
C1555 C 0.52353 0.48871 0.4529 0.0
O1556 O 0.51192 0.53766 0.50272 0.0
O1557 O 0.55442 0.55588 0.51249 0.0
O1558 O 0.55436 0.55981 0.55346 0.0
O1559 O 0.5337 0.53128 0.54248 0.0
O1560 O 0.52857 0.55699 0.51186 0.0
O1561 O 0.51066 0.51488 0.51938 0.0
O1562 O 0.59797 0.54826 0.54594 0.0
O1563 O 0.5565 0.52832 0.53124 0.0
O1564 O 0.55577 0.52467 0.48942 0.0
O1565 O 0.57805 0.55193 0.50132 0.0
O1566 O 0.58219 0.52717 0.53056 0.0
O1567 O 0.60106 0.56735 0.52517 0.0
C1568 C 0.54415 0.56767 0.5133 0.0
C1569 C 0.48442 0.51547 0.50041 0.0
C1570 C 0.45365 0.51701 0.49221 0.0
C1571 C 0.47058 0.52544 0.50185 0.0
C1572 C 0.45073 0.49823 0.48108 0.0
C1573 C 0.48136 0.49679 0.48922 0.0
C1574 C 0.46455 0.48824 0.47958 0.0
C1575 C 0.53964 0.54716 0.55595 0.0
C1576 C 0.50171 0.52521 0.51094 0.0
C1577 C 0.5207 0.46842 0.44757 0.0
C1578 C 0.52112 0.45696 0.46172 0.0
C1579 C 0.56672 0.51647 0.52985 0.0
C1580 C 0.62557 0.57052 0.54809 0.0
C1581 C 0.64002 0.56164 0.5495 0.0
C1582 C 0.65655 0.57215 0.55894 0.0
C1583 C 0.65816 0.59168 0.56763 0.0
C1584 C 0.62744 0.59004 0.55666 0.0
C1585 C 0.64365 0.60049 0.56655 0.0
C1586 C 0.57107 0.53672 0.48733 0.0
C1587 C 0.6091 0.55902 0.53692 0.0
H1588 H 0.473 0.53977 0.51078 0.0
H1589 H 0.43787 0.49138 0.47336 0.0
H1590 H 0.49184 0.48882 0.48798 0.0
H1591 H 0.46221 0.47383 0.47092 0.0
H1592 H 0.63834 0.54645 0.54304 0.0
H1593 H 0.67071 0.60029 0.57487 0.0
H1594 H 0.61656 0.59726 0.55556 0.0
H1595 H 0.64505 0.61558 0.57311 0.0
Tb1596 Tb 0.07151 0.54347 0.02025 0.0
C1597 C 0.00951 0.49299 0.0273 0.0
C1598 C 0.98956 0.48416 0.99817 0.0
C1599 C 0.99424 0.45925 0.01594 0.0
C1600 C 1.00191 0.49817 0.01152 0.0
C1601 C 1.00525 0.47355 0.03006 0.0
C1602 C 0.98638 0.46457 1.0 0.0
C1603 C 0.02115 0.48415 0.06146 0.0
N1604 N 0.02003 0.50725 0.04063 0.0
C1605 C 0.02472 0.5032 0.05816 0.0
C1606 C 0.01174 0.46915 0.04715 0.0
Tb1607 Tb 0.02682 0.53779 0.03266 0.0
N1608 N 1.00523 0.51724 0.01034 0.0
C1609 C 0.99405 0.52353 0.99832 0.0
C1610 C 0.97999 0.49043 0.98409 0.0
C1611 C 0.98183 0.51028 0.98457 0.0
H1612 H 0.03057 0.5145 0.07013 0.0
H1613 H 0.9737 0.5154 0.97452 0.0
H1614 H 0.97725 0.45355 0.98966 0.0
H1615 H 0.02531 0.48114 0.07525 0.0
H1616 H 0.99487 0.53885 0.99898 0.0
H1617 H 0.10053 0.59931 0.08137 0.0
H1618 H 0.97038 0.48016 0.97358 0.0
H1619 H 0.08002 0.53904 0.97462 0.0
H1620 H 0.08421 0.56683 0.06494 0.0
H1621 H 0.09419 0.56024 0.95311 0.0
H1622 H 0.99117 0.4442 0.01761 0.0
H1623 H 0.11265 0.6241 0.06232 0.0
H1624 H 0.118 0.63263 0.02982 0.0
H1625 H 0.00882 0.45442 0.04981 0.0
H1626 H 0.11603 0.62204 0.99473 0.0
N1627 N 0.08651 0.57315 0.0369 0.0
C1628 C 0.08928 0.57747 0.05648 0.0
C1629 C 0.10545 0.60984 0.05505 0.0
C1630 C 0.10333 0.60501 0.03498 0.0
C1631 C 0.09865 0.59588 0.06584 0.0
C1632 C 0.0938 0.58625 0.02626 0.0
H1633 H 0.1074 0.59493 0.96596 0.0
N1634 N 0.0843 0.5618 0.99909 0.0
C1635 C 0.09366 0.56616 0.9681 0.0
C1636 C 0.09251 0.58042 0.00661 0.0
C1637 C 0.08568 0.5542 0.9803 0.0
C1638 C 0.10106 0.58574 0.97539 0.0
C1639 C 0.10094 0.593 0.99498 0.0
O1640 O 0.08757 0.52537 0.00707 0.0
O1641 O 0.04699 0.52256 0.02188 0.0
O1642 O 0.04495 0.54251 0.05899 0.0
O1643 O 0.06782 0.53025 0.04558 0.0
O1644 O 0.05945 0.51951 0.99694 0.0
O1645 O 0.0944 0.54046 0.03607 0.0
O1646 O 0.01103 0.53799 0.05611 0.0
O1647 O 0.05302 0.55765 0.03646 0.0
O1648 O 0.05689 0.55448 0.9987 0.0
O1649 O 0.02741 0.54051 1.00248 0.0
O1650 O 0.03105 0.56812 0.0296 0.0
O1651 O 0.00814 0.55547 0.03502 0.0
C1652 C 0.04625 0.51179 0.00548 0.0
C1653 C 0.11815 0.5331 0.0187 0.0
C1654 C 0.14746 0.5248 0.02086 0.0
C1655 C 0.12907 0.52061 0.02329 0.0
C1656 C 0.15457 0.54149 0.01345 0.0
C1657 C 0.12571 0.54968 0.01152 0.0
C1658 C 0.14376 0.55377 0.00883 0.0
C1659 C 0.05913 0.53495 0.06043 0.0
C1660 C 0.0991 0.52898 0.02201 0.0
C1661 C 0.10965 0.61206 0.00343 0.0
C1662 C 0.11082 0.61807 0.02342 0.0
C1663 C 0.048 0.57287 0.03344 0.0
C1664 C 0.98193 0.54266 0.04775 0.0
C1665 C 0.97116 0.55629 0.04668 0.0
C1666 C 0.95241 0.55026 0.04358 0.0
C1667 C 0.94474 0.53029 0.04143 0.0
C1668 C 0.9738 0.52291 0.04564 0.0
C1669 C 0.95535 0.51683 0.04251 0.0
C1670 C 0.03965 0.55006 0.9932 0.0
C1671 C 1.00157 0.54909 0.04969 0.0
H1672 H 0.12334 0.50792 0.0291 0.0
H1673 H 0.16851 0.54499 0.01105 0.0
H1674 H 0.11774 0.55953 0.00805 0.0
H1675 H 0.14944 0.56657 0.00318 0.0
H1676 H 0.97742 0.57155 0.04828 0.0
H1677 H 0.93049 0.52495 0.03856 0.0
H1678 H 0.98171 0.51212 0.04613 0.0
H1679 H 0.94921 0.50154 0.04071 0.0
C1680 C 0.02948 0.21132 0.93907 0.0
C1681 C 0.0229 0.22517 0.95159 0.0
C1682 C 0.03277 0.1943 0.94493 0.0
C1683 C 0.0229 0.16381 0.98377 0.0
H1684 H 0.06038 0.14002 0.9636 0.0
C1685 C 0.04257 0.09765 0.01254 0.0
C1686 C 0.04636 0.08286 0.99864 0.0
C1687 C 0.04055 0.11553 0.00765 0.0
C1688 C 0.04974 0.14633 0.96935 0.0
H1689 H 0.01504 0.23158 0.98049 0.0
H1690 H 0.02103 0.20279 0.99061 0.0
H1691 H 0.05507 0.16915 0.95299 0.0
H1692 H 0.05057 0.07535 0.96865 0.0
H1693 H 0.04734 0.10609 0.96028 0.0
H1694 H 0.01769 0.14099 1.00022 0.0
C1695 C 0.02326 0.20456 0.97604 0.0
C1696 C 0.04661 0.16316 0.96314 0.0
C1697 C 0.01991 0.22138 0.97018 0.0
C1698 C 0.04799 0.08649 0.97984 0.0
C1699 C 0.0462 0.10428 0.97503 0.0
C1700 C 0.02612 0.14706 0.99007 0.0
C1701 C 0.02967 0.19052 0.96357 0.0
C1702 C 0.03307 0.17228 0.97015 0.0
C1703 C 0.04229 0.11915 0.98873 0.0
C1704 C 0.03952 0.13787 0.9829 0.0
H1705 H 0.032 0.21353 0.92466 0.0
H1706 H 0.0375 0.18396 0.93465 0.0
H1707 H 0.01209 0.16987 0.9894 0.0
H1708 H 0.04082 0.09526 0.02705 0.0
H1709 H 0.03764 0.12654 0.01872 0.0
C1710 C 0.13937 0.82863 0.16465 0.0
C1711 C 0.13834 0.82162 0.14471 0.0
C1712 C 0.1537 0.82689 0.17708 0.0
C1713 C 0.18482 0.79629 0.18401 0.0
H1714 H 0.21806 0.84135 0.213 0.0
C1715 C 0.24832 0.78669 0.22684 0.0
C1716 C 0.25729 0.80122 0.2422 0.0
C1717 C 0.23396 0.78951 0.21529 0.0
C1718 C 0.20885 0.82841 0.20548 0.0
H1719 H 0.15162 0.80685 0.12253 0.0
H1720 H 0.17594 0.80317 0.14419 0.0
H1721 H 0.19259 0.84552 0.19363 0.0
H1722 H 0.25837 0.83072 0.25643 0.0
H1723 H 0.2327 0.83503 0.23791 0.0
H1724 H 0.20013 0.77897 0.19627 0.0
C1725 C 0.16591 0.81041 0.15015 0.0
C1726 C 0.19418 0.83094 0.19415 0.0
C1727 C 0.15195 0.81264 0.1377 0.0
C1728 C 0.25152 0.81881 0.24534 0.0
C1729 C 0.23682 0.82145 0.23418 0.0
C1730 C 0.19916 0.7937 0.19574 0.0
C1731 C 0.16706 0.81754 0.17 0.0
C1732 C 0.18207 0.81492 0.18308 0.0
C1733 C 0.22762 0.80686 0.21882 0.0
C1734 C 0.21174 0.8097 0.2066 0.0
H1735 H 0.12917 0.83556 0.17063 0.0
H1736 H 0.15415 0.83251 0.1923 0.0
H1737 H 0.1757 0.7836 0.17576 0.0
H1738 H 0.25245 0.77302 0.22358 0.0
H1739 H 0.22805 0.77795 0.20342 0.0
C1740 C 0.52596 0.84012 0.42937 0.0
C1741 C 0.52601 0.82593 0.44086 0.0
C1742 C 0.52653 0.85955 0.4376 0.0
C1743 C 0.5395 0.89589 0.48315 0.0
H1744 H 0.51263 0.92567 0.45708 0.0
C1745 C 0.54272 0.97851 0.51245 0.0
C1746 C 0.54315 0.99041 0.49853 0.0
C1747 C 0.53877 0.95807 0.50693 0.0
C1748 C 0.52041 0.91772 0.46453 0.0
H1749 H 0.52662 0.82131 0.47024 0.0
H1750 H 0.52768 0.85525 0.48466 0.0
H1751 H 0.5096 0.89123 0.44462 0.0
H1752 H 0.54003 0.99013 0.46801 0.0
H1753 H 0.53331 0.95501 0.45843 0.0
H1754 H 0.5506 0.92256 0.50285 0.0
C1755 C 0.52726 0.85132 0.4692 0.0
C1756 C 0.51864 0.89783 0.45733 0.0
C1757 C 0.52652 0.83178 0.46091 0.0
C1758 C 0.53947 0.98139 0.47912 0.0
C1759 C 0.53552 0.96113 0.47362 0.0
C1760 C 0.54136 0.91589 0.49032 0.0
C1761 C 0.5273 0.86556 0.45767 0.0
C1762 C 0.52836 0.88659 0.4663 0.0
C1763 C 0.53526 0.94902 0.48736 0.0
C1764 C 0.53207 0.92725 0.48094 0.0
H1765 H 0.52563 0.83627 0.4139 0.0
H1766 H 0.52678 0.86998 0.42817 0.0
H1767 H 0.54732 0.88788 0.49045 0.0
H1768 H 0.54591 0.98497 0.52751 0.0
H1769 H 0.53859 0.94937 0.51802 0.0
C1770 C 0.53882 0.30415 0.66865 0.0
C1771 C 0.53793 0.30568 0.64914 0.0
C1772 C 0.52336 0.30103 0.67824 0.0
C1773 C 0.47524 0.3038 0.67504 0.0
H1774 H 0.47368 0.27303 0.71509 0.0
C1775 C 0.41199 0.28059 0.71588 0.0
C1776 C 0.41523 0.28141 0.73578 0.0
C1777 C 0.42623 0.28394 0.70436 0.0
C1778 C 0.4739 0.2818 0.70405 0.0
H1779 H 0.51987 0.30503 0.62443 0.0
H1780 H 0.49283 0.29913 0.64099 0.0
H1781 H 0.49948 0.27738 0.69685 0.0
H1782 H 0.43616 0.28793 0.75919 0.0
H1783 H 0.46063 0.29348 0.73929 0.0
H1784 H 0.44937 0.30789 0.68227 0.0
C1785 C 0.50555 0.30069 0.64904 0.0
C1786 C 0.48881 0.28438 0.69357 0.0
C1787 C 0.52108 0.30393 0.63946 0.0
C1788 C 0.43304 0.28656 0.74388 0.0
C1789 C 0.44716 0.28977 0.73243 0.0
C1790 C 0.46019 0.30106 0.68548 0.0
C1791 C 0.50642 0.29917 0.66862 0.0
C1792 C 0.4899 0.29568 0.67907 0.0
C1793 C 0.44404 0.28813 0.71245 0.0
C1794 C 0.45945 0.29027 0.70036 0.0
H1795 H 0.55154 0.30559 0.67665 0.0
H1796 H 0.52479 0.3004 0.69336 0.0
H1797 H 0.47553 0.31273 0.66415 0.0
H1798 H 0.39849 0.27666 0.7091 0.0
H1799 H 0.42331 0.28258 0.68902 0.0
C1800 C 0.02903 0.81161 0.61559 0.0
C1801 C 0.02605 0.81653 0.63496 0.0
C1802 C 0.03401 0.82598 0.60478 0.0
C1803 C 0.05312 0.87765 0.60696 0.0
H1804 H 0.0282 0.86728 0.55599 0.0
C1805 C 0.0613 0.93256 0.55458 0.0
C1806 C 0.06257 0.92468 0.53527 0.0
C1807 C 0.05724 0.92041 0.56793 0.0
C1808 C 0.03538 0.87032 0.57011 0.0
H1809 H 0.02661 0.84039 0.65847 0.0
H1810 H 0.03532 0.86576 0.63936 0.0
H1811 H 0.02047 0.8444 0.57746 0.0
H1812 H 0.06077 0.89795 0.5149 0.0
H1813 H 0.05401 0.87682 0.53821 0.0
H1814 H 0.06812 0.9036 0.59941 0.0
C1815 C 0.03381 0.85069 0.63264 0.0
C1816 C 0.03095 0.85723 0.58242 0.0
C1817 C 0.02881 0.83621 0.64354 0.0
C1818 C 0.06006 0.90447 0.52969 0.0
C1819 C 0.05596 0.89236 0.543 0.0
C1820 C 0.05757 0.89081 0.59459 0.0
C1821 C 0.03608 0.84564 0.61304 0.0
C1822 C 0.04 0.86054 0.60081 0.0
C1823 C 0.05427 0.90017 0.56219 0.0
C1824 C 0.04896 0.88705 0.57591 0.0
H1825 H 0.0272 0.79658 0.60859 0.0
H1826 H 0.03606 0.82165 0.58982 0.0
H1827 H 0.06032 0.88052 0.62106 0.0
H1828 H 0.06333 0.94811 0.55932 0.0
H1829 H 0.05597 0.92682 0.58262 0.0
C1830 C 0.53055 0.83453 0.87915 0.0
C1831 C 0.54604 0.83003 0.87184 0.0
C1832 C 0.51629 0.83574 0.86682 0.0
C1833 C 0.49668 0.82288 0.81622 0.0
H1834 H 0.47164 0.86332 0.83384 0.0
C1835 C 0.43536 0.85965 0.79045 0.0
C1836 C 0.42293 0.84261 0.78195 0.0
C1837 C 0.45178 0.85865 0.79914 0.0
C1838 C 0.47861 0.85215 0.82847 0.0
H1839 H 0.55856 0.82276 0.84579 0.0
H1840 H 0.53368 0.82529 0.82413 0.0
H1841 H 0.49747 0.86041 0.85318 0.0
H1842 H 0.41859 0.8112 0.77487 0.0
H1843 H 0.44671 0.80943 0.79077 0.0
H1844 H 0.47799 0.81496 0.79122 0.0
C1845 C 0.53249 0.82763 0.83945 0.0
C1846 C 0.49329 0.85025 0.83977 0.0
C1847 C 0.54676 0.8262 0.85184 0.0
C1848 C 0.42765 0.82462 0.78167 0.0
C1849 C 0.44396 0.82361 0.79054 0.0
C1850 C 0.48204 0.82489 0.80478 0.0
C1851 C 0.5172 0.83274 0.84684 0.0
C1852 C 0.50231 0.83537 0.834 0.0
C1853 C 0.45612 0.84059 0.79972 0.0
C1854 C 0.47264 0.83938 0.81091 0.0
H1855 H 0.52944 0.83728 0.89448 0.0
H1856 H 0.50454 0.83913 0.87302 0.0
H1857 H 0.50327 0.81122 0.81134 0.0
H1858 H 0.4322 0.87376 0.79102 0.0
H1859 H 0.46095 0.87207 0.80572 0.0
C1860 C 0.48558 0.2037 0.12091 0.0
C1861 C 0.49758 0.21414 0.13649 0.0
C1862 C 0.48392 0.18372 0.11542 0.0
C1863 C 0.49763 0.15059 0.09543 0.0
H1864 H 0.51074 0.11462 0.12583 0.0
C1865 C 0.53853 0.08744 0.08235 0.0
C1866 C 0.53036 0.07797 0.06407 0.0
C1867 C 0.53053 0.10056 0.09387 0.0
C1868 C 0.50702 0.12453 0.11722 0.0
H1869 H 0.51622 0.21207 0.15955 0.0
H1870 H 0.51417 0.17741 0.14944 0.0
H1871 H 0.50182 0.14384 0.14177 0.0
H1872 H 0.50658 0.07319 0.04441 0.0
H1873 H 0.49282 0.09587 0.06438 0.0
H1874 H 0.50312 0.13167 0.071 0.0
C1875 C 0.50551 0.18426 0.14174 0.0
C1876 C 0.50192 0.14126 0.1263 0.0
C1877 C 0.50673 0.20417 0.14757 0.0
C1878 C 0.51347 0.08062 0.05821 0.0
C1879 C 0.50552 0.09358 0.06967 0.0
C1880 C 0.5025 0.13389 0.08642 0.0
C1881 C 0.49485 0.17402 0.12492 0.0
C1882 C 0.49748 0.1547 0.11552 0.0
C1883 C 0.51426 0.10425 0.08726 0.0
C1884 C 0.50752 0.12085 0.09719 0.0
H1885 H 0.47836 0.21118 0.11223 0.0
H1886 H 0.47506 0.17617 0.10284 0.0
H1887 H 0.49491 0.16075 0.08659 0.0
H1888 H 0.55147 0.08554 0.08731 0.0
H1889 H 0.53758 0.10865 0.10738 0.0
C1890 C 0.13427 0.3005 0.34242 0.0
C1891 C 0.13614 0.30141 0.36239 0.0
C1892 C 0.14874 0.29906 0.33164 0.0
C1893 C 0.18851 0.28239 0.32635 0.0
H1894 H 0.21148 0.331 0.31248 0.0
C1895 C 0.25862 0.29237 0.30134 0.0
C1896 C 0.26303 0.30391 0.28748 0.0
C1897 C 0.2426 0.29173 0.30961 0.0
C1898 C 0.20511 0.31717 0.31582 0.0
H1899 H 0.15411 0.30039 0.38659 0.0
H1900 H 0.17919 0.29704 0.36752 0.0
H1901 H 0.18345 0.32863 0.32721 0.0
H1902 H 0.25499 0.32495 0.27236 0.0
H1903 H 0.22641 0.32316 0.28599 0.0
H1904 H 0.2097 0.27061 0.31475 0.0
C1905 C 0.16664 0.2978 0.36037 0.0
C1906 C 0.1891 0.3159 0.32434 0.0
C1907 C 0.15234 0.2997 0.37121 0.0
C1908 C 0.2516 0.31561 0.28273 0.0
C1909 C 0.23533 0.31468 0.29071 0.0
C1910 C 0.20431 0.28351 0.31749 0.0
C1911 C 0.16506 0.298 0.34064 0.0
C1912 C 0.18088 0.2986 0.32989 0.0
C1913 C 0.23051 0.30252 0.30411 0.0
C1914 C 0.21304 0.30103 0.31242 0.0
H1915 H 0.12196 0.302 0.33532 0.0
H1916 H 0.14734 0.29927 0.31641 0.0
H1917 H 0.1823 0.26891 0.33056 0.0
H1918 H 0.2675 0.28372 0.30575 0.0
H1919 H 0.23979 0.28277 0.32038 0.0
C1920 C 0.94899 0.05771 0.20289 0.0
C1921 C 0.95822 0.06969 0.21997 0.0
C1922 C 0.95675 0.05625 0.1849 0.0
C1923 C 0.99632 0.07971 0.159 0.0
H1924 H 0.98449 0.03107 0.12291 0.0
C1925 C 0.03527 0.06908 0.0885 0.0
C1926 C 0.02909 0.05339 0.07295 0.0
C1927 C 0.02656 0.07121 0.1058 0.0
C1928 C 0.98807 0.04502 0.1324 0.0
H1929 H 0.98356 0.08907 0.23051 0.0
H1930 H 0.99656 0.08718 0.19984 0.0
H1931 H 0.9697 0.03476 0.15225 0.0
H1932 H 0.00782 0.02781 0.06438 0.0
H1933 H 0.99262 0.03164 0.09344 0.0
H1934 H 0.01445 0.0902 0.13927 0.0
C1935 C 0.98313 0.07899 0.19998 0.0
C1936 C 0.97934 0.04714 0.14969 0.0
C1937 C 0.97549 0.08023 0.21789 0.0
C1938 C 0.01344 0.04013 0.07568 0.0
C1939 C 1.00461 0.04233 0.09286 0.0
C1940 C 1.00492 0.07767 0.14164 0.0
C1941 C 0.97419 0.06669 0.1829 0.0
C1942 C 0.98323 0.06452 0.16365 0.0
C1943 C 0.01086 0.05791 0.10868 0.0
C1944 C 1.00122 0.06021 0.12768 0.0
H1945 H 0.93603 0.04865 0.20357 0.0
H1946 H 0.949 0.04662 0.17252 0.0
H1947 H 0.99989 0.09356 0.16872 0.0
H1948 H 0.04698 0.07994 0.08739 0.0
H1949 H 0.03249 0.08344 0.117 0.0
C1950 C 0.30388 0.67868 0.4557 0.0
C1951 C 0.29766 0.65917 0.45709 0.0
C1952 C 0.3017 0.68481 0.43833 0.0
C1953 C 0.27152 0.67473 0.39566 0.0
H1954 H 0.30757 0.71384 0.37983 0.0
C1955 C 0.25428 0.71849 0.33901 0.0
C1956 C 0.26074 0.73867 0.34443 0.0
C1957 C 0.26075 0.70576 0.34898 0.0
C1958 C 0.29736 0.70292 0.38404 0.0
H1959 H 0.28463 0.63061 0.44138 0.0
H1960 H 0.28033 0.64154 0.41074 0.0
H1961 H 0.31567 0.69617 0.40427 0.0
H1962 H 0.2795 0.76123 0.36413 0.0
H1963 H 0.29091 0.73907 0.38134 0.0
H1964 H 0.25298 0.68222 0.37632 0.0
C1965 C 0.28708 0.65197 0.42318 0.0
C1966 C 0.30202 0.69274 0.39794 0.0
C1967 C 0.28955 0.64573 0.44063 0.0
C1968 C 0.27438 0.74577 0.35944 0.0
C1969 C 0.28094 0.73303 0.36929 0.0
C1970 C 0.26683 0.68498 0.38182 0.0
C1971 C 0.29305 0.67162 0.42196 0.0
C1972 C 0.28901 0.67907 0.40438 0.0
C1973 C 0.27399 0.71289 0.36439 0.0
C1974 C 0.27958 0.6997 0.37639 0.0
H1975 H 0.31027 0.68935 0.46816 0.0
H1976 H 0.30617 0.70009 0.43792 0.0
H1977 H 0.2612 0.66438 0.40049 0.0
H1978 H 0.24405 0.71252 0.3272 0.0
H1979 H 0.25524 0.69032 0.34475 0.0
C1980 C 0.65962 0.01112 0.69066 0.0
C1981 C 0.64849 0.00804 0.70534 0.0
C1982 C 0.65235 0.00739 0.67157 0.0
C1983 C 0.61165 0.98723 0.63806 0.0
H1984 H 0.623 0.03742 0.62274 0.0
C1985 C 0.56728 0.01029 0.58126 0.0
C1986 C 0.5758 0.02322 0.57009 0.0
C1987 C 0.57704 1.00511 0.59603 0.0
C1988 C 0.6199 0.02311 0.62641 0.0
H1989 H 0.62162 0.99625 0.71149 0.0
H1990 H 0.609 0.98965 0.6782 0.0
H1991 H 0.63974 0.03179 0.6502 0.0
H1992 H 0.60149 0.04005 0.5652 0.0
H1993 H 0.61834 0.03015 0.58968 0.0
H1994 H 0.59161 0.97865 0.61421 0.0
C1995 C 0.62323 0.99509 0.68136 0.0
C1996 C 0.62957 0.0199 0.6422 0.0
C1997 C 0.63044 0.99902 0.70044 0.0
C1998 C 0.59432 0.0302 0.5735 0.0
C1999 C 0.60406 0.02465 0.58779 0.0
C2000 C 0.60209 0.99034 0.62195 0.0
C2001 C 0.63393 1.0003 0.66694 0.0
C2002 C 0.62542 1.00205 0.64835 0.0
C2003 C 0.59555 0.01245 0.59959 0.0
C2004 C 0.606 0.00843 0.61608 0.0
H2005 H 0.67359 0.018 0.69404 0.0
H2006 H 0.66088 0.01136 0.66061 0.0
H2007 H 0.60812 0.97338 0.64266 0.0
H2008 H 0.5531 1.00437 0.57879 0.0
H2009 H 0.57001 0.99575 0.6049 0.0
C2010 C 0.31081 0.38939 0.96599 0.0
C2011 C 0.30946 0.37855 0.98081 0.0
C2012 C 0.31227 0.38053 0.9471 0.0
C2013 C 0.30158 0.33246 0.91533 0.0
H2014 H 0.33307 0.35734 0.88181 0.0
C2015 C 0.30646 0.29246 0.83913 0.0
C2016 C 0.30713 0.30327 0.82439 0.0
C2017 C 0.30929 0.30179 0.85838 0.0
C2018 C 0.32409 0.35024 0.89092 0.0
H2019 H 0.30903 0.35002 0.98748 0.0
H2020 H 0.31157 0.33467 0.95468 0.0
H2021 H 0.33283 0.37362 0.91499 0.0
H2022 H 0.31056 0.33221 0.81801 0.0
H2023 H 0.31524 0.34864 0.85163 0.0
H2024 H 0.29245 0.30936 0.89135 0.0
C2025 C 0.31132 0.34994 0.95756 0.0
C2026 C 0.32396 0.35959 0.90995 0.0
C2027 C 0.30995 0.35879 0.9764 0.0
C2028 C 0.31064 0.32362 0.82917 0.0
C2029 C 0.31329 0.33298 0.84845 0.0
C2030 C 0.30162 0.3232 0.89633 0.0
C2031 C 0.3123 0.36063 0.94261 0.0
C2032 C 0.3127 0.35079 0.92239 0.0
C2033 C 0.31224 0.32217 0.86334 0.0
C2034 C 0.31287 0.33192 0.88383 0.0
H2035 H 0.31049 0.40464 0.96892 0.0
H2036 H 0.31288 0.38916 0.93591 0.0
H2037 H 0.29249 0.32541 0.92438 0.0
H2038 H 0.30333 0.27674 0.83574 0.0
H2039 H 0.30869 0.29297 0.86939 0.0
C2040 C 0.97114 0.06678 0.32667 0.0
C2041 C 0.95316 0.06858 0.32524 0.0
C2042 C 0.97987 0.06386 0.34393 0.0
C2043 C 0.97438 0.06387 0.3983 0.0
H2044 H 0.01698 0.04323 0.39707 0.0
C2045 C 1.00499 0.04348 0.46856 0.0
C2046 C 0.02342 0.04439 0.4723 0.0
C2047 C 0.99728 0.04607 0.45078 0.0
C2048 C 1.00519 0.04918 0.39799 0.0
H2049 H 0.93064 0.06832 0.3421 0.0
H2050 H 0.9453 0.06296 0.3715 0.0
H2051 H 1.00235 0.04794 0.36734 0.0
H2052 H 0.04805 0.04933 0.45888 0.0
H2053 H 0.03472 0.05359 0.42778 0.0
H2054 H 0.97716 0.06507 0.42887 0.0
C2055 C 0.95311 0.06417 0.35941 0.0
C2056 C 0.99658 0.05199 0.38055 0.0
C2057 C 0.94442 0.06717 0.34215 0.0
C2058 C 0.03382 0.04807 0.45691 0.0
C2059 C 0.026 0.0506 0.43884 0.0
C2060 C 0.9829 0.06097 0.41564 0.0
C2061 C 0.97121 0.06247 0.361 0.0
C2062 C 0.98079 0.05939 0.38004 0.0
C2063 C 0.00745 0.04995 0.4353 0.0
C2064 C 0.99856 0.05344 0.41615 0.0
H2065 H 0.97868 0.06775 0.31431 0.0
H2066 H 0.99369 0.06299 0.3438 0.0
H2067 H 0.96272 0.07 0.39948 0.0
H2068 H 0.99627 0.04083 0.47973 0.0
H2069 H 0.98305 0.04488 0.44925 0.0
C2070 C 0.31313 0.68443 0.57151 0.0
C2071 C 0.30041 0.68836 0.5587 0.0
C2072 C 0.31581 0.69416 0.5907 0.0
C2073 C 0.30783 0.7388 0.62048 0.0
H2074 H 0.31435 0.71356 0.66371 0.0
C2075 C 0.29485 0.76956 0.69708 0.0
C2076 C 0.30789 0.77016 0.71187 0.0
C2077 C 0.29598 0.76001 0.6785 0.0
C2078 C 0.31275 0.7208 0.65171 0.0
H2079 H 0.27965 0.7044 0.55615 0.0
H2080 H 0.28393 0.72074 0.58934 0.0
H2081 H 0.31242 0.6952 0.6309 0.0
H2082 H 0.33233 0.76133 0.71899 0.0
H2083 H 0.33416 0.74435 0.68641 0.0
H2084 H 0.30746 0.76413 0.64121 0.0
C2085 C 0.2924 0.71087 0.5846 0.0
C2086 C 0.31169 0.71033 0.63298 0.0
C2087 C 0.28988 0.70141 0.56556 0.0
C2088 C 0.32218 0.76121 0.70777 0.0
C2089 C 0.32316 0.75137 0.68923 0.0
C2090 C 0.30868 0.74913 0.63911 0.0
C2091 C 0.30568 0.70779 0.59729 0.0
C2092 C 0.3088 0.71913 0.61717 0.0
C2093 C 0.31005 0.75069 0.67447 0.0
C2094 C 0.3108 0.74013 0.65487 0.0
H2095 H 0.32137 0.67437 0.56657 0.0
H2096 H 0.32612 0.69144 0.60019 0.0
H2097 H 0.30608 0.74616 0.60861 0.0
H2098 H 0.28371 0.77634 0.69993 0.0
H2099 H 0.28564 0.75954 0.66735 0.0
C2100 C 0.6536 0.05406 0.80385 0.0
C2101 C 0.66883 0.0463 0.80491 0.0
C2102 C 0.64694 0.06184 0.82048 0.0
C2103 C 0.63823 0.05286 0.86561 0.0
H2104 H 0.62671 0.10371 0.87495 0.0
C2105 C 0.59491 0.09439 0.92062 0.0
C2106 C 0.5782 0.08164 0.9157 0.0
C2107 C 0.60885 0.09262 0.90917 0.0
C2108 C 0.63005 0.08959 0.87266 0.0
H2109 H 0.68923 0.04075 0.8241 0.0
H2110 H 0.67677 0.05352 0.85362 0.0
H2111 H 0.64808 0.09687 0.85176 0.0
H2112 H 0.56272 0.05731 0.8951 0.0
H2113 H 0.58722 0.05403 0.87511 0.0
H2114 H 0.61913 0.04506 0.88532 0.0
C2115 C 0.67045 0.05402 0.83975 0.0
C2116 C 0.64227 0.08572 0.85955 0.0
C2117 C 0.67748 0.04672 0.82297 0.0
C2118 C 0.57543 0.06746 0.89894 0.0
C2119 C 0.58945 0.06544 0.88772 0.0
C2120 C 0.62575 0.0566 0.87842 0.0
C2121 C 0.65509 0.06157 0.83852 0.0
C2122 C 0.64606 0.06718 0.85559 0.0
C2123 C 0.60631 0.07778 0.89296 0.0
C2124 C 0.62121 0.0748 0.88158 0.0
H2125 H 0.64664 0.05398 0.79019 0.0
H2126 H 0.63492 0.06732 0.81926 0.0
H2127 H 0.6408 0.03839 0.86252 0.0
H2128 H 0.59731 0.10529 0.93364 0.0
H2129 H 0.62176 0.10229 0.91337 0.0
C2130 C 0.30473 0.38181 0.09626 0.0
C2131 C 0.30425 0.36793 0.0795 0.0
C2132 C 0.30361 0.37614 0.1143 0.0
C2133 C 0.31175 0.33596 0.13801 0.0
H2134 H 0.28497 0.35638 0.17819 0.0
C2135 C 0.29886 0.29969 0.20382 0.0
C2136 C 0.30019 0.31165 0.22196 0.0
C2137 C 0.29918 0.30757 0.18707 0.0
C2138 C 0.29268 0.35068 0.16719 0.0
H2139 H 0.30092 0.33708 0.06853 0.0
H2140 H 0.29871 0.32735 0.0995 0.0
H2141 H 0.28556 0.36863 0.14796 0.0
H2142 H 0.30218 0.34128 0.23657 0.0
H2143 H 0.30307 0.35509 0.20734 0.0
H2144 H 0.31887 0.31801 0.157 0.0
C2145 C 0.30052 0.34265 0.09896 0.0
C2146 C 0.29301 0.35772 0.14986 0.0
C2147 C 0.3017 0.34826 0.08112 0.0
C2148 C 0.3015 0.33168 0.22288 0.0
C2149 C 0.30177 0.33958 0.20608 0.0
C2150 C 0.31141 0.32895 0.15523 0.0
C2151 C 0.30195 0.3565 0.11588 0.0
C2152 C 0.30233 0.35019 0.13491 0.0
C2153 C 0.30078 0.32765 0.18795 0.0
C2154 C 0.30167 0.33597 0.16997 0.0
H2155 H 0.30669 0.39707 0.09554 0.0
H2156 H 0.30472 0.3872 0.12704 0.0
H2157 H 0.31946 0.33016 0.12706 0.0
H2158 H 0.29777 0.28419 0.20252 0.0
H2159 H 0.29807 0.29786 0.17336 0.0
C2160 C 0.26129 0.96531 0.03779 0.0
C2161 C 0.27853 0.97394 0.03417 0.0
C2162 C 0.24884 0.9766 0.04229 0.0
C2163 C 0.24366 0.02723 0.05761 0.0
H2164 H 0.19559 1.00539 0.03395 0.0
C2165 C 0.18819 0.07091 0.05344 0.0
C2166 C 0.17105 0.06159 0.05684 0.0
C2167 C 0.20205 0.06098 0.05258 0.0
C2168 C 0.20891 0.0116 0.04083 0.0
H2169 H 0.29645 1.00122 0.03291 0.0
H2170 H 0.27455 0.02098 0.04033 0.0
H2171 H 0.21837 0.98667 0.02869 0.0
H2172 H 0.15534 0.03501 0.06329 0.0
H2173 H 0.17942 0.01768 0.0615 0.0
H2174 H 0.23406 0.05243 0.06933 0.0
C2175 C 0.27072 1.0055 0.04 0.0
C2176 C 0.22198 1.00086 0.03787 0.0
C2177 C 0.28325 0.99418 0.03566 0.0
C2178 C 0.16828 0.04245 0.06018 0.0
C2179 C 0.18206 0.03253 0.0592 0.0
C2180 C 0.23056 0.03808 0.06044 0.0
C2181 C 0.25328 0.99678 0.04307 0.0
C2182 C 0.2395 0.00846 0.04632 0.0
C2183 C 0.19899 0.04155 0.05502 0.0
C2184 C 0.21303 0.0303 0.05217 0.0
H2185 H 0.25731 0.94976 0.03696 0.0
H2186 H 0.23568 0.96945 0.04502 0.0
H2187 H 0.25697 0.03345 0.06447 0.0
H2188 H 0.19073 0.08559 0.05067 0.0
H2189 H 0.21496 0.06825 0.04922 0.0
C2190 C 0.73944 0.64263 0.99491 0.0
C2191 C 0.74111 0.66279 0.99631 0.0
C2192 C 0.72276 0.63036 0.99521 0.0
C2193 C 0.67935 0.63084 0.01346 0.0
H2194 H 0.66154 0.58344 0.97621 0.0
C2195 C 0.60711 0.58841 0.01154 0.0
C2196 C 0.60323 0.56803 0.0068 0.0
C2197 C 0.62389 0.59933 0.00941 0.0
C2198 C 0.66637 0.59645 0.98694 0.0
H2199 H 0.72636 0.6857 0.99893 0.0
H2200 H 0.69749 0.66439 0.99979 0.0
H2201 H 0.691 0.60331 0.97422 0.0
H2202 H 0.61411 0.54328 0.99573 0.0
H2203 H 0.64357 0.56215 0.9926 0.0
H2204 H 0.65522 0.62395 0.02663 0.0
C2205 C 0.70907 0.65809 0.99839 0.0
C2206 C 0.68326 0.60788 0.98572 0.0
C2207 C 0.72564 0.67028 0.99778 0.0
C2208 C 0.61655 0.55888 0.99949 0.0
C2209 C 0.6335 0.5698 0.99762 0.0
C2210 C 0.66264 0.61932 0.01487 0.0
C2211 C 0.70743 0.63801 0.99726 0.0
C2212 C 0.68983 0.62534 0.99883 0.0
C2213 C 0.6375 0.59023 1.00275 0.0
C2214 C 0.65573 0.60207 1.00149 0.0
H2215 H 0.75104 0.63634 0.99373 0.0
H2216 H 0.72192 0.61496 0.99438 0.0
H2217 H 0.68417 0.64404 0.02399 0.0
H2218 H 0.59714 0.59607 0.01688 0.0
H2219 H 0.62612 0.61499 0.01296 0.0
C2220 C 0.71602 0.46349 0.26107 0.0
C2221 C 0.69832 0.46209 0.26628 0.0
C2222 C 0.72523 0.4479 0.26071 0.0
C2223 C 0.724 0.39843 0.27744 0.0
H2224 H 0.76142 0.3942 0.24392 0.0
C2225 C 0.7683 0.33815 0.28028 0.0
C2226 C 0.77604 0.33062 0.26374 0.0
C2227 C 0.75934 0.35398 0.28087 0.0
C2228 C 0.751 0.39479 0.25345 0.0
H2229 H 0.67709 0.44177 0.27545 0.0
H2230 H 0.6928 0.41518 0.275 0.0
H2231 H 0.74549 0.42038 0.2441 0.0
H2232 H 0.77906 0.33448 0.23447 0.0
H2233 H 0.76423 0.36176 0.23552 0.0
H2234 H 0.72953 0.37282 0.28678 0.0
C2235 C 0.69981 0.42846 0.27108 0.0
C2236 C 0.74174 0.41032 0.2537 0.0
C2237 C 0.69052 0.44398 0.27121 0.0
C2238 C 0.77395 0.33979 0.24778 0.0
C2239 C 0.76524 0.35576 0.24842 0.0
C2240 C 0.73342 0.38304 0.27737 0.0
C2241 C 0.71754 0.42978 0.2658 0.0
C2242 C 0.7278 0.41274 0.26564 0.0
C2243 C 0.75741 0.36339 0.26492 0.0
C2244 C 0.74725 0.38053 0.26531 0.0
H2245 H 0.72297 0.47686 0.25724 0.0
H2246 H 0.73872 0.45037 0.2567 0.0
H2247 H 0.71373 0.39916 0.28714 0.0
H2248 H 0.7689 0.33154 0.29287 0.0
H2249 H 0.7539 0.35885 0.29408 0.0
C2250 C 0.87734 0.43575 0.50527 0.0
C2251 C 0.86482 0.44637 0.51216 0.0
C2252 C 0.89477 0.44519 0.50362 0.0
C2253 C 0.92773 0.49018 0.5231 0.0
H2254 H 0.95353 0.47287 0.48049 0.0
C2255 C 1.00049 0.52709 0.51795 0.0
C2256 C 0.01203 0.51457 0.51323 0.0
C2257 C 0.98209 0.52001 0.51553 0.0
C2258 C 0.94651 0.4778 0.49252 0.0
H2259 H 0.86083 0.47539 0.52234 0.0
H2260 H 0.89127 0.49184 0.51935 0.0
H2261 H 0.92201 0.45821 0.48057 0.0
H2262 H 0.01353 0.48483 0.50275 0.0
H2263 H 0.98131 0.47228 0.49873 0.0
H2264 H 0.95227 0.50947 0.53525 0.0
C2265 C 0.88759 0.47616 0.51544 0.0
C2266 C 0.92848 0.46941 0.49257 0.0
C2267 C 0.87012 0.46672 0.51707 0.0
C2268 C 1.00486 0.49481 0.50616 0.0
C2269 C 0.98644 0.48769 0.50376 0.0
C2270 C 0.94575 0.49856 0.52305 0.0
C2271 C 0.90014 0.46549 0.5088 0.0
C2272 C 0.91894 0.47533 0.50799 0.0
C2273 C 0.97486 0.50017 0.50867 0.0
C2274 C 0.95541 0.49229 0.50788 0.0
H2275 H 0.87376 0.42007 0.50134 0.0
H2276 H 0.90417 0.43651 0.49872 0.0
H2277 H 0.92085 0.49488 0.53533 0.0
H2278 H 1.00558 0.54225 0.52397 0.0
H2279 H 0.97353 0.53003 0.51932 0.0
C2280 C 0.37113 0.08545 0.27523 0.0
C2281 C 0.38624 0.09242 0.28849 0.0
C2282 C 0.36315 0.0984 0.2671 0.0
C2283 C 0.35773 0.14829 0.27326 0.0
H2284 H 0.35342 0.13998 0.21758 0.0
C2285 C 0.33727 0.20481 0.23333 0.0
C2286 C 0.32564 0.19783 0.21657 0.0
C2287 C 0.34545 0.19223 0.24177 0.0
C2288 C 0.35427 0.14239 0.23312 0.0
H2289 H 0.40432 0.11828 0.30444 0.0
H2290 H 0.39003 0.14092 0.29057 0.0
H2291 H 0.36461 0.11696 0.23397 0.0
H2292 H 0.31353 0.17246 0.1952 0.0
H2293 H 0.32733 0.15022 0.21017 0.0
H2294 H 0.34694 0.17334 0.27258 0.0
C2295 C 0.38453 0.12548 0.28633 0.0
C2296 C 0.36071 0.12922 0.24247 0.0
C2297 C 0.3927 0.11254 0.29421 0.0
C2298 C 0.32267 0.17818 0.20801 0.0
C2299 C 0.33061 0.16549 0.21661 0.0
C2300 C 0.35101 0.16131 0.26392 0.0
C2301 C 0.36996 0.11849 0.27238 0.0
C2302 C 0.36253 0.1321 0.2626 0.0
C2303 C 0.34187 0.1723 0.23379 0.0
C2304 C 0.34927 0.15857 0.24372 0.0
H2305 H 0.36592 0.07001 0.27053 0.0
H2306 H 0.35183 0.09271 0.25647 0.0
H2307 H 0.35895 0.15072 0.28882 0.0
H2308 H 0.33974 0.21995 0.24009 0.0
H2309 H 0.35438 0.19811 0.2547 0.0
C2310 C 0.35276 0.16208 0.5168 0.0
C2311 C 0.33477 0.15242 0.51541 0.0
C2312 C 0.3664 0.15224 0.5196 0.0
C2313 C 0.37459 0.10722 0.53519 0.0
H2314 H 0.41808 0.11817 0.51028 0.0
C2315 C 0.42409 0.05693 0.5321 0.0
C2316 C 0.4423 0.06555 0.53669 0.0
C2317 C 0.4117 0.06813 0.52908 0.0
C2318 C 0.40608 0.11506 0.51747 0.0
H2319 H 0.31708 0.12474 0.5157 0.0
H2320 H 0.34065 0.10755 0.52012 0.0
H2321 H 0.39511 0.13651 0.50617 0.0
H2322 H 0.46169 0.09289 0.54089 0.0
H2323 H 0.44 0.11244 0.53529 0.0
H2324 H 0.3854 0.08558 0.5462 0.0
C2325 C 0.34436 0.12285 0.51954 0.0
C2326 C 0.39289 0.12562 0.51516 0.0
C2327 C 0.33077 0.1327 0.51688 0.0
C2328 C 0.44783 0.08568 0.5373 0.0
C2329 C 0.43538 0.09692 0.53414 0.0
C2330 C 0.38767 0.0966 0.53734 0.0
C2331 C 0.36241 0.13244 0.52098 0.0
C2332 C 0.37686 0.12174 0.52388 0.0
C2333 C 0.4171 0.08832 0.53038 0.0
C2334 C 0.40353 0.10024 0.5284 0.0
H2335 H 0.35633 0.17727 0.51573 0.0
H2336 H 0.38007 0.16025 0.52087 0.0
H2337 H 0.36271 0.10408 0.54256 0.0
H2338 H 0.41932 0.04143 0.53096 0.0
H2339 H 0.3978 0.06094 0.52577 0.0
C2340 C 0.68751 0.59029 0.27538 0.0
C2341 C 0.69443 0.57403 0.27821 0.0
C2342 C 0.69855 0.60863 0.27528 0.0
C2343 C 0.74405 0.6407 0.291 0.0
H2344 H 0.72985 0.67036 0.25442 0.0
C2345 C 0.78646 0.7193 0.28691 0.0
C2346 C 0.77835 0.73254 0.27892 0.0
C2347 C 0.77722 0.69989 0.2868 0.0
C2348 C 0.73406 0.66274 0.26513 0.0
H2349 H 0.71927 0.56531 0.28332 0.0
H2350 H 0.73863 0.59753 0.28354 0.0
H2351 H 0.71286 0.63789 0.2544 0.0
H2352 H 0.7533 0.73496 0.26522 0.0
H2353 H 0.7373 0.70227 0.26574 0.0
H2354 H 0.76503 0.66574 0.30209 0.0
C2355 C 0.72436 0.59584 0.28127 0.0
C2356 C 0.72418 0.6437 0.265 0.0
C2357 C 0.71319 0.57718 0.28104 0.0
C2358 C 0.7604 0.72553 0.27134 0.0
C2359 C 0.75111 0.7063 0.27145 0.0
C2360 C 0.75386 0.65995 0.29134 0.0
C2361 C 0.71725 0.61199 0.27824 0.0
C2362 C 0.7288 0.6322 0.27799 0.0
C2363 C 0.75926 0.69275 0.27894 0.0
C2364 C 0.74905 0.67163 0.27849 0.0
H2365 H 0.67327 0.58891 0.27308 0.0
H2366 H 0.69226 0.62039 0.27314 0.0
H2367 H 0.74818 0.63267 0.30141 0.0
H2368 H 0.80005 0.72389 0.29328 0.0
H2369 H 0.78442 0.69044 0.29273 0.0
C2370 C 0.88926 0.48927 0.81752 0.0
C2371 C 0.90783 0.49121 0.81849 0.0
C2372 C 0.87798 0.4712 0.81681 0.0
C2373 C 0.87649 0.42032 0.82241 0.0
H2374 H 0.83951 0.40808 0.78006 0.0
C2375 C 0.84834 0.34288 0.78236 0.0
C2376 C 0.82991 0.33678 0.77774 0.0
C2377 C 0.8559 0.36224 0.79013 0.0
C2378 C 0.84952 0.41135 0.79217 0.0
H2379 H 0.92913 0.47592 0.82088 0.0
H2380 H 0.90942 0.4443 0.81943 0.0
H2381 H 0.85643 0.44135 0.79016 0.0
H2382 H 0.80507 0.34618 0.77562 0.0
H2383 H 0.81832 0.38033 0.78936 0.0
H2384 H 0.86994 0.3901 0.82388 0.0
C2385 C 0.90358 0.4568 0.81935 0.0
C2386 C 0.85922 0.43042 0.798 0.0
C2387 C 0.9149 0.47493 0.82012 0.0
C2388 C 0.81924 0.35052 0.77978 0.0
C2389 C 0.82683 0.37001 0.78747 0.0
C2390 C 0.86679 0.40125 0.81657 0.0
C2391 C 0.88499 0.45465 0.81703 0.0
C2392 C 0.87312 0.43502 0.81285 0.0
C2393 C 0.84521 0.37596 0.79301 0.0
C2394 C 0.85358 0.3965 0.80102 0.0
H2395 H 0.88336 0.50159 0.81652 0.0
H2396 H 0.86372 0.47006 0.81542 0.0
H2397 H 0.8869 0.42348 0.83411 0.0
H2398 H 0.85686 0.33255 0.7805 0.0
H2399 H 0.87016 0.3665 0.79375 0.0
C2400 C 0.08232 0.88261 0.11625 0.0
C2401 C 0.0845 0.8652 0.10496 0.0
C2402 C 0.08011 0.89861 0.10792 0.0
C2403 C 0.06865 0.91325 0.06051 0.0
H2404 H 0.08613 0.96504 0.09021 0.0
C2405 C 0.06671 0.98588 0.0305 0.0
C2406 C 0.06338 1.00151 0.04375 0.0
C2407 C 0.06887 0.96847 0.03652 0.0
C2408 C 0.08091 0.95072 0.08167 0.0
H2409 H 0.08611 0.85142 0.07567 0.0
H2410 H 0.08261 0.8793 0.06119 0.0
H2411 H 0.09104 0.93721 0.1033 0.0
H2412 H 0.05954 0.01068 0.07359 0.0
H2413 H 0.06292 0.98089 0.08382 0.0
H2414 H 0.05867 0.92711 0.03877 0.0
C2415 C 0.08234 0.88056 0.07659 0.0
C2416 C 0.08374 0.93455 0.08929 0.0
C2417 C 0.08454 0.86451 0.08496 0.0
C2418 C 0.06202 0.99902 0.06292 0.0
C2419 C 0.06416 0.98186 0.06888 0.0
C2420 C 0.06587 0.92954 0.05282 0.0
C2421 C 0.08001 0.89799 0.08788 0.0
C2422 C 0.07749 0.91539 0.07905 0.0
C2423 C 0.06804 0.96634 0.05599 0.0
C2424 C 0.07173 0.94863 0.06338 0.0
H2425 H 0.08201 0.88382 0.13164 0.0
H2426 H 0.07806 0.91139 0.11731 0.0
H2427 H 0.06343 0.89892 0.05204 0.0
H2428 H 0.06821 0.98733 0.0157 0.0
H2429 H 0.07183 0.95696 0.02605 0.0
C2430 C 0.96705 0.26594 0.88272 0.0
C2431 C 0.96786 0.27217 0.90278 0.0
C2432 C 0.95195 0.26621 0.87058 0.0
C2433 C 0.91268 0.28962 0.86949 0.0
H2434 H 0.89335 0.24838 0.82614 0.0
C2435 C 0.84487 0.28702 0.82765 0.0
C2436 C 0.84247 0.28023 0.80761 0.0
C2437 C 0.85996 0.28533 0.8388 0.0
C2438 C 0.89862 0.26021 0.83802 0.0
H2439 H 0.95287 0.28332 0.92548 0.0
H2440 H 0.92703 0.2837 0.90464 0.0
H2441 H 0.92003 0.24701 0.84564 0.0
H2442 H 0.854 0.26511 0.78424 0.0
H2443 H 0.88033 0.26264 0.80326 0.0
H2444 H 0.89159 0.30301 0.86188 0.0
C2445 C 0.93807 0.27881 0.89813 0.0
C2446 C 0.91403 0.25938 0.84928 0.0
C2447 C 0.95299 0.27843 0.91019 0.0
C2448 C 0.85541 0.27098 0.79938 0.0
C2449 C 0.87055 0.26934 0.81049 0.0
C2450 C 0.8974 0.2905 0.85821 0.0
C2451 C 0.93727 0.27289 0.87808 0.0
C2452 C 0.92124 0.27399 0.86535 0.0
C2453 C 0.87328 0.27673 0.83042 0.0
C2454 C 0.88992 0.27575 0.84233 0.0
H2455 H 0.97815 0.26107 0.87636 0.0
H2456 H 0.95197 0.2616 0.85524 0.0
H2457 H 0.91793 0.30141 0.88143 0.0
H2458 H 0.83518 0.29394 0.83481 0.0
H2459 H 0.86109 0.29078 0.85411 0.0
C2460 C 0.57497 0.24619 0.60546 0.0
C2461 C 0.5795 0.25834 0.59202 0.0
C2462 C 0.5724 0.22583 0.60014 0.0
C2463 C 0.58103 0.18676 0.56075 0.0
H2464 H 0.54859 0.15271 0.58629 0.0
C2465 C 0.56003 0.10174 0.53544 0.0
C2466 C 0.55905 0.09064 0.55008 0.0
C2467 C 0.56322 0.12222 0.54 0.0
C2468 C 0.55783 0.16197 0.57906 0.0
H2469 H 0.58421 0.25814 0.56214 0.0
H2470 H 0.57913 0.22313 0.55281 0.0
H2471 H 0.55214 0.18771 0.59531 0.0
H2472 H 0.56055 0.09243 0.58089 0.0
H2473 H 0.56591 0.12773 0.58878 0.0
H2474 H 0.58635 0.16077 0.54422 0.0
C2475 C 0.57814 0.22915 0.56767 0.0
C2476 C 0.55995 0.18221 0.58433 0.0
C2477 C 0.58091 0.24942 0.57303 0.0
C2478 C 0.56136 0.10051 0.56926 0.0
C2479 C 0.56431 0.12081 0.5738 0.0
C2480 C 0.57873 0.16648 0.55532 0.0
C2481 C 0.57406 0.2169 0.58114 0.0
C2482 C 0.57166 0.19507 0.57536 0.0
C2483 C 0.56506 0.13204 0.55929 0.0
C2484 C 0.56719 0.15375 0.56449 0.0
H2485 H 0.57389 0.25242 0.62024 0.0
H2486 H 0.56952 0.21718 0.61114 0.0
H2487 H 0.59047 0.1959 0.55363 0.0
H2488 H 0.55787 0.09463 0.52051 0.0
H2489 H 0.56362 0.13031 0.52841 0.0
C2490 C 0.58553 0.77816 0.4021 0.0
C2491 C 0.56848 0.7699 0.39255 0.0
C2492 C 0.60083 0.77901 0.39211 0.0
C2493 C 0.61743 0.75823 0.34623 0.0
H2494 H 0.65514 0.80466 0.35858 0.0
C2495 C 0.6725 0.77576 0.29553 0.0
C2496 C 0.68986 0.78549 0.30328 0.0
C2497 C 0.65861 0.77263 0.30733 0.0
C2498 C 0.6449 0.79143 0.35508 0.0
H2499 H 0.55432 0.75584 0.36491 0.0
H2500 H 0.58086 0.75738 0.3475 0.0
H2501 H 0.62931 0.80164 0.37708 0.0
H2502 H 0.70617 0.79902 0.32984 0.0
H2503 H 0.68192 0.79337 0.35057 0.0
H2504 H 0.63291 0.74811 0.32411 0.0
C2505 C 0.5825 0.76304 0.3628 0.0
C2506 C 0.62999 0.78969 0.36574 0.0
C2507 C 0.5672 0.76221 0.37279 0.0
C2508 C 0.69302 0.79142 0.32335 0.0
C2509 C 0.67903 0.78837 0.33522 0.0
C2510 C 0.63231 0.75997 0.33558 0.0
C2511 C 0.59958 0.77161 0.37225 0.0
C2512 C 0.6159 0.77314 0.36137 0.0
C2513 C 0.66153 0.7791 0.32735 0.0
C2514 C 0.64622 0.77669 0.33967 0.0
H2515 H 0.58708 0.78424 0.4173 0.0
H2516 H 0.61367 0.78546 0.40003 0.0
H2517 H 0.60712 0.74507 0.3426 0.0
H2518 H 0.66955 0.77078 0.28018 0.0
H2519 H 0.6454 0.76562 0.3006 0.0
C2520 C 0.08399 0.25921 0.42 0.0
C2521 C 0.09479 0.27702 0.42929 0.0
C2522 C 0.08068 0.24346 0.42963 0.0
C2523 C 0.0785 0.23623 0.47934 0.0
H2524 H 0.07422 0.18164 0.45875 0.0
C2525 C 0.06882 0.17865 0.5275 0.0
C2526 C 0.05704 0.16081 0.52023 0.0
C2527 C 0.07351 0.19224 0.51566 0.0
C2528 C 0.07519 0.19683 0.46462 0.0
H2529 H 0.11203 0.29188 0.45488 0.0
H2530 H 0.10675 0.26441 0.47137 0.0
H2531 H 0.08339 0.20574 0.43848 0.0
H2532 H 0.04044 0.14349 0.49505 0.0
H2533 H 0.04852 0.1673 0.47444 0.0
H2534 H 0.07019 0.22753 0.50533 0.0
C2535 C 0.10034 0.26268 0.45701 0.0
C2536 C 0.08047 0.21059 0.45302 0.0
C2537 C 0.10348 0.27834 0.44752 0.0
C2538 C 0.04975 0.15702 0.50099 0.0
C2539 C 0.05443 0.17061 0.48916 0.0
C2540 C 0.07321 0.22255 0.49086 0.0
C2541 C 0.08825 0.2454 0.44858 0.0
C2542 C 0.08239 0.23046 0.46038 0.0
C2543 C 0.06646 0.18832 0.49631 0.0
C2544 C 0.07164 0.20271 0.48372 0.0
H2545 H 0.07708 0.25793 0.40597 0.0
H2546 H 0.07133 0.23028 0.42277 0.0
H2547 H 0.07939 0.2514 0.48527 0.0
H2548 H 0.07485 0.18186 0.54216 0.0
H2549 H 0.08299 0.20566 0.52155 0.0
C2550 C 0.56946 0.2793 0.19234 0.0
C2551 C 0.5668 0.27232 0.17242 0.0
C2552 C 0.5847 0.27757 0.20302 0.0
C2553 C 0.62967 0.26633 0.1971 0.0
H2554 H 0.6259 0.25502 0.24844 0.0
C2555 C 0.68132 0.2345 0.2357 0.0
C2556 C 0.68841 0.2448 0.25408 0.0
C2557 C 0.66654 0.23881 0.22649 0.0
C2558 C 0.62713 0.25829 0.23415 0.0
H2559 H 0.57798 0.25782 0.14817 0.0
H2560 H 0.60393 0.25415 0.16668 0.0
H2561 H 0.60012 0.26115 0.23089 0.0
H2562 H 0.68542 0.26732 0.27746 0.0
H2563 H 0.65918 0.27452 0.26149 0.0
H2564 H 0.65647 0.26259 0.20016 0.0
C2565 C 0.59472 0.26163 0.17411 0.0
C2566 C 0.61241 0.26194 0.22411 0.0
C2567 C 0.57971 0.26364 0.16344 0.0
C2568 C 0.68021 0.25921 0.26327 0.0
C2569 C 0.6652 0.26326 0.25419 0.0
C2570 C 0.64423 0.26233 0.20699 0.0
C2571 C 0.59748 0.26855 0.19406 0.0
C2572 C 0.61342 0.26583 0.20534 0.0
C2573 C 0.65839 0.25327 0.23562 0.0
C2574 C 0.64306 0.25813 0.22553 0.0
H2575 H 0.55978 0.2861 0.19968 0.0
H2576 H 0.58645 0.28335 0.21829 0.0
H2577 H 0.6312 0.26978 0.18293 0.0
H2578 H 0.68748 0.22343 0.22826 0.0
H2579 H 0.66146 0.23083 0.21221 0.0
C2580 C 0.60087 0.88539 0.89052 0.0
C2581 C 0.60645 0.87449 0.90342 0.0
C2582 C 0.59978 0.90464 0.89708 0.0
C2583 C 0.6151 0.94686 0.93547 0.0
H2584 H 0.5665 0.95359 0.93285 0.0
C2585 C 0.59179 1.00204 0.9909 0.0
C2586 C 0.57701 0.00947 0.98608 0.0
C2587 C 0.59749 0.98846 0.97756 0.0
C2588 C 0.58025 0.95232 0.93333 0.0
H2589 H 0.61618 0.87516 0.93281 0.0
H2590 H 0.61486 0.90893 0.94409 0.0
H2591 H 0.5735 0.92469 0.91438 0.0
H2592 H 0.55771 0.0099 0.96276 0.0
H2593 H 0.56813 0.98693 0.93927 0.0
H2594 H 0.62194 0.97432 0.95451 0.0
C2595 C 0.61117 0.90262 0.92904 0.0
C2596 C 0.58421 0.93569 0.92275 0.0
C2597 C 0.61181 0.88332 0.92263 0.0
C2598 C 0.56889 1.00413 0.96715 0.0
C2599 C 0.57481 0.99084 0.95367 0.0
C2600 C 0.61122 0.96368 0.94577 0.0
C2601 C 0.60476 0.91329 0.91644 0.0
C2602 C 0.60153 0.93255 0.92426 0.0
C2603 C 0.58886 0.98239 0.95885 0.0
C2604 C 0.59362 0.96628 0.94541 0.0
H2605 H 0.59655 0.87877 0.87566 0.0
H2606 H 0.5947 0.91263 0.88718 0.0
H2607 H 0.62858 0.9447 0.93675 0.0
H2608 H 0.59881 1.0064 0.0051 0.0
H2609 H 0.60827 0.98225 0.98222 0.0
C2610 C 0.97027 0.77298 0.70679 0.0
C2611 C 0.97007 0.77588 0.68768 0.0
C2612 C 0.95541 0.77411 0.71704 0.0
C2613 C 0.91554 0.79482 0.7173 0.0
H2614 H 0.89506 0.75379 0.74404 0.0
C2615 C 0.84241 0.77923 0.72984 0.0
C2616 C 0.8377 0.77653 0.74812 0.0
C2617 C 0.8599 0.78034 0.72545 0.0
C2618 C 0.90082 0.76552 0.73694 0.0
H2619 H 0.95414 0.78201 0.66427 0.0
H2620 H 0.92836 0.78394 0.68204 0.0
H2621 H 0.92375 0.75376 0.73082 0.0
H2622 H 0.84683 0.77105 0.77563 0.0
H2623 H 0.87783 0.77292 0.76789 0.0
H2624 H 0.89244 0.80624 0.72279 0.0
C2625 C 0.94002 0.78103 0.68922 0.0
C2626 C 0.9172 0.76551 0.72938 0.0
C2627 C 0.95475 0.77978 0.67899 0.0
C2628 C 0.85046 0.77386 0.76168 0.0
C2629 C 0.86803 0.77469 0.75718 0.0
C2630 C 0.89924 0.79482 0.72481 0.0
C2631 C 0.94022 0.77836 0.70837 0.0
C2632 C 0.92439 0.77981 0.71893 0.0
C2633 C 0.87292 0.77828 0.73911 0.0
C2634 C 0.89145 0.77982 0.73411 0.0
H2635 H 0.98191 0.76992 0.71384 0.0
H2636 H 0.95589 0.77199 0.73179 0.0
H2637 H 0.92098 0.80627 0.7097 0.0
H2638 H 0.83256 0.78067 0.719 0.0
H2639 H 0.86321 0.78263 0.71126 0.0
C2640 C 0.16196 0.01512 0.8398 0.0
C2641 C 0.15255 0.01314 0.82155 0.0
C2642 C 0.15357 0.01733 0.85736 0.0
C2643 C 0.10736 0.01235 0.87775 0.0
H2644 H 0.13481 0.03883 0.92558 0.0
C2645 C 0.0746 0.01523 0.95279 0.0
C2646 C 0.08101 0.03087 0.9684 0.0
C2647 C 0.08312 0.01308 0.93534 0.0
C2648 C 0.12665 0.03143 0.9125 0.0
H2649 H 0.12622 0.01207 0.80861 0.0
H2650 H 0.11186 0.01583 0.8385 0.0
H2651 H 0.14929 0.03553 0.89584 0.0
H2652 H 0.10236 0.05641 0.97672 0.0
H2653 H 0.117 0.05273 0.94703 0.0
H2654 H 0.08469 0.00838 0.89438 0.0
C2655 C 0.12584 0.01555 0.8395 0.0
C2656 C 0.13519 0.0293 0.89506 0.0
C2657 C 0.13425 0.01349 0.82199 0.0
C2658 C 0.09666 0.04407 0.96548 0.0
C2659 C 0.10527 0.04184 0.94812 0.0
C2660 C 0.09885 0.01433 0.89521 0.0
C2661 C 0.13517 0.01753 0.85784 0.0
C2662 C 0.12586 0.01974 0.87702 0.0
C2663 C 0.09878 0.02631 0.93235 0.0
C2664 C 0.10816 0.024 0.91323 0.0
H2665 H 0.17597 0.01491 0.84058 0.0
H2666 H 0.16165 0.01854 0.87064 0.0
H2667 H 0.09924 1.00466 0.86473 0.0
H2668 H 0.0629 1.00439 0.95403 0.0
H2669 H 0.07742 1.00065 0.92422 0.0
C2670 C 0.80177 0.40188 0.58126 0.0
C2671 C 0.81129 0.41862 0.57568 0.0
C2672 C 0.80434 0.39895 0.60002 0.0
C2673 C 0.81018 0.39769 0.64241 0.0
H2674 H 0.85986 0.39566 0.65042 0.0
C2675 C 0.8339 0.35338 0.69505 0.0
C2676 C 0.84168 0.33886 0.68522 0.0
C2677 C 0.83188 0.36929 0.68684 0.0
C2678 C 0.84602 0.3965 0.64863 0.0
H2679 H 0.83006 0.44607 0.58544 0.0
H2680 H 0.83506 0.44061 0.61835 0.0
H2681 H 0.85067 0.41366 0.62678 0.0
H2682 H 0.8543 0.33037 0.65949 0.0
H2683 H 0.85121 0.35834 0.64551 0.0
H2684 H 0.80537 0.37943 0.66335 0.0
C2685 C 0.82541 0.42994 0.60823 0.0
C2686 C 0.84077 0.40692 0.63523 0.0
C2687 C 0.82252 0.43307 0.58948 0.0
C2688 C 0.84845 0.34133 0.66761 0.0
C2689 C 0.84667 0.35737 0.65956 0.0
C2690 C 0.81546 0.38747 0.65598 0.0
C2691 C 0.81676 0.41256 0.61345 0.0
C2692 C 0.82269 0.40679 0.63134 0.0
C2693 C 0.83793 0.37119 0.66884 0.0
C2694 C 0.83329 0.386 0.65849 0.0
H2695 H 0.793 0.39058 0.57084 0.0
H2696 H 0.79764 0.38533 0.60358 0.0
H2697 H 0.79616 0.39742 0.63966 0.0
H2698 H 0.82894 0.35222 0.70888 0.0
H2699 H 0.82518 0.37984 0.6943 0.0
C2700 C 0.45717 0.06436 0.34757 0.0
C2701 C 0.43878 0.06296 0.34822 0.0
C2702 C 0.46794 0.06467 0.364 0.0
C2703 C 0.47091 0.0746 0.41655 0.0
H2704 H 0.5067 0.04357 0.41141 0.0
C2705 C 0.50959 0.05649 0.48022 0.0
C2706 C 0.52768 0.05628 0.47902 0.0
C2707 C 0.49939 0.05978 0.46484 0.0
C2708 C 0.49698 0.05255 0.41298 0.0
H2709 H 0.41725 0.06104 0.36663 0.0
H2710 H 0.43627 0.06141 0.39569 0.0
H2711 H 0.48664 0.04322 0.38358 0.0
H2712 H 0.54948 0.06065 0.46121 0.0
H2713 H 0.53156 0.06612 0.43402 0.0
H2714 H 0.48114 0.08362 0.44613 0.0
C2715 C 0.44225 0.06241 0.38234 0.0
C2716 C 0.48543 0.05229 0.3971 0.0
C2717 C 0.43138 0.0621 0.36576 0.0
C2718 C 0.5356 0.06048 0.46248 0.0
C2719 C 0.52531 0.06355 0.44692 0.0
C2720 C 0.48244 0.0748 0.4325 0.0
C2721 C 0.46063 0.06353 0.38152 0.0
C2722 C 0.47233 0.06336 0.39869 0.0
C2723 C 0.50703 0.06284 0.44787 0.0
C2724 C 0.49559 0.06379 0.43083 0.0
H2725 H 0.46334 0.06522 0.33431 0.0
H2726 H 0.48208 0.06593 0.36299 0.0
H2727 H 0.46107 0.08344 0.41812 0.0
H2728 H 0.50314 0.05378 0.49292 0.0
H2729 H 0.48533 0.0591 0.46597 0.0
C2730 C 0.79967 0.73663 0.06746 0.0
C2731 C 0.79902 0.71695 0.06 0.0
C2732 C 0.80014 0.74329 0.08722 0.0
C2733 C 0.80881 0.73002 0.13486 0.0
H2734 H 0.78233 0.76915 0.15269 0.0
C2735 C 0.79655 0.74742 0.2139 0.0
C2736 C 0.80022 0.76701 0.22294 0.0
C2737 C 0.79534 0.7422 0.19397 0.0
C2738 C 0.78992 0.75836 0.14792 0.0
H2739 H 0.79865 0.68892 0.06777 0.0
H2740 H 0.79918 0.70043 0.10229 0.0
H2741 H 0.78278 0.75791 0.11822 0.0
H2742 H 0.80531 0.79662 0.2182 0.0
H2743 H 0.80294 0.78746 0.18287 0.0
H2744 H 0.81569 0.73024 0.16454 0.0
C2745 C 0.7996 0.71084 0.09281 0.0
C2746 C 0.79023 0.75191 0.12815 0.0
C2747 C 0.79927 0.70418 0.07297 0.0
C2748 C 0.80209 0.7814 0.21154 0.0
C2749 C 0.80083 0.77613 0.19138 0.0
C2750 C 0.80839 0.73636 0.15456 0.0
C2751 C 0.79984 0.73047 0.10022 0.0
C2752 C 0.79963 0.73756 0.12132 0.0
C2753 C 0.798 0.75645 0.18244 0.0
C2754 C 0.79884 0.75049 0.16137 0.0
H2755 H 0.79967 0.74699 0.05797 0.0
H2756 H 0.80075 0.75857 0.0923 0.0
H2757 H 0.81652 0.71932 0.13028 0.0
H2758 H 0.79516 0.73605 0.22239 0.0
H2759 H 0.79279 0.72693 0.18758 0.0
C2760 C 0.14513 0.99906 0.69788 0.0
C2761 C 0.14446 0.01312 0.71442 0.0
C2762 C 0.13735 1.00003 0.67911 0.0
C2763 C 0.10428 0.02526 0.65465 0.0
H2764 H 0.12205 1.00577 0.6071 0.0
C2765 C 0.06786 0.02704 0.57744 0.0
C2766 C 0.07809 0.02847 0.56152 0.0
C2767 C 0.07545 0.02489 0.59577 0.0
C2768 C 0.11676 0.01153 0.6201 0.0
H2769 H 0.13518 0.03981 0.7224 0.0
H2770 H 0.12233 0.04132 0.6912 0.0
H2771 H 0.13606 1.00232 0.63775 0.0
H2772 H 0.10473 0.02831 0.55352 0.0
H2773 H 0.11754 0.02467 0.58442 0.0
H2774 H 0.08504 0.03454 0.63709 0.0
C2775 C 0.12832 0.02913 0.69236 0.0
C2776 C 0.12487 0.0093 0.63804 0.0
C2777 C 0.13605 0.02825 0.71073 0.0
C2778 C 0.09614 0.02745 0.56506 0.0
C2779 C 0.10361 0.02512 0.58311 0.0
C2780 C 0.09607 0.02732 0.63673 0.0
C2781 C 0.12836 0.01498 0.67587 0.0
C2782 C 0.11906 0.01631 0.656 0.0
C2783 C 0.09358 0.0236 0.59913 0.0
C2784 C 0.10211 0.02072 0.61879 0.0
H2785 H 0.15119 0.987 0.69943 0.0
H2786 H 0.13801 0.98865 0.66719 0.0
H2787 H 0.09875 0.03072 0.6676 0.0
H2788 H 0.05388 0.02727 0.57571 0.0
H2789 H 0.06682 0.02373 0.60722 0.0
C2790 C 0.80209 0.39194 0.47311 0.0
C2791 C 0.8029 0.41189 0.47447 0.0
C2792 C 0.80199 0.38013 0.45536 0.0
C2793 C 0.81392 0.38129 0.40614 0.0
H2794 H 0.78315 0.3298 0.39549 0.0
C2795 C 0.81976 0.32466 0.34023 0.0
C2796 C 0.80373 0.31406 0.32978 0.0
C2797 C 0.81963 0.33604 0.35824 0.0
C2798 C 0.79173 0.34417 0.39818 0.0
H2799 H 0.80421 0.43517 0.45834 0.0
H2800 H 0.80382 0.41437 0.42706 0.0
H2801 H 0.78228 0.35153 0.42561 0.0
H2802 H 0.77503 0.30661 0.33031 0.0
H2803 H 0.77483 0.32656 0.3616 0.0
H2804 H 0.82307 0.37406 0.37849 0.0
C2805 C 0.80346 0.40796 0.43984 0.0
C2806 C 0.79136 0.35656 0.41552 0.0
C2807 C 0.80358 0.41983 0.45769 0.0
C2808 C 0.78764 0.3145 0.33802 0.0
C2809 C 0.78751 0.32593 0.35599 0.0
C2810 C 0.81426 0.3689 0.38876 0.0
C2811 C 0.80262 0.38796 0.43852 0.0
C2812 C 0.80253 0.3752 0.41973 0.0
C2813 C 0.80348 0.33708 0.36614 0.0
C2814 C 0.80322 0.35017 0.38464 0.0
H2815 H 0.80161 0.38538 0.4858 0.0
H2816 H 0.80165 0.36486 0.45487 0.0
H2817 H 0.82279 0.3955 0.40905 0.0
H2818 H 0.8324 0.32459 0.33432 0.0
H2819 H 0.83218 0.34418 0.36589 0.0
C2820 C 0.45103 0.0762 0.24731 0.0
C2821 C 0.4382 0.05998 0.24955 0.0
C2822 C 0.45713 0.07763 0.22937 0.0
C2823 C 0.45221 0.05201 0.17796 0.0
H2824 H 0.50377 0.06562 0.18526 0.0
C2825 C 0.49782 0.01454 0.13127 0.0
C2826 C 0.51412 0.02548 0.12749 0.0
C2827 C 0.48648 0.02335 0.14261 0.0
C2828 C 0.48939 0.06218 0.18283 0.0
H2829 H 0.42075 0.03317 0.23505 0.0
H2830 H 0.43198 0.03499 0.20381 0.0
H2831 H 0.48684 0.07353 0.21198 0.0
H2832 H 0.53106 0.05434 0.13187 0.0
H2833 H 0.51128 0.06976 0.152 0.0
H2834 H 0.45511 0.03926 0.14901 0.0
C2835 C 0.437 0.04702 0.21558 0.0
C2836 C 0.47959 0.06679 0.19818 0.0
C2837 C 0.43058 0.04586 0.23348 0.0
C2838 C 0.51857 0.04557 0.13461 0.0
C2839 C 0.50729 0.05437 0.14611 0.0
C2840 C 0.46207 0.04718 0.16262 0.0
C2841 C 0.45095 0.06249 0.21353 0.0
C2842 C 0.46088 0.06117 0.19615 0.0
C2843 C 0.4913 0.04326 0.1505 0.0
C2844 C 0.48075 0.05167 0.16514 0.0
H2845 H 0.45697 0.08728 0.25963 0.0
H2846 H 0.46749 0.09002 0.22821 0.0
H2847 H 0.43783 0.04781 0.17577 0.0
H2848 H 0.49393 0.99908 0.12566 0.0
H2849 H 0.47434 0.01439 0.14594 0.0
C2850 C 0.80048 0.71596 0.95663 0.0
C2851 C 0.79962 0.69616 0.95664 0.0
C2852 C 0.80107 0.72313 0.93946 0.0
C2853 C 0.79126 0.70892 0.88659 0.0
H2854 H 0.82401 0.75789 0.88664 0.0
C2855 C 0.80216 0.74126 0.81694 0.0
C2856 C 0.80474 0.76152 0.81882 0.0
C2857 C 0.80194 0.73255 0.83327 0.0
C2858 C 0.81461 0.74431 0.88635 0.0
H2859 H 0.79831 0.66829 0.93842 0.0
H2860 H 0.79923 0.6808 0.90832 0.0
H2861 H 0.82244 0.74415 0.91574 0.0
H2862 H 0.80751 0.78819 0.83928 0.0
H2863 H 0.80744 0.77339 0.86758 0.0
H2864 H 0.78324 0.70924 0.85724 0.0
C2865 C 0.79943 0.69078 0.92168 0.0
C2866 C 0.81373 0.7364 0.90311 0.0
C2867 C 0.79897 0.68361 0.93894 0.0
C2868 C 0.80663 0.77278 0.83732 0.0
C2869 C 0.80635 0.76415 0.85361 0.0
C2870 C 0.79206 0.7169 0.86981 0.0
C2871 C 0.80071 0.7107 0.92173 0.0
C2872 C 0.80195 0.71868 0.90354 0.0
C2873 C 0.80407 0.7439 0.85189 0.0
C2874 C 0.80365 0.73483 0.86948 0.0
H2875 H 0.80093 0.72606 0.96997 0.0
H2876 H 0.80174 0.73847 0.94008 0.0
H2877 H 0.78192 0.69533 0.88642 0.0
H2878 H 0.80041 0.73215 0.80283 0.0
H2879 H 0.80024 0.71694 0.83127 0.0
C2880 C 0.85266 0.1313 0.01527 0.0
C2881 C 0.83505 0.12367 0.01859 0.0
C2882 C 0.86532 0.11989 0.01465 0.0
C2883 C 0.87588 0.0752 0.02694 0.0
H2884 H 0.90365 0.07719 0.98312 0.0
C2885 C 0.9224 0.02225 0.00591 0.0
C2886 C 0.9389 0.0303 0.99987 0.0
C2887 C 0.90933 0.03319 0.00868 0.0
C2888 C 0.89618 0.0766 0.99557 0.0
H2889 H 0.81713 0.09843 0.02495 0.0
H2890 H 0.83935 0.07841 0.02389 0.0
H2891 H 0.88215 0.09758 0.98835 0.0
H2892 H 0.95439 0.05602 0.99155 0.0
H2893 H 0.93195 0.07513 0.99686 0.0
H2894 H 0.89008 0.05427 0.03421 0.0
C2895 C 0.84332 0.09326 0.02177 0.0
C2896 C 0.88385 0.08831 0.99856 0.0
C2897 C 0.8306 0.10471 0.02236 0.0
C2898 C 0.94194 0.04942 0.99646 0.0
C2899 C 0.92895 0.06033 0.99928 0.0
C2900 C 0.88833 0.06351 0.02399 0.0
C2901 C 0.86068 0.10057 0.01735 0.0
C2902 C 0.87365 0.08787 0.01435 0.0
C2903 C 0.91248 0.05238 0.00543 0.0
C2904 C 0.89873 0.06419 0.00833 0.0
H2905 H 0.85657 0.14591 0.01247 0.0
H2906 H 0.87868 0.12606 0.01162 0.0
H2907 H 0.86825 0.07461 0.03927 0.0
H2908 H 0.91968 0.00762 0.00881 0.0
H2909 H 0.89673 0.02655 0.01323 0.0
C2910 C 0.3677 0.43607 0.04322 0.0
C2911 C 0.36418 0.41748 0.03158 0.0
C2912 C 0.38475 0.44826 0.04518 0.0
C2913 C 0.43195 0.44625 0.03733 0.0
H2914 H 0.43882 0.50174 0.03937 0.0
C2915 C 0.49628 0.49259 0.01835 0.0
C2916 C 0.50422 0.50999 0.03105 0.0
C2917 C 0.4794 0.48216 0.02074 0.0
C2918 C 0.43709 0.4863 0.03905 0.0
H2919 H 0.37579 0.39753 0.01232 0.0
H2920 H 0.40499 0.41871 0.01525 0.0
H2921 H 0.40871 0.48204 0.03886 0.0
H2922 H 0.50063 0.52956 0.05669 0.0
H2923 H 0.47065 0.51164 0.06035 0.0
H2924 H 0.4602 0.45039 0.03669 0.0
C2925 C 0.39489 0.42376 0.02346 0.0
C2926 C 0.41984 0.47499 0.03879 0.0
C2927 C 0.378 0.4116 0.02166 0.0
C2928 C 0.4948 0.51653 0.04637 0.0
C2929 C 0.47766 0.50623 0.04852 0.0
C2930 C 0.44907 0.45748 0.03732 0.0
C2931 C 0.39864 0.44217 0.03544 0.0
C2932 C 0.41701 0.45471 0.03751 0.0
C2933 C 0.46984 0.48889 0.03575 0.0
C2934 C 0.45181 0.47755 0.03783 0.0
H2935 H 0.35738 0.44108 0.05109 0.0
H2936 H 0.38712 0.46229 0.05459 0.0
H2937 H 0.43045 0.43083 0.03694 0.0
H2938 H 0.50309 0.48694 0.00645 0.0
H2939 H 0.47369 0.46889 0.01061 0.0
C2940 C 0.38919 0.61469 0.76623 0.0
C2941 C 0.40702 0.61779 0.77448 0.0
C2942 C 0.37992 0.63014 0.76599 0.0
C2943 C 0.38163 0.68431 0.78817 0.0
H2944 H 0.34283 0.67963 0.74944 0.0
C2945 C 0.33761 0.7445 0.7932 0.0
C2946 C 0.329 0.7488 0.77677 0.0
C2947 C 0.34643 0.7287 0.79244 0.0
C2948 C 0.35364 0.68154 0.76047 0.0
H2949 H 0.42846 0.64107 0.78914 0.0
H2950 H 0.41267 0.6675 0.78887 0.0
H2951 H 0.35887 0.65343 0.74907 0.0
H2952 H 0.32398 0.73868 0.74605 0.0
H2953 H 0.33879 0.71107 0.74466 0.0
H2954 H 0.3765 0.7124 0.79954 0.0
C2955 C 0.40558 0.65294 0.78248 0.0
C2956 C 0.36297 0.66606 0.76038 0.0
C2957 C 0.41491 0.63748 0.78254 0.0
C2958 C 0.32983 0.73606 0.75931 0.0
C2959 C 0.33859 0.72 0.75854 0.0
C2960 C 0.37219 0.69966 0.78839 0.0
C2961 C 0.3877 0.64989 0.77419 0.0
C2962 C 0.37738 0.66685 0.77421 0.0
C2963 C 0.34746 0.71589 0.7751 0.0
C2964 C 0.35781 0.69892 0.77457 0.0
H2965 H 0.38219 0.60007 0.75986 0.0
H2966 H 0.36633 0.62635 0.75955 0.0
H2967 H 0.39227 0.6862 0.79937 0.0
H2968 H 0.33771 0.75369 0.80702 0.0
H2969 H 0.35247 0.72658 0.80581 0.0
C2970 C 0.22629 0.63895 0.48999 0.0
C2971 C 0.24093 0.63576 0.50065 0.0
C2972 C 0.20895 0.63109 0.49363 0.0
C2973 C 0.17492 0.62524 0.51266 0.0
H2974 H 0.16093 0.57532 0.52806 0.0
C2975 C 0.10415 0.59985 0.53331 0.0
C2976 C 0.09594 0.58039 0.5261 0.0
C2977 C 0.12253 0.60632 0.53314 0.0
C2978 C 0.16458 0.58926 0.52369 0.0
H2979 H 0.24887 0.62127 0.52309 0.0
H2980 H 0.21865 0.60801 0.52983 0.0
H2981 H 0.19116 0.58595 0.51984 0.0
H2982 H 0.10053 0.55259 0.51263 0.0
H2983 H 0.1322 0.56366 0.51205 0.0
H2984 H 0.14818 0.62816 0.51547 0.0
C2985 C 0.22049 0.61625 0.51838 0.0
C2986 C 0.18201 0.59546 0.51917 0.0
C2987 C 0.23785 0.62388 0.51452 0.0
C2988 C 0.10645 0.56746 0.51894 0.0
C2989 C 0.12474 0.5739 0.51858 0.0
C2990 C 0.15748 0.61895 0.51695 0.0
C2991 C 0.20581 0.62012 0.50827 0.0
C2992 C 0.18736 0.61346 0.5134 0.0
C2993 C 0.13299 0.59352 0.52526 0.0
C2994 C 0.15201 0.60082 0.52237 0.0
H2995 H 0.22823 0.64787 0.47906 0.0
H2996 H 0.198 0.63389 0.48513 0.0
H2997 H 0.17861 0.63938 0.50874 0.0
H2998 H 0.09629 0.61013 0.53876 0.0
H2999 H 0.12844 0.62146 0.53875 0.0
C3000 C 0.7303 0.99946 0.74597 0.0
C3001 C 0.71374 0.99467 0.75334 0.0
C3002 C 0.74368 0.98969 0.74954 0.0
C3003 C 0.75873 0.96607 0.78653 0.0
H3004 H 0.78844 0.9457 0.74951 0.0
C3005 C 0.80268 0.91453 0.80266 0.0
C3006 C 0.81848 0.91454 0.79377 0.0
C3007 C 0.7917 0.9268 0.79866 0.0
C3008 C 0.78052 0.9517 0.7601 0.0
H3009 H 0.69776 0.97506 0.76903 0.0
H3010 H 0.7212 0.95807 0.77533 0.0
H3011 H 0.76469 0.9605 0.73882 0.0
H3012 H 0.83588 0.92823 0.77478 0.0
H3013 H 0.81682 0.95023 0.76809 0.0
H3014 H 0.7745 0.95757 0.80787 0.0
C3015 C 0.72384 0.9695 0.76697 0.0
C3016 C 0.76684 0.95999 0.75392 0.0
C3017 C 0.7104 0.97911 0.76323 0.0
C3018 C 0.82377 0.92803 0.78186 0.0
C3019 C 0.81276 0.9404 0.77785 0.0
C3020 C 0.77249 0.95802 0.79274 0.0
C3021 C 0.74075 0.97513 0.76068 0.0
C3022 C 0.75561 0.96687 0.76704 0.0
C3023 C 0.79633 0.93948 0.78576 0.0
C3024 C 0.78331 0.95036 0.77955 0.0
H3025 H 0.73321 0.01136 0.73822 0.0
H3026 H 0.75662 0.99426 0.74452 0.0
H3027 H 0.75051 0.97172 0.79701 0.0
H3028 H 0.79837 0.90432 0.812 0.0
H3029 H 0.7791 0.92553 0.80488 0.0
C3030 C 0.74789 0.91425 0.53146 0.0
C3031 C 0.76549 0.92362 0.53853 0.0
C3032 C 0.7346 0.92489 0.53045 0.0
C3033 C 0.72942 0.97461 0.52752 0.0
H3034 H 0.68075 0.95578 0.538 0.0
C3035 C 0.67817 0.02271 0.5266 0.0
C3036 C 0.66077 0.01403 0.51833 0.0
C3037 C 0.69027 0.01138 0.53032 0.0
C3038 C 0.69423 0.96118 0.53481 0.0
H3039 H 0.78273 0.95152 0.55071 0.0
H3040 H 0.7596 0.97001 0.54912 0.0
H3041 H 0.70301 0.93666 0.54245 0.0
H3042 H 0.64233 0.98647 0.50799 0.0
H3043 H 0.66353 0.9666 0.51428 0.0
H3044 H 0.72074 0.99892 0.5196 0.0
C3045 C 0.75608 0.95445 0.54408 0.0
C3046 C 0.70702 0.9502 0.5374 0.0
C3047 C 0.76934 0.94381 0.54514 0.0
C3048 C 0.6556 0.99363 0.51447 0.0
C3049 C 0.66778 0.98224 0.5181 0.0
C3050 C 0.71667 0.98551 0.52488 0.0
C3051 C 0.73858 0.9452 0.53639 0.0
C3052 C 0.72483 0.95682 0.53387 0.0
C3053 C 0.68541 0.99097 0.52579 0.0
C3054 C 0.69888 0.97904 0.52857 0.0
H3055 H 0.74445 0.89872 0.52619 0.0
H3056 H 0.72134 0.91726 0.52433 0.0
H3057 H 0.74287 0.97999 0.52421 0.0
H3058 H 0.68251 0.03836 0.53014 0.0
H3059 H 0.70352 0.01869 0.53673 0.0
C3060 C 0.39344 0.50509 0.77493 0.0
C3061 C 0.41207 0.50756 0.77435 0.0
C3062 C 0.38224 0.4864 0.77447 0.0
C3063 C 0.38196 0.43224 0.76193 0.0
H3064 H 0.34119 0.4249 0.79144 0.0
C3065 C 0.34647 0.35391 0.771 0.0
C3066 C 0.3281 0.34914 0.77342 0.0
C3067 C 0.35562 0.37316 0.77084 0.0
C3068 C 0.35239 0.42649 0.78286 0.0
H3069 H 0.43296 0.4913 0.77265 0.0
H3070 H 0.414 0.45973 0.77183 0.0
H3071 H 0.35829 0.45774 0.79127 0.0
H3072 H 0.30552 0.36229 0.77833 0.0
H3073 H 0.32109 0.3955 0.77752 0.0
H3074 H 0.37616 0.40125 0.7533 0.0
C3075 C 0.40775 0.47201 0.77247 0.0
C3076 C 0.36232 0.44559 0.78278 0.0
C3077 C 0.41882 0.49048 0.77309 0.0
C3078 C 0.3194 0.36483 0.77593 0.0
C3079 C 0.32858 0.38421 0.77576 0.0
C3080 C 0.37206 0.41325 0.76195 0.0
C3081 C 0.38916 0.46936 0.77315 0.0
C3082 C 0.37754 0.44894 0.7725 0.0
C3083 C 0.34695 0.3889 0.77308 0.0
C3084 C 0.35713 0.40975 0.77261 0.0
H3085 H 0.3875 0.51762 0.77601 0.0
H3086 H 0.36808 0.48532 0.77495 0.0
H3087 H 0.39315 0.43375 0.75333 0.0
H3088 H 0.354 0.34263 0.76916 0.0
H3089 H 0.36972 0.37565 0.7692 0.0
C3090 C 0.22222 0.59529 0.2657 0.0
C3091 C 0.20939 0.59096 0.27855 0.0
C3092 C 0.23299 0.6139 0.26804 0.0
C3093 C 0.23814 0.65838 0.2698 0.0
H3094 H 0.27069 0.68481 0.31444 0.0
C3095 C 0.26375 0.7409 0.28493 0.0
C3096 C 0.28219 0.74746 0.28893 0.0
C3097 C 0.25584 0.72153 0.28485 0.0
C3098 C 0.26156 0.6776 0.30197 0.0
H3099 H 0.19848 0.60228 0.3045 0.0
H3100 H 0.21783 0.63476 0.30889 0.0
H3101 H 0.25548 0.65073 0.31235 0.0
H3102 H 0.30671 0.74002 0.29804 0.0
H3103 H 0.29293 0.70579 0.29748 0.0
H3104 H 0.24361 0.68528 0.25967 0.0
C3105 C 0.21929 0.62376 0.29692 0.0
C3106 C 0.25295 0.65819 0.30077 0.0
C3107 C 0.20821 0.60527 0.29435 0.0
C3108 C 0.29251 0.73489 0.29422 0.0
C3109 C 0.28463 0.71548 0.29409 0.0
C3110 C 0.24635 0.67789 0.27124 0.0
C3111 C 0.23142 0.62831 0.28351 0.0
C3112 C 0.24119 0.64849 0.28466 0.0
C3113 C 0.26627 0.70855 0.28901 0.0
C3114 C 0.25802 0.68773 0.28742 0.0
H3115 H 0.22335 0.58457 0.25334 0.0
H3116 H 0.24228 0.6172 0.25753 0.0
H3117 H 0.22906 0.65113 0.25727 0.0
H3118 H 0.25551 0.75072 0.28171 0.0
H3119 H 0.24159 0.71667 0.2814 0.0
C3120 C 0.52057 0.72016 0.46764 0.0
C3121 C 0.52476 0.72469 0.44957 0.0
C3122 C 0.52426 0.70353 0.47361 0.0
C3123 C 0.53428 0.65464 0.45656 0.0
H3124 H 0.54922 0.65907 0.51047 0.0
C3125 C 0.55107 0.5885 0.48779 0.0
C3126 C 0.54637 0.58663 0.50639 0.0
C3127 C 0.55009 0.60545 0.4804 0.0
C3128 C 0.54484 0.65733 0.4954 0.0
H3129 H 0.53614 0.71441 0.4236 0.0
H3130 H 0.54251 0.68523 0.434 0.0
H3131 H 0.54425 0.68748 0.49838 0.0
H3132 H 0.53627 0.6009 0.53139 0.0
H3133 H 0.53459 0.63017 0.51883 0.0
H3134 H 0.53469 0.62435 0.45368 0.0
C3135 C 0.53626 0.69474 0.44357 0.0
C3136 C 0.54198 0.67381 0.48838 0.0
C3137 C 0.53265 0.7116 0.43758 0.0
C3138 C 0.54052 0.60208 0.51726 0.0
C3139 C 0.53958 0.61897 0.50996 0.0
C3140 C 0.53708 0.63806 0.46362 0.0
C3141 C 0.53229 0.6905 0.46183 0.0
C3142 C 0.5364 0.67281 0.46887 0.0
C3143 C 0.54416 0.62101 0.49129 0.0
C3144 C 0.5422 0.63899 0.48327 0.0
H3145 H 0.51444 0.72959 0.47744 0.0
H3146 H 0.52057 0.70082 0.48756 0.0
H3147 H 0.5299 0.65304 0.44149 0.0
H3148 H 0.55514 0.57667 0.47878 0.0
H3149 H 0.55389 0.60627 0.46607 0.0
C3150 C 0.63887 0.32722 0.6631 0.0
C3151 C 0.63794 0.32052 0.64312 0.0
C3152 C 0.65335 0.3257 0.67544 0.0
C3153 C 0.68555 0.29594 0.68143 0.0
H3154 H 0.71738 0.34114 0.71208 0.0
C3155 C 0.74984 0.28742 0.72328 0.0
C3156 C 0.75817 0.30142 0.73936 0.0
C3157 C 0.73534 0.29019 0.71194 0.0
C3158 C 0.70856 0.32816 0.70405 0.0
H3159 H 0.65158 0.30655 0.62075 0.0
H3160 H 0.67618 0.30326 0.64224 0.0
H3161 H 0.69161 0.34497 0.69288 0.0
H3162 H 0.75804 0.33006 0.75506 0.0
H3163 H 0.73208 0.33418 0.73678 0.0
H3164 H 0.70155 0.27885 0.693 0.0
C3165 C 0.66594 0.31008 0.64831 0.0
C3166 C 0.69372 0.33049 0.69285 0.0
C3167 C 0.65182 0.31208 0.63597 0.0
C3168 C 0.75167 0.31851 0.7434 0.0
C3169 C 0.73682 0.32106 0.73241 0.0
C3170 C 0.70005 0.29351 0.69301 0.0
C3171 C 0.66698 0.31689 0.66822 0.0
C3172 C 0.68214 0.31443 0.68119 0.0
C3173 C 0.72821 0.30693 0.7164 0.0
C3174 C 0.71213 0.30958 0.70441 0.0
H3175 H 0.62847 0.33373 0.66919 0.0
H3176 H 0.65371 0.33105 0.69072 0.0
H3177 H 0.67682 0.28322 0.67274 0.0
H3178 H 0.75455 0.27418 0.71931 0.0
H3179 H 0.72993 0.27908 0.69953 0.0
C3180 C 0.02562 0.33264 0.96143 0.0
C3181 C 0.02334 0.32595 0.94142 0.0
C3182 C 0.02666 0.35235 0.96924 0.0
C3183 C 0.03468 0.40162 0.9549 0.0
H3184 H 0.01916 0.41824 0.00482 0.0
C3185 C 0.0322 0.48187 0.98167 0.0
C3186 C 0.03952 0.49036 1.0005 0.0
C3187 C 0.02883 0.46168 0.97537 0.0
C3188 C 0.02365 0.41385 0.99089 0.0
H3189 H 0.01962 0.33478 0.91405 0.0
H3190 H 0.02069 0.3686 0.92745 0.0
H3191 H 0.01577 0.38357 0.99213 0.0
H3192 H 0.04953 0.48428 0.02738 0.0
H3193 H 0.04326 0.44887 0.01655 0.0
H3194 H 0.0423 0.43184 0.95354 0.0
C3195 C 0.02237 0.35896 0.93728 0.0
C3196 C 0.02177 0.39388 0.98358 0.0
C3197 C 0.02157 0.33938 0.92951 0.0
C3198 C 0.04333 0.47812 0.01297 0.0
C3199 C 0.03982 0.45783 0.00671 0.0
C3200 C 0.03634 0.42147 0.96208 0.0
C3201 C 0.02527 0.36597 0.95728 0.0
C3202 C 0.02722 0.38736 0.96538 0.0
C3203 C 0.03288 0.44934 0.98766 0.0
C3204 C 0.03084 0.42795 0.98017 0.0
H3205 H 0.02712 0.32275 0.97107 0.0
H3206 H 0.02906 0.35696 0.98467 0.0
H3207 H 0.03957 0.39753 0.94113 0.0
H3208 H 0.02951 0.49096 0.97162 0.0
H3209 H 0.02334 0.45574 0.96068 0.0
C3210 C 0.03985 0.80889 0.17116 0.0
C3211 C 0.03868 0.80903 0.15134 0.0
C3212 C 0.02455 0.80656 0.18109 0.0
C3213 C 0.97614 0.80867 0.17748 0.0
H3214 H 0.97589 0.78251 0.22101 0.0
C3215 C 0.91385 0.78804 0.22073 0.0
C3216 C 0.9174 0.79114 0.24085 0.0
C3217 C 0.92786 0.7907 0.20879 0.0
C3218 C 0.97574 0.78999 0.20897 0.0
H3219 H 0.02027 0.80666 0.12643 0.0
H3220 H 0.9935 0.80199 0.14358 0.0
H3221 H 1.00134 0.78533 0.20219 0.0
H3222 H 0.9386 0.80101 0.26405 0.0
H3223 H 0.96269 0.80523 0.24346 0.0
H3224 H 0.95019 0.81287 0.18427 0.0
C3225 C 0.00632 0.80411 0.15162 0.0
C3226 C 0.99046 0.79171 0.19816 0.0
C3227 C 0.0217 0.80664 0.1417 0.0
C3228 C 0.93526 0.79788 0.24865 0.0
C3229 C 0.94916 0.80034 0.23681 0.0
C3230 C 0.96126 0.80673 0.18823 0.0
C3231 C 0.00747 0.80403 0.17153 0.0
C3232 C 0.99111 0.80136 0.18239 0.0
C3233 C 0.94575 0.7964 0.2167 0.0
C3234 C 0.96099 0.79763 0.20433 0.0
H3235 H 0.05267 0.81089 0.17915 0.0
H3236 H 0.02624 0.80707 0.19643 0.0
H3237 H 0.97606 0.81636 0.16561 0.0
H3238 H 0.90032 0.78282 0.21415 0.0
H3239 H 0.92473 0.78756 0.19336 0.0
C3240 C 0.52752 0.31006 0.11613 0.0
C3241 C 0.52558 0.31539 0.13575 0.0
C3242 C 0.53211 0.32415 0.10489 0.0
C3243 C 0.5521 0.37558 0.1062 0.0
H3244 H 0.52545 0.3658 0.05621 0.0
C3245 C 0.55957 0.43139 0.055 0.0
C3246 C 0.55989 0.4239 0.0354 0.0
C3247 C 0.55556 0.41891 0.06808 0.0
C3248 C 0.53314 0.36867 0.07004 0.0
H3249 H 0.52748 0.33971 0.15916 0.0
H3250 H 0.53556 0.36454 0.13935 0.0
H3251 H 0.51838 0.34284 0.07775 0.0
H3252 H 0.55621 0.39742 0.01418 0.0
H3253 H 0.54958 0.37571 0.03698 0.0
H3254 H 0.56697 0.40139 0.09833 0.0
C3255 C 0.53354 0.34938 0.13275 0.0
C3256 C 0.52907 0.35552 0.08239 0.0
C3257 C 0.52888 0.33519 0.14406 0.0
C3258 C 0.55627 0.40367 0.0292 0.0
C3259 C 0.55224 0.39122 0.04224 0.0
C3260 C 0.55621 0.38877 0.09379 0.0
C3261 C 0.53487 0.34395 0.11297 0.0
C3262 C 0.53867 0.35867 0.10049 0.0
C3263 C 0.55171 0.39868 0.0618 0.0
C3264 C 0.54692 0.3853 0.07546 0.0
H3265 H 0.5252 0.29493 0.10931 0.0
H3266 H 0.5334 0.31952 0.08978 0.0
H3267 H 0.55977 0.37833 0.12002 0.0
H3268 H 0.56246 0.44692 0.06025 0.0
H3269 H 0.55515 0.42511 0.08303 0.0
C3270 C 0.04566 0.32148 0.36161 0.0
C3271 C 0.04693 0.32588 0.3818 0.0
C3272 C 0.03025 0.32242 0.35076 0.0
C3273 C 0.99127 0.34503 0.35472 0.0
H3274 H 0.97256 0.30845 0.30767 0.0
C3275 C 0.92365 0.32162 0.29879 0.0
C3276 C 0.92073 0.34016 0.29764 0.0
C3277 C 0.93942 0.31955 0.30808 0.0
C3278 C 0.97754 0.31871 0.32085 0.0
H3279 H 0.03269 0.33393 0.40637 0.0
H3280 H 1.00582 0.33513 0.38753 0.0
H3281 H 0.99881 0.30468 0.3262 0.0
H3282 H 0.93231 0.37105 0.30518 0.0
H3283 H 0.95997 0.36742 0.32074 0.0
H3284 H 0.96978 0.35872 0.34979 0.0
C3285 C 0.01687 0.33147 0.38004 0.0
C3286 C 0.99272 0.31667 0.33136 0.0
C3287 C 0.03227 0.33066 0.39086 0.0
C3288 C 0.93415 0.35654 0.30561 0.0
C3289 C 0.94994 0.35447 0.31479 0.0
C3290 C 0.9761 0.34702 0.34429 0.0
C3291 C 0.01576 0.32768 0.35986 0.0
C3292 C 0.99972 0.32978 0.34847 0.0
C3293 C 0.95268 0.33597 0.31638 0.0
C3294 C 0.96903 0.33389 0.32723 0.0
H3295 H 0.05673 0.31781 0.35416 0.0
H3296 H 0.02991 0.31958 0.33524 0.0
H3297 H 0.99645 0.35559 0.36766 0.0
H3298 H 0.91372 0.30867 0.29257 0.0
H3299 H 0.941 0.30509 0.30916 0.0
C3300 C 0.9988 0.70476 0.64592 0.0
C3301 C 0.99553 0.71511 0.63147 0.0
C3302 C 0.99725 0.68467 0.64135 0.0
C3303 C 0.98365 0.64102 0.60286 0.0
H3304 H 0.03215 0.63562 0.61257 0.0
C3305 C 0.01533 0.59122 0.5504 0.0
C3306 C 0.02962 0.58383 0.55686 0.0
C3307 C 0.00753 0.60334 0.56318 0.0
C3308 C 0.01838 0.63644 0.61009 0.0
H3309 H 0.98595 0.71257 0.60168 0.0
H3310 H 0.98287 0.67754 0.59379 0.0
H3311 H 0.02269 0.66338 0.62981 0.0
H3312 H 0.04606 0.58229 0.58215 0.0
H3313 H 0.032 0.60275 0.60452 0.0
H3314 H 0.97947 0.61432 0.58269 0.0
C3315 C 0.98679 0.68481 0.60855 0.0
C3316 C 0.01295 0.65244 0.62004 0.0
C3317 C 0.98865 0.70488 0.61302 0.0
C3318 C 0.03529 0.58799 0.57658 0.0
C3319 C 0.02726 0.59981 0.58944 0.0
C3320 C 0.98899 0.62481 0.59309 0.0
C3321 C 0.99209 0.67472 0.62238 0.0
C3322 C 0.99579 0.65531 0.61592 0.0
C3323 C 0.01355 0.60803 0.58284 0.0
C3324 C 0.00668 0.62281 0.59593 0.0
H3325 H 1.00417 0.71234 0.66025 0.0
H3326 H 1.00134 0.67716 0.65226 0.0
H3327 H 0.97031 0.64289 0.59951 0.0
H3328 H 0.01029 0.58794 0.53542 0.0
H3329 H 0.9972 0.60954 0.55743 0.0
C3330 C 0.65313 0.81165 0.87381 0.0
C3331 C 0.63582 0.80188 0.86626 0.0
C3332 C 0.66777 0.80784 0.86454 0.0
C3333 C 0.68127 0.78605 0.81779 0.0
H3334 H 0.72576 0.79467 0.84939 0.0
C3335 C 0.76168 0.78713 0.81331 0.0
C3336 C 0.76389 0.79369 0.79594 0.0
C3337 C 0.74505 0.78415 0.82041 0.0
C3338 C 0.7135 0.79168 0.84015 0.0
H3339 H 0.62024 0.78016 0.84318 0.0
H3340 H 0.6461 0.77265 0.82732 0.0
H3341 H 0.69873 0.79492 0.86447 0.0
H3342 H 0.75104 0.80342 0.77277 0.0
H3343 H 0.72209 0.79961 0.78576 0.0
H3344 H 0.69608 0.7816 0.79341 0.0
C3345 C 0.64828 0.78371 0.84019 0.0
C3346 C 0.69789 0.7923 0.84893 0.0
C3347 C 0.63347 0.78786 0.84934 0.0
C3348 C 0.74937 0.79774 0.78591 0.0
C3349 C 0.73279 0.79547 0.7934 0.0
C3350 C 0.69691 0.78483 0.80893 0.0
C3351 C 0.66565 0.79375 0.84766 0.0
C3352 C 0.68165 0.79021 0.83794 0.0
C3353 C 0.73044 0.78886 0.81092 0.0
C3354 C 0.71335 0.78814 0.82001 0.0
H3355 H 0.65542 0.8228 0.88663 0.0
H3356 H 0.68078 0.81641 0.87047 0.0
H3357 H 0.66904 0.78436 0.80879 0.0
H3358 H 0.77285 0.78429 0.82142 0.0
H3359 H 0.74384 0.77842 0.83354 0.0
C3360 C 0.47969 0.57391 0.72091 0.0
C3361 C 0.46114 0.56869 0.72256 0.0
C3362 C 0.48716 0.57244 0.70299 0.0
C3363 C 0.47714 0.54979 0.64893 0.0
H3364 H 0.52432 0.58018 0.64625 0.0
C3365 C 0.51637 0.53548 0.57905 0.0
C3366 C 0.53037 0.54996 0.57482 0.0
C3367 C 0.50769 0.53801 0.59632 0.0
C3368 C 0.51108 0.5715 0.64628 0.0
H3369 H 0.43612 0.5574 0.705 0.0
H3370 H 0.44892 0.55527 0.67376 0.0
H3371 H 0.50984 0.58479 0.67558 0.0
H3372 H 0.54543 0.57901 0.58648 0.0
H3373 H 0.53065 0.5835 0.61594 0.0
H3374 H 0.47827 0.53687 0.61936 0.0
C3375 C 0.45792 0.56057 0.68668 0.0
C3376 C 0.50263 0.574 0.66367 0.0
C3377 C 0.45037 0.56214 0.70486 0.0
C3378 C 0.53507 0.5672 0.58888 0.0
C3379 C 0.52639 0.56976 0.60615 0.0
C3380 C 0.4856 0.54729 0.63146 0.0
C3381 C 0.47666 0.56549 0.68518 0.0
C3382 C 0.48541 0.56316 0.66572 0.0
C3383 C 0.51238 0.55524 0.61053 0.0
C3384 C 0.50293 0.55802 0.62953 0.0
H3385 H 0.48878 0.57868 0.73384 0.0
H3386 H 0.5015 0.57617 0.70337 0.0
H3387 H 0.46406 0.54084 0.64923 0.0
H3388 H 0.51206 0.5219 0.56895 0.0
H3389 H 0.49735 0.52609 0.59852 0.0
C3390 C 0.8011 0.17995 0.95636 0.0
C3391 C 0.79625 0.16043 0.95829 0.0
C3392 C 0.79922 0.1852 0.9385 0.0
C3393 C 0.77227 0.17121 0.89317 0.0
H3394 H 0.80757 0.21243 0.87936 0.0
C3395 C 0.75639 0.21165 0.83292 0.0
C3396 C 0.76061 0.23197 0.83876 0.0
C3397 C 0.76332 0.19983 0.84373 0.0
C3398 C 0.79762 0.20085 0.88295 0.0
H3399 H 0.78576 0.131 0.94303 0.0
H3400 H 0.78203 0.14034 0.91149 0.0
H3401 H 0.81505 0.19657 0.90557 0.0
H3402 H 0.77584 0.25578 0.86024 0.0
H3403 H 0.78793 0.23527 0.87901 0.0
H3404 H 0.75451 0.17621 0.87125 0.0
C3405 C 0.78747 0.15148 0.92393 0.0
C3406 C 0.80191 0.19175 0.8979 0.0
C3407 C 0.7896 0.14615 0.9419 0.0
C3408 C 0.77249 0.24022 0.85519 0.0
C3409 C 0.77945 0.22844 0.86594 0.0
C3410 C 0.76795 0.18035 0.8782 0.0
C3411 C 0.79228 0.17109 0.92211 0.0
C3412 C 0.78905 0.17741 0.90367 0.0
C3413 C 0.77469 0.2081 0.86054 0.0
C3414 C 0.78037 0.19581 0.87348 0.0
H3415 H 0.80632 0.19129 0.96871 0.0
H3416 H 0.80273 0.20046 0.93764 0.0
H3417 H 0.76208 0.16028 0.89739 0.0
H3418 H 0.74751 0.20488 0.82014 0.0
H3419 H 0.75957 0.18422 0.8391 0.0
C3420 C 0.16058 0.52047 0.19211 0.0
C3421 C 0.16331 0.53764 0.20579 0.0
C3422 C 0.15126 0.51918 0.17425 0.0
C3423 C 0.13193 0.5484 0.14322 0.0
H3424 H 0.09299 0.50303 0.13152 0.0
C3425 C 0.0697 0.54737 0.09493 0.0
C3426 C 0.06649 0.53222 0.07897 0.0
C3427 C 0.08122 0.54678 0.11063 0.0
C3428 C 0.10383 0.51574 0.13464 0.0
H3429 H 0.16023 0.5674 0.21122 0.0
H3430 H 0.14417 0.56527 0.18037 0.0
H3431 H 0.11696 0.5045 0.15608 0.0
H3432 H 0.07111 0.50387 0.06735 0.0
H3433 H 0.09072 0.50254 0.09504 0.0
H3434 H 0.11843 0.55987 0.12221 0.0
C3435 C 0.14905 0.55276 0.1831 0.0
C3436 C 0.11767 0.51649 0.14849 0.0
C3437 C 0.15818 0.55398 0.20084 0.0
C3438 C 0.07349 0.51572 0.07959 0.0
C3439 C 0.08468 0.51496 0.09537 0.0
C3440 C 0.118 0.54774 0.12958 0.0
C3441 C 0.14477 0.53511 0.16993 0.0
C3442 C 0.13173 0.53298 0.15314 0.0
C3443 C 0.08927 0.53084 0.11062 0.0
C3444 C 0.10372 0.53154 0.12539 0.0
H3445 H 0.16438 0.50769 0.19573 0.0
H3446 H 0.14837 0.50548 0.16424 0.0
H3447 H 0.14269 0.56117 0.14627 0.0
H3448 H 0.06453 0.56028 0.0946 0.0
H3449 H 0.08446 0.55911 0.12238 0.0
C3450 C 0.81022 0.88414 0.46686 0.0
C3451 C 0.80678 0.87317 0.4814 0.0
C3452 C 0.81247 0.87521 0.44829 0.0
C3453 C 0.80115 0.82825 0.41476 0.0
H3454 H 0.837 0.85393 0.38592 0.0
C3455 C 0.80668 0.79835 0.33411 0.0
C3456 C 0.80823 0.81264 0.32261 0.0
C3457 C 0.80923 0.80378 0.35425 0.0
C3458 C 0.82688 0.84655 0.39374 0.0
H3459 H 0.80309 0.84416 0.48783 0.0
H3460 H 0.80686 0.82853 0.45532 0.0
H3461 H 0.83576 0.86747 0.41962 0.0
H3462 H 0.8135 0.84355 0.32292 0.0
H3463 H 0.81802 0.85298 0.35763 0.0
H3464 H 0.79188 0.80771 0.38864 0.0
C3465 C 0.8078 0.84406 0.4583 0.0
C3466 C 0.82616 0.85436 0.41307 0.0
C3467 C 0.80572 0.85304 0.47695 0.0
C3468 C 0.81258 0.83227 0.33148 0.0
C3469 C 0.81526 0.83766 0.35141 0.0
C3470 C 0.80181 0.82049 0.39534 0.0
C3471 C 0.8112 0.85504 0.44373 0.0
C3472 C 0.81303 0.84558 0.42372 0.0
C3473 C 0.81335 0.82355 0.36314 0.0
C3474 C 0.8144 0.82984 0.38444 0.0
H3475 H 0.81112 0.89967 0.4698 0.0
H3476 H 0.81484 0.88408 0.43738 0.0
H3477 H 0.79082 0.82116 0.42251 0.0
H3478 H 0.80289 0.78311 0.32758 0.0
H3479 H 0.80771 0.79253 0.36286 0.0
C3480 C 0.44601 0.56793 0.84431 0.0
C3481 C 0.45462 0.56894 0.82727 0.0
C3482 C 0.45481 0.56515 0.8616 0.0
C3483 C 0.49819 0.55272 0.88251 0.0
H3484 H 0.47971 0.56735 0.93107 0.0
C3485 C 0.53622 0.55 0.95875 0.0
C3486 C 0.52599 0.5468 0.97437 0.0
C3487 C 0.52824 0.55224 0.94066 0.0
C3488 C 0.48518 0.56283 0.91777 0.0
H3489 H 0.47998 0.56768 0.81613 0.0
H3490 H 0.49517 0.5633 0.84565 0.0
H3491 H 0.465 0.57189 0.90163 0.0
H3492 H 0.49899 0.54375 0.98221 0.0
H3493 H 0.48548 0.5473 0.95167 0.0
H3494 H 0.51858 0.54392 0.89898 0.0
C3495 C 0.48139 0.5643 0.84587 0.0
C3496 C 0.4765 0.56549 0.90042 0.0
C3497 C 0.47255 0.567 0.82859 0.0
C3498 C 0.50757 0.54603 0.97085 0.0
C3499 C 0.49969 0.54832 0.95304 0.0
C3500 C 0.50695 0.55015 0.89995 0.0
C3501 C 0.47286 0.56329 0.86306 0.0
C3502 C 0.48258 0.56045 0.88209 0.0
C3503 C 0.5097 0.55176 0.93734 0.0
C3504 C 0.50066 0.55498 0.91819 0.0
H3505 H 0.43227 0.56922 0.84433 0.0
H3506 H 0.44713 0.56423 0.87383 0.0
H3507 H 0.50369 0.54823 0.86924 0.0
H3508 H 0.55044 0.55112 0.96056 0.0
H3509 H 0.53681 0.55487 0.9294 0.0
C3510 C 0.80491 0.18357 0.0742 0.0
C3511 C 0.805 0.19443 0.05945 0.0
C3512 C 0.80566 0.19266 0.09343 0.0
C3513 C 0.79406 0.2354 0.12166 0.0
H3514 H 0.82231 0.22513 0.16403 0.0
C3515 C 0.78584 0.26421 0.20101 0.0
C3516 C 0.80159 0.27187 0.21311 0.0
C3517 C 0.78641 0.25452 0.1823 0.0
C3518 C 0.81441 0.2282 0.15231 0.0
H3519 H 0.80734 0.22354 0.05343 0.0
H3520 H 0.80878 0.23924 0.08675 0.0
H3521 H 0.82404 0.20852 0.13129 0.0
H3522 H 0.83013 0.27477 0.2156 0.0
H3523 H 0.8313 0.25854 0.18275 0.0
H3524 H 0.78458 0.25522 0.14251 0.0
C3525 C 0.80767 0.22368 0.08348 0.0
C3526 C 0.81529 0.21856 0.13363 0.0
C3527 C 0.80694 0.21466 0.06438 0.0
C3528 C 0.81791 0.26973 0.20628 0.0
C3529 C 0.8185 0.26001 0.18763 0.0
C3530 C 0.79312 0.24494 0.14029 0.0
C3531 C 0.80651 0.21273 0.09815 0.0
C3532 C 0.80527 0.22226 0.11811 0.0
C3533 C 0.80275 0.25217 0.17548 0.0
C3534 C 0.80339 0.24157 0.15579 0.0
H3535 H 0.80343 0.16796 0.07087 0.0
H3536 H 0.80477 0.18388 0.10449 0.0
H3537 H 0.78597 0.23831 0.10999 0.0
H3538 H 0.7731 0.2656 0.20605 0.0
H3539 H 0.77403 0.24848 0.17333 0.0
C3540 C 0.18174 0.54361 0.32007 0.0
C3541 C 0.17154 0.53177 0.30372 0.0
C3542 C 0.17323 0.55166 0.3354 0.0
C3543 C 0.13265 0.56839 0.34189 0.0
H3544 H 0.13644 0.56269 0.39518 0.0
C3545 C 0.07696 0.57549 0.39053 0.0
C3546 C 0.08129 0.58309 0.41017 0.0
C3547 C 0.09037 0.57318 0.3785 0.0
C3548 C 0.13553 0.5648 0.38044 0.0
H3549 H 0.14484 0.51763 0.29109 0.0
H3550 H 0.13014 0.53145 0.31774 0.0
H3551 H 0.15638 0.5498 0.37321 0.0
H3552 H 0.10303 0.59558 0.4324 0.0
H3553 H 0.12648 0.59151 0.41132 0.0
H3554 H 0.11159 0.58287 0.34875 0.0
C3555 C 0.14455 0.53482 0.31866 0.0
C3556 C 0.1469 0.55739 0.36793 0.0
C3557 C 0.15297 0.52684 0.30351 0.0
C3558 C 0.09931 0.58939 0.41734 0.0
C3559 C 0.11272 0.58703 0.40532 0.0
C3560 C 0.1214 0.57586 0.35434 0.0
C3561 C 0.15455 0.54792 0.33432 0.0
C3562 C 0.14507 0.55855 0.34844 0.0
C3563 C 0.10837 0.57845 0.38588 0.0
C3564 C 0.12229 0.57355 0.37358 0.0
H3565 H 0.19609 0.54773 0.3204 0.0
H3566 H 0.18114 0.56168 0.34747 0.0
H3567 H 0.13123 0.56967 0.32691 0.0
H3568 H 0.0632 0.57031 0.38466 0.0
H3569 H 0.08657 0.5663 0.36361 0.0
C3570 C 0.78833 0.87173 0.59176 0.0
C3571 C 0.80403 0.87 0.5831 0.0
C3572 C 0.78563 0.86626 0.60971 0.0
C3573 C 0.80953 0.85986 0.65358 0.0
H3574 H 0.76869 0.81963 0.65824 0.0
C3575 C 0.81005 0.81718 0.71482 0.0
C3576 C 0.79437 0.81107 0.72332 0.0
C3577 C 0.8097 0.82536 0.69833 0.0
C3578 C 0.78002 0.83112 0.65737 0.0
H3579 H 0.82941 0.86193 0.58671 0.0
H3580 H 0.82502 0.85321 0.61811 0.0
H3581 H 0.77072 0.83337 0.62886 0.0
H3582 H 0.7658 0.80816 0.72067 0.0
H3583 H 0.76514 0.82294 0.69192 0.0
H3584 H 0.8189 0.85795 0.68192 0.0
C3585 C 0.81468 0.85846 0.61102 0.0
C3586 C 0.78117 0.83897 0.6405 0.0
C3587 C 0.81717 0.86342 0.59301 0.0
C3588 C 0.77815 0.81288 0.71455 0.0
C3589 C 0.77779 0.82129 0.69801 0.0
C3590 C 0.80828 0.85226 0.67048 0.0
C3591 C 0.7988 0.85952 0.61949 0.0
C3592 C 0.79617 0.85308 0.63825 0.0
C3593 C 0.79365 0.82791 0.68981 0.0
C3594 C 0.79378 0.83735 0.67246 0.0
H3595 H 0.77792 0.87658 0.58437 0.0
H3596 H 0.77328 0.86727 0.61594 0.0
H3597 H 0.82114 0.8709 0.65238 0.0
H3598 H 0.82269 0.81538 0.72071 0.0
H3599 H 0.82213 0.82951 0.69216 0.0
C3600 C 0.7596 0.46715 0.53428 0.0
C3601 C 0.77793 0.47416 0.53932 0.0
C3602 C 0.74765 0.4789 0.5393 0.0
C3603 C 0.74494 0.53026 0.55346 0.0
H3604 H 0.69744 0.50658 0.56412 0.0
C3605 C 0.68449 0.5667 0.57537 0.0
C3606 C 0.67206 0.56275 0.55911 0.0
C3607 C 0.69869 0.55728 0.57549 0.0
C3608 C 0.71073 0.51336 0.56138 0.0
H3609 H 0.79815 0.4989 0.55383 0.0
H3610 H 0.77715 0.51939 0.56315 0.0
H3611 H 0.72 0.48716 0.56049 0.0
H3612 H 0.66539 0.54639 0.52995 0.0
H3613 H 0.68974 0.52952 0.5306 0.0
H3614 H 0.73535 0.55649 0.55438 0.0
C3615 C 0.77205 0.5049 0.55494 0.0
C3616 C 0.72361 0.50226 0.55909 0.0
C3617 C 0.78408 0.49316 0.54969 0.0
C3618 C 0.67438 0.54944 0.54291 0.0
C3619 C 0.68838 0.5399 0.54315 0.0
C3620 C 0.73207 0.54143 0.556 0.0
C3621 C 0.75367 0.49791 0.54976 0.0
C3622 C 0.74074 0.51041 0.55456 0.0
C3623 C 0.70055 0.54369 0.55944 0.0
C3624 C 0.71482 0.5329 0.55956 0.0
H3625 H 0.75445 0.45264 0.52611 0.0
H3626 H 0.73368 0.47315 0.5346 0.0
H3627 H 0.75791 0.53698 0.5498 0.0
H3628 H 0.68304 0.57672 0.58814 0.0
H3629 H 0.708 0.56029 0.5882 0.0
C3630 C 0.22353 0.16835 0.50014 0.0
C3631 C 0.23874 0.1607 0.49693 0.0
C3632 C 0.20698 0.15612 0.50071 0.0
C3633 C 0.1799 0.10732 0.48449 0.0
H3634 H 0.15479 0.11894 0.52933 0.0
C3635 C 0.11296 0.05758 0.49609 0.0
C3636 C 0.10055 0.06615 0.50619 0.0
C3637 C 0.13 0.06844 0.49455 0.0
C3638 C 0.16136 0.11561 0.5165 0.0
H3639 H 0.24824 0.13401 0.49122 0.0
H3640 H 0.21906 0.11256 0.49168 0.0
H3641 H 0.18381 0.13902 0.52689 0.0
H3642 H 0.09624 0.0934 0.52172 0.0
H3643 H 0.12527 0.11239 0.51825 0.0
H3644 H 0.15724 0.08439 0.47365 0.0
C3645 C 0.22013 0.12811 0.49396 0.0
C3646 C 0.17812 0.12709 0.51521 0.0
C3647 C 0.23683 0.1404 0.49376 0.0
C3648 C 0.10544 0.08609 0.51409 0.0
C3649 C 0.1223 0.09703 0.51225 0.0
C3650 C 0.16294 0.09601 0.48558 0.0
C3651 C 0.2051 0.13589 0.49774 0.0
C3652 C 0.18754 0.12315 0.49917 0.0
C3653 C 0.13501 0.08835 0.50274 0.0
C3654 C 0.15333 0.10005 0.50157 0.0
H3655 H 0.22446 0.18388 0.50272 0.0
H3656 H 0.1956 0.16251 0.50351 0.0
H3657 H 0.18684 0.10403 0.4719 0.0
H3658 H 0.10968 0.0424 0.48962 0.0
H3659 H 0.13932 0.06106 0.48724 0.0
C3660 C 0.19127 0.94352 0.77143 0.0
C3661 C 0.19802 0.96092 0.7646 0.0
C3662 C 0.20103 0.92842 0.77161 0.0
C3663 C 0.24073 0.90873 0.75066 0.0
H3664 H 0.23567 0.87706 0.78995 0.0
C3665 C 0.27215 0.83805 0.74558 0.0
C3666 C 0.27837 0.83179 0.76215 0.0
C3667 C 0.26337 0.85392 0.74645 0.0
C3668 C 0.23749 0.88564 0.77876 0.0
H3669 H 0.22128 0.97485 0.75245 0.0
H3670 H 0.23769 0.94888 0.75219 0.0
H3671 H 0.21896 0.90278 0.79004 0.0
H3672 H 0.27891 0.83827 0.79311 0.0
H3673 H 0.26347 0.86545 0.79472 0.0
H3674 H 0.25903 0.89146 0.7392 0.0
C3675 C 0.22472 0.94676 0.7576 0.0
C3676 C 0.22757 0.90062 0.77871 0.0
C3677 C 0.21513 0.962 0.75777 0.0
C3678 C 0.2749 0.84241 0.77983 0.0
C3679 C 0.26571 0.85815 0.78072 0.0
C3680 C 0.25036 0.89352 0.75049 0.0
C3681 C 0.21812 0.92942 0.76464 0.0
C3682 C 0.22885 0.91281 0.76468 0.0
C3683 C 0.25956 0.86446 0.764 0.0
C3684 C 0.24916 0.88139 0.76455 0.0
H3685 H 0.17838 0.94162 0.77701 0.0
H3686 H 0.1949 0.91569 0.77711 0.0
H3687 H 0.24248 0.91717 0.73936 0.0
H3688 H 0.27399 0.83041 0.73155 0.0
H3689 H 0.25904 0.85751 0.73301 0.0
C3690 C 0.37728 0.93921 0.99326 0.0
C3691 C 0.36524 0.94928 1.00231 0.0
C3692 C 0.39497 0.94853 0.99281 0.0
C3693 C 0.42873 0.98884 0.02036 0.0
H3694 H 0.4568 0.97728 0.97794 0.0
C3695 C 0.50301 0.02398 0.02387 0.0
C3696 C 0.51437 0.01185 0.01719 0.0
C3697 C 0.48463 0.01762 0.02027 0.0
C3698 C 0.44913 0.98052 0.98993 0.0
H3699 H 0.3622 0.97739 0.01706 0.0
H3700 H 0.39313 0.99371 0.01612 0.0
H3701 H 0.4246 0.96462 0.97404 0.0
H3702 H 0.51548 0.98312 1.00255 0.0
H3703 H 0.48307 0.97169 0.9964 0.0
H3704 H 0.45321 1.0044 0.03639 0.0
C3705 C 0.38887 0.97849 0.00964 0.0
C3706 C 0.43071 0.97334 0.98769 0.0
C3707 C 0.37112 0.96916 0.01007 0.0
C3708 C 0.50696 0.99289 0.00744 0.0
C3709 C 0.48848 0.98644 0.00383 0.0
C3710 C 0.4471 0.99601 0.02259 0.0
C3711 C 0.40107 0.96815 1.00138 0.0
C3712 C 0.42034 0.97724 1.00297 0.0
C3713 C 0.47713 0.99876 0.01028 0.0
C3714 C 0.45753 0.99176 0.00748 0.0
H3715 H 0.37321 0.92391 0.98703 0.0
H3716 H 0.40404 0.94009 0.9865 0.0
H3717 H 0.42119 0.99182 0.03253 0.0
H3718 H 0.50818 0.03826 0.03223 0.0
H3719 H 0.47627 0.02748 0.02541 0.0
C3720 C 0.87047 0.56513 0.77105 0.0
C3721 C 0.88607 0.57554 0.78235 0.0
C3722 C 0.85767 0.57472 0.76533 0.0
C3723 C 0.84968 0.62391 0.76304 0.0
H3724 H 0.80025 0.59766 0.76255 0.0
C3725 C 0.79155 0.66238 0.76896 0.0
C3726 C 0.78146 0.65965 0.75119 0.0
C3727 C 0.80299 0.65024 0.77189 0.0
C3728 C 0.81401 0.605 0.76249 0.0
H3729 H 0.90082 0.60406 0.79633 0.0
H3730 H 0.8781 0.62088 0.78717 0.0
H3731 H 0.82383 0.58091 0.76914 0.0
H3732 H 0.77433 0.64115 0.72314 0.0
H3733 H 0.79411 0.61934 0.72864 0.0
H3734 H 0.83961 0.64837 0.75745 0.0
C3735 C 0.87591 0.60536 0.78213 0.0
C3736 C 0.82755 0.59545 0.76613 0.0
C3737 C 0.88892 0.59577 0.78748 0.0
C3738 C 0.78188 0.64351 0.73699 0.0
C3739 C 0.79323 0.63116 0.74005 0.0
C3740 C 0.83614 0.63354 0.75976 0.0
C3741 C 0.85999 0.5949 0.77119 0.0
C3742 C 0.84558 0.60482 0.76655 0.0
C3743 C 0.80427 0.63493 0.75727 0.0
C3744 C 0.81827 0.62416 0.75955 0.0
H3745 H 0.86809 0.5495 0.76672 0.0
H3746 H 0.84588 0.56622 0.75646 0.0
H3747 H 0.86333 0.63148 0.76287 0.0
H3748 H 0.79124 0.67451 0.78028 0.0
H3749 H 0.81132 0.6532 0.78533 0.0
C3750 C 0.83285 0.63799 0.02529 0.0
C3751 C 0.83677 0.65494 0.01743 0.0
C3752 C 0.84607 0.62787 0.02872 0.0
C3753 C 0.8955 0.63189 0.03256 0.0
H3754 H 0.88126 0.5758 0.02504 0.0
C3755 C 0.94543 0.58012 0.03263 0.0
C3756 C 0.94066 0.56437 0.0422 0.0
C3757 C 0.93359 0.59222 0.03008 0.0
C3758 C 0.88547 0.59147 0.02738 0.0
H3759 H 0.85782 0.67462 0.00716 0.0
H3760 H 0.88081 0.65673 0.01263 0.0
H3761 H 0.85923 0.59457 0.01948 0.0
H3762 H 0.91996 0.54995 0.05762 0.0
H3763 H 0.89941 0.57069 0.05291 0.0
H3764 H 0.92193 0.62851 0.04006 0.0
C3765 C 0.86758 0.65141 0.01655 0.0
C3766 C 0.87277 0.60231 0.02426 0.0
C3767 C 0.85435 0.66166 0.01332 0.0
C3768 C 0.92399 0.56155 0.04972 0.0
C3769 C 0.91217 0.57349 0.04705 0.0
C3770 C 0.90828 0.62097 0.0355 0.0
C3771 C 0.86362 0.63422 0.02415 0.0
C3772 C 0.87749 0.62273 0.02702 0.0
C3773 C 0.91665 0.5888 0.03694 0.0
C3774 C 0.90338 0.60062 0.03316 0.0
H3775 H 0.81949 0.63247 0.02879 0.0
H3776 H 0.84248 0.61504 0.03503 0.0
H3777 H 0.89972 0.64755 0.03505 0.0
H3778 H 0.95806 0.58271 0.0265 0.0
H3779 H 0.93747 0.60384 0.02217 0.0
C3780 C 0.189 0.0901 0.78459 0.0
C3781 C 0.19428 0.07241 0.77849 0.0
C3782 C 0.19992 0.10832 0.78381 0.0
C3783 C 0.2469 0.13497 0.7784 0.0
H3784 H 0.22256 0.17464 0.76751 0.0
C3785 C 0.28604 0.21341 0.76884 0.0
C3786 C 0.27815 0.22949 0.77389 0.0
C3787 C 0.27675 0.19409 0.76913 0.0
C3788 C 0.2298 0.16404 0.77092 0.0
H3789 H 0.21619 0.06099 0.76699 0.0
H3790 H 0.23535 0.09282 0.76567 0.0
H3791 H 0.20557 0.14242 0.76852 0.0
H3792 H 0.25383 0.237 0.78338 0.0
H3793 H 0.23808 0.20417 0.78421 0.0
H3794 H 0.27121 0.15681 0.78076 0.0
C3795 C 0.22251 0.09246 0.77118 0.0
C3796 C 0.21987 0.14521 0.77147 0.0
C3797 C 0.21143 0.074 0.77192 0.0
C3798 C 0.26059 0.2253 0.77925 0.0
C3799 C 0.25136 0.20613 0.77959 0.0
C3800 C 0.2569 0.15395 0.7779 0.0
C3801 C 0.21687 0.11008 0.77685 0.0
C3802 C 0.22808 0.13019 0.77545 0.0
C3803 C 0.25908 0.18992 0.7744 0.0
C3804 C 0.24858 0.16909 0.77436 0.0
H3805 H 0.17611 0.08998 0.78994 0.0
H3806 H 0.19495 0.12116 0.78886 0.0
H3807 H 0.25399 0.12416 0.7816 0.0
H3808 H 0.29923 0.21559 0.76409 0.0
H3809 H 0.28338 0.18236 0.76474 0.0
C3810 C 0.38499 0.9917 0.29974 0.0
C3811 C 0.40368 0.9952 0.3023 0.0
C3812 C 0.37465 0.97293 0.29822 0.0
C3813 C 0.37645 0.92386 0.30739 0.0
H3814 H 0.33755 0.90649 0.26703 0.0
C3815 C 0.34801 0.84348 0.27621 0.0
C3816 C 0.32946 0.83699 0.27355 0.0
C3817 C 0.35566 0.86324 0.28141 0.0
C3818 C 0.34819 0.91122 0.27855 0.0
H3819 H 0.42609 0.98164 0.30559 0.0
H3820 H 0.4081 0.94896 0.30265 0.0
H3821 H 0.35368 0.94036 0.27345 0.0
H3822 H 0.30435 0.84596 0.27237 0.0
H3823 H 0.31775 0.88075 0.28154 0.0
H3824 H 0.37125 0.89454 0.31206 0.0
C3825 C 0.40141 0.96077 0.3021 0.0
C3826 C 0.35743 0.93062 0.28226 0.0
C3827 C 0.41175 0.97952 0.30366 0.0
C3828 C 0.31867 0.85063 0.27503 0.0
C3829 C 0.32634 0.87048 0.28009 0.0
C3830 C 0.36726 0.90447 0.30362 0.0
C3831 C 0.38275 0.95722 0.29921 0.0
C3832 C 0.37189 0.93707 0.29647 0.0
C3833 C 0.34491 0.87694 0.28357 0.0
C3834 C 0.35329 0.89788 0.2889 0.0
H3835 H 0.37829 1.00342 0.29875 0.0
H3836 H 0.3603 0.97074 0.29625 0.0
H3837 H 0.38727 0.92845 0.31871 0.0
H3838 H 0.35659 0.8332 0.27477 0.0
H3839 H 0.37002 0.86782 0.28357 0.0
C3840 C 0.57988 0.38056 0.61604 0.0
C3841 C 0.58379 0.36401 0.60475 0.0
C3842 C 0.57747 0.39668 0.60799 0.0
C3843 C 0.5694 0.41217 0.5601 0.0
H3844 H 0.57999 0.46371 0.59146 0.0
C3845 C 0.57102 0.48229 0.52726 0.0
C3846 C 0.56503 0.49795 0.5376 0.0
C3847 C 0.57221 0.4658 0.53522 0.0
C3848 C 0.57672 0.44942 0.58245 0.0
H3849 H 0.58848 0.35199 0.57587 0.0
H3850 H 0.58489 0.38008 0.56198 0.0
H3851 H 0.58496 0.43622 0.60537 0.0
H3852 H 0.55624 0.50868 0.56497 0.0
H3853 H 0.55825 0.47996 0.57896 0.0
H3854 H 0.56151 0.42558 0.53708 0.0
C3855 C 0.58321 0.38056 0.57708 0.0
C3856 C 0.57957 0.43344 0.59051 0.0
C3857 C 0.58549 0.36435 0.58513 0.0
C3858 C 0.56044 0.4967 0.55636 0.0
C3859 C 0.56184 0.48025 0.56447 0.0
C3860 C 0.5667 0.42819 0.55201 0.0
C3861 C 0.57897 0.39707 0.58828 0.0
C3862 C 0.57599 0.41439 0.57954 0.0
C3863 C 0.5679 0.46451 0.55411 0.0
C3864 C 0.5703 0.44718 0.563 0.0
H3865 H 0.57828 0.38095 0.63115 0.0
H3866 H 0.57396 0.40868 0.6173 0.0
H3867 H 0.56602 0.39794 0.55102 0.0
H3868 H 0.57512 0.48295 0.51298 0.0
H3869 H 0.57717 0.45432 0.52674 0.0
C3870 C 0.4558 0.78048 0.40916 0.0
C3871 C 0.47013 0.77311 0.40171 0.0
C3872 C 0.44069 0.78071 0.3973 0.0
C3873 C 0.42339 0.77675 0.34573 0.0
H3874 H 0.37801 0.77165 0.36744 0.0
C3875 C 0.3564 0.77254 0.29995 0.0
C3876 C 0.34423 0.78289 0.3084 0.0
C3877 C 0.3716 0.77053 0.31072 0.0
C3878 C 0.39056 0.77331 0.36112 0.0
H3879 H 0.47938 0.76016 0.37538 0.0
H3880 H 0.45282 0.76013 0.35466 0.0
H3881 H 0.40423 0.76912 0.38662 0.0
H3882 H 0.33871 0.79877 0.33546 0.0
H3883 H 0.3649 0.79516 0.35412 0.0
H3884 H 0.40945 0.78065 0.32007 0.0
C3885 C 0.45342 0.76605 0.36983 0.0
C3886 C 0.40577 0.7719 0.37221 0.0
C3887 C 0.4687 0.76591 0.38178 0.0
C3888 C 0.34764 0.79073 0.32822 0.0
C3889 C 0.36274 0.78859 0.33903 0.0
C3890 C 0.40809 0.778 0.33455 0.0
C3891 C 0.43908 0.77344 0.37739 0.0
C3892 C 0.42258 0.77385 0.36488 0.0
C3893 C 0.37509 0.77856 0.33048 0.0
C3894 C 0.39142 0.77653 0.34212 0.0
H3895 H 0.45626 0.7864 0.42433 0.0
H3896 H 0.43037 0.78701 0.40386 0.0
H3897 H 0.43596 0.77857 0.33944 0.0
H3898 H 0.35424 0.76594 0.28497 0.0
H3899 H 0.38052 0.76242 0.30357 0.0
C3900 C 0.07499 0.74764 0.10733 0.0
C3901 C 0.07973 0.75991 0.09402 0.0
C3902 C 0.07258 0.72729 0.10192 0.0
C3903 C 0.08302 0.6892 0.06303 0.0
H3904 H 0.04816 0.65364 0.08451 0.0
C3905 C 0.05978 0.60703 0.02924 0.0
C3906 C 0.05645 0.59352 0.04154 0.0
C3907 C 0.06424 0.62709 0.03662 0.0
C3908 C 0.05813 0.66333 0.0785 0.0
H3909 H 0.08486 0.75991 0.06426 0.0
H3910 H 0.08018 0.72501 0.05485 0.0
H3911 H 0.05205 0.6886 0.09541 0.0
H3912 H 0.05422 0.59051 0.07116 0.0
H3913 H 0.06202 0.62551 0.08414 0.0
H3914 H 0.08881 0.66392 0.04583 0.0
C3915 C 0.0789 0.73092 0.06966 0.0
C3916 C 0.0604 0.6835 0.0848 0.0
C3917 C 0.08144 0.75112 0.07507 0.0
C3918 C 0.05737 0.60056 0.06139 0.0
C3919 C 0.06159 0.62064 0.06878 0.0
C3920 C 0.08066 0.66908 0.05664 0.0
C3921 C 0.07473 0.71857 0.083 0.0
C3922 C 0.07275 0.69685 0.07702 0.0
C3923 C 0.06486 0.63426 0.05649 0.0
C3924 C 0.06807 0.65578 0.06413 0.0
H3925 H 0.07364 0.75379 0.12207 0.0
H3926 H 0.06948 0.71846 0.11275 0.0
H3927 H 0.09305 0.69876 0.05696 0.0
H3928 H 0.05851 0.60204 0.01383 0.0
H3929 H 0.0664 0.637 0.02661 0.0
C3930 C 0.08349 0.27876 0.90381 0.0
C3931 C 0.06646 0.27068 0.89413 0.0
C3932 C 0.0988 0.2804 0.89379 0.0
C3933 C 0.11285 0.28262 0.84474 0.0
H3934 H 0.15764 0.2747 0.86585 0.0
C3935 C 0.17249 0.28432 0.79903 0.0
C3936 C 0.18971 0.29312 0.8078 0.0
C3937 C 0.15807 0.28048 0.81 0.0
C3938 C 0.14532 0.27719 0.85979 0.0
H3939 H 0.05237 0.25757 0.86622 0.0
H3940 H 0.07894 0.26028 0.8488 0.0
H3941 H 0.13149 0.26995 0.88393 0.0
H3942 H 0.20529 0.30415 0.83523 0.0
H3943 H 0.18002 0.2977 0.85453 0.0
H3944 H 0.12655 0.29017 0.8208 0.0
C3945 C 0.0805 0.2656 0.86415 0.0
C3946 C 0.13025 0.27443 0.87019 0.0
C3947 C 0.06522 0.26388 0.87419 0.0
C3948 C 0.19223 0.29728 0.828 0.0
C3949 C 0.17769 0.29357 0.83906 0.0
C3950 C 0.12787 0.28546 0.83442 0.0
C3951 C 0.09753 0.27411 0.87374 0.0
C3952 C 0.11374 0.27699 0.86277 0.0
C3953 C 0.16028 0.28546 0.83019 0.0
C3954 C 0.14436 0.28267 0.84166 0.0
H3955 H 0.085 0.28423 0.91915 0.0
H3956 H 0.11158 0.28718 0.90171 0.0
H3957 H 0.10056 0.28521 0.83868 0.0
H3958 H 0.17009 0.28058 0.78352 0.0
H3959 H 0.14509 0.27368 0.80253 0.0
C3960 C 0.59188 0.76654 0.92332 0.0
C3961 C 0.5808 0.77987 0.92641 0.0
C3962 C 0.59002 0.75103 0.93332 0.0
C3963 C 0.57412 0.73964 0.97871 0.0
H3964 H 0.57508 0.68622 0.9581 0.0
C3965 C 0.55289 0.67886 0.02135 0.0
C3966 C 0.56289 0.66451 0.02076 0.0
C3967 C 0.55593 0.69244 0.00925 0.0
C3968 C 0.57501 0.70115 0.96409 0.0
H3969 H 0.55813 0.78645 0.94086 0.0
H3970 H 0.55474 0.75946 0.95785 0.0
H3971 H 0.57861 0.71024 0.93696 0.0
H3972 H 0.58423 0.65343 0.00727 0.0
H3973 H 0.58955 0.67719 0.98616 0.0
H3974 H 0.5705 0.73078 0.00574 0.0
C3975 C 0.56521 0.76124 0.94831 0.0
C3976 C 0.57702 0.71485 0.95199 0.0
C3977 C 0.56712 0.77666 0.93851 0.0
C3978 C 0.57613 0.66416 0.0079 0.0
C3979 C 0.57916 0.67773 0.99577 0.0
C3980 C 0.57214 0.72603 0.99074 0.0
C3981 C 0.57702 0.74868 0.94642 0.0
C3982 C 0.57624 0.73416 0.95914 0.0
C3983 C 0.56908 0.69201 0.9963 0.0
C3984 C 0.57225 0.70656 0.98354 0.0
H3985 H 0.60252 0.76869 0.91404 0.0
H3986 H 0.59926 0.74149 0.93154 0.0
H3987 H 0.57392 0.75453 0.98475 0.0
H3988 H 0.5424 0.67933 0.03084 0.0
H3989 H 0.54773 0.70307 0.00979 0.0
C3990 C 0.08178 0.77147 0.66324 0.0
C3991 C 0.06551 0.77191 0.67112 0.0
C3992 C 0.09615 0.76817 0.67409 0.0
C3993 C 0.11346 0.7679 0.72386 0.0
H3994 H 0.14118 0.73369 0.69789 0.0
C3995 C 0.18002 0.75856 0.75777 0.0
C3996 C 0.18462 0.74041 0.75344 0.0
C3997 C 0.16452 0.76174 0.74902 0.0
C3998 C 0.13343 0.74306 0.70544 0.0
H3999 H 0.05184 0.76981 0.69688 0.0
H4000 H 0.07675 0.7638 0.71562 0.0
H4001 H 0.11654 0.74128 0.67999 0.0
H4002 H 0.17606 0.71106 0.73725 0.0
H4003 H 0.14864 0.71643 0.72235 0.0
H4004 H 0.13011 0.76931 0.74942 0.0
C4005 C 0.0785 0.76623 0.70113 0.0
C4006 C 0.11948 0.74768 0.69509 0.0
C4007 C 0.06417 0.76962 0.69032 0.0
C4008 C 0.17287 0.72519 0.74092 0.0
C4009 C 0.15728 0.72835 0.7322 0.0
C4010 C 0.12737 0.76321 0.73424 0.0
C4011 C 0.09456 0.76514 0.69305 0.0
C4012 C 0.1094 0.76027 0.70414 0.0
C4013 C 0.15314 0.7468 0.73581 0.0
C4014 C 0.13761 0.75083 0.72513 0.0
H4015 H 0.08335 0.77331 0.64854 0.0
H4016 H 0.10846 0.76783 0.66755 0.0
H4017 H 0.10605 0.77774 0.73126 0.0
H4018 H 0.18867 0.77051 0.76759 0.0
H4019 H 0.16186 0.77616 0.75206 0.0
C4020 C 0.10987 0.38562 0.3978 0.0
C4021 C 0.1079 0.37163 0.40964 0.0
C4022 C 0.10922 0.40483 0.40532 0.0
C4023 C 0.11147 0.4386 0.45193 0.0
H4024 H 0.08281 0.46455 0.42312 0.0
C4025 C 0.09338 0.50839 0.48856 0.0
C4026 C 0.07578 0.50997 0.48456 0.0
C4027 C 0.10042 0.49462 0.47695 0.0
C4028 C 0.09079 0.45747 0.4314 0.0
H4029 H 0.1039 0.36673 0.43859 0.0
H4030 H 0.1022 0.39967 0.45142 0.0
H4031 H 0.08945 0.43404 0.40782 0.0
H4032 H 0.05185 0.49882 0.46508 0.0
H4033 H 0.06371 0.47398 0.44544 0.0
H4034 H 0.11164 0.46088 0.47597 0.0
C4035 C 0.10472 0.39617 0.43651 0.0
C4036 C 0.09484 0.44012 0.42251 0.0
C4037 C 0.1055 0.37716 0.42908 0.0
C4038 C 0.06549 0.49793 0.46843 0.0
C4039 C 0.07239 0.4838 0.45707 0.0
C4040 C 0.10718 0.45568 0.4609 0.0
C4041 C 0.10655 0.41026 0.42477 0.0
C4042 C 0.10475 0.43019 0.4329 0.0
C4043 C 0.08985 0.48172 0.4614 0.0
C4044 C 0.09638 0.46509 0.45092 0.0
H4045 H 0.11178 0.38172 0.38275 0.0
H4046 H 0.11077 0.41538 0.39593 0.0
H4047 H 0.11951 0.43157 0.46022 0.0
H4048 H 0.1017 0.51768 0.50079 0.0
H4049 H 0.11406 0.49385 0.48047 0.0
C4050 C 0.46849 0.268 0.20671 0.0
C4051 C 0.46978 0.27408 0.18893 0.0
C4052 C 0.45266 0.26702 0.21566 0.0
C4053 C 0.41269 0.28719 0.21765 0.0
H4054 H 0.39043 0.24038 0.23521 0.0
C4055 C 0.34159 0.27747 0.2399 0.0
C4056 C 0.33762 0.26833 0.25558 0.0
C4057 C 0.35767 0.27732 0.23188 0.0
C4058 C 0.39657 0.25369 0.23067 0.0
H4059 H 0.45564 0.28411 0.1667 0.0
H4060 H 0.42829 0.28266 0.18241 0.0
H4061 H 0.41926 0.2425 0.22212 0.0
H4062 H 0.34646 0.25069 0.27437 0.0
H4063 H 0.3751 0.25117 0.26106 0.0
H4064 H 0.39033 0.29859 0.2262 0.0
C4065 C 0.43942 0.27862 0.18943 0.0
C4066 C 0.41308 0.25486 0.22315 0.0
C4067 C 0.45508 0.27936 0.1804 0.0
C4068 C 0.34953 0.25821 0.26254 0.0
C4069 C 0.36581 0.25832 0.25474 0.0
C4070 C 0.39632 0.28612 0.2253 0.0
C4071 C 0.43801 0.2724 0.2071 0.0
C4072 C 0.42118 0.27154 0.21636 0.0
C4073 C 0.37021 0.26814 0.23946 0.0
C4074 C 0.38791 0.26928 0.23174 0.0
H4075 H 0.4796 0.26379 0.21357 0.0
H4076 H 0.45192 0.26225 0.22934 0.0
H4077 H 0.41874 0.30033 0.21273 0.0
H4078 H 0.33227 0.28478 0.23385 0.0
H4079 H 0.36025 0.28447 0.21974 0.0
C4080 C 0.63458 0.51598 0.3227 0.0
C4081 C 0.65285 0.51541 0.32255 0.0
C4082 C 0.62597 0.51813 0.34005 0.0
C4083 C 0.63482 0.53169 0.39562 0.0
H4084 H 0.58411 0.51158 0.39432 0.0
C4085 C 0.59605 0.54702 0.46552 0.0
C4086 C 0.58021 0.53406 0.46831 0.0
C4087 C 0.60468 0.54469 0.44821 0.0
C4088 C 0.59832 0.5173 0.39531 0.0
H4089 H 0.67598 0.51686 0.34187 0.0
H4090 H 0.66132 0.5206 0.37167 0.0
H4091 H 0.59894 0.50764 0.36488 0.0
H4092 H 0.56165 0.50799 0.45376 0.0
H4093 H 0.57626 0.50403 0.424 0.0
H4094 H 0.63423 0.54115 0.42609 0.0
C4095 C 0.65343 0.51953 0.35829 0.0
C4096 C 0.60699 0.51519 0.37799 0.0
C4097 C 0.66201 0.51725 0.34089 0.0
C4098 C 0.57355 0.5186 0.45261 0.0
C4099 C 0.58211 0.51634 0.4352 0.0
C4100 C 0.62612 0.53392 0.41293 0.0
C4101 C 0.63507 0.51998 0.3585 0.0
C4102 C 0.62557 0.52229 0.3775 0.0
C4103 C 0.59803 0.52928 0.43239 0.0
C4104 C 0.60755 0.5268 0.41342 0.0
H4105 H 0.62674 0.51467 0.30922 0.0
H4106 H 0.61204 0.5186 0.33887 0.0
H4107 H 0.64897 0.5377 0.39657 0.0
H4108 H 0.60193 0.5592 0.47686 0.0
H4109 H 0.61659 0.55537 0.44723 0.0
C4110 C 0.33606 0.92028 0.07955 0.0
C4111 C 0.32056 0.92349 0.07065 0.0
C4112 C 0.33577 0.91438 0.09727 0.0
C4113 C 0.30506 0.88214 0.11853 0.0
H4114 H 0.34315 0.89205 0.15937 0.0
C4115 C 0.30885 0.82693 0.16766 0.0
C4116 C 0.32581 0.82357 0.17208 0.0
C4117 C 0.30696 0.84272 0.15928 0.0
C4118 C 0.33244 0.88905 0.14802 0.0
H4119 H 0.29299 0.92454 0.07349 0.0
H4120 H 0.2923 0.91366 0.10449 0.0
H4121 H 0.34212 0.91599 0.13879 0.0
H4122 H 0.35411 0.83428 0.17114 0.0
H4123 H 0.35079 0.86121 0.15547 0.0
H4124 H 0.29607 0.85467 0.12655 0.0
C4125 C 0.30472 0.91602 0.09793 0.0
C4126 C 0.33175 0.90286 0.13642 0.0
C4127 C 0.30513 0.92232 0.08032 0.0
C4128 C 0.34085 0.83631 0.16774 0.0
C4129 C 0.33895 0.85199 0.15909 0.0
C4130 C 0.30586 0.86826 0.12993 0.0
C4131 C 0.31984 0.91117 0.10609 0.0
C4132 C 0.31834 0.89925 0.12123 0.0
C4133 C 0.32197 0.85537 0.15475 0.0
C4134 C 0.31986 0.87128 0.14444 0.0
H4135 H 0.34804 0.92098 0.07217 0.0
H4136 H 0.34756 0.91056 0.10312 0.0
H4137 H 0.29476 0.87881 0.10669 0.0
H4138 H 0.29693 0.81725 0.1705 0.0
H4139 H 0.29369 0.84495 0.15631 0.0
C4140 C 0.94127 0.56839 0.86434 0.0
C4141 C 0.94729 0.56609 0.84595 0.0
C4142 C 0.95326 0.57088 0.88061 0.0
C4143 C 0.99418 0.55712 0.89417 0.0
H4144 H 0.9972 0.59491 0.94098 0.0
C4145 C 0.04089 0.55597 0.95947 0.0
C4146 C 0.03303 0.55747 0.97682 0.0
C4147 C 0.03282 0.56096 0.94344 0.0
C4148 C 0.99646 0.5842 0.92803 0.0
H4149 H 0.97063 0.56576 0.83019 0.0
H4150 H 0.99127 0.5699 0.85841 0.0
H4151 H 0.97719 0.59572 0.91332 0.0
H4152 H 0.01188 0.56717 0.99183 0.0
H4153 H 0.99734 0.57487 0.96393 0.0
H4154 H 0.01266 0.54493 0.9089 0.0
C4155 C 0.97737 0.56958 0.86029 0.0
C4156 C 0.985 0.5847 0.91225 0.0
C4157 C 0.96551 0.56723 0.84416 0.0
C4158 C 0.01779 0.56522 0.97835 0.0
C4159 C 0.00968 0.57003 0.96243 0.0
C4160 C 1.00542 0.55645 0.90997 0.0
C4161 C 0.97132 0.57098 0.8786 0.0
C4162 C 0.9837 0.57106 0.89526 0.0
C4163 C 0.0168 0.56748 0.94463 0.0
C4164 C 0.00655 0.56983 0.92719 0.0
H4165 H 0.9273 0.5676 0.8661 0.0
H4166 H 0.94831 0.57187 0.89466 0.0
H4167 H 0.99326 0.54631 0.88125 0.0
H4168 H 0.05269 0.5501 0.95801 0.0
H4169 H 0.03884 0.55917 0.93001 0.0
C4170 C 0.29612 0.19938 0.57378 0.0
C4171 C 0.29684 0.21267 0.5612 0.0
C4172 C 0.29592 0.2056 0.59366 0.0
C4173 C 0.2852 0.24612 0.62803 0.0
H4174 H 0.31131 0.22766 0.66659 0.0
C4175 C 0.30051 0.28637 0.70668 0.0
C4176 C 0.29983 0.27544 0.72133 0.0
C4177 C 0.29803 0.27719 0.68738 0.0
C4178 C 0.30371 0.23275 0.656 0.0
H4179 H 0.29904 0.24312 0.5599 0.0
H4180 H 0.29906 0.25386 0.59416 0.0
H4181 H 0.31192 0.21442 0.63256 0.0
H4182 H 0.29693 0.24644 0.72749 0.0
H4183 H 0.29247 0.23024 0.69366 0.0
H4184 H 0.27725 0.26468 0.65137 0.0
C4185 C 0.29806 0.23855 0.58878 0.0
C4186 C 0.30408 0.22516 0.63648 0.0
C4187 C 0.29819 0.23238 0.56906 0.0
C4188 C 0.29687 0.25512 0.71639 0.0
C4189 C 0.29456 0.2459 0.69706 0.0
C4190 C 0.28487 0.25371 0.64748 0.0
C4191 C 0.29648 0.22523 0.60134 0.0
C4192 C 0.29511 0.23203 0.62221 0.0
C4193 C 0.29534 0.25685 0.6823 0.0
C4194 C 0.29436 0.24739 0.66172 0.0
H4195 H 0.29502 0.18409 0.56823 0.0
H4196 H 0.29472 0.19493 0.60292 0.0
H4197 H 0.27774 0.25141 0.6175 0.0
H4198 H 0.3034 0.30208 0.71018 0.0
H4199 H 0.29902 0.28611 0.67644 0.0
C4200 C 0.65507 0.51525 0.20072 0.0
C4201 C 0.64414 0.50973 0.21514 0.0
C4202 C 0.64772 0.5174 0.18228 0.0
C4203 C 0.60239 0.50965 0.15062 0.0
H4204 H 0.63085 0.54138 0.11984 0.0
C4205 C 0.56999 0.52949 0.07929 0.0
C4206 C 0.5806 0.53234 0.0639 0.0
C4207 C 0.57744 0.52714 0.09758 0.0
C4208 C 0.62247 0.53227 0.12795 0.0
H4209 H 0.61635 0.50228 0.22019 0.0
H4210 H 0.60396 0.50584 0.18934 0.0
H4211 H 0.64414 0.53591 0.14979 0.0
H4212 H 0.60776 0.53473 0.05674 0.0
H4213 H 0.62041 0.53097 0.08767 0.0
H4214 H 0.58068 0.50622 0.12879 0.0
C4215 C 0.61828 0.50826 0.1916 0.0
C4216 C 0.63031 0.52902 0.14556 0.0
C4217 C 0.62556 0.50612 0.20978 0.0
C4218 C 0.59893 0.53288 0.06795 0.0
C4219 C 0.60634 0.53073 0.08608 0.0
C4220 C 0.59453 0.51302 0.1331 0.0
C4221 C 0.62899 0.51427 0.17718 0.0
C4222 C 0.62058 0.51757 0.1576 0.0
C4223 C 0.5959 0.52756 0.10153 0.0
C4224 C 0.60429 0.5244 0.12108 0.0
H4225 H 0.66938 0.51885 0.20394 0.0
H4226 H 0.65694 0.52184 0.17212 0.0
H4227 H 0.59394 0.5004 0.15852 0.0
H4228 H 0.55582 0.52861 0.07712 0.0
H4229 H 0.56856 0.52496 0.10867 0.0
C4230 C 0.29773 0.91673 0.95221 0.0
C4231 C 0.30177 0.91053 0.96934 0.0
C4232 C 0.29668 0.90426 0.93453 0.0
C4233 C 0.29147 0.85214 0.91337 0.0
H4234 H 0.31091 0.8719 0.86958 0.0
C4235 C 0.3136 0.81324 0.84089 0.0
C4236 C 0.29971 0.81036 0.82633 0.0
C4237 C 0.31292 0.8246 0.85877 0.0
C4238 C 0.30544 0.86632 0.88177 0.0
H4239 H 0.30807 0.8866 0.98143 0.0
H4240 H 0.30684 0.86525 0.95078 0.0
H4241 H 0.31165 0.89434 0.89994 0.0
H4242 H 0.27384 0.81623 0.81928 0.0
H4243 H 0.27274 0.83607 0.85066 0.0
H4244 H 0.28567 0.82405 0.8951 0.0
C4245 C 0.30399 0.87945 0.9509 0.0
C4246 C 0.30571 0.8791 0.89904 0.0
C4247 C 0.30484 0.89178 0.96849 0.0
C4248 C 0.28472 0.81816 0.83025 0.0
C4249 C 0.28409 0.82956 0.84809 0.0
C4250 C 0.29128 0.83939 0.89612 0.0
C4251 C 0.29978 0.88547 0.93371 0.0
C4252 C 0.29883 0.87212 0.91508 0.0
C4253 C 0.29833 0.83309 0.86225 0.0
C4254 C 0.29834 0.84644 0.88033 0.0
H4255 H 0.29523 0.9311 0.95248 0.0
H4256 H 0.29322 0.90925 0.92154 0.0
H4257 H 0.28579 0.84635 0.92535 0.0
H4258 H 0.32524 0.80727 0.83824 0.0
H4259 H 0.32398 0.8272 0.86968 0.0
C4260 C 0.94226 0.50938 0.73987 0.0
C4261 C 0.93565 0.52569 0.74722 0.0
C4262 C 0.94791 0.50719 0.7215 0.0
C4263 C 0.97024 0.53867 0.6921 0.0
H4264 H 0.97105 0.48997 0.65888 0.0
C4265 C 0.03065 0.52761 0.65161 0.0
C4266 C 0.02752 0.51755 0.63254 0.0
C4267 C 0.0165 0.52849 0.66294 0.0
C4268 C 0.97081 0.50374 0.66783 0.0
H4269 H 0.92832 0.55168 0.74087 0.0
H4270 H 0.93855 0.54803 0.70856 0.0
H4271 H 0.94841 0.49111 0.6815 0.0
H4272 H 0.00731 0.49987 0.6106 0.0
H4273 H 0.9826 0.50143 0.63039 0.0
H4274 H 0.99297 0.55119 0.67889 0.0
C4275 C 0.93925 0.53691 0.71701 0.0
C4276 C 0.95787 0.50438 0.68077 0.0
C4277 C 0.9333 0.53894 0.73537 0.0
C4278 C 0.01007 0.50785 0.62523 0.0
C4279 C 0.99595 0.50868 0.63656 0.0
C4280 C 0.9832 0.53803 0.6792 0.0
C4281 C 0.94731 0.52144 0.71027 0.0
C4282 C 0.95784 0.52169 0.69349 0.0
C4283 C 0.99898 0.51924 0.65543 0.0
C4284 C 0.98398 0.52042 0.6674 0.0
H4285 H 0.94416 0.49899 0.74882 0.0
H4286 H 0.95418 0.4952 0.71682 0.0
H4287 H 0.97067 0.55219 0.70184 0.0
H4288 H 0.04394 0.53534 0.65754 0.0
H4289 H 0.01927 0.53643 0.67758 0.0
C4290 C 0.29648 0.1842 0.43993 0.0
C4291 C 0.29655 0.19596 0.45795 0.0
C4292 C 0.29634 0.19202 0.42308 0.0
C4293 C 0.30717 0.23895 0.40599 0.0
H4294 H 0.27862 0.21004 0.35948 0.0
C4295 C 0.29925 0.27352 0.33862 0.0
C4296 C 0.29868 0.26175 0.32049 0.0
C4297 C 0.29875 0.26549 0.35533 0.0
C4298 C 0.28686 0.21826 0.37225 0.0
H4299 H 0.29624 0.22512 0.47233 0.0
H4300 H 0.29587 0.23865 0.44309 0.0
H4301 H 0.27816 0.19591 0.38842 0.0
H4302 H 0.29777 0.23238 0.30588 0.0
H4303 H 0.29698 0.21842 0.33486 0.0
H4304 H 0.31599 0.26123 0.38984 0.0
C4305 C 0.29617 0.22345 0.44191 0.0
C4306 C 0.28657 0.21012 0.3889 0.0
C4307 C 0.29625 0.21564 0.4587 0.0
C4308 C 0.29778 0.2418 0.31952 0.0
C4309 C 0.29734 0.23378 0.33621 0.0
C4310 C 0.3075 0.24706 0.38934 0.0
C4311 C 0.29633 0.2118 0.42386 0.0
C4312 C 0.2967 0.22037 0.40602 0.0
C4313 C 0.29778 0.24548 0.35438 0.0
C4314 C 0.29734 0.23685 0.37221 0.0
H4315 H 0.29675 0.169 0.43884 0.0
H4316 H 0.29663 0.18263 0.40947 0.0
H4317 H 0.31538 0.24716 0.41878 0.0
H4318 H 0.29988 0.28893 0.33989 0.0
H4319 H 0.29888 0.27495 0.36899 0.0
C4320 C 0.32978 0.60023 0.51776 0.0
C4321 C 0.33455 0.61991 0.51626 0.0
C4322 C 0.3425 0.58877 0.51652 0.0
C4323 C 0.38485 0.587 0.49563 0.0
H4324 H 0.38765 0.54729 0.52587 0.0
C4325 C 0.4429 0.54789 0.49353 0.0
C4326 C 0.43921 0.52793 0.494 0.0
C4327 C 0.4297 0.55853 0.49629 0.0
C4328 C 0.38687 0.55816 0.51714 0.0
H4329 H 0.35659 0.64331 0.5136 0.0
H4330 H 0.37874 0.62347 0.51176 0.0
H4331 H 0.36571 0.56732 0.53199 0.0
H4332 H 0.41865 0.50345 0.49751 0.0
H4333 H 0.39542 0.52201 0.50199 0.0
H4334 H 0.40586 0.57789 0.48072 0.0
C4335 C 0.36513 0.61675 0.51342 0.0
C4336 C 0.37435 0.56966 0.52069 0.0
C4337 C 0.35245 0.62815 0.51463 0.0
C4338 C 0.42188 0.51877 0.49694 0.0
C4339 C 0.40864 0.52945 0.49974 0.0
C4340 C 0.3973 0.57552 0.49207 0.0
C4341 C 0.36021 0.5968 0.51376 0.0
C4342 C 0.37332 0.58434 0.51009 0.0
C4343 C 0.41244 0.54948 0.49955 0.0
C4344 C 0.39859 0.56106 0.50287 0.0
H4345 H 0.31608 0.59346 0.51898 0.0
H4346 H 0.33828 0.57344 0.51679 0.0
H4347 H 0.38412 0.59787 0.48688 0.0
H4348 H 0.45605 0.55534 0.49107 0.0
H4349 H 0.43315 0.57396 0.49624 0.0
C4350 C 0.86526 0.93175 0.54229 0.0
C4351 C 0.86106 0.91339 0.53019 0.0
C4352 C 0.88236 0.94373 0.54355 0.0
C4353 C 0.92881 0.94131 0.53214 0.0
H4354 H 0.93629 0.99727 0.53804 0.0
C4355 C 0.99329 0.98887 0.51438 0.0
C4356 C 1.00141 1.00566 0.52783 0.0
C4357 C 0.97638 0.97827 0.51649 0.0
C4358 C 0.9344 0.98166 0.53659 0.0
H4359 H 0.87143 0.89369 0.50934 0.0
H4360 H 0.90066 0.91457 0.51101 0.0
H4361 H 0.90619 0.97774 0.53793 0.0
H4362 H 0.99811 0.02395 0.55446 0.0
H4363 H 0.96814 1.00578 0.55769 0.0
H4364 H 0.95689 0.94519 0.53008 0.0
C4365 C 0.89112 0.91957 0.52014 0.0
C4366 C 0.91715 0.97044 0.53657 0.0
C4367 C 0.87421 0.90757 0.51906 0.0
C4368 C 0.99215 0.01142 0.54358 0.0
C4369 C 0.975 1.00097 0.54548 0.0
C4370 C 0.94593 0.95246 0.53189 0.0
C4371 C 0.89561 0.93771 0.5326 0.0
C4372 C 0.91406 0.95003 0.53401 0.0
C4373 C 0.96697 0.98423 0.53197 0.0
C4374 C 0.94891 0.97273 0.53384 0.0
H4375 H 0.85547 0.93669 0.55108 0.0
H4376 H 0.88527 0.95753 0.5534 0.0
H4377 H 0.92718 0.92574 0.53074 0.0
H4378 H 0.99997 0.98383 0.50212 0.0
H4379 H 0.97052 0.96549 0.50578 0.0
C4380 C 0.91336 0.13795 0.28056 0.0
C4381 C 0.90524 0.11813 0.27329 0.0
C4382 C 0.90403 0.15343 0.28047 0.0
C4383 C 0.86005 0.1655 0.26012 0.0
H4384 H 0.87643 0.21451 0.29513 0.0
C4385 C 0.82604 0.23328 0.25462 0.0
C4386 C 0.82721 0.2489 0.27026 0.0
C4387 C 0.83468 0.21745 0.25547 0.0
C4388 C 0.8713 0.20101 0.28517 0.0
H4389 H 0.87994 0.10022 0.26015 0.0
H4390 H 0.86404 0.12641 0.25994 0.0
H4391 H 0.89226 0.18838 0.29566 0.0
H4392 H 0.84018 0.25961 0.29898 0.0
H4393 H 0.8547 0.2324 0.30077 0.0
H4394 H 0.83901 0.178 0.24976 0.0
C4395 C 0.87785 0.13037 0.26569 0.0
C4396 C 0.88076 0.18567 0.28534 0.0
C4397 C 0.88714 0.11493 0.26588 0.0
C4398 C 0.83801 0.24782 0.28674 0.0
C4399 C 0.84679 0.23202 0.28759 0.0
C4400 C 0.85066 0.18086 0.25988 0.0
C4401 C 0.88587 0.15028 0.273 0.0
C4402 C 0.87553 0.16725 0.27283 0.0
C4403 C 0.84563 0.21627 0.2719 0.0
C4404 C 0.85588 0.19928 0.27239 0.0
H4405 H 0.92713 0.14164 0.28649 0.0
H4406 H 0.91136 0.16807 0.28618 0.0
H4407 H 0.85509 0.15214 0.24992 0.0
H4408 H 0.81865 0.23349 0.24126 0.0
H4409 H 0.83318 0.2064 0.24269 0.0
C4410 C 0.73855 0.1268 0.01813 0.0
C4411 C 0.74114 0.1394 0.00487 0.0
C4412 C 0.72138 0.11859 0.02211 0.0
C4413 C 0.68331 0.09651 0.0227 0.0
H4414 H 0.6484 0.12835 0.02184 0.0
C4415 C 0.60817 0.06618 0.02394 0.0
C4416 C 0.59759 0.07855 0.03221 0.0
C4417 C 0.62633 0.07317 0.02304 0.0
C4418 C 0.65802 0.11935 0.02251 0.0
H4419 H 0.72773 0.15235 0.98454 0.0
H4420 H 0.69783 0.13744 0.99082 0.0
H4421 H 0.67851 0.14093 0.0149 0.0
H4422 H 0.59767 0.10778 0.04635 0.0
H4423 H 0.62957 0.12 0.04541 0.0
H4424 H 0.66287 0.07519 0.031 0.0
C4425 C 0.70903 0.13446 0.99876 0.0
C4426 C 0.67527 0.12644 0.01811 0.0
C4427 C 0.72618 0.14288 0.995 0.0
C4428 C 0.60559 0.09794 0.04001 0.0
C4429 C 0.62382 0.10493 0.03931 0.0
C4430 C 0.66607 0.0895 0.02733 0.0
C4431 C 0.70638 0.1226 0.01272 0.0
C4432 C 0.68811 0.11503 0.01787 0.0
C4433 C 0.63433 0.09276 0.03032 0.0
C4434 C 0.65313 0.10074 0.02707 0.0
H4435 H 0.74981 0.12392 0.02608 0.0
H4436 H 0.71992 0.1097 0.03306 0.0
H4437 H 0.69277 0.08725 0.02257 0.0
H4438 H 0.60238 0.05135 0.01727 0.0
H4439 H 0.63384 0.06341 0.01572 0.0
C4440 C 0.23069 0.49024 0.23947 0.0
C4441 C 0.21242 0.48694 0.24185 0.0
C4442 C 0.24001 0.47558 0.24049 0.0
C4443 C 0.23452 0.42331 0.24513 0.0
H4444 H 0.27737 0.44347 0.27996 0.0
C4445 C 0.26095 0.38038 0.29772 0.0
C4446 C 0.27942 0.38216 0.30059 0.0
C4447 C 0.25397 0.39142 0.28603 0.0
C4448 C 0.26562 0.43757 0.26995 0.0
H4449 H 0.18927 0.46521 0.2453 0.0
H4450 H 0.20546 0.43997 0.24758 0.0
H4451 H 0.26312 0.46577 0.26599 0.0
H4452 H 0.30505 0.39656 0.29326 0.0
H4453 H 0.29284 0.41598 0.27295 0.0
H4454 H 0.23661 0.39514 0.25014 0.0
C4455 C 0.21269 0.45368 0.24473 0.0
C4456 C 0.25746 0.45036 0.26182 0.0
C4457 C 0.20337 0.46825 0.24354 0.0
C4458 C 0.29075 0.3949 0.29128 0.0
C4459 C 0.28378 0.40605 0.27972 0.0
C4460 C 0.24261 0.41052 0.25344 0.0
C4461 C 0.23125 0.45742 0.24406 0.0
C4462 C 0.24152 0.44346 0.24972 0.0
C4463 C 0.26533 0.40454 0.27711 0.0
C4464 C 0.25799 0.4176 0.26631 0.0
H4465 H 0.23799 0.50444 0.23793 0.0
H4466 H 0.25422 0.4788 0.23942 0.0
H4467 H 0.22246 0.41745 0.23558 0.0
H4468 H 0.25191 0.37046 0.30452 0.0
H4469 H 0.2397 0.3901 0.28443 0.0
C4470 C 0.24993 0.41478 0.03357 0.0
C4471 C 0.26735 0.42491 0.04057 0.0
C4472 C 0.23592 0.42449 0.03341 0.0
C4473 C 0.22269 0.47053 0.05358 0.0
H4474 H 0.1895 0.45717 0.00779 0.0
C4475 C 0.17659 0.52045 0.03524 0.0
C4476 C 0.15946 0.51211 0.02597 0.0
C4477 C 0.18858 0.50889 0.03863 0.0
C4478 C 0.19844 0.46091 0.02083 0.0
H4479 H 0.28354 0.4532 0.05336 0.0
H4480 H 0.25915 0.47017 0.05303 0.0
H4481 H 0.21259 0.43894 0.01082 0.0
H4482 H 0.14138 0.48486 0.0135 0.0
H4483 H 0.16225 0.46456 0.01961 0.0
H4484 H 0.20867 0.49267 0.06347 0.0
C4485 C 0.25625 0.45464 0.0478 0.0
C4486 C 0.21174 0.45043 0.02257 0.0
C4487 C 0.27029 0.44492 0.04795 0.0
C4488 C 0.15443 0.49177 0.02073 0.0
C4489 C 0.16649 0.48015 0.02405 0.0
C4490 C 0.20938 0.481 0.05184 0.0
C4491 C 0.23891 0.44462 0.04026 0.0
C4492 C 0.22418 0.45521 0.03889 0.0
C4493 C 0.18382 0.48858 0.03285 0.0
C4494 C 0.19718 0.47649 0.03534 0.0
H4495 H 0.24715 0.39935 0.02781 0.0
H4496 H 0.22272 0.4162 0.02779 0.0
H4497 H 0.23179 0.47443 0.0665 0.0
H4498 H 0.18086 0.53605 0.03971 0.0
H4499 H 0.2018 0.51598 0.04526 0.0
C4500 C 0.91799 0.99297 0.28008 0.0
C4501 C 0.91147 0.00794 0.27332 0.0
C4502 C 0.90736 0.97416 0.27899 0.0
C4503 C 0.85975 0.94353 0.26974 0.0
H4504 H 0.88438 0.90126 0.26579 0.0
C4505 C 0.82148 0.86042 0.25897 0.0
C4506 C 0.82941 0.84749 0.2677 0.0
C4507 C 0.8306 0.8799 0.25916 0.0
C4508 C 0.8771 0.91275 0.26715 0.0
H4509 H 0.88768 0.01392 0.26022 0.0
H4510 H 0.86913 0.98103 0.25803 0.0
H4511 H 0.90098 0.93409 0.26672 0.0
H4512 H 0.85388 0.84585 0.28326 0.0
H4513 H 0.86949 0.87905 0.28354 0.0
H4514 H 0.83575 0.92178 0.26979 0.0
C4515 C 0.88271 0.98401 0.26444 0.0
C4516 C 0.88679 0.93196 0.26774 0.0
C4517 C 0.89345 1.00309 0.26564 0.0
C4518 C 0.84701 0.85495 0.27635 0.0
C4519 C 0.85615 0.87428 0.27641 0.0
C4520 C 0.84999 0.92417 0.26902 0.0
C4521 C 0.8895 0.96894 0.2709 0.0
C4522 C 0.87849 0.948 0.26933 0.0
C4523 C 0.84823 0.88734 0.26785 0.0
C4524 C 0.85846 0.90828 0.26794 0.0
H4525 H 0.93158 0.99572 0.2864 0.0
H4526 H 0.91335 0.96372 0.28481 0.0
H4527 H 0.85253 0.95506 0.27106 0.0
H4528 H 0.80819 0.85548 0.25178 0.0
H4529 H 0.82385 0.88903 0.25212 0.0
C4530 C 0.71032 0.09489 0.76139 0.0
C4531 C 0.69164 0.09184 0.75966 0.0
C4532 C 0.72086 0.1136 0.76379 0.0
C4533 C 0.7214 0.16238 0.75538 0.0
H4534 H 0.75873 0.17859 0.79747 0.0
C4535 C 0.76001 0.24149 0.77534 0.0
C4536 C 0.77827 0.24491 0.78087 0.0
C4537 C 0.7494 0.22288 0.77338 0.0
C4538 C 0.74853 0.17426 0.78551 0.0
H4539 H 0.66942 0.10602 0.75859 0.0
H4540 H 0.68798 0.13879 0.76242 0.0
H4541 H 0.74026 0.14583 0.79202 0.0
H4542 H 0.79974 0.23232 0.78994 0.0
H4543 H 0.78145 0.19935 0.78546 0.0
H4544 H 0.72987 0.1905 0.74845 0.0
C4545 C 0.69435 0.12661 0.76202 0.0
C4546 C 0.73793 0.15551 0.78244 0.0
C4547 C 0.68375 0.10789 0.75989 0.0
C4548 C 0.78571 0.22973 0.78518 0.0
C4549 C 0.77518 0.21098 0.78284 0.0
C4550 C 0.73213 0.18105 0.75829 0.0
C4551 C 0.71298 0.12962 0.76426 0.0
C4552 C 0.72423 0.14945 0.7674 0.0
C4553 C 0.75691 0.20729 0.77672 0.0
C4554 C 0.74573 0.18729 0.7735 0.0
H4555 H 0.71685 0.08288 0.76136 0.0
H4556 H 0.73521 0.11554 0.76529 0.0
H4557 H 0.71107 0.15793 0.74353 0.0
H4558 H 0.75395 0.25322 0.77255 0.0
H4559 H 0.73531 0.22074 0.76926 0.0
loop_
_geom_bond_atom_site_label_1
_geom_bond_atom_site_label_2
_geom_bond_distance
_geom_bond_site_symmetry_2
_ccdc_geom_bond_type
Co0 O1 2.216 . S
Co0 O2 2.091 . S
Co0 O4 2.004 . S
Co0 O10 2.021 . S
Co0 O12 2.137 . S
Co0 O13 2.244 . S
O1 Co0 2.216 . S
O1 C8 1.247 . S
O2 Co0 2.091 . S
O2 C8 1.261 . S
C3 O12 1.247 . S
C3 O13 1.272 . S
O4 Co0 2.004 . S
O4 C9 1.259 . S
Co5 O6 2.061 . S
Co5 O11 2.052 . S
Co5 O13 2.135 . S
O6 Co5 2.061 . S
O6 C9 1.235 . S
C7 O10 1.238 . S
C7 O11 1.241 . S
C8 O1 1.247 . S
C8 O2 1.261 . S
C9 O4 1.259 . S
C9 O6 1.235 . S
O10 Co0 2.021 . S
O10 C7 1.238 . S
O11 Co5 2.052 . S
O11 C7 1.241 . S
O12 Co0 2.137 . S
O12 C3 1.247 . S
O13 Co0 2.244 . S
O13 C3 1.272 . S
O13 Co5 2.135 . S
Co14 O15 2.216 . S
Co14 O16 2.091 . S
Co14 O18 2.004 1_655 S
Co14 O24 2.021 . S
Co14 O26 2.137 . S
Co14 O27 2.244 1_655 S
O15 Co14 2.216 . S
O15 C22 1.247 . S
O16 Co14 2.091 . S
O16 C22 1.261 . S
C17 O26 1.247 1_455 S
C17 O27 1.272 . S
O18 Co14 2.004 1_455 S
O18 C23 1.259 . S
Co19 O20 2.061 . S
Co19 O25 2.052 . S
Co19 O27 2.135 . S
O20 Co19 2.061 . S
O20 C23 1.235 . S
C21 O24 1.261 . S
C21 O25 1.214 1_655 S
C22 O15 1.247 . S
C22 O16 1.261 . S
C23 O18 1.259 . S
C23 O20 1.235 . S
O24 Co14 2.021 . S
O24 C21 1.261 . S
O25 Co19 2.052 . S
O25 C21 1.214 1_455 S
O26 Co14 2.137 . S
O26 C17 1.247 1_655 S
O27 Co14 2.244 1_455 S
O27 C17 1.272 . S
O27 Co19 2.135 . S
Co28 O29 2.216 . S
Co28 O30 2.091 . S
Co28 O32 2.004 . S
Co28 O38 2.021 . S
Co28 O40 2.137 . S
Co28 O41 2.244 . S
O29 Co28 2.216 . S
O29 C36 1.247 . S
O30 Co28 2.091 . S
O30 C36 1.261 . S
C31 O40 1.247 . S
C31 O41 1.272 . S
O32 Co28 2.004 . S
O32 C37 1.259 . S
Co33 O34 2.061 . S
Co33 O39 2.052 . S
Co33 O41 2.135 . S
O34 Co33 2.061 . S
O34 C37 1.235 . S
C35 O38 1.238 . S
C35 O39 1.241 . S
C36 O29 1.247 . S
C36 O30 1.261 . S
C37 O32 1.259 . S
C37 O34 1.235 . S
O38 Co28 2.021 . S
O38 C35 1.238 . S
O39 Co33 2.052 . S
O39 C35 1.241 . S
O40 Co28 2.137 . S
O40 C31 1.247 . S
O41 Co28 2.244 . S
O41 C31 1.272 . S
O41 Co33 2.135 . S
Co42 O43 2.216 . S
Co42 O44 2.091 . S
Co42 O46 2.004 . S
Co42 O52 2.021 . S
Co42 O54 2.137 . S
Co42 O55 2.244 . S
O43 Co42 2.216 . S
O43 C50 1.247 . S
O44 Co42 2.091 . S
O44 C50 1.261 . S
C45 O54 1.247 . S
C45 O55 1.272 . S
O46 Co42 2.004 . S
O46 C51 1.259 . S
Co47 O48 2.061 . S
Co47 O53 2.052 . S
Co47 O55 2.135 . S
O48 Co47 2.061 . S
O48 C51 1.235 . S
C49 O52 1.238 . S
C49 O53 1.241 . S
C50 O43 1.247 . S
C50 O44 1.261 . S
C51 O46 1.259 . S
C51 O48 1.235 . S
O52 Co42 2.021 . S
O52 C49 1.238 . S
O53 Co47 2.052 . S
O53 C49 1.241 . S
O54 Co42 2.137 . S
O54 C45 1.247 . S
O55 Co42 2.244 . S
O55 C45 1.272 . S
O55 Co47 2.135 . S
Co56 O57 2.216 . S
Co56 O58 2.091 . S
Co56 O60 2.004 . S
Co56 O66 2.021 . S
Co56 O68 2.137 . S
Co56 O69 2.244 . S
O57 Co56 2.216 . S
O57 C64 1.247 . S
O58 Co56 2.091 . S
O58 C64 1.261 . S
C59 O68 1.247 . S
C59 O69 1.272 . S
O60 Co56 2.004 . S
O60 C65 1.259 . S
Co61 O62 2.061 . S
Co61 O67 2.052 . S
Co61 O69 2.135 . S
O62 Co61 2.061 . S
O62 C65 1.235 . S
C63 O66 1.238 . S
C63 O67 1.241 . S
C64 O57 1.247 . S
C64 O58 1.261 . S
C65 O60 1.259 . S
C65 O62 1.235 . S
O66 Co56 2.021 . S
O66 C63 1.238 . S
O67 Co61 2.052 . S
O67 C63 1.241 . S
O68 Co56 2.137 . S
O68 C59 1.247 . S
O69 Co56 2.244 . S
O69 C59 1.272 . S
O69 Co61 2.135 . S
Co70 O71 2.216 . S
Co70 O72 2.091 . S
Co70 O74 2.004 . S
Co70 O80 2.021 . S
Co70 O82 2.137 . S
Co70 O83 2.244 . S
O71 Co70 2.216 . S
O71 C78 1.247 . S
O72 Co70 2.091 . S
O72 C78 1.261 . S
C73 O82 1.247 . S
C73 O83 1.272 . S
O74 Co70 2.004 . S
O74 C79 1.259 . S
Co75 O76 2.061 . S
Co75 O81 2.052 . S
Co75 O83 2.135 . S
O76 Co75 2.061 . S
O76 C79 1.235 . S
C77 O80 1.238 . S
C77 O81 1.241 . S
C78 O71 1.247 . S
C78 O72 1.261 . S
C79 O74 1.259 . S
C79 O76 1.235 . S
O80 Co70 2.021 . S
O80 C77 1.238 . S
O81 Co75 2.052 . S
O81 C77 1.241 . S
O82 Co70 2.137 . S
O82 C73 1.247 . S
O83 Co70 2.244 . S
O83 C73 1.272 . S
O83 Co75 2.135 . S
Co84 O85 2.216 . S
Co84 O86 2.091 . S
Co84 O88 2.004 . S
Co84 O94 2.021 . S
Co84 O96 2.137 . S
Co84 O97 2.244 . S
O85 Co84 2.216 . S
O85 C92 1.247 . S
O86 Co84 2.091 . S
O86 C92 1.261 . S
C87 O96 1.247 . S
C87 O97 1.272 . S
O88 Co84 2.004 . S
O88 C93 1.259 . S
Co89 O90 2.061 . S
Co89 O95 2.052 . S
Co89 O97 2.135 . S
O90 Co89 2.061 . S
O90 C93 1.235 . S
C91 O94 1.238 . S
C91 O95 1.241 . S
C92 O85 1.247 . S
C92 O86 1.261 . S
C93 O88 1.259 . S
C93 O90 1.235 . S
O94 Co84 2.021 . S
O94 C91 1.238 . S
O95 Co89 2.052 . S
O95 C91 1.241 . S
O96 Co84 2.137 . S
O96 C87 1.247 . S
O97 Co84 2.244 . S
O97 C87 1.272 . S
O97 Co89 2.135 . S
Co98 O99 2.216 . S
Co98 O100 2.091 . S
Co98 O102 2.004 1_455 S
Co98 O108 2.021 . S
Co98 O110 2.137 . S
Co98 O111 2.244 . S
O99 Co98 2.216 . S
O99 C106 1.247 . S
O100 Co98 2.091 . S
O100 C106 1.261 . S
C101 O110 1.247 . S
C101 O111 1.272 . S
O102 Co98 2.004 1_655 S
O102 C107 1.259 . S
Co103 O104 2.061 . S
Co103 O109 2.052 1_655 S
Co103 O111 2.135 1_655 S
O104 Co103 2.061 . S
O104 C107 1.235 . S
C105 O108 1.238 . S
C105 O109 1.241 . S
C106 O99 1.247 . S
C106 O100 1.261 . S
C107 O102 1.259 . S
C107 O104 1.235 . S
O108 Co98 2.021 . S
O108 C105 1.238 . S
O109 Co103 2.052 1_455 S
O109 C105 1.241 . S
O110 Co98 2.137 . S
O110 C101 1.247 . S
O111 Co98 2.244 . S
O111 C101 1.272 . S
O111 Co103 2.135 1_455 S
Co112 O113 2.216 . S
Co112 O114 2.091 . S
Co112 O116 2.004 . S
Co112 O122 2.021 . S
Co112 O124 2.137 . S
Co112 O125 2.244 . S
O113 Co112 2.216 . S
O113 C120 1.247 . S
O114 Co112 2.091 . S
O114 C120 1.261 . S
C115 O124 1.247 . S
C115 O125 1.272 . S
O116 Co112 2.004 . S
O116 C121 1.259 1_545 S
Co117 O118 2.061 1_545 S
Co117 O123 2.052 . S
Co117 O125 2.135 . S
O118 Co117 2.061 1_565 S
O118 C121 1.235 . S
C119 O122 1.238 . S
C119 O123 1.241 . S
C120 O113 1.247 . S
C120 O114 1.261 . S
C121 O116 1.259 1_565 S
C121 O118 1.235 . S
O122 Co112 2.021 . S
O122 C119 1.238 . S
O123 Co117 2.052 . S
O123 C119 1.241 . S
O124 Co112 2.137 . S
O124 C115 1.247 . S
O125 Co112 2.244 . S
O125 C115 1.272 . S
O125 Co117 2.135 . S
Co126 O127 2.216 . S
Co126 O128 2.091 . S
Co126 O130 2.004 . S
Co126 O136 2.021 . S
Co126 O138 2.137 . S
Co126 O139 2.244 . S
O127 Co126 2.216 . S
O127 C134 1.247 . S
O128 Co126 2.091 . S
O128 C134 1.261 . S
C129 O138 1.247 . S
C129 O139 1.272 . S
O130 Co126 2.004 . S
O130 C135 1.259 . S
Co131 O132 2.061 . S
Co131 O137 2.052 . S
Co131 O139 2.135 . S
O132 Co131 2.061 . S
O132 C135 1.235 . S
C133 O136 1.238 . S
C133 O137 1.241 . S
C134 O127 1.247 . S
C134 O128 1.261 . S
C135 O130 1.259 . S
C135 O132 1.235 . S
O136 Co126 2.021 . S
O136 C133 1.238 . S
O137 Co131 2.052 . S
O137 C133 1.241 . S
O138 Co126 2.137 . S
O138 C129 1.247 . S
O139 Co126 2.244 . S
O139 C129 1.272 . S
O139 Co131 2.135 . S
Co140 O141 2.216 . S
Co140 O142 2.091 . S
Co140 O144 2.004 1_565 S
Co140 O150 2.021 . S
Co140 O152 2.137 . S
Co140 O153 2.244 1_565 S
O141 Co140 2.216 . S
O141 C148 1.247 . S
O142 Co140 2.091 . S
O142 C148 1.261 . S
C143 O152 1.247 1_545 S
C143 O153 1.272 . S
O144 Co140 2.004 1_545 S
O144 C149 1.259 . S
Co145 O146 2.061 . S
Co145 O151 2.052 . S
Co145 O153 2.135 . S
O146 Co145 2.061 . S
O146 C149 1.235 . S
C147 O150 1.238 . S
C147 O151 1.241 1_565 S
C148 O141 1.247 . S
C148 O142 1.261 . S
C149 O144 1.259 . S
C149 O146 1.235 . S
O150 Co140 2.021 . S
O150 C147 1.238 . S
O151 Co145 2.052 . S
O151 C147 1.241 1_545 S
O152 Co140 2.137 . S
O152 C143 1.247 1_565 S
O153 Co140 2.244 1_545 S
O153 C143 1.272 . S
O153 Co145 2.135 . S
Co154 O155 2.216 . S
Co154 O156 2.091 . S
Co154 O158 2.004 . S
Co154 O164 2.021 . S
Co154 O166 2.137 1_554 S
Co154 O167 2.244 1_554 S
O155 Co154 2.216 . S
O155 C162 1.247 . S
O156 Co154 2.091 . S
O156 C162 1.261 . S
C157 O166 1.247 . S
C157 O167 1.272 . S
O158 Co154 2.004 . S
O158 C163 1.259 . S
Co159 O160 2.061 . S
Co159 O165 2.052 . S
Co159 O167 2.135 1_554 S
O160 Co159 2.061 . S
O160 C163 1.235 . S
C161 O164 1.238 . S
C161 O165 1.241 . S
C162 O155 1.247 . S
C162 O156 1.261 . S
C163 O158 1.259 . S
C163 O160 1.235 . S
O164 Co154 2.021 . S
O164 C161 1.238 . S
O165 Co159 2.052 . S
O165 C161 1.241 . S
O166 Co154 2.137 1_556 S
O166 C157 1.247 . S
O167 Co154 2.244 1_556 S
O167 C157 1.272 . S
O167 Co159 2.135 1_556 S
Co168 O169 2.216 . S
Co168 O170 2.091 . S
Co168 O172 2.004 . S
Co168 O178 2.021 . S
Co168 O180 2.137 . S
Co168 O181 2.244 . S
O169 Co168 2.216 . S
O169 C176 1.247 . S
O170 Co168 2.091 . S
O170 C176 1.261 . S
C171 O180 1.247 . S
C171 O181 1.272 . S
O172 Co168 2.004 . S
O172 C177 1.259 . S
Co173 O174 2.061 . S
Co173 O179 2.052 . S
Co173 O181 2.135 . S
O174 Co173 2.061 . S
O174 C177 1.235 . S
C175 O178 1.238 . S
C175 O179 1.241 . S
C176 O169 1.247 . S
C176 O170 1.261 . S
C177 O172 1.259 . S
C177 O174 1.235 . S
O178 Co168 2.021 . S
O178 C175 1.238 . S
O179 Co173 2.052 . S
O179 C175 1.241 . S
O180 Co168 2.137 . S
O180 C171 1.247 . S
O181 Co168 2.244 . S
O181 C171 1.272 . S
O181 Co173 2.135 . S
Co182 O183 2.216 . S
Co182 O184 2.091 . S
Co182 O186 2.004 . S
Co182 O192 2.021 . S
Co182 O194 2.137 1_554 S
Co182 O195 2.244 . S
O183 Co182 2.216 . S
O183 C190 1.247 . S
O184 Co182 2.091 . S
O184 C190 1.261 . S
C185 O194 1.247 . S
C185 O195 1.272 1_556 S
O186 Co182 2.004 . S
O186 C191 1.259 . S
Co187 O188 2.061 . S
Co187 O193 2.052 . S
Co187 O195 2.135 . S
O188 Co187 2.061 . S
O188 C191 1.235 . S
C189 O192 1.238 . S
C189 O193 1.241 . S
C190 O183 1.247 . S
C190 O184 1.261 . S
C191 O186 1.259 . S
C191 O188 1.235 . S
O192 Co182 2.021 . S
O192 C189 1.238 . S
O193 Co187 2.052 . S
O193 C189 1.241 . S
O194 Co182 2.137 1_556 S
O194 C185 1.247 . S
O195 Co182 2.244 . S
O195 C185 1.272 1_554 S
O195 Co187 2.135 . S
Co196 O197 2.216 . S
Co196 O198 2.091 . S
Co196 O200 2.004 . S
Co196 O206 2.021 . S
Co196 O208 2.137 . S
Co196 O209 2.244 . S
O197 Co196 2.216 . S
O197 C204 1.247 . S
O198 Co196 2.091 . S
O198 C204 1.261 . S
C199 O208 1.247 . S
C199 O209 1.272 . S
O200 Co196 2.004 . S
O200 C205 1.259 . S
Co201 O202 2.061 . S
Co201 O207 2.052 . S
Co201 O209 2.135 . S
O202 Co201 2.061 . S
O202 C205 1.235 . S
C203 O206 1.238 . S
C203 O207 1.241 . S
C204 O197 1.247 . S
C204 O198 1.261 . S
C205 O200 1.259 . S
C205 O202 1.235 . S
O206 Co196 2.021 . S
O206 C203 1.238 . S
O207 Co201 2.052 . S
O207 C203 1.241 . S
O208 Co196 2.137 . S
O208 C199 1.247 . S
O209 Co196 2.244 . S
O209 C199 1.272 . S
O209 Co201 2.135 . S
Co210 O211 2.216 . S
Co210 O212 2.091 . S
Co210 O214 2.004 . S
Co210 O220 2.021 . S
Co210 O222 2.137 . S
Co210 O223 2.244 . S
O211 Co210 2.216 . S
O211 C218 1.247 . S
O212 Co210 2.091 . S
O212 C218 1.261 . S
C213 O222 1.247 . S
C213 O223 1.272 . S
O214 Co210 2.004 . S
O214 C219 1.259 . S
Co215 O216 2.061 . S
Co215 O221 2.052 . S
Co215 O223 2.135 . S
O216 Co215 2.061 . S
O216 C219 1.235 . S
C217 O220 1.238 . S
C217 O221 1.241 . S
C218 O211 1.247 . S
C218 O212 1.261 . S
C219 O214 1.259 . S
C219 O216 1.235 . S
O220 Co210 2.021 . S
O220 C217 1.238 . S
O221 Co215 2.052 . S
O221 C217 1.241 . S
O222 Co210 2.137 . S
O222 C213 1.247 . S
O223 Co210 2.244 . S
O223 C213 1.272 . S
O223 Co215 2.135 . S
Co224 O225 2.216 . S
Co224 O226 2.091 . S
Co224 O228 2.004 . S
Co224 O234 2.021 . S
Co224 O236 2.137 . S
Co224 O237 2.244 . S
O225 Co224 2.216 . S
O225 C232 1.247 . S
O226 Co224 2.091 . S
O226 C232 1.261 . S
C227 O236 1.247 . S
C227 O237 1.272 . S
O228 Co224 2.004 . S
O228 C233 1.259 . S
Co229 O230 2.061 . S
Co229 O235 2.052 . S
Co229 O237 2.135 . S
O230 Co229 2.061 . S
O230 C233 1.235 . S
C231 O234 1.238 . S
C231 O235 1.241 . S
C232 O225 1.247 . S
C232 O226 1.261 . S
C233 O228 1.259 . S
C233 O230 1.235 . S
O234 Co224 2.021 . S
O234 C231 1.238 . S
O235 Co229 2.052 . S
O235 C231 1.241 . S
O236 Co224 2.137 . S
O236 C227 1.247 . S
O237 Co224 2.244 . S
O237 C227 1.272 . S
O237 Co229 2.135 . S
Co238 O239 2.216 . S
Co238 O240 2.091 . S
Co238 O242 2.004 . S
Co238 O248 2.021 . S
Co238 O250 2.137 . S
Co238 O251 2.244 . S
O239 Co238 2.216 . S
O239 C246 1.247 . S
O240 Co238 2.091 . S
O240 C246 1.261 . S
C241 O250 1.247 . S
C241 O251 1.272 . S
O242 Co238 2.004 . S
O242 C247 1.259 . S
Co243 O244 2.061 . S
Co243 O249 2.052 . S
Co243 O251 2.135 . S
O244 Co243 2.061 . S
O244 C247 1.235 . S
C245 O248 1.238 . S
C245 O249 1.241 . S
C246 O239 1.247 . S
C246 O240 1.261 . S
C247 O242 1.259 . S
C247 O244 1.235 . S
O248 Co238 2.021 . S
O248 C245 1.238 . S
O249 Co243 2.052 . S
O249 C245 1.241 . S
O250 Co238 2.137 . S
O250 C241 1.247 . S
O251 Co238 2.244 . S
O251 C241 1.272 . S
O251 Co243 2.135 . S
Co252 O253 2.216 . S
Co252 O254 2.091 . S
Co252 O256 2.004 . S
Co252 O262 2.021 . S
Co252 O264 2.137 . S
Co252 O265 2.244 . S
O253 Co252 2.216 . S
O253 C260 1.247 . S
O254 Co252 2.091 . S
O254 C260 1.261 . S
C255 O264 1.247 . S
C255 O265 1.272 . S
O256 Co252 2.004 . S
O256 C261 1.259 . S
Co257 O258 2.061 . S
Co257 O263 2.052 . S
Co257 O265 2.135 . S
O258 Co257 2.061 . S
O258 C261 1.235 . S
C259 O262 1.238 . S
C259 O263 1.241 . S
C260 O253 1.247 . S
C260 O254 1.261 . S
C261 O256 1.259 . S
C261 O258 1.235 . S
O262 Co252 2.021 . S
O262 C259 1.238 . S
O263 Co257 2.052 . S
O263 C259 1.241 . S
O264 Co252 2.137 . S
O264 C255 1.247 . S
O265 Co252 2.244 . S
O265 C255 1.272 . S
O265 Co257 2.135 . S
Co266 O267 2.216 . S
Co266 O268 2.091 . S
Co266 O270 2.004 . S
Co266 O276 2.021 . S
Co266 O278 2.137 . S
Co266 O279 2.244 . S
O267 Co266 2.216 . S
O267 C274 1.247 . S
O268 Co266 2.091 . S
O268 C274 1.261 . S
C269 O278 1.247 . S
C269 O279 1.272 . S
O270 Co266 2.004 . S
O270 C275 1.259 . S
Co271 O272 2.061 . S
Co271 O277 2.052 . S
Co271 O279 2.135 . S
O272 Co271 2.061 . S
O272 C275 1.235 . S
C273 O276 1.238 . S
C273 O277 1.241 . S
C274 O267 1.247 . S
C274 O268 1.261 . S
C275 O270 1.259 . S
C275 O272 1.235 . S
O276 Co266 2.021 . S
O276 C273 1.238 . S
O277 Co271 2.052 . S
O277 C273 1.241 . S
O278 Co266 2.137 . S
O278 C269 1.247 . S
O279 Co266 2.244 . S
O279 C269 1.272 . S
O279 Co271 2.135 . S
Co280 O281 2.216 . S
Co280 O282 2.091 . S
Co280 O284 2.004 . S
Co280 O290 2.021 1_556 S
Co280 O292 2.137 . S
Co280 O293 2.244 . S
O281 Co280 2.216 . S
O281 C288 1.253 . S
O282 Co280 2.091 . S
O282 C288 1.258 . S
C283 O292 1.247 . S
C283 O293 1.272 . S
O284 Co280 2.004 . S
O284 C289 1.259 . S
Co285 O286 2.060 . S
Co285 O291 2.052 . S
Co285 O293 2.135 1_554 S
O286 Co285 2.060 . S
O286 C289 1.234 1_554 S
C287 O290 1.238 . S
C287 O291 1.241 . S
C288 O281 1.253 . S
C288 O282 1.258 . S
C289 O284 1.259 . S
C289 O286 1.234 1_556 S
O290 Co280 2.021 1_554 S
O290 C287 1.238 . S
O291 Co285 2.052 . S
O291 C287 1.241 . S
O292 Co280 2.137 . S
O292 C283 1.247 . S
O293 Co280 2.244 . S
O293 C283 1.272 . S
O293 Co285 2.135 1_556 S
Co294 O295 2.216 . S
Co294 O296 2.091 . S
Co294 O298 2.004 . S
Co294 O304 2.021 . S
Co294 O306 2.137 . S
Co294 O307 2.244 . S
O295 Co294 2.216 . S
O295 C302 1.247 . S
O296 Co294 2.091 . S
O296 C302 1.261 . S
C297 O306 1.247 . S
C297 O307 1.272 . S
O298 Co294 2.004 . S
O298 C303 1.259 . S
Co299 O300 2.061 . S
Co299 O305 2.052 . S
Co299 O307 2.135 . S
O300 Co299 2.061 . S
O300 C303 1.235 . S
C301 O304 1.238 . S
C301 O305 1.241 . S
C302 O295 1.247 . S
C302 O296 1.261 . S
C303 O298 1.259 . S
C303 O300 1.235 . S
O304 Co294 2.021 . S
O304 C301 1.238 . S
O305 Co299 2.052 . S
O305 C301 1.241 . S
O306 Co294 2.137 . S
O306 C297 1.247 . S
O307 Co294 2.244 . S
O307 C297 1.272 . S
O307 Co299 2.135 . S
Co308 O309 2.216 . S
Co308 O310 2.091 . S
Co308 O312 2.004 . S
Co308 O318 2.021 . S
Co308 O320 2.137 . S
Co308 O321 2.244 . S
O309 Co308 2.216 . S
O309 C316 1.247 . S
O310 Co308 2.091 . S
O310 C316 1.261 . S
C311 O320 1.247 . S
C311 O321 1.272 . S
O312 Co308 2.004 . S
O312 C317 1.259 . S
Co313 O314 2.061 . S
Co313 O319 2.052 . S
Co313 O321 2.135 . S
O314 Co313 2.061 . S
O314 C317 1.235 . S
C315 O318 1.238 . S
C315 O319 1.241 . S
C316 O309 1.247 . S
C316 O310 1.261 . S
C317 O312 1.259 . S
C317 O314 1.235 . S
O318 Co308 2.021 . S
O318 C315 1.238 . S
O319 Co313 2.052 . S
O319 C315 1.241 . S
O320 Co308 2.137 . S
O320 C311 1.247 . S
O321 Co308 2.244 . S
O321 C311 1.272 . S
O321 Co313 2.135 . S
Co322 O323 2.216 . S
Co322 O324 2.091 . S
Co322 O326 2.004 . S
Co322 O332 2.021 . S
Co322 O334 2.137 . S
Co322 O335 2.244 . S
O323 Co322 2.216 . S
O323 C330 1.247 . S
O324 Co322 2.091 . S
O324 C330 1.261 . S
C325 O334 1.247 . S
C325 O335 1.272 . S
O326 Co322 2.004 . S
O326 C331 1.259 . S
Co327 O328 2.061 . S
Co327 O333 2.052 . S
Co327 O335 2.135 . S
O328 Co327 2.061 . S
O328 C331 1.235 . S
C329 O332 1.238 . S
C329 O333 1.241 . S
C330 O323 1.247 . S
C330 O324 1.261 . S
C331 O326 1.259 . S
C331 O328 1.235 . S
O332 Co322 2.021 . S
O332 C329 1.238 . S
O333 Co327 2.052 . S
O333 C329 1.241 . S
O334 Co322 2.137 . S
O334 C325 1.247 . S
O335 Co322 2.244 . S
O335 C325 1.272 . S
O335 Co327 2.135 . S
Tb336 N367 2.660 1_545 S
Tb336 N374 2.600 1_544 S
Tb336 O380 2.546 1_454 S
Tb336 O381 2.610 . S
Tb336 O383 2.320 . S
Tb336 O384 2.552 . S
Tb336 O385 2.413 1_455 S
Tb336 O387 2.362 . S
Tb336 O388 2.421 1_554 S
Tb336 C400 2.833 1_454 S
C337 C340 1.432 . S
C337 C341 1.414 . S
C337 N344 1.359 . S
C338 C340 1.417 . S
C338 C342 1.432 . S
C338 C350 1.410 . S
C339 C341 1.444 . S
C339 C342 1.317 . S
C339 H362 0.929 . S
C340 C337 1.432 . S
C340 C338 1.417 . S
C340 N348 1.360 . S
C341 C337 1.414 . S
C341 C339 1.444 . S
C341 C346 1.385 . S
C342 C338 1.432 . S
C342 C339 1.317 . S
C342 H354 0.930 . S
C343 C345 1.392 . S
C343 C346 1.370 . S
C343 H355 0.931 . S
N344 C337 1.359 . S
N344 C345 1.327 . S
N344 Tb347 2.600 . S
C345 C343 1.392 . S
C345 N344 1.327 . S
C345 H352 0.930 . S
C346 C341 1.385 . S
C346 C343 1.370 . S
C346 H365 0.930 . S
Tb347 N344 2.600 . S
Tb347 N348 2.660 . S
Tb347 O381 2.362 . S
Tb347 O382 2.421 . S
Tb347 O386 2.546 . S
Tb347 O387 2.610 . S
Tb347 O389 2.320 . S
Tb347 O390 2.552 . S
Tb347 O391 2.413 . S
Tb347 C411 2.833 . S
N348 C340 1.360 . S
N348 Tb347 2.660 . S
N348 C349 1.315 . S
C349 N348 1.315 . S
C349 C351 1.401 1_554 S
C349 H356 0.925 1_554 S
C350 C338 1.410 . S
C350 C351 1.345 1_554 S
C350 H358 0.930 1_554 S
C351 C349 1.401 1_556 S
C351 C350 1.345 1_556 S
C351 H353 0.930 . S
H352 C345 0.930 . S
H353 C351 0.930 . S
H354 C342 0.930 . S
H355 C343 0.931 . S
H356 C349 0.925 1_556 S
H357 C371 0.930 . S
H358 C350 0.930 1_556 S
H359 C377 0.930 1_545 S
H360 C368 0.930 1_545 S
H361 C375 0.931 . S
H362 C339 0.929 . S
H363 C369 0.930 . S
H364 C402 0.930 . S
H365 C346 0.930 . S
H366 C401 0.929 . S
N367 Tb336 2.660 1_565 S
N367 C368 1.305 . S
N367 C372 1.360 . S
C368 H360 0.930 1_565 S
C368 N367 1.305 . S
C368 C371 1.407 . S
C369 H363 0.930 . S
C369 C370 1.410 . S
C369 C371 1.345 1_655 S
C370 C369 1.410 . S
C370 C372 1.417 1_655 S
C370 C402 1.432 . S
C371 H357 0.930 . S
C371 C368 1.407 . S
C371 C369 1.345 1_455 S
C372 N367 1.360 . S
C372 C370 1.417 1_455 S
C372 C376 1.432 1_554 S
H373 C378 0.930 . S
N374 Tb336 2.600 1_566 S
N374 C376 1.359 . S
N374 C377 1.327 . S
C375 H361 0.931 . S
C375 C377 1.392 . S
C375 C378 1.370 1_455 S
C376 C372 1.432 1_556 S
C376 N374 1.359 . S
C376 C379 1.414 1_455 S
C377 H359 0.930 1_565 S
C377 N374 1.327 . S
C377 C375 1.392 . S
C378 H373 0.930 . S
C378 C375 1.370 1_655 S
C378 C379 1.385 . S
C379 C376 1.414 1_655 S
C379 C378 1.385 . S
C379 C401 1.444 . S
O380 Tb336 2.546 1_656 S
O380 C400 1.251 . S
O381 Tb336 2.610 . S
O381 Tb347 2.362 . S
O381 C392 1.283 . S
O382 Tb347 2.421 . S
O382 C399 1.262 . S
O383 Tb336 2.320 . S
O383 C399 1.260 . S
O384 Tb336 2.552 . S
O384 C392 1.243 . S
O385 Tb336 2.413 1_655 S
O385 C400 1.256 1_554 S
O386 Tb347 2.546 . S
O386 C411 1.251 . S
O387 Tb336 2.362 . S
O387 Tb347 2.610 . S
O387 C403 1.283 . S
O388 Tb336 2.421 1_556 S
O388 C410 1.262 . S
O389 Tb347 2.320 . S
O389 C410 1.260 1_554 S
O390 Tb347 2.552 . S
O390 C403 1.243 . S
O391 Tb347 2.413 . S
O391 C411 1.256 . S
C392 O381 1.283 . S
C392 O384 1.243 . S
C393 C395 1.382 1_556 S
C393 C397 1.393 . S
C393 C400 1.500 . S
C394 C395 1.400 . S
C394 C396 1.384 1_554 S
C395 C393 1.382 1_554 S
C395 C394 1.400 . S
C395 H412 0.930 . S
C396 C394 1.384 1_556 S
C396 C398 1.392 . S
C396 H413 0.931 . S
C397 C393 1.393 . S
C397 C398 1.401 . S
C397 H414 0.930 . S
C398 C396 1.392 . S
C398 C397 1.401 . S
C398 H415 0.930 . S
C399 O382 1.262 . S
C399 O383 1.260 . S
C400 Tb336 2.833 1_656 S
C400 O380 1.251 . S
C400 O385 1.256 1_556 S
C400 C393 1.500 . S
C401 H366 0.929 . S
C401 C379 1.444 . S
C401 C402 1.317 1_556 S
C402 H364 0.930 . S
C402 C370 1.432 . S
C402 C401 1.317 1_554 S
C403 O387 1.283 . S
C403 O390 1.243 . S
C404 C405 1.382 . S
C404 C408 1.393 . S
C404 C411 1.500 . S
C405 C404 1.382 . S
C405 C406 1.400 . S
C405 H416 0.930 . S
C406 C405 1.400 . S
C406 C407 1.384 . S
C407 C406 1.384 . S
C407 C409 1.392 . S
C407 H417 0.931 . S
C408 C404 1.393 . S
C408 C409 1.401 . S
C408 H418 0.930 . S
C409 C407 1.392 . S
C409 C408 1.401 . S
C409 H419 0.930 . S
C410 O388 1.262 . S
C410 O389 1.260 1_556 S
C411 Tb347 2.833 . S
C411 O386 1.251 . S
C411 O391 1.256 . S
C411 C404 1.500 . S
H412 C395 0.930 . S
H413 C396 0.931 . S
H414 C397 0.930 . S
H415 C398 0.930 . S
H416 C405 0.930 . S
H417 C407 0.931 . S
H418 C408 0.930 . S
H419 C409 0.930 . S
Tb420 N451 2.660 . S
Tb420 N458 2.600 . S
Tb420 O464 2.546 . S
Tb420 O465 2.610 . S
Tb420 O467 2.320 . S
Tb420 O468 2.552 . S
Tb420 O469 2.413 . S
Tb420 O471 2.362 . S
Tb420 O472 2.421 . S
Tb420 C484 2.833 . S
C421 C424 1.432 . S
C421 C425 1.414 . S
C421 N428 1.359 . S
C422 C424 1.417 . S
C422 C426 1.432 . S
C422 C434 1.410 . S
C423 C425 1.444 . S
C423 C426 1.317 . S
C423 H446 0.929 . S
C424 C421 1.432 . S
C424 C422 1.417 . S
C424 N432 1.360 . S
C425 C421 1.414 . S
C425 C423 1.444 . S
C425 C430 1.385 . S
C426 C422 1.432 . S
C426 C423 1.317 . S
C426 H438 0.930 . S
C427 C429 1.392 . S
C427 C430 1.370 . S
C427 H439 0.931 . S
N428 C421 1.359 . S
N428 C429 1.327 . S
N428 Tb431 2.600 . S
C429 C427 1.392 . S
C429 N428 1.327 . S
C429 H436 0.930 . S
C430 C425 1.385 . S
C430 C427 1.370 . S
C430 H449 0.930 . S
Tb431 N428 2.600 . S
Tb431 N432 2.660 . S
Tb431 O465 2.362 . S
Tb431 O466 2.421 . S
Tb431 O470 2.546 . S
Tb431 O471 2.610 . S
Tb431 O473 2.320 . S
Tb431 O474 2.552 . S
Tb431 O475 2.413 . S
Tb431 C495 2.833 . S
N432 C424 1.360 . S
N432 Tb431 2.660 . S
N432 C433 1.305 . S
C433 N432 1.305 . S
C433 C435 1.407 . S
C433 H440 0.930 . S
C434 C422 1.410 . S
C434 C435 1.345 . S
C434 H442 0.930 . S
C435 C433 1.407 . S
C435 C434 1.345 . S
C435 H437 0.930 . S
H436 C429 0.930 . S
H437 C435 0.930 . S
H438 C426 0.930 . S
H439 C427 0.931 . S
H440 C433 0.930 . S
H441 C455 0.930 . S
H442 C434 0.930 . S
H443 C461 0.930 . S
H444 C452 0.930 . S
H445 C459 0.931 . S
H446 C423 0.929 . S
H447 C453 0.930 . S
H448 C486 0.930 . S
H449 C430 0.930 . S
H450 C485 0.929 . S
N451 Tb420 2.660 . S
N451 C452 1.305 . S
N451 C456 1.360 . S
C452 H444 0.930 . S
C452 N451 1.305 . S
C452 C455 1.407 . S
C453 H447 0.930 . S
C453 C454 1.410 . S
C453 C455 1.345 . S
C454 C453 1.410 . S
C454 C456 1.417 . S
C454 C486 1.432 . S
C455 H441 0.930 . S
C455 C452 1.407 . S
C455 C453 1.345 . S
C456 N451 1.360 . S
C456 C454 1.417 . S
C456 C460 1.432 . S
H457 C462 0.930 . S
N458 Tb420 2.600 . S
N458 C460 1.359 . S
N458 C461 1.327 . S
C459 H445 0.931 . S
C459 C461 1.392 . S
C459 C462 1.370 . S
C460 C456 1.432 . S
C460 N458 1.359 . S
C460 C463 1.414 . S
C461 H443 0.930 . S
C461 N458 1.327 . S
C461 C459 1.392 . S
C462 H457 0.930 . S
C462 C459 1.370 . S
C462 C463 1.385 . S
C463 C460 1.414 . S
C463 C462 1.385 . S
C463 C485 1.444 . S
O464 Tb420 2.546 . S
O464 C484 1.251 . S
O465 Tb420 2.610 . S
O465 Tb431 2.362 . S
O465 C476 1.283 . S
O466 Tb431 2.421 . S
O466 C483 1.262 . S
O467 Tb420 2.320 . S
O467 C483 1.260 . S
O468 Tb420 2.552 . S
O468 C476 1.243 . S
O469 Tb420 2.413 . S
O469 C484 1.256 . S
O470 Tb431 2.546 . S
O470 C495 1.251 . S
O471 Tb420 2.362 . S
O471 Tb431 2.610 . S
O471 C487 1.283 . S
O472 Tb420 2.421 . S
O472 C494 1.262 . S
O473 Tb431 2.320 . S
O473 C494 1.260 . S
O474 Tb431 2.552 . S
O474 C487 1.243 . S
O475 Tb431 2.413 . S
O475 C495 1.256 . S
C476 O465 1.283 . S
C476 O468 1.243 . S
C477 C479 1.382 . S
C477 C481 1.393 . S
C477 C484 1.500 . S
C478 C479 1.400 . S
C478 C480 1.384 . S
C479 C477 1.382 . S
C479 C478 1.400 . S
C479 H496 0.930 . S
C480 C478 1.384 . S
C480 C482 1.392 . S
C480 H497 0.931 . S
C481 C477 1.393 . S
C481 C482 1.401 . S
C481 H498 0.930 . S
C482 C480 1.392 . S
C482 C481 1.401 . S
C482 H499 0.930 . S
C483 O466 1.262 . S
C483 O467 1.260 . S
C484 Tb420 2.833 . S
C484 O464 1.251 . S
C484 O469 1.256 . S
C484 C477 1.500 . S
C485 H450 0.929 . S
C485 C463 1.444 . S
C485 C486 1.317 . S
C486 H448 0.930 . S
C486 C454 1.432 . S
C486 C485 1.317 . S
C487 O471 1.283 . S
C487 O474 1.243 . S
C488 C489 1.382 . S
C488 C492 1.393 . S
C488 C495 1.500 . S
C489 C488 1.382 . S
C489 C490 1.400 . S
C489 H500 0.930 . S
C490 C489 1.400 . S
C490 C491 1.384 . S
C491 C490 1.384 . S
C491 C493 1.392 . S
C491 H501 0.931 . S
C492 C488 1.393 . S
C492 C493 1.401 . S
C492 H502 0.930 . S
C493 C491 1.392 . S
C493 C492 1.401 . S
C493 H503 0.930 . S
C494 O472 1.262 . S
C494 O473 1.260 . S
C495 Tb431 2.833 . S
C495 O470 1.251 . S
C495 O475 1.256 . S
C495 C488 1.500 . S
H496 C479 0.930 . S
H497 C480 0.931 . S
H498 C481 0.930 . S
H499 C482 0.930 . S
H500 C489 0.930 . S
H501 C491 0.931 . S
H502 C492 0.930 . S
H503 C493 0.930 . S
Tb504 N535 2.660 . S
Tb504 N542 2.600 . S
Tb504 O548 2.546 . S
Tb504 O549 2.610 . S
Tb504 O551 2.320 . S
Tb504 O552 2.552 1_545 S
Tb504 O553 2.413 . S
Tb504 O555 2.362 . S
Tb504 O556 2.421 . S
Tb504 C568 2.833 . S
C505 C508 1.432 . S
C505 C509 1.414 . S
C505 N512 1.359 1_565 S
C506 C508 1.417 . S
C506 C510 1.432 . S
C506 C518 1.410 . S
C507 C509 1.444 . S
C507 C510 1.317 . S
C507 H530 0.929 . S
C508 C505 1.432 . S
C508 C506 1.417 . S
C508 N516 1.360 . S
C509 C505 1.414 . S
C509 C507 1.444 . S
C509 C514 1.385 . S
C510 C506 1.432 . S
C510 C507 1.317 . S
C510 H522 0.930 . S
C511 C513 1.392 . S
C511 C514 1.370 1_545 S
C511 H523 0.931 . S
N512 C505 1.359 1_545 S
N512 C513 1.327 . S
N512 Tb515 2.600 . S
C513 C511 1.392 . S
C513 N512 1.327 . S
C513 H520 0.930 . S
C514 C509 1.385 . S
C514 C511 1.370 1_565 S
C514 H533 0.930 . S
Tb515 N512 2.600 . S
Tb515 N516 2.660 1_545 S
Tb515 O549 2.362 . S
Tb515 O550 2.421 . S
Tb515 O554 2.546 . S
Tb515 O555 2.610 . S
Tb515 O557 2.320 . S
Tb515 O558 2.552 . S
Tb515 O559 2.413 . S
Tb515 C579 2.833 . S
N516 C508 1.360 . S
N516 Tb515 2.660 1_565 S
N516 C517 1.305 . S
C517 N516 1.305 . S
C517 C519 1.407 . S
C517 H524 0.894 1_565 S
C518 C506 1.410 . S
C518 C519 1.345 . S
C518 H526 0.930 . S
C519 C517 1.407 . S
C519 C518 1.345 . S
C519 H521 0.930 . S
H520 C513 0.930 . S
H521 C519 0.930 . S
H522 C510 0.930 . S
H523 C511 0.931 . S
H524 C517 0.894 1_545 S
H525 C539 0.930 . S
H526 C518 0.930 . S
H527 C545 0.930 . S
H528 C536 0.930 . S
H529 C543 0.931 . S
H530 C507 0.929 . S
H531 C537 0.930 . S
H532 C570 0.930 . S
H533 C514 0.930 . S
H534 C569 0.929 . S
N535 Tb504 2.660 . S
N535 C536 1.305 . S
N535 C540 1.360 . S
C536 H528 0.930 . S
C536 N535 1.305 . S
C536 C539 1.407 . S
C537 H531 0.930 . S
C537 C538 1.410 . S
C537 C539 1.345 . S
C538 C537 1.410 . S
C538 C540 1.417 . S
C538 C570 1.432 . S
C539 H525 0.930 . S
C539 C536 1.407 . S
C539 C537 1.345 . S
C540 N535 1.360 . S
C540 C538 1.417 . S
C540 C544 1.432 . S
H541 C546 0.930 . S
N542 Tb504 2.600 . S
N542 C544 1.359 . S
N542 C545 1.327 . S
C543 H529 0.931 . S
C543 C545 1.392 . S
C543 C546 1.370 . S
C544 C540 1.432 . S
C544 N542 1.359 . S
C544 C547 1.414 . S
C545 H527 0.930 . S
C545 N542 1.327 . S
C545 C543 1.392 . S
C546 H541 0.930 . S
C546 C543 1.370 . S
C546 C547 1.385 . S
C547 C544 1.414 . S
C547 C546 1.385 . S
C547 C569 1.444 . S
O548 Tb504 2.546 . S
O548 C568 1.251 . S
O549 Tb504 2.610 . S
O549 Tb515 2.362 . S
O549 C560 1.283 1_545 S
O550 Tb515 2.421 . S
O550 C567 1.262 . S
O551 Tb504 2.320 . S
O551 C567 1.260 . S
O552 Tb504 2.552 1_565 S
O552 C560 1.243 . S
O553 Tb504 2.413 . S
O553 C568 1.256 . S
O554 Tb515 2.546 . S
O554 C579 1.251 . S
O555 Tb504 2.362 . S
O555 Tb515 2.610 . S
O555 C571 1.283 . S
O556 Tb504 2.421 . S
O556 C578 1.262 . S
O557 Tb515 2.320 . S
O557 C578 1.260 . S
O558 Tb515 2.552 . S
O558 C571 1.243 . S
O559 Tb515 2.413 . S
O559 C579 1.256 . S
C560 O549 1.283 1_565 S
C560 O552 1.243 . S
C561 C563 1.382 . S
C561 C565 1.393 . S
C561 C568 1.500 . S
C562 C563 1.400 1_565 S
C562 C564 1.384 . S
C563 C561 1.382 . S
C563 C562 1.400 1_545 S
C563 H580 0.930 . S
C564 C562 1.384 . S
C564 C566 1.392 1_565 S
C564 H581 0.931 . S
C565 C561 1.393 . S
C565 C566 1.401 . S
C565 H582 0.930 . S
C566 C564 1.392 1_545 S
C566 C565 1.401 . S
C566 H583 0.930 . S
C567 O550 1.262 . S
C567 O551 1.260 . S
C568 Tb504 2.833 . S
C568 O548 1.251 . S
C568 O553 1.256 . S
C568 C561 1.500 . S
C569 H534 0.929 . S
C569 C547 1.444 . S
C569 C570 1.317 . S
C570 H532 0.930 . S
C570 C538 1.432 . S
C570 C569 1.317 . S
C571 O555 1.283 . S
C571 O558 1.243 . S
C572 C573 1.382 . S
C572 C576 1.393 . S
C572 C579 1.500 . S
C573 C572 1.382 . S
C573 C574 1.400 . S
C573 H584 0.930 . S
C574 C573 1.400 . S
C574 C575 1.384 . S
C575 C574 1.384 . S
C575 C577 1.392 . S
C575 H585 0.931 . S
C576 C572 1.393 . S
C576 C577 1.401 . S
C576 H586 0.930 . S
C577 C575 1.392 . S
C577 C576 1.401 . S
C577 H587 0.930 . S
C578 O556 1.262 . S
C578 O557 1.260 . S
C579 Tb515 2.833 . S
C579 O554 1.251 . S
C579 O559 1.256 . S
C579 C572 1.500 . S
H580 C563 0.930 . S
H581 C564 0.931 . S
H582 C565 0.930 . S
H583 C566 0.930 . S
H584 C573 0.930 . S
H585 C575 0.931 . S
H586 C576 0.930 . S
H587 C577 0.930 . S
Tb588 N619 2.660 . S
Tb588 N626 2.600 . S
Tb588 O632 2.546 . S
Tb588 O633 2.610 . S
Tb588 O635 2.320 . S
Tb588 O636 2.552 . S
Tb588 O637 2.413 . S
Tb588 O639 2.362 . S
Tb588 O640 2.421 . S
Tb588 C652 2.833 . S
C589 C592 1.432 . S
C589 C593 1.414 . S
C589 N596 1.359 . S
C590 C592 1.417 . S
C590 C594 1.432 . S
C590 C602 1.410 . S
C591 C593 1.444 . S
C591 C594 1.317 . S
C591 H614 0.929 . S
C592 C589 1.432 . S
C592 C590 1.417 . S
C592 N600 1.360 . S
C593 C589 1.414 . S
C593 C591 1.444 . S
C593 C598 1.385 . S
C594 C590 1.432 . S
C594 C591 1.317 . S
C594 H606 0.930 . S
C595 C597 1.392 . S
C595 C598 1.370 . S
C595 H607 0.931 . S
N596 C589 1.359 . S
N596 C597 1.327 . S
N596 Tb599 2.600 . S
C597 C595 1.392 . S
C597 N596 1.327 . S
C597 H604 0.930 . S
C598 C593 1.385 . S
C598 C595 1.370 . S
C598 H617 0.930 . S
Tb599 N596 2.600 . S
Tb599 N600 2.660 . S
Tb599 O633 2.362 . S
Tb599 O634 2.421 . S
Tb599 O638 2.546 . S
Tb599 O639 2.610 . S
Tb599 O641 2.320 . S
Tb599 O642 2.552 . S
Tb599 O643 2.413 . S
Tb599 C663 2.833 . S
N600 C592 1.360 . S
N600 Tb599 2.660 . S
N600 C601 1.305 . S
C601 N600 1.305 . S
C601 C603 1.407 . S
C601 H608 0.930 . S
C602 C590 1.410 . S
C602 C603 1.345 . S
C602 H610 0.930 . S
C603 C601 1.407 . S
C603 C602 1.345 . S
C603 H605 0.930 . S
H604 C597 0.930 . S
H605 C603 0.930 . S
H606 C594 0.930 . S
H607 C595 0.931 . S
H608 C601 0.930 . S
H609 C623 0.930 . S
H610 C602 0.930 . S
H611 C629 0.930 . S
H612 C620 0.930 . S
H613 C627 0.931 . S
H614 C591 0.929 . S
H615 C621 0.930 . S
H616 C654 0.930 . S
H617 C598 0.930 . S
H618 C653 0.929 . S
N619 Tb588 2.660 . S
N619 C620 1.305 . S
N619 C624 1.360 . S
C620 H612 0.930 . S
C620 N619 1.305 . S
C620 C623 1.407 . S
C621 H615 0.930 . S
C621 C622 1.410 . S
C621 C623 1.345 . S
C622 C621 1.410 . S
C622 C624 1.417 . S
C622 C654 1.432 . S
C623 H609 0.930 . S
C623 C620 1.407 . S
C623 C621 1.345 . S
C624 N619 1.360 . S
C624 C622 1.417 . S
C624 C628 1.432 . S
H625 C630 0.930 . S
N626 Tb588 2.600 . S
N626 C628 1.359 . S
N626 C629 1.327 . S
C627 H613 0.931 . S
C627 C629 1.392 . S
C627 C630 1.370 . S
C628 C624 1.432 . S
C628 N626 1.359 . S
C628 C631 1.414 . S
C629 H611 0.930 . S
C629 N626 1.327 . S
C629 C627 1.392 . S
C630 H625 0.930 . S
C630 C627 1.370 . S
C630 C631 1.385 . S
C631 C628 1.414 . S
C631 C630 1.385 . S
C631 C653 1.444 . S
O632 Tb588 2.546 . S
O632 C652 1.251 . S
O633 Tb588 2.610 . S
O633 Tb599 2.362 . S
O633 C644 1.283 . S
O634 Tb599 2.421 . S
O634 C651 1.262 . S
O635 Tb588 2.320 . S
O635 C651 1.260 . S
O636 Tb588 2.552 . S
O636 C644 1.243 . S
O637 Tb588 2.413 . S
O637 C652 1.256 . S
O638 Tb599 2.546 . S
O638 C663 1.251 . S
O639 Tb588 2.362 . S
O639 Tb599 2.610 . S
O639 C655 1.283 . S
O640 Tb588 2.421 . S
O640 C662 1.262 . S
O641 Tb599 2.320 . S
O641 C662 1.260 . S
O642 Tb599 2.552 . S
O642 C655 1.243 . S
O643 Tb599 2.413 . S
O643 C663 1.256 . S
C644 O633 1.283 . S
C644 O636 1.243 . S
C645 C647 1.382 . S
C645 C649 1.393 . S
C645 C652 1.500 . S
C646 C647 1.400 . S
C646 C648 1.384 . S
C647 C645 1.382 . S
C647 C646 1.400 . S
C647 H664 0.930 . S
C648 C646 1.384 . S
C648 C650 1.392 . S
C648 H665 0.931 . S
C649 C645 1.393 . S
C649 C650 1.401 . S
C649 H666 0.930 . S
C650 C648 1.392 . S
C650 C649 1.401 . S
C650 H667 0.930 . S
C651 O634 1.262 . S
C651 O635 1.260 . S
C652 Tb588 2.833 . S
C652 O632 1.251 . S
C652 O637 1.256 . S
C652 C645 1.500 . S
C653 H618 0.929 . S
C653 C631 1.444 . S
C653 C654 1.317 . S
C654 H616 0.930 . S
C654 C622 1.432 . S
C654 C653 1.317 . S
C655 O639 1.283 . S
C655 O642 1.243 . S
C656 C657 1.382 . S
C656 C660 1.393 . S
C656 C663 1.500 . S
C657 C656 1.382 . S
C657 C658 1.400 . S
C657 H668 0.930 . S
C658 C657 1.400 . S
C658 C659 1.384 . S
C659 C658 1.384 . S
C659 C661 1.392 . S
C659 H669 0.931 . S
C660 C656 1.393 . S
C660 C661 1.401 . S
C660 H670 0.930 . S
C661 C659 1.392 . S
C661 C660 1.401 . S
C661 H671 0.930 . S
C662 O640 1.262 . S
C662 O641 1.260 . S
C663 Tb599 2.833 . S
C663 O638 1.251 . S
C663 O643 1.256 . S
C663 C656 1.500 . S
H664 C647 0.930 . S
H665 C648 0.931 . S
H666 C649 0.930 . S
H667 C650 0.930 . S
H668 C657 0.930 . S
H669 C659 0.931 . S
H670 C660 0.930 . S
H671 C661 0.930 . S
Tb672 N703 2.660 . S
Tb672 N710 2.600 . S
Tb672 O716 2.546 . S
Tb672 O717 2.610 . S
Tb672 O719 2.320 . S
Tb672 O720 2.552 . S
Tb672 O721 2.413 . S
Tb672 O723 2.362 . S
Tb672 O724 2.421 . S
Tb672 C736 2.833 . S
C673 C676 1.432 . S
C673 C677 1.414 . S
C673 N680 1.359 . S
C674 C676 1.417 . S
C674 C678 1.432 . S
C674 C686 1.410 . S
C675 C677 1.444 . S
C675 C678 1.317 . S
C675 H698 0.929 . S
C676 C673 1.432 . S
C676 C674 1.417 . S
C676 N684 1.360 . S
C677 C673 1.414 . S
C677 C675 1.444 . S
C677 C682 1.385 . S
C678 C674 1.432 . S
C678 C675 1.317 . S
C678 H690 0.930 . S
C679 C681 1.392 . S
C679 C682 1.370 . S
C679 H691 0.931 . S
N680 C673 1.359 . S
N680 C681 1.327 . S
N680 Tb683 2.600 1_565 S
C681 C679 1.392 . S
C681 N680 1.327 . S
C681 H688 0.930 1_565 S
C682 C677 1.385 . S
C682 C679 1.370 . S
C682 H701 0.930 . S
Tb683 N680 2.600 1_545 S
Tb683 N684 2.660 1_545 S
Tb683 O717 2.362 . S
Tb683 O718 2.421 . S
Tb683 O722 2.546 1_545 S
Tb683 O723 2.610 . S
Tb683 O725 2.320 . S
Tb683 O726 2.552 . S
Tb683 O727 2.413 1_545 S
Tb683 C747 2.833 1_545 S
N684 C676 1.360 . S
N684 Tb683 2.660 1_565 S
N684 C685 1.305 . S
C685 N684 1.305 . S
C685 C687 1.407 . S
C685 H692 0.930 . S
C686 C674 1.410 . S
C686 C687 1.345 . S
C686 H694 0.930 . S
C687 C685 1.407 . S
C687 C686 1.345 . S
C687 H689 0.930 1_455 S
H688 C681 0.930 1_545 S
H689 C687 0.930 1_655 S
H690 C678 0.930 . S
H691 C679 0.931 . S
H692 C685 0.930 . S
H693 C707 0.930 . S
H694 C686 0.930 . S
H695 C713 0.930 . S
H696 C704 0.930 . S
H697 C711 0.931 1_655 S
H698 C675 0.929 . S
H699 C705 0.930 . S
H700 C738 0.930 . S
H701 C682 0.930 . S
H702 C737 0.929 . S
N703 Tb672 2.660 . S
N703 C704 1.305 . S
N703 C708 1.360 . S
C704 H696 0.930 . S
C704 N703 1.305 . S
C704 C707 1.407 . S
C705 H699 0.930 . S
C705 C706 1.410 . S
C705 C707 1.345 . S
C706 C705 1.410 . S
C706 C708 1.417 . S
C706 C738 1.432 . S
C707 H693 0.930 . S
C707 C704 1.407 . S
C707 C705 1.345 . S
C708 N703 1.360 . S
C708 C706 1.417 . S
C708 C712 1.432 . S
H709 C714 0.930 . S
N710 Tb672 2.600 . S
N710 C712 1.359 . S
N710 C713 1.327 . S
C711 H697 0.931 1_455 S
C711 C713 1.392 . S
C711 C714 1.370 . S
C712 C708 1.432 . S
C712 N710 1.359 . S
C712 C715 1.414 . S
C713 H695 0.930 . S
C713 N710 1.327 . S
C713 C711 1.392 . S
C714 H709 0.930 . S
C714 C711 1.370 . S
C714 C715 1.385 . S
C715 C712 1.414 . S
C715 C714 1.385 . S
C715 C737 1.444 . S
O716 Tb672 2.546 . S
O716 C736 1.251 . S
O717 Tb672 2.610 . S
O717 Tb683 2.362 . S
O717 C728 1.283 . S
O718 Tb683 2.421 . S
O718 C735 1.262 . S
O719 Tb672 2.320 . S
O719 C735 1.260 . S
O720 Tb672 2.552 . S
O720 C728 1.243 . S
O721 Tb672 2.413 . S
O721 C736 1.256 . S
O722 Tb683 2.546 1_565 S
O722 C747 1.251 . S
O723 Tb672 2.362 . S
O723 Tb683 2.610 . S
O723 C739 1.283 . S
O724 Tb672 2.421 . S
O724 C746 1.262 . S
O725 Tb683 2.320 . S
O725 C746 1.260 . S
O726 Tb683 2.552 . S
O726 C739 1.243 . S
O727 Tb683 2.413 1_565 S
O727 C747 1.256 . S
C728 O717 1.283 . S
C728 O720 1.243 . S
C729 C731 1.382 . S
C729 C733 1.393 . S
C729 C736 1.500 . S
C730 C731 1.400 . S
C730 C732 1.384 . S
C731 C729 1.382 . S
C731 C730 1.400 . S
C731 H748 0.930 . S
C732 C730 1.384 . S
C732 C734 1.392 . S
C732 H749 0.931 . S
C733 C729 1.393 . S
C733 C734 1.401 . S
C733 H750 0.930 . S
C734 C732 1.392 . S
C734 C733 1.401 . S
C734 H751 0.930 . S
C735 O718 1.262 . S
C735 O719 1.260 . S
C736 Tb672 2.833 . S
C736 O716 1.251 . S
C736 O721 1.256 . S
C736 C729 1.500 . S
C737 H702 0.929 . S
C737 C715 1.444 . S
C737 C738 1.317 . S
C738 H700 0.930 . S
C738 C706 1.432 . S
C738 C737 1.317 . S
C739 O723 1.283 . S
C739 O726 1.243 . S
C740 C741 1.382 . S
C740 C744 1.393 . S
C740 C747 1.500 . S
C741 C740 1.382 . S
C741 C742 1.400 . S
C741 H752 0.930 . S
C742 C741 1.400 . S
C742 C743 1.384 . S
C743 C742 1.384 . S
C743 C745 1.392 . S
C743 H753 0.931 . S
C744 C740 1.393 . S
C744 C745 1.401 . S
C744 H754 0.930 . S
C745 C743 1.392 . S
C745 C744 1.401 . S
C745 H755 0.930 . S
C746 O724 1.262 . S
C746 O725 1.260 . S
C747 Tb683 2.833 1_565 S
C747 O722 1.251 . S
C747 O727 1.256 . S
C747 C740 1.500 . S
H748 C731 0.930 . S
H749 C732 0.931 . S
H750 C733 0.930 . S
H751 C734 0.930 . S
H752 C741 0.930 . S
H753 C743 0.931 . S
H754 C744 0.930 . S
H755 C745 0.930 . S
Tb756 N787 2.660 . S
Tb756 N794 2.600 . S
Tb756 O800 2.546 . S
Tb756 O801 2.610 . S
Tb756 O803 2.320 . S
Tb756 O804 2.552 . S
Tb756 O805 2.413 . S
Tb756 O807 2.362 . S
Tb756 O808 2.421 . S
Tb756 C820 2.833 . S
C757 C760 1.432 . S
C757 C761 1.414 . S
C757 N764 1.359 . S
C758 C760 1.417 . S
C758 C762 1.432 . S
C758 C770 1.410 . S
C759 C761 1.444 . S
C759 C762 1.317 . S
C759 H782 0.929 . S
C760 C757 1.432 . S
C760 C758 1.417 . S
C760 N768 1.360 . S
C761 C757 1.414 . S
C761 C759 1.444 . S
C761 C766 1.385 . S
C762 C758 1.432 . S
C762 C759 1.317 . S
C762 H774 0.930 . S
C763 C765 1.392 . S
C763 C766 1.370 . S
C763 H775 0.931 . S
N764 C757 1.359 . S
N764 C765 1.327 . S
N764 Tb767 2.600 . S
C765 C763 1.392 . S
C765 N764 1.327 . S
C765 H772 0.930 . S
C766 C761 1.385 . S
C766 C763 1.370 . S
C766 H785 0.930 . S
Tb767 N764 2.600 . S
Tb767 N768 2.660 . S
Tb767 O801 2.362 . S
Tb767 O802 2.421 . S
Tb767 O806 2.546 . S
Tb767 O807 2.610 . S
Tb767 O809 2.320 . S
Tb767 O810 2.552 . S
Tb767 O811 2.413 . S
Tb767 C831 2.833 . S
N768 C760 1.360 . S
N768 Tb767 2.660 . S
N768 C769 1.305 . S
C769 N768 1.305 . S
C769 C771 1.407 . S
C769 H776 0.930 . S
C770 C758 1.410 . S
C770 C771 1.345 . S
C770 H778 0.930 . S
C771 C769 1.407 . S
C771 C770 1.345 . S
C771 H773 0.930 . S
H772 C765 0.930 . S
H773 C771 0.930 . S
H774 C762 0.930 . S
H775 C763 0.931 . S
H776 C769 0.930 . S
H777 C791 0.930 . S
H778 C770 0.930 . S
H779 C797 0.930 . S
H780 C788 0.930 . S
H781 C795 0.931 . S
H782 C759 0.929 . S
H783 C789 0.930 . S
H784 C822 0.930 . S
H785 C766 0.930 . S
H786 C821 0.929 . S
N787 Tb756 2.660 . S
N787 C788 1.305 . S
N787 C792 1.360 . S
C788 H780 0.930 . S
C788 N787 1.305 . S
C788 C791 1.407 . S
C789 H783 0.930 . S
C789 C790 1.410 . S
C789 C791 1.345 . S
C790 C789 1.410 . S
C790 C792 1.417 . S
C790 C822 1.432 . S
C791 H777 0.930 . S
C791 C788 1.407 . S
C791 C789 1.345 . S
C792 N787 1.360 . S
C792 C790 1.417 . S
C792 C796 1.432 . S
H793 C798 0.930 . S
N794 Tb756 2.600 . S
N794 C796 1.359 . S
N794 C797 1.327 . S
C795 H781 0.931 . S
C795 C797 1.392 . S
C795 C798 1.370 . S
C796 C792 1.432 . S
C796 N794 1.359 . S
C796 C799 1.414 . S
C797 H779 0.930 . S
C797 N794 1.327 . S
C797 C795 1.392 . S
C798 H793 0.930 . S
C798 C795 1.370 . S
C798 C799 1.385 . S
C799 C796 1.414 . S
C799 C798 1.385 . S
C799 C821 1.444 . S
O800 Tb756 2.546 . S
O800 C820 1.251 . S
O801 Tb756 2.610 . S
O801 Tb767 2.362 . S
O801 C812 1.283 . S
O802 Tb767 2.421 . S
O802 C819 1.262 . S
O803 Tb756 2.320 . S
O803 C819 1.260 . S
O804 Tb756 2.552 . S
O804 C812 1.243 . S
O805 Tb756 2.413 . S
O805 C820 1.256 . S
O806 Tb767 2.546 . S
O806 C831 1.251 . S
O807 Tb756 2.362 . S
O807 Tb767 2.610 . S
O807 C823 1.283 . S
O808 Tb756 2.421 . S
O808 C830 1.262 . S
O809 Tb767 2.320 . S
O809 C830 1.260 . S
O810 Tb767 2.552 . S
O810 C823 1.243 . S
O811 Tb767 2.413 . S
O811 C831 1.256 . S
C812 O801 1.283 . S
C812 O804 1.243 . S
C813 C815 1.382 . S
C813 C817 1.393 . S
C813 C820 1.500 . S
C814 C815 1.400 . S
C814 C816 1.384 . S
C815 C813 1.382 . S
C815 C814 1.400 . S
C815 H832 0.930 . S
C816 C814 1.384 . S
C816 C818 1.392 . S
C816 H833 0.931 . S
C817 C813 1.393 . S
C817 C818 1.401 . S
C817 H834 0.930 . S
C818 C816 1.392 . S
C818 C817 1.401 . S
C818 H835 0.930 . S
C819 O802 1.262 . S
C819 O803 1.260 . S
C820 Tb756 2.833 . S
C820 O800 1.251 . S
C820 O805 1.256 . S
C820 C813 1.500 . S
C821 H786 0.929 . S
C821 C799 1.444 . S
C821 C822 1.317 . S
C822 H784 0.930 . S
C822 C790 1.432 . S
C822 C821 1.317 . S
C823 O807 1.283 . S
C823 O810 1.243 . S
C824 C825 1.382 . S
C824 C828 1.393 . S
C824 C831 1.500 . S
C825 C824 1.382 . S
C825 C826 1.400 . S
C825 H836 0.930 . S
C826 C825 1.400 . S
C826 C827 1.384 . S
C827 C826 1.384 . S
C827 C829 1.392 . S
C827 H837 0.931 . S
C828 C824 1.393 . S
C828 C829 1.401 . S
C828 H838 0.930 . S
C829 C827 1.392 . S
C829 C828 1.401 . S
C829 H839 0.930 . S
C830 O808 1.262 . S
C830 O809 1.260 . S
C831 Tb767 2.833 . S
C831 O806 1.251 . S
C831 O811 1.256 . S
C831 C824 1.500 . S
H832 C815 0.930 . S
H833 C816 0.931 . S
H834 C817 0.930 . S
H835 C818 0.930 . S
H836 C825 0.930 . S
H837 C827 0.931 . S
H838 C828 0.930 . S
H839 C829 0.930 . S
Tb840 N871 2.660 . S
Tb840 N878 2.600 . S
Tb840 O884 2.546 . S
Tb840 O885 2.610 . S
Tb840 O887 2.320 . S
Tb840 O888 2.552 . S
Tb840 O889 2.413 . S
Tb840 O891 2.362 . S
Tb840 O892 2.421 . S
Tb840 C904 2.833 . S
C841 C844 1.432 . S
C841 C845 1.414 . S
C841 N848 1.359 . S
C842 C844 1.417 . S
C842 C846 1.432 . S
C842 C854 1.410 1_545 S
C843 C845 1.444 . S
C843 C846 1.317 . S
C843 H866 0.929 . S
C844 C841 1.432 . S
C844 C842 1.417 . S
C844 N852 1.360 . S
C845 C841 1.414 . S
C845 C843 1.444 . S
C845 C850 1.385 . S
C846 C842 1.432 . S
C846 C843 1.317 . S
C846 H858 0.930 . S
C847 C849 1.392 . S
C847 C850 1.370 . S
C847 H859 0.931 . S
N848 C841 1.359 . S
N848 C849 1.327 . S
N848 Tb851 2.600 . S
C849 C847 1.392 . S
C849 N848 1.327 . S
C849 H856 0.930 . S
C850 C845 1.385 . S
C850 C847 1.370 . S
C850 H869 0.930 . S
Tb851 N848 2.600 . S
Tb851 N852 2.660 . S
Tb851 O885 2.362 1_556 S
Tb851 O886 2.421 1_556 S
Tb851 O890 2.546 . S
Tb851 O891 2.610 1_556 S
Tb851 O893 2.320 . S
Tb851 O894 2.552 . S
Tb851 O895 2.413 . S
Tb851 C915 2.833 . S
N852 C844 1.360 . S
N852 Tb851 2.660 . S
N852 C853 1.305 . S
C853 N852 1.305 . S
C853 C855 1.407 1_545 S
C853 H860 0.930 1_545 S
C854 C842 1.410 1_565 S
C854 C855 1.345 . S
C854 H862 0.930 . S
C855 C853 1.407 1_565 S
C855 C854 1.345 . S
C855 H857 0.930 . S
H856 C849 0.930 . S
H857 C855 0.930 . S
H858 C846 0.930 . S
H859 C847 0.931 . S
H860 C853 0.930 1_565 S
H861 C875 0.930 . S
H862 C854 0.930 . S
H863 C881 0.930 . S
H864 C872 0.930 . S
H865 C879 0.931 . S
H866 C843 0.929 . S
H867 C873 0.930 . S
H868 C906 0.930 . S
H869 C850 0.930 . S
H870 C905 0.929 . S
N871 Tb840 2.660 . S
N871 C872 1.305 . S
N871 C876 1.360 . S
C872 H864 0.930 . S
C872 N871 1.305 . S
C872 C875 1.407 . S
C873 H867 0.930 . S
C873 C874 1.410 . S
C873 C875 1.345 . S
C874 C873 1.410 . S
C874 C876 1.417 . S
C874 C906 1.432 . S
C875 H861 0.930 . S
C875 C872 1.407 . S
C875 C873 1.345 . S
C876 N871 1.360 . S
C876 C874 1.417 . S
C876 C880 1.432 . S
H877 C882 0.930 . S
N878 Tb840 2.600 . S
N878 C880 1.359 . S
N878 C881 1.327 1_545 S
C879 H865 0.931 . S
C879 C881 1.392 . S
C879 C882 1.370 . S
C880 C876 1.432 . S
C880 N878 1.359 . S
C880 C883 1.414 . S
C881 H863 0.930 . S
C881 N878 1.327 1_565 S
C881 C879 1.392 . S
C882 H877 0.930 . S
C882 C879 1.370 . S
C882 C883 1.385 1_565 S
C883 C880 1.414 . S
C883 C882 1.385 1_545 S
C883 C905 1.444 . S
O884 Tb840 2.546 . S
O884 C904 1.251 . S
O885 Tb840 2.610 . S
O885 Tb851 2.362 1_554 S
O885 C896 1.283 . S
O886 Tb851 2.421 1_554 S
O886 C903 1.262 . S
O887 Tb840 2.320 . S
O887 C903 1.260 . S
O888 Tb840 2.552 . S
O888 C896 1.243 . S
O889 Tb840 2.413 . S
O889 C904 1.256 . S
O890 Tb851 2.546 . S
O890 C915 1.251 . S
O891 Tb840 2.362 . S
O891 Tb851 2.610 1_554 S
O891 C907 1.283 . S
O892 Tb840 2.421 . S
O892 C914 1.283 . S
O893 Tb851 2.320 . S
O893 C914 1.246 1_556 S
O894 Tb851 2.552 . S
O894 C907 1.243 1_556 S
O895 Tb851 2.413 . S
O895 C915 1.256 . S
C896 O885 1.283 . S
C896 O888 1.243 . S
C897 C899 1.382 . S
C897 C901 1.393 1_545 S
C897 C904 1.500 . S
C898 C899 1.400 . S
C898 C900 1.384 . S
C899 C897 1.382 . S
C899 C898 1.400 . S
C899 H916 0.930 . S
C900 C898 1.384 . S
C900 C902 1.392 1_545 S
C900 H917 0.931 . S
C901 C897 1.393 1_565 S
C901 C902 1.401 . S
C901 H918 0.930 . S
C902 C900 1.392 1_565 S
C902 C901 1.401 . S
C902 H919 0.930 . S
C903 O886 1.262 . S
C903 O887 1.260 . S
C904 Tb840 2.833 . S
C904 O884 1.251 . S
C904 O889 1.256 . S
C904 C897 1.500 . S
C905 H870 0.929 . S
C905 C883 1.444 . S
C905 C906 1.317 . S
C906 H868 0.930 . S
C906 C874 1.432 . S
C906 C905 1.317 . S
C907 O891 1.283 . S
C907 O894 1.243 1_554 S
C908 C909 1.382 . S
C908 C912 1.393 . S
C908 C915 1.500 . S
C909 C908 1.382 . S
C909 C910 1.400 . S
C909 H920 0.930 . S
C910 C909 1.400 . S
C910 C911 1.384 . S
C911 C910 1.384 . S
C911 C913 1.392 . S
C911 H921 0.931 . S
C912 C908 1.393 . S
C912 C913 1.401 . S
C912 H922 0.930 . S
C913 C911 1.392 . S
C913 C912 1.401 . S
C913 H923 0.930 . S
C914 O892 1.283 . S
C914 O893 1.246 1_554 S
C915 Tb851 2.833 . S
C915 O890 1.251 . S
C915 O895 1.256 . S
C915 C908 1.500 . S
H916 C899 0.930 . S
H917 C900 0.931 . S
H918 C901 0.930 . S
H919 C902 0.930 . S
H920 C909 0.930 . S
H921 C911 0.931 . S
H922 C912 0.930 . S
H923 C913 0.930 . S
Tb924 N955 2.660 . S
Tb924 N962 2.600 . S
Tb924 O968 2.546 . S
Tb924 O969 2.610 . S
Tb924 O971 2.320 . S
Tb924 O972 2.552 . S
Tb924 O973 2.413 . S
Tb924 O975 2.362 . S
Tb924 O976 2.421 . S
Tb924 C988 2.833 . S
C925 C928 1.432 . S
C925 C929 1.414 . S
C925 N932 1.359 . S
C926 C928 1.417 . S
C926 C930 1.432 . S
C926 C938 1.410 . S
C927 C929 1.444 . S
C927 C930 1.317 . S
C927 H950 0.929 . S
C928 C925 1.432 . S
C928 C926 1.417 . S
C928 N936 1.360 . S
C929 C925 1.414 . S
C929 C927 1.444 . S
C929 C934 1.385 . S
C930 C926 1.432 . S
C930 C927 1.317 . S
C930 H942 0.930 . S
C931 C933 1.392 . S
C931 C934 1.370 . S
C931 H943 0.931 . S
N932 C925 1.359 . S
N932 C933 1.327 . S
N932 Tb935 2.600 . S
C933 C931 1.392 . S
C933 N932 1.327 . S
C933 H940 0.930 . S
C934 C929 1.385 . S
C934 C931 1.370 . S
C934 H953 0.930 . S
Tb935 N932 2.600 . S
Tb935 N936 2.660 . S
Tb935 O969 2.362 . S
Tb935 O970 2.421 . S
Tb935 O974 2.546 . S
Tb935 O975 2.610 . S
Tb935 O977 2.320 . S
Tb935 O978 2.552 . S
Tb935 O979 2.413 . S
Tb935 C999 2.833 . S
N936 C928 1.360 . S
N936 Tb935 2.660 . S
N936 C937 1.305 . S
C937 N936 1.305 . S
C937 C939 1.407 . S
C937 H944 0.930 . S
C938 C926 1.410 . S
C938 C939 1.345 . S
C938 H946 0.930 . S
C939 C937 1.407 . S
C939 C938 1.345 . S
C939 H941 0.930 . S
H940 C933 0.930 . S
H941 C939 0.930 . S
H942 C930 0.930 . S
H943 C931 0.931 . S
H944 C937 0.930 . S
H945 C959 0.930 . S
H946 C938 0.930 . S
H947 C965 0.930 . S
H948 C956 0.930 . S
H949 C963 0.931 . S
H950 C927 0.929 . S
H951 C957 0.930 . S
H952 C990 0.930 . S
H953 C934 0.930 . S
H954 C989 0.929 . S
N955 Tb924 2.660 . S
N955 C956 1.305 . S
N955 C960 1.360 . S
C956 H948 0.930 . S
C956 N955 1.305 . S
C956 C959 1.407 . S
C957 H951 0.930 . S
C957 C958 1.410 . S
C957 C959 1.345 . S
C958 C957 1.410 . S
C958 C960 1.417 . S
C958 C990 1.432 . S
C959 H945 0.930 . S
C959 C956 1.407 . S
C959 C957 1.345 . S
C960 N955 1.360 . S
C960 C958 1.417 . S
C960 C964 1.432 . S
H961 C966 0.930 . S
N962 Tb924 2.600 . S
N962 C964 1.359 . S
N962 C965 1.327 . S
C963 H949 0.931 . S
C963 C965 1.392 . S
C963 C966 1.370 . S
C964 C960 1.432 . S
C964 N962 1.359 . S
C964 C967 1.414 . S
C965 H947 0.930 . S
C965 N962 1.327 . S
C965 C963 1.392 . S
C966 H961 0.930 . S
C966 C963 1.370 . S
C966 C967 1.385 . S
C967 C964 1.414 . S
C967 C966 1.385 . S
C967 C989 1.444 . S
O968 Tb924 2.546 . S
O968 C988 1.251 . S
O969 Tb924 2.610 . S
O969 Tb935 2.362 . S
O969 C980 1.283 . S
O970 Tb935 2.421 . S
O970 C987 1.262 . S
O971 Tb924 2.320 . S
O971 C987 1.260 . S
O972 Tb924 2.552 . S
O972 C980 1.243 . S
O973 Tb924 2.413 . S
O973 C988 1.256 . S
O974 Tb935 2.546 . S
O974 C999 1.251 . S
O975 Tb924 2.362 . S
O975 Tb935 2.610 . S
O975 C991 1.283 . S
O976 Tb924 2.421 . S
O976 C998 1.262 . S
O977 Tb935 2.320 . S
O977 C998 1.260 . S
O978 Tb935 2.552 . S
O978 C991 1.243 . S
O979 Tb935 2.413 . S
O979 C999 1.256 . S
C980 O969 1.283 . S
C980 O972 1.243 . S
C981 C983 1.382 . S
C981 C985 1.393 . S
C981 C988 1.500 . S
C982 C983 1.400 . S
C982 C984 1.384 . S
C983 C981 1.382 . S
C983 C982 1.400 . S
C983 H1000 0.930 . S
C984 C982 1.384 . S
C984 C986 1.392 . S
C984 H1001 0.931 . S
C985 C981 1.393 . S
C985 C986 1.401 . S
C985 H1002 0.930 . S
C986 C984 1.392 . S
C986 C985 1.401 . S
C986 H1003 0.930 . S
C987 O970 1.262 . S
C987 O971 1.260 . S
C988 Tb924 2.833 . S
C988 O968 1.251 . S
C988 O973 1.256 . S
C988 C981 1.500 . S
C989 H954 0.929 . S
C989 C967 1.444 . S
C989 C990 1.317 . S
C990 H952 0.930 . S
C990 C958 1.432 . S
C990 C989 1.317 . S
C991 O975 1.283 . S
C991 O978 1.243 . S
C992 C993 1.382 . S
C992 C996 1.393 . S
C992 C999 1.500 . S
C993 C992 1.382 . S
C993 C994 1.400 . S
C993 H1004 0.930 . S
C994 C993 1.400 . S
C994 C995 1.384 . S
C995 C994 1.384 . S
C995 C997 1.392 . S
C995 H1005 0.931 . S
C996 C992 1.393 . S
C996 C997 1.401 . S
C996 H1006 0.930 . S
C997 C995 1.392 . S
C997 C996 1.401 . S
C997 H1007 0.930 . S
C998 O976 1.262 . S
C998 O977 1.260 . S
C999 Tb935 2.833 . S
C999 O974 1.251 . S
C999 O979 1.256 . S
C999 C992 1.500 . S
H1000 C983 0.930 . S
H1001 C984 0.931 . S
H1002 C985 0.930 . S
H1003 C986 0.930 . S
H1004 C993 0.930 . S
H1005 C995 0.931 . S
H1006 C996 0.930 . S
H1007 C997 0.930 . S
Tb1008 N1039 2.660 . S
Tb1008 N1046 2.600 . S
Tb1008 O1052 2.546 . S
Tb1008 O1053 2.610 1_554 S
Tb1008 O1055 2.320 . S
Tb1008 O1056 2.552 1_554 S
Tb1008 O1057 2.413 . S
Tb1008 O1059 2.362 . S
Tb1008 O1060 2.421 . S
Tb1008 C1072 2.833 . S
C1009 C1012 1.432 . S
C1009 C1013 1.414 . S
C1009 N1016 1.359 . S
C1010 C1012 1.417 . S
C1010 C1014 1.432 . S
C1010 C1022 1.410 . S
C1011 C1013 1.444 . S
C1011 C1014 1.317 . S
C1011 H1034 0.929 . S
C1012 C1009 1.432 . S
C1012 C1010 1.417 . S
C1012 N1020 1.360 . S
C1013 C1009 1.414 . S
C1013 C1011 1.444 . S
C1013 C1018 1.385 . S
C1014 C1010 1.432 . S
C1014 C1011 1.317 . S
C1014 H1026 0.930 . S
C1015 C1017 1.392 . S
C1015 C1018 1.370 . S
C1015 H1027 0.931 . S
N1016 C1009 1.359 . S
N1016 C1017 1.327 . S
N1016 Tb1019 2.600 1_556 S
C1017 C1015 1.392 . S
C1017 N1016 1.327 . S
C1017 H1024 0.930 . S
C1018 C1013 1.385 . S
C1018 C1015 1.370 . S
C1018 H1037 0.930 . S
Tb1019 N1016 2.600 1_554 S
Tb1019 N1020 2.660 1_554 S
Tb1019 O1053 2.362 1_554 S
Tb1019 O1054 2.421 . S
Tb1019 O1058 2.546 . S
Tb1019 O1059 2.610 . S
Tb1019 O1061 2.320 . S
Tb1019 O1062 2.552 . S
Tb1019 O1063 2.413 . S
Tb1019 C1083 2.833 . S
N1020 C1012 1.360 . S
N1020 Tb1019 2.660 1_556 S
N1020 C1021 1.305 . S
C1021 N1020 1.305 . S
C1021 C1023 1.407 . S
C1021 H1028 0.930 . S
C1022 C1010 1.410 . S
C1022 C1023 1.345 . S
C1022 H1030 0.930 . S
C1023 C1021 1.407 . S
C1023 C1022 1.345 . S
C1023 H1025 0.930 . S
H1024 C1017 0.930 . S
H1025 C1023 0.930 . S
H1026 C1014 0.930 . S
H1027 C1015 0.931 . S
H1028 C1021 0.930 . S
H1029 C1043 0.930 . S
H1030 C1022 0.930 . S
H1031 C1049 0.930 . S
H1032 C1040 0.930 . S
H1033 C1047 0.931 . S
H1034 C1011 0.929 . S
H1035 C1041 0.930 . S
H1036 C1074 0.930 . S
H1037 C1018 0.930 . S
H1038 C1073 0.929 . S
N1039 Tb1008 2.660 . S
N1039 C1040 1.305 . S
N1039 C1044 1.360 . S
C1040 H1032 0.930 . S
C1040 N1039 1.305 . S
C1040 C1043 1.407 . S
C1041 H1035 0.930 . S
C1041 C1042 1.410 . S
C1041 C1043 1.345 . S
C1042 C1041 1.410 . S
C1042 C1044 1.417 . S
C1042 C1074 1.432 . S
C1043 H1029 0.930 . S
C1043 C1040 1.407 . S
C1043 C1041 1.345 . S
C1044 N1039 1.360 . S
C1044 C1042 1.417 . S
C1044 C1048 1.432 . S
H1045 C1050 0.930 . S
N1046 Tb1008 2.600 . S
N1046 C1048 1.359 . S
N1046 C1049 1.327 . S
C1047 H1033 0.931 . S
C1047 C1049 1.392 . S
C1047 C1050 1.370 . S
C1048 C1044 1.432 . S
C1048 N1046 1.359 . S
C1048 C1051 1.414 . S
C1049 H1031 0.930 . S
C1049 N1046 1.327 . S
C1049 C1047 1.392 . S
C1050 H1045 0.930 . S
C1050 C1047 1.370 . S
C1050 C1051 1.385 . S
C1051 C1048 1.414 . S
C1051 C1050 1.385 . S
C1051 C1073 1.444 . S
O1052 Tb1008 2.546 . S
O1052 C1072 1.251 . S
O1053 Tb1008 2.610 1_556 S
O1053 Tb1019 2.362 1_556 S
O1053 C1064 1.283 . S
O1054 Tb1019 2.421 . S
O1054 C1071 1.262 . S
O1055 Tb1008 2.320 . S
O1055 C1071 1.260 . S
O1056 Tb1008 2.552 1_556 S
O1056 C1064 1.243 . S
O1057 Tb1008 2.413 . S
O1057 C1072 1.256 . S
O1058 Tb1019 2.546 . S
O1058 C1083 1.251 . S
O1059 Tb1008 2.362 . S
O1059 Tb1019 2.610 . S
O1059 C1075 1.283 . S
O1060 Tb1008 2.421 . S
O1060 C1082 1.262 . S
O1061 Tb1019 2.320 . S
O1061 C1082 1.260 . S
O1062 Tb1019 2.552 . S
O1062 C1075 1.243 . S
O1063 Tb1019 2.413 . S
O1063 C1083 1.256 . S
C1064 O1053 1.283 . S
C1064 O1056 1.243 . S
C1065 C1067 1.382 . S
C1065 C1069 1.393 . S
C1065 C1072 1.500 . S
C1066 C1067 1.400 1_556 S
C1066 C1068 1.384 1_556 S
C1067 C1065 1.382 . S
C1067 C1066 1.400 1_554 S
C1067 H1084 0.930 . S
C1068 C1066 1.384 1_554 S
C1068 C1070 1.392 . S
C1068 H1085 0.931 . S
C1069 C1065 1.393 . S
C1069 C1070 1.401 . S
C1069 H1086 0.930 . S
C1070 C1068 1.392 . S
C1070 C1069 1.401 . S
C1070 H1087 0.930 . S
C1071 O1054 1.262 . S
C1071 O1055 1.260 . S
C1072 Tb1008 2.833 . S
C1072 O1052 1.251 . S
C1072 O1057 1.256 . S
C1072 C1065 1.500 . S
C1073 H1038 0.929 . S
C1073 C1051 1.444 . S
C1073 C1074 1.317 . S
C1074 H1036 0.930 . S
C1074 C1042 1.432 . S
C1074 C1073 1.317 . S
C1075 O1059 1.283 . S
C1075 O1062 1.243 . S
C1076 C1077 1.382 . S
C1076 C1080 1.393 . S
C1076 C1083 1.500 . S
C1077 C1076 1.382 . S
C1077 C1078 1.400 . S
C1077 H1088 0.930 . S
C1078 C1077 1.400 . S
C1078 C1079 1.384 . S
C1079 C1078 1.384 . S
C1079 C1081 1.392 . S
C1079 H1089 0.931 . S
C1080 C1076 1.393 . S
C1080 C1081 1.401 . S
C1080 H1090 0.930 . S
C1081 C1079 1.392 . S
C1081 C1080 1.401 . S
C1081 H1091 0.930 . S
C1082 O1060 1.262 . S
C1082 O1061 1.260 . S
C1083 Tb1019 2.833 . S
C1083 O1058 1.251 . S
C1083 O1063 1.256 . S
C1083 C1076 1.500 . S
H1084 C1067 0.930 . S
H1085 C1068 0.931 . S
H1086 C1069 0.930 . S
H1087 C1070 0.930 . S
H1088 C1077 0.930 . S
H1089 C1079 0.931 . S
H1090 C1080 0.930 . S
H1091 C1081 0.930 . S
Tb1092 N1123 2.660 . S
Tb1092 N1130 2.600 . S
Tb1092 O1136 2.546 . S
Tb1092 O1137 2.610 . S
Tb1092 O1139 2.320 . S
Tb1092 O1140 2.552 . S
Tb1092 O1141 2.413 . S
Tb1092 O1143 2.362 . S
Tb1092 O1144 2.421 . S
Tb1092 C1156 2.833 . S
C1093 C1096 1.432 . S
C1093 C1097 1.414 . S
C1093 N1100 1.359 . S
C1094 C1096 1.417 . S
C1094 C1098 1.432 . S
C1094 C1106 1.410 . S
C1095 C1097 1.444 . S
C1095 C1098 1.317 . S
C1095 H1118 0.929 . S
C1096 C1093 1.432 . S
C1096 C1094 1.417 . S
C1096 N1104 1.360 . S
C1097 C1093 1.414 . S
C1097 C1095 1.444 . S
C1097 C1102 1.385 . S
C1098 C1094 1.432 . S
C1098 C1095 1.317 . S
C1098 H1110 0.930 . S
C1099 C1101 1.392 . S
C1099 C1102 1.370 . S
C1099 H1111 0.931 . S
N1100 C1093 1.359 . S
N1100 C1101 1.327 . S
N1100 Tb1103 2.600 . S
C1101 C1099 1.392 . S
C1101 N1100 1.327 . S
C1101 H1108 0.930 . S
C1102 C1097 1.385 . S
C1102 C1099 1.370 . S
C1102 H1121 0.930 . S
Tb1103 N1100 2.600 . S
Tb1103 N1104 2.660 . S
Tb1103 O1137 2.362 . S
Tb1103 O1138 2.421 . S
Tb1103 O1142 2.546 . S
Tb1103 O1143 2.610 . S
Tb1103 O1145 2.320 . S
Tb1103 O1146 2.552 . S
Tb1103 O1147 2.413 . S
Tb1103 C1167 2.833 . S
N1104 C1096 1.360 . S
N1104 Tb1103 2.660 . S
N1104 C1105 1.305 . S
C1105 N1104 1.305 . S
C1105 C1107 1.407 . S
C1105 H1112 0.930 . S
C1106 C1094 1.410 . S
C1106 C1107 1.345 . S
C1106 H1114 0.930 . S
C1107 C1105 1.407 . S
C1107 C1106 1.345 . S
C1107 H1109 0.930 . S
H1108 C1101 0.930 . S
H1109 C1107 0.930 . S
H1110 C1098 0.930 . S
H1111 C1099 0.931 . S
H1112 C1105 0.930 . S
H1113 C1127 0.930 . S
H1114 C1106 0.930 . S
H1115 C1133 0.930 . S
H1116 C1124 0.930 . S
H1117 C1131 0.931 . S
H1118 C1095 0.929 . S
H1119 C1125 0.930 . S
H1120 C1158 0.930 . S
H1121 C1102 0.930 . S
H1122 C1157 0.929 . S
N1123 Tb1092 2.660 . S
N1123 C1124 1.305 . S
N1123 C1128 1.360 . S
C1124 H1116 0.930 . S
C1124 N1123 1.305 . S
C1124 C1127 1.407 . S
C1125 H1119 0.930 . S
C1125 C1126 1.410 . S
C1125 C1127 1.345 . S
C1126 C1125 1.410 . S
C1126 C1128 1.417 . S
C1126 C1158 1.432 . S
C1127 H1113 0.930 . S
C1127 C1124 1.407 . S
C1127 C1125 1.345 . S
C1128 N1123 1.360 . S
C1128 C1126 1.417 . S
C1128 C1132 1.432 . S
H1129 C1134 0.930 . S
N1130 Tb1092 2.600 . S
N1130 C1132 1.359 . S
N1130 C1133 1.327 . S
C1131 H1117 0.931 . S
C1131 C1133 1.392 . S
C1131 C1134 1.370 . S
C1132 C1128 1.432 . S
C1132 N1130 1.359 . S
C1132 C1135 1.414 . S
C1133 H1115 0.930 . S
C1133 N1130 1.327 . S
C1133 C1131 1.392 . S
C1134 H1129 0.930 . S
C1134 C1131 1.370 . S
C1134 C1135 1.385 . S
C1135 C1132 1.414 . S
C1135 C1134 1.385 . S
C1135 C1157 1.444 . S
O1136 Tb1092 2.546 . S
O1136 C1156 1.251 . S
O1137 Tb1092 2.610 . S
O1137 Tb1103 2.362 . S
O1137 C1148 1.283 . S
O1138 Tb1103 2.421 . S
O1138 C1155 1.262 . S
O1139 Tb1092 2.320 . S
O1139 C1155 1.260 . S
O1140 Tb1092 2.552 . S
O1140 C1148 1.243 . S
O1141 Tb1092 2.413 . S
O1141 C1156 1.256 . S
O1142 Tb1103 2.546 . S
O1142 C1167 1.251 . S
O1143 Tb1092 2.362 . S
O1143 Tb1103 2.610 . S
O1143 C1159 1.283 . S
O1144 Tb1092 2.421 . S
O1144 C1166 1.262 . S
O1145 Tb1103 2.320 . S
O1145 C1166 1.260 . S
O1146 Tb1103 2.552 . S
O1146 C1159 1.243 . S
O1147 Tb1103 2.413 . S
O1147 C1167 1.256 . S
C1148 O1137 1.283 . S
C1148 O1140 1.243 . S
C1149 C1151 1.382 . S
C1149 C1153 1.393 . S
C1149 C1156 1.500 . S
C1150 C1151 1.400 . S
C1150 C1152 1.384 . S
C1151 C1149 1.382 . S
C1151 C1150 1.400 . S
C1151 H1168 0.930 . S
C1152 C1150 1.384 . S
C1152 C1154 1.392 . S
C1152 H1169 0.931 . S
C1153 C1149 1.393 . S
C1153 C1154 1.401 . S
C1153 H1170 0.930 . S
C1154 C1152 1.392 . S
C1154 C1153 1.401 . S
C1154 H1171 0.930 . S
C1155 O1138 1.262 . S
C1155 O1139 1.260 . S
C1156 Tb1092 2.833 . S
C1156 O1136 1.251 . S
C1156 O1141 1.256 . S
C1156 C1149 1.500 . S
C1157 H1122 0.929 . S
C1157 C1135 1.444 . S
C1157 C1158 1.317 . S
C1158 H1120 0.930 . S
C1158 C1126 1.432 . S
C1158 C1157 1.317 . S
C1159 O1143 1.283 . S
C1159 O1146 1.243 . S
C1160 C1161 1.382 . S
C1160 C1164 1.393 . S
C1160 C1167 1.500 . S
C1161 C1160 1.382 . S
C1161 C1162 1.400 . S
C1161 H1172 0.930 . S
C1162 C1161 1.400 . S
C1162 C1163 1.384 . S
C1163 C1162 1.384 . S
C1163 C1165 1.392 . S
C1163 H1173 0.931 . S
C1164 C1160 1.393 . S
C1164 C1165 1.401 . S
C1164 H1174 0.930 . S
C1165 C1163 1.392 . S
C1165 C1164 1.401 . S
C1165 H1175 0.930 . S
C1166 O1144 1.262 . S
C1166 O1145 1.260 . S
C1167 Tb1103 2.833 . S
C1167 O1142 1.251 . S
C1167 O1147 1.256 . S
C1167 C1160 1.500 . S
H1168 C1151 0.930 . S
H1169 C1152 0.931 . S
H1170 C1153 0.930 . S
H1171 C1154 0.930 . S
H1172 C1161 0.930 . S
H1173 C1163 0.931 . S
H1174 C1164 0.930 . S
H1175 C1165 0.930 . S
Tb1176 N1207 2.660 . S
Tb1176 N1214 2.600 . S
Tb1176 O1220 2.546 . S
Tb1176 O1221 2.610 . S
Tb1176 O1223 2.320 . S
Tb1176 O1224 2.552 . S
Tb1176 O1225 2.413 . S
Tb1176 O1227 2.362 . S
Tb1176 O1228 2.421 . S
Tb1176 C1240 2.833 . S
C1177 C1180 1.432 . S
C1177 C1181 1.414 1_455 S
C1177 N1184 1.359 . S
C1178 C1180 1.417 1_655 S
C1178 C1182 1.432 . S
C1178 C1190 1.410 . S
C1179 C1181 1.444 . S
C1179 C1182 1.317 . S
C1179 H1202 0.929 . S
C1180 C1177 1.432 . S
C1180 C1178 1.417 1_455 S
C1180 N1188 1.360 . S
C1181 C1177 1.414 1_655 S
C1181 C1179 1.444 . S
C1181 C1186 1.385 . S
C1182 C1178 1.432 . S
C1182 C1179 1.317 . S
C1182 H1194 0.930 . S
C1183 C1185 1.392 . S
C1183 C1186 1.370 1_455 S
C1183 H1195 0.931 . S
N1184 C1177 1.359 . S
N1184 C1185 1.327 . S
N1184 Tb1187 2.600 . S
C1185 C1183 1.392 . S
C1185 N1184 1.327 . S
C1185 H1192 0.930 . S
C1186 C1181 1.385 . S
C1186 C1183 1.370 1_655 S
C1186 H1205 0.930 . S
Tb1187 N1184 2.600 . S
Tb1187 N1188 2.660 . S
Tb1187 O1221 2.362 . S
Tb1187 O1222 2.421 . S
Tb1187 O1226 2.546 . S
Tb1187 O1227 2.610 . S
Tb1187 O1229 2.320 . S
Tb1187 O1230 2.552 . S
Tb1187 O1231 2.413 . S
Tb1187 C1251 2.833 . S
N1188 C1180 1.360 . S
N1188 Tb1187 2.660 . S
N1188 C1189 1.305 . S
C1189 N1188 1.305 . S
C1189 C1191 1.407 1_455 S
C1189 H1196 0.930 . S
C1190 C1178 1.410 . S
C1190 C1191 1.345 . S
C1190 H1198 0.930 . S
C1191 C1189 1.407 1_655 S
C1191 C1190 1.345 . S
C1191 H1193 0.930 . S
H1192 C1185 0.930 . S
H1193 C1191 0.930 . S
H1194 C1182 0.930 . S
H1195 C1183 0.931 . S
H1196 C1189 0.930 . S
H1197 C1211 0.930 . S
H1198 C1190 0.930 . S
H1199 C1217 0.930 . S
H1200 C1208 0.930 . S
H1201 C1215 0.931 . S
H1202 C1179 0.929 . S
H1203 C1209 0.930 . S
H1204 C1242 0.930 . S
H1205 C1186 0.930 . S
H1206 C1241 0.929 . S
N1207 Tb1176 2.660 . S
N1207 C1208 1.305 . S
N1207 C1212 1.360 . S
C1208 H1200 0.930 . S
C1208 N1207 1.305 . S
C1208 C1211 1.407 . S
C1209 H1203 0.930 . S
C1209 C1210 1.410 . S
C1209 C1211 1.345 . S
C1210 C1209 1.410 . S
C1210 C1212 1.417 . S
C1210 C1242 1.432 . S
C1211 H1197 0.930 . S
C1211 C1208 1.407 . S
C1211 C1209 1.345 . S
C1212 N1207 1.360 . S
C1212 C1210 1.417 . S
C1212 C1216 1.432 . S
H1213 C1218 0.930 . S
N1214 Tb1176 2.600 . S
N1214 C1216 1.359 . S
N1214 C1217 1.327 . S
C1215 H1201 0.931 . S
C1215 C1217 1.392 . S
C1215 C1218 1.370 . S
C1216 C1212 1.432 . S
C1216 N1214 1.359 . S
C1216 C1219 1.414 . S
C1217 H1199 0.930 . S
C1217 N1214 1.327 . S
C1217 C1215 1.392 . S
C1218 H1213 0.930 . S
C1218 C1215 1.370 . S
C1218 C1219 1.385 . S
C1219 C1216 1.414 . S
C1219 C1218 1.385 . S
C1219 C1241 1.444 . S
O1220 Tb1176 2.546 . S
O1220 C1240 1.251 . S
O1221 Tb1176 2.610 . S
O1221 Tb1187 2.362 . S
O1221 C1232 1.283 . S
O1222 Tb1187 2.421 . S
O1222 C1239 1.262 . S
O1223 Tb1176 2.320 . S
O1223 C1239 1.260 . S
O1224 Tb1176 2.552 . S
O1224 C1232 1.243 . S
O1225 Tb1176 2.413 . S
O1225 C1240 1.256 . S
O1226 Tb1187 2.546 . S
O1226 C1251 1.251 . S
O1227 Tb1176 2.362 . S
O1227 Tb1187 2.610 . S
O1227 C1243 1.283 . S
O1228 Tb1176 2.421 . S
O1228 C1250 1.262 . S
O1229 Tb1187 2.320 . S
O1229 C1250 1.260 . S
O1230 Tb1187 2.552 . S
O1230 C1243 1.243 . S
O1231 Tb1187 2.413 . S
O1231 C1251 1.256 . S
C1232 O1221 1.283 . S
C1232 O1224 1.243 . S
C1233 C1235 1.382 . S
C1233 C1237 1.393 . S
C1233 C1240 1.500 . S
C1234 C1235 1.400 . S
C1234 C1236 1.384 . S
C1235 C1233 1.382 . S
C1235 C1234 1.400 . S
C1235 H1252 0.930 . S
C1236 C1234 1.384 . S
C1236 C1238 1.392 . S
C1236 H1253 0.931 . S
C1237 C1233 1.393 . S
C1237 C1238 1.401 . S
C1237 H1254 0.930 . S
C1238 C1236 1.392 . S
C1238 C1237 1.401 . S
C1238 H1255 0.930 . S
C1239 O1222 1.262 . S
C1239 O1223 1.260 . S
C1240 Tb1176 2.833 . S
C1240 O1220 1.251 . S
C1240 O1225 1.256 . S
C1240 C1233 1.500 . S
C1241 H1206 0.929 . S
C1241 C1219 1.444 . S
C1241 C1242 1.317 . S
C1242 H1204 0.930 . S
C1242 C1210 1.432 . S
C1242 C1241 1.317 . S
C1243 O1227 1.283 . S
C1243 O1230 1.243 . S
C1244 C1245 1.382 . S
C1244 C1248 1.393 . S
C1244 C1251 1.500 . S
C1245 C1244 1.382 . S
C1245 C1246 1.400 . S
C1245 H1256 0.930 . S
C1246 C1245 1.400 . S
C1246 C1247 1.384 . S
C1247 C1246 1.384 . S
C1247 C1249 1.392 . S
C1247 H1257 0.931 . S
C1248 C1244 1.393 . S
C1248 C1249 1.401 . S
C1248 H1258 0.930 . S
C1249 C1247 1.392 . S
C1249 C1248 1.401 . S
C1249 H1259 0.930 . S
C1250 O1228 1.262 . S
C1250 O1229 1.260 . S
C1251 Tb1187 2.833 . S
C1251 O1226 1.251 . S
C1251 O1231 1.256 . S
C1251 C1244 1.500 . S
H1252 C1235 0.930 . S
H1253 C1236 0.931 . S
H1254 C1237 0.930 . S
H1255 C1238 0.930 . S
H1256 C1245 0.930 . S
H1257 C1247 0.931 . S
H1258 C1248 0.930 . S
H1259 C1249 0.930 . S
Tb1260 N1291 2.660 . S
Tb1260 N1298 2.600 . S
Tb1260 O1304 2.546 . S
Tb1260 O1305 2.610 . S
Tb1260 O1307 2.320 . S
Tb1260 O1308 2.552 . S
Tb1260 O1309 2.413 . S
Tb1260 O1311 2.362 . S
Tb1260 O1312 2.421 . S
Tb1260 C1324 2.833 . S
C1261 C1264 1.432 . S
C1261 C1265 1.414 . S
C1261 N1268 1.359 . S
C1262 C1264 1.417 . S
C1262 C1266 1.432 . S
C1262 C1274 1.410 . S
C1263 C1265 1.444 . S
C1263 C1266 1.317 . S
C1263 H1286 0.929 . S
C1264 C1261 1.432 . S
C1264 C1262 1.417 . S
C1264 N1272 1.360 . S
C1265 C1261 1.414 . S
C1265 C1263 1.444 . S
C1265 C1270 1.385 . S
C1266 C1262 1.432 . S
C1266 C1263 1.317 . S
C1266 H1278 0.930 . S
C1267 C1269 1.392 . S
C1267 C1270 1.370 . S
C1267 H1279 0.931 . S
N1268 C1261 1.359 . S
N1268 C1269 1.327 . S
N1268 Tb1271 2.600 . S
C1269 C1267 1.392 . S
C1269 N1268 1.327 . S
C1269 H1276 0.930 . S
C1270 C1265 1.385 . S
C1270 C1267 1.370 . S
C1270 H1289 0.930 . S
Tb1271 N1268 2.600 . S
Tb1271 N1272 2.660 . S
Tb1271 O1305 2.362 . S
Tb1271 O1306 2.421 . S
Tb1271 O1310 2.546 . S
Tb1271 O1311 2.610 . S
Tb1271 O1313 2.320 . S
Tb1271 O1314 2.552 . S
Tb1271 O1315 2.413 . S
Tb1271 C1335 2.833 . S
N1272 C1264 1.360 . S
N1272 Tb1271 2.660 . S
N1272 C1273 1.305 . S
C1273 N1272 1.305 . S
C1273 C1275 1.407 . S
C1273 H1280 0.930 . S
C1274 C1262 1.410 . S
C1274 C1275 1.345 . S
C1274 H1282 0.930 . S
C1275 C1273 1.407 . S
C1275 C1274 1.345 . S
C1275 H1277 0.930 . S
H1276 C1269 0.930 . S
H1277 C1275 0.930 . S
H1278 C1266 0.930 . S
H1279 C1267 0.931 . S
H1280 C1273 0.930 . S
H1281 C1295 0.930 . S
H1282 C1274 0.930 . S
H1283 C1301 0.930 . S
H1284 C1292 0.930 . S
H1285 C1299 0.931 . S
H1286 C1263 0.929 . S
H1287 C1293 0.930 . S
H1288 C1326 0.930 . S
H1289 C1270 0.930 . S
H1290 C1325 0.929 . S
N1291 Tb1260 2.660 . S
N1291 C1292 1.305 . S
N1291 C1296 1.360 . S
C1292 H1284 0.930 . S
C1292 N1291 1.305 . S
C1292 C1295 1.407 . S
C1293 H1287 0.930 . S
C1293 C1294 1.410 . S
C1293 C1295 1.345 . S
C1294 C1293 1.410 . S
C1294 C1296 1.417 . S
C1294 C1326 1.432 . S
C1295 H1281 0.930 . S
C1295 C1292 1.407 . S
C1295 C1293 1.345 . S
C1296 N1291 1.360 . S
C1296 C1294 1.417 . S
C1296 C1300 1.432 . S
H1297 C1302 0.930 . S
N1298 Tb1260 2.600 . S
N1298 C1300 1.359 . S
N1298 C1301 1.327 . S
C1299 H1285 0.931 . S
C1299 C1301 1.392 . S
C1299 C1302 1.370 . S
C1300 C1296 1.432 . S
C1300 N1298 1.359 . S
C1300 C1303 1.414 . S
C1301 H1283 0.930 . S
C1301 N1298 1.327 . S
C1301 C1299 1.392 . S
C1302 H1297 0.930 . S
C1302 C1299 1.370 . S
C1302 C1303 1.385 . S
C1303 C1300 1.414 . S
C1303 C1302 1.385 . S
C1303 C1325 1.444 . S
O1304 Tb1260 2.546 . S
O1304 C1324 1.251 . S
O1305 Tb1260 2.610 . S
O1305 Tb1271 2.362 . S
O1305 C1316 1.283 . S
O1306 Tb1271 2.421 . S
O1306 C1323 1.262 . S
O1307 Tb1260 2.320 . S
O1307 C1323 1.260 . S
O1308 Tb1260 2.552 . S
O1308 C1316 1.243 . S
O1309 Tb1260 2.413 . S
O1309 C1324 1.256 . S
O1310 Tb1271 2.546 . S
O1310 C1335 1.251 . S
O1311 Tb1260 2.362 . S
O1311 Tb1271 2.610 . S
O1311 C1327 1.283 . S
O1312 Tb1260 2.421 . S
O1312 C1334 1.262 . S
O1313 Tb1271 2.320 . S
O1313 C1334 1.260 . S
O1314 Tb1271 2.552 . S
O1314 C1327 1.243 . S
O1315 Tb1271 2.413 . S
O1315 C1335 1.256 . S
C1316 O1305 1.283 . S
C1316 O1308 1.243 . S
C1317 C1319 1.382 . S
C1317 C1321 1.393 . S
C1317 C1324 1.500 . S
C1318 C1319 1.400 . S
C1318 C1320 1.384 . S
C1319 C1317 1.382 . S
C1319 C1318 1.400 . S
C1319 H1336 0.930 . S
C1320 C1318 1.384 . S
C1320 C1322 1.392 . S
C1320 H1337 0.931 . S
C1321 C1317 1.393 . S
C1321 C1322 1.401 . S
C1321 H1338 0.930 . S
C1322 C1320 1.392 . S
C1322 C1321 1.401 . S
C1322 H1339 0.930 . S
C1323 O1306 1.262 . S
C1323 O1307 1.260 . S
C1324 Tb1260 2.833 . S
C1324 O1304 1.251 . S
C1324 O1309 1.256 . S
C1324 C1317 1.500 . S
C1325 H1290 0.929 . S
C1325 C1303 1.444 . S
C1325 C1326 1.317 . S
C1326 H1288 0.930 . S
C1326 C1294 1.432 . S
C1326 C1325 1.317 . S
C1327 O1311 1.283 . S
C1327 O1314 1.243 . S
C1328 C1329 1.382 . S
C1328 C1332 1.393 . S
C1328 C1335 1.500 . S
C1329 C1328 1.382 . S
C1329 C1330 1.400 . S
C1329 H1340 0.930 . S
C1330 C1329 1.400 . S
C1330 C1331 1.384 . S
C1331 C1330 1.384 . S
C1331 C1333 1.392 . S
C1331 H1341 0.931 . S
C1332 C1328 1.393 . S
C1332 C1333 1.401 . S
C1332 H1342 0.930 . S
C1333 C1331 1.392 . S
C1333 C1332 1.401 . S
C1333 H1343 0.930 . S
C1334 O1312 1.262 . S
C1334 O1313 1.260 . S
C1335 Tb1271 2.833 . S
C1335 O1310 1.251 . S
C1335 O1315 1.256 . S
C1335 C1328 1.500 . S
H1336 C1319 0.930 . S
H1337 C1320 0.931 . S
H1338 C1321 0.930 . S
H1339 C1322 0.930 . S
H1340 C1329 0.930 . S
H1341 C1331 0.931 . S
H1342 C1332 0.930 . S
H1343 C1333 0.930 . S
Tb1344 N1375 2.660 . S
Tb1344 N1382 2.600 . S
Tb1344 O1388 2.546 . S
Tb1344 O1389 2.610 . S
Tb1344 O1391 2.320 . S
Tb1344 O1392 2.552 . S
Tb1344 O1393 2.413 . S
Tb1344 O1395 2.362 . S
Tb1344 O1396 2.421 . S
Tb1344 C1408 2.833 . S
C1345 C1348 1.432 . S
C1345 C1349 1.414 . S
C1345 N1352 1.359 . S
C1346 C1348 1.417 . S
C1346 C1350 1.432 . S
C1346 C1358 1.410 . S
C1347 C1349 1.444 . S
C1347 C1350 1.317 . S
C1347 H1370 0.929 . S
C1348 C1345 1.432 . S
C1348 C1346 1.417 . S
C1348 N1356 1.360 . S
C1349 C1345 1.414 . S
C1349 C1347 1.444 . S
C1349 C1354 1.385 . S
C1350 C1346 1.432 . S
C1350 C1347 1.317 . S
C1350 H1362 0.930 . S
C1351 C1353 1.392 . S
C1351 C1354 1.370 . S
C1351 H1363 0.931 . S
N1352 C1345 1.359 . S
N1352 C1353 1.327 . S
N1352 Tb1355 2.600 . S
C1353 C1351 1.392 . S
C1353 N1352 1.327 . S
C1353 H1360 0.930 . S
C1354 C1349 1.385 . S
C1354 C1351 1.370 . S
C1354 H1373 0.930 . S
Tb1355 N1352 2.600 . S
Tb1355 N1356 2.660 . S
Tb1355 O1389 2.362 . S
Tb1355 O1390 2.421 . S
Tb1355 O1394 2.546 . S
Tb1355 O1395 2.610 . S
Tb1355 O1397 2.320 . S
Tb1355 O1398 2.552 . S
Tb1355 O1399 2.413 . S
Tb1355 C1419 2.833 . S
N1356 C1348 1.360 . S
N1356 Tb1355 2.660 . S
N1356 C1357 1.305 . S
C1357 N1356 1.305 . S
C1357 C1359 1.407 . S
C1357 H1364 0.930 . S
C1358 C1346 1.410 . S
C1358 C1359 1.345 . S
C1358 H1366 0.930 . S
C1359 C1357 1.407 . S
C1359 C1358 1.345 . S
C1359 H1361 0.930 . S
H1360 C1353 0.930 . S
H1361 C1359 0.930 . S
H1362 C1350 0.930 . S
H1363 C1351 0.931 . S
H1364 C1357 0.930 . S
H1365 C1379 0.930 . S
H1366 C1358 0.930 . S
H1367 C1385 0.930 . S
H1368 C1376 0.930 . S
H1369 C1383 0.931 . S
H1370 C1347 0.929 . S
H1371 C1377 0.930 . S
H1372 C1410 0.930 . S
H1373 C1354 0.930 . S
H1374 C1409 0.929 . S
N1375 Tb1344 2.660 . S
N1375 C1376 1.305 . S
N1375 C1380 1.360 . S
C1376 H1368 0.930 . S
C1376 N1375 1.305 . S
C1376 C1379 1.407 . S
C1377 H1371 0.930 . S
C1377 C1378 1.410 . S
C1377 C1379 1.345 . S
C1378 C1377 1.410 . S
C1378 C1380 1.417 . S
C1378 C1410 1.432 . S
C1379 H1365 0.930 . S
C1379 C1376 1.407 . S
C1379 C1377 1.345 . S
C1380 N1375 1.360 . S
C1380 C1378 1.417 . S
C1380 C1384 1.432 . S
H1381 C1386 0.930 . S
N1382 Tb1344 2.600 . S
N1382 C1384 1.359 . S
N1382 C1385 1.327 . S
C1383 H1369 0.931 . S
C1383 C1385 1.392 . S
C1383 C1386 1.370 . S
C1384 C1380 1.432 . S
C1384 N1382 1.359 . S
C1384 C1387 1.414 . S
C1385 H1367 0.930 . S
C1385 N1382 1.327 . S
C1385 C1383 1.392 . S
C1386 H1381 0.930 . S
C1386 C1383 1.370 . S
C1386 C1387 1.385 . S
C1387 C1384 1.414 . S
C1387 C1386 1.385 . S
C1387 C1409 1.444 . S
O1388 Tb1344 2.546 . S
O1388 C1408 1.251 . S
O1389 Tb1344 2.610 . S
O1389 Tb1355 2.362 . S
O1389 C1400 1.283 . S
O1390 Tb1355 2.421 . S
O1390 C1407 1.262 . S
O1391 Tb1344 2.320 . S
O1391 C1407 1.260 . S
O1392 Tb1344 2.552 . S
O1392 C1400 1.243 . S
O1393 Tb1344 2.413 . S
O1393 C1408 1.256 . S
O1394 Tb1355 2.546 . S
O1394 C1419 1.251 . S
O1395 Tb1344 2.362 . S
O1395 Tb1355 2.610 . S
O1395 C1411 1.283 . S
O1396 Tb1344 2.421 . S
O1396 C1418 1.262 . S
O1397 Tb1355 2.320 . S
O1397 C1418 1.260 . S
O1398 Tb1355 2.552 . S
O1398 C1411 1.243 . S
O1399 Tb1355 2.413 . S
O1399 C1419 1.256 . S
C1400 O1389 1.283 . S
C1400 O1392 1.243 . S
C1401 C1403 1.382 . S
C1401 C1405 1.393 . S
C1401 C1408 1.500 . S
C1402 C1403 1.400 . S
C1402 C1404 1.384 . S
C1403 C1401 1.382 . S
C1403 C1402 1.400 . S
C1403 H1420 0.930 . S
C1404 C1402 1.384 . S
C1404 C1406 1.392 . S
C1404 H1421 0.931 . S
C1405 C1401 1.393 . S
C1405 C1406 1.401 . S
C1405 H1422 0.930 . S
C1406 C1404 1.392 . S
C1406 C1405 1.401 . S
C1406 H1423 0.930 . S
C1407 O1390 1.262 . S
C1407 O1391 1.260 . S
C1408 Tb1344 2.833 . S
C1408 O1388 1.251 . S
C1408 O1393 1.256 . S
C1408 C1401 1.500 . S
C1409 H1374 0.929 . S
C1409 C1387 1.444 . S
C1409 C1410 1.317 . S
C1410 H1372 0.930 . S
C1410 C1378 1.432 . S
C1410 C1409 1.317 . S
C1411 O1395 1.283 . S
C1411 O1398 1.243 . S
C1412 C1413 1.382 . S
C1412 C1416 1.393 . S
C1412 C1419 1.500 . S
C1413 C1412 1.382 . S
C1413 C1414 1.400 . S
C1413 H1424 0.930 . S
C1414 C1413 1.400 . S
C1414 C1415 1.384 . S
C1415 C1414 1.384 . S
C1415 C1417 1.392 . S
C1415 H1425 0.931 . S
C1416 C1412 1.393 . S
C1416 C1417 1.401 . S
C1416 H1426 0.930 . S
C1417 C1415 1.392 . S
C1417 C1416 1.401 . S
C1417 H1427 0.930 . S
C1418 O1396 1.262 . S
C1418 O1397 1.260 . S
C1419 Tb1355 2.833 . S
C1419 O1394 1.251 . S
C1419 O1399 1.256 . S
C1419 C1412 1.500 . S
H1420 C1403 0.930 . S
H1421 C1404 0.931 . S
H1422 C1405 0.930 . S
H1423 C1406 0.930 . S
H1424 C1413 0.930 . S
H1425 C1415 0.931 . S
H1426 C1416 0.930 . S
H1427 C1417 0.930 . S
Tb1428 N1459 2.660 . S
Tb1428 N1466 2.600 . S
Tb1428 O1472 2.546 . S
Tb1428 O1473 2.610 . S
Tb1428 O1475 2.320 . S
Tb1428 O1476 2.552 . S
Tb1428 O1477 2.413 . S
Tb1428 O1479 2.362 . S
Tb1428 O1480 2.421 . S
Tb1428 C1492 2.833 . S
C1429 C1432 1.432 . S
C1429 C1433 1.414 . S
C1429 N1436 1.359 . S
C1430 C1432 1.417 . S
C1430 C1434 1.432 . S
C1430 C1442 1.410 . S
C1431 C1433 1.444 . S
C1431 C1434 1.317 . S
C1431 H1454 0.929 . S
C1432 C1429 1.432 . S
C1432 C1430 1.417 . S
C1432 N1440 1.360 . S
C1433 C1429 1.414 . S
C1433 C1431 1.444 . S
C1433 C1438 1.385 . S
C1434 C1430 1.432 . S
C1434 C1431 1.317 . S
C1434 H1446 0.930 . S
C1435 C1437 1.392 . S
C1435 C1438 1.370 . S
C1435 H1447 0.931 . S
N1436 C1429 1.359 . S
N1436 C1437 1.327 . S
N1436 Tb1439 2.600 . S
C1437 C1435 1.392 . S
C1437 N1436 1.327 . S
C1437 H1444 0.930 . S
C1438 C1433 1.385 . S
C1438 C1435 1.370 . S
C1438 H1457 0.930 . S
Tb1439 N1436 2.600 . S
Tb1439 N1440 2.660 . S
Tb1439 O1473 2.362 . S
Tb1439 O1474 2.421 . S
Tb1439 O1478 2.546 . S
Tb1439 O1479 2.610 . S
Tb1439 O1481 2.320 . S
Tb1439 O1482 2.552 . S
Tb1439 O1483 2.413 . S
Tb1439 C1503 2.833 . S
N1440 C1432 1.360 . S
N1440 Tb1439 2.660 . S
N1440 C1441 1.305 . S
C1441 N1440 1.305 . S
C1441 C1443 1.407 . S
C1441 H1448 0.930 . S
C1442 C1430 1.410 . S
C1442 C1443 1.345 . S
C1442 H1450 0.930 . S
C1443 C1441 1.407 . S
C1443 C1442 1.345 . S
C1443 H1445 0.930 . S
H1444 C1437 0.930 . S
H1445 C1443 0.930 . S
H1446 C1434 0.930 . S
H1447 C1435 0.931 . S
H1448 C1441 0.930 . S
H1449 C1463 0.930 . S
H1450 C1442 0.930 . S
H1451 C1469 0.930 . S
H1452 C1460 0.930 . S
H1453 C1467 0.931 . S
H1454 C1431 0.929 . S
H1455 C1461 0.930 . S
H1456 C1494 0.930 . S
H1457 C1438 0.930 . S
H1458 C1493 0.929 . S
N1459 Tb1428 2.660 . S
N1459 C1460 1.305 . S
N1459 C1464 1.360 . S
C1460 H1452 0.930 . S
C1460 N1459 1.305 . S
C1460 C1463 1.407 . S
C1461 H1455 0.930 . S
C1461 C1462 1.410 . S
C1461 C1463 1.345 . S
C1462 C1461 1.410 . S
C1462 C1464 1.417 . S
C1462 C1494 1.432 . S
C1463 H1449 0.930 . S
C1463 C1460 1.407 . S
C1463 C1461 1.345 . S
C1464 N1459 1.360 . S
C1464 C1462 1.417 . S
C1464 C1468 1.432 . S
H1465 C1470 0.930 . S
N1466 Tb1428 2.600 . S
N1466 C1468 1.359 . S
N1466 C1469 1.327 . S
C1467 H1453 0.931 . S
C1467 C1469 1.392 . S
C1467 C1470 1.370 . S
C1468 C1464 1.432 . S
C1468 N1466 1.359 . S
C1468 C1471 1.414 . S
C1469 H1451 0.930 . S
C1469 N1466 1.327 . S
C1469 C1467 1.392 . S
C1470 H1465 0.930 . S
C1470 C1467 1.370 . S
C1470 C1471 1.385 . S
C1471 C1468 1.414 . S
C1471 C1470 1.385 . S
C1471 C1493 1.444 . S
O1472 Tb1428 2.546 . S
O1472 C1492 1.251 . S
O1473 Tb1428 2.610 . S
O1473 Tb1439 2.362 . S
O1473 C1484 1.283 . S
O1474 Tb1439 2.421 . S
O1474 C1491 1.262 . S
O1475 Tb1428 2.320 . S
O1475 C1491 1.260 . S
O1476 Tb1428 2.552 . S
O1476 C1484 1.243 . S
O1477 Tb1428 2.413 . S
O1477 C1492 1.256 . S
O1478 Tb1439 2.546 . S
O1478 C1503 1.251 . S
O1479 Tb1428 2.362 . S
O1479 Tb1439 2.610 . S
O1479 C1495 1.283 . S
O1480 Tb1428 2.421 . S
O1480 C1502 1.262 . S
O1481 Tb1439 2.320 . S
O1481 C1502 1.260 . S
O1482 Tb1439 2.552 . S
O1482 C1495 1.243 . S
O1483 Tb1439 2.413 . S
O1483 C1503 1.256 . S
C1484 O1473 1.283 . S
C1484 O1476 1.243 . S
C1485 C1487 1.382 . S
C1485 C1489 1.393 . S
C1485 C1492 1.500 . S
C1486 C1487 1.400 . S
C1486 C1488 1.384 . S
C1487 C1485 1.382 . S
C1487 C1486 1.400 . S
C1487 H1504 0.930 . S
C1488 C1486 1.384 . S
C1488 C1490 1.392 . S
C1488 H1505 0.931 . S
C1489 C1485 1.393 . S
C1489 C1490 1.401 . S
C1489 H1506 0.930 . S
C1490 C1488 1.392 . S
C1490 C1489 1.401 . S
C1490 H1507 0.930 . S
C1491 O1474 1.262 . S
C1491 O1475 1.260 . S
C1492 Tb1428 2.833 . S
C1492 O1472 1.251 . S
C1492 O1477 1.256 . S
C1492 C1485 1.500 . S
C1493 H1458 0.929 . S
C1493 C1471 1.444 . S
C1493 C1494 1.317 . S
C1494 H1456 0.930 . S
C1494 C1462 1.432 . S
C1494 C1493 1.317 . S
C1495 O1479 1.283 . S
C1495 O1482 1.243 . S
C1496 C1497 1.382 . S
C1496 C1500 1.393 . S
C1496 C1503 1.500 . S
C1497 C1496 1.382 . S
C1497 C1498 1.400 . S
C1497 H1508 0.930 . S
C1498 C1497 1.400 . S
C1498 C1499 1.384 . S
C1499 C1498 1.384 . S
C1499 C1501 1.392 . S
C1499 H1509 0.931 . S
C1500 C1496 1.393 . S
C1500 C1501 1.401 . S
C1500 H1510 0.930 . S
C1501 C1499 1.392 . S
C1501 C1500 1.401 . S
C1501 H1511 0.930 . S
C1502 O1480 1.262 . S
C1502 O1481 1.260 . S
C1503 Tb1439 2.833 . S
C1503 O1478 1.251 . S
C1503 O1483 1.256 . S
C1503 C1496 1.500 . S
H1504 C1487 0.930 . S
H1505 C1488 0.931 . S
H1506 C1489 0.930 . S
H1507 C1490 0.930 . S
H1508 C1497 0.930 . S
H1509 C1499 0.931 . S
H1510 C1500 0.930 . S
H1511 C1501 0.930 . S
Tb1512 N1543 2.660 . S
Tb1512 N1550 2.600 . S
Tb1512 O1556 2.546 . S
Tb1512 O1557 2.610 . S
Tb1512 O1559 2.320 . S
Tb1512 O1560 2.552 . S
Tb1512 O1561 2.413 . S
Tb1512 O1563 2.362 . S
Tb1512 O1564 2.421 . S
Tb1512 C1576 2.833 . S
C1513 C1516 1.432 . S
C1513 C1517 1.414 . S
C1513 N1520 1.359 . S
C1514 C1516 1.417 . S
C1514 C1518 1.432 . S
C1514 C1526 1.410 . S
C1515 C1517 1.444 . S
C1515 C1518 1.317 . S
C1515 H1538 0.929 . S
C1516 C1513 1.432 . S
C1516 C1514 1.417 . S
C1516 N1524 1.360 . S
C1517 C1513 1.414 . S
C1517 C1515 1.444 . S
C1517 C1522 1.385 . S
C1518 C1514 1.432 . S
C1518 C1515 1.317 . S
C1518 H1530 0.930 . S
C1519 C1521 1.392 . S
C1519 C1522 1.370 . S
C1519 H1531 0.931 . S
N1520 C1513 1.359 . S
N1520 C1521 1.327 . S
N1520 Tb1523 2.600 . S
C1521 C1519 1.392 . S
C1521 N1520 1.327 . S
C1521 H1528 0.930 . S
C1522 C1517 1.385 . S
C1522 C1519 1.370 . S
C1522 H1541 0.930 . S
Tb1523 N1520 2.600 . S
Tb1523 N1524 2.660 . S
Tb1523 O1557 2.362 . S
Tb1523 O1558 2.421 . S
Tb1523 O1562 2.546 . S
Tb1523 O1563 2.610 . S
Tb1523 O1565 2.320 . S
Tb1523 O1566 2.552 . S
Tb1523 O1567 2.413 . S
Tb1523 C1587 2.833 . S
N1524 C1516 1.360 . S
N1524 Tb1523 2.660 . S
N1524 C1525 1.305 . S
C1525 N1524 1.305 . S
C1525 C1527 1.407 . S
C1525 H1532 0.930 . S
C1526 C1514 1.410 . S
C1526 C1527 1.345 . S
C1526 H1534 0.930 . S
C1527 C1525 1.407 . S
C1527 C1526 1.345 . S
C1527 H1529 0.930 . S
H1528 C1521 0.930 . S
H1529 C1527 0.930 . S
H1530 C1518 0.930 . S
H1531 C1519 0.931 . S
H1532 C1525 0.930 . S
H1533 C1547 0.930 . S
H1534 C1526 0.930 . S
H1535 C1553 0.930 . S
H1536 C1544 0.930 . S
H1537 C1551 0.931 . S
H1538 C1515 0.929 . S
H1539 C1545 0.930 . S
H1540 C1578 0.930 . S
H1541 C1522 0.930 . S
H1542 C1577 0.929 . S
N1543 Tb1512 2.660 . S
N1543 C1544 1.305 . S
N1543 C1548 1.360 . S
C1544 H1536 0.930 . S
C1544 N1543 1.305 . S
C1544 C1547 1.407 . S
C1545 H1539 0.930 . S
C1545 C1546 1.410 . S
C1545 C1547 1.345 . S
C1546 C1545 1.410 . S
C1546 C1548 1.417 . S
C1546 C1578 1.432 . S
C1547 H1533 0.930 . S
C1547 C1544 1.407 . S
C1547 C1545 1.345 . S
C1548 N1543 1.360 . S
C1548 C1546 1.417 . S
C1548 C1552 1.432 . S
H1549 C1554 0.930 . S
N1550 Tb1512 2.600 . S
N1550 C1552 1.359 . S
N1550 C1553 1.327 . S
C1551 H1537 0.931 . S
C1551 C1553 1.392 . S
C1551 C1554 1.370 . S
C1552 C1548 1.432 . S
C1552 N1550 1.359 . S
C1552 C1555 1.414 . S
C1553 H1535 0.930 . S
C1553 N1550 1.327 . S
C1553 C1551 1.392 . S
C1554 H1549 0.930 . S
C1554 C1551 1.370 . S
C1554 C1555 1.385 . S
C1555 C1552 1.414 . S
C1555 C1554 1.385 . S
C1555 C1577 1.444 . S
O1556 Tb1512 2.546 . S
O1556 C1576 1.251 . S
O1557 Tb1512 2.610 . S
O1557 Tb1523 2.362 . S
O1557 C1568 1.283 . S
O1558 Tb1523 2.421 . S
O1558 C1575 1.262 . S
O1559 Tb1512 2.320 . S
O1559 C1575 1.260 . S
O1560 Tb1512 2.552 . S
O1560 C1568 1.243 . S
O1561 Tb1512 2.413 . S
O1561 C1576 1.256 . S
O1562 Tb1523 2.546 . S
O1562 C1587 1.251 . S
O1563 Tb1512 2.362 . S
O1563 Tb1523 2.610 . S
O1563 C1579 1.283 . S
O1564 Tb1512 2.421 . S
O1564 C1586 1.262 . S
O1565 Tb1523 2.320 . S
O1565 C1586 1.260 . S
O1566 Tb1523 2.552 . S
O1566 C1579 1.243 . S
O1567 Tb1523 2.413 . S
O1567 C1587 1.256 . S
C1568 O1557 1.283 . S
C1568 O1560 1.243 . S
C1569 C1571 1.382 . S
C1569 C1573 1.393 . S
C1569 C1576 1.500 . S
C1570 C1571 1.400 . S
C1570 C1572 1.384 . S
C1571 C1569 1.382 . S
C1571 C1570 1.400 . S
C1571 H1588 0.930 . S
C1572 C1570 1.384 . S
C1572 C1574 1.392 . S
C1572 H1589 0.931 . S
C1573 C1569 1.393 . S
C1573 C1574 1.401 . S
C1573 H1590 0.930 . S
C1574 C1572 1.392 . S
C1574 C1573 1.401 . S
C1574 H1591 0.930 . S
C1575 O1558 1.262 . S
C1575 O1559 1.260 . S
C1576 Tb1512 2.833 . S
C1576 O1556 1.251 . S
C1576 O1561 1.256 . S
C1576 C1569 1.500 . S
C1577 H1542 0.929 . S
C1577 C1555 1.444 . S
C1577 C1578 1.317 . S
C1578 H1540 0.930 . S
C1578 C1546 1.432 . S
C1578 C1577 1.317 . S
C1579 O1563 1.283 . S
C1579 O1566 1.243 . S
C1580 C1581 1.382 . S
C1580 C1584 1.393 . S
C1580 C1587 1.500 . S
C1581 C1580 1.382 . S
C1581 C1582 1.400 . S
C1581 H1592 0.930 . S
C1582 C1581 1.400 . S
C1582 C1583 1.384 . S
C1583 C1582 1.384 . S
C1583 C1585 1.392 . S
C1583 H1593 0.931 . S
C1584 C1580 1.393 . S
C1584 C1585 1.401 . S
C1584 H1594 0.930 . S
C1585 C1583 1.392 . S
C1585 C1584 1.401 . S
C1585 H1595 0.930 . S
C1586 O1564 1.262 . S
C1586 O1565 1.260 . S
C1587 Tb1523 2.833 . S
C1587 O1562 1.251 . S
C1587 O1567 1.256 . S
C1587 C1580 1.500 . S
H1588 C1571 0.930 . S
H1589 C1572 0.931 . S
H1590 C1573 0.930 . S
H1591 C1574 0.930 . S
H1592 C1581 0.930 . S
H1593 C1583 0.931 . S
H1594 C1584 0.930 . S
H1595 C1585 0.930 . S
Tb1596 N1627 2.660 . S
Tb1596 N1634 2.600 1_554 S
Tb1596 O1640 2.546 1_554 S
Tb1596 O1641 2.610 . S
Tb1596 O1643 2.320 . S
Tb1596 O1644 2.552 . S
Tb1596 O1645 2.413 . S
Tb1596 O1647 2.362 . S
Tb1596 O1648 2.421 1_554 S
Tb1596 C1660 2.833 1_554 S
C1597 C1600 1.432 . S
C1597 C1601 1.414 . S
C1597 N1604 1.359 1_655 S
C1598 C1600 1.417 . S
C1598 C1602 1.432 . S
C1598 C1610 1.386 1_554 S
C1599 C1601 1.444 . S
C1599 C1602 1.317 . S
C1599 H1622 0.929 . S
C1600 C1597 1.432 . S
C1600 C1598 1.417 . S
C1600 N1608 1.360 1_655 S
C1601 C1597 1.414 . S
C1601 C1599 1.444 . S
C1601 C1606 1.385 . S
C1602 C1598 1.432 . S
C1602 C1599 1.317 . S
C1602 H1614 0.930 . S
C1603 C1605 1.392 . S
C1603 C1606 1.370 1_455 S
C1603 H1615 0.931 . S
N1604 C1597 1.359 1_455 S
N1604 C1605 1.327 . S
N1604 Tb1607 2.600 . S
C1605 C1603 1.392 . S
C1605 N1604 1.327 . S
C1605 H1612 0.930 . S
C1606 C1601 1.385 . S
C1606 C1603 1.370 1_655 S
C1606 H1625 0.930 . S
Tb1607 N1604 2.600 . S
Tb1607 N1608 2.660 . S
Tb1607 O1641 2.362 . S
Tb1607 O1642 2.421 . S
Tb1607 O1646 2.546 . S
Tb1607 O1647 2.610 . S
Tb1607 O1649 2.310 1_554 S
Tb1607 O1650 2.552 . S
Tb1607 O1651 2.413 1_455 S
Tb1607 C1671 2.833 1_455 S
N1608 C1600 1.360 1_455 S
N1608 Tb1607 2.660 . S
N1608 C1609 1.305 1_454 S
C1609 N1608 1.305 1_656 S
C1609 C1611 1.407 . S
C1609 H1616 0.930 1_655 S
C1610 C1598 1.386 1_556 S
C1610 C1611 1.363 . S
C1610 H1618 0.936 . S
C1611 C1609 1.407 . S
C1611 C1610 1.363 . S
C1611 H1613 0.930 . S
H1612 C1605 0.930 . S
H1613 C1611 0.930 . S
H1614 C1602 0.930 . S
H1615 C1603 0.931 . S
H1616 C1609 0.930 1_455 S
H1617 C1631 0.930 . S
H1618 C1610 0.936 . S
H1619 C1637 0.930 . S
H1620 C1628 0.930 . S
H1621 C1635 0.931 . S
H1622 C1599 0.929 . S
H1623 C1629 0.930 . S
H1624 C1662 0.930 . S
H1625 C1606 0.930 . S
H1626 C1661 0.929 . S
N1627 Tb1596 2.660 . S
N1627 C1628 1.305 . S
N1627 C1632 1.360 . S
C1628 H1620 0.930 . S
C1628 N1627 1.305 . S
C1628 C1631 1.407 . S
C1629 H1623 0.930 . S
C1629 C1630 1.410 . S
C1629 C1631 1.345 . S
C1630 C1629 1.410 . S
C1630 C1632 1.417 . S
C1630 C1662 1.432 . S
C1631 H1617 0.930 . S
C1631 C1628 1.407 . S
C1631 C1629 1.345 . S
C1632 N1627 1.360 . S
C1632 C1630 1.417 . S
C1632 C1636 1.432 1_554 S
H1633 C1638 0.930 . S
N1634 Tb1596 2.600 1_556 S
N1634 C1636 1.359 . S
N1634 C1637 1.327 . S
C1635 H1621 0.931 . S
C1635 C1637 1.392 . S
C1635 C1638 1.370 . S
C1636 C1632 1.432 1_556 S
C1636 N1634 1.359 . S
C1636 C1639 1.414 . S
C1637 H1619 0.930 . S
C1637 N1634 1.327 . S
C1637 C1635 1.392 . S
C1638 H1633 0.930 . S
C1638 C1635 1.370 . S
C1638 C1639 1.385 . S
C1639 C1636 1.414 . S
C1639 C1638 1.385 . S
C1639 C1661 1.444 . S
O1640 Tb1596 2.546 1_556 S
O1640 C1660 1.251 . S
O1641 Tb1596 2.610 . S
O1641 Tb1607 2.362 . S
O1641 C1652 1.283 . S
O1642 Tb1607 2.421 . S
O1642 C1659 1.262 . S
O1643 Tb1596 2.320 . S
O1643 C1659 1.260 . S
O1644 Tb1596 2.552 . S
O1644 C1652 1.243 . S
O1645 Tb1596 2.413 . S
O1645 C1660 1.256 1_554 S
O1646 Tb1607 2.546 . S
O1646 C1671 1.251 1_455 S
O1647 Tb1596 2.362 . S
O1647 Tb1607 2.610 . S
O1647 C1663 1.283 . S
O1648 Tb1596 2.421 1_556 S
O1648 C1670 1.262 . S
O1649 Tb1607 2.310 1_556 S
O1649 C1670 1.268 . S
O1650 Tb1607 2.552 . S
O1650 C1663 1.243 . S
O1651 Tb1607 2.413 1_655 S
O1651 C1671 1.256 . S
C1652 O1641 1.283 . S
C1652 O1644 1.243 . S
C1653 C1655 1.382 1_556 S
C1653 C1657 1.393 . S
C1653 C1660 1.500 . S
C1654 C1655 1.400 . S
C1654 C1656 1.384 1_554 S
C1655 C1653 1.382 1_554 S
C1655 C1654 1.400 . S
C1655 H1672 0.930 . S
C1656 C1654 1.384 1_556 S
C1656 C1658 1.392 . S
C1656 H1673 0.931 . S
C1657 C1653 1.393 . S
C1657 C1658 1.401 . S
C1657 H1674 0.930 . S
C1658 C1656 1.392 . S
C1658 C1657 1.401 . S
C1658 H1675 0.930 . S
C1659 O1642 1.262 . S
C1659 O1643 1.260 . S
C1660 Tb1596 2.833 1_556 S
C1660 O1640 1.251 . S
C1660 O1645 1.256 1_556 S
C1660 C1653 1.500 . S
C1661 H1626 0.929 . S
C1661 C1639 1.444 . S
C1661 C1662 1.317 1_556 S
C1662 H1624 0.930 . S
C1662 C1630 1.432 . S
C1662 C1661 1.317 1_554 S
C1663 O1647 1.283 . S
C1663 O1650 1.243 . S
C1664 C1665 1.382 . S
C1664 C1668 1.393 . S
C1664 C1671 1.500 . S
C1665 C1664 1.382 . S
C1665 C1666 1.400 . S
C1665 H1676 0.930 . S
C1666 C1665 1.400 . S
C1666 C1667 1.384 . S
C1667 C1666 1.384 . S
C1667 C1669 1.392 . S
C1667 H1677 0.931 . S
C1668 C1664 1.393 . S
C1668 C1669 1.401 . S
C1668 H1678 0.930 . S
C1669 C1667 1.392 . S
C1669 C1668 1.401 . S
C1669 H1679 0.930 . S
C1670 O1648 1.262 . S
C1670 O1649 1.268 . S
C1671 Tb1607 2.833 1_655 S
C1671 O1646 1.251 1_655 S
C1671 O1651 1.256 . S
C1671 C1664 1.500 . S
H1672 C1655 0.930 . S
H1673 C1656 0.931 . S
H1674 C1657 0.930 . S
H1675 C1658 0.930 . S
H1676 C1665 0.930 . S
H1677 C1667 0.931 . S
H1678 C1668 0.930 . S
H1679 C1669 0.930 . S
C1680 C1681 1.349 . S
C1680 C1682 1.327 . S
C1680 H1705 0.950 . S
C1681 C1680 1.349 . S
C1681 C1697 1.349 . S
C1682 C1680 1.327 . S
C1682 C1701 1.429 . S
C1682 H1706 0.950 . S
C1683 C1700 1.574 1_556 S
C1683 C1702 1.368 . S
C1683 H1707 0.949 1_556 S
H1684 C1688 0.949 . S
C1685 C1686 1.349 . S
C1685 C1687 1.327 . S
C1685 H1708 0.950 . S
C1686 C1685 1.349 . S
C1686 C1698 1.349 1_554 S
C1687 C1685 1.327 . S
C1687 C1703 1.435 1_554 S
C1687 H1709 0.950 . S
C1688 H1684 0.949 . S
C1688 C1696 1.574 . S
C1688 C1704 1.368 . S
H1689 C1697 0.950 . S
H1690 C1695 0.950 . S
H1691 C1696 0.949 . S
H1692 C1698 0.950 . S
H1693 C1699 0.950 . S
H1694 C1700 0.949 . S
C1695 H1690 0.950 . S
C1695 C1697 1.327 . S
C1695 C1701 1.429 . S
C1696 C1688 1.574 . S
C1696 H1691 0.949 . S
C1696 C1702 1.368 . S
C1697 C1681 1.349 . S
C1697 H1689 0.950 . S
C1697 C1695 1.327 . S
C1698 C1686 1.349 1_556 S
C1698 H1692 0.950 . S
C1698 C1699 1.327 . S
C1699 H1693 0.950 . S
C1699 C1698 1.327 . S
C1699 C1703 1.426 . S
C1700 C1683 1.574 1_554 S
C1700 H1694 0.949 . S
C1700 C1704 1.368 1_554 S
C1701 C1682 1.429 . S
C1701 C1695 1.429 . S
C1701 C1702 1.523 . S
C1702 C1683 1.368 . S
C1702 C1696 1.368 . S
C1702 C1701 1.523 . S
C1703 C1687 1.435 1_556 S
C1703 C1699 1.426 . S
C1703 C1704 1.520 . S
C1704 C1688 1.368 . S
C1704 C1700 1.368 1_556 S
C1704 C1703 1.520 . S
H1705 C1680 0.950 . S
H1706 C1682 0.950 . S
H1707 C1683 0.949 1_554 S
H1708 C1685 0.950 . S
H1709 C1687 0.950 . S
C1710 C1711 1.349 . S
C1710 C1712 1.327 . S
C1710 H1735 0.950 . S
C1711 C1710 1.349 . S
C1711 C1727 1.349 . S
C1712 C1710 1.327 . S
C1712 C1731 1.429 . S
C1712 H1736 0.950 . S
C1713 C1730 1.574 . S
C1713 C1732 1.368 . S
C1713 H1737 0.949 . S
H1714 C1718 0.949 . S
C1715 C1716 1.349 . S
C1715 C1717 1.327 . S
C1715 H1738 0.950 . S
C1716 C1715 1.349 . S
C1716 C1728 1.349 . S
C1717 C1715 1.327 . S
C1717 C1733 1.429 . S
C1717 H1739 0.950 . S
C1718 H1714 0.949 . S
C1718 C1726 1.574 . S
C1718 C1734 1.368 . S
H1719 C1727 0.950 . S
H1720 C1725 0.950 . S
H1721 C1726 0.949 . S
H1722 C1728 0.950 . S
H1723 C1729 0.950 . S
H1724 C1730 0.949 . S
C1725 H1720 0.950 . S
C1725 C1727 1.327 . S
C1725 C1731 1.429 . S
C1726 C1718 1.574 . S
C1726 H1721 0.949 . S
C1726 C1732 1.368 . S
C1727 C1711 1.349 . S
C1727 H1719 0.950 . S
C1727 C1725 1.327 . S
C1728 C1716 1.349 . S
C1728 H1722 0.950 . S
C1728 C1729 1.327 . S
C1729 H1723 0.950 . S
C1729 C1728 1.327 . S
C1729 C1733 1.429 . S
C1730 C1713 1.574 . S
C1730 H1724 0.949 . S
C1730 C1734 1.368 . S
C1731 C1712 1.429 . S
C1731 C1725 1.429 . S
C1731 C1732 1.523 . S
C1732 C1713 1.368 . S
C1732 C1726 1.368 . S
C1732 C1731 1.523 . S
C1733 C1717 1.429 . S
C1733 C1729 1.429 . S
C1733 C1734 1.523 . S
C1734 C1718 1.368 . S
C1734 C1730 1.368 . S
C1734 C1733 1.523 . S
H1735 C1710 0.950 . S
H1736 C1712 0.950 . S
H1737 C1713 0.949 . S
H1738 C1715 0.950 . S
H1739 C1717 0.950 . S
C1740 C1741 1.349 . S
C1740 C1742 1.327 . S
C1740 H1765 0.950 . S
C1741 C1740 1.349 . S
C1741 C1757 1.349 . S
C1742 C1740 1.327 . S
C1742 C1761 1.429 . S
C1742 H1766 0.950 . S
C1743 C1760 1.574 . S
C1743 C1762 1.368 . S
C1743 H1767 0.949 . S
H1744 C1748 0.949 . S
C1745 C1746 1.349 . S
C1745 C1747 1.327 . S
C1745 H1768 0.950 . S
C1746 C1745 1.349 . S
C1746 C1758 1.349 . S
C1747 C1745 1.327 . S
C1747 C1763 1.429 . S
C1747 H1769 0.950 . S
C1748 H1744 0.949 . S
C1748 C1756 1.574 . S
C1748 C1764 1.368 . S
H1749 C1757 0.950 . S
H1750 C1755 0.950 . S
H1751 C1756 0.949 . S
H1752 C1758 0.950 . S
H1753 C1759 0.950 . S
H1754 C1760 0.949 . S
C1755 H1750 0.950 . S
C1755 C1757 1.327 . S
C1755 C1761 1.429 . S
C1756 C1748 1.574 . S
C1756 H1751 0.949 . S
C1756 C1762 1.368 . S
C1757 C1741 1.349 . S
C1757 H1749 0.950 . S
C1757 C1755 1.327 . S
C1758 C1746 1.349 . S
C1758 H1752 0.950 . S
C1758 C1759 1.327 . S
C1759 H1753 0.950 . S
C1759 C1758 1.327 . S
C1759 C1763 1.429 . S
C1760 C1743 1.574 . S
C1760 H1754 0.949 . S
C1760 C1764 1.368 . S
C1761 C1742 1.429 . S
C1761 C1755 1.429 . S
C1761 C1762 1.523 . S
C1762 C1743 1.368 . S
C1762 C1756 1.368 . S
C1762 C1761 1.523 . S
C1763 C1747 1.429 . S
C1763 C1759 1.429 . S
C1763 C1764 1.523 . S
C1764 C1748 1.368 . S
C1764 C1760 1.368 . S
C1764 C1763 1.523 . S
H1765 C1740 0.950 . S
H1766 C1742 0.950 . S
H1767 C1743 0.949 . S
H1768 C1745 0.950 . S
H1769 C1747 0.950 . S
C1770 C1771 1.349 . S
C1770 C1772 1.327 . S
C1770 H1795 0.950 . S
C1771 C1770 1.349 . S
C1771 C1787 1.349 . S
C1772 C1770 1.327 . S
C1772 C1791 1.429 . S
C1772 H1796 0.950 . S
C1773 C1790 1.574 . S
C1773 C1792 1.368 . S
C1773 H1797 0.949 . S
H1774 C1778 0.949 . S
C1775 C1776 1.349 . S
C1775 C1777 1.327 . S
C1775 H1798 0.950 . S
C1776 C1775 1.349 . S
C1776 C1788 1.349 . S
C1777 C1775 1.327 . S
C1777 C1793 1.429 . S
C1777 H1799 0.950 . S
C1778 H1774 0.949 . S
C1778 C1786 1.574 . S
C1778 C1794 1.368 . S
H1779 C1787 0.950 . S
H1780 C1785 0.950 . S
H1781 C1786 0.949 . S
H1782 C1788 0.950 . S
H1783 C1789 0.950 . S
H1784 C1790 0.949 . S
C1785 H1780 0.950 . S
C1785 C1787 1.327 . S
C1785 C1791 1.429 . S
C1786 C1778 1.574 . S
C1786 H1781 0.949 . S
C1786 C1792 1.368 . S
C1787 C1771 1.349 . S
C1787 H1779 0.950 . S
C1787 C1785 1.327 . S
C1788 C1776 1.349 . S
C1788 H1782 0.950 . S
C1788 C1789 1.327 . S
C1789 H1783 0.950 . S
C1789 C1788 1.327 . S
C1789 C1793 1.429 . S
C1790 C1773 1.574 . S
C1790 H1784 0.949 . S
C1790 C1794 1.368 . S
C1791 C1772 1.429 . S
C1791 C1785 1.429 . S
C1791 C1792 1.523 . S
C1792 C1773 1.368 . S
C1792 C1786 1.368 . S
C1792 C1791 1.523 . S
C1793 C1777 1.429 . S
C1793 C1789 1.429 . S
C1793 C1794 1.523 . S
C1794 C1778 1.368 . S
C1794 C1790 1.368 . S
C1794 C1793 1.523 . S
H1795 C1770 0.950 . S
H1796 C1772 0.950 . S
H1797 C1773 0.949 . S
H1798 C1775 0.950 . S
H1799 C1777 0.950 . S
C1800 C1801 1.349 1_655 S
C1800 C1802 1.327 1_655 S
C1800 H1825 0.950 . S
C1801 C1800 1.349 1_455 S
C1801 C1817 1.349 . S
C1802 C1800 1.327 1_455 S
C1802 C1821 1.429 . S
C1802 H1826 0.950 1_455 S
C1803 C1820 1.574 . S
C1803 C1822 1.368 . S
C1803 H1827 0.949 . S
H1804 C1808 0.949 . S
C1805 C1806 1.349 . S
C1805 C1807 1.327 . S
C1805 H1828 0.950 . S
C1806 C1805 1.349 . S
C1806 C1818 1.349 . S
C1807 C1805 1.327 . S
C1807 C1823 1.429 . S
C1807 H1829 0.950 . S
C1808 H1804 0.949 . S
C1808 C1816 1.574 . S
C1808 C1824 1.368 . S
H1809 C1817 0.950 . S
H1810 C1815 0.950 . S
H1811 C1816 0.978 . S
H1812 C1818 0.950 . S
H1813 C1819 0.950 . S
H1814 C1820 0.949 . S
C1815 H1810 0.950 . S
C1815 C1817 1.327 . S
C1815 C1821 1.429 . S
C1816 C1808 1.574 . S
C1816 H1811 0.978 . S
C1816 C1822 1.368 . S
C1817 C1801 1.349 . S
C1817 H1809 0.950 . S
C1817 C1815 1.327 . S
C1818 C1806 1.349 . S
C1818 H1812 0.950 . S
C1818 C1819 1.327 . S
C1819 H1813 0.950 . S
C1819 C1818 1.327 . S
C1819 C1823 1.429 . S
C1820 C1803 1.574 . S
C1820 H1814 0.949 . S
C1820 C1824 1.368 . S
C1821 C1802 1.429 . S
C1821 C1815 1.429 . S
C1821 C1822 1.523 . S
C1822 C1803 1.368 . S
C1822 C1816 1.368 . S
C1822 C1821 1.523 . S
C1823 C1807 1.429 . S
C1823 C1819 1.429 . S
C1823 C1824 1.523 . S
C1824 C1808 1.368 . S
C1824 C1820 1.368 . S
C1824 C1823 1.523 . S
H1825 C1800 0.950 . S
H1826 C1802 0.950 1_655 S
H1827 C1803 0.949 . S
H1828 C1805 0.950 . S
H1829 C1807 0.950 . S
C1830 C1831 1.349 . S
C1830 C1832 1.327 . S
C1830 H1855 0.950 . S
C1831 C1830 1.349 . S
C1831 C1847 1.349 . S
C1832 C1830 1.327 . S
C1832 C1851 1.429 . S
C1832 H1856 0.950 . S
C1833 C1850 1.574 . S
C1833 C1852 1.368 . S
C1833 H1857 0.949 . S
H1834 C1838 0.949 . S
C1835 C1836 1.349 . S
C1835 C1837 1.327 . S
C1835 H1858 0.950 . S
C1836 C1835 1.349 . S
C1836 C1848 1.349 . S
C1837 C1835 1.327 . S
C1837 C1853 1.429 . S
C1837 H1859 0.950 . S
C1838 H1834 0.949 . S
C1838 C1846 1.574 . S
C1838 C1854 1.368 . S
H1839 C1847 0.950 . S
H1840 C1845 0.950 . S
H1841 C1846 0.949 . S
H1842 C1848 0.950 . S
H1843 C1849 0.950 . S
H1844 C1850 0.949 . S
C1845 H1840 0.950 . S
C1845 C1847 1.327 . S
C1845 C1851 1.429 . S
C1846 C1838 1.574 . S
C1846 H1841 0.949 . S
C1846 C1852 1.368 . S
C1847 C1831 1.349 . S
C1847 H1839 0.950 . S
C1847 C1845 1.327 . S
C1848 C1836 1.349 . S
C1848 H1842 0.950 . S
C1848 C1849 1.327 . S
C1849 H1843 0.950 . S
C1849 C1848 1.327 . S
C1849 C1853 1.429 . S
C1850 C1833 1.574 . S
C1850 H1844 0.949 . S
C1850 C1854 1.368 . S
C1851 C1832 1.429 . S
C1851 C1845 1.429 . S
C1851 C1852 1.523 . S
C1852 C1833 1.368 . S
C1852 C1846 1.368 . S
C1852 C1851 1.523 . S
C1853 C1837 1.429 . S
C1853 C1849 1.429 . S
C1853 C1854 1.523 . S
C1854 C1838 1.368 . S
C1854 C1850 1.368 . S
C1854 C1853 1.523 . S
H1855 C1830 0.950 . S
H1856 C1832 0.950 . S
H1857 C1833 0.949 . S
H1858 C1835 0.950 . S
H1859 C1837 0.950 . S
C1860 C1861 1.349 . S
C1860 C1862 1.327 . S
C1860 H1885 0.950 . S
C1861 C1860 1.349 . S
C1861 C1877 1.349 . S
C1862 C1860 1.327 . S
C1862 C1881 1.429 . S
C1862 H1886 0.950 . S
C1863 C1880 1.574 . S
C1863 C1882 1.368 . S
C1863 H1887 0.949 . S
H1864 C1868 0.949 . S
C1865 C1866 1.349 . S
C1865 C1867 1.327 . S
C1865 H1888 0.950 . S
C1866 C1865 1.349 . S
C1866 C1878 1.349 . S
C1867 C1865 1.327 . S
C1867 C1883 1.429 . S
C1867 H1889 0.950 . S
C1868 H1864 0.949 . S
C1868 C1876 1.574 . S
C1868 C1884 1.368 . S
H1869 C1877 0.950 . S
H1870 C1875 0.950 . S
H1871 C1876 0.949 . S
H1872 C1878 0.950 . S
H1873 C1879 0.950 . S
H1874 C1880 0.949 . S
C1875 H1870 0.950 . S
C1875 C1877 1.327 . S
C1875 C1881 1.429 . S
C1876 C1868 1.574 . S
C1876 H1871 0.949 . S
C1876 C1882 1.368 . S
C1877 C1861 1.349 . S
C1877 H1869 0.950 . S
C1877 C1875 1.327 . S
C1878 C1866 1.349 . S
C1878 H1872 0.950 . S
C1878 C1879 1.327 . S
C1879 H1873 0.950 . S
C1879 C1878 1.327 . S
C1879 C1883 1.429 . S
C1880 C1863 1.574 . S
C1880 H1874 0.949 . S
C1880 C1884 1.368 . S
C1881 C1862 1.429 . S
C1881 C1875 1.429 . S
C1881 C1882 1.523 . S
C1882 C1863 1.368 . S
C1882 C1876 1.368 . S
C1882 C1881 1.523 . S
C1883 C1867 1.429 . S
C1883 C1879 1.429 . S
C1883 C1884 1.523 . S
C1884 C1868 1.368 . S
C1884 C1880 1.368 . S
C1884 C1883 1.523 . S
H1885 C1860 0.950 . S
H1886 C1862 0.950 . S
H1887 C1863 0.949 . S
H1888 C1865 0.950 . S
H1889 C1867 0.950 . S
C1890 C1891 1.349 . S
C1890 C1892 1.327 . S
C1890 H1915 0.950 . S
C1891 C1890 1.349 . S
C1891 C1907 1.349 . S
C1892 C1890 1.327 . S
C1892 C1911 1.429 . S
C1892 H1916 0.950 . S
C1893 C1910 1.574 . S
C1893 C1912 1.368 . S
C1893 H1917 0.949 . S
H1894 C1898 0.949 . S
C1895 C1896 1.349 . S
C1895 C1897 1.327 . S
C1895 H1918 0.950 . S
C1896 C1895 1.349 . S
C1896 C1908 1.349 . S
C1897 C1895 1.327 . S
C1897 C1913 1.429 . S
C1897 H1919 0.950 . S
C1898 H1894 0.949 . S
C1898 C1906 1.574 . S
C1898 C1914 1.368 . S
H1899 C1907 0.950 . S
H1900 C1905 0.950 . S
H1901 C1906 0.949 . S
H1902 C1908 0.950 . S
H1903 C1909 0.950 . S
H1904 C1910 0.949 . S
C1905 H1900 0.950 . S
C1905 C1907 1.327 . S
C1905 C1911 1.429 . S
C1906 C1898 1.574 . S
C1906 H1901 0.949 . S
C1906 C1912 1.368 . S
C1907 C1891 1.349 . S
C1907 H1899 0.950 . S
C1907 C1905 1.327 . S
C1908 C1896 1.349 . S
C1908 H1902 0.950 . S
C1908 C1909 1.327 . S
C1909 H1903 0.950 . S
C1909 C1908 1.327 . S
C1909 C1913 1.429 . S
C1910 C1893 1.574 . S
C1910 H1904 0.949 . S
C1910 C1914 1.368 . S
C1911 C1892 1.429 . S
C1911 C1905 1.429 . S
C1911 C1912 1.523 . S
C1912 C1893 1.368 . S
C1912 C1906 1.368 . S
C1912 C1911 1.523 . S
C1913 C1897 1.429 . S
C1913 C1909 1.429 . S
C1913 C1914 1.523 . S
C1914 C1898 1.368 . S
C1914 C1910 1.368 . S
C1914 C1913 1.523 . S
H1915 C1890 0.950 . S
H1916 C1892 0.950 . S
H1917 C1893 0.949 . S
H1918 C1895 0.950 . S
H1919 C1897 0.950 . S
C1920 C1921 1.349 . S
C1920 C1922 1.327 . S
C1920 H1945 0.950 . S
C1921 C1920 1.349 . S
C1921 C1937 1.349 . S
C1922 C1920 1.327 . S
C1922 C1941 1.429 . S
C1922 H1946 0.950 . S
C1923 C1940 1.577 . S
C1923 C1942 1.365 1_455 S
C1923 H1947 0.950 . S
H1924 C1928 0.949 . S
C1925 C1926 1.349 . S
C1925 C1927 1.327 . S
C1925 H1948 0.950 . S
C1926 C1925 1.349 . S
C1926 C1938 1.349 . S
C1927 C1925 1.327 . S
C1927 C1943 1.429 . S
C1927 H1949 0.950 . S
C1928 H1924 0.949 . S
C1928 C1936 1.574 . S
C1928 C1944 1.368 1_655 S
H1929 C1937 0.950 . S
H1930 C1935 0.950 . S
H1931 C1936 0.949 . S
H1932 C1938 0.950 . S
H1933 C1939 0.950 1_655 S
H1934 C1940 0.949 . S
C1935 H1930 0.950 . S
C1935 C1937 1.327 . S
C1935 C1941 1.429 . S
C1936 C1928 1.574 . S
C1936 H1931 0.949 . S
C1936 C1942 1.368 . S
C1937 C1921 1.349 . S
C1937 H1929 0.950 . S
C1937 C1935 1.327 . S
C1938 C1926 1.349 . S
C1938 H1932 0.950 . S
C1938 C1939 1.327 . S
C1939 H1933 0.950 1_455 S
C1939 C1938 1.327 . S
C1939 C1943 1.429 . S
C1940 C1923 1.577 . S
C1940 H1934 0.949 . S
C1940 C1944 1.368 . S
C1941 C1922 1.429 . S
C1941 C1935 1.429 . S
C1941 C1942 1.523 . S
C1942 C1923 1.365 1_655 S
C1942 C1936 1.368 . S
C1942 C1941 1.523 . S
C1943 C1927 1.429 . S
C1943 C1939 1.429 . S
C1943 C1944 1.523 . S
C1944 C1928 1.368 1_455 S
C1944 C1940 1.368 . S
C1944 C1943 1.523 . S
H1945 C1920 0.950 . S
H1946 C1922 0.950 . S
H1947 C1923 0.950 . S
H1948 C1925 0.950 . S
H1949 C1927 0.950 . S
C1950 C1951 1.349 . S
C1950 C1952 1.327 . S
C1950 H1975 0.950 . S
C1951 C1950 1.349 . S
C1951 C1967 1.349 . S
C1952 C1950 1.327 . S
C1952 C1971 1.429 . S
C1952 H1976 0.950 . S
C1953 C1970 1.574 . S
C1953 C1972 1.368 . S
C1953 H1977 0.949 . S
H1954 C1958 0.949 . S
C1955 C1956 1.349 . S
C1955 C1957 1.327 . S
C1955 H1978 0.950 . S
C1956 C1955 1.349 . S
C1956 C1968 1.349 . S
C1957 C1955 1.327 . S
C1957 C1973 1.429 . S
C1957 H1979 0.950 . S
C1958 H1954 0.949 . S
C1958 C1966 1.574 . S
C1958 C1974 1.368 . S
H1959 C1967 0.950 . S
H1960 C1965 0.950 . S
H1961 C1966 0.949 . S
H1962 C1968 0.950 . S
H1963 C1969 0.950 . S
H1964 C1970 0.949 . S
C1965 H1960 0.950 . S
C1965 C1967 1.327 . S
C1965 C1971 1.429 . S
C1966 C1958 1.574 . S
C1966 H1961 0.949 . S
C1966 C1972 1.368 . S
C1967 C1951 1.349 . S
C1967 H1959 0.950 . S
C1967 C1965 1.327 . S
C1968 C1956 1.349 . S
C1968 H1962 0.950 . S
C1968 C1969 1.327 . S
C1969 H1963 0.950 . S
C1969 C1968 1.327 . S
C1969 C1973 1.429 . S
C1970 C1953 1.574 . S
C1970 H1964 0.949 . S
C1970 C1974 1.368 . S
C1971 C1952 1.429 . S
C1971 C1965 1.429 . S
C1971 C1972 1.523 . S
C1972 C1953 1.368 . S
C1972 C1966 1.368 . S
C1972 C1971 1.523 . S
C1973 C1957 1.429 . S
C1973 C1969 1.429 . S
C1973 C1974 1.523 . S
C1974 C1958 1.368 . S
C1974 C1970 1.368 . S
C1974 C1973 1.523 . S
H1975 C1950 0.950 . S
H1976 C1952 0.950 . S
H1977 C1953 0.949 . S
H1978 C1955 0.950 . S
H1979 C1957 0.950 . S
C1980 C1981 1.349 . S
C1980 C1982 1.327 . S
C1980 H2005 0.950 . S
C1981 C1980 1.349 . S
C1981 C1997 1.349 . S
C1982 C1980 1.327 . S
C1982 C2001 1.429 . S
C1982 H2006 0.950 . S
C1983 C2000 1.574 . S
C1983 C2002 1.368 . S
C1983 H2007 0.949 . S
H1984 C1988 0.949 . S
C1985 C1986 1.349 . S
C1985 C1987 1.327 . S
C1985 H2008 0.950 . S
C1986 C1985 1.349 . S
C1986 C1998 1.349 . S
C1987 C1985 1.327 . S
C1987 C2003 1.429 . S
C1987 H2009 0.950 . S
C1988 H1984 0.949 . S
C1988 C1996 1.574 . S
C1988 C2004 1.368 . S
H1989 C1997 0.950 . S
H1990 C1995 0.950 . S
H1991 C1996 0.949 . S
H1992 C1998 0.950 . S
H1993 C1999 0.950 . S
H1994 C2000 0.949 . S
C1995 H1990 0.950 . S
C1995 C1997 1.327 . S
C1995 C2001 1.429 . S
C1996 C1988 1.574 . S
C1996 H1991 0.949 . S
C1996 C2002 1.368 . S
C1997 C1981 1.349 . S
C1997 H1989 0.950 . S
C1997 C1995 1.327 . S
C1998 C1986 1.349 . S
C1998 H1992 0.950 . S
C1998 C1999 1.327 . S
C1999 H1993 0.950 . S
C1999 C1998 1.327 . S
C1999 C2003 1.429 . S
C2000 C1983 1.574 . S
C2000 H1994 0.949 . S
C2000 C2004 1.368 . S
C2001 C1982 1.429 . S
C2001 C1995 1.429 . S
C2001 C2002 1.523 . S
C2002 C1983 1.368 . S
C2002 C1996 1.368 . S
C2002 C2001 1.523 . S
C2003 C1987 1.429 . S
C2003 C1999 1.429 . S
C2003 C2004 1.523 . S
C2004 C1988 1.368 . S
C2004 C2000 1.368 . S
C2004 C2003 1.523 . S
H2005 C1980 0.950 . S
H2006 C1982 0.950 . S
H2007 C1983 0.949 . S
H2008 C1985 0.950 . S
H2009 C1987 0.950 . S
C2010 C2011 1.349 . S
C2010 C2012 1.327 . S
C2010 H2035 0.950 . S
C2011 C2010 1.349 . S
C2011 C2027 1.349 . S
C2012 C2010 1.327 . S
C2012 C2031 1.429 . S
C2012 H2036 0.950 . S
C2013 C2030 1.574 . S
C2013 C2032 1.368 . S
C2013 H2037 0.949 . S
H2014 C2018 0.949 . S
C2015 C2016 1.349 . S
C2015 C2017 1.327 . S
C2015 H2038 0.950 . S
C2016 C2015 1.349 . S
C2016 C2028 1.349 . S
C2017 C2015 1.327 . S
C2017 C2033 1.429 . S
C2017 H2039 0.950 . S
C2018 H2014 0.949 . S
C2018 C2026 1.574 . S
C2018 C2034 1.368 . S
H2019 C2027 0.950 . S
H2020 C2025 0.950 . S
H2021 C2026 0.949 . S
H2022 C2028 0.950 . S
H2023 C2029 0.950 . S
H2024 C2030 0.949 . S
C2025 H2020 0.950 . S
C2025 C2027 1.327 . S
C2025 C2031 1.429 . S
C2026 C2018 1.574 . S
C2026 H2021 0.949 . S
C2026 C2032 1.368 . S
C2027 C2011 1.349 . S
C2027 H2019 0.950 . S
C2027 C2025 1.327 . S
C2028 C2016 1.349 . S
C2028 H2022 0.950 . S
C2028 C2029 1.327 . S
C2029 H2023 0.950 . S
C2029 C2028 1.327 . S
C2029 C2033 1.429 . S
C2030 C2013 1.574 . S
C2030 H2024 0.949 . S
C2030 C2034 1.368 . S
C2031 C2012 1.429 . S
C2031 C2025 1.429 . S
C2031 C2032 1.523 . S
C2032 C2013 1.368 . S
C2032 C2026 1.368 . S
C2032 C2031 1.523 . S
C2033 C2017 1.429 . S
C2033 C2029 1.429 . S
C2033 C2034 1.523 . S
C2034 C2018 1.368 . S
C2034 C2030 1.368 . S
C2034 C2033 1.523 . S
H2035 C2010 0.950 . S
H2036 C2012 0.950 . S
H2037 C2013 0.949 . S
H2038 C2015 0.950 . S
H2039 C2017 0.950 . S
C2040 C2041 1.349 . S
C2040 C2042 1.327 . S
C2040 H2065 0.950 . S
C2041 C2040 1.349 . S
C2041 C2057 1.349 . S
C2042 C2040 1.327 . S
C2042 C2061 1.429 . S
C2042 H2066 0.950 1_655 S
C2043 C2060 1.574 . S
C2043 C2062 1.368 . S
C2043 H2067 0.949 . S
H2044 C2048 0.949 . S
C2045 C2046 1.349 . S
C2045 C2047 1.327 . S
C2045 H2068 0.950 . S
C2046 C2045 1.349 . S
C2046 C2058 1.349 . S
C2047 C2045 1.327 . S
C2047 C2063 1.429 . S
C2047 H2069 0.950 1_455 S
C2048 H2044 0.949 . S
C2048 C2056 1.574 . S
C2048 C2064 1.368 . S
H2049 C2057 0.950 . S
H2050 C2055 0.950 . S
H2051 C2056 0.949 . S
H2052 C2058 0.950 . S
H2053 C2059 0.950 . S
H2054 C2060 0.949 . S
C2055 H2050 0.950 . S
C2055 C2057 1.327 . S
C2055 C2061 1.429 . S
C2056 C2048 1.574 . S
C2056 H2051 0.949 . S
C2056 C2062 1.368 1_455 S
C2057 C2041 1.349 . S
C2057 H2049 0.950 . S
C2057 C2055 1.327 . S
C2058 C2046 1.349 . S
C2058 H2052 0.950 . S
C2058 C2059 1.327 . S
C2059 H2053 0.950 . S
C2059 C2058 1.327 . S
C2059 C2063 1.429 . S
C2060 C2043 1.574 . S
C2060 H2054 0.949 . S
C2060 C2064 1.368 1_655 S
C2061 C2042 1.429 . S
C2061 C2055 1.429 . S
C2061 C2062 1.523 . S
C2062 C2043 1.368 . S
C2062 C2056 1.368 1_655 S
C2062 C2061 1.523 . S
C2063 C2047 1.429 . S
C2063 C2059 1.429 . S
C2063 C2064 1.523 . S
C2064 C2048 1.368 . S
C2064 C2060 1.368 1_455 S
C2064 C2063 1.523 . S
H2065 C2040 0.950 . S
H2066 C2042 0.950 1_455 S
H2067 C2043 0.949 . S
H2068 C2045 0.950 . S
H2069 C2047 0.950 1_655 S
C2070 C2071 1.349 . S
C2070 C2072 1.327 . S
C2070 H2095 0.950 . S
C2071 C2070 1.349 . S
C2071 C2087 1.349 . S
C2072 C2070 1.327 . S
C2072 C2091 1.429 . S
C2072 H2096 0.950 . S
C2073 C2090 1.574 . S
C2073 C2092 1.368 . S
C2073 H2097 0.949 . S
H2074 C2078 0.949 . S
C2075 C2076 1.349 . S
C2075 C2077 1.327 . S
C2075 H2098 0.950 . S
C2076 C2075 1.349 . S
C2076 C2088 1.349 . S
C2077 C2075 1.327 . S
C2077 C2093 1.429 . S
C2077 H2099 0.950 . S
C2078 H2074 0.949 . S
C2078 C2086 1.574 . S
C2078 C2094 1.368 . S
H2079 C2087 0.950 . S
H2080 C2085 0.950 . S
H2081 C2086 0.949 . S
H2082 C2088 0.950 . S
H2083 C2089 0.950 . S
H2084 C2090 0.949 . S
C2085 H2080 0.950 . S
C2085 C2087 1.327 . S
C2085 C2091 1.429 . S
C2086 C2078 1.574 . S
C2086 H2081 0.949 . S
C2086 C2092 1.368 . S
C2087 C2071 1.349 . S
C2087 H2079 0.950 . S
C2087 C2085 1.327 . S
C2088 C2076 1.349 . S
C2088 H2082 0.950 . S
C2088 C2089 1.327 . S
C2089 H2083 0.950 . S
C2089 C2088 1.327 . S
C2089 C2093 1.429 . S
C2090 C2073 1.574 . S
C2090 H2084 0.949 . S
C2090 C2094 1.368 . S
C2091 C2072 1.429 . S
C2091 C2085 1.429 . S
C2091 C2092 1.523 . S
C2092 C2073 1.368 . S
C2092 C2086 1.368 . S
C2092 C2091 1.523 . S
C2093 C2077 1.429 . S
C2093 C2089 1.429 . S
C2093 C2094 1.523 . S
C2094 C2078 1.368 . S
C2094 C2090 1.368 . S
C2094 C2093 1.523 . S
H2095 C2070 0.950 . S
H2096 C2072 0.950 . S
H2097 C2073 0.949 . S
H2098 C2075 0.950 . S
H2099 C2077 0.950 . S
C2100 C2101 1.349 . S
C2100 C2102 1.327 . S
C2100 H2125 0.950 . S
C2101 C2100 1.349 . S
C2101 C2117 1.349 . S
C2102 C2100 1.327 . S
C2102 C2121 1.429 . S
C2102 H2126 0.950 . S
C2103 C2120 1.574 . S
C2103 C2122 1.368 . S
C2103 H2127 0.949 . S
H2104 C2108 0.949 . S
C2105 C2106 1.349 . S
C2105 C2107 1.327 . S
C2105 H2128 0.950 . S
C2106 C2105 1.349 . S
C2106 C2118 1.349 . S
C2107 C2105 1.327 . S
C2107 C2123 1.429 . S
C2107 H2129 0.950 . S
C2108 H2104 0.949 . S
C2108 C2116 1.574 . S
C2108 C2124 1.368 . S
H2109 C2117 0.950 . S
H2110 C2115 0.950 . S
H2111 C2116 0.949 . S
H2112 C2118 0.950 . S
H2113 C2119 0.950 . S
H2114 C2120 0.949 . S
C2115 H2110 0.950 . S
C2115 C2117 1.327 . S
C2115 C2121 1.429 . S
C2116 C2108 1.574 . S
C2116 H2111 0.949 . S
C2116 C2122 1.368 . S
C2117 C2101 1.349 . S
C2117 H2109 0.950 . S
C2117 C2115 1.327 . S
C2118 C2106 1.349 . S
C2118 H2112 0.950 . S
C2118 C2119 1.327 . S
C2119 H2113 0.950 . S
C2119 C2118 1.327 . S
C2119 C2123 1.429 . S
C2120 C2103 1.574 . S
C2120 H2114 0.949 . S
C2120 C2124 1.368 . S
C2121 C2102 1.429 . S
C2121 C2115 1.429 . S
C2121 C2122 1.523 . S
C2122 C2103 1.368 . S
C2122 C2116 1.368 . S
C2122 C2121 1.523 . S
C2123 C2107 1.429 . S
C2123 C2119 1.429 . S
C2123 C2124 1.523 . S
C2124 C2108 1.368 . S
C2124 C2120 1.368 . S
C2124 C2123 1.523 . S
H2125 C2100 0.950 . S
H2126 C2102 0.950 . S
H2127 C2103 0.949 . S
H2128 C2105 0.950 . S
H2129 C2107 0.950 . S
C2130 C2131 1.349 . S
C2130 C2132 1.327 . S
C2130 H2155 0.950 . S
C2131 C2130 1.349 . S
C2131 C2147 1.349 . S
C2132 C2130 1.327 . S
C2132 C2151 1.429 . S
C2132 H2156 0.950 . S
C2133 C2150 1.574 . S
C2133 C2152 1.368 . S
C2133 H2157 0.949 . S
H2134 C2138 0.949 . S
C2135 C2136 1.349 . S
C2135 C2137 1.327 . S
C2135 H2158 0.950 . S
C2136 C2135 1.349 . S
C2136 C2148 1.349 . S
C2137 C2135 1.327 . S
C2137 C2153 1.429 . S
C2137 H2159 0.950 . S
C2138 H2134 0.949 . S
C2138 C2146 1.574 . S
C2138 C2154 1.368 . S
H2139 C2147 0.950 . S
H2140 C2145 0.950 . S
H2141 C2146 0.949 . S
H2142 C2148 0.950 . S
H2143 C2149 0.950 . S
H2144 C2150 0.949 . S
C2145 H2140 0.950 . S
C2145 C2147 1.327 . S
C2145 C2151 1.429 . S
C2146 C2138 1.574 . S
C2146 H2141 0.949 . S
C2146 C2152 1.368 . S
C2147 C2131 1.349 . S
C2147 H2139 0.950 . S
C2147 C2145 1.327 . S
C2148 C2136 1.349 . S
C2148 H2142 0.950 . S
C2148 C2149 1.327 . S
C2149 H2143 0.950 . S
C2149 C2148 1.327 . S
C2149 C2153 1.429 . S
C2150 C2133 1.574 . S
C2150 H2144 0.949 . S
C2150 C2154 1.368 . S
C2151 C2132 1.429 . S
C2151 C2145 1.429 . S
C2151 C2152 1.523 . S
C2152 C2133 1.368 . S
C2152 C2146 1.368 . S
C2152 C2151 1.523 . S
C2153 C2137 1.429 . S
C2153 C2149 1.429 . S
C2153 C2154 1.523 . S
C2154 C2138 1.368 . S
C2154 C2150 1.368 . S
C2154 C2153 1.523 . S
H2155 C2130 0.950 . S
H2156 C2132 0.950 . S
H2157 C2133 0.949 . S
H2158 C2135 0.950 . S
H2159 C2137 0.950 . S
C2160 C2161 1.349 . S
C2160 C2162 1.327 . S
C2160 H2185 0.950 1_554 S
C2161 C2160 1.349 . S
C2161 C2177 1.349 . S
C2162 C2160 1.327 . S
C2162 C2181 1.429 . S
C2162 H2186 0.950 1_554 S
C2163 C2180 1.574 . S
C2163 C2182 1.368 . S
C2163 H2187 0.949 . S
H2164 C2168 0.950 1_556 S
C2165 C2166 1.349 . S
C2165 C2167 1.327 . S
C2165 H2188 0.950 . S
C2166 C2165 1.349 . S
C2166 C2178 1.349 1_545 S
C2167 C2165 1.327 . S
C2167 C2183 1.429 1_545 S
C2167 H2189 0.950 . S
C2168 H2164 0.950 1_554 S
C2168 C2176 1.574 . S
C2168 C2184 1.368 . S
H2169 C2177 0.950 . S
H2170 C2175 0.950 . S
H2171 C2176 0.949 1_556 S
H2172 C2178 0.950 . S
H2173 C2179 0.950 . S
H2174 C2180 0.949 1_545 S
C2175 H2170 0.950 . S
C2175 C2177 1.327 . S
C2175 C2181 1.429 . S
C2176 C2168 1.574 . S
C2176 H2171 0.949 1_554 S
C2176 C2182 1.368 . S
C2177 C2161 1.349 . S
C2177 H2169 0.950 . S
C2177 C2175 1.327 . S
C2178 C2166 1.349 1_565 S
C2178 H2172 0.950 . S
C2178 C2179 1.327 . S
C2179 H2173 0.950 . S
C2179 C2178 1.327 . S
C2179 C2183 1.429 . S
C2180 C2163 1.574 . S
C2180 H2174 0.949 1_565 S
C2180 C2184 1.368 . S
C2181 C2162 1.429 . S
C2181 C2175 1.429 . S
C2181 C2182 1.523 . S
C2182 C2163 1.368 . S
C2182 C2176 1.368 . S
C2182 C2181 1.523 . S
C2183 C2167 1.429 1_565 S
C2183 C2179 1.429 . S
C2183 C2184 1.523 . S
C2184 C2168 1.368 . S
C2184 C2180 1.368 . S
C2184 C2183 1.523 . S
H2185 C2160 0.950 1_556 S
H2186 C2162 0.950 1_556 S
H2187 C2163 0.949 . S
H2188 C2165 0.950 . S
H2189 C2167 0.950 . S
C2190 C2191 1.349 . S
C2190 C2192 1.327 . S
C2190 H2215 0.950 . S
C2191 C2190 1.349 . S
C2191 C2207 1.349 1_556 S
C2192 C2190 1.327 . S
C2192 C2211 1.429 . S
C2192 H2216 0.950 . S
C2193 C2210 1.574 . S
C2193 C2212 1.368 1_554 S
C2193 H2217 0.949 . S
H2194 C2198 0.949 . S
C2195 C2196 1.349 . S
C2195 C2197 1.327 . S
C2195 H2218 0.950 . S
C2196 C2195 1.349 . S
C2196 C2208 1.349 1_554 S
C2197 C2195 1.327 . S
C2197 C2213 1.429 . S
C2197 H2219 0.950 . S
C2198 H2194 0.949 . S
C2198 C2206 1.574 . S
C2198 C2214 1.357 1_556 S
H2199 C2207 0.950 . S
H2200 C2205 0.950 . S
H2201 C2206 0.949 . S
H2202 C2208 0.950 . S
H2203 C2209 0.950 . S
H2204 C2210 0.949 . S
C2205 H2200 0.950 . S
C2205 C2207 1.327 . S
C2205 C2211 1.429 1_554 S
C2206 C2198 1.574 . S
C2206 H2201 0.949 . S
C2206 C2212 1.368 . S
C2207 C2191 1.349 1_554 S
C2207 H2199 0.950 . S
C2207 C2205 1.327 . S
C2208 C2196 1.349 1_556 S
C2208 H2202 0.950 . S
C2208 C2209 1.327 . S
C2209 H2203 0.950 . S
C2209 C2208 1.327 . S
C2209 C2213 1.429 1_556 S
C2210 C2193 1.574 . S
C2210 H2204 0.949 . S
C2210 C2214 1.377 . S
C2211 C2192 1.429 . S
C2211 C2205 1.429 1_556 S
C2211 C2212 1.523 . S
C2212 C2193 1.368 1_556 S
C2212 C2206 1.368 . S
C2212 C2211 1.523 . S
C2213 C2197 1.429 . S
C2213 C2209 1.429 1_554 S
C2213 C2214 1.526 . S
C2214 C2198 1.357 1_554 S
C2214 C2210 1.377 . S
C2214 C2213 1.526 . S
H2215 C2190 0.950 . S
H2216 C2192 0.950 . S
H2217 C2193 0.949 . S
H2218 C2195 0.950 . S
H2219 C2197 0.950 . S
C2220 C2221 1.349 . S
C2220 C2222 1.327 . S
C2220 H2245 0.950 . S
C2221 C2220 1.349 . S
C2221 C2237 1.349 . S
C2222 C2220 1.327 . S
C2222 C2241 1.429 . S
C2222 H2246 0.950 . S
C2223 C2240 1.574 . S
C2223 C2242 1.368 . S
C2223 H2247 0.949 . S
H2224 C2228 0.949 . S
C2225 C2226 1.349 . S
C2225 C2227 1.327 . S
C2225 H2248 0.950 . S
C2226 C2225 1.349 . S
C2226 C2238 1.349 . S
C2227 C2225 1.327 . S
C2227 C2243 1.429 . S
C2227 H2249 0.950 . S
C2228 H2224 0.949 . S
C2228 C2236 1.574 . S
C2228 C2244 1.368 . S
H2229 C2237 0.950 . S
H2230 C2235 0.950 . S
H2231 C2236 0.949 . S
H2232 C2238 0.950 . S
H2233 C2239 0.950 . S
H2234 C2240 0.949 . S
C2235 H2230 0.950 . S
C2235 C2237 1.327 . S
C2235 C2241 1.429 . S
C2236 C2228 1.574 . S
C2236 H2231 0.949 . S
C2236 C2242 1.368 . S
C2237 C2221 1.349 . S
C2237 H2229 0.950 . S
C2237 C2235 1.327 . S
C2238 C2226 1.349 . S
C2238 H2232 0.950 . S
C2238 C2239 1.327 . S
C2239 H2233 0.950 . S
C2239 C2238 1.327 . S
C2239 C2243 1.429 . S
C2240 C2223 1.574 . S
C2240 H2234 0.949 . S
C2240 C2244 1.368 . S
C2241 C2222 1.429 . S
C2241 C2235 1.429 . S
C2241 C2242 1.523 . S
C2242 C2223 1.368 . S
C2242 C2236 1.368 . S
C2242 C2241 1.523 . S
C2243 C2227 1.429 . S
C2243 C2239 1.429 . S
C2243 C2244 1.523 . S
C2244 C2228 1.368 . S
C2244 C2240 1.368 . S
C2244 C2243 1.523 . S
H2245 C2220 0.950 . S
H2246 C2222 0.950 . S
H2247 C2223 0.949 . S
H2248 C2225 0.950 . S
H2249 C2227 0.950 . S
C2250 C2251 1.349 . S
C2250 C2252 1.327 . S
C2250 H2275 0.950 . S
C2251 C2250 1.349 . S
C2251 C2267 1.349 . S
C2252 C2250 1.327 . S
C2252 C2271 1.429 . S
C2252 H2276 0.950 . S
C2253 C2270 1.574 . S
C2253 C2272 1.368 . S
C2253 H2277 0.949 . S
H2254 C2258 0.949 . S
C2255 C2256 1.349 1_655 S
C2255 C2257 1.327 . S
C2255 H2278 0.948 1_655 S
C2256 C2255 1.349 1_455 S
C2256 C2268 1.349 . S
C2257 C2255 1.327 . S
C2257 C2273 1.429 . S
C2257 H2279 0.950 . S
C2258 H2254 0.949 . S
C2258 C2266 1.574 . S
C2258 C2274 1.368 . S
H2259 C2267 0.950 . S
H2260 C2265 0.950 . S
H2261 C2266 0.949 . S
H2262 C2268 0.950 . S
H2263 C2269 0.950 . S
H2264 C2270 0.949 . S
C2265 H2260 0.950 . S
C2265 C2267 1.327 . S
C2265 C2271 1.429 . S
C2266 C2258 1.574 . S
C2266 H2261 0.949 . S
C2266 C2272 1.368 . S
C2267 C2251 1.349 . S
C2267 H2259 0.950 . S
C2267 C2265 1.327 . S
C2268 C2256 1.349 . S
C2268 H2262 0.950 . S
C2268 C2269 1.327 1_455 S
C2269 H2263 0.950 . S
C2269 C2268 1.327 1_655 S
C2269 C2273 1.429 . S
C2270 C2253 1.574 . S
C2270 H2264 0.949 . S
C2270 C2274 1.368 . S
C2271 C2252 1.429 . S
C2271 C2265 1.429 . S
C2271 C2272 1.523 . S
C2272 C2253 1.368 . S
C2272 C2266 1.368 . S
C2272 C2271 1.523 . S
C2273 C2257 1.429 . S
C2273 C2269 1.429 . S
C2273 C2274 1.523 . S
C2274 C2258 1.368 . S
C2274 C2270 1.368 . S
C2274 C2273 1.523 . S
H2275 C2250 0.950 . S
H2276 C2252 0.950 . S
H2277 C2253 0.949 . S
H2278 C2255 0.948 1_455 S
H2279 C2257 0.950 . S
C2280 C2281 1.349 . S
C2280 C2282 1.327 . S
C2280 H2305 0.950 . S
C2281 C2280 1.349 . S
C2281 C2297 1.349 . S
C2282 C2280 1.327 . S
C2282 C2301 1.429 . S
C2282 H2306 0.950 . S
C2283 C2300 1.574 . S
C2283 C2302 1.368 . S
C2283 H2307 0.949 . S
H2284 C2288 0.949 . S
C2285 C2286 1.349 . S
C2285 C2287 1.327 . S
C2285 H2308 0.950 . S
C2286 C2285 1.349 . S
C2286 C2298 1.349 . S
C2287 C2285 1.327 . S
C2287 C2303 1.429 . S
C2287 H2309 0.950 . S
C2288 H2284 0.949 . S
C2288 C2296 1.574 . S
C2288 C2304 1.368 . S
H2289 C2297 0.950 . S
H2290 C2295 0.950 . S
H2291 C2296 0.949 . S
H2292 C2298 0.950 . S
H2293 C2299 0.950 . S
H2294 C2300 0.949 . S
C2295 H2290 0.950 . S
C2295 C2297 1.327 . S
C2295 C2301 1.429 . S
C2296 C2288 1.574 . S
C2296 H2291 0.949 . S
C2296 C2302 1.368 . S
C2297 C2281 1.349 . S
C2297 H2289 0.950 . S
C2297 C2295 1.327 . S
C2298 C2286 1.349 . S
C2298 H2292 0.950 . S
C2298 C2299 1.327 . S
C2299 H2293 0.950 . S
C2299 C2298 1.327 . S
C2299 C2303 1.429 . S
C2300 C2283 1.574 . S
C2300 H2294 0.949 . S
C2300 C2304 1.368 . S
C2301 C2282 1.429 . S
C2301 C2295 1.429 . S
C2301 C2302 1.523 . S
C2302 C2283 1.368 . S
C2302 C2296 1.368 . S
C2302 C2301 1.523 . S
C2303 C2287 1.429 . S
C2303 C2299 1.429 . S
C2303 C2304 1.523 . S
C2304 C2288 1.368 . S
C2304 C2300 1.368 . S
C2304 C2303 1.523 . S
H2305 C2280 0.950 . S
H2306 C2282 0.950 . S
H2307 C2283 0.949 . S
H2308 C2285 0.950 . S
H2309 C2287 0.950 . S
C2310 C2311 1.349 . S
C2310 C2312 1.327 . S
C2310 H2335 0.950 . S
C2311 C2310 1.349 . S
C2311 C2327 1.349 . S
C2312 C2310 1.327 . S
C2312 C2331 1.429 . S
C2312 H2336 0.950 . S
C2313 C2330 1.574 . S
C2313 C2332 1.368 . S
C2313 H2337 0.949 . S
H2314 C2318 0.949 . S
C2315 C2316 1.349 . S
C2315 C2317 1.327 . S
C2315 H2338 0.950 . S
C2316 C2315 1.349 . S
C2316 C2328 1.349 . S
C2317 C2315 1.327 . S
C2317 C2333 1.429 . S
C2317 H2339 0.950 . S
C2318 H2314 0.949 . S
C2318 C2326 1.574 . S
C2318 C2334 1.368 . S
H2319 C2327 0.950 . S
H2320 C2325 0.950 . S
H2321 C2326 0.949 . S
H2322 C2328 0.950 . S
H2323 C2329 0.950 . S
H2324 C2330 0.949 . S
C2325 H2320 0.950 . S
C2325 C2327 1.327 . S
C2325 C2331 1.429 . S
C2326 C2318 1.574 . S
C2326 H2321 0.949 . S
C2326 C2332 1.368 . S
C2327 C2311 1.349 . S
C2327 H2319 0.950 . S
C2327 C2325 1.327 . S
C2328 C2316 1.349 . S
C2328 H2322 0.950 . S
C2328 C2329 1.327 . S
C2329 H2323 0.950 . S
C2329 C2328 1.327 . S
C2329 C2333 1.429 . S
C2330 C2313 1.574 . S
C2330 H2324 0.949 . S
C2330 C2334 1.368 . S
C2331 C2312 1.429 . S
C2331 C2325 1.429 . S
C2331 C2332 1.523 . S
C2332 C2313 1.368 . S
C2332 C2326 1.368 . S
C2332 C2331 1.523 . S
C2333 C2317 1.429 . S
C2333 C2329 1.429 . S
C2333 C2334 1.523 . S
C2334 C2318 1.368 . S
C2334 C2330 1.368 . S
C2334 C2333 1.523 . S
H2335 C2310 0.950 . S
H2336 C2312 0.950 . S
H2337 C2313 0.949 . S
H2338 C2315 0.950 . S
H2339 C2317 0.950 . S
C2340 C2341 1.349 . S
C2340 C2342 1.327 . S
C2340 H2365 0.950 . S
C2341 C2340 1.349 . S
C2341 C2357 1.349 . S
C2342 C2340 1.327 . S
C2342 C2361 1.429 . S
C2342 H2366 0.950 . S
C2343 C2360 1.574 . S
C2343 C2362 1.368 . S
C2343 H2367 0.949 . S
H2344 C2348 0.949 . S
C2345 C2346 1.349 . S
C2345 C2347 1.327 . S
C2345 H2368 0.950 . S
C2346 C2345 1.349 . S
C2346 C2358 1.349 . S
C2347 C2345 1.327 . S
C2347 C2363 1.429 . S
C2347 H2369 0.950 . S
C2348 H2344 0.949 . S
C2348 C2356 1.574 . S
C2348 C2364 1.368 . S
H2349 C2357 0.950 . S
H2350 C2355 0.950 . S
H2351 C2356 0.949 . S
H2352 C2358 0.950 . S
H2353 C2359 0.950 . S
H2354 C2360 0.949 . S
C2355 H2350 0.950 . S
C2355 C2357 1.327 . S
C2355 C2361 1.429 . S
C2356 C2348 1.574 . S
C2356 H2351 0.949 . S
C2356 C2362 1.368 . S
C2357 C2341 1.349 . S
C2357 H2349 0.950 . S
C2357 C2355 1.327 . S
C2358 C2346 1.349 . S
C2358 H2352 0.950 . S
C2358 C2359 1.327 . S
C2359 H2353 0.950 . S
C2359 C2358 1.327 . S
C2359 C2363 1.429 . S
C2360 C2343 1.574 . S
C2360 H2354 0.949 . S
C2360 C2364 1.368 . S
C2361 C2342 1.429 . S
C2361 C2355 1.429 . S
C2361 C2362 1.523 . S
C2362 C2343 1.368 . S
C2362 C2356 1.368 . S
C2362 C2361 1.523 . S
C2363 C2347 1.429 . S
C2363 C2359 1.429 . S
C2363 C2364 1.523 . S
C2364 C2348 1.368 . S
C2364 C2360 1.368 . S
C2364 C2363 1.523 . S
H2365 C2340 0.950 . S
H2366 C2342 0.950 . S
H2367 C2343 0.949 . S
H2368 C2345 0.950 . S
H2369 C2347 0.950 . S
C2370 C2371 1.349 . S
C2370 C2372 1.327 . S
C2370 H2395 0.950 . S
C2371 C2370 1.349 . S
C2371 C2387 1.349 . S
C2372 C2370 1.327 . S
C2372 C2391 1.429 . S
C2372 H2396 0.950 . S
C2373 C2390 1.574 . S
C2373 C2392 1.368 . S
C2373 H2397 0.949 . S
H2374 C2378 0.949 . S
C2375 C2376 1.349 . S
C2375 C2377 1.327 . S
C2375 H2398 0.950 . S
C2376 C2375 1.349 . S
C2376 C2388 1.349 . S
C2377 C2375 1.327 . S
C2377 C2393 1.429 . S
C2377 H2399 0.950 . S
C2378 H2374 0.949 . S
C2378 C2386 1.574 . S
C2378 C2394 1.368 . S
H2379 C2387 0.950 . S
H2380 C2385 0.950 . S
H2381 C2386 0.949 . S
H2382 C2388 0.950 . S
H2383 C2389 0.950 . S
H2384 C2390 0.949 . S
C2385 H2380 0.950 . S
C2385 C2387 1.327 . S
C2385 C2391 1.429 . S
C2386 C2378 1.574 . S
C2386 H2381 0.949 . S
C2386 C2392 1.368 . S
C2387 C2371 1.349 . S
C2387 H2379 0.950 . S
C2387 C2385 1.327 . S
C2388 C2376 1.349 . S
C2388 H2382 0.950 . S
C2388 C2389 1.327 . S
C2389 H2383 0.950 . S
C2389 C2388 1.327 . S
C2389 C2393 1.429 . S
C2390 C2373 1.574 . S
C2390 H2384 0.949 . S
C2390 C2394 1.368 . S
C2391 C2372 1.429 . S
C2391 C2385 1.429 . S
C2391 C2392 1.523 . S
C2392 C2373 1.368 . S
C2392 C2386 1.368 . S
C2392 C2391 1.523 . S
C2393 C2377 1.429 . S
C2393 C2389 1.429 . S
C2393 C2394 1.523 . S
C2394 C2378 1.368 . S
C2394 C2390 1.368 . S
C2394 C2393 1.523 . S
H2395 C2370 0.950 . S
H2396 C2372 0.950 . S
H2397 C2373 0.949 . S
H2398 C2375 0.950 . S
H2399 C2377 0.950 . S
C2400 C2401 1.349 . S
C2400 C2402 1.327 . S
C2400 H2425 0.950 . S
C2401 C2400 1.349 . S
C2401 C2417 1.349 . S
C2402 C2400 1.327 . S
C2402 C2421 1.429 . S
C2402 H2426 0.950 . S
C2403 C2420 1.574 . S
C2403 C2422 1.368 . S
C2403 H2427 0.949 . S
H2404 C2408 0.949 . S
C2405 C2406 1.349 . S
C2405 C2407 1.327 . S
C2405 H2428 0.950 . S
C2406 C2405 1.349 . S
C2406 C2418 1.349 . S
C2407 C2405 1.327 . S
C2407 C2423 1.429 . S
C2407 H2429 0.950 . S
C2408 H2404 0.949 . S
C2408 C2416 1.574 . S
C2408 C2424 1.368 . S
H2409 C2417 0.950 . S
H2410 C2415 0.950 . S
H2411 C2416 0.949 . S
H2412 C2418 0.950 . S
H2413 C2419 0.950 . S
H2414 C2420 0.949 . S
C2415 H2410 0.950 . S
C2415 C2417 1.327 . S
C2415 C2421 1.429 . S
C2416 C2408 1.574 . S
C2416 H2411 0.949 . S
C2416 C2422 1.368 . S
C2417 C2401 1.349 . S
C2417 H2409 0.950 . S
C2417 C2415 1.327 . S
C2418 C2406 1.349 . S
C2418 H2412 0.950 . S
C2418 C2419 1.327 . S
C2419 H2413 0.950 . S
C2419 C2418 1.327 . S
C2419 C2423 1.429 . S
C2420 C2403 1.574 . S
C2420 H2414 0.949 . S
C2420 C2424 1.368 . S
C2421 C2402 1.429 . S
C2421 C2415 1.429 . S
C2421 C2422 1.523 . S
C2422 C2403 1.368 . S
C2422 C2416 1.368 . S
C2422 C2421 1.523 . S
C2423 C2407 1.429 . S
C2423 C2419 1.429 . S
C2423 C2424 1.523 . S
C2424 C2408 1.368 . S
C2424 C2420 1.368 . S
C2424 C2423 1.523 . S
H2425 C2400 0.950 . S
H2426 C2402 0.950 . S
H2427 C2403 0.949 . S
H2428 C2405 0.950 . S
H2429 C2407 0.950 . S
C2430 C2431 1.349 . S
C2430 C2432 1.327 . S
C2430 H2455 0.950 . S
C2431 C2430 1.349 . S
C2431 C2447 1.349 . S
C2432 C2430 1.327 . S
C2432 C2451 1.429 . S
C2432 H2456 0.950 . S
C2433 C2450 1.574 . S
C2433 C2452 1.368 . S
C2433 H2457 0.949 . S
H2434 C2438 0.949 . S
C2435 C2436 1.349 . S
C2435 C2437 1.327 . S
C2435 H2458 0.950 . S
C2436 C2435 1.349 . S
C2436 C2448 1.349 . S
C2437 C2435 1.327 . S
C2437 C2453 1.429 . S
C2437 H2459 0.950 . S
C2438 H2434 0.949 . S
C2438 C2446 1.574 . S
C2438 C2454 1.368 . S
H2439 C2447 0.950 . S
H2440 C2445 0.950 . S
H2441 C2446 0.949 . S
H2442 C2448 0.950 . S
H2443 C2449 0.950 . S
H2444 C2450 0.949 . S
C2445 H2440 0.950 . S
C2445 C2447 1.327 . S
C2445 C2451 1.429 . S
C2446 C2438 1.574 . S
C2446 H2441 0.949 . S
C2446 C2452 1.368 . S
C2447 C2431 1.349 . S
C2447 H2439 0.950 . S
C2447 C2445 1.327 . S
C2448 C2436 1.349 . S
C2448 H2442 0.950 . S
C2448 C2449 1.327 . S
C2449 H2443 0.950 . S
C2449 C2448 1.327 . S
C2449 C2453 1.429 . S
C2450 C2433 1.574 . S
C2450 H2444 0.949 . S
C2450 C2454 1.368 . S
C2451 C2432 1.429 . S
C2451 C2445 1.429 . S
C2451 C2452 1.523 . S
C2452 C2433 1.368 . S
C2452 C2446 1.368 . S
C2452 C2451 1.523 . S
C2453 C2437 1.429 . S
C2453 C2449 1.429 . S
C2453 C2454 1.523 . S
C2454 C2438 1.368 . S
C2454 C2450 1.368 . S
C2454 C2453 1.523 . S
H2455 C2430 0.950 . S
H2456 C2432 0.950 . S
H2457 C2433 0.949 . S
H2458 C2435 0.950 . S
H2459 C2437 0.950 . S
C2460 C2461 1.349 . S
C2460 C2462 1.327 . S
C2460 H2485 0.950 . S
C2461 C2460 1.349 . S
C2461 C2477 1.349 . S
C2462 C2460 1.327 . S
C2462 C2481 1.429 . S
C2462 H2486 0.950 . S
C2463 C2480 1.574 . S
C2463 C2482 1.368 . S
C2463 H2487 0.949 . S
H2464 C2468 0.949 . S
C2465 C2466 1.349 . S
C2465 C2467 1.327 . S
C2465 H2488 0.950 . S
C2466 C2465 1.349 . S
C2466 C2478 1.349 . S
C2467 C2465 1.327 . S
C2467 C2483 1.429 . S
C2467 H2489 0.950 . S
C2468 H2464 0.949 . S
C2468 C2476 1.574 . S
C2468 C2484 1.368 . S
H2469 C2477 0.950 . S
H2470 C2475 0.950 . S
H2471 C2476 0.949 . S
H2472 C2478 0.950 . S
H2473 C2479 0.950 . S
H2474 C2480 0.949 . S
C2475 H2470 0.950 . S
C2475 C2477 1.327 . S
C2475 C2481 1.429 . S
C2476 C2468 1.574 . S
C2476 H2471 0.949 . S
C2476 C2482 1.368 . S
C2477 C2461 1.349 . S
C2477 H2469 0.950 . S
C2477 C2475 1.327 . S
C2478 C2466 1.349 . S
C2478 H2472 0.950 . S
C2478 C2479 1.327 . S
C2479 H2473 0.950 . S
C2479 C2478 1.327 . S
C2479 C2483 1.429 . S
C2480 C2463 1.574 . S
C2480 H2474 0.949 . S
C2480 C2484 1.368 . S
C2481 C2462 1.429 . S
C2481 C2475 1.429 . S
C2481 C2482 1.523 . S
C2482 C2463 1.368 . S
C2482 C2476 1.368 . S
C2482 C2481 1.523 . S
C2483 C2467 1.429 . S
C2483 C2479 1.429 . S
C2483 C2484 1.523 . S
C2484 C2468 1.368 . S
C2484 C2480 1.368 . S
C2484 C2483 1.523 . S
H2485 C2460 0.950 . S
H2486 C2462 0.950 . S
H2487 C2463 0.949 . S
H2488 C2465 0.950 . S
H2489 C2467 0.950 . S
C2490 C2491 1.349 . S
C2490 C2492 1.327 . S
C2490 H2515 0.950 . S
C2491 C2490 1.349 . S
C2491 C2507 1.349 . S
C2492 C2490 1.327 . S
C2492 C2511 1.429 . S
C2492 H2516 0.950 . S
C2493 C2510 1.574 . S
C2493 C2512 1.368 . S
C2493 H2517 0.949 . S
H2494 C2498 0.949 . S
C2495 C2496 1.349 . S
C2495 C2497 1.327 . S
C2495 H2518 0.950 . S
C2496 C2495 1.349 . S
C2496 C2508 1.349 . S
C2497 C2495 1.327 . S
C2497 C2513 1.429 . S
C2497 H2519 0.950 . S
C2498 H2494 0.949 . S
C2498 C2506 1.574 . S
C2498 C2514 1.368 . S
H2499 C2507 0.950 . S
H2500 C2505 0.950 . S
H2501 C2506 0.949 . S
H2502 C2508 0.950 . S
H2503 C2509 0.950 . S
H2504 C2510 0.949 . S
C2505 H2500 0.950 . S
C2505 C2507 1.327 . S
C2505 C2511 1.429 . S
C2506 C2498 1.574 . S
C2506 H2501 0.949 . S
C2506 C2512 1.368 . S
C2507 C2491 1.349 . S
C2507 H2499 0.950 . S
C2507 C2505 1.327 . S
C2508 C2496 1.349 . S
C2508 H2502 0.950 . S
C2508 C2509 1.327 . S
C2509 H2503 0.950 . S
C2509 C2508 1.327 . S
C2509 C2513 1.429 . S
C2510 C2493 1.574 . S
C2510 H2504 0.949 . S
C2510 C2514 1.368 . S
C2511 C2492 1.429 . S
C2511 C2505 1.429 . S
C2511 C2512 1.523 . S
C2512 C2493 1.368 . S
C2512 C2506 1.368 . S
C2512 C2511 1.523 . S
C2513 C2497 1.429 . S
C2513 C2509 1.429 . S
C2513 C2514 1.523 . S
C2514 C2498 1.368 . S
C2514 C2510 1.368 . S
C2514 C2513 1.523 . S
H2515 C2490 0.950 . S
H2516 C2492 0.950 . S
H2517 C2493 0.949 . S
H2518 C2495 0.950 . S
H2519 C2497 0.950 . S
C2520 C2521 1.349 . S
C2520 C2522 1.327 . S
C2520 H2545 0.950 . S
C2521 C2520 1.349 . S
C2521 C2537 1.349 . S
C2522 C2520 1.327 . S
C2522 C2541 1.429 . S
C2522 H2546 0.950 . S
C2523 C2540 1.574 . S
C2523 C2542 1.368 . S
C2523 H2547 0.949 . S
H2524 C2528 0.949 . S
C2525 C2526 1.349 . S
C2525 C2527 1.327 . S
C2525 H2548 0.950 . S
C2526 C2525 1.349 . S
C2526 C2538 1.349 . S
C2527 C2525 1.327 . S
C2527 C2543 1.429 . S
C2527 H2549 0.950 . S
C2528 H2524 0.949 . S
C2528 C2536 1.574 . S
C2528 C2544 1.368 . S
H2529 C2537 0.950 . S
H2530 C2535 0.950 . S
H2531 C2536 0.949 . S
H2532 C2538 0.950 . S
H2533 C2539 0.950 . S
H2534 C2540 0.949 . S
C2535 H2530 0.950 . S
C2535 C2537 1.327 . S
C2535 C2541 1.429 . S
C2536 C2528 1.574 . S
C2536 H2531 0.949 . S
C2536 C2542 1.368 . S
C2537 C2521 1.349 . S
C2537 H2529 0.950 . S
C2537 C2535 1.327 . S
C2538 C2526 1.349 . S
C2538 H2532 0.950 . S
C2538 C2539 1.327 . S
C2539 H2533 0.950 . S
C2539 C2538 1.327 . S
C2539 C2543 1.429 . S
C2540 C2523 1.574 . S
C2540 H2534 0.949 . S
C2540 C2544 1.368 . S
C2541 C2522 1.429 . S
C2541 C2535 1.429 . S
C2541 C2542 1.523 . S
C2542 C2523 1.368 . S
C2542 C2536 1.368 . S
C2542 C2541 1.523 . S
C2543 C2527 1.429 . S
C2543 C2539 1.429 . S
C2543 C2544 1.523 . S
C2544 C2528 1.368 . S
C2544 C2540 1.368 . S
C2544 C2543 1.523 . S
H2545 C2520 0.950 . S
H2546 C2522 0.950 . S
H2547 C2523 0.949 . S
H2548 C2525 0.950 . S
H2549 C2527 0.950 . S
C2550 C2551 1.349 . S
C2550 C2552 1.327 . S
C2550 H2575 0.950 . S
C2551 C2550 1.349 . S
C2551 C2567 1.349 . S
C2552 C2550 1.327 . S
C2552 C2571 1.429 . S
C2552 H2576 0.950 . S
C2553 C2570 1.574 . S
C2553 C2572 1.368 . S
C2553 H2577 0.949 . S
H2554 C2558 0.949 . S
C2555 C2556 1.349 . S
C2555 C2557 1.327 . S
C2555 H2578 0.950 . S
C2556 C2555 1.349 . S
C2556 C2568 1.349 . S
C2557 C2555 1.327 . S
C2557 C2573 1.429 . S
C2557 H2579 0.950 . S
C2558 H2554 0.949 . S
C2558 C2566 1.574 . S
C2558 C2574 1.368 . S
H2559 C2567 0.950 . S
H2560 C2565 0.950 . S
H2561 C2566 0.949 . S
H2562 C2568 0.950 . S
H2563 C2569 0.950 . S
H2564 C2570 0.949 . S
C2565 H2560 0.950 . S
C2565 C2567 1.327 . S
C2565 C2571 1.429 . S
C2566 C2558 1.574 . S
C2566 H2561 0.949 . S
C2566 C2572 1.368 . S
C2567 C2551 1.349 . S
C2567 H2559 0.950 . S
C2567 C2565 1.327 . S
C2568 C2556 1.349 . S
C2568 H2562 0.950 . S
C2568 C2569 1.327 . S
C2569 H2563 0.950 . S
C2569 C2568 1.327 . S
C2569 C2573 1.429 . S
C2570 C2553 1.574 . S
C2570 H2564 0.949 . S
C2570 C2574 1.368 . S
C2571 C2552 1.429 . S
C2571 C2565 1.429 . S
C2571 C2572 1.523 . S
C2572 C2553 1.368 . S
C2572 C2566 1.368 . S
C2572 C2571 1.523 . S
C2573 C2557 1.429 . S
C2573 C2569 1.429 . S
C2573 C2574 1.523 . S
C2574 C2558 1.368 . S
C2574 C2570 1.368 . S
C2574 C2573 1.523 . S
H2575 C2550 0.950 . S
H2576 C2552 0.950 . S
H2577 C2553 0.949 . S
H2578 C2555 0.950 . S
H2579 C2557 0.950 . S
C2580 C2581 1.349 . S
C2580 C2582 1.327 . S
C2580 H2605 0.950 . S
C2581 C2580 1.349 . S
C2581 C2597 1.349 . S
C2582 C2580 1.327 . S
C2582 C2601 1.429 . S
C2582 H2606 0.950 . S
C2583 C2600 1.574 . S
C2583 C2602 1.368 . S
C2583 H2607 0.949 . S
H2584 C2588 0.949 . S
C2585 C2586 1.349 1_545 S
C2585 C2587 1.310 1_545 S
C2585 H2608 0.968 . S
C2586 C2585 1.349 1_565 S
C2586 C2598 1.349 . S
C2587 C2585 1.310 1_565 S
C2587 C2603 1.429 . S
C2587 H2609 0.950 . S
C2588 H2584 0.949 . S
C2588 C2596 1.574 . S
C2588 C2604 1.368 . S
H2589 C2597 0.950 . S
H2590 C2595 0.950 . S
H2591 C2596 0.949 . S
H2592 C2598 0.950 . S
H2593 C2599 0.950 . S
H2594 C2600 0.949 . S
C2595 H2590 0.950 . S
C2595 C2597 1.327 . S
C2595 C2601 1.429 . S
C2596 C2588 1.574 . S
C2596 H2591 0.949 . S
C2596 C2602 1.368 . S
C2597 C2581 1.349 . S
C2597 H2589 0.950 . S
C2597 C2595 1.327 . S
C2598 C2586 1.349 . S
C2598 H2592 0.950 . S
C2598 C2599 1.327 . S
C2599 H2593 0.950 . S
C2599 C2598 1.327 . S
C2599 C2603 1.429 . S
C2600 C2583 1.574 . S
C2600 H2594 0.949 . S
C2600 C2604 1.368 . S
C2601 C2582 1.429 . S
C2601 C2595 1.429 . S
C2601 C2602 1.523 . S
C2602 C2583 1.368 . S
C2602 C2596 1.368 . S
C2602 C2601 1.523 . S
C2603 C2587 1.429 . S
C2603 C2599 1.429 . S
C2603 C2604 1.523 . S
C2604 C2588 1.368 . S
C2604 C2600 1.368 . S
C2604 C2603 1.523 . S
H2605 C2580 0.950 . S
H2606 C2582 0.950 . S
H2607 C2583 0.949 . S
H2608 C2585 0.968 . S
H2609 C2587 0.950 . S
C2610 C2611 1.349 . S
C2610 C2612 1.327 . S
C2610 H2635 0.950 . S
C2611 C2610 1.349 . S
C2611 C2627 1.349 . S
C2612 C2610 1.327 . S
C2612 C2631 1.429 . S
C2612 H2636 0.950 . S
C2613 C2630 1.574 . S
C2613 C2632 1.368 . S
C2613 H2637 0.949 . S
H2614 C2618 0.949 . S
C2615 C2616 1.349 . S
C2615 C2617 1.327 . S
C2615 H2638 0.950 . S
C2616 C2615 1.349 . S
C2616 C2628 1.349 . S
C2617 C2615 1.327 . S
C2617 C2633 1.429 . S
C2617 H2639 0.950 . S
C2618 H2614 0.949 . S
C2618 C2626 1.574 . S
C2618 C2634 1.368 . S
H2619 C2627 0.950 . S
H2620 C2625 0.950 . S
H2621 C2626 0.949 . S
H2622 C2628 0.950 . S
H2623 C2629 0.950 . S
H2624 C2630 0.949 . S
C2625 H2620 0.950 . S
C2625 C2627 1.327 . S
C2625 C2631 1.429 . S
C2626 C2618 1.574 . S
C2626 H2621 0.949 . S
C2626 C2632 1.368 . S
C2627 C2611 1.349 . S
C2627 H2619 0.950 . S
C2627 C2625 1.327 . S
C2628 C2616 1.349 . S
C2628 H2622 0.950 . S
C2628 C2629 1.327 . S
C2629 H2623 0.950 . S
C2629 C2628 1.327 . S
C2629 C2633 1.429 . S
C2630 C2613 1.574 . S
C2630 H2624 0.949 . S
C2630 C2634 1.368 . S
C2631 C2612 1.429 . S
C2631 C2625 1.429 . S
C2631 C2632 1.523 . S
C2632 C2613 1.368 . S
C2632 C2626 1.368 . S
C2632 C2631 1.523 . S
C2633 C2617 1.429 . S
C2633 C2629 1.429 . S
C2633 C2634 1.523 . S
C2634 C2618 1.368 . S
C2634 C2630 1.368 . S
C2634 C2633 1.523 . S
H2635 C2610 0.950 . S
H2636 C2612 0.950 . S
H2637 C2613 0.949 . S
H2638 C2615 0.950 . S
H2639 C2617 0.950 . S
C2640 C2641 1.349 1_565 S
C2640 C2642 1.327 . S
C2640 H2665 0.950 . S
C2641 C2640 1.349 1_545 S
C2641 C2657 1.349 . S
C2642 C2640 1.327 . S
C2642 C2661 1.429 1_565 S
C2642 H2666 0.950 . S
C2643 C2660 1.574 . S
C2643 C2662 1.368 . S
C2643 H2667 0.949 . S
H2644 C2648 0.944 1_565 S
C2645 C2646 1.349 . S
C2645 C2647 1.327 . S
C2645 H2668 0.950 . S
C2646 C2645 1.349 . S
C2646 C2658 1.349 . S
C2647 C2645 1.327 . S
C2647 C2663 1.429 . S
C2647 H2669 0.950 . S
C2648 H2644 0.944 1_545 S
C2648 C2656 1.574 1_545 S
C2648 C2664 1.374 . S
H2649 C2657 0.950 . S
H2650 C2655 0.950 . S
H2651 C2656 0.949 . S
H2652 C2658 0.916 1_565 S
H2653 C2659 0.950 1_565 S
H2654 C2660 0.949 . S
C2655 H2650 0.950 . S
C2655 C2657 1.327 . S
C2655 C2661 1.429 . S
C2656 C2648 1.574 1_565 S
C2656 H2651 0.949 . S
C2656 C2662 1.368 1_565 S
C2657 C2641 1.349 . S
C2657 H2649 0.950 . S
C2657 C2655 1.327 . S
C2658 C2646 1.349 . S
C2658 H2652 0.916 1_545 S
C2658 C2659 1.327 . S
C2659 H2653 0.950 1_545 S
C2659 C2658 1.327 . S
C2659 C2663 1.429 . S
C2660 C2643 1.574 . S
C2660 H2654 0.949 . S
C2660 C2664 1.368 . S
C2661 C2642 1.429 1_545 S
C2661 C2655 1.429 . S
C2661 C2662 1.523 . S
C2662 C2643 1.368 . S
C2662 C2656 1.368 1_545 S
C2662 C2661 1.523 . S
C2663 C2647 1.429 . S
C2663 C2659 1.429 . S
C2663 C2664 1.523 . S
C2664 C2648 1.374 . S
C2664 C2660 1.368 . S
C2664 C2663 1.523 . S
H2665 C2640 0.950 . S
H2666 C2642 0.950 . S
H2667 C2643 0.949 . S
H2668 C2645 0.950 . S
H2669 C2647 0.950 . S
C2670 C2671 1.349 . S
C2670 C2672 1.327 . S
C2670 H2695 0.950 . S
C2671 C2670 1.349 . S
C2671 C2687 1.349 . S
C2672 C2670 1.327 . S
C2672 C2691 1.429 . S
C2672 H2696 0.950 . S
C2673 C2690 1.574 . S
C2673 C2692 1.368 . S
C2673 H2697 0.949 . S
H2674 C2678 0.949 . S
C2675 C2676 1.349 . S
C2675 C2677 1.327 . S
C2675 H2698 0.950 . S
C2676 C2675 1.349 . S
C2676 C2688 1.349 . S
C2677 C2675 1.327 . S
C2677 C2693 1.429 . S
C2677 H2699 0.950 . S
C2678 H2674 0.949 . S
C2678 C2686 1.574 . S
C2678 C2694 1.368 . S
H2679 C2687 0.950 . S
H2680 C2685 0.950 . S
H2681 C2686 0.949 . S
H2682 C2688 0.950 . S
H2683 C2689 0.950 . S
H2684 C2690 0.949 . S
C2685 H2680 0.950 . S
C2685 C2687 1.327 . S
C2685 C2691 1.429 . S
C2686 C2678 1.574 . S
C2686 H2681 0.949 . S
C2686 C2692 1.368 . S
C2687 C2671 1.349 . S
C2687 H2679 0.950 . S
C2687 C2685 1.327 . S
C2688 C2676 1.349 . S
C2688 H2682 0.950 . S
C2688 C2689 1.327 . S
C2689 H2683 0.950 . S
C2689 C2688 1.327 . S
C2689 C2693 1.429 . S
C2690 C2673 1.574 . S
C2690 H2684 0.949 . S
C2690 C2694 1.368 . S
C2691 C2672 1.429 . S
C2691 C2685 1.429 . S
C2691 C2692 1.523 . S
C2692 C2673 1.368 . S
C2692 C2686 1.368 . S
C2692 C2691 1.523 . S
C2693 C2677 1.429 . S
C2693 C2689 1.429 . S
C2693 C2694 1.523 . S
C2694 C2678 1.368 . S
C2694 C2690 1.368 . S
C2694 C2693 1.523 . S
H2695 C2670 0.950 . S
H2696 C2672 0.950 . S
H2697 C2673 0.949 . S
H2698 C2675 0.950 . S
H2699 C2677 0.950 . S
C2700 C2701 1.349 . S
C2700 C2702 1.327 . S
C2700 H2725 0.950 . S
C2701 C2700 1.349 . S
C2701 C2717 1.349 . S
C2702 C2700 1.327 . S
C2702 C2721 1.429 . S
C2702 H2726 0.950 . S
C2703 C2720 1.574 . S
C2703 C2722 1.368 . S
C2703 H2727 0.949 . S
H2704 C2708 0.949 . S
C2705 C2706 1.349 . S
C2705 C2707 1.327 . S
C2705 H2728 0.950 . S
C2706 C2705 1.349 . S
C2706 C2718 1.349 . S
C2707 C2705 1.327 . S
C2707 C2723 1.429 . S
C2707 H2729 0.950 . S
C2708 H2704 0.949 . S
C2708 C2716 1.574 . S
C2708 C2724 1.368 . S
H2709 C2717 0.950 . S
H2710 C2715 0.950 . S
H2711 C2716 0.949 . S
H2712 C2718 0.950 . S
H2713 C2719 0.950 . S
H2714 C2720 0.949 . S
C2715 H2710 0.950 . S
C2715 C2717 1.327 . S
C2715 C2721 1.429 . S
C2716 C2708 1.574 . S
C2716 H2711 0.949 . S
C2716 C2722 1.368 . S
C2717 C2701 1.349 . S
C2717 H2709 0.950 . S
C2717 C2715 1.327 . S
C2718 C2706 1.349 . S
C2718 H2712 0.950 . S
C2718 C2719 1.327 . S
C2719 H2713 0.950 . S
C2719 C2718 1.327 . S
C2719 C2723 1.429 . S
C2720 C2703 1.574 . S
C2720 H2714 0.949 . S
C2720 C2724 1.368 . S
C2721 C2702 1.429 . S
C2721 C2715 1.429 . S
C2721 C2722 1.523 . S
C2722 C2703 1.368 . S
C2722 C2716 1.368 . S
C2722 C2721 1.523 . S
C2723 C2707 1.429 . S
C2723 C2719 1.429 . S
C2723 C2724 1.523 . S
C2724 C2708 1.368 . S
C2724 C2720 1.368 . S
C2724 C2723 1.523 . S
H2725 C2700 0.950 . S
H2726 C2702 0.950 . S
H2727 C2703 0.949 . S
H2728 C2705 0.950 . S
H2729 C2707 0.950 . S
C2730 C2731 1.349 . S
C2730 C2732 1.327 . S
C2730 H2755 0.950 . S
C2731 C2730 1.349 . S
C2731 C2747 1.349 . S
C2732 C2730 1.327 . S
C2732 C2751 1.429 . S
C2732 H2756 0.950 . S
C2733 C2750 1.574 . S
C2733 C2752 1.368 . S
C2733 H2757 0.949 . S
H2734 C2738 0.949 . S
C2735 C2736 1.349 . S
C2735 C2737 1.327 . S
C2735 H2758 0.950 . S
C2736 C2735 1.349 . S
C2736 C2748 1.349 . S
C2737 C2735 1.327 . S
C2737 C2753 1.429 . S
C2737 H2759 0.950 . S
C2738 H2734 0.949 . S
C2738 C2746 1.574 . S
C2738 C2754 1.368 . S
H2739 C2747 0.950 . S
H2740 C2745 0.950 . S
H2741 C2746 0.949 . S
H2742 C2748 0.950 . S
H2743 C2749 0.950 . S
H2744 C2750 0.949 . S
C2745 H2740 0.950 . S
C2745 C2747 1.327 . S
C2745 C2751 1.429 . S
C2746 C2738 1.574 . S
C2746 H2741 0.949 . S
C2746 C2752 1.368 . S
C2747 C2731 1.349 . S
C2747 H2739 0.950 . S
C2747 C2745 1.327 . S
C2748 C2736 1.349 . S
C2748 H2742 0.950 . S
C2748 C2749 1.327 . S
C2749 H2743 0.950 . S
C2749 C2748 1.327 . S
C2749 C2753 1.429 . S
C2750 C2733 1.574 . S
C2750 H2744 0.949 . S
C2750 C2754 1.368 . S
C2751 C2732 1.429 . S
C2751 C2745 1.429 . S
C2751 C2752 1.523 . S
C2752 C2733 1.368 . S
C2752 C2746 1.368 . S
C2752 C2751 1.523 . S
C2753 C2737 1.429 . S
C2753 C2749 1.429 . S
C2753 C2754 1.523 . S
C2754 C2738 1.368 . S
C2754 C2750 1.368 . S
C2754 C2753 1.523 . S
H2755 C2730 0.950 . S
H2756 C2732 0.950 . S
H2757 C2733 0.949 . S
H2758 C2735 0.950 . S
H2759 C2737 0.950 . S
C2760 C2761 1.349 . S
C2760 C2762 1.327 . S
C2760 H2785 0.950 . S
C2761 C2760 1.349 . S
C2761 C2777 1.349 1_565 S
C2762 C2760 1.327 . S
C2762 C2781 1.429 1_565 S
C2762 H2786 0.950 . S
C2763 C2780 1.574 . S
C2763 C2782 1.368 . S
C2763 H2787 0.949 . S
H2764 C2768 0.949 . S
C2765 C2766 1.349 . S
C2765 C2767 1.327 . S
C2765 H2788 0.950 . S
C2766 C2765 1.349 . S
C2766 C2778 1.349 . S
C2767 C2765 1.327 . S
C2767 C2783 1.429 . S
C2767 H2789 0.950 . S
C2768 H2764 0.949 . S
C2768 C2776 1.574 . S
C2768 C2784 1.368 1_565 S
H2769 C2777 0.950 . S
H2770 C2775 0.950 . S
H2771 C2776 0.949 . S
H2772 C2778 0.950 1_565 S
H2773 C2779 0.950 1_565 S
H2774 C2780 0.949 . S
C2775 H2770 0.950 . S
C2775 C2777 1.327 . S
C2775 C2781 1.429 . S
C2776 C2768 1.574 . S
C2776 H2771 0.949 . S
C2776 C2782 1.368 1_565 S
C2777 C2761 1.349 1_545 S
C2777 H2769 0.950 . S
C2777 C2775 1.327 . S
C2778 C2766 1.349 . S
C2778 H2772 0.950 1_545 S
C2778 C2779 1.327 . S
C2779 H2773 0.950 1_545 S
C2779 C2778 1.327 . S
C2779 C2783 1.429 . S
C2780 C2763 1.574 . S
C2780 H2774 0.949 . S
C2780 C2784 1.368 . S
C2781 C2762 1.429 1_545 S
C2781 C2775 1.429 . S
C2781 C2782 1.523 . S
C2782 C2763 1.368 . S
C2782 C2776 1.368 1_545 S
C2782 C2781 1.523 . S
C2783 C2767 1.429 . S
C2783 C2779 1.429 . S
C2783 C2784 1.523 . S
C2784 C2768 1.368 1_545 S
C2784 C2780 1.368 . S
C2784 C2783 1.523 . S
H2785 C2760 0.950 . S
H2786 C2762 0.950 . S
H2787 C2763 0.949 . S
H2788 C2765 0.950 . S
H2789 C2767 0.950 . S
C2790 C2791 1.349 . S
C2790 C2792 1.327 . S
C2790 H2815 0.950 . S
C2791 C2790 1.349 . S
C2791 C2807 1.349 . S
C2792 C2790 1.327 . S
C2792 C2811 1.429 . S
C2792 H2816 0.950 . S
C2793 C2810 1.574 . S
C2793 C2812 1.368 . S
C2793 H2817 0.949 . S
H2794 C2798 0.949 . S
C2795 C2796 1.349 . S
C2795 C2797 1.327 . S
C2795 H2818 0.950 . S
C2796 C2795 1.349 . S
C2796 C2808 1.349 . S
C2797 C2795 1.327 . S
C2797 C2813 1.429 . S
C2797 H2819 0.950 . S
C2798 H2794 0.949 . S
C2798 C2806 1.574 . S
C2798 C2814 1.368 . S
H2799 C2807 0.950 . S
H2800 C2805 0.950 . S
H2801 C2806 0.949 . S
H2802 C2808 0.950 . S
H2803 C2809 0.950 . S
H2804 C2810 0.949 . S
C2805 H2800 0.950 . S
C2805 C2807 1.327 . S
C2805 C2811 1.429 . S
C2806 C2798 1.574 . S
C2806 H2801 0.949 . S
C2806 C2812 1.368 . S
C2807 C2791 1.349 . S
C2807 H2799 0.950 . S
C2807 C2805 1.327 . S
C2808 C2796 1.349 . S
C2808 H2802 0.950 . S
C2808 C2809 1.327 . S
C2809 H2803 0.950 . S
C2809 C2808 1.327 . S
C2809 C2813 1.429 . S
C2810 C2793 1.574 . S
C2810 H2804 0.949 . S
C2810 C2814 1.368 . S
C2811 C2792 1.429 . S
C2811 C2805 1.429 . S
C2811 C2812 1.523 . S
C2812 C2793 1.368 . S
C2812 C2806 1.368 . S
C2812 C2811 1.523 . S
C2813 C2797 1.429 . S
C2813 C2809 1.429 . S
C2813 C2814 1.523 . S
C2814 C2798 1.368 . S
C2814 C2810 1.368 . S
C2814 C2813 1.523 . S
H2815 C2790 0.950 . S
H2816 C2792 0.950 . S
H2817 C2793 0.949 . S
H2818 C2795 0.950 . S
H2819 C2797 0.950 . S
C2820 C2821 1.349 . S
C2820 C2822 1.327 . S
C2820 H2845 0.950 . S
C2821 C2820 1.349 . S
C2821 C2837 1.349 . S
C2822 C2820 1.327 . S
C2822 C2841 1.429 . S
C2822 H2846 0.950 . S
C2823 C2840 1.574 . S
C2823 C2842 1.368 . S
C2823 H2847 0.949 . S
H2824 C2828 0.949 . S
C2825 C2826 1.349 . S
C2825 C2827 1.327 . S
C2825 H2848 0.950 . S
C2826 C2825 1.349 . S
C2826 C2838 1.349 . S
C2827 C2825 1.327 . S
C2827 C2843 1.429 . S
C2827 H2849 0.950 . S
C2828 H2824 0.949 . S
C2828 C2836 1.574 . S
C2828 C2844 1.368 . S
H2829 C2837 0.950 . S
H2830 C2835 0.950 . S
H2831 C2836 0.949 . S
H2832 C2838 0.950 . S
H2833 C2839 0.950 . S
H2834 C2840 0.949 . S
C2835 H2830 0.950 . S
C2835 C2837 1.327 . S
C2835 C2841 1.429 . S
C2836 C2828 1.574 . S
C2836 H2831 0.949 . S
C2836 C2842 1.368 . S
C2837 C2821 1.349 . S
C2837 H2829 0.950 . S
C2837 C2835 1.327 . S
C2838 C2826 1.349 . S
C2838 H2832 0.950 . S
C2838 C2839 1.327 . S
C2839 H2833 0.950 . S
C2839 C2838 1.327 . S
C2839 C2843 1.429 . S
C2840 C2823 1.574 . S
C2840 H2834 0.949 . S
C2840 C2844 1.368 . S
C2841 C2822 1.429 . S
C2841 C2835 1.429 . S
C2841 C2842 1.523 . S
C2842 C2823 1.368 . S
C2842 C2836 1.368 . S
C2842 C2841 1.523 . S
C2843 C2827 1.429 . S
C2843 C2839 1.429 . S
C2843 C2844 1.523 . S
C2844 C2828 1.368 . S
C2844 C2840 1.368 . S
C2844 C2843 1.523 . S
H2845 C2820 0.950 . S
H2846 C2822 0.950 . S
H2847 C2823 0.949 . S
H2848 C2825 0.950 . S
H2849 C2827 0.950 . S
C2850 C2851 1.349 . S
C2850 C2852 1.327 . S
C2850 H2875 0.950 . S
C2851 C2850 1.349 . S
C2851 C2867 1.349 . S
C2852 C2850 1.327 . S
C2852 C2871 1.429 . S
C2852 H2876 0.950 . S
C2853 C2870 1.574 . S
C2853 C2872 1.368 . S
C2853 H2877 0.949 . S
H2854 C2858 0.949 . S
C2855 C2856 1.349 . S
C2855 C2857 1.327 . S
C2855 H2878 0.950 . S
C2856 C2855 1.349 . S
C2856 C2868 1.349 . S
C2857 C2855 1.327 . S
C2857 C2873 1.429 . S
C2857 H2879 0.950 . S
C2858 H2854 0.949 . S
C2858 C2866 1.574 . S
C2858 C2874 1.368 . S
H2859 C2867 0.950 . S
H2860 C2865 0.950 . S
H2861 C2866 0.949 . S
H2862 C2868 0.950 . S
H2863 C2869 0.950 . S
H2864 C2870 0.949 . S
C2865 H2860 0.950 . S
C2865 C2867 1.327 . S
C2865 C2871 1.429 . S
C2866 C2858 1.574 . S
C2866 H2861 0.949 . S
C2866 C2872 1.368 . S
C2867 C2851 1.349 . S
C2867 H2859 0.950 . S
C2867 C2865 1.327 . S
C2868 C2856 1.349 . S
C2868 H2862 0.950 . S
C2868 C2869 1.327 . S
C2869 H2863 0.950 . S
C2869 C2868 1.327 . S
C2869 C2873 1.429 . S
C2870 C2853 1.574 . S
C2870 H2864 0.949 . S
C2870 C2874 1.368 . S
C2871 C2852 1.429 . S
C2871 C2865 1.429 . S
C2871 C2872 1.523 . S
C2872 C2853 1.368 . S
C2872 C2866 1.368 . S
C2872 C2871 1.523 . S
C2873 C2857 1.429 . S
C2873 C2869 1.429 . S
C2873 C2874 1.523 . S
C2874 C2858 1.368 . S
C2874 C2870 1.368 . S
C2874 C2873 1.523 . S
H2875 C2850 0.950 . S
H2876 C2852 0.950 . S
H2877 C2853 0.949 . S
H2878 C2855 0.950 . S
H2879 C2857 0.950 . S
C2880 C2881 1.349 . S
C2880 C2882 1.327 . S
C2880 H2905 0.950 . S
C2881 C2880 1.349 . S
C2881 C2897 1.349 . S
C2882 C2880 1.327 . S
C2882 C2901 1.429 . S
C2882 H2906 0.984 . S
C2883 C2900 1.574 . S
C2883 C2902 1.368 . S
C2883 H2907 0.949 . S
H2884 C2888 0.949 1_556 S
C2885 C2886 1.349 . S
C2885 C2887 1.327 . S
C2885 H2908 0.950 . S
C2886 C2885 1.349 . S
C2886 C2898 1.349 . S
C2887 C2885 1.327 . S
C2887 C2903 1.429 . S
C2887 H2909 0.950 . S
C2888 H2884 0.949 1_554 S
C2888 C2896 1.574 . S
C2888 C2904 1.368 . S
H2889 C2897 0.950 . S
H2890 C2895 0.950 . S
H2891 C2896 0.949 1_556 S
H2892 C2898 0.950 1_556 S
H2893 C2899 0.950 1_556 S
H2894 C2900 0.949 . S
C2895 H2890 0.950 . S
C2895 C2897 1.327 . S
C2895 C2901 1.429 . S
C2896 C2888 1.574 . S
C2896 H2891 0.949 1_554 S
C2896 C2902 1.368 . S
C2897 C2881 1.349 . S
C2897 H2889 0.950 . S
C2897 C2895 1.327 . S
C2898 C2886 1.349 . S
C2898 H2892 0.950 1_554 S
C2898 C2899 1.327 . S
C2899 H2893 0.950 1_554 S
C2899 C2898 1.327 . S
C2899 C2903 1.429 . S
C2900 C2883 1.574 . S
C2900 H2894 0.949 . S
C2900 C2904 1.368 . S
C2901 C2882 1.429 . S
C2901 C2895 1.429 . S
C2901 C2902 1.523 . S
C2902 C2883 1.368 . S
C2902 C2896 1.368 . S
C2902 C2901 1.523 . S
C2903 C2887 1.429 . S
C2903 C2899 1.429 . S
C2903 C2904 1.523 . S
C2904 C2888 1.368 . S
C2904 C2900 1.368 . S
C2904 C2903 1.523 . S
H2905 C2880 0.950 . S
H2906 C2882 0.984 . S
H2907 C2883 0.949 . S
H2908 C2885 0.950 . S
H2909 C2887 0.950 . S
C2910 C2911 1.349 . S
C2910 C2912 1.327 . S
C2910 H2935 0.950 . S
C2911 C2910 1.349 . S
C2911 C2927 1.349 . S
C2912 C2910 1.327 . S
C2912 C2931 1.429 . S
C2912 H2936 0.950 . S
C2913 C2930 1.574 . S
C2913 C2932 1.368 . S
C2913 H2937 0.949 . S
H2914 C2918 0.949 . S
C2915 C2916 1.349 . S
C2915 C2917 1.327 . S
C2915 H2938 0.950 . S
C2916 C2915 1.349 . S
C2916 C2928 1.349 . S
C2917 C2915 1.327 . S
C2917 C2933 1.429 . S
C2917 H2939 0.950 . S
C2918 H2914 0.949 . S
C2918 C2926 1.574 . S
C2918 C2934 1.368 . S
H2919 C2927 0.950 . S
H2920 C2925 0.950 . S
H2921 C2926 0.949 . S
H2922 C2928 0.950 . S
H2923 C2929 0.950 . S
H2924 C2930 0.949 . S
C2925 H2920 0.950 . S
C2925 C2927 1.327 . S
C2925 C2931 1.429 . S
C2926 C2918 1.574 . S
C2926 H2921 0.949 . S
C2926 C2932 1.368 . S
C2927 C2911 1.349 . S
C2927 H2919 0.950 . S
C2927 C2925 1.327 . S
C2928 C2916 1.349 . S
C2928 H2922 0.950 . S
C2928 C2929 1.327 . S
C2929 H2923 0.950 . S
C2929 C2928 1.327 . S
C2929 C2933 1.429 . S
C2930 C2913 1.574 . S
C2930 H2924 0.949 . S
C2930 C2934 1.368 . S
C2931 C2912 1.429 . S
C2931 C2925 1.429 . S
C2931 C2932 1.523 . S
C2932 C2913 1.368 . S
C2932 C2926 1.368 . S
C2932 C2931 1.523 . S
C2933 C2917 1.429 . S
C2933 C2929 1.429 . S
C2933 C2934 1.523 . S
C2934 C2918 1.368 . S
C2934 C2930 1.368 . S
C2934 C2933 1.523 . S
H2935 C2910 0.950 . S
H2936 C2912 0.950 . S
H2937 C2913 0.949 . S
H2938 C2915 0.950 . S
H2939 C2917 0.950 . S
C2940 C2941 1.349 . S
C2940 C2942 1.327 . S
C2940 H2965 0.950 . S
C2941 C2940 1.349 . S
C2941 C2957 1.349 . S
C2942 C2940 1.327 . S
C2942 C2961 1.429 . S
C2942 H2966 0.950 . S
C2943 C2960 1.574 . S
C2943 C2962 1.368 . S
C2943 H2967 0.949 . S
H2944 C2948 0.949 . S
C2945 C2946 1.349 . S
C2945 C2947 1.327 . S
C2945 H2968 0.950 . S
C2946 C2945 1.349 . S
C2946 C2958 1.349 . S
C2947 C2945 1.327 . S
C2947 C2963 1.429 . S
C2947 H2969 0.950 . S
C2948 H2944 0.949 . S
C2948 C2956 1.574 . S
C2948 C2964 1.368 . S
H2949 C2957 0.950 . S
H2950 C2955 0.950 . S
H2951 C2956 0.949 . S
H2952 C2958 0.950 . S
H2953 C2959 0.950 . S
H2954 C2960 0.949 . S
C2955 H2950 0.950 . S
C2955 C2957 1.327 . S
C2955 C2961 1.429 . S
C2956 C2948 1.574 . S
C2956 H2951 0.949 . S
C2956 C2962 1.368 . S
C2957 C2941 1.349 . S
C2957 H2949 0.950 . S
C2957 C2955 1.327 . S
C2958 C2946 1.349 . S
C2958 H2952 0.950 . S
C2958 C2959 1.327 . S
C2959 H2953 0.950 . S
C2959 C2958 1.327 . S
C2959 C2963 1.429 . S
C2960 C2943 1.574 . S
C2960 H2954 0.949 . S
C2960 C2964 1.368 . S
C2961 C2942 1.429 . S
C2961 C2955 1.429 . S
C2961 C2962 1.523 . S
C2962 C2943 1.368 . S
C2962 C2956 1.368 . S
C2962 C2961 1.523 . S
C2963 C2947 1.429 . S
C2963 C2959 1.429 . S
C2963 C2964 1.523 . S
C2964 C2948 1.368 . S
C2964 C2960 1.368 . S
C2964 C2963 1.523 . S
H2965 C2940 0.950 . S
H2966 C2942 0.950 . S
H2967 C2943 0.949 . S
H2968 C2945 0.950 . S
H2969 C2947 0.950 . S
C2970 C2971 1.349 . S
C2970 C2972 1.327 . S
C2970 H2995 0.950 . S
C2971 C2970 1.349 . S
C2971 C2987 1.349 . S
C2972 C2970 1.327 . S
C2972 C2991 1.429 . S
C2972 H2996 0.950 . S
C2973 C2990 1.574 . S
C2973 C2992 1.368 . S
C2973 H2997 0.949 . S
H2974 C2978 0.949 . S
C2975 C2976 1.349 . S
C2975 C2977 1.327 . S
C2975 H2998 0.950 . S
C2976 C2975 1.349 . S
C2976 C2988 1.349 . S
C2977 C2975 1.327 . S
C2977 C2993 1.429 . S
C2977 H2999 0.950 . S
C2978 H2974 0.949 . S
C2978 C2986 1.574 . S
C2978 C2994 1.368 . S
H2979 C2987 0.950 . S
H2980 C2985 0.950 . S
H2981 C2986 0.949 . S
H2982 C2988 0.950 . S
H2983 C2989 0.950 . S
H2984 C2990 0.949 . S
C2985 H2980 0.950 . S
C2985 C2987 1.327 . S
C2985 C2991 1.429 . S
C2986 C2978 1.574 . S
C2986 H2981 0.949 . S
C2986 C2992 1.368 . S
C2987 C2971 1.349 . S
C2987 H2979 0.950 . S
C2987 C2985 1.327 . S
C2988 C2976 1.349 . S
C2988 H2982 0.950 . S
C2988 C2989 1.327 . S
C2989 H2983 0.950 . S
C2989 C2988 1.327 . S
C2989 C2993 1.429 . S
C2990 C2973 1.574 . S
C2990 H2984 0.949 . S
C2990 C2994 1.368 . S
C2991 C2972 1.429 . S
C2991 C2985 1.429 . S
C2991 C2992 1.523 . S
C2992 C2973 1.368 . S
C2992 C2986 1.368 . S
C2992 C2991 1.523 . S
C2993 C2977 1.429 . S
C2993 C2989 1.429 . S
C2993 C2994 1.523 . S
C2994 C2978 1.368 . S
C2994 C2990 1.368 . S
C2994 C2993 1.523 . S
H2995 C2970 0.950 . S
H2996 C2972 0.950 . S
H2997 C2973 0.949 . S
H2998 C2975 0.950 . S
H2999 C2977 0.950 . S
C3000 C3001 1.334 1_565 S
C3000 C3002 1.327 . S
C3000 H3025 0.936 1_565 S
C3001 C3000 1.334 1_545 S
C3001 C3017 1.327 1_545 S
C3002 C3000 1.327 . S
C3002 C3021 1.429 . S
C3002 H3026 0.950 . S
C3003 C3020 1.574 . S
C3003 C3022 1.368 . S
C3003 H3027 0.949 . S
H3004 C3008 0.949 . S
C3005 C3006 1.349 . S
C3005 C3007 1.327 . S
C3005 H3028 0.950 . S
C3006 C3005 1.349 . S
C3006 C3018 1.349 . S
C3007 C3005 1.327 . S
C3007 C3023 1.429 . S
C3007 H3029 0.950 . S
C3008 H3004 0.949 . S
C3008 C3016 1.574 . S
C3008 C3024 1.368 . S
H3009 C3017 0.950 . S
H3010 C3015 0.950 . S
H3011 C3016 0.949 . S
H3012 C3018 0.950 . S
H3013 C3019 0.950 . S
H3014 C3020 0.949 . S
C3015 H3010 0.950 . S
C3015 C3017 1.327 . S
C3015 C3021 1.429 . S
C3016 C3008 1.574 . S
C3016 H3011 0.949 . S
C3016 C3022 1.368 . S
C3017 C3001 1.327 1_565 S
C3017 H3009 0.950 . S
C3017 C3015 1.327 . S
C3018 C3006 1.349 . S
C3018 H3012 0.950 . S
C3018 C3019 1.327 . S
C3019 H3013 0.950 . S
C3019 C3018 1.327 . S
C3019 C3023 1.429 . S
C3020 C3003 1.574 . S
C3020 H3014 0.949 . S
C3020 C3024 1.368 . S
C3021 C3002 1.429 . S
C3021 C3015 1.429 . S
C3021 C3022 1.523 . S
C3022 C3003 1.368 . S
C3022 C3016 1.368 . S
C3022 C3021 1.523 . S
C3023 C3007 1.429 . S
C3023 C3019 1.429 . S
C3023 C3024 1.523 . S
C3024 C3008 1.368 . S
C3024 C3020 1.368 . S
C3024 C3023 1.523 . S
H3025 C3000 0.936 1_545 S
H3026 C3002 0.950 . S
H3027 C3003 0.949 . S
H3028 C3005 0.950 . S
H3029 C3007 0.950 . S
C3030 C3031 1.349 . S
C3030 C3032 1.327 . S
C3030 H3055 0.950 . S
C3031 C3030 1.349 . S
C3031 C3047 1.349 . S
C3032 C3030 1.327 . S
C3032 C3051 1.429 . S
C3032 H3056 0.950 . S
C3033 C3050 1.574 . S
C3033 C3052 1.368 . S
C3033 H3057 0.949 . S
H3034 C3038 0.949 . S
C3035 C3036 1.349 . S
C3035 C3037 1.327 . S
C3035 H3058 0.950 . S
C3036 C3035 1.349 . S
C3036 C3048 1.349 . S
C3037 C3035 1.327 . S
C3037 C3053 1.429 . S
C3037 H3059 0.950 . S
C3038 H3034 0.949 . S
C3038 C3046 1.574 . S
C3038 C3054 1.368 . S
H3039 C3047 0.950 . S
H3040 C3045 0.950 . S
H3041 C3046 0.949 . S
H3042 C3048 0.950 . S
H3043 C3049 0.950 . S
H3044 C3050 0.949 . S
C3045 H3040 0.950 . S
C3045 C3047 1.327 . S
C3045 C3051 1.429 . S
C3046 C3038 1.574 . S
C3046 H3041 0.949 . S
C3046 C3052 1.368 . S
C3047 C3031 1.349 . S
C3047 H3039 0.950 . S
C3047 C3045 1.327 . S
C3048 C3036 1.349 . S
C3048 H3042 0.950 . S
C3048 C3049 1.327 . S
C3049 H3043 0.950 . S
C3049 C3048 1.327 . S
C3049 C3053 1.429 . S
C3050 C3033 1.574 . S
C3050 H3044 0.949 . S
C3050 C3054 1.368 . S
C3051 C3032 1.429 . S
C3051 C3045 1.429 . S
C3051 C3052 1.523 . S
C3052 C3033 1.368 . S
C3052 C3046 1.368 . S
C3052 C3051 1.523 . S
C3053 C3037 1.429 . S
C3053 C3049 1.429 . S
C3053 C3054 1.523 . S
C3054 C3038 1.368 . S
C3054 C3050 1.368 . S
C3054 C3053 1.523 . S
H3055 C3030 0.950 . S
H3056 C3032 0.950 . S
H3057 C3033 0.949 . S
H3058 C3035 0.950 . S
H3059 C3037 0.950 . S
C3060 C3061 1.349 . S
C3060 C3062 1.327 . S
C3060 H3085 0.950 . S
C3061 C3060 1.349 . S
C3061 C3077 1.349 . S
C3062 C3060 1.327 . S
C3062 C3081 1.429 . S
C3062 H3086 0.950 . S
C3063 C3080 1.574 . S
C3063 C3082 1.368 . S
C3063 H3087 0.949 . S
H3064 C3068 0.949 . S
C3065 C3066 1.349 . S
C3065 C3067 1.327 . S
C3065 H3088 0.950 . S
C3066 C3065 1.349 . S
C3066 C3078 1.349 . S
C3067 C3065 1.327 . S
C3067 C3083 1.429 . S
C3067 H3089 0.950 . S
C3068 H3064 0.949 . S
C3068 C3076 1.574 . S
C3068 C3084 1.368 . S
H3069 C3077 0.950 . S
H3070 C3075 0.950 . S
H3071 C3076 0.949 . S
H3072 C3078 0.950 . S
H3073 C3079 0.950 . S
H3074 C3080 0.949 . S
C3075 H3070 0.950 . S
C3075 C3077 1.327 . S
C3075 C3081 1.429 . S
C3076 C3068 1.574 . S
C3076 H3071 0.949 . S
C3076 C3082 1.368 . S
C3077 C3061 1.349 . S
C3077 H3069 0.950 . S
C3077 C3075 1.327 . S
C3078 C3066 1.349 . S
C3078 H3072 0.950 . S
C3078 C3079 1.327 . S
C3079 H3073 0.950 . S
C3079 C3078 1.327 . S
C3079 C3083 1.429 . S
C3080 C3063 1.574 . S
C3080 H3074 0.949 . S
C3080 C3084 1.368 . S
C3081 C3062 1.429 . S
C3081 C3075 1.429 . S
C3081 C3082 1.523 . S
C3082 C3063 1.368 . S
C3082 C3076 1.368 . S
C3082 C3081 1.523 . S
C3083 C3067 1.429 . S
C3083 C3079 1.429 . S
C3083 C3084 1.523 . S
C3084 C3068 1.368 . S
C3084 C3080 1.368 . S
C3084 C3083 1.523 . S
H3085 C3060 0.950 . S
H3086 C3062 0.950 . S
H3087 C3063 0.949 . S
H3088 C3065 0.950 . S
H3089 C3067 0.950 . S
C3090 C3091 1.349 . S
C3090 C3092 1.327 . S
C3090 H3115 0.950 . S
C3091 C3090 1.349 . S
C3091 C3107 1.349 . S
C3092 C3090 1.327 . S
C3092 C3111 1.429 . S
C3092 H3116 0.950 . S
C3093 C3110 1.574 . S
C3093 C3112 1.368 . S
C3093 H3117 0.949 . S
H3094 C3098 0.949 . S
C3095 C3096 1.349 . S
C3095 C3097 1.327 . S
C3095 H3118 0.950 . S
C3096 C3095 1.349 . S
C3096 C3108 1.349 . S
C3097 C3095 1.327 . S
C3097 C3113 1.429 . S
C3097 H3119 0.950 . S
C3098 H3094 0.949 . S
C3098 C3106 1.574 . S
C3098 C3114 1.368 . S
H3099 C3107 0.950 . S
H3100 C3105 0.950 . S
H3101 C3106 0.949 . S
H3102 C3108 0.950 . S
H3103 C3109 0.950 . S
H3104 C3110 0.949 . S
C3105 H3100 0.950 . S
C3105 C3107 1.327 . S
C3105 C3111 1.429 . S
C3106 C3098 1.574 . S
C3106 H3101 0.949 . S
C3106 C3112 1.368 . S
C3107 C3091 1.349 . S
C3107 H3099 0.950 . S
C3107 C3105 1.327 . S
C3108 C3096 1.349 . S
C3108 H3102 0.950 . S
C3108 C3109 1.327 . S
C3109 H3103 0.950 . S
C3109 C3108 1.327 . S
C3109 C3113 1.429 . S
C3110 C3093 1.574 . S
C3110 H3104 0.949 . S
C3110 C3114 1.368 . S
C3111 C3092 1.429 . S
C3111 C3105 1.429 . S
C3111 C3112 1.523 . S
C3112 C3093 1.368 . S
C3112 C3106 1.368 . S
C3112 C3111 1.523 . S
C3113 C3097 1.429 . S
C3113 C3109 1.429 . S
C3113 C3114 1.523 . S
C3114 C3098 1.368 . S
C3114 C3110 1.368 . S
C3114 C3113 1.523 . S
H3115 C3090 0.950 . S
H3116 C3092 0.950 . S
H3117 C3093 0.949 . S
H3118 C3095 0.950 . S
H3119 C3097 0.950 . S
C3120 C3121 1.349 . S
C3120 C3122 1.327 . S
C3120 H3145 0.950 . S
C3121 C3120 1.349 . S
C3121 C3137 1.349 . S
C3122 C3120 1.327 . S
C3122 C3141 1.429 . S
C3122 H3146 0.950 . S
C3123 C3140 1.574 . S
C3123 C3142 1.368 . S
C3123 H3147 0.949 . S
H3124 C3128 0.949 . S
C3125 C3126 1.349 . S
C3125 C3127 1.327 . S
C3125 H3148 0.950 . S
C3126 C3125 1.349 . S
C3126 C3138 1.349 . S
C3127 C3125 1.327 . S
C3127 C3143 1.429 . S
C3127 H3149 0.950 . S
C3128 H3124 0.949 . S
C3128 C3136 1.574 . S
C3128 C3144 1.368 . S
H3129 C3137 0.950 . S
H3130 C3135 0.950 . S
H3131 C3136 0.949 . S
H3132 C3138 0.950 . S
H3133 C3139 0.950 . S
H3134 C3140 0.949 . S
C3135 H3130 0.950 . S
C3135 C3137 1.327 . S
C3135 C3141 1.429 . S
C3136 C3128 1.574 . S
C3136 H3131 0.949 . S
C3136 C3142 1.368 . S
C3137 C3121 1.349 . S
C3137 H3129 0.950 . S
C3137 C3135 1.327 . S
C3138 C3126 1.349 . S
C3138 H3132 0.950 . S
C3138 C3139 1.327 . S
C3139 H3133 0.950 . S
C3139 C3138 1.327 . S
C3139 C3143 1.429 . S
C3140 C3123 1.574 . S
C3140 H3134 0.949 . S
C3140 C3144 1.368 . S
C3141 C3122 1.429 . S
C3141 C3135 1.429 . S
C3141 C3142 1.523 . S
C3142 C3123 1.368 . S
C3142 C3136 1.368 . S
C3142 C3141 1.523 . S
C3143 C3127 1.429 . S
C3143 C3139 1.429 . S
C3143 C3144 1.523 . S
C3144 C3128 1.368 . S
C3144 C3140 1.368 . S
C3144 C3143 1.523 . S
H3145 C3120 0.950 . S
H3146 C3122 0.950 . S
H3147 C3123 0.949 . S
H3148 C3125 0.950 . S
H3149 C3127 0.950 . S
C3150 C3151 1.349 . S
C3150 C3152 1.327 . S
C3150 H3175 0.950 . S
C3151 C3150 1.349 . S
C3151 C3167 1.349 . S
C3152 C3150 1.327 . S
C3152 C3171 1.429 . S
C3152 H3176 0.950 . S
C3153 C3170 1.574 . S
C3153 C3172 1.368 . S
C3153 H3177 0.949 . S
H3154 C3158 0.949 . S
C3155 C3156 1.349 . S
C3155 C3157 1.327 . S
C3155 H3178 0.950 . S
C3156 C3155 1.349 . S
C3156 C3168 1.349 . S
C3157 C3155 1.327 . S
C3157 C3173 1.429 . S
C3157 H3179 0.950 . S
C3158 H3154 0.949 . S
C3158 C3166 1.574 . S
C3158 C3174 1.368 . S
H3159 C3167 0.950 . S
H3160 C3165 0.950 . S
H3161 C3166 0.949 . S
H3162 C3168 0.950 . S
H3163 C3169 0.950 . S
H3164 C3170 0.949 . S
C3165 H3160 0.950 . S
C3165 C3167 1.327 . S
C3165 C3171 1.429 . S
C3166 C3158 1.574 . S
C3166 H3161 0.949 . S
C3166 C3172 1.368 . S
C3167 C3151 1.349 . S
C3167 H3159 0.950 . S
C3167 C3165 1.327 . S
C3168 C3156 1.349 . S
C3168 H3162 0.950 . S
C3168 C3169 1.327 . S
C3169 H3163 0.950 . S
C3169 C3168 1.327 . S
C3169 C3173 1.429 . S
C3170 C3153 1.574 . S
C3170 H3164 0.949 . S
C3170 C3174 1.368 . S
C3171 C3152 1.429 . S
C3171 C3165 1.429 . S
C3171 C3172 1.523 . S
C3172 C3153 1.368 . S
C3172 C3166 1.368 . S
C3172 C3171 1.523 . S
C3173 C3157 1.429 . S
C3173 C3169 1.429 . S
C3173 C3174 1.523 . S
C3174 C3158 1.368 . S
C3174 C3170 1.368 . S
C3174 C3173 1.523 . S
H3175 C3150 0.950 . S
H3176 C3152 0.950 . S
H3177 C3153 0.949 . S
H3178 C3155 0.950 . S
H3179 C3157 0.950 . S
C3180 C3181 1.349 . S
C3180 C3182 1.327 . S
C3180 H3205 0.950 . S
C3181 C3180 1.349 . S
C3181 C3197 1.349 . S
C3182 C3180 1.327 . S
C3182 C3201 1.429 . S
C3182 H3206 0.950 . S
C3183 C3200 1.574 . S
C3183 C3202 1.368 . S
C3183 H3207 0.949 . S
H3184 C3188 0.949 . S
C3185 C3186 1.349 1_556 S
C3185 C3187 1.327 . S
C3185 H3208 0.950 . S
C3186 C3185 1.349 1_554 S
C3186 C3198 1.349 . S
C3187 C3185 1.327 . S
C3187 C3203 1.418 1_556 S
C3187 H3209 0.950 . S
C3188 H3184 0.949 . S
C3188 C3196 1.574 1_554 S
C3188 C3204 1.368 1_554 S
H3189 C3197 0.950 . S
H3190 C3195 0.950 . S
H3191 C3196 0.949 1_554 S
H3192 C3198 0.950 . S
H3193 C3199 0.950 . S
H3194 C3200 0.949 . S
C3195 H3190 0.950 . S
C3195 C3197 1.327 . S
C3195 C3201 1.429 . S
C3196 C3188 1.574 1_556 S
C3196 H3191 0.949 1_556 S
C3196 C3202 1.368 . S
C3197 C3181 1.349 . S
C3197 H3189 0.950 . S
C3197 C3195 1.327 . S
C3198 C3186 1.349 . S
C3198 H3192 0.950 . S
C3198 C3199 1.327 . S
C3199 H3193 0.950 . S
C3199 C3198 1.327 . S
C3199 C3203 1.442 . S
C3200 C3183 1.574 . S
C3200 H3194 0.949 . S
C3200 C3204 1.368 . S
C3201 C3182 1.429 . S
C3201 C3195 1.429 . S
C3201 C3202 1.523 . S
C3202 C3183 1.368 . S
C3202 C3196 1.368 . S
C3202 C3201 1.523 . S
C3203 C3187 1.418 1_554 S
C3203 C3199 1.442 . S
C3203 C3204 1.521 1_554 S
C3204 C3188 1.368 1_556 S
C3204 C3200 1.368 . S
C3204 C3203 1.521 1_556 S
H3205 C3180 0.950 . S
H3206 C3182 0.950 . S
H3207 C3183 0.949 . S
H3208 C3185 0.950 . S
H3209 C3187 0.950 . S
C3210 C3211 1.349 . S
C3210 C3212 1.327 . S
C3210 H3235 0.950 . S
C3211 C3210 1.349 . S
C3211 C3227 1.349 . S
C3212 C3210 1.327 . S
C3212 C3231 1.429 1_455 S
C3212 H3236 0.950 . S
C3213 C3230 1.574 . S
C3213 C3232 1.368 . S
C3213 H3237 0.949 . S
H3214 C3218 0.949 . S
C3215 C3216 1.349 . S
C3215 C3217 1.327 . S
C3215 H3238 0.950 . S
C3216 C3215 1.349 . S
C3216 C3228 1.349 . S
C3217 C3215 1.327 . S
C3217 C3233 1.429 . S
C3217 H3239 0.950 . S
C3218 H3214 0.949 . S
C3218 C3226 1.574 . S
C3218 C3234 1.368 . S
H3219 C3227 0.950 . S
H3220 C3225 0.950 . S
H3221 C3226 0.949 . S
H3222 C3228 0.950 . S
H3223 C3229 0.950 . S
H3224 C3230 0.949 . S
C3225 H3220 0.950 . S
C3225 C3227 1.327 1_655 S
C3225 C3231 1.429 . S
C3226 C3218 1.574 . S
C3226 H3221 0.949 . S
C3226 C3232 1.368 . S
C3227 C3211 1.349 . S
C3227 H3219 0.950 . S
C3227 C3225 1.327 1_455 S
C3228 C3216 1.349 . S
C3228 H3222 0.950 . S
C3228 C3229 1.327 . S
C3229 H3223 0.950 . S
C3229 C3228 1.327 . S
C3229 C3233 1.429 . S
C3230 C3213 1.574 . S
C3230 H3224 0.949 . S
C3230 C3234 1.368 . S
C3231 C3212 1.429 1_655 S
C3231 C3225 1.429 . S
C3231 C3232 1.523 . S
C3232 C3213 1.368 . S
C3232 C3226 1.368 . S
C3232 C3231 1.523 . S
C3233 C3217 1.429 . S
C3233 C3229 1.429 . S
C3233 C3234 1.523 . S
C3234 C3218 1.368 . S
C3234 C3230 1.368 . S
C3234 C3233 1.523 . S
H3235 C3210 0.950 . S
H3236 C3212 0.950 . S
H3237 C3213 0.949 . S
H3238 C3215 0.950 . S
H3239 C3217 0.950 . S
C3240 C3241 1.349 . S
C3240 C3242 1.327 . S
C3240 H3265 0.950 . S
C3241 C3240 1.349 . S
C3241 C3257 1.349 . S
C3242 C3240 1.327 . S
C3242 C3261 1.429 . S
C3242 H3266 0.950 . S
C3243 C3260 1.574 . S
C3243 C3262 1.368 . S
C3243 H3267 0.949 . S
H3244 C3248 0.949 . S
C3245 C3246 1.349 . S
C3245 C3247 1.327 . S
C3245 H3268 0.950 . S
C3246 C3245 1.349 . S
C3246 C3258 1.349 . S
C3247 C3245 1.327 . S
C3247 C3263 1.429 . S
C3247 H3269 0.950 . S
C3248 H3244 0.949 . S
C3248 C3256 1.574 . S
C3248 C3264 1.368 . S
H3249 C3257 0.950 . S
H3250 C3255 0.950 . S
H3251 C3256 0.949 . S
H3252 C3258 0.950 . S
H3253 C3259 0.950 . S
H3254 C3260 0.949 . S
C3255 H3250 0.950 . S
C3255 C3257 1.327 . S
C3255 C3261 1.429 . S
C3256 C3248 1.574 . S
C3256 H3251 0.949 . S
C3256 C3262 1.368 . S
C3257 C3241 1.349 . S
C3257 H3249 0.950 . S
C3257 C3255 1.327 . S
C3258 C3246 1.349 . S
C3258 H3252 0.950 . S
C3258 C3259 1.327 . S
C3259 H3253 0.950 . S
C3259 C3258 1.327 . S
C3259 C3263 1.429 . S
C3260 C3243 1.574 . S
C3260 H3254 0.949 . S
C3260 C3264 1.368 . S
C3261 C3242 1.429 . S
C3261 C3255 1.429 . S
C3261 C3262 1.523 . S
C3262 C3243 1.368 . S
C3262 C3256 1.368 . S
C3262 C3261 1.523 . S
C3263 C3247 1.429 . S
C3263 C3259 1.429 . S
C3263 C3264 1.523 . S
C3264 C3248 1.368 . S
C3264 C3260 1.368 . S
C3264 C3263 1.523 . S
H3265 C3240 0.950 . S
H3266 C3242 0.950 . S
H3267 C3243 0.949 . S
H3268 C3245 0.950 . S
H3269 C3247 0.950 . S
C3270 C3271 1.349 . S
C3270 C3272 1.327 . S
C3270 H3295 0.950 . S
C3271 C3270 1.349 . S
C3271 C3287 1.349 . S
C3272 C3270 1.327 . S
C3272 C3291 1.429 . S
C3272 H3296 0.950 . S
C3273 C3290 1.574 . S
C3273 C3292 1.368 . S
C3273 H3297 0.949 . S
H3274 C3278 0.949 . S
C3275 C3276 1.349 . S
C3275 C3277 1.327 . S
C3275 H3298 0.950 . S
C3276 C3275 1.349 . S
C3276 C3288 1.349 . S
C3277 C3275 1.327 . S
C3277 C3293 1.429 . S
C3277 H3299 0.950 . S
C3278 H3274 0.949 . S
C3278 C3286 1.574 . S
C3278 C3294 1.368 . S
H3279 C3287 0.950 . S
H3280 C3285 0.950 . S
H3281 C3286 0.949 1_455 S
H3282 C3288 0.950 . S
H3283 C3289 0.950 . S
H3284 C3290 0.949 . S
C3285 H3280 0.950 . S
C3285 C3287 1.327 . S
C3285 C3291 1.429 . S
C3286 C3278 1.574 . S
C3286 H3281 0.949 1_655 S
C3286 C3292 1.368 . S
C3287 C3271 1.349 . S
C3287 H3279 0.950 . S
C3287 C3285 1.327 . S
C3288 C3276 1.349 . S
C3288 H3282 0.950 . S
C3288 C3289 1.327 . S
C3289 H3283 0.950 . S
C3289 C3288 1.327 . S
C3289 C3293 1.429 . S
C3290 C3273 1.574 . S
C3290 H3284 0.949 . S
C3290 C3294 1.368 . S
C3291 C3272 1.429 . S
C3291 C3285 1.429 . S
C3291 C3292 1.523 1_455 S
C3292 C3273 1.368 . S
C3292 C3286 1.368 . S
C3292 C3291 1.523 1_655 S
C3293 C3277 1.429 . S
C3293 C3289 1.429 . S
C3293 C3294 1.523 . S
C3294 C3278 1.368 . S
C3294 C3290 1.368 . S
C3294 C3293 1.523 . S
H3295 C3270 0.950 . S
H3296 C3272 0.950 . S
H3297 C3273 0.949 . S
H3298 C3275 0.950 . S
H3299 C3277 0.950 . S
C3300 C3301 1.349 1_455 S
C3300 C3302 1.327 . S
C3300 H3325 0.950 . S
C3301 C3300 1.349 1_655 S
C3301 C3317 1.349 . S
C3302 C3300 1.327 . S
C3302 C3321 1.429 . S
C3302 H3326 0.950 . S
C3303 C3320 1.574 1_655 S
C3303 C3322 1.368 1_655 S
C3303 H3327 0.949 . S
H3304 C3308 0.949 . S
C3305 C3306 1.349 . S
C3305 C3307 1.327 . S
C3305 H3328 0.950 . S
C3306 C3305 1.349 . S
C3306 C3318 1.349 . S
C3307 C3305 1.327 . S
C3307 C3323 1.429 . S
C3307 H3329 0.950 . S
C3308 H3304 0.949 . S
C3308 C3316 1.574 . S
C3308 C3324 1.368 . S
H3309 C3317 0.950 . S
H3310 C3315 0.950 . S
H3311 C3316 0.949 . S
H3312 C3318 0.950 . S
H3313 C3319 0.950 . S
H3314 C3320 0.949 1_655 S
C3315 H3310 0.950 . S
C3315 C3317 1.327 . S
C3315 C3321 1.429 1_655 S
C3316 C3308 1.574 . S
C3316 H3311 0.949 . S
C3316 C3322 1.368 . S
C3317 C3301 1.349 . S
C3317 H3309 0.950 . S
C3317 C3315 1.327 . S
C3318 C3306 1.349 . S
C3318 H3312 0.950 . S
C3318 C3319 1.327 . S
C3319 H3313 0.950 . S
C3319 C3318 1.327 . S
C3319 C3323 1.429 . S
C3320 C3303 1.574 1_455 S
C3320 H3314 0.949 1_455 S
C3320 C3324 1.368 . S
C3321 C3302 1.429 . S
C3321 C3315 1.429 1_455 S
C3321 C3322 1.523 . S
C3322 C3303 1.368 1_455 S
C3322 C3316 1.368 . S
C3322 C3321 1.523 . S
C3323 C3307 1.429 . S
C3323 C3319 1.429 . S
C3323 C3324 1.523 . S
C3324 C3308 1.368 . S
C3324 C3320 1.368 . S
C3324 C3323 1.523 . S
H3325 C3300 0.950 . S
H3326 C3302 0.950 . S
H3327 C3303 0.949 . S
H3328 C3305 0.950 . S
H3329 C3307 0.950 . S
C3330 C3331 1.349 . S
C3330 C3332 1.327 . S
C3330 H3355 0.950 . S
C3331 C3330 1.349 . S
C3331 C3347 1.349 . S
C3332 C3330 1.327 . S
C3332 C3351 1.429 . S
C3332 H3356 0.950 . S
C3333 C3350 1.574 . S
C3333 C3352 1.368 . S
C3333 H3357 0.949 . S
H3334 C3338 0.949 . S
C3335 C3336 1.349 . S
C3335 C3337 1.327 . S
C3335 H3358 0.950 . S
C3336 C3335 1.349 . S
C3336 C3348 1.349 . S
C3337 C3335 1.327 . S
C3337 C3353 1.429 . S
C3337 H3359 0.950 . S
C3338 H3334 0.949 . S
C3338 C3346 1.574 . S
C3338 C3354 1.368 . S
H3339 C3347 0.950 . S
H3340 C3345 0.950 . S
H3341 C3346 0.949 . S
H3342 C3348 0.950 . S
H3343 C3349 0.950 . S
H3344 C3350 0.949 . S
C3345 H3340 0.950 . S
C3345 C3347 1.327 . S
C3345 C3351 1.429 . S
C3346 C3338 1.574 . S
C3346 H3341 0.949 . S
C3346 C3352 1.368 . S
C3347 C3331 1.349 . S
C3347 H3339 0.950 . S
C3347 C3345 1.327 . S
C3348 C3336 1.349 . S
C3348 H3342 0.950 . S
C3348 C3349 1.327 . S
C3349 H3343 0.950 . S
C3349 C3348 1.327 . S
C3349 C3353 1.429 . S
C3350 C3333 1.574 . S
C3350 H3344 0.949 . S
C3350 C3354 1.368 . S
C3351 C3332 1.429 . S
C3351 C3345 1.429 . S
C3351 C3352 1.523 . S
C3352 C3333 1.368 . S
C3352 C3346 1.368 . S
C3352 C3351 1.523 . S
C3353 C3337 1.429 . S
C3353 C3349 1.429 . S
C3353 C3354 1.523 . S
C3354 C3338 1.368 . S
C3354 C3350 1.368 . S
C3354 C3353 1.523 . S
H3355 C3330 0.950 . S
H3356 C3332 0.950 . S
H3357 C3333 0.949 . S
H3358 C3335 0.950 . S
H3359 C3337 0.950 . S
C3360 C3361 1.349 . S
C3360 C3362 1.327 . S
C3360 H3385 0.950 . S
C3361 C3360 1.349 . S
C3361 C3377 1.349 . S
C3362 C3360 1.327 . S
C3362 C3381 1.429 . S
C3362 H3386 0.950 . S
C3363 C3380 1.574 . S
C3363 C3382 1.368 . S
C3363 H3387 0.949 . S
H3364 C3368 0.949 . S
C3365 C3366 1.349 . S
C3365 C3367 1.327 . S
C3365 H3388 0.950 . S
C3366 C3365 1.349 . S
C3366 C3378 1.349 . S
C3367 C3365 1.327 . S
C3367 C3383 1.429 . S
C3367 H3389 0.950 . S
C3368 H3364 0.949 . S
C3368 C3376 1.574 . S
C3368 C3384 1.368 . S
H3369 C3377 0.950 . S
H3370 C3375 0.950 . S
H3371 C3376 0.949 . S
H3372 C3378 0.950 . S
H3373 C3379 0.950 . S
H3374 C3380 0.949 . S
C3375 H3370 0.950 . S
C3375 C3377 1.327 . S
C3375 C3381 1.429 . S
C3376 C3368 1.574 . S
C3376 H3371 0.949 . S
C3376 C3382 1.368 . S
C3377 C3361 1.349 . S
C3377 H3369 0.950 . S
C3377 C3375 1.327 . S
C3378 C3366 1.349 . S
C3378 H3372 0.950 . S
C3378 C3379 1.327 . S
C3379 H3373 0.950 . S
C3379 C3378 1.327 . S
C3379 C3383 1.429 . S
C3380 C3363 1.574 . S
C3380 H3374 0.949 . S
C3380 C3384 1.368 . S
C3381 C3362 1.429 . S
C3381 C3375 1.429 . S
C3381 C3382 1.523 . S
C3382 C3363 1.368 . S
C3382 C3376 1.368 . S
C3382 C3381 1.523 . S
C3383 C3367 1.429 . S
C3383 C3379 1.429 . S
C3383 C3384 1.523 . S
C3384 C3368 1.368 . S
C3384 C3380 1.368 . S
C3384 C3383 1.523 . S
H3385 C3360 0.950 . S
H3386 C3362 0.950 . S
H3387 C3363 0.949 . S
H3388 C3365 0.950 . S
H3389 C3367 0.950 . S
C3390 C3391 1.349 . S
C3390 C3392 1.327 . S
C3390 H3415 0.950 . S
C3391 C3390 1.349 . S
C3391 C3407 1.349 . S
C3392 C3390 1.327 . S
C3392 C3411 1.429 . S
C3392 H3416 0.950 . S
C3393 C3410 1.574 . S
C3393 C3412 1.368 . S
C3393 H3417 0.949 . S
H3394 C3398 0.949 . S
C3395 C3396 1.349 . S
C3395 C3397 1.327 . S
C3395 H3418 0.950 . S
C3396 C3395 1.349 . S
C3396 C3408 1.349 . S
C3397 C3395 1.327 . S
C3397 C3413 1.429 . S
C3397 H3419 0.950 . S
C3398 H3394 0.949 . S
C3398 C3406 1.574 . S
C3398 C3414 1.368 . S
H3399 C3407 0.950 . S
H3400 C3405 0.950 . S
H3401 C3406 0.949 . S
H3402 C3408 0.950 . S
H3403 C3409 0.950 . S
H3404 C3410 0.949 . S
C3405 H3400 0.950 . S
C3405 C3407 1.327 . S
C3405 C3411 1.429 . S
C3406 C3398 1.574 . S
C3406 H3401 0.949 . S
C3406 C3412 1.368 . S
C3407 C3391 1.349 . S
C3407 H3399 0.950 . S
C3407 C3405 1.327 . S
C3408 C3396 1.349 . S
C3408 H3402 0.950 . S
C3408 C3409 1.327 . S
C3409 H3403 0.950 . S
C3409 C3408 1.327 . S
C3409 C3413 1.429 . S
C3410 C3393 1.574 . S
C3410 H3404 0.949 . S
C3410 C3414 1.368 . S
C3411 C3392 1.429 . S
C3411 C3405 1.429 . S
C3411 C3412 1.523 . S
C3412 C3393 1.368 . S
C3412 C3406 1.368 . S
C3412 C3411 1.523 . S
C3413 C3397 1.429 . S
C3413 C3409 1.429 . S
C3413 C3414 1.523 . S
C3414 C3398 1.368 . S
C3414 C3410 1.368 . S
C3414 C3413 1.523 . S
H3415 C3390 0.950 . S
H3416 C3392 0.950 . S
H3417 C3393 0.949 . S
H3418 C3395 0.950 . S
H3419 C3397 0.950 . S
C3420 C3421 1.349 . S
C3420 C3422 1.327 . S
C3420 H3445 0.950 . S
C3421 C3420 1.349 . S
C3421 C3437 1.349 . S
C3422 C3420 1.327 . S
C3422 C3441 1.429 . S
C3422 H3446 0.950 . S
C3423 C3440 1.574 . S
C3423 C3442 1.368 . S
C3423 H3447 0.949 . S
H3424 C3428 0.949 . S
C3425 C3426 1.349 . S
C3425 C3427 1.327 . S
C3425 H3448 0.950 . S
C3426 C3425 1.349 . S
C3426 C3438 1.349 . S
C3427 C3425 1.327 . S
C3427 C3443 1.429 . S
C3427 H3449 0.950 . S
C3428 H3424 0.949 . S
C3428 C3436 1.574 . S
C3428 C3444 1.368 . S
H3429 C3437 0.950 . S
H3430 C3435 0.950 . S
H3431 C3436 0.949 . S
H3432 C3438 0.950 . S
H3433 C3439 0.950 . S
H3434 C3440 0.949 . S
C3435 H3430 0.950 . S
C3435 C3437 1.327 . S
C3435 C3441 1.429 . S
C3436 C3428 1.574 . S
C3436 H3431 0.949 . S
C3436 C3442 1.368 . S
C3437 C3421 1.349 . S
C3437 H3429 0.950 . S
C3437 C3435 1.327 . S
C3438 C3426 1.349 . S
C3438 H3432 0.950 . S
C3438 C3439 1.327 . S
C3439 H3433 0.950 . S
C3439 C3438 1.327 . S
C3439 C3443 1.429 . S
C3440 C3423 1.574 . S
C3440 H3434 0.949 . S
C3440 C3444 1.368 . S
C3441 C3422 1.429 . S
C3441 C3435 1.429 . S
C3441 C3442 1.523 . S
C3442 C3423 1.368 . S
C3442 C3436 1.368 . S
C3442 C3441 1.523 . S
C3443 C3427 1.429 . S
C3443 C3439 1.429 . S
C3443 C3444 1.523 . S
C3444 C3428 1.368 . S
C3444 C3440 1.368 . S
C3444 C3443 1.523 . S
H3445 C3420 0.950 . S
H3446 C3422 0.950 . S
H3447 C3423 0.949 . S
H3448 C3425 0.950 . S
H3449 C3427 0.950 . S
C3450 C3451 1.349 . S
C3450 C3452 1.327 . S
C3450 H3475 0.950 . S
C3451 C3450 1.349 . S
C3451 C3467 1.349 . S
C3452 C3450 1.327 . S
C3452 C3471 1.429 . S
C3452 H3476 0.950 . S
C3453 C3470 1.574 . S
C3453 C3472 1.368 . S
C3453 H3477 0.949 . S
H3454 C3458 0.949 . S
C3455 C3456 1.349 . S
C3455 C3457 1.327 . S
C3455 H3478 0.950 . S
C3456 C3455 1.349 . S
C3456 C3468 1.349 . S
C3457 C3455 1.327 . S
C3457 C3473 1.429 . S
C3457 H3479 0.950 . S
C3458 H3454 0.949 . S
C3458 C3466 1.574 . S
C3458 C3474 1.368 . S
H3459 C3467 0.950 . S
H3460 C3465 0.950 . S
H3461 C3466 0.949 . S
H3462 C3468 0.950 . S
H3463 C3469 0.950 . S
H3464 C3470 0.949 . S
C3465 H3460 0.950 . S
C3465 C3467 1.327 . S
C3465 C3471 1.429 . S
C3466 C3458 1.574 . S
C3466 H3461 0.949 . S
C3466 C3472 1.368 . S
C3467 C3451 1.349 . S
C3467 H3459 0.950 . S
C3467 C3465 1.327 . S
C3468 C3456 1.349 . S
C3468 H3462 0.950 . S
C3468 C3469 1.327 . S
C3469 H3463 0.950 . S
C3469 C3468 1.327 . S
C3469 C3473 1.429 . S
C3470 C3453 1.574 . S
C3470 H3464 0.949 . S
C3470 C3474 1.368 . S
C3471 C3452 1.429 . S
C3471 C3465 1.429 . S
C3471 C3472 1.523 . S
C3472 C3453 1.368 . S
C3472 C3466 1.368 . S
C3472 C3471 1.523 . S
C3473 C3457 1.429 . S
C3473 C3469 1.429 . S
C3473 C3474 1.523 . S
C3474 C3458 1.368 . S
C3474 C3470 1.368 . S
C3474 C3473 1.523 . S
H3475 C3450 0.950 . S
H3476 C3452 0.950 . S
H3477 C3453 0.949 . S
H3478 C3455 0.950 . S
H3479 C3457 0.950 . S
C3480 C3481 1.349 . S
C3480 C3482 1.327 . S
C3480 H3505 0.950 . S
C3481 C3480 1.349 . S
C3481 C3497 1.349 . S
C3482 C3480 1.327 . S
C3482 C3501 1.429 . S
C3482 H3506 0.950 . S
C3483 C3500 1.574 . S
C3483 C3502 1.368 . S
C3483 H3507 0.949 . S
H3484 C3488 0.949 . S
C3485 C3486 1.349 . S
C3485 C3487 1.327 . S
C3485 H3508 0.950 . S
C3486 C3485 1.349 . S
C3486 C3498 1.349 . S
C3487 C3485 1.327 . S
C3487 C3503 1.429 . S
C3487 H3509 0.950 . S
C3488 H3484 0.949 . S
C3488 C3496 1.574 . S
C3488 C3504 1.368 . S
H3489 C3497 0.950 . S
H3490 C3495 0.950 . S
H3491 C3496 0.949 . S
H3492 C3498 0.950 . S
H3493 C3499 0.950 . S
H3494 C3500 0.949 . S
C3495 H3490 0.950 . S
C3495 C3497 1.327 . S
C3495 C3501 1.429 . S
C3496 C3488 1.574 . S
C3496 H3491 0.949 . S
C3496 C3502 1.368 . S
C3497 C3481 1.349 . S
C3497 H3489 0.950 . S
C3497 C3495 1.327 . S
C3498 C3486 1.349 . S
C3498 H3492 0.950 . S
C3498 C3499 1.327 . S
C3499 H3493 0.950 . S
C3499 C3498 1.327 . S
C3499 C3503 1.429 . S
C3500 C3483 1.574 . S
C3500 H3494 0.949 . S
C3500 C3504 1.368 . S
C3501 C3482 1.429 . S
C3501 C3495 1.429 . S
C3501 C3502 1.523 . S
C3502 C3483 1.368 . S
C3502 C3496 1.368 . S
C3502 C3501 1.523 . S
C3503 C3487 1.429 . S
C3503 C3499 1.429 . S
C3503 C3504 1.523 . S
C3504 C3488 1.368 . S
C3504 C3500 1.368 . S
C3504 C3503 1.523 . S
H3505 C3480 0.950 . S
H3506 C3482 0.950 . S
H3507 C3483 0.949 . S
H3508 C3485 0.950 . S
H3509 C3487 0.950 . S
C3510 C3511 1.349 . S
C3510 C3512 1.327 . S
C3510 H3535 0.950 . S
C3511 C3510 1.349 . S
C3511 C3527 1.349 . S
C3512 C3510 1.327 . S
C3512 C3531 1.429 . S
C3512 H3536 0.950 . S
C3513 C3530 1.574 . S
C3513 C3532 1.368 . S
C3513 H3537 0.949 . S
H3514 C3518 0.949 . S
C3515 C3516 1.349 . S
C3515 C3517 1.327 . S
C3515 H3538 0.950 . S
C3516 C3515 1.349 . S
C3516 C3528 1.349 . S
C3517 C3515 1.327 . S
C3517 C3533 1.429 . S
C3517 H3539 0.950 . S
C3518 H3514 0.949 . S
C3518 C3526 1.574 . S
C3518 C3534 1.368 . S
H3519 C3527 0.950 . S
H3520 C3525 0.950 . S
H3521 C3526 0.949 . S
H3522 C3528 0.950 . S
H3523 C3529 0.950 . S
H3524 C3530 0.949 . S
C3525 H3520 0.950 . S
C3525 C3527 1.327 . S
C3525 C3531 1.429 . S
C3526 C3518 1.574 . S
C3526 H3521 0.949 . S
C3526 C3532 1.368 . S
C3527 C3511 1.349 . S
C3527 H3519 0.950 . S
C3527 C3525 1.327 . S
C3528 C3516 1.349 . S
C3528 H3522 0.950 . S
C3528 C3529 1.327 . S
C3529 H3523 0.950 . S
C3529 C3528 1.327 . S
C3529 C3533 1.429 . S
C3530 C3513 1.574 . S
C3530 H3524 0.949 . S
C3530 C3534 1.368 . S
C3531 C3512 1.429 . S
C3531 C3525 1.429 . S
C3531 C3532 1.523 . S
C3532 C3513 1.368 . S
C3532 C3526 1.368 . S
C3532 C3531 1.523 . S
C3533 C3517 1.429 . S
C3533 C3529 1.429 . S
C3533 C3534 1.523 . S
C3534 C3518 1.368 . S
C3534 C3530 1.368 . S
C3534 C3533 1.523 . S
H3535 C3510 0.950 . S
H3536 C3512 0.950 . S
H3537 C3513 0.949 . S
H3538 C3515 0.950 . S
H3539 C3517 0.950 . S
C3540 C3541 1.349 . S
C3540 C3542 1.327 . S
C3540 H3565 0.950 . S
C3541 C3540 1.349 . S
C3541 C3557 1.349 . S
C3542 C3540 1.327 . S
C3542 C3561 1.429 . S
C3542 H3566 0.950 . S
C3543 C3560 1.574 . S
C3543 C3562 1.368 . S
C3543 H3567 0.949 . S
H3544 C3548 0.949 . S
C3545 C3546 1.349 . S
C3545 C3547 1.327 . S
C3545 H3568 0.950 . S
C3546 C3545 1.349 . S
C3546 C3558 1.349 . S
C3547 C3545 1.327 . S
C3547 C3563 1.429 . S
C3547 H3569 0.950 . S
C3548 H3544 0.949 . S
C3548 C3556 1.574 . S
C3548 C3564 1.368 . S
H3549 C3557 0.950 . S
H3550 C3555 0.950 . S
H3551 C3556 0.949 . S
H3552 C3558 0.950 . S
H3553 C3559 0.950 . S
H3554 C3560 0.949 . S
C3555 H3550 0.950 . S
C3555 C3557 1.327 . S
C3555 C3561 1.429 . S
C3556 C3548 1.574 . S
C3556 H3551 0.949 . S
C3556 C3562 1.368 . S
C3557 C3541 1.349 . S
C3557 H3549 0.950 . S
C3557 C3555 1.327 . S
C3558 C3546 1.349 . S
C3558 H3552 0.950 . S
C3558 C3559 1.327 . S
C3559 H3553 0.950 . S
C3559 C3558 1.327 . S
C3559 C3563 1.429 . S
C3560 C3543 1.574 . S
C3560 H3554 0.949 . S
C3560 C3564 1.368 . S
C3561 C3542 1.429 . S
C3561 C3555 1.429 . S
C3561 C3562 1.523 . S
C3562 C3543 1.368 . S
C3562 C3556 1.368 . S
C3562 C3561 1.523 . S
C3563 C3547 1.429 . S
C3563 C3559 1.429 . S
C3563 C3564 1.523 . S
C3564 C3548 1.368 . S
C3564 C3560 1.368 . S
C3564 C3563 1.523 . S
H3565 C3540 0.950 . S
H3566 C3542 0.950 . S
H3567 C3543 0.949 . S
H3568 C3545 0.950 . S
H3569 C3547 0.950 . S
C3570 C3571 1.349 . S
C3570 C3572 1.327 . S
C3570 H3595 0.950 . S
C3571 C3570 1.349 . S
C3571 C3587 1.349 . S
C3572 C3570 1.327 . S
C3572 C3591 1.429 . S
C3572 H3596 0.950 . S
C3573 C3590 1.574 . S
C3573 C3592 1.368 . S
C3573 H3597 0.949 . S
H3574 C3578 0.949 . S
C3575 C3576 1.349 . S
C3575 C3577 1.327 . S
C3575 H3598 0.950 . S
C3576 C3575 1.349 . S
C3576 C3588 1.349 . S
C3577 C3575 1.327 . S
C3577 C3593 1.429 . S
C3577 H3599 0.950 . S
C3578 H3574 0.949 . S
C3578 C3586 1.574 . S
C3578 C3594 1.368 . S
H3579 C3587 0.950 . S
H3580 C3585 0.950 . S
H3581 C3586 0.949 . S
H3582 C3588 0.950 . S
H3583 C3589 0.950 . S
H3584 C3590 0.949 . S
C3585 H3580 0.950 . S
C3585 C3587 1.327 . S
C3585 C3591 1.429 . S
C3586 C3578 1.574 . S
C3586 H3581 0.949 . S
C3586 C3592 1.368 . S
C3587 C3571 1.349 . S
C3587 H3579 0.950 . S
C3587 C3585 1.327 . S
C3588 C3576 1.349 . S
C3588 H3582 0.950 . S
C3588 C3589 1.327 . S
C3589 H3583 0.950 . S
C3589 C3588 1.327 . S
C3589 C3593 1.429 . S
C3590 C3573 1.574 . S
C3590 H3584 0.949 . S
C3590 C3594 1.368 . S
C3591 C3572 1.429 . S
C3591 C3585 1.429 . S
C3591 C3592 1.523 . S
C3592 C3573 1.368 . S
C3592 C3586 1.368 . S
C3592 C3591 1.523 . S
C3593 C3577 1.429 . S
C3593 C3589 1.429 . S
C3593 C3594 1.523 . S
C3594 C3578 1.368 . S
C3594 C3590 1.368 . S
C3594 C3593 1.523 . S
H3595 C3570 0.950 . S
H3596 C3572 0.950 . S
H3597 C3573 0.949 . S
H3598 C3575 0.950 . S
H3599 C3577 0.950 . S
C3600 C3601 1.349 . S
C3600 C3602 1.327 . S
C3600 H3625 0.950 . S
C3601 C3600 1.349 . S
C3601 C3617 1.349 . S
C3602 C3600 1.327 . S
C3602 C3621 1.429 . S
C3602 H3626 0.950 . S
C3603 C3620 1.574 . S
C3603 C3622 1.368 . S
C3603 H3627 0.949 . S
H3604 C3608 0.949 . S
C3605 C3606 1.349 . S
C3605 C3607 1.327 . S
C3605 H3628 0.950 . S
C3606 C3605 1.349 . S
C3606 C3618 1.349 . S
C3607 C3605 1.327 . S
C3607 C3623 1.429 . S
C3607 H3629 0.950 . S
C3608 H3604 0.949 . S
C3608 C3616 1.574 . S
C3608 C3624 1.368 . S
H3609 C3617 0.950 . S
H3610 C3615 0.950 . S
H3611 C3616 0.949 . S
H3612 C3618 0.950 . S
H3613 C3619 0.950 . S
H3614 C3620 0.949 . S
C3615 H3610 0.950 . S
C3615 C3617 1.327 . S
C3615 C3621 1.429 . S
C3616 C3608 1.574 . S
C3616 H3611 0.949 . S
C3616 C3622 1.368 . S
C3617 C3601 1.349 . S
C3617 H3609 0.950 . S
C3617 C3615 1.327 . S
C3618 C3606 1.349 . S
C3618 H3612 0.950 . S
C3618 C3619 1.327 . S
C3619 H3613 0.950 . S
C3619 C3618 1.327 . S
C3619 C3623 1.429 . S
C3620 C3603 1.574 . S
C3620 H3614 0.949 . S
C3620 C3624 1.368 . S
C3621 C3602 1.429 . S
C3621 C3615 1.429 . S
C3621 C3622 1.523 . S
C3622 C3603 1.368 . S
C3622 C3616 1.368 . S
C3622 C3621 1.523 . S
C3623 C3607 1.429 . S
C3623 C3619 1.429 . S
C3623 C3624 1.523 . S
C3624 C3608 1.368 . S
C3624 C3620 1.368 . S
C3624 C3623 1.523 . S
H3625 C3600 0.950 . S
H3626 C3602 0.950 . S
H3627 C3603 0.949 . S
H3628 C3605 0.950 . S
H3629 C3607 0.950 . S
C3630 C3631 1.349 . S
C3630 C3632 1.327 . S
C3630 H3655 0.950 . S
C3631 C3630 1.349 . S
C3631 C3647 1.349 . S
C3632 C3630 1.327 . S
C3632 C3651 1.429 . S
C3632 H3656 0.950 . S
C3633 C3650 1.574 . S
C3633 C3652 1.368 . S
C3633 H3657 0.949 . S
H3634 C3638 0.949 . S
C3635 C3636 1.349 . S
C3635 C3637 1.327 . S
C3635 H3658 0.950 . S
C3636 C3635 1.349 . S
C3636 C3648 1.349 . S
C3637 C3635 1.327 . S
C3637 C3653 1.429 . S
C3637 H3659 0.950 . S
C3638 H3634 0.949 . S
C3638 C3646 1.574 . S
C3638 C3654 1.368 . S
H3639 C3647 0.950 . S
H3640 C3645 0.950 . S
H3641 C3646 0.949 . S
H3642 C3648 0.950 . S
H3643 C3649 0.950 . S
H3644 C3650 0.949 . S
C3645 H3640 0.950 . S
C3645 C3647 1.327 . S
C3645 C3651 1.429 . S
C3646 C3638 1.574 . S
C3646 H3641 0.949 . S
C3646 C3652 1.368 . S
C3647 C3631 1.349 . S
C3647 H3639 0.950 . S
C3647 C3645 1.327 . S
C3648 C3636 1.349 . S
C3648 H3642 0.950 . S
C3648 C3649 1.327 . S
C3649 H3643 0.950 . S
C3649 C3648 1.327 . S
C3649 C3653 1.429 . S
C3650 C3633 1.574 . S
C3650 H3644 0.949 . S
C3650 C3654 1.368 . S
C3651 C3632 1.429 . S
C3651 C3645 1.429 . S
C3651 C3652 1.523 . S
C3652 C3633 1.368 . S
C3652 C3646 1.368 . S
C3652 C3651 1.523 . S
C3653 C3637 1.429 . S
C3653 C3649 1.429 . S
C3653 C3654 1.523 . S
C3654 C3638 1.368 . S
C3654 C3650 1.368 . S
C3654 C3653 1.523 . S
H3655 C3630 0.950 . S
H3656 C3632 0.950 . S
H3657 C3633 0.949 . S
H3658 C3635 0.950 . S
H3659 C3637 0.950 . S
C3660 C3661 1.349 . S
C3660 C3662 1.327 . S
C3660 H3685 0.950 . S
C3661 C3660 1.349 . S
C3661 C3677 1.349 . S
C3662 C3660 1.327 . S
C3662 C3681 1.429 . S
C3662 H3686 0.950 . S
C3663 C3680 1.574 . S
C3663 C3682 1.368 . S
C3663 H3687 0.949 . S
H3664 C3668 0.949 . S
C3665 C3666 1.349 . S
C3665 C3667 1.327 . S
C3665 H3688 0.950 . S
C3666 C3665 1.349 . S
C3666 C3678 1.349 . S
C3667 C3665 1.327 . S
C3667 C3683 1.429 . S
C3667 H3689 0.950 . S
C3668 H3664 0.949 . S
C3668 C3676 1.574 . S
C3668 C3684 1.368 . S
H3669 C3677 0.950 . S
H3670 C3675 0.950 . S
H3671 C3676 0.949 . S
H3672 C3678 0.950 . S
H3673 C3679 0.950 . S
H3674 C3680 0.949 . S
C3675 H3670 0.950 . S
C3675 C3677 1.327 . S
C3675 C3681 1.429 . S
C3676 C3668 1.574 . S
C3676 H3671 0.949 . S
C3676 C3682 1.368 . S
C3677 C3661 1.349 . S
C3677 H3669 0.950 . S
C3677 C3675 1.327 . S
C3678 C3666 1.349 . S
C3678 H3672 0.950 . S
C3678 C3679 1.327 . S
C3679 H3673 0.950 . S
C3679 C3678 1.327 . S
C3679 C3683 1.429 . S
C3680 C3663 1.574 . S
C3680 H3674 0.949 . S
C3680 C3684 1.368 . S
C3681 C3662 1.429 . S
C3681 C3675 1.429 . S
C3681 C3682 1.523 . S
C3682 C3663 1.368 . S
C3682 C3676 1.368 . S
C3682 C3681 1.523 . S
C3683 C3667 1.429 . S
C3683 C3679 1.429 . S
C3683 C3684 1.523 . S
C3684 C3668 1.368 . S
C3684 C3680 1.368 . S
C3684 C3683 1.523 . S
H3685 C3660 0.950 . S
H3686 C3662 0.950 . S
H3687 C3663 0.949 . S
H3688 C3665 0.950 . S
H3689 C3667 0.950 . S
C3690 C3691 1.349 . S
C3690 C3692 1.327 . S
C3690 H3715 0.950 . S
C3691 C3690 1.349 . S
C3691 C3707 1.349 . S
C3692 C3690 1.327 . S
C3692 C3711 1.429 . S
C3692 H3716 0.950 . S
C3693 C3710 1.574 . S
C3693 C3712 1.368 . S
C3693 H3717 0.949 1_554 S
H3694 C3698 0.949 . S
C3695 C3696 1.349 . S
C3695 C3697 1.327 . S
C3695 H3718 0.950 1_554 S
C3696 C3695 1.349 . S
C3696 C3708 1.349 . S
C3697 C3695 1.327 . S
C3697 C3713 1.429 . S
C3697 H3719 0.950 1_554 S
C3698 H3694 0.949 . S
C3698 C3706 1.574 . S
C3698 C3714 1.368 . S
H3699 C3707 0.950 1_556 S
H3700 C3705 0.950 1_556 S
H3701 C3706 0.949 . S
H3702 C3708 0.950 . S
H3703 C3709 0.947 . S
H3704 C3710 0.949 1_546 S
C3705 H3700 0.950 1_554 S
C3705 C3707 1.327 . S
C3705 C3711 1.429 . S
C3706 C3698 1.574 . S
C3706 H3701 0.949 . S
C3706 C3712 1.368 . S
C3707 C3691 1.349 . S
C3707 H3699 0.950 1_554 S
C3707 C3705 1.327 . S
C3708 C3696 1.349 . S
C3708 H3702 0.950 . S
C3708 C3709 1.327 . S
C3709 H3703 0.947 . S
C3709 C3708 1.327 . S
C3709 C3713 1.429 . S
C3710 C3693 1.574 . S
C3710 H3704 0.949 1_564 S
C3710 C3714 1.368 . S
C3711 C3692 1.429 . S
C3711 C3705 1.429 . S
C3711 C3712 1.523 . S
C3712 C3693 1.368 . S
C3712 C3706 1.368 . S
C3712 C3711 1.523 . S
C3713 C3697 1.429 . S
C3713 C3709 1.429 . S
C3713 C3714 1.523 1_545 S
C3714 C3698 1.368 . S
C3714 C3710 1.368 . S
C3714 C3713 1.523 1_565 S
H3715 C3690 0.950 . S
H3716 C3692 0.950 . S
H3717 C3693 0.949 1_556 S
H3718 C3695 0.950 1_556 S
H3719 C3697 0.950 1_556 S
C3720 C3721 1.349 . S
C3720 C3722 1.327 . S
C3720 H3745 0.950 . S
C3721 C3720 1.349 . S
C3721 C3737 1.349 . S
C3722 C3720 1.327 . S
C3722 C3741 1.429 . S
C3722 H3746 0.950 . S
C3723 C3740 1.574 . S
C3723 C3742 1.368 . S
C3723 H3747 0.949 . S
H3724 C3728 0.949 . S
C3725 C3726 1.349 . S
C3725 C3727 1.327 . S
C3725 H3748 0.950 . S
C3726 C3725 1.349 . S
C3726 C3738 1.349 . S
C3727 C3725 1.327 . S
C3727 C3743 1.429 . S
C3727 H3749 0.950 . S
C3728 H3724 0.949 . S
C3728 C3736 1.574 . S
C3728 C3744 1.368 . S
H3729 C3737 0.950 . S
H3730 C3735 0.950 . S
H3731 C3736 0.949 . S
H3732 C3738 0.950 . S
H3733 C3739 0.950 . S
H3734 C3740 0.949 . S
C3735 H3730 0.950 . S
C3735 C3737 1.327 . S
C3735 C3741 1.429 . S
C3736 C3728 1.574 . S
C3736 H3731 0.949 . S
C3736 C3742 1.368 . S
C3737 C3721 1.349 . S
C3737 H3729 0.950 . S
C3737 C3735 1.327 . S
C3738 C3726 1.349 . S
C3738 H3732 0.950 . S
C3738 C3739 1.327 . S
C3739 H3733 0.950 . S
C3739 C3738 1.327 . S
C3739 C3743 1.429 . S
C3740 C3723 1.574 . S
C3740 H3734 0.949 . S
C3740 C3744 1.368 . S
C3741 C3722 1.429 . S
C3741 C3735 1.429 . S
C3741 C3742 1.523 . S
C3742 C3723 1.368 . S
C3742 C3736 1.368 . S
C3742 C3741 1.523 . S
C3743 C3727 1.429 . S
C3743 C3739 1.429 . S
C3743 C3744 1.523 . S
C3744 C3728 1.368 . S
C3744 C3740 1.368 . S
C3744 C3743 1.523 . S
H3745 C3720 0.950 . S
H3746 C3722 0.950 . S
H3747 C3723 0.949 . S
H3748 C3725 0.950 . S
H3749 C3727 0.950 . S
C3750 C3751 1.349 . S
C3750 C3752 1.327 . S
C3750 H3775 0.950 . S
C3751 C3750 1.349 . S
C3751 C3767 1.349 1_554 S
C3752 C3750 1.327 . S
C3752 C3771 1.429 . S
C3752 H3776 0.950 . S
C3753 C3770 1.574 1_556 S
C3753 C3772 1.368 1_556 S
C3753 H3777 0.949 . S
H3754 C3758 0.949 . S
C3755 C3756 1.349 . S
C3755 C3757 1.327 . S
C3755 H3778 0.950 . S
C3756 C3755 1.349 . S
C3756 C3768 1.349 . S
C3757 C3755 1.327 . S
C3757 C3773 1.429 . S
C3757 H3779 0.950 1_554 S
C3758 H3754 0.949 . S
C3758 C3766 1.574 . S
C3758 C3774 1.368 . S
H3759 C3767 0.950 . S
H3760 C3765 0.950 . S
H3761 C3766 0.949 . S
H3762 C3768 0.950 . S
H3763 C3769 0.950 . S
H3764 C3770 0.949 1_556 S
C3765 H3760 0.950 . S
C3765 C3767 1.327 . S
C3765 C3771 1.429 1_556 S
C3766 C3758 1.574 . S
C3766 H3761 0.949 . S
C3766 C3772 1.368 . S
C3767 C3751 1.349 1_556 S
C3767 H3759 0.950 . S
C3767 C3765 1.327 . S
C3768 C3756 1.349 . S
C3768 H3762 0.950 . S
C3768 C3769 1.327 . S
C3769 H3763 0.950 . S
C3769 C3768 1.327 . S
C3769 C3773 1.429 . S
C3770 C3753 1.574 1_554 S
C3770 H3764 0.949 1_554 S
C3770 C3774 1.368 . S
C3771 C3752 1.429 . S
C3771 C3765 1.429 1_554 S
C3771 C3772 1.523 . S
C3772 C3753 1.368 1_554 S
C3772 C3766 1.368 . S
C3772 C3771 1.523 . S
C3773 C3757 1.429 . S
C3773 C3769 1.429 . S
C3773 C3774 1.523 . S
C3774 C3758 1.368 . S
C3774 C3770 1.368 . S
C3774 C3773 1.523 . S
H3775 C3750 0.950 . S
H3776 C3752 0.950 . S
H3777 C3753 0.949 . S
H3778 C3755 0.950 . S
H3779 C3757 0.950 1_556 S
C3780 C3781 1.349 . S
C3780 C3782 1.327 . S
C3780 H3805 0.950 . S
C3781 C3780 1.349 . S
C3781 C3797 1.349 . S
C3782 C3780 1.327 . S
C3782 C3801 1.429 . S
C3782 H3806 0.950 . S
C3783 C3800 1.574 . S
C3783 C3802 1.368 . S
C3783 H3807 0.949 . S
H3784 C3788 0.949 . S
C3785 C3786 1.349 . S
C3785 C3787 1.327 . S
C3785 H3808 0.950 . S
C3786 C3785 1.349 . S
C3786 C3798 1.349 . S
C3787 C3785 1.327 . S
C3787 C3803 1.429 . S
C3787 H3809 0.950 . S
C3788 H3784 0.949 . S
C3788 C3796 1.574 . S
C3788 C3804 1.368 . S
H3789 C3797 0.950 . S
H3790 C3795 0.950 . S
H3791 C3796 0.949 . S
H3792 C3798 0.950 . S
H3793 C3799 0.950 . S
H3794 C3800 0.949 . S
C3795 H3790 0.950 . S
C3795 C3797 1.327 . S
C3795 C3801 1.429 . S
C3796 C3788 1.574 . S
C3796 H3791 0.949 . S
C3796 C3802 1.368 . S
C3797 C3781 1.349 . S
C3797 H3789 0.950 . S
C3797 C3795 1.327 . S
C3798 C3786 1.349 . S
C3798 H3792 0.950 . S
C3798 C3799 1.327 . S
C3799 H3793 0.950 . S
C3799 C3798 1.327 . S
C3799 C3803 1.429 . S
C3800 C3783 1.574 . S
C3800 H3794 0.949 . S
C3800 C3804 1.368 . S
C3801 C3782 1.429 . S
C3801 C3795 1.429 . S
C3801 C3802 1.523 . S
C3802 C3783 1.368 . S
C3802 C3796 1.368 . S
C3802 C3801 1.523 . S
C3803 C3787 1.429 . S
C3803 C3799 1.429 . S
C3803 C3804 1.523 . S
C3804 C3788 1.368 . S
C3804 C3800 1.368 . S
C3804 C3803 1.523 . S
H3805 C3780 0.950 . S
H3806 C3782 0.950 . S
H3807 C3783 0.949 . S
H3808 C3785 0.950 . S
H3809 C3787 0.950 . S
C3810 C3811 1.349 . S
C3810 C3812 1.327 . S
C3810 H3835 0.950 . S
C3811 C3810 1.349 . S
C3811 C3827 1.349 . S
C3812 C3810 1.327 . S
C3812 C3831 1.429 . S
C3812 H3836 0.950 . S
C3813 C3830 1.574 . S
C3813 C3832 1.368 . S
C3813 H3837 0.949 . S
H3814 C3818 0.949 . S
C3815 C3816 1.349 . S
C3815 C3817 1.327 . S
C3815 H3838 0.950 . S
C3816 C3815 1.349 . S
C3816 C3828 1.349 . S
C3817 C3815 1.327 . S
C3817 C3833 1.429 . S
C3817 H3839 0.950 . S
C3818 H3814 0.949 . S
C3818 C3826 1.574 . S
C3818 C3834 1.368 . S
H3819 C3827 0.950 . S
H3820 C3825 0.950 . S
H3821 C3826 0.949 . S
H3822 C3828 0.950 . S
H3823 C3829 0.950 . S
H3824 C3830 0.949 . S
C3825 H3820 0.950 . S
C3825 C3827 1.327 . S
C3825 C3831 1.429 . S
C3826 C3818 1.574 . S
C3826 H3821 0.949 . S
C3826 C3832 1.368 . S
C3827 C3811 1.349 . S
C3827 H3819 0.950 . S
C3827 C3825 1.327 . S
C3828 C3816 1.349 . S
C3828 H3822 0.950 . S
C3828 C3829 1.327 . S
C3829 H3823 0.950 . S
C3829 C3828 1.327 . S
C3829 C3833 1.429 . S
C3830 C3813 1.574 . S
C3830 H3824 0.949 . S
C3830 C3834 1.368 . S
C3831 C3812 1.429 . S
C3831 C3825 1.429 . S
C3831 C3832 1.523 . S
C3832 C3813 1.368 . S
C3832 C3826 1.368 . S
C3832 C3831 1.523 . S
C3833 C3817 1.429 . S
C3833 C3829 1.429 . S
C3833 C3834 1.523 . S
C3834 C3818 1.368 . S
C3834 C3830 1.368 . S
C3834 C3833 1.523 . S
H3835 C3810 0.950 . S
H3836 C3812 0.950 . S
H3837 C3813 0.949 . S
H3838 C3815 0.950 . S
H3839 C3817 0.950 . S
C3840 C3841 1.349 . S
C3840 C3842 1.327 . S
C3840 H3865 0.950 . S
C3841 C3840 1.349 . S
C3841 C3857 1.349 . S
C3842 C3840 1.327 . S
C3842 C3861 1.429 . S
C3842 H3866 0.950 . S
C3843 C3860 1.574 . S
C3843 C3862 1.368 . S
C3843 H3867 0.949 . S
H3844 C3848 0.949 . S
C3845 C3846 1.349 . S
C3845 C3847 1.327 . S
C3845 H3868 0.950 . S
C3846 C3845 1.349 . S
C3846 C3858 1.349 . S
C3847 C3845 1.327 . S
C3847 C3863 1.429 . S
C3847 H3869 0.950 . S
C3848 H3844 0.949 . S
C3848 C3856 1.574 . S
C3848 C3864 1.368 . S
H3849 C3857 0.950 . S
H3850 C3855 0.950 . S
H3851 C3856 0.949 . S
H3852 C3858 0.950 . S
H3853 C3859 0.950 . S
H3854 C3860 0.949 . S
C3855 H3850 0.950 . S
C3855 C3857 1.327 . S
C3855 C3861 1.429 . S
C3856 C3848 1.574 . S
C3856 H3851 0.949 . S
C3856 C3862 1.368 . S
C3857 C3841 1.349 . S
C3857 H3849 0.950 . S
C3857 C3855 1.327 . S
C3858 C3846 1.349 . S
C3858 H3852 0.950 . S
C3858 C3859 1.327 . S
C3859 H3853 0.950 . S
C3859 C3858 1.327 . S
C3859 C3863 1.429 . S
C3860 C3843 1.574 . S
C3860 H3854 0.949 . S
C3860 C3864 1.368 . S
C3861 C3842 1.429 . S
C3861 C3855 1.429 . S
C3861 C3862 1.523 . S
C3862 C3843 1.368 . S
C3862 C3856 1.368 . S
C3862 C3861 1.523 . S
C3863 C3847 1.429 . S
C3863 C3859 1.429 . S
C3863 C3864 1.523 . S
C3864 C3848 1.368 . S
C3864 C3860 1.368 . S
C3864 C3863 1.523 . S
H3865 C3840 0.950 . S
H3866 C3842 0.950 . S
H3867 C3843 0.949 . S
H3868 C3845 0.950 . S
H3869 C3847 0.950 . S
C3870 C3871 1.349 . S
C3870 C3872 1.327 . S
C3870 H3895 0.950 . S
C3871 C3870 1.349 . S
C3871 C3887 1.349 . S
C3872 C3870 1.327 . S
C3872 C3891 1.429 . S
C3872 H3896 0.950 . S
C3873 C3890 1.574 . S
C3873 C3892 1.368 . S
C3873 H3897 0.949 . S
H3874 C3878 0.949 . S
C3875 C3876 1.349 . S
C3875 C3877 1.327 . S
C3875 H3898 0.950 . S
C3876 C3875 1.349 . S
C3876 C3888 1.349 . S
C3877 C3875 1.327 . S
C3877 C3893 1.429 . S
C3877 H3899 0.950 . S
C3878 H3874 0.949 . S
C3878 C3886 1.574 . S
C3878 C3894 1.368 . S
H3879 C3887 0.950 . S
H3880 C3885 0.950 . S
H3881 C3886 0.949 . S
H3882 C3888 0.950 . S
H3883 C3889 0.950 . S
H3884 C3890 0.949 . S
C3885 H3880 0.950 . S
C3885 C3887 1.327 . S
C3885 C3891 1.429 . S
C3886 C3878 1.574 . S
C3886 H3881 0.949 . S
C3886 C3892 1.368 . S
C3887 C3871 1.349 . S
C3887 H3879 0.950 . S
C3887 C3885 1.327 . S
C3888 C3876 1.349 . S
C3888 H3882 0.950 . S
C3888 C3889 1.327 . S
C3889 H3883 0.950 . S
C3889 C3888 1.327 . S
C3889 C3893 1.429 . S
C3890 C3873 1.574 . S
C3890 H3884 0.949 . S
C3890 C3894 1.368 . S
C3891 C3872 1.429 . S
C3891 C3885 1.429 . S
C3891 C3892 1.523 . S
C3892 C3873 1.368 . S
C3892 C3886 1.368 . S
C3892 C3891 1.523 . S
C3893 C3877 1.429 . S
C3893 C3889 1.429 . S
C3893 C3894 1.523 . S
C3894 C3878 1.368 . S
C3894 C3890 1.368 . S
C3894 C3893 1.523 . S
H3895 C3870 0.950 . S
H3896 C3872 0.950 . S
H3897 C3873 0.949 . S
H3898 C3875 0.950 . S
H3899 C3877 0.950 . S
C3900 C3901 1.349 . S
C3900 C3902 1.327 . S
C3900 H3925 0.950 . S
C3901 C3900 1.349 . S
C3901 C3917 1.349 . S
C3902 C3900 1.327 . S
C3902 C3921 1.429 . S
C3902 H3926 0.950 . S
C3903 C3920 1.574 . S
C3903 C3922 1.368 . S
C3903 H3927 0.949 . S
H3904 C3908 0.949 . S
C3905 C3906 1.349 . S
C3905 C3907 1.327 . S
C3905 H3928 0.950 . S
C3906 C3905 1.349 . S
C3906 C3918 1.349 . S
C3907 C3905 1.327 . S
C3907 C3923 1.429 . S
C3907 H3929 0.950 . S
C3908 H3904 0.949 . S
C3908 C3916 1.574 . S
C3908 C3924 1.368 . S
H3909 C3917 0.950 . S
H3910 C3915 0.950 . S
H3911 C3916 0.949 . S
H3912 C3918 0.950 . S
H3913 C3919 0.950 . S
H3914 C3920 0.949 . S
C3915 H3910 0.950 . S
C3915 C3917 1.327 . S
C3915 C3921 1.429 . S
C3916 C3908 1.574 . S
C3916 H3911 0.949 . S
C3916 C3922 1.368 . S
C3917 C3901 1.349 . S
C3917 H3909 0.950 . S
C3917 C3915 1.327 . S
C3918 C3906 1.349 . S
C3918 H3912 0.950 . S
C3918 C3919 1.327 . S
C3919 H3913 0.950 . S
C3919 C3918 1.327 . S
C3919 C3923 1.429 . S
C3920 C3903 1.574 . S
C3920 H3914 0.949 . S
C3920 C3924 1.368 . S
C3921 C3902 1.429 . S
C3921 C3915 1.429 . S
C3921 C3922 1.523 . S
C3922 C3903 1.368 . S
C3922 C3916 1.368 . S
C3922 C3921 1.523 . S
C3923 C3907 1.429 . S
C3923 C3919 1.429 . S
C3923 C3924 1.523 . S
C3924 C3908 1.368 . S
C3924 C3920 1.368 . S
C3924 C3923 1.523 . S
H3925 C3900 0.950 . S
H3926 C3902 0.950 . S
H3927 C3903 0.949 . S
H3928 C3905 0.950 . S
H3929 C3907 0.950 . S
C3930 C3931 1.349 . S
C3930 C3932 1.327 . S
C3930 H3955 0.950 . S
C3931 C3930 1.349 . S
C3931 C3947 1.349 . S
C3932 C3930 1.327 . S
C3932 C3951 1.429 . S
C3932 H3956 0.950 . S
C3933 C3950 1.574 . S
C3933 C3952 1.368 . S
C3933 H3957 0.949 . S
H3934 C3938 0.949 . S
C3935 C3936 1.349 . S
C3935 C3937 1.327 . S
C3935 H3958 0.950 . S
C3936 C3935 1.349 . S
C3936 C3948 1.349 . S
C3937 C3935 1.327 . S
C3937 C3953 1.429 . S
C3937 H3959 0.950 . S
C3938 H3934 0.949 . S
C3938 C3946 1.574 . S
C3938 C3954 1.368 . S
H3939 C3947 0.950 . S
H3940 C3945 0.950 . S
H3941 C3946 0.949 . S
H3942 C3948 0.950 . S
H3943 C3949 0.950 . S
H3944 C3950 0.949 . S
C3945 H3940 0.950 . S
C3945 C3947 1.327 . S
C3945 C3951 1.429 . S
C3946 C3938 1.574 . S
C3946 H3941 0.949 . S
C3946 C3952 1.368 . S
C3947 C3931 1.349 . S
C3947 H3939 0.950 . S
C3947 C3945 1.327 . S
C3948 C3936 1.349 . S
C3948 H3942 0.950 . S
C3948 C3949 1.327 . S
C3949 H3943 0.950 . S
C3949 C3948 1.327 . S
C3949 C3953 1.429 . S
C3950 C3933 1.574 . S
C3950 H3944 0.949 . S
C3950 C3954 1.368 . S
C3951 C3932 1.429 . S
C3951 C3945 1.429 . S
C3951 C3952 1.523 . S
C3952 C3933 1.368 . S
C3952 C3946 1.368 . S
C3952 C3951 1.523 . S
C3953 C3937 1.429 . S
C3953 C3949 1.429 . S
C3953 C3954 1.523 . S
C3954 C3938 1.368 . S
C3954 C3950 1.368 . S
C3954 C3953 1.523 . S
H3955 C3930 0.950 . S
H3956 C3932 0.950 . S
H3957 C3933 0.949 . S
H3958 C3935 0.950 . S
H3959 C3937 0.950 . S
C3960 C3961 1.349 . S
C3960 C3962 1.327 . S
C3960 H3985 0.950 . S
C3961 C3960 1.349 . S
C3961 C3977 1.349 . S
C3962 C3960 1.327 . S
C3962 C3981 1.429 . S
C3962 H3986 0.950 . S
C3963 C3980 1.574 . S
C3963 C3982 1.368 . S
C3963 H3987 0.949 . S
H3964 C3968 0.949 . S
C3965 C3966 1.349 . S
C3965 C3967 1.327 . S
C3965 H3988 0.950 . S
C3966 C3965 1.349 . S
C3966 C3978 1.349 . S
C3967 C3965 1.327 . S
C3967 C3983 1.429 . S
C3967 H3989 0.950 . S
C3968 H3964 0.949 . S
C3968 C3976 1.574 . S
C3968 C3984 1.368 . S
H3969 C3977 0.950 . S
H3970 C3975 0.950 . S
H3971 C3976 0.949 . S
H3972 C3978 0.950 . S
H3973 C3979 0.950 . S
H3974 C3980 0.949 . S
C3975 H3970 0.950 . S
C3975 C3977 1.327 . S
C3975 C3981 1.429 . S
C3976 C3968 1.574 . S
C3976 H3971 0.949 . S
C3976 C3982 1.368 . S
C3977 C3961 1.349 . S
C3977 H3969 0.950 . S
C3977 C3975 1.327 . S
C3978 C3966 1.349 . S
C3978 H3972 0.950 . S
C3978 C3979 1.327 . S
C3979 H3973 0.950 . S
C3979 C3978 1.327 . S
C3979 C3983 1.429 . S
C3980 C3963 1.574 . S
C3980 H3974 0.949 . S
C3980 C3984 1.368 . S
C3981 C3962 1.429 . S
C3981 C3975 1.429 . S
C3981 C3982 1.523 . S
C3982 C3963 1.368 . S
C3982 C3976 1.368 . S
C3982 C3981 1.523 . S
C3983 C3967 1.429 . S
C3983 C3979 1.429 . S
C3983 C3984 1.523 . S
C3984 C3968 1.368 . S
C3984 C3980 1.368 . S
C3984 C3983 1.523 . S
H3985 C3960 0.950 . S
H3986 C3962 0.950 . S
H3987 C3963 0.949 . S
H3988 C3965 0.950 . S
H3989 C3967 0.950 . S
C3990 C3991 1.349 . S
C3990 C3992 1.327 . S
C3990 H4015 0.950 . S
C3991 C3990 1.349 . S
C3991 C4007 1.349 . S
C3992 C3990 1.327 . S
C3992 C4011 1.429 . S
C3992 H4016 0.950 . S
C3993 C4010 1.574 . S
C3993 C4012 1.368 . S
C3993 H4017 0.949 . S
H3994 C3998 0.949 . S
C3995 C3996 1.349 . S
C3995 C3997 1.327 . S
C3995 H4018 0.950 . S
C3996 C3995 1.349 . S
C3996 C4008 1.349 . S
C3997 C3995 1.327 . S
C3997 C4013 1.429 . S
C3997 H4019 0.950 . S
C3998 H3994 0.949 . S
C3998 C4006 1.574 . S
C3998 C4014 1.368 . S
H3999 C4007 0.950 . S
H4000 C4005 0.950 . S
H4001 C4006 0.949 . S
H4002 C4008 0.950 . S
H4003 C4009 0.950 . S
H4004 C4010 0.949 . S
C4005 H4000 0.950 . S
C4005 C4007 1.327 . S
C4005 C4011 1.429 . S
C4006 C3998 1.574 . S
C4006 H4001 0.949 . S
C4006 C4012 1.368 . S
C4007 C3991 1.349 . S
C4007 H3999 0.950 . S
C4007 C4005 1.327 . S
C4008 C3996 1.349 . S
C4008 H4002 0.950 . S
C4008 C4009 1.327 . S
C4009 H4003 0.950 . S
C4009 C4008 1.327 . S
C4009 C4013 1.429 . S
C4010 C3993 1.574 . S
C4010 H4004 0.949 . S
C4010 C4014 1.368 . S
C4011 C3992 1.429 . S
C4011 C4005 1.429 . S
C4011 C4012 1.523 . S
C4012 C3993 1.368 . S
C4012 C4006 1.368 . S
C4012 C4011 1.523 . S
C4013 C3997 1.429 . S
C4013 C4009 1.429 . S
C4013 C4014 1.523 . S
C4014 C3998 1.368 . S
C4014 C4010 1.368 . S
C4014 C4013 1.523 . S
H4015 C3990 0.950 . S
H4016 C3992 0.950 . S
H4017 C3993 0.949 . S
H4018 C3995 0.950 . S
H4019 C3997 0.950 . S
C4020 C4021 1.349 . S
C4020 C4022 1.327 . S
C4020 H4045 0.950 . S
C4021 C4020 1.349 . S
C4021 C4037 1.349 . S
C4022 C4020 1.327 . S
C4022 C4041 1.429 . S
C4022 H4046 0.950 . S
C4023 C4040 1.574 . S
C4023 C4042 1.368 . S
C4023 H4047 0.949 . S
H4024 C4028 0.949 . S
C4025 C4026 1.349 . S
C4025 C4027 1.327 . S
C4025 H4048 0.950 . S
C4026 C4025 1.349 . S
C4026 C4038 1.349 . S
C4027 C4025 1.327 . S
C4027 C4043 1.429 . S
C4027 H4049 0.950 . S
C4028 H4024 0.949 . S
C4028 C4036 1.574 . S
C4028 C4044 1.368 . S
H4029 C4037 0.950 . S
H4030 C4035 0.950 . S
H4031 C4036 0.949 . S
H4032 C4038 0.950 . S
H4033 C4039 0.950 . S
H4034 C4040 0.949 . S
C4035 H4030 0.950 . S
C4035 C4037 1.327 . S
C4035 C4041 1.429 . S
C4036 C4028 1.574 . S
C4036 H4031 0.949 . S
C4036 C4042 1.368 . S
C4037 C4021 1.349 . S
C4037 H4029 0.950 . S
C4037 C4035 1.327 . S
C4038 C4026 1.349 . S
C4038 H4032 0.950 . S
C4038 C4039 1.327 . S
C4039 H4033 0.950 . S
C4039 C4038 1.327 . S
C4039 C4043 1.429 . S
C4040 C4023 1.574 . S
C4040 H4034 0.949 . S
C4040 C4044 1.368 . S
C4041 C4022 1.429 . S
C4041 C4035 1.429 . S
C4041 C4042 1.523 . S
C4042 C4023 1.368 . S
C4042 C4036 1.368 . S
C4042 C4041 1.523 . S
C4043 C4027 1.429 . S
C4043 C4039 1.429 . S
C4043 C4044 1.523 . S
C4044 C4028 1.368 . S
C4044 C4040 1.368 . S
C4044 C4043 1.523 . S
H4045 C4020 0.950 . S
H4046 C4022 0.950 . S
H4047 C4023 0.949 . S
H4048 C4025 0.950 . S
H4049 C4027 0.950 . S
C4050 C4051 1.349 . S
C4050 C4052 1.327 . S
C4050 H4075 0.950 . S
C4051 C4050 1.349 . S
C4051 C4067 1.349 . S
C4052 C4050 1.327 . S
C4052 C4071 1.429 . S
C4052 H4076 0.950 . S
C4053 C4070 1.574 . S
C4053 C4072 1.368 . S
C4053 H4077 0.949 . S
H4054 C4058 0.949 . S
C4055 C4056 1.349 . S
C4055 C4057 1.327 . S
C4055 H4078 0.950 . S
C4056 C4055 1.349 . S
C4056 C4068 1.349 . S
C4057 C4055 1.327 . S
C4057 C4073 1.429 . S
C4057 H4079 0.950 . S
C4058 H4054 0.949 . S
C4058 C4066 1.574 . S
C4058 C4074 1.368 . S
H4059 C4067 0.950 . S
H4060 C4065 0.950 . S
H4061 C4066 0.949 . S
H4062 C4068 0.950 . S
H4063 C4069 0.950 . S
H4064 C4070 0.949 . S
C4065 H4060 0.950 . S
C4065 C4067 1.327 . S
C4065 C4071 1.429 . S
C4066 C4058 1.574 . S
C4066 H4061 0.949 . S
C4066 C4072 1.368 . S
C4067 C4051 1.349 . S
C4067 H4059 0.950 . S
C4067 C4065 1.327 . S
C4068 C4056 1.349 . S
C4068 H4062 0.950 . S
C4068 C4069 1.327 . S
C4069 H4063 0.950 . S
C4069 C4068 1.327 . S
C4069 C4073 1.429 . S
C4070 C4053 1.574 . S
C4070 H4064 0.949 . S
C4070 C4074 1.368 . S
C4071 C4052 1.429 . S
C4071 C4065 1.429 . S
C4071 C4072 1.523 . S
C4072 C4053 1.368 . S
C4072 C4066 1.368 . S
C4072 C4071 1.523 . S
C4073 C4057 1.429 . S
C4073 C4069 1.429 . S
C4073 C4074 1.523 . S
C4074 C4058 1.368 . S
C4074 C4070 1.368 . S
C4074 C4073 1.523 . S
H4075 C4050 0.950 . S
H4076 C4052 0.950 . S
H4077 C4053 0.949 . S
H4078 C4055 0.950 . S
H4079 C4057 0.950 . S
C4080 C4081 1.349 . S
C4080 C4082 1.327 . S
C4080 H4105 0.950 . S
C4081 C4080 1.349 . S
C4081 C4097 1.349 . S
C4082 C4080 1.327 . S
C4082 C4101 1.429 . S
C4082 H4106 0.950 . S
C4083 C4100 1.574 . S
C4083 C4102 1.368 . S
C4083 H4107 0.949 . S
H4084 C4088 0.949 . S
C4085 C4086 1.349 . S
C4085 C4087 1.327 . S
C4085 H4108 0.950 . S
C4086 C4085 1.349 . S
C4086 C4098 1.349 . S
C4087 C4085 1.327 . S
C4087 C4103 1.429 . S
C4087 H4109 0.950 . S
C4088 H4084 0.949 . S
C4088 C4096 1.574 . S
C4088 C4104 1.368 . S
H4089 C4097 0.950 . S
H4090 C4095 0.950 . S
H4091 C4096 0.949 . S
H4092 C4098 0.950 . S
H4093 C4099 0.950 . S
H4094 C4100 0.949 . S
C4095 H4090 0.950 . S
C4095 C4097 1.327 . S
C4095 C4101 1.429 . S
C4096 C4088 1.574 . S
C4096 H4091 0.949 . S
C4096 C4102 1.368 . S
C4097 C4081 1.349 . S
C4097 H4089 0.950 . S
C4097 C4095 1.327 . S
C4098 C4086 1.349 . S
C4098 H4092 0.950 . S
C4098 C4099 1.327 . S
C4099 H4093 0.950 . S
C4099 C4098 1.327 . S
C4099 C4103 1.429 . S
C4100 C4083 1.574 . S
C4100 H4094 0.949 . S
C4100 C4104 1.368 . S
C4101 C4082 1.429 . S
C4101 C4095 1.429 . S
C4101 C4102 1.523 . S
C4102 C4083 1.368 . S
C4102 C4096 1.368 . S
C4102 C4101 1.523 . S
C4103 C4087 1.429 . S
C4103 C4099 1.429 . S
C4103 C4104 1.523 . S
C4104 C4088 1.368 . S
C4104 C4100 1.368 . S
C4104 C4103 1.523 . S
H4105 C4080 0.950 . S
H4106 C4082 0.950 . S
H4107 C4083 0.949 . S
H4108 C4085 0.950 . S
H4109 C4087 0.950 . S
C4110 C4111 1.349 . S
C4110 C4112 1.327 . S
C4110 H4135 0.950 . S
C4111 C4110 1.349 . S
C4111 C4127 1.349 . S
C4112 C4110 1.327 . S
C4112 C4131 1.429 . S
C4112 H4136 0.950 . S
C4113 C4130 1.574 . S
C4113 C4132 1.368 . S
C4113 H4137 0.949 . S
H4114 C4118 0.949 . S
C4115 C4116 1.349 . S
C4115 C4117 1.327 . S
C4115 H4138 0.950 . S
C4116 C4115 1.349 . S
C4116 C4128 1.349 . S
C4117 C4115 1.327 . S
C4117 C4133 1.429 . S
C4117 H4139 0.950 . S
C4118 H4114 0.949 . S
C4118 C4126 1.574 . S
C4118 C4134 1.368 . S
H4119 C4127 0.950 . S
H4120 C4125 0.950 . S
H4121 C4126 0.949 . S
H4122 C4128 0.950 . S
H4123 C4129 0.950 . S
H4124 C4130 0.949 . S
C4125 H4120 0.950 . S
C4125 C4127 1.327 . S
C4125 C4131 1.429 . S
C4126 C4118 1.574 . S
C4126 H4121 0.949 . S
C4126 C4132 1.368 . S
C4127 C4111 1.349 . S
C4127 H4119 0.950 . S
C4127 C4125 1.327 . S
C4128 C4116 1.349 . S
C4128 H4122 0.950 . S
C4128 C4129 1.327 . S
C4129 H4123 0.950 . S
C4129 C4128 1.327 . S
C4129 C4133 1.429 . S
C4130 C4113 1.574 . S
C4130 H4124 0.949 . S
C4130 C4134 1.368 . S
C4131 C4112 1.429 . S
C4131 C4125 1.429 . S
C4131 C4132 1.523 . S
C4132 C4113 1.368 . S
C4132 C4126 1.368 . S
C4132 C4131 1.523 . S
C4133 C4117 1.429 . S
C4133 C4129 1.429 . S
C4133 C4134 1.523 . S
C4134 C4118 1.368 . S
C4134 C4130 1.368 . S
C4134 C4133 1.523 . S
H4135 C4110 0.950 . S
H4136 C4112 0.950 . S
H4137 C4113 0.949 . S
H4138 C4115 0.950 . S
H4139 C4117 0.950 . S
C4140 C4141 1.349 . S
C4140 C4142 1.327 . S
C4140 H4165 0.950 . S
C4141 C4140 1.349 . S
C4141 C4157 1.349 . S
C4142 C4140 1.327 . S
C4142 C4161 1.429 . S
C4142 H4166 0.950 . S
C4143 C4160 1.574 . S
C4143 C4162 1.368 . S
C4143 H4167 0.949 . S
H4144 C4148 0.949 . S
C4145 C4146 1.349 . S
C4145 C4147 1.327 . S
C4145 H4168 0.950 . S
C4146 C4145 1.349 . S
C4146 C4158 1.349 . S
C4147 C4145 1.327 . S
C4147 C4163 1.465 . S
C4147 H4169 0.950 . S
C4148 H4144 0.949 . S
C4148 C4156 1.574 . S
C4148 C4164 1.368 . S
H4149 C4157 0.950 . S
H4150 C4155 0.950 . S
H4151 C4156 0.949 . S
H4152 C4158 0.950 . S
H4153 C4159 0.897 1_655 S
H4154 C4160 0.949 . S
C4155 H4150 0.950 . S
C4155 C4157 1.327 . S
C4155 C4161 1.429 . S
C4156 C4148 1.574 . S
C4156 H4151 0.949 . S
C4156 C4162 1.368 . S
C4157 C4141 1.349 . S
C4157 H4149 0.950 . S
C4157 C4155 1.327 . S
C4158 C4146 1.349 . S
C4158 H4152 0.950 . S
C4158 C4159 1.369 . S
C4159 H4153 0.897 1_455 S
C4159 C4158 1.369 . S
C4159 C4163 1.433 . S
C4160 C4143 1.574 . S
C4160 H4154 0.949 . S
C4160 C4164 1.368 . S
C4161 C4142 1.429 . S
C4161 C4155 1.429 . S
C4161 C4162 1.523 . S
C4162 C4143 1.368 . S
C4162 C4156 1.368 . S
C4162 C4161 1.523 . S
C4163 C4147 1.465 . S
C4163 C4159 1.433 . S
C4163 C4164 1.497 1_455 S
C4164 C4148 1.368 . S
C4164 C4160 1.368 . S
C4164 C4163 1.497 1_655 S
H4165 C4140 0.950 . S
H4166 C4142 0.950 . S
H4167 C4143 0.949 . S
H4168 C4145 0.950 . S
H4169 C4147 0.950 . S
C4170 C4171 1.349 . S
C4170 C4172 1.327 . S
C4170 H4195 0.950 . S
C4171 C4170 1.349 . S
C4171 C4187 1.349 . S
C4172 C4170 1.327 . S
C4172 C4191 1.429 . S
C4172 H4196 0.950 . S
C4173 C4190 1.574 . S
C4173 C4192 1.368 . S
C4173 H4197 0.949 . S
H4174 C4178 0.949 . S
C4175 C4176 1.349 . S
C4175 C4177 1.327 . S
C4175 H4198 0.950 . S
C4176 C4175 1.349 . S
C4176 C4188 1.349 . S
C4177 C4175 1.327 . S
C4177 C4193 1.429 . S
C4177 H4199 0.950 . S
C4178 H4174 0.949 . S
C4178 C4186 1.574 . S
C4178 C4194 1.368 . S
H4179 C4187 0.950 . S
H4180 C4185 0.950 . S
H4181 C4186 0.949 . S
H4182 C4188 0.950 . S
H4183 C4189 0.950 . S
H4184 C4190 0.949 . S
C4185 H4180 0.950 . S
C4185 C4187 1.327 . S
C4185 C4191 1.429 . S
C4186 C4178 1.574 . S
C4186 H4181 0.949 . S
C4186 C4192 1.368 . S
C4187 C4171 1.349 . S
C4187 H4179 0.950 . S
C4187 C4185 1.327 . S
C4188 C4176 1.349 . S
C4188 H4182 0.950 . S
C4188 C4189 1.327 . S
C4189 H4183 0.950 . S
C4189 C4188 1.327 . S
C4189 C4193 1.429 . S
C4190 C4173 1.574 . S
C4190 H4184 0.949 . S
C4190 C4194 1.368 . S
C4191 C4172 1.429 . S
C4191 C4185 1.429 . S
C4191 C4192 1.523 . S
C4192 C4173 1.368 . S
C4192 C4186 1.368 . S
C4192 C4191 1.523 . S
C4193 C4177 1.429 . S
C4193 C4189 1.429 . S
C4193 C4194 1.523 . S
C4194 C4178 1.368 . S
C4194 C4190 1.368 . S
C4194 C4193 1.523 . S
H4195 C4170 0.950 . S
H4196 C4172 0.950 . S
H4197 C4173 0.949 . S
H4198 C4175 0.950 . S
H4199 C4177 0.950 . S
C4200 C4201 1.349 . S
C4200 C4202 1.327 . S
C4200 H4225 0.950 . S
C4201 C4200 1.349 . S
C4201 C4217 1.349 . S
C4202 C4200 1.327 . S
C4202 C4221 1.429 . S
C4202 H4226 0.950 . S
C4203 C4220 1.574 . S
C4203 C4222 1.368 . S
C4203 H4227 0.949 . S
H4204 C4208 0.949 . S
C4205 C4206 1.349 . S
C4205 C4207 1.327 . S
C4205 H4228 0.950 . S
C4206 C4205 1.349 . S
C4206 C4218 1.349 . S
C4207 C4205 1.327 . S
C4207 C4223 1.429 . S
C4207 H4229 0.950 . S
C4208 H4204 0.949 . S
C4208 C4216 1.574 . S
C4208 C4224 1.368 . S
H4209 C4217 0.950 . S
H4210 C4215 0.950 . S
H4211 C4216 0.949 . S
H4212 C4218 0.950 . S
H4213 C4219 0.950 . S
H4214 C4220 0.949 . S
C4215 H4210 0.950 . S
C4215 C4217 1.327 . S
C4215 C4221 1.429 . S
C4216 C4208 1.574 . S
C4216 H4211 0.949 . S
C4216 C4222 1.368 . S
C4217 C4201 1.349 . S
C4217 H4209 0.950 . S
C4217 C4215 1.327 . S
C4218 C4206 1.349 . S
C4218 H4212 0.950 . S
C4218 C4219 1.327 . S
C4219 H4213 0.950 . S
C4219 C4218 1.327 . S
C4219 C4223 1.429 . S
C4220 C4203 1.574 . S
C4220 H4214 0.949 . S
C4220 C4224 1.368 . S
C4221 C4202 1.429 . S
C4221 C4215 1.429 . S
C4221 C4222 1.523 . S
C4222 C4203 1.368 . S
C4222 C4216 1.368 . S
C4222 C4221 1.523 . S
C4223 C4207 1.429 . S
C4223 C4219 1.429 . S
C4223 C4224 1.523 . S
C4224 C4208 1.368 . S
C4224 C4220 1.368 . S
C4224 C4223 1.523 . S
H4225 C4200 0.950 . S
H4226 C4202 0.950 . S
H4227 C4203 0.949 . S
H4228 C4205 0.950 . S
H4229 C4207 0.950 . S
C4230 C4231 1.349 . S
C4230 C4232 1.327 . S
C4230 H4255 0.950 . S
C4231 C4230 1.349 . S
C4231 C4247 1.349 . S
C4232 C4230 1.327 . S
C4232 C4251 1.429 . S
C4232 H4256 0.950 . S
C4233 C4250 1.574 . S
C4233 C4252 1.368 . S
C4233 H4257 0.949 . S
H4234 C4238 0.949 . S
C4235 C4236 1.349 . S
C4235 C4237 1.327 . S
C4235 H4258 0.950 . S
C4236 C4235 1.349 . S
C4236 C4248 1.349 . S
C4237 C4235 1.327 . S
C4237 C4253 1.429 . S
C4237 H4259 0.950 . S
C4238 H4234 0.949 . S
C4238 C4246 1.574 . S
C4238 C4254 1.368 . S
H4239 C4247 0.950 . S
H4240 C4245 0.950 . S
H4241 C4246 0.949 . S
H4242 C4248 0.950 . S
H4243 C4249 0.950 . S
H4244 C4250 0.949 . S
C4245 H4240 0.950 . S
C4245 C4247 1.327 . S
C4245 C4251 1.429 . S
C4246 C4238 1.574 . S
C4246 H4241 0.949 . S
C4246 C4252 1.368 . S
C4247 C4231 1.349 . S
C4247 H4239 0.950 . S
C4247 C4245 1.327 . S
C4248 C4236 1.349 . S
C4248 H4242 0.950 . S
C4248 C4249 1.327 . S
C4249 H4243 0.950 . S
C4249 C4248 1.327 . S
C4249 C4253 1.429 . S
C4250 C4233 1.574 . S
C4250 H4244 0.949 . S
C4250 C4254 1.368 . S
C4251 C4232 1.429 . S
C4251 C4245 1.429 . S
C4251 C4252 1.523 . S
C4252 C4233 1.368 . S
C4252 C4246 1.368 . S
C4252 C4251 1.523 . S
C4253 C4237 1.429 . S
C4253 C4249 1.429 . S
C4253 C4254 1.523 . S
C4254 C4238 1.368 . S
C4254 C4250 1.368 . S
C4254 C4253 1.523 . S
H4255 C4230 0.950 . S
H4256 C4232 0.950 . S
H4257 C4233 0.949 . S
H4258 C4235 0.950 . S
H4259 C4237 0.950 . S
C4260 C4261 1.349 . S
C4260 C4262 1.327 . S
C4260 H4285 0.950 . S
C4261 C4260 1.349 . S
C4261 C4277 1.349 . S
C4262 C4260 1.327 . S
C4262 C4281 1.429 . S
C4262 H4286 0.950 . S
C4263 C4280 1.574 . S
C4263 C4282 1.368 . S
C4263 H4287 0.949 . S
H4264 C4268 0.949 . S
C4265 C4266 1.353 . S
C4265 C4267 1.327 1_455 S
C4265 H4288 0.950 . S
C4266 C4265 1.353 . S
C4266 C4278 1.324 1_455 S
C4267 C4265 1.327 1_655 S
C4267 C4283 1.429 . S
C4267 H4289 0.950 1_655 S
C4268 H4264 0.949 . S
C4268 C4276 1.574 . S
C4268 C4284 1.368 . S
H4269 C4277 0.950 . S
H4270 C4275 0.950 . S
H4271 C4276 0.949 . S
H4272 C4278 0.950 . S
H4273 C4279 0.950 . S
H4274 C4280 0.949 . S
C4275 H4270 0.950 . S
C4275 C4277 1.327 . S
C4275 C4281 1.429 . S
C4276 C4268 1.574 . S
C4276 H4271 0.949 . S
C4276 C4282 1.368 . S
C4277 C4261 1.349 . S
C4277 H4269 0.950 . S
C4277 C4275 1.327 . S
C4278 C4266 1.324 1_655 S
C4278 H4272 0.950 . S
C4278 C4279 1.327 . S
C4279 H4273 0.950 . S
C4279 C4278 1.327 . S
C4279 C4283 1.429 . S
C4280 C4263 1.574 . S
C4280 H4274 0.949 . S
C4280 C4284 1.368 . S
C4281 C4262 1.429 . S
C4281 C4275 1.429 . S
C4281 C4282 1.523 . S
C4282 C4263 1.368 . S
C4282 C4276 1.368 . S
C4282 C4281 1.523 . S
C4283 C4267 1.429 . S
C4283 C4279 1.429 . S
C4283 C4284 1.523 . S
C4284 C4268 1.368 . S
C4284 C4280 1.368 . S
C4284 C4283 1.523 . S
H4285 C4260 0.950 . S
H4286 C4262 0.950 . S
H4287 C4263 0.949 . S
H4288 C4265 0.950 . S
H4289 C4267 0.950 1_455 S
C4290 C4291 1.349 . S
C4290 C4292 1.327 . S
C4290 H4315 0.950 . S
C4291 C4290 1.349 . S
C4291 C4307 1.349 . S
C4292 C4290 1.327 . S
C4292 C4311 1.429 . S
C4292 H4316 0.950 . S
C4293 C4310 1.574 . S
C4293 C4312 1.368 . S
C4293 H4317 0.949 . S
H4294 C4298 0.949 . S
C4295 C4296 1.349 . S
C4295 C4297 1.327 . S
C4295 H4318 0.950 . S
C4296 C4295 1.349 . S
C4296 C4308 1.349 . S
C4297 C4295 1.327 . S
C4297 C4313 1.429 . S
C4297 H4319 0.950 . S
C4298 H4294 0.949 . S
C4298 C4306 1.574 . S
C4298 C4314 1.368 . S
H4299 C4307 0.950 . S
H4300 C4305 0.950 . S
H4301 C4306 0.949 . S
H4302 C4308 0.950 . S
H4303 C4309 0.950 . S
H4304 C4310 0.949 . S
C4305 H4300 0.950 . S
C4305 C4307 1.327 . S
C4305 C4311 1.429 . S
C4306 C4298 1.574 . S
C4306 H4301 0.949 . S
C4306 C4312 1.368 . S
C4307 C4291 1.349 . S
C4307 H4299 0.950 . S
C4307 C4305 1.327 . S
C4308 C4296 1.349 . S
C4308 H4302 0.950 . S
C4308 C4309 1.327 . S
C4309 H4303 0.950 . S
C4309 C4308 1.327 . S
C4309 C4313 1.429 . S
C4310 C4293 1.574 . S
C4310 H4304 0.949 . S
C4310 C4314 1.368 . S
C4311 C4292 1.429 . S
C4311 C4305 1.429 . S
C4311 C4312 1.523 . S
C4312 C4293 1.368 . S
C4312 C4306 1.368 . S
C4312 C4311 1.523 . S
C4313 C4297 1.429 . S
C4313 C4309 1.429 . S
C4313 C4314 1.523 . S
C4314 C4298 1.368 . S
C4314 C4310 1.368 . S
C4314 C4313 1.523 . S
H4315 C4290 0.950 . S
H4316 C4292 0.950 . S
H4317 C4293 0.949 . S
H4318 C4295 0.950 . S
H4319 C4297 0.950 . S
C4320 C4321 1.349 . S
C4320 C4322 1.327 . S
C4320 H4345 0.950 . S
C4321 C4320 1.349 . S
C4321 C4337 1.349 . S
C4322 C4320 1.327 . S
C4322 C4341 1.429 . S
C4322 H4346 0.950 . S
C4323 C4340 1.574 . S
C4323 C4342 1.368 . S
C4323 H4347 0.949 . S
H4324 C4328 0.949 . S
C4325 C4326 1.349 . S
C4325 C4327 1.327 . S
C4325 H4348 0.950 . S
C4326 C4325 1.349 . S
C4326 C4338 1.349 . S
C4327 C4325 1.327 . S
C4327 C4343 1.429 . S
C4327 H4349 0.950 . S
C4328 H4324 0.949 . S
C4328 C4336 1.574 . S
C4328 C4344 1.368 . S
H4329 C4337 0.950 . S
H4330 C4335 0.950 . S
H4331 C4336 0.949 . S
H4332 C4338 0.950 . S
H4333 C4339 0.950 . S
H4334 C4340 0.949 . S
C4335 H4330 0.950 . S
C4335 C4337 1.327 . S
C4335 C4341 1.429 . S
C4336 C4328 1.574 . S
C4336 H4331 0.949 . S
C4336 C4342 1.368 . S
C4337 C4321 1.349 . S
C4337 H4329 0.950 . S
C4337 C4335 1.327 . S
C4338 C4326 1.349 . S
C4338 H4332 0.950 . S
C4338 C4339 1.327 . S
C4339 H4333 0.950 . S
C4339 C4338 1.327 . S
C4339 C4343 1.429 . S
C4340 C4323 1.574 . S
C4340 H4334 0.949 . S
C4340 C4344 1.368 . S
C4341 C4322 1.429 . S
C4341 C4335 1.429 . S
C4341 C4342 1.523 . S
C4342 C4323 1.368 . S
C4342 C4336 1.368 . S
C4342 C4341 1.523 . S
C4343 C4327 1.429 . S
C4343 C4339 1.429 . S
C4343 C4344 1.523 . S
C4344 C4328 1.368 . S
C4344 C4340 1.368 . S
C4344 C4343 1.523 . S
H4345 C4320 0.950 . S
H4346 C4322 0.950 . S
H4347 C4323 0.949 . S
H4348 C4325 0.950 . S
H4349 C4327 0.950 . S
C4350 C4351 1.349 . S
C4350 C4352 1.327 . S
C4350 H4375 0.950 . S
C4351 C4350 1.349 . S
C4351 C4367 1.349 . S
C4352 C4350 1.327 . S
C4352 C4371 1.429 . S
C4352 H4376 0.950 . S
C4353 C4370 1.574 . S
C4353 C4372 1.368 . S
C4353 H4377 0.949 . S
H4354 C4358 0.949 . S
C4355 C4356 1.349 1_565 S
C4355 C4357 1.327 . S
C4355 H4378 0.950 . S
C4356 C4355 1.349 1_545 S
C4356 C4368 1.349 . S
C4357 C4355 1.327 . S
C4357 C4373 1.429 . S
C4357 H4379 0.950 . S
C4358 H4354 0.949 . S
C4358 C4366 1.574 . S
C4358 C4374 1.368 . S
H4359 C4367 0.950 . S
H4360 C4365 0.950 . S
H4361 C4366 0.949 . S
H4362 C4368 0.951 . S
H4363 C4369 0.950 . S
H4364 C4370 0.949 . S
C4365 H4360 0.950 . S
C4365 C4367 1.327 . S
C4365 C4371 1.429 . S
C4366 C4358 1.574 . S
C4366 H4361 0.949 . S
C4366 C4372 1.368 . S
C4367 C4351 1.349 . S
C4367 H4359 0.950 . S
C4367 C4365 1.327 . S
C4368 C4356 1.349 . S
C4368 H4362 0.951 . S
C4368 C4369 1.327 1_545 S
C4369 H4363 0.950 . S
C4369 C4368 1.327 1_565 S
C4369 C4373 1.429 . S
C4370 C4353 1.574 . S
C4370 H4364 0.949 . S
C4370 C4374 1.368 . S
C4371 C4352 1.429 . S
C4371 C4365 1.429 . S
C4371 C4372 1.523 . S
C4372 C4353 1.368 . S
C4372 C4366 1.368 . S
C4372 C4371 1.523 . S
C4373 C4357 1.429 . S
C4373 C4369 1.429 . S
C4373 C4374 1.523 . S
C4374 C4358 1.368 . S
C4374 C4370 1.368 . S
C4374 C4373 1.523 . S
H4375 C4350 0.950 . S
H4376 C4352 0.950 . S
H4377 C4353 0.949 . S
H4378 C4355 0.950 . S
H4379 C4357 0.950 . S
C4380 C4381 1.349 . S
C4380 C4382 1.327 . S
C4380 H4405 0.950 . S
C4381 C4380 1.349 . S
C4381 C4397 1.349 . S
C4382 C4380 1.327 . S
C4382 C4401 1.429 . S
C4382 H4406 0.950 . S
C4383 C4400 1.574 . S
C4383 C4402 1.368 . S
C4383 H4407 0.949 . S
H4384 C4388 0.949 . S
C4385 C4386 1.349 . S
C4385 C4387 1.327 . S
C4385 H4408 0.950 . S
C4386 C4385 1.349 . S
C4386 C4398 1.349 . S
C4387 C4385 1.327 . S
C4387 C4403 1.429 . S
C4387 H4409 0.950 . S
C4388 H4384 0.949 . S
C4388 C4396 1.574 . S
C4388 C4404 1.368 . S
H4389 C4397 0.950 . S
H4390 C4395 0.950 . S
H4391 C4396 0.949 . S
H4392 C4398 0.950 . S
H4393 C4399 0.950 . S
H4394 C4400 0.949 . S
C4395 H4390 0.950 . S
C4395 C4397 1.327 . S
C4395 C4401 1.429 . S
C4396 C4388 1.574 . S
C4396 H4391 0.949 . S
C4396 C4402 1.368 . S
C4397 C4381 1.349 . S
C4397 H4389 0.950 . S
C4397 C4395 1.327 . S
C4398 C4386 1.349 . S
C4398 H4392 0.950 . S
C4398 C4399 1.327 . S
C4399 H4393 0.950 . S
C4399 C4398 1.327 . S
C4399 C4403 1.429 . S
C4400 C4383 1.574 . S
C4400 H4394 0.949 . S
C4400 C4404 1.368 . S
C4401 C4382 1.429 . S
C4401 C4395 1.429 . S
C4401 C4402 1.523 . S
C4402 C4383 1.368 . S
C4402 C4396 1.368 . S
C4402 C4401 1.523 . S
C4403 C4387 1.429 . S
C4403 C4399 1.429 . S
C4403 C4404 1.523 . S
C4404 C4388 1.368 . S
C4404 C4400 1.368 . S
C4404 C4403 1.523 . S
H4405 C4380 0.950 . S
H4406 C4382 0.950 . S
H4407 C4383 0.949 . S
H4408 C4385 0.950 . S
H4409 C4387 0.950 . S
C4410 C4411 1.349 . S
C4410 C4412 1.327 . S
C4410 H4435 0.950 . S
C4411 C4410 1.349 . S
C4411 C4427 1.349 . S
C4412 C4410 1.327 . S
C4412 C4431 1.429 . S
C4412 H4436 0.950 . S
C4413 C4430 1.574 . S
C4413 C4432 1.368 . S
C4413 H4437 0.949 1_554 S
H4414 C4418 0.949 . S
C4415 C4416 1.349 . S
C4415 C4417 1.327 . S
C4415 H4438 0.950 1_554 S
C4416 C4415 1.349 . S
C4416 C4428 1.349 . S
C4417 C4415 1.327 . S
C4417 C4433 1.429 . S
C4417 H4439 0.950 1_554 S
C4418 H4414 0.949 . S
C4418 C4426 1.574 . S
C4418 C4434 1.368 . S
H4419 C4427 0.950 1_556 S
H4420 C4425 0.950 1_556 S
H4421 C4426 0.949 . S
H4422 C4428 0.950 . S
H4423 C4429 0.950 . S
H4424 C4430 0.949 1_556 S
C4425 H4420 0.950 1_554 S
C4425 C4427 1.327 . S
C4425 C4431 1.429 . S
C4426 C4418 1.574 . S
C4426 H4421 0.949 . S
C4426 C4432 1.368 . S
C4427 C4411 1.349 . S
C4427 H4419 0.950 1_554 S
C4427 C4425 1.327 . S
C4428 C4416 1.349 . S
C4428 H4422 0.950 . S
C4428 C4429 1.327 . S
C4429 H4423 0.950 . S
C4429 C4428 1.327 . S
C4429 C4433 1.429 . S
C4430 C4413 1.574 . S
C4430 H4424 0.949 1_554 S
C4430 C4434 1.368 . S
C4431 C4412 1.429 . S
C4431 C4425 1.429 . S
C4431 C4432 1.523 . S
C4432 C4413 1.368 . S
C4432 C4426 1.368 . S
C4432 C4431 1.523 . S
C4433 C4417 1.429 . S
C4433 C4429 1.429 . S
C4433 C4434 1.523 . S
C4434 C4418 1.368 . S
C4434 C4430 1.368 . S
C4434 C4433 1.523 . S
H4435 C4410 0.950 . S
H4436 C4412 0.950 . S
H4437 C4413 0.949 1_556 S
H4438 C4415 0.950 1_556 S
H4439 C4417 0.950 1_556 S
C4440 C4441 1.349 . S
C4440 C4442 1.327 . S
C4440 H4465 0.950 . S
C4441 C4440 1.349 . S
C4441 C4457 1.349 . S
C4442 C4440 1.327 . S
C4442 C4461 1.429 . S
C4442 H4466 0.950 . S
C4443 C4460 1.574 . S
C4443 C4462 1.368 . S
C4443 H4467 0.949 . S
H4444 C4448 0.949 . S
C4445 C4446 1.349 . S
C4445 C4447 1.327 . S
C4445 H4468 0.950 . S
C4446 C4445 1.349 . S
C4446 C4458 1.349 . S
C4447 C4445 1.327 . S
C4447 C4463 1.429 . S
C4447 H4469 0.950 . S
C4448 H4444 0.949 . S
C4448 C4456 1.574 . S
C4448 C4464 1.368 . S
H4449 C4457 0.950 . S
H4450 C4455 0.950 . S
H4451 C4456 0.949 . S
H4452 C4458 0.950 . S
H4453 C4459 0.950 . S
H4454 C4460 0.949 . S
C4455 H4450 0.950 . S
C4455 C4457 1.327 . S
C4455 C4461 1.429 . S
C4456 C4448 1.574 . S
C4456 H4451 0.949 . S
C4456 C4462 1.368 . S
C4457 C4441 1.349 . S
C4457 H4449 0.950 . S
C4457 C4455 1.327 . S
C4458 C4446 1.349 . S
C4458 H4452 0.950 . S
C4458 C4459 1.327 . S
C4459 H4453 0.950 . S
C4459 C4458 1.327 . S
C4459 C4463 1.429 . S
C4460 C4443 1.574 . S
C4460 H4454 0.949 . S
C4460 C4464 1.368 . S
C4461 C4442 1.429 . S
C4461 C4455 1.429 . S
C4461 C4462 1.523 . S
C4462 C4443 1.368 . S
C4462 C4456 1.368 . S
C4462 C4461 1.523 . S
C4463 C4447 1.429 . S
C4463 C4459 1.429 . S
C4463 C4464 1.523 . S
C4464 C4448 1.368 . S
C4464 C4460 1.368 . S
C4464 C4463 1.523 . S
H4465 C4440 0.950 . S
H4466 C4442 0.950 . S
H4467 C4443 0.949 . S
H4468 C4445 0.950 . S
H4469 C4447 0.950 . S
C4470 C4471 1.349 . S
C4470 C4472 1.327 . S
C4470 H4495 0.950 . S
C4471 C4470 1.349 . S
C4471 C4487 1.349 . S
C4472 C4470 1.327 . S
C4472 C4491 1.429 . S
C4472 H4496 0.950 . S
C4473 C4490 1.574 . S
C4473 C4492 1.368 . S
C4473 H4497 0.949 . S
H4474 C4478 0.949 1_556 S
C4475 C4476 1.349 . S
C4475 C4477 1.327 . S
C4475 H4498 0.950 . S
C4476 C4475 1.349 . S
C4476 C4488 1.349 1_554 S
C4477 C4475 1.327 . S
C4477 C4493 1.429 . S
C4477 H4499 0.950 . S
C4478 H4474 0.949 1_554 S
C4478 C4486 1.574 . S
C4478 C4494 1.368 . S
H4479 C4487 0.950 . S
H4480 C4485 0.950 . S
H4481 C4486 0.916 1_556 S
H4482 C4488 0.950 . S
H4483 C4489 0.949 1_556 S
H4484 C4490 0.949 . S
C4485 H4480 0.950 . S
C4485 C4487 1.327 . S
C4485 C4491 1.429 . S
C4486 C4478 1.574 . S
C4486 H4481 0.916 1_554 S
C4486 C4492 1.368 . S
C4487 C4471 1.349 . S
C4487 H4479 0.950 . S
C4487 C4485 1.327 . S
C4488 C4476 1.349 1_556 S
C4488 H4482 0.950 . S
C4488 C4489 1.327 1_556 S
C4489 H4483 0.949 1_554 S
C4489 C4488 1.327 1_554 S
C4489 C4493 1.429 . S
C4490 C4473 1.574 . S
C4490 H4484 0.949 . S
C4490 C4494 1.368 . S
C4491 C4472 1.429 . S
C4491 C4485 1.429 . S
C4491 C4492 1.523 . S
C4492 C4473 1.368 . S
C4492 C4486 1.368 . S
C4492 C4491 1.523 . S
C4493 C4477 1.429 . S
C4493 C4489 1.429 . S
C4493 C4494 1.523 . S
C4494 C4478 1.368 . S
C4494 C4490 1.368 . S
C4494 C4493 1.523 . S
H4495 C4470 0.950 . S
H4496 C4472 0.950 . S
H4497 C4473 0.949 . S
H4498 C4475 0.950 . S
H4499 C4477 0.950 . S
C4500 C4501 1.353 . S
C4500 C4502 1.327 . S
C4500 H4525 0.950 . S
C4501 C4500 1.353 . S
C4501 C4517 1.350 . S
C4502 C4500 1.327 . S
C4502 C4521 1.429 . S
C4502 H4526 0.950 . S
C4503 C4520 1.574 . S
C4503 C4522 1.368 . S
C4503 H4527 0.949 . S
H4504 C4508 0.949 . S
C4505 C4506 1.349 . S
C4505 C4507 1.327 . S
C4505 H4528 0.950 . S
C4506 C4505 1.349 . S
C4506 C4518 1.349 . S
C4507 C4505 1.327 . S
C4507 C4523 1.429 . S
C4507 H4529 0.950 . S
C4508 H4504 0.949 . S
C4508 C4516 1.574 . S
C4508 C4524 1.368 . S
H4509 C4517 0.950 1_545 S
H4510 C4515 0.950 . S
H4511 C4516 0.949 . S
H4512 C4518 0.950 . S
H4513 C4519 0.950 . S
H4514 C4520 0.949 . S
C4515 H4510 0.950 . S
C4515 C4517 1.327 . S
C4515 C4521 1.429 . S
C4516 C4508 1.574 . S
C4516 H4511 0.949 . S
C4516 C4522 1.368 . S
C4517 C4501 1.350 . S
C4517 H4509 0.950 1_565 S
C4517 C4515 1.327 . S
C4518 C4506 1.349 . S
C4518 H4512 0.950 . S
C4518 C4519 1.327 . S
C4519 H4513 0.950 . S
C4519 C4518 1.327 . S
C4519 C4523 1.429 . S
C4520 C4503 1.574 . S
C4520 H4514 0.949 . S
C4520 C4524 1.368 . S
C4521 C4502 1.429 . S
C4521 C4515 1.429 . S
C4521 C4522 1.523 . S
C4522 C4503 1.368 . S
C4522 C4516 1.368 . S
C4522 C4521 1.523 . S
C4523 C4507 1.429 . S
C4523 C4519 1.429 . S
C4523 C4524 1.523 . S
C4524 C4508 1.368 . S
C4524 C4520 1.368 . S
C4524 C4523 1.523 . S
H4525 C4500 0.950 . S
H4526 C4502 0.950 . S
H4527 C4503 0.949 . S
H4528 C4505 0.950 . S
H4529 C4507 0.950 . S
C4530 C4531 1.349 . S
C4530 C4532 1.327 . S
C4530 H4555 0.950 . S
C4531 C4530 1.349 . S
C4531 C4547 1.349 . S
C4532 C4530 1.327 . S
C4532 C4551 1.429 . S
C4532 H4556 0.950 . S
C4533 C4550 1.574 . S
C4533 C4552 1.368 . S
C4533 H4557 0.949 . S
H4534 C4538 0.949 . S
C4535 C4536 1.349 . S
C4535 C4537 1.327 . S
C4535 H4558 0.950 . S
C4536 C4535 1.349 . S
C4536 C4548 1.349 . S
C4537 C4535 1.327 . S
C4537 C4553 1.429 . S
C4537 H4559 0.950 . S
C4538 H4534 0.949 . S
C4538 C4546 1.574 . S
C4538 C4554 1.368 . S
H4539 C4547 0.950 . S
H4540 C4545 0.950 . S
H4541 C4546 0.949 . S
H4542 C4548 0.950 . S
H4543 C4549 0.950 . S
H4544 C4550 0.949 . S
C4545 H4540 0.950 . S
C4545 C4547 1.327 . S
C4545 C4551 1.429 . S
C4546 C4538 1.574 . S
C4546 H4541 0.949 . S
C4546 C4552 1.368 . S
C4547 C4531 1.349 . S
C4547 H4539 0.950 . S
C4547 C4545 1.327 . S
C4548 C4536 1.349 . S
C4548 H4542 0.950 . S
C4548 C4549 1.327 . S
C4549 H4543 0.950 . S
C4549 C4548 1.327 . S
C4549 C4553 1.429 . S
C4550 C4533 1.574 . S
C4550 H4544 0.949 . S
C4550 C4554 1.368 . S
C4551 C4532 1.429 . S
C4551 C4545 1.429 . S
C4551 C4552 1.523 . S
C4552 C4533 1.368 . S
C4552 C4546 1.368 . S
C4552 C4551 1.523 . S
C4553 C4537 1.429 . S
C4553 C4549 1.429 . S
C4553 C4554 1.523 . S
C4554 C4538 1.368 . S
C4554 C4550 1.368 . S
C4554 C4553 1.523 . S
H4555 C4530 0.950 . S
H4556 C4532 0.950 . S
H4557 C4533 0.949 . S
H4558 C4535 0.950 . S
H4559 C4537 0.950 . S
C1681 C105 1.652 . S
C1686 C392 1.523 . S
C1711 C65 2.237 . S
C1716 C483 2.166 . S
C1741 C73 1.456 . S
C1746 C560 1.375 . S
C1776 C658 1.577 . S
C1771 C92 1.710 . S
C1801 C17 1.654 . S
C1806 C742 1.568 . S
C1836 C814 0.897 . S
C1831 C37 0.942 . S
C1866 C903 0.693 . S
C1861 C49 0.706 . S
C1891 C8 1.309 . S
C1896 C980 1.176 . S
C1926 C399 1.949 . S
C1921 C231 2.002 . S
C1951 C241 0.596 . S
C1956 C490 0.645 . S
C1986 C567 1.207 . S
C1981 C273 1.202 . S
C2016 C644 1.466 . S
C2011 C171 1.566 1_556 S
C2041 C227 2.033 . S
C2046 C728 1.871 . S
C2076 C830 1.077 . S
C2071 C245 1.125 . S
C2106 C910 0.747 . S
C2101 C269 0.746 . S
C2136 C987 1.340 . S
C2131 C175 1.424 . S
C2166 C406 1.430 . S
C2161 C162 1.539 . S
C2191 C289 2.051 . S
C2196 C1071 1.968 . S
C2226 C1159 2.150 . S
C2221 C330 2.320 . S
C2256 C1232 0.514 . S
C2251 C317 0.351 . S
C2281 C120 0.682 . S
C2286 C994 0.688 . S
C2311 C134 1.466 . S
C2316 C574 1.404 . S
C2341 C331 2.319 . S
C2346 C1323 2.235 . S
C2376 C1400 0.662 . S
C2371 C303 0.618 . S
C2406 C403 1.558 1_565 S
C2401 C59 1.669 . S
C2436 C1418 2.209 . S
C2431 C107 2.267 . S
C2461 C91 1.518 . S
C2466 C571 1.440 . S
C2491 C78 1.749 . S
C2496 C1318 1.612 . S
C2526 C730 1.590 . S
C2521 C7 1.615 . S
C2551 C51 0.982 . S
C2556 C1162 0.926 . S
C2586 C914 0.753 1_566 S
C2581 C31 0.761 . S
C2616 C1495 1.210 . S
C2611 C22 1.324 . S
C2646 C410 1.994 . S
C2641 C143 2.091 . S
C2676 C1402 0.673 . S
C2671 C315 0.652 . S
C2701 C115 1.283 . S
C2706 C578 1.235 . S
C2731 C287 1.599 . S
C2736 C1327 1.517 . S
C2761 C147 1.983 . S
C2766 C739 1.919 . S
C2796 C1155 1.105 . S
C2791 C311 1.187 . S
C2821 C119 0.787 . S
C2826 C898 0.778 . S
C2851 C283 1.487 . S
C2856 C1502 1.395 . S
C2881 C190 1.556 . S
C2886 C394 1.443 . S
C2911 C177 2.087 . S
C2916 C1082 2.013 . S
C2941 C260 2.357 . S
C2946 C812 2.190 . S
C2971 C247 0.416 . S
C2976 C1243 0.527 . S
C3006 C1486 0.685 . S
C3001 C274 0.721 . S
C3031 C218 1.477 . S
C3036 C562 1.418 . S
C3066 C662 2.281 . S
C3061 C261 2.361 . S
C3096 C487 0.693 . S
C3091 C205 0.671 . S
C3121 C77 1.652 . S
C3126 C1568 1.523 . S
C3156 C1407 2.166 . S
C3151 C93 2.237 . S
C3181 C101 1.456 . S
C3186 C1652 1.376 . S
C3211 C64 1.710 . S
C3216 C1330 1.576 . S
C3241 C45 1.653 . S
C3246 C1078 1.568 . S
C3276 C1150 0.897 . S
C3271 C9 0.942 . S
C3306 C1239 0.693 . S
C3301 C21 0.724 . S
C3336 C1484 1.176 . S
C3331 C36 1.309 . S
C3366 C1575 1.949 . S
C3361 C259 2.002 . S
C3391 C185 0.596 . S
C3396 C1414 0.645 . S
C3426 C1659 1.206 . S
C3421 C203 1.202 . S
C3456 C1316 1.466 . S
C3451 C213 1.566 . S
C3486 C1064 1.871 . S
C3481 C255 2.033 . S
C3511 C189 1.124 . S
C3516 C1166 1.076 . S
C3546 C1246 0.747 . S
C3541 C199 0.745 . S
C3571 C217 1.424 . S
C3576 C1491 1.340 . S
C3606 C1582 1.430 . S
C3601 C316 1.538 . S
C3631 C135 2.051 . S
C3636 C735 1.971 . S
C3666 C823 2.150 . S
C3661 C148 2.327 . S
C3696 C896 0.514 . S
C3691 C163 0.351 . S
C3726 C1498 0.687 . S
C3721 C302 0.681 . S
C3751 C288 1.459 1_554 S
C3756 C1666 1.401 . S
C3786 C651 2.234 . S
C3781 C149 2.312 . S
C3816 C476 0.662 . S
C3811 C121 0.618 . S
C3841 C87 1.668 . S
C3846 C1579 1.558 . S
C3876 C494 2.209 . S
C3871 C79 2.267 . S
C3901 C63 1.518 . S
C3906 C1663 1.440 . S
C3931 C106 1.748 . S
C3936 C646 1.612 . S
C3961 C35 1.615 . S
C3966 C1066 1.590 . S
C3996 C826 0.925 . S
C3991 C23 0.981 . S
C4021 C3 0.760 . S
C4026 C1250 0.760 . S
C4051 C50 1.324 . S
C4056 C991 1.210 . S
C4086 C1586 1.993 . S
C4081 C325 2.091 . S
C4111 C161 0.652 . S
C4116 C478 0.673 . S
C4146 C1670 1.235 . S
C4141 C297 1.284 . S
C4171 C133 1.600 . S
C4176 C655 1.525 . S
C4201 C329 1.983 . S
C4206 C1075 1.920 . S
C4236 C819 1.105 . S
C4231 C157 1.188 . S
C4261 C301 0.787 . S
C4266 C1234 0.811 . S
C4296 C998 1.389 . S
C4291 C129 1.487 . S
C4326 C1570 1.444 . S
C4321 C246 1.556 . S
C4356 C746 2.013 1_655 S
C4351 C219 2.087 . S
C4381 C232 2.357 . S
C4386 C1148 2.190 . S
C4416 C907 0.527 . S
C4411 C191 0.417 . S
C4441 C204 0.679 . S
C4446 C982 0.685 . S
C4471 C176 1.477 . S
C4476 C1654 1.418 . S
C4506 C1334 2.281 . S
C4501 C233 2.356 1_565 S
C4536 C1411 0.693 . S
C4531 C275 0.671 . S
