# Generated by pormake.
# Topology gar, (4,6)-cn, num edge types: 1
# Building blocks:
#     Node 0, Type 0, BuildingBlock: NAHDIM_clean_sbu_0, # of connection points: 4
#     Node 1, Type 0, BuildingBlock: NAHDIM_clean_sbu_0, # of connection points: 4
#     Node 2, Type 0, BuildingBlock: NAHDIM_clean_sbu_0, # of connection points: 4
#     Node 3, Type 0, BuildingBlock: NAHDIM_clean_sbu_0, # of connection points: 4
#     Node 4, Type 0, BuildingBlock: NAHDIM_clean_sbu_0, # of connection points: 4
#     Node 5, Type 0, BuildingBlock: NAHDIM_clean_sbu_0, # of connection points: 4
#     Node 6, Type 0, BuildingBlock: NAHDIM_clean_sbu_0, # of connection points: 4
#     Node 7, Type 0, BuildingBlock: NAHDIM_clean_sbu_0, # of connection points: 4
#     Node 8, Type 0, BuildingBlock: NAHDIM_clean_sbu_0, # of connection points: 4
#     Node 9, Type 0, BuildingBlock: NAHDIM_clean_sbu_0, # of connection points: 4
#     Node 10, Type 0, BuildingBlock: NAHDIM_clean_sbu_0, # of connection points: 4
#     Node 11, Type 0, BuildingBlock: NAHDIM_clean_sbu_0, # of connection points: 4
#     Node 12, Type 0, BuildingBlock: NAHDIM_clean_sbu_0, # of connection points: 4
#     Node 13, Type 0, BuildingBlock: NAHDIM_clean_sbu_0, # of connection points: 4
#     Node 14, Type 0, BuildingBlock: NAHDIM_clean_sbu_0, # of connection points: 4
#     Node 15, Type 0, BuildingBlock: NAHDIM_clean_sbu_0, # of connection points: 4
#     Node 16, Type 0, BuildingBlock: NAHDIM_clean_sbu_0, # of connection points: 4
#     Node 17, Type 0, BuildingBlock: NAHDIM_clean_sbu_0, # of connection points: 4
#     Node 18, Type 0, BuildingBlock: NAHDIM_clean_sbu_0, # of connection points: 4
#     Node 19, Type 0, BuildingBlock: NAHDIM_clean_sbu_0, # of connection points: 4
#     Node 20, Type 0, BuildingBlock: NAHDIM_clean_sbu_0, # of connection points: 4
#     Node 21, Type 0, BuildingBlock: NAHDIM_clean_sbu_0, # of connection points: 4
#     Node 22, Type 0, BuildingBlock: NAHDIM_clean_sbu_0, # of connection points: 4
#     Node 23, Type 0, BuildingBlock: NAHDIM_clean_sbu_0, # of connection points: 4
#     Node 24, Type 1, BuildingBlock: KUMBUR_clean_sbu_0, # of connection points: 6
#     Node 25, Type 1, BuildingBlock: KUMBUR_clean_sbu_0, # of connection points: 6
#     Node 26, Type 1, BuildingBlock: KUMBUR_clean_sbu_0, # of connection points: 6
#     Node 27, Type 1, BuildingBlock: KUMBUR_clean_sbu_0, # of connection points: 6
#     Node 28, Type 1, BuildingBlock: KUMBUR_clean_sbu_0, # of connection points: 6
#     Node 29, Type 1, BuildingBlock: KUMBUR_clean_sbu_0, # of connection points: 6
#     Node 30, Type 1, BuildingBlock: KUMBUR_clean_sbu_0, # of connection points: 6
#     Node 31, Type 1, BuildingBlock: KUMBUR_clean_sbu_0, # of connection points: 6
#     Node 32, Type 1, BuildingBlock: KUMBUR_clean_sbu_0, # of connection points: 6
#     Node 33, Type 1, BuildingBlock: KUMBUR_clean_sbu_0, # of connection points: 6
#     Node 34, Type 1, BuildingBlock: KUMBUR_clean_sbu_0, # of connection points: 6
#     Node 35, Type 1, BuildingBlock: KUMBUR_clean_sbu_0, # of connection points: 6
#     Node 36, Type 1, BuildingBlock: KUMBUR_clean_sbu_0, # of connection points: 6
#     Node 37, Type 1, BuildingBlock: KUMBUR_clean_sbu_0, # of connection points: 6
#     Node 38, Type 1, BuildingBlock: KUMBUR_clean_sbu_0, # of connection points: 6
#     Node 39, Type 1, BuildingBlock: KUMBUR_clean_sbu_0, # of connection points: 6
#     Edge 40, Type (0, 1), BuildingBlock: KIFKEQ_clean_linker_1, # of connection points: 2
#     Edge 41, Type (0, 1), BuildingBlock: KIFKEQ_clean_linker_1, # of connection points: 2
#     Edge 42, Type (0, 1), BuildingBlock: KIFKEQ_clean_linker_1, # of connection points: 2
#     Edge 43, Type (0, 1), BuildingBlock: KIFKEQ_clean_linker_1, # of connection points: 2
#     Edge 44, Type (0, 1), BuildingBlock: KIFKEQ_clean_linker_1, # of connection points: 2
#     Edge 45, Type (0, 1), BuildingBlock: KIFKEQ_clean_linker_1, # of connection points: 2
#     Edge 46, Type (0, 1), BuildingBlock: KIFKEQ_clean_linker_1, # of connection points: 2
#     Edge 47, Type (0, 1), BuildingBlock: KIFKEQ_clean_linker_1, # of connection points: 2
#     Edge 48, Type (0, 1), BuildingBlock: KIFKEQ_clean_linker_1, # of connection points: 2
#     Edge 49, Type (0, 1), BuildingBlock: KIFKEQ_clean_linker_1, # of connection points: 2
#     Edge 50, Type (0, 1), BuildingBlock: KIFKEQ_clean_linker_1, # of connection points: 2
#     Edge 51, Type (0, 1), BuildingBlock: KIFKEQ_clean_linker_1, # of connection points: 2
#     Edge 52, Type (0, 1), BuildingBlock: KIFKEQ_clean_linker_1, # of connection points: 2
#     Edge 53, Type (0, 1), BuildingBlock: KIFKEQ_clean_linker_1, # of connection points: 2
#     Edge 54, Type (0, 1), BuildingBlock: KIFKEQ_clean_linker_1, # of connection points: 2
#     Edge 55, Type (0, 1), BuildingBlock: KIFKEQ_clean_linker_1, # of connection points: 2
#     Edge 56, Type (0, 1), BuildingBlock: KIFKEQ_clean_linker_1, # of connection points: 2
#     Edge 57, Type (0, 1), BuildingBlock: KIFKEQ_clean_linker_1, # of connection points: 2
#     Edge 58, Type (0, 1), BuildingBlock: KIFKEQ_clean_linker_1, # of connection points: 2
#     Edge 59, Type (0, 1), BuildingBlock: KIFKEQ_clean_linker_1, # of connection points: 2
#     Edge 60, Type (0, 1), BuildingBlock: KIFKEQ_clean_linker_1, # of connection points: 2
#     Edge 61, Type (0, 1), BuildingBlock: KIFKEQ_clean_linker_1, # of connection points: 2
#     Edge 62, Type (0, 1), BuildingBlock: KIFKEQ_clean_linker_1, # of connection points: 2
#     Edge 63, Type (0, 1), BuildingBlock: KIFKEQ_clean_linker_1, # of connection points: 2
#     Edge 64, Type (0, 1), BuildingBlock: KIFKEQ_clean_linker_1, # of connection points: 2
#     Edge 65, Type (0, 1), BuildingBlock: KIFKEQ_clean_linker_1, # of connection points: 2
#     Edge 66, Type (0, 1), BuildingBlock: KIFKEQ_clean_linker_1, # of connection points: 2
#     Edge 67, Type (0, 1), BuildingBlock: KIFKEQ_clean_linker_1, # of connection points: 2
#     Edge 68, Type (0, 1), BuildingBlock: KIFKEQ_clean_linker_1, # of connection points: 2
#     Edge 69, Type (0, 1), BuildingBlock: KIFKEQ_clean_linker_1, # of connection points: 2
#     Edge 70, Type (0, 1), BuildingBlock: KIFKEQ_clean_linker_1, # of connection points: 2
#     Edge 71, Type (0, 1), BuildingBlock: KIFKEQ_clean_linker_1, # of connection points: 2
#     Edge 72, Type (0, 1), BuildingBlock: KIFKEQ_clean_linker_1, # of connection points: 2
#     Edge 73, Type (0, 1), BuildingBlock: KIFKEQ_clean_linker_1, # of connection points: 2
#     Edge 74, Type (0, 1), BuildingBlock: KIFKEQ_clean_linker_1, # of connection points: 2
#     Edge 75, Type (0, 1), BuildingBlock: KIFKEQ_clean_linker_1, # of connection points: 2
#     Edge 76, Type (0, 1), BuildingBlock: KIFKEQ_clean_linker_1, # of connection points: 2
#     Edge 77, Type (0, 1), BuildingBlock: KIFKEQ_clean_linker_1, # of connection points: 2
#     Edge 78, Type (0, 1), BuildingBlock: KIFKEQ_clean_linker_1, # of connection points: 2
#     Edge 79, Type (0, 1), BuildingBlock: KIFKEQ_clean_linker_1, # of connection points: 2
#     Edge 80, Type (0, 1), BuildingBlock: KIFKEQ_clean_linker_1, # of connection points: 2
#     Edge 81, Type (0, 1), BuildingBlock: KIFKEQ_clean_linker_1, # of connection points: 2
#     Edge 82, Type (0, 1), BuildingBlock: KIFKEQ_clean_linker_1, # of connection points: 2
#     Edge 83, Type (0, 1), BuildingBlock: KIFKEQ_clean_linker_1, # of connection points: 2
#     Edge 84, Type (0, 1), BuildingBlock: KIFKEQ_clean_linker_1, # of connection points: 2
#     Edge 85, Type (0, 1), BuildingBlock: KIFKEQ_clean_linker_1, # of connection points: 2
#     Edge 86, Type (0, 1), BuildingBlock: KIFKEQ_clean_linker_1, # of connection points: 2
#     Edge 87, Type (0, 1), BuildingBlock: KIFKEQ_clean_linker_1, # of connection points: 2
#     Edge 88, Type (0, 1), BuildingBlock: KIFKEQ_clean_linker_1, # of connection points: 2
#     Edge 89, Type (0, 1), BuildingBlock: KIFKEQ_clean_linker_1, # of connection points: 2
#     Edge 90, Type (0, 1), BuildingBlock: KIFKEQ_clean_linker_1, # of connection points: 2
#     Edge 91, Type (0, 1), BuildingBlock: KIFKEQ_clean_linker_1, # of connection points: 2
#     Edge 92, Type (0, 1), BuildingBlock: KIFKEQ_clean_linker_1, # of connection points: 2
#     Edge 93, Type (0, 1), BuildingBlock: KIFKEQ_clean_linker_1, # of connection points: 2
#     Edge 94, Type (0, 1), BuildingBlock: KIFKEQ_clean_linker_1, # of connection points: 2
#     Edge 95, Type (0, 1), BuildingBlock: KIFKEQ_clean_linker_1, # of connection points: 2
#     Edge 96, Type (0, 1), BuildingBlock: KIFKEQ_clean_linker_1, # of connection points: 2
#     Edge 97, Type (0, 1), BuildingBlock: KIFKEQ_clean_linker_1, # of connection points: 2
#     Edge 98, Type (0, 1), BuildingBlock: KIFKEQ_clean_linker_1, # of connection points: 2
#     Edge 99, Type (0, 1), BuildingBlock: KIFKEQ_clean_linker_1, # of connection points: 2
#     Edge 100, Type (0, 1), BuildingBlock: KIFKEQ_clean_linker_1, # of connection points: 2
#     Edge 101, Type (0, 1), BuildingBlock: KIFKEQ_clean_linker_1, # of connection points: 2
#     Edge 102, Type (0, 1), BuildingBlock: KIFKEQ_clean_linker_1, # of connection points: 2
#     Edge 103, Type (0, 1), BuildingBlock: KIFKEQ_clean_linker_1, # of connection points: 2
#     Edge 104, Type (0, 1), BuildingBlock: KIFKEQ_clean_linker_1, # of connection points: 2
#     Edge 105, Type (0, 1), BuildingBlock: KIFKEQ_clean_linker_1, # of connection points: 2
#     Edge 106, Type (0, 1), BuildingBlock: KIFKEQ_clean_linker_1, # of connection points: 2
#     Edge 107, Type (0, 1), BuildingBlock: KIFKEQ_clean_linker_1, # of connection points: 2
#     Edge 108, Type (0, 1), BuildingBlock: KIFKEQ_clean_linker_1, # of connection points: 2
#     Edge 109, Type (0, 1), BuildingBlock: KIFKEQ_clean_linker_1, # of connection points: 2
#     Edge 110, Type (0, 1), BuildingBlock: KIFKEQ_clean_linker_1, # of connection points: 2
#     Edge 111, Type (0, 1), BuildingBlock: KIFKEQ_clean_linker_1, # of connection points: 2
#     Edge 112, Type (0, 1), BuildingBlock: KIFKEQ_clean_linker_1, # of connection points: 2
#     Edge 113, Type (0, 1), BuildingBlock: KIFKEQ_clean_linker_1, # of connection points: 2
#     Edge 114, Type (0, 1), BuildingBlock: KIFKEQ_clean_linker_1, # of connection points: 2
#     Edge 115, Type (0, 1), BuildingBlock: KIFKEQ_clean_linker_1, # of connection points: 2
#     Edge 116, Type (0, 1), BuildingBlock: KIFKEQ_clean_linker_1, # of connection points: 2
#     Edge 117, Type (0, 1), BuildingBlock: KIFKEQ_clean_linker_1, # of connection points: 2
#     Edge 118, Type (0, 1), BuildingBlock: KIFKEQ_clean_linker_1, # of connection points: 2
#     Edge 119, Type (0, 1), BuildingBlock: KIFKEQ_clean_linker_1, # of connection points: 2
#     Edge 120, Type (0, 1), BuildingBlock: KIFKEQ_clean_linker_1, # of connection points: 2
#     Edge 121, Type (0, 1), BuildingBlock: KIFKEQ_clean_linker_1, # of connection points: 2
#     Edge 122, Type (0, 1), BuildingBlock: KIFKEQ_clean_linker_1, # of connection points: 2
#     Edge 123, Type (0, 1), BuildingBlock: KIFKEQ_clean_linker_1, # of connection points: 2
#     Edge 124, Type (0, 1), BuildingBlock: KIFKEQ_clean_linker_1, # of connection points: 2
#     Edge 125, Type (0, 1), BuildingBlock: KIFKEQ_clean_linker_1, # of connection points: 2
#     Edge 126, Type (0, 1), BuildingBlock: KIFKEQ_clean_linker_1, # of connection points: 2
#     Edge 127, Type (0, 1), BuildingBlock: KIFKEQ_clean_linker_1, # of connection points: 2
#     Edge 128, Type (0, 1), BuildingBlock: KIFKEQ_clean_linker_1, # of connection points: 2
#     Edge 129, Type (0, 1), BuildingBlock: KIFKEQ_clean_linker_1, # of connection points: 2
#     Edge 130, Type (0, 1), BuildingBlock: KIFKEQ_clean_linker_1, # of connection points: 2
#     Edge 131, Type (0, 1), BuildingBlock: KIFKEQ_clean_linker_1, # of connection points: 2
#     Edge 132, Type (0, 1), BuildingBlock: KIFKEQ_clean_linker_1, # of connection points: 2
#     Edge 133, Type (0, 1), BuildingBlock: KIFKEQ_clean_linker_1, # of connection points: 2
#     Edge 134, Type (0, 1), BuildingBlock: KIFKEQ_clean_linker_1, # of connection points: 2
#     Edge 135, Type (0, 1), BuildingBlock: KIFKEQ_clean_linker_1, # of connection points: 2
# Relax obj value: 0.134
# Max RMSD: 0.318
# Mean RMSD: 0.177
data_MOF--net-gar--node1-NAHDIM_clean_sbu_0--node2-KUMBUR_clean_sbu_0--edge1-KIFKEQ_clean_linker_1
_symmetry_space_group_name_H-M    P1
_symmetry_Int_Tables_number       1
_symmetry_cell_setting            triclinic
loop_
_symmetry_equiv_pos_as_xyz
'x, y, z'
_cell_length_a     62.651826
_cell_length_b     56.651959
_cell_length_c     55.588012
_cell_angle_alpha  100.77905
_cell_angle_beta   93.734972
_cell_angle_gamma 102.49255
loop_
_atom_site_label
_atom_site_type_symbol
_atom_site_fract_x
_atom_site_fract_y
_atom_site_fract_z
_atom_type_partial_charge
C0 C 0.15846 0.32258 0.37882 0.0
O1 O 0.15997 0.33004 0.40285 0.0
O2 O 0.11026 0.29242 0.40959 0.0
Zn3 Zn 0.11268 0.31443 0.38447 0.0
O4 O 0.11422 0.34914 0.40192 0.0
C5 C 0.06683 0.3016 0.36738 0.0
O6 O 0.0652 0.30229 0.39093 0.0
O7 O 0.13955 0.31428 0.36675 0.0
C8 C 0.10812 0.36472 0.39096 0.0
O9 O 0.10205 0.35852 0.36712 0.0
C10 C 0.10513 0.30034 0.43091 0.0
O11 O 0.10156 0.32264 0.43618 0.0
O12 O 0.08578 0.3048 0.35991 0.0
C13 C 0.98225 0.76585 0.70738 0.0
O14 O 0.9895 0.74581 0.70778 0.0
O15 O 0.02502 0.75006 0.66967 0.0
Zn16 Zn 0.02403 0.78338 0.689 0.0
O17 O 0.03097 0.80743 0.66656 0.0
C18 C 0.06744 0.79489 0.71179 0.0
O19 O 0.07088 0.79757 0.68929 0.0
O20 O 0.99432 0.78393 0.70051 0.0
C21 C 0.03906 0.8305 0.6736 0.0
O22 O 0.0432 0.84021 0.69728 0.0
C23 C 1.00987 0.73435 0.65514 0.0
O24 O 0.99043 0.73913 0.65164 0.0
O25 O 0.04779 0.79012 0.71722 0.0
C26 C 0.65956 0.83597 0.87374 0.0
O27 O 0.65986 0.84846 0.89625 0.0
O28 O 0.61548 0.79112 0.90505 0.0
Zn29 Zn 0.6155 0.81478 0.88193 0.0
O30 O 0.61396 0.84753 0.90187 0.0
C31 C 0.56972 0.79949 0.86647 0.0
O32 O 0.56942 0.80043 0.89025 0.0
O33 O 0.64239 0.81965 0.86385 0.0
C34 C 0.60514 0.86236 0.8925 0.0
O35 O 0.59743 0.85645 0.86908 0.0
C36 C 0.62177 0.79955 0.92788 0.0
O37 O 0.62987 0.82339 0.93565 0.0
O38 O 0.58817 0.80357 0.85788 0.0
C39 C 0.47614 0.27237 0.19249 0.0
O40 O 0.47668 0.26765 0.16851 0.0
O41 O 0.51996 0.2489 0.16822 0.0
Zn42 Zn 0.52179 0.28197 0.18992 0.0
O43 O 0.5256 0.30769 0.1689 0.0
C44 C 0.56513 0.28279 0.20251 0.0
O45 O 0.56351 0.28013 0.17842 0.0
O46 O 0.49416 0.27987 0.20648 0.0
C47 C 0.53873 0.32887 0.17477 0.0
O48 O 0.55008 0.33575 0.19664 0.0
C49 C 0.51923 0.24515 0.14491 0.0
O50 O 0.51763 0.26317 0.13358 0.0
O51 O 0.54868 0.28649 0.21363 0.0
C52 C 0.06058 0.81512 0.14378 0.0
O53 O 0.05586 0.80207 0.12115 0.0
O54 O 0.0954 0.79118 0.1046 0.0
Zn55 Zn 0.104 0.8272 0.12633 0.0
O56 O 0.10376 0.85779 0.10861 0.0
C57 C 0.13913 0.8126 0.1548 0.0
O58 O 0.12383 0.79195 0.15071 0.0
O59 O 0.08025 0.82778 0.15065 0.0
C60 C 0.09013 0.85946 0.09104 0.0
O61 O 0.07483 0.83971 0.08068 0.0
C62 C 0.10758 0.77893 0.09248 0.0
O63 O 0.12778 0.79029 0.09032 0.0
O64 O 0.13478 0.83091 0.14656 0.0
C65 C 0.57317 0.77354 0.40911 0.0
O66 O 0.57777 0.76909 0.43099 0.0
O67 O 0.53359 0.73988 0.44217 0.0
Zn68 Zn 0.52932 0.77051 0.4262 0.0
O69 O 0.53429 0.80514 0.45012 0.0
C70 C 0.48233 0.77212 0.41275 0.0
O71 O 0.48359 0.78156 0.43641 0.0
O72 O 0.55357 0.77489 0.40279 0.0
C73 C 0.53012 0.82231 0.43982 0.0
O74 O 0.52342 0.81664 0.41612 0.0
C75 C 0.52708 0.73202 0.4613 0.0
O76 O 0.51488 0.74397 0.47495 0.0
O77 O 0.49892 0.76476 0.4045 0.0
C78 C 0.55771 0.31786 0.64423 0.0
O79 O 0.55213 0.31851 0.62121 0.0
O80 O 0.59223 0.28208 0.60548 0.0
Zn81 Zn 0.6005 0.31864 0.62568 0.0
O82 O 0.59654 0.34814 0.60775 0.0
C83 C 0.64541 0.31115 0.63915 0.0
O84 O 0.64126 0.29644 0.61731 0.0
O85 O 0.57767 0.31815 0.65085 0.0
C86 C 0.6052 0.35719 0.59016 0.0
O87 O 0.61992 0.34709 0.57914 0.0
C88 C 0.59778 0.27076 0.58558 0.0
O89 O 0.61029 0.28359 0.57223 0.0
O90 O 0.63136 0.32367 0.64618 0.0
C91 C 0.07415 0.28081 0.91168 0.0
O92 O 0.07873 0.27704 0.93385 0.0
O93 O 0.03397 0.24743 0.94416 0.0
Zn94 Zn 0.03023 0.2781 0.92821 0.0
O95 O 0.03548 0.31271 0.95219 0.0
C96 C 0.98427 0.28184 0.91298 0.0
O97 O 0.9857 0.29337 0.93605 0.0
O98 O 0.05458 0.28198 0.90506 0.0
C99 C 0.03249 0.33031 0.94185 0.0
O100 O 0.02671 0.3251 0.91796 0.0
C101 C 0.0263 0.23891 0.96247 0.0
O102 O 0.01305 0.25014 0.97512 0.0
O103 O 1.00028 0.27253 0.90592 0.0
C104 C 0.41804 0.10491 0.29162 0.0
O105 O 0.4394 0.1127 0.29754 0.0
O106 O 0.44581 0.05419 0.28105 0.0
Zn107 Zn 0.42603 0.0618 0.30657 0.0
O108 O 0.44593 0.07784 0.33761 0.0
C109 C 0.39164 0.01755 0.29357 0.0
O110 O 0.38756 0.02721 0.27453 0.0
O111 O 0.40839 0.08384 0.29505 0.0
C112 C 0.43984 0.07791 0.35893 0.0
O113 O 0.41897 0.06938 0.36106 0.0
C114 C 0.46132 0.04409 0.28604 0.0
O115 O 0.46347 0.03803 0.30761 0.0
O116 O 0.40696 0.0296 0.31029 0.0
C117 C 0.34674 0.17131 0.51659 0.0
O118 O 0.35481 0.19283 0.51113 0.0
O119 O 0.3056 0.21 0.54874 0.0
Zn120 Zn 0.30528 0.18751 0.51552 0.0
O121 O 0.3124 0.20548 0.48747 0.0
C122 C 0.25832 0.17466 0.51498 0.0
O123 O 0.2623 0.19783 0.52666 0.0
O124 O 0.32636 0.16531 0.51916 0.0
C125 C 0.30537 0.22425 0.48423 0.0
O126 O 0.2936 0.23376 0.50048 0.0
C127 C 0.31817 0.23059 0.5595 0.0
O128 O 0.33455 0.24091 0.54849 0.0
O129 O 0.27429 0.16581 0.50747 0.0
C130 C 0.21065 0.96826 0.7566 0.0
O131 O 0.19948 0.96454 0.73486 0.0
O132 O 0.16768 0.01551 0.73798 0.0
Zn133 Zn 0.1892 0.01778 0.77317 0.0
O134 O 0.16922 0.01769 0.80585 0.0
C135 C 0.20505 0.07366 0.77548 0.0
O136 O 0.18385 0.07087 0.76971 0.0
O137 O 0.2088 0.98736 0.77292 0.0
C138 C 0.16965 0.03575 0.8243 0.0
O139 O 0.18301 0.05706 0.82416 0.0
C140 C 0.17422 0.02146 0.71772 0.0
O141 O 0.19555 0.02805 0.71693 0.0
O142 O 0.21174 0.05426 0.77836 0.0
C143 C 0.29133 0.98217 0.02873 0.0
O144 O 0.28182 0.9585 0.02264 0.0
O145 O 0.33057 0.94387 0.04656 0.0
Zn146 Zn 0.33026 0.96425 0.02081 0.0
O147 O 0.32131 0.9409 0.98815 0.0
C148 C 0.37349 0.9944 0.03867 0.0
O149 O 0.36496 0.99911 0.05952 0.0
O150 O 0.31198 0.98902 0.02862 0.0
C151 C 0.33295 0.92497 0.9849 0.0
O152 O 0.34824 0.92549 1.00247 0.0
C153 C 0.31686 0.92332 0.04463 0.0
O154 O 0.30044 0.9166 0.02698 0.0
O155 O 0.36131 0.98114 0.01974 0.0
C156 C 0.2886 0.42616 0.04252 0.0
O157 O 0.28036 0.40464 0.04789 0.0
O158 O 0.32279 0.39248 0.07277 0.0
Zn159 Zn 0.33009 0.40992 0.04423 0.0
O160 O 0.33013 0.38729 0.01103 0.0
C161 C 0.37718 0.42183 0.04864 0.0
O162 O 0.37327 0.39771 0.04138 0.0
O163 O 0.30904 0.43208 0.04018 0.0
C164 C 0.31653 0.36768 0.99959 0.0
O165 O 0.29918 0.35861 0.00992 0.0
C166 C 0.32828 0.37281 0.07591 0.0
O167 O 0.33863 0.36159 0.05917 0.0
O168 O 0.36098 0.43181 0.05209 0.0
C169 C 0.83877 0.13623 0.00855 0.0
O170 O 0.84698 0.15956 0.01895 0.0
O171 O 0.80286 0.17393 0.04122 0.0
Zn172 Zn 0.79697 0.15087 1.00733 0.0
O173 O 0.79608 0.17015 0.98034 0.0
C174 C 0.75899 0.11296 0.0153 0.0
O175 O 0.77206 0.10748 0.03179 0.0
O176 O 0.8182 0.12881 1.00222 0.0
C177 C 0.77974 0.1801 0.97959 0.0
O178 O 0.76659 0.17875 0.99698 0.0
C179 C 0.78671 0.17737 0.05313 0.0
O180 O 0.76666 0.16586 0.04335 0.0
O181 O 0.76666 0.12939 1.00344 0.0
C182 C 0.21922 0.49734 0.27198 0.0
O183 O 0.19767 0.49206 0.27101 0.0
O184 O 0.1925 0.5311 0.2258 0.0
Zn185 Zn 0.2124 0.54147 0.25793 0.0
O186 O 0.19228 0.54645 0.28421 0.0
C187 C 0.23786 0.58318 0.24028 0.0
O188 O 0.22873 0.57081 0.21831 0.0
O189 O 0.22901 0.51687 0.26553 0.0
C190 C 0.19225 0.56748 0.29709 0.0
O191 O 0.20716 0.58696 0.29488 0.0
C192 C 0.18019 0.54607 0.2244 0.0
O193 O 0.18266 0.56547 0.24238 0.0
O194 O 0.23377 0.57381 0.259 0.0
C195 C 0.78951 0.92604 0.5415 0.0
O196 O 0.78131 0.90366 0.54488 0.0
O197 O 0.82446 0.89336 0.57158 0.0
Zn198 Zn 0.83005 0.9089 0.54152 0.0
O199 O 0.82338 0.8844 0.50839 0.0
C200 C 0.87828 0.92116 0.55148 0.0
O201 O 0.87526 0.89933 0.55725 0.0
O202 O 0.81005 0.93263 0.53996 0.0
C203 C 0.83571 0.87115 0.49829 0.0
O204 O 0.85435 0.87105 0.51046 0.0
C205 C 0.82779 0.87256 0.57423 0.0
O206 O 0.83495 0.85892 0.55616 0.0
O207 O 0.86166 0.9289 0.54484 0.0
C208 C 0.92348 0.12611 0.26729 0.0
O209 O 0.93685 0.12616 0.25003 0.0
O210 O 0.95967 0.07623 0.24266 0.0
Zn211 Zn 0.9424 0.07843 0.2771 0.0
O212 O 0.96305 0.08078 0.31282 0.0
C213 C 0.91713 0.0289 0.28864 0.0
O214 O 0.92679 0.0393 0.31094 0.0
O215 O 0.92299 0.10905 0.28024 0.0
C216 C 0.97666 0.06751 0.31776 0.0
O217 O 0.98076 0.05155 0.29929 0.0
C218 C 0.97921 0.08599 0.23783 0.0
O219 O 0.99286 0.10069 0.25618 0.0
O220 O 0.92016 0.04176 0.27177 0.0
C221 C 0.33445 0.61432 0.51312 0.0
O222 O 0.34215 0.63839 0.51791 0.0
O223 O 0.30114 0.65152 0.5529 0.0
Zn224 Zn 0.29322 0.62774 0.52017 0.0
O225 O 0.29296 0.6494 0.49536 0.0
C226 C 0.25386 0.60436 0.53903 0.0
O227 O 0.26579 0.61216 0.56052 0.0
O228 O 0.31403 0.60563 0.51332 0.0
C229 C 0.27497 0.65102 0.48455 0.0
O230 O 0.25653 0.63599 0.4872 0.0
C231 C 0.28742 0.66488 0.55767 0.0
O232 O 0.27018 0.66189 0.54167 0.0
O233 O 0.26269 0.60737 0.51957 0.0
C234 C 0.42369 0.62499 0.76475 0.0
O235 O 0.43497 0.62298 0.74566 0.0
O236 O 0.46078 0.57457 0.74169 0.0
Zn237 Zn 0.44364 0.57813 0.77639 0.0
O238 O 0.46383 0.58003 0.81243 0.0
C239 C 0.42693 0.5222 0.77159 0.0
O240 O 0.44807 0.52368 0.77077 0.0
O241 O 0.42479 0.60948 0.77922 0.0
C242 C 0.4796 0.56946 0.81738 0.0
O243 O 0.48711 0.5572 0.79863 0.0
C244 C 0.4808 0.58275 0.73713 0.0
O245 O 0.49492 0.59605 0.75578 0.0
O246 O 0.42035 0.54245 0.7731 0.0
C247 C 0.7216 0.99729 0.77051 0.0
O248 O 0.70086 0.99357 0.77469 0.0
O249 O 0.69586 0.02537 0.71538 0.0
Zn250 Zn 0.71101 0.03694 0.74996 0.0
O251 O 0.68754 0.0395 0.77267 0.0
C252 C 0.71997 0.08796 0.74958 0.0
O253 O 0.69883 0.08156 0.74195 0.0
O254 O 0.72941 0.01442 0.75946 0.0
C255 C 0.69008 0.05671 0.79162 0.0
O256 O 0.70921 0.07254 0.7979 0.0
C257 C 0.67607 1.01278 0.71174 0.0
O258 O 0.66672 1.00532 0.73034 0.0
O259 O 0.72973 0.07132 0.75343 0.0
C260 C 0.84499 0.67161 0.01186 0.0
O261 O 0.85316 0.69442 0.00967 0.0
O262 O 0.81256 0.71401 0.0454 0.0
Zn263 Zn 0.80454 0.68881 0.01304 0.0
O264 O 0.80702 0.70368 0.9824 0.0
C265 C 0.76524 0.64795 1.00283 0.0
O266 O 0.77858 0.63493 0.99284 0.0
O267 O 0.82443 0.66474 0.01314 0.0
C268 C 0.81748 0.72526 0.98116 0.0
O269 O 0.82826 0.74027 1.00126 0.0
C270 C 0.79989 0.72712 0.05489 0.0
O271 O 0.7812 0.72636 0.04224 0.0
O272 O 0.77276 0.67074 0.01235 0.0
C273 C 0.90643 0.58078 0.77486 0.0
O274 O 0.9239 0.58204 0.76289 0.0
O275 O 0.95196 0.55505 0.78097 0.0
Zn276 Zn 0.92826 0.55341 0.80327 0.0
O277 O 0.94356 0.56901 0.83693 0.0
C278 C 0.90762 0.50495 0.77918 0.0
O279 O 0.91034 0.51595 0.76041 0.0
O280 O 0.90522 0.57021 0.79313 0.0
C281 C 0.938 0.56093 0.85593 0.0
O282 O 0.91988 0.54362 0.85407 0.0
C283 C 0.96867 0.5474 0.78732 0.0
O284 O 0.96929 0.5387 0.80761 0.0
O285 O 0.91415 0.51759 0.80082 0.0
C286 C 0.78909 0.45291 0.5432 0.0
O287 O 0.77965 0.42949 0.53456 0.0
O288 O 0.83453 0.41971 0.56815 0.0
Zn289 Zn 0.82932 0.43559 0.53946 0.0
O290 O 0.81823 0.4094 0.50889 0.0
C291 C 0.86759 0.47607 0.53971 0.0
O292 O 0.85743 0.49039 0.55379 0.0
O293 O 0.80993 0.45956 0.54675 0.0
C294 C 0.8155 0.41657 0.48882 0.0
O295 O 0.81704 0.4402 0.48957 0.0
C296 C 0.84849 0.43152 0.58639 0.0
O297 O 0.85826 0.45463 0.58697 0.0
O298 O 0.85857 0.45331 0.53219 0.0
C299 C 0.71195 0.46868 0.2573 0.0
O300 O 0.70251 0.46621 0.23488 0.0
O301 O 0.67055 0.51419 0.23581 0.0
Zn302 Zn 0.69022 0.51768 0.2726 0.0
O303 O 0.6723 0.52198 0.30665 0.0
C304 C 0.70721 0.57394 0.27974 0.0
O305 O 0.6864 0.57274 0.28268 0.0
O306 O 0.70914 0.48707 0.27385 0.0
C307 C 0.65445 0.50917 0.31281 0.0
O308 O 0.64336 0.48988 0.29639 0.0
C309 C 0.656 0.52611 0.23019 0.0
O310 O 0.65006 0.54081 0.24841 0.0
O311 O 0.71344 0.55341 0.27597 0.0
Tb312 Tb 0.04165 0.03096 0.01025 0.0
C313 C 0.09687 0.12519 0.07668 0.0
C314 C 0.10084 0.15553 0.05101 0.0
C315 C 0.10163 0.16865 0.0953 0.0
C316 C 0.09733 0.13074 0.05367 0.0
C317 C 0.09964 0.1441 0.09789 0.0
C318 C 0.10225 0.17437 0.07186 0.0
C319 C 0.10105 0.11353 0.12255 0.0
N320 N 0.09541 0.10136 0.07833 0.0
C321 C 0.09846 0.09548 0.10095 0.0
C322 C 0.10128 0.13789 0.12103 0.0
Tb323 Tb 0.09037 0.07272 0.04193 0.0
N324 N 0.09634 0.11203 0.03415 0.0
C325 C 0.10103 0.11734 0.01174 0.0
C326 C 0.1039 0.16075 0.0277 0.0
C327 C 0.10444 0.1416 1.00809 0.0
H328 H 0.09819 0.07671 0.10245 0.0
H329 H 0.10739 0.14548 0.9901 0.0
H330 H 0.10464 0.19348 0.07016 0.0
H331 H 0.10284 0.10861 0.14035 0.0
H332 H 0.10143 0.10293 0.99623 0.0
H333 H 0.02467 0.95751 0.06135 0.0
H334 H 0.10661 0.17952 0.02485 0.0
H335 H 0.03226 0.02763 0.94994 0.0
H336 H 0.03124 1.00021 0.05582 0.0
H337 H 0.02631 0.99608 0.91172 0.0
H338 H 0.10353 0.18343 0.11135 0.0
H339 H 0.02386 0.92353 0.02593 0.0
H340 H 0.02444 0.90987 0.98032 0.0
H341 H 0.10342 0.15187 0.13778 0.0
H342 H 0.02482 0.92041 0.93931 0.0
N343 N 0.03509 0.99136 0.01749 0.0
C344 C 0.03095 0.98589 0.03998 0.0
C345 C 0.02681 0.94239 0.02332 0.0
C346 C 0.02933 0.94781 1.00001 0.0
C347 C 0.02717 0.9615 0.04331 0.0
C348 C 0.0332 0.97272 0.99768 0.0
H349 H 0.02498 0.95249 0.91349 0.0
N350 N 0.03518 1.00254 0.97357 0.0
C351 C 0.0284 0.99089 0.92935 0.0
C352 C 0.03329 0.97855 0.97481 0.0
C353 C 0.03177 1.00877 0.95118 0.0
C354 C 0.02774 0.96633 0.93041 0.0
C355 C 0.02972 0.95979 0.95336 0.0
O356 O 0.01466 0.04101 0.99375 0.0
O357 O 0.0588 0.06971 0.02236 0.0
O358 O 0.06399 0.07842 0.06596 0.0
O359 O 0.03825 0.04144 0.05087 0.0
O360 O 0.04327 0.05868 0.98738 0.0
O361 O 0.01118 0.02289 0.02445 0.0
O362 O 0.1181 0.06611 0.06065 0.0
O363 O 0.07337 0.03394 0.0298 0.0
O364 O 0.06755 0.02549 0.98513 0.0
O365 O 0.0944 0.06141 1.00165 0.0
O366 O 0.08956 0.04478 0.06447 0.0
O367 O 0.12061 0.08045 0.0274 0.0
C368 C 0.0544 0.0776 1.00305 0.0
C369 C 0.97916 0.01883 0.99743 0.0
C370 C 0.9414 0.02096 0.9865 0.0
C371 C 0.9631 0.03246 0.99666 0.0
C372 C 0.93593 0.99531 0.97721 0.0
C373 C 0.97366 0.99331 0.98786 0.0
C374 C 0.95204 0.98162 0.97782 0.0
C375 C 0.04615 0.06169 0.06849 0.0
C376 C 1.00135 0.03219 0.00849 0.0
C377 C 0.02732 0.93508 0.95554 0.0
C378 C 0.02712 0.92908 0.97888 0.0
C379 C 0.07825 0.0259 0.04889 0.0
C380 C 0.15227 0.09105 0.05616 0.0
C381 C 0.17025 0.08058 0.05898 0.0
C382 C 0.19124 0.09547 0.06785 0.0
C383 C 0.1941 0.12122 0.07412 0.0
C384 C 0.15512 0.11677 0.06275 0.0
C385 C 0.176 0.13177 0.07179 0.0
C386 C 0.08606 0.04179 0.98342 0.0
C387 C 0.13116 0.07443 0.04537 0.0
H388 H 0.96749 0.05215 1.0044 0.0
H389 H 0.91933 0.98593 0.96926 0.0
H390 H 0.98596 0.98253 0.98825 0.0
H391 H 0.94775 0.96191 0.97048 0.0
H392 H 0.168 0.0607 0.05346 0.0
H393 H 0.21022 0.13307 0.0808 0.0
H394 H 0.14139 0.12521 0.06063 0.0
H395 H 0.17821 0.15162 0.07672 0.0
Tb396 Tb 0.32836 0.78794 0.2501 0.0
C397 C 0.28417 0.85807 0.31817 0.0
C398 C 0.31304 0.89418 0.3359 0.0
C399 C 0.2752 0.89795 0.3305 0.0
C400 C 0.3061 0.86874 0.32531 0.0
C401 C 0.26834 0.87237 0.32116 0.0
C402 C 0.29755 0.90884 0.33787 0.0
C403 C 0.24013 0.83473 0.30776 0.0
N404 N 0.27827 0.83333 0.30955 0.0
C405 C 0.25647 0.82136 0.30531 0.0
C406 C 0.24609 0.86041 0.31541 0.0
Tb407 Tb 0.30615 0.81291 0.30556 0.0
N408 N 0.32044 0.85386 0.32325 0.0
C409 C 0.34183 0.86303 0.3334 0.0
C410 C 0.33518 0.9039 0.34489 0.0
C411 C 0.34956 0.88815 0.34401 0.0
H412 H 0.25164 0.80153 0.29926 0.0
H413 H 0.36664 0.89536 0.35137 0.0
H414 H 0.30258 0.92847 0.34569 0.0
H415 H 0.22295 0.82522 0.30374 0.0
H416 H 0.35327 0.85127 0.3328 0.0
H417 H 0.26933 0.70621 0.19991 0.0
H418 H 0.34122 0.92335 0.35309 0.0
H419 H 0.38289 0.79946 0.25871 0.0
H420 H 0.28202 0.74981 0.22035 0.0
H421 H 0.41174 0.77601 0.2548 0.0
H422 H 0.26332 0.90932 0.33273 0.0
H423 H 0.29483 0.67834 0.19846 0.0
H424 H 0.3332 0.67314 0.2075 0.0
H425 H 0.2334 0.87072 0.31742 0.0
H426 H 0.37212 0.69219 0.22252 0.0
N427 N 0.31458 0.74719 0.23115 0.0
C428 C 0.29353 0.73816 0.21991 0.0
C429 C 0.30058 0.6976 0.20748 0.0
C430 C 0.32242 0.70718 0.21774 0.0
C431 C 0.28618 0.71329 0.20821 0.0
C432 C 0.32901 0.73239 0.22929 0.0
H433 H 0.40165 0.73067 0.23979 0.0
N434 N 0.35643 0.76768 0.24673 0.0
C435 C 0.39463 0.76646 0.24994 0.0
C436 C 0.35076 0.74303 0.23747 0.0
C437 C 0.37818 0.77971 0.25205 0.0
C438 C 0.38887 0.74087 0.24156 0.0
C439 C 0.36673 0.72888 0.23475 0.0
O440 O 0.34795 0.80662 0.22706 0.0
O441 O 0.32442 0.81998 0.27541 0.0
O442 O 0.2881 0.82194 0.27443 0.0
O443 O 0.29393 0.79178 0.2422 0.0
O444 O 0.35392 0.82234 0.26155 0.0
O445 O 0.31411 0.78745 0.21475 0.0
O446 O 0.28746 0.79291 0.32833 0.0
O447 O 0.30997 0.78104 0.28009 0.0
O448 O 0.34527 0.77771 0.28128 0.0
O449 O 0.3403 0.80835 0.31343 0.0
O450 O 0.28059 0.77839 0.29449 0.0
O451 O 0.31995 0.81576 0.34173 0.0
C452 C 0.34276 0.83439 0.27559 0.0
C453 C 0.33841 0.79149 0.18445 0.0
C454 C 0.3444 0.80013 0.14388 0.0
C455 C 0.33898 0.80717 0.16783 0.0
C456 C 0.34906 0.77682 0.13661 0.0
C457 C 0.34331 0.76837 0.17725 0.0
C458 C 0.3486 0.76108 0.15333 0.0
C459 C 0.28283 0.80835 0.2517 0.0
C460 C 0.33227 0.80006 0.20891 0.0
C461 C 0.36014 0.70345 0.22456 0.0
C462 C 0.338 0.69261 0.21603 0.0
C463 C 0.2917 0.76658 0.2801 0.0
C464 C 0.29443 0.80951 0.37078 0.0
C465 C 0.28763 0.79152 0.38447 0.0
C466 C 0.28045 0.79774 0.40765 0.0
C467 C 0.28011 0.82242 0.41713 0.0
C468 C 0.29376 0.83409 0.38007 0.0
C469 C 0.28657 0.84047 0.40322 0.0
C470 C 0.35076 0.79114 0.30405 0.0
C471 C 0.30239 0.8016 0.34713 0.0
H472 H 0.33475 0.82483 0.17349 0.0
H473 H 0.3532 0.77093 0.11817 0.0
H474 H 0.34293 0.75601 0.18993 0.0
H475 H 0.35232 0.74319 0.14773 0.0
H476 H 0.2885 0.77261 0.37728 0.0
H477 H 0.27481 0.82766 0.43511 0.0
H478 H 0.29891 0.84826 0.36963 0.0
H479 H 0.28617 0.85946 0.41048 0.0
Tb480 Tb 0.5923 0.05409 0.51491 0.0
C481 C 0.52319 0.99508 0.56886 0.0
C482 C 0.50454 0.95803 0.53954 0.0
C483 C 0.5078 0.9577 0.58328 0.0
C484 C 0.51633 0.98294 0.54488 0.0
C485 C 0.51878 0.98278 0.58845 0.0
C486 C 0.50068 0.94533 0.55884 0.0
C487 C 0.5351 0.02138 0.61669 0.0
N488 N 0.53358 0.0193 0.573 0.0
C489 C 0.53897 0.03277 0.59661 0.0
C490 C 0.52513 0.99621 0.6126 0.0
Tb491 Tb 0.54004 0.03619 0.53896 0.0
N492 N 0.52031 0.99595 0.52687 0.0
C493 C 0.51143 0.98547 0.50311 0.0
C494 C 0.4965 0.94687 0.51507 0.0
C495 C 0.49972 0.96077 0.49683 0.0
H496 H 0.54686 0.05217 0.60009 0.0
H497 H 0.49327 0.95245 0.47788 0.0
H498 H 0.49181 0.92613 0.55511 0.0
H499 H 0.53983 0.03202 0.6353 0.0
H500 H 0.51378 0.99576 0.48866 0.0
H501 H 0.63676 0.13773 0.57785 0.0
H502 H 0.48742 0.92775 0.51016 0.0
H503 H 0.58675 0.03916 0.45382 0.0
H504 H 0.61722 0.09409 0.56604 0.0
H505 H 0.59387 0.06021 0.41917 0.0
H506 H 0.50437 0.94785 0.59805 0.0
H507 H 0.64256 0.16326 0.54624 0.0
H508 H 0.63872 0.16571 0.50146 0.0
H509 H 0.52208 0.98745 0.62817 0.0
H510 H 0.62716 0.14455 0.45817 0.0
N511 N 0.61133 0.09451 0.5279 0.0
C512 C 0.61963 0.10474 0.55188 0.0
C513 C 0.63397 0.14399 0.54087 0.0
C514 C 0.62652 0.13311 0.5162 0.0
C515 C 0.63076 0.12963 0.55874 0.0
C516 C 0.61531 0.108 0.51027 0.0
H517 H 0.61064 0.10509 0.42725 0.0
N518 N 0.59903 0.07183 0.48145 0.0
C519 C 0.59814 0.07059 0.43793 0.0
C520 C 0.60892 0.09621 0.48612 0.0
C521 C 0.59422 0.0587 0.45766 0.0
C522 C 0.60756 0.09593 0.44256 0.0
C523 C 0.61334 0.10902 0.46691 0.0
O524 O 0.6131 0.03349 0.49703 0.0
O525 O 0.56602 0.02422 0.51993 0.0
O526 O 0.56466 0.02348 0.55961 0.0
O527 O 0.59558 0.05242 0.55428 0.0
O528 O 0.58082 0.01848 0.48862 0.0
O529 O 0.62178 0.05324 0.53469 0.0
O530 O 0.51991 0.05789 0.55656 0.0
O531 O 0.56622 0.06596 0.53355 0.0
O532 O 0.56728 0.06592 0.49363 0.0
O533 O 0.53682 0.03672 0.49947 0.0
O534 O 0.55208 0.07199 0.56506 0.0
O535 O 0.5104 0.03697 0.51946 0.0
C536 C 0.56612 1.00815 0.50081 0.0
C537 C 0.65097 0.04632 0.51173 0.0
C538 C 0.68753 0.03745 0.51304 0.0
C539 C 0.66506 0.03109 0.51644 0.0
C540 C 0.69559 0.05939 0.50479 0.0
C541 C 0.65932 0.06803 0.50347 0.0
C542 C 0.68155 0.07449 0.50002 0.0
C543 C 0.58545 0.03553 0.56594 0.0
C544 C 0.62779 0.03937 0.51617 0.0
C545 C 0.62375 0.13429 0.47264 0.0
C546 C 0.63033 0.14633 0.49728 0.0
C547 C 0.56654 0.08225 0.55257 0.0
C548 C 0.48189 0.04573 0.54276 0.0
C549 C 0.46832 0.06164 0.53846 0.0
C550 C 0.446 0.05629 0.54266 0.0
C551 C 0.43755 0.03466 0.55126 0.0
C552 C 0.47316 0.02433 0.55137 0.0
C553 C 0.45107 0.01887 0.55559 0.0
C554 C 0.54644 0.05376 0.48774 0.0
C555 C 0.50495 0.05172 0.53768 0.0
H556 H 0.65857 0.01448 0.52315 0.0
H557 H 0.7127 0.06472 0.5017 0.0
H558 H 0.64871 0.07997 0.49977 0.0
H559 H 0.68793 0.09127 0.4936 0.0
H560 H 0.47511 0.078 0.53149 0.0
H561 H 0.42056 0.0301 0.55499 0.0
H562 H 0.48336 1.01189 0.55476 0.0
H563 H 0.44438 1.00234 0.56229 0.0
Tb564 Tb 0.29035 0.30656 0.77225 0.0
C565 C 0.35695 0.26432 0.82661 0.0
C566 C 0.36977 0.29473 0.86426 0.0
C567 C 0.36888 0.25152 0.86362 0.0
C568 C 0.36095 0.28834 0.83928 0.0
C569 C 0.3615 0.24566 0.83834 0.0
C570 C 0.373 0.27607 0.87659 0.0
C571 C 0.35388 0.21775 0.79864 0.0
N572 N 0.35033 0.25967 0.80219 0.0
C573 C 0.34971 0.23697 0.78788 0.0
C574 C 0.35943 0.222 0.82407 0.0
Tb575 Tb 0.34276 0.29186 0.78608 0.0
N576 N 0.35802 0.30574 0.82647 0.0
C577 C 0.36575 0.33024 0.8371 0.0
C578 C 0.37603 0.31972 0.87571 0.0
C579 C 0.37445 0.33756 0.8619 0.0
H580 H 0.34527 0.2334 0.76822 0.0
H581 H 0.37983 0.35699 0.87036 0.0
H582 H 0.37948 0.28055 0.89587 0.0
H583 H 0.35277 0.19968 0.78732 0.0
H584 H 0.36459 0.34443 0.82697 0.0
H585 H 0.25358 0.24285 0.68703 0.0
H586 H 0.38283 0.32543 0.89488 0.0
H587 H 0.288 0.36501 0.79118 0.0
H588 H 0.26866 0.25461 0.73048 0.0
H589 H 0.28051 0.39915 0.77284 0.0
H590 H 0.37221 0.23741 0.87307 0.0
H591 H 0.25065 0.27502 0.66326 0.0
H592 H 0.25397 0.32008 0.6632 0.0
H593 H 0.36278 0.20713 0.83235 0.0
H594 H 0.26117 0.36292 0.68676 0.0
N595 N 0.27523 0.29343 0.73177 0.0
C596 C 0.26753 0.26905 0.72068 0.0
C597 C 0.25738 0.28038 0.68246 0.0
C598 C 0.26361 0.30523 0.69437 0.0
C599 C 0.25892 0.26219 0.69584 0.0
C600 C 0.27235 0.31115 0.71937 0.0
H601 H 0.27051 0.39251 0.72788 0.0
N602 N 0.28293 0.33923 0.75687 0.0
C603 C 0.2794 0.38123 0.76122 0.0
C604 C 0.27633 0.33502 0.73246 0.0
C605 C 0.28359 0.36175 0.77155 0.0
C606 C 0.27386 0.37744 0.73583 0.0
C607 C 0.27181 0.35397 0.72116 0.0
O608 O 0.26866 0.31831 0.79694 0.0
O609 O 0.31432 0.30263 0.80027 0.0
O610 O 0.3171 0.26088 0.79366 0.0
O611 O 0.28604 0.26611 0.77151 0.0
O612 O 0.3001 0.33213 0.80772 0.0
O613 O 0.25931 0.28301 0.7723 0.0
O614 O 0.36456 0.2796 0.7618 0.0
O615 O 0.31876 0.29564 0.75818 0.0
O616 O 0.3158 0.33711 0.7639 0.0
O617 O 0.34696 0.33225 0.78615 0.0
O618 O 0.33315 0.26627 0.75062 0.0
O619 O 0.37355 0.31557 0.78523 0.0
C620 C 0.31366 0.32115 0.81662 0.0
C621 C 0.23069 0.30252 0.78409 0.0
C622 C 0.19351 0.30165 0.79614 0.0
C623 C 0.21505 0.29845 0.80097 0.0
C624 C 0.18815 0.30935 0.77432 0.0
C625 C 0.22477 0.31006 0.76249 0.0
C626 C 0.20366 0.31351 0.75772 0.0
C627 C 0.29641 0.25238 0.78302 0.0
C628 C 0.253 0.29862 0.78902 0.0
C629 C 0.26449 0.34858 0.69588 0.0
C630 C 0.2604 0.3242 0.68247 0.0
C631 C 0.31951 0.2772 0.74178 0.0
C632 C 0.40254 0.29646 0.77396 0.0
C633 C 0.41802 0.30066 0.75693 0.0
C634 C 0.43983 0.2983 0.76186 0.0
C635 C 0.44563 0.29133 0.78396 0.0
C636 C 0.40887 0.2896 0.7958 0.0
C637 C 0.43027 0.287 0.8007 0.0
C638 C 0.33653 0.3457 0.7743 0.0
C639 C 0.37997 0.29964 0.76896 0.0
H640 H 0.21955 0.29239 0.81757 0.0
H641 H 0.17197 0.31245 0.77016 0.0
H642 H 0.23643 0.3132 0.74928 0.0
H643 H 0.19926 0.31943 0.74103 0.0
H644 H 0.4132 0.30618 0.74013 0.0
H645 H 0.46203 0.2889 0.78822 0.0
H646 H 0.39731 0.28634 0.80911 0.0
H647 H 0.43499 0.28162 0.81758 0.0
Tb648 Tb 0.06167 0.07109 0.53976 0.0
C649 C 0.09043 1.00995 0.45413 0.0
C650 C 0.06025 1.00364 0.42232 0.0
C651 C 0.09733 1.0056 0.41114 0.0
C652 C 0.06834 1.00806 0.44746 0.0
C653 C 0.10499 1.00781 0.43594 0.0
C654 C 0.07498 1.00349 0.40432 0.0
C655 C 0.13264 1.00606 0.46749 0.0
N656 N 0.09717 1.01142 0.47819 0.0
C657 C 0.11754 1.00787 0.48481 0.0
C658 C 0.1265 1.00661 0.44306 0.0
Tb659 Tb 0.07144 0.01669 0.50502 0.0
N660 N 0.05449 1.00793 0.46534 0.0
C661 C 0.03223 1.00024 0.45881 0.0
C662 C 0.03752 0.99816 0.41587 0.0
C663 C 0.02346 0.99583 0.43415 0.0
H664 H 0.12248 1.00722 0.50357 0.0
H665 H 1.00583 0.99067 0.42928 0.0
H666 H 0.0691 1.0006 0.385 0.0
H667 H 0.14897 1.00414 0.47301 0.0
H668 H 0.0208 0.99799 0.4723 0.0
H669 H 0.12749 0.10011 0.61465 0.0
H670 H 0.03067 0.99468 0.3968 0.0
H671 H 1.00879 0.0723 0.53975 0.0
H672 H 0.11164 0.08926 0.57143 0.0
H673 H 0.98237 0.07718 0.57009 0.0
H674 H 0.10835 1.00432 0.39694 0.0
H675 H 0.10322 0.10009 0.64798 0.0
H676 H 0.0649 0.09602 0.66037 0.0
H677 H 0.13818 1.00495 0.42963 0.0
H678 H 0.02528 0.09012 0.64823 0.0
N679 N 0.07831 0.08201 0.57962 0.0
C680 C 0.10063 0.08908 0.58554 0.0
C681 C 0.09607 0.09519 0.62893 0.0
C682 C 0.07329 0.08973 0.62284 0.0
C683 C 0.10981 0.09531 0.61017 0.0
C684 C 0.06488 0.08338 0.59773 0.0
H685 H 0.99442 0.08368 0.61459 0.0
N686 N 0.03579 0.07566 0.56663 0.0
C687 C 0.99931 0.07798 0.57624 0.0
C688 C 0.04278 0.0802 0.59099 0.0
C689 C 0.01443 0.07527 0.55906 0.0
C690 C 1.00615 0.08155 0.60133 0.0
C691 C 0.0282 0.08305 0.60902 0.0
O692 O 0.04853 0.10011 0.53131 0.0
O693 O 0.06037 0.05021 0.5017 0.0
O694 O 0.09958 0.0454 0.50069 0.0
O695 O 0.09529 0.079 0.52968 0.0
O696 O 0.03473 0.0655 0.51024 0.0
O697 O 0.08304 0.10599 0.54355 0.0
O698 O 0.06279 0.98966 0.52643 0.0
O699 O 0.07432 0.03847 0.54246 0.0
O700 O 0.03882 0.03992 0.54909 0.0
O701 O 0.03692 1.01248 0.5122 0.0
O702 O 0.0995 0.0223 0.53327 0.0
O703 O 0.06838 0.97925 0.48882 0.0
C704 C 0.0423 0.05357 0.49211 0.0
C705 C 0.06779 0.14094 0.54951 0.0
C706 C 0.07518 0.18473 0.54842 0.0
C707 C 0.07485 0.16025 0.53737 0.0
C708 C 0.06825 0.18964 0.57203 0.0
C709 C 0.06112 0.14596 0.57312 0.0
C710 C 0.06138 0.17032 0.58433 0.0
C711 C 0.10639 0.06832 0.51325 0.0
C712 C 0.06748 0.1159 0.53649 0.0
C713 C 0.03624 0.08808 0.63408 0.0
C714 C 0.05878 0.09141 0.64099 0.0
C715 C 0.09282 0.03553 0.55144 0.0
C716 C 0.07874 0.95554 0.51657 0.0
C717 C 0.07324 0.94365 0.5361 0.0
C718 C 0.08574 0.92784 0.54345 0.0
C719 C 0.10407 0.92433 0.53113 0.0
C720 C 0.09687 0.95134 0.5042 0.0
C721 C 0.10953 0.93599 0.51163 0.0
C722 C 0.02889 0.01956 0.53306 0.0
C723 C 0.06513 0.97182 0.50925 0.0
H724 H 0.07966 0.15607 0.51893 0.0
H725 H 0.06832 0.20836 0.58099 0.0
H726 H 0.05566 0.13118 0.58274 0.0
H727 H 0.05618 0.17424 0.60254 0.0
H728 H 0.05889 0.94633 0.54519 0.0
H729 H 0.11421 0.91256 0.53656 0.0
H730 H 0.10122 0.95972 0.48872 0.0
H731 H 0.12356 0.933 0.50213 0.0
Tb732 Tb 0.34149 0.81829 0.76232 0.0
C733 C 0.29298 0.75304 0.82451 0.0
C734 C 0.30159 0.71343 0.81067 0.0
C735 C 0.29334 0.72508 0.85275 0.0
C736 C 0.29899 0.73645 0.80628 0.0
C737 C 0.28953 0.74732 0.84778 0.0
C738 C 0.29937 0.70815 0.83421 0.0
C739 C 0.27648 0.7846 0.85852 0.0
N740 N 0.28917 0.77416 0.81886 0.0
C741 C 0.28006 0.7894 0.83514 0.0
C742 C 0.28157 0.76368 0.86503 0.0
Tb743 Tb 0.29576 0.78039 0.78007 0.0
N744 N 0.3005 0.74203 0.78368 0.0
C745 C 0.30264 0.72435 0.76408 0.0
C746 C 0.30534 0.696 0.79101 0.0
C747 C 0.30543 0.70132 0.76751 0.0
H748 H 0.27595 0.80564 0.83054 0.0
H749 H 0.30774 0.68774 0.75201 0.0
H750 H 0.30154 0.69069 0.83801 0.0
H751 H 0.26981 0.79707 0.8715 0.0
H752 H 0.30273 0.72804 0.74575 0.0
H753 H 0.32589 0.90993 0.7834 0.0
H754 H 0.30744 0.67812 0.79361 0.0
H755 H 0.36995 0.79604 0.7171 0.0
H756 H 0.33266 0.87147 0.79298 0.0
H757 H 0.37798 0.80331 0.67633 0.0
H758 H 0.29099 0.72046 0.8706 0.0
H759 H 0.32604 0.91645 0.74067 0.0
H760 H 0.33386 0.90209 0.69735 0.0
H761 H 0.27868 0.75995 0.88311 0.0
H762 H 0.34836 0.87293 0.66803 0.0
N763 N 0.33534 0.85523 0.75585 0.0
C764 C 0.33263 0.87375 0.77422 0.0
C765 C 0.32887 0.89934 0.74474 0.0
C766 C 0.3339 0.88144 0.72646 0.0
C767 C 0.32887 0.89578 0.76889 0.0
C768 C 0.33748 0.85948 0.73277 0.0
H769 H 0.36554 0.8365 0.66032 0.0
N770 N 0.35131 0.82369 0.72415 0.0
C771 C 0.36863 0.81443 0.68724 0.0
C772 C 0.34588 0.84323 0.71638 0.0
C773 C 0.36371 0.81017 0.71046 0.0
C774 C 0.36156 0.83316 0.67826 0.0
C775 C 0.35055 0.84827 0.69311 0.0
O776 O 0.37059 0.81517 0.78174 0.0
O777 O 0.33074 0.78367 0.77545 0.0
O778 O 0.31867 0.79662 0.8131 0.0
O779 O 0.33538 0.83191 0.80022 0.0
O780 O 0.35148 0.78358 0.74891 0.0
O781 O 0.3686 0.8489 0.7709 0.0
O782 O 0.26353 0.78554 0.7778 0.0
O783 O 0.30606 0.81447 0.7655 0.0
O784 O 0.32239 0.79925 0.72742 0.0
O785 O 0.2982 0.76818 0.74072 0.0
O786 O 0.2858 0.81533 0.79248 0.0
O787 O 0.26996 0.7507 0.76154 0.0
C788 C 0.34139 0.76963 0.76243 0.0
C789 C 0.40286 0.83776 0.76969 0.0
C790 C 0.43949 0.82937 0.77237 0.0
C791 C 0.41907 0.829 0.78162 0.0
C792 C 0.44344 0.83851 0.75084 0.0
C793 C 0.4073 0.84719 0.74841 0.0
C794 C 0.42743 0.84738 0.739 0.0
C795 C 0.33009 0.81974 0.81789 0.0
C796 C 0.38148 0.83675 0.77965 0.0
C797 C 0.34518 0.86896 0.68597 0.0
C798 C 0.33688 0.88554 0.70264 0.0
C799 C 0.29512 0.82857 0.778 0.0
C800 C 0.23555 0.75075 0.77735 0.0
C801 C 0.21624 0.75904 0.77447 0.0
C802 C 0.19741 0.74927 0.78504 0.0
C803 C 0.19808 0.7306 0.79836 0.0
C804 C 0.23606 0.73222 0.79082 0.0
C805 C 0.21733 0.72218 0.80122 0.0
C806 C 0.3072 0.77836 0.72312 0.0
C807 C 0.25494 0.76283 0.76694 0.0
H808 H 0.41567 0.8217 0.79803 0.0
H809 H 0.45909 0.8393 0.74344 0.0
H810 H 0.39527 0.85439 0.73896 0.0
H811 H 0.43069 0.8546 0.72256 0.0
H812 H 0.21591 0.77315 0.76376 0.0
H813 H 0.18384 0.72272 0.80675 0.0
H814 H 0.25084 0.7256 0.79339 0.0
H815 H 0.21778 0.70791 0.81163 0.0
Tb816 Tb 0.57865 0.04555 0.05665 0.0
C817 C 0.51305 0.0788 0.98975 0.0
C818 C 0.48102 0.0447 0.97974 0.0
C819 C 0.47699 0.08663 0.98103 0.0
C820 C 0.50382 0.0539 0.9865 0.0
C821 C 0.49986 0.09547 0.98661 0.0
C822 C 0.46757 0.06126 0.9776 0.0
C823 C 0.53303 0.12792 0.99276 0.0
N824 N 0.53519 0.08653 0.99499 0.0
C825 C 0.54541 0.11062 0.99558 0.0
C826 C 0.51013 0.12038 0.98854 0.0
Tb827 Tb 0.55402 0.05693 0.99969 0.0
N828 N 0.51741 0.03856 0.98859 0.0
C829 C 0.50935 0.01351 0.98222 0.0
C830 C 0.47254 0.01913 0.97457 0.0
C831 C 0.48684 1.00347 0.97541 0.0
H832 H 0.56309 0.1167 0.99891 0.0
H833 H 0.48053 0.98363 0.97098 0.0
H834 H 0.44998 0.05458 0.97269 0.0
H835 H 0.54117 0.14705 0.99384 0.0
H836 H 0.5201 1.00107 0.98288 0.0
H837 H 0.65073 0.12116 0.08319 0.0
H838 H 0.45512 1.01131 0.96932 0.0
H839 H 0.57152 0.98732 0.06166 0.0
H840 H 0.61127 0.1023 0.07257 0.0
H841 H 0.59456 0.95818 0.06778 0.0
H842 H 0.46652 0.09916 0.97875 0.0
H843 H 0.67732 0.09477 0.08445 0.0
H844 H 0.6839 0.0521 0.08173 0.0
H845 H 0.50058 0.1338 0.98627 0.0
H846 H 0.66856 1.00744 0.07733 0.0
N847 N 0.61514 0.06522 0.06704 0.0
C848 C 0.62251 0.09039 0.07306 0.0
C849 C 0.65994 0.08631 0.07974 0.0
C850 C 0.6522 0.06064 0.07509 0.0
C851 C 0.64498 0.10125 0.07912 0.0
C852 C 0.62942 0.05061 0.0689 0.0
H853 H 0.63514 0.97224 0.07264 0.0
N854 N 0.59878 0.01734 0.06214 0.0
C855 C 0.60221 0.97709 0.0672 0.0
C856 C 0.62092 0.02567 0.06627 0.0
C857 C 0.58922 0.99367 0.06378 0.0
C858 C 0.62511 0.98506 0.06984 0.0
C859 C 0.63475 1.00979 0.06995 0.0
O860 O 0.56256 0.03138 0.08469 0.0
O861 O 0.54965 0.04393 0.03326 0.0
O862 O 0.54524 0.08191 0.02979 0.0
O863 O 0.57281 0.08338 0.0609 0.0
O864 O 0.54819 0.01651 0.05245 0.0
O865 O 0.58262 0.06859 0.09175 0.0
O866 O 0.57142 0.07073 0.97233 0.0
O867 O 0.58318 0.05795 0.02276 0.0
O868 O 0.58556 0.01834 0.02652 0.0
O869 O 0.55885 0.01906 0.99511 0.0
O870 O 0.58433 0.08614 1.00466 0.0
O871 O 0.549 0.03472 0.96407 0.0
C872 C 0.53697 0.02504 0.03738 0.0
C873 C 0.58025 0.04758 0.12473 0.0
C874 C 0.57483 0.04344 0.16682 0.0
C875 C 0.5672 0.04786 0.14415 0.0
C876 C 0.59572 0.03844 0.16979 0.0
C877 C 0.60126 0.04299 0.12796 0.0
C878 C 0.60891 0.03836 0.15042 0.0
C879 C 0.55681 0.09214 0.0514 0.0
C880 C 0.57103 0.05133 0.10121 0.0
C881 C 0.6576 0.01937 0.07473 0.0
C882 C 0.66632 0.04479 0.07727 0.0
C883 C 0.59576 0.07706 0.019 0.0
C884 C 0.55465 0.05665 0.9318 0.0
C885 C 0.57011 0.06027 0.9151 0.0
C886 C 0.56451 0.06616 0.89247 0.0
C887 C 0.54284 0.06792 0.88651 0.0
C888 C 0.53311 0.05871 0.9259 0.0
C889 C 0.52726 0.06426 0.90323 0.0
C890 C 0.57419 1.00938 1.00448 0.0
C891 C 0.56209 0.05148 0.95535 0.0
H892 H 0.55087 0.05114 0.14145 0.0
H893 H 0.60193 0.03494 0.18711 0.0
H894 H 0.61166 0.04289 0.11325 0.0
H895 H 0.6251 0.03472 0.15282 0.0
H896 H 0.58663 0.05826 0.91975 0.0
H897 H 0.53806 0.07239 0.86913 0.0
H898 H 0.52094 0.05606 0.93869 0.0
H899 H 0.51063 0.06582 0.89864 0.0
Tb900 Tb 0.33737 0.32582 0.29385 0.0
C901 C 0.24455 0.27385 0.2734 0.0
C902 C 0.2306 0.24489 0.29873 0.0
C903 C 0.20739 0.27014 0.28524 0.0
C904 C 0.2477 0.25638 0.28647 0.0
C905 C 0.22409 0.28048 0.27203 0.0
C906 C 0.21069 0.25243 0.29868 0.0
C907 C 0.23758 0.30579 0.2435 0.0
N908 N 0.26121 0.28352 0.26111 0.0
C909 C 0.25765 0.29891 0.24568 0.0
C910 C 0.22082 0.29683 0.257 0.0
Tb911 Tb 0.29378 0.27088 0.26603 0.0
N912 N 0.26698 0.24934 0.28567 0.0
C913 C 0.26914 0.22876 0.29443 0.0
C914 C 0.23368 0.22544 0.30973 0.0
C915 C 0.25289 0.21702 0.30714 0.0
H916 H 0.27004 0.3065 0.23502 0.0
H917 H 0.25516 0.20138 0.31476 0.0
H918 H 0.19747 0.24406 0.30823 0.0
H919 H 0.23515 0.31824 0.23153 0.0
H920 H 0.28384 0.22184 0.29225 0.0
H921 H 0.37708 0.3918 0.24157 0.0
H922 H 0.22098 0.21617 0.31936 0.0
H923 H 0.36074 0.29064 0.32609 0.0
H924 H 0.34869 0.374 0.26586 0.0
H925 H 0.3948 0.27722 0.32885 0.0
H926 H 0.1917 0.27523 0.28464 0.0
H927 H 0.41006 0.37483 0.23634 0.0
H928 H 0.43261 0.3464 0.24807 0.0
H929 H 0.20536 0.30235 0.25541 0.0
H930 H 0.4379 0.31612 0.27294 0.0
N931 N 0.36408 0.34527 0.27241 0.0
C932 C 0.36269 0.36587 0.26319 0.0
C933 C 0.39739 0.3666 0.24664 0.0
C934 C 0.39998 0.34746 0.25834 0.0
C935 C 0.37885 0.37622 0.24956 0.0
C936 C 0.38294 0.33731 0.27149 0.0
H937 H 0.42415 0.29071 0.30345 0.0
N938 N 0.36937 0.31194 0.29853 0.0
C939 C 0.39249 0.28927 0.31641 0.0
C940 C 0.38586 0.32034 0.28537 0.0
C941 C 0.37286 0.29709 0.31459 0.0
C942 C 0.409 0.29689 0.30207 0.0
C943 C 0.40594 0.31283 0.2865 0.0
O944 O 0.34541 0.33776 0.33238 0.0
O945 O 0.30325 0.30696 0.28943 0.0
O946 O 0.30216 0.2935 0.2383 0.0
O947 O 0.32791 0.33009 0.25661 0.0
O948 O 0.30965 0.3441 0.29307 0.0
O949 O 0.34664 0.3638 0.30876 0.0
O950 O 0.28672 0.2599 0.22737 0.0
O951 O 0.32805 0.28948 0.27027 0.0
O952 O 0.32895 0.30358 0.32184 0.0
O953 O 0.30152 0.26805 0.30428 0.0
O954 O 0.32081 0.25255 0.27019 0.0
O955 O 0.28738 0.23317 0.24988 0.0
C956 C 0.29405 0.32465 0.29103 0.0
C957 C 0.33522 0.37516 0.34808 0.0
C958 C 0.31004 0.40269 0.35459 0.0
C959 C 0.32203 0.38938 0.33899 0.0
C960 C 0.31191 0.40235 0.37982 0.0
C961 C 0.33679 0.37488 0.37331 0.0
C962 C 0.32524 0.38849 0.38909 0.0
C963 C 0.31468 0.31545 0.23767 0.0
C964 C 0.34749 0.3609 0.33139 0.0
C965 C 0.42249 0.32184 0.27246 0.0
C966 C 0.41947 0.33904 0.25828 0.0
C967 C 0.33661 0.27137 0.27045 0.0
C968 C 0.30284 0.22668 0.21223 0.0
C969 C 0.31577 0.21225 0.22142 0.0
C970 C 0.33148 0.20335 0.20774 0.0
C971 C 0.33436 0.20922 0.18453 0.0
C972 C 0.30553 0.23178 0.18871 0.0
C973 C 0.32132 0.22324 0.17505 0.0
C974 C 0.31561 0.28221 0.32286 0.0
C975 C 0.28735 0.23714 0.22762 0.0
H976 H 0.32106 0.39026 0.31966 0.0
H977 H 0.30279 0.41239 0.39226 0.0
H978 H 0.34694 0.36416 0.38081 0.0
H979 H 0.32651 0.38816 0.40853 0.0
H980 H 0.31396 0.20826 0.23958 0.0
H981 H 0.34631 0.20257 0.17354 0.0
H982 H 0.29555 0.2425 0.18098 0.0
H983 H 0.32342 0.22744 0.15703 0.0
Tb984 Tb 0.56282 0.57242 0.0409 0.0
C985 C 0.59074 0.50737 0.95671 0.0
C986 C 0.56189 0.50198 0.92353 0.0
C987 C 0.59911 0.50128 0.91417 0.0
C988 C 0.56905 0.50664 0.94895 0.0
C989 C 0.6058 0.50393 0.93932 0.0
C990 C 0.57718 0.50027 0.90628 0.0
C991 C 0.63212 0.50264 0.97247 0.0
N992 N 0.5966 0.50953 0.98117 0.0
C993 C 0.61663 0.50588 0.98904 0.0
C994 C 0.62685 0.50216 0.94759 0.0
Tb995 Tb 0.56995 0.51652 1.00627 0.0
N996 N 0.55458 0.50801 0.9661 0.0
C997 C 0.53244 0.50172 0.95874 0.0
C998 C 0.53941 0.49787 0.91611 0.0
C999 C 0.52459 0.49712 0.93376 0.0
H1000 H 0.62104 0.50594 1.00811 0.0
H1001 H 0.5071 0.49306 0.92816 0.0
H1002 H 0.57203 0.49713 0.88673 0.0
H1003 H 0.64812 0.50045 0.97892 0.0
H1004 H 0.52052 0.5008 0.97181 0.0
H1005 H 0.62649 0.59895 0.11807 0.0
H1006 H 0.53326 0.49425 0.89679 0.0
H1007 H 0.51005 0.57495 0.03871 0.0
H1008 H 0.6119 0.58757 0.07454 0.0
H1009 H 0.48297 0.58139 0.06776 0.0
H1010 H 0.61053 0.49896 0.90058 0.0
H1011 H 0.60127 0.60188 0.15034 0.0
H1012 H 0.56273 0.60036 0.16115 0.0
H1013 H 0.63887 0.49949 0.93479 0.0
H1014 H 0.52361 0.59579 0.14743 0.0
N1015 N 0.57826 0.58328 0.08131 0.0
C1016 C 0.60047 0.5888 0.08808 0.0
C1017 C 0.59468 0.59685 0.13109 0.0
C1018 C 0.57211 0.59263 0.12414 0.0
C1019 C 0.60894 0.59529 0.11294 0.0
C1020 C 0.5644 0.58605 0.09881 0.0
H1021 H 0.49378 0.58913 0.11264 0.0
N1022 N 0.53633 0.57865 0.06664 0.0
C1023 C 0.49969 0.58204 0.07463 0.0
C1024 C 0.54261 0.58369 0.09119 0.0
C1025 C 0.51523 0.57847 0.05817 0.0
C1026 C 0.50583 0.58632 0.09993 0.0
C1027 C 0.52759 0.58751 0.10853 0.0
O1028 O 0.5523 0.60325 0.03281 0.0
O1029 O 0.56057 0.55089 1.003 0.0
O1030 O 0.59778 0.54454 1.00013 0.0
O1031 O 0.59714 0.57657 0.03274 0.0
O1032 O 0.53688 0.56935 0.01084 0.0
O1033 O 0.58656 0.6054 0.04329 0.0
O1034 O 0.56056 0.48992 0.028 0.0
O1035 O 0.57323 0.53855 0.04367 0.0
O1036 O 0.53849 0.54214 0.04987 0.0
O1037 O 0.53558 0.51509 0.01255 0.0
O1038 O 0.59711 0.5202 0.03519 0.0
O1039 O 0.56308 0.47875 0.98958 0.0
C1040 C 0.54342 0.55587 0.99301 0.0
C1041 C 0.57509 0.64284 0.0496 0.0
C1042 C 0.58338 0.68617 0.04658 0.0
C1043 C 0.57899 0.66101 0.03547 0.0
C1044 C 0.58373 0.69298 0.07227 0.0
C1045 C 0.57523 0.64972 0.07518 0.0
C1046 C 0.5795 0.67478 0.08644 0.0
C1047 C 0.60683 0.56618 0.01455 0.0
C1048 C 0.57216 0.61713 0.03685 0.0
C1049 C 0.53491 0.59297 0.13381 0.0
C1050 C 0.55717 0.59554 0.14161 0.0
C1051 C 0.59094 0.53423 0.05315 0.0
C1052 C 0.57269 0.45336 0.01593 0.0
C1053 C 0.5672 0.44149 0.03548 0.0
C1054 C 0.57823 0.42373 0.04113 0.0
C1055 C 0.59502 0.41814 0.02707 0.0
C1056 C 0.58944 0.44738 1.002 0.0
C1057 C 0.60057 0.42995 1.00767 0.0
C1058 C 0.52777 0.52238 0.03349 0.0
C1059 C 0.56046 0.47151 0.01021 0.0
H1060 H 0.57924 0.65551 0.01573 0.0
H1061 H 0.58711 0.71227 0.08132 0.0
H1062 H 0.57232 0.63586 0.08636 0.0
H1063 H 0.57971 0.68013 0.10621 0.0
H1064 H 0.55402 0.44574 0.04596 0.0
H1065 H 0.60394 0.40472 0.03115 0.0
H1066 H 0.59387 0.45601 0.98667 0.0
H1067 H 0.6135 0.42549 0.99692 0.0
Tb1068 Tb 0.84091 0.31926 0.2672 0.0
C1069 C 0.78939 0.24941 0.32421 0.0
C1070 C 0.79903 0.21049 0.30995 0.0
C1071 C 0.78822 0.22004 0.35118 0.0
C1072 C 0.7966 0.23377 0.3062 0.0
C1073 C 0.78455 0.24252 0.34671 0.0
C1074 C 0.79546 0.20403 0.3328 0.0
C1075 C 0.77058 0.27915 0.35748 0.0
N1076 N 0.78577 0.27075 0.31898 0.0
C1077 C 0.77564 0.28516 0.33489 0.0
C1078 C 0.77539 0.25794 0.3636 0.0
Tb1079 Tb 0.79456 0.27906 0.28142 0.0
N1080 N 0.79934 0.24049 0.28424 0.0
C1081 C 0.80251 0.22363 0.26449 0.0
C1082 C 0.80391 0.19395 0.29025 0.0
C1083 C 0.80521 0.20037 0.26728 0.0
H1084 H 0.77184 0.30168 0.33064 0.0
H1085 H 0.80839 0.18748 0.25171 0.0
H1086 H 0.79748 0.18636 0.33613 0.0
H1087 H 0.76306 0.29096 0.37019 0.0
H1088 H 0.80361 0.22816 0.24656 0.0
H1089 H 0.824 0.41008 0.29161 0.0
H1090 H 0.80592 0.1759 0.29235 0.0
H1091 H 0.8696 0.29854 0.22164 0.0
H1092 H 0.83026 0.37078 0.29944 0.0
H1093 H 0.87878 0.30798 0.18189 0.0
H1094 H 0.78481 0.21452 0.36843 0.0
H1095 H 0.82612 0.41921 0.24993 0.0
H1096 H 0.83551 0.4072 0.20685 0.0
H1097 H 0.7714 0.25329 0.38108 0.0
H1098 H 0.85064 0.37929 0.17685 0.0
N1099 N 0.83482 0.35671 0.26226 0.0
C1100 C 0.83114 0.37422 0.2811 0.0
C1101 C 0.82877 0.40175 0.25322 0.0
C1102 C 0.8345 0.38478 0.23455 0.0
C1103 C 0.82766 0.39671 0.27677 0.0
C1104 C 0.8378 0.36231 0.23981 0.0
H1105 H 0.8674 0.34265 0.16766 0.0
N1106 N 0.85146 0.32653 0.22982 0.0
C1107 C 0.86942 0.31883 0.19312 0.0
C1108 C 0.84652 0.34675 0.22304 0.0
C1109 C 0.8639 0.31339 0.21577 0.0
C1110 C 0.86295 0.33839 0.18515 0.0
C1111 C 0.85185 0.35303 0.2004 0.0
O1112 O 0.87097 0.31534 0.28372 0.0
O1113 O 0.82997 0.28391 0.27909 0.0
O1114 O 0.81595 0.29442 0.31579 0.0
O1115 O 0.83335 0.33072 0.30511 0.0
O1116 O 0.85183 0.28519 0.25367 0.0
O1117 O 0.86654 0.3509 0.28042 0.0
O1118 O 0.76156 0.28167 0.28006 0.0
O1119 O 0.80528 0.31404 0.26874 0.0
O1120 O 0.82265 0.30181 0.23135 0.0
O1121 O 0.79939 0.26855 0.2424 0.0
O1122 O 0.78308 0.31313 0.29354 0.0
O1123 O 0.77085 0.25121 0.25728 0.0
C1124 C 0.84131 0.27058 0.26633 0.0
C1125 C 0.90175 0.3432 0.27523 0.0
C1126 C 0.93945 0.33805 0.27469 0.0
C1127 C 0.91925 0.33468 0.28478 0.0
C1128 C 0.94186 0.35016 0.25477 0.0
C1129 C 0.90463 0.35559 0.25558 0.0
C1130 C 0.92456 0.35891 0.24538 0.0
C1131 C 0.82711 0.31766 0.32189 0.0
C1132 C 0.88056 0.33835 0.28562 0.0
C1133 C 0.84693 0.37435 0.19429 0.0
C1134 C 0.83828 0.39023 0.21135 0.0
C1135 C 0.79334 0.32731 0.28046 0.0
C1136 C 0.7354 0.24392 0.27108 0.0
C1137 C 0.71497 0.24986 0.26825 0.0
C1138 C 0.69588 0.2344 0.27344 0.0
C1139 C 0.69744 0.21285 0.28176 0.0
C1140 C 0.73686 0.22248 0.27969 0.0
C1141 C 0.71791 0.20707 0.28506 0.0
C1142 C 0.80845 0.28016 0.22569 0.0
C1143 C 0.75465 0.26059 0.26478 0.0
H1144 H 0.91713 0.32563 0.3003 0.0
H1145 H 0.95706 0.35275 0.24633 0.0
H1146 H 0.8915 0.36259 0.24796 0.0
H1147 H 0.92658 0.36825 0.23008 0.0
H1148 H 0.71385 0.26628 0.26131 0.0
H1149 H 0.68288 0.20056 0.2857 0.0
H1150 H 0.75248 0.21753 0.28206 0.0
H1151 H 0.71905 0.19049 0.29158 0.0
Tb1152 Tb 0.07047 0.5376 0.55267 0.0
C1153 C 1.00832 0.57997 0.48961 0.0
C1154 C 0.97683 0.54606 0.47428 0.0
C1155 C 0.97262 0.58835 0.48017 0.0
C1156 C 0.99933 0.55498 0.483 0.0
C1157 C 0.99524 0.59704 0.48785 0.0
C1158 C 0.96341 0.56287 0.47341 0.0
C1159 C 0.02814 0.62979 0.49959 0.0
N1160 N 0.03021 0.58752 0.49682 0.0
C1161 C 0.04041 0.61209 0.50097 0.0
C1162 C 1.0054 0.62226 0.49327 0.0
Tb1163 Tb 0.04899 0.55731 0.49892 0.0
N1164 N 0.01292 0.53946 0.48394 0.0
C1165 C 1.00526 0.51469 0.47456 0.0
C1166 C 0.96866 0.5206 0.46608 0.0
C1167 C 0.98303 0.50489 0.46589 0.0
H1168 H 0.05794 0.61816 0.50601 0.0
H1169 H 0.97699 0.48519 0.45914 0.0
H1170 H 0.94604 0.55639 0.46699 0.0
H1171 H 0.03622 0.64923 0.50343 0.0
H1172 H 0.01603 0.50219 0.47432 0.0
H1173 H 0.13776 0.61202 0.6003 0.0
H1174 H 0.95146 0.51296 0.45934 0.0
H1175 H 0.06589 0.47708 0.54088 0.0
H1176 H 0.09971 0.59311 0.58214 0.0
H1177 H 0.09055 0.44829 0.53982 0.0
H1178 H 0.96221 0.60116 0.47888 0.0
H1179 H 0.16578 0.58716 0.59764 0.0
H1180 H 0.17505 0.54605 0.58399 0.0
H1181 H 0.99593 0.636 0.49215 0.0
H1182 H 0.16225 0.50138 0.56705 0.0
N1183 N 0.1058 0.5576 0.56881 0.0
C1184 C 0.11159 0.58186 0.58074 0.0
C1185 C 0.14905 0.57871 0.58948 0.0
C1186 C 0.14292 0.55374 0.57794 0.0
C1187 C 0.13325 0.59275 0.59114 0.0
C1188 C 0.12083 0.54355 0.56803 0.0
H1189 H 0.13064 0.46464 0.55089 0.0
N1190 N 0.09193 0.50939 0.55134 0.0
C1191 C 0.09729 0.46803 0.54504 0.0
C1192 C 0.11369 0.51855 0.5587 0.0
C1193 C 0.08338 0.48436 0.54572 0.0
C1194 C 0.11992 0.47733 0.5512 0.0
C1195 C 0.12834 0.50286 0.5587 0.0
O1196 O 0.05619 0.51505 0.57612 0.0
O1197 O 0.04244 0.5388 0.52907 0.0
O1198 O 0.03849 0.57852 0.53075 0.0
O1199 O 0.06303 0.5746 0.56274 0.0
O1200 O 0.04052 0.50765 0.5427 0.0
O1201 O 0.06946 0.55425 0.58954 0.0
O1202 O 0.06746 0.57573 0.4749 0.0
O1203 O 0.07655 0.55683 0.52344 0.0
O1204 O 0.08174 0.51886 0.51977 0.0
O1205 O 0.05407 0.51942 0.49 0.0
O1206 O 0.07941 0.58701 0.50847 0.0
O1207 O 0.04773 0.53848 0.46235 0.0
C1208 C 0.02975 0.51851 0.52959 0.0
C1209 C 0.07186 0.52832 0.61759 0.0
C1210 C 0.07344 0.53076 0.66187 0.0
C1211 C 0.06412 0.53559 0.64016 0.0
C1212 C 0.09093 0.51886 0.66082 0.0
C1213 C 0.0893 0.51637 0.61675 0.0
C1214 C 0.09888 0.51183 0.63832 0.0
C1215 C 0.04813 0.58522 0.55371 0.0
C1216 C 0.06113 0.53317 0.59533 0.0
C1217 C 0.15066 0.51307 0.56714 0.0
C1218 C 0.15794 0.53849 0.57681 0.0
C1219 C 0.08959 0.57685 0.52292 0.0
C1220 C 0.05369 0.5639 0.43309 0.0
C1221 C 0.06976 0.56901 0.41736 0.0
C1222 C 0.06448 0.57489 0.39466 0.0
C1223 C 0.04268 0.5756 0.38778 0.0
C1224 C 0.032 0.56493 0.42632 0.0
C1225 C 0.02657 0.5708 0.40368 0.0
C1226 C 0.07071 0.51065 0.4976 0.0
C1227 C 0.06038 0.55739 0.45622 0.0
H1228 H 0.05031 0.54432 0.64065 0.0
H1229 H 0.09833 0.51491 0.67732 0.0
H1230 H 0.09536 0.51025 0.59955 0.0
H1231 H 0.1123 0.50258 0.63754 0.0
H1232 H 0.08643 0.5678 0.42261 0.0
H1233 H 0.03819 0.57994 0.37025 0.0
H1234 H 0.01936 0.56106 0.43832 0.0
H1235 H 1.00981 0.57148 0.39839 0.0
Tb1236 Tb 0.78989 0.80509 0.26958 0.0
C1237 C 0.85825 0.76399 0.32314 0.0
C1238 C 0.87093 0.79402 0.36108 0.0
C1239 C 0.87115 0.75094 0.35959 0.0
C1240 C 0.86189 0.78785 0.33617 0.0
C1241 C 0.8635 0.74533 0.33438 0.0
C1242 C 0.87484 0.77529 0.37295 0.0
C1243 C 0.85612 0.71802 0.29435 0.0
N1244 N 0.85137 0.75958 0.29878 0.0
C1245 C 0.85123 0.73722 0.28407 0.0
C1246 C 0.8619 0.72195 0.31971 0.0
Tb1247 Tb 0.84302 0.79185 0.28341 0.0
N1248 N 0.85827 0.80535 0.32383 0.0
C1249 C 0.86537 0.82981 0.33489 0.0
C1250 C 0.87665 0.8189 0.37295 0.0
C1251 C 0.87424 0.8369 0.35963 0.0
H1252 H 0.84668 0.73388 0.26446 0.0
H1253 H 0.87912 0.85627 0.36843 0.0
H1254 H 0.8815 0.77961 0.39216 0.0
H1255 H 0.85539 0.70021 0.28271 0.0
H1256 H 0.86357 0.8441 0.32514 0.0
H1257 H 0.75355 0.73925 0.18544 0.0
H1258 H 0.88358 0.82444 0.39208 0.0
H1259 H 0.78693 0.86342 0.28735 0.0
H1260 H 0.76926 0.75215 0.22862 0.0
H1261 H 0.77835 0.89669 0.26831 0.0
H1262 H 0.87502 0.73681 0.36867 0.0
H1263 H 0.74882 0.77049 0.16115 0.0
H1264 H 0.75078 0.81513 0.16023 0.0
H1265 H 0.86581 0.70711 0.32762 0.0
H1266 H 0.7575 0.85825 0.18292 0.0
N1267 N 0.77439 0.79081 0.2293 0.0
C1268 C 0.76736 0.76623 0.21862 0.0
C1269 C 0.75581 0.77637 0.18025 0.0
C1270 C 0.76149 0.80137 0.1917 0.0
C1271 C 0.75839 0.7587 0.19393 0.0
C1272 C 0.77064 0.80799 0.21658 0.0
H1273 H 0.76732 0.88879 0.22344 0.0
N1274 N 0.78152 0.83694 0.2535 0.0
C1275 C 0.77728 0.87861 0.25704 0.0
C1276 C 0.77438 0.83203 0.22918 0.0
C1277 C 0.78208 0.85964 0.26777 0.0
C1278 C 0.77116 0.87411 0.2317 0.0
C1279 C 0.76919 0.85044 0.2175 0.0
O1280 O 0.768 0.81684 0.29404 0.0
O1281 O 0.81424 0.80192 0.29761 0.0
O1282 O 0.81807 0.76035 0.29117 0.0
O1283 O 0.78649 0.7649 0.2694 0.0
O1284 O 0.79917 0.83081 0.3049 0.0
O1285 O 0.75933 0.78093 0.2705 0.0
O1286 O 0.86481 0.78114 0.2583 0.0
O1287 O 0.81866 0.7951 0.25549 0.0
O1288 O 0.81496 0.8362 0.26143 0.0
O1289 O 0.84626 0.83213 0.28405 0.0
O1290 O 0.83376 0.76632 0.24792 0.0
O1291 O 0.87392 0.81595 0.28364 0.0
C1292 C 0.81307 0.8203 0.31391 0.0
C1293 C 0.73008 0.79965 0.28182 0.0
C1294 C 0.69322 0.79953 0.29476 0.0
C1295 C 0.71491 0.79663 0.29942 0.0
C1296 C 0.6871 0.80526 0.27208 0.0
C1297 C 0.72343 0.80546 0.25953 0.0
C1298 C 0.70208 0.80821 0.25472 0.0
C1299 C 0.79731 0.75151 0.28085 0.0
C1300 C 0.75274 0.79667 0.28682 0.0
C1301 C 0.76135 0.84434 0.19234 0.0
C1302 C 0.75752 0.8198 0.17943 0.0
C1303 C 0.81977 0.77682 0.23906 0.0
C1304 C 0.9028 0.79713 0.27095 0.0
C1305 C 0.91866 0.8027 0.25459 0.0
C1306 C 0.94013 0.79886 0.2587 0.0
C1307 C 0.94508 0.78904 0.27932 0.0
C1308 C 0.9085 0.78775 0.29144 0.0
C1309 C 0.92946 0.78368 0.29551 0.0
C1310 C 0.83555 0.84532 0.2722 0.0
C1311 C 0.88033 0.8009 0.26648 0.0
H1312 H 0.7201 0.79235 0.31675 0.0
H1313 H 0.67056 0.80712 0.26751 0.0
H1314 H 0.73468 0.80773 0.24577 0.0
H1315 H 0.69707 0.81255 0.23738 0.0
H1316 H 0.91432 0.81024 0.23892 0.0
H1317 H 0.96101 0.7851 0.28287 0.0
H1318 H 0.89674 0.78351 0.30426 0.0
H1319 H 0.93361 0.7762 0.31127 0.0
Tb1320 Tb 0.82329 0.2759 0.74567 0.0
C1321 C 0.8326 0.37176 0.82077 0.0
C1322 C 0.85451 0.37432 0.85907 0.0
C1323 C 0.85355 0.41174 0.84412 0.0
C1324 C 0.84036 0.36035 0.83809 0.0
C1325 C 0.83867 0.39773 0.82389 0.0
C1326 C 0.86149 0.40004 0.86169 0.0
C1327 C 0.8135 0.39426 0.78807 0.0
N1328 N 0.81819 0.35752 0.80156 0.0
C1329 C 0.80801 0.3686 0.78578 0.0
C1330 C 0.82914 0.40889 0.80699 0.0
Tb1331 Tb 0.81039 0.31546 0.79962 0.0
N1332 N 0.83303 0.33558 0.83502 0.0
C1333 C 0.83798 0.32378 0.85333 0.0
C1334 C 0.86064 0.36213 0.87714 0.0
C1335 C 0.85207 0.33678 0.87441 0.0
H1336 H 0.79599 0.35801 0.77087 0.0
H1337 H 0.85637 0.32722 0.88848 0.0
H1338 H 0.87253 0.4111 0.87755 0.0
H1339 H 0.80572 0.40273 0.7751 0.0
H1340 H 0.83161 0.30413 0.85128 0.0
H1341 H 0.77678 0.26152 0.65667 0.0
H1342 H 0.8715 0.3722 0.89352 0.0
H1343 H 0.83782 0.23441 0.776 0.0
H1344 H 0.80177 0.28554 0.69336 0.0
H1345 H 0.82852 0.18985 0.77278 0.0
H1346 H 0.85858 0.43167 0.84667 0.0
H1347 H 0.7618 0.21667 0.65286 0.0
H1348 H 0.76112 0.17845 0.66998 0.0
H1349 H 0.83338 0.42875 0.80868 0.0
H1350 H 0.77547 0.15891 0.70154 0.0
N1351 N 0.8006 0.25475 0.71059 0.0
C1352 C 0.79546 0.26594 0.69185 0.0
C1353 C 0.77276 0.22714 0.66902 0.0
C1354 C 0.77913 0.21554 0.68748 0.0
C1355 C 0.78124 0.25242 0.67106 0.0
C1356 C 0.7934 0.23004 0.70816 0.0
H1357 H 0.80113 0.16292 0.73943 0.0
N1358 N 0.81575 0.23396 0.74479 0.0
C1359 C 0.82069 0.19786 0.75944 0.0
C1360 C 0.8014 0.2192 0.72581 0.0
C1361 C 0.82594 0.22345 0.76112 0.0
C1362 C 0.80519 0.18272 0.74067 0.0
C1363 C 0.79548 0.1933 0.72338 0.0
O1364 O 0.85574 0.27088 0.74674 0.0
O1365 O 0.82849 0.31223 0.76825 0.0
O1366 O 0.78884 0.31561 0.76627 0.0
O1367 O 0.78888 0.27889 0.73894 0.0
O1368 O 0.82777 0.31008 0.73121 0.0
O1369 O 0.84022 0.27918 0.71475 0.0
O1370 O 0.77791 0.32043 0.79846 0.0
O1371 O 0.80518 0.27927 0.77689 0.0
O1372 O 0.84509 0.27651 0.77922 0.0
O1373 O 0.84506 0.31355 0.80591 0.0
O1374 O 0.80538 0.28085 0.81362 0.0
O1375 O 0.7935 0.31235 0.83057 0.0
C1376 C 0.83069 0.32509 0.75211 0.0
C1377 C 0.87702 0.30048 0.72722 0.0
C1378 C 0.89147 0.33741 0.71113 0.0
C1379 C 0.87659 0.31451 0.70894 0.0
C1380 C 0.90752 0.34592 0.73159 0.0
C1381 C 0.89341 0.3091 0.74738 0.0
C1382 C 0.90861 0.33164 0.74942 0.0
C1383 C 0.78011 0.29802 0.74649 0.0
C1384 C 0.85878 0.27865 0.72631 0.0
C1385 C 0.78045 0.17878 0.70351 0.0
C1386 C 0.77227 0.1899 0.68557 0.0
C1387 C 0.80252 0.26603 0.79262 0.0
C1388 C 0.75696 0.29069 0.81817 0.0
C1389 C 0.75638 0.27885 0.83823 0.0
C1390 C 0.74284 0.25526 0.83652 0.0
C1391 C 0.72893 0.24385 0.81473 0.0
C1392 C 0.7426 0.27926 0.79664 0.0
C1393 C 0.72856 0.25604 0.79508 0.0
C1394 C 0.85387 0.29439 0.79875 0.0
C1395 C 0.77492 0.31271 0.81894 0.0
H1396 H 0.86378 0.30824 0.69356 0.0
H1397 H 0.91918 0.36354 0.73376 0.0
H1398 H 0.89416 0.29879 0.76185 0.0
H1399 H 0.92101 0.33831 0.76514 0.0
H1400 H 0.76768 0.28733 0.85473 0.0
H1401 H 0.71843 0.22557 0.81292 0.0
H1402 H 0.7427 0.28779 0.78076 0.0
H1403 H 0.71783 0.24715 0.7783 0.0
Tb1404 Tb 0.83411 0.82456 0.79285 0.0
C1405 C 0.74942 0.77531 0.73004 0.0
C1406 C 0.72154 0.7847 0.75588 0.0
C1407 C 0.71474 0.78011 0.71156 0.0
C1408 C 0.7429 0.78101 0.75323 0.0
C1409 C 0.73508 0.77386 0.70888 0.0
C1410 C 0.70792 0.78539 0.73506 0.0
C1411 C 0.75978 0.75526 0.6843 0.0
N1412 N 0.76876 0.76835 0.7282 0.0
C1413 C 0.7732 0.75658 0.70585 0.0
C1414 C 0.74092 0.76456 0.68576 0.0
Tb1415 Tb 0.7903 0.77304 0.76468 0.0
N1416 N 0.75633 0.7796 0.77284 0.0
C1417 C 0.74828 0.77885 0.79508 0.0
C1418 C 0.7139 0.78571 0.77901 0.0
C1419 C 0.72716 0.78226 0.79856 0.0
H1420 H 0.78737 0.74869 0.70435 0.0
H1421 H 0.72109 0.78211 0.81634 0.0
H1422 H 0.69164 0.78871 0.73682 0.0
H1423 H 0.76388 0.74683 0.66661 0.0
H1424 H 0.75791 0.77569 0.8104 0.0
H1425 H 0.85586 0.90907 0.75849 0.0
H1426 H 0.69738 0.78778 0.78161 0.0
H1427 H 0.86833 0.79204 0.8138 0.0
H1428 H 0.83334 0.87966 0.77924 0.0
H1429 H 0.90565 0.78756 0.80921 0.0
H1430 H 0.70364 0.77947 0.69554 0.0
H1431 H 0.89093 0.90177 0.74439 0.0
H1432 H 0.91977 0.87723 0.74422 0.0
H1433 H 0.73036 0.76315 0.66907 0.0
H1434 H 0.93367 0.84448 0.75886 0.0
N1435 N 0.85428 0.85428 0.77508 0.0
C1436 C 0.84828 0.87571 0.77276 0.0
C1437 C 0.88087 0.88844 0.75312 0.0
C1438 C 0.88809 0.86794 0.75798 0.0
C1439 C 0.86113 0.89266 0.76111 0.0
C1440 C 0.87435 0.85109 0.76936 0.0
H1441 H 0.92878 0.81148 0.78364 0.0
N1442 N 0.86887 0.81776 0.78987 0.0
C1443 C 0.89912 0.80004 0.79987 0.0
C1444 C 0.882 0.83237 0.77725 0.0
C1445 C 0.87758 0.80256 0.80216 0.0
C1446 C 0.91212 0.81354 0.78542 0.0
C1447 C 0.90381 0.83034 0.77432 0.0
O1448 O 0.82442 0.83651 0.82774 0.0
O1449 O 0.79904 0.80858 0.7892 0.0
O1450 O 0.79559 0.79763 0.73794 0.0
O1451 O 0.82817 0.82776 0.75417 0.0
O1452 O 0.80867 0.84447 0.78638 0.0
O1453 O 0.85716 0.84985 0.82043 0.0
O1454 O 0.8002 0.74071 0.76934 0.0
O1455 O 0.82557 0.78684 0.77329 0.0
O1456 O 0.83213 0.79307 0.81109 0.0
O1457 O 0.79481 0.77805 0.805 0.0
O1458 O 0.814 0.76427 0.73918 0.0
O1459 O 0.76618 0.74022 0.76251 0.0
C1460 C 0.79169 0.82705 0.78637 0.0
C1461 C 0.84186 0.8771 0.8476 0.0
C1462 C 0.82549 0.91266 0.84885 0.0
C1463 C 0.82674 0.88869 0.8377 0.0
C1464 C 0.83974 0.92503 0.87022 0.0
C1465 C 0.85593 0.88968 0.86889 0.0
C1466 C 0.85484 0.91355 0.88013 0.0
C1467 C 0.81186 0.81663 0.73644 0.0
C1468 C 0.84295 0.85187 0.83608 0.0
C1469 C 0.917 0.84599 0.76151 0.0
C1470 C 0.90909 0.86466 0.7532 0.0
C1471 C 0.83134 0.77737 0.75302 0.0
C1472 C 0.77763 0.70411 0.74546 0.0
C1473 C 0.79063 0.6876 0.74902 0.0
C1474 C 0.78899 0.66575 0.73153 0.0
C1475 C 0.77411 0.66055 0.71016 0.0
C1476 C 0.76259 0.69856 0.72414 0.0
C1477 C 0.76093 0.67688 0.70659 0.0
C1478 C 0.81388 0.78123 0.81825 0.0
C1479 C 0.78044 0.72699 0.76419 0.0
H1480 H 0.81605 0.87922 0.82116 0.0
H1481 H 0.83906 0.94344 0.87939 0.0
H1482 H 0.86769 0.88101 0.87683 0.0
H1483 H 0.86571 0.92316 0.89662 0.0
H1484 H 0.80242 0.6921 0.76532 0.0
H1485 H 0.77252 0.6438 0.6964 0.0
H1486 H 0.75222 0.71092 0.72097 0.0
H1487 H 0.74939 0.67273 0.69016 0.0
Tb1488 Tb 0.54302 0.52446 0.50968 0.0
C1489 C 0.60155 0.6174 0.57645 0.0
C1490 C 0.60498 0.64845 0.55161 0.0
C1491 C 0.60774 0.66077 0.59618 0.0
C1492 C 0.60121 0.62347 0.55367 0.0
C1493 C 0.60541 0.63599 0.59807 0.0
C1494 C 0.60753 0.66701 0.57294 0.0
C1495 C 0.60701 0.60456 0.62158 0.0
N1496 N 0.59965 0.59333 0.57739 0.0
C1497 C 0.60332 0.58685 0.5996 0.0
C1498 C 0.6077 0.62919 0.62085 0.0
Tb1499 Tb 0.5925 0.56527 0.54044 0.0
N1500 N 0.59904 0.60499 0.53364 0.0
C1501 C 0.60284 0.61069 0.51116 0.0
C1502 C 0.60709 0.6541 0.52833 0.0
C1503 C 0.60648 0.63515 0.5081 0.0
H1504 H 0.60285 0.56794 0.60061 0.0
H1505 H 0.6087 0.63933 0.49008 0.0
H1506 H 0.61016 0.68627 0.57172 0.0
H1507 H 0.60932 0.59917 0.63908 0.0
H1508 H 0.60237 0.59646 0.49517 0.0
H1509 H 0.52498 0.4525 0.56239 0.0
H1510 H 0.60996 0.67303 0.52593 0.0
H1511 H 0.53453 0.51991 0.44913 0.0
H1512 H 0.53165 0.49491 0.55585 0.0
H1513 H 0.52917 0.48764 0.41143 0.0
H1514 H 0.61048 0.67531 0.61255 0.0
H1515 H 0.5249 0.41794 0.52782 0.0
H1516 H 0.52631 0.40337 0.48248 0.0
H1517 H 0.61068 0.6429 0.63789 0.0
H1518 H 0.52734 0.41296 0.44109 0.0
N1519 N 0.53625 0.48524 0.51782 0.0
C1520 C 0.53166 0.48029 0.54038 0.0
C1521 C 0.5279 0.43666 0.52477 0.0
C1522 C 0.53086 0.44154 0.50133 0.0
C1523 C 0.52785 0.4561 0.54428 0.0
C1524 C 0.53477 0.46628 0.49842 0.0
H1525 H 0.52787 0.44431 0.41434 0.0
N1526 N 0.53703 0.4954 0.47348 0.0
C1527 C 0.53096 0.48285 0.42929 0.0
C1528 C 0.53519 0.47157 0.47532 0.0
C1529 C 0.53394 0.50111 0.45078 0.0
C1530 C 0.53033 0.45845 0.431 0.0
C1531 C 0.53197 0.45244 0.45423 0.0
O1532 O 0.51551 0.53184 0.49129 0.0
O1533 O 0.5607 0.56301 0.52145 0.0
O1534 O 0.56716 0.57183 0.56576 0.0
O1535 O 0.53972 0.5362 0.55023 0.0
O1536 O 0.54421 0.55218 0.4869 0.0
O1537 O 0.513 0.51824 0.52492 0.0
O1538 O 0.61935 0.55403 0.5557 0.0
O1539 O 0.57468 0.52671 0.52859 0.0
O1540 O 0.56893 0.51834 0.48491 0.0
O1541 O 0.59531 0.55488 0.49974 0.0
O1542 O 0.59069 0.53749 0.56332 0.0
O1543 O 0.62298 0.57404 0.52638 0.0
C1544 C 0.55585 0.57098 0.50231 0.0
C1545 C 0.48086 0.50885 0.497 0.0
C1546 C 0.44199 0.50628 0.48644 0.0
C1547 C 0.46339 0.52029 0.49493 0.0
C1548 C 0.43825 0.48043 0.47988 0.0
C1549 C 0.47709 0.48305 0.49015 0.0
C1550 C 0.45581 0.46892 0.48157 0.0
C1551 C 0.54859 0.55601 0.56809 0.0
C1552 C 0.50254 0.52455 0.50709 0.0
C1553 C 0.52958 0.42791 0.45704 0.0
C1554 C 0.52901 0.42245 0.48059 0.0
C1555 C 0.57909 0.51871 0.54784 0.0
C1556 C 0.65486 0.57688 0.55322 0.0
C1557 C 0.67048 0.56283 0.55504 0.0
C1558 C 0.69212 0.57402 0.56557 0.0
C1559 C 0.69802 0.59975 0.57424 0.0
C1560 C 0.66076 0.60249 0.56223 0.0
C1561 C 0.68234 0.61386 0.57269 0.0
C1562 C 0.5869 0.5348 0.48212 0.0
C1563 C 0.63275 0.56385 0.54157 0.0
H1564 H 0.46639 0.54023 0.50062 0.0
H1565 H 0.42186 0.46921 0.47336 0.0
H1566 H 0.49044 0.4739 0.49165 0.0
H1567 H 0.45288 0.44901 0.47639 0.0
H1568 H 0.66581 0.54305 0.54777 0.0
H1569 H 0.71462 0.60887 0.58241 0.0
H1570 H 0.64882 0.61361 0.56107 0.0
H1571 H 0.68694 0.63364 0.57957 0.0
Tb1572 Tb 0.09634 0.56233 0.01902 0.0
C1573 C 0.02595 0.50381 0.07203 0.0
C1574 C 1.00838 0.46568 0.04367 0.0
C1575 C 0.01083 0.46716 0.08776 0.0
C1576 C 0.0198 0.4907 0.04827 0.0
C1577 C 0.02128 0.49238 0.09215 0.0
C1578 C 1.00435 0.45382 0.06353 0.0
C1579 C 0.0361 0.53205 0.11924 0.0
N1580 N 0.03574 0.52814 0.07539 0.0
C1581 C 0.0402 0.54256 0.09866 0.0
C1582 C 0.02679 0.50679 0.116 0.0
Tb1583 Tb 0.04282 0.54361 0.04063 0.0
N1584 N 0.02385 0.50295 0.02971 0.0
C1585 C 0.01527 0.49157 1.00607 0.0
C1586 C 1.00075 0.45359 0.01934 0.0
C1587 C 1.00393 0.46672 1.0005 0.0
H1588 H 0.0476 0.56206 0.10148 0.0
H1589 H 0.99773 0.45771 0.98164 0.0
H1590 H 0.99579 0.43454 0.06038 0.0
H1591 H 0.04015 0.54344 0.1376 0.0
H1592 H 0.0175 0.50128 0.99119 0.0
H1593 H 0.13864 0.64874 0.07911 0.0
H1594 H 0.99194 0.43435 0.01499 0.0
H1595 H 0.09237 0.54416 0.95823 0.0
H1596 H 0.11905 0.60508 0.0691 0.0
H1597 H 0.101 0.56282 0.92237 0.0
H1598 H 1.00722 0.45797 0.10296 0.0
H1599 H 0.14618 0.67191 0.04584 0.0
H1600 H 0.14416 0.67158 1.00041 0.0
H1601 H 0.02352 0.49872 0.13197 0.0
H1602 H 0.13397 0.64815 0.95767 0.0
N1603 N 0.11483 0.60311 0.03035 0.0
C1604 C 0.1222 0.61468 0.05426 0.0
C1605 C 0.13754 0.65262 0.04128 0.0
C1606 C 0.13094 0.64041 0.01679 0.0
C1607 C 0.13336 0.63959 0.06009 0.0
C1608 C 0.11965 0.61532 0.01192 0.0
H1609 H 0.11807 0.60748 0.92837 0.0
N1610 N 0.10404 0.57797 0.98451 0.0
C1611 C 0.1047 0.57416 0.94077 0.0
C1612 C 0.11403 0.60226 0.98808 0.0
C1613 C 0.09992 0.56363 0.96121 0.0
C1614 C 0.11429 0.59938 0.94422 0.0
C1615 C 0.11934 0.61372 0.96813 0.0
O1616 O 0.11775 0.54084 1.00417 0.0
O1617 O 0.07004 0.53231 0.0238 0.0
O1618 O 0.06743 0.53315 0.06365 0.0
O1619 O 0.09782 0.5631 0.05884 0.0
O1620 O 0.08695 0.52565 0.99424 0.0
O1621 O 0.12551 0.56354 0.04072 0.0
O1622 O 0.02098 0.56436 0.05585 0.0
O1623 O 0.06896 0.57369 0.03551 0.0
O1624 O 0.07153 0.57191 0.9953 0.0
O1625 O 0.04147 0.54179 1.00075 0.0
O1626 O 0.05266 0.58038 0.06538 0.0
O1627 O 0.01415 0.54337 0.0186 0.0
C1628 C 0.07167 0.51556 1.00589 0.0
C1629 C 0.15532 0.55469 0.01958 0.0
C1630 C 0.19097 0.54355 0.01905 0.0
C1631 C 0.16853 0.53811 0.02277 0.0
C1632 C 0.1999 0.566 0.01211 0.0
C1633 C 0.16454 0.57687 0.01259 0.0
C1634 C 0.18675 0.58246 0.0089 0.0
C1635 C 0.08763 0.5467 0.07096 0.0
C1636 C 0.13201 0.54836 0.02371 0.0
C1637 C 0.12987 0.63893 0.97274 0.0
C1638 C 0.13567 0.65227 0.99706 0.0
C1639 C 0.06775 0.5905 0.05352 0.0
C1640 C 0.98366 0.55047 0.03916 0.0
C1641 C 0.96979 0.5659 0.03431 0.0
C1642 C 0.9471 0.5593 0.03661 0.0
C1643 C 0.93859 0.53694 0.0439 0.0
C1644 C 0.97484 0.52835 0.04649 0.0
C1645 C 0.9524 0.52165 0.04882 0.0
C1646 C 0.05134 0.55809 0.98837 0.0
C1647 C 1.00714 0.55763 0.03595 0.0
H1648 H 0.16119 0.52083 0.02785 0.0
H1649 H 0.21714 0.57103 0.00945 0.0
H1650 H 0.15462 0.58983 0.01003 0.0
H1651 H 0.19383 0.59968 1.0036 0.0
H1652 H 0.97665 0.58287 0.02838 0.0
H1653 H 0.9213 0.53142 0.04617 0.0
H1654 H 0.98525 0.51627 0.05035 0.0
H1655 H 0.94567 0.50455 0.05452 0.0
H1656 H 0.05505 0.21143 0.94278 0.0
H1657 H 0.01079 0.21489 0.99889 0.0
H1658 H 0.06385 0.17487 0.95448 0.0
H1659 H 0.01904 0.17798 0.01016 0.0
H1660 H 0.04845 0.1183 0.03719 0.0
H1661 H 0.04338 0.158 0.02868 0.0
H1662 H 0.05026 0.13278 0.95192 0.0
H1663 H 0.05594 0.09405 0.96071 0.0
C1664 C 0.04708 0.2044 0.95755 0.0
C1665 C 0.03206 0.21634 0.96967 0.0
C1666 C 0.05205 0.18317 0.96427 0.0
C1667 C 0.04213 0.1729 0.98333 0.0
C1668 C 0.02735 0.18514 0.99565 0.0
C1669 C 0.02243 0.2064 0.98898 0.0
C1670 C 0.0493 0.12154 0.01865 0.0
C1671 C 0.05313 0.10308 0.99976 0.0
C1672 C 0.0461 0.14424 0.01359 0.0
C1673 C 0.04645 0.14911 0.98947 0.0
C1674 C 0.0503 0.13044 0.9708 0.0
C1675 C 0.05344 0.10795 0.97583 0.0
H1676 H 0.17384 0.85318 0.17416 0.0
H1677 H 0.1542 0.7741 0.16682 0.0
H1678 H 0.20896 0.85348 0.19696 0.0
H1679 H 0.18881 0.77441 0.18934 0.0
H1680 H 0.26109 0.77788 0.20861 0.0
H1681 H 0.22773 0.7803 0.18513 0.0
H1682 H 0.22529 0.84665 0.23657 0.0
H1683 H 0.25902 0.8444 0.26003 0.0
C1684 C 0.17696 0.83587 0.1773 0.0
C1685 C 0.16099 0.81363 0.16849 0.0
C1686 C 0.19709 0.83604 0.19053 0.0
C1687 C 0.20198 0.81393 0.19502 0.0
C1688 C 0.18599 0.79179 0.18606 0.0
C1689 C 0.16592 0.79166 0.17318 0.0
C1690 C 0.25358 0.79307 0.21501 0.0
C1691 C 0.26282 0.81071 0.2366 0.0
C1692 C 0.23424 0.7944 0.20151 0.0
C1693 C 0.22345 0.81355 0.20892 0.0
C1694 C 0.23303 0.83165 0.23012 0.0
C1695 C 0.25235 0.83021 0.24376 0.0
H1696 H 0.5571 0.8486 0.48256 0.0
H1697 H 0.50856 0.85562 0.42732 0.0
H1698 H 0.56378 0.89322 0.4999 0.0
H1699 H 0.51456 0.89937 0.44482 0.0
H1700 H 0.55239 0.97926 0.45611 0.0
H1701 H 0.54253 0.93449 0.44436 0.0
H1702 H 0.55124 0.92966 0.52088 0.0
H1703 H 0.56176 0.97516 0.53254 0.0
C1704 C 0.54756 0.8595 0.47441 0.0
C1705 C 0.53254 0.84847 0.45326 0.0
C1706 C 0.55134 0.88512 0.48438 0.0
C1707 C 0.54007 0.90027 0.47352 0.0
C1708 C 0.52412 0.88872 0.45334 0.0
C1709 C 0.52056 0.86342 0.44332 0.0
C1710 C 0.55183 0.96868 0.4705 0.0
C1711 C 0.55723 0.98084 0.49528 0.0
C1712 C 0.54609 0.94286 0.46379 0.0
C1713 C 0.54575 0.92809 0.4816 0.0
C1714 C 0.5513 0.94027 0.50657 0.0
C1715 C 0.55702 0.96636 0.51333 0.0
H1716 H 0.51479 0.32051 0.63624 0.0
H1717 H 0.56171 0.31118 0.69202 0.0
H1718 H 0.48652 0.31708 0.66423 0.0
H1719 H 0.53321 0.307 0.7199 0.0
H1720 H 0.48312 0.32316 0.77261 0.0
H1721 H 0.5113 0.3286 0.74467 0.0
H1722 H 0.4632 0.28889 0.68321 0.0
H1723 H 0.43491 0.28384 0.71128 0.0
C1724 C 0.5191 0.31764 0.65448 0.0
C1725 C 0.54064 0.31615 0.6618 0.0
C1726 C 0.50276 0.31548 0.67054 0.0
C1727 C 0.50737 0.31166 0.69446 0.0
C1728 C 0.52898 0.31028 0.70182 0.0
C1729 C 0.54538 0.31255 0.68575 0.0
C1730 C 0.47853 0.31554 0.75313 0.0
C1731 C 0.45668 0.30292 0.74428 0.0
C1732 C 0.49478 0.31858 0.73705 0.0
C1733 C 0.48976 0.30903 0.71155 0.0
C1734 C 0.46777 0.2968 0.70263 0.0
C1735 C 0.45147 0.29387 0.71875 0.0
H1736 H 0.0299 0.81653 0.62367 0.0
H1737 H 0.06148 0.87903 0.68155 0.0
H1738 H 0.04085 0.84077 0.5929 0.0
H1739 H 0.07292 0.90319 0.65058 0.0
H1740 H 0.07121 0.94539 0.58731 0.0
H1741 H 0.05907 0.92251 0.61901 0.0
H1742 H 0.07424 0.8573 0.57653 0.0
H1743 H 0.08541 0.87978 0.54448 0.0
C1744 C 0.03921 0.83546 0.62985 0.0
C1745 C 0.04491 0.8458 0.65508 0.0
C1746 C 0.04561 0.84931 0.61218 0.0
C1747 C 0.05796 0.87384 0.61926 0.0
C1748 C 0.06328 0.8844 0.64452 0.0
C1749 C 0.0568 0.87052 0.66226 0.0
C1750 C 0.07178 0.92611 0.58468 0.0
C1751 C 0.07922 0.91439 0.56333 0.0
C1752 C 0.06505 0.91308 0.60296 0.0
C1753 C 0.06558 0.88804 0.60025 0.0
C1754 C 0.07329 0.87646 0.57904 0.0
C1755 C 0.07999 0.88945 0.5608 0.0
H1756 H 0.52769 0.79076 0.87896 0.0
H1757 H 0.56544 0.80535 0.8188 0.0
H1758 H 0.49469 0.79404 0.85532 0.0
H1759 H 0.53261 0.80925 0.79546 0.0
H1760 H 0.46658 0.80066 0.75261 0.0
H1761 H 0.4966 0.78895 0.77421 0.0
H1762 H 0.48189 0.82783 0.84343 0.0
H1763 H 0.45186 0.83928 0.82189 0.0
C1764 C 0.52891 0.7944 0.86059 0.0
C1765 C 0.54923 0.79799 0.85085 0.0
C1766 C 0.51002 0.79645 0.84711 0.0
C1767 C 0.51105 0.80221 0.82362 0.0
C1768 C 0.53117 0.80459 0.8134 0.0
C1769 C 0.55004 0.80244 0.82685 0.0
C1770 C 0.46977 0.80664 0.77245 0.0
C1771 C 0.4569 0.82096 0.78554 0.0
C1772 C 0.48695 0.79994 0.78482 0.0
C1773 C 0.49168 0.80746 0.81055 0.0
C1774 C 0.47847 0.82133 0.82366 0.0
C1775 C 0.46127 0.82796 0.81131 0.0
H1776 H 0.53029 0.20777 0.16387 0.0
H1777 H 0.51734 0.22987 0.09502 0.0
H1778 H 0.5394 0.17061 0.14151 0.0
H1779 H 0.52662 0.1927 0.07272 0.0
H1780 H 0.5212 0.11057 0.04167 0.0
H1781 H 0.51169 0.14712 0.06419 0.0
H1782 H 0.56928 0.16022 0.11636 0.0
H1783 H 0.5791 0.1235 0.09356 0.0
C1784 C 0.52923 0.20462 0.14396 0.0
C1785 C 0.52306 0.22175 0.13119 0.0
C1786 C 0.53465 0.18345 0.13121 0.0
C1787 C 0.53385 0.17888 0.10543 0.0
C1788 C 0.52724 0.19572 0.09261 0.0
C1789 C 0.52197 0.217 0.10537 0.0
C1790 C 0.53208 0.12134 0.05772 0.0
C1791 C 0.55116 0.1143 0.06556 0.0
C1792 C 0.52655 0.14229 0.07065 0.0
C1793 C 0.5398 0.15657 0.09191 0.0
C1794 C 0.5587 0.14941 0.10007 0.0
C1795 C 0.56436 0.12846 0.08698 0.0
H1796 H 0.16121 0.31767 0.32927 0.0
H1797 H 0.20098 0.33185 0.39924 0.0
H1798 H 0.19439 0.32038 0.3081 0.0
H1799 H 0.23403 0.33435 0.378 0.0
H1800 H 0.28086 0.3019 0.32815 0.0
H1801 H 0.24832 0.30295 0.34925 0.0
H1802 H 0.23 0.35159 0.30452 0.0
H1803 H 0.26282 0.35002 0.28285 0.0
C1804 C 0.17701 0.32136 0.34012 0.0
C1805 C 0.17848 0.32438 0.36593 0.0
C1806 C 0.19598 0.32309 0.328 0.0
C1807 C 0.21672 0.32749 0.34142 0.0
C1808 C 0.2182 0.33074 0.36721 0.0
C1809 C 0.19929 0.32934 0.37935 0.0
C1810 C 0.2699 0.31268 0.32265 0.0
C1811 C 0.27414 0.32554 0.30357 0.0
C1812 C 0.25135 0.31352 0.33496 0.0
C1813 C 0.23666 0.32739 0.32856 0.0
C1814 C 0.24102 0.34062 0.3097 0.0
C1815 C 0.25975 0.33982 0.29742 0.0
H1816 H 0.95836 0.05572 0.19198 0.0
H1817 H 0.01963 0.10605 0.22427 0.0
H1818 H 0.97317 0.04993 0.15183 0.0
H1819 H 0.03439 0.10009 0.18496 0.0
H1820 H 0.05353 0.10262 0.10736 0.0
H1821 H 0.03711 0.10787 0.14598 0.0
H1822 H 0.99629 0.03401 0.12388 0.0
H1823 H 0.01281 0.02894 0.08502 0.0
C1824 C 0.97496 0.0656 0.19075 0.0
C1825 C 0.98748 0.08152 0.21209 0.0
C1826 C 0.98367 0.06217 0.16745 0.0
C1827 C 1.0053 0.07459 0.16421 0.0
C1828 C 0.01764 0.09037 0.18568 0.0
C1829 C 1.00904 0.0937 0.20876 0.0
C1830 C 0.04124 0.08728 0.11065 0.0
C1831 C 0.03508 0.06516 0.09254 0.0
C1832 C 0.03163 0.09028 0.13322 0.0
C1833 C 0.01514 0.07136 0.13911 0.0
C1834 C 1.00865 0.04935 0.12071 0.0
C1835 C 0.01835 0.04634 0.0981 0.0
H1836 H 0.30931 0.68869 0.48083 0.0
H1837 H 0.23903 0.66161 0.46228 0.0
H1838 H 0.30767 0.72546 0.46471 0.0
H1839 H 0.23741 0.69862 0.44652 0.0
H1840 H 0.25245 0.75269 0.3924 0.0
H1841 H 0.24968 0.7172 0.41191 0.0
H1842 H 0.29333 0.76313 0.47459 0.0
H1843 H 0.29644 0.7986 0.45467 0.0
C1844 C 0.29353 0.69052 0.47322 0.0
C1845 C 0.27431 0.67219 0.47277 0.0
C1846 C 0.29255 0.71174 0.46429 0.0
C1847 C 0.27236 0.71506 0.45467 0.0
C1848 C 0.2532 0.69654 0.4538 0.0
C1849 C 0.25416 0.67532 0.46278 0.0
C1850 C 0.26106 0.75526 0.41059 0.0
C1851 C 0.27478 0.77824 0.422 0.0
C1852 C 0.25944 0.73498 0.42178 0.0
C1853 C 0.27157 0.73732 0.4446 0.0
C1854 C 0.28412 0.76073 0.45678 0.0
C1855 C 0.28567 0.78108 0.44559 0.0
H1856 H 0.69042 0.02205 0.66832 0.0
H1857 H 0.63133 0.99889 0.70208 0.0
H1858 H 0.66815 0.02444 0.63167 0.0
H1859 H 0.60909 1.0022 0.66586 0.0
H1860 H 0.62556 0.0616 0.58914 0.0
H1861 H 0.64706 0.05251 0.62256 0.0
H1862 H 0.59613 0.98752 0.62296 0.0
H1863 H 0.57418 0.99707 0.58971 0.0
C1864 C 0.67267 0.01725 0.66782 0.0
C1865 C 0.66265 1.01054 0.68819 0.0
C1866 C 0.65989 0.01882 0.6469 0.0
C1867 C 0.63682 0.014 0.646 0.0
C1868 C 0.62678 1.00593 0.66584 0.0
C1869 C 0.63957 1.00411 0.68668 0.0
C1870 C 0.61888 0.04535 0.59629 0.0
C1871 C 0.59812 0.03009 0.58675 0.0
C1872 C 0.63135 0.03999 0.61535 0.0
C1873 C 0.62348 0.0191 0.62529 0.0
C1874 C 0.60263 1.00385 0.61584 0.0
C1875 C 0.59005 1.00932 0.59679 0.0
H1876 H 0.28945 0.32773 0.96775 0.0
H1877 H 0.35002 0.383 0.97278 0.0
H1878 H 0.29205 0.31348 0.92387 0.0
H1879 H 0.35256 0.36867 0.92917 0.0
H1880 H 0.3255 0.36474 0.84814 0.0
H1881 H 0.32891 0.37296 0.89296 0.0
H1882 H 0.31457 0.29454 0.8912 0.0
H1883 H 0.31129 0.28633 0.84577 0.0
C1884 C 0.30349 0.33659 0.95965 0.0
C1885 C 0.31933 0.35679 0.97378 0.0
C1886 C 0.30504 0.32829 0.93453 0.0
C1887 C 0.32241 0.3401 0.923 0.0
C1888 C 0.33884 0.3594 0.93744 0.0
C1889 C 0.33735 0.3676 0.96248 0.0
C1890 C 0.32351 0.34926 0.85735 0.0
C1891 C 0.31861 0.32496 0.84359 0.0
C1892 C 0.32554 0.35395 0.88302 0.0
C1893 C 0.32215 0.33442 0.89568 0.0
C1894 C 0.31729 0.30997 0.88194 0.0
C1895 C 0.31561 0.30525 0.85604 0.0
H1896 H 0.96571 0.08621 0.36521 0.0
H1897 H 0.01233 0.04926 0.33037 0.0
H1898 H 0.98195 0.08311 0.40572 0.0
H1899 H 0.02844 0.04613 0.37044 0.0
H1900 H 0.06524 0.05953 0.45011 0.0
H1901 H 0.05041 0.06412 0.40945 0.0
H1902 H 0.98581 0.05673 0.43375 0.0
H1903 H 1.00054 0.05183 0.47374 0.0
C1904 C 0.97954 0.07766 0.36599 0.0
C1905 C 0.98745 0.06815 0.34381 0.0
C1906 C 0.98889 0.07559 0.3895 0.0
C1907 C 1.00684 0.0642 0.39216 0.0
C1908 C 0.01497 0.05527 0.36995 0.0
C1909 C 1.00548 0.05703 0.34657 0.0
C1910 C 0.0478 0.05838 0.44667 0.0
C1911 C 0.03419 0.05459 0.46559 0.0
C1912 C 0.03914 0.06122 0.42313 0.0
C1913 C 0.01656 0.06102 0.41753 0.0
C1914 C 1.0032 0.05744 0.43669 0.0
C1915 C 0.01175 0.05435 0.4599 0.0
H1916 H 0.25506 0.68198 0.58032 0.0
H1917 H 0.32518 0.68765 0.58816 0.0
H1918 H 0.25865 0.71104 0.61966 0.0
H1919 H 0.32873 0.71728 0.62737 0.0
H1920 H 0.32341 0.79032 0.68115 0.0
H1921 H 0.31889 0.76333 0.64051 0.0
H1922 H 0.27313 0.70718 0.66593 0.0
H1923 H 0.27839 0.73348 0.70691 0.0
C1924 C 0.27125 0.6896 0.59037 0.0
C1925 C 0.28987 0.68259 0.58127 0.0
C1926 C 0.27325 0.70614 0.61282 0.0
C1927 C 0.29394 0.71635 0.62629 0.0
C1928 C 0.31264 0.7097 0.61709 0.0
C1929 C 0.31058 0.6927 0.59484 0.0
C1930 C 0.31261 0.77217 0.67824 0.0
C1931 C 0.30187 0.76383 0.69757 0.0
C1932 C 0.30994 0.75681 0.65494 0.0
C1933 C 0.29591 0.73318 0.65038 0.0
C1934 C 0.28412 0.72535 0.66916 0.0
C1935 C 0.28716 0.74046 0.69259 0.0
H1936 H 0.65129 0.02318 0.78994 0.0
H1937 H 0.68594 0.09795 0.82341 0.0
H1938 H 0.61995 0.02868 0.81221 0.0
H1939 H 0.65425 0.10391 0.84486 0.0
H1940 H 0.60704 0.09217 0.90369 0.0
H1941 H 0.63674 0.09141 0.87794 0.0
H1942 H 0.59014 0.04844 0.81624 0.0
H1943 H 0.56046 0.04799 0.8427 0.0
C1944 C 0.65211 0.04086 0.80193 0.0
C1945 C 0.67114 0.06003 0.80519 0.0
C1946 C 0.63405 0.04414 0.81448 0.0
C1947 C 0.63451 0.06678 0.83032 0.0
C1948 C 0.65344 0.0861 0.83314 0.0
C1949 C 0.67162 0.0827 0.82085 0.0
C1950 C 0.60311 0.08266 0.88457 0.0
C1951 C 0.5815 0.06971 0.87532 0.0
C1952 C 0.62013 0.08246 0.86969 0.0
C1953 C 0.61592 0.06959 0.84505 0.0
C1954 C 0.59403 0.05807 0.8353 0.0
C1955 C 0.57697 0.0581 0.85033 0.0
H1956 H 0.30917 0.39275 0.11544 0.0
H1957 H 0.3386 0.33193 0.08885 0.0
H1958 H 0.3043 0.37855 0.154 0.0
H1959 H 0.33407 0.31799 0.12752 0.0
H1960 H 0.30511 0.28668 0.19129 0.0
H1961 H 0.30675 0.29985 0.15195 0.0
H1962 H 0.32624 0.37606 0.19062 0.0
H1963 H 0.32377 0.36281 0.2298 0.0
C1964 C 0.31456 0.37631 0.11776 0.0
C1965 C 0.32431 0.36352 0.09898 0.0
C1966 C 0.31189 0.36825 0.13997 0.0
C1967 C 0.31885 0.34715 0.14399 0.0
C1968 C 0.32827 0.33414 0.12502 0.0
C1969 C 0.33098 0.34223 0.10284 0.0
C1970 C 0.30954 0.30623 0.19138 0.0
C1971 C 0.31461 0.32364 0.21376 0.0
C1972 C 0.31069 0.31381 0.1688 0.0
C1973 C 0.3168 0.33905 0.16801 0.0
C1974 C 0.32137 0.35648 0.19043 0.0
C1975 C 0.32027 0.34887 0.21299 0.0
H1976 H 0.3061 0.03234 0.04339 0.0
H1977 H 0.24722 0.97356 0.03213 0.0
H1978 H 0.2846 0.06246 0.05738 0.0
H1979 H 0.22581 1.00362 0.04569 0.0
H1980 H 0.19464 0.05733 0.08983 0.0
H1981 H 0.22107 0.03147 0.08321 0.0
H1982 H 0.25579 0.08017 0.03999 0.0
H1983 H 0.22943 0.10626 0.04703 0.0
C1984 C 0.28858 0.02585 0.04384 0.0
C1985 C 0.27835 1.00055 0.03666 0.0
C1986 C 0.2763 0.04312 0.05183 0.0
C1987 C 0.25358 0.03539 0.05288 0.0
C1988 C 0.24338 1.01011 0.04559 0.0
C1989 C 0.25562 0.99288 0.03759 0.0
C1990 C 0.20826 0.06277 0.07942 0.0
C1991 C 0.20996 0.08358 0.06873 0.0
C1992 C 0.22325 0.04791 0.07546 0.0
C1993 C 0.24019 0.0535 0.06062 0.0
C1994 C 0.24292 0.07541 0.05154 0.0
C1995 C 0.2279 0.09038 0.0556 0.0
H1996 H 0.7445 0.599 0.98794 0.0
H1997 H 0.73264 0.67032 0.01859 0.0
H1998 H 0.70606 0.57962 0.98981 0.0
H1999 H 0.69412 0.65108 0.0198 0.0
H2000 H 0.63427 0.6056 0.04597 0.0
H2001 H 0.67204 0.62504 0.04228 0.0
H2002 H 0.66886 0.57551 0.97216 0.0
H2003 H 0.63096 0.55569 0.97608 0.0
C2004 C 0.73366 0.61058 0.9949 0.0
C2005 C 0.7417 0.63621 1.00325 0.0
C2006 C 0.71156 0.59948 0.99582 0.0
C2007 C 0.69694 0.61374 1.00503 0.0
C2008 C 0.70496 0.63943 0.013 0.0
C2009 C 0.72705 0.65051 0.01218 0.0
C2010 C 0.64153 0.59877 0.02973 0.0
C2011 C 0.62959 0.57872 0.01152 0.0
C2012 C 0.66324 0.61009 0.02753 0.0
C2013 C 0.6736 0.60185 1.00695 0.0
C2014 C 0.66156 0.58207 0.98849 0.0
C2015 C 0.6398 0.57068 0.99073 0.0
H2016 H 0.7193 0.42931 0.22379 0.0
H2017 H 0.73582 0.46284 0.30075 0.0
H2018 H 0.73916 0.39789 0.22853 0.0
H2019 H 0.75641 0.43134 0.30559 0.0
H2020 H 0.77858 0.35986 0.31413 0.0
H2021 H 0.76061 0.39302 0.30956 0.0
H2022 H 0.76843 0.38002 0.23203 0.0
H2023 H 0.78604 0.34605 0.23682 0.0
C2024 C 0.72726 0.43029 0.24195 0.0
C2025 C 0.72541 0.44938 0.26181 0.0
C2026 C 0.73908 0.41189 0.24466 0.0
C2027 C 0.75004 0.41108 0.26751 0.0
C2028 C 0.74832 0.4303 0.28751 0.0
C2029 C 0.7364 0.44886 0.28475 0.0
C2030 C 0.77674 0.36411 0.296 0.0
C2031 C 0.78447 0.34992 0.27605 0.0
C2032 C 0.76629 0.38361 0.29333 0.0
C2033 C 0.7625 0.39026 0.27035 0.0
C2034 C 0.77035 0.37604 0.25022 0.0
C2035 C 0.78093 0.35639 0.25295 0.0
H2036 H 0.89772 0.51681 0.56537 0.0
H2037 H 0.88895 0.45577 0.50319 0.0
H2038 H 0.93683 0.52815 0.56081 0.0
H2039 H 0.92783 0.46763 0.49798 0.0
H2040 H 1.00414 0.55208 0.53796 0.0
H2041 H 0.96443 0.54372 0.53666 0.0
H2042 H 0.96125 0.46528 0.5197 0.0
H2043 H 1.00115 0.47395 0.51955 0.0
C2044 C 0.90408 0.50618 0.55039 0.0
C2045 C 0.8904 0.48526 0.53483 0.0
C2046 C 0.92647 0.5127 0.5477 0.0
C2047 C 0.93551 0.49857 0.5292 0.0
C2048 C 0.9215 0.4785 0.51279 0.0
C2049 C 0.89921 0.47182 0.51567 0.0
C2050 C 0.99497 0.53312 0.53326 0.0
C2051 C 1.00564 0.51366 0.52799 0.0
C2052 C 0.97217 0.52828 0.53292 0.0
C2053 C 0.9596 0.50384 0.52796 0.0
C2054 C 0.97037 0.48435 0.52302 0.0
C2055 C 0.99319 0.48924 0.52313 0.0
H2056 H 0.43129 0.1532 0.2876 0.0
H2057 H 0.37697 0.08912 0.26681 0.0
H2058 H 0.41081 0.17665 0.26613 0.0
H2059 H 0.35697 0.11206 0.24458 0.0
H2060 H 0.37561 0.20511 0.20675 0.0
H2061 H 0.39704 0.18104 0.22616 0.0
H2062 H 0.3382 0.14384 0.25262 0.0
H2063 H 0.31682 0.16665 0.23218 0.0
C2064 C 0.41502 0.14411 0.27837 0.0
C2065 C 0.40565 0.11941 0.2791 0.0
C2066 C 0.40337 0.15747 0.26587 0.0
C2067 C 0.38221 0.14628 0.25366 0.0
C2068 C 0.37303 0.12145 0.25419 0.0
C2069 C 0.38453 0.10824 0.2669 0.0
C2070 C 0.36726 0.19145 0.21635 0.0
C2071 C 0.34455 0.1879 0.21806 0.0
C2072 C 0.37957 0.1779 0.22776 0.0
C2073 C 0.36937 0.16051 0.24102 0.0
C2074 C 0.3466 0.15679 0.24232 0.0
C2075 C 0.33436 0.17014 0.23085 0.0
H2076 H 0.3905 0.17758 0.51047 0.0
H2077 H 0.33595 0.12652 0.53026 0.0
H2078 H 0.41437 0.14981 0.51595 0.0
H2079 H 0.35994 0.09903 0.53633 0.0
H2080 H 0.40334 0.04389 0.52118 0.0
H2081 H 0.37956 0.07141 0.51441 0.0
H2082 H 0.43216 0.13453 0.54734 0.0
H2083 H 0.45597 0.10698 0.55392 0.0
C2084 C 0.3836 0.16047 0.51609 0.0
C2085 C 0.36127 0.15432 0.5199 0.0
C2086 C 0.39734 0.14459 0.51938 0.0
C2087 C 0.38915 0.12212 0.52663 0.0
C2088 C 0.36679 0.11597 0.5304 0.0
C2089 C 0.35303 0.13183 0.52705 0.0
C2090 C 0.4098 0.06364 0.52712 0.0
C2091 C 0.43158 0.07319 0.53815 0.0
C2092 C 0.39614 0.07945 0.52326 0.0
C2093 C 0.40386 0.10526 0.53037 0.0
C2094 C 0.42571 0.1148 0.54127 0.0
C2095 C 0.43939 0.09898 0.54507 0.0
H2096 H 0.75316 0.58846 0.27795 0.0
H2097 H 0.69534 0.61803 0.28286 0.0
H2098 H 0.77557 0.63025 0.27857 0.0
H2099 H 0.7173 0.65898 0.28361 0.0
H2100 H 0.7558 0.72608 0.25907 0.0
H2101 H 0.73617 0.68402 0.25851 0.0
H2102 H 0.7911 0.67332 0.30264 0.0
H2103 H 0.81091 0.71597 0.30331 0.0
C2104 C 0.74514 0.60368 0.27917 0.0
C2105 C 0.72215 0.5993 0.28024 0.0
C2106 C 0.75807 0.62787 0.27965 0.0
C2107 C 0.74849 0.64853 0.2809 0.0
C2108 C 0.72558 0.64394 0.28214 0.0
C2109 C 0.71283 0.62009 0.28187 0.0
C2110 C 0.76392 0.71499 0.26873 0.0
C2111 C 0.78533 0.725 0.28108 0.0
C2112 C 0.75244 0.69054 0.26851 0.0
C2113 C 0.76171 0.67466 0.2806 0.0
C2114 C 0.78324 0.68451 0.29282 0.0
C2115 C 0.79472 0.7092 0.29321 0.0
H2116 H 0.89316 0.47299 0.73518 0.0
H2117 H 0.89832 0.47662 0.81375 0.0
H2118 H 0.87577 0.42929 0.72809 0.0
H2119 H 0.88056 0.43283 0.80662 0.0
H2120 H 0.82406 0.35811 0.72486 0.0
H2121 H 0.84318 0.4015 0.73109 0.0
H2122 H 0.88534 0.39255 0.79193 0.0
H2123 H 0.86549 0.34948 0.78609 0.0
C2124 C 0.89056 0.46446 0.75096 0.0
C2125 C 0.89713 0.4783 0.77503 0.0
C2126 C 0.88051 0.43934 0.74687 0.0
C2127 C 0.87679 0.42739 0.76672 0.0
C2128 C 0.88345 0.44127 0.79084 0.0
C2129 C 0.89351 0.46644 0.79496 0.0
C2130 C 0.83737 0.3656 0.7396 0.0
C2131 C 0.84275 0.35095 0.75567 0.0
C2132 C 0.84848 0.39037 0.74308 0.0
C2133 C 0.86564 0.40072 0.76229 0.0
C2134 C 0.87179 0.38546 0.77745 0.0
C2135 C 0.86044 0.36079 0.77416 0.0
H2136 H 0.11215 0.90722 0.1141 0.0
H2137 H 0.0678 0.86706 0.04983 0.0
H2138 H 0.10957 0.94622 0.10241 0.0
H2139 H 0.06528 0.90599 0.03812 0.0
H2140 H 0.08129 0.9836 0.01462 0.0
H2141 H 0.08512 0.9435 0.02353 0.0
H2142 H 0.08237 0.97119 0.10075 0.0
H2143 H 0.0782 1.01049 0.0918 0.0
C2144 C 0.10201 0.90659 0.09735 0.0
C2145 C 0.09019 0.88367 0.08307 0.0
C2146 C 0.10038 0.92909 0.09066 0.0
C2147 C 0.08709 0.92958 0.06925 0.0
C2148 C 0.07581 0.90663 0.05458 0.0
C2149 C 0.07721 0.88416 0.06145 0.0
C2150 C 0.08114 0.98091 0.03339 0.0
C2151 C 0.07892 1.00026 0.05239 0.0
C2152 C 0.08348 0.95792 0.0386 0.0
C2153 C 0.08427 0.95386 0.06302 0.0
C2154 C 0.0822 0.9734 0.08181 0.0
C2155 C 0.07961 0.99603 0.0766 0.0
H2156 H 0.94988 0.30346 0.92277 0.0
H2157 H 0.97504 0.2612 0.86291 0.0
H2158 H 0.91963 0.30625 0.89461 0.0
H2159 H 0.94456 0.26417 0.83442 0.0
H2160 H 0.87347 0.25479 0.79625 0.0
H2161 H 0.90473 0.25105 0.82272 0.0
H2162 H 0.9121 0.32631 0.8615 0.0
H2163 H 0.88102 0.33007 0.83497 0.0
C2164 C 0.94899 0.29465 0.90357 0.0
C2165 C 0.96511 0.28207 0.89529 0.0
C2166 C 0.93161 0.29646 0.88727 0.0
C2167 C 0.92955 0.28567 0.862 0.0
C2168 C 0.94541 0.27264 0.85371 0.0
C2169 C 0.96299 0.27096 0.87008 0.0
C2170 C 0.88171 0.27059 0.81038 0.0
C2171 C 0.87409 0.29253 0.81377 0.0
C2172 C 0.89983 0.26846 0.82556 0.0
C2173 C 0.91094 0.28821 0.84469 0.0
C2174 C 0.90374 0.31041 0.84749 0.0
C2175 C 0.88577 0.31257 0.83222 0.0
H2176 H 0.57388 0.23792 0.61016 0.0
H2177 H 0.60959 0.24027 0.54649 0.0
H2178 H 0.56699 0.19296 0.6012 0.0
H2179 H 0.60306 0.19521 0.53778 0.0
H2180 H 0.5685 0.11118 0.51726 0.0
H2181 H 0.57586 0.15635 0.52422 0.0
H2182 H 0.58546 0.16053 0.60269 0.0
H2183 H 0.57801 0.11555 0.59556 0.0
C2184 C 0.58024 0.2289 0.59419 0.0
C2185 C 0.59233 0.24298 0.57912 0.0
C2186 C 0.57645 0.20298 0.58913 0.0
C2187 C 0.58461 0.19016 0.56883 0.0
C2188 C 0.59632 0.20422 0.55345 0.0
C2189 C 0.60014 0.23019 0.55853 0.0
C2190 C 0.57263 0.12179 0.53593 0.0
C2191 C 0.57318 0.10972 0.55583 0.0
C2192 C 0.57676 0.14778 0.53999 0.0
C2193 C 0.58115 0.16239 0.5641 0.0
C2194 C 0.5818 0.15013 0.58389 0.0
C2195 C 0.57773 0.12427 0.57981 0.0
H2196 H 0.61576 0.76956 0.41683 0.0
H2197 H 0.57075 0.78569 0.36342 0.0
H2198 H 0.64496 0.77608 0.39023 0.0
H2199 H 0.59996 0.79187 0.33655 0.0
H2200 H 0.66275 0.82692 0.30656 0.0
H2201 H 0.63408 0.82037 0.33372 0.0
H2202 H 0.65724 0.75872 0.35186 0.0
H2203 H 0.686 0.76523 0.32447 0.0
C2204 C 0.61202 0.7744 0.39935 0.0
C2205 C 0.5908 0.77713 0.39237 0.0
C2206 C 0.62881 0.77801 0.38398 0.0
C2207 C 0.62497 0.78455 0.36115 0.0
C2208 C 0.6037 0.78718 0.35411 0.0
C2209 C 0.58685 0.78348 0.36947 0.0
C2210 C 0.66171 0.81183 0.31619 0.0
C2211 C 0.6767 0.79647 0.31303 0.0
C2212 C 0.64516 0.80804 0.33179 0.0
C2213 C 0.64306 0.78884 0.3449 0.0
C2214 C 0.65838 0.77383 0.34226 0.0
C2215 C 0.67496 0.7776 0.32656 0.0
H2216 H 0.10914 0.25249 0.42594 0.0
H2217 H 0.09512 0.31261 0.47799 0.0
H2218 H 0.1034 0.22634 0.45627 0.0
H2219 H 0.08984 0.28664 0.50841 0.0
H2220 H 0.05492 0.22182 0.54267 0.0
H2221 H 0.06349 0.2509 0.51536 0.0
H2222 H 0.11943 0.2213 0.49544 0.0
H2223 H 0.11073 0.19217 0.52256 0.0
C2224 C 0.10501 0.26019 0.4439 0.0
C2225 C 0.10251 0.2846 0.44949 0.0
C2226 C 0.10186 0.24526 0.46135 0.0
C2227 C 0.09616 0.25442 0.48479 0.0
C2228 C 0.09393 0.27892 0.49045 0.0
C2229 C 0.09708 0.29384 0.47301 0.0
C2230 C 0.06928 0.22189 0.53281 0.0
C2231 C 0.08203 0.2046 0.53457 0.0
C2232 C 0.07419 0.2385 0.51713 0.0
C2233 C 0.092 0.23821 0.50297 0.0
C2234 C 0.10531 0.22164 0.50564 0.0
C2235 C 0.10038 0.20503 0.52125 0.0
H2236 H 0.57703 0.29121 0.25242 0.0
H2237 H 0.59609 0.26128 0.18182 0.0
H2238 H 0.60724 0.27858 0.27319 0.0
H2239 H 0.62569 0.24847 0.20251 0.0
H2240 H 0.65945 0.20428 0.24558 0.0
H2241 H 0.62649 0.21626 0.23083 0.0
H2242 H 0.65122 0.28993 0.27449 0.0
H2243 H 0.6843 0.27799 0.28912 0.0
C2244 C 0.58768 0.28208 0.24138 0.0
C2245 C 0.58421 0.27727 0.21551 0.0
C2246 C 0.60487 0.27484 0.25325 0.0
C2247 C 0.61848 0.26224 0.23938 0.0
C2248 C 0.61517 0.25778 0.21358 0.0
C2249 C 0.59834 0.26537 0.20178 0.0
C2250 C 0.65755 0.22282 0.2525 0.0
C2251 C 0.67438 0.24027 0.26835 0.0
C2252 C 0.63882 0.22971 0.24395 0.0
C2253 C 0.63651 0.25405 0.25141 0.0
C2254 C 0.65264 0.27105 0.26856 0.0
C2255 C 0.67153 0.26425 0.27682 0.0
H2256 H 0.57786 0.89153 0.88227 0.0
H2257 H 0.62557 0.88432 0.93854 0.0
H2258 H 0.5709 0.92728 0.90958 0.0
H2259 H 0.61932 0.92072 0.96555 0.0
H2260 H 0.5836 0.96798 0.01695 0.0
H2261 H 0.59217 0.93315 0.98965 0.0
H2262 H 0.58616 0.96909 0.92823 0.0
H2263 H 0.57703 1.00343 0.95555 0.0
C2264 C 0.58711 0.89784 0.90034 0.0
C2265 C 0.60219 0.88511 0.90831 0.0
C2266 C 0.58321 0.91841 0.91599 0.0
C2267 C 0.59451 0.92686 0.93982 0.0
C2268 C 0.61001 0.91443 0.94752 0.0
C2269 C 0.61372 0.89369 0.93197 0.0
C2270 C 0.58434 0.96849 0.99772 0.0
C2271 C 0.57962 0.98831 0.98838 0.0
C2272 C 0.58927 0.94856 0.98201 0.0
C2273 C 0.58983 0.94828 0.95669 0.0
C2274 C 0.58543 0.96842 0.9475 0.0
C2275 C 0.58023 0.98812 0.96316 0.0
H2276 H 0.96407 0.80594 0.71286 0.0
H2277 H 0.94987 0.72862 0.71633 0.0
H2278 H 0.92734 0.80808 0.72303 0.0
H2279 H 0.91282 0.73056 0.72587 0.0
H2280 H 0.857 0.7498 0.76922 0.0
H2281 H 0.89314 0.74597 0.7573 0.0
H2282 H 0.88979 0.79622 0.70807 0.0
H2283 H 0.85395 0.80042 0.72083 0.0
C2284 C 0.95306 0.78935 0.71573 0.0
C2285 C 0.95994 0.76713 0.71389 0.0
C2286 C 0.9319 0.79054 0.72142 0.0
C2287 C 0.91702 0.76952 0.72535 0.0
C2288 C 0.92391 0.74724 0.7234 0.0
C2289 C 0.94515 0.74609 0.71782 0.0
C2290 C 0.86429 0.76023 0.75613 0.0
C2291 C 0.85349 0.77637 0.74684 0.0
C2292 C 0.88478 0.75776 0.74894 0.0
C2293 C 0.89461 0.77104 0.73192 0.0
C2294 C 0.88307 0.78627 0.72174 0.0
C2295 C 0.86259 0.78873 0.72901 0.0
H2296 H 0.16496 0.07388 0.86059 0.0
H2297 H 0.14254 0.99476 0.83957 0.0
H2298 H 0.14522 0.07425 0.89643 0.0
H2299 H 0.12281 0.99493 0.87661 0.0
H2300 H 0.07648 1.00456 0.93997 0.0
H2301 H 0.09494 1.00184 0.90223 0.0
H2302 H 0.14229 0.06943 0.93547 0.0
H2303 H 0.12344 0.07247 0.97227 0.0
C2304 C 0.15591 0.05627 0.86353 0.0
C2305 C 0.15586 0.03428 0.84642 0.0
C2306 C 0.14448 0.05647 0.88476 0.0
C2307 C 0.13221 0.03462 0.8907 0.0
C2308 C 0.13176 1.01244 0.87337 0.0
C2309 C 0.14328 1.01226 0.85181 0.0
C2310 C 0.0907 0.01904 0.93922 0.0
C2311 C 0.0979 0.03899 0.95977 0.0
C2312 C 0.10161 0.01736 0.91731 0.0
C2313 C 0.12041 0.03553 0.91466 0.0
C2314 C 0.12774 0.05514 0.93554 0.0
C2315 C 0.11683 0.05684 0.95726 0.0
H2316 H 0.83122 0.38425 0.59123 0.0
H2317 H 0.88102 0.44994 0.62476 0.0
H2318 H 0.84359 0.3626 0.62139 0.0
H2319 H 0.89375 0.42806 0.65457 0.0
H2320 H 0.89256 0.38686 0.71956 0.0
H2321 H 0.88304 0.41044 0.6895 0.0
H2322 H 0.87476 0.34599 0.63125 0.0
H2323 H 0.88432 0.32249 0.66112 0.0
C2324 C 0.84481 0.39408 0.60503 0.0
C2325 C 0.85515 0.4188 0.60556 0.0
C2326 C 0.85204 0.3816 0.62219 0.0
C2327 C 0.86984 0.39351 0.64022 0.0
C2328 C 0.87992 0.41839 0.64103 0.0
C2329 C 0.87264 0.43091 0.62389 0.0
C2330 C 0.8891 0.37789 0.70027 0.0
C2331 C 0.88893 0.35275 0.69272 0.0
C2332 C 0.88355 0.39136 0.68311 0.0
C2333 C 0.87766 0.37995 0.65812 0.0
C2334 C 0.8786 0.35515 0.65046 0.0
C2335 C 0.88418 0.34172 0.66755 0.0
H2336 H 0.4333 0.07539 0.4066 0.0
H2337 H 0.4846 0.08995 0.35927 0.0
H2338 H 0.46066 0.07367 0.43906 0.0
H2339 H 0.51183 0.08774 0.39162 0.0
H2340 H 0.55623 0.0926 0.46388 0.0
H2341 H 0.53125 0.10422 0.4347 0.0
H2342 H 0.48061 0.04046 0.43919 0.0
H2343 H 0.50512 0.02889 0.46783 0.0
C2344 C 0.45043 0.0787 0.40327 0.0
C2345 C 0.45669 0.08229 0.38019 0.0
C2346 C 0.46609 0.07759 0.42181 0.0
C2347 C 0.48829 0.08002 0.41763 0.0
C2348 C 0.49485 0.08577 0.39535 0.0
C2349 C 0.47919 0.08692 0.37679 0.0
C2350 C 0.53981 0.08101 0.45843 0.0
C2351 C 0.53263 0.05993 0.46835 0.0
C2352 C 0.52551 0.08773 0.44186 0.0
C2353 C 0.50383 0.07356 0.43516 0.0
C2354 C 0.49699 0.05218 0.44458 0.0
C2355 C 0.51118 0.04543 0.46088 0.0
H2356 H 0.83314 0.72535 0.08834 0.0
H2357 H 0.77692 0.75734 0.08141 0.0
H2358 H 0.83744 0.7406 0.13278 0.0
H2359 H 0.78156 0.77289 0.12618 0.0
H2360 H 0.81787 0.8111 0.20983 0.0
H2361 H 0.81345 0.80271 0.16432 0.0
H2362 H 0.80791 0.72516 0.16273 0.0
H2363 H 0.8116 0.73334 0.2076 0.0
C2364 C 0.82194 0.73603 0.09618 0.0
C2365 C 0.80452 0.73985 0.08126 0.0
C2366 C 0.82441 0.74473 0.12166 0.0
C2367 C 0.80973 0.75774 0.13286 0.0
C2368 C 0.79313 0.76297 0.11794 0.0
C2369 C 0.79046 0.75398 0.09236 0.0
C2370 C 0.81514 0.79226 0.19962 0.0
C2371 C 0.81458 0.77276 0.21211 0.0
C2372 C 0.81278 0.78749 0.1737 0.0
C2373 C 0.81055 0.76331 0.16011 0.0
C2374 C 0.80981 0.74397 0.17275 0.0
C2375 C 0.81182 0.74865 0.19839 0.0
H2376 H 0.13047 0.02864 0.71154 0.0
H2377 H 0.18368 0.01507 0.66993 0.0
H2378 H 0.11008 0.03334 0.6738 0.0
H2379 H 0.16353 0.01853 0.63279 0.0
H2380 H 0.13576 0.0444 0.56901 0.0
H2381 H 0.15313 0.04147 0.60815 0.0
H2382 H 0.08942 0.02288 0.63412 0.0
H2383 H 0.07201 0.0271 0.59441 0.0
C2384 C 0.13781 0.02622 0.69442 0.0
C2385 C 0.15914 0.02148 0.69448 0.0
C2386 C 0.126 0.02901 0.67242 0.0
C2387 C 0.13486 0.02707 0.64932 0.0
C2388 C 0.15582 0.02134 0.64959 0.0
C2389 C 0.16756 0.01892 0.67135 0.0
C2390 C 0.12529 0.03996 0.58307 0.0
C2391 C 0.10229 0.03634 0.57799 0.0
C2392 C 0.13538 0.0378 0.60589 0.0
C2393 C 0.12315 0.0311 0.62518 0.0
C2394 C 0.09994 0.028 0.62036 0.0
C2395 C 0.08976 0.03052 0.59732 0.0
H2396 H 0.80419 0.42363 0.443 0.0
H2397 H 0.82589 0.37143 0.48065 0.0
H2398 H 0.80783 0.39855 0.40357 0.0
H2399 H 0.83043 0.34678 0.44123 0.0
H2400 H 0.81824 0.29812 0.36284 0.0
H2401 H 0.81339 0.32047 0.40331 0.0
H2402 H 0.83679 0.38969 0.38078 0.0
H2403 H 0.84023 0.36742 0.34012 0.0
C2404 C 0.80963 0.40671 0.44284 0.0
C2405 C 0.81484 0.39959 0.46494 0.0
C2406 C 0.81197 0.39244 0.42024 0.0
C2407 C 0.81989 0.37087 0.41919 0.0
C2408 C 0.82422 0.3632 0.44128 0.0
C2409 C 0.82162 0.37736 0.46391 0.0
C2410 C 0.82211 0.31811 0.36648 0.0
C2411 C 0.82861 0.33091 0.34783 0.0
C2412 C 0.81958 0.33096 0.38981 0.0
C2413 C 0.82405 0.35694 0.39513 0.0
C2414 C 0.83232 0.36969 0.37706 0.0
C2415 C 0.83453 0.35686 0.35372 0.0
H2416 H 0.46033 0.05279 0.2395 0.0
H2417 H 0.49969 0.02939 0.29323 0.0
H2418 H 0.48888 0.05193 0.21201 0.0
H2419 H 0.52856 0.02898 0.26571 0.0
H2420 H 0.56445 1.00926 0.19564 0.0
H2421 H 0.53701 1.00787 0.22516 0.0
H2422 H 0.52586 0.07745 0.21257 0.0
H2423 H 0.55295 0.07866 0.18311 0.0
C2424 C 0.47505 0.04738 0.24542 0.0
C2425 C 0.47785 0.04139 0.26863 0.0
C2426 C 0.49147 0.04705 0.22973 0.0
C2427 C 0.5111 0.0408 0.23691 0.0
C2428 C 0.51359 0.03385 0.25971 0.0
C2429 C 0.49709 0.03415 0.27546 0.0
C2430 C 0.55634 0.02439 0.19956 0.0
C2431 C 0.56056 0.04392 0.18695 0.0
C2432 C 0.54065 0.02358 0.21637 0.0
C2433 C 0.52903 0.04232 0.22079 0.0
C2434 C 0.53413 0.06242 0.20904 0.0
C2435 C 0.54969 0.06318 0.19228 0.0
H2436 H 0.79611 0.6991 0.93641 0.0
H2437 H 0.83832 0.76979 0.97153 0.0
H2438 H 0.79559 0.71233 0.89715 0.0
H2439 H 0.83749 0.78317 0.93229 0.0
H2440 H 0.84932 0.78929 0.85284 0.0
H2441 H 0.85043 0.77559 0.89186 0.0
H2442 H 0.78112 0.74069 0.87665 0.0
H2443 H 0.78012 0.75394 0.8374 0.0
C2444 C 0.80525 0.7175 0.9358 0.0
C2445 C 0.81726 0.73337 0.9572 0.0
C2446 C 0.80484 0.72515 0.91327 0.0
C2447 C 0.81646 0.74885 0.9115 0.0
C2448 C 0.82856 0.76468 0.93288 0.0
C2449 C 0.82893 0.75705 0.95544 0.0
C2450 C 0.83433 0.77858 0.85773 0.0
C2451 C 0.81464 0.77266 0.8419 0.0
C2452 C 0.83493 0.77089 0.88024 0.0
C2453 C 0.81586 0.75703 0.88748 0.0
C2454 C 0.79619 0.75106 0.87157 0.0
C2455 C 0.79558 0.7588 0.8491 0.0
H2456 H 0.88345 0.14596 0.01888 0.0
H2457 H 0.82677 0.08673 0.98833 0.0
H2458 H 0.90718 0.11704 0.01176 0.0
H2459 H 0.85059 0.0579 0.98086 0.0
H2460 H 0.89941 1.01054 0.99936 0.0
H2461 H 0.87392 0.03788 1.00363 0.0
H2462 H 0.9206 0.09284 0.97749 0.0
H2463 H 0.94598 0.06563 0.97333 0.0
C2464 C 0.87605 0.1268 0.01056 0.0
C2465 C 0.85322 0.11869 1.00416 0.0
C2466 C 0.88967 0.11024 1.00633 0.0
C2467 C 0.88078 0.08518 0.99561 0.0
C2468 C 0.85793 0.07703 0.98932 0.0
C2469 C 0.8443 0.09361 0.9935 0.0
C2470 C 0.90402 0.02829 0.99414 0.0
C2471 C 0.92477 0.03605 0.98628 0.0
C2472 C 0.88946 0.04397 0.99662 0.0
C2473 C 0.89538 0.06768 0.99124 0.0
C2474 C 0.91576 0.07494 0.98236 0.0
C2475 C 0.93026 0.05932 0.97989 0.0
H2476 H 0.39155 0.47241 0.06184 0.0
H2477 H 0.41435 0.40576 0.03916 0.0
H2478 H 0.42853 0.49722 0.06051 0.0
H2479 H 0.45107 0.43047 0.03795 0.0
H2480 H 0.50165 0.48125 1.00352 0.0
H2481 H 0.46602 0.4578 0.0099 0.0
H2482 H 0.46856 0.50717 0.07987 0.0
H2483 H 0.50472 0.53079 0.07366 0.0
C2484 C 0.40446 0.46305 0.05686 0.0
C2485 C 0.39991 0.43709 0.05036 0.0
C2486 C 0.42565 0.47726 0.05621 0.0
C2487 C 0.44263 0.46579 0.04886 0.0
C2488 C 0.43824 0.43985 0.04331 0.0
C2489 C 0.41718 0.42569 0.0441 0.0
C2490 C 0.49473 0.48729 0.0203 0.0
C2491 C 0.50601 0.50823 0.03791 0.0
C2492 C 0.4743 0.47366 0.02401 0.0
C2493 C 0.46448 0.48058 0.04541 0.0
C2494 C 0.47565 0.50153 0.06309 0.0
C2495 C 0.49633 0.51508 0.05949 0.0
H2496 H 0.42176 0.65888 0.73562 0.0
H2497 H 0.39469 0.63954 0.80044 0.0
H2498 H 0.40206 0.69114 0.73725 0.0
H2499 H 0.37406 0.67247 0.80188 0.0
H2500 H 0.35147 0.75048 0.80556 0.0
H2501 H 0.3698 0.71616 0.80801 0.0
H2502 H 0.36995 0.70208 0.72913 0.0
H2503 H 0.35242 0.73589 0.72699 0.0
C2504 C 0.41146 0.66118 0.75038 0.0
C2505 C 0.41028 0.64557 0.76774 0.0
C2506 C 0.39967 0.6801 0.75119 0.0
C2507 C 0.38553 0.68511 0.76942 0.0
C2508 C 0.38448 0.66986 0.7873 0.0
C2509 C 0.39644 0.65059 0.78645 0.0
C2510 C 0.35515 0.73986 0.78869 0.0
C2511 C 0.34992 0.74646 0.76593 0.0
C2512 C 0.3659 0.71991 0.79006 0.0
C2513 C 0.3723 0.70573 0.76884 0.0
C2514 C 0.36638 0.71222 0.74629 0.0
C2515 C 0.35582 0.73187 0.74496 0.0
H2516 H 0.22521 0.57846 0.49928 0.0
H2517 H 0.22813 0.61576 0.57513 0.0
H2518 H 0.18528 0.57226 0.49493 0.0
H2519 H 0.18817 0.60981 0.57064 0.0
H2520 H 0.11997 0.61958 0.54197 0.0
H2521 H 0.1602 0.62552 0.54628 0.0
H2522 H 0.15296 0.54905 0.51106 0.0
H2523 H 0.11338 0.54368 0.50591 0.0
C2524 C 0.21726 0.58498 0.51511 0.0
C2525 C 0.22971 0.59742 0.53757 0.0
C2526 C 0.19445 0.58148 0.51262 0.0
C2527 C 0.1837 0.59065 0.53244 0.0
C2528 C 0.19609 0.60266 0.55506 0.0
C2529 C 0.2189 0.60581 0.55768 0.0
C2530 C 0.12713 0.60416 0.53524 0.0
C2531 C 0.11364 0.58079 0.52499 0.0
C2532 C 0.15001 0.60747 0.5378 0.0
C2533 C 0.1596 0.58758 0.52944 0.0
C2534 C 0.14602 0.56463 0.51791 0.0
C2535 C 0.12328 0.56137 0.51547 0.0
H2536 H 0.71113 0.96241 0.79853 0.0
H2537 H 0.76506 1.00025 0.76494 0.0
H2538 H 0.73585 0.94157 0.81746 0.0
H2539 H 0.78962 0.979 0.7834 0.0
H2540 H 0.83222 0.96059 0.84339 0.0
H2541 H 0.80661 0.98001 0.82398 0.0
H2542 H 0.75753 0.91098 0.80862 0.0
H2543 H 0.7828 0.89188 0.82908 0.0
C2544 C 0.7282 0.96608 0.79495 0.0
C2545 C 0.73615 0.98312 0.78035 0.0
C2546 C 0.74235 0.95405 0.80573 0.0
C2547 C 0.76476 0.95878 0.80212 0.0
C2548 C 0.77255 0.97531 0.78695 0.0
C2549 C 0.75842 0.98736 0.77622 0.0
C2550 C 0.81586 0.94966 0.8362 0.0
C2551 C 0.80958 0.9247 0.83778 0.0
C2552 C 0.80128 0.96068 0.82475 0.0
C2553 C 0.78008 0.947 0.81455 0.0
C2554 C 0.77369 0.9221 0.8164 0.0
C2555 C 0.78826 0.91108 0.82791 0.0
H2556 H 0.80016 0.97188 0.52997 0.0
H2557 H 0.7455 0.91846 0.54628 0.0
H2558 H 0.77563 0.99871 0.52347 0.0
H2559 H 0.72109 0.94553 0.54044 0.0
H2560 H 0.67932 0.9869 0.50109 0.0
H2561 H 0.70394 0.96049 0.50859 0.0
H2562 H 0.75423 0.02498 0.54402 0.0
H2563 H 0.72964 0.05137 0.53624 0.0
C2564 C 0.78295 0.96594 0.53239 0.0
C2565 C 0.77482 0.94295 0.53858 0.0
C2566 C 0.76887 0.98141 0.52878 0.0
C2567 C 0.7463 0.97432 0.53134 0.0
C2568 C 0.73827 0.95145 0.53787 0.0
C2569 C 0.75233 0.93597 0.5414 0.0
C2570 C 0.69557 0.99544 0.51067 0.0
C2571 C 0.70248 0.02128 0.51803 0.0
C2572 C 0.70971 0.98027 0.51502 0.0
C2573 C 0.73115 0.99053 0.52694 0.0
C2574 C 0.738 0.0164 0.53443 0.0
C2575 C 0.72388 0.03156 0.52999 0.0
H2576 H 0.38072 0.50727 0.77099 0.0
H2577 H 0.43914 0.47871 0.77183 0.0
H2578 H 0.35839 0.46573 0.77142 0.0
H2579 H 0.41726 0.43797 0.77204 0.0
H2580 H 0.37763 0.37172 0.79711 0.0
H2581 H 0.39743 0.41356 0.79674 0.0
H2582 H 0.34371 0.42238 0.74931 0.0
H2583 H 0.32379 0.38009 0.74964 0.0
C2584 C 0.38889 0.49231 0.77123 0.0
C2585 C 0.41201 0.49692 0.77146 0.0
C2586 C 0.37601 0.46826 0.77137 0.0
C2587 C 0.38576 0.44795 0.77203 0.0
C2588 C 0.40882 0.45275 0.77207 0.0
C2589 C 0.42153 0.47647 0.77175 0.0
C2590 C 0.36985 0.38238 0.78653 0.0
C2591 C 0.34874 0.37198 0.77358 0.0
C2592 C 0.38141 0.40669 0.7862 0.0
C2593 C 0.37252 0.42198 0.77291 0.0
C2594 C 0.35128 0.4117 0.76007 0.0
C2595 C 0.33973 0.38719 0.76026 0.0
H2596 H 0.26491 0.611 0.28072 0.0
H2597 H 0.23781 0.61425 0.2082 0.0
H2598 H 0.28038 0.65556 0.28917 0.0
H2599 H 0.25315 0.65888 0.21688 0.0
H2600 H 0.25202 0.73763 0.26126 0.0
H2601 H 0.24174 0.69246 0.24983 0.0
H2602 H 0.30815 0.68973 0.27305 0.0
H2603 H 0.31843 0.73503 0.28431 0.0
C2604 C 0.26257 0.62117 0.26646 0.0
C2605 C 0.25 0.60921 0.24388 0.0
C2606 C 0.27149 0.64661 0.27128 0.0
C2607 C 0.26771 0.66054 0.25375 0.0
C2608 C 0.25606 0.64846 0.23075 0.0
C2609 C 0.24741 0.62295 0.22577 0.0
C2610 C 0.26439 0.7273 0.26369 0.0
C2611 C 0.28612 0.73959 0.27281 0.0
C2612 C 0.25859 0.70158 0.25708 0.0
C2613 C 0.27428 0.68776 0.26021 0.0
C2614 C 0.29584 0.70006 0.27029 0.0
C2615 C 0.30174 0.72586 0.27653 0.0
H2616 H 0.51337 0.70908 0.49909 0.0
H2617 H 0.55458 0.70355 0.4401 0.0
H2618 H 0.52204 0.67241 0.51043 0.0
H2619 H 0.56387 0.66724 0.45187 0.0
H2620 H 0.55656 0.58693 0.4597 0.0
H2621 H 0.55081 0.62554 0.45075 0.0
H2622 H 0.54656 0.65219 0.52794 0.0
H2623 H 0.55165 0.61256 0.53664 0.0
C2624 C 0.52444 0.70018 0.48854 0.0
C2625 C 0.53306 0.70949 0.46842 0.0
C2626 C 0.52961 0.67905 0.49526 0.0
C2627 C 0.54369 0.66628 0.48219 0.0
C2628 C 0.55262 0.67592 0.4623 0.0
C2629 C 0.54737 0.69701 0.45551 0.0
C2630 C 0.55465 0.60112 0.4749 0.0
C2631 C 0.55499 0.59659 0.49898 0.0
C2632 C 0.55147 0.62356 0.46975 0.0
C2633 C 0.54825 0.6426 0.48847 0.0
C2634 C 0.54872 0.63815 0.51279 0.0
C2635 C 0.55194 0.61547 0.51795 0.0
H2636 H 0.658 0.33369 0.68848 0.0
H2637 H 0.67858 0.28826 0.62719 0.0
H2638 H 0.68966 0.33052 0.71508 0.0
H2639 H 0.71012 0.28551 0.65333 0.0
H2640 H 0.75237 0.26277 0.71032 0.0
H2641 H 0.72034 0.26671 0.68547 0.0
H2642 H 0.72889 0.34194 0.72503 0.0
H2643 H 0.76081 0.33785 0.75002 0.0
C2644 C 0.66934 0.32325 0.68057 0.0
C2645 C 0.66552 0.31121 0.65557 0.0
C2646 C 0.6876 0.32143 0.69585 0.0
C2647 C 0.70257 0.30749 0.68661 0.0
C2648 C 0.69887 0.29593 0.66148 0.0
C2649 C 0.68073 0.29773 0.64631 0.0
C2650 C 0.74764 0.28027 0.71359 0.0
C2651 C 0.75975 0.30015 0.73193 0.0
C2652 C 0.72913 0.28257 0.69926 0.0
C2653 C 0.72192 0.30481 0.7028 0.0
C2654 C 0.73367 0.32446 0.72165 0.0
C2655 C 0.75222 0.32215 0.73598 0.0
H2656 H 0.01233 0.36457 0.92897 0.0
H2657 H 0.05852 0.35546 0.98553 0.0
H2658 H 0.01874 0.40821 0.94712 0.0
H2659 H 0.06572 0.39997 1.00351 0.0
H2660 H 0.0653 0.48203 0.03685 0.0
H2661 H 0.05386 0.4366 0.02434 0.0
H2662 H 0.04714 0.44308 0.94814 0.0
H2663 H 0.05787 0.48776 0.96074 0.0
C2664 C 0.02391 0.3719 0.94539 0.0
C2665 C 0.03511 0.3564 0.95553 0.0
C2666 C 0.02772 0.39714 0.95579 0.0
C2667 C 0.0432 0.40808 0.97655 0.0
C2668 C 0.05366 0.39237 0.98755 0.0
C2669 C 0.0496 0.36681 0.97722 0.0
C2670 C 0.06075 0.4736 0.01753 0.0
C2671 C 0.06175 0.4885 0.99981 0.0
C2672 C 0.05453 0.44755 0.01028 0.0
C2673 C 0.04928 0.43585 0.98514 0.0
C2674 C 0.0504 0.45107 0.96767 0.0
C2675 C 0.05664 0.47683 0.97487 0.0
H2676 H 0.01983 0.7839 0.13664 0.0
H2677 H 0.06126 0.84495 0.18937 0.0
H2678 H 0.99103 0.78194 0.16383 0.0
H2679 H 0.03195 0.84376 0.21638 0.0
H2680 H 0.98473 0.81737 0.27063 0.0
H2681 H 0.01325 0.822 0.24327 0.0
H2682 H 0.96361 0.79963 0.18053 0.0
H2683 H 0.93506 0.7933 0.20798 0.0
C2684 C 0.02275 0.79714 0.15399 0.0
C2685 C 0.043 0.81456 0.16076 0.0
C2686 C 1.00603 0.79615 0.1696 0.0
C2687 C 1.00885 0.81274 0.19248 0.0
C2688 C 0.0291 0.83036 0.19917 0.0
C2689 C 0.04597 0.83117 0.18359 0.0
C2690 C 0.9798 0.81317 0.25098 0.0
C2691 C 0.95741 0.80449 0.24167 0.0
C2692 C 0.99628 0.81623 0.23519 0.0
C2693 C 0.99101 0.81104 0.20945 0.0
C2694 C 0.96854 0.80334 0.20015 0.0
C2695 C 0.95202 0.80005 0.21599 0.0
H2696 H 0.5204 0.31805 0.12692 0.0
H2697 H 0.56629 0.37473 0.18021 0.0
H2698 H 0.52915 0.34184 0.09518 0.0
H2699 H 0.57517 0.39844 0.14824 0.0
H2700 H 0.57005 0.44346 0.08753 0.0
H2701 H 0.55916 0.42155 0.12041 0.0
H2702 H 0.56161 0.35264 0.07306 0.0
H2703 H 0.57201 0.3744 0.04015 0.0
C2704 C 0.53225 0.33567 0.13193 0.0
C2705 C 0.54274 0.34442 0.1561 0.0
C2706 C 0.53736 0.34922 0.11368 0.0
C2707 C 0.553 0.3719 0.11916 0.0
C2708 C 0.56296 0.38109 0.14349 0.0
C2709 C 0.55792 0.36745 0.16178 0.0
C2710 C 0.56811 0.42361 0.08415 0.0
C2711 C 0.57189 0.41063 0.06128 0.0
C2712 C 0.56205 0.41111 0.10301 0.0
C2713 C 0.55945 0.38537 0.09929 0.0
C2714 C 0.56322 0.37244 0.0764 0.0
C2715 C 0.56941 0.38493 0.05764 0.0
H2716 H 0.02384 0.29309 0.37659 0.0
H2717 H 0.06596 0.31008 0.32056 0.0
H2718 H 0.99269 0.29888 0.35151 0.0
H2719 H 0.03476 0.31576 0.2955 0.0
H2720 H 0.98307 0.36153 0.2822 0.0
H2721 H 0.01333 0.34861 0.30162 0.0
H2722 H 0.96831 0.28256 0.31139 0.0
H2723 H 0.93798 0.29515 0.29139 0.0
C2724 C 0.02637 0.29764 0.35875 0.0
C2725 C 0.0474 0.30134 0.35067 0.0
C2726 C 1.00851 0.30085 0.34435 0.0
C2727 C 0.01137 0.30799 0.32167 0.0
C2728 C 0.03217 0.31055 0.31306 0.0
C2729 C 0.04999 0.30715 0.32736 0.0
C2730 C 0.97964 0.344 0.288 0.0
C2731 C 0.95806 0.32944 0.28531 0.0
C2732 C 0.997 0.33661 0.29915 0.0
C2733 C 0.99316 0.31458 0.30801 0.0
C2734 C 0.97169 0.29976 0.30494 0.0
C2735 C 0.95433 0.30704 0.29359 0.0
H2736 H 0.98075 0.69345 0.62771 0.0
H2737 H 0.04986 0.72304 0.65248 0.0
H2738 H 0.98911 0.65584 0.60515 0.0
H2739 H 0.0583 0.68606 0.62929 0.0
H2740 H 0.06613 0.60887 0.6007 0.0
H2741 H 0.05571 0.64322 0.62686 0.0
H2742 H 1.00547 0.64256 0.56943 0.0
H2743 H 0.01496 0.60755 0.54405 0.0
C2744 C 0.99771 0.69196 0.62828 0.0
C2745 C 0.01462 0.71124 0.64181 0.0
C2746 C 1.00254 0.67046 0.61526 0.0
C2747 C 0.02442 0.66791 0.61532 0.0
C2748 C 0.04125 0.68714 0.62913 0.0
C2749 C 0.03641 0.70848 0.6423 0.0
C2750 C 0.05278 0.61597 0.59374 0.0
C2751 C 0.0417 0.60571 0.57005 0.0
C2752 C 0.04688 0.63578 0.60868 0.0
C2753 C 0.02984 0.64583 0.60021 0.0
C2754 C 0.0185 0.63519 0.57672 0.0
C2755 C 0.02424 0.61529 0.56194 0.0
H2756 H 0.70139 0.86092 0.89256 0.0
H2757 H 0.66181 0.82202 0.82435 0.0
H2758 H 0.73424 0.86539 0.87098 0.0
H2759 H 0.69461 0.82695 0.80273 0.0
H2760 H 0.75808 0.84451 0.7679 0.0
H2761 H 0.72647 0.85347 0.78898 0.0
H2762 H 0.75318 0.83377 0.85412 0.0
H2763 H 0.78404 0.82472 0.83316 0.0
C2764 C 0.69966 0.85355 0.87292 0.0
C2765 C 0.67911 0.84057 0.86026 0.0
C2766 C 0.71847 0.85613 0.86056 0.0
C2767 C 0.71709 0.84602 0.83524 0.0
C2768 C 0.69629 0.83464 0.82227 0.0
C2769 C 0.67751 0.83168 0.8347 0.0
C2770 C 0.75709 0.84235 0.78677 0.0
C2771 C 0.7731 0.83343 0.79877 0.0
C2772 C 0.73914 0.84751 0.79884 0.0
C2773 C 0.73733 0.84433 0.82323 0.0
C2774 C 0.75419 0.83682 0.83552 0.0
C2775 C 0.77183 0.83142 0.82343 0.0
H2776 H 0.52234 0.59957 0.72441 0.0
H2777 H 0.4591 0.5551 0.69044 0.0
H2778 H 0.53733 0.59315 0.68529 0.0
H2779 H 0.47418 0.54889 0.65046 0.0
H2780 H 0.51263 0.52564 0.58329 0.0
H2781 H 0.49594 0.53135 0.62198 0.0
H2782 H 0.54213 0.60166 0.64698 0.0
H2783 H 0.55878 0.59573 0.60853 0.0
C2784 C 0.51136 0.58843 0.70858 0.0
C2785 C 0.48917 0.57803 0.71141 0.0
C2786 C 0.52012 0.58484 0.68559 0.0
C2787 C 0.50734 0.57056 0.66367 0.0
C2788 C 0.48506 0.55991 0.66641 0.0
C2789 C 0.47619 0.5636 0.68962 0.0
C2790 C 0.51934 0.5424 0.59697 0.0
C2791 C 0.53757 0.55999 0.59219 0.0
C2792 C 0.50953 0.5458 0.61949 0.0
C2793 C 0.51739 0.56699 0.63866 0.0
C2794 C 0.53546 0.58471 0.6336 0.0
C2795 C 0.54519 0.58132 0.6111 0.0
H2796 H 0.74727 0.20443 0.97478 0.0
H2797 H 0.79924 0.18026 0.93674 0.0
H2798 H 0.73633 0.22064 0.93962 0.0
H2799 H 0.78836 0.19692 0.90148 0.0
H2800 H 0.7483 0.20831 0.83394 0.0
H2801 H 0.75693 0.18936 0.86842 0.0
H2802 H 0.75142 0.2547 0.91966 0.0
H2803 H 0.74258 0.27335 0.88533 0.0
C2804 C 0.75648 0.2027 0.95896 0.0
C2805 C 0.7742 0.19113 0.9586 0.0
C2806 C 0.7502 0.21204 0.93882 0.0
C2807 C 0.76145 0.21001 0.91778 0.0
C2808 C 0.77921 0.19847 0.91735 0.0
C2809 C 0.78558 0.18917 0.93762 0.0
C2810 C 0.74856 0.21835 0.8526 0.0
C2811 C 0.74484 0.24229 0.85703 0.0
C2812 C 0.75375 0.20766 0.8723 0.0
C2813 C 0.75502 0.22063 0.89673 0.0
C2814 C 0.75044 0.24418 0.90106 0.0
C2815 C 0.74545 0.25489 0.88143 0.0
H2816 H 0.17039 0.50889 0.18277 0.0
H2817 H 0.1532 0.57622 0.21734 0.0
H2818 H 0.1453 0.50649 0.14601 0.0
H2819 H 0.12859 0.57375 0.18093 0.0
H2820 H 0.12119 0.58089 0.09946 0.0
H2821 H 0.14136 0.57778 0.13702 0.0
H2822 H 0.101 0.5047 0.13284 0.0
H2823 H 0.08027 0.50785 0.09484 0.0
C2824 C 0.16115 0.52296 0.18264 0.0
C2825 C 0.16403 0.54293 0.2028 0.0
C2826 C 0.14672 0.52147 0.16175 0.0
C2827 C 0.1352 0.54002 0.16076 0.0
C2828 C 0.13743 0.55934 0.18126 0.0
C2829 C 0.1516 0.56073 0.20207 0.0
C2830 C 0.11652 0.56412 0.10641 0.0
C2831 C 0.09917 0.5446 0.09416 0.0
C2832 C 0.12804 0.56241 0.12799 0.0
C2833 C 0.12268 0.54103 0.13771 0.0
C2834 C 0.10543 0.52132 0.12553 0.0
C2835 C 0.09356 0.5232 0.10398 0.0
H2836 H 0.85708 0.83959 0.47108 0.0
H2837 H 0.80291 0.875 0.46538 0.0
H2838 H 0.85152 0.82401 0.42632 0.0
H2839 H 0.79766 0.85965 0.42091 0.0
H2840 H 0.82153 0.86408 0.34489 0.0
H2841 H 0.82571 0.87289 0.38976 0.0
H2842 H 0.81978 0.79545 0.38916 0.0
H2843 H 0.81491 0.78645 0.34365 0.0
C2844 C 0.8438 0.84375 0.46039 0.0
C2845 C 0.83058 0.85878 0.47184 0.0
C2846 C 0.84059 0.83472 0.43481 0.0
C2847 C 0.8243 0.84082 0.42021 0.0
C2848 C 0.81046 0.85485 0.43176 0.0
C2849 C 0.81346 0.86359 0.45726 0.0
C2850 C 0.82129 0.84894 0.35431 0.0
C2851 C 0.81834 0.82468 0.34087 0.0
C2852 C 0.82357 0.85396 0.37997 0.0
C2853 C 0.8229 0.83485 0.3929 0.0
C2854 C 0.82039 0.81051 0.37957 0.0
C2855 C 0.81778 0.80539 0.35364 0.0
H2856 H 0.51558 0.55203 0.83083 0.0
H2857 H 0.4665 0.5856 0.86455 0.0
H2858 H 0.53089 0.54834 0.87091 0.0
H2859 H 0.48215 0.58228 0.90518 0.0
H2860 H 0.50178 0.55444 0.97455 0.0
H2861 H 0.48712 0.55858 0.93428 0.0
H2862 H 0.55151 0.56367 0.90967 0.0
H2863 H 0.56613 0.55935 0.95047 0.0
C2864 C 0.50799 0.55893 0.84679 0.0
C2865 C 0.48949 0.56924 0.84364 0.0
C2866 C 0.51705 0.55687 0.87025 0.0
C2867 C 0.50816 0.56485 0.89226 0.0
C2868 C 0.48971 0.57542 0.8892 0.0
C2869 C 0.48066 0.57761 0.86558 0.0
C2870 C 0.51293 0.55618 0.96054 0.0
C2871 C 0.53523 0.55588 0.96622 0.0
C2872 C 0.50443 0.55889 0.93713 0.0
C2873 C 0.51774 0.56172 0.91778 0.0
C2874 C 0.54021 0.56133 0.92341 0.0
C2875 C 0.54878 0.5587 0.94707 0.0
H2876 H 0.75567 0.184 0.08407 0.0
H2877 H 0.82508 0.20816 0.07794 0.0
H2878 H 0.76052 0.21031 0.12484 0.0
H2879 H 0.82989 0.23462 0.11915 0.0
H2880 H 0.82264 0.29651 0.18454 0.0
H2881 H 0.81809 0.27259 0.14234 0.0
H2882 H 0.77929 0.20972 0.16553 0.0
H2883 H 0.78408 0.23322 0.20751 0.0
C2884 C 0.772 0.19496 0.09139 0.0
C2885 C 0.79003 0.19386 0.07778 0.0
C2886 C 0.77475 0.20999 0.11482 0.0
C2887 C 0.79558 0.22442 0.12521 0.0
C2888 C 0.81361 0.22379 0.11149 0.0
C2889 C 0.81088 0.20854 0.088 0.0
C2890 C 0.81334 0.27754 0.1807 0.0
C2891 C 0.80414 0.26672 0.19961 0.0
C2892 C 0.81071 0.26386 0.15652 0.0
C2893 C 0.79845 0.23925 0.15069 0.0
C2894 C 0.78873 0.2287 0.16943 0.0
C2895 C 0.79155 0.24223 0.19356 0.0
H2896 H 0.1849 0.61016 0.32376 0.0
H2897 H 0.15741 0.5314 0.30271 0.0
H2898 H 0.1528 0.61511 0.34508 0.0
H2899 H 0.12561 0.53636 0.32427 0.0
H2900 H 0.06239 0.55375 0.34602 0.0
H2901 H 0.09318 0.55412 0.32109 0.0
H2902 H 0.13661 0.60416 0.38166 0.0
H2903 H 0.10577 0.60426 0.40621 0.0
C2904 C 0.17211 0.59389 0.32383 0.0
C2905 C 0.17371 0.57039 0.31157 0.0
C2906 C 0.15373 0.59675 0.336 0.0
C2907 C 0.13658 0.57616 0.33609 0.0
C2908 C 0.13833 0.55265 0.32407 0.0
C2909 C 0.15669 0.54978 0.31196 0.0
C2910 C 0.07839 0.56535 0.35367 0.0
C2911 C 0.0818 0.57881 0.37805 0.0
C2912 C 0.09605 0.56533 0.33957 0.0
C2913 C 0.11735 0.57886 0.3496 0.0
C2914 C 0.1204 0.59361 0.3734 0.0
C2915 C 0.10279 0.59356 0.38749 0.0
H2916 H 0.83824 0.83219 0.58804 0.0
H2917 H 0.80997 0.8941 0.61405 0.0
H2918 H 0.83398 0.81914 0.62708 0.0
H2919 H 0.80504 0.8806 0.65292 0.0
H2920 H 0.82084 0.86401 0.72907 0.0
H2921 H 0.82471 0.8776 0.69005 0.0
H2922 H 0.80769 0.80135 0.65113 0.0
H2923 H 0.80557 0.78811 0.69027 0.0
C2924 C 0.83091 0.84291 0.602 0.0
C2925 C 0.82446 0.86422 0.59784 0.0
C2926 C 0.82834 0.83533 0.62442 0.0
C2927 C 0.81909 0.84873 0.64329 0.0
C2928 C 0.81251 0.86998 0.63903 0.0
C2929 C 0.8152 0.87765 0.61663 0.0
C2930 C 0.81817 0.85023 0.71218 0.0
C2931 C 0.8127 0.82499 0.71274 0.0
C2932 C 0.82005 0.85798 0.68973 0.0
C2933 C 0.81649 0.84061 0.66726 0.0
C2934 C 0.81079 0.81532 0.66796 0.0
C2935 C 0.80906 0.80766 0.6904 0.0
H2936 H 0.74435 0.44522 0.53637 0.0
H2937 H 0.80347 0.5026 0.56191 0.0
H2938 H 0.72229 0.47573 0.54426 0.0
H2939 H 0.78129 0.5331 0.57032 0.0
H2940 H 0.73391 0.58225 0.55205 0.0
H2941 H 0.75824 0.55362 0.5484 0.0
H2942 H 0.71093 0.50213 0.57793 0.0
H2943 H 0.68662 0.53057 0.58123 0.0
C2944 C 0.75264 0.46432 0.54384 0.0
C2945 C 0.77567 0.47145 0.54849 0.0
C2946 C 0.73998 0.48181 0.54853 0.0
C2947 C 0.75001 0.50687 0.55806 0.0
C2948 C 0.77306 0.51401 0.56278 0.0
C2949 C 0.78575 0.49649 0.55806 0.0
C2950 C 0.72895 0.56501 0.55817 0.0
C2951 C 0.70829 0.5585 0.56666 0.0
C2952 C 0.74286 0.54859 0.55607 0.0
C2953 C 0.73638 0.52541 0.56252 0.0
C2954 C 0.71619 0.51955 0.57222 0.0
C2955 C 0.70231 0.53588 0.57423 0.0
H2956 H 0.24241 0.12787 0.48695 0.0
H2957 H 0.22312 0.18569 0.53694 0.0
H2958 H 0.20528 0.10189 0.48356 0.0
H2959 H 0.18655 0.15959 0.53446 0.0
H2960 H 0.1172 0.117 0.512 0.0
H2961 H 0.15336 0.14236 0.50944 0.0
H2962 H 0.18103 0.07831 0.50592 0.0
H2963 H 0.1446 0.05296 0.50769 0.0
C2964 C 0.23027 0.13501 0.49724 0.0
C2965 C 0.23572 0.15888 0.51215 0.0
C2966 C 0.209 0.12007 0.49543 0.0
C2967 C 0.19277 0.12857 0.50868 0.0
C2968 C 0.19835 0.15251 0.52352 0.0
C2969 C 0.21946 0.16749 0.5251 0.0
C2970 C 0.13102 0.10834 0.51042 0.0
C2971 C 0.12809 0.08297 0.50983 0.0
C2972 C 0.1518 0.12289 0.50912 0.0
C2973 C 0.1703 0.11252 0.50771 0.0
C2974 C 0.16719 0.08694 0.50659 0.0
C2975 C 0.14628 0.07232 0.50754 0.0
H2976 H 0.21667 0.92797 0.72322 0.0
H2977 H 0.23734 0.96414 0.79893 0.0
H2978 H 0.2372 0.89699 0.72738 0.0
H2979 H 0.25858 0.93307 0.80316 0.0
H2980 H 0.28236 0.86255 0.81209 0.0
H2981 H 0.2638 0.89533 0.80786 0.0
H2982 H 0.26661 0.87902 0.72935 0.0
H2983 H 0.28488 0.84546 0.73385 0.0
C2984 C 0.22569 0.92965 0.74097 0.0
C2985 C 0.22477 0.94936 0.76067 0.0
C2986 C 0.2379 0.91148 0.74334 0.0
C2987 C 0.25023 0.9115 0.76566 0.0
C2988 C 0.24945 0.93135 0.78549 0.0
C2989 C 0.23715 0.94969 0.78307 0.0
C2990 C 0.2793 0.86597 0.79379 0.0
C2991 C 0.28583 0.85095 0.77349 0.0
C2992 C 0.26849 0.88526 0.79131 0.0
C2993 C 0.26309 0.89089 0.76819 0.0
C2994 C 0.26978 0.87587 0.74769 0.0
C2995 C 0.28073 0.85643 0.75023 0.0
H2996 H 0.40458 0.02629 0.07352 0.0
H2997 H 0.39658 0.97752 1.00203 0.0
H2998 H 0.44457 0.03436 0.07334 0.0
H2999 H 0.43637 0.98543 1.00213 0.0
H3000 H 0.50702 0.98145 0.02981 0.0
H3001 H 0.46701 0.97503 0.03 0.0
H3002 H 0.4737 0.05401 0.04688 0.0
H3003 H 0.51336 0.0603 0.04705 0.0
C3004 C 0.41132 0.01748 0.05774 0.0
C3005 C 0.39746 1.00125 0.03784 0.0
C3006 C 0.43414 0.02211 0.05764 0.0
C3007 C 0.44338 1.01028 0.03782 0.0
C3008 C 0.42955 0.9945 0.01773 0.0
C3009 C 0.40681 0.99016 0.01764 0.0
C3010 C 0.49981 0.99734 0.03343 0.0
C3011 C 0.51307 0.02134 0.03729 0.0
C3012 C 0.47706 0.99371 0.03348 0.0
C3013 C 0.4674 0.01407 0.03816 0.0
C3014 C 0.48079 0.03805 0.04309 0.0
C3015 C 0.50346 0.04165 0.04274 0.0
H3016 H 0.90592 0.61113 0.74209 0.0
H3017 H 0.8651 0.57265 0.78902 0.0
H3018 H 0.8756 0.62852 0.7297 0.0
H3019 H 0.83461 0.58929 0.77601 0.0
H3020 H 0.79798 0.65091 0.7741 0.0
H3021 H 0.82544 0.62845 0.78297 0.0
H3022 H 0.8395 0.61942 0.7071 0.0
H3023 H 0.81259 0.64307 0.69853 0.0
C3024 C 0.89041 0.6062 0.74956 0.0
C3025 C 0.88796 0.59078 0.76674 0.0
C3026 C 0.87297 0.61597 0.7423 0.0
C3027 C 0.8527 0.61033 0.75191 0.0
C3028 C 0.85013 0.59434 0.76858 0.0
C3029 C 0.8676 0.58478 0.77601 0.0
C3030 C 0.80689 0.64406 0.75929 0.0
C3031 C 0.80336 0.649 0.73571 0.0
C3032 C 0.82247 0.63094 0.7643 0.0
C3033 C 0.83477 0.62225 0.74577 0.0
C3034 C 0.83052 0.6262 0.72186 0.0
C3035 C 0.81494 0.63946 0.71686 0.0
H3036 H 0.88915 0.68008 1.00782 0.0
H3037 H 0.83436 0.62461 0.02064 0.0
H3038 H 0.91371 0.65287 0.01242 0.0
H3039 H 0.85904 0.59761 0.02591 0.0
H3040 H 0.90561 0.54596 0.0118 0.0
H3041 H 0.88106 0.57259 1.00465 0.0
H3042 H 0.93049 0.63641 0.04334 0.0
H3043 H 0.95508 0.60977 0.05022 0.0
C3044 C 0.88232 0.66208 0.01165 0.0
C3045 C 0.85975 0.65458 0.01389 0.0
C3046 C 0.89647 0.6465 0.01447 0.0
C3047 C 0.88846 0.62302 0.01967 0.0
C3048 C 0.8658 0.61541 0.02161 0.0
C3049 C 0.85163 0.63097 0.01872 0.0
C3050 C 0.9112 0.56567 0.01887 0.0
C3051 C 0.93233 0.57569 0.03164 0.0
C3052 C 0.8971 0.58097 0.0148 0.0
C3053 C 0.9037 0.60672 0.02346 0.0
C3054 C 0.92492 0.61674 0.03604 0.0
C3055 C 0.93905 0.60145 0.04003 0.0
H3056 H 0.1928 0.11698 0.77433 0.0
H3057 H 0.25147 0.08987 0.78278 0.0
H3058 H 0.21481 0.15826 0.77713 0.0
H3059 H 0.27401 0.1319 0.78505 0.0
H3060 H 0.30817 0.21722 0.8075 0.0
H3061 H 0.28792 0.17464 0.80625 0.0
H3062 H 0.23628 0.18441 0.75649 0.0
H3063 H 0.25614 0.22651 0.75809 0.0
C3064 C 0.21052 0.11965 0.77666 0.0
C3065 C 0.22004 0.09943 0.77814 0.0
C3066 C 0.22336 0.14372 0.77808 0.0
C3067 C 0.24657 0.14911 0.78093 0.0
C3068 C 0.25628 0.129 0.78293 0.0
C3069 C 0.24328 0.10465 0.78153 0.0
C3070 C 0.29257 0.21027 0.79614 0.0
C3071 C 0.28414 0.22586 0.78281 0.0
C3072 C 0.28082 0.18558 0.79539 0.0
C3073 C 0.26003 0.17541 0.7814 0.0
C3074 C 0.25182 0.19109 0.76801 0.0
C3075 C 0.26349 0.2156 0.76877 0.0
H3076 H 0.39896 0.99086 0.32818 0.0
H3077 H 0.35974 0.98566 0.25963 0.0
H3078 H 0.38473 0.94678 0.32583 0.0
H3079 H 0.34573 0.9415 0.25724 0.0
H3080 H 0.31443 0.86421 0.27033 0.0
H3081 H 0.32361 0.90943 0.27726 0.0
H3082 H 0.39168 0.91038 0.29706 0.0
H3083 H 0.38237 0.86533 0.29042 0.0
C3084 C 0.3871 0.98041 0.31277 0.0
C3085 C 0.38071 0.99171 0.29391 0.0
C3086 C 0.37905 0.95515 0.31138 0.0
C3087 C 0.36438 0.94068 0.29118 0.0
C3088 C 0.35697 0.95222 0.27306 0.0
C3089 C 0.36509 0.9775 0.27439 0.0
C3090 C 0.33125 0.87419 0.27654 0.0
C3091 C 0.34764 0.86151 0.28059 0.0
C3092 C 0.33653 0.89999 0.28029 0.0
C3093 C 0.35831 0.91343 0.28801 0.0
C3094 C 0.37468 0.90057 0.29166 0.0
C3095 C 0.36943 0.87484 0.28772 0.0
H3096 H 0.62107 0.38082 0.55359 0.0
H3097 H 0.57588 0.38455 0.60869 0.0
H3098 H 0.61305 0.41762 0.54177 0.0
H3099 H 0.56744 0.42112 0.59653 0.0
H3100 H 0.57711 0.50243 0.59029 0.0
H3101 H 0.58199 0.46345 0.59927 0.0
H3102 H 0.58856 0.43751 0.52259 0.0
H3103 H 0.58411 0.47736 0.51381 0.0
C3104 C 0.60926 0.38933 0.56315 0.0
C3105 C 0.5993 0.37947 0.58235 0.0
C3106 C 0.6045 0.41053 0.55616 0.0
C3107 C 0.58959 0.42288 0.5681 0.0
C3108 C 0.57931 0.4127 0.58701 0.0
C3109 C 0.58407 0.39146 0.59398 0.0
C3110 C 0.57934 0.48832 0.57521 0.0
C3111 C 0.57975 0.49305 0.55122 0.0
C3112 C 0.58203 0.4657 0.58036 0.0
C3113 C 0.58559 0.44676 0.56178 0.0
C3114 C 0.58603 0.45147 0.5376 0.0
C3115 C 0.58321 0.47428 0.5324 0.0
H3116 H 0.47487 0.75997 0.36159 0.0
H3117 H 0.44463 0.78555 0.42593 0.0
H3118 H 0.44344 0.76394 0.33517 0.0
H3119 H 0.41333 0.78906 0.39984 0.0
H3120 H 0.3715 0.81931 0.34861 0.0
H3121 H 0.40272 0.81381 0.37358 0.0
H3122 H 0.40484 0.74858 0.32022 0.0
H3123 H 0.37356 0.75422 0.29509 0.0
C3124 C 0.46147 0.76618 0.37016 0.0
C3125 C 0.46252 0.77248 0.39604 0.0
C3126 C 0.44332 0.76842 0.35496 0.0
C3127 C 0.42568 0.77712 0.36516 0.0
C3128 C 0.42663 0.78285 0.39106 0.0
C3129 C 0.44466 0.7806 0.40615 0.0
C3130 C 0.37852 0.80373 0.34211 0.0
C3131 C 0.36988 0.78736 0.31956 0.0
C3132 C 0.3965 0.80047 0.3566 0.0
C3133 C 0.40655 0.78064 0.34919 0.0
C3134 C 0.39792 0.76426 0.32657 0.0
C3135 C 0.37985 0.7675 0.31209 0.0
H3136 H 0.07357 0.74657 0.10659 0.0
H3137 H 0.12539 0.74849 0.05901 0.0
H3138 H 0.06435 0.70136 0.09578 0.0
H3139 H 0.11585 0.70321 0.04788 0.0
H3140 H 0.07451 0.61997 0.01862 0.0
H3141 H 0.08377 0.66546 0.02621 0.0
H3142 H 0.08433 0.66842 0.10436 0.0
H3143 H 0.07594 0.62332 0.0968 0.0
C3144 C 0.0828 0.73743 0.09352 0.0
C3145 C 0.10027 0.75138 0.08373 0.0
C3146 C 0.0776 0.71143 0.08744 0.0
C3147 C 0.08942 0.69852 0.07102 0.0
C3148 C 0.10633 0.71245 0.06047 0.0
C3149 C 0.11182 0.73847 0.06693 0.0
C3150 C 0.0772 0.63038 0.03741 0.0
C3151 C 0.07522 0.61797 0.05716 0.0
C3152 C 0.0823 0.65646 0.04178 0.0
C3153 C 0.08473 0.67072 0.06594 0.0
C3154 C 0.08244 0.65817 0.08553 0.0
C3155 C 0.07777 0.63227 0.0812 0.0
H3156 H 0.07153 0.29112 0.86525 0.0
H3157 H 0.11668 0.27678 0.91976 0.0
H3158 H 0.10048 0.29583 0.83799 0.0
H3159 H 0.14542 0.28084 0.89234 0.0
H3160 H 0.19838 0.31471 0.84684 0.0
H3161 H 0.16985 0.30976 0.87466 0.0
H3162 H 0.12148 0.27317 0.8125 0.0
H3163 H 0.14989 0.27837 0.78483 0.0
C3164 C 0.08759 0.28884 0.8714 0.0
C3165 C 0.09169 0.28357 0.89477 0.0
C3166 C 0.10422 0.2914 0.85567 0.0
C3167 C 0.12543 0.28868 0.86282 0.0
C3168 C 0.12947 0.28342 0.88623 0.0
C3169 C 0.11287 0.28093 0.90195 0.0
C3170 C 0.1817 0.30537 0.83915 0.0
C3171 C 0.17649 0.29713 0.81352 0.0
C3172 C 0.16527 0.30252 0.85512 0.0
C3173 C 0.14317 0.29123 0.84592 0.0
C3174 C 0.13812 0.28248 0.82032 0.0
C3175 C 0.1545 0.28539 0.8044 0.0
H3176 H 0.62772 0.81297 0.97813 0.0
H3177 H 0.60657 0.74929 0.91839 0.0
H3178 H 0.61809 0.78679 1.00775 0.0
H3179 H 0.59757 0.72299 0.94804 0.0
H3180 H 0.56039 0.68719 1.00369 0.0
H3181 H 0.57035 0.71503 0.97563 0.0
H3182 H 0.62791 0.7547 0.02587 0.0
H3183 H 0.61755 0.727 0.05421 0.0
C3184 C 0.62129 0.79332 0.97131 0.0
C3185 C 0.61781 0.78324 0.94586 0.0
C3186 C 0.61583 0.77829 0.98833 0.0
C3187 C 0.60685 0.7528 0.98031 0.0
C3188 C 0.604 0.74263 0.95487 0.0
C3189 C 0.60934 0.75768 0.93784 0.0
C3190 C 0.57509 0.70198 0.00878 0.0
C3191 C 0.58826 0.70488 0.03105 0.0
C3192 C 0.58091 0.71782 0.99263 0.0
C3193 C 0.60013 0.73688 0.99828 0.0
C3194 C 0.61292 0.74031 0.02099 0.0
C3195 C 0.607 0.7245 0.03726 0.0
H3196 H 0.0655 0.77267 0.75158 0.0
H3197 H 0.11106 0.81273 0.70999 0.0
H3198 H 0.09632 0.7639 0.77499 0.0
H3199 H 0.14169 0.80406 0.73332 0.0
H3200 H 0.19421 0.79703 0.78781 0.0
H3201 H 0.16203 0.81142 0.77534 0.0
H3202 H 0.12256 0.73668 0.76178 0.0
H3203 H 0.15484 0.72217 0.77391 0.0
C3204 C 0.0821 0.78008 0.74784 0.0
C3205 C 0.0859 0.79326 0.72886 0.0
C3206 C 0.09969 0.77491 0.76111 0.0
C3207 C 0.12137 0.78319 0.75589 0.0
C3208 C 0.12518 0.79761 0.73792 0.0
C3209 C 0.10763 0.80248 0.72446 0.0
C3210 C 0.17862 0.78368 0.78234 0.0
C3211 C 0.17715 0.75838 0.7814 0.0
C3212 C 0.16021 0.79195 0.77529 0.0
C3213 C 0.13987 0.77515 0.76736 0.0
C3214 C 0.13801 0.75009 0.768 0.0
C3215 C 0.1565 0.74177 0.77493 0.0
H3216 H 0.09231 0.40087 0.37432 0.0
H3217 H 0.11743 0.38171 0.44057 0.0
H3218 H 0.08468 0.4379 0.39908 0.0
H3219 H 0.10935 0.41824 0.4652 0.0
H3220 H 0.04778 0.48102 0.45511 0.0
H3221 H 0.05867 0.44738 0.42827 0.0
H3222 H 0.12018 0.46279 0.47469 0.0
H3223 H 0.10924 0.49605 0.50159 0.0
C3224 C 0.09636 0.40464 0.39412 0.0
C3225 C 0.10541 0.38832 0.40549 0.0
C3226 C 0.09183 0.42574 0.4083 0.0
C3227 C 0.0963 0.43092 0.4341 0.0
C3228 C 0.10595 0.41495 0.44535 0.0
C3229 C 0.11048 0.39392 0.43122 0.0
C3230 C 0.06365 0.47727 0.4595 0.0
C3231 C 0.07746 0.49091 0.4807 0.0
C3232 C 0.06995 0.45811 0.44405 0.0
C3233 C 0.09024 0.45233 0.44944 0.0
C3234 C 0.10428 0.46647 0.47028 0.0
C3235 C 0.09797 0.48553 0.48572 0.0
H3236 H 0.46896 0.27282 0.24058 0.0
H3237 H 0.43517 0.26342 0.16788 0.0
H3238 H 0.43376 0.26816 0.25778 0.0
H3239 H 0.40007 0.2589 0.18518 0.0
H3240 H 0.35155 0.29289 0.23323 0.0
H3241 H 0.38426 0.28926 0.2129 0.0
H3242 H 0.39708 0.23769 0.25712 0.0
H3243 H 0.36394 0.24133 0.2775 0.0
C3244 C 0.45404 0.26967 0.22828 0.0
C3245 C 0.45486 0.26877 0.20292 0.0
C3246 C 0.43389 0.26677 0.2381 0.0
C3247 C 0.41424 0.26329 0.22281 0.0
C3248 C 0.41501 0.26179 0.19739 0.0
C3249 C 0.43511 0.26438 0.18752 0.0
C3250 C 0.36133 0.28076 0.23858 0.0
C3251 C 0.35586 0.26815 0.25759 0.0
C3252 C 0.3799 0.27845 0.22674 0.0
C3253 C 0.3933 0.26337 0.23361 0.0
C3254 C 0.38718 0.24973 0.25178 0.0
C3255 C 0.36833 0.25179 0.26339 0.0
H3256 H 0.61477 0.48733 0.32676 0.0
H3257 H 0.67317 0.54346 0.35736 0.0
H3258 H 0.59956 0.49367 0.3657 0.0
H3259 H 0.65812 0.54949 0.39729 0.0
H3260 H 0.61949 0.56777 0.46494 0.0
H3261 H 0.63567 0.56288 0.42597 0.0
H3262 H 0.59581 0.48844 0.40458 0.0
H3263 H 0.57944 0.49373 0.44321 0.0
C3264 C 0.62464 0.50109 0.34184 0.0
C3265 C 0.64553 0.51474 0.33811 0.0
C3266 C 0.6158 0.50464 0.36478 0.0
C3267 C 0.62728 0.522 0.38583 0.0
C3268 C 0.6482 0.53597 0.3821 0.0
C3269 C 0.65707 0.53245 0.35888 0.0
C3270 C 0.61406 0.55029 0.45197 0.0
C3271 C 0.59764 0.53133 0.4578 0.0
C3272 C 0.62358 0.54736 0.42925 0.0
C3273 C 0.61735 0.52523 0.41096 0.0
C3274 C 0.60114 0.50616 0.41713 0.0
C3275 C 0.59158 0.50914 0.43978 0.0
H3276 H 0.28973 0.87998 0.04913 0.0
H3277 H 0.35512 0.92603 0.07234 0.0
H3278 H 0.29865 0.84937 0.0712 0.0
H3279 H 0.36432 0.89512 0.09346 0.0
H3280 H 0.36255 0.84944 0.15338 0.0
H3281 H 0.35637 0.87897 0.1288 0.0
H3282 H 0.32026 0.81902 0.0707 0.0
H3283 H 0.32554 0.78942 0.09612 0.0
C3284 C 0.306 0.88354 0.05893 0.0
C3285 C 0.32164 0.90549 0.05921 0.0
C3286 C 0.31121 0.86587 0.07131 0.0
C3287 C 0.33225 0.86971 0.08398 0.0
C3288 C 0.34787 0.8917 0.08418 0.0
C3289 C 0.34258 0.90945 0.07208 0.0
C3290 C 0.35344 0.84256 0.13526 0.0
C3291 C 0.34426 0.81719 0.12677 0.0
C3292 C 0.35004 0.85948 0.12106 0.0
C3293 C 0.33759 0.8514 0.09787 0.0
C3294 C 0.32953 0.82586 0.08872 0.0
C3295 C 0.33283 0.80888 0.10307 0.0
H3296 H 0.93347 0.54406 0.89863 0.0
H3297 H 0.9796 0.59058 0.86272 0.0
H3298 H 0.9627 0.54643 0.9307 0.0
H3299 H 1.0089 0.59253 0.89468 0.0
H3300 H 0.0511 0.60032 0.9711 0.0
H3301 H 0.02327 0.60529 0.94028 0.0
H3302 H 0.9946 0.52681 0.92643 0.0
H3303 H 0.02202 0.52198 0.95687 0.0
C3304 C 0.94972 0.55514 0.89779 0.0
C3305 C 0.95429 0.56673 0.8779 0.0
C3306 C 0.9665 0.55636 0.91606 0.0
C3307 C 0.98816 0.56915 0.91477 0.0
C3308 C 0.99238 0.58246 0.89604 0.0
C3309 C 0.97557 0.58127 0.87774 0.0
C3310 C 0.03909 0.58416 0.96099 0.0
C3311 C 0.03837 0.56085 0.96655 0.0
C3312 C 0.02312 0.58701 0.94357 0.0
C3313 C 1.00638 0.56654 0.93162 0.0
C3314 C 1.00682 0.54304 0.93601 0.0
C3315 C 0.02261 0.54025 0.95328 0.0
H3316 H 0.34473 0.27097 0.5913 0.0
H3317 H 0.28448 0.21512 0.58584 0.0
H3318 H 0.34158 0.28538 0.63502 0.0
H3319 H 0.28131 0.22967 0.62922 0.0
H3320 H 0.30759 0.23369 0.71029 0.0
H3321 H 0.30449 0.22555 0.66552 0.0
H3322 H 0.31892 0.30401 0.6674 0.0
H3323 H 0.32197 0.31213 0.7128 0.0
C3324 C 0.33065 0.26204 0.59927 0.0
C3325 C 0.31509 0.24159 0.58513 0.0
C3326 C 0.32877 0.27042 0.62428 0.0
C3327 C 0.31132 0.25848 0.63562 0.0
C3328 C 0.29512 0.23901 0.6211 0.0
C3329 C 0.29697 0.23067 0.59621 0.0
C3330 C 0.30965 0.24918 0.70111 0.0
C3331 C 0.31456 0.27347 0.71487 0.0
C3332 C 0.3078 0.24455 0.67547 0.0
C3333 C 0.31132 0.26412 0.66287 0.0
C3334 C 0.31611 0.28857 0.67662 0.0
C3335 C 0.31765 0.29322 0.7025 0.0
H3336 H 0.66723 0.50587 0.18318 0.0
H3337 H 0.6212 0.54505 0.21611 0.0
H3338 H 0.65134 0.50778 0.1421 0.0
H3339 H 0.60565 0.54727 0.17562 0.0
H3340 H 0.56905 0.53365 0.09646 0.0
H3341 H 0.58388 0.53049 0.13759 0.0
H3342 H 0.64725 0.53061 0.11159 0.0
H3343 H 0.63239 0.53378 0.07098 0.0
C3344 C 0.65367 0.51477 0.18189 0.0
C3345 C 0.64579 0.52518 0.20375 0.0
C3346 C 0.6445 0.51614 0.15801 0.0
C3347 C 0.62684 0.52783 0.15462 0.0
C3348 C 0.61885 0.5378 0.17655 0.0
C3349 C 0.62806 0.53659 0.20025 0.0
C3350 C 0.58624 0.53345 0.09959 0.0
C3351 C 0.59944 0.53461 0.07995 0.0
C3352 C 0.59493 0.53149 0.12345 0.0
C3353 C 0.61715 0.53011 0.12881 0.0
C3354 C 0.63013 0.53118 0.10896 0.0
C3355 C 0.62152 0.5333 0.08535 0.0
H3356 H 0.35115 0.88518 0.97522 0.0
H3357 H 0.30964 0.92454 0.94145 0.0
H3358 H 0.35071 0.85822 0.93538 0.0
H3359 H 0.30917 0.89742 0.90161 0.0
H3360 H 0.34038 0.86982 0.83335 0.0
H3361 H 0.33947 0.89333 0.87425 0.0
H3362 H 0.32505 0.82583 0.90174 0.0
H3363 H 0.32618 0.802 0.86046 0.0
C3364 C 0.34175 0.88792 0.95934 0.0
C3365 C 0.33063 0.90715 0.96136 0.0
C3366 C 0.34142 0.87238 0.9366 0.0
C3367 C 0.33012 0.87595 0.91546 0.0
C3368 C 0.31828 0.89455 0.91764 0.0
C3369 C 0.31845 0.90996 0.94042 0.0
C3370 C 0.33712 0.85986 0.84799 0.0
C3371 C 0.33278 0.83394 0.84346 0.0
C3372 C 0.33642 0.87338 0.87143 0.0
C3373 C 0.33166 0.86133 0.89096 0.0
C3374 C 0.32855 0.83553 0.88688 0.0
C3375 C 0.32913 0.82193 0.86328 0.0
H3376 H 0.97224 0.56403 0.74449 0.0
H3377 H 1.00637 0.53178 0.79523 0.0
H3378 H 1.00139 0.56286 0.71784 0.0
H3379 H 0.03584 0.53103 0.76864 0.0
H3380 H 0.06185 0.50079 0.69418 0.0
H3381 H 0.03929 0.50755 0.7278 0.0
H3382 H 0.04006 0.5807 0.71516 0.0
H3383 H 0.06243 0.57378 0.68134 0.0
C3384 C 0.98609 0.55693 0.75008 0.0
C3385 C 0.98694 0.54784 0.77186 0.0
C3386 C 1.0029 0.55647 0.73492 0.0
C3387 C 0.02095 0.54694 0.74121 0.0
C3388 C 0.02204 0.53832 0.76326 0.0
C3389 C 1.0052 0.53879 0.77847 0.0
C3390 C 0.05768 0.51854 0.69906 0.0
C3391 C 0.0636 0.53666 0.68503 0.0
C3392 C 0.04477 0.52243 0.7183 0.0
C3393 C 0.03765 0.54452 0.72384 0.0
C3394 C 0.04493 0.5633 0.71093 0.0
C3395 C 0.05776 0.55938 0.69167 0.0
H3396 H 0.29385 0.26493 0.47221 0.0
H3397 H 0.32492 0.2058 0.44449 0.0
H3398 H 0.29755 0.27946 0.43368 0.0
H3399 H 0.32877 0.22049 0.40608 0.0
H3400 H 0.30583 0.23513 0.33098 0.0
H3401 H 0.30439 0.2221 0.37031 0.0
H3402 H 0.325 0.29835 0.40862 0.0
H3403 H 0.32586 0.31141 0.36911 0.0
C3404 C 0.30164 0.25514 0.458 0.0
C3405 C 0.30899 0.23412 0.46146 0.0
C3406 C 0.30386 0.26356 0.43594 0.0
C3407 C 0.31336 0.25108 0.41671 0.0
C3408 C 0.3211 0.23034 0.42037 0.0
C3409 C 0.31901 0.22201 0.44248 0.0
C3410 C 0.3098 0.24913 0.34775 0.0
C3411 C 0.31565 0.27431 0.34685 0.0
C3412 C 0.30929 0.24165 0.37035 0.0
C3413 C 0.31457 0.25917 0.39268 0.0
C3414 C 0.32063 0.28438 0.39179 0.0
C3415 C 0.32129 0.29185 0.36914 0.0
H3416 H 0.37913 0.62648 0.51363 0.0
H3417 H 0.32322 0.5639 0.49944 0.0
H3418 H 0.40351 0.59865 0.5045 0.0
H3419 H 0.3476 0.53607 0.48969 0.0
H3420 H 0.40272 0.49548 0.50532 0.0
H3421 H 0.37563 0.52077 0.51007 0.0
H3422 H 0.41338 0.57127 0.47061 0.0
H3423 H 0.44057 0.54622 0.46635 0.0
C3424 C 0.37202 0.6068 0.5084 0.0
C3425 C 0.34925 0.59742 0.50731 0.0
C3426 C 0.38598 0.59083 0.50297 0.0
C3427 C 0.37749 0.56512 0.49621 0.0
C3428 C 0.35469 0.55575 0.49505 0.0
C3429 C 0.34072 0.57172 0.50055 0.0
C3430 C 0.40492 0.5117 0.49724 0.0
C3431 C 0.42379 0.51905 0.48568 0.0
C3432 C 0.38945 0.52622 0.49997 0.0
C3433 C 0.39253 0.54826 0.49105 0.0
C3434 C 0.4108 0.55475 0.47823 0.0
C3435 C 0.42628 0.54034 0.47564 0.0
H3436 H 0.91599 0.90462 0.54836 0.0
H3437 H 0.89157 0.97091 0.55362 0.0
H3438 H 0.95295 0.92837 0.5454 0.0
H3439 H 0.92876 0.99473 0.55124 0.0
H3440 H 1.00521 0.02848 0.57244 0.0
H3441 H 0.96878 1.00534 0.57814 0.0
H3442 H 0.96846 0.95273 0.51104 0.0
H3443 H 1.00429 0.97632 0.50462 0.0
C3444 C 0.91855 0.9243 0.54918 0.0
C3445 C 0.90085 0.93589 0.55115 0.0
C3446 C 0.93968 0.93784 0.5474 0.0
C3447 C 0.94364 0.96333 0.5481 0.0
C3448 C 0.92612 0.9751 0.5508 0.0
C3449 C 0.90487 0.96146 0.55203 0.0
C3450 C 0.99723 1.01229 0.55864 0.0
C3451 C 1.00745 1.00479 0.53766 0.0
C3452 C 0.97644 0.99895 0.56203 0.0
C3453 C 0.9658 0.97738 0.54494 0.0
C3454 C 0.97633 0.96933 0.52449 0.0
C3455 C 0.99684 0.98295 0.5208 0.0
H3456 H 0.92349 0.16206 0.24024 0.0
H3457 H 0.89186 0.13772 0.30068 0.0
H3458 H 0.90362 0.1942 0.24213 0.0
H3459 H 0.87111 0.17056 0.30237 0.0
H3460 H 0.84929 0.24934 0.30858 0.0
H3461 H 0.86739 0.21476 0.31056 0.0
H3462 H 0.87133 0.20451 0.23233 0.0
H3463 H 0.85395 0.23854 0.23066 0.0
C3464 C 0.91214 0.16323 0.25405 0.0
C3465 C 0.90973 0.1463 0.27014 0.0
C3466 C 0.90028 0.18207 0.255 0.0
C3467 C 0.88489 0.18566 0.27212 0.0
C3468 C 0.88256 0.16905 0.28872 0.0
C3469 C 0.89456 0.14983 0.2877 0.0
C3470 C 0.85375 0.2395 0.29174 0.0
C3471 C 0.84965 0.24721 0.26931 0.0
C3472 C 0.86435 0.21943 0.29285 0.0
C3473 C 0.87172 0.20627 0.2717 0.0
C3474 C 0.86693 0.21386 0.24944 0.0
C3475 C 0.85649 0.23362 0.24837 0.0
H3476 H 0.73514 0.08146 0.0411 0.0
H3477 H 0.72827 0.12394 0.98515 0.0
H3478 H 0.69507 0.07111 0.04113 0.0
H3479 H 0.68862 0.11375 0.98547 0.0
H3480 H 0.62507 0.12019 0.02147 0.0
H3481 H 0.66474 0.12666 0.01914 0.0
H3482 H 0.65944 0.04823 0.011 0.0
H3483 H 0.61981 0.04177 0.0127 0.0
C3484 C 0.72513 0.08828 0.02861 0.0
C3485 C 0.7349 0.10369 0.01331 0.0
C3486 C 0.70226 0.08237 0.02865 0.0
C3487 C 0.68893 0.09198 0.01355 0.0
C3488 C 0.69862 0.10648 0.99756 0.0
C3489 C 0.72134 0.11217 0.99733 0.0
C3490 C 0.63246 0.10441 0.01923 0.0
C3491 C 0.61961 0.08063 0.01815 0.0
C3492 C 0.65504 0.10806 0.01783 0.0
C3493 C 0.66506 0.08792 0.0151 0.0
C3494 C 0.65211 0.06406 0.01349 0.0
C3495 C 0.62948 0.0604 0.01461 0.0
H3496 H 0.26282 0.51057 0.28911 0.0
H3497 H 0.20474 0.45125 0.28145 0.0
H3498 H 0.28366 0.4877 0.31083 0.0
H3499 H 0.22581 0.42826 0.30299 0.0
H3500 H 0.28202 0.38661 0.31269 0.0
H3501 H 0.25902 0.40894 0.29335 0.0
H3502 H 0.2826 0.47257 0.35257 0.0
H3503 H 0.30537 0.44975 0.37227 0.0
C3504 C 0.25454 0.49257 0.29188 0.0
C3505 C 0.23213 0.48266 0.28351 0.0
C3506 C 0.26643 0.47964 0.30454 0.0
C3507 C 0.25625 0.45639 0.30874 0.0
C3508 C 0.23399 0.44621 0.29998 0.0
C3509 C 0.22198 0.45933 0.28765 0.0
C3510 C 0.28199 0.40516 0.32176 0.0
C3511 C 0.29532 0.4163 0.34401 0.0
C3512 C 0.26885 0.41795 0.31072 0.0
C3513 C 0.26908 0.44244 0.32149 0.0
C3514 C 0.28223 0.45368 0.34389 0.0
C3515 C 0.29511 0.44061 0.35521 0.0
H3516 H 0.24459 0.41975 0.0474 0.0
H3517 H 0.30001 0.47149 0.03007 0.0
H3518 H 0.22095 0.4477 0.04158 0.0
H3519 H 0.27643 0.49959 0.02464 0.0
H3520 H 0.22295 0.53132 0.99098 0.0
H3521 H 0.24633 0.50315 0.99673 0.0
H3522 H 0.2143 0.48752 0.06036 0.0
H3523 H 0.19096 0.51582 0.0547 0.0
C3524 C 0.25177 0.43711 0.04242 0.0
C3525 C 0.27423 0.44332 0.03918 0.0
C3526 C 0.23821 0.45323 0.03923 0.0
C3527 C 0.24674 0.47594 0.03263 0.0
C3528 C 0.26922 0.48213 0.0294 0.0
C3529 C 0.28279 0.46605 0.03266 0.0
C3530 C 0.221 0.52207 1.00635 0.0
C3531 C 0.20505 0.52595 0.0224 0.0
C3532 C 0.23443 0.50588 0.00964 0.0
C3533 C 0.23227 0.49306 0.02905 0.0
C3534 C 0.21623 0.4968 0.04501 0.0
C3535 C 0.20281 0.51304 0.04175 0.0
H3536 H 0.89301 0.99737 0.24541 0.0
H3537 H 0.91097 0.99876 0.32196 0.0
H3538 H 0.87318 0.95369 0.23998 0.0
H3539 H 0.89141 0.95604 0.31668 0.0
H3540 H 0.87513 0.87254 0.29775 0.0
H3541 H 0.89362 0.91531 0.29984 0.0
H3542 H 0.84161 0.92284 0.24915 0.0
H3543 H 0.8231 0.87938 0.24673 0.0
C3544 C 0.89275 0.98858 0.26112 0.0
C3545 C 0.90391 1.00212 0.28415 0.0
C3546 C 0.88124 0.96337 0.25804 0.0
C3547 C 0.88067 0.95066 0.27779 0.0
C3548 C 0.89162 0.96447 0.30073 0.0
C3549 C 0.90286 0.98942 0.30381 0.0
C3550 C 0.86741 0.8831 0.28699 0.0
C3551 C 0.84715 0.87202 0.27239 0.0
C3552 C 0.87811 0.90803 0.28831 0.0
C3553 C 0.86923 0.9233 0.27499 0.0
C3554 C 0.84923 0.91208 0.25978 0.0
C3555 C 0.83839 0.887 0.25856 0.0
H3556 H 0.70247 0.12795 0.74867 0.0
H3557 H 0.76342 0.10773 0.76637 0.0
H3558 H 0.72087 0.17145 0.76181 0.0
H3559 H 0.78194 0.15132 0.77899 0.0
H3560 H 0.80523 0.23111 0.81939 0.0
H3561 H 0.78398 0.18811 0.81072 0.0
H3562 H 0.74746 0.20182 0.74811 0.0
H3563 H 0.76815 0.24453 0.7573 0.0
C3564 C 0.71985 0.13277 0.75516 0.0
C3565 C 0.7315 0.11436 0.75636 0.0
C3566 C 0.7304 0.15773 0.76269 0.0
C3567 C 0.75287 0.16487 0.7715 0.0
C3568 C 0.76453 0.14644 0.77267 0.0
C3569 C 0.75397 0.12146 0.76519 0.0
C3570 C 0.79257 0.22478 0.80387 0.0
C3571 C 0.78899 0.24066 0.78828 0.0
C3572 C 0.7805 0.20023 0.79882 0.0
C3573 C 0.76432 0.1914 0.77843 0.0
C3574 C 0.75978 0.20794 0.76394 0.0
C3575 C 0.77192 0.23235 0.76892 0.0
loop_
_geom_bond_atom_site_label_1
_geom_bond_atom_site_label_2
_geom_bond_distance
_geom_bond_site_symmetry_2
_ccdc_geom_bond_type
C0 O1 1.160 . S
C0 O7 1.185 . S
O1 C0 1.160 . S
O2 Zn3 1.899 . S
O2 C10 1.284 . S
Zn3 O2 1.899 . S
Zn3 O4 2.032 . S
Zn3 O7 2.086 . S
Zn3 O12 1.977 . S
O4 Zn3 2.032 . S
O4 C8 1.278 . S
C5 O6 1.203 . S
C5 O12 1.267 . S
O6 C5 1.203 . S
O7 C0 1.185 . S
O7 Zn3 2.086 . S
C8 O4 1.278 . S
C8 O9 1.211 . S
O9 C8 1.211 . S
C10 O2 1.284 . S
C10 O11 1.273 . S
O11 C10 1.273 . S
O12 Zn3 1.977 . S
O12 C5 1.267 . S
C13 O14 1.160 . S
C13 O20 1.185 . S
O14 C13 1.160 . S
O15 Zn16 1.899 . S
O15 C23 1.284 . S
Zn16 O15 1.899 . S
Zn16 O17 2.032 . S
Zn16 O20 2.086 . S
Zn16 O25 1.977 1_655 S
O17 Zn16 2.032 . S
O17 C21 1.278 1_655 S
C18 O19 1.203 . S
C18 O25 1.267 . S
O19 C18 1.203 . S
O20 C13 1.185 . S
O20 Zn16 2.086 . S
C21 O17 1.278 1_455 S
C21 O22 1.211 . S
O22 C21 1.211 . S
C23 O15 1.284 . S
C23 O24 1.273 1_655 S
O24 C23 1.273 1_455 S
O25 Zn16 1.977 1_455 S
O25 C18 1.267 . S
C26 O27 1.160 . S
C26 O33 1.185 . S
O27 C26 1.160 . S
O28 Zn29 1.899 . S
O28 C36 1.284 . S
Zn29 O28 1.899 . S
Zn29 O30 2.032 . S
Zn29 O33 2.086 . S
Zn29 O38 1.977 . S
O30 Zn29 2.032 . S
O30 C34 1.278 . S
C31 O32 1.203 . S
C31 O38 1.267 . S
O32 C31 1.203 . S
O33 C26 1.185 . S
O33 Zn29 2.086 . S
C34 O30 1.278 . S
C34 O35 1.211 . S
O35 C34 1.211 . S
C36 O28 1.284 . S
C36 O37 1.273 . S
O37 C36 1.273 . S
O38 Zn29 1.977 . S
O38 C31 1.267 . S
C39 O40 1.160 . S
C39 O46 1.185 . S
O40 C39 1.160 . S
O41 Zn42 1.899 . S
O41 C49 1.284 . S
Zn42 O41 1.899 . S
Zn42 O43 2.032 . S
Zn42 O46 2.086 . S
Zn42 O51 1.977 . S
O43 Zn42 2.032 . S
O43 C47 1.278 . S
C44 O45 1.203 . S
C44 O51 1.267 . S
O45 C44 1.203 . S
O46 C39 1.185 . S
O46 Zn42 2.086 . S
C47 O43 1.278 . S
C47 O48 1.211 . S
O48 C47 1.211 . S
C49 O41 1.284 . S
C49 O50 1.273 . S
O50 C49 1.273 . S
O51 Zn42 1.977 . S
O51 C44 1.267 . S
C52 O53 1.160 . S
C52 O59 1.185 . S
O53 C52 1.160 . S
O54 Zn55 1.899 . S
O54 C62 1.284 . S
Zn55 O54 1.899 . S
Zn55 O56 2.032 . S
Zn55 O59 2.086 . S
Zn55 O64 1.977 . S
O56 Zn55 2.032 . S
O56 C60 1.278 . S
C57 O58 1.203 . S
C57 O64 1.267 . S
O58 C57 1.203 . S
O59 C52 1.185 . S
O59 Zn55 2.086 . S
C60 O56 1.278 . S
C60 O61 1.211 . S
O61 C60 1.211 . S
C62 O54 1.284 . S
C62 O63 1.273 . S
O63 C62 1.273 . S
O64 Zn55 1.977 . S
O64 C57 1.267 . S
C65 O66 1.160 . S
C65 O72 1.185 . S
O66 C65 1.160 . S
O67 Zn68 1.899 . S
O67 C75 1.284 . S
Zn68 O67 1.899 . S
Zn68 O69 2.032 . S
Zn68 O72 2.086 . S
Zn68 O77 1.977 . S
O69 Zn68 2.032 . S
O69 C73 1.278 . S
C70 O71 1.203 . S
C70 O77 1.267 . S
O71 C70 1.203 . S
O72 C65 1.185 . S
O72 Zn68 2.086 . S
C73 O69 1.278 . S
C73 O74 1.211 . S
O74 C73 1.211 . S
C75 O67 1.284 . S
C75 O76 1.273 . S
O76 C75 1.273 . S
O77 Zn68 1.977 . S
O77 C70 1.267 . S
C78 O79 1.160 . S
C78 O85 1.185 . S
O79 C78 1.160 . S
O80 Zn81 1.899 . S
O80 C88 1.284 . S
Zn81 O80 1.899 . S
Zn81 O82 2.032 . S
Zn81 O85 2.086 . S
Zn81 O90 1.977 . S
O82 Zn81 2.032 . S
O82 C86 1.278 . S
C83 O84 1.203 . S
C83 O90 1.267 . S
O84 C83 1.203 . S
O85 C78 1.185 . S
O85 Zn81 2.086 . S
C86 O82 1.278 . S
C86 O87 1.211 . S
O87 C86 1.211 . S
C88 O80 1.284 . S
C88 O89 1.273 . S
O89 C88 1.273 . S
O90 Zn81 1.977 . S
O90 C83 1.267 . S
C91 O92 1.160 . S
C91 O98 1.185 . S
O92 C91 1.160 . S
O93 Zn94 1.899 . S
O93 C101 1.284 . S
Zn94 O93 1.899 . S
Zn94 O95 2.032 . S
Zn94 O98 2.086 . S
Zn94 O103 1.977 1_455 S
O95 Zn94 2.032 . S
O95 C99 1.278 . S
C96 O97 1.203 . S
C96 O103 1.267 . S
O97 C96 1.203 . S
O98 C91 1.185 . S
O98 Zn94 2.086 . S
C99 O95 1.278 . S
C99 O100 1.211 . S
O100 C99 1.211 . S
C101 O93 1.284 . S
C101 O102 1.273 . S
O102 C101 1.273 . S
O103 Zn94 1.977 1_655 S
O103 C96 1.267 . S
C104 O105 1.160 . S
C104 O111 1.185 . S
O105 C104 1.160 . S
O106 Zn107 1.899 . S
O106 C114 1.284 . S
Zn107 O106 1.899 . S
Zn107 O108 2.032 . S
Zn107 O111 2.086 . S
Zn107 O116 1.977 1_545 S
O108 Zn107 2.032 . S
O108 C112 1.278 . S
C109 O110 1.203 . S
C109 O116 1.267 . S
O110 C109 1.203 . S
O111 C104 1.185 . S
O111 Zn107 2.086 . S
C112 O108 1.278 . S
C112 O113 1.227 . S
O113 C112 1.227 . S
C114 O106 1.284 . S
C114 O115 1.273 . S
O115 C114 1.273 . S
O116 Zn107 1.977 1_565 S
O116 C109 1.267 . S
C117 O118 1.160 . S
C117 O124 1.185 . S
O118 C117 1.160 . S
O119 Zn120 1.899 . S
O119 C127 1.284 . S
Zn120 O119 1.899 . S
Zn120 O121 2.032 . S
Zn120 O124 2.086 . S
Zn120 O129 1.977 . S
O121 Zn120 2.032 . S
O121 C125 1.278 . S
C122 O123 1.203 . S
C122 O129 1.267 . S
O123 C122 1.203 . S
O124 C117 1.185 . S
O124 Zn120 2.086 . S
C125 O121 1.278 . S
C125 O126 1.211 . S
O126 C125 1.211 . S
C127 O119 1.284 . S
C127 O128 1.273 . S
O128 C127 1.273 . S
O129 Zn120 1.977 . S
O129 C122 1.267 . S
C130 O131 1.160 . S
C130 O137 1.185 . S
O131 C130 1.160 . S
O132 Zn133 1.899 . S
O132 C140 1.284 . S
Zn133 O132 1.899 . S
Zn133 O134 2.032 . S
Zn133 O137 2.086 . S
Zn133 O142 1.977 1_565 S
O134 Zn133 2.032 . S
O134 C138 1.278 1_565 S
C135 O136 1.203 . S
C135 O142 1.267 . S
O136 C135 1.203 . S
O137 C130 1.185 . S
O137 Zn133 2.086 . S
C138 O134 1.278 1_545 S
C138 O139 1.211 . S
O139 C138 1.211 . S
C140 O132 1.284 . S
C140 O141 1.273 1_565 S
O141 C140 1.273 1_545 S
O142 Zn133 1.977 1_545 S
O142 C135 1.267 . S
C143 O144 1.160 . S
C143 O150 1.185 . S
O144 C143 1.160 . S
O145 Zn146 1.899 . S
O145 C153 1.284 . S
Zn146 O145 1.899 . S
Zn146 O147 2.032 1_554 S
Zn146 O150 2.086 . S
Zn146 O155 1.977 . S
O147 Zn146 2.032 1_556 S
O147 C151 1.278 . S
C148 O149 1.203 . S
C148 O155 1.267 . S
O149 C148 1.203 . S
O150 C143 1.185 . S
O150 Zn146 2.086 . S
C151 O147 1.278 . S
C151 O152 1.211 . S
O152 C151 1.211 . S
C153 O145 1.284 . S
C153 O154 1.273 . S
O154 C153 1.273 . S
O155 Zn146 1.977 . S
O155 C148 1.267 . S
C156 O157 1.160 . S
C156 O163 1.185 . S
O157 C156 1.160 . S
O158 Zn159 1.899 . S
O158 C166 1.284 . S
Zn159 O158 1.899 . S
Zn159 O160 2.032 . S
Zn159 O163 2.086 . S
Zn159 O168 1.977 . S
O160 Zn159 2.032 . S
O160 C164 1.278 1_554 S
C161 O162 1.203 . S
C161 O168 1.267 . S
O162 C161 1.203 . S
O163 C156 1.185 . S
O163 Zn159 2.086 . S
C164 O160 1.278 1_556 S
C164 O165 1.211 1_556 S
O165 C164 1.211 1_554 S
C166 O158 1.284 . S
C166 O167 1.273 . S
O167 C166 1.273 . S
O168 Zn159 1.977 . S
O168 C161 1.267 . S
C169 O170 1.160 . S
C169 O176 1.185 . S
O170 C169 1.160 . S
O171 Zn172 1.899 . S
O171 C179 1.284 . S
Zn172 O171 1.899 . S
Zn172 O173 2.032 . S
Zn172 O176 2.086 . S
Zn172 O181 1.977 . S
O173 Zn172 2.032 . S
O173 C177 1.278 1_554 S
C174 O175 1.203 . S
C174 O181 1.267 . S
O175 C174 1.203 . S
O176 C169 1.185 . S
O176 Zn172 2.086 . S
C177 O173 1.278 1_556 S
C177 O178 1.211 . S
O178 C177 1.211 . S
C179 O171 1.284 . S
C179 O180 1.273 . S
O180 C179 1.273 . S
O181 Zn172 1.977 . S
O181 C174 1.267 . S
C182 O183 1.160 . S
C182 O189 1.185 . S
O183 C182 1.160 . S
O184 Zn185 1.899 . S
O184 C192 1.284 . S
Zn185 O184 1.899 . S
Zn185 O186 2.032 . S
Zn185 O189 2.086 . S
Zn185 O194 1.977 . S
O186 Zn185 2.032 . S
O186 C190 1.278 . S
C187 O188 1.203 . S
C187 O194 1.267 . S
O188 C187 1.203 . S
O189 C182 1.185 . S
O189 Zn185 2.086 . S
C190 O186 1.278 . S
C190 O191 1.211 . S
O191 C190 1.211 . S
C192 O184 1.284 . S
C192 O193 1.273 . S
O193 C192 1.273 . S
O194 Zn185 1.977 . S
O194 C187 1.267 . S
C195 O196 1.160 . S
C195 O202 1.185 . S
O196 C195 1.160 . S
O197 Zn198 1.899 . S
O197 C205 1.284 . S
Zn198 O197 1.899 . S
Zn198 O199 2.032 . S
Zn198 O202 2.086 . S
Zn198 O207 1.977 . S
O199 Zn198 2.032 . S
O199 C203 1.278 . S
C200 O201 1.203 . S
C200 O207 1.267 . S
O201 C200 1.203 . S
O202 C195 1.185 . S
O202 Zn198 2.086 . S
C203 O199 1.278 . S
C203 O204 1.211 . S
O204 C203 1.211 . S
C205 O197 1.284 . S
C205 O206 1.273 . S
O206 C205 1.273 . S
O207 Zn198 1.977 . S
O207 C200 1.267 . S
C208 O209 1.160 . S
C208 O215 1.185 . S
O209 C208 1.160 . S
O210 Zn211 1.899 . S
O210 C218 1.284 . S
Zn211 O210 1.899 . S
Zn211 O212 2.032 . S
Zn211 O215 2.086 . S
Zn211 O220 1.977 . S
O212 Zn211 2.032 . S
O212 C216 1.278 . S
C213 O214 1.203 . S
C213 O220 1.267 . S
O214 C213 1.203 . S
O215 C208 1.185 . S
O215 Zn211 2.086 . S
C216 O212 1.278 . S
C216 O217 1.211 . S
O217 C216 1.211 . S
C218 O210 1.284 . S
C218 O219 1.273 . S
O219 C218 1.273 . S
O220 Zn211 1.977 . S
O220 C213 1.267 . S
C221 O222 1.160 . S
C221 O228 1.185 . S
O222 C221 1.160 . S
O223 Zn224 1.899 . S
O223 C231 1.284 . S
Zn224 O223 1.899 . S
Zn224 O225 2.032 . S
Zn224 O228 2.086 . S
Zn224 O233 1.977 . S
O225 Zn224 2.032 . S
O225 C229 1.278 . S
C226 O227 1.203 . S
C226 O233 1.267 . S
O227 C226 1.203 . S
O228 C221 1.185 . S
O228 Zn224 2.086 . S
C229 O225 1.278 . S
C229 O230 1.211 . S
O230 C229 1.211 . S
C231 O223 1.284 . S
C231 O232 1.273 . S
O232 C231 1.273 . S
O233 Zn224 1.977 . S
O233 C226 1.267 . S
C234 O235 1.160 . S
C234 O241 1.185 . S
O235 C234 1.160 . S
O236 Zn237 1.899 . S
O236 C244 1.284 . S
Zn237 O236 1.899 . S
Zn237 O238 2.032 . S
Zn237 O241 2.086 . S
Zn237 O246 1.977 . S
O238 Zn237 2.032 . S
O238 C242 1.278 . S
C239 O240 1.203 . S
C239 O246 1.267 . S
O240 C239 1.203 . S
O241 C234 1.185 . S
O241 Zn237 2.086 . S
C242 O238 1.278 . S
C242 O243 1.211 . S
O243 C242 1.211 . S
C244 O236 1.284 . S
C244 O245 1.273 . S
O245 C244 1.273 . S
O246 Zn237 1.977 . S
O246 C239 1.267 . S
C247 O248 1.160 1_545 S
C247 O254 1.185 . S
O248 C247 1.160 1_565 S
O249 Zn250 1.899 . S
O249 C257 1.284 . S
Zn250 O249 1.899 . S
Zn250 O251 2.032 . S
Zn250 O254 2.086 . S
Zn250 O259 1.977 . S
O251 Zn250 2.032 . S
O251 C255 1.278 . S
C252 O253 1.203 . S
C252 O259 1.267 . S
O253 C252 1.203 . S
O254 C247 1.185 . S
O254 Zn250 2.086 . S
C255 O251 1.278 . S
C255 O256 1.211 . S
O256 C255 1.211 . S
C257 O249 1.284 . S
C257 O258 1.273 . S
O258 C257 1.273 . S
O259 Zn250 1.977 . S
O259 C252 1.267 . S
C260 O261 1.160 . S
C260 O267 1.185 1_554 S
O261 C260 1.160 . S
O262 Zn263 1.899 . S
O262 C270 1.284 . S
Zn263 O262 1.899 . S
Zn263 O264 2.032 1_554 S
Zn263 O267 2.086 1_554 S
Zn263 O272 1.977 1_554 S
O264 Zn263 2.032 1_556 S
O264 C268 1.278 . S
C265 O266 1.203 1_556 S
C265 O272 1.267 . S
O266 C265 1.203 1_554 S
O267 C260 1.185 1_556 S
O267 Zn263 2.086 1_556 S
C268 O264 1.278 . S
C268 O269 1.211 . S
O269 C268 1.211 . S
C270 O262 1.284 . S
C270 O271 1.273 . S
O271 C270 1.273 . S
O272 Zn263 1.977 1_556 S
O272 C265 1.267 . S
C273 O274 1.160 . S
C273 O280 1.185 . S
O274 C273 1.160 . S
O275 Zn276 1.899 . S
O275 C283 1.284 . S
Zn276 O275 1.899 . S
Zn276 O277 2.032 . S
Zn276 O280 2.086 . S
Zn276 O285 1.977 . S
O277 Zn276 2.032 . S
O277 C281 1.278 . S
C278 O279 1.203 . S
C278 O285 1.267 . S
O279 C278 1.203 . S
O280 C273 1.185 . S
O280 Zn276 2.086 . S
C281 O277 1.278 . S
C281 O282 1.211 . S
O282 C281 1.211 . S
C283 O275 1.284 . S
C283 O284 1.273 . S
O284 C283 1.273 . S
O285 Zn276 1.977 . S
O285 C278 1.267 . S
C286 O287 1.160 . S
C286 O293 1.185 . S
O287 C286 1.160 . S
O288 Zn289 1.899 . S
O288 C296 1.284 . S
Zn289 O288 1.899 . S
Zn289 O290 2.032 . S
Zn289 O293 2.086 . S
Zn289 O298 1.977 . S
O290 Zn289 2.032 . S
O290 C294 1.278 . S
C291 O292 1.203 . S
C291 O298 1.267 . S
O292 C291 1.203 . S
O293 C286 1.185 . S
O293 Zn289 2.086 . S
C294 O290 1.278 . S
C294 O295 1.211 . S
O295 C294 1.211 . S
C296 O288 1.284 . S
C296 O297 1.273 . S
O297 C296 1.273 . S
O298 Zn289 1.977 . S
O298 C291 1.267 . S
C299 O300 1.160 . S
C299 O306 1.185 . S
O300 C299 1.160 . S
O301 Zn302 1.899 . S
O301 C309 1.284 . S
Zn302 O301 1.899 . S
Zn302 O303 2.032 . S
Zn302 O306 2.086 . S
Zn302 O311 1.977 . S
O303 Zn302 2.032 . S
O303 C307 1.278 . S
C304 O305 1.203 . S
C304 O311 1.267 . S
O305 C304 1.203 . S
O306 C299 1.185 . S
O306 Zn302 2.086 . S
C307 O303 1.278 . S
C307 O308 1.211 . S
O308 C307 1.211 . S
C309 O301 1.284 . S
C309 O310 1.273 . S
O310 C309 1.273 . S
O311 Zn302 1.977 . S
O311 C304 1.267 . S
Tb312 N343 2.645 1_546 S
Tb312 N350 2.612 1_545 S
Tb312 O356 2.562 1_455 S
Tb312 O357 2.606 1_556 S
Tb312 O359 2.296 1_556 S
Tb312 O360 2.559 . S
Tb312 O361 2.408 1_456 S
Tb312 O363 2.353 1_556 S
Tb312 O364 2.440 . S
Tb312 C376 2.839 1_455 S
C313 C316 1.432 . S
C313 C317 1.414 . S
C313 N320 1.359 . S
C314 C316 1.417 . S
C314 C318 1.432 . S
C314 C326 1.410 1_554 S
C315 C317 1.444 . S
C315 C318 1.317 . S
C315 H338 0.929 . S
C316 C313 1.432 . S
C316 C314 1.417 . S
C316 N324 1.360 . S
C317 C313 1.414 . S
C317 C315 1.444 . S
C317 C322 1.385 . S
C318 C314 1.432 . S
C318 C315 1.317 . S
C318 H330 0.930 . S
C319 C321 1.392 . S
C319 C322 1.370 . S
C319 H331 0.931 . S
N320 C313 1.359 . S
N320 C321 1.327 . S
N320 Tb323 2.600 . S
C321 C319 1.392 . S
C321 N320 1.327 . S
C321 H328 0.930 . S
C322 C317 1.385 . S
C322 C319 1.370 . S
C322 H341 0.930 . S
Tb323 N320 2.600 . S
Tb323 N324 2.660 . S
Tb323 O357 2.362 . S
Tb323 O358 2.421 . S
Tb323 O362 2.546 . S
Tb323 O363 2.610 . S
Tb323 O365 2.320 1_554 S
Tb323 O366 2.552 . S
Tb323 O367 2.413 . S
Tb323 C387 2.833 . S
N324 C316 1.360 . S
N324 Tb323 2.660 . S
N324 C325 1.305 1_554 S
C325 N324 1.305 1_556 S
C325 C327 1.407 . S
C325 H332 0.930 . S
C326 C314 1.410 1_556 S
C326 C327 1.345 . S
C326 H334 0.930 . S
C327 C325 1.407 . S
C327 C326 1.345 . S
C327 H329 0.930 . S
H328 C321 0.930 . S
H329 C327 0.930 . S
H330 C318 0.930 . S
H331 C319 0.931 . S
H332 C325 0.930 . S
H333 C347 0.929 . S
H334 C326 0.930 . S
H335 C353 0.930 . S
H336 C344 0.930 . S
H337 C351 0.931 . S
H338 C315 0.929 . S
H339 C345 0.930 . S
H340 C378 0.930 . S
H341 C322 0.930 . S
H342 C377 0.929 . S
N343 Tb312 2.645 1_564 S
N343 C344 1.305 . S
N343 C348 1.360 1_455 S
C344 H336 0.930 . S
C344 N343 1.305 . S
C344 C347 1.407 1_455 S
C345 H339 0.930 . S
C345 C346 1.410 . S
C345 C347 1.345 . S
C346 C345 1.410 . S
C346 C348 1.417 . S
C346 C378 1.432 1_554 S
C347 H333 0.929 . S
C347 C344 1.407 1_655 S
C347 C345 1.345 . S
C348 N343 1.360 1_655 S
C348 C346 1.417 . S
C348 C352 1.432 1_554 S
H349 C354 0.930 . S
N350 Tb312 2.612 1_565 S
N350 C352 1.359 1_455 S
N350 C353 1.327 . S
C351 H337 0.931 . S
C351 C353 1.392 1_655 S
C351 C354 1.370 . S
C352 C348 1.432 1_556 S
C352 N350 1.359 1_655 S
C352 C355 1.414 . S
C353 H335 0.930 . S
C353 N350 1.327 . S
C353 C351 1.392 1_455 S
C354 H349 0.930 . S
C354 C351 1.370 . S
C354 C355 1.385 . S
C355 C352 1.414 . S
C355 C354 1.385 . S
C355 C377 1.444 . S
O356 Tb312 2.562 1_655 S
O356 C376 1.251 . S
O357 Tb312 2.606 1_554 S
O357 Tb323 2.362 . S
O357 C368 1.283 . S
O358 Tb323 2.421 . S
O358 C375 1.262 . S
O359 Tb312 2.296 1_554 S
O359 C375 1.260 . S
O360 Tb312 2.559 . S
O360 C368 1.243 1_556 S
O361 Tb312 2.408 1_654 S
O361 C376 1.256 1_554 S
O362 Tb323 2.546 . S
O362 C387 1.251 . S
O363 Tb312 2.353 1_554 S
O363 Tb323 2.610 . S
O363 C379 1.283 1_545 S
O364 Tb312 2.440 . S
O364 C386 1.262 . S
O365 Tb323 2.320 1_556 S
O365 C386 1.260 . S
O366 Tb323 2.552 . S
O366 C379 1.243 1_545 S
O367 Tb323 2.413 . S
O367 C387 1.256 . S
C368 O357 1.283 . S
C368 O360 1.243 1_554 S
C369 C371 1.382 . S
C369 C373 1.393 . S
C369 C376 1.500 . S
C370 C371 1.400 . S
C370 C372 1.384 . S
C371 C369 1.382 . S
C371 C370 1.400 . S
C371 H388 0.930 1_556 S
C372 C370 1.384 . S
C372 C374 1.392 . S
C372 H389 0.931 . S
C373 C369 1.393 . S
C373 C374 1.401 . S
C373 H390 0.930 . S
C374 C372 1.392 . S
C374 C373 1.401 . S
C374 H391 0.930 . S
C375 O358 1.262 . S
C375 O359 1.260 . S
C376 Tb312 2.839 1_655 S
C376 O356 1.251 . S
C376 O361 1.256 1_556 S
C376 C369 1.500 . S
C377 H342 0.929 . S
C377 C355 1.444 . S
C377 C378 1.317 . S
C378 H340 0.930 . S
C378 C346 1.432 1_556 S
C378 C377 1.317 . S
C379 O363 1.283 1_565 S
C379 O366 1.243 1_565 S
C380 C381 1.382 . S
C380 C384 1.393 . S
C380 C387 1.500 . S
C381 C380 1.382 . S
C381 C382 1.400 . S
C381 H392 0.930 . S
C382 C381 1.400 . S
C382 C383 1.384 . S
C383 C382 1.384 . S
C383 C385 1.392 . S
C383 H393 0.931 . S
C384 C380 1.393 . S
C384 C385 1.401 . S
C384 H394 0.930 . S
C385 C383 1.392 . S
C385 C384 1.401 . S
C385 H395 0.930 . S
C386 O364 1.262 . S
C386 O365 1.260 . S
C387 Tb323 2.833 . S
C387 O362 1.251 . S
C387 O367 1.256 . S
C387 C380 1.500 . S
H388 C371 0.930 1_554 S
H389 C372 0.931 . S
H390 C373 0.930 . S
H391 C374 0.930 . S
H392 C381 0.930 . S
H393 C383 0.931 . S
H394 C384 0.930 . S
H395 C385 0.930 . S
Tb396 N427 2.660 . S
Tb396 N434 2.600 . S
Tb396 O440 2.546 . S
Tb396 O441 2.610 . S
Tb396 O443 2.320 . S
Tb396 O444 2.552 . S
Tb396 O445 2.413 . S
Tb396 O447 2.362 . S
Tb396 O448 2.421 . S
Tb396 C460 2.833 . S
C397 C400 1.432 . S
C397 C401 1.414 . S
C397 N404 1.359 . S
C398 C400 1.417 . S
C398 C402 1.432 . S
C398 C410 1.410 . S
C399 C401 1.444 . S
C399 C402 1.317 . S
C399 H422 0.929 . S
C400 C397 1.432 . S
C400 C398 1.417 . S
C400 N408 1.360 . S
C401 C397 1.414 . S
C401 C399 1.444 . S
C401 C406 1.385 . S
C402 C398 1.432 . S
C402 C399 1.317 . S
C402 H414 0.930 . S
C403 C405 1.392 . S
C403 C406 1.370 . S
C403 H415 0.931 . S
N404 C397 1.359 . S
N404 C405 1.327 . S
N404 Tb407 2.600 . S
C405 C403 1.392 . S
C405 N404 1.327 . S
C405 H412 0.930 . S
C406 C401 1.385 . S
C406 C403 1.370 . S
C406 H425 0.930 . S
Tb407 N404 2.600 . S
Tb407 N408 2.660 . S
Tb407 O441 2.362 . S
Tb407 O442 2.421 . S
Tb407 O446 2.546 . S
Tb407 O447 2.610 . S
Tb407 O449 2.320 . S
Tb407 O450 2.552 . S
Tb407 O451 2.413 . S
Tb407 C471 2.833 . S
N408 C400 1.360 . S
N408 Tb407 2.660 . S
N408 C409 1.305 . S
C409 N408 1.305 . S
C409 C411 1.407 . S
C409 H416 0.930 . S
C410 C398 1.410 . S
C410 C411 1.345 . S
C410 H418 0.930 . S
C411 C409 1.407 . S
C411 C410 1.345 . S
C411 H413 0.930 . S
H412 C405 0.930 . S
H413 C411 0.930 . S
H414 C402 0.930 . S
H415 C403 0.931 . S
H416 C409 0.930 . S
H417 C431 0.930 . S
H418 C410 0.930 . S
H419 C437 0.930 . S
H420 C428 0.930 . S
H421 C435 0.931 . S
H422 C399 0.929 . S
H423 C429 0.930 . S
H424 C462 0.930 . S
H425 C406 0.930 . S
H426 C461 0.929 . S
N427 Tb396 2.660 . S
N427 C428 1.305 . S
N427 C432 1.360 . S
C428 H420 0.930 . S
C428 N427 1.305 . S
C428 C431 1.407 . S
C429 H423 0.930 . S
C429 C430 1.410 . S
C429 C431 1.345 . S
C430 C429 1.410 . S
C430 C432 1.417 . S
C430 C462 1.432 . S
C431 H417 0.930 . S
C431 C428 1.407 . S
C431 C429 1.345 . S
C432 N427 1.360 . S
C432 C430 1.417 . S
C432 C436 1.432 . S
H433 C438 0.930 . S
N434 Tb396 2.600 . S
N434 C436 1.359 . S
N434 C437 1.327 . S
C435 H421 0.931 . S
C435 C437 1.392 . S
C435 C438 1.370 . S
C436 C432 1.432 . S
C436 N434 1.359 . S
C436 C439 1.414 . S
C437 H419 0.930 . S
C437 N434 1.327 . S
C437 C435 1.392 . S
C438 H433 0.930 . S
C438 C435 1.370 . S
C438 C439 1.385 . S
C439 C436 1.414 . S
C439 C438 1.385 . S
C439 C461 1.444 . S
O440 Tb396 2.546 . S
O440 C460 1.251 . S
O441 Tb396 2.610 . S
O441 Tb407 2.362 . S
O441 C452 1.283 . S
O442 Tb407 2.421 . S
O442 C459 1.262 . S
O443 Tb396 2.320 . S
O443 C459 1.260 . S
O444 Tb396 2.552 . S
O444 C452 1.243 . S
O445 Tb396 2.413 . S
O445 C460 1.256 . S
O446 Tb407 2.546 . S
O446 C471 1.251 . S
O447 Tb396 2.362 . S
O447 Tb407 2.610 . S
O447 C463 1.283 . S
O448 Tb396 2.421 . S
O448 C470 1.262 . S
O449 Tb407 2.320 . S
O449 C470 1.260 . S
O450 Tb407 2.552 . S
O450 C463 1.243 . S
O451 Tb407 2.413 . S
O451 C471 1.256 . S
C452 O441 1.283 . S
C452 O444 1.243 . S
C453 C455 1.382 . S
C453 C457 1.393 . S
C453 C460 1.500 . S
C454 C455 1.400 . S
C454 C456 1.384 . S
C455 C453 1.382 . S
C455 C454 1.400 . S
C455 H472 0.930 . S
C456 C454 1.384 . S
C456 C458 1.392 . S
C456 H473 0.931 . S
C457 C453 1.393 . S
C457 C458 1.401 . S
C457 H474 0.930 . S
C458 C456 1.392 . S
C458 C457 1.401 . S
C458 H475 0.930 . S
C459 O442 1.262 . S
C459 O443 1.260 . S
C460 Tb396 2.833 . S
C460 O440 1.251 . S
C460 O445 1.256 . S
C460 C453 1.500 . S
C461 H426 0.929 . S
C461 C439 1.444 . S
C461 C462 1.317 . S
C462 H424 0.930 . S
C462 C430 1.432 . S
C462 C461 1.317 . S
C463 O447 1.283 . S
C463 O450 1.243 . S
C464 C465 1.382 . S
C464 C468 1.393 . S
C464 C471 1.500 . S
C465 C464 1.382 . S
C465 C466 1.400 . S
C465 H476 0.930 . S
C466 C465 1.400 . S
C466 C467 1.384 . S
C467 C466 1.384 . S
C467 C469 1.392 . S
C467 H477 0.931 . S
C468 C464 1.393 . S
C468 C469 1.401 . S
C468 H478 0.930 . S
C469 C467 1.392 . S
C469 C468 1.401 . S
C469 H479 0.930 . S
C470 O448 1.262 . S
C470 O449 1.260 . S
C471 Tb407 2.833 . S
C471 O446 1.251 . S
C471 O451 1.256 . S
C471 C464 1.500 . S
H472 C455 0.930 . S
H473 C456 0.931 . S
H474 C457 0.930 . S
H475 C458 0.930 . S
H476 C465 0.930 . S
H477 C467 0.931 . S
H478 C468 0.930 . S
H479 C469 0.930 . S
Tb480 N511 2.660 . S
Tb480 N518 2.600 . S
Tb480 O524 2.546 . S
Tb480 O525 2.610 . S
Tb480 O527 2.320 . S
Tb480 O528 2.552 1_545 S
Tb480 O529 2.413 . S
Tb480 O531 2.362 . S
Tb480 O532 2.421 . S
Tb480 C544 2.833 . S
C481 C484 1.432 . S
C481 C485 1.414 . S
C481 N488 1.359 1_565 S
C482 C484 1.417 . S
C482 C486 1.432 . S
C482 C494 1.410 . S
C483 C485 1.444 . S
C483 C486 1.317 . S
C483 H506 0.929 . S
C484 C481 1.432 . S
C484 C482 1.417 . S
C484 N492 1.360 . S
C485 C481 1.414 . S
C485 C483 1.444 . S
C485 C490 1.385 . S
C486 C482 1.432 . S
C486 C483 1.317 . S
C486 H498 0.930 . S
C487 C489 1.392 . S
C487 C490 1.370 1_545 S
C487 H499 0.931 . S
N488 C481 1.359 1_545 S
N488 C489 1.327 . S
N488 Tb491 2.600 . S
C489 C487 1.392 . S
C489 N488 1.327 . S
C489 H496 0.930 . S
C490 C485 1.385 . S
C490 C487 1.370 1_565 S
C490 H509 0.930 . S
Tb491 N488 2.600 . S
Tb491 N492 2.660 1_545 S
Tb491 O525 2.362 . S
Tb491 O526 2.421 . S
Tb491 O530 2.546 . S
Tb491 O531 2.610 . S
Tb491 O533 2.320 . S
Tb491 O534 2.552 . S
Tb491 O535 2.413 . S
Tb491 C555 2.833 . S
N492 C484 1.360 . S
N492 Tb491 2.660 1_565 S
N492 C493 1.305 . S
C493 N492 1.305 . S
C493 C495 1.407 . S
C493 H500 0.930 . S
C494 C482 1.410 . S
C494 C495 1.345 . S
C494 H502 0.930 . S
C495 C493 1.407 . S
C495 C494 1.345 . S
C495 H497 0.930 . S
H496 C489 0.930 . S
H497 C495 0.930 . S
H498 C486 0.930 . S
H499 C487 0.931 . S
H500 C493 0.930 . S
H501 C515 0.930 . S
H502 C494 0.930 . S
H503 C521 0.930 . S
H504 C512 0.930 . S
H505 C519 0.931 . S
H506 C483 0.929 . S
H507 C513 0.930 . S
H508 C546 0.930 . S
H509 C490 0.930 . S
H510 C545 0.929 . S
N511 Tb480 2.660 . S
N511 C512 1.305 . S
N511 C516 1.360 . S
C512 H504 0.930 . S
C512 N511 1.305 . S
C512 C515 1.407 . S
C513 H507 0.930 . S
C513 C514 1.410 . S
C513 C515 1.345 . S
C514 C513 1.410 . S
C514 C516 1.417 . S
C514 C546 1.432 . S
C515 H501 0.930 . S
C515 C512 1.407 . S
C515 C513 1.345 . S
C516 N511 1.360 . S
C516 C514 1.417 . S
C516 C520 1.432 . S
H517 C522 0.930 . S
N518 Tb480 2.600 . S
N518 C520 1.359 . S
N518 C521 1.327 . S
C519 H505 0.931 . S
C519 C521 1.392 . S
C519 C522 1.370 . S
C520 C516 1.432 . S
C520 N518 1.359 . S
C520 C523 1.414 . S
C521 H503 0.930 . S
C521 N518 1.327 . S
C521 C519 1.392 . S
C522 H517 0.930 . S
C522 C519 1.370 . S
C522 C523 1.385 . S
C523 C520 1.414 . S
C523 C522 1.385 . S
C523 C545 1.444 . S
O524 Tb480 2.546 . S
O524 C544 1.251 . S
O525 Tb480 2.610 . S
O525 Tb491 2.362 . S
O525 C536 1.283 1_545 S
O526 Tb491 2.421 . S
O526 C543 1.262 . S
O527 Tb480 2.320 . S
O527 C543 1.260 . S
O528 Tb480 2.552 1_565 S
O528 C536 1.243 . S
O529 Tb480 2.413 . S
O529 C544 1.256 . S
O530 Tb491 2.546 . S
O530 C555 1.251 . S
O531 Tb480 2.362 . S
O531 Tb491 2.610 . S
O531 C547 1.283 . S
O532 Tb480 2.421 . S
O532 C554 1.262 . S
O533 Tb491 2.320 . S
O533 C554 1.260 . S
O534 Tb491 2.552 . S
O534 C547 1.243 . S
O535 Tb491 2.413 . S
O535 C555 1.256 . S
C536 O525 1.283 1_565 S
C536 O528 1.243 . S
C537 C539 1.382 1_545 S
C537 C541 1.393 . S
C537 C544 1.500 . S
C538 C539 1.400 . S
C538 C540 1.384 . S
C539 C537 1.382 1_565 S
C539 C538 1.400 . S
C539 H556 0.930 . S
C540 C538 1.384 . S
C540 C542 1.392 . S
C540 H557 0.931 . S
C541 C537 1.393 . S
C541 C542 1.401 1_545 S
C541 H558 0.930 . S
C542 C540 1.392 . S
C542 C541 1.401 1_565 S
C542 H559 0.930 . S
C543 O526 1.262 . S
C543 O527 1.260 . S
C544 Tb480 2.833 . S
C544 O524 1.251 . S
C544 O529 1.256 . S
C544 C537 1.500 . S
C545 H510 0.929 . S
C545 C523 1.444 . S
C545 C546 1.317 . S
C546 H508 0.930 . S
C546 C514 1.432 . S
C546 C545 1.317 . S
C547 O531 1.283 . S
C547 O534 1.243 . S
C548 C549 1.382 . S
C548 C552 1.393 . S
C548 C555 1.500 . S
C549 C548 1.382 . S
C549 C550 1.400 . S
C549 H560 0.930 . S
C550 C549 1.400 . S
C550 C551 1.384 . S
C551 C550 1.384 . S
C551 C553 1.392 . S
C551 H561 0.931 . S
C552 C548 1.393 . S
C552 C553 1.401 . S
C552 H562 0.930 . S
C553 C551 1.392 . S
C553 C552 1.401 . S
C553 H563 0.930 . S
C554 O532 1.262 . S
C554 O533 1.260 . S
C555 Tb491 2.833 . S
C555 O530 1.251 . S
C555 O535 1.256 . S
C555 C548 1.500 . S
H556 C539 0.930 . S
H557 C540 0.931 . S
H558 C541 0.930 . S
H559 C542 0.930 . S
H560 C549 0.930 . S
H561 C551 0.931 . S
H562 C552 0.930 . S
H563 C553 0.930 . S
Tb564 N595 2.660 . S
Tb564 N602 2.600 . S
Tb564 O608 2.546 . S
Tb564 O609 2.610 . S
Tb564 O611 2.320 . S
Tb564 O612 2.552 . S
Tb564 O613 2.413 . S
Tb564 O615 2.362 . S
Tb564 O616 2.421 . S
Tb564 C628 2.833 . S
C565 C568 1.432 . S
C565 C569 1.414 . S
C565 N572 1.359 . S
C566 C568 1.417 . S
C566 C570 1.432 . S
C566 C578 1.410 . S
C567 C569 1.444 . S
C567 C570 1.317 . S
C567 H590 0.929 . S
C568 C565 1.432 . S
C568 C566 1.417 . S
C568 N576 1.360 . S
C569 C565 1.414 . S
C569 C567 1.444 . S
C569 C574 1.385 . S
C570 C566 1.432 . S
C570 C567 1.317 . S
C570 H582 0.930 . S
C571 C573 1.392 . S
C571 C574 1.370 . S
C571 H583 0.931 . S
N572 C565 1.359 . S
N572 C573 1.327 . S
N572 Tb575 2.600 . S
C573 C571 1.392 . S
C573 N572 1.327 . S
C573 H580 0.930 . S
C574 C569 1.385 . S
C574 C571 1.370 . S
C574 H593 0.930 . S
Tb575 N572 2.600 . S
Tb575 N576 2.660 . S
Tb575 O609 2.362 . S
Tb575 O610 2.421 . S
Tb575 O614 2.546 . S
Tb575 O615 2.610 . S
Tb575 O617 2.320 . S
Tb575 O618 2.552 . S
Tb575 O619 2.413 . S
Tb575 C639 2.833 . S
N576 C568 1.360 . S
N576 Tb575 2.660 . S
N576 C577 1.305 . S
C577 N576 1.305 . S
C577 C579 1.407 . S
C577 H584 0.930 . S
C578 C566 1.410 . S
C578 C579 1.345 . S
C578 H586 0.930 . S
C579 C577 1.407 . S
C579 C578 1.345 . S
C579 H581 0.930 . S
H580 C573 0.930 . S
H581 C579 0.930 . S
H582 C570 0.930 . S
H583 C571 0.931 . S
H584 C577 0.930 . S
H585 C599 0.930 . S
H586 C578 0.930 . S
H587 C605 0.930 . S
H588 C596 0.930 . S
H589 C603 0.931 . S
H590 C567 0.929 . S
H591 C597 0.930 . S
H592 C630 0.930 . S
H593 C574 0.930 . S
H594 C629 0.929 . S
N595 Tb564 2.660 . S
N595 C596 1.305 . S
N595 C600 1.360 . S
C596 H588 0.930 . S
C596 N595 1.305 . S
C596 C599 1.407 . S
C597 H591 0.930 . S
C597 C598 1.410 . S
C597 C599 1.345 . S
C598 C597 1.410 . S
C598 C600 1.417 . S
C598 C630 1.432 . S
C599 H585 0.930 . S
C599 C596 1.407 . S
C599 C597 1.345 . S
C600 N595 1.360 . S
C600 C598 1.417 . S
C600 C604 1.432 . S
H601 C606 0.930 . S
N602 Tb564 2.600 . S
N602 C604 1.359 . S
N602 C605 1.327 . S
C603 H589 0.931 . S
C603 C605 1.392 . S
C603 C606 1.370 . S
C604 C600 1.432 . S
C604 N602 1.359 . S
C604 C607 1.414 . S
C605 H587 0.930 . S
C605 N602 1.327 . S
C605 C603 1.392 . S
C606 H601 0.930 . S
C606 C603 1.370 . S
C606 C607 1.385 . S
C607 C604 1.414 . S
C607 C606 1.385 . S
C607 C629 1.444 . S
O608 Tb564 2.546 . S
O608 C628 1.251 . S
O609 Tb564 2.610 . S
O609 Tb575 2.362 . S
O609 C620 1.283 . S
O610 Tb575 2.421 . S
O610 C627 1.262 . S
O611 Tb564 2.320 . S
O611 C627 1.260 . S
O612 Tb564 2.552 . S
O612 C620 1.243 . S
O613 Tb564 2.413 . S
O613 C628 1.256 . S
O614 Tb575 2.546 . S
O614 C639 1.251 . S
O615 Tb564 2.362 . S
O615 Tb575 2.610 . S
O615 C631 1.283 . S
O616 Tb564 2.421 . S
O616 C638 1.262 . S
O617 Tb575 2.320 . S
O617 C638 1.260 . S
O618 Tb575 2.552 . S
O618 C631 1.243 . S
O619 Tb575 2.413 . S
O619 C639 1.256 . S
C620 O609 1.283 . S
C620 O612 1.243 . S
C621 C623 1.382 . S
C621 C625 1.393 . S
C621 C628 1.500 . S
C622 C623 1.400 . S
C622 C624 1.384 . S
C623 C621 1.382 . S
C623 C622 1.400 . S
C623 H640 0.930 . S
C624 C622 1.384 . S
C624 C626 1.392 . S
C624 H641 0.931 . S
C625 C621 1.393 . S
C625 C626 1.401 . S
C625 H642 0.930 . S
C626 C624 1.392 . S
C626 C625 1.401 . S
C626 H643 0.930 . S
C627 O610 1.262 . S
C627 O611 1.260 . S
C628 Tb564 2.833 . S
C628 O608 1.251 . S
C628 O613 1.256 . S
C628 C621 1.500 . S
C629 H594 0.929 . S
C629 C607 1.444 . S
C629 C630 1.317 . S
C630 H592 0.930 . S
C630 C598 1.432 . S
C630 C629 1.317 . S
C631 O615 1.283 . S
C631 O618 1.243 . S
C632 C633 1.382 . S
C632 C636 1.393 . S
C632 C639 1.500 . S
C633 C632 1.382 . S
C633 C634 1.400 . S
C633 H644 0.930 . S
C634 C633 1.400 . S
C634 C635 1.384 . S
C635 C634 1.384 . S
C635 C637 1.392 . S
C635 H645 0.931 . S
C636 C632 1.393 . S
C636 C637 1.401 . S
C636 H646 0.930 . S
C637 C635 1.392 . S
C637 C636 1.401 . S
C637 H647 0.930 . S
C638 O616 1.262 . S
C638 O617 1.260 . S
C639 Tb575 2.833 . S
C639 O614 1.251 . S
C639 O619 1.256 . S
C639 C632 1.500 . S
H640 C623 0.930 . S
H641 C624 0.931 . S
H642 C625 0.930 . S
H643 C626 0.930 . S
H644 C633 0.930 . S
H645 C635 0.931 . S
H646 C636 0.930 . S
H647 C637 0.930 . S
Tb648 N679 2.660 . S
Tb648 N686 2.600 . S
Tb648 O692 2.546 . S
Tb648 O693 2.610 . S
Tb648 O695 2.320 . S
Tb648 O696 2.552 . S
Tb648 O697 2.413 . S
Tb648 O699 2.362 . S
Tb648 O700 2.421 . S
Tb648 C712 2.833 . S
C649 C652 1.432 . S
C649 C653 1.414 . S
C649 N656 1.359 . S
C650 C652 1.417 . S
C650 C654 1.432 . S
C650 C662 1.410 . S
C651 C653 1.444 . S
C651 C654 1.317 . S
C651 H674 0.929 . S
C652 C649 1.432 . S
C652 C650 1.417 . S
C652 N660 1.360 . S
C653 C649 1.414 . S
C653 C651 1.444 . S
C653 C658 1.385 . S
C654 C650 1.432 . S
C654 C651 1.317 . S
C654 H666 0.930 . S
C655 C657 1.392 . S
C655 C658 1.370 . S
C655 H667 0.931 . S
N656 C649 1.359 . S
N656 C657 1.327 . S
N656 Tb659 2.600 1_565 S
C657 C655 1.392 . S
C657 N656 1.327 . S
C657 H664 0.936 . S
C658 C653 1.385 . S
C658 C655 1.370 . S
C658 H677 0.930 . S
Tb659 N656 2.600 1_545 S
Tb659 N660 2.660 1_545 S
Tb659 O693 2.362 . S
Tb659 O694 2.421 . S
Tb659 O698 2.546 1_545 S
Tb659 O699 2.610 . S
Tb659 O701 2.320 . S
Tb659 O702 2.552 . S
Tb659 O703 2.413 1_545 S
Tb659 C723 2.833 1_545 S
N660 C652 1.360 . S
N660 Tb659 2.660 1_565 S
N660 C661 1.305 . S
C661 N660 1.305 . S
C661 C663 1.407 1_455 S
C661 H668 0.930 . S
C662 C650 1.410 . S
C662 C663 1.345 1_455 S
C662 H670 0.930 1_455 S
C663 C661 1.407 1_655 S
C663 C662 1.345 1_655 S
C663 H665 0.930 . S
H664 C657 0.936 . S
H665 C663 0.930 . S
H666 C654 0.930 . S
H667 C655 0.931 . S
H668 C661 0.930 . S
H669 C683 0.930 . S
H670 C662 0.930 1_655 S
H671 C689 0.930 . S
H672 C680 0.930 . S
H673 C687 0.909 1_655 S
H674 C651 0.929 . S
H675 C681 0.930 . S
H676 C714 0.930 . S
H677 C658 0.930 . S
H678 C713 0.929 . S
N679 Tb648 2.660 . S
N679 C680 1.305 . S
N679 C684 1.360 . S
C680 H672 0.930 . S
C680 N679 1.305 . S
C680 C683 1.407 . S
C681 H675 0.930 . S
C681 C682 1.410 . S
C681 C683 1.345 . S
C682 C681 1.410 . S
C682 C684 1.417 . S
C682 C714 1.432 . S
C683 H669 0.930 . S
C683 C680 1.407 . S
C683 C681 1.345 . S
C684 N679 1.360 . S
C684 C682 1.417 . S
C684 C688 1.432 . S
H685 C690 0.930 . S
N686 Tb648 2.600 . S
N686 C688 1.359 . S
N686 C689 1.327 . S
C687 H673 0.909 1_455 S
C687 C689 1.406 . S
C687 C690 1.379 . S
C688 C684 1.432 . S
C688 N686 1.359 . S
C688 C691 1.414 . S
C689 H671 0.930 . S
C689 N686 1.327 . S
C689 C687 1.406 . S
C690 H685 0.930 . S
C690 C687 1.379 . S
C690 C691 1.385 . S
C691 C688 1.414 . S
C691 C690 1.385 . S
C691 C713 1.444 . S
O692 Tb648 2.546 . S
O692 C712 1.251 . S
O693 Tb648 2.610 . S
O693 Tb659 2.362 . S
O693 C704 1.283 . S
O694 Tb659 2.421 . S
O694 C711 1.262 . S
O695 Tb648 2.320 . S
O695 C711 1.260 . S
O696 Tb648 2.552 . S
O696 C704 1.243 . S
O697 Tb648 2.413 . S
O697 C712 1.256 . S
O698 Tb659 2.546 1_565 S
O698 C723 1.251 . S
O699 Tb648 2.362 . S
O699 Tb659 2.610 . S
O699 C715 1.283 . S
O700 Tb648 2.421 . S
O700 C722 1.262 . S
O701 Tb659 2.320 . S
O701 C722 1.260 . S
O702 Tb659 2.552 . S
O702 C715 1.243 . S
O703 Tb659 2.413 1_565 S
O703 C723 1.256 . S
C704 O693 1.283 . S
C704 O696 1.243 . S
C705 C707 1.382 . S
C705 C709 1.393 . S
C705 C712 1.500 . S
C706 C707 1.400 . S
C706 C708 1.384 . S
C707 C705 1.382 . S
C707 C706 1.400 . S
C707 H724 0.930 . S
C708 C706 1.384 . S
C708 C710 1.392 . S
C708 H725 0.931 . S
C709 C705 1.393 . S
C709 C710 1.401 . S
C709 H726 0.930 . S
C710 C708 1.392 . S
C710 C709 1.401 . S
C710 H727 0.930 . S
C711 O694 1.262 . S
C711 O695 1.260 . S
C712 Tb648 2.833 . S
C712 O692 1.251 . S
C712 O697 1.256 . S
C712 C705 1.500 . S
C713 H678 0.929 . S
C713 C691 1.444 . S
C713 C714 1.317 . S
C714 H676 0.930 . S
C714 C682 1.432 . S
C714 C713 1.317 . S
C715 O699 1.283 . S
C715 O702 1.243 . S
C716 C717 1.382 . S
C716 C720 1.393 . S
C716 C723 1.500 . S
C717 C716 1.382 . S
C717 C718 1.400 . S
C717 H728 0.930 . S
C718 C717 1.400 . S
C718 C719 1.384 . S
C719 C718 1.384 . S
C719 C721 1.392 . S
C719 H729 0.931 . S
C720 C716 1.393 . S
C720 C721 1.401 . S
C720 H730 0.930 . S
C721 C719 1.392 . S
C721 C720 1.401 . S
C721 H731 0.930 . S
C722 O700 1.262 . S
C722 O701 1.260 . S
C723 Tb659 2.833 1_565 S
C723 O698 1.251 . S
C723 O703 1.256 . S
C723 C716 1.500 . S
H724 C707 0.930 . S
H725 C708 0.931 . S
H726 C709 0.930 . S
H727 C710 0.930 . S
H728 C717 0.930 . S
H729 C719 0.931 . S
H730 C720 0.930 . S
H731 C721 0.930 . S
Tb732 N763 2.660 . S
Tb732 N770 2.600 . S
Tb732 O776 2.546 . S
Tb732 O777 2.610 . S
Tb732 O779 2.320 . S
Tb732 O780 2.552 . S
Tb732 O781 2.413 . S
Tb732 O783 2.362 . S
Tb732 O784 2.421 . S
Tb732 C796 2.833 . S
C733 C736 1.432 . S
C733 C737 1.414 . S
C733 N740 1.359 . S
C734 C736 1.417 . S
C734 C738 1.432 . S
C734 C746 1.410 . S
C735 C737 1.444 . S
C735 C738 1.317 . S
C735 H758 0.929 . S
C736 C733 1.432 . S
C736 C734 1.417 . S
C736 N744 1.360 . S
C737 C733 1.414 . S
C737 C735 1.444 . S
C737 C742 1.385 . S
C738 C734 1.432 . S
C738 C735 1.317 . S
C738 H750 0.930 . S
C739 C741 1.392 . S
C739 C742 1.370 . S
C739 H751 0.931 . S
N740 C733 1.359 . S
N740 C741 1.327 . S
N740 Tb743 2.600 . S
C741 C739 1.392 . S
C741 N740 1.327 . S
C741 H748 0.930 . S
C742 C737 1.385 . S
C742 C739 1.370 . S
C742 H761 0.930 . S
Tb743 N740 2.600 . S
Tb743 N744 2.660 . S
Tb743 O777 2.362 . S
Tb743 O778 2.421 . S
Tb743 O782 2.546 . S
Tb743 O783 2.610 . S
Tb743 O785 2.320 . S
Tb743 O786 2.552 . S
Tb743 O787 2.413 . S
Tb743 C807 2.833 . S
N744 C736 1.360 . S
N744 Tb743 2.660 . S
N744 C745 1.305 . S
C745 N744 1.305 . S
C745 C747 1.407 . S
C745 H752 0.930 . S
C746 C734 1.410 . S
C746 C747 1.345 . S
C746 H754 0.930 . S
C747 C745 1.407 . S
C747 C746 1.345 . S
C747 H749 0.930 . S
H748 C741 0.930 . S
H749 C747 0.930 . S
H750 C738 0.930 . S
H751 C739 0.931 . S
H752 C745 0.930 . S
H753 C767 0.930 . S
H754 C746 0.930 . S
H755 C773 0.930 . S
H756 C764 0.930 . S
H757 C771 0.931 . S
H758 C735 0.929 . S
H759 C765 0.930 . S
H760 C798 0.930 . S
H761 C742 0.930 . S
H762 C797 0.929 . S
N763 Tb732 2.660 . S
N763 C764 1.305 . S
N763 C768 1.360 . S
C764 H756 0.930 . S
C764 N763 1.305 . S
C764 C767 1.407 . S
C765 H759 0.930 . S
C765 C766 1.410 . S
C765 C767 1.345 . S
C766 C765 1.410 . S
C766 C768 1.417 . S
C766 C798 1.432 . S
C767 H753 0.930 . S
C767 C764 1.407 . S
C767 C765 1.345 . S
C768 N763 1.360 . S
C768 C766 1.417 . S
C768 C772 1.432 . S
H769 C774 0.930 . S
N770 Tb732 2.600 . S
N770 C772 1.359 . S
N770 C773 1.327 . S
C771 H757 0.931 . S
C771 C773 1.392 . S
C771 C774 1.370 . S
C772 C768 1.432 . S
C772 N770 1.359 . S
C772 C775 1.414 . S
C773 H755 0.930 . S
C773 N770 1.327 . S
C773 C771 1.392 . S
C774 H769 0.930 . S
C774 C771 1.370 . S
C774 C775 1.385 . S
C775 C772 1.414 . S
C775 C774 1.385 . S
C775 C797 1.444 . S
O776 Tb732 2.546 . S
O776 C796 1.251 . S
O777 Tb732 2.610 . S
O777 Tb743 2.362 . S
O777 C788 1.283 . S
O778 Tb743 2.421 . S
O778 C795 1.262 . S
O779 Tb732 2.320 . S
O779 C795 1.260 . S
O780 Tb732 2.552 . S
O780 C788 1.243 . S
O781 Tb732 2.413 . S
O781 C796 1.256 . S
O782 Tb743 2.546 . S
O782 C807 1.251 . S
O783 Tb732 2.362 . S
O783 Tb743 2.610 . S
O783 C799 1.283 . S
O784 Tb732 2.421 . S
O784 C806 1.262 . S
O785 Tb743 2.320 . S
O785 C806 1.260 . S
O786 Tb743 2.552 . S
O786 C799 1.243 . S
O787 Tb743 2.413 . S
O787 C807 1.256 . S
C788 O777 1.283 . S
C788 O780 1.243 . S
C789 C791 1.382 . S
C789 C793 1.393 . S
C789 C796 1.500 . S
C790 C791 1.400 . S
C790 C792 1.384 . S
C791 C789 1.382 . S
C791 C790 1.400 . S
C791 H808 0.930 . S
C792 C790 1.384 . S
C792 C794 1.392 . S
C792 H809 0.931 . S
C793 C789 1.393 . S
C793 C794 1.401 . S
C793 H810 0.930 . S
C794 C792 1.392 . S
C794 C793 1.401 . S
C794 H811 0.930 . S
C795 O778 1.262 . S
C795 O779 1.260 . S
C796 Tb732 2.833 . S
C796 O776 1.251 . S
C796 O781 1.256 . S
C796 C789 1.500 . S
C797 H762 0.929 . S
C797 C775 1.444 . S
C797 C798 1.317 . S
C798 H760 0.930 . S
C798 C766 1.432 . S
C798 C797 1.317 . S
C799 O783 1.283 . S
C799 O786 1.243 . S
C800 C801 1.382 . S
C800 C804 1.393 . S
C800 C807 1.500 . S
C801 C800 1.382 . S
C801 C802 1.400 . S
C801 H812 0.930 . S
C802 C801 1.400 . S
C802 C803 1.384 . S
C803 C802 1.384 . S
C803 C805 1.392 . S
C803 H813 0.931 . S
C804 C800 1.393 . S
C804 C805 1.401 . S
C804 H814 0.930 . S
C805 C803 1.392 . S
C805 C804 1.401 . S
C805 H815 0.930 . S
C806 O784 1.262 . S
C806 O785 1.260 . S
C807 Tb743 2.833 . S
C807 O782 1.251 . S
C807 O787 1.256 . S
C807 C800 1.500 . S
H808 C791 0.930 . S
H809 C792 0.931 . S
H810 C793 0.930 . S
H811 C794 0.930 . S
H812 C801 0.930 . S
H813 C803 0.931 . S
H814 C804 0.930 . S
H815 C805 0.930 . S
Tb816 N847 2.660 . S
Tb816 N854 2.600 . S
Tb816 O860 2.546 1_545 S
Tb816 O861 2.610 . S
Tb816 O863 2.320 . S
Tb816 O864 2.552 . S
Tb816 O865 2.413 . S
Tb816 O867 2.362 . S
Tb816 O868 2.421 1_545 S
Tb816 C880 2.833 . S
C817 C820 1.432 . S
C817 C821 1.414 . S
C817 N824 1.359 . S
C818 C820 1.417 . S
C818 C822 1.432 . S
C818 C830 1.410 1_545 S
C819 C821 1.444 . S
C819 C822 1.317 . S
C819 H842 0.929 . S
C820 C817 1.432 . S
C820 C818 1.417 . S
C820 N828 1.360 . S
C821 C817 1.414 . S
C821 C819 1.444 . S
C821 C826 1.385 . S
C822 C818 1.432 . S
C822 C819 1.317 . S
C822 H834 0.930 . S
C823 C825 1.392 . S
C823 C826 1.370 . S
C823 H835 0.931 . S
N824 C817 1.359 . S
N824 C825 1.327 . S
N824 Tb827 2.600 . S
C825 C823 1.392 . S
C825 N824 1.327 . S
C825 H832 0.930 . S
C826 C821 1.385 . S
C826 C823 1.370 . S
C826 H845 0.930 . S
Tb827 N824 2.600 . S
Tb827 N828 2.660 . S
Tb827 O861 2.362 1_556 S
Tb827 O862 2.421 1_556 S
Tb827 O866 2.546 . S
Tb827 O867 2.610 1_556 S
Tb827 O869 2.320 . S
Tb827 O870 2.552 . S
Tb827 O871 2.413 . S
Tb827 C891 2.833 . S
N828 C820 1.360 . S
N828 Tb827 2.660 . S
N828 C829 1.305 1_545 S
C829 N828 1.305 1_565 S
C829 C831 1.407 . S
C829 H836 0.930 . S
C830 C818 1.410 1_565 S
C830 C831 1.345 . S
C830 H838 0.930 . S
C831 C829 1.407 . S
C831 C830 1.345 . S
C831 H833 0.930 . S
H832 C825 0.930 . S
H833 C831 0.930 . S
H834 C822 0.930 . S
H835 C823 0.931 . S
H836 C829 0.930 . S
H837 C851 0.930 . S
H838 C830 0.930 . S
H839 C857 0.930 . S
H840 C848 0.930 . S
H841 C855 0.931 . S
H842 C819 0.929 . S
H843 C849 0.930 . S
H844 C882 0.930 . S
H845 C826 0.930 . S
H846 C881 0.929 . S
N847 Tb816 2.660 . S
N847 C848 1.305 . S
N847 C852 1.360 . S
C848 H840 0.930 . S
C848 N847 1.305 . S
C848 C851 1.407 . S
C849 H843 0.930 . S
C849 C850 1.410 . S
C849 C851 1.345 . S
C850 C849 1.410 . S
C850 C852 1.417 . S
C850 C882 1.432 . S
C851 H837 0.930 . S
C851 C848 1.407 . S
C851 C849 1.345 . S
C852 N847 1.360 . S
C852 C850 1.417 . S
C852 C856 1.432 . S
H853 C858 0.930 . S
N854 Tb816 2.600 . S
N854 C856 1.359 . S
N854 C857 1.327 1_545 S
C855 H841 0.931 . S
C855 C857 1.392 . S
C855 C858 1.370 . S
C856 C852 1.432 . S
C856 N854 1.359 . S
C856 C859 1.414 . S
C857 H839 0.930 . S
C857 N854 1.327 1_565 S
C857 C855 1.392 . S
C858 H853 0.930 . S
C858 C855 1.370 . S
C858 C859 1.385 1_565 S
C859 C856 1.414 . S
C859 C858 1.385 1_545 S
C859 C881 1.444 . S
O860 Tb816 2.546 1_565 S
O860 C880 1.251 1_565 S
O861 Tb816 2.610 . S
O861 Tb827 2.362 1_554 S
O861 C872 1.283 . S
O862 Tb827 2.421 1_554 S
O862 C879 1.262 . S
O863 Tb816 2.320 . S
O863 C879 1.260 . S
O864 Tb816 2.552 . S
O864 C872 1.243 . S
O865 Tb816 2.413 . S
O865 C880 1.256 . S
O866 Tb827 2.546 . S
O866 C891 1.251 . S
O867 Tb816 2.362 . S
O867 Tb827 2.610 1_554 S
O867 C883 1.283 . S
O868 Tb816 2.421 1_565 S
O868 C890 1.262 1_554 S
O869 Tb827 2.320 . S
O869 C890 1.260 1_545 S
O870 Tb827 2.552 . S
O870 C883 1.243 1_556 S
O871 Tb827 2.413 . S
O871 C891 1.256 . S
C872 O861 1.283 . S
C872 O864 1.243 . S
C873 C875 1.412 . S
C873 C877 1.351 1_545 S
C873 C880 1.514 . S
C874 C875 1.400 . S
C874 C876 1.384 1_545 S
C875 C873 1.412 . S
C875 C874 1.400 . S
C875 H892 0.930 . S
C876 C874 1.384 1_565 S
C876 C878 1.392 . S
C876 H893 0.931 . S
C877 C873 1.351 1_565 S
C877 C878 1.401 . S
C877 H894 0.930 . S
C878 C876 1.392 . S
C878 C877 1.401 . S
C878 H895 0.930 . S
C879 O862 1.262 . S
C879 O863 1.260 . S
C880 Tb816 2.833 . S
C880 O860 1.251 1_545 S
C880 O865 1.256 . S
C880 C873 1.514 . S
C881 H846 0.929 . S
C881 C859 1.444 . S
C881 C882 1.317 . S
C882 H844 0.930 . S
C882 C850 1.432 . S
C882 C881 1.317 . S
C883 O867 1.283 . S
C883 O870 1.243 1_554 S
C884 C885 1.382 . S
C884 C888 1.393 . S
C884 C891 1.500 . S
C885 C884 1.382 . S
C885 C886 1.400 . S
C885 H896 0.930 . S
C886 C885 1.400 . S
C886 C887 1.384 . S
C887 C886 1.384 . S
C887 C889 1.392 . S
C887 H897 0.931 . S
C888 C884 1.393 . S
C888 C889 1.401 . S
C888 H898 0.930 . S
C889 C887 1.392 . S
C889 C888 1.401 . S
C889 H899 0.930 . S
C890 O868 1.262 1_556 S
C890 O869 1.260 1_565 S
C891 Tb827 2.833 . S
C891 O866 1.251 . S
C891 O871 1.256 . S
C891 C884 1.500 . S
H892 C875 0.930 . S
H893 C876 0.931 . S
H894 C877 0.930 . S
H895 C878 0.930 . S
H896 C885 0.930 . S
H897 C887 0.931 . S
H898 C888 0.930 . S
H899 C889 0.930 . S
Tb900 N931 2.660 . S
Tb900 N938 2.600 . S
Tb900 O944 2.546 . S
Tb900 O945 2.610 . S
Tb900 O947 2.320 . S
Tb900 O948 2.552 . S
Tb900 O949 2.413 . S
Tb900 O951 2.362 . S
Tb900 O952 2.421 . S
Tb900 C964 2.833 . S
C901 C904 1.432 . S
C901 C905 1.414 . S
C901 N908 1.359 . S
C902 C904 1.417 . S
C902 C906 1.432 . S
C902 C914 1.410 . S
C903 C905 1.444 . S
C903 C906 1.317 . S
C903 H926 0.929 . S
C904 C901 1.432 . S
C904 C902 1.417 . S
C904 N912 1.360 . S
C905 C901 1.414 . S
C905 C903 1.444 . S
C905 C910 1.385 . S
C906 C902 1.432 . S
C906 C903 1.317 . S
C906 H918 0.930 . S
C907 C909 1.392 . S
C907 C910 1.370 . S
C907 H919 0.931 . S
N908 C901 1.359 . S
N908 C909 1.327 . S
N908 Tb911 2.600 . S
C909 C907 1.392 . S
C909 N908 1.327 . S
C909 H916 0.930 . S
C910 C905 1.385 . S
C910 C907 1.370 . S
C910 H929 0.930 . S
Tb911 N908 2.600 . S
Tb911 N912 2.660 . S
Tb911 O945 2.362 . S
Tb911 O946 2.421 . S
Tb911 O950 2.546 . S
Tb911 O951 2.610 . S
Tb911 O953 2.320 . S
Tb911 O954 2.552 . S
Tb911 O955 2.413 . S
Tb911 C975 2.833 . S
N912 C904 1.360 . S
N912 Tb911 2.660 . S
N912 C913 1.305 . S
C913 N912 1.305 . S
C913 C915 1.407 . S
C913 H920 0.930 . S
C914 C902 1.410 . S
C914 C915 1.345 . S
C914 H922 0.930 . S
C915 C913 1.407 . S
C915 C914 1.345 . S
C915 H917 0.930 . S
H916 C909 0.930 . S
H917 C915 0.930 . S
H918 C906 0.930 . S
H919 C907 0.931 . S
H920 C913 0.930 . S
H921 C935 0.930 . S
H922 C914 0.930 . S
H923 C941 0.930 . S
H924 C932 0.930 . S
H925 C939 0.931 . S
H926 C903 0.929 . S
H927 C933 0.930 . S
H928 C966 0.930 . S
H929 C910 0.930 . S
H930 C965 0.929 . S
N931 Tb900 2.660 . S
N931 C932 1.305 . S
N931 C936 1.360 . S
C932 H924 0.930 . S
C932 N931 1.305 . S
C932 C935 1.407 . S
C933 H927 0.930 . S
C933 C934 1.410 . S
C933 C935 1.345 . S
C934 C933 1.410 . S
C934 C936 1.417 . S
C934 C966 1.432 . S
C935 H921 0.930 . S
C935 C932 1.407 . S
C935 C933 1.345 . S
C936 N931 1.360 . S
C936 C934 1.417 . S
C936 C940 1.432 . S
H937 C942 0.930 . S
N938 Tb900 2.600 . S
N938 C940 1.359 . S
N938 C941 1.327 . S
C939 H925 0.931 . S
C939 C941 1.392 . S
C939 C942 1.370 . S
C940 C936 1.432 . S
C940 N938 1.359 . S
C940 C943 1.414 . S
C941 H923 0.930 . S
C941 N938 1.327 . S
C941 C939 1.392 . S
C942 H937 0.930 . S
C942 C939 1.370 . S
C942 C943 1.385 . S
C943 C940 1.414 . S
C943 C942 1.385 . S
C943 C965 1.444 . S
O944 Tb900 2.546 . S
O944 C964 1.251 . S
O945 Tb900 2.610 . S
O945 Tb911 2.362 . S
O945 C956 1.283 . S
O946 Tb911 2.421 . S
O946 C963 1.262 . S
O947 Tb900 2.320 . S
O947 C963 1.260 . S
O948 Tb900 2.552 . S
O948 C956 1.243 . S
O949 Tb900 2.413 . S
O949 C964 1.256 . S
O950 Tb911 2.546 . S
O950 C975 1.251 . S
O951 Tb900 2.362 . S
O951 Tb911 2.610 . S
O951 C967 1.283 . S
O952 Tb900 2.421 . S
O952 C974 1.262 . S
O953 Tb911 2.320 . S
O953 C974 1.260 . S
O954 Tb911 2.552 . S
O954 C967 1.243 . S
O955 Tb911 2.413 . S
O955 C975 1.256 . S
C956 O945 1.283 . S
C956 O948 1.243 . S
C957 C959 1.382 . S
C957 C961 1.393 . S
C957 C964 1.500 . S
C958 C959 1.400 . S
C958 C960 1.384 . S
C959 C957 1.382 . S
C959 C958 1.400 . S
C959 H976 0.930 . S
C960 C958 1.384 . S
C960 C962 1.392 . S
C960 H977 0.931 . S
C961 C957 1.393 . S
C961 C962 1.401 . S
C961 H978 0.930 . S
C962 C960 1.392 . S
C962 C961 1.401 . S
C962 H979 0.930 . S
C963 O946 1.262 . S
C963 O947 1.260 . S
C964 Tb900 2.833 . S
C964 O944 1.251 . S
C964 O949 1.256 . S
C964 C957 1.500 . S
C965 H930 0.929 . S
C965 C943 1.444 . S
C965 C966 1.317 . S
C966 H928 0.930 . S
C966 C934 1.432 . S
C966 C965 1.317 . S
C967 O951 1.283 . S
C967 O954 1.243 . S
C968 C969 1.382 . S
C968 C972 1.393 . S
C968 C975 1.500 . S
C969 C968 1.382 . S
C969 C970 1.400 . S
C969 H980 0.930 . S
C970 C969 1.400 . S
C970 C971 1.384 . S
C971 C970 1.384 . S
C971 C973 1.392 . S
C971 H981 0.931 . S
C972 C968 1.393 . S
C972 C973 1.401 . S
C972 H982 0.930 . S
C973 C971 1.392 . S
C973 C972 1.401 . S
C973 H983 0.930 . S
C974 O952 1.262 . S
C974 O953 1.260 . S
C975 Tb911 2.833 . S
C975 O950 1.251 . S
C975 O955 1.256 . S
C975 C968 1.500 . S
H976 C959 0.930 . S
H977 C960 0.931 . S
H978 C961 0.930 . S
H979 C962 0.930 . S
H980 C969 0.930 . S
H981 C971 0.931 . S
H982 C972 0.930 . S
H983 C973 0.930 . S
Tb984 N1015 2.660 . S
Tb984 N1022 2.600 . S
Tb984 O1028 2.546 . S
Tb984 O1029 2.610 1_554 S
Tb984 O1031 2.320 . S
Tb984 O1032 2.552 1_554 S
Tb984 O1033 2.413 . S
Tb984 O1035 2.362 . S
Tb984 O1036 2.421 . S
Tb984 C1048 2.833 . S
C985 C988 1.432 . S
C985 C989 1.414 . S
C985 N992 1.359 . S
C986 C988 1.417 . S
C986 C990 1.432 . S
C986 C998 1.410 . S
C987 C989 1.444 . S
C987 C990 1.317 . S
C987 H1010 0.929 . S
C988 C985 1.432 . S
C988 C986 1.417 . S
C988 N996 1.360 . S
C989 C985 1.414 . S
C989 C987 1.444 . S
C989 C994 1.385 . S
C990 C986 1.432 . S
C990 C987 1.317 . S
C990 H1002 0.930 . S
C991 C993 1.392 . S
C991 C994 1.370 . S
C991 H1003 0.931 . S
N992 C985 1.359 . S
N992 C993 1.327 . S
N992 Tb995 2.600 1_556 S
C993 C991 1.392 . S
C993 N992 1.327 . S
C993 H1000 0.930 . S
C994 C989 1.385 . S
C994 C991 1.370 . S
C994 H1013 0.930 . S
Tb995 N992 2.600 1_554 S
Tb995 N996 2.660 1_554 S
Tb995 O1029 2.362 1_554 S
Tb995 O1030 2.421 . S
Tb995 O1034 2.546 . S
Tb995 O1035 2.610 . S
Tb995 O1037 2.320 . S
Tb995 O1038 2.552 . S
Tb995 O1039 2.413 . S
Tb995 C1059 2.833 . S
N996 C988 1.360 . S
N996 Tb995 2.660 1_556 S
N996 C997 1.305 . S
C997 N996 1.305 . S
C997 C999 1.407 . S
C997 H1004 0.930 . S
C998 C986 1.410 . S
C998 C999 1.345 . S
C998 H1006 0.930 . S
C999 C997 1.407 . S
C999 C998 1.345 . S
C999 H1001 0.930 . S
H1000 C993 0.930 . S
H1001 C999 0.930 . S
H1002 C990 0.930 . S
H1003 C991 0.931 . S
H1004 C997 0.930 . S
H1005 C1019 0.930 . S
H1006 C998 0.930 . S
H1007 C1025 0.930 . S
H1008 C1016 0.930 . S
H1009 C1023 0.931 . S
H1010 C987 0.929 . S
H1011 C1017 0.930 . S
H1012 C1050 0.930 . S
H1013 C994 0.930 . S
H1014 C1049 0.929 . S
N1015 Tb984 2.660 . S
N1015 C1016 1.305 . S
N1015 C1020 1.360 . S
C1016 H1008 0.930 . S
C1016 N1015 1.305 . S
C1016 C1019 1.407 . S
C1017 H1011 0.930 . S
C1017 C1018 1.410 . S
C1017 C1019 1.345 . S
C1018 C1017 1.410 . S
C1018 C1020 1.417 . S
C1018 C1050 1.432 . S
C1019 H1005 0.930 . S
C1019 C1016 1.407 . S
C1019 C1017 1.345 . S
C1020 N1015 1.360 . S
C1020 C1018 1.417 . S
C1020 C1024 1.432 . S
H1021 C1026 0.930 . S
N1022 Tb984 2.600 . S
N1022 C1024 1.359 . S
N1022 C1025 1.327 . S
C1023 H1009 0.931 . S
C1023 C1025 1.392 . S
C1023 C1026 1.370 . S
C1024 C1020 1.432 . S
C1024 N1022 1.359 . S
C1024 C1027 1.414 . S
C1025 H1007 0.930 . S
C1025 N1022 1.327 . S
C1025 C1023 1.392 . S
C1026 H1021 0.930 . S
C1026 C1023 1.370 . S
C1026 C1027 1.385 . S
C1027 C1024 1.414 . S
C1027 C1026 1.385 . S
C1027 C1049 1.444 . S
O1028 Tb984 2.546 . S
O1028 C1048 1.251 . S
O1029 Tb984 2.610 1_556 S
O1029 Tb995 2.362 1_556 S
O1029 C1040 1.283 . S
O1030 Tb995 2.421 . S
O1030 C1047 1.262 . S
O1031 Tb984 2.320 . S
O1031 C1047 1.260 . S
O1032 Tb984 2.552 1_556 S
O1032 C1040 1.243 . S
O1033 Tb984 2.413 . S
O1033 C1048 1.256 . S
O1034 Tb995 2.546 . S
O1034 C1059 1.251 . S
O1035 Tb984 2.362 . S
O1035 Tb995 2.610 . S
O1035 C1051 1.283 . S
O1036 Tb984 2.421 . S
O1036 C1058 1.262 . S
O1037 Tb995 2.320 . S
O1037 C1058 1.260 . S
O1038 Tb995 2.552 . S
O1038 C1051 1.243 . S
O1039 Tb995 2.413 . S
O1039 C1059 1.256 . S
C1040 O1029 1.283 . S
C1040 O1032 1.243 . S
C1041 C1043 1.382 . S
C1041 C1045 1.393 . S
C1041 C1048 1.500 . S
C1042 C1043 1.400 1_556 S
C1042 C1044 1.384 1_556 S
C1043 C1041 1.382 . S
C1043 C1042 1.400 1_554 S
C1043 H1060 0.932 . S
C1044 C1042 1.384 1_554 S
C1044 C1046 1.392 . S
C1044 H1061 0.931 . S
C1045 C1041 1.393 . S
C1045 C1046 1.401 . S
C1045 H1062 0.930 . S
C1046 C1044 1.392 . S
C1046 C1045 1.401 . S
C1046 H1063 0.930 . S
C1047 O1030 1.262 . S
C1047 O1031 1.260 . S
C1048 Tb984 2.833 . S
C1048 O1028 1.251 . S
C1048 O1033 1.256 . S
C1048 C1041 1.500 . S
C1049 H1014 0.929 . S
C1049 C1027 1.444 . S
C1049 C1050 1.317 . S
C1050 H1012 0.930 . S
C1050 C1018 1.432 . S
C1050 C1049 1.317 . S
C1051 O1035 1.283 . S
C1051 O1038 1.243 . S
C1052 C1053 1.382 . S
C1052 C1056 1.393 . S
C1052 C1059 1.500 . S
C1053 C1052 1.382 . S
C1053 C1054 1.400 . S
C1053 H1064 0.930 . S
C1054 C1053 1.400 . S
C1054 C1055 1.384 . S
C1055 C1054 1.384 . S
C1055 C1057 1.392 . S
C1055 H1065 0.931 . S
C1056 C1052 1.393 . S
C1056 C1057 1.401 . S
C1056 H1066 0.930 . S
C1057 C1055 1.392 . S
C1057 C1056 1.401 . S
C1057 H1067 0.930 . S
C1058 O1036 1.262 . S
C1058 O1037 1.260 . S
C1059 Tb995 2.833 . S
C1059 O1034 1.251 . S
C1059 O1039 1.256 . S
C1059 C1052 1.500 . S
H1060 C1043 0.932 . S
H1061 C1044 0.931 . S
H1062 C1045 0.930 . S
H1063 C1046 0.930 . S
H1064 C1053 0.930 . S
H1065 C1055 0.931 . S
H1066 C1056 0.930 . S
H1067 C1057 0.930 . S
Tb1068 N1099 2.660 . S
Tb1068 N1106 2.600 . S
Tb1068 O1112 2.546 . S
Tb1068 O1113 2.610 . S
Tb1068 O1115 2.320 . S
Tb1068 O1116 2.552 . S
Tb1068 O1117 2.413 . S
Tb1068 O1119 2.362 . S
Tb1068 O1120 2.421 . S
Tb1068 C1132 2.833 . S
C1069 C1072 1.432 . S
C1069 C1073 1.414 . S
C1069 N1076 1.359 . S
C1070 C1072 1.417 . S
C1070 C1074 1.432 . S
C1070 C1082 1.410 . S
C1071 C1073 1.444 . S
C1071 C1074 1.317 . S
C1071 H1094 0.929 . S
C1072 C1069 1.432 . S
C1072 C1070 1.417 . S
C1072 N1080 1.360 . S
C1073 C1069 1.414 . S
C1073 C1071 1.444 . S
C1073 C1078 1.385 . S
C1074 C1070 1.432 . S
C1074 C1071 1.317 . S
C1074 H1086 0.930 . S
C1075 C1077 1.392 . S
C1075 C1078 1.370 . S
C1075 H1087 0.931 . S
N1076 C1069 1.359 . S
N1076 C1077 1.327 . S
N1076 Tb1079 2.600 . S
C1077 C1075 1.392 . S
C1077 N1076 1.327 . S
C1077 H1084 0.930 . S
C1078 C1073 1.385 . S
C1078 C1075 1.370 . S
C1078 H1097 0.930 . S
Tb1079 N1076 2.600 . S
Tb1079 N1080 2.660 . S
Tb1079 O1113 2.362 . S
Tb1079 O1114 2.421 . S
Tb1079 O1118 2.546 . S
Tb1079 O1119 2.610 . S
Tb1079 O1121 2.320 . S
Tb1079 O1122 2.552 . S
Tb1079 O1123 2.413 . S
Tb1079 C1143 2.833 . S
N1080 C1072 1.360 . S
N1080 Tb1079 2.660 . S
N1080 C1081 1.305 . S
C1081 N1080 1.305 . S
C1081 C1083 1.407 . S
C1081 H1088 0.930 . S
C1082 C1070 1.410 . S
C1082 C1083 1.345 . S
C1082 H1090 0.930 . S
C1083 C1081 1.407 . S
C1083 C1082 1.345 . S
C1083 H1085 0.930 . S
H1084 C1077 0.930 . S
H1085 C1083 0.930 . S
H1086 C1074 0.930 . S
H1087 C1075 0.931 . S
H1088 C1081 0.930 . S
H1089 C1103 0.930 . S
H1090 C1082 0.930 . S
H1091 C1109 0.930 . S
H1092 C1100 0.930 . S
H1093 C1107 0.931 . S
H1094 C1071 0.929 . S
H1095 C1101 0.930 . S
H1096 C1134 0.930 . S
H1097 C1078 0.930 . S
H1098 C1133 0.929 . S
N1099 Tb1068 2.660 . S
N1099 C1100 1.305 . S
N1099 C1104 1.360 . S
C1100 H1092 0.930 . S
C1100 N1099 1.305 . S
C1100 C1103 1.407 . S
C1101 H1095 0.930 . S
C1101 C1102 1.410 . S
C1101 C1103 1.345 . S
C1102 C1101 1.410 . S
C1102 C1104 1.417 . S
C1102 C1134 1.432 . S
C1103 H1089 0.930 . S
C1103 C1100 1.407 . S
C1103 C1101 1.345 . S
C1104 N1099 1.360 . S
C1104 C1102 1.417 . S
C1104 C1108 1.432 . S
H1105 C1110 0.930 . S
N1106 Tb1068 2.600 . S
N1106 C1108 1.359 . S
N1106 C1109 1.327 . S
C1107 H1093 0.931 . S
C1107 C1109 1.392 . S
C1107 C1110 1.370 . S
C1108 C1104 1.432 . S
C1108 N1106 1.359 . S
C1108 C1111 1.414 . S
C1109 H1091 0.930 . S
C1109 N1106 1.327 . S
C1109 C1107 1.392 . S
C1110 H1105 0.930 . S
C1110 C1107 1.370 . S
C1110 C1111 1.385 . S
C1111 C1108 1.414 . S
C1111 C1110 1.385 . S
C1111 C1133 1.444 . S
O1112 Tb1068 2.546 . S
O1112 C1132 1.251 . S
O1113 Tb1068 2.610 . S
O1113 Tb1079 2.362 . S
O1113 C1124 1.283 . S
O1114 Tb1079 2.421 . S
O1114 C1131 1.262 . S
O1115 Tb1068 2.320 . S
O1115 C1131 1.260 . S
O1116 Tb1068 2.552 . S
O1116 C1124 1.243 . S
O1117 Tb1068 2.413 . S
O1117 C1132 1.256 . S
O1118 Tb1079 2.546 . S
O1118 C1143 1.251 . S
O1119 Tb1068 2.362 . S
O1119 Tb1079 2.610 . S
O1119 C1135 1.283 . S
O1120 Tb1068 2.421 . S
O1120 C1142 1.262 . S
O1121 Tb1079 2.320 . S
O1121 C1142 1.260 . S
O1122 Tb1079 2.552 . S
O1122 C1135 1.243 . S
O1123 Tb1079 2.413 . S
O1123 C1143 1.256 . S
C1124 O1113 1.283 . S
C1124 O1116 1.243 . S
C1125 C1127 1.382 . S
C1125 C1129 1.393 . S
C1125 C1132 1.500 . S
C1126 C1127 1.400 . S
C1126 C1128 1.384 . S
C1127 C1125 1.382 . S
C1127 C1126 1.400 . S
C1127 H1144 0.930 . S
C1128 C1126 1.384 . S
C1128 C1130 1.392 . S
C1128 H1145 0.931 . S
C1129 C1125 1.393 . S
C1129 C1130 1.401 . S
C1129 H1146 0.930 . S
C1130 C1128 1.392 . S
C1130 C1129 1.401 . S
C1130 H1147 0.930 . S
C1131 O1114 1.262 . S
C1131 O1115 1.260 . S
C1132 Tb1068 2.833 . S
C1132 O1112 1.251 . S
C1132 O1117 1.256 . S
C1132 C1125 1.500 . S
C1133 H1098 0.929 . S
C1133 C1111 1.444 . S
C1133 C1134 1.317 . S
C1134 H1096 0.930 . S
C1134 C1102 1.432 . S
C1134 C1133 1.317 . S
C1135 O1119 1.283 . S
C1135 O1122 1.243 . S
C1136 C1137 1.382 . S
C1136 C1140 1.393 . S
C1136 C1143 1.500 . S
C1137 C1136 1.382 . S
C1137 C1138 1.400 . S
C1137 H1148 0.930 . S
C1138 C1137 1.400 . S
C1138 C1139 1.384 . S
C1139 C1138 1.384 . S
C1139 C1141 1.392 . S
C1139 H1149 0.931 . S
C1140 C1136 1.393 . S
C1140 C1141 1.401 . S
C1140 H1150 0.930 . S
C1141 C1139 1.392 . S
C1141 C1140 1.401 . S
C1141 H1151 0.930 . S
C1142 O1120 1.262 . S
C1142 O1121 1.260 . S
C1143 Tb1079 2.833 . S
C1143 O1118 1.251 . S
C1143 O1123 1.256 . S
C1143 C1136 1.500 . S
H1144 C1127 0.930 . S
H1145 C1128 0.931 . S
H1146 C1129 0.930 . S
H1147 C1130 0.930 . S
H1148 C1137 0.930 . S
H1149 C1139 0.931 . S
H1150 C1140 0.930 . S
H1151 C1141 0.930 . S
Tb1152 N1183 2.660 . S
Tb1152 N1190 2.600 . S
Tb1152 O1196 2.546 . S
Tb1152 O1197 2.610 . S
Tb1152 O1199 2.320 . S
Tb1152 O1200 2.552 . S
Tb1152 O1201 2.413 . S
Tb1152 O1203 2.362 . S
Tb1152 O1204 2.421 . S
Tb1152 C1216 2.833 . S
C1153 C1156 1.432 . S
C1153 C1157 1.414 1_455 S
C1153 N1160 1.359 . S
C1154 C1156 1.417 1_655 S
C1154 C1158 1.432 . S
C1154 C1166 1.410 . S
C1155 C1157 1.444 . S
C1155 C1158 1.317 . S
C1155 H1178 0.929 . S
C1156 C1153 1.432 . S
C1156 C1154 1.417 1_455 S
C1156 N1164 1.360 . S
C1157 C1153 1.414 1_655 S
C1157 C1155 1.444 . S
C1157 C1162 1.385 . S
C1158 C1154 1.432 . S
C1158 C1155 1.317 . S
C1158 H1170 0.930 . S
C1159 C1161 1.392 . S
C1159 C1162 1.370 1_455 S
C1159 H1171 0.931 . S
N1160 C1153 1.359 . S
N1160 C1161 1.327 . S
N1160 Tb1163 2.600 . S
C1161 C1159 1.392 . S
C1161 N1160 1.327 . S
C1161 H1168 0.930 . S
C1162 C1157 1.385 . S
C1162 C1159 1.370 1_655 S
C1162 H1181 0.930 . S
Tb1163 N1160 2.600 . S
Tb1163 N1164 2.660 . S
Tb1163 O1197 2.362 . S
Tb1163 O1198 2.421 . S
Tb1163 O1202 2.546 . S
Tb1163 O1203 2.610 . S
Tb1163 O1205 2.320 . S
Tb1163 O1206 2.552 . S
Tb1163 O1207 2.413 . S
Tb1163 C1227 2.833 . S
N1164 C1156 1.360 . S
N1164 Tb1163 2.660 . S
N1164 C1165 1.305 . S
C1165 N1164 1.305 . S
C1165 C1167 1.385 1_455 S
C1165 H1172 0.930 . S
C1166 C1154 1.410 . S
C1166 C1167 1.374 . S
C1166 H1174 0.930 . S
C1167 C1165 1.385 1_655 S
C1167 C1166 1.374 . S
C1167 H1169 0.924 . S
H1168 C1161 0.930 . S
H1169 C1167 0.924 . S
H1170 C1158 0.930 . S
H1171 C1159 0.931 . S
H1172 C1165 0.930 . S
H1173 C1187 0.930 . S
H1174 C1166 0.930 . S
H1175 C1193 0.930 . S
H1176 C1184 0.930 . S
H1177 C1191 0.931 . S
H1178 C1155 0.929 . S
H1179 C1185 0.930 . S
H1180 C1218 0.930 . S
H1181 C1162 0.930 . S
H1182 C1217 0.929 . S
N1183 Tb1152 2.660 . S
N1183 C1184 1.305 . S
N1183 C1188 1.360 . S
C1184 H1176 0.930 . S
C1184 N1183 1.305 . S
C1184 C1187 1.407 . S
C1185 H1179 0.930 . S
C1185 C1186 1.410 . S
C1185 C1187 1.345 . S
C1186 C1185 1.410 . S
C1186 C1188 1.417 . S
C1186 C1218 1.432 . S
C1187 H1173 0.930 . S
C1187 C1184 1.407 . S
C1187 C1185 1.345 . S
C1188 N1183 1.360 . S
C1188 C1186 1.417 . S
C1188 C1192 1.432 . S
H1189 C1194 0.930 . S
N1190 Tb1152 2.600 . S
N1190 C1192 1.359 . S
N1190 C1193 1.327 . S
C1191 H1177 0.931 . S
C1191 C1193 1.392 . S
C1191 C1194 1.370 . S
C1192 C1188 1.432 . S
C1192 N1190 1.359 . S
C1192 C1195 1.414 . S
C1193 H1175 0.930 . S
C1193 N1190 1.327 . S
C1193 C1191 1.392 . S
C1194 H1189 0.930 . S
C1194 C1191 1.370 . S
C1194 C1195 1.385 . S
C1195 C1192 1.414 . S
C1195 C1194 1.385 . S
C1195 C1217 1.444 . S
O1196 Tb1152 2.546 . S
O1196 C1216 1.251 . S
O1197 Tb1152 2.610 . S
O1197 Tb1163 2.362 . S
O1197 C1208 1.283 . S
O1198 Tb1163 2.421 . S
O1198 C1215 1.262 . S
O1199 Tb1152 2.320 . S
O1199 C1215 1.260 . S
O1200 Tb1152 2.552 . S
O1200 C1208 1.243 . S
O1201 Tb1152 2.413 . S
O1201 C1216 1.256 . S
O1202 Tb1163 2.546 . S
O1202 C1227 1.251 . S
O1203 Tb1152 2.362 . S
O1203 Tb1163 2.610 . S
O1203 C1219 1.283 . S
O1204 Tb1152 2.421 . S
O1204 C1226 1.262 . S
O1205 Tb1163 2.320 . S
O1205 C1226 1.260 . S
O1206 Tb1163 2.552 . S
O1206 C1219 1.243 . S
O1207 Tb1163 2.413 . S
O1207 C1227 1.256 . S
C1208 O1197 1.283 . S
C1208 O1200 1.243 . S
C1209 C1211 1.382 . S
C1209 C1213 1.393 . S
C1209 C1216 1.500 . S
C1210 C1211 1.400 . S
C1210 C1212 1.384 . S
C1211 C1209 1.382 . S
C1211 C1210 1.400 . S
C1211 H1228 0.930 . S
C1212 C1210 1.384 . S
C1212 C1214 1.392 . S
C1212 H1229 0.931 . S
C1213 C1209 1.393 . S
C1213 C1214 1.401 . S
C1213 H1230 0.930 . S
C1214 C1212 1.392 . S
C1214 C1213 1.401 . S
C1214 H1231 0.930 . S
C1215 O1198 1.262 . S
C1215 O1199 1.260 . S
C1216 Tb1152 2.833 . S
C1216 O1196 1.251 . S
C1216 O1201 1.256 . S
C1216 C1209 1.500 . S
C1217 H1182 0.929 . S
C1217 C1195 1.444 . S
C1217 C1218 1.317 . S
C1218 H1180 0.930 . S
C1218 C1186 1.432 . S
C1218 C1217 1.317 . S
C1219 O1203 1.283 . S
C1219 O1206 1.243 . S
C1220 C1221 1.382 . S
C1220 C1224 1.393 . S
C1220 C1227 1.500 . S
C1221 C1220 1.382 . S
C1221 C1222 1.400 . S
C1221 H1232 0.930 . S
C1222 C1221 1.400 . S
C1222 C1223 1.384 . S
C1223 C1222 1.384 . S
C1223 C1225 1.392 . S
C1223 H1233 0.931 . S
C1224 C1220 1.393 . S
C1224 C1225 1.401 . S
C1224 H1234 0.930 . S
C1225 C1223 1.392 . S
C1225 C1224 1.401 . S
C1225 H1235 0.930 . S
C1226 O1204 1.262 . S
C1226 O1205 1.260 . S
C1227 Tb1163 2.833 . S
C1227 O1202 1.251 . S
C1227 O1207 1.256 . S
C1227 C1220 1.500 . S
H1228 C1211 0.930 . S
H1229 C1212 0.931 . S
H1230 C1213 0.930 . S
H1231 C1214 0.930 . S
H1232 C1221 0.930 . S
H1233 C1223 0.931 . S
H1234 C1224 0.930 . S
H1235 C1225 0.930 . S
Tb1236 N1267 2.660 . S
Tb1236 N1274 2.600 . S
Tb1236 O1280 2.546 . S
Tb1236 O1281 2.610 . S
Tb1236 O1283 2.320 . S
Tb1236 O1284 2.552 . S
Tb1236 O1285 2.413 . S
Tb1236 O1287 2.362 . S
Tb1236 O1288 2.421 . S
Tb1236 C1300 2.833 . S
C1237 C1240 1.432 . S
C1237 C1241 1.414 . S
C1237 N1244 1.359 . S
C1238 C1240 1.417 . S
C1238 C1242 1.432 . S
C1238 C1250 1.410 . S
C1239 C1241 1.444 . S
C1239 C1242 1.317 . S
C1239 H1262 0.929 . S
C1240 C1237 1.432 . S
C1240 C1238 1.417 . S
C1240 N1248 1.360 . S
C1241 C1237 1.414 . S
C1241 C1239 1.444 . S
C1241 C1246 1.385 . S
C1242 C1238 1.432 . S
C1242 C1239 1.317 . S
C1242 H1254 0.930 . S
C1243 C1245 1.392 . S
C1243 C1246 1.370 . S
C1243 H1255 0.931 . S
N1244 C1237 1.359 . S
N1244 C1245 1.327 . S
N1244 Tb1247 2.600 . S
C1245 C1243 1.392 . S
C1245 N1244 1.327 . S
C1245 H1252 0.930 . S
C1246 C1241 1.385 . S
C1246 C1243 1.370 . S
C1246 H1265 0.930 . S
Tb1247 N1244 2.600 . S
Tb1247 N1248 2.660 . S
Tb1247 O1281 2.362 . S
Tb1247 O1282 2.421 . S
Tb1247 O1286 2.546 . S
Tb1247 O1287 2.610 . S
Tb1247 O1289 2.320 . S
Tb1247 O1290 2.552 . S
Tb1247 O1291 2.413 . S
Tb1247 C1311 2.833 . S
N1248 C1240 1.360 . S
N1248 Tb1247 2.660 . S
N1248 C1249 1.305 . S
C1249 N1248 1.305 . S
C1249 C1251 1.407 . S
C1249 H1256 0.930 . S
C1250 C1238 1.410 . S
C1250 C1251 1.345 . S
C1250 H1258 0.930 . S
C1251 C1249 1.407 . S
C1251 C1250 1.345 . S
C1251 H1253 0.930 . S
H1252 C1245 0.930 . S
H1253 C1251 0.930 . S
H1254 C1242 0.930 . S
H1255 C1243 0.931 . S
H1256 C1249 0.930 . S
H1257 C1271 0.930 . S
H1258 C1250 0.930 . S
H1259 C1277 0.930 . S
H1260 C1268 0.930 . S
H1261 C1275 0.931 . S
H1262 C1239 0.929 . S
H1263 C1269 0.930 . S
H1264 C1302 0.930 . S
H1265 C1246 0.930 . S
H1266 C1301 0.929 . S
N1267 Tb1236 2.660 . S
N1267 C1268 1.305 . S
N1267 C1272 1.360 . S
C1268 H1260 0.930 . S
C1268 N1267 1.305 . S
C1268 C1271 1.407 . S
C1269 H1263 0.930 . S
C1269 C1270 1.410 . S
C1269 C1271 1.345 . S
C1270 C1269 1.410 . S
C1270 C1272 1.417 . S
C1270 C1302 1.432 . S
C1271 H1257 0.930 . S
C1271 C1268 1.407 . S
C1271 C1269 1.345 . S
C1272 N1267 1.360 . S
C1272 C1270 1.417 . S
C1272 C1276 1.432 . S
H1273 C1278 0.930 . S
N1274 Tb1236 2.600 . S
N1274 C1276 1.359 . S
N1274 C1277 1.327 . S
C1275 H1261 0.931 . S
C1275 C1277 1.392 . S
C1275 C1278 1.370 . S
C1276 C1272 1.432 . S
C1276 N1274 1.359 . S
C1276 C1279 1.414 . S
C1277 H1259 0.930 . S
C1277 N1274 1.327 . S
C1277 C1275 1.392 . S
C1278 H1273 0.930 . S
C1278 C1275 1.370 . S
C1278 C1279 1.385 . S
C1279 C1276 1.414 . S
C1279 C1278 1.385 . S
C1279 C1301 1.444 . S
O1280 Tb1236 2.546 . S
O1280 C1300 1.251 . S
O1281 Tb1236 2.610 . S
O1281 Tb1247 2.362 . S
O1281 C1292 1.283 . S
O1282 Tb1247 2.421 . S
O1282 C1299 1.262 . S
O1283 Tb1236 2.320 . S
O1283 C1299 1.260 . S
O1284 Tb1236 2.552 . S
O1284 C1292 1.243 . S
O1285 Tb1236 2.413 . S
O1285 C1300 1.256 . S
O1286 Tb1247 2.546 . S
O1286 C1311 1.251 . S
O1287 Tb1236 2.362 . S
O1287 Tb1247 2.610 . S
O1287 C1303 1.283 . S
O1288 Tb1236 2.421 . S
O1288 C1310 1.262 . S
O1289 Tb1247 2.320 . S
O1289 C1310 1.260 . S
O1290 Tb1247 2.552 . S
O1290 C1303 1.243 . S
O1291 Tb1247 2.413 . S
O1291 C1311 1.256 . S
C1292 O1281 1.283 . S
C1292 O1284 1.243 . S
C1293 C1295 1.382 . S
C1293 C1297 1.393 . S
C1293 C1300 1.500 . S
C1294 C1295 1.400 . S
C1294 C1296 1.384 . S
C1295 C1293 1.382 . S
C1295 C1294 1.400 . S
C1295 H1312 0.930 . S
C1296 C1294 1.384 . S
C1296 C1298 1.392 . S
C1296 H1313 0.931 . S
C1297 C1293 1.393 . S
C1297 C1298 1.401 . S
C1297 H1314 0.930 . S
C1298 C1296 1.392 . S
C1298 C1297 1.401 . S
C1298 H1315 0.930 . S
C1299 O1282 1.262 . S
C1299 O1283 1.260 . S
C1300 Tb1236 2.833 . S
C1300 O1280 1.251 . S
C1300 O1285 1.256 . S
C1300 C1293 1.500 . S
C1301 H1266 0.929 . S
C1301 C1279 1.444 . S
C1301 C1302 1.317 . S
C1302 H1264 0.930 . S
C1302 C1270 1.432 . S
C1302 C1301 1.317 . S
C1303 O1287 1.283 . S
C1303 O1290 1.243 . S
C1304 C1305 1.382 . S
C1304 C1308 1.393 . S
C1304 C1311 1.500 . S
C1305 C1304 1.382 . S
C1305 C1306 1.400 . S
C1305 H1316 0.930 . S
C1306 C1305 1.400 . S
C1306 C1307 1.384 . S
C1307 C1306 1.384 . S
C1307 C1309 1.392 . S
C1307 H1317 0.931 . S
C1308 C1304 1.393 . S
C1308 C1309 1.401 . S
C1308 H1318 0.930 . S
C1309 C1307 1.392 . S
C1309 C1308 1.401 . S
C1309 H1319 0.930 . S
C1310 O1288 1.262 . S
C1310 O1289 1.260 . S
C1311 Tb1247 2.833 . S
C1311 O1286 1.251 . S
C1311 O1291 1.256 . S
C1311 C1304 1.500 . S
H1312 C1295 0.930 . S
H1313 C1296 0.931 . S
H1314 C1297 0.930 . S
H1315 C1298 0.930 . S
H1316 C1305 0.930 . S
H1317 C1307 0.931 . S
H1318 C1308 0.930 . S
H1319 C1309 0.930 . S
Tb1320 N1351 2.660 . S
Tb1320 N1358 2.600 . S
Tb1320 O1364 2.546 . S
Tb1320 O1365 2.610 . S
Tb1320 O1367 2.320 . S
Tb1320 O1368 2.552 . S
Tb1320 O1369 2.413 . S
Tb1320 O1371 2.362 . S
Tb1320 O1372 2.421 . S
Tb1320 C1384 2.833 . S
C1321 C1324 1.432 . S
C1321 C1325 1.414 . S
C1321 N1328 1.359 . S
C1322 C1324 1.417 . S
C1322 C1326 1.432 . S
C1322 C1334 1.410 . S
C1323 C1325 1.444 . S
C1323 C1326 1.317 . S
C1323 H1346 0.929 . S
C1324 C1321 1.432 . S
C1324 C1322 1.417 . S
C1324 N1332 1.360 . S
C1325 C1321 1.414 . S
C1325 C1323 1.444 . S
C1325 C1330 1.385 . S
C1326 C1322 1.432 . S
C1326 C1323 1.317 . S
C1326 H1338 0.930 . S
C1327 C1329 1.392 . S
C1327 C1330 1.370 . S
C1327 H1339 0.931 . S
N1328 C1321 1.359 . S
N1328 C1329 1.327 . S
N1328 Tb1331 2.600 . S
C1329 C1327 1.392 . S
C1329 N1328 1.327 . S
C1329 H1336 0.930 . S
C1330 C1325 1.385 . S
C1330 C1327 1.370 . S
C1330 H1349 0.930 . S
Tb1331 N1328 2.600 . S
Tb1331 N1332 2.660 . S
Tb1331 O1365 2.362 . S
Tb1331 O1366 2.421 . S
Tb1331 O1370 2.546 . S
Tb1331 O1371 2.610 . S
Tb1331 O1373 2.320 . S
Tb1331 O1374 2.552 . S
Tb1331 O1375 2.413 . S
Tb1331 C1395 2.833 . S
N1332 C1324 1.360 . S
N1332 Tb1331 2.660 . S
N1332 C1333 1.305 . S
C1333 N1332 1.305 . S
C1333 C1335 1.407 . S
C1333 H1340 0.930 . S
C1334 C1322 1.410 . S
C1334 C1335 1.345 . S
C1334 H1342 0.930 . S
C1335 C1333 1.407 . S
C1335 C1334 1.345 . S
C1335 H1337 0.930 . S
H1336 C1329 0.930 . S
H1337 C1335 0.930 . S
H1338 C1326 0.930 . S
H1339 C1327 0.931 . S
H1340 C1333 0.930 . S
H1341 C1355 0.930 . S
H1342 C1334 0.930 . S
H1343 C1361 0.930 . S
H1344 C1352 0.930 . S
H1345 C1359 0.931 . S
H1346 C1323 0.929 . S
H1347 C1353 0.930 . S
H1348 C1386 0.930 . S
H1349 C1330 0.930 . S
H1350 C1385 0.929 . S
N1351 Tb1320 2.660 . S
N1351 C1352 1.305 . S
N1351 C1356 1.360 . S
C1352 H1344 0.930 . S
C1352 N1351 1.305 . S
C1352 C1355 1.407 . S
C1353 H1347 0.930 . S
C1353 C1354 1.410 . S
C1353 C1355 1.345 . S
C1354 C1353 1.410 . S
C1354 C1356 1.417 . S
C1354 C1386 1.432 . S
C1355 H1341 0.930 . S
C1355 C1352 1.407 . S
C1355 C1353 1.345 . S
C1356 N1351 1.360 . S
C1356 C1354 1.417 . S
C1356 C1360 1.432 . S
H1357 C1362 0.930 . S
N1358 Tb1320 2.600 . S
N1358 C1360 1.359 . S
N1358 C1361 1.327 . S
C1359 H1345 0.931 . S
C1359 C1361 1.392 . S
C1359 C1362 1.370 . S
C1360 C1356 1.432 . S
C1360 N1358 1.359 . S
C1360 C1363 1.414 . S
C1361 H1343 0.930 . S
C1361 N1358 1.327 . S
C1361 C1359 1.392 . S
C1362 H1357 0.930 . S
C1362 C1359 1.370 . S
C1362 C1363 1.385 . S
C1363 C1360 1.414 . S
C1363 C1362 1.385 . S
C1363 C1385 1.444 . S
O1364 Tb1320 2.546 . S
O1364 C1384 1.251 . S
O1365 Tb1320 2.610 . S
O1365 Tb1331 2.362 . S
O1365 C1376 1.283 . S
O1366 Tb1331 2.421 . S
O1366 C1383 1.262 . S
O1367 Tb1320 2.320 . S
O1367 C1383 1.260 . S
O1368 Tb1320 2.552 . S
O1368 C1376 1.243 . S
O1369 Tb1320 2.413 . S
O1369 C1384 1.256 . S
O1370 Tb1331 2.546 . S
O1370 C1395 1.251 . S
O1371 Tb1320 2.362 . S
O1371 Tb1331 2.610 . S
O1371 C1387 1.283 . S
O1372 Tb1320 2.421 . S
O1372 C1394 1.262 . S
O1373 Tb1331 2.320 . S
O1373 C1394 1.260 . S
O1374 Tb1331 2.552 . S
O1374 C1387 1.243 . S
O1375 Tb1331 2.413 . S
O1375 C1395 1.256 . S
C1376 O1365 1.283 . S
C1376 O1368 1.243 . S
C1377 C1379 1.382 . S
C1377 C1381 1.393 . S
C1377 C1384 1.500 . S
C1378 C1379 1.400 . S
C1378 C1380 1.384 . S
C1379 C1377 1.382 . S
C1379 C1378 1.400 . S
C1379 H1396 0.930 . S
C1380 C1378 1.384 . S
C1380 C1382 1.392 . S
C1380 H1397 0.931 . S
C1381 C1377 1.393 . S
C1381 C1382 1.401 . S
C1381 H1398 0.930 . S
C1382 C1380 1.392 . S
C1382 C1381 1.401 . S
C1382 H1399 0.930 . S
C1383 O1366 1.262 . S
C1383 O1367 1.260 . S
C1384 Tb1320 2.833 . S
C1384 O1364 1.251 . S
C1384 O1369 1.256 . S
C1384 C1377 1.500 . S
C1385 H1350 0.929 . S
C1385 C1363 1.444 . S
C1385 C1386 1.317 . S
C1386 H1348 0.930 . S
C1386 C1354 1.432 . S
C1386 C1385 1.317 . S
C1387 O1371 1.283 . S
C1387 O1374 1.243 . S
C1388 C1389 1.382 . S
C1388 C1392 1.393 . S
C1388 C1395 1.500 . S
C1389 C1388 1.382 . S
C1389 C1390 1.400 . S
C1389 H1400 0.930 . S
C1390 C1389 1.400 . S
C1390 C1391 1.384 . S
C1391 C1390 1.384 . S
C1391 C1393 1.392 . S
C1391 H1401 0.931 . S
C1392 C1388 1.393 . S
C1392 C1393 1.401 . S
C1392 H1402 0.930 . S
C1393 C1391 1.392 . S
C1393 C1392 1.401 . S
C1393 H1403 0.930 . S
C1394 O1372 1.262 . S
C1394 O1373 1.260 . S
C1395 Tb1331 2.833 . S
C1395 O1370 1.251 . S
C1395 O1375 1.256 . S
C1395 C1388 1.500 . S
H1396 C1379 0.930 . S
H1397 C1380 0.931 . S
H1398 C1381 0.930 . S
H1399 C1382 0.930 . S
H1400 C1389 0.930 . S
H1401 C1391 0.931 . S
H1402 C1392 0.930 . S
H1403 C1393 0.930 . S
Tb1404 N1435 2.660 . S
Tb1404 N1442 2.600 . S
Tb1404 O1448 2.546 . S
Tb1404 O1449 2.610 . S
Tb1404 O1451 2.320 . S
Tb1404 O1452 2.552 . S
Tb1404 O1453 2.413 . S
Tb1404 O1455 2.362 . S
Tb1404 O1456 2.421 . S
Tb1404 C1468 2.833 . S
C1405 C1408 1.432 . S
C1405 C1409 1.414 . S
C1405 N1412 1.359 . S
C1406 C1408 1.417 . S
C1406 C1410 1.432 . S
C1406 C1418 1.410 . S
C1407 C1409 1.444 . S
C1407 C1410 1.317 . S
C1407 H1430 0.929 . S
C1408 C1405 1.432 . S
C1408 C1406 1.417 . S
C1408 N1416 1.360 . S
C1409 C1405 1.414 . S
C1409 C1407 1.444 . S
C1409 C1414 1.385 . S
C1410 C1406 1.432 . S
C1410 C1407 1.317 . S
C1410 H1422 0.930 . S
C1411 C1413 1.392 . S
C1411 C1414 1.370 . S
C1411 H1423 0.931 . S
N1412 C1405 1.359 . S
N1412 C1413 1.327 . S
N1412 Tb1415 2.600 . S
C1413 C1411 1.392 . S
C1413 N1412 1.327 . S
C1413 H1420 0.930 . S
C1414 C1409 1.385 . S
C1414 C1411 1.370 . S
C1414 H1433 0.930 . S
Tb1415 N1412 2.600 . S
Tb1415 N1416 2.660 . S
Tb1415 O1449 2.362 . S
Tb1415 O1450 2.421 . S
Tb1415 O1454 2.546 . S
Tb1415 O1455 2.610 . S
Tb1415 O1457 2.320 . S
Tb1415 O1458 2.552 . S
Tb1415 O1459 2.413 . S
Tb1415 C1479 2.833 . S
N1416 C1408 1.360 . S
N1416 Tb1415 2.660 . S
N1416 C1417 1.305 . S
C1417 N1416 1.305 . S
C1417 C1419 1.407 . S
C1417 H1424 0.930 . S
C1418 C1406 1.410 . S
C1418 C1419 1.345 . S
C1418 H1426 0.930 . S
C1419 C1417 1.407 . S
C1419 C1418 1.345 . S
C1419 H1421 0.930 . S
H1420 C1413 0.930 . S
H1421 C1419 0.930 . S
H1422 C1410 0.930 . S
H1423 C1411 0.931 . S
H1424 C1417 0.930 . S
H1425 C1439 0.930 . S
H1426 C1418 0.930 . S
H1427 C1445 0.930 . S
H1428 C1436 0.930 . S
H1429 C1443 0.931 . S
H1430 C1407 0.929 . S
H1431 C1437 0.930 . S
H1432 C1470 0.930 . S
H1433 C1414 0.930 . S
H1434 C1469 0.929 . S
N1435 Tb1404 2.660 . S
N1435 C1436 1.305 . S
N1435 C1440 1.360 . S
C1436 H1428 0.930 . S
C1436 N1435 1.305 . S
C1436 C1439 1.407 . S
C1437 H1431 0.930 . S
C1437 C1438 1.410 . S
C1437 C1439 1.345 . S
C1438 C1437 1.410 . S
C1438 C1440 1.417 . S
C1438 C1470 1.432 . S
C1439 H1425 0.930 . S
C1439 C1436 1.407 . S
C1439 C1437 1.345 . S
C1440 N1435 1.360 . S
C1440 C1438 1.417 . S
C1440 C1444 1.432 . S
H1441 C1446 0.930 . S
N1442 Tb1404 2.600 . S
N1442 C1444 1.359 . S
N1442 C1445 1.327 . S
C1443 H1429 0.931 . S
C1443 C1445 1.392 . S
C1443 C1446 1.370 . S
C1444 C1440 1.432 . S
C1444 N1442 1.359 . S
C1444 C1447 1.414 . S
C1445 H1427 0.930 . S
C1445 N1442 1.327 . S
C1445 C1443 1.392 . S
C1446 H1441 0.930 . S
C1446 C1443 1.370 . S
C1446 C1447 1.385 . S
C1447 C1444 1.414 . S
C1447 C1446 1.385 . S
C1447 C1469 1.444 . S
O1448 Tb1404 2.546 . S
O1448 C1468 1.251 . S
O1449 Tb1404 2.610 . S
O1449 Tb1415 2.362 . S
O1449 C1460 1.283 . S
O1450 Tb1415 2.421 . S
O1450 C1467 1.262 . S
O1451 Tb1404 2.320 . S
O1451 C1467 1.260 . S
O1452 Tb1404 2.552 . S
O1452 C1460 1.243 . S
O1453 Tb1404 2.413 . S
O1453 C1468 1.256 . S
O1454 Tb1415 2.546 . S
O1454 C1479 1.251 . S
O1455 Tb1404 2.362 . S
O1455 Tb1415 2.610 . S
O1455 C1471 1.283 . S
O1456 Tb1404 2.421 . S
O1456 C1478 1.262 . S
O1457 Tb1415 2.320 . S
O1457 C1478 1.260 . S
O1458 Tb1415 2.552 . S
O1458 C1471 1.243 . S
O1459 Tb1415 2.413 . S
O1459 C1479 1.256 . S
C1460 O1449 1.283 . S
C1460 O1452 1.243 . S
C1461 C1463 1.382 . S
C1461 C1465 1.393 . S
C1461 C1468 1.500 . S
C1462 C1463 1.400 . S
C1462 C1464 1.384 . S
C1463 C1461 1.382 . S
C1463 C1462 1.400 . S
C1463 H1480 0.930 . S
C1464 C1462 1.384 . S
C1464 C1466 1.392 . S
C1464 H1481 0.931 . S
C1465 C1461 1.393 . S
C1465 C1466 1.401 . S
C1465 H1482 0.930 . S
C1466 C1464 1.392 . S
C1466 C1465 1.401 . S
C1466 H1483 0.930 . S
C1467 O1450 1.262 . S
C1467 O1451 1.260 . S
C1468 Tb1404 2.833 . S
C1468 O1448 1.251 . S
C1468 O1453 1.256 . S
C1468 C1461 1.500 . S
C1469 H1434 0.929 . S
C1469 C1447 1.444 . S
C1469 C1470 1.317 . S
C1470 H1432 0.930 . S
C1470 C1438 1.432 . S
C1470 C1469 1.317 . S
C1471 O1455 1.283 . S
C1471 O1458 1.243 . S
C1472 C1473 1.382 . S
C1472 C1476 1.393 . S
C1472 C1479 1.500 . S
C1473 C1472 1.382 . S
C1473 C1474 1.400 . S
C1473 H1484 0.930 . S
C1474 C1473 1.400 . S
C1474 C1475 1.384 . S
C1475 C1474 1.384 . S
C1475 C1477 1.392 . S
C1475 H1485 0.931 . S
C1476 C1472 1.393 . S
C1476 C1477 1.401 . S
C1476 H1486 0.930 . S
C1477 C1475 1.392 . S
C1477 C1476 1.401 . S
C1477 H1487 0.930 . S
C1478 O1456 1.262 . S
C1478 O1457 1.260 . S
C1479 Tb1415 2.833 . S
C1479 O1454 1.251 . S
C1479 O1459 1.256 . S
C1479 C1472 1.500 . S
H1480 C1463 0.930 . S
H1481 C1464 0.931 . S
H1482 C1465 0.930 . S
H1483 C1466 0.930 . S
H1484 C1473 0.930 . S
H1485 C1475 0.931 . S
H1486 C1476 0.930 . S
H1487 C1477 0.930 . S
Tb1488 N1519 2.660 . S
Tb1488 N1526 2.600 . S
Tb1488 O1532 2.546 . S
Tb1488 O1533 2.610 . S
Tb1488 O1535 2.320 . S
Tb1488 O1536 2.552 . S
Tb1488 O1537 2.413 . S
Tb1488 O1539 2.362 . S
Tb1488 O1540 2.421 . S
Tb1488 C1552 2.833 . S
C1489 C1492 1.432 . S
C1489 C1493 1.414 . S
C1489 N1496 1.359 . S
C1490 C1492 1.417 . S
C1490 C1494 1.432 . S
C1490 C1502 1.410 . S
C1491 C1493 1.444 . S
C1491 C1494 1.317 . S
C1491 H1514 0.929 . S
C1492 C1489 1.432 . S
C1492 C1490 1.417 . S
C1492 N1500 1.360 . S
C1493 C1489 1.414 . S
C1493 C1491 1.444 . S
C1493 C1498 1.385 . S
C1494 C1490 1.432 . S
C1494 C1491 1.317 . S
C1494 H1506 0.930 . S
C1495 C1497 1.392 . S
C1495 C1498 1.370 . S
C1495 H1507 0.931 . S
N1496 C1489 1.359 . S
N1496 C1497 1.327 . S
N1496 Tb1499 2.600 . S
C1497 C1495 1.392 . S
C1497 N1496 1.327 . S
C1497 H1504 0.930 . S
C1498 C1493 1.385 . S
C1498 C1495 1.370 . S
C1498 H1517 0.930 . S
Tb1499 N1496 2.600 . S
Tb1499 N1500 2.660 . S
Tb1499 O1533 2.362 . S
Tb1499 O1534 2.421 . S
Tb1499 O1538 2.546 . S
Tb1499 O1539 2.610 . S
Tb1499 O1541 2.320 . S
Tb1499 O1542 2.552 . S
Tb1499 O1543 2.413 . S
Tb1499 C1563 2.833 . S
N1500 C1492 1.360 . S
N1500 Tb1499 2.660 . S
N1500 C1501 1.305 . S
C1501 N1500 1.305 . S
C1501 C1503 1.407 . S
C1501 H1508 0.930 . S
C1502 C1490 1.410 . S
C1502 C1503 1.345 . S
C1502 H1510 0.930 . S
C1503 C1501 1.407 . S
C1503 C1502 1.345 . S
C1503 H1505 0.930 . S
H1504 C1497 0.930 . S
H1505 C1503 0.930 . S
H1506 C1494 0.930 . S
H1507 C1495 0.931 . S
H1508 C1501 0.930 . S
H1509 C1523 0.930 . S
H1510 C1502 0.930 . S
H1511 C1529 0.930 . S
H1512 C1520 0.930 . S
H1513 C1527 0.931 . S
H1514 C1491 0.929 . S
H1515 C1521 0.930 . S
H1516 C1554 0.930 . S
H1517 C1498 0.930 . S
H1518 C1553 0.929 . S
N1519 Tb1488 2.660 . S
N1519 C1520 1.305 . S
N1519 C1524 1.360 . S
C1520 H1512 0.930 . S
C1520 N1519 1.305 . S
C1520 C1523 1.407 . S
C1521 H1515 0.930 . S
C1521 C1522 1.410 . S
C1521 C1523 1.345 . S
C1522 C1521 1.410 . S
C1522 C1524 1.417 . S
C1522 C1554 1.432 . S
C1523 H1509 0.930 . S
C1523 C1520 1.407 . S
C1523 C1521 1.345 . S
C1524 N1519 1.360 . S
C1524 C1522 1.417 . S
C1524 C1528 1.432 . S
H1525 C1530 0.930 . S
N1526 Tb1488 2.600 . S
N1526 C1528 1.359 . S
N1526 C1529 1.327 . S
C1527 H1513 0.931 . S
C1527 C1529 1.392 . S
C1527 C1530 1.370 . S
C1528 C1524 1.432 . S
C1528 N1526 1.359 . S
C1528 C1531 1.414 . S
C1529 H1511 0.930 . S
C1529 N1526 1.327 . S
C1529 C1527 1.392 . S
C1530 H1525 0.930 . S
C1530 C1527 1.370 . S
C1530 C1531 1.385 . S
C1531 C1528 1.414 . S
C1531 C1530 1.385 . S
C1531 C1553 1.444 . S
O1532 Tb1488 2.546 . S
O1532 C1552 1.251 . S
O1533 Tb1488 2.610 . S
O1533 Tb1499 2.362 . S
O1533 C1544 1.283 . S
O1534 Tb1499 2.421 . S
O1534 C1551 1.262 . S
O1535 Tb1488 2.320 . S
O1535 C1551 1.260 . S
O1536 Tb1488 2.552 . S
O1536 C1544 1.243 . S
O1537 Tb1488 2.413 . S
O1537 C1552 1.256 . S
O1538 Tb1499 2.546 . S
O1538 C1563 1.251 . S
O1539 Tb1488 2.362 . S
O1539 Tb1499 2.610 . S
O1539 C1555 1.283 . S
O1540 Tb1488 2.421 . S
O1540 C1562 1.262 . S
O1541 Tb1499 2.320 . S
O1541 C1562 1.260 . S
O1542 Tb1499 2.552 . S
O1542 C1555 1.243 . S
O1543 Tb1499 2.413 . S
O1543 C1563 1.256 . S
C1544 O1533 1.283 . S
C1544 O1536 1.243 . S
C1545 C1547 1.382 . S
C1545 C1549 1.393 . S
C1545 C1552 1.500 . S
C1546 C1547 1.400 . S
C1546 C1548 1.384 . S
C1547 C1545 1.382 . S
C1547 C1546 1.400 . S
C1547 H1564 0.930 . S
C1548 C1546 1.384 . S
C1548 C1550 1.392 . S
C1548 H1565 0.931 . S
C1549 C1545 1.393 . S
C1549 C1550 1.401 . S
C1549 H1566 0.930 . S
C1550 C1548 1.392 . S
C1550 C1549 1.401 . S
C1550 H1567 0.930 . S
C1551 O1534 1.262 . S
C1551 O1535 1.260 . S
C1552 Tb1488 2.833 . S
C1552 O1532 1.251 . S
C1552 O1537 1.256 . S
C1552 C1545 1.500 . S
C1553 H1518 0.929 . S
C1553 C1531 1.444 . S
C1553 C1554 1.317 . S
C1554 H1516 0.930 . S
C1554 C1522 1.432 . S
C1554 C1553 1.317 . S
C1555 O1539 1.283 . S
C1555 O1542 1.243 . S
C1556 C1557 1.382 . S
C1556 C1560 1.393 . S
C1556 C1563 1.500 . S
C1557 C1556 1.382 . S
C1557 C1558 1.400 . S
C1557 H1568 0.930 . S
C1558 C1557 1.400 . S
C1558 C1559 1.384 . S
C1559 C1558 1.384 . S
C1559 C1561 1.392 . S
C1559 H1569 0.931 . S
C1560 C1556 1.393 . S
C1560 C1561 1.401 . S
C1560 H1570 0.930 . S
C1561 C1559 1.392 . S
C1561 C1560 1.401 . S
C1561 H1571 0.930 . S
C1562 O1540 1.262 . S
C1562 O1541 1.260 . S
C1563 Tb1499 2.833 . S
C1563 O1538 1.251 . S
C1563 O1543 1.256 . S
C1563 C1556 1.500 . S
H1564 C1547 0.930 . S
H1565 C1548 0.931 . S
H1566 C1549 0.930 . S
H1567 C1550 0.930 . S
H1568 C1557 0.930 . S
H1569 C1559 0.931 . S
H1570 C1560 0.930 . S
H1571 C1561 0.930 . S
Tb1572 N1603 2.655 1_556 S
Tb1572 N1610 2.621 . S
Tb1572 O1616 2.562 . S
Tb1572 O1617 2.597 1_556 S
Tb1572 O1619 2.294 1_556 S
Tb1572 O1620 2.549 . S
Tb1572 O1621 2.409 1_556 S
Tb1572 O1623 2.354 1_556 S
Tb1572 O1624 2.438 . S
Tb1572 C1636 2.840 . S
C1573 C1576 1.434 . S
C1573 C1577 1.423 . S
C1573 N1580 1.348 1_655 S
C1574 C1576 1.417 . S
C1574 C1578 1.432 . S
C1574 C1586 1.410 1_554 S
C1575 C1577 1.444 . S
C1575 C1578 1.317 . S
C1575 H1598 0.929 . S
C1576 C1573 1.434 . S
C1576 C1574 1.417 . S
C1576 N1584 1.360 1_655 S
C1577 C1573 1.423 . S
C1577 C1575 1.444 . S
C1577 C1582 1.385 . S
C1578 C1574 1.432 . S
C1578 C1575 1.317 . S
C1578 H1590 0.930 . S
C1579 C1581 1.392 . S
C1579 C1582 1.370 1_455 S
C1579 H1591 0.931 . S
N1580 C1573 1.348 1_455 S
N1580 C1581 1.327 . S
N1580 Tb1583 2.600 . S
C1581 C1579 1.392 . S
C1581 N1580 1.327 . S
C1581 H1588 0.930 . S
C1582 C1577 1.385 . S
C1582 C1579 1.370 1_655 S
C1582 H1601 0.930 . S
Tb1583 N1580 2.600 . S
Tb1583 N1584 2.660 . S
Tb1583 O1617 2.362 . S
Tb1583 O1618 2.421 . S
Tb1583 O1622 2.546 . S
Tb1583 O1623 2.610 . S
Tb1583 O1625 2.320 1_554 S
Tb1583 O1626 2.552 . S
Tb1583 O1627 2.413 1_455 S
Tb1583 C1647 2.833 1_455 S
N1584 C1576 1.360 1_455 S
N1584 Tb1583 2.660 . S
N1584 C1585 1.302 1_454 S
C1585 N1584 1.302 1_656 S
C1585 C1587 1.428 . S
C1585 H1592 0.914 1_655 S
C1586 C1574 1.410 1_556 S
C1586 C1587 1.345 . S
C1586 H1594 0.930 . S
C1587 C1585 1.428 . S
C1587 C1586 1.345 . S
C1587 H1589 0.930 . S
H1588 C1581 0.930 . S
H1589 C1587 0.930 . S
H1590 C1578 0.930 . S
H1591 C1579 0.931 . S
H1592 C1585 0.914 1_455 S
H1593 C1607 0.930 . S
H1594 C1586 0.930 . S
H1595 C1613 0.930 . S
H1596 C1604 0.930 . S
H1597 C1611 0.931 . S
H1598 C1575 0.929 . S
H1599 C1605 0.930 . S
H1600 C1638 0.930 1_554 S
H1601 C1582 0.930 . S
H1602 C1637 0.929 . S
N1603 Tb1572 2.655 1_554 S
N1603 C1604 1.305 . S
N1603 C1608 1.360 . S
C1604 H1596 0.930 . S
C1604 N1603 1.305 . S
C1604 C1607 1.407 . S
C1605 H1599 0.930 . S
C1605 C1606 1.410 . S
C1605 C1607 1.345 . S
C1606 C1605 1.410 . S
C1606 C1608 1.417 . S
C1606 C1638 1.432 1_554 S
C1607 H1593 0.930 . S
C1607 C1604 1.407 . S
C1607 C1605 1.345 . S
C1608 N1603 1.360 . S
C1608 C1606 1.417 . S
C1608 C1612 1.432 1_554 S
H1609 C1614 0.930 . S
N1610 Tb1572 2.621 . S
N1610 C1612 1.359 . S
N1610 C1613 1.327 . S
C1611 H1597 0.931 . S
C1611 C1613 1.392 . S
C1611 C1614 1.370 . S
C1612 C1608 1.432 1_556 S
C1612 N1610 1.359 . S
C1612 C1615 1.414 . S
C1613 H1595 0.930 . S
C1613 N1610 1.327 . S
C1613 C1611 1.392 . S
C1614 H1609 0.930 . S
C1614 C1611 1.370 . S
C1614 C1615 1.385 . S
C1615 C1612 1.414 . S
C1615 C1614 1.385 . S
C1615 C1637 1.444 . S
O1616 Tb1572 2.562 . S
O1616 C1636 1.251 . S
O1617 Tb1572 2.597 1_554 S
O1617 Tb1583 2.362 . S
O1617 C1628 1.283 . S
O1618 Tb1583 2.421 . S
O1618 C1635 1.262 . S
O1619 Tb1572 2.294 1_554 S
O1619 C1635 1.260 . S
O1620 Tb1572 2.549 . S
O1620 C1628 1.243 1_556 S
O1621 Tb1572 2.409 1_554 S
O1621 C1636 1.256 1_554 S
O1622 Tb1583 2.546 . S
O1622 C1647 1.251 1_455 S
O1623 Tb1572 2.354 1_554 S
O1623 Tb1583 2.610 . S
O1623 C1639 1.283 . S
O1624 Tb1572 2.438 . S
O1624 C1646 1.262 . S
O1625 Tb1583 2.320 1_556 S
O1625 C1646 1.260 . S
O1626 Tb1583 2.552 . S
O1626 C1639 1.243 . S
O1627 Tb1583 2.413 1_655 S
O1627 C1647 1.256 . S
C1628 O1617 1.283 . S
C1628 O1620 1.243 1_554 S
C1629 C1631 1.382 . S
C1629 C1633 1.393 . S
C1629 C1636 1.500 . S
C1630 C1631 1.400 . S
C1630 C1632 1.384 . S
C1631 C1629 1.382 . S
C1631 C1630 1.400 . S
C1631 H1648 0.930 1_556 S
C1632 C1630 1.384 . S
C1632 C1634 1.392 . S
C1632 H1649 0.931 . S
C1633 C1629 1.393 . S
C1633 C1634 1.401 . S
C1633 H1650 0.930 . S
C1634 C1632 1.392 . S
C1634 C1633 1.401 . S
C1634 H1651 0.930 . S
C1635 O1618 1.262 . S
C1635 O1619 1.260 . S
C1636 Tb1572 2.840 . S
C1636 O1616 1.251 . S
C1636 O1621 1.256 1_556 S
C1636 C1629 1.500 . S
C1637 H1602 0.929 . S
C1637 C1615 1.444 . S
C1637 C1638 1.317 . S
C1638 H1600 0.930 1_556 S
C1638 C1606 1.432 1_556 S
C1638 C1637 1.317 . S
C1639 O1623 1.283 . S
C1639 O1626 1.243 . S
C1640 C1641 1.382 . S
C1640 C1644 1.393 . S
C1640 C1647 1.500 . S
C1641 C1640 1.382 . S
C1641 C1642 1.400 . S
C1641 H1652 0.930 . S
C1642 C1641 1.400 . S
C1642 C1643 1.384 . S
C1643 C1642 1.384 . S
C1643 C1645 1.392 . S
C1643 H1653 0.931 . S
C1644 C1640 1.393 . S
C1644 C1645 1.401 . S
C1644 H1654 0.930 . S
C1645 C1643 1.392 . S
C1645 C1644 1.401 . S
C1645 H1655 0.930 . S
C1646 O1624 1.262 . S
C1646 O1625 1.260 . S
C1647 Tb1583 2.833 1_655 S
C1647 O1622 1.251 1_655 S
C1647 O1627 1.256 . S
C1647 C1640 1.500 . S
H1648 C1631 0.930 1_554 S
H1649 C1632 0.931 . S
H1650 C1633 0.930 . S
H1651 C1634 0.930 . S
H1652 C1641 0.930 . S
H1653 C1643 0.931 . S
H1654 C1644 0.930 . S
H1655 C1645 0.930 . S
H1656 C1664 0.950 . S
H1657 C1669 0.950 1_554 S
H1658 C1666 0.950 . S
H1659 C1668 0.950 . S
H1660 C1670 0.950 . S
H1661 C1672 0.950 . S
H1662 C1674 0.950 . S
H1663 C1675 0.950 . S
C1664 H1656 0.950 . S
C1664 C1665 1.386 . S
C1664 C1666 1.391 . S
C1665 C1664 1.386 . S
C1665 C1669 1.393 . S
C1666 H1658 0.950 . S
C1666 C1664 1.391 . S
C1666 C1667 1.400 . S
C1667 C1666 1.400 . S
C1667 C1668 1.398 1_556 S
C1667 C1673 1.491 . S
C1668 H1659 0.950 . S
C1668 C1667 1.398 1_554 S
C1668 C1669 1.391 1_554 S
C1669 H1657 0.950 1_556 S
C1669 C1665 1.393 . S
C1669 C1668 1.391 1_556 S
C1670 H1660 0.950 . S
C1670 C1671 1.386 . S
C1670 C1672 1.391 . S
C1671 C1670 1.386 . S
C1671 C1675 1.393 1_554 S
C1672 H1661 0.950 . S
C1672 C1670 1.391 . S
C1672 C1673 1.400 1_554 S
C1673 C1667 1.491 . S
C1673 C1672 1.400 1_556 S
C1673 C1674 1.398 . S
C1674 H1662 0.950 . S
C1674 C1673 1.398 . S
C1674 C1675 1.391 . S
C1675 H1663 0.950 . S
C1675 C1671 1.393 1_556 S
C1675 C1674 1.391 . S
H1676 C1684 0.950 . S
H1677 C1689 0.950 . S
H1678 C1686 0.950 . S
H1679 C1688 0.950 . S
H1680 C1690 0.950 . S
H1681 C1692 0.950 . S
H1682 C1694 0.950 . S
H1683 C1695 0.950 . S
C1684 H1676 0.950 . S
C1684 C1685 1.386 . S
C1684 C1686 1.391 . S
C1685 C1684 1.386 . S
C1685 C1689 1.393 . S
C1686 H1678 0.950 . S
C1686 C1684 1.391 . S
C1686 C1687 1.400 . S
C1687 C1686 1.400 . S
C1687 C1688 1.398 . S
C1687 C1693 1.491 . S
C1688 H1679 0.950 . S
C1688 C1687 1.398 . S
C1688 C1689 1.391 . S
C1689 H1677 0.950 . S
C1689 C1685 1.393 . S
C1689 C1688 1.391 . S
C1690 H1680 0.950 . S
C1690 C1691 1.386 . S
C1690 C1692 1.391 . S
C1691 C1690 1.386 . S
C1691 C1695 1.393 . S
C1692 H1681 0.950 . S
C1692 C1690 1.391 . S
C1692 C1693 1.400 . S
C1693 C1687 1.491 . S
C1693 C1692 1.400 . S
C1693 C1694 1.398 . S
C1694 H1682 0.950 . S
C1694 C1693 1.398 . S
C1694 C1695 1.391 . S
C1695 H1683 0.950 . S
C1695 C1691 1.393 . S
C1695 C1694 1.391 . S
H1696 C1704 0.950 . S
H1697 C1709 0.950 . S
H1698 C1706 0.950 . S
H1699 C1708 0.950 . S
H1700 C1710 0.950 . S
H1701 C1712 0.950 . S
H1702 C1714 0.950 . S
H1703 C1715 0.950 . S
C1704 H1696 0.950 . S
C1704 C1705 1.386 . S
C1704 C1706 1.391 . S
C1705 C1704 1.386 . S
C1705 C1709 1.393 . S
C1706 H1698 0.950 . S
C1706 C1704 1.391 . S
C1706 C1707 1.400 . S
C1707 C1706 1.400 . S
C1707 C1708 1.398 . S
C1707 C1713 1.491 . S
C1708 H1699 0.950 . S
C1708 C1707 1.398 . S
C1708 C1709 1.391 . S
C1709 H1697 0.950 . S
C1709 C1705 1.393 . S
C1709 C1708 1.391 . S
C1710 H1700 0.950 . S
C1710 C1711 1.386 . S
C1710 C1712 1.391 . S
C1711 C1710 1.386 . S
C1711 C1715 1.393 . S
C1712 H1701 0.950 . S
C1712 C1710 1.391 . S
C1712 C1713 1.400 . S
C1713 C1707 1.491 . S
C1713 C1712 1.400 . S
C1713 C1714 1.398 . S
C1714 H1702 0.950 . S
C1714 C1713 1.398 . S
C1714 C1715 1.391 . S
C1715 H1703 0.950 . S
C1715 C1711 1.393 . S
C1715 C1714 1.391 . S
H1716 C1724 0.950 . S
H1717 C1729 0.950 . S
H1718 C1726 0.950 . S
H1719 C1728 0.950 . S
H1720 C1730 0.950 . S
H1721 C1732 0.950 . S
H1722 C1734 0.950 . S
H1723 C1735 0.950 . S
C1724 H1716 0.950 . S
C1724 C1725 1.386 . S
C1724 C1726 1.391 . S
C1725 C1724 1.386 . S
C1725 C1729 1.393 . S
C1726 H1718 0.950 . S
C1726 C1724 1.391 . S
C1726 C1727 1.400 . S
C1727 C1726 1.400 . S
C1727 C1728 1.398 . S
C1727 C1733 1.491 . S
C1728 H1719 0.950 . S
C1728 C1727 1.398 . S
C1728 C1729 1.391 . S
C1729 H1717 0.950 . S
C1729 C1725 1.393 . S
C1729 C1728 1.391 . S
C1730 H1720 0.950 . S
C1730 C1731 1.386 . S
C1730 C1732 1.391 . S
C1731 C1730 1.386 . S
C1731 C1735 1.393 . S
C1732 H1721 0.950 . S
C1732 C1730 1.391 . S
C1732 C1733 1.400 . S
C1733 C1727 1.491 . S
C1733 C1732 1.400 . S
C1733 C1734 1.398 . S
C1734 H1722 0.950 . S
C1734 C1733 1.398 . S
C1734 C1735 1.391 . S
C1735 H1723 0.950 . S
C1735 C1731 1.393 . S
C1735 C1734 1.391 . S
H1736 C1744 0.950 . S
H1737 C1749 0.950 . S
H1738 C1746 0.950 1_655 S
H1739 C1748 0.950 . S
H1740 C1750 0.950 . S
H1741 C1752 0.950 . S
H1742 C1754 0.950 . S
H1743 C1755 0.950 . S
C1744 H1736 0.950 . S
C1744 C1745 1.386 1_655 S
C1744 C1746 1.391 1_655 S
C1745 C1744 1.386 1_455 S
C1745 C1749 1.393 . S
C1746 H1738 0.950 1_455 S
C1746 C1744 1.391 1_455 S
C1746 C1747 1.400 . S
C1747 C1746 1.400 . S
C1747 C1748 1.398 . S
C1747 C1753 1.491 . S
C1748 H1739 0.950 . S
C1748 C1747 1.398 . S
C1748 C1749 1.391 . S
C1749 H1737 0.950 . S
C1749 C1745 1.393 . S
C1749 C1748 1.391 . S
C1750 H1740 0.950 . S
C1750 C1751 1.386 . S
C1750 C1752 1.391 . S
C1751 C1750 1.386 . S
C1751 C1755 1.393 . S
C1752 H1741 0.950 . S
C1752 C1750 1.391 . S
C1752 C1753 1.400 . S
C1753 C1747 1.491 . S
C1753 C1752 1.400 . S
C1753 C1754 1.398 . S
C1754 H1742 0.950 . S
C1754 C1753 1.398 . S
C1754 C1755 1.391 . S
C1755 H1743 0.950 . S
C1755 C1751 1.393 . S
C1755 C1754 1.391 . S
H1756 C1764 0.950 . S
H1757 C1769 0.950 . S
H1758 C1766 0.950 . S
H1759 C1768 0.950 . S
H1760 C1770 0.950 . S
H1761 C1772 0.950 . S
H1762 C1774 0.950 . S
H1763 C1775 0.950 . S
C1764 H1756 0.950 . S
C1764 C1765 1.386 . S
C1764 C1766 1.391 . S
C1765 C1764 1.386 . S
C1765 C1769 1.393 . S
C1766 H1758 0.950 . S
C1766 C1764 1.391 . S
C1766 C1767 1.400 . S
C1767 C1766 1.400 . S
C1767 C1768 1.398 . S
C1767 C1773 1.491 . S
C1768 H1759 0.950 . S
C1768 C1767 1.398 . S
C1768 C1769 1.391 . S
C1769 H1757 0.950 . S
C1769 C1765 1.393 . S
C1769 C1768 1.391 . S
C1770 H1760 0.950 . S
C1770 C1771 1.386 . S
C1770 C1772 1.391 . S
C1771 C1770 1.386 . S
C1771 C1775 1.393 . S
C1772 H1761 0.950 . S
C1772 C1770 1.391 . S
C1772 C1773 1.400 . S
C1773 C1767 1.491 . S
C1773 C1772 1.400 . S
C1773 C1774 1.398 . S
C1774 H1762 0.950 . S
C1774 C1773 1.398 . S
C1774 C1775 1.391 . S
C1775 H1763 0.950 . S
C1775 C1771 1.393 . S
C1775 C1774 1.391 . S
H1776 C1784 0.950 . S
H1777 C1789 0.950 . S
H1778 C1786 0.950 . S
H1779 C1788 0.950 . S
H1780 C1790 0.950 . S
H1781 C1792 0.950 . S
H1782 C1794 0.950 . S
H1783 C1795 0.950 . S
C1784 H1776 0.950 . S
C1784 C1785 1.386 . S
C1784 C1786 1.391 . S
C1785 C1784 1.386 . S
C1785 C1789 1.393 . S
C1786 H1778 0.950 . S
C1786 C1784 1.391 . S
C1786 C1787 1.400 . S
C1787 C1786 1.400 . S
C1787 C1788 1.398 . S
C1787 C1793 1.491 . S
C1788 H1779 0.950 . S
C1788 C1787 1.398 . S
C1788 C1789 1.391 . S
C1789 H1777 0.950 . S
C1789 C1785 1.393 . S
C1789 C1788 1.391 . S
C1790 H1780 0.950 . S
C1790 C1791 1.386 . S
C1790 C1792 1.391 . S
C1791 C1790 1.386 . S
C1791 C1795 1.393 . S
C1792 H1781 0.950 . S
C1792 C1790 1.391 . S
C1792 C1793 1.400 . S
C1793 C1787 1.491 . S
C1793 C1792 1.400 . S
C1793 C1794 1.398 . S
C1794 H1782 0.950 . S
C1794 C1793 1.398 . S
C1794 C1795 1.391 . S
C1795 H1783 0.950 . S
C1795 C1791 1.393 . S
C1795 C1794 1.391 . S
H1796 C1804 0.950 . S
H1797 C1809 0.950 . S
H1798 C1806 0.950 . S
H1799 C1808 0.950 . S
H1800 C1810 0.950 . S
H1801 C1812 0.950 . S
H1802 C1814 0.950 . S
H1803 C1815 0.950 . S
C1804 H1796 0.950 . S
C1804 C1805 1.386 . S
C1804 C1806 1.391 . S
C1805 C1804 1.386 . S
C1805 C1809 1.393 . S
C1806 H1798 0.950 . S
C1806 C1804 1.391 . S
C1806 C1807 1.400 . S
C1807 C1806 1.400 . S
C1807 C1808 1.398 . S
C1807 C1813 1.491 . S
C1808 H1799 0.950 . S
C1808 C1807 1.398 . S
C1808 C1809 1.391 . S
C1809 H1797 0.950 . S
C1809 C1805 1.393 . S
C1809 C1808 1.391 . S
C1810 H1800 0.950 . S
C1810 C1811 1.386 . S
C1810 C1812 1.391 . S
C1811 C1810 1.386 . S
C1811 C1815 1.393 . S
C1812 H1801 0.950 . S
C1812 C1810 1.391 . S
C1812 C1813 1.400 . S
C1813 C1807 1.491 . S
C1813 C1812 1.400 . S
C1813 C1814 1.398 . S
C1814 H1802 0.950 . S
C1814 C1813 1.398 . S
C1814 C1815 1.391 . S
C1815 H1803 0.950 . S
C1815 C1811 1.393 . S
C1815 C1814 1.391 . S
H1816 C1824 0.950 . S
H1817 C1829 0.950 . S
H1818 C1826 0.950 . S
H1819 C1828 0.950 . S
H1820 C1830 0.950 . S
H1821 C1832 0.950 . S
H1822 C1834 0.950 . S
H1823 C1835 0.950 1_655 S
C1824 H1816 0.950 . S
C1824 C1825 1.386 . S
C1824 C1826 1.391 . S
C1825 C1824 1.386 . S
C1825 C1829 1.393 1_655 S
C1826 H1818 0.950 . S
C1826 C1824 1.391 . S
C1826 C1827 1.421 . S
C1827 C1826 1.421 . S
C1827 C1828 1.388 1_655 S
C1827 C1833 1.481 1_655 S
C1828 H1819 0.950 . S
C1828 C1827 1.388 1_455 S
C1828 C1829 1.391 . S
C1829 H1817 0.950 . S
C1829 C1825 1.393 1_455 S
C1829 C1828 1.391 . S
C1830 H1820 0.950 . S
C1830 C1831 1.386 . S
C1830 C1832 1.391 . S
C1831 C1830 1.386 . S
C1831 C1835 1.393 . S
C1832 H1821 0.950 . S
C1832 C1830 1.391 . S
C1832 C1833 1.400 . S
C1833 C1827 1.481 1_455 S
C1833 C1832 1.400 . S
C1833 C1834 1.398 1_455 S
C1834 H1822 0.950 . S
C1834 C1833 1.398 1_655 S
C1834 C1835 1.391 1_655 S
C1835 H1823 0.950 1_455 S
C1835 C1831 1.393 . S
C1835 C1834 1.391 1_455 S
H1836 C1844 0.950 . S
H1837 C1849 0.950 . S
H1838 C1846 0.950 . S
H1839 C1848 0.950 . S
H1840 C1850 0.950 . S
H1841 C1852 0.950 . S
H1842 C1854 0.950 . S
H1843 C1855 0.950 . S
C1844 H1836 0.950 . S
C1844 C1845 1.386 . S
C1844 C1846 1.391 . S
C1845 C1844 1.386 . S
C1845 C1849 1.393 . S
C1846 H1838 0.950 . S
C1846 C1844 1.391 . S
C1846 C1847 1.400 . S
C1847 C1846 1.400 . S
C1847 C1848 1.398 . S
C1847 C1853 1.491 . S
C1848 H1839 0.950 . S
C1848 C1847 1.398 . S
C1848 C1849 1.391 . S
C1849 H1837 0.950 . S
C1849 C1845 1.393 . S
C1849 C1848 1.391 . S
C1850 H1840 0.950 . S
C1850 C1851 1.386 . S
C1850 C1852 1.391 . S
C1851 C1850 1.386 . S
C1851 C1855 1.393 . S
C1852 H1841 0.950 . S
C1852 C1850 1.391 . S
C1852 C1853 1.400 . S
C1853 C1847 1.491 . S
C1853 C1852 1.400 . S
C1853 C1854 1.398 . S
C1854 H1842 0.950 . S
C1854 C1853 1.398 . S
C1854 C1855 1.391 . S
C1855 H1843 0.950 . S
C1855 C1851 1.393 . S
C1855 C1854 1.391 . S
H1856 C1864 0.950 . S
H1857 C1869 0.950 . S
H1858 C1866 0.950 . S
H1859 C1868 0.950 . S
H1860 C1870 0.950 . S
H1861 C1872 0.950 . S
H1862 C1874 0.950 . S
H1863 C1875 0.950 . S
C1864 H1856 0.950 . S
C1864 C1865 1.386 . S
C1864 C1866 1.391 . S
C1865 C1864 1.386 . S
C1865 C1869 1.393 . S
C1866 H1858 0.950 . S
C1866 C1864 1.391 . S
C1866 C1867 1.400 . S
C1867 C1866 1.400 . S
C1867 C1868 1.398 . S
C1867 C1873 1.491 . S
C1868 H1859 0.950 . S
C1868 C1867 1.398 . S
C1868 C1869 1.391 . S
C1869 H1857 0.950 . S
C1869 C1865 1.393 . S
C1869 C1868 1.391 . S
C1870 H1860 0.950 . S
C1870 C1871 1.386 . S
C1870 C1872 1.391 . S
C1871 C1870 1.386 . S
C1871 C1875 1.393 . S
C1872 H1861 0.950 . S
C1872 C1870 1.391 . S
C1872 C1873 1.400 . S
C1873 C1867 1.491 . S
C1873 C1872 1.400 . S
C1873 C1874 1.398 . S
C1874 H1862 0.950 . S
C1874 C1873 1.398 . S
C1874 C1875 1.391 . S
C1875 H1863 0.950 . S
C1875 C1871 1.393 . S
C1875 C1874 1.391 . S
H1876 C1884 0.950 . S
H1877 C1889 0.950 . S
H1878 C1886 0.950 . S
H1879 C1888 0.950 . S
H1880 C1890 0.950 . S
H1881 C1892 0.950 . S
H1882 C1894 0.950 . S
H1883 C1895 0.950 . S
C1884 H1876 0.950 . S
C1884 C1885 1.386 . S
C1884 C1886 1.391 . S
C1885 C1884 1.386 . S
C1885 C1889 1.393 . S
C1886 H1878 0.950 . S
C1886 C1884 1.391 . S
C1886 C1887 1.400 . S
C1887 C1886 1.400 . S
C1887 C1888 1.398 . S
C1887 C1893 1.491 . S
C1888 H1879 0.950 . S
C1888 C1887 1.398 . S
C1888 C1889 1.391 . S
C1889 H1877 0.950 . S
C1889 C1885 1.393 . S
C1889 C1888 1.391 . S
C1890 H1880 0.950 . S
C1890 C1891 1.386 . S
C1890 C1892 1.391 . S
C1891 C1890 1.386 . S
C1891 C1895 1.393 . S
C1892 H1881 0.950 . S
C1892 C1890 1.391 . S
C1892 C1893 1.400 . S
C1893 C1887 1.491 . S
C1893 C1892 1.400 . S
C1893 C1894 1.398 . S
C1894 H1882 0.950 . S
C1894 C1893 1.398 . S
C1894 C1895 1.391 . S
C1895 H1883 0.950 . S
C1895 C1891 1.393 . S
C1895 C1894 1.391 . S
H1896 C1904 0.950 . S
H1897 C1909 0.950 . S
H1898 C1906 0.950 . S
H1899 C1908 0.950 . S
H1900 C1910 0.950 . S
H1901 C1912 0.950 . S
H1902 C1914 0.950 1_655 S
H1903 C1915 0.950 . S
C1904 H1896 0.950 . S
C1904 C1905 1.386 . S
C1904 C1906 1.391 . S
C1905 C1904 1.386 . S
C1905 C1909 1.393 1_655 S
C1906 H1898 0.950 . S
C1906 C1904 1.391 . S
C1906 C1907 1.400 1_655 S
C1907 C1906 1.400 1_455 S
C1907 C1908 1.398 . S
C1907 C1913 1.491 . S
C1908 H1899 0.950 . S
C1908 C1907 1.398 . S
C1908 C1909 1.391 . S
C1909 H1897 0.950 . S
C1909 C1905 1.393 1_455 S
C1909 C1908 1.391 . S
C1910 H1900 0.950 . S
C1910 C1911 1.386 . S
C1910 C1912 1.391 . S
C1911 C1910 1.386 . S
C1911 C1915 1.393 . S
C1912 H1901 0.950 . S
C1912 C1910 1.391 . S
C1912 C1913 1.400 . S
C1913 C1907 1.491 . S
C1913 C1912 1.400 . S
C1913 C1914 1.398 . S
C1914 H1902 0.950 1_455 S
C1914 C1913 1.398 . S
C1914 C1915 1.391 . S
C1915 H1903 0.950 . S
C1915 C1911 1.393 . S
C1915 C1914 1.391 . S
H1916 C1924 0.950 . S
H1917 C1929 0.950 . S
H1918 C1926 0.950 . S
H1919 C1928 0.950 . S
H1920 C1930 0.950 . S
H1921 C1932 0.950 . S
H1922 C1934 0.950 . S
H1923 C1935 0.950 . S
C1924 H1916 0.950 . S
C1924 C1925 1.386 . S
C1924 C1926 1.391 . S
C1925 C1924 1.386 . S
C1925 C1929 1.393 . S
C1926 H1918 0.950 . S
C1926 C1924 1.391 . S
C1926 C1927 1.400 . S
C1927 C1926 1.400 . S
C1927 C1928 1.398 . S
C1927 C1933 1.491 . S
C1928 H1919 0.950 . S
C1928 C1927 1.398 . S
C1928 C1929 1.391 . S
C1929 H1917 0.950 . S
C1929 C1925 1.393 . S
C1929 C1928 1.391 . S
C1930 H1920 0.950 . S
C1930 C1931 1.386 . S
C1930 C1932 1.391 . S
C1931 C1930 1.386 . S
C1931 C1935 1.393 . S
C1932 H1921 0.950 . S
C1932 C1930 1.391 . S
C1932 C1933 1.400 . S
C1933 C1927 1.491 . S
C1933 C1932 1.400 . S
C1933 C1934 1.398 . S
C1934 H1922 0.950 . S
C1934 C1933 1.398 . S
C1934 C1935 1.391 . S
C1935 H1923 0.950 . S
C1935 C1931 1.393 . S
C1935 C1934 1.391 . S
H1936 C1944 0.950 . S
H1937 C1949 0.950 . S
H1938 C1946 0.950 . S
H1939 C1948 0.950 . S
H1940 C1950 0.950 . S
H1941 C1952 0.950 . S
H1942 C1954 0.950 . S
H1943 C1955 0.950 . S
C1944 H1936 0.950 . S
C1944 C1945 1.386 . S
C1944 C1946 1.391 . S
C1945 C1944 1.386 . S
C1945 C1949 1.393 . S
C1946 H1938 0.950 . S
C1946 C1944 1.391 . S
C1946 C1947 1.400 . S
C1947 C1946 1.400 . S
C1947 C1948 1.398 . S
C1947 C1953 1.491 . S
C1948 H1939 0.950 . S
C1948 C1947 1.398 . S
C1948 C1949 1.391 . S
C1949 H1937 0.950 . S
C1949 C1945 1.393 . S
C1949 C1948 1.391 . S
C1950 H1940 0.950 . S
C1950 C1951 1.386 . S
C1950 C1952 1.391 . S
C1951 C1950 1.386 . S
C1951 C1955 1.393 . S
C1952 H1941 0.950 . S
C1952 C1950 1.391 . S
C1952 C1953 1.400 . S
C1953 C1947 1.491 . S
C1953 C1952 1.400 . S
C1953 C1954 1.398 . S
C1954 H1942 0.950 . S
C1954 C1953 1.398 . S
C1954 C1955 1.391 . S
C1955 H1943 0.950 . S
C1955 C1951 1.393 . S
C1955 C1954 1.391 . S
H1956 C1964 0.950 . S
H1957 C1969 0.950 . S
H1958 C1966 0.950 . S
H1959 C1968 0.950 . S
H1960 C1970 0.950 . S
H1961 C1972 0.950 . S
H1962 C1974 0.950 . S
H1963 C1975 0.950 . S
C1964 H1956 0.950 . S
C1964 C1965 1.386 . S
C1964 C1966 1.391 . S
C1965 C1964 1.386 . S
C1965 C1969 1.393 . S
C1966 H1958 0.950 . S
C1966 C1964 1.391 . S
C1966 C1967 1.400 . S
C1967 C1966 1.400 . S
C1967 C1968 1.398 . S
C1967 C1973 1.491 . S
C1968 H1959 0.950 . S
C1968 C1967 1.398 . S
C1968 C1969 1.391 . S
C1969 H1957 0.950 . S
C1969 C1965 1.393 . S
C1969 C1968 1.391 . S
C1970 H1960 0.950 . S
C1970 C1971 1.386 . S
C1970 C1972 1.391 . S
C1971 C1970 1.386 . S
C1971 C1975 1.393 . S
C1972 H1961 0.950 . S
C1972 C1970 1.391 . S
C1972 C1973 1.400 . S
C1973 C1967 1.491 . S
C1973 C1972 1.400 . S
C1973 C1974 1.398 . S
C1974 H1962 0.950 . S
C1974 C1973 1.398 . S
C1974 C1975 1.391 . S
C1975 H1963 0.950 . S
C1975 C1971 1.393 . S
C1975 C1974 1.391 . S
H1976 C1984 0.943 1_546 S
H1977 C1989 0.950 . S
H1978 C1986 0.901 1_545 S
H1979 C1988 0.950 . S
H1980 C1990 0.950 . S
H1981 C1992 0.950 . S
H1982 C1994 0.950 . S
H1983 C1995 0.950 . S
C1984 H1976 0.943 1_564 S
C1984 C1985 1.386 . S
C1984 C1986 1.417 . S
C1985 C1984 1.386 . S
C1985 C1989 1.393 . S
C1986 H1978 0.901 1_565 S
C1986 C1984 1.417 . S
C1986 C1987 1.425 . S
C1987 C1986 1.425 . S
C1987 C1988 1.398 . S
C1987 C1993 1.491 . S
C1988 H1979 0.950 . S
C1988 C1987 1.398 . S
C1988 C1989 1.391 . S
C1989 H1977 0.950 . S
C1989 C1985 1.393 . S
C1989 C1988 1.391 . S
C1990 H1980 0.950 . S
C1990 C1991 1.386 1_565 S
C1990 C1992 1.391 . S
C1991 C1990 1.386 1_545 S
C1991 C1995 1.393 . S
C1992 H1981 0.950 . S
C1992 C1990 1.391 . S
C1992 C1993 1.400 . S
C1993 C1987 1.491 . S
C1993 C1992 1.400 . S
C1993 C1994 1.398 1_565 S
C1994 H1982 0.950 . S
C1994 C1993 1.398 1_545 S
C1994 C1995 1.391 . S
C1995 H1983 0.950 . S
C1995 C1991 1.393 . S
C1995 C1994 1.391 . S
H1996 C2004 0.950 . S
H1997 C2009 0.950 . S
H1998 C2006 0.950 . S
H1999 C2008 0.950 . S
H2000 C2010 0.950 . S
H2001 C2012 0.950 . S
H2002 C2014 0.950 . S
H2003 C2015 0.950 . S
C2004 H1996 0.950 . S
C2004 C2005 1.386 1_554 S
C2004 C2006 1.391 . S
C2005 C2004 1.386 1_556 S
C2005 C2009 1.393 . S
C2006 H1998 0.950 . S
C2006 C2004 1.391 . S
C2006 C2007 1.400 1_554 S
C2007 C2006 1.400 1_556 S
C2007 C2008 1.398 . S
C2007 C2013 1.491 . S
C2008 H1999 0.950 . S
C2008 C2007 1.398 . S
C2008 C2009 1.391 . S
C2009 H1997 0.950 . S
C2009 C2005 1.393 . S
C2009 C2008 1.391 . S
C2010 H2000 0.950 . S
C2010 C2011 1.353 1_556 S
C2010 C2012 1.391 . S
C2011 C2010 1.353 1_554 S
C2011 C2015 1.417 . S
C2012 H2001 0.950 . S
C2012 C2010 1.391 . S
C2012 C2013 1.400 . S
C2013 C2007 1.491 . S
C2013 C2012 1.400 . S
C2013 C2014 1.398 1_556 S
C2014 H2002 0.950 . S
C2014 C2013 1.398 1_554 S
C2014 C2015 1.391 . S
C2015 H2003 0.950 . S
C2015 C2011 1.417 . S
C2015 C2014 1.391 . S
H2016 C2024 0.950 . S
H2017 C2029 0.950 . S
H2018 C2026 0.950 . S
H2019 C2028 0.950 . S
H2020 C2030 0.950 . S
H2021 C2032 0.950 . S
H2022 C2034 0.950 . S
H2023 C2035 0.950 . S
C2024 H2016 0.950 . S
C2024 C2025 1.386 . S
C2024 C2026 1.391 . S
C2025 C2024 1.386 . S
C2025 C2029 1.393 . S
C2026 H2018 0.950 . S
C2026 C2024 1.391 . S
C2026 C2027 1.400 . S
C2027 C2026 1.400 . S
C2027 C2028 1.398 . S
C2027 C2033 1.491 . S
C2028 H2019 0.950 . S
C2028 C2027 1.398 . S
C2028 C2029 1.391 . S
C2029 H2017 0.950 . S
C2029 C2025 1.393 . S
C2029 C2028 1.391 . S
C2030 H2020 0.950 . S
C2030 C2031 1.386 . S
C2030 C2032 1.391 . S
C2031 C2030 1.386 . S
C2031 C2035 1.393 . S
C2032 H2021 0.950 . S
C2032 C2030 1.391 . S
C2032 C2033 1.400 . S
C2033 C2027 1.491 . S
C2033 C2032 1.400 . S
C2033 C2034 1.398 . S
C2034 H2022 0.950 . S
C2034 C2033 1.398 . S
C2034 C2035 1.391 . S
C2035 H2023 0.950 . S
C2035 C2031 1.393 . S
C2035 C2034 1.391 . S
H2036 C2044 0.950 . S
H2037 C2049 0.950 . S
H2038 C2046 0.950 . S
H2039 C2048 0.950 . S
H2040 C2050 0.950 1_455 S
H2041 C2052 0.950 . S
H2042 C2054 0.950 . S
H2043 C2055 0.964 . S
C2044 H2036 0.950 . S
C2044 C2045 1.386 . S
C2044 C2046 1.391 . S
C2045 C2044 1.386 . S
C2045 C2049 1.393 . S
C2046 H2038 0.950 . S
C2046 C2044 1.391 . S
C2046 C2047 1.400 . S
C2047 C2046 1.400 . S
C2047 C2048 1.398 . S
C2047 C2053 1.491 . S
C2048 H2039 0.950 . S
C2048 C2047 1.398 . S
C2048 C2049 1.391 . S
C2049 H2037 0.950 . S
C2049 C2045 1.393 . S
C2049 C2048 1.391 . S
C2050 H2040 0.950 1_655 S
C2050 C2051 1.386 1_655 S
C2050 C2052 1.391 . S
C2051 C2050 1.386 1_455 S
C2051 C2055 1.397 . S
C2052 H2041 0.950 . S
C2052 C2050 1.391 . S
C2052 C2053 1.400 . S
C2053 C2047 1.491 . S
C2053 C2052 1.400 . S
C2053 C2054 1.398 . S
C2054 H2042 0.950 . S
C2054 C2053 1.398 . S
C2054 C2055 1.373 1_655 S
C2055 H2043 0.964 . S
C2055 C2051 1.397 . S
C2055 C2054 1.373 1_455 S
H2056 C2064 0.950 . S
H2057 C2069 0.950 . S
H2058 C2066 0.950 . S
H2059 C2068 0.950 . S
H2060 C2070 0.950 . S
H2061 C2072 0.950 . S
H2062 C2074 0.950 . S
H2063 C2075 0.950 . S
C2064 H2056 0.950 . S
C2064 C2065 1.386 . S
C2064 C2066 1.391 . S
C2065 C2064 1.386 . S
C2065 C2069 1.393 . S
C2066 H2058 0.950 . S
C2066 C2064 1.391 . S
C2066 C2067 1.400 . S
C2067 C2066 1.400 . S
C2067 C2068 1.398 . S
C2067 C2073 1.491 . S
C2068 H2059 0.950 . S
C2068 C2067 1.398 . S
C2068 C2069 1.391 . S
C2069 H2057 0.950 . S
C2069 C2065 1.393 . S
C2069 C2068 1.391 . S
C2070 H2060 0.950 . S
C2070 C2071 1.386 . S
C2070 C2072 1.391 . S
C2071 C2070 1.386 . S
C2071 C2075 1.393 . S
C2072 H2061 0.950 . S
C2072 C2070 1.391 . S
C2072 C2073 1.400 . S
C2073 C2067 1.491 . S
C2073 C2072 1.400 . S
C2073 C2074 1.398 . S
C2074 H2062 0.950 . S
C2074 C2073 1.398 . S
C2074 C2075 1.391 . S
C2075 H2063 0.950 . S
C2075 C2071 1.393 . S
C2075 C2074 1.391 . S
H2076 C2084 0.950 . S
H2077 C2089 0.950 . S
H2078 C2086 0.950 . S
H2079 C2088 0.950 . S
H2080 C2090 0.950 . S
H2081 C2092 0.950 . S
H2082 C2094 0.950 . S
H2083 C2095 0.950 . S
C2084 H2076 0.950 . S
C2084 C2085 1.386 . S
C2084 C2086 1.391 . S
C2085 C2084 1.386 . S
C2085 C2089 1.393 . S
C2086 H2078 0.950 . S
C2086 C2084 1.391 . S
C2086 C2087 1.400 . S
C2087 C2086 1.400 . S
C2087 C2088 1.398 . S
C2087 C2093 1.491 . S
C2088 H2079 0.950 . S
C2088 C2087 1.398 . S
C2088 C2089 1.391 . S
C2089 H2077 0.950 . S
C2089 C2085 1.393 . S
C2089 C2088 1.391 . S
C2090 H2080 0.950 . S
C2090 C2091 1.386 . S
C2090 C2092 1.391 . S
C2091 C2090 1.386 . S
C2091 C2095 1.393 . S
C2092 H2081 0.950 . S
C2092 C2090 1.391 . S
C2092 C2093 1.400 . S
C2093 C2087 1.491 . S
C2093 C2092 1.400 . S
C2093 C2094 1.398 . S
C2094 H2082 0.950 . S
C2094 C2093 1.398 . S
C2094 C2095 1.391 . S
C2095 H2083 0.950 . S
C2095 C2091 1.393 . S
C2095 C2094 1.391 . S
H2096 C2104 0.950 . S
H2097 C2109 0.950 . S
H2098 C2106 0.950 . S
H2099 C2108 0.950 . S
H2100 C2110 0.950 . S
H2101 C2112 0.950 . S
H2102 C2114 0.950 . S
H2103 C2115 0.950 . S
C2104 H2096 0.950 . S
C2104 C2105 1.386 . S
C2104 C2106 1.391 . S
C2105 C2104 1.386 . S
C2105 C2109 1.393 . S
C2106 H2098 0.950 . S
C2106 C2104 1.391 . S
C2106 C2107 1.400 . S
C2107 C2106 1.400 . S
C2107 C2108 1.398 . S
C2107 C2113 1.491 . S
C2108 H2099 0.950 . S
C2108 C2107 1.398 . S
C2108 C2109 1.391 . S
C2109 H2097 0.950 . S
C2109 C2105 1.393 . S
C2109 C2108 1.391 . S
C2110 H2100 0.950 . S
C2110 C2111 1.386 . S
C2110 C2112 1.391 . S
C2111 C2110 1.386 . S
C2111 C2115 1.393 . S
C2112 H2101 0.950 . S
C2112 C2110 1.391 . S
C2112 C2113 1.400 . S
C2113 C2107 1.491 . S
C2113 C2112 1.400 . S
C2113 C2114 1.398 . S
C2114 H2102 0.950 . S
C2114 C2113 1.398 . S
C2114 C2115 1.391 . S
C2115 H2103 0.950 . S
C2115 C2111 1.393 . S
C2115 C2114 1.391 . S
H2116 C2124 0.950 . S
H2117 C2129 0.950 . S
H2118 C2126 0.950 . S
H2119 C2128 0.950 . S
H2120 C2130 0.950 . S
H2121 C2132 0.950 . S
H2122 C2134 0.950 . S
H2123 C2135 0.950 . S
C2124 H2116 0.950 . S
C2124 C2125 1.386 . S
C2124 C2126 1.391 . S
C2125 C2124 1.386 . S
C2125 C2129 1.393 . S
C2126 H2118 0.950 . S
C2126 C2124 1.391 . S
C2126 C2127 1.400 . S
C2127 C2126 1.400 . S
C2127 C2128 1.398 . S
C2127 C2133 1.491 . S
C2128 H2119 0.950 . S
C2128 C2127 1.398 . S
C2128 C2129 1.391 . S
C2129 H2117 0.950 . S
C2129 C2125 1.393 . S
C2129 C2128 1.391 . S
C2130 H2120 0.950 . S
C2130 C2131 1.386 . S
C2130 C2132 1.391 . S
C2131 C2130 1.386 . S
C2131 C2135 1.393 . S
C2132 H2121 0.950 . S
C2132 C2130 1.391 . S
C2132 C2133 1.400 . S
C2133 C2127 1.491 . S
C2133 C2132 1.400 . S
C2133 C2134 1.398 . S
C2134 H2122 0.950 . S
C2134 C2133 1.398 . S
C2134 C2135 1.391 . S
C2135 H2123 0.950 . S
C2135 C2131 1.393 . S
C2135 C2134 1.391 . S
H2136 C2144 0.950 . S
H2137 C2149 0.950 . S
H2138 C2146 0.950 . S
H2139 C2148 0.950 . S
H2140 C2150 0.950 1_556 S
H2141 C2152 0.950 . S
H2142 C2154 0.950 . S
H2143 C2155 0.950 . S
C2144 H2136 0.950 . S
C2144 C2145 1.386 . S
C2144 C2146 1.391 . S
C2145 C2144 1.386 . S
C2145 C2149 1.393 . S
C2146 H2138 0.950 . S
C2146 C2144 1.391 . S
C2146 C2147 1.400 . S
C2147 C2146 1.400 . S
C2147 C2148 1.398 . S
C2147 C2153 1.491 . S
C2148 H2139 0.950 . S
C2148 C2147 1.398 . S
C2148 C2149 1.391 . S
C2149 H2137 0.950 . S
C2149 C2145 1.393 . S
C2149 C2148 1.391 . S
C2150 H2140 0.950 1_554 S
C2150 C2151 1.386 . S
C2150 C2152 1.391 . S
C2151 C2150 1.386 . S
C2151 C2155 1.393 . S
C2152 H2141 0.950 . S
C2152 C2150 1.391 . S
C2152 C2153 1.400 . S
C2153 C2147 1.491 . S
C2153 C2152 1.400 . S
C2153 C2154 1.398 . S
C2154 H2142 0.950 . S
C2154 C2153 1.398 . S
C2154 C2155 1.391 . S
C2155 H2143 0.950 . S
C2155 C2151 1.393 . S
C2155 C2154 1.391 . S
H2156 C2164 0.950 . S
H2157 C2169 0.950 . S
H2158 C2166 0.950 . S
H2159 C2168 0.950 . S
H2160 C2170 0.950 . S
H2161 C2172 0.950 . S
H2162 C2174 0.950 . S
H2163 C2175 0.950 . S
C2164 H2156 0.950 . S
C2164 C2165 1.386 . S
C2164 C2166 1.391 . S
C2165 C2164 1.386 . S
C2165 C2169 1.393 . S
C2166 H2158 0.950 . S
C2166 C2164 1.391 . S
C2166 C2167 1.400 . S
C2167 C2166 1.400 . S
C2167 C2168 1.398 . S
C2167 C2173 1.491 . S
C2168 H2159 0.950 . S
C2168 C2167 1.398 . S
C2168 C2169 1.391 . S
C2169 H2157 0.950 . S
C2169 C2165 1.393 . S
C2169 C2168 1.391 . S
C2170 H2160 0.950 . S
C2170 C2171 1.386 . S
C2170 C2172 1.391 . S
C2171 C2170 1.386 . S
C2171 C2175 1.393 . S
C2172 H2161 0.950 . S
C2172 C2170 1.391 . S
C2172 C2173 1.400 . S
C2173 C2167 1.491 . S
C2173 C2172 1.400 . S
C2173 C2174 1.398 . S
C2174 H2162 0.950 . S
C2174 C2173 1.398 . S
C2174 C2175 1.391 . S
C2175 H2163 0.950 . S
C2175 C2171 1.393 . S
C2175 C2174 1.391 . S
H2176 C2184 0.950 . S
H2177 C2189 0.950 . S
H2178 C2186 0.950 . S
H2179 C2188 0.950 . S
H2180 C2190 0.950 . S
H2181 C2192 0.950 . S
H2182 C2194 0.950 . S
H2183 C2195 0.950 . S
C2184 H2176 0.950 . S
C2184 C2185 1.386 . S
C2184 C2186 1.391 . S
C2185 C2184 1.386 . S
C2185 C2189 1.393 . S
C2186 H2178 0.950 . S
C2186 C2184 1.391 . S
C2186 C2187 1.400 . S
C2187 C2186 1.400 . S
C2187 C2188 1.398 . S
C2187 C2193 1.491 . S
C2188 H2179 0.950 . S
C2188 C2187 1.398 . S
C2188 C2189 1.391 . S
C2189 H2177 0.950 . S
C2189 C2185 1.393 . S
C2189 C2188 1.391 . S
C2190 H2180 0.950 . S
C2190 C2191 1.386 . S
C2190 C2192 1.391 . S
C2191 C2190 1.386 . S
C2191 C2195 1.393 . S
C2192 H2181 0.950 . S
C2192 C2190 1.391 . S
C2192 C2193 1.400 . S
C2193 C2187 1.491 . S
C2193 C2192 1.400 . S
C2193 C2194 1.398 . S
C2194 H2182 0.950 . S
C2194 C2193 1.398 . S
C2194 C2195 1.391 . S
C2195 H2183 0.950 . S
C2195 C2191 1.393 . S
C2195 C2194 1.391 . S
H2196 C2204 0.950 . S
H2197 C2209 0.950 . S
H2198 C2206 0.950 . S
H2199 C2208 0.950 . S
H2200 C2210 0.950 . S
H2201 C2212 0.950 . S
H2202 C2214 0.950 . S
H2203 C2215 0.950 . S
C2204 H2196 0.950 . S
C2204 C2205 1.386 . S
C2204 C2206 1.391 . S
C2205 C2204 1.386 . S
C2205 C2209 1.393 . S
C2206 H2198 0.950 . S
C2206 C2204 1.391 . S
C2206 C2207 1.400 . S
C2207 C2206 1.400 . S
C2207 C2208 1.398 . S
C2207 C2213 1.491 . S
C2208 H2199 0.950 . S
C2208 C2207 1.398 . S
C2208 C2209 1.391 . S
C2209 H2197 0.950 . S
C2209 C2205 1.393 . S
C2209 C2208 1.391 . S
C2210 H2200 0.950 . S
C2210 C2211 1.386 . S
C2210 C2212 1.391 . S
C2211 C2210 1.386 . S
C2211 C2215 1.393 . S
C2212 H2201 0.950 . S
C2212 C2210 1.391 . S
C2212 C2213 1.400 . S
C2213 C2207 1.491 . S
C2213 C2212 1.400 . S
C2213 C2214 1.398 . S
C2214 H2202 0.950 . S
C2214 C2213 1.398 . S
C2214 C2215 1.391 . S
C2215 H2203 0.950 . S
C2215 C2211 1.393 . S
C2215 C2214 1.391 . S
H2216 C2224 0.950 . S
H2217 C2229 0.950 . S
H2218 C2226 0.950 . S
H2219 C2228 0.950 . S
H2220 C2230 0.950 . S
H2221 C2232 0.950 . S
H2222 C2234 0.950 . S
H2223 C2235 0.950 . S
C2224 H2216 0.950 . S
C2224 C2225 1.386 . S
C2224 C2226 1.391 . S
C2225 C2224 1.386 . S
C2225 C2229 1.393 . S
C2226 H2218 0.950 . S
C2226 C2224 1.391 . S
C2226 C2227 1.400 . S
C2227 C2226 1.400 . S
C2227 C2228 1.398 . S
C2227 C2233 1.491 . S
C2228 H2219 0.950 . S
C2228 C2227 1.398 . S
C2228 C2229 1.391 . S
C2229 H2217 0.950 . S
C2229 C2225 1.393 . S
C2229 C2228 1.391 . S
C2230 H2220 0.950 . S
C2230 C2231 1.386 . S
C2230 C2232 1.391 . S
C2231 C2230 1.386 . S
C2231 C2235 1.393 . S
C2232 H2221 0.950 . S
C2232 C2230 1.391 . S
C2232 C2233 1.400 . S
C2233 C2227 1.491 . S
C2233 C2232 1.400 . S
C2233 C2234 1.398 . S
C2234 H2222 0.950 . S
C2234 C2233 1.398 . S
C2234 C2235 1.391 . S
C2235 H2223 0.950 . S
C2235 C2231 1.393 . S
C2235 C2234 1.391 . S
H2236 C2244 0.950 . S
H2237 C2249 0.950 . S
H2238 C2246 0.950 . S
H2239 C2248 0.950 . S
H2240 C2250 0.950 . S
H2241 C2252 0.950 . S
H2242 C2254 0.950 . S
H2243 C2255 0.950 . S
C2244 H2236 0.950 . S
C2244 C2245 1.386 . S
C2244 C2246 1.391 . S
C2245 C2244 1.386 . S
C2245 C2249 1.393 . S
C2246 H2238 0.950 . S
C2246 C2244 1.391 . S
C2246 C2247 1.400 . S
C2247 C2246 1.400 . S
C2247 C2248 1.398 . S
C2247 C2253 1.491 . S
C2248 H2239 0.950 . S
C2248 C2247 1.398 . S
C2248 C2249 1.391 . S
C2249 H2237 0.950 . S
C2249 C2245 1.393 . S
C2249 C2248 1.391 . S
C2250 H2240 0.950 . S
C2250 C2251 1.386 . S
C2250 C2252 1.391 . S
C2251 C2250 1.386 . S
C2251 C2255 1.393 . S
C2252 H2241 0.950 . S
C2252 C2250 1.391 . S
C2252 C2253 1.400 . S
C2253 C2247 1.491 . S
C2253 C2252 1.400 . S
C2253 C2254 1.398 . S
C2254 H2242 0.950 . S
C2254 C2253 1.398 . S
C2254 C2255 1.391 . S
C2255 H2243 0.950 . S
C2255 C2251 1.393 . S
C2255 C2254 1.391 . S
H2256 C2264 0.950 . S
H2257 C2269 0.950 . S
H2258 C2266 0.950 . S
H2259 C2268 0.950 . S
H2260 C2270 0.914 1_554 S
H2261 C2272 0.950 . S
H2262 C2274 0.950 . S
H2263 C2275 0.950 1_545 S
C2264 H2256 0.950 . S
C2264 C2265 1.386 . S
C2264 C2266 1.391 . S
C2265 C2264 1.386 . S
C2265 C2269 1.393 . S
C2266 H2258 0.950 . S
C2266 C2264 1.391 . S
C2266 C2267 1.400 . S
C2267 C2266 1.400 . S
C2267 C2268 1.398 . S
C2267 C2273 1.491 . S
C2268 H2259 0.950 . S
C2268 C2267 1.398 . S
C2268 C2269 1.391 . S
C2269 H2257 0.950 . S
C2269 C2265 1.393 . S
C2269 C2268 1.391 . S
C2270 H2260 0.914 1_556 S
C2270 C2271 1.405 . S
C2270 C2272 1.408 . S
C2271 C2270 1.405 . S
C2271 C2275 1.393 . S
C2272 H2261 0.950 . S
C2272 C2270 1.408 . S
C2272 C2273 1.400 . S
C2273 C2267 1.491 . S
C2273 C2272 1.400 . S
C2273 C2274 1.398 . S
C2274 H2262 0.950 . S
C2274 C2273 1.398 . S
C2274 C2275 1.391 . S
C2275 H2263 0.950 1_565 S
C2275 C2271 1.393 . S
C2275 C2274 1.391 . S
H2276 C2284 0.950 . S
H2277 C2289 0.950 . S
H2278 C2286 0.950 . S
H2279 C2288 0.950 . S
H2280 C2290 0.950 . S
H2281 C2292 0.950 . S
H2282 C2294 0.950 . S
H2283 C2295 0.950 . S
C2284 H2276 0.950 . S
C2284 C2285 1.386 . S
C2284 C2286 1.391 . S
C2285 C2284 1.386 . S
C2285 C2289 1.393 . S
C2286 H2278 0.950 . S
C2286 C2284 1.391 . S
C2286 C2287 1.400 . S
C2287 C2286 1.400 . S
C2287 C2288 1.398 . S
C2287 C2293 1.491 . S
C2288 H2279 0.950 . S
C2288 C2287 1.398 . S
C2288 C2289 1.391 . S
C2289 H2277 0.950 . S
C2289 C2285 1.393 . S
C2289 C2288 1.391 . S
C2290 H2280 0.950 . S
C2290 C2291 1.386 . S
C2290 C2292 1.391 . S
C2291 C2290 1.386 . S
C2291 C2295 1.393 . S
C2292 H2281 0.950 . S
C2292 C2290 1.391 . S
C2292 C2293 1.400 . S
C2293 C2287 1.491 . S
C2293 C2292 1.400 . S
C2293 C2294 1.398 . S
C2294 H2282 0.950 . S
C2294 C2293 1.398 . S
C2294 C2295 1.391 . S
C2295 H2283 0.950 . S
C2295 C2291 1.393 . S
C2295 C2294 1.391 . S
H2296 C2304 0.950 . S
H2297 C2309 0.950 . S
H2298 C2306 0.950 . S
H2299 C2308 0.950 . S
H2300 C2310 0.950 . S
H2301 C2312 0.950 . S
H2302 C2314 0.950 . S
H2303 C2315 0.950 . S
C2304 H2296 0.950 . S
C2304 C2305 1.386 . S
C2304 C2306 1.391 . S
C2305 C2304 1.386 . S
C2305 C2309 1.393 1_545 S
C2306 H2298 0.950 . S
C2306 C2304 1.391 . S
C2306 C2307 1.400 . S
C2307 C2306 1.400 . S
C2307 C2308 1.398 1_545 S
C2307 C2313 1.491 . S
C2308 H2299 0.950 . S
C2308 C2307 1.398 1_565 S
C2308 C2309 1.391 . S
C2309 H2297 0.950 . S
C2309 C2305 1.393 1_565 S
C2309 C2308 1.391 . S
C2310 H2300 0.950 . S
C2310 C2311 1.386 1_565 S
C2310 C2312 1.391 . S
C2311 C2310 1.386 1_545 S
C2311 C2315 1.393 . S
C2312 H2301 0.950 . S
C2312 C2310 1.391 . S
C2312 C2313 1.400 1_565 S
C2313 C2307 1.491 . S
C2313 C2312 1.400 1_545 S
C2313 C2314 1.398 . S
C2314 H2302 0.950 . S
C2314 C2313 1.398 . S
C2314 C2315 1.391 . S
C2315 H2303 0.950 . S
C2315 C2311 1.393 . S
C2315 C2314 1.391 . S
H2316 C2324 0.950 . S
H2317 C2329 0.950 . S
H2318 C2326 0.950 . S
H2319 C2328 0.950 . S
H2320 C2330 0.950 . S
H2321 C2332 0.950 . S
H2322 C2334 0.950 . S
H2323 C2335 0.950 . S
C2324 H2316 0.950 . S
C2324 C2325 1.386 . S
C2324 C2326 1.391 . S
C2325 C2324 1.386 . S
C2325 C2329 1.393 . S
C2326 H2318 0.950 . S
C2326 C2324 1.391 . S
C2326 C2327 1.400 . S
C2327 C2326 1.400 . S
C2327 C2328 1.398 . S
C2327 C2333 1.491 . S
C2328 H2319 0.950 . S
C2328 C2327 1.398 . S
C2328 C2329 1.391 . S
C2329 H2317 0.950 . S
C2329 C2325 1.393 . S
C2329 C2328 1.391 . S
C2330 H2320 0.950 . S
C2330 C2331 1.386 . S
C2330 C2332 1.391 . S
C2331 C2330 1.386 . S
C2331 C2335 1.393 . S
C2332 H2321 0.950 . S
C2332 C2330 1.391 . S
C2332 C2333 1.400 . S
C2333 C2327 1.491 . S
C2333 C2332 1.400 . S
C2333 C2334 1.398 . S
C2334 H2322 0.950 . S
C2334 C2333 1.398 . S
C2334 C2335 1.391 . S
C2335 H2323 0.950 . S
C2335 C2331 1.393 . S
C2335 C2334 1.391 . S
H2336 C2344 0.950 1_565 S
H2337 C2349 0.950 . S
H2338 C2346 0.941 1_565 S
H2339 C2348 0.950 . S
H2340 C2350 0.950 . S
H2341 C2352 0.950 . S
H2342 C2354 0.950 . S
H2343 C2355 0.950 . S
C2344 H2336 0.950 1_545 S
C2344 C2345 1.386 . S
C2344 C2346 1.391 . S
C2345 C2344 1.386 . S
C2345 C2349 1.393 . S
C2346 H2338 0.941 1_545 S
C2346 C2344 1.391 . S
C2346 C2347 1.400 . S
C2347 C2346 1.400 . S
C2347 C2348 1.398 . S
C2347 C2353 1.491 . S
C2348 H2339 0.950 . S
C2348 C2347 1.398 . S
C2348 C2349 1.391 . S
C2349 H2337 0.950 . S
C2349 C2345 1.393 . S
C2349 C2348 1.391 . S
C2350 H2340 0.950 . S
C2350 C2351 1.386 . S
C2350 C2352 1.391 . S
C2351 C2350 1.386 . S
C2351 C2355 1.393 . S
C2352 H2341 0.950 . S
C2352 C2350 1.391 . S
C2352 C2353 1.400 . S
C2353 C2347 1.491 . S
C2353 C2352 1.400 . S
C2353 C2354 1.398 . S
C2354 H2342 0.950 . S
C2354 C2353 1.398 . S
C2354 C2355 1.391 . S
C2355 H2343 0.950 . S
C2355 C2351 1.393 . S
C2355 C2354 1.391 . S
H2356 C2364 0.950 . S
H2357 C2369 0.950 . S
H2358 C2366 0.950 . S
H2359 C2368 0.950 . S
H2360 C2370 0.950 . S
H2361 C2372 0.950 . S
H2362 C2374 0.950 . S
H2363 C2375 0.950 . S
C2364 H2356 0.950 . S
C2364 C2365 1.386 . S
C2364 C2366 1.391 . S
C2365 C2364 1.386 . S
C2365 C2369 1.393 . S
C2366 H2358 0.950 . S
C2366 C2364 1.391 . S
C2366 C2367 1.400 . S
C2367 C2366 1.400 . S
C2367 C2368 1.398 . S
C2367 C2373 1.491 . S
C2368 H2359 0.950 . S
C2368 C2367 1.398 . S
C2368 C2369 1.391 . S
C2369 H2357 0.950 . S
C2369 C2365 1.393 . S
C2369 C2368 1.391 . S
C2370 H2360 0.950 . S
C2370 C2371 1.386 . S
C2370 C2372 1.391 . S
C2371 C2370 1.386 . S
C2371 C2375 1.393 . S
C2372 H2361 0.950 . S
C2372 C2370 1.391 . S
C2372 C2373 1.400 . S
C2373 C2367 1.491 . S
C2373 C2372 1.400 . S
C2373 C2374 1.398 . S
C2374 H2362 0.950 . S
C2374 C2373 1.398 . S
C2374 C2375 1.391 . S
C2375 H2363 0.950 . S
C2375 C2371 1.393 . S
C2375 C2374 1.391 . S
H2376 C2384 0.950 . S
H2377 C2389 0.950 . S
H2378 C2386 0.950 . S
H2379 C2388 0.950 . S
H2380 C2390 0.950 1_565 S
H2381 C2392 0.950 . S
H2382 C2394 0.950 . S
H2383 C2395 0.950 . S
C2384 H2376 0.950 . S
C2384 C2385 1.386 1_545 S
C2384 C2386 1.391 . S
C2385 C2384 1.386 1_565 S
C2385 C2389 1.393 . S
C2386 H2378 0.950 . S
C2386 C2384 1.391 . S
C2386 C2387 1.400 . S
C2387 C2386 1.400 . S
C2387 C2388 1.398 1_545 S
C2387 C2393 1.491 . S
C2388 H2379 0.950 . S
C2388 C2387 1.398 1_565 S
C2388 C2389 1.391 . S
C2389 H2377 0.950 . S
C2389 C2385 1.393 . S
C2389 C2388 1.391 . S
C2390 H2380 0.950 1_545 S
C2390 C2391 1.386 . S
C2390 C2392 1.391 1_545 S
C2391 C2390 1.386 . S
C2391 C2395 1.393 . S
C2392 H2381 0.950 . S
C2392 C2390 1.391 1_565 S
C2392 C2393 1.400 1_565 S
C2393 C2387 1.491 . S
C2393 C2392 1.400 1_545 S
C2393 C2394 1.398 . S
C2394 H2382 0.950 . S
C2394 C2393 1.398 . S
C2394 C2395 1.391 . S
C2395 H2383 0.950 . S
C2395 C2391 1.393 . S
C2395 C2394 1.391 . S
H2396 C2404 0.950 . S
H2397 C2409 0.950 . S
H2398 C2406 0.950 . S
H2399 C2408 0.950 . S
H2400 C2410 0.950 . S
H2401 C2412 0.950 . S
H2402 C2414 0.950 . S
H2403 C2415 0.950 . S
C2404 H2396 0.950 . S
C2404 C2405 1.386 . S
C2404 C2406 1.391 . S
C2405 C2404 1.386 . S
C2405 C2409 1.393 . S
C2406 H2398 0.950 . S
C2406 C2404 1.391 . S
C2406 C2407 1.400 . S
C2407 C2406 1.400 . S
C2407 C2408 1.398 . S
C2407 C2413 1.491 . S
C2408 H2399 0.950 . S
C2408 C2407 1.398 . S
C2408 C2409 1.391 . S
C2409 H2397 0.950 . S
C2409 C2405 1.393 . S
C2409 C2408 1.391 . S
C2410 H2400 0.950 . S
C2410 C2411 1.386 . S
C2410 C2412 1.391 . S
C2411 C2410 1.386 . S
C2411 C2415 1.393 . S
C2412 H2401 0.950 . S
C2412 C2410 1.391 . S
C2412 C2413 1.400 . S
C2413 C2407 1.491 . S
C2413 C2412 1.400 . S
C2413 C2414 1.398 . S
C2414 H2402 0.950 . S
C2414 C2413 1.398 . S
C2414 C2415 1.391 . S
C2415 H2403 0.950 . S
C2415 C2411 1.393 . S
C2415 C2414 1.391 . S
H2416 C2424 0.950 . S
H2417 C2429 0.974 . S
H2418 C2426 0.950 . S
H2419 C2428 0.966 . S
H2420 C2430 0.950 . S
H2421 C2432 0.950 . S
H2422 C2434 0.950 . S
H2423 C2435 0.950 . S
C2424 H2416 0.950 . S
C2424 C2425 1.386 . S
C2424 C2426 1.391 . S
C2425 C2424 1.386 . S
C2425 C2429 1.370 1_545 S
C2426 H2418 0.950 . S
C2426 C2424 1.391 . S
C2426 C2427 1.400 . S
C2427 C2426 1.400 . S
C2427 C2428 1.382 1_545 S
C2427 C2433 1.491 . S
C2428 H2419 0.966 . S
C2428 C2427 1.382 1_565 S
C2428 C2429 1.390 . S
C2429 H2417 0.974 . S
C2429 C2425 1.370 1_565 S
C2429 C2428 1.390 . S
C2430 H2420 0.950 . S
C2430 C2431 1.386 1_565 S
C2430 C2432 1.391 . S
C2431 C2430 1.386 1_545 S
C2431 C2435 1.393 . S
C2432 H2421 0.950 . S
C2432 C2430 1.391 . S
C2432 C2433 1.400 1_565 S
C2433 C2427 1.491 . S
C2433 C2432 1.400 1_545 S
C2433 C2434 1.398 . S
C2434 H2422 0.950 . S
C2434 C2433 1.398 . S
C2434 C2435 1.391 . S
C2435 H2423 0.950 . S
C2435 C2431 1.393 . S
C2435 C2434 1.391 . S
H2436 C2444 0.950 . S
H2437 C2449 0.950 . S
H2438 C2446 0.950 . S
H2439 C2448 0.950 . S
H2440 C2450 0.950 . S
H2441 C2452 0.950 . S
H2442 C2454 0.950 . S
H2443 C2455 0.950 . S
C2444 H2436 0.950 . S
C2444 C2445 1.386 . S
C2444 C2446 1.391 . S
C2445 C2444 1.386 . S
C2445 C2449 1.393 . S
C2446 H2438 0.950 . S
C2446 C2444 1.391 . S
C2446 C2447 1.400 . S
C2447 C2446 1.400 . S
C2447 C2448 1.398 . S
C2447 C2453 1.491 . S
C2448 H2439 0.950 . S
C2448 C2447 1.398 . S
C2448 C2449 1.391 . S
C2449 H2437 0.950 . S
C2449 C2445 1.393 . S
C2449 C2448 1.391 . S
C2450 H2440 0.950 . S
C2450 C2451 1.386 . S
C2450 C2452 1.391 . S
C2451 C2450 1.386 . S
C2451 C2455 1.393 . S
C2452 H2441 0.950 . S
C2452 C2450 1.391 . S
C2452 C2453 1.400 . S
C2453 C2447 1.491 . S
C2453 C2452 1.400 . S
C2453 C2454 1.398 . S
C2454 H2442 0.950 . S
C2454 C2453 1.398 . S
C2454 C2455 1.391 . S
C2455 H2443 0.950 . S
C2455 C2451 1.393 . S
C2455 C2454 1.391 . S
H2456 C2464 0.950 . S
H2457 C2469 0.950 1_556 S
H2458 C2466 0.950 . S
H2459 C2468 0.953 . S
H2460 C2470 0.950 . S
H2461 C2472 0.950 . S
H2462 C2474 0.950 . S
H2463 C2475 0.950 . S
C2464 H2456 0.950 . S
C2464 C2465 1.386 . S
C2464 C2466 1.391 . S
C2465 C2464 1.386 . S
C2465 C2469 1.393 . S
C2466 H2458 0.950 . S
C2466 C2464 1.391 . S
C2466 C2467 1.400 . S
C2467 C2466 1.400 . S
C2467 C2468 1.396 1_554 S
C2467 C2473 1.491 . S
C2468 H2459 0.953 . S
C2468 C2467 1.396 1_556 S
C2468 C2469 1.390 1_556 S
C2469 H2457 0.950 1_554 S
C2469 C2465 1.393 . S
C2469 C2468 1.390 1_554 S
C2470 H2460 0.950 . S
C2470 C2471 1.386 1_556 S
C2470 C2472 1.391 . S
C2471 C2470 1.386 1_554 S
C2471 C2475 1.393 . S
C2472 H2461 0.950 . S
C2472 C2470 1.391 . S
C2472 C2473 1.400 1_556 S
C2473 C2467 1.491 . S
C2473 C2472 1.400 1_554 S
C2473 C2474 1.398 . S
C2474 H2462 0.950 . S
C2474 C2473 1.398 . S
C2474 C2475 1.391 . S
C2475 H2463 0.950 . S
C2475 C2471 1.393 . S
C2475 C2474 1.391 . S
H2476 C2484 0.950 . S
H2477 C2489 0.950 . S
H2478 C2486 0.950 . S
H2479 C2488 0.950 . S
H2480 C2490 0.950 . S
H2481 C2492 0.950 . S
H2482 C2494 0.950 . S
H2483 C2495 0.950 . S
C2484 H2476 0.950 . S
C2484 C2485 1.386 . S
C2484 C2486 1.391 . S
C2485 C2484 1.386 . S
C2485 C2489 1.393 . S
C2486 H2478 0.950 . S
C2486 C2484 1.391 . S
C2486 C2487 1.400 . S
C2487 C2486 1.400 . S
C2487 C2488 1.398 . S
C2487 C2493 1.491 . S
C2488 H2479 0.950 . S
C2488 C2487 1.398 . S
C2488 C2489 1.391 . S
C2489 H2477 0.950 . S
C2489 C2485 1.393 . S
C2489 C2488 1.391 . S
C2490 H2480 0.950 . S
C2490 C2491 1.386 . S
C2490 C2492 1.391 . S
C2491 C2490 1.386 . S
C2491 C2495 1.393 . S
C2492 H2481 0.950 . S
C2492 C2490 1.391 . S
C2492 C2493 1.400 . S
C2493 C2487 1.491 . S
C2493 C2492 1.400 . S
C2493 C2494 1.398 . S
C2494 H2482 0.950 . S
C2494 C2493 1.398 . S
C2494 C2495 1.391 . S
C2495 H2483 0.950 . S
C2495 C2491 1.393 . S
C2495 C2494 1.391 . S
H2496 C2504 0.950 . S
H2497 C2509 0.950 . S
H2498 C2506 0.950 . S
H2499 C2508 0.950 . S
H2500 C2510 0.950 . S
H2501 C2512 0.950 . S
H2502 C2514 0.950 . S
H2503 C2515 0.950 . S
C2504 H2496 0.950 . S
C2504 C2505 1.386 . S
C2504 C2506 1.391 . S
C2505 C2504 1.386 . S
C2505 C2509 1.393 . S
C2506 H2498 0.950 . S
C2506 C2504 1.391 . S
C2506 C2507 1.400 . S
C2507 C2506 1.400 . S
C2507 C2508 1.398 . S
C2507 C2513 1.491 . S
C2508 H2499 0.950 . S
C2508 C2507 1.398 . S
C2508 C2509 1.391 . S
C2509 H2497 0.950 . S
C2509 C2505 1.393 . S
C2509 C2508 1.391 . S
C2510 H2500 0.950 . S
C2510 C2511 1.386 . S
C2510 C2512 1.391 . S
C2511 C2510 1.386 . S
C2511 C2515 1.393 . S
C2512 H2501 0.950 . S
C2512 C2510 1.391 . S
C2512 C2513 1.400 . S
C2513 C2507 1.491 . S
C2513 C2512 1.400 . S
C2513 C2514 1.398 . S
C2514 H2502 0.950 . S
C2514 C2513 1.398 . S
C2514 C2515 1.391 . S
C2515 H2503 0.950 . S
C2515 C2511 1.393 . S
C2515 C2514 1.391 . S
H2516 C2524 0.950 . S
H2517 C2529 0.950 . S
H2518 C2526 0.950 . S
H2519 C2528 0.950 . S
H2520 C2530 0.950 . S
H2521 C2532 0.950 . S
H2522 C2534 0.950 . S
H2523 C2535 0.950 . S
C2524 H2516 0.950 . S
C2524 C2525 1.386 . S
C2524 C2526 1.391 . S
C2525 C2524 1.386 . S
C2525 C2529 1.393 . S
C2526 H2518 0.950 . S
C2526 C2524 1.391 . S
C2526 C2527 1.400 . S
C2527 C2526 1.400 . S
C2527 C2528 1.398 . S
C2527 C2533 1.491 . S
C2528 H2519 0.950 . S
C2528 C2527 1.398 . S
C2528 C2529 1.391 . S
C2529 H2517 0.950 . S
C2529 C2525 1.393 . S
C2529 C2528 1.391 . S
C2530 H2520 0.950 . S
C2530 C2531 1.386 . S
C2530 C2532 1.391 . S
C2531 C2530 1.386 . S
C2531 C2535 1.393 . S
C2532 H2521 0.950 . S
C2532 C2530 1.391 . S
C2532 C2533 1.400 . S
C2533 C2527 1.491 . S
C2533 C2532 1.400 . S
C2533 C2534 1.398 . S
C2534 H2522 0.950 . S
C2534 C2533 1.398 . S
C2534 C2535 1.391 . S
C2535 H2523 0.950 . S
C2535 C2531 1.393 . S
C2535 C2534 1.391 . S
H2536 C2544 0.950 . S
H2537 C2549 0.950 1_545 S
H2538 C2546 0.950 . S
H2539 C2548 0.950 . S
H2540 C2550 0.950 . S
H2541 C2552 0.950 . S
H2542 C2554 0.950 . S
H2543 C2555 0.950 . S
C2544 H2536 0.950 . S
C2544 C2545 1.386 . S
C2544 C2546 1.391 . S
C2545 C2544 1.386 . S
C2545 C2549 1.393 . S
C2546 H2538 0.950 . S
C2546 C2544 1.391 . S
C2546 C2547 1.400 . S
C2547 C2546 1.400 . S
C2547 C2548 1.398 . S
C2547 C2553 1.491 . S
C2548 H2539 0.950 . S
C2548 C2547 1.398 . S
C2548 C2549 1.391 . S
C2549 H2537 0.950 1_565 S
C2549 C2545 1.393 . S
C2549 C2548 1.391 . S
C2550 H2540 0.950 . S
C2550 C2551 1.386 . S
C2550 C2552 1.391 . S
C2551 C2550 1.386 . S
C2551 C2555 1.393 . S
C2552 H2541 0.950 . S
C2552 C2550 1.391 . S
C2552 C2553 1.400 . S
C2553 C2547 1.491 . S
C2553 C2552 1.400 . S
C2553 C2554 1.398 . S
C2554 H2542 0.950 . S
C2554 C2553 1.398 . S
C2554 C2555 1.391 . S
C2555 H2543 0.950 . S
C2555 C2551 1.393 . S
C2555 C2554 1.391 . S
H2556 C2564 0.950 . S
H2557 C2569 0.950 . S
H2558 C2566 0.950 . S
H2559 C2568 0.950 . S
H2560 C2570 0.950 . S
H2561 C2572 0.950 . S
H2562 C2574 0.950 . S
H2563 C2575 0.950 . S
C2564 H2556 0.950 . S
C2564 C2565 1.386 . S
C2564 C2566 1.391 . S
C2565 C2564 1.386 . S
C2565 C2569 1.393 . S
C2566 H2558 0.950 . S
C2566 C2564 1.391 . S
C2566 C2567 1.400 . S
C2567 C2566 1.400 . S
C2567 C2568 1.398 . S
C2567 C2573 1.491 . S
C2568 H2559 0.950 . S
C2568 C2567 1.398 . S
C2568 C2569 1.391 . S
C2569 H2557 0.950 . S
C2569 C2565 1.393 . S
C2569 C2568 1.391 . S
C2570 H2560 0.950 . S
C2570 C2571 1.386 . S
C2570 C2572 1.391 . S
C2571 C2570 1.386 . S
C2571 C2575 1.393 . S
C2572 H2561 0.950 . S
C2572 C2570 1.391 . S
C2572 C2573 1.400 . S
C2573 C2567 1.491 . S
C2573 C2572 1.400 . S
C2573 C2574 1.398 . S
C2574 H2562 0.950 . S
C2574 C2573 1.398 . S
C2574 C2575 1.391 . S
C2575 H2563 0.950 . S
C2575 C2571 1.393 . S
C2575 C2574 1.391 . S
H2576 C2584 0.950 . S
H2577 C2589 0.950 . S
H2578 C2586 0.950 . S
H2579 C2588 0.950 . S
H2580 C2590 0.950 . S
H2581 C2592 0.950 . S
H2582 C2594 0.950 . S
H2583 C2595 0.950 . S
C2584 H2576 0.950 . S
C2584 C2585 1.386 . S
C2584 C2586 1.391 . S
C2585 C2584 1.386 . S
C2585 C2589 1.393 . S
C2586 H2578 0.950 . S
C2586 C2584 1.391 . S
C2586 C2587 1.400 . S
C2587 C2586 1.400 . S
C2587 C2588 1.398 . S
C2587 C2593 1.491 . S
C2588 H2579 0.950 . S
C2588 C2587 1.398 . S
C2588 C2589 1.391 . S
C2589 H2577 0.950 . S
C2589 C2585 1.393 . S
C2589 C2588 1.391 . S
C2590 H2580 0.950 . S
C2590 C2591 1.386 . S
C2590 C2592 1.391 . S
C2591 C2590 1.386 . S
C2591 C2595 1.393 . S
C2592 H2581 0.950 . S
C2592 C2590 1.391 . S
C2592 C2593 1.400 . S
C2593 C2587 1.491 . S
C2593 C2592 1.400 . S
C2593 C2594 1.398 . S
C2594 H2582 0.950 . S
C2594 C2593 1.398 . S
C2594 C2595 1.391 . S
C2595 H2583 0.950 . S
C2595 C2591 1.393 . S
C2595 C2594 1.391 . S
H2596 C2604 0.950 . S
H2597 C2609 0.950 . S
H2598 C2606 0.950 . S
H2599 C2608 0.950 . S
H2600 C2610 0.950 . S
H2601 C2612 0.950 . S
H2602 C2614 0.950 . S
H2603 C2615 0.950 . S
C2604 H2596 0.950 . S
C2604 C2605 1.386 . S
C2604 C2606 1.391 . S
C2605 C2604 1.386 . S
C2605 C2609 1.393 . S
C2606 H2598 0.950 . S
C2606 C2604 1.391 . S
C2606 C2607 1.400 . S
C2607 C2606 1.400 . S
C2607 C2608 1.398 . S
C2607 C2613 1.491 . S
C2608 H2599 0.950 . S
C2608 C2607 1.398 . S
C2608 C2609 1.391 . S
C2609 H2597 0.950 . S
C2609 C2605 1.393 . S
C2609 C2608 1.391 . S
C2610 H2600 0.950 . S
C2610 C2611 1.386 . S
C2610 C2612 1.391 . S
C2611 C2610 1.386 . S
C2611 C2615 1.393 . S
C2612 H2601 0.950 . S
C2612 C2610 1.391 . S
C2612 C2613 1.400 . S
C2613 C2607 1.491 . S
C2613 C2612 1.400 . S
C2613 C2614 1.398 . S
C2614 H2602 0.950 . S
C2614 C2613 1.398 . S
C2614 C2615 1.391 . S
C2615 H2603 0.950 . S
C2615 C2611 1.393 . S
C2615 C2614 1.391 . S
H2616 C2624 0.950 . S
H2617 C2629 0.950 . S
H2618 C2626 0.950 . S
H2619 C2628 0.950 . S
H2620 C2630 0.950 . S
H2621 C2632 0.950 . S
H2622 C2634 0.950 . S
H2623 C2635 0.950 . S
C2624 H2616 0.950 . S
C2624 C2625 1.386 . S
C2624 C2626 1.391 . S
C2625 C2624 1.386 . S
C2625 C2629 1.393 . S
C2626 H2618 0.950 . S
C2626 C2624 1.391 . S
C2626 C2627 1.400 . S
C2627 C2626 1.400 . S
C2627 C2628 1.398 . S
C2627 C2633 1.491 . S
C2628 H2619 0.950 . S
C2628 C2627 1.398 . S
C2628 C2629 1.391 . S
C2629 H2617 0.950 . S
C2629 C2625 1.393 . S
C2629 C2628 1.391 . S
C2630 H2620 0.950 . S
C2630 C2631 1.386 . S
C2630 C2632 1.391 . S
C2631 C2630 1.386 . S
C2631 C2635 1.393 . S
C2632 H2621 0.950 . S
C2632 C2630 1.391 . S
C2632 C2633 1.400 . S
C2633 C2627 1.491 . S
C2633 C2632 1.400 . S
C2633 C2634 1.398 . S
C2634 H2622 0.950 . S
C2634 C2633 1.398 . S
C2634 C2635 1.391 . S
C2635 H2623 0.950 . S
C2635 C2631 1.393 . S
C2635 C2634 1.391 . S
H2636 C2644 0.950 . S
H2637 C2649 0.950 . S
H2638 C2646 0.950 . S
H2639 C2648 0.950 . S
H2640 C2650 0.950 . S
H2641 C2652 0.950 . S
H2642 C2654 0.950 . S
H2643 C2655 0.950 . S
C2644 H2636 0.950 . S
C2644 C2645 1.386 . S
C2644 C2646 1.391 . S
C2645 C2644 1.386 . S
C2645 C2649 1.393 . S
C2646 H2638 0.950 . S
C2646 C2644 1.391 . S
C2646 C2647 1.400 . S
C2647 C2646 1.400 . S
C2647 C2648 1.398 . S
C2647 C2653 1.491 . S
C2648 H2639 0.950 . S
C2648 C2647 1.398 . S
C2648 C2649 1.391 . S
C2649 H2637 0.950 . S
C2649 C2645 1.393 . S
C2649 C2648 1.391 . S
C2650 H2640 0.950 . S
C2650 C2651 1.386 . S
C2650 C2652 1.391 . S
C2651 C2650 1.386 . S
C2651 C2655 1.393 . S
C2652 H2641 0.950 . S
C2652 C2650 1.391 . S
C2652 C2653 1.400 . S
C2653 C2647 1.491 . S
C2653 C2652 1.400 . S
C2653 C2654 1.398 . S
C2654 H2642 0.950 . S
C2654 C2653 1.398 . S
C2654 C2655 1.391 . S
C2655 H2643 0.950 . S
C2655 C2651 1.393 . S
C2655 C2654 1.391 . S
H2656 C2664 0.981 . S
H2657 C2669 0.950 . S
H2658 C2666 0.950 . S
H2659 C2668 0.950 1_554 S
H2660 C2670 0.950 . S
H2661 C2672 0.950 . S
H2662 C2674 0.950 . S
H2663 C2675 0.950 . S
C2664 H2656 0.981 . S
C2664 C2665 1.386 . S
C2664 C2666 1.391 . S
C2665 C2664 1.386 . S
C2665 C2669 1.393 . S
C2666 H2658 0.950 . S
C2666 C2664 1.391 . S
C2666 C2667 1.400 . S
C2667 C2666 1.400 . S
C2667 C2668 1.398 . S
C2667 C2673 1.491 . S
C2668 H2659 0.950 1_556 S
C2668 C2667 1.398 . S
C2668 C2669 1.391 . S
C2669 H2657 0.950 . S
C2669 C2665 1.393 . S
C2669 C2668 1.391 . S
C2670 H2660 0.950 . S
C2670 C2671 1.386 . S
C2670 C2672 1.391 . S
C2671 C2670 1.386 . S
C2671 C2675 1.393 1_554 S
C2672 H2661 0.950 . S
C2672 C2670 1.391 . S
C2672 C2673 1.400 1_554 S
C2673 C2667 1.491 . S
C2673 C2672 1.400 1_556 S
C2673 C2674 1.398 . S
C2674 H2662 0.950 . S
C2674 C2673 1.398 . S
C2674 C2675 1.391 . S
C2675 H2663 0.950 . S
C2675 C2671 1.393 1_556 S
C2675 C2674 1.391 . S
H2676 C2684 0.950 . S
H2677 C2689 0.950 . S
H2678 C2686 0.950 . S
H2679 C2688 0.950 . S
H2680 C2690 0.950 . S
H2681 C2692 0.950 . S
H2682 C2694 0.950 . S
H2683 C2695 0.950 . S
C2684 H2676 0.950 . S
C2684 C2685 1.386 . S
C2684 C2686 1.391 1_455 S
C2685 C2684 1.386 . S
C2685 C2689 1.393 . S
C2686 H2678 0.950 . S
C2686 C2684 1.391 1_655 S
C2686 C2687 1.400 . S
C2687 C2686 1.400 . S
C2687 C2688 1.398 1_655 S
C2687 C2693 1.491 . S
C2688 H2679 0.950 . S
C2688 C2687 1.398 1_455 S
C2688 C2689 1.391 . S
C2689 H2677 0.950 . S
C2689 C2685 1.393 . S
C2689 C2688 1.391 . S
C2690 H2680 0.950 . S
C2690 C2691 1.386 . S
C2690 C2692 1.391 . S
C2691 C2690 1.386 . S
C2691 C2695 1.393 . S
C2692 H2681 0.950 . S
C2692 C2690 1.391 . S
C2692 C2693 1.400 . S
C2693 C2687 1.491 . S
C2693 C2692 1.400 . S
C2693 C2694 1.398 . S
C2694 H2682 0.950 . S
C2694 C2693 1.398 . S
C2694 C2695 1.391 . S
C2695 H2683 0.950 . S
C2695 C2691 1.393 . S
C2695 C2694 1.391 . S
H2696 C2704 0.950 . S
H2697 C2709 0.950 . S
H2698 C2706 0.950 . S
H2699 C2708 0.950 . S
H2700 C2710 0.950 . S
H2701 C2712 0.950 . S
H2702 C2714 0.950 . S
H2703 C2715 0.950 . S
C2704 H2696 0.950 . S
C2704 C2705 1.386 . S
C2704 C2706 1.391 . S
C2705 C2704 1.386 . S
C2705 C2709 1.393 . S
C2706 H2698 0.950 . S
C2706 C2704 1.391 . S
C2706 C2707 1.400 . S
C2707 C2706 1.400 . S
C2707 C2708 1.398 . S
C2707 C2713 1.491 . S
C2708 H2699 0.950 . S
C2708 C2707 1.398 . S
C2708 C2709 1.391 . S
C2709 H2697 0.950 . S
C2709 C2705 1.393 . S
C2709 C2708 1.391 . S
C2710 H2700 0.950 . S
C2710 C2711 1.386 . S
C2710 C2712 1.391 . S
C2711 C2710 1.386 . S
C2711 C2715 1.393 . S
C2712 H2701 0.950 . S
C2712 C2710 1.391 . S
C2712 C2713 1.400 . S
C2713 C2707 1.491 . S
C2713 C2712 1.400 . S
C2713 C2714 1.398 . S
C2714 H2702 0.950 . S
C2714 C2713 1.398 . S
C2714 C2715 1.391 . S
C2715 H2703 0.950 . S
C2715 C2711 1.393 . S
C2715 C2714 1.391 . S
H2716 C2724 0.950 . S
H2717 C2729 0.950 . S
H2718 C2726 0.950 . S
H2719 C2728 0.950 . S
H2720 C2730 0.950 . S
H2721 C2732 0.950 . S
H2722 C2734 0.950 . S
H2723 C2735 0.950 . S
C2724 H2716 0.950 . S
C2724 C2725 1.386 . S
C2724 C2726 1.391 . S
C2725 C2724 1.386 . S
C2725 C2729 1.393 . S
C2726 H2718 0.950 . S
C2726 C2724 1.391 . S
C2726 C2727 1.400 . S
C2727 C2726 1.400 . S
C2727 C2728 1.398 . S
C2727 C2733 1.491 1_455 S
C2728 H2719 0.950 . S
C2728 C2727 1.398 . S
C2728 C2729 1.391 . S
C2729 H2717 0.950 . S
C2729 C2725 1.393 . S
C2729 C2728 1.391 . S
C2730 H2720 0.950 . S
C2730 C2731 1.386 . S
C2730 C2732 1.391 . S
C2731 C2730 1.386 . S
C2731 C2735 1.393 . S
C2732 H2721 0.950 . S
C2732 C2730 1.391 . S
C2732 C2733 1.400 . S
C2733 C2727 1.491 1_655 S
C2733 C2732 1.400 . S
C2733 C2734 1.398 . S
C2734 H2722 0.950 . S
C2734 C2733 1.398 . S
C2734 C2735 1.391 . S
C2735 H2723 0.950 . S
C2735 C2731 1.393 . S
C2735 C2734 1.391 . S
H2736 C2744 0.950 . S
H2737 C2749 0.950 . S
H2738 C2746 0.950 . S
H2739 C2748 0.950 . S
H2740 C2750 0.950 . S
H2741 C2752 0.950 . S
H2742 C2754 0.950 1_655 S
H2743 C2755 0.950 . S
C2744 H2736 0.950 . S
C2744 C2745 1.386 . S
C2744 C2746 1.391 . S
C2745 C2744 1.386 . S
C2745 C2749 1.393 1_655 S
C2746 H2738 0.950 . S
C2746 C2744 1.391 . S
C2746 C2747 1.400 1_655 S
C2747 C2746 1.400 1_455 S
C2747 C2748 1.398 . S
C2747 C2753 1.491 . S
C2748 H2739 0.950 . S
C2748 C2747 1.398 . S
C2748 C2749 1.391 . S
C2749 H2737 0.950 . S
C2749 C2745 1.393 1_455 S
C2749 C2748 1.391 . S
C2750 H2740 0.950 . S
C2750 C2751 1.386 . S
C2750 C2752 1.391 . S
C2751 C2750 1.386 . S
C2751 C2755 1.393 . S
C2752 H2741 0.950 . S
C2752 C2750 1.391 . S
C2752 C2753 1.400 . S
C2753 C2747 1.491 . S
C2753 C2752 1.400 . S
C2753 C2754 1.398 . S
C2754 H2742 0.950 1_455 S
C2754 C2753 1.398 . S
C2754 C2755 1.391 . S
C2755 H2743 0.950 . S
C2755 C2751 1.393 . S
C2755 C2754 1.391 . S
H2756 C2764 0.950 . S
H2757 C2769 0.950 . S
H2758 C2766 0.950 . S
H2759 C2768 0.950 . S
H2760 C2770 0.950 . S
H2761 C2772 0.950 . S
H2762 C2774 0.950 . S
H2763 C2775 0.950 . S
C2764 H2756 0.950 . S
C2764 C2765 1.386 . S
C2764 C2766 1.391 . S
C2765 C2764 1.386 . S
C2765 C2769 1.393 . S
C2766 H2758 0.950 . S
C2766 C2764 1.391 . S
C2766 C2767 1.400 . S
C2767 C2766 1.400 . S
C2767 C2768 1.398 . S
C2767 C2773 1.491 . S
C2768 H2759 0.950 . S
C2768 C2767 1.398 . S
C2768 C2769 1.391 . S
C2769 H2757 0.950 . S
C2769 C2765 1.393 . S
C2769 C2768 1.391 . S
C2770 H2760 0.950 . S
C2770 C2771 1.386 . S
C2770 C2772 1.391 . S
C2771 C2770 1.386 . S
C2771 C2775 1.393 . S
C2772 H2761 0.950 . S
C2772 C2770 1.391 . S
C2772 C2773 1.400 . S
C2773 C2767 1.491 . S
C2773 C2772 1.400 . S
C2773 C2774 1.398 . S
C2774 H2762 0.950 . S
C2774 C2773 1.398 . S
C2774 C2775 1.391 . S
C2775 H2763 0.950 . S
C2775 C2771 1.393 . S
C2775 C2774 1.391 . S
H2776 C2784 0.950 . S
H2777 C2789 0.950 . S
H2778 C2786 0.950 . S
H2779 C2788 0.950 . S
H2780 C2790 0.950 . S
H2781 C2792 0.950 . S
H2782 C2794 0.950 . S
H2783 C2795 0.950 . S
C2784 H2776 0.950 . S
C2784 C2785 1.386 . S
C2784 C2786 1.391 . S
C2785 C2784 1.386 . S
C2785 C2789 1.393 . S
C2786 H2778 0.950 . S
C2786 C2784 1.391 . S
C2786 C2787 1.400 . S
C2787 C2786 1.400 . S
C2787 C2788 1.398 . S
C2787 C2793 1.491 . S
C2788 H2779 0.950 . S
C2788 C2787 1.398 . S
C2788 C2789 1.391 . S
C2789 H2777 0.950 . S
C2789 C2785 1.393 . S
C2789 C2788 1.391 . S
C2790 H2780 0.950 . S
C2790 C2791 1.386 . S
C2790 C2792 1.391 . S
C2791 C2790 1.386 . S
C2791 C2795 1.393 . S
C2792 H2781 0.950 . S
C2792 C2790 1.391 . S
C2792 C2793 1.400 . S
C2793 C2787 1.491 . S
C2793 C2792 1.400 . S
C2793 C2794 1.398 . S
C2794 H2782 0.950 . S
C2794 C2793 1.398 . S
C2794 C2795 1.391 . S
C2795 H2783 0.950 . S
C2795 C2791 1.393 . S
C2795 C2794 1.391 . S
H2796 C2804 0.948 1_554 S
H2797 C2809 0.950 . S
H2798 C2806 0.950 . S
H2799 C2808 0.950 . S
H2800 C2810 0.950 . S
H2801 C2812 0.950 . S
H2802 C2814 0.950 . S
H2803 C2815 0.950 . S
C2804 H2796 0.948 1_556 S
C2804 C2805 1.386 . S
C2804 C2806 1.391 . S
C2805 C2804 1.386 . S
C2805 C2809 1.393 . S
C2806 H2798 0.950 . S
C2806 C2804 1.391 . S
C2806 C2807 1.400 . S
C2807 C2806 1.400 . S
C2807 C2808 1.398 . S
C2807 C2813 1.491 . S
C2808 H2799 0.950 . S
C2808 C2807 1.398 . S
C2808 C2809 1.391 . S
C2809 H2797 0.950 . S
C2809 C2805 1.393 . S
C2809 C2808 1.391 . S
C2810 H2800 0.950 . S
C2810 C2811 1.386 . S
C2810 C2812 1.391 . S
C2811 C2810 1.386 . S
C2811 C2815 1.393 . S
C2812 H2801 0.950 . S
C2812 C2810 1.391 . S
C2812 C2813 1.400 . S
C2813 C2807 1.491 . S
C2813 C2812 1.400 . S
C2813 C2814 1.398 . S
C2814 H2802 0.950 . S
C2814 C2813 1.398 . S
C2814 C2815 1.391 . S
C2815 H2803 0.950 . S
C2815 C2811 1.393 . S
C2815 C2814 1.391 . S
H2816 C2824 0.950 . S
H2817 C2829 0.950 . S
H2818 C2826 0.950 . S
H2819 C2828 0.950 . S
H2820 C2830 0.950 . S
H2821 C2832 0.950 . S
H2822 C2834 0.950 . S
H2823 C2835 0.950 . S
C2824 H2816 0.950 . S
C2824 C2825 1.386 . S
C2824 C2826 1.391 . S
C2825 C2824 1.386 . S
C2825 C2829 1.393 . S
C2826 H2818 0.950 . S
C2826 C2824 1.391 . S
C2826 C2827 1.400 . S
C2827 C2826 1.400 . S
C2827 C2828 1.398 . S
C2827 C2833 1.491 . S
C2828 H2819 0.950 . S
C2828 C2827 1.398 . S
C2828 C2829 1.391 . S
C2829 H2817 0.950 . S
C2829 C2825 1.393 . S
C2829 C2828 1.391 . S
C2830 H2820 0.950 . S
C2830 C2831 1.386 . S
C2830 C2832 1.391 . S
C2831 C2830 1.386 . S
C2831 C2835 1.393 . S
C2832 H2821 0.950 . S
C2832 C2830 1.391 . S
C2832 C2833 1.400 . S
C2833 C2827 1.491 . S
C2833 C2832 1.400 . S
C2833 C2834 1.398 . S
C2834 H2822 0.950 . S
C2834 C2833 1.398 . S
C2834 C2835 1.391 . S
C2835 H2823 0.950 . S
C2835 C2831 1.393 . S
C2835 C2834 1.391 . S
H2836 C2844 0.950 . S
H2837 C2849 0.950 . S
H2838 C2846 0.950 . S
H2839 C2848 0.950 . S
H2840 C2850 0.950 . S
H2841 C2852 0.950 . S
H2842 C2854 0.950 . S
H2843 C2855 0.950 . S
C2844 H2836 0.950 . S
C2844 C2845 1.386 . S
C2844 C2846 1.391 . S
C2845 C2844 1.386 . S
C2845 C2849 1.393 . S
C2846 H2838 0.950 . S
C2846 C2844 1.391 . S
C2846 C2847 1.400 . S
C2847 C2846 1.400 . S
C2847 C2848 1.398 . S
C2847 C2853 1.491 . S
C2848 H2839 0.950 . S
C2848 C2847 1.398 . S
C2848 C2849 1.391 . S
C2849 H2837 0.950 . S
C2849 C2845 1.393 . S
C2849 C2848 1.391 . S
C2850 H2840 0.950 . S
C2850 C2851 1.386 . S
C2850 C2852 1.391 . S
C2851 C2850 1.386 . S
C2851 C2855 1.393 . S
C2852 H2841 0.950 . S
C2852 C2850 1.391 . S
C2852 C2853 1.400 . S
C2853 C2847 1.491 . S
C2853 C2852 1.400 . S
C2853 C2854 1.398 . S
C2854 H2842 0.950 . S
C2854 C2853 1.398 . S
C2854 C2855 1.391 . S
C2855 H2843 0.950 . S
C2855 C2851 1.393 . S
C2855 C2854 1.391 . S
H2856 C2864 0.950 . S
H2857 C2869 0.950 . S
H2858 C2866 0.950 . S
H2859 C2868 0.950 . S
H2860 C2870 0.950 . S
H2861 C2872 0.950 . S
H2862 C2874 0.950 . S
H2863 C2875 0.950 . S
C2864 H2856 0.950 . S
C2864 C2865 1.386 . S
C2864 C2866 1.391 . S
C2865 C2864 1.386 . S
C2865 C2869 1.393 . S
C2866 H2858 0.950 . S
C2866 C2864 1.391 . S
C2866 C2867 1.400 . S
C2867 C2866 1.400 . S
C2867 C2868 1.398 . S
C2867 C2873 1.491 . S
C2868 H2859 0.950 . S
C2868 C2867 1.398 . S
C2868 C2869 1.391 . S
C2869 H2857 0.950 . S
C2869 C2865 1.393 . S
C2869 C2868 1.391 . S
C2870 H2860 0.950 . S
C2870 C2871 1.386 . S
C2870 C2872 1.391 . S
C2871 C2870 1.386 . S
C2871 C2875 1.393 . S
C2872 H2861 0.950 . S
C2872 C2870 1.391 . S
C2872 C2873 1.400 . S
C2873 C2867 1.491 . S
C2873 C2872 1.400 . S
C2873 C2874 1.398 . S
C2874 H2862 0.950 . S
C2874 C2873 1.398 . S
C2874 C2875 1.391 . S
C2875 H2863 0.950 . S
C2875 C2871 1.393 . S
C2875 C2874 1.391 . S
H2876 C2884 0.950 . S
H2877 C2889 0.950 . S
H2878 C2886 0.950 . S
H2879 C2888 0.950 . S
H2880 C2890 0.950 . S
H2881 C2892 0.950 . S
H2882 C2894 0.950 . S
H2883 C2895 0.950 . S
C2884 H2876 0.950 . S
C2884 C2885 1.386 . S
C2884 C2886 1.391 . S
C2885 C2884 1.386 . S
C2885 C2889 1.393 . S
C2886 H2878 0.950 . S
C2886 C2884 1.391 . S
C2886 C2887 1.400 . S
C2887 C2886 1.400 . S
C2887 C2888 1.398 . S
C2887 C2893 1.491 . S
C2888 H2879 0.950 . S
C2888 C2887 1.398 . S
C2888 C2889 1.391 . S
C2889 H2877 0.950 . S
C2889 C2885 1.393 . S
C2889 C2888 1.391 . S
C2890 H2880 0.950 . S
C2890 C2891 1.386 . S
C2890 C2892 1.391 . S
C2891 C2890 1.386 . S
C2891 C2895 1.393 . S
C2892 H2881 0.950 . S
C2892 C2890 1.391 . S
C2892 C2893 1.400 . S
C2893 C2887 1.491 . S
C2893 C2892 1.400 . S
C2893 C2894 1.398 . S
C2894 H2882 0.950 . S
C2894 C2893 1.398 . S
C2894 C2895 1.391 . S
C2895 H2883 0.950 . S
C2895 C2891 1.393 . S
C2895 C2894 1.391 . S
H2896 C2904 0.950 . S
H2897 C2909 0.950 . S
H2898 C2906 0.950 . S
H2899 C2908 0.950 . S
H2900 C2910 0.950 . S
H2901 C2912 0.950 . S
H2902 C2914 0.950 . S
H2903 C2915 0.950 . S
C2904 H2896 0.950 . S
C2904 C2905 1.386 . S
C2904 C2906 1.391 . S
C2905 C2904 1.386 . S
C2905 C2909 1.393 . S
C2906 H2898 0.950 . S
C2906 C2904 1.391 . S
C2906 C2907 1.400 . S
C2907 C2906 1.400 . S
C2907 C2908 1.398 . S
C2907 C2913 1.491 . S
C2908 H2899 0.950 . S
C2908 C2907 1.398 . S
C2908 C2909 1.391 . S
C2909 H2897 0.950 . S
C2909 C2905 1.393 . S
C2909 C2908 1.391 . S
C2910 H2900 0.950 . S
C2910 C2911 1.386 . S
C2910 C2912 1.391 . S
C2911 C2910 1.386 . S
C2911 C2915 1.393 . S
C2912 H2901 0.950 . S
C2912 C2910 1.391 . S
C2912 C2913 1.400 . S
C2913 C2907 1.491 . S
C2913 C2912 1.400 . S
C2913 C2914 1.398 . S
C2914 H2902 0.950 . S
C2914 C2913 1.398 . S
C2914 C2915 1.391 . S
C2915 H2903 0.950 . S
C2915 C2911 1.393 . S
C2915 C2914 1.391 . S
H2916 C2924 0.950 . S
H2917 C2929 0.950 . S
H2918 C2926 0.950 . S
H2919 C2928 0.950 . S
H2920 C2930 0.950 . S
H2921 C2932 0.950 . S
H2922 C2934 0.950 . S
H2923 C2935 0.950 . S
C2924 H2916 0.950 . S
C2924 C2925 1.386 . S
C2924 C2926 1.391 . S
C2925 C2924 1.386 . S
C2925 C2929 1.393 . S
C2926 H2918 0.950 . S
C2926 C2924 1.391 . S
C2926 C2927 1.400 . S
C2927 C2926 1.400 . S
C2927 C2928 1.398 . S
C2927 C2933 1.491 . S
C2928 H2919 0.950 . S
C2928 C2927 1.398 . S
C2928 C2929 1.391 . S
C2929 H2917 0.950 . S
C2929 C2925 1.393 . S
C2929 C2928 1.391 . S
C2930 H2920 0.950 . S
C2930 C2931 1.386 . S
C2930 C2932 1.391 . S
C2931 C2930 1.386 . S
C2931 C2935 1.393 . S
C2932 H2921 0.950 . S
C2932 C2930 1.391 . S
C2932 C2933 1.400 . S
C2933 C2927 1.491 . S
C2933 C2932 1.400 . S
C2933 C2934 1.398 . S
C2934 H2922 0.950 . S
C2934 C2933 1.398 . S
C2934 C2935 1.391 . S
C2935 H2923 0.950 . S
C2935 C2931 1.393 . S
C2935 C2934 1.391 . S
H2936 C2944 0.950 . S
H2937 C2949 0.950 . S
H2938 C2946 0.950 . S
H2939 C2948 0.950 . S
H2940 C2950 0.950 . S
H2941 C2952 0.950 . S
H2942 C2954 0.950 . S
H2943 C2955 0.950 . S
C2944 H2936 0.950 . S
C2944 C2945 1.386 . S
C2944 C2946 1.391 . S
C2945 C2944 1.386 . S
C2945 C2949 1.393 . S
C2946 H2938 0.950 . S
C2946 C2944 1.391 . S
C2946 C2947 1.400 . S
C2947 C2946 1.400 . S
C2947 C2948 1.398 . S
C2947 C2953 1.491 . S
C2948 H2939 0.950 . S
C2948 C2947 1.398 . S
C2948 C2949 1.391 . S
C2949 H2937 0.950 . S
C2949 C2945 1.393 . S
C2949 C2948 1.391 . S
C2950 H2940 0.950 . S
C2950 C2951 1.386 . S
C2950 C2952 1.391 . S
C2951 C2950 1.386 . S
C2951 C2955 1.393 . S
C2952 H2941 0.950 . S
C2952 C2950 1.391 . S
C2952 C2953 1.400 . S
C2953 C2947 1.491 . S
C2953 C2952 1.400 . S
C2953 C2954 1.398 . S
C2954 H2942 0.950 . S
C2954 C2953 1.398 . S
C2954 C2955 1.391 . S
C2955 H2943 0.950 . S
C2955 C2951 1.393 . S
C2955 C2954 1.391 . S
H2956 C2964 0.950 . S
H2957 C2969 0.950 . S
H2958 C2966 0.950 . S
H2959 C2968 0.950 . S
H2960 C2970 0.950 . S
H2961 C2972 0.950 . S
H2962 C2974 0.950 . S
H2963 C2975 0.950 . S
C2964 H2956 0.950 . S
C2964 C2965 1.386 . S
C2964 C2966 1.391 . S
C2965 C2964 1.386 . S
C2965 C2969 1.393 . S
C2966 H2958 0.950 . S
C2966 C2964 1.391 . S
C2966 C2967 1.400 . S
C2967 C2966 1.400 . S
C2967 C2968 1.398 . S
C2967 C2973 1.491 . S
C2968 H2959 0.950 . S
C2968 C2967 1.398 . S
C2968 C2969 1.391 . S
C2969 H2957 0.950 . S
C2969 C2965 1.393 . S
C2969 C2968 1.391 . S
C2970 H2960 0.950 . S
C2970 C2971 1.386 . S
C2970 C2972 1.391 . S
C2971 C2970 1.386 . S
C2971 C2975 1.393 . S
C2972 H2961 0.950 . S
C2972 C2970 1.391 . S
C2972 C2973 1.400 . S
C2973 C2967 1.491 . S
C2973 C2972 1.400 . S
C2973 C2974 1.398 . S
C2974 H2962 0.950 . S
C2974 C2973 1.398 . S
C2974 C2975 1.391 . S
C2975 H2963 0.950 . S
C2975 C2971 1.393 . S
C2975 C2974 1.391 . S
H2976 C2984 0.950 . S
H2977 C2989 0.950 . S
H2978 C2986 0.950 . S
H2979 C2988 0.950 . S
H2980 C2990 0.950 . S
H2981 C2992 0.950 . S
H2982 C2994 0.950 . S
H2983 C2995 0.950 . S
C2984 H2976 0.950 . S
C2984 C2985 1.386 . S
C2984 C2986 1.391 . S
C2985 C2984 1.386 . S
C2985 C2989 1.393 . S
C2986 H2978 0.950 . S
C2986 C2984 1.391 . S
C2986 C2987 1.400 . S
C2987 C2986 1.400 . S
C2987 C2988 1.398 . S
C2987 C2993 1.491 . S
C2988 H2979 0.950 . S
C2988 C2987 1.398 . S
C2988 C2989 1.391 . S
C2989 H2977 0.950 . S
C2989 C2985 1.393 . S
C2989 C2988 1.391 . S
C2990 H2980 0.950 . S
C2990 C2991 1.386 . S
C2990 C2992 1.391 . S
C2991 C2990 1.386 . S
C2991 C2995 1.393 . S
C2992 H2981 0.950 . S
C2992 C2990 1.391 . S
C2992 C2993 1.400 . S
C2993 C2987 1.491 . S
C2993 C2992 1.400 . S
C2993 C2994 1.398 . S
C2994 H2982 0.950 . S
C2994 C2993 1.398 . S
C2994 C2995 1.391 . S
C2995 H2983 0.950 . S
C2995 C2991 1.393 . S
C2995 C2994 1.391 . S
H2996 C3004 0.950 . S
H2997 C3009 0.950 . S
H2998 C3006 0.950 1_545 S
H2999 C3008 0.950 . S
H3000 C3010 0.950 1_565 S
H3001 C3012 0.950 . S
H3002 C3014 0.950 . S
H3003 C3015 0.950 . S
C3004 H2996 0.950 . S
C3004 C3005 1.386 . S
C3004 C3006 1.391 . S
C3005 C3004 1.386 . S
C3005 C3009 1.393 1_554 S
C3006 H2998 0.950 1_565 S
C3006 C3004 1.391 . S
C3006 C3007 1.400 . S
C3007 C3006 1.400 . S
C3007 C3008 1.398 1_554 S
C3007 C3013 1.491 . S
C3008 H2999 0.950 . S
C3008 C3007 1.398 1_556 S
C3008 C3009 1.391 . S
C3009 H2997 0.950 . S
C3009 C3005 1.393 1_556 S
C3009 C3008 1.391 . S
C3010 H3000 0.950 1_545 S
C3010 C3011 1.386 1_556 S
C3010 C3012 1.391 1_545 S
C3011 C3010 1.386 1_554 S
C3011 C3015 1.393 . S
C3012 H3001 0.950 . S
C3012 C3010 1.391 1_565 S
C3012 C3013 1.400 1_556 S
C3013 C3007 1.491 . S
C3013 C3012 1.400 1_554 S
C3013 C3014 1.398 1_565 S
C3014 H3002 0.950 . S
C3014 C3013 1.398 1_545 S
C3014 C3015 1.391 . S
C3015 H3003 0.950 . S
C3015 C3011 1.393 . S
C3015 C3014 1.391 . S
H3016 C3024 0.950 . S
H3017 C3029 0.950 . S
H3018 C3026 0.950 . S
H3019 C3028 0.950 . S
H3020 C3030 0.950 . S
H3021 C3032 0.950 . S
H3022 C3034 0.950 . S
H3023 C3035 0.950 . S
C3024 H3016 0.950 . S
C3024 C3025 1.386 . S
C3024 C3026 1.391 . S
C3025 C3024 1.386 . S
C3025 C3029 1.393 . S
C3026 H3018 0.950 . S
C3026 C3024 1.391 . S
C3026 C3027 1.400 . S
C3027 C3026 1.400 . S
C3027 C3028 1.398 . S
C3027 C3033 1.491 . S
C3028 H3019 0.950 . S
C3028 C3027 1.398 . S
C3028 C3029 1.391 . S
C3029 H3017 0.950 . S
C3029 C3025 1.393 . S
C3029 C3028 1.391 . S
C3030 H3020 0.950 . S
C3030 C3031 1.386 . S
C3030 C3032 1.391 . S
C3031 C3030 1.386 . S
C3031 C3035 1.393 . S
C3032 H3021 0.950 . S
C3032 C3030 1.391 . S
C3032 C3033 1.400 . S
C3033 C3027 1.491 . S
C3033 C3032 1.400 . S
C3033 C3034 1.398 . S
C3034 H3022 0.950 . S
C3034 C3033 1.398 . S
C3034 C3035 1.391 . S
C3035 H3023 0.950 . S
C3035 C3031 1.393 . S
C3035 C3034 1.391 . S
H3036 C3044 0.959 . S
H3037 C3049 0.950 1_556 S
H3038 C3046 0.950 . S
H3039 C3048 0.950 . S
H3040 C3050 0.950 . S
H3041 C3052 0.950 . S
H3042 C3054 0.950 . S
H3043 C3055 0.950 . S
C3044 H3036 0.959 . S
C3044 C3045 1.386 1_554 S
C3044 C3046 1.391 . S
C3045 C3044 1.386 1_556 S
C3045 C3049 1.393 1_556 S
C3046 H3038 0.950 . S
C3046 C3044 1.391 . S
C3046 C3047 1.400 . S
C3047 C3046 1.400 . S
C3047 C3048 1.398 . S
C3047 C3053 1.491 . S
C3048 H3039 0.950 . S
C3048 C3047 1.398 . S
C3048 C3049 1.391 . S
C3049 H3037 0.950 1_554 S
C3049 C3045 1.393 1_554 S
C3049 C3048 1.391 . S
C3050 H3040 0.950 . S
C3050 C3051 1.386 . S
C3050 C3052 1.391 . S
C3051 C3050 1.386 . S
C3051 C3055 1.393 . S
C3052 H3041 0.950 . S
C3052 C3050 1.391 . S
C3052 C3053 1.400 . S
C3053 C3047 1.491 . S
C3053 C3052 1.400 . S
C3053 C3054 1.398 . S
C3054 H3042 0.950 . S
C3054 C3053 1.398 . S
C3054 C3055 1.391 . S
C3055 H3043 0.950 . S
C3055 C3051 1.393 . S
C3055 C3054 1.391 . S
H3056 C3064 0.950 . S
H3057 C3069 0.950 . S
H3058 C3066 0.950 . S
H3059 C3068 0.950 . S
H3060 C3070 0.950 . S
H3061 C3072 0.950 . S
H3062 C3074 0.950 . S
H3063 C3075 0.950 . S
C3064 H3056 0.950 . S
C3064 C3065 1.386 . S
C3064 C3066 1.391 . S
C3065 C3064 1.386 . S
C3065 C3069 1.393 . S
C3066 H3058 0.950 . S
C3066 C3064 1.391 . S
C3066 C3067 1.400 . S
C3067 C3066 1.400 . S
C3067 C3068 1.398 . S
C3067 C3073 1.491 . S
C3068 H3059 0.950 . S
C3068 C3067 1.398 . S
C3068 C3069 1.391 . S
C3069 H3057 0.950 . S
C3069 C3065 1.393 . S
C3069 C3068 1.391 . S
C3070 H3060 0.950 . S
C3070 C3071 1.386 . S
C3070 C3072 1.391 . S
C3071 C3070 1.386 . S
C3071 C3075 1.393 . S
C3072 H3061 0.950 . S
C3072 C3070 1.391 . S
C3072 C3073 1.400 . S
C3073 C3067 1.491 . S
C3073 C3072 1.400 . S
C3073 C3074 1.398 . S
C3074 H3062 0.950 . S
C3074 C3073 1.398 . S
C3074 C3075 1.391 . S
C3075 H3063 0.950 . S
C3075 C3071 1.393 . S
C3075 C3074 1.391 . S
H3076 C3084 0.950 . S
H3077 C3089 0.950 . S
H3078 C3086 0.950 . S
H3079 C3088 0.950 . S
H3080 C3090 0.950 . S
H3081 C3092 0.950 . S
H3082 C3094 0.950 . S
H3083 C3095 0.950 . S
C3084 H3076 0.950 . S
C3084 C3085 1.386 . S
C3084 C3086 1.391 . S
C3085 C3084 1.386 . S
C3085 C3089 1.393 . S
C3086 H3078 0.950 . S
C3086 C3084 1.391 . S
C3086 C3087 1.400 . S
C3087 C3086 1.400 . S
C3087 C3088 1.398 . S
C3087 C3093 1.491 . S
C3088 H3079 0.950 . S
C3088 C3087 1.398 . S
C3088 C3089 1.391 . S
C3089 H3077 0.950 . S
C3089 C3085 1.393 . S
C3089 C3088 1.391 . S
C3090 H3080 0.950 . S
C3090 C3091 1.386 . S
C3090 C3092 1.391 . S
C3091 C3090 1.386 . S
C3091 C3095 1.393 . S
C3092 H3081 0.950 . S
C3092 C3090 1.391 . S
C3092 C3093 1.400 . S
C3093 C3087 1.491 . S
C3093 C3092 1.400 . S
C3093 C3094 1.398 . S
C3094 H3082 0.950 . S
C3094 C3093 1.398 . S
C3094 C3095 1.391 . S
C3095 H3083 0.950 . S
C3095 C3091 1.393 . S
C3095 C3094 1.391 . S
H3096 C3104 0.950 . S
H3097 C3109 0.950 . S
H3098 C3106 0.950 . S
H3099 C3108 0.950 . S
H3100 C3110 0.950 . S
H3101 C3112 0.950 . S
H3102 C3114 0.950 . S
H3103 C3115 0.950 . S
C3104 H3096 0.950 . S
C3104 C3105 1.386 . S
C3104 C3106 1.391 . S
C3105 C3104 1.386 . S
C3105 C3109 1.393 . S
C3106 H3098 0.950 . S
C3106 C3104 1.391 . S
C3106 C3107 1.400 . S
C3107 C3106 1.400 . S
C3107 C3108 1.398 . S
C3107 C3113 1.491 . S
C3108 H3099 0.950 . S
C3108 C3107 1.398 . S
C3108 C3109 1.391 . S
C3109 H3097 0.950 . S
C3109 C3105 1.393 . S
C3109 C3108 1.391 . S
C3110 H3100 0.950 . S
C3110 C3111 1.386 . S
C3110 C3112 1.391 . S
C3111 C3110 1.386 . S
C3111 C3115 1.393 . S
C3112 H3101 0.950 . S
C3112 C3110 1.391 . S
C3112 C3113 1.400 . S
C3113 C3107 1.491 . S
C3113 C3112 1.400 . S
C3113 C3114 1.398 . S
C3114 H3102 0.950 . S
C3114 C3113 1.398 . S
C3114 C3115 1.391 . S
C3115 H3103 0.950 . S
C3115 C3111 1.393 . S
C3115 C3114 1.391 . S
H3116 C3124 0.950 . S
H3117 C3129 0.950 . S
H3118 C3126 0.950 . S
H3119 C3128 0.950 . S
H3120 C3130 0.950 . S
H3121 C3132 0.950 . S
H3122 C3134 0.950 . S
H3123 C3135 0.950 . S
C3124 H3116 0.950 . S
C3124 C3125 1.386 . S
C3124 C3126 1.391 . S
C3125 C3124 1.386 . S
C3125 C3129 1.393 . S
C3126 H3118 0.950 . S
C3126 C3124 1.391 . S
C3126 C3127 1.400 . S
C3127 C3126 1.400 . S
C3127 C3128 1.398 . S
C3127 C3133 1.491 . S
C3128 H3119 0.950 . S
C3128 C3127 1.398 . S
C3128 C3129 1.391 . S
C3129 H3117 0.950 . S
C3129 C3125 1.393 . S
C3129 C3128 1.391 . S
C3130 H3120 0.950 . S
C3130 C3131 1.386 . S
C3130 C3132 1.391 . S
C3131 C3130 1.386 . S
C3131 C3135 1.393 . S
C3132 H3121 0.950 . S
C3132 C3130 1.391 . S
C3132 C3133 1.400 . S
C3133 C3127 1.491 . S
C3133 C3132 1.400 . S
C3133 C3134 1.398 . S
C3134 H3122 0.950 . S
C3134 C3133 1.398 . S
C3134 C3135 1.391 . S
C3135 H3123 0.950 . S
C3135 C3131 1.393 . S
C3135 C3134 1.391 . S
H3136 C3144 0.950 . S
H3137 C3149 0.950 . S
H3138 C3146 0.950 . S
H3139 C3148 0.950 . S
H3140 C3150 0.950 . S
H3141 C3152 0.950 . S
H3142 C3154 0.950 . S
H3143 C3155 0.950 . S
C3144 H3136 0.950 . S
C3144 C3145 1.386 . S
C3144 C3146 1.391 . S
C3145 C3144 1.386 . S
C3145 C3149 1.393 . S
C3146 H3138 0.950 . S
C3146 C3144 1.391 . S
C3146 C3147 1.400 . S
C3147 C3146 1.400 . S
C3147 C3148 1.398 . S
C3147 C3153 1.491 . S
C3148 H3139 0.950 . S
C3148 C3147 1.398 . S
C3148 C3149 1.391 . S
C3149 H3137 0.950 . S
C3149 C3145 1.393 . S
C3149 C3148 1.391 . S
C3150 H3140 0.950 . S
C3150 C3151 1.386 . S
C3150 C3152 1.391 . S
C3151 C3150 1.386 . S
C3151 C3155 1.393 . S
C3152 H3141 0.950 . S
C3152 C3150 1.391 . S
C3152 C3153 1.400 . S
C3153 C3147 1.491 . S
C3153 C3152 1.400 . S
C3153 C3154 1.398 . S
C3154 H3142 0.950 . S
C3154 C3153 1.398 . S
C3154 C3155 1.391 . S
C3155 H3143 0.950 . S
C3155 C3151 1.393 . S
C3155 C3154 1.391 . S
H3156 C3164 0.950 . S
H3157 C3169 0.950 . S
H3158 C3166 0.950 . S
H3159 C3168 0.950 . S
H3160 C3170 0.950 . S
H3161 C3172 0.950 . S
H3162 C3174 0.950 . S
H3163 C3175 0.950 . S
C3164 H3156 0.950 . S
C3164 C3165 1.386 . S
C3164 C3166 1.391 . S
C3165 C3164 1.386 . S
C3165 C3169 1.393 . S
C3166 H3158 0.950 . S
C3166 C3164 1.391 . S
C3166 C3167 1.400 . S
C3167 C3166 1.400 . S
C3167 C3168 1.398 . S
C3167 C3173 1.491 . S
C3168 H3159 0.950 . S
C3168 C3167 1.398 . S
C3168 C3169 1.391 . S
C3169 H3157 0.950 . S
C3169 C3165 1.393 . S
C3169 C3168 1.391 . S
C3170 H3160 0.950 . S
C3170 C3171 1.386 . S
C3170 C3172 1.391 . S
C3171 C3170 1.386 . S
C3171 C3175 1.393 . S
C3172 H3161 0.950 . S
C3172 C3170 1.391 . S
C3172 C3173 1.400 . S
C3173 C3167 1.491 . S
C3173 C3172 1.400 . S
C3173 C3174 1.398 . S
C3174 H3162 0.950 . S
C3174 C3173 1.398 . S
C3174 C3175 1.391 . S
C3175 H3163 0.950 . S
C3175 C3171 1.393 . S
C3175 C3174 1.391 . S
H3176 C3184 0.950 . S
H3177 C3189 0.950 . S
H3178 C3186 0.950 . S
H3179 C3188 0.950 . S
H3180 C3190 0.950 . S
H3181 C3192 0.950 . S
H3182 C3194 0.950 . S
H3183 C3195 0.950 1_554 S
C3184 H3176 0.950 . S
C3184 C3185 1.386 . S
C3184 C3186 1.391 . S
C3185 C3184 1.386 . S
C3185 C3189 1.393 . S
C3186 H3178 0.950 . S
C3186 C3184 1.391 . S
C3186 C3187 1.400 . S
C3187 C3186 1.400 . S
C3187 C3188 1.398 . S
C3187 C3193 1.491 . S
C3188 H3179 0.950 . S
C3188 C3187 1.398 . S
C3188 C3189 1.391 . S
C3189 H3177 0.950 . S
C3189 C3185 1.393 . S
C3189 C3188 1.391 . S
C3190 H3180 0.950 . S
C3190 C3191 1.386 . S
C3190 C3192 1.391 . S
C3191 C3190 1.386 . S
C3191 C3195 1.393 . S
C3192 H3181 0.950 . S
C3192 C3190 1.391 . S
C3192 C3193 1.400 . S
C3193 C3187 1.491 . S
C3193 C3192 1.400 . S
C3193 C3194 1.398 . S
C3194 H3182 0.950 . S
C3194 C3193 1.398 . S
C3194 C3195 1.391 . S
C3195 H3183 0.950 1_556 S
C3195 C3191 1.393 . S
C3195 C3194 1.391 . S
H3196 C3204 0.950 . S
H3197 C3209 0.950 . S
H3198 C3206 0.950 . S
H3199 C3208 0.950 . S
H3200 C3210 0.950 . S
H3201 C3212 0.950 . S
H3202 C3214 0.950 . S
H3203 C3215 0.950 . S
C3204 H3196 0.950 . S
C3204 C3205 1.386 . S
C3204 C3206 1.391 . S
C3205 C3204 1.386 . S
C3205 C3209 1.393 . S
C3206 H3198 0.950 . S
C3206 C3204 1.391 . S
C3206 C3207 1.400 . S
C3207 C3206 1.400 . S
C3207 C3208 1.398 . S
C3207 C3213 1.491 . S
C3208 H3199 0.950 . S
C3208 C3207 1.398 . S
C3208 C3209 1.391 . S
C3209 H3197 0.950 . S
C3209 C3205 1.393 . S
C3209 C3208 1.391 . S
C3210 H3200 0.950 . S
C3210 C3211 1.386 . S
C3210 C3212 1.391 . S
C3211 C3210 1.386 . S
C3211 C3215 1.393 . S
C3212 H3201 0.950 . S
C3212 C3210 1.391 . S
C3212 C3213 1.400 . S
C3213 C3207 1.491 . S
C3213 C3212 1.400 . S
C3213 C3214 1.398 . S
C3214 H3202 0.950 . S
C3214 C3213 1.398 . S
C3214 C3215 1.391 . S
C3215 H3203 0.950 . S
C3215 C3211 1.393 . S
C3215 C3214 1.391 . S
H3216 C3224 0.950 . S
H3217 C3229 0.950 . S
H3218 C3226 0.950 . S
H3219 C3228 0.950 . S
H3220 C3230 0.950 . S
H3221 C3232 0.950 . S
H3222 C3234 0.950 . S
H3223 C3235 0.950 . S
C3224 H3216 0.950 . S
C3224 C3225 1.386 . S
C3224 C3226 1.391 . S
C3225 C3224 1.386 . S
C3225 C3229 1.393 . S
C3226 H3218 0.950 . S
C3226 C3224 1.391 . S
C3226 C3227 1.400 . S
C3227 C3226 1.400 . S
C3227 C3228 1.398 . S
C3227 C3233 1.491 . S
C3228 H3219 0.950 . S
C3228 C3227 1.398 . S
C3228 C3229 1.391 . S
C3229 H3217 0.950 . S
C3229 C3225 1.393 . S
C3229 C3228 1.391 . S
C3230 H3220 0.950 . S
C3230 C3231 1.386 . S
C3230 C3232 1.391 . S
C3231 C3230 1.386 . S
C3231 C3235 1.393 . S
C3232 H3221 0.950 . S
C3232 C3230 1.391 . S
C3232 C3233 1.400 . S
C3233 C3227 1.491 . S
C3233 C3232 1.400 . S
C3233 C3234 1.398 . S
C3234 H3222 0.950 . S
C3234 C3233 1.398 . S
C3234 C3235 1.391 . S
C3235 H3223 0.950 . S
C3235 C3231 1.393 . S
C3235 C3234 1.391 . S
H3236 C3244 0.950 . S
H3237 C3249 0.950 . S
H3238 C3246 0.950 . S
H3239 C3248 0.950 . S
H3240 C3250 0.950 . S
H3241 C3252 0.950 . S
H3242 C3254 0.950 . S
H3243 C3255 0.950 . S
C3244 H3236 0.950 . S
C3244 C3245 1.386 . S
C3244 C3246 1.391 . S
C3245 C3244 1.386 . S
C3245 C3249 1.393 . S
C3246 H3238 0.950 . S
C3246 C3244 1.391 . S
C3246 C3247 1.400 . S
C3247 C3246 1.400 . S
C3247 C3248 1.398 . S
C3247 C3253 1.491 . S
C3248 H3239 0.950 . S
C3248 C3247 1.398 . S
C3248 C3249 1.391 . S
C3249 H3237 0.950 . S
C3249 C3245 1.393 . S
C3249 C3248 1.391 . S
C3250 H3240 0.950 . S
C3250 C3251 1.386 . S
C3250 C3252 1.391 . S
C3251 C3250 1.386 . S
C3251 C3255 1.393 . S
C3252 H3241 0.950 . S
C3252 C3250 1.391 . S
C3252 C3253 1.400 . S
C3253 C3247 1.491 . S
C3253 C3252 1.400 . S
C3253 C3254 1.398 . S
C3254 H3242 0.950 . S
C3254 C3253 1.398 . S
C3254 C3255 1.391 . S
C3255 H3243 0.950 . S
C3255 C3251 1.393 . S
C3255 C3254 1.391 . S
H3256 C3264 0.950 . S
H3257 C3269 0.950 . S
H3258 C3266 0.950 . S
H3259 C3268 0.950 . S
H3260 C3270 0.950 . S
H3261 C3272 0.950 . S
H3262 C3274 0.950 . S
H3263 C3275 0.950 . S
C3264 H3256 0.950 . S
C3264 C3265 1.386 . S
C3264 C3266 1.391 . S
C3265 C3264 1.386 . S
C3265 C3269 1.393 . S
C3266 H3258 0.950 . S
C3266 C3264 1.391 . S
C3266 C3267 1.400 . S
C3267 C3266 1.400 . S
C3267 C3268 1.398 . S
C3267 C3273 1.491 . S
C3268 H3259 0.950 . S
C3268 C3267 1.398 . S
C3268 C3269 1.391 . S
C3269 H3257 0.950 . S
C3269 C3265 1.393 . S
C3269 C3268 1.391 . S
C3270 H3260 0.950 . S
C3270 C3271 1.386 . S
C3270 C3272 1.391 . S
C3271 C3270 1.386 . S
C3271 C3275 1.393 . S
C3272 H3261 0.950 . S
C3272 C3270 1.391 . S
C3272 C3273 1.400 . S
C3273 C3267 1.491 . S
C3273 C3272 1.400 . S
C3273 C3274 1.398 . S
C3274 H3262 0.950 . S
C3274 C3273 1.398 . S
C3274 C3275 1.391 . S
C3275 H3263 0.950 . S
C3275 C3271 1.393 . S
C3275 C3274 1.391 . S
H3276 C3284 0.950 . S
H3277 C3289 0.950 . S
H3278 C3286 0.950 . S
H3279 C3288 0.950 . S
H3280 C3290 0.950 . S
H3281 C3292 0.950 . S
H3282 C3294 0.950 . S
H3283 C3295 0.950 . S
C3284 H3276 0.950 . S
C3284 C3285 1.386 . S
C3284 C3286 1.391 . S
C3285 C3284 1.386 . S
C3285 C3289 1.393 . S
C3286 H3278 0.950 . S
C3286 C3284 1.391 . S
C3286 C3287 1.400 . S
C3287 C3286 1.400 . S
C3287 C3288 1.398 . S
C3287 C3293 1.491 . S
C3288 H3279 0.950 . S
C3288 C3287 1.398 . S
C3288 C3289 1.391 . S
C3289 H3277 0.950 . S
C3289 C3285 1.393 . S
C3289 C3288 1.391 . S
C3290 H3280 0.950 . S
C3290 C3291 1.386 . S
C3290 C3292 1.391 . S
C3291 C3290 1.386 . S
C3291 C3295 1.393 . S
C3292 H3281 0.950 . S
C3292 C3290 1.391 . S
C3292 C3293 1.400 . S
C3293 C3287 1.491 . S
C3293 C3292 1.400 . S
C3293 C3294 1.398 . S
C3294 H3282 0.950 . S
C3294 C3293 1.398 . S
C3294 C3295 1.391 . S
C3295 H3283 0.950 . S
C3295 C3291 1.393 . S
C3295 C3294 1.391 . S
H3296 C3304 0.950 . S
H3297 C3309 0.950 . S
H3298 C3306 0.950 . S
H3299 C3308 0.950 . S
H3300 C3310 0.950 . S
H3301 C3312 0.950 . S
H3302 C3314 0.950 . S
H3303 C3315 0.950 . S
C3304 H3296 0.950 . S
C3304 C3305 1.386 . S
C3304 C3306 1.391 . S
C3305 C3304 1.386 . S
C3305 C3309 1.393 . S
C3306 H3298 0.950 . S
C3306 C3304 1.391 . S
C3306 C3307 1.400 . S
C3307 C3306 1.400 . S
C3307 C3308 1.398 . S
C3307 C3313 1.491 . S
C3308 H3299 0.950 . S
C3308 C3307 1.398 . S
C3308 C3309 1.391 . S
C3309 H3297 0.950 . S
C3309 C3305 1.393 . S
C3309 C3308 1.391 . S
C3310 H3300 0.950 . S
C3310 C3311 1.386 . S
C3310 C3312 1.391 . S
C3311 C3310 1.386 . S
C3311 C3315 1.393 . S
C3312 H3301 0.950 . S
C3312 C3310 1.391 . S
C3312 C3313 1.400 1_455 S
C3313 C3307 1.491 . S
C3313 C3312 1.400 1_655 S
C3313 C3314 1.398 . S
C3314 H3302 0.950 . S
C3314 C3313 1.398 . S
C3314 C3315 1.391 1_655 S
C3315 H3303 0.950 . S
C3315 C3311 1.393 . S
C3315 C3314 1.391 1_455 S
H3316 C3324 0.950 . S
H3317 C3329 0.950 . S
H3318 C3326 0.950 . S
H3319 C3328 0.950 . S
H3320 C3330 0.950 . S
H3321 C3332 0.950 . S
H3322 C3334 0.950 . S
H3323 C3335 0.950 . S
C3324 H3316 0.950 . S
C3324 C3325 1.386 . S
C3324 C3326 1.391 . S
C3325 C3324 1.386 . S
C3325 C3329 1.393 . S
C3326 H3318 0.950 . S
C3326 C3324 1.391 . S
C3326 C3327 1.400 . S
C3327 C3326 1.400 . S
C3327 C3328 1.398 . S
C3327 C3333 1.491 . S
C3328 H3319 0.950 . S
C3328 C3327 1.398 . S
C3328 C3329 1.391 . S
C3329 H3317 0.950 . S
C3329 C3325 1.393 . S
C3329 C3328 1.391 . S
C3330 H3320 0.950 . S
C3330 C3331 1.386 . S
C3330 C3332 1.391 . S
C3331 C3330 1.386 . S
C3331 C3335 1.393 . S
C3332 H3321 0.950 . S
C3332 C3330 1.391 . S
C3332 C3333 1.400 . S
C3333 C3327 1.491 . S
C3333 C3332 1.400 . S
C3333 C3334 1.398 . S
C3334 H3322 0.950 . S
C3334 C3333 1.398 . S
C3334 C3335 1.391 . S
C3335 H3323 0.950 . S
C3335 C3331 1.393 . S
C3335 C3334 1.391 . S
H3336 C3344 0.950 . S
H3337 C3349 0.950 . S
H3338 C3346 0.950 . S
H3339 C3348 0.950 . S
H3340 C3350 0.950 . S
H3341 C3352 0.950 . S
H3342 C3354 0.950 . S
H3343 C3355 0.950 . S
C3344 H3336 0.950 . S
C3344 C3345 1.386 . S
C3344 C3346 1.391 . S
C3345 C3344 1.386 . S
C3345 C3349 1.393 . S
C3346 H3338 0.950 . S
C3346 C3344 1.391 . S
C3346 C3347 1.400 . S
C3347 C3346 1.400 . S
C3347 C3348 1.398 . S
C3347 C3353 1.491 . S
C3348 H3339 0.950 . S
C3348 C3347 1.398 . S
C3348 C3349 1.391 . S
C3349 H3337 0.950 . S
C3349 C3345 1.393 . S
C3349 C3348 1.391 . S
C3350 H3340 0.950 . S
C3350 C3351 1.386 . S
C3350 C3352 1.391 . S
C3351 C3350 1.386 . S
C3351 C3355 1.393 . S
C3352 H3341 0.950 . S
C3352 C3350 1.391 . S
C3352 C3353 1.400 . S
C3353 C3347 1.491 . S
C3353 C3352 1.400 . S
C3353 C3354 1.398 . S
C3354 H3342 0.950 . S
C3354 C3353 1.398 . S
C3354 C3355 1.391 . S
C3355 H3343 0.950 . S
C3355 C3351 1.393 . S
C3355 C3354 1.391 . S
H3356 C3364 0.950 . S
H3357 C3369 0.950 . S
H3358 C3366 0.950 . S
H3359 C3368 0.950 . S
H3360 C3370 0.950 . S
H3361 C3372 0.950 . S
H3362 C3374 0.950 . S
H3363 C3375 0.950 . S
C3364 H3356 0.950 . S
C3364 C3365 1.386 . S
C3364 C3366 1.391 . S
C3365 C3364 1.386 . S
C3365 C3369 1.393 . S
C3366 H3358 0.950 . S
C3366 C3364 1.391 . S
C3366 C3367 1.400 . S
C3367 C3366 1.400 . S
C3367 C3368 1.398 . S
C3367 C3373 1.491 . S
C3368 H3359 0.950 . S
C3368 C3367 1.398 . S
C3368 C3369 1.391 . S
C3369 H3357 0.950 . S
C3369 C3365 1.393 . S
C3369 C3368 1.391 . S
C3370 H3360 0.950 . S
C3370 C3371 1.386 . S
C3370 C3372 1.391 . S
C3371 C3370 1.386 . S
C3371 C3375 1.393 . S
C3372 H3361 0.950 . S
C3372 C3370 1.391 . S
C3372 C3373 1.400 . S
C3373 C3367 1.491 . S
C3373 C3372 1.400 . S
C3373 C3374 1.398 . S
C3374 H3362 0.950 . S
C3374 C3373 1.398 . S
C3374 C3375 1.391 . S
C3375 H3363 0.950 . S
C3375 C3371 1.393 . S
C3375 C3374 1.391 . S
H3376 C3384 0.950 . S
H3377 C3389 0.950 . S
H3378 C3386 0.950 . S
H3379 C3388 0.950 . S
H3380 C3390 0.950 . S
H3381 C3392 0.950 . S
H3382 C3394 0.950 . S
H3383 C3395 0.950 1_455 S
C3384 H3376 0.950 . S
C3384 C3385 1.386 . S
C3384 C3386 1.391 . S
C3385 C3384 1.386 . S
C3385 C3389 1.393 . S
C3386 H3378 0.950 . S
C3386 C3384 1.391 . S
C3386 C3387 1.400 . S
C3387 C3386 1.400 . S
C3387 C3388 1.398 . S
C3387 C3393 1.491 . S
C3388 H3379 0.950 . S
C3388 C3387 1.398 . S
C3388 C3389 1.391 . S
C3389 H3377 0.950 . S
C3389 C3385 1.393 . S
C3389 C3388 1.391 . S
C3390 H3380 0.950 . S
C3390 C3391 1.386 1_655 S
C3390 C3392 1.391 . S
C3391 C3390 1.386 1_455 S
C3391 C3395 1.393 1_455 S
C3392 H3381 0.950 . S
C3392 C3390 1.391 . S
C3392 C3393 1.400 . S
C3393 C3387 1.491 . S
C3393 C3392 1.400 . S
C3393 C3394 1.398 . S
C3394 H3382 0.950 . S
C3394 C3393 1.398 . S
C3394 C3395 1.391 . S
C3395 H3383 0.950 1_655 S
C3395 C3391 1.393 1_655 S
C3395 C3394 1.391 . S
H3396 C3404 0.950 . S
H3397 C3409 0.950 . S
H3398 C3406 0.950 . S
H3399 C3408 0.950 . S
H3400 C3410 0.950 . S
H3401 C3412 0.950 . S
H3402 C3414 0.950 . S
H3403 C3415 0.950 . S
C3404 H3396 0.950 . S
C3404 C3405 1.386 . S
C3404 C3406 1.391 . S
C3405 C3404 1.386 . S
C3405 C3409 1.393 . S
C3406 H3398 0.950 . S
C3406 C3404 1.391 . S
C3406 C3407 1.400 . S
C3407 C3406 1.400 . S
C3407 C3408 1.398 . S
C3407 C3413 1.491 . S
C3408 H3399 0.950 . S
C3408 C3407 1.398 . S
C3408 C3409 1.391 . S
C3409 H3397 0.950 . S
C3409 C3405 1.393 . S
C3409 C3408 1.391 . S
C3410 H3400 0.950 . S
C3410 C3411 1.386 . S
C3410 C3412 1.391 . S
C3411 C3410 1.386 . S
C3411 C3415 1.393 . S
C3412 H3401 0.950 . S
C3412 C3410 1.391 . S
C3412 C3413 1.400 . S
C3413 C3407 1.491 . S
C3413 C3412 1.400 . S
C3413 C3414 1.398 . S
C3414 H3402 0.950 . S
C3414 C3413 1.398 . S
C3414 C3415 1.391 . S
C3415 H3403 0.950 . S
C3415 C3411 1.393 . S
C3415 C3414 1.391 . S
H3416 C3424 0.950 . S
H3417 C3429 0.950 . S
H3418 C3426 0.950 . S
H3419 C3428 0.950 . S
H3420 C3430 0.950 . S
H3421 C3432 0.950 . S
H3422 C3434 0.950 . S
H3423 C3435 0.950 . S
C3424 H3416 0.950 . S
C3424 C3425 1.386 . S
C3424 C3426 1.391 . S
C3425 C3424 1.386 . S
C3425 C3429 1.393 . S
C3426 H3418 0.950 . S
C3426 C3424 1.391 . S
C3426 C3427 1.400 . S
C3427 C3426 1.400 . S
C3427 C3428 1.398 . S
C3427 C3433 1.491 . S
C3428 H3419 0.950 . S
C3428 C3427 1.398 . S
C3428 C3429 1.391 . S
C3429 H3417 0.950 . S
C3429 C3425 1.393 . S
C3429 C3428 1.391 . S
C3430 H3420 0.950 . S
C3430 C3431 1.386 . S
C3430 C3432 1.391 . S
C3431 C3430 1.386 . S
C3431 C3435 1.393 . S
C3432 H3421 0.950 . S
C3432 C3430 1.391 . S
C3432 C3433 1.400 . S
C3433 C3427 1.491 . S
C3433 C3432 1.400 . S
C3433 C3434 1.398 . S
C3434 H3422 0.950 . S
C3434 C3433 1.398 . S
C3434 C3435 1.391 . S
C3435 H3423 0.950 . S
C3435 C3431 1.393 . S
C3435 C3434 1.391 . S
H3436 C3444 0.950 . S
H3437 C3449 0.950 . S
H3438 C3446 0.950 . S
H3439 C3448 0.950 . S
H3440 C3450 0.950 . S
H3441 C3452 0.950 1_545 S
H3442 C3454 0.950 . S
H3443 C3455 0.950 . S
C3444 H3436 0.950 . S
C3444 C3445 1.386 . S
C3444 C3446 1.391 . S
C3445 C3444 1.386 . S
C3445 C3449 1.393 . S
C3446 H3438 0.950 . S
C3446 C3444 1.391 . S
C3446 C3447 1.400 . S
C3447 C3446 1.400 . S
C3447 C3448 1.398 . S
C3447 C3453 1.491 . S
C3448 H3439 0.950 . S
C3448 C3447 1.398 . S
C3448 C3449 1.391 . S
C3449 H3437 0.950 . S
C3449 C3445 1.393 . S
C3449 C3448 1.391 . S
C3450 H3440 0.950 . S
C3450 C3451 1.360 1_545 S
C3450 C3452 1.391 1_545 S
C3451 C3450 1.360 1_565 S
C3451 C3455 1.438 . S
C3452 H3441 0.950 1_565 S
C3452 C3450 1.391 1_565 S
C3452 C3453 1.400 . S
C3453 C3447 1.491 . S
C3453 C3452 1.400 . S
C3453 C3454 1.398 . S
C3454 H3442 0.950 . S
C3454 C3453 1.398 . S
C3454 C3455 1.391 . S
C3455 H3443 0.950 . S
C3455 C3451 1.438 . S
C3455 C3454 1.391 . S
H3456 C3464 0.950 . S
H3457 C3469 0.950 . S
H3458 C3466 0.950 . S
H3459 C3468 0.950 . S
H3460 C3470 0.950 . S
H3461 C3472 0.950 . S
H3462 C3474 0.950 . S
H3463 C3475 0.950 . S
C3464 H3456 0.950 . S
C3464 C3465 1.386 . S
C3464 C3466 1.391 . S
C3465 C3464 1.386 . S
C3465 C3469 1.393 . S
C3466 H3458 0.950 . S
C3466 C3464 1.391 . S
C3466 C3467 1.400 . S
C3467 C3466 1.400 . S
C3467 C3468 1.398 . S
C3467 C3473 1.491 . S
C3468 H3459 0.950 . S
C3468 C3467 1.398 . S
C3468 C3469 1.391 . S
C3469 H3457 0.950 . S
C3469 C3465 1.393 . S
C3469 C3468 1.391 . S
C3470 H3460 0.950 . S
C3470 C3471 1.386 . S
C3470 C3472 1.391 . S
C3471 C3470 1.386 . S
C3471 C3475 1.393 . S
C3472 H3461 0.950 . S
C3472 C3470 1.391 . S
C3472 C3473 1.400 . S
C3473 C3467 1.491 . S
C3473 C3472 1.400 . S
C3473 C3474 1.398 . S
C3474 H3462 0.950 . S
C3474 C3473 1.398 . S
C3474 C3475 1.391 . S
C3475 H3463 0.950 . S
C3475 C3471 1.393 . S
C3475 C3474 1.391 . S
H3476 C3484 0.950 . S
H3477 C3489 0.950 . S
H3478 C3486 0.950 . S
H3479 C3488 0.950 . S
H3480 C3490 0.950 . S
H3481 C3492 0.950 . S
H3482 C3494 0.950 . S
H3483 C3495 0.950 . S
C3484 H3476 0.950 . S
C3484 C3485 1.386 . S
C3484 C3486 1.391 . S
C3485 C3484 1.386 . S
C3485 C3489 1.393 . S
C3486 H3478 0.950 . S
C3486 C3484 1.391 . S
C3486 C3487 1.400 . S
C3487 C3486 1.400 . S
C3487 C3488 1.398 . S
C3487 C3493 1.491 . S
C3488 H3479 0.950 . S
C3488 C3487 1.398 . S
C3488 C3489 1.391 . S
C3489 H3477 0.950 . S
C3489 C3485 1.393 . S
C3489 C3488 1.391 . S
C3490 H3480 0.950 . S
C3490 C3491 1.386 . S
C3490 C3492 1.391 . S
C3491 C3490 1.386 . S
C3491 C3495 1.393 . S
C3492 H3481 0.950 . S
C3492 C3490 1.391 . S
C3492 C3493 1.400 . S
C3493 C3487 1.491 . S
C3493 C3492 1.400 . S
C3493 C3494 1.398 . S
C3494 H3482 0.950 . S
C3494 C3493 1.398 . S
C3494 C3495 1.391 . S
C3495 H3483 0.950 . S
C3495 C3491 1.393 . S
C3495 C3494 1.391 . S
H3496 C3504 0.950 . S
H3497 C3509 0.950 . S
H3498 C3506 0.950 . S
H3499 C3508 0.950 . S
H3500 C3510 0.950 . S
H3501 C3512 0.950 . S
H3502 C3514 0.950 . S
H3503 C3515 0.950 . S
C3504 H3496 0.950 . S
C3504 C3505 1.386 . S
C3504 C3506 1.391 . S
C3505 C3504 1.386 . S
C3505 C3509 1.393 . S
C3506 H3498 0.950 . S
C3506 C3504 1.391 . S
C3506 C3507 1.400 . S
C3507 C3506 1.400 . S
C3507 C3508 1.398 . S
C3507 C3513 1.491 . S
C3508 H3499 0.950 . S
C3508 C3507 1.398 . S
C3508 C3509 1.391 . S
C3509 H3497 0.950 . S
C3509 C3505 1.393 . S
C3509 C3508 1.391 . S
C3510 H3500 0.950 . S
C3510 C3511 1.386 . S
C3510 C3512 1.391 . S
C3511 C3510 1.386 . S
C3511 C3515 1.393 . S
C3512 H3501 0.950 . S
C3512 C3510 1.391 . S
C3512 C3513 1.400 . S
C3513 C3507 1.491 . S
C3513 C3512 1.400 . S
C3513 C3514 1.398 . S
C3514 H3502 0.950 . S
C3514 C3513 1.398 . S
C3514 C3515 1.391 . S
C3515 H3503 0.950 . S
C3515 C3511 1.393 . S
C3515 C3514 1.391 . S
H3516 C3524 0.950 . S
H3517 C3529 0.950 . S
H3518 C3526 0.950 . S
H3519 C3528 0.950 1_556 S
H3520 C3530 0.950 . S
H3521 C3532 0.950 . S
H3522 C3534 0.950 . S
H3523 C3535 0.950 . S
C3524 H3516 0.950 . S
C3524 C3525 1.386 . S
C3524 C3526 1.391 . S
C3525 C3524 1.386 . S
C3525 C3529 1.393 . S
C3526 H3518 0.950 . S
C3526 C3524 1.391 . S
C3526 C3527 1.400 . S
C3527 C3526 1.400 . S
C3527 C3528 1.398 . S
C3527 C3533 1.491 . S
C3528 H3519 0.950 1_554 S
C3528 C3527 1.398 . S
C3528 C3529 1.391 . S
C3529 H3517 0.950 . S
C3529 C3525 1.393 . S
C3529 C3528 1.391 . S
C3530 H3520 0.950 . S
C3530 C3531 1.386 1_556 S
C3530 C3532 1.391 . S
C3531 C3530 1.386 1_554 S
C3531 C3535 1.393 . S
C3532 H3521 0.950 . S
C3532 C3530 1.391 . S
C3532 C3533 1.400 1_556 S
C3533 C3527 1.491 . S
C3533 C3532 1.400 1_554 S
C3533 C3534 1.398 . S
C3534 H3522 0.950 . S
C3534 C3533 1.398 . S
C3534 C3535 1.391 . S
C3535 H3523 0.950 . S
C3535 C3531 1.393 . S
C3535 C3534 1.391 . S
H3536 C3544 0.950 . S
H3537 C3549 0.950 . S
H3538 C3546 0.950 . S
H3539 C3548 0.950 . S
H3540 C3550 0.950 . S
H3541 C3552 0.950 . S
H3542 C3554 0.950 . S
H3543 C3555 0.950 . S
C3544 H3536 0.950 . S
C3544 C3545 1.386 . S
C3544 C3546 1.391 . S
C3545 C3544 1.386 . S
C3545 C3549 1.393 . S
C3546 H3538 0.950 . S
C3546 C3544 1.391 . S
C3546 C3547 1.400 . S
C3547 C3546 1.400 . S
C3547 C3548 1.398 . S
C3547 C3553 1.491 . S
C3548 H3539 0.950 . S
C3548 C3547 1.398 . S
C3548 C3549 1.391 . S
C3549 H3537 0.950 . S
C3549 C3545 1.393 . S
C3549 C3548 1.391 . S
C3550 H3540 0.950 . S
C3550 C3551 1.386 . S
C3550 C3552 1.391 . S
C3551 C3550 1.386 . S
C3551 C3555 1.393 . S
C3552 H3541 0.950 . S
C3552 C3550 1.391 . S
C3552 C3553 1.400 . S
C3553 C3547 1.491 . S
C3553 C3552 1.400 . S
C3553 C3554 1.398 . S
C3554 H3542 0.950 . S
C3554 C3553 1.398 . S
C3554 C3555 1.391 . S
C3555 H3543 0.950 . S
C3555 C3551 1.393 . S
C3555 C3554 1.391 . S
H3556 C3564 0.950 . S
H3557 C3569 0.950 . S
H3558 C3566 0.950 . S
H3559 C3568 0.950 . S
H3560 C3570 0.950 . S
H3561 C3572 0.950 . S
H3562 C3574 0.950 . S
H3563 C3575 0.950 . S
C3564 H3556 0.950 . S
C3564 C3565 1.386 . S
C3564 C3566 1.391 . S
C3565 C3564 1.386 . S
C3565 C3569 1.393 . S
C3566 H3558 0.950 . S
C3566 C3564 1.391 . S
C3566 C3567 1.400 . S
C3567 C3566 1.400 . S
C3567 C3568 1.398 . S
C3567 C3573 1.491 . S
C3568 H3559 0.950 . S
C3568 C3567 1.398 . S
C3568 C3569 1.391 . S
C3569 H3557 0.950 . S
C3569 C3565 1.393 . S
C3569 C3568 1.391 . S
C3570 H3560 0.950 . S
C3570 C3571 1.386 . S
C3570 C3572 1.391 . S
C3571 C3570 1.386 . S
C3571 C3575 1.393 . S
C3572 H3561 0.950 . S
C3572 C3570 1.391 . S
C3572 C3573 1.400 . S
C3573 C3567 1.491 . S
C3573 C3572 1.400 . S
C3573 C3574 1.398 . S
C3574 H3562 0.950 . S
C3574 C3573 1.398 . S
C3574 C3575 1.391 . S
C3575 H3563 0.950 . S
C3575 C3571 1.393 . S
C3575 C3574 1.391 . S
C1665 C101 1.853 . S
C1671 C368 1.735 . S
C1685 C57 2.165 . S
C1691 C459 2.162 . S
C1705 C73 1.608 . S
C1711 C536 1.636 . S
C1731 C634 1.431 . S
C1725 C78 1.514 . S
C1745 C21 1.523 . S
C1751 C718 1.498 . S
C1771 C790 0.959 . S
C1765 C31 1.007 . S
C1791 C879 0.950 . S
C1785 C49 0.953 . S
C1805 C0 1.372 . S
C1811 C956 1.293 . S
C1831 C375 2.022 . S
C1825 C218 2.128 . S
C1845 C229 0.701 . S
C1851 C466 0.677 . S
C1871 C543 1.142 . S
C1865 C257 1.182 . S
C1891 C620 1.601 . S
C1885 C164 1.589 . S
C1905 C216 1.968 . S
C1911 C704 1.932 . S
C1931 C806 1.155 . S
C1925 C231 1.214 . S
C1951 C886 0.752 . S
C1945 C255 0.784 . S
C1971 C963 1.489 . S
C1965 C166 1.617 . S
C1991 C382 1.324 . S
C1985 C143 1.386 . S
C2005 C265 1.939 . S
C2011 C1047 1.926 . S
C2031 C1135 2.142 . S
C2025 C299 2.305 . S
C2051 C1208 0.539 . S
C2045 C291 0.588 . S
C2065 C104 0.757 . S
C2071 C970 0.789 . S
C2085 C117 1.356 . S
C2091 C550 1.391 . S
C2105 C304 2.176 . S
C2111 C1299 2.155 . S
C2131 C1376 0.649 . S
C2125 C278 0.664 . S
C2151 C379 1.696 . S
C2145 C60 1.811 . S
C2171 C1394 2.088 . S
C2165 C96 2.144 . S
C2185 C88 1.607 . S
C2191 C547 1.525 . S
C2205 C65 1.479 . S
C2211 C1294 1.378 . S
C2231 C706 1.477 . S
C2225 C10 1.512 . S
C2245 C44 0.949 . S
C2251 C1138 0.936 . S
C2271 C890 0.830 . S
C2265 C34 0.760 . S
C2291 C1471 1.263 . S
C2285 C13 1.429 . S
C2311 C386 1.961 . S
C2305 C138 2.006 . S
C2331 C1378 0.691 . S
C2325 C296 0.619 . S
C2345 C112 1.121 . S
C2351 C554 1.105 . S
C2365 C270 1.587 . S
C2371 C1303 1.490 . S
C2385 C140 2.022 . S
C2391 C715 1.880 . S
C2411 C1131 1.059 . S
C2405 C294 1.148 . S
C2425 C114 0.708 . S
C2431 C874 0.739 . S
C2445 C268 1.513 . S
C2451 C1478 1.424 . S
C2465 C169 1.387 . S
C2471 C370 1.322 1_554 S
C2485 C161 1.898 . S
C2491 C1058 1.833 . S
C2505 C234 2.257 . S
C2511 C788 2.091 . S
C2525 C226 0.487 . S
C2531 C1219 0.472 . S
C2551 C1462 0.835 . S
C2545 C247 0.857 1_565 S
C2565 C195 1.420 . S
C2571 C538 1.367 . S
C2591 C638 2.062 . S
C2585 C239 2.116 . S
C2611 C463 0.588 . S
C2605 C187 0.592 . S
C2625 C75 1.862 . S
C2631 C1544 1.764 . S
C2651 C1383 2.158 . S
C2645 C83 2.164 . S
C2665 C99 1.631 . S
C2671 C1628 1.617 . S
C2685 C52 1.527 . S
C2691 C1306 1.438 . S
C2705 C47 1.517 . S
C2711 C1054 1.501 . S
C2731 C1126 0.938 . S
C2725 C5 0.994 . S
C2751 C1215 0.966 . S
C2745 C23 0.922 . S
C2771 C1460 1.286 . S
C2765 C26 1.340 . S
C2791 C1551 2.038 . S
C2785 C244 2.128 . S
C2805 C177 0.714 . S
C2811 C1390 0.692 . S
C2831 C1635 1.142 . S
C2825 C192 1.181 . S
C2851 C1292 1.584 . S
C2845 C203 1.603 . S
C2871 C1040 1.950 . S
C2865 C242 1.987 . S
C2885 C179 1.213 . S
C2891 C1142 1.155 . S
C2911 C1222 0.814 . S
C2905 C190 0.785 . S
C2925 C205 1.622 . S
C2931 C1467 1.512 . S
C2951 C1558 1.360 . S
C2945 C286 1.372 . S
C2965 C122 1.948 . S
C2971 C711 1.920 . S
C2991 C799 2.142 . S
C2985 C130 2.310 . S
C3011 C872 0.602 . S
C3005 C148 0.536 . S
C3031 C1474 0.809 . S
C3025 C273 0.752 . S
C3045 C260 1.356 1_556 S
C3051 C1642 1.390 . S
C3071 C627 2.145 . S
C3065 C135 2.174 . S
C3091 C452 0.637 . S
C3085 C109 0.677 . S
C3105 C86 1.819 . S
C3111 C1555 1.671 . S
C3131 C470 2.072 . S
C3125 C70 2.148 . S
C3145 C62 1.609 . S
C3151 C1639 1.513 . S
C3165 C91 1.475 . S
C3171 C622 1.367 . S
C3185 C36 1.520 . S
C3191 C1042 1.471 . S
C3211 C802 0.900 . S
C3205 C18 0.922 . S
C3225 C8 0.778 . S
C3231 C1226 0.820 . S
C3245 C39 1.430 . S
C3251 C967 1.240 . S
C3271 C1562 1.943 . S
C3265 C307 2.012 . S
C3285 C153 0.622 . S
C3291 C454 0.697 . S
C3311 C1646 1.105 . S
C3305 C281 1.121 . S
C3325 C127 1.586 . S
C3331 C631 1.477 . S
C3345 C309 2.017 . S
C3351 C1051 1.864 . S
C3371 C795 1.060 . S
C3365 C151 1.149 . S
C3385 C283 0.709 . S
C3391 C1210 0.756 . S
C3411 C974 1.405 . S
C3405 C125 1.528 . S
C3431 C1546 1.325 . S
C3425 C221 1.389 . S
C3451 C722 1.833 1_665 S
C3445 C200 1.904 . S
C3465 C208 2.256 . S
C3471 C1124 2.098 . S
C3491 C883 0.496 . S
C3485 C174 0.454 . S
C3505 C182 0.851 . S
C3511 C958 0.862 . S
C3525 C156 1.425 . S
C3531 C1630 1.373 1_554 S
C3551 C1310 2.067 . S
C3545 C213 2.110 1_565 S
C3571 C1387 0.627 . S
C3565 C252 0.595 . S
