# Generated by pormake.
# Topology ibd, (4,6)-cn, num edge types: 1
# Building blocks:
#     Node 0, Type 0, BuildingBlock: CEKHIL_clean_sbu_0, # of connection points: 4
#     Node 1, Type 0, BuildingBlock: CEKHIL_clean_sbu_0, # of connection points: 4
#     Node 2, Type 0, BuildingBlock: CEKHIL_clean_sbu_0, # of connection points: 4
#     Node 3, Type 0, BuildingBlock: CEKHIL_clean_sbu_0, # of connection points: 4
#     Node 4, Type 0, BuildingBlock: CEKHIL_clean_sbu_0, # of connection points: 4
#     Node 5, Type 0, BuildingBlock: CEKHIL_clean_sbu_0, # of connection points: 4
#     Node 6, Type 0, BuildingBlock: CEKHIL_clean_sbu_0, # of connection points: 4
#     Node 7, Type 0, BuildingBlock: CEKHIL_clean_sbu_0, # of connection points: 4
#     Node 8, Type 0, BuildingBlock: CEKHIL_clean_sbu_0, # of connection points: 4
#     Node 9, Type 0, BuildingBlock: CEKHIL_clean_sbu_0, # of connection points: 4
#     Node 10, Type 0, BuildingBlock: CEKHIL_clean_sbu_0, # of connection points: 4
#     Node 11, Type 0, BuildingBlock: CEKHIL_clean_sbu_0, # of connection points: 4
#     Node 12, Type 0, BuildingBlock: CEKHIL_clean_sbu_0, # of connection points: 4
#     Node 13, Type 0, BuildingBlock: CEKHIL_clean_sbu_0, # of connection points: 4
#     Node 14, Type 0, BuildingBlock: CEKHIL_clean_sbu_0, # of connection points: 4
#     Node 15, Type 0, BuildingBlock: CEKHIL_clean_sbu_0, # of connection points: 4
#     Node 16, Type 0, BuildingBlock: CEKHIL_clean_sbu_0, # of connection points: 4
#     Node 17, Type 0, BuildingBlock: CEKHIL_clean_sbu_0, # of connection points: 4
#     Node 18, Type 0, BuildingBlock: CEKHIL_clean_sbu_0, # of connection points: 4
#     Node 19, Type 0, BuildingBlock: CEKHIL_clean_sbu_0, # of connection points: 4
#     Node 20, Type 0, BuildingBlock: CEKHIL_clean_sbu_0, # of connection points: 4
#     Node 21, Type 0, BuildingBlock: CEKHIL_clean_sbu_0, # of connection points: 4
#     Node 22, Type 0, BuildingBlock: CEKHIL_clean_sbu_0, # of connection points: 4
#     Node 23, Type 0, BuildingBlock: CEKHIL_clean_sbu_0, # of connection points: 4
#     Node 24, Type 1, BuildingBlock: IZENUY_clean_sbu_0, # of connection points: 6
#     Node 25, Type 1, BuildingBlock: IZENUY_clean_sbu_0, # of connection points: 6
#     Node 26, Type 1, BuildingBlock: IZENUY_clean_sbu_0, # of connection points: 6
#     Node 27, Type 1, BuildingBlock: IZENUY_clean_sbu_0, # of connection points: 6
#     Node 28, Type 1, BuildingBlock: IZENUY_clean_sbu_0, # of connection points: 6
#     Node 29, Type 1, BuildingBlock: IZENUY_clean_sbu_0, # of connection points: 6
#     Node 30, Type 1, BuildingBlock: IZENUY_clean_sbu_0, # of connection points: 6
#     Node 31, Type 1, BuildingBlock: IZENUY_clean_sbu_0, # of connection points: 6
#     Node 32, Type 1, BuildingBlock: IZENUY_clean_sbu_0, # of connection points: 6
#     Node 33, Type 1, BuildingBlock: IZENUY_clean_sbu_0, # of connection points: 6
#     Node 34, Type 1, BuildingBlock: IZENUY_clean_sbu_0, # of connection points: 6
#     Node 35, Type 1, BuildingBlock: IZENUY_clean_sbu_0, # of connection points: 6
#     Node 36, Type 1, BuildingBlock: IZENUY_clean_sbu_0, # of connection points: 6
#     Node 37, Type 1, BuildingBlock: IZENUY_clean_sbu_0, # of connection points: 6
#     Node 38, Type 1, BuildingBlock: IZENUY_clean_sbu_0, # of connection points: 6
#     Node 39, Type 1, BuildingBlock: IZENUY_clean_sbu_0, # of connection points: 6
#     Edge 40, Type (0, 1), BuildingBlock: ZUJKAS_clean_linker_0, # of connection points: 2
#     Edge 41, Type (0, 1), BuildingBlock: ZUJKAS_clean_linker_0, # of connection points: 2
#     Edge 42, Type (0, 1), BuildingBlock: ZUJKAS_clean_linker_0, # of connection points: 2
#     Edge 43, Type (0, 1), BuildingBlock: ZUJKAS_clean_linker_0, # of connection points: 2
#     Edge 44, Type (0, 1), BuildingBlock: ZUJKAS_clean_linker_0, # of connection points: 2
#     Edge 45, Type (0, 1), BuildingBlock: ZUJKAS_clean_linker_0, # of connection points: 2
#     Edge 46, Type (0, 1), BuildingBlock: ZUJKAS_clean_linker_0, # of connection points: 2
#     Edge 47, Type (0, 1), BuildingBlock: ZUJKAS_clean_linker_0, # of connection points: 2
#     Edge 48, Type (0, 1), BuildingBlock: ZUJKAS_clean_linker_0, # of connection points: 2
#     Edge 49, Type (0, 1), BuildingBlock: ZUJKAS_clean_linker_0, # of connection points: 2
#     Edge 50, Type (0, 1), BuildingBlock: ZUJKAS_clean_linker_0, # of connection points: 2
#     Edge 51, Type (0, 1), BuildingBlock: ZUJKAS_clean_linker_0, # of connection points: 2
#     Edge 52, Type (0, 1), BuildingBlock: ZUJKAS_clean_linker_0, # of connection points: 2
#     Edge 53, Type (0, 1), BuildingBlock: ZUJKAS_clean_linker_0, # of connection points: 2
#     Edge 54, Type (0, 1), BuildingBlock: ZUJKAS_clean_linker_0, # of connection points: 2
#     Edge 55, Type (0, 1), BuildingBlock: ZUJKAS_clean_linker_0, # of connection points: 2
#     Edge 56, Type (0, 1), BuildingBlock: ZUJKAS_clean_linker_0, # of connection points: 2
#     Edge 57, Type (0, 1), BuildingBlock: ZUJKAS_clean_linker_0, # of connection points: 2
#     Edge 58, Type (0, 1), BuildingBlock: ZUJKAS_clean_linker_0, # of connection points: 2
#     Edge 59, Type (0, 1), BuildingBlock: ZUJKAS_clean_linker_0, # of connection points: 2
#     Edge 60, Type (0, 1), BuildingBlock: ZUJKAS_clean_linker_0, # of connection points: 2
#     Edge 61, Type (0, 1), BuildingBlock: ZUJKAS_clean_linker_0, # of connection points: 2
#     Edge 62, Type (0, 1), BuildingBlock: ZUJKAS_clean_linker_0, # of connection points: 2
#     Edge 63, Type (0, 1), BuildingBlock: ZUJKAS_clean_linker_0, # of connection points: 2
#     Edge 64, Type (0, 1), BuildingBlock: ZUJKAS_clean_linker_0, # of connection points: 2
#     Edge 65, Type (0, 1), BuildingBlock: ZUJKAS_clean_linker_0, # of connection points: 2
#     Edge 66, Type (0, 1), BuildingBlock: ZUJKAS_clean_linker_0, # of connection points: 2
#     Edge 67, Type (0, 1), BuildingBlock: ZUJKAS_clean_linker_0, # of connection points: 2
#     Edge 68, Type (0, 1), BuildingBlock: ZUJKAS_clean_linker_0, # of connection points: 2
#     Edge 69, Type (0, 1), BuildingBlock: ZUJKAS_clean_linker_0, # of connection points: 2
#     Edge 70, Type (0, 1), BuildingBlock: ZUJKAS_clean_linker_0, # of connection points: 2
#     Edge 71, Type (0, 1), BuildingBlock: ZUJKAS_clean_linker_0, # of connection points: 2
#     Edge 72, Type (0, 1), BuildingBlock: ZUJKAS_clean_linker_0, # of connection points: 2
#     Edge 73, Type (0, 1), BuildingBlock: ZUJKAS_clean_linker_0, # of connection points: 2
#     Edge 74, Type (0, 1), BuildingBlock: ZUJKAS_clean_linker_0, # of connection points: 2
#     Edge 75, Type (0, 1), BuildingBlock: ZUJKAS_clean_linker_0, # of connection points: 2
#     Edge 76, Type (0, 1), BuildingBlock: ZUJKAS_clean_linker_0, # of connection points: 2
#     Edge 77, Type (0, 1), BuildingBlock: ZUJKAS_clean_linker_0, # of connection points: 2
#     Edge 78, Type (0, 1), BuildingBlock: ZUJKAS_clean_linker_0, # of connection points: 2
#     Edge 79, Type (0, 1), BuildingBlock: ZUJKAS_clean_linker_0, # of connection points: 2
#     Edge 80, Type (0, 1), BuildingBlock: ZUJKAS_clean_linker_0, # of connection points: 2
#     Edge 81, Type (0, 1), BuildingBlock: ZUJKAS_clean_linker_0, # of connection points: 2
#     Edge 82, Type (0, 1), BuildingBlock: ZUJKAS_clean_linker_0, # of connection points: 2
#     Edge 83, Type (0, 1), BuildingBlock: ZUJKAS_clean_linker_0, # of connection points: 2
#     Edge 84, Type (0, 1), BuildingBlock: ZUJKAS_clean_linker_0, # of connection points: 2
#     Edge 85, Type (0, 1), BuildingBlock: ZUJKAS_clean_linker_0, # of connection points: 2
#     Edge 86, Type (0, 1), BuildingBlock: ZUJKAS_clean_linker_0, # of connection points: 2
#     Edge 87, Type (0, 1), BuildingBlock: ZUJKAS_clean_linker_0, # of connection points: 2
#     Edge 88, Type (0, 1), BuildingBlock: ZUJKAS_clean_linker_0, # of connection points: 2
#     Edge 89, Type (0, 1), BuildingBlock: ZUJKAS_clean_linker_0, # of connection points: 2
#     Edge 90, Type (0, 1), BuildingBlock: ZUJKAS_clean_linker_0, # of connection points: 2
#     Edge 91, Type (0, 1), BuildingBlock: ZUJKAS_clean_linker_0, # of connection points: 2
#     Edge 92, Type (0, 1), BuildingBlock: ZUJKAS_clean_linker_0, # of connection points: 2
#     Edge 93, Type (0, 1), BuildingBlock: ZUJKAS_clean_linker_0, # of connection points: 2
#     Edge 94, Type (0, 1), BuildingBlock: ZUJKAS_clean_linker_0, # of connection points: 2
#     Edge 95, Type (0, 1), BuildingBlock: ZUJKAS_clean_linker_0, # of connection points: 2
#     Edge 96, Type (0, 1), BuildingBlock: ZUJKAS_clean_linker_0, # of connection points: 2
#     Edge 97, Type (0, 1), BuildingBlock: ZUJKAS_clean_linker_0, # of connection points: 2
#     Edge 98, Type (0, 1), BuildingBlock: ZUJKAS_clean_linker_0, # of connection points: 2
#     Edge 99, Type (0, 1), BuildingBlock: ZUJKAS_clean_linker_0, # of connection points: 2
#     Edge 100, Type (0, 1), BuildingBlock: ZUJKAS_clean_linker_0, # of connection points: 2
#     Edge 101, Type (0, 1), BuildingBlock: ZUJKAS_clean_linker_0, # of connection points: 2
#     Edge 102, Type (0, 1), BuildingBlock: ZUJKAS_clean_linker_0, # of connection points: 2
#     Edge 103, Type (0, 1), BuildingBlock: ZUJKAS_clean_linker_0, # of connection points: 2
#     Edge 104, Type (0, 1), BuildingBlock: ZUJKAS_clean_linker_0, # of connection points: 2
#     Edge 105, Type (0, 1), BuildingBlock: ZUJKAS_clean_linker_0, # of connection points: 2
#     Edge 106, Type (0, 1), BuildingBlock: ZUJKAS_clean_linker_0, # of connection points: 2
#     Edge 107, Type (0, 1), BuildingBlock: ZUJKAS_clean_linker_0, # of connection points: 2
#     Edge 108, Type (0, 1), BuildingBlock: ZUJKAS_clean_linker_0, # of connection points: 2
#     Edge 109, Type (0, 1), BuildingBlock: ZUJKAS_clean_linker_0, # of connection points: 2
#     Edge 110, Type (0, 1), BuildingBlock: ZUJKAS_clean_linker_0, # of connection points: 2
#     Edge 111, Type (0, 1), BuildingBlock: ZUJKAS_clean_linker_0, # of connection points: 2
#     Edge 112, Type (0, 1), BuildingBlock: ZUJKAS_clean_linker_0, # of connection points: 2
#     Edge 113, Type (0, 1), BuildingBlock: ZUJKAS_clean_linker_0, # of connection points: 2
#     Edge 114, Type (0, 1), BuildingBlock: ZUJKAS_clean_linker_0, # of connection points: 2
#     Edge 115, Type (0, 1), BuildingBlock: ZUJKAS_clean_linker_0, # of connection points: 2
#     Edge 116, Type (0, 1), BuildingBlock: ZUJKAS_clean_linker_0, # of connection points: 2
#     Edge 117, Type (0, 1), BuildingBlock: ZUJKAS_clean_linker_0, # of connection points: 2
#     Edge 118, Type (0, 1), BuildingBlock: ZUJKAS_clean_linker_0, # of connection points: 2
#     Edge 119, Type (0, 1), BuildingBlock: ZUJKAS_clean_linker_0, # of connection points: 2
#     Edge 120, Type (0, 1), BuildingBlock: ZUJKAS_clean_linker_0, # of connection points: 2
#     Edge 121, Type (0, 1), BuildingBlock: ZUJKAS_clean_linker_0, # of connection points: 2
#     Edge 122, Type (0, 1), BuildingBlock: ZUJKAS_clean_linker_0, # of connection points: 2
#     Edge 123, Type (0, 1), BuildingBlock: ZUJKAS_clean_linker_0, # of connection points: 2
#     Edge 124, Type (0, 1), BuildingBlock: ZUJKAS_clean_linker_0, # of connection points: 2
#     Edge 125, Type (0, 1), BuildingBlock: ZUJKAS_clean_linker_0, # of connection points: 2
#     Edge 126, Type (0, 1), BuildingBlock: ZUJKAS_clean_linker_0, # of connection points: 2
#     Edge 127, Type (0, 1), BuildingBlock: ZUJKAS_clean_linker_0, # of connection points: 2
#     Edge 128, Type (0, 1), BuildingBlock: ZUJKAS_clean_linker_0, # of connection points: 2
#     Edge 129, Type (0, 1), BuildingBlock: ZUJKAS_clean_linker_0, # of connection points: 2
#     Edge 130, Type (0, 1), BuildingBlock: ZUJKAS_clean_linker_0, # of connection points: 2
#     Edge 131, Type (0, 1), BuildingBlock: ZUJKAS_clean_linker_0, # of connection points: 2
#     Edge 132, Type (0, 1), BuildingBlock: ZUJKAS_clean_linker_0, # of connection points: 2
#     Edge 133, Type (0, 1), BuildingBlock: ZUJKAS_clean_linker_0, # of connection points: 2
#     Edge 134, Type (0, 1), BuildingBlock: ZUJKAS_clean_linker_0, # of connection points: 2
#     Edge 135, Type (0, 1), BuildingBlock: ZUJKAS_clean_linker_0, # of connection points: 2
# Relax obj value: 0.304
# Max RMSD: 0.284
# Mean RMSD: 0.259
data_MOF--net-ibd--node1-CEKHIL_clean_sbu_0--node2-IZENUY_clean_sbu_0--edge1-ZUJKAS_clean_linker_0
_symmetry_space_group_name_H-M    P1
_symmetry_Int_Tables_number       1
_symmetry_cell_setting            triclinic
loop_
_symmetry_equiv_pos_as_xyz
'x, y, z'
_cell_length_a     62.428895
_cell_length_b     62.436003
_cell_length_c     62.453076
_cell_angle_alpha  90.289622
_cell_angle_beta   90.306666
_cell_angle_gamma 90.763811
loop_
_atom_site_label
_atom_site_type_symbol
_atom_site_fract_x
_atom_site_fract_y
_atom_site_fract_z
_atom_type_partial_charge
Co0 Co 0.02 0.30013 0.38093 0.0
O1 O 0.01496 0.31701 0.35555 0.0
O2 O 0.99396 0.29074 0.36753 0.0
C3 C 0.02864 0.32689 0.40362 0.0
O4 O 0.01815 0.27978 0.40584 0.0
Co5 Co 0.06338 0.29644 0.40466 0.0
O6 O 0.04773 0.279 0.42626 0.0
C7 C 0.05693 0.27453 0.36315 0.0
C8 C -0.00245 0.30544 0.35337 0.0
C9 C 0.02846 0.27328 0.42231 0.0
O10 O 0.0369 0.27907 0.3636 0.0
O11 O 0.07043 0.28139 0.37716 0.0
O12 O 0.00868 0.32267 0.39904 0.0
O13 O 0.04265 0.31632 0.39281 0.0
Co14 Co 0.00361 0.73129 0.62946 0.0
O15 O 0.98459 0.72687 0.65327 0.0
O16 O 0.00426 0.75614 0.64786 0.0
C17 C 0.98058 0.71943 0.60414 0.0
O18 O 0.02411 0.74246 0.60686 0.0
Co19 Co 0.01905 0.69424 0.60025 0.0
O20 O 0.02988 0.71753 0.58158 0.0
C21 C 0.03691 0.69957 0.6439 0.0
C22 C 0.99014 0.74609 0.65941 0.0
C23 C 0.03192 0.73658 0.58879 0.0
O24 O 0.02773 0.71782 0.64583 0.0
O25 O 0.034 0.6871 0.62777 0.0
O26 O 0.97938 0.73897 0.61129 0.0
O27 O 0.99449 0.70748 0.61346 0.0
Co28 Co 0.51197 0.78495 0.87483 0.0
O29 O 0.51363 0.80018 0.84807 0.0
O30 O 0.48709 0.77842 0.85798 0.0
C31 C 0.52167 0.81216 0.89645 0.0
O32 O 0.50328 0.76728 0.90036 0.0
Co33 Co 0.55034 0.77691 0.90506 0.0
O34 O 0.52902 0.76457 0.92527 0.0
C35 C 0.54678 0.75352 0.8641 0.0
C36 C 0.4952 0.79111 0.84369 0.0
C37 C 0.50991 0.76114 0.91876 0.0
O38 O 0.52757 0.76031 0.86174 0.0
O39 O 0.55915 0.75965 0.87942 0.0
O40 O 0.50202 0.8105 0.8895 0.0
O41 O 0.53502 0.7985 0.88878 0.0
Co42 Co 0.49978 0.2405 0.12738 0.0
O43 O 0.4773 0.24116 0.14845 0.0
O44 O 0.50197 0.26658 0.14378 0.0
C45 C 0.47881 0.22952 0.09997 0.0
O46 O 0.52432 0.24683 0.1071 0.0
Co47 Co 0.51356 0.19956 0.10299 0.0
O48 O 0.52804 0.22002 0.08343 0.0
C49 C 0.52672 0.2062 0.14818 0.0
C50 C 0.48503 0.25988 0.15383 0.0
C51 C 0.53227 0.23899 0.08988 0.0
O52 O 0.51936 0.22538 0.14798 0.0
O53 O 0.5246 0.19312 0.13242 0.0
O54 O 0.47948 0.24964 0.10543 0.0
O55 O 0.48954 0.21673 0.11199 0.0
Co56 Co 0.00041 0.7552 0.12397 0.0
O57 O 0.00151 0.77428 0.09986 0.0
O58 O 0.9737 0.75366 0.10841 0.0
C59 C 0.01423 0.77833 0.14823 0.0
O60 O 0.9927 0.7343 0.14759 0.0
Co61 Co 0.04131 0.74114 0.14863 0.0
O62 O 0.02061 0.72995 0.16995 0.0
C63 C 0.03074 0.72186 0.10646 0.0
C64 C 0.982 0.76795 0.09574 0.0
C65 C 0.00099 0.72696 0.16491 0.0
O66 O 0.01257 0.73137 0.10615 0.0
O67 O 0.0449 0.72498 0.1211 0.0
O68 O 0.99405 0.77913 0.14309 0.0
O69 O 0.02553 0.76506 0.13732 0.0
Co70 Co 0.46694 0.73517 0.37811 0.0
O71 O 0.44875 0.74093 0.40225 0.0
O72 O 0.47619 0.76121 0.39179 0.0
C73 C 0.44075 0.72692 0.35463 0.0
O74 O 0.48865 0.73601 0.35429 0.0
Co75 Co 0.47019 0.69142 0.35503 0.0
O76 O 0.4867 0.7072 0.33284 0.0
C77 C 0.49171 0.69811 0.39687 0.0
C78 C 0.4604 0.75821 0.40491 0.0
C79 C 0.49415 0.72576 0.3374 0.0
O80 O 0.4867 0.71802 0.3966 0.0
O81 O 0.48551 0.68463 0.38252 0.0
O82 O 0.44561 0.74684 0.35874 0.0
O83 O 0.45061 0.71281 0.36596 0.0
Co84 Co 0.51673 0.24677 0.6264 0.0
O85 O 0.52208 0.2648 0.602 0.0
O86 O 0.49244 0.24566 0.60728 0.0
C87 C 0.52799 0.27057 0.6513 0.0
O88 O 0.50456 0.22736 0.64946 0.0
Co89 Co 0.5526 0.23206 0.65744 0.0
O90 O 0.52852 0.22271 0.67589 0.0
C91 C 0.54788 0.21167 0.61479 0.0
C92 C 0.50296 0.25927 0.59553 0.0
C93 C 0.5097 0.22048 0.66813 0.0
O94 O 0.53032 0.22176 0.61147 0.0
O95 O 0.55975 0.21479 0.63134 0.0
O96 O 0.50877 0.27177 0.64334 0.0
O97 O 0.54012 0.25625 0.64288 0.0
Co98 Co 0.95801 0.22517 0.87299 0.0
O99 O 0.93836 0.23178 0.89572 0.0
O100 O 0.96675 0.2514 0.88652 0.0
C101 C 0.93382 0.21619 0.84776 0.0
O102 O 0.98146 0.22498 0.85099 0.0
Co103 Co 0.96285 0.1805 0.85215 0.0
O104 O 0.98183 0.1951 0.83102 0.0
C105 C 0.97984 0.18852 0.89562 0.0
C106 C 0.95047 0.24864 0.89908 0.0
C107 C 0.98875 0.21391 0.8354 0.0
O108 O 0.9761 0.20857 0.89344 0.0
O109 O 0.97418 0.17436 0.88172 0.0
O110 O 0.93831 0.23626 0.85161 0.0
O111 O 0.94256 0.20249 0.86044 0.0
Co112 Co 0.37092 0.01855 0.24012 0.0
O113 O 0.39733 0.01933 0.22421 0.0
O114 O 0.38053 0.98996 0.23546 0.0
C115 C 0.35282 0.04202 0.22011 0.0
O116 O 0.34355 0.01037 0.25532 0.0
Co117 Co 0.35223 0.05709 0.26449 0.0
O118 O 0.32641 0.03867 0.26878 0.0
C119 C 0.39008 0.03524 0.28184 0.0
C120 C 0.39652 -0.00149 0.22527 0.0
C121 C 0.32732 0.01876 0.26446 0.0
O122 O 0.38741 0.02026 0.26784 0.0
O123 O 0.3788 0.05222 0.2821 0.0
O124 O 0.35462 0.02222 0.21392 0.0
O125 O 0.36359 0.04749 0.23709 0.0
Co126 Co 0.25585 0.14423 0.50503 0.0
O127 O 0.2549 0.12458 0.52856 0.0
O128 O 0.28232 0.12883 0.50645 0.0
C129 C 0.2427 0.17185 0.52364 0.0
O130 O 0.26353 0.16337 0.47996 0.0
Co131 Co 0.21534 0.16478 0.48605 0.0
O132 O 0.23536 0.18232 0.46875 0.0
C133 C 0.22353 0.11898 0.47887 0.0
C134 C 0.27418 0.11935 0.52307 0.0
C135 C 0.25516 0.17775 0.46802 0.0
O136 O 0.24283 0.1217 0.48573 0.0
O137 O 0.20952 0.13376 0.47943 0.0
O138 O 0.26299 0.1675 0.5247 0.0
O139 O 0.23096 0.15885 0.51231 0.0
Co140 Co 0.11307 0.99158 0.7322 0.0
O141 O 0.138 0.98984 0.71443 0.0
O142 O 0.12869 0.96616 0.73919 0.0
C143 C 0.09019 4e-05 0.70583 0.0
O144 O 0.08858 0.9872 0.75294 0.0
Co145 Co 0.0881 0.03364 0.73841 0.0
O146 O 0.06704 0.01565 0.75417 0.0
C147 C 0.13097 0.02898 0.7575 0.0
C148 C 0.14208 0.97215 0.72445 0.0
C149 C 0.07162 0.99658 0.75951 0.0
O150 O 0.12997 0.00871 0.75386 0.0
O151 O 0.11682 0.04203 0.75078 0.0
O152 O 0.09518 0.98014 0.70903 0.0
O153 O 0.1002 0.01405 0.71758 0.0
Co154 Co 0.20868 0.87896 0.00359 0.0
O155 O 0.20219 0.85557 0.02266 0.0
O156 O 0.23426 0.86337 0.00941 0.0
C157 C 0.19109 0.9045 0.02136 0.0
O158 O 0.22227 0.90168 0.98487 0.0
Co159 Co 0.17411 0.90237 0.97748 0.0
O160 O 0.1973 0.92379 0.97208 0.0
C161 C 0.18724 0.85926 0.96413 0.0
C162 C 0.22249 0.85125 0.02157 0.0
C163 C 0.21681 0.91886 0.97516 0.0
O164 O 0.20237 0.86014 0.97813 0.0
O165 O 0.17304 0.87378 0.96233 0.0
O166 O 0.21005 0.89872 0.02754 0.0
O167 O 0.18245 0.89321 0.00606 0.0
Co168 Co 0.29174 0.36964 0.00783 0.0
O169 O 0.3039 0.34163 0.00432 0.0
O170 O 0.27811 0.35522 0.98416 0.0
C171 C 0.32236 0.38856 0.01183 0.0
O172 O 0.2757 0.39744 0.0052 0.0
Co173 Co 0.29626 0.39684 0.04928 0.0
O174 O 0.28285 0.42004 0.03241 0.0
C175 C 0.26537 0.36075 0.04788 0.0
C176 C 0.29073 0.33937 0.98821 0.0
C177 C 0.27409 0.41577 0.0144 0.0
O178 O 0.26954 0.3578 0.02795 0.0
O179 O 0.27525 0.37462 0.05959 0.0
O180 O 0.31577 0.38276 0.99285 0.0
O181 O 0.31166 0.38067 0.02769 0.0
Co182 Co 0.7268 0.10978 0.00686 0.0
O183 O 0.74041 0.08259 0.01096 0.0
O184 O 0.72697 0.09415 0.98025 0.0
C185 C 0.75158 0.12959 0.02429 0.0
O186 O 0.71309 0.13682 0.99561 0.0
Co187 Co 0.71087 0.13823 0.04424 0.0
O188 O 0.70925 0.16082 0.02213 0.0
C189 C 0.68652 0.09915 0.03175 0.0
C190 C 0.73724 0.07944 0.99059 0.0
C191 C 0.7091 0.15583 0.00233 0.0
O192 O 0.69822 0.09691 0.01497 0.0
O193 O 0.69005 0.11362 0.04598 0.0
O194 O 0.75469 0.12388 0.00452 0.0
O195 O 0.73463 0.12181 0.03328 0.0
Co196 Co 0.1303 0.48165 0.24022 0.0
O197 O 0.15626 0.46668 0.2336 0.0
O198 O 0.148 0.47999 0.26544 0.0
C199 C 0.1075 0.4587 0.22384 0.0
O200 O 0.10517 0.49694 0.25374 0.0
Co201 Co 0.10051 0.50024 0.20497 0.0
O202 O 0.08032 0.50464 0.2289 0.0
C203 C 0.14152 0.522 0.2156 0.0
C204 C 0.16141 0.46952 0.25362 0.0
C205 C 0.08656 0.50371 0.24833 0.0
O206 O 0.14418 0.50966 0.23184 0.0
O207 O 0.1261 0.51966 0.20216 0.0
O208 O 0.11467 0.45452 0.24294 0.0
O209 O 0.11581 0.47531 0.21472 0.0
Co210 Co 0.78748 0.85841 0.50362 0.0
O211 O 0.8014 0.83126 0.50024 0.0
O212 O 0.77304 0.84201 0.48179 0.0
C213 C 0.81691 0.87939 0.50411 0.0
O214 O 0.76925 0.8848 0.50118 0.0
Co215 Co 0.79342 0.88802 0.54316 0.0
O216 O 0.77907 0.90989 0.52521 0.0
C217 C 0.76568 0.84957 0.54627 0.0
C218 C 0.78723 0.82741 0.48528 0.0
C219 C 0.76838 0.9039 0.50876 0.0
O220 O 0.76811 0.84607 0.52612 0.0
O221 O 0.77543 0.86472 0.55641 0.0
O222 O 0.8091 0.87234 0.48603 0.0
O223 O 0.80812 0.8717 0.52119 0.0
Co224 Co 0.88152 0.98065 0.24926 0.0
O225 O 0.90655 0.96381 0.25453 0.0
O226 O 0.89609 0.9912 0.27449 0.0
C227 C 0.85858 0.95336 0.24294 0.0
O228 O 0.85648 0.00103 0.24996 0.0
Co229 Co 0.85814 0.98082 0.20533 0.0
O230 O 0.83542 0.99621 0.22104 0.0
C231 C 0.89903 0.00437 0.21046 0.0
C232 C 0.90973 0.976 0.27122 0.0
C233 C 0.83918 0.00454 0.23937 0.0
O234 O 0.89872 0.00066 0.2307 0.0
O235 O 0.88508 0.99666 0.19734 0.0
O236 O 0.86343 0.95888 0.26249 0.0
O237 O 0.86933 0.96297 0.22809 0.0
Co238 Co 0.24341 0.6199 0.51722 0.0
O239 O 0.26343 0.59754 0.52346 0.0
O240 O 0.2448 0.60042 0.49328 0.0
C241 C 0.26428 0.64716 0.52879 0.0
O242 O 0.22283 0.64118 0.50403 0.0
Co243 Co 0.22433 0.64908 0.55247 0.0
O244 O 0.21626 0.66728 0.52788 0.0
C245 C 0.20932 0.6043 0.5482 0.0
C246 C 0.25906 0.59026 0.50438 0.0
C247 C 0.21555 0.65976 0.50888 0.0
O248 O 0.21941 0.60254 0.53036 0.0
O249 O 0.21056 0.62101 0.56013 0.0
O250 O 0.26706 0.6391 0.50978 0.0
O251 O 0.2504 0.63739 0.54064 0.0
Co252 Co 0.38223 0.47928 0.74843 0.0
O253 O 0.40895 0.46435 0.75123 0.0
O254 O 0.39772 0.49016 0.7728 0.0
C255 C 0.36114 0.4504 0.74265 0.0
O256 O 0.35607 0.49774 0.75217 0.0
Co257 Co 0.35457 0.4798 0.7072 0.0
O258 O 0.33228 0.4928 0.72554 0.0
C259 C 0.39463 0.50526 0.70931 0.0
C260 C 0.41227 0.47628 0.76811 0.0
C261 C 0.33758 0.50068 0.74368 0.0
O262 O 0.3963 0.50112 0.7294 0.0
O263 O 0.37995 0.49712 0.69727 0.0
O264 O 0.36708 0.45553 0.76202 0.0
O265 O 0.36955 0.46165 0.72746 0.0
Co266 Co 0.63357 0.01893 0.72878 0.0
O267 O 0.65878 0.00254 0.72267 0.0
O268 O 0.65031 0.01572 0.75449 0.0
C269 C 0.61043 0.99726 0.71129 0.0
O270 O 0.60883 0.03507 0.74201 0.0
Co271 Co 0.60562 0.03973 0.69354 0.0
O272 O 0.58458 0.04343 0.71684 0.0
C273 C 0.64786 0.05863 0.7048 0.0
C274 C 0.66324 0.00438 0.74295 0.0
C275 C 0.59031 0.0419 0.73637 0.0
O276 O 0.64928 0.04624 0.72117 0.0
O277 O 0.63253 0.05735 0.69114 0.0
O278 O 0.61657 0.99265 0.73063 0.0
O279 O 0.61958 0.01372 0.70267 0.0
Co280 Co 0.75776 0.62827 0.04204 0.0
O281 O 0.76306 0.60339 0.05906 0.0
O282 O 0.78374 0.61495 0.03262 0.0
C283 C 0.7496 0.65018 0.06931 0.0
O284 O 0.75817 0.65331 0.02149 0.0
Co285 Co 0.71306 0.6493 0.04007 0.0
O286 O 0.72755 0.67173 0.02274 0.0
C287 C 0.72012 0.60809 0.01829 0.0
C288 C 0.78006 0.60086 0.04745 0.0
C289 C 0.74652 0.66915 0.01584 0.0
O290 O 0.74042 0.61032 0.02132 0.0
O291 O 0.70635 0.62086 0.02625 0.0
O292 O 0.76954 0.64687 0.06452 0.0
O293 O 0.7356 0.63895 0.05872 0.0
Co294 Co 0.87648 0.52829 0.74882 0.0
O295 O 0.90304 0.53301 0.73372 0.0
O296 O 0.88704 0.5015 0.73871 0.0
C297 C 0.85778 0.55463 0.73365 0.0
O298 O 0.84922 0.51641 0.76197 0.0
Co299 Co 0.85659 0.56091 0.78009 0.0
O300 O 0.83111 0.54166 0.77963 0.0
C301 C 0.89352 0.53555 0.79412 0.0
C302 C 0.9029 0.51236 0.73069 0.0
C303 C 0.83261 0.52277 0.7721 0.0
O304 O 0.89276 0.52496 0.77644 0.0
O305 O 0.88119 0.55121 0.79836 0.0
O306 O 0.86033 0.53652 0.72369 0.0
O307 O 0.86825 0.55705 0.75147 0.0
Co308 Co 0.72405 0.36875 0.51075 0.0
O309 O 0.72458 0.34486 0.53046 0.0
O310 O 0.75194 0.35663 0.51109 0.0
C311 C 0.70714 0.39224 0.53186 0.0
O312 O 0.73131 0.39249 0.49014 0.0
Co313 Co 0.68359 0.3899 0.49197 0.0
O314 O 0.70334 0.4133 0.48273 0.0
C315 C 0.69762 0.34791 0.47526 0.0
C316 C 0.74469 0.34332 0.52525 0.0
C317 C 0.72327 0.40936 0.48192 0.0
O318 O 0.71484 0.34918 0.48664 0.0
O319 O 0.6827 0.36178 0.47621 0.0
O320 O 0.7275 0.38884 0.53444 0.0
O321 O 0.69735 0.38002 0.51809 0.0
Co322 Co 0.61564 0.51368 0.213 0.0
O323 O 0.638 0.50767 0.1929 0.0
O324 O 0.62547 0.48491 0.21711 0.0
C325 C 0.59362 0.52904 0.18929 0.0
O326 O 0.5926 0.51327 0.23579 0.0
Co327 Co 0.60082 0.55958 0.22389 0.0
O328 O 0.57807 0.5455 0.24109 0.0
C329 C 0.6422 0.54409 0.24043 0.0
C330 C 0.6387 0.48881 0.20157 0.0
C331 C 0.57891 0.5255 0.24485 0.0
O332 O 0.6375 0.52499 0.23403 0.0
O333 O 0.63048 0.56029 0.23646 0.0
O334 O 0.59398 0.50829 0.19096 0.0
O335 O 0.60727 0.5396 0.20096 0.0
Fe336 Fe 0.12465 0.12853 0.14807 0.0
Fe337 Fe 0.10036 0.16681 0.13004 0.0
O338 O 0.12125 0.14807 0.12804 0.0
Fe339 Fe 0.13878 0.14881 0.1059 0.0
O340 O 0.13078 0.12208 0.09774 0.0
O341 O 0.13458 0.10786 0.12961 0.0
O342 O 0.0982 0.11754 0.14322 0.0
C343 C 0.08115 0.12804 0.14411 0.0
C344 C 0.16628 0.13936 0.1407 0.0
O345 O 0.08156 0.14833 0.1434 0.0
C346 C 0.13557 0.19135 0.11495 0.0
O347 O 0.11522 0.1456 0.17007 0.0
O348 O 0.11064 0.17705 0.15523 0.0
O349 O 0.16217 0.13899 0.12081 0.0
O350 O 0.15135 0.13839 0.15415 0.0
C351 C 0.09845 0.15692 0.08751 0.0
O352 O 0.1155 0.18871 0.11702 0.0
O353 O 0.14768 0.1755 0.11292 0.0
C354 C 0.11375 0.16577 0.1716 0.0
O355 O 0.08872 0.15755 0.10509 0.0
O356 O 0.11866 0.15874 0.08689 0.0
C357 C 0.13216 0.10583 0.10951 0.0
Fe358 Fe 0.10694 0.85762 0.38499 0.0
Fe359 Fe 0.12695 0.89718 0.36419 0.0
O360 O 0.12873 0.87573 0.38234 0.0
Fe361 Fe 0.15224 0.87242 0.39783 0.0
O362 O 0.1566 0.84609 0.38642 0.0
O363 O 0.12365 0.83443 0.39123 0.0
O364 O 0.1085 0.84979 0.35709 0.0
C365 C 0.10681 0.86278 0.3418 0.0
C366 C 0.11873 0.86226 0.42678 0.0
O367 O 0.10987 0.88266 0.34481 0.0
C368 C 0.14831 0.91575 0.39995 0.0
O369 O 0.08624 0.87756 0.37927 0.0
O370 O 0.10412 0.90797 0.37803 0.0
O371 O 0.13818 0.86116 0.42115 0.0
O372 O 0.10409 0.86438 0.41298 0.0
C373 C 0.16813 0.88583 0.35734 0.0
O374 O 0.14364 0.91563 0.3802 0.0
O375 O 0.14939 0.8985 0.41026 0.0
C376 C 0.08674 0.89784 0.38044 0.0
O377 O 0.14972 0.88773 0.34928 0.0
O378 O 0.17045 0.88328 0.37735 0.0
C379 C 0.14326 0.8308 0.38777 0.0
Fe380 Fe 0.37371 0.90272 0.64286 0.0
Fe381 Fe 0.35294 0.88908 0.60036 0.0
O382 O 0.3738 0.88676 0.61942 0.0
Fe383 Fe 0.39477 0.86861 0.61486 0.0
O384 O 0.38883 0.85404 0.63909 0.0
O385 O 0.38643 0.88255 0.65972 0.0
O386 O 0.34834 0.89134 0.65106 0.0
C387 C 0.33143 0.89195 0.64003 0.0
C388 C 0.41609 0.90482 0.63265 0.0
O389 O 0.33225 0.89569 0.62012 0.0
C390 C 0.38981 0.88408 0.57464 0.0
O391 O 0.36093 0.92579 0.63006 0.0
O392 O 0.35961 0.91693 0.59598 0.0
O393 O 0.4154 0.88501 0.62831 0.0
O394 O 0.3992 0.91504 0.63625 0.0
C395 C 0.35771 0.84587 0.60061 0.0
O396 O 0.36971 0.88279 0.57709 0.0
O397 O 0.40219 0.88211 0.59044 0.0
C398 C 0.36005 0.93103 0.6105 0.0
O399 O 0.34522 0.86129 0.60365 0.0
O400 O 0.37784 0.84885 0.60056 0.0
C401 C 0.38818 0.86249 0.65743 0.0
Fe402 Fe 0.3877 0.13768 0.86885 0.0
Fe403 Fe 0.37241 0.09339 0.85358 0.0
O404 O 0.36981 0.11568 0.87089 0.0
Fe405 Fe 0.34922 0.11599 0.89015 0.0
O406 O 0.33768 0.13972 0.8786 0.0
O407 O 0.36797 0.15781 0.87672 0.0
O408 O 0.37976 0.14238 0.84142 0.0
C409 C 0.38151 0.12876 0.82659 0.0
C410 C 0.3845 0.13532 0.91212 0.0
O411 O 0.38278 0.10899 0.83086 0.0
C412 C 0.36078 0.07447 0.89334 0.0
O413 O 0.41061 0.12148 0.86057 0.0
O414 O 0.39919 0.08819 0.86346 0.0
O415 O 0.36456 0.13184 0.90997 0.0
O416 O 0.39676 0.13442 0.89619 0.0
C417 C 0.32906 0.09765 0.85372 0.0
O418 O 0.36238 0.07373 0.87311 0.0
O419 O 0.35942 0.09224 0.90286 0.0
C420 C 0.41439 0.10166 0.86238 0.0
O421 O 0.34586 0.09737 0.84261 0.0
O422 O 0.33005 0.10037 0.87381 0.0
C423 C 0.34766 0.15725 0.87664 0.0
Fe424 Fe 0.60972 0.36325 0.8852 0.0
Fe425 Fe 0.63027 0.40296 0.86507 0.0
O426 O 0.63155 0.38133 0.88309 0.0
Fe427 Fe 0.65468 0.37783 0.89904 0.0
O428 O 0.6594 0.35174 0.88729 0.0
O429 O 0.62637 0.33999 0.8914 0.0
O430 O 0.6118 0.35572 0.85733 0.0
C431 C 0.61046 0.36874 0.84205 0.0
C432 C 0.62072 0.3669 0.92719 0.0
O433 O 0.6136 0.38862 0.84512 0.0
C434 C 0.65031 0.42104 0.90176 0.0
O435 O 0.58918 0.38328 0.87932 0.0
O436 O 0.60713 0.4137 0.87839 0.0
O437 O 0.64024 0.36602 0.92183 0.0
O438 O 0.60636 0.36964 0.91324 0.0
C439 C 0.67149 0.39124 0.85909 0.0
O440 O 0.64666 0.4213 0.88178 0.0
O441 O 0.65115 0.40359 0.91175 0.0
C442 C 0.58968 0.40357 0.88038 0.0
O443 O 0.65331 0.39349 0.85064 0.0
O444 O 0.67334 0.38909 0.87918 0.0
C445 C 0.64605 0.33644 0.88819 0.0
Fe446 Fe 0.84819 0.36286 0.1044 0.0
Fe447 Fe 0.86424 0.3809 0.14731 0.0
O448 O 0.86548 0.3613 0.12686 0.0
Fe449 Fe 0.88408 0.34028 0.12874 0.0
O450 O 0.89697 0.3484 0.10414 0.0
O451 O 0.86725 0.35128 0.08554 0.0
O452 O 0.85912 0.38877 0.09719 0.0
C453 C 0.85951 0.4049 0.10936 0.0
C454 C 0.84689 0.31994 0.1116 0.0
O455 O 0.85679 0.40284 0.12933 0.0
C456 C 0.87118 0.34233 0.17014 0.0
O457 O 0.82595 0.37481 0.11924 0.0
O458 O 0.83658 0.37406 0.15277 0.0
O459 O 0.86693 0.32052 0.11487 0.0
O460 O 0.83634 0.33694 0.11007 0.0
C461 C 0.90748 0.37625 0.14439 0.0
O462 O 0.87156 0.36256 0.16888 0.0
O463 O 0.87257 0.33086 0.15355 0.0
C464 C 0.82174 0.3747 0.13906 0.0
O465 O 0.89192 0.38888 0.14319 0.0
O466 O 0.90453 0.35621 0.14296 0.0
C467 C 0.88746 0.3502 0.08642 0.0
Fe468 Fe 0.85524 0.60694 0.39172 0.0
Fe469 Fe 0.89598 0.62784 0.37425 0.0
O470 O 0.87754 0.6062 0.37455 0.0
Fe471 Fe 0.88136 0.58382 0.35765 0.0
O472 O 0.85608 0.58806 0.34416 0.0
O473 O 0.83742 0.59162 0.37365 0.0
O474 O 0.84535 0.63074 0.37896 0.0
C475 C 0.85575 0.6481 0.37798 0.0
C476 C 0.86571 0.56529 0.39616 0.0
O477 O 0.87594 0.64837 0.38031 0.0
C478 C 0.92239 0.59134 0.37046 0.0
O479 O 0.86894 0.62258 0.41288 0.0
O480 O 0.90238 0.62432 0.40227 0.0
O481 O 0.86916 0.56439 0.37618 0.0
O482 O 0.86378 0.58312 0.40542 0.0
C483 C 0.89325 0.61912 0.33166 0.0
O484 O 0.91931 0.61121 0.36799 0.0
O485 O 0.90684 0.57827 0.37021 0.0
C486 C 0.88867 0.62551 0.41695 0.0
O487 O 0.89057 0.63269 0.34635 0.0
O488 O 0.8941 0.59929 0.33592 0.0
C489 C 0.83831 0.58866 0.3536 0.0
Fe490 Fe 0.8809 0.84712 0.87219 0.0
Fe491 Fe 0.8392 0.86645 0.88811 0.0
O492 O 0.86099 0.86678 0.87026 0.0
Fe493 Fe 0.8629 0.88681 0.85054 0.0
O494 O 0.88805 0.89648 0.86147 0.0
O495 O 0.90291 0.86487 0.86313 0.0
O496 O 0.88761 0.85547 0.89912 0.0
C497 C 0.87452 0.8552 0.91439 0.0
C498 C 0.87725 0.84941 0.82901 0.0
O499 O 0.8545 0.8552 0.91077 0.0
C500 C 0.82026 0.87864 0.84844 0.0
O501 O 0.8625 0.82586 0.88174 0.0
O502 O 0.83076 0.84024 0.87883 0.0
O503 O 0.87643 0.86965 0.83072 0.0
O504 O 0.87535 0.83773 0.8453 0.0
C505 C 0.84722 0.90919 0.88688 0.0
O506 O 0.81999 0.87774 0.86875 0.0
O507 O 0.83778 0.87829 0.83854 0.0
C508 C 0.84227 0.8239 0.88044 0.0
O509 O 0.84644 0.89267 0.89835 0.0
O510 O 0.84977 0.90761 0.86678 0.0
C511 C 0.90452 0.88515 0.86312 0.0
Fe512 Fe 0.88194 0.10248 0.61141 0.0
Fe513 Fe 0.86459 0.12785 0.57357 0.0
O514 O 0.88424 0.12419 0.59364 0.0
Fe515 Fe 0.90612 0.1422 0.59604 0.0
O516 O 0.89856 0.14951 0.62291 0.0
O517 O 0.89484 0.11647 0.63416 0.0
O518 O 0.85703 0.11241 0.6214 0.0
C519 C 0.84084 0.1162 0.61005 0.0
C520 C 0.92447 0.10158 0.60281 0.0
O521 O 0.84228 0.11694 0.58978 0.0
C522 C 0.90365 0.13829 0.5528 0.0
O523 O 0.8686 0.08457 0.59196 0.0
O524 O 0.87026 0.1021 0.56164 0.0
O525 O 0.92508 0.12177 0.60544 0.0
O526 O 0.90684 0.0916 0.60225 0.0
C527 C 0.87095 0.16889 0.58729 0.0
O528 O 0.88342 0.13974 0.554 0.0
O529 O 0.91482 0.13582 0.5694 0.0
C530 C 0.8695 0.08467 0.57169 0.0
O531 O 0.8579 0.1536 0.58447 0.0
O532 O 0.891 0.16581 0.58699 0.0
C533 C 0.89625 0.13639 0.63798 0.0
Fe534 Fe 0.62618 0.07968 0.36233 0.0
Fe535 Fe 0.65106 0.10319 0.39807 0.0
O536 O 0.62791 0.10028 0.38184 0.0
Fe537 Fe 0.60646 0.11808 0.38521 0.0
O538 O 0.60912 0.12744 0.35814 0.0
O539 O 0.61035 0.09552 0.34317 0.0
O540 O 0.64965 0.08981 0.34881 0.0
C541 C 0.66781 0.0923 0.35736 0.0
C542 C 0.58533 0.07828 0.37734 0.0
O543 O 0.66976 0.09351 0.37754 0.0
C544 C 0.61706 0.11099 0.42677 0.0
O545 O 0.64195 0.06034 0.37804 0.0
O546 O 0.64716 0.0768 0.40888 0.0
O547 O 0.58552 0.09856 0.3776 0.0
O548 O 0.6024 0.06814 0.37445 0.0
C549 C 0.64303 0.14498 0.3897 0.0
O550 O 0.63659 0.11318 0.42162 0.0
O551 O 0.60269 0.10968 0.41257 0.0
C552 C 0.64612 0.05984 0.39795 0.0
O553 O 0.65628 0.12999 0.38828 0.0
O554 O 0.62343 0.14099 0.39325 0.0
C555 C 0.60819 0.11567 0.34172 0.0
Fe556 Fe 0.60042 0.84617 0.14302 0.0
Fe557 Fe 0.63748 0.87224 0.12429 0.0
O558 O 0.6171 0.86919 0.14351 0.0
Fe559 Fe 0.61331 0.88926 0.16304 0.0
O560 O 0.5866 0.89387 0.15338 0.0
O561 O 0.57647 0.86004 0.15309 0.0
O562 O 0.59095 0.8525 0.11654 0.0
C563 C 0.60278 0.85551 0.10058 0.0
C564 C 0.60657 0.85049 0.18578 0.0
O565 O 0.62286 0.85771 0.10289 0.0
C566 C 0.65675 0.88733 0.16253 0.0
O567 O 0.62143 0.82825 0.13292 0.0
O568 O 0.6505 0.84846 0.13355 0.0
O569 O 0.60379 0.87051 0.18388 0.0
O570 O 0.60898 0.83885 0.1695 0.0
C571 C 0.62126 0.91241 0.12525 0.0
O572 O 0.6557 0.88735 0.14224 0.0
O573 O 0.63999 0.88564 0.17357 0.0
C574 C 0.64164 0.83028 0.13453 0.0
O575 O 0.62535 0.89612 0.11416 0.0
O576 O 0.62184 0.91158 0.14555 0.0
C577 C 0.57206 0.87978 0.15205 0.0
Fe578 Fe 0.37932 0.65898 0.10856 0.0
Fe579 Fe 0.34179 0.63451 0.08756 0.0
O580 O 0.36221 0.63629 0.10723 0.0
Fe581 Fe 0.36563 0.61525 0.1256 0.0
O582 O 0.39227 0.6104 0.11593 0.0
O583 O 0.40282 0.64404 0.11791 0.0
O584 O 0.38872 0.65401 0.08192 0.0
C585 C 0.3771 0.65251 0.06546 0.0
C586 C 0.37254 0.65231 0.15092 0.0
O587 O 0.35703 0.64942 0.06699 0.0
C588 C 0.3223 0.61874 0.12515 0.0
O589 O 0.35893 0.6779 0.09923 0.0
O590 O 0.3294 0.65844 0.09756 0.0
O591 O 0.37551 0.63256 0.14749 0.0
O592 O 0.3709 0.66513 0.13552 0.0
C593 C 0.35647 0.59363 0.0869 0.0
O594 O 0.32296 0.61949 0.10483 0.0
O595 O 0.33927 0.61923 0.13611 0.0
C596 C 0.33866 0.67636 0.09947 0.0
O597 O 0.35305 0.61039 0.07638 0.0
O598 O 0.35632 0.59404 0.10717 0.0
C599 C 0.40703 0.62433 0.11569 0.0
Fe600 Fe 0.12983 0.58261 0.8647 0.0
Fe601 Fe 0.14941 0.60916 0.9016 0.0
O602 O 0.12912 0.60493 0.88218 0.0
Fe603 Fe 0.10793 0.62317 0.88011 0.0
O604 O 0.1158 0.63004 0.8533 0.0
O605 O 0.11737 0.59673 0.84197 0.0
O606 O 0.1552 0.59136 0.85402 0.0
C607 C 0.17191 0.59489 0.86491 0.0
C608 C 0.08732 0.58325 0.87346 0.0
O609 O 0.17099 0.59791 0.885 0.0
C610 C 0.11096 0.61915 0.92326 0.0
O611 O 0.14286 0.56475 0.88413 0.0
O612 O 0.14369 0.58367 0.91385 0.0
O613 O 0.08821 0.60328 0.87054 0.0
O614 O 0.10425 0.57254 0.87443 0.0
C615 C 0.1435 0.65028 0.88887 0.0
O616 O 0.13119 0.62087 0.92156 0.0
O617 O 0.09924 0.61707 0.90687 0.0
C618 C 0.14449 0.56589 0.90436 0.0
O619 O 0.1565 0.63513 0.89064 0.0
O620 O 0.12354 0.64657 0.88928 0.0
C621 C 0.11706 0.6167 0.83818 0.0
Fe622 Fe 0.14191 0.36608 0.63852 0.0
Fe623 Fe 0.09849 0.34992 0.65408 0.0
O624 O 0.12082 0.36739 0.65707 0.0
Fe625 Fe 0.12198 0.38603 0.67847 0.0
O626 O 0.14648 0.37495 0.68883 0.0
O627 O 0.16293 0.37375 0.65783 0.0
O628 O 0.14711 0.3388 0.64577 0.0
C629 C 0.13354 0.32381 0.64424 0.0
C630 C 0.13797 0.40926 0.64294 0.0
O631 O 0.11381 0.32783 0.64206 0.0
C632 C 0.08009 0.38897 0.66666 0.0
O633 O 0.12461 0.35824 0.61567 0.0
O634 O 0.09204 0.36111 0.62832 0.0
O635 O 0.13648 0.40685 0.66308 0.0
O636 O 0.13779 0.39332 0.63053 0.0
C637 C 0.10534 0.34804 0.69702 0.0
O638 O 0.07905 0.36871 0.66561 0.0
O639 O 0.09777 0.39845 0.66938 0.0
C640 C 0.10479 0.36152 0.61278 0.0
O641 O 0.10399 0.33799 0.67956 0.0
O642 O 0.10752 0.36831 0.69744 0.0
C643 C 0.16324 0.37256 0.67804 0.0
Fe644 Fe 0.64333 0.63546 0.6098 0.0
Fe645 Fe 0.62263 0.61513 0.64917 0.0
O646 O 0.623 0.63531 0.62943 0.0
Fe647 Fe 0.60317 0.65529 0.62948 0.0
O648 O 0.59435 0.64785 0.60286 0.0
O649 O 0.62637 0.64649 0.58851 0.0
O650 O 0.63532 0.6091 0.60019 0.0
C651 C 0.63473 0.59269 0.61182 0.0
C652 C 0.64122 0.67816 0.61932 0.0
O653 O 0.63434 0.59448 0.63201 0.0
C654 C 0.61105 0.652 0.6723 0.0
O655 O 0.66399 0.62454 0.62765 0.0
O656 O 0.64857 0.62375 0.65918 0.0
O657 O 0.62096 0.67663 0.61939 0.0
O658 O 0.65261 0.66171 0.61815 0.0
C659 C 0.58016 0.61716 0.63934 0.0
O660 O 0.61092 0.63188 0.67005 0.0
O661 O 0.61067 0.66407 0.65621 0.0
C662 C 0.66521 0.62498 0.64792 0.0
O663 O 0.59657 0.60561 0.64029 0.0
O664 O 0.58186 0.63743 0.63952 0.0
C665 C 0.60617 0.64701 0.58661 0.0
Fe666 Fe 0.41559 0.36842 0.37729 0.0
Fe667 Fe 0.3919 0.40726 0.35943 0.0
O668 O 0.39286 0.38501 0.37672 0.0
Fe669 Fe 0.37093 0.37905 0.3935 0.0
O670 O 0.36684 0.35364 0.38021 0.0
O671 O 0.40026 0.3436 0.38339 0.0
O672 O 0.41224 0.36154 0.34954 0.0
C673 C 0.41139 0.3747 0.33438 0.0
C674 C 0.40701 0.36949 0.4196 0.0
O675 O 0.40718 0.3943 0.33769 0.0
C676 C 0.3729 0.4222 0.39818 0.0
O677 O 0.43494 0.38998 0.37082 0.0
O678 O 0.41563 0.41904 0.37147 0.0
O679 O 0.38731 0.36704 0.41494 0.0
O680 O 0.42028 0.37439 0.40527 0.0
C681 C 0.35069 0.3931 0.35546 0.0
O682 O 0.37636 0.42393 0.37821 0.0
O683 O 0.37382 0.40429 0.40735 0.0
C684 C 0.4336 0.41019 0.37202 0.0
O685 O 0.36808 0.39705 0.34613 0.0
O686 O 0.35038 0.38989 0.37545 0.0
C687 C 0.3807 0.33919 0.37955 0.0
H688 H 0.03496 0.26071 0.32751 0.0
H689 H 0.04853 0.23935 0.29783 0.0
H690 H 0.11015 0.23585 0.32907 0.0
H691 H 0.0969 0.25754 0.35871 0.0
H692 H 0.11351 0.24706 0.28722 0.0
H693 H 0.06066 0.17571 0.29491 0.0
H694 H 0.04577 0.20005 0.29358 0.0
H695 H 0.06351 0.19557 0.31589 0.0
C696 C 0.05135 0.25526 0.32821 0.0
C697 C 0.06483 0.26084 0.34553 0.0
C698 C 0.05903 0.24292 0.31128 0.0
C699 C 0.08023 0.23572 0.31145 0.0
C700 C 0.0937 0.24116 0.32872 0.0
H701 H 0.11935 0.14681 0.21063 0.0
H702 H 0.11478 0.1631 0.24598 0.0
C703 C 0.08608 0.25357 0.34563 0.0
C704 C 0.08861 0.22359 0.29298 0.0
H705 H 0.07819 0.18021 0.26103 0.0
C706 C 0.10599 0.23228 0.28164 0.0
C707 C 0.07907 0.20409 0.28599 0.0
C708 C 0.06137 0.19318 0.29837 0.0
C709 C 0.11337 0.22257 0.26283 0.0
C710 C 0.10277 0.20395 0.25499 0.0
C711 C 0.08613 0.19464 0.26694 0.0
C712 C 0.10769 0.19461 0.23379 0.0
C713 C 0.13232 0.23243 0.25148 0.0
C714 C 0.10533 0.20698 0.21526 0.0
C715 C 0.10799 0.19778 0.19507 0.0
C716 C 0.11279 0.17592 0.19301 0.0
C717 C 0.11559 0.16366 0.21164 0.0
C718 C 0.113 0.17293 0.23185 0.0
H719 H 0.14274 0.24169 0.26277 0.0
H720 H 0.14211 0.22003 0.24349 0.0
H721 H 0.1265 0.24368 0.23911 0.0
H722 H 0.10073 0.22361 0.21637 0.0
H723 H 0.10567 0.20767 0.18107 0.0
H724 H 0.04391 0.73357 0.54688 0.0
H725 H 0.06365 0.76001 0.52593 0.0
H726 H 0.0678 0.80185 0.58103 0.0
H727 H 0.04746 0.7757 0.60202 0.0
H728 H 0.05653 0.82355 0.54661 0.0
H729 H 0.12638 0.77458 0.52616 0.0
H730 H 0.10217 0.76068 0.51867 0.0
H731 H 0.10747 0.76665 0.5465 0.0
C732 C 0.04914 0.74831 0.55462 0.0
C733 C 0.04416 0.75248 0.57614 0.0
C734 C 0.0606 0.76335 0.54266 0.0
C735 C 0.06767 0.78268 0.55206 0.0
C736 C 0.06267 0.78695 0.57352 0.0
H737 H 0.1453 0.85579 0.46117 0.0
H738 H 0.13529 0.84146 0.49617 0.0
C739 C 0.051 0.77199 0.58546 0.0
C740 C 0.07911 0.79884 0.53896 0.0
H741 H 0.11848 0.8036 0.50167 0.0
C742 C 0.07036 0.81936 0.5371 0.0
C743 C 0.09758 0.79369 0.52708 0.0
C744 C 0.10907 0.77277 0.52991 0.0
C745 C 0.0785 0.83417 0.52232 0.0
C746 C 0.09538 0.82804 0.50867 0.0
C747 C 0.10527 0.80823 0.51184 0.0
C748 C 0.10125 0.84048 0.48938 0.0
C749 C 0.06859 0.85604 0.5212 0.0
C750 C 0.08543 0.84514 0.47412 0.0
C751 C 0.09105 0.85347 0.45424 0.0
C752 C 0.1127 0.85691 0.449 0.0
C753 C 0.12849 0.8532 0.46465 0.0
C754 C 0.1228 0.84503 0.48467 0.0
H755 H 0.063 0.86125 0.53724 0.0
H756 H 0.08005 0.86825 0.51501 0.0
H757 H 0.05439 0.85532 0.51045 0.0
H758 H 0.06876 0.84123 0.47707 0.0
H759 H 0.07846 0.85612 0.44259 0.0
H760 H 0.51002 0.81136 0.80788 0.0
H761 H 0.48967 0.81938 0.77531 0.0
H762 H 0.43367 0.78863 0.80208 0.0
H763 H 0.45402 0.77995 0.83425 0.0
H764 H 0.43799 0.779 0.76005 0.0
H765 H 0.44611 0.86663 0.77346 0.0
H766 H 0.47142 0.85351 0.7715 0.0
H767 H 0.45377 0.84735 0.79338 0.0
C768 C 0.49341 0.80626 0.80674 0.0
C769 C 0.48352 0.79528 0.82365 0.0
C770 C 0.48179 0.81089 0.7882 0.0
C771 C 0.46006 0.80498 0.78652 0.0
C772 C 0.4504 0.7934 0.80311 0.0
H773 H 0.37625 0.8697 0.69851 0.0
H774 H 0.39038 0.85245 0.73056 0.0
C775 C 0.46204 0.78854 0.8215 0.0
C776 C 0.4471 0.81154 0.7679 0.0
H777 H 0.43103 0.85542 0.7403 0.0
C778 C 0.43635 0.79571 0.75574 0.0
C779 C 0.4446 0.83336 0.76267 0.0
C780 C 0.4544 0.85121 0.77606 0.0
C781 C 0.42349 0.80114 0.73814 0.0
C782 C 0.42184 0.82292 0.73234 0.0
C783 C 0.43234 0.83871 0.74474 0.0
C784 C 0.40997 0.82998 0.71314 0.0
C785 C 0.41158 0.78357 0.72621 0.0
C786 C 0.41566 0.8225 0.69275 0.0
C787 C 0.40728 0.83208 0.67443 0.0
C788 C 0.39355 0.84962 0.6763 0.0
C789 C 0.38697 0.85631 0.69669 0.0
C790 C 0.39501 0.84647 0.71496 0.0
H791 H 0.40868 0.76944 0.73659 0.0
H792 H 0.39595 0.7892 0.72 0.0
H793 H 0.42138 0.77824 0.71245 0.0
H794 H 0.42753 0.81015 0.69094 0.0
H795 H 0.41272 0.82672 0.65888 0.0
H796 H 0.45273 0.25174 0.07273 0.0
H797 H 0.43326 0.23746 0.04135 0.0
H798 H 0.46039 0.17528 0.05238 0.0
H799 H 0.47936 0.18916 0.08374 0.0
H800 H 0.44867 0.21887 0.00461 0.0
H801 H 0.39691 0.16121 0.04786 0.0
H802 H 0.41175 0.18235 0.06138 0.0
H803 H 0.42469 0.15773 0.05424 0.0
C804 C 0.45444 0.23502 0.06845 0.0
C805 C 0.46742 0.22153 0.08074 0.0
C806 C 0.44333 0.2269 0.05058 0.0
C807 C 0.44503 0.20521 0.04487 0.0
C808 C 0.45838 0.19191 0.05687 0.0
H809 H 0.42633 0.14181 0.92397 0.0
H810 H 0.43976 0.15968 0.95637 0.0
C811 C 0.46934 0.19993 0.07471 0.0
C812 C 0.43355 0.19638 0.02597 0.0
H813 H 0.40087 0.15501 0.01007 0.0
C814 C 0.43799 0.20508 0.00579 0.0
C815 C 0.41932 0.17865 0.02761 0.0
C816 C 0.4127 0.16959 0.04897 0.0
C817 C 0.42936 0.19586 0.98707 0.0
C818 C 0.4164 0.17715 0.98863 0.0
C819 C 0.41114 0.1691 0.00888 0.0
C820 C 0.40832 0.16557 0.96944 0.0
C821 C 0.43418 0.20626 0.96585 0.0
C822 C 0.38626 0.16202 0.9666 0.0
C823 C 0.37855 0.15148 0.94831 0.0
C824 C 0.3928 0.14435 0.93249 0.0
C825 C 0.41494 0.1473 0.93575 0.0
C826 C 0.42263 0.15768 0.95414 0.0
H827 H 0.43842 0.2235 0.96787 0.0
H828 H 0.44806 0.19824 0.95841 0.0
H829 H 0.4203 0.20484 0.95471 0.0
H830 H 0.37497 0.16779 0.97834 0.0
H831 H 0.3614 0.14948 0.9463 0.0
H832 H 0.0551 0.77646 0.16312 0.0
H833 H 0.06994 0.79301 0.19544 0.0
H834 H 0.00926 0.82273 0.20799 0.0
H835 H 0.99402 0.80569 0.17575 0.0
H836 H 0.07447 0.83504 0.20737 0.0
H837 H 0.02134 0.79075 0.26348 0.0
H838 H 0.02351 0.78359 0.23556 0.0
H839 H 0.00761 0.80603 0.24349 0.0
C840 C 0.04486 0.78652 0.17272 0.0
C841 C 0.02332 0.78961 0.16704 0.0
C842 C 0.05341 0.79601 0.19116 0.0
C843 C 0.04061 0.8088 0.20426 0.0
C844 C 0.01926 0.81253 0.1983 0.0
H845 H 0.09264 0.88709 0.30852 0.0
H846 H 0.0766 0.87465 0.27493 0.0
C847 C 0.01063 0.80291 0.17984 0.0
C848 C 0.04975 0.81783 0.22429 0.0
H849 H 0.0453 0.81624 0.27868 0.0
C850 C 0.06807 0.83102 0.22298 0.0
C851 C 0.04152 0.81223 0.24459 0.0
C852 C 0.02253 0.79723 0.24699 0.0
C853 C 0.07849 0.83871 0.24147 0.0
C854 C 0.07005 0.83341 0.26176 0.0
C855 C 0.05166 0.82032 0.26307 0.0
C856 C 0.08022 0.84097 0.28191 0.0
C857 C 0.0988 0.85187 0.2391 0.0
C858 C 0.0872 0.82614 0.29716 0.0
C859 C 0.09616 0.83318 0.31652 0.0
C860 C 0.09828 0.8552 0.32095 0.0
C861 C 0.09142 0.87001 0.30554 0.0
C862 C 0.08232 0.86295 0.28627 0.0
H863 H 0.10618 0.84953 0.22313 0.0
H864 H 0.09499 0.8691 0.24084 0.0
H865 H 0.11072 0.84773 0.25162 0.0
H866 H 0.08565 0.80909 0.29408 0.0
H867 H 0.1013 0.82138 0.32805 0.0
H868 H 0.42863 0.75655 0.43476 0.0
H869 H 0.4196 0.78425 0.46096 0.0
H870 H 0.47176 0.82392 0.43837 0.0
H871 H 0.48089 0.7964 0.41208 0.0
H872 H 0.44798 0.80197 0.49331 0.0
H873 H 0.41795 0.86316 0.43636 0.0
H874 H 0.42022 0.83523 0.42914 0.0
H875 H 0.44377 0.85194 0.43089 0.0
C876 C 0.43819 0.77115 0.43539 0.0
C877 C 0.45542 0.77434 0.42137 0.0
C878 C 0.43299 0.78694 0.4503 0.0
C879 C 0.44485 0.80617 0.45129 0.0
C880 C 0.46223 0.80931 0.43753 0.0
H881 H 0.43181 0.88822 0.56308 0.0
H882 H 0.44772 0.87421 0.53028 0.0
C883 C 0.46748 0.79351 0.42266 0.0
C884 C 0.43934 0.8226 0.46728 0.0
H885 H 0.41777 0.87225 0.47311 0.0
C886 C 0.44157 0.81742 0.48895 0.0
C887 C 0.43095 0.84266 0.46136 0.0
C888 C 0.4279 0.84866 0.43819 0.0
C889 C 0.43513 0.83161 0.505 0.0
C890 C 0.42653 0.85162 0.49913 0.0
C891 C 0.42465 0.857 0.47745 0.0
C892 C 0.41735 0.86585 0.51547 0.0
C893 C 0.43671 0.82468 0.52809 0.0
C894 C 0.39503 0.86722 0.51712 0.0
C895 C 0.38586 0.87527 0.53577 0.0
C896 C 0.39897 0.88188 0.55302 0.0
C897 C 0.42131 0.88283 0.55022 0.0
C898 C 0.43044 0.87488 0.53151 0.0
H899 H 0.44036 0.80738 0.5296 0.0
H900 H 0.44971 0.83397 0.53621 0.0
H901 H 0.42152 0.82786 0.53665 0.0
H902 H 0.38471 0.8604 0.50478 0.0
H903 H 0.36859 0.87456 0.53732 0.0
H904 H 0.51183 0.20907 0.71029 0.0
H905 H 0.48481 0.18992 0.73106 0.0
H906 H 0.44345 0.18633 0.67557 0.0
H907 H 0.47022 0.20599 0.65471 0.0
H908 H 0.42167 0.19784 0.71067 0.0
H909 H 0.47008 0.12689 0.72914 0.0
H910 H 0.48401 0.15099 0.73695 0.0
H911 H 0.47793 0.14613 0.70909 0.0
C912 C 0.49705 0.20414 0.70243 0.0
C913 C 0.49326 0.20897 0.6808 0.0
C914 C 0.48167 0.19305 0.7143 0.0
C915 C 0.46234 0.18625 0.70471 0.0
C916 C 0.45836 0.19126 0.68321 0.0
H917 H 0.38768 0.10459 0.79046 0.0
H918 H 0.40236 0.11684 0.75635 0.0
C919 C 0.47368 0.20252 0.67134 0.0
C920 C 0.44606 0.17469 0.71754 0.0
H921 H 0.44058 0.13377 0.75305 0.0
C922 C 0.42564 0.18359 0.71965 0.0
C923 C 0.45097 0.15573 0.72873 0.0
C924 C 0.47186 0.14425 0.72566 0.0
C925 C 0.4106 0.17495 0.73394 0.0
C926 C 0.41639 0.15733 0.74679 0.0
C927 C 0.43619 0.14748 0.74344 0.0
C928 C 0.4035 0.15035 0.76541 0.0
C929 C 0.38883 0.18504 0.73536 0.0
C930 C 0.3987 0.16517 0.7816 0.0
C931 C 0.39016 0.15826 0.801 0.0
C932 C 0.38664 0.13631 0.80477 0.0
C933 C 0.39034 0.12159 0.78812 0.0
C934 C 0.39872 0.12856 0.76861 0.0
H935 H 0.38393 0.19173 0.71965 0.0
H936 H 0.3764 0.17335 0.74063 0.0
H937 H 0.38955 0.19851 0.74702 0.0
H938 H 0.40273 0.18198 0.77979 0.0
H939 H 0.3875 0.17005 0.81345 0.0
H940 H 0.98602 0.14757 0.91015 0.0
H941 H 0.00429 0.13689 0.94317 0.0
H942 H 0.01833 0.20322 0.95775 0.0
H943 H -0.00013 0.21407 0.92527 0.0
H944 H 0.04599 0.14362 0.95673 0.0
H945 H 0.98962 0.18261 0.01215 0.0
H946 H 0.9835 0.17834 0.98416 0.0
H947 H -0.00036 0.20103 0.99255 0.0
C948 C 0.99296 0.15988 0.92042 0.0
C949 C 0.99129 0.18169 0.91516 0.0
C950 C 0.00338 0.15374 0.93925 0.0
C951 C 0.01222 0.16931 0.95308 0.0
C952 C 0.01108 0.191 0.94757 0.0
H953 H 0.11145 0.16748 0.04713 0.0
H954 H 0.08984 0.1669 0.01439 0.0
C955 C 0.0006 0.19715 0.92891 0.0
C956 C 0.02303 0.16314 0.97317 0.0
H957 H 0.02436 0.17454 0.02655 0.0
C958 C 0.04112 0.15009 0.97208 0.0
C959 C 0.01633 0.17118 0.99321 0.0
C960 C 0.99607 0.18386 0.99565 0.0
C961 C 0.05342 0.14586 0.99042 0.0
C962 C 0.04771 0.15542 0.01014 0.0
C963 C 0.02894 0.16747 0.01137 0.0
C964 C 0.06133 0.15404 0.02954 0.0
C965 C 0.0724 0.1313 0.98842 0.0
C966 C 0.05237 0.14747 0.04903 0.0
C967 C 0.06451 0.1483 0.06783 0.0
C968 C 0.08591 0.15559 0.06747 0.0
C969 C 0.09503 0.1617 0.04787 0.0
C970 C 0.08276 0.16116 0.02911 0.0
H971 H 0.07017 0.11974 0.97498 0.0
H972 H 0.08695 0.14107 0.98502 0.0
H973 H 0.07516 0.12219 0.00339 0.0
H974 H 0.03584 0.14201 0.04974 0.0
H975 H 0.05711 0.14328 0.08267 0.0
H976 H 0.32881 0.03414 0.18441 0.0
H977 H 0.30078 0.0565 0.16932 0.0
H978 H 0.31369 0.10473 0.21753 0.0
H979 H 0.34201 0.0825 0.23266 0.0
H980 H 0.26532 0.0681 0.19418 0.0
H981 H 0.30763 0.13953 0.16119 0.0
H982 H 0.32098 0.11452 0.16622 0.0
H983 H 0.31479 0.13213 0.18807 0.0
C984 C 0.32593 0.04964 0.19162 0.0
C985 C 0.33747 0.05651 0.20982 0.0
C986 C 0.30997 0.06242 0.18294 0.0
C987 C 0.30531 0.0823 0.19222 0.0
C988 C 0.31731 0.08959 0.20993 0.0
H989 H 0.181 0.1408 0.18196 0.0
H990 H 0.21636 0.13041 0.19485 0.0
C991 C 0.33336 0.0768 0.21863 0.0
C992 C 0.28628 0.09404 0.18488 0.0
H993 H 0.26958 0.14037 0.1616 0.0
C994 C 0.26625 0.0839 0.18706 0.0
C995 C 0.28764 0.11461 0.17558 0.0
C996 C 0.30891 0.12586 0.17242 0.0
C997 C 0.24747 0.09372 0.18013 0.0
C998 C 0.24874 0.11439 0.17107 0.0
C999 C 0.26875 0.1246 0.16878 0.0
C1000 C 0.22926 0.125 0.16325 0.0
C1001 C 0.22641 0.08174 0.18221 0.0
C1002 C 0.22526 0.12633 0.1412 0.0
C1003 C 0.20506 0.13224 0.13374 0.0
C1004 C 0.18858 0.13682 0.14828 0.0
C1005 C 0.19323 0.13704 0.17035 0.0
C1006 C 0.21343 0.13119 0.17776 0.0
H1007 H 0.22871 0.0645 0.18576 0.0
H1008 H 0.21707 0.08886 0.19547 0.0
H1009 H 0.21679 0.08308 0.16728 0.0
H1010 H 0.23736 0.12159 0.1298 0.0
H1011 H 0.20206 0.13211 0.11664 0.0
H1012 H 0.24718 0.08231 0.47778 0.0
H1013 H 0.23531 0.04666 0.46598 0.0
H1014 H 0.17319 0.07153 0.4499 0.0
H1015 H 0.18472 0.10715 0.46175 0.0
H1016 H 0.17237 0.0334 0.47492 0.0
H1017 H 0.22463 0.02705 0.40331 0.0
H1018 H 0.23796 0.03387 0.42806 0.0
H1019 H 0.21943 0.05228 0.41642 0.0
C1020 C 0.23104 0.08027 0.47156 0.0
C1021 C 0.21693 0.09764 0.47064 0.0
C1022 C 0.22432 0.05989 0.46482 0.0
C1023 C 0.20345 0.05659 0.45697 0.0
C1024 C 0.18937 0.07384 0.45594 0.0
H1025 H 0.14697 0.95563 0.38261 0.0
H1026 H 0.16036 0.9891 0.39818 0.0
C1027 C 0.19604 0.09419 0.46266 0.0
C1028 C 0.19607 0.03511 0.45004 0.0
H1029 H 0.20322 0.99686 0.4117 0.0
C1030 C 0.17914 0.02531 0.46117 0.0
C1031 C 0.20492 0.02481 0.43202 0.0
C1032 C 0.22263 0.03504 0.4191 0.0
C1033 C 0.17064 0.00543 0.45458 0.0
C1034 C 0.17951 0.99513 0.43657 0.0
C1035 C 0.19659 0.00483 0.42559 0.0
C1036 C 0.17053 0.97486 0.42798 0.0
C1037 C 0.15185 0.99592 0.46648 0.0
C1038 C 0.1717 0.95582 0.43973 0.0
C1039 C 0.16401 0.93657 0.43089 0.0
C1040 C 0.15519 0.93613 0.41011 0.0
C1041 C 0.15376 0.95537 0.3986 0.0
C1042 C 0.16141 0.97452 0.40745 0.0
H1043 H 0.14438 0.00774 0.4774 0.0
H1044 H 0.13947 0.9898 0.45508 0.0
H1045 H 0.15737 0.98223 0.47622 0.0
H1046 H 0.17895 0.95578 0.45553 0.0
H1047 H 0.16539 0.92202 0.44014 0.0
H1048 H 0.15239 0.93231 0.73904 0.0
H1049 H 0.18419 0.91147 0.72993 0.0
H1050 H 0.20637 0.96266 0.68923 0.0
H1051 H 0.17478 0.98348 0.6981 0.0
H1052 H 0.19824 0.89966 0.68589 0.0
H1053 H 0.25722 0.94927 0.73146 0.0
H1054 H 0.22889 0.94909 0.73728 0.0
H1055 H 0.23914 0.96454 0.71529 0.0
C1056 C 0.1641 0.93912 0.72821 0.0
C1057 C 0.16116 0.95952 0.7193 0.0
C1058 C 0.18218 0.9272 0.72302 0.0
C1059 C 0.19761 0.93569 0.70912 0.0
C1060 C 0.19469 0.95601 0.70021 0.0
H1061 H 0.29194 0.89991 0.62294 0.0
H1062 H 0.25858 0.90496 0.64233 0.0
C1063 C 0.17661 0.96783 0.70523 0.0
C1064 C 0.21673 0.92339 0.70333 0.0
H1065 H 0.27116 0.9273 0.70337 0.0
C1066 C 0.21423 0.90536 0.69002 0.0
C1067 C 0.23746 0.93071 0.70909 0.0
C1068 C 0.24092 0.94935 0.72424 0.0
C1069 C 0.23208 0.89536 0.68104 0.0
C1070 C 0.25278 0.90386 0.68535 0.0
C1071 C 0.25526 0.92091 0.69993 0.0
C1072 C 0.27187 0.89702 0.67335 0.0
C1073 C 0.2286 0.87617 0.66662 0.0
C1074 C 0.2904 0.89079 0.68433 0.0
C1075 C 0.30958 0.88814 0.67332 0.0
C1076 C 0.31059 0.89184 0.65113 0.0
C1077 C 0.29172 0.89698 0.64001 0.0
C1078 C 0.27257 0.89967 0.65106 0.0
H1079 H 0.21363 0.86737 0.6708 0.0
H1080 H 0.22703 0.88166 0.64982 0.0
H1081 H 0.24225 0.86499 0.66758 0.0
H1082 H 0.29019 0.88878 0.70155 0.0
H1083 H 0.32378 0.88397 0.68234 0.0
H1084 H 0.25921 0.9098 0.97058 0.0
H1085 H 0.28775 0.93353 0.95795 0.0
H1086 H 0.24223 0.98425 0.94977 0.0
H1087 H 0.21338 0.96042 0.96187 0.0
H1088 H 0.26812 0.98032 0.91569 0.0
H1089 H 0.31696 0.98209 0.99018 0.0
H1090 H 0.31189 0.95559 0.97993 0.0
H1091 H 0.28996 0.97144 0.98929 0.0
C1092 C 0.25524 0.92603 0.96617 0.0
C1093 C 0.23401 0.93325 0.96729 0.0
C1094 C 0.27163 0.93962 0.9591 0.0
C1095 C 0.26719 0.96077 0.95334 0.0
C1096 C 0.246 0.96799 0.95426 0.0
H1097 H 0.34588 0.07136 0.93435 0.0
H1098 H 0.32619 0.04113 0.94947 0.0
C1099 C 0.22954 0.95435 0.96114 0.0
C1100 C 0.28446 0.97521 0.94562 0.0
H1101 H 0.3323 -0.00136 0.95963 0.0
C1102 C 0.28217 0.98431 0.92527 0.0
C1103 C 0.30269 0.98047 0.95827 0.0
C1104 C 0.30548 0.97207 0.98071 0.0
C1105 C 0.29748 -0.00127 0.91726 0.0
C1106 C 0.31594 0.00367 0.9297 0.0
C1107 C 0.31833 0.99448 0.95001 0.0
C1108 C 0.33177 0.01995 0.9226 0.0
C1109 C 0.29328 0.00918 0.8959 0.0
C1110 C 0.34258 0.01757 0.90312 0.0
C1111 C 0.35369 0.03493 0.89427 0.0
C1112 C 0.35433 0.05484 0.90493 0.0
C1113 C 0.3455 0.05636 0.92557 0.0
C1114 C 0.33423 0.03907 0.93427 0.0
H1115 H 0.27627 0.00733 0.89081 0.0
H1116 H 0.29737 0.02653 0.89651 0.0
H1117 H 0.30337 0.00158 0.8835 0.0
H1118 H 0.34134 0.00271 0.89416 0.0
H1119 H 0.36063 0.03312 0.87852 0.0
H1120 H 0.31881 0.97882 0.24877 0.0
H1121 H 0.29126 0.95352 0.26042 0.0
H1122 H 0.26843 -1e-05 0.30598 0.0
H1123 H 0.29574 0.02572 0.29401 0.0
H1124 H 0.28727 0.93654 0.29954 0.0
H1125 H 0.21321 0.97954 0.27809 0.0
H1126 H 0.23921 0.98749 0.26817 0.0
H1127 H 0.231 0.99533 0.29462 0.0
C1128 C 0.3078 0.98379 0.26113 0.0
C1129 C 0.30949 0.00427 0.27054 0.0
C1130 C 0.29206 0.96929 0.26775 0.0
C1131 C 0.2777 0.97492 0.28393 0.0
C1132 C 0.27908 0.99547 0.29314 0.0
H1133 H 0.2085 0.89619 0.37135 0.0
H1134 H 0.23628 0.91481 0.35118 0.0
C1135 C 0.29474 0.01013 0.28636 0.0
C1136 C 0.26222 0.95877 0.29201 0.0
H1137 H 0.20923 0.94999 0.30202 0.0
C1138 C 0.27017 0.93937 0.29988 0.0
C1139 C 0.23992 0.96233 0.29208 0.0
C1140 C 0.23029 0.9822 0.28258 0.0
C1141 C 0.25646 0.92373 0.30852 0.0
C1142 C 0.2343 0.92783 0.30973 0.0
C1143 C 0.22627 0.94691 0.30119 0.0
C1144 C 0.21921 0.91331 0.32093 0.0
C1145 C 0.26586 0.90299 0.31621 0.0
C1146 C 0.2005 0.90595 0.31056 0.0
C1147 C 0.18444 0.89548 0.32212 0.0
C1148 C 0.1868 0.89227 0.34429 0.0
C1149 C 0.20619 0.89832 0.3543 0.0
C1150 C 0.22217 0.90892 0.34275 0.0
H1151 H 0.28101 0.89936 0.30775 0.0
H1152 H 0.26961 0.90441 0.33355 0.0
H1153 H 0.25448 0.88935 0.31384 0.0
H1154 H 0.19793 0.90916 0.29372 0.0
H1155 H 0.16974 0.8909 0.31391 0.0
H1156 H 0.26437 0.10315 0.56219 0.0
H1157 H 0.2833 0.07541 0.58184 0.0
H1158 H 0.32952 0.07115 0.53092 0.0
H1159 H 0.31102 0.0994 0.51146 0.0
H1160 H 0.28769 0.03543 0.56836 0.0
H1161 H 0.36832 0.07081 0.58272 0.0
H1162 H 0.34576 0.08666 0.57447 0.0
H1163 H 0.36067 0.07166 0.55501 0.0
C1164 C 0.27872 0.09649 0.5553 0.0
C1165 C 0.2862 0.10333 0.53527 0.0
C1166 C 0.28956 0.08072 0.56659 0.0
C1167 C 0.30799 0.07146 0.558 0.0
C1168 C 0.31568 0.0785 0.53812 0.0
H1169 H 0.36138 0.94842 0.57057 0.0
H1170 H 0.35095 0.98451 0.56021 0.0
C1171 C 0.30497 0.09447 0.52692 0.0
C1172 C 0.31773 0.05287 0.56871 0.0
H1173 H 0.36516 0.03242 0.58621 0.0
C1174 C 0.30455 0.03494 0.57259 0.0
C1175 C 0.33973 0.05228 0.57425 0.0
C1176 C 0.35439 0.07148 0.5716 0.0
C1177 C 0.31294 0.01614 0.58112 0.0
C1178 C 0.33505 0.01525 0.58572 0.0
C1179 C 0.3482 0.03328 0.5825 0.0
C1180 C 0.34467 0.99505 0.59256 0.0
C1181 C 0.29831 0.99704 0.58457 0.0
C1182 C 0.34498 0.98941 0.61424 0.0
C1183 C 0.35089 0.96878 0.62025 0.0
C1184 C 0.35635 0.95354 0.6046 0.0
C1185 C 0.35701 0.95971 0.58298 0.0
C1186 C 0.35122 0.98032 0.57703 0.0
H1187 H 0.2813 0.00064 0.58094 0.0
H1188 H 0.30339 0.98357 0.57418 0.0
H1189 H 0.29954 0.99164 0.60144 0.0
H1190 H 0.33981 0.00066 0.62636 0.0
H1191 H 0.3503 0.96454 0.63704 0.0
H1192 H 0.14489 0.07066 0.75957 0.0
H1193 H 0.17818 0.08432 0.77559 0.0
H1194 H 0.19285 0.02091 0.798 0.0
H1195 H 0.15994 0.00696 0.78151 0.0
H1196 H 0.19387 0.08517 0.81597 0.0
H1197 H 0.24578 0.03608 0.76407 0.0
H1198 H 0.21744 0.03876 0.7592 0.0
H1199 H 0.22696 0.02011 0.77886 0.0
C1200 C 0.15512 0.05963 0.76803 0.0
C1201 C 0.1499 0.03767 0.76906 0.0
C1202 C 0.17415 0.06747 0.77714 0.0
C1203 C 0.18819 0.05352 0.7875 0.0
C1204 C 0.18251 0.03181 0.7895 0.0
H1205 H 0.29218 0.08497 0.8734 0.0
H1206 H 0.25787 0.07585 0.85663 0.0
C1207 C 0.16363 0.0239 0.78019 0.0
C1208 C 0.20894 0.0616 0.79598 0.0
H1209 H 0.26276 0.05327 0.79397 0.0
C1210 C 0.20896 0.07832 0.81108 0.0
C1211 C 0.22862 0.05297 0.78916 0.0
C1212 C 0.22977 0.03615 0.77176 0.0
C1213 C 0.22815 0.08619 0.82008 0.0
C1214 C 0.24771 0.07664 0.81422 0.0
C1215 C 0.24772 0.06039 0.79863 0.0
C1216 C 0.26834 0.08285 0.82439 0.0
C1217 C 0.22725 0.10478 0.83557 0.0
C1218 C 0.28582 0.08916 0.81176 0.0
C1219 C 0.30561 0.09399 0.82126 0.0
C1220 C 0.30819 0.09267 0.84358 0.0
C1221 C 0.29063 0.08638 0.85618 0.0
C1222 C 0.27095 0.08131 0.84665 0.0
H1223 H 0.21268 0.11448 0.83294 0.0
H1224 H 0.22665 0.09856 0.85217 0.0
H1225 H 0.24157 0.1154 0.83411 0.0
H1226 H 0.28416 0.0903 0.79452 0.0
H1227 H 0.31884 0.09885 0.81115 0.0
H1228 H 0.20664 0.93018 0.05315 0.0
H1229 H 0.19165 0.96352 0.06647 0.0
H1230 H 0.1384 0.95657 0.02261 0.0
H1231 H 0.1533 0.92288 0.00915 0.0
H1232 H 0.18329 -0.00018 0.03944 0.0
H1233 H 0.11104 0.96992 0.08258 0.0
H1234 H 0.13335 0.95284 0.07642 0.0
H1235 H 0.11511 0.96047 0.05563 0.0
C1236 C 0.19164 0.9356 0.04642 0.0
C1237 C 0.18115 0.92396 0.03007 0.0
C1238 C 0.18311 0.95465 0.05407 0.0
C1239 C 0.1639 0.96238 0.04559 0.0
C1240 C 0.15312 0.95067 0.02951 0.0
H1241 H 0.12804 0.09563 0.06702 0.0
H1242 H 0.13306 0.06066 0.05015 0.0
C1243 C 0.16168 0.93152 0.02181 0.0
C1244 C 0.15608 0.98337 0.05293 0.0
H1245 H 0.11761 0.00722 0.08311 0.0
C1246 C 0.16882 0.00152 0.04881 0.0
C1247 C 0.13728 0.98535 0.06524 0.0
C1248 C 0.12337 0.96615 0.07042 0.0
C1249 C 0.16354 0.02164 0.05709 0.0
C1250 C 0.14484 0.02365 0.06957 0.0
C1251 C 0.13185 0.00556 0.0734 0.0
C1252 C 0.13941 0.04421 0.07985 0.0
C1253 C 0.17844 0.04043 0.0531 0.0
C1254 C 0.14063 0.04629 0.10219 0.0
C1255 C 0.13777 0.06623 0.11192 0.0
C1256 C 0.13361 0.08441 0.09943 0.0
C1257 C 0.13149 0.08202 0.07709 0.0
C1258 C 0.13434 0.06207 0.0674 0.0
H1259 H 0.19415 0.03531 0.04672 0.0
H1260 H 0.17102 0.05125 0.04123 0.0
H1261 H 0.18127 0.04972 0.06809 0.0
H1262 H 0.1445 0.03263 0.11204 0.0
H1263 H 0.13933 0.06747 0.12916 0.0
H1264 H 0.24569 0.32498 0.03131 0.0
H1265 H 0.21749 0.30329 0.0475 0.0
H1266 H 0.21703 0.3455 0.1024 0.0
H1267 H 0.24576 0.36709 0.08654 0.0
H1268 H 0.21784 0.30524 0.11459 0.0
H1269 H 0.1544 0.3125 0.0536 0.0
H1270 H 0.17871 0.30426 0.04107 0.0
H1271 H 0.17765 0.33003 0.05418 0.0
C1272 C 0.23951 0.3298 0.04675 0.0
C1273 C 0.24801 0.34777 0.05762 0.0
C1274 C 0.22319 0.3175 0.05589 0.0
C1275 C 0.21475 0.32309 0.07591 0.0
C1276 C 0.22315 0.34104 0.08682 0.0
H1277 H 0.11476 0.22993 0.11399 0.0
H1278 H 0.13096 0.2656 0.10898 0.0
C1279 C 0.23963 0.35329 0.07776 0.0
C1280 C 0.19859 0.30894 0.08611 0.0
H1281 H 0.15359 0.27945 0.07456 0.0
C1282 C 0.20351 0.29999 0.10608 0.0
C1283 C 0.1795 0.30253 0.07539 0.0
C1284 C 0.17215 0.31307 0.055 0.0
C1285 C 0.19097 0.28334 0.11457 0.0
C1286 C 0.17347 0.27511 0.1025 0.0
C1287 C 0.16731 0.28546 0.0836 0.0
C1288 C 0.16348 0.25412 0.10747 0.0
C1289 C 0.19712 0.27418 0.13601 0.0
C1290 C 0.17637 0.23592 0.10808 0.0
C1291 C 0.16726 0.21568 0.11088 0.0
C1292 C 0.14495 0.21311 0.11288 0.0
C1293 C 0.132 0.23138 0.11249 0.0
C1294 C 0.1412 0.25175 0.10967 0.0
H1295 H 0.20463 0.28667 0.14645 0.0
H1296 H 0.18302 0.26722 0.14438 0.0
H1297 H 0.20906 0.2614 0.13361 0.0
H1298 H 0.19352 0.23729 0.1058 0.0
H1299 H 0.17775 0.20201 0.11111 0.0
H1300 H 0.71378 0.15353 0.95883 0.0
H1301 H 0.70729 0.18173 0.93265 0.0
H1302 H 0.68698 0.2239 0.98333 0.0
H1303 H 0.69388 0.19607 0.00965 0.0
H1304 H 0.67109 0.20228 0.92197 0.0
H1305 H 0.73084 0.26074 0.95307 0.0
H1306 H 0.73028 0.2331 0.96141 0.0
H1307 H 0.71288 0.2523 0.97378 0.0
C1308 C 0.70795 0.16882 0.96443 0.0
C1309 C 0.70445 0.17259 0.98637 0.0
C1310 C 0.70429 0.18491 0.94943 0.0
C1311 C 0.6971 0.20503 0.9561 0.0
C1312 C 0.69312 0.20867 0.97791 0.0
H1313 H 0.62365 0.30118 0.90143 0.0
H1314 H 0.63821 0.26711 0.91255 0.0
C1315 C 0.69692 0.19268 0.99293 0.0
C1316 C 0.69305 0.22211 0.94031 0.0
H1317 H 0.70247 0.27514 0.93129 0.0
C1318 C 0.67822 0.21813 0.92374 0.0
C1319 C 0.70283 0.24259 0.94221 0.0
C1320 C 0.72028 0.24736 0.95844 0.0
C1321 C 0.67176 0.23456 0.90998 0.0
C1322 C 0.67998 0.25556 0.91329 0.0
C1323 C 0.69594 0.25912 0.92888 0.0
C1324 C 0.67068 0.27449 0.90267 0.0
C1325 C 0.65597 0.22929 0.89231 0.0
C1326 C 0.68403 0.29004 0.89326 0.0
C1327 C 0.67578 0.30984 0.88725 0.0
C1328 C 0.65404 0.31438 0.89055 0.0
C1329 C 0.64046 0.29822 0.89861 0.0
C1330 C 0.64875 0.27857 0.90482 0.0
H1331 H 0.65797 0.21257 0.88654 0.0
H1332 H 0.63944 0.23059 0.8986 0.0
H1333 H 0.65779 0.24033 0.87854 0.0
H1334 H 0.70102 0.28725 0.8915 0.0
H1335 H 0.68663 0.32191 0.88095 0.0
H1336 H 0.08968 0.46557 0.18479 0.0
H1337 H 0.05647 0.45018 0.17044 0.0
H1338 H 0.04962 0.4113 0.22695 0.0
H1339 H 0.0828 0.427 0.24171 0.0
H1340 H 0.04402 0.4082 0.16147 0.0
H1341 H 0.99352 0.44492 0.22444 0.0
H1342 H 0.02111 0.45278 0.22029 0.0
H1343 H 0.01476 0.42849 0.23435 0.0
C1344 C 0.08119 0.45367 0.19415 0.0
C1345 C 0.08867 0.44764 0.21448 0.0
C1346 C 0.06225 0.44486 0.18589 0.0
C1347 C 0.05046 0.42991 0.19781 0.0
C1348 C 0.05833 0.42315 0.21773 0.0
H1349 H 0.94332 0.35311 0.15251 0.0
H1350 H 0.97825 0.36645 0.16445 0.0
C1351 C 0.07732 0.43201 0.22606 0.0
C1352 C 0.02964 0.42198 0.18951 0.0
H1353 H 0.97603 0.42167 0.19973 0.0
C1354 C 0.02914 0.41109 0.16981 0.0
C1355 C 0.01028 0.42622 0.20028 0.0
C1356 C 0.00981 0.43891 0.22091 0.0
C1357 C 0.00972 0.40405 0.16068 0.0
C1358 C 0.99042 0.40772 0.17177 0.0
C1359 C 0.99091 0.41882 0.19135 0.0
C1360 C 0.96953 0.39985 0.16357 0.0
C1361 C 0.00999 0.39311 0.13908 0.0
C1362 C 0.95296 0.41424 0.15944 0.0
C1363 C 0.93284 0.40668 0.15277 0.0
C1364 C 0.92898 0.38457 0.15025 0.0
C1365 C 0.94575 0.37025 0.15419 0.0
C1366 C 0.96579 0.37783 0.1609 0.0
H1367 H 0.02494 0.39688 0.13019 0.0
H1368 H 0.00912 0.37551 0.14135 0.0
H1369 H 0.99606 0.39789 0.12915 0.0
H1370 H 0.95557 0.43132 0.16152 0.0
H1371 H 0.92027 0.41812 0.14986 0.0
H1372 H 0.76318 0.81825 0.44977 0.0
H1373 H 0.76668 0.78755 0.42558 0.0
H1374 H 0.81647 0.76231 0.46597 0.0
H1375 H 0.81316 0.79294 0.49023 0.0
H1376 H 0.80594 0.7768 0.40418 0.0
H1377 H 0.77475 0.71081 0.45468 0.0
H1378 H 0.76863 0.73861 0.45965 0.0
H1379 H 0.7938 0.7279 0.46835 0.0
C1380 C 0.77467 0.806 0.45367 0.0
C1381 C 0.78795 0.80797 0.47187 0.0
C1382 C 0.77664 0.78854 0.43981 0.0
C1383 C 0.79167 0.77267 0.44415 0.0
C1384 C 0.80455 0.7743 0.46258 0.0
H1385 H 0.872 0.6886 0.38369 0.0
H1386 H 0.85205 0.72027 0.39391 0.0
C1387 C 0.80271 0.79182 0.47635 0.0
C1388 C 0.79516 0.75513 0.42875 0.0
H1389 H 0.798 0.70081 0.42587 0.0
C1390 C 0.8038 0.76015 0.40867 0.0
C1391 C 0.79194 0.73351 0.43452 0.0
C1392 C 0.78156 0.72733 0.4554 0.0
C1393 C 0.8109 0.74399 0.39485 0.0
C1394 C 0.80946 0.72243 0.4015 0.0
C1395 C 0.79924 0.71739 0.42085 0.0
C1396 C 0.82083 0.7051 0.39034 0.0
C1397 C 0.82049 0.75016 0.37362 0.0
C1398 C 0.80987 0.68622 0.38444 0.0
C1399 C 0.82125 0.668 0.37876 0.0
C1400 C 0.8438 0.66834 0.37913 0.0
C1401 C 0.85466 0.68777 0.38335 0.0
C1402 C 0.84325 0.70597 0.38903 0.0
H1403 H 0.81372 0.76541 0.3677 0.0
H1404 H 0.83803 0.75259 0.37563 0.0
H1405 H 0.8177 0.73747 0.36136 0.0
H1406 H 0.79256 0.68525 0.38542 0.0
H1407 H 0.81238 0.65334 0.37534 0.0
H1408 H 0.90134 0.02286 0.17085 0.0
H1409 H 0.93 0.04583 0.15695 0.0
H1410 H 0.96455 0.04004 0.21659 0.0
H1411 H 0.9358 0.01752 0.23085 0.0
H1412 H 0.96362 0.08123 0.20232 0.0
H1413 H 0.98827 0.02617 0.13701 0.0
H1414 H 0.96057 0.0335 0.13625 0.0
H1415 H 0.97049 0.01787 0.15817 0.0
C1416 C 0.91506 0.02642 0.18101 0.0
C1417 C 0.91632 0.01827 0.20194 0.0
C1418 C 0.93146 0.03948 0.17299 0.0
C1419 C 0.94953 0.04435 0.18562 0.0
C1420 C 0.95074 0.03642 0.20657 0.0
H1421 H 0.07568 0.08576 0.15374 0.0
H1422 H 0.04239 0.06698 0.16228 0.0
C1423 C 0.93429 0.02353 0.21468 0.0
C1424 C 0.96721 0.05781 0.17722 0.0
H1425 H 0.00595 0.05979 0.13893 0.0
C1426 C 0.97285 0.07662 0.18841 0.0
C1427 C 0.97924 0.05164 0.15913 0.0
C1428 C 0.97451 0.03111 0.14702 0.0
C1429 C 0.99051 0.08923 0.18229 0.0
C1430 C 0.0025 0.08308 0.16417 0.0
C1431 C 0.99659 0.06452 0.15271 0.0
C1432 C 0.02233 0.09464 0.15794 0.0
C1433 C 0.99667 0.10847 0.19581 0.0
C1434 C 0.02202 0.11636 0.15232 0.0
C1435 C 0.04112 0.12727 0.14763 0.0
C1436 C 0.06077 0.11651 0.14826 0.0
C1437 C 0.06086 0.09457 0.1532 0.0
C1438 C 0.04183 0.08377 0.15804 0.0
H1439 H 0.98881 0.10813 0.21173 0.0
H1440 H 0.01429 0.1094 0.19828 0.0
H1441 H 0.99163 0.12326 0.1875 0.0
H1442 H 0.00706 0.12491 0.15168 0.0
H1443 H 0.0405 0.1441 0.1436 0.0
H1444 H 0.25961 0.66742 0.56707 0.0
H1445 H 0.27657 0.70093 0.57889 0.0
H1446 H 0.31023 0.70539 0.51891 0.0
H1447 H 0.29305 0.6719 0.50677 0.0
H1448 H 0.32039 0.71084 0.58329 0.0
H1449 H 0.28 0.76345 0.52439 0.0
H1450 H 0.2709 0.73644 0.5297 0.0
H1451 H 0.29387 0.74108 0.51307 0.0
C1452 C 0.2706 0.67553 0.55636 0.0
C1453 C 0.27495 0.66713 0.53594 0.0
C1454 C 0.28029 0.69463 0.56316 0.0
C1455 C 0.29442 0.70569 0.54967 0.0
C1456 C 0.29907 0.69722 0.52939 0.0
H1457 H 0.37959 0.81036 0.58802 0.0
H1458 H 0.36462 0.776 0.57599 0.0
C1459 C 0.28934 0.67808 0.52254 0.0
C1460 C 0.30428 0.72607 0.557 0.0
H1461 H 0.30633 0.77966 0.54677 0.0
C1462 C 0.31738 0.72591 0.57531 0.0
C1463 C 0.30002 0.74566 0.54666 0.0
C1464 C 0.28529 0.74682 0.52747 0.0
C1465 C 0.32646 0.74489 0.58357 0.0
C1466 C 0.32253 0.76442 0.573 0.0
C1467 C 0.30937 0.76459 0.55472 0.0
C1468 C 0.33163 0.78496 0.58083 0.0
C1469 C 0.33977 0.74396 0.60378 0.0
C1470 C 0.31799 0.80142 0.58725 0.0
C1471 C 0.32645 0.82112 0.59403 0.0
C1472 C 0.34874 0.82472 0.59438 0.0
C1473 C 0.36236 0.80809 0.58805 0.0
C1474 C 0.35386 0.78841 0.58125 0.0
H1475 H 0.33695 0.72881 0.61266 0.0
H1476 H 0.357 0.74487 0.59956 0.0
H1477 H 0.33622 0.75766 0.61454 0.0
H1478 H 0.30077 0.79901 0.58698 0.0
H1479 H 0.31552 0.83357 0.59881 0.0
H1480 H 0.0488 0.52472 0.24324 0.0
H1481 H 0.02499 0.53766 0.27107 0.0
H1482 H 0.06689 0.51242 0.31965 0.0
H1483 H 0.09121 0.49975 0.29184 0.0
H1484 H 0.00368 0.51425 0.30118 0.0
H1485 H 0.05845 0.57405 0.33991 0.0
H1486 H 0.06397 0.56223 0.31412 0.0
H1487 H 0.06824 0.54716 0.33815 0.0
C1488 C 0.05305 0.52193 0.25982 0.0
C1489 C 0.07198 0.51126 0.26529 0.0
C1490 C 0.03941 0.52936 0.27572 0.0
C1491 C 0.04432 0.52624 0.29741 0.0
C1492 C 0.06305 0.51539 0.30301 0.0
H1493 H 0.93686 0.55213 0.38264 0.0
H1494 H 0.96965 0.53494 0.37043 0.0
C1495 C 0.07684 0.50806 0.28708 0.0
C1496 C 0.0293 0.53394 0.3139 0.0
H1497 H 0.02365 0.5707 0.35409 0.0
C1498 C 0.00807 0.52642 0.31293 0.0
C1499 C 0.03516 0.54987 0.32911 0.0
C1500 C 0.05764 0.55898 0.33038 0.0
C1501 C 0.99223 0.53505 0.32607 0.0
C1502 C -0.00203 0.55119 0.34114 0.0
C1503 C 0.0194 0.55816 0.3427 0.0
C1504 C 0.98142 0.56273 0.35333 0.0
C1505 C 0.9693 0.52768 0.32273 0.0
C1506 C 0.97816 0.58454 0.34929 0.0
C1507 C 0.9597 0.59452 0.35662 0.0
C1508 C 0.94412 0.58272 0.36787 0.0
C1509 C 0.94844 0.56148 0.37368 0.0
C1510 C 0.9671 0.55163 0.36665 0.0
H1511 H 0.96713 0.51854 0.30754 0.0
H1512 H 0.96447 0.51705 0.33609 0.0
H1513 H 0.95833 0.54154 0.32245 0.0
H1514 H 0.98911 0.59344 0.33916 0.0
H1515 H 0.95688 0.61093 0.35196 0.0
H1516 H 0.42164 0.49778 0.80514 0.0
H1517 H 0.45178 0.4919 0.82949 0.0
H1518 H 0.47544 0.44284 0.78725 0.0
H1519 H 0.44541 0.44867 0.76272 0.0
H1520 H 0.46141 0.45308 0.85008 0.0
H1521 H 0.52831 0.48144 0.79917 0.0
H1522 H 0.50073 0.48812 0.79388 0.0
H1523 H 0.5109 0.46252 0.78576 0.0
C1524 C 0.43339 0.48589 0.8009 0.0
C1525 C 0.4312 0.47367 0.78201 0.0
C1526 C 0.45055 0.48255 0.81485 0.0
C1527 C 0.46588 0.46712 0.81003 0.0
C1528 C 0.46392 0.4551 0.79105 0.0
H1529 H 0.5491 0.38722 0.87569 0.0
H1530 H 0.51767 0.40653 0.86368 0.0
C1531 C 0.44673 0.45837 0.77711 0.0
C1532 C 0.48338 0.46269 0.8253 0.0
H1533 H 0.53762 0.45873 0.82856 0.0
C1534 C 0.47812 0.45463 0.84557 0.0
C1535 C 0.50509 0.46518 0.81951 0.0
C1536 C 0.51164 0.475 0.79848 0.0
C1537 C 0.49407 0.44766 0.85971 0.0
C1538 C 0.51571 0.44856 0.8532 0.0
C1539 C 0.521 0.45792 0.83349 0.0
C1540 C 0.53294 0.43784 0.86523 0.0
C1541 C 0.4876 0.439 0.88126 0.0
C1542 C 0.55182 0.44909 0.87061 0.0
C1543 C 0.56994 0.43805 0.8773 0.0
C1544 C 0.5695 0.41554 0.87851 0.0
C1545 C 0.55003 0.40453 0.87484 0.0
C1546 C 0.53195 0.41558 0.86811 0.0
H1547 H 0.47239 0.44619 0.88676 0.0
H1548 H 0.48495 0.42143 0.87992 0.0
H1549 H 0.50021 0.44211 0.89353 0.0
H1550 H 0.55289 0.46628 0.86846 0.0
H1551 H 0.58463 0.44705 0.88022 0.0
H1552 H 0.99384 0.78792 0.67204 0.0
H1553 H 0.97404 0.80587 0.70058 0.0
H1554 H 0.94285 0.74607 0.71654 0.0
H1555 H 0.9625 0.72799 0.68802 0.0
H1556 H 0.92654 0.80574 0.70343 0.0
H1557 H 0.96724 0.77119 0.77453 0.0
H1558 H 0.97947 0.77198 0.74838 0.0
H1559 H 0.95891 0.75248 0.75402 0.0
C1560 C 0.98296 0.77854 0.68179 0.0
C1561 C 0.97972 0.75654 0.6778 0.0
C1562 C 0.97162 0.78883 0.69801 0.0
C1563 C 0.9571 0.77724 0.71065 0.0
C1564 C 0.95416 0.75521 0.70704 0.0
H1565 H 0.87587 0.80712 0.81785 0.0
H1566 H 0.89353 0.7901 0.78752 0.0
C1567 C 0.96537 0.74494 0.69073 0.0
C1568 C 0.94434 0.78831 0.72709 0.0
H1569 H 0.9364 0.79173 0.78094 0.0
C1570 C 0.9287 0.8028 0.72041 0.0
C1571 C 0.94721 0.78428 0.74913 0.0
C1572 C 0.9642 0.76926 0.75707 0.0
C1573 C 0.91547 0.8131 0.73526 0.0
C1574 C 0.91836 0.80911 0.75736 0.0
C1575 C 0.93413 0.79469 0.76399 0.0
C1576 C 0.90543 0.81979 0.77403 0.0
C1577 C 0.89821 0.82771 0.72712 0.0
C1578 C 0.90585 0.84218 0.77625 0.0
C1579 C 0.89557 0.85199 0.79347 0.0
C1580 C 0.885 0.83952 0.80897 0.0
C1581 C 0.88395 0.81716 0.80624 0.0
C1582 C 0.89407 0.80741 0.78894 0.0
H1583 H 0.89408 0.82423 0.71011 0.0
H1584 H 0.88345 0.8262 0.73686 0.0
H1585 H 0.90404 0.84455 0.72814 0.0
H1586 H 0.91489 0.85202 0.76519 0.0
H1587 H 0.89685 0.86923 0.79521 0.0
H1588 H 0.9856 0.26882 0.42746 0.0
H1589 H 0.96641 0.24136 0.44751 0.0
H1590 H 0.02649 0.21485 0.46822 0.0
H1591 H 0.04596 0.24283 0.44847 0.0
H1592 H 0.96767 0.19814 0.44128 0.0
H1593 H 0.99391 0.21975 0.52397 0.0
H1594 H -0.00192 0.23738 0.50153 0.0
H1595 H 0.01524 0.21484 0.50549 0.0
C1596 C 0.99478 0.2573 0.43647 0.0
C1597 C 0.01729 0.25795 0.43641 0.0
C1598 C 0.98377 0.24158 0.44785 0.0
C1599 C 0.99501 0.2261 0.45936 0.0
C1600 C 0.01752 0.22686 0.45969 0.0
H1601 H 0.94375 0.12681 0.54149 0.0
H1602 H 0.96648 0.14446 0.51504 0.0
C1603 C 0.02861 0.24283 0.44844 0.0
C1604 C 0.98286 0.20905 0.47053 0.0
H1605 H 0.97151 0.18936 0.52005 0.0
C1606 C 0.96859 0.19611 0.4585 0.0
C1607 C 0.98412 0.20647 0.49297 0.0
C1608 C -0.00149 0.22044 0.50682 0.0
C1609 C 0.95525 0.1809 0.46839 0.0
C1610 C 0.95622 0.17867 0.49083 0.0
C1611 C 0.97092 0.19111 0.50278 0.0
C1612 C 0.94136 0.16451 0.50267 0.0
C1613 C 0.94016 0.16742 0.45486 0.0
C1614 C 0.91947 0.16931 0.50373 0.0
C1615 C 0.90638 0.1592 0.51884 0.0
C1616 C 0.91516 0.14441 0.53317 0.0
C1617 C 0.93663 0.13833 0.53075 0.0
C1618 C 0.94964 0.14836 0.51566 0.0
H1619 H 0.94501 0.16726 0.43777 0.0
H1620 H 0.93943 0.15068 0.46077 0.0
H1621 H 0.92381 0.17411 0.45583 0.0
H1622 H 0.91288 0.18196 0.494 0.0
H1623 H 0.88993 0.16427 0.52044 0.0
H1624 H 0.53432 0.22786 0.18595 0.0
H1625 H 0.5516 0.21413 0.21829 0.0
H1626 H 0.56126 0.15343 0.18681 0.0
H1627 H 0.54447 0.16694 0.15446 0.0
H1628 H 0.53757 0.17944 0.24185 0.0
H1629 H 0.62002 0.16583 0.21274 0.0
H1630 H 0.60114 0.18222 0.19849 0.0
H1631 H 0.5998 0.15351 0.19608 0.0
C1632 C 0.54034 0.21168 0.18581 0.0
C1633 C 0.53798 0.19853 0.16757 0.0
C1634 C 0.55022 0.20388 0.2043 0.0
C1635 C 0.558 0.18289 0.20479 0.0
C1636 C 0.55584 0.16983 0.18659 0.0
H1637 H 0.60129 0.09579 0.3029 0.0
H1638 H 0.58989 0.11255 0.26934 0.0
C1639 C 0.54604 0.17758 0.16814 0.0
C1640 C 0.5669 0.174 0.22479 0.0
H1641 H 0.61055 0.1491 0.24582 0.0
C1642 C 0.5536 0.17302 0.2428 0.0
C1643 C 0.58779 0.16552 0.22589 0.0
C1644 C 0.6031 0.16698 0.20733 0.0
C1645 C 0.56045 0.16333 0.26177 0.0
C1646 C 0.5812 0.15461 0.26277 0.0
C1647 C 0.5946 0.15571 0.24486 0.0
C1648 C 0.5893 0.14464 0.28252 0.0
C1649 C 0.5453 0.16205 0.28049 0.0
C1650 C 0.59311 0.15727 0.30075 0.0
C1651 C 0.59958 0.14783 0.31984 0.0
C1652 C 0.60236 0.12553 0.32106 0.0
C1653 C 0.59914 0.11297 0.30253 0.0
C1654 C 0.59269 0.12249 0.28337 0.0
H1655 H 0.52854 0.16551 0.2757 0.0
H1656 H 0.54572 0.14593 0.2879 0.0
H1657 H 0.55033 0.17397 0.29283 0.0
H1658 H 0.59085 0.17444 0.30026 0.0
H1659 H 0.60214 0.15805 0.33372 0.0
H1660 H 0.49521 0.83264 0.92443 0.0
H1661 H 0.50579 0.84977 0.95836 0.0
H1662 H 0.57227 0.83937 0.94356 0.0
H1663 H 0.56188 0.82235 0.90981 0.0
H1664 H 0.52794 0.8247 0.9878 0.0
H1665 H 0.57372 0.89922 0.97106 0.0
H1666 H 0.55516 0.88726 0.95201 0.0
H1667 H 0.58185 0.87706 0.95473 0.0
C1668 C 0.51209 0.8346 0.92816 0.0
C1669 C 0.52775 0.82598 0.91468 0.0
C1670 C 0.51809 0.84441 0.94748 0.0
C1671 C 0.5398 0.846 0.95332 0.0
C1672 C 0.55547 0.8387 0.93915 0.0
H1673 H 0.62248 0.85132 0.0617 0.0
H1674 H 0.60538 0.8516 0.02627 0.0
C1675 C 0.54949 0.82877 0.91998 0.0
C1676 C 0.54606 0.85146 0.9755 0.0
H1677 H 0.58096 0.88224 0.00496 0.0
C1678 C 0.53915 0.83759 0.99171 0.0
C1679 C 0.56087 0.86811 0.98037 0.0
C1680 C 0.56819 0.88389 0.96364 0.0
C1681 C 0.54762 0.83909 0.01246 0.0
C1682 C 0.56299 0.8553 0.0172 0.0
C1683 C 0.56924 0.86978 0.00121 0.0
C1684 C 0.57344 0.85674 0.03843 0.0
C1685 C 0.54091 0.82253 0.02875 0.0
C1686 C 0.56116 0.85992 0.05685 0.0
C1687 C 0.57077 0.85938 0.07702 0.0
C1688 C 0.59292 0.85601 0.0791 0.0
C1689 C 0.60536 0.85372 0.06057 0.0
C1690 C 0.59565 0.854 0.04037 0.0
H1691 H 0.53313 0.8083 0.0211 0.0
H1692 H 0.55488 0.81708 0.03825 0.0
H1693 H 0.52921 0.82969 0.03991 0.0
H1694 H 0.54409 0.86257 0.05564 0.0
H1695 H 0.56084 0.8617 0.09099 0.0
H1696 H 0.92472 0.23985 0.81219 0.0
H1697 H 0.91219 0.22612 0.77746 0.0
H1698 H 0.90582 0.16275 0.8041 0.0
H1699 H 0.91871 0.17624 0.83865 0.0
H1700 H 0.93203 0.16458 0.76919 0.0
H1701 H 0.85534 0.20502 0.75168 0.0
H1702 H 0.87675 0.22293 0.7595 0.0
H1703 H 0.8666 0.20369 0.77834 0.0
C1704 C 0.92014 0.2231 0.81075 0.0
C1705 C 0.92287 0.20904 0.82801 0.0
C1706 C 0.91286 0.21531 0.79095 0.0
C1707 C 0.90795 0.19345 0.78828 0.0
C1708 C 0.90949 0.17968 0.80587 0.0
H1709 H 0.89104 0.11315 0.67465 0.0
H1710 H 0.89203 0.12647 0.71156 0.0
C1711 C 0.9169 0.1874 0.82556 0.0
C1712 C 0.90414 0.18437 0.76669 0.0
H1713 H 0.87217 0.18729 0.72234 0.0
C1714 C 0.91878 0.16934 0.75903 0.0
C1715 C 0.88696 0.19079 0.75348 0.0
C1716 C 0.87039 0.20635 0.7612 0.0
C1717 C 0.91705 0.16089 0.7383 0.0
C1718 C 0.89999 0.16741 0.725 0.0
C1719 C 0.88519 0.18231 0.73267 0.0
C1720 C 0.89785 0.15951 0.70278 0.0
C1721 C 0.9339 0.1456 0.73054 0.0
C1722 C 0.90025 0.1738 0.68572 0.0
C1723 C 0.89967 0.16629 0.66465 0.0
C1724 C 0.89664 0.14431 0.6603 0.0
C1725 C 0.8937 0.13011 0.67747 0.0
C1726 C 0.89424 0.13767 0.69854 0.0
H1727 H 0.94838 0.14595 0.74097 0.0
H1728 H 0.92722 0.12904 0.73058 0.0
H1729 H 0.9388 0.14946 0.71392 0.0
H1730 H 0.90302 0.19073 0.68872 0.0
H1731 H 0.90179 0.17769 0.6518 0.0
H1732 H 0.58423 0.18764 0.61571 0.0
H1733 H 0.5973 0.16354 0.58795 0.0
H1734 H 0.54119 0.17568 0.54962 0.0
H1735 H 0.52781 0.19987 0.57728 0.0
H1736 H 0.55673 0.12947 0.55309 0.0
H1737 H 0.61807 0.19047 0.52927 0.0
H1738 H 0.61626 0.18364 0.55717 0.0
H1739 H 0.59466 0.19747 0.54451 0.0
C1740 C 0.57452 0.18511 0.60148 0.0
C1741 C 0.55506 0.19593 0.59863 0.0
C1742 C 0.58203 0.17129 0.58568 0.0
C1743 C 0.57024 0.16802 0.56679 0.0
C1744 C 0.55045 0.17806 0.56418 0.0
H1745 H 0.57663 0.11524 0.44263 0.0
H1746 H 0.56668 0.12466 0.47906 0.0
C1747 C 0.54291 0.19194 0.57995 0.0
C1748 C 0.57926 0.15551 0.54901 0.0
H1749 H 0.61588 0.15897 0.50891 0.0
C1750 C 0.5698 0.13574 0.5435 0.0
C1751 C 0.59645 0.16372 0.5368 0.0
C1752 C 0.60697 0.18503 0.54205 0.0
C1753 C 0.57681 0.12413 0.52562 0.0
C1754 C 0.59328 0.13289 0.51273 0.0
C1755 C 0.60328 0.15226 0.51883 0.0
C1756 C 0.59902 0.12361 0.49171 0.0
C1757 C 0.56645 0.1027 0.52067 0.0
C1758 C 0.62053 0.11989 0.48665 0.0
C1759 C 0.62636 0.11488 0.46567 0.0
C1760 C 0.61074 0.11355 0.4494 0.0
C1761 C 0.58908 0.11617 0.45477 0.0
C1762 C 0.58331 0.12133 0.47568 0.0
H1763 H 0.56049 0.0949 0.53549 0.0
H1764 H 0.55247 0.10509 0.50994 0.0
H1765 H 0.57776 0.09175 0.51261 0.0
H1766 H 0.63292 0.12167 0.49878 0.0
H1767 H 0.64316 0.11277 0.46209 0.0
H1768 H 0.50442 0.71491 0.296 0.0
H1769 H 0.52862 0.73453 0.27196 0.0
H1770 H 0.54289 0.78008 0.32234 0.0
H1771 H 0.51912 0.76073 0.34636 0.0
H1772 H 0.52313 0.77785 0.26073 0.0
H1773 H 0.6024 0.7655 0.2989 0.0
H1774 H 0.57936 0.74861 0.30434 0.0
H1775 H 0.58218 0.77435 0.31716 0.0
C1776 C 0.51298 0.72891 0.30202 0.0
C1777 C 0.50977 0.73629 0.32305 0.0
C1778 C 0.52676 0.74008 0.2883 0.0
C1779 C 0.53773 0.75855 0.29553 0.0
C1780 C 0.53491 0.76563 0.3166 0.0
H1781 H 0.58264 0.86506 0.21932 0.0
H1782 H 0.56789 0.84321 0.24837 0.0
C1783 C 0.52112 0.75461 0.33024 0.0
C1784 C 0.55059 0.77168 0.28064 0.0
H1785 H 0.60033 0.79374 0.27323 0.0
C1786 C 0.54005 0.7812 0.26334 0.0
C1787 C 0.57264 0.77594 0.28415 0.0
C1788 C 0.58489 0.76542 0.30203 0.0
C1789 C 0.55088 0.7953 0.24966 0.0
C1790 C 0.57273 0.80019 0.25362 0.0
C1791 C 0.58345 0.79026 0.27058 0.0
C1792 C 0.58484 0.81458 0.23932 0.0
C1793 C 0.53892 0.80469 0.23092 0.0
C1794 C 0.60015 0.80596 0.22555 0.0
C1795 C 0.60859 0.81835 0.20904 0.0
C1796 C 0.6019 0.83957 0.20613 0.0
C1797 C 0.58807 0.84877 0.22117 0.0
C1798 C 0.57953 0.83629 0.23765 0.0
H1799 H 0.52353 0.79609 0.22772 0.0
H1800 H 0.53532 0.82171 0.23442 0.0
H1801 H 0.54881 0.80418 0.2162 0.0
H1802 H 0.60451 0.78927 0.22672 0.0
H1803 H 0.61942 0.81093 0.19781 0.0
H1804 H 0.93984 0.76069 0.08562 0.0
H1805 H 0.91933 0.77653 0.05623 0.0
H1806 H 0.97559 0.81171 0.03624 0.0
H1807 H 0.9962 0.79601 0.06549 0.0
H1808 H 0.9138 0.82271 0.0473 0.0
H1809 H 0.9539 0.7779 0.98205 0.0
H1810 H 0.95453 0.76933 0.00962 0.0
H1811 H 0.97164 0.79091 0.00094 0.0
C1812 C 0.94786 0.77173 0.07491 0.0
C1813 C 0.96965 0.77704 0.07779 0.0
C1814 C 0.9361 0.78081 0.05821 0.0
C1815 C 0.94603 0.79513 0.04405 0.0
C1816 C 0.96774 0.80051 0.04692 0.0
H1817 H 0.91494 0.86251 0.92931 0.0
H1818 H 0.93063 0.84947 0.96257 0.0
C1819 C 0.97946 0.79154 0.06364 0.0
C1820 C 0.9338 0.80451 0.02616 0.0
H1821 H 0.93146 0.80634 0.97167 0.0
C1822 C 0.91749 0.81907 0.03074 0.0
C1823 C 0.9387 0.79962 0.00465 0.0
C1824 C 0.95552 0.78345 -0.00108 0.0
C1825 C 0.90641 0.8295 0.01423 0.0
C1826 C 0.91162 0.8249 0.9927 0.0
C1827 C 0.92762 0.80996 0.98821 0.0
C1828 C 0.90109 0.83553 0.97439 0.0
C1829 C 0.88974 0.8458 0.01994 0.0
C1830 C 0.87911 0.83254 0.97029 0.0
C1831 C 0.87002 0.84015 0.9513 0.0
C1832 C 0.88288 0.85056 0.93603 0.0
C1833 C 0.90465 0.8544 0.9407 0.0
C1834 C 0.91365 0.84696 0.95969 0.0
H1835 H 0.89124 0.85116 0.03688 0.0
H1836 H 0.89101 0.86003 0.00939 0.0
H1837 H 0.87356 0.83855 0.01768 0.0
H1838 H 0.86921 0.82344 0.98125 0.0
H1839 H 0.85324 0.83681 0.94806 0.0
H1840 H 0.67291 0.00111 0.78546 0.0
H1841 H 0.69934 0.97773 0.80202 0.0
H1842 H 0.71947 0.95655 0.73956 0.0
H1843 H 0.69306 0.97989 0.72281 0.0
H1844 H 0.70024 0.93124 0.79486 0.0
H1845 H 0.77598 0.97321 0.77234 0.0
H1846 H 0.75044 0.98647 0.7726 0.0
H1847 H 0.75684 0.96847 0.75114 0.0
C1848 C 0.68317 0.99174 0.77522 0.0
C1849 C 0.68091 0.99233 0.75282 0.0
C1850 C 0.69819 0.97833 0.78472 0.0
C1851 C 0.71133 0.9655 0.77199 0.0
C1852 C 0.70957 0.96651 0.74962 0.0
H1853 H 0.81385 0.87901 0.80515 0.0
H1854 H 0.78543 0.89731 0.7857 0.0
C1855 C 0.69448 0.97983 0.7401 0.0
C1856 C 0.72616 0.95032 0.78217 0.0
H1857 H 0.77912 0.94003 0.78983 0.0
C1858 C 0.7175 0.93311 0.79379 0.0
C1859 C 0.7486 0.95277 0.78054 0.0
C1860 C 0.75863 0.97129 0.76862 0.0
C1861 C 0.73077 0.91817 0.80384 0.0
C1862 C 0.75325 0.92085 0.80256 0.0
C1863 C 0.76187 0.93795 0.79071 0.0
C1864 C 0.76828 0.90679 0.81415 0.0
C1865 C 0.72059 0.89955 0.81546 0.0
C1866 C 0.7677 0.9055 0.83658 0.0
C1867 C 0.78381 0.89489 0.84774 0.0
C1868 C 0.80099 0.88568 0.83667 0.0
C1869 C 0.80089 0.88602 0.81415 0.0
C1870 C 0.7847 0.8965 0.80301 0.0
H1871 H 0.70414 0.89607 0.80938 0.0
H1872 H 0.73031 0.88487 0.81381 0.0
H1873 H 0.7194 0.90356 0.83273 0.0
H1874 H 0.75542 0.91367 0.84554 0.0
H1875 H 0.78348 0.89508 0.86508 0.0
H1876 H 0.8356 0.89695 0.53953 0.0
H1877 H 0.85207 0.93249 0.54267 0.0
H1878 H 0.84574 0.9412 0.47447 0.0
H1879 H 0.82899 0.90559 0.47118 0.0
H1880 H 0.88762 0.95486 0.52243 0.0
H1881 H 0.80729 0.98758 0.5022 0.0
H1882 H 0.81088 0.95981 0.50899 0.0
H1883 H 0.81921 0.96952 0.48332 0.0
C1884 C 0.8381 0.90623 0.52513 0.0
C1885 C 0.8307 0.89869 0.50518 0.0
C1886 C 0.84759 0.92649 0.52694 0.0
C1887 C 0.84976 0.93951 0.50885 0.0
C1888 C 0.84392 0.93141 0.48863 0.0
H1889 H 0.86559 0.07848 0.52832 0.0
H1890 H 0.86414 0.04421 0.509 0.0
C1891 C 0.83444 0.91107 0.48679 0.0
C1892 C 0.85569 0.96227 0.51188 0.0
H1893 H 0.83323 0.01167 0.51535 0.0
C1894 C 0.87592 0.9674 0.52047 0.0
C1895 C 0.84033 0.97853 0.50926 0.0
C1896 C 0.81815 0.97372 0.50056 0.0
C1897 C 0.88085 0.98824 0.52754 0.0
C1898 C 0.86499 0.00414 0.52624 0.0
C1899 C 0.8453 -0.00064 0.51632 0.0
C1900 C 0.8674 0.0249 0.53746 0.0
C1901 C 0.90271 0.99292 0.53698 0.0
C1902 C 0.86938 0.02528 0.55983 0.0
C1903 C 0.87001 0.04471 0.5709 0.0
C1904 C 0.86858 0.06417 0.5598 0.0
C1905 C 0.86669 0.06376 0.53733 0.0
C1906 C 0.86595 0.04424 0.52626 0.0
H1907 H 0.91484 0.98171 0.53064 0.0
H1908 H 0.908 0.00961 0.53358 0.0
H1909 H 0.90206 0.99087 0.55461 0.0
H1910 H 0.87 0.01049 0.5688 0.0
H1911 H 0.87156 0.04444 0.58818 0.0
H1912 H 0.83882 0.02071 0.28013 0.0
H1913 H 0.81041 0.04084 0.29734 0.0
H1914 H 0.77422 0.04021 0.23833 0.0
H1915 H 0.80236 0.01961 0.221 0.0
H1916 H 0.7913 0.07994 0.28871 0.0
H1917 H 0.73317 0.0121 0.2805 0.0
H1918 H 0.76141 0.00914 0.27553 0.0
H1919 H 0.74445 0.02119 0.25573 0.0
C1920 C 0.8249 0.02493 0.27071 0.0
C1921 C 0.82276 0.01829 0.24923 0.0
C1922 C 0.80871 0.03651 0.28059 0.0
C1923 C 0.79009 0.04169 0.2692 0.0
C1924 C 0.78829 0.03597 0.24751 0.0
H1925 H 0.66931 0.09187 0.31371 0.0
H1926 H 0.69985 0.08316 0.29121 0.0
C1927 C 0.80442 0.02424 0.23763 0.0
C1928 C 0.77218 0.0521 0.28044 0.0
H1929 H 0.72044 0.0439 0.29596 0.0
C1930 C 0.77576 0.07213 0.29025 0.0
C1931 C 0.75198 0.04179 0.28247 0.0
C1932 C 0.7475 0.01979 0.27318 0.0
C1933 C 0.75961 0.08215 0.30206 0.0
C1934 C 0.73953 0.07172 0.30423 0.0
C1935 C 0.73586 0.05188 0.29414 0.0
C1936 C 0.72221 0.08046 0.3176 0.0
C1937 C 0.76409 0.1038 0.31205 0.0
C1938 C 0.72481 0.08225 0.33987 0.0
C1939 C 0.70735 0.08719 0.35284 0.0
C1940 C 0.68698 0.09021 0.34371 0.0
C1941 C 0.68473 0.08944 0.32129 0.0
C1942 C 0.70217 0.08453 0.30838 0.0
H1943 H 0.77798 0.112 0.30443 0.0
H1944 H 0.74988 0.11424 0.31076 0.0
H1945 H 0.76786 0.10172 0.32929 0.0
H1946 H 0.74008 0.0788 0.34732 0.0
H1947 H 0.70962 0.08765 0.37005 0.0
H1948 H 0.67205 0.06662 0.00543 0.0
H1949 H 0.64881 0.03655 0.0155 0.0
H1950 H 0.63988 0.06502 0.07786 0.0
H1951 H 0.66222 0.0953 0.06776 0.0
H1952 H 0.66186 0.01116 0.04554 0.0
H1953 H 0.582 0.03888 0.06936 0.0
H1954 H 0.6 0.05527 0.05365 0.0
H1955 H 0.60227 0.05482 0.08246 0.0
C1956 C 0.66459 0.0668 0.02105 0.0
C1957 C 0.66933 0.08319 0.03592 0.0
C1958 C 0.65124 0.04964 0.02675 0.0
C1959 C 0.64249 0.04855 0.04741 0.0
C1960 C 0.64595 0.06568 0.06167 0.0
H1961 H 0.62593 0.95323 0.14134 0.0
H1962 H 0.6262 0.98657 0.12065 0.0
C1963 C 0.65906 0.08292 0.05592 0.0
C1964 C 0.63371 0.02804 0.05559 0.0
H1965 H 0.59473 0.00667 0.08755 0.0
C1966 C 0.64688 0.01005 0.05422 0.0
C1967 C 0.61426 0.02662 0.0671 0.0
C1968 C 0.59876 0.04492 0.06802 0.0
C1969 C 0.64183 0.99114 0.06505 0.0
C1970 C 0.623 0.99011 0.07746 0.0
C1971 C 0.60926 0.00768 0.07815 0.0
C1972 C 0.61823 0.97108 0.09052 0.0
C1973 C 0.65722 0.97269 0.064 0.0
C1974 C 0.61293 0.95164 0.08045 0.0
C1975 C 0.61303 0.93268 0.09209 0.0
C1976 C 0.61832 0.93288 0.11402 0.0
C1977 C 0.62198 0.9526 0.12443 0.0
C1978 C 0.62202 0.97162 0.11269 0.0
H1979 H 0.67261 0.97727 0.05631 0.0
H1980 H 0.66067 0.9666 0.08031 0.0
H1981 H 0.64983 0.95939 0.05456 0.0
H1982 H 0.60986 0.95101 0.06337 0.0
H1983 H 0.6097 0.91775 0.08371 0.0
H1984 H 0.68439 0.06604 0.72855 0.0
H1985 H 0.7165 0.08551 0.71707 0.0
H1986 H 0.68417 0.10399 0.65895 0.0
H1987 H 0.65196 0.08531 0.67048 0.0
H1988 H 0.73662 0.07173 0.68261 0.0
H1989 H 0.71877 0.15729 0.67076 0.0
H1990 H 0.70179 0.13984 0.68646 0.0
H1991 H 0.69918 0.14044 0.65773 0.0
C1992 C 0.68389 0.0748 0.71363 0.0
C1993 C 0.6657 0.07377 0.70027 0.0
C1994 C 0.70225 0.08597 0.70712 0.0
C1995 C 0.70272 0.09628 0.68719 0.0
C1996 C 0.68409 0.09658 0.67459 0.0
H1997 H 0.80048 0.11268 0.59237 0.0
H1998 H 0.76638 0.11128 0.61186 0.0
C1999 C 0.6657 0.0856 0.68114 0.0
C2000 C 0.7234 0.10307 0.67777 0.0
H2001 H 0.74841 0.14328 0.65015 0.0
C2002 C 0.73931 0.08751 0.67589 0.0
C2003 C 0.72682 0.12361 0.6688 0.0
C2004 C 0.71079 0.14129 0.67124 0.0
C2005 C 0.75821 0.09166 0.66466 0.0
C2006 C 0.76129 0.11188 0.65509 0.0
C2007 C 0.74574 0.1277 0.65734 0.0
C2008 C 0.78094 0.11656 0.64299 0.0
C2009 C 0.77462 0.07422 0.66263 0.0
C2010 C 0.80009 0.12046 0.65411 0.0
C2011 C 0.81944 0.12104 0.64316 0.0
C2012 C 0.81995 0.11774 0.62085 0.0
C2013 C 0.80057 0.11511 0.60955 0.0
C2014 C 0.78113 0.11443 0.62061 0.0
H2015 H 0.76872 0.05866 0.66899 0.0
H2016 H 0.77913 0.07201 0.64559 0.0
H2017 H 0.78933 0.07898 0.67163 0.0
H2018 H 0.80015 0.12211 0.6714 0.0
H2019 H 0.83408 0.12349 0.6523 0.0
H2020 H 0.76626 0.9475 0.51444 0.0
H2021 H 0.74284 0.97237 0.49543 0.0
H2022 H 0.71536 0.91971 0.45925 0.0
H2023 H 0.73839 0.89482 0.47809 0.0
H2024 H 0.74059 0.97827 0.44969 0.0
H2025 H 0.66292 0.95127 0.48402 0.0
H2026 H 0.68841 0.94536 0.49632 0.0
H2027 H 0.67924 0.93027 0.47341 0.0
C2028 C 0.7551 0.94121 0.50258 0.0
C2029 C 0.75413 0.91917 0.49787 0.0
C2030 C 0.7418 0.95542 0.49172 0.0
C2031 C 0.72722 0.94776 0.4762 0.0
C2032 C 0.72626 0.92584 0.47145 0.0
H2033 H 0.66367 0.02461 0.37874 0.0
H2034 H 0.68203 0.99518 0.39687 0.0
C2035 C 0.73955 0.91167 0.48218 0.0
C2036 C 0.71347 0.96269 0.46433 0.0
H2037 H 0.66129 0.97546 0.45488 0.0
C2038 C 0.72326 0.97771 0.4508 0.0
C2039 C 0.69089 0.96185 0.46594 0.0
C2040 C 0.67968 0.94645 0.48083 0.0
C2041 C 0.711 0.99193 0.4387 0.0
C2042 C 0.6884 0.99085 0.44002 0.0
C2043 C 0.67861 0.97593 0.45366 0.0
C2044 C 0.67483 0.00646 0.42882 0.0
C2045 C 0.7223 0.00836 0.42499 0.0
C2046 C 0.66394 0.02181 0.44084 0.0
C2047 C 0.6535 0.0385 0.43061 0.0
C2048 C 0.65366 0.04005 0.40816 0.0
C2049 C 0.6633 0.0238 0.39606 0.0
C2050 C 0.6739 0.00712 0.40637 0.0
H2051 H 0.73971 0.00951 0.42869 0.0
H2052 H 0.7204 0.00383 0.40788 0.0
H2053 H 0.71516 0.02441 0.42725 0.0
H2054 H 0.66439 0.02146 0.45818 0.0
H2055 H 0.64601 0.05068 0.44034 0.0
H2056 H 0.8285 0.93782 0.27064 0.0
H2057 H 0.79458 0.91981 0.2613 0.0
H2058 H 0.81173 0.92142 0.19451 0.0
H2059 H 0.8456 0.93921 0.20367 0.0
H2060 H 0.76457 0.93931 0.23509 0.0
H2061 H 0.78723 0.86073 0.20132 0.0
H2062 H 0.80506 0.87655 0.21813 0.0
H2063 H 0.80233 0.88257 0.19011 0.0
C2064 C 0.82522 0.9339 0.25402 0.0
C2065 C 0.8396 0.94001 0.23785 0.0
C2066 C 0.80588 0.92362 0.24873 0.0
C2067 C 0.8008 0.91909 0.22726 0.0
C2068 C 0.81555 0.92437 0.21121 0.0
H2069 H 0.69572 0.89487 0.14409 0.0
H2070 H 0.7301 0.90076 0.16218 0.0
C2071 C 0.83482 0.9347 0.21646 0.0
C2072 C 0.77911 0.91145 0.2212 0.0
H2073 H 0.7525 0.8738 0.19113 0.0
C2074 C 0.7618 0.92476 0.22585 0.0
C2075 C 0.77567 0.89252 0.20911 0.0
C2076 C 0.79354 0.87716 0.20455 0.0
C2077 C 0.74128 0.92029 0.21765 0.0
C2078 C 0.73802 0.90182 0.20479 0.0
C2079 C 0.75514 0.88802 0.2009 0.0
C2080 C 0.71728 0.89733 0.19412 0.0
C2081 C 0.72355 0.93595 0.22186 0.0
C2082 C 0.6988 0.89324 0.20614 0.0
C2083 C 0.67909 0.89003 0.19588 0.0
C2084 C 0.6776 0.89074 0.1734 0.0
C2085 C 0.69628 0.89439 0.16141 0.0
C2086 C 0.71595 0.89765 0.17171 0.0
H2087 H 0.72976 0.95141 0.22842 0.0
H2088 H 0.71442 0.93918 0.20694 0.0
H2089 H 0.71228 0.92898 0.23369 0.0
H2090 H 0.69962 0.89259 0.22345 0.0
H2091 H 0.66506 0.88699 0.20557 0.0
H2092 H 0.75906 0.04611 0.00803 0.0
H2093 H 0.77881 0.01843 0.98893 0.0
H2094 H 0.75766 0.04417 0.92857 0.0
H2095 H 0.73751 0.07166 0.94754 0.0
H2096 H 0.7561 -4e-05 0.92963 0.0
H2097 H 0.8351 0.03059 0.9581 0.0
H2098 H 0.81683 0.0245 0.97938 0.0
H2099 H 0.8108 0.04566 0.96094 0.0
C2100 C 0.75842 0.04574 0.9907 0.0
C2101 C 0.74689 0.06116 0.97927 0.0
C2102 C 0.76987 0.03004 0.97982 0.0
C2103 C 0.77015 0.02964 0.95735 0.0
C2104 C 0.75782 0.04437 0.94592 0.0
H2105 H 0.83382 0.94517 0.86603 0.0
H2106 H 0.81657 0.97636 0.88205 0.0
C2107 C 0.74629 0.06002 0.95679 0.0
C2108 C 0.78346 0.01398 0.94578 0.0
H2109 H 0.83483 0.99668 0.94035 0.0
C2110 C 0.77333 -0.00065 0.93179 0.0
C2111 C 0.80596 0.01338 0.94855 0.0
C2112 C 0.81787 0.0295 0.96239 0.0
C2113 C 0.78503 0.98358 0.92109 0.0
C2114 C 0.80744 0.98265 0.9243 0.0
C2115 C 0.81763 -0.00249 0.93796 0.0
C2116 C 0.82027 0.96544 0.91465 0.0
C2117 C 0.77328 0.96757 0.90697 0.0
C2118 C 0.82888 0.94958 0.9278 0.0
C2119 C 0.83876 0.9318 0.91877 0.0
C2120 C 0.84028 0.92967 0.89639 0.0
C2121 C 0.83286 0.94631 0.88331 0.0
C2122 C 0.82288 0.96406 0.8924 0.0
H2123 H 0.75564 0.96825 0.90908 0.0
H2124 H 0.77693 0.97101 0.88995 0.0
H2125 H 0.77862 0.95105 0.91044 0.0
H2126 H 0.82713 0.95048 0.94504 0.0
H2127 H 0.84446 0.91935 0.92929 0.0
H2128 H 0.78796 0.67295 0.00235 0.0
H2129 H 0.80235 0.69734 0.97544 0.0
H2130 H 0.73952 0.72366 0.96587 0.0
H2131 H 0.72501 0.69967 0.99317 0.0
H2132 H 0.79201 0.70118 0.93282 0.0
H2133 H 0.77589 0.77686 0.97665 0.0
H2134 H 0.77414 0.75098 0.98928 0.0
H2135 H 0.75262 0.76013 0.97254 0.0
C2136 C 0.77718 0.68401 0.99464 0.0
C2137 C 0.75534 0.68445 3e-05 0.0
C2138 C 0.78544 0.69788 0.9792 0.0
C2139 C 0.77206 0.71244 0.96883 0.0
C2140 C 0.75021 0.71283 0.97401 0.0
H2141 H 0.79957 0.81392 0.87869 0.0
H2142 H 0.78151 0.78419 0.89666 0.0
C2143 C 0.74195 0.69907 0.98959 0.0
C2144 C 0.78105 0.72717 0.9526 0.0
H2145 H 0.78894 0.78008 0.94139 0.0
C2146 C 0.79133 0.71844 0.93465 0.0
C2147 C 0.78015 0.74967 0.95508 0.0
C2148 C 0.77029 0.76001 0.97451 0.0
C2149 C 0.80073 0.73165 0.91908 0.0
C2150 C 0.79988 0.7541 0.92166 0.0
C2151 C 0.78936 0.76282 0.93942 0.0
C2152 C 0.81077 0.76908 0.90691 0.0
C2153 C 0.81141 0.72158 0.9 0.0
C2154 C 0.83322 0.76994 0.90607 0.0
C2155 C 0.84364 0.78695 0.89583 0.0
C2156 C 0.83172 0.80346 0.88647 0.0
C2157 C 0.80923 0.80159 0.88592 0.0
C2158 C 0.79886 0.7846 0.89616 0.0
H2159 H 0.80619 0.70464 0.89765 0.0
H2160 H 0.80789 0.73067 0.88518 0.0
H2161 H 0.82902 0.72188 0.90253 0.0
H2162 H 0.84268 0.75824 0.91453 0.0
H2163 H 0.86096 0.7879 0.89656 0.0
H2164 H 0.26454 0.84073 0.02369 0.0
H2165 H 0.28061 0.81159 0.0438 0.0
H2166 H 0.2184 0.79294 0.06754 0.0
H2167 H 0.20204 0.82217 0.04733 0.0
H2168 H 0.2776 0.80288 0.09025 0.0
H2169 H 0.24357 0.73849 0.03746 0.0
H2170 H 0.24511 0.76609 0.02905 0.0
H2171 H 0.22546 0.75789 0.04829 0.0
C2172 C 0.25423 0.83046 0.03318 0.0
C2173 C 0.23201 0.83363 0.03384 0.0
C2174 C 0.26347 0.81391 0.04473 0.0
C2175 C 0.25065 0.80017 0.05703 0.0
C2176 C 0.22848 0.80337 0.05798 0.0
H2177 H 0.29602 0.67924 0.10774 0.0
H2178 H 0.27318 0.71023 0.10241 0.0
C2179 C 0.2192 0.82003 0.04645 0.0
C2180 C 0.26068 0.78208 0.06814 0.0
H2181 H 0.26769 0.72822 0.06417 0.0
C2182 C 0.27527 0.78648 0.0848 0.0
C2183 C 0.25744 0.76079 0.06099 0.0
C2184 C 0.24215 0.75538 0.0429 0.0
C2185 C 0.28723 0.7701 0.09416 0.0
C2186 C 0.28482 0.74895 0.08623 0.0
C2187 C 0.26952 0.74447 0.07021 0.0
C2188 C 0.29907 0.73145 0.09292 0.0
C2189 C 0.30243 0.77563 0.11227 0.0
C2190 C 0.32128 0.73325 0.08975 0.0
C2191 C 0.33442 0.7156 0.09291 0.0
C2192 C 0.32547 0.69577 0.09889 0.0
C2193 C 0.30335 0.69427 0.10289 0.0
C2194 C 0.29028 0.71195 0.09994 0.0
H2195 H 0.29712 0.79007 0.12114 0.0
H2196 H 0.30387 0.76216 0.1237 0.0
H2197 H 0.31852 0.77923 0.10562 0.0
H2198 H 0.32834 0.74799 0.08383 0.0
H2199 H 0.35138 0.71722 0.08963 0.0
H2200 H 0.9339 0.52339 0.78508 0.0
H2201 H 0.96388 0.52089 0.80977 0.0
H2202 H 0.92155 0.53245 0.863 0.0
H2203 H 0.89169 0.53678 0.83784 0.0
H2204 H 0.95163 0.55658 0.86836 0.0
H2205 H 0.9912 0.48183 0.8489 0.0
H2206 H 0.98792 0.49483 0.82371 0.0
H2207 H 0.96456 0.48706 0.83905 0.0
C2208 C 0.93091 0.52493 0.80209 0.0
C2209 C 0.91057 0.53044 0.80958 0.0
C2210 C 0.94806 0.52316 0.81632 0.0
C2211 C 0.9451 0.526 0.83847 0.0
C2212 C 0.92437 0.53016 0.84605 0.0
H2213 H 0.07659 0.543 0.88801 0.0
H2214 H 0.04094 0.52572 0.88701 0.0
C2215 C 0.90731 0.53266 0.8317 0.0
C2216 C 0.96415 0.5284 0.85279 0.0
H2217 H 0.01638 0.5133 0.85567 0.0
C2218 C 0.96551 0.54659 0.8661 0.0
C2219 C 0.98226 0.51508 0.85098 0.0
C2220 C 0.98121 0.49348 0.84008 0.0
C2221 C 0.98507 0.55327 0.87513 0.0
C2222 C 0.00391 0.54216 0.86976 0.0
C2223 C 0.0021 0.52242 0.85902 0.0
C2224 C 0.02535 0.55252 0.87188 0.0
C2225 C 0.98544 0.57283 0.88942 0.0
C2226 C 0.02851 0.57306 0.86333 0.0
C2227 C 0.04858 0.58295 0.86411 0.0
C2228 C 0.06619 0.57233 0.87294 0.0
C2229 C 0.06326 0.55155 0.88111 0.0
C2230 C 0.04293 0.54171 0.88062 0.0
H2231 H 0.97082 0.57324 0.89947 0.0
H2232 H -0.00026 0.57326 0.90008 0.0
H2233 H 0.98546 0.58746 0.8794 0.0
H2234 H 0.01549 0.58138 0.85561 0.0
H2235 H 0.05034 0.59882 0.85736 0.0
H2236 H 0.20168 0.18569 0.52218 0.0
H2237 H 0.1839 0.20871 0.54815 0.0
H2238 H 0.2432 0.21619 0.58335 0.0
H2239 H 0.26126 0.19349 0.55715 0.0
H2240 H 0.17983 0.20107 0.59214 0.0
H2241 H 0.22323 0.27768 0.57596 0.0
H2242 H 0.2241 0.2551 0.55787 0.0
H2243 H 0.23993 0.25528 0.58199 0.0
C2244 C 0.21102 0.19252 0.53526 0.0
C2245 C 0.23285 0.18789 0.53765 0.0
C2246 C 0.20081 0.20552 0.55013 0.0
C2247 C 0.21226 0.21411 0.5676 0.0
C2248 C 0.23418 0.20991 0.5698 0.0
H2249 H 0.17001 0.30715 0.66021 0.0
H2250 H 0.18866 0.27586 0.64651 0.0
C2251 C 0.24446 0.197 0.55482 0.0
C2252 C 0.20101 0.22718 0.58361 0.0
H2253 H 0.19805 0.27779 0.60375 0.0
C2254 C 0.18385 0.21783 0.59482 0.0
C2255 C 0.20644 0.24894 0.58708 0.0
C2256 C 0.22431 0.25996 0.575 0.0
C2257 C 0.17166 0.22987 0.6092 0.0
C2258 C 0.17673 0.25177 0.61219 0.0
C2259 C 0.19431 0.26091 0.60149 0.0
C2260 C 0.16316 0.26625 0.62478 0.0
C2261 C 0.15346 0.21914 0.62097 0.0
C2262 C 0.14219 0.27048 0.61787 0.0
C2263 C 0.13142 0.2883 0.62579 0.0
C2264 C 0.14173 0.3022 0.64039 0.0
C2265 C 0.16187 0.29677 0.64873 0.0
C2266 C 0.1725 0.2789 0.64099 0.0
H2267 H 0.15569 0.20155 0.622 0.0
H2268 H 0.15187 0.22577 0.63741 0.0
H2269 H 0.13827 0.22199 0.61219 0.0
H2270 H 0.13485 0.26109 0.60511 0.0
H2271 H 0.11592 0.2922 0.61909 0.0
H2272 H 0.07669 0.95614 0.7752 0.0
H2273 H 0.0524 0.93605 0.79833 0.0
H2274 H 0.00945 0.98951 0.79992 0.0
H2275 H 0.03372 0.00996 0.77685 0.0
H2276 H 0.018 0.96846 0.84127 0.0
H2277 H 0.99384 0.91216 0.77576 0.0
H2278 H 0.02214 0.91549 0.7804 0.0
H2279 H 0.00687 0.93759 0.77062 0.0
C2280 C 0.06211 0.96373 0.78045 0.0
C2281 C 0.05707 0.98464 0.77397 0.0
C2282 C 0.04827 0.95218 0.79368 0.0
C2283 C 0.02911 0.96126 0.80061 0.0
C2284 C 0.02421 0.98227 0.79467 0.0
H2285 H 0.91351 0.92803 0.86274 0.0
H2286 H 0.94669 0.94538 0.85154 0.0
C2287 C 0.03806 0.99388 0.78142 0.0
C2288 C 0.01372 0.94852 0.8133 0.0
H2289 H 0.97868 0.90633 0.80955 0.0
C2290 C 0.00946 0.95479 0.83444 0.0
C2291 C 0.00281 0.93062 0.80433 0.0
C2292 C 0.00645 0.92357 0.78149 0.0
C2293 C 0.99426 0.94371 0.84681 0.0
C2294 C 0.98281 0.92625 0.83758 0.0
C2295 C 0.98758 0.91964 0.81664 0.0
C2296 C 0.96429 0.91592 0.84826 0.0
C2297 C 0.99058 0.95085 0.86959 0.0
C2298 C 0.96318 0.89355 0.85036 0.0
C2299 C 0.94407 0.88349 0.85653 0.0
C2300 C 0.92571 0.89567 0.8605 0.0
C2301 C 0.92731 0.91815 0.85967 0.0
C2302 C 0.94637 0.92815 0.85348 0.0
H2303 H 0.00511 0.95881 0.87644 0.0
H2304 H 0.97744 0.96264 0.86987 0.0
H2305 H 0.98599 0.93715 0.87995 0.0
H2306 H 0.97683 0.88382 0.84629 0.0
H2307 H 0.9434 0.86616 0.85709 0.0
H2308 H 0.66479 0.34055 0.44686 0.0
H2309 H 0.65767 0.30814 0.42588 0.0
H2310 H 0.71584 0.28039 0.4499 0.0
H2311 H 0.72329 0.31282 0.47097 0.0
H2312 H 0.70507 0.27337 0.40292 0.0
H2313 H 0.64021 0.25276 0.46043 0.0
H2314 H 0.63937 0.27909 0.44896 0.0
H2315 H 0.661 0.27223 0.46659 0.0
C2316 C 0.67624 0.32769 0.44757 0.0
C2317 C 0.69446 0.32918 0.46089 0.0
C2318 C 0.67215 0.30922 0.4355 0.0
C2319 C 0.68614 0.29191 0.43656 0.0
C2320 C 0.70489 0.29367 0.44892 0.0
H2321 H 0.68393 0.15953 0.3975 0.0
H2322 H 0.69516 0.19644 0.40521 0.0
C2323 C 0.70904 0.31217 0.46101 0.0
C2324 C 0.68011 0.27126 0.4265 0.0
H2325 H 0.64486 0.22948 0.43127 0.0
C2326 C 0.69188 0.26373 0.409 0.0
C2327 C 0.66292 0.25885 0.43458 0.0
C2328 C 0.65018 0.26597 0.45377 0.0
C2329 C 0.6867 0.24402 0.39918 0.0
C2330 C 0.66962 0.2315 0.40743 0.0
C2331 C 0.65784 0.23919 0.42487 0.0
C2332 C 0.66397 0.20994 0.39906 0.0
C2333 C 0.69934 0.23692 0.37996 0.0
C2334 C 0.64277 0.2053 0.39288 0.0
C2335 C 0.63622 0.18422 0.38886 0.0
C2336 C 0.6508 0.16738 0.39088 0.0
C2337 C 0.67235 0.17218 0.39578 0.0
C2338 C 0.67884 0.19329 0.40003 0.0
H2339 H 0.7071 0.25074 0.37181 0.0
H2340 H 0.71215 0.22597 0.38526 0.0
H2341 H 0.68897 0.2282 0.36823 0.0
H2342 H 0.63104 0.21792 0.39207 0.0
H2343 H 0.61957 0.18103 0.38488 0.0
H2344 H 0.9395 0.52996 0.71381 0.0
H2345 H 0.96872 0.51087 0.69624 0.0
H2346 H 0.93429 0.45109 0.70412 0.0
H2347 H 0.90508 0.46992 0.72132 0.0
H2348 H 0.99228 0.47941 0.71589 0.0
H2349 H 0.95393 0.44705 0.64216 0.0
H2350 H 0.94253 0.46859 0.6576 0.0
H2351 H 0.93886 0.44123 0.66586 0.0
C2352 C 0.93806 0.51279 0.7115 0.0
C2353 C 0.92006 0.50142 0.71898 0.0
C2354 C 0.9547 0.50194 0.70144 0.0
C2355 C 0.95345 0.47964 0.69856 0.0
C2356 C 0.93532 0.46836 0.70568 0.0
H2357 H 0.03896 0.37564 0.67528 0.0
H2358 H 0.0077 0.39854 0.68042 0.0
C2359 C 0.91874 0.47915 0.71572 0.0
C2360 C 0.97197 0.46773 0.69031 0.0
H2361 H 0.98663 0.43035 0.65326 0.0
C2362 C 0.99118 0.46894 0.702 0.0
C2363 C 0.97035 0.45398 0.67228 0.0
C2364 C 0.95036 0.45276 0.65862 0.0
C2365 C 0.00861 0.45615 0.69664 0.0
C2366 C 0.00685 0.44206 0.6789 0.0
C2367 C 0.98782 0.44114 0.6669 0.0
C2368 C 0.02467 0.428 0.67295 0.0
C2369 C 0.02851 0.45726 0.71049 0.0
C2370 C 0.04418 0.43699 0.66633 0.0
C2371 C 0.06197 0.42408 0.6636 0.0
C2372 C 0.0605 0.40189 0.66723 0.0
C2373 C 0.04057 0.3927 0.6725 0.0
C2374 C 0.02274 0.40572 0.6754 0.0
H2375 H 0.0255 0.46525 0.7261 0.0
H2376 H 0.03472 0.44097 0.71359 0.0
H2377 H 0.04114 0.46656 0.70207 0.0
H2378 H 0.04582 0.45411 0.66398 0.0
H2379 H 0.07704 0.43157 0.65911 0.0
H2380 H 0.5592 0.512 0.16759 0.0
H2381 H 0.53231 0.5316 0.14711 0.0
H2382 H 0.56699 0.59074 0.15904 0.0
H2383 H 0.59359 0.57139 0.17983 0.0
H2384 H 0.52561 0.59227 0.17127 0.0
H2385 H 0.53026 0.5603 0.08861 0.0
H2386 H 0.52818 0.5396 0.10836 0.0
H2387 H 0.55145 0.55691 0.10809 0.0
C2388 C 0.56121 0.52912 0.16556 0.0
C2389 C 0.5783 0.54022 0.17546 0.0
C2390 C 0.546 0.54026 0.15367 0.0
C2391 C 0.54787 0.56257 0.15132 0.0
C2392 C 0.56537 0.57351 0.16055 0.0
H2393 H 0.44358 0.64914 0.11707 0.0
H2394 H 0.48041 0.63674 0.12142 0.0
C2395 C 0.58046 0.56244 0.17253 0.0
C2396 C 0.53014 0.5748 0.14186 0.0
H2397 H 0.49751 0.57802 0.09806 0.0
C2398 C 0.51971 0.58951 0.15511 0.0
C2399 C 0.52256 0.57111 0.12079 0.0
C2400 C 0.53383 0.55627 0.10556 0.0
C2401 C 0.50107 0.59972 0.14833 0.0
C2402 C 0.49294 0.59535 0.12757 0.0
C2403 C 0.50389 0.58135 0.11394 0.0
C2404 C 0.4717 0.60307 0.12096 0.0
C2405 C 0.48955 0.61403 0.16394 0.0
C2406 C 0.45492 0.5882 0.11821 0.0
C2407 C 0.43398 0.59517 0.11564 0.0
C2408 C 0.42946 0.61718 0.11588 0.0
C2409 C 0.44651 0.63208 0.11722 0.0
C2410 C 0.46753 0.62505 0.11967 0.0
H2411 H 0.49599 0.61268 0.18049 0.0
H2412 H 0.49142 0.63096 0.15887 0.0
H2413 H 0.47216 0.61005 0.16421 0.0
H2414 H 0.45787 0.57116 0.1191 0.0
H2415 H 0.42126 0.58325 0.1143 0.0
H2416 H 0.5859 0.73398 0.86352 0.0
H2417 H 0.60096 0.71263 0.83444 0.0
H2418 H 0.54226 0.71889 0.79841 0.0
H2419 H 0.52692 0.73983 0.82736 0.0
H2420 H 0.55913 0.67795 0.79674 0.0
H2421 H 0.6205 0.7407 0.77849 0.0
H2422 H 0.62065 0.73043 0.80532 0.0
H2423 H 0.59822 0.74559 0.79604 0.0
C2424 C 0.57611 0.73065 0.84949 0.0
C2425 C 0.55528 0.73883 0.84767 0.0
C2426 C 0.58479 0.71853 0.83288 0.0
C2427 C 0.57284 0.71457 0.81418 0.0
C2428 C 0.55175 0.72188 0.81272 0.0
H2429 H 0.59986 0.69279 0.68338 0.0
H2430 H 0.59326 0.70656 0.71944 0.0
C2431 C 0.54303 0.73388 0.8293 0.0
C2432 C 0.58234 0.70369 0.79556 0.0
H2433 H 0.61901 0.71059 0.75579 0.0
C2434 C 0.57239 0.68489 0.78788 0.0
C2435 C 0.59952 0.71301 0.78405 0.0
C2436 C 0.6103 0.73363 0.79122 0.0
C2437 C 0.57865 0.67551 0.76853 0.0
C2438 C 0.59563 0.685 0.75685 0.0
C2439 C 0.60607 0.70338 0.76489 0.0
C2440 C 0.60155 0.67709 0.7354 0.0
C2441 C 0.56633 0.65618 0.76024 0.0
C2442 C 0.60895 0.65619 0.73259 0.0
C2443 C 0.61251 0.64821 0.71203 0.0
C2444 C 0.60896 0.66112 0.69399 0.0
C2445 C 0.60261 0.68243 0.69695 0.0
C2446 C 0.59888 0.69032 0.71752 0.0
H2447 H 0.55096 0.65374 0.76884 0.0
H2448 H 0.56282 0.65776 0.74287 0.0
H2449 H 0.57611 0.64165 0.76252 0.0
H2450 H 0.61158 0.64592 0.74625 0.0
H2451 H 0.61776 0.63183 0.71027 0.0
H2452 H 0.55398 0.27518 0.10266 0.0
H2453 H 0.57447 0.29998 0.08026 0.0
H2454 H 0.56201 0.25965 0.02517 0.0
H2455 H 0.54216 0.23441 0.04757 0.0
H2456 H 0.60258 0.27518 0.02544 0.0
H2457 H 0.54548 0.34115 0.04034 0.0
H2458 H 0.55821 0.3308 0.06388 0.0
H2459 H 0.54012 0.31399 0.04861 0.0
C2460 C 0.55575 0.27151 0.0858 0.0
C2461 C 0.54626 0.25295 0.07681 0.0
C2462 C 0.56737 0.28576 0.07302 0.0
C2463 C 0.56931 0.28192 0.05097 0.0
C2464 C 0.56062 0.26297 0.04215 0.0
H2465 H 0.58028 0.35835 0.94159 0.0
H2466 H 0.57044 0.34037 0.97466 0.0
C2467 C 0.54927 0.24856 0.05496 0.0
C2468 C 0.5796 0.2979 0.03677 0.0
H2469 H 0.57409 0.34847 0.01712 0.0
C2470 C 0.59653 0.29129 0.02374 0.0
C2471 C 0.57153 0.31887 0.03457 0.0
C2472 C 0.55273 0.32664 0.04744 0.0
C2473 C 0.60505 0.30473 0.0079 0.0
C2474 C 0.59678 0.3256 0.0055 0.0
C2475 C 0.58048 0.33253 0.01916 0.0
C2476 C 0.60281 0.33932 0.98718 0.0
C2477 C 0.6219 0.29597 0.9931 0.0
C2478 C 0.62417 0.34558 0.98368 0.0
C2479 C 0.62993 0.35568 0.96459 0.0
C2480 C 0.61434 0.35991 0.94886 0.0
C2481 C 0.59273 0.35518 0.95325 0.0
C2482 C 0.58706 0.34491 0.9722 0.0
H2483 H 0.62328 0.2783 0.99438 0.0
H2484 H 0.61824 0.29999 0.97618 0.0
H2485 H 0.6377 0.30323 -0.00269 0.0
H2486 H 0.63649 0.34195 0.99533 0.0
H2487 H 0.64668 0.3594 0.96181 0.0
H2488 H 0.9554 0.29469 0.35307 0.0
H2489 H 0.92971 0.29884 0.32389 0.0
H2490 H 0.97943 0.32644 0.2845 0.0
H2491 H 0.00505 0.32328 0.3142 0.0
H2492 H 0.94427 0.34817 0.28077 0.0
H2493 H 0.92302 0.26216 0.272 0.0
H2494 H 0.91791 0.27204 0.29845 0.0
H2495 H 0.94498 0.27142 0.28863 0.0
C2496 C 0.96085 0.30164 0.33817 0.0
C2497 C 0.98221 0.30858 0.33577 0.0
C2498 C 0.94619 0.30381 0.32144 0.0
C2499 C 0.95276 0.31238 0.30181 0.0
C2500 C 0.97406 0.31962 0.29949 0.0
H2501 H 0.89403 0.30644 0.17842 0.0
H2502 H 0.91065 0.29757 0.2126 0.0
C2503 C 0.98866 0.31786 0.31641 0.0
C2504 C 0.93728 0.31448 0.28393 0.0
H2505 H 0.90131 0.28663 0.25277 0.0
C2506 C 0.93492 0.3347 0.27461 0.0
C2507 C 0.92522 0.29682 0.27581 0.0
C2508 C 0.92806 0.27436 0.28409 0.0
C2509 C 0.92104 0.33777 0.25725 0.0
C2510 C 0.90842 0.32029 0.2496 0.0
C2511 C 0.91066 0.30008 0.25899 0.0
C2512 C 0.89452 0.32234 0.23048 0.0
C2513 C 0.9208 0.35952 0.24675 0.0
C2514 C 0.87879 0.33816 0.22955 0.0
C2515 C 0.86957 0.34355 0.20993 0.0
C2516 C 0.87552 0.33272 0.19116 0.0
C2517 C 0.88917 0.31508 0.19263 0.0
C2518 C 0.89874 0.31003 0.21216 0.0
H2519 H 0.93519 0.3693 0.25108 0.0
H2520 H 0.92009 0.35799 0.22904 0.0
H2521 H 0.9065 0.36836 0.25215 0.0
H2522 H 0.87476 0.34733 0.24369 0.0
H2523 H 0.85884 0.35703 0.20922 0.0
H2524 H 0.95015 0.74072 0.58106 0.0
H2525 H 0.92857 0.7265 0.55108 0.0
H2526 H 0.96019 0.66575 0.55669 0.0
H2527 H 0.98145 0.67962 0.58659 0.0
H2528 H 0.94325 0.71092 0.51254 0.0
H2529 H 0.89723 0.64792 0.55472 0.0
H2530 H 0.91121 0.66935 0.5687 0.0
H2531 H 0.92542 0.64602 0.55991 0.0
C2532 C 0.95235 0.7243 0.57595 0.0
C2533 C 0.96743 0.71126 0.58616 0.0
C2534 C 0.94001 0.7162 0.5589 0.0
C2535 C 0.94249 0.69495 0.55202 0.0
C2536 C 0.95761 0.68201 0.56215 0.0
H2537 H 0.92935 0.63388 0.43136 0.0
H2538 H 0.93994 0.65189 0.46461 0.0
C2539 C 0.9699 0.69004 0.57911 0.0
C2540 C 0.9305 0.68648 0.53329 0.0
H2541 H 0.90069 0.64335 0.51643 0.0
C2542 C 0.93362 0.69636 0.51342 0.0
C2543 C 0.91764 0.6677 0.53455 0.0
C2544 C 0.91248 0.65727 0.55568 0.0
C2545 C 0.92535 0.68717 0.49455 0.0
C2546 C 0.91407 0.66741 0.49563 0.0
C2547 C 0.90974 0.65828 0.51563 0.0
C2548 C 0.90754 0.65555 0.4761 0.0
C2549 C 0.92905 0.69854 0.4736 0.0
C2550 C 0.88589 0.65075 0.47209 0.0
C2551 C 0.87977 0.64024 0.45318 0.0
C2552 C 0.89525 0.63433 0.43802 0.0
C2553 C 0.91701 0.63839 0.44258 0.0
C2554 C 0.92308 0.64883 0.46149 0.0
H2555 H 0.93193 0.71598 0.4761 0.0
H2556 H 0.94342 0.69187 0.46577 0.0
H2557 H 0.91516 0.69631 0.46259 0.0
H2558 H 0.87369 0.65561 0.48333 0.0
H2559 H 0.86288 0.63731 0.45019 0.0
H2560 H 0.56661 0.26902 0.67138 0.0
H2561 H 0.57867 0.28964 0.70253 0.0
H2562 H 0.51836 0.32253 0.7039 0.0
H2563 H 0.50594 0.30158 0.67276 0.0
H2564 H 0.58299 0.33397 0.70814 0.0
H2565 H 0.5241 0.29797 0.7646 0.0
H2566 H 0.5291 0.28665 0.73848 0.0
H2567 H 0.5131 0.3102 0.74106 0.0
C2568 C 0.55587 0.28062 0.67829 0.0
C2569 C 0.53526 0.28358 0.66976 0.0
C2570 C 0.56283 0.29244 0.69604 0.0
C2571 C 0.54933 0.30742 0.70561 0.0
C2572 C 0.52888 0.31078 0.69691 0.0
H2573 H 0.59781 0.3927 0.80772 0.0
H2574 H 0.58223 0.3797 0.77398 0.0
C2575 C 0.52185 0.29888 0.67912 0.0
C2576 C 0.55679 0.31906 0.72497 0.0
H2577 H 0.54859 0.32332 0.77876 0.0
C2578 C 0.57539 0.33184 0.72358 0.0
C2579 C 0.54688 0.31603 0.74504 0.0
C2580 C 0.52728 0.30186 0.74755 0.0
C2581 C 0.5847 0.34128 0.74187 0.0
C2582 C 0.5749 0.33807 0.76197 0.0
C2583 C 0.55599 0.32575 0.76327 0.0
C2584 C 0.5847 0.34616 0.78207 0.0
C2585 C 0.60539 0.35383 0.73967 0.0
C2586 C 0.59102 0.3316 0.79784 0.0
C2587 C 0.59977 0.33894 0.81716 0.0
C2588 C 0.60233 0.36101 0.82108 0.0
C2589 C 0.59619 0.37558 0.80514 0.0
C2590 C 0.58734 0.3682 0.78583 0.0
H2591 H 0.61314 0.35096 0.72396 0.0
H2592 H 0.60205 0.3712 0.74103 0.0
H2593 H 0.61684 0.34962 0.7526 0.0
H2594 H 0.58912 0.31451 0.7952 0.0
H2595 H 0.60437 0.32729 0.82907 0.0
H2596 H 0.97322 0.28493 0.90891 0.0
H2597 H 0.96932 0.30788 0.94046 0.0
H2598 H 0.91603 0.26881 0.96147 0.0
H2599 H 0.9199 0.24562 0.93006 0.0
H2600 H 0.9338 0.3315 0.95512 0.0
H2601 H 0.95843 0.26917 0.01262 0.0
H2602 H 0.96329 0.26707 0.98421 0.0
H2603 H 0.93743 0.26008 0.9949 0.0
C2604 C 0.96059 0.28127 0.9202 0.0
C2605 C 0.94693 0.26339 0.91713 0.0
C2606 C 0.95842 0.2944 0.93817 0.0
C2607 C 0.94267 0.28974 0.95339 0.0
C2608 C 0.92856 0.27235 0.95003 0.0
H2609 H 0.87176 0.35086 0.04566 0.0
H2610 H 0.89037 0.3411 0.01305 0.0
C2611 C 0.93069 0.25922 0.93205 0.0
C2612 C 0.94089 0.30294 0.9729 0.0
H2613 H 0.93901 0.29879 0.02716 0.0
C2614 C 0.93527 0.32452 0.97092 0.0
C2615 C 0.94357 0.29396 0.99343 0.0
C2616 C 0.95125 0.27136 0.99647 0.0
C2617 C 0.9305 0.33688 0.98904 0.0
C2618 C 0.93103 0.3272 0.00945 0.0
C2619 C 0.93838 0.30616 0.01147 0.0
C2620 C 0.92124 0.33721 0.02843 0.0
C2621 C 0.92439 0.35997 0.98609 0.0
C2622 C 0.93243 0.33836 0.04796 0.0
C2623 C 0.9217 0.34362 0.0668 0.0
C2624 C 0.89959 0.34764 0.06637 0.0
C2625 C 0.88876 0.3477 0.04658 0.0
C2626 C 0.89946 0.3424 0.02783 0.0
H2627 H 0.9326 0.36701 0.97198 0.0
H2628 H 0.90688 0.36084 0.98314 0.0
H2629 H 0.92843 0.36978 0.00047 0.0
H2630 H 0.94923 0.33428 0.04875 0.0
H2631 H 0.93054 0.34363 0.08177 0.0
H2632 H 0.96403 0.70531 0.15451 0.0
H2633 H 0.94227 0.68248 0.17777 0.0
H2634 H 0.98521 0.69628 0.23057 0.0
H2635 H 0.00747 0.71847 0.20724 0.0
H2636 H 0.9753 0.65444 0.22825 0.0
H2637 H 0.90085 0.70202 0.22256 0.0
H2638 H 0.91075 0.69239 0.19741 0.0
H2639 H 0.92621 0.71173 0.21258 0.0
C2640 C 0.96876 0.70358 0.17112 0.0
C2641 C 0.98741 0.71377 0.1791 0.0
C2642 C 0.95626 0.69058 0.18439 0.0
C2643 C 0.96193 0.68794 0.20597 0.0
C2644 C 0.98055 0.69809 0.21395 0.0
H2645 H 0.89657 0.66062 0.31878 0.0
H2646 H 0.91085 0.67401 0.28528 0.0
C2647 C 0.99322 0.71081 0.20062 0.0
C2648 C 0.94868 0.67458 0.22044 0.0
H2649 H 0.89951 0.67109 0.24385 0.0
C2650 C 0.95866 0.65794 0.23156 0.0
C2651 C 0.92697 0.67919 0.22465 0.0
C2652 C 0.91557 0.6974 0.21383 0.0
C2653 C 0.9479 0.64649 0.24759 0.0
C2654 C 0.92632 0.6514 0.25212 0.0
C2655 C 0.916 0.66728 0.24021 0.0
C2656 C 0.9153 0.64266 0.27116 0.0
C2657 C 0.96018 0.63022 0.26039 0.0
C2658 C 0.91238 0.62053 0.27413 0.0
C2659 C 0.90445 0.61272 0.29355 0.0
C2660 C 0.89909 0.62698 0.31014 0.0
C2661 C 0.90075 0.64914 0.30648 0.0
C2662 C 0.90884 0.65687 0.28725 0.0
H2663 H 0.97771 0.63139 0.25756 0.0
H2664 H 0.95727 0.6323 0.2778 0.0
H2665 H 0.95473 0.61386 0.25571 0.0
H2666 H 0.91678 0.60931 0.26169 0.0
H2667 H 0.90311 0.59556 0.29578 0.0
H2668 H 0.50422 0.71993 0.433 0.0
H2669 H 0.52715 0.70734 0.4619 0.0
H2670 H 0.53399 0.64667 0.42948 0.0
H2671 H 0.51068 0.65894 0.40059 0.0
H2672 H 0.52509 0.64172 0.47153 0.0
H2673 H 0.59155 0.70025 0.46225 0.0
H2674 H 0.56626 0.71331 0.46465 0.0
H2675 H 0.57116 0.69616 0.44197 0.0
C2676 C 0.51066 0.70394 0.4319 0.0
C2677 C 0.50564 0.69048 0.41442 0.0
C2678 C 0.52392 0.69684 0.44837 0.0
C2679 C 0.53263 0.67625 0.44758 0.0
C2680 C 0.52756 0.66269 0.43027 0.0
H2681 H 0.62606 0.64472 0.54767 0.0
H2682 H 0.60964 0.64837 0.51221 0.0
C2683 C 0.5142 0.66973 0.41382 0.0
C2684 C 0.54613 0.66863 0.46544 0.0
H2685 H 0.58914 0.68278 0.49653 0.0
C2686 C 0.53929 0.65049 0.47682 0.0
C2687 C 0.56494 0.67976 0.472 0.0
C2688 C 0.57405 0.6983 0.45942 0.0
C2689 C 0.55003 0.64398 0.49541 0.0
C2690 C 0.56772 0.65627 0.503 0.0
C2691 C 0.57536 0.67358 0.49087 0.0
C2692 C 0.5775 0.65248 0.52424 0.0
C2693 C 0.54215 0.62419 0.50685 0.0
C2694 C 0.56488 0.65371 0.5427 0.0
C2695 C 0.57416 0.65159 0.56292 0.0
C2696 C 0.59633 0.64849 0.56509 0.0
C2697 C 0.60895 0.64716 0.54655 0.0
C2698 C 0.59961 0.64919 0.52629 0.0
H2699 H 0.53395 0.61289 0.4956 0.0
H2700 H 0.55551 0.61574 0.51484 0.0
H2701 H 0.53038 0.62887 0.51921 0.0
H2702 H 0.54789 0.65681 0.54151 0.0
H2703 H 0.56397 0.65278 0.57685 0.0
H2704 H 0.84079 0.55774 0.69379 0.0
H2705 H 0.81071 0.57972 0.68258 0.0
H2706 H 0.80773 0.6076 0.74578 0.0
H2707 H 0.83825 0.5859 0.75707 0.0
H2708 H 0.76911 0.58416 0.72807 0.0
H2709 H 0.80179 0.64658 0.67387 0.0
H2710 H 0.81268 0.62025 0.67041 0.0
H2711 H 0.81746 0.6346 0.695 0.0
C2712 C 0.83404 0.56888 0.70518 0.0
C2713 C 0.84169 0.57001 0.72633 0.0
C2714 C 0.81699 0.58153 0.69871 0.0
C2715 C 0.80722 0.59536 0.71332 0.0
C2716 C 0.8153 0.59716 0.73426 0.0
H2717 H 0.67469 0.63512 0.68948 0.0
H2718 H 0.70941 0.63253 0.70757 0.0
C2719 C 0.83265 0.58473 0.74066 0.0
C2720 C 0.78677 0.60529 0.70736 0.0
H2721 H 0.76438 0.6383 0.67043 0.0
C2722 C 0.76795 0.59638 0.71584 0.0
C2723 C 0.78554 0.62103 0.69131 0.0
C2724 C 0.80543 0.63135 0.68218 0.0
C2725 C 0.74781 0.60168 0.70756 0.0
C2726 C 0.74655 0.61685 0.69082 0.0
C2727 C 0.76539 0.62667 0.68323 0.0
C2728 C 0.72612 0.62103 0.67958 0.0
C2729 C 0.72829 0.58985 0.71579 0.0
C2730 C 0.72428 0.61647 0.65761 0.0
C2731 C 0.70459 0.61829 0.64716 0.0
C2732 C 0.68635 0.62451 0.65856 0.0
C2733 C 0.6884 0.62989 0.68038 0.0
C2734 C 0.7082 0.62838 0.69075 0.0
H2735 H 0.73264 0.57539 0.72508 0.0
H2736 H 0.7192 0.60057 0.72653 0.0
H2737 H 0.71759 0.5848 0.70238 0.0
H2738 H 0.73795 0.61083 0.64868 0.0
H2739 H 0.70353 0.61416 0.63031 0.0
H2740 H 0.67918 0.5922 0.01531 0.0
H2741 H 0.66664 0.56099 0.99487 0.0
H2742 H 0.73044 0.55194 0.97054 0.0
H2743 H 0.7433 0.58273 0.99142 0.0
H2744 H 0.6662 0.55211 0.95248 0.0
H2745 H 0.71688 0.49382 0.99538 0.0
H2746 H 0.71358 0.52097 0.00467 0.0
H2747 H 0.73208 0.51519 0.98346 0.0
C2748 C 0.69057 0.58359 0.00561 0.0
C2749 C 0.71229 0.58982 0.00517 0.0
C2750 C 0.68335 0.56577 0.99392 0.0
C2751 C 0.69769 0.55393 0.98153 0.0
C2752 C 0.71923 0.56052 0.98047 0.0
H2753 H 0.66249 0.45941 0.88441 0.0
H2754 H 0.67322 0.49211 0.90356 0.0
C2755 C 0.72652 0.57819 0.99234 0.0
C2756 C 0.6901 0.53458 0.96985 0.0
H2757 H 0.69863 0.48102 0.9643 0.0
C2758 C 0.67321 0.53653 0.9551 0.0
C2759 C 0.69906 0.51424 0.97359 0.0
C2760 C 0.71625 0.51083 0.99029 0.0
C2761 C 0.66519 0.51869 0.94374 0.0
C2762 C 0.67474 0.49851 0.94686 0.0
C2763 C 0.69147 0.49655 0.96179 0.0
C2764 C 0.6675 0.47906 0.93511 0.0
C2765 C 0.6463 0.52156 0.9289 0.0
C2766 C 0.6612 0.46073 0.9465 0.0
C2767 C 0.65547 0.44193 0.93563 0.0
C2768 C 0.65582 0.44115 0.91315 0.0
C2769 C 0.66188 0.45959 0.90174 0.0
C2770 C 0.66788 0.47833 0.91265 0.0
H2771 H 0.63708 0.53608 0.93311 0.0
H2772 H 0.65216 0.52351 0.91228 0.0
H2773 H 0.63531 0.50744 0.92931 0.0
H2774 H 0.66085 0.46095 0.96384 0.0
H2775 H 0.65076 0.42801 0.94485 0.0
H2776 H 0.66826 0.49306 0.16997 0.0
H2777 H 0.69609 0.46779 0.16012 0.0
H2778 H 0.67286 0.42341 0.2076 0.0
H2779 H 0.64477 0.44861 0.21754 0.0
H2780 H 0.72698 0.45321 0.19117 0.0
H2781 H 0.68133 0.38649 0.15179 0.0
H2782 H 0.67078 0.41321 0.15413 0.0
H2783 H 0.67166 0.39617 0.17713 0.0
C2784 C 0.66888 0.47783 0.17815 0.0
C2785 C 0.65441 0.47284 0.19459 0.0
C2786 C 0.68475 0.46341 0.17248 0.0
C2787 C 0.68636 0.44374 0.18304 0.0
C2788 C 0.67163 0.43842 0.19908 0.0
H2789 H 0.80651 0.37435 0.18004 0.0
H2790 H 0.77186 0.38733 0.19229 0.0
C2791 C 0.65571 0.45287 0.2048 0.0
C2792 C 0.70468 0.42981 0.17845 0.0
H2793 H 0.71881 0.38255 0.15508 0.0
C2794 C 0.72523 0.43769 0.18343 0.0
C2795 C 0.70218 0.40964 0.16833 0.0
C2796 C 0.68034 0.4008 0.16236 0.0
C2797 C 0.74351 0.42613 0.17814 0.0
C2798 C 0.74109 0.40599 0.16788 0.0
C2799 C 0.72051 0.39791 0.16316 0.0
C2800 C 0.75997 0.39414 0.16049 0.0
C2801 C 0.76529 0.43594 0.18283 0.0
C2802 C 0.76419 0.39268 0.13852 0.0
C2803 C 0.78392 0.38523 0.13143 0.0
C2804 C 0.79974 0.37921 0.14627 0.0
C2805 C 0.7948 0.37921 0.16822 0.0
C2806 C 0.77502 0.38657 0.17526 0.0
H2807 H 0.76431 0.45321 0.18707 0.0
H2808 H 0.7727 0.42749 0.19652 0.0
H2809 H 0.77601 0.43425 0.16881 0.0
H2810 H 0.7527 0.39842 0.1269 0.0
H2811 H 0.78713 0.38522 0.11441 0.0
H2812 H 0.71686 0.45163 0.47184 0.0
H2813 H 0.74342 0.47694 0.45732 0.0
H2814 H 0.7898 0.42645 0.45406 0.0
H2815 H 0.76372 0.4013 0.46867 0.0
H2816 H 0.80536 0.46316 0.47415 0.0
H2817 H 0.76669 0.48131 0.39605 0.0
H2818 H 0.75003 0.48521 0.41909 0.0
H2819 H 0.75868 0.45872 0.41223 0.0
C2820 C 0.73262 0.44591 0.46775 0.0
C2821 C 0.7382 0.4245 0.47145 0.0
C2822 C 0.74775 0.46034 0.45945 0.0
C2823 C 0.7685 0.45347 0.45455 0.0
C2824 C 0.77389 0.43205 0.45781 0.0
H2825 H 0.86097 0.52475 0.37982 0.0
H2826 H 0.84011 0.49544 0.39543 0.0
C2827 C 0.75892 0.41771 0.46615 0.0
C2828 C 0.78503 0.4686 0.44675 0.0
H2829 H 0.79763 0.50172 0.40538 0.0
C2830 C 0.80373 0.47157 0.45908 0.0
C2831 C 0.78293 0.47925 0.42698 0.0
C2832 C 0.7636 0.47588 0.41268 0.0
C2833 C 0.82034 0.48518 0.45225 0.0
C2834 C 0.81798 0.49628 0.43275 0.0
C2835 C 0.79939 0.49311 0.42032 0.0
C2836 C 0.83406 0.51204 0.42524 0.0
C2837 C 0.84033 0.48738 0.46581 0.0
C2838 C 0.83827 0.53068 0.43722 0.0
C2839 C 0.85028 0.54741 0.42843 0.0
C2840 C 0.85801 0.54588 0.40735 0.0
C2841 C 0.85514 0.52652 0.39603 0.0
C2842 C 0.84316 0.50977 0.40488 0.0
H2843 H 0.8423 0.47342 0.47658 0.0
H2844 H 0.85483 0.489 0.4557 0.0
H2845 H 0.83918 0.50195 0.47597 0.0
H2846 H 0.83116 0.53285 0.45285 0.0
H2847 H 0.85227 0.56206 0.43764 0.0
H2848 H 0.79924 0.52652 0.79999 0.0
H2849 H 0.77263 0.49913 0.80915 0.0
H2850 H 0.79964 0.45623 0.76248 0.0
H2851 H 0.82669 0.48334 0.75355 0.0
H2852 H 0.74207 0.47817 0.78528 0.0
H2853 H 0.80177 0.42084 0.8169 0.0
H2854 H 0.80859 0.4483 0.81082 0.0
H2855 H 0.80564 0.42891 0.78961 0.0
C2856 C 0.79947 0.51132 0.79157 0.0
C2857 C 0.81525 0.50703 0.77623 0.0
C2858 C 0.78426 0.49568 0.79683 0.0
C2859 C 0.78447 0.47552 0.78679 0.0
C2860 C 0.79957 0.47149 0.77079 0.0
H2861 H 0.67468 0.39164 0.81547 0.0
H2862 H 0.70353 0.40798 0.79451 0.0
C2863 C 0.81493 0.48706 0.76564 0.0
C2864 C 0.76905 0.45874 0.79355 0.0
H2865 H 0.76548 0.41026 0.81843 0.0
C2866 C 0.74713 0.46321 0.79233 0.0
C2867 C 0.77582 0.43932 0.80284 0.0
C2868 C 0.79922 0.43404 0.80533 0.0
C2869 C 0.73177 0.44916 0.80088 0.0
C2870 C 0.73853 0.42982 0.81037 0.0
C2871 C 0.7604 0.42499 0.81093 0.0
C2872 C 0.72335 0.41582 0.82205 0.0
C2873 C 0.70858 0.45578 0.80074 0.0
C2874 C 0.72575 0.41338 0.84425 0.0
C2875 C 0.70951 0.40374 0.85622 0.0
C2876 C 0.69052 0.39658 0.84616 0.0
C2877 C 0.68899 0.39735 0.82369 0.0
C2878 C 0.70539 0.40676 0.81171 0.0
H2879 H 0.70676 0.47301 0.79685 0.0
H2880 H 0.69967 0.44629 0.78846 0.0
H2881 H 0.70106 0.45274 0.81652 0.0
H2882 H 0.73961 0.42012 0.85251 0.0
H2883 H 0.71124 0.40328 0.87348 0.0
H2884 H 0.81784 0.59211 0.02722 0.0
H2885 H 0.84002 0.56017 0.03175 0.0
H2886 H 0.79586 0.53598 0.07893 0.0
H2887 H 0.77379 0.56764 0.0747 0.0
H2888 H 0.85663 0.54182 0.07643 0.0
H2889 H 0.80298 0.48969 0.02697 0.0
H2890 H 0.80481 0.51839 0.02353 0.0
H2891 H 0.78963 0.50734 0.04528 0.0
C2892 C 0.81296 0.58001 0.03864 0.0
C2893 C 0.79406 0.58231 0.05057 0.0
C2894 C 0.82563 0.56187 0.0412 0.0
C2895 C 0.8194 0.54582 0.05556 0.0
C2896 C 0.80078 0.54825 0.0677 0.0
H2897 H 0.85415 0.44329 0.12968 0.0
H2898 H 0.85052 0.47834 0.11323 0.0
C2899 C 0.78823 0.56634 0.06527 0.0
C2900 C 0.8318 0.5261 0.0579 0.0
H2901 H 0.82608 0.47215 0.05172 0.0
C2902 C 0.85035 0.52657 0.07064 0.0
C2903 C 0.82369 0.50639 0.04998 0.0
C2904 C 0.80427 0.50531 0.03551 0.0
C2905 C 0.86006 0.50749 0.07709 0.0
C2906 C 0.85067 0.48766 0.07087 0.0
C2907 C 0.83319 0.48736 0.05664 0.0
C2908 C 0.85668 0.46721 0.08097 0.0
C2909 C 0.87981 0.50877 0.09106 0.0
C2910 C 0.8613 0.44926 0.06831 0.0
C2911 C 0.86305 0.42908 0.07764 0.0
C2912 C 0.86008 0.42651 0.09981 0.0
C2913 C 0.85648 0.44469 0.11257 0.0
C2914 C 0.85465 0.46483 0.10321 0.0
H2915 H 0.88929 0.52356 0.08772 0.0
H2916 H 0.87493 0.50936 0.10811 0.0
H2917 H 0.89019 0.49465 0.08866 0.0
H2918 H 0.86276 0.45074 0.0511 0.0
H2919 H 0.86604 0.41541 0.06738 0.0
H2920 H 0.67477 0.51586 0.24705 0.0
H2921 H 0.70839 0.52249 0.26636 0.0
H2922 H 0.68848 0.58676 0.2811 0.0
H2923 H 0.65503 0.58049 0.26159 0.0
H2924 H 0.72947 0.58499 0.26506 0.0
H2925 H 0.7179 0.52671 0.33106 0.0
H2926 H 0.71513 0.51541 0.30467 0.0
H2927 H 0.69627 0.53491 0.31378 0.0
C2928 C 0.67745 0.53136 0.25454 0.0
C2929 C 0.66219 0.54765 0.25279 0.0
C2930 C 0.69664 0.53507 0.26563 0.0
C2931 C 0.70075 0.55502 0.27534 0.0
C2932 C 0.68554 0.57124 0.27373 0.0
H2933 H 0.79732 0.59014 0.36839 0.0
H2934 H 0.76435 0.58189 0.34868 0.0
C2935 C 0.66643 0.56761 0.26257 0.0
C2936 C 0.72123 0.55935 0.28657 0.0
H2937 H 0.75199 0.54376 0.32885 0.0
C2938 C 0.73443 0.576 0.27902 0.0
C2939 C 0.72745 0.54769 0.30487 0.0
C2940 C 0.71339 0.5303 0.31424 0.0
C2941 C 0.75379 0.58132 0.28929 0.0
C2942 C 0.76024 0.56936 0.30731 0.0
C2943 C 0.74702 0.55274 0.3149 0.0
C2944 C 0.78032 0.57432 0.31898 0.0
C2945 C 0.76689 0.60002 0.2811 0.0
C2946 C 0.80019 0.57265 0.30879 0.0
C2947 C 0.81909 0.57746 0.31995 0.0
C2948 C 0.81839 0.58381 0.34158 0.0
C2949 C 0.79843 0.58528 0.35176 0.0
C2950 C 0.77957 0.58055 0.34055 0.0
H2951 H 0.75726 0.61062 0.27067 0.0
H2952 H 0.7736 0.60971 0.29456 0.0
H2953 H 0.78044 0.59391 0.27152 0.0
H2954 H 0.80108 0.56748 0.29224 0.0
H2955 H 0.83422 0.57604 0.31169 0.0
H2956 H 0.66646 0.40591 0.52444 0.0
H2957 H 0.65068 0.43959 0.53616 0.0
H2958 H 0.70846 0.4554 0.57133 0.0
H2959 H 0.72457 0.42198 0.55926 0.0
H2960 H 0.64236 0.45634 0.57584 0.0
H2961 H 0.70116 0.5072 0.53276 0.0
H2962 H 0.69857 0.47873 0.5281 0.0
H2963 H 0.71367 0.48878 0.55073 0.0
C2964 C 0.67579 0.41652 0.53474 0.0
C2965 C 0.69686 0.41145 0.54073 0.0
C2966 C 0.66674 0.43574 0.54141 0.0
C2967 C 0.67859 0.45017 0.55419 0.0
C2968 C 0.69926 0.4447 0.561 0.0
H2969 H 0.64013 0.55474 0.6325 0.0
H2970 H 0.64791 0.52 0.61673 0.0
C2971 C 0.70838 0.42555 0.55423 0.0
C2972 C 0.66945 0.47106 0.56024 0.0
H2973 H 0.67939 0.52485 0.55859 0.0
C2974 C 0.65033 0.47135 0.57193 0.0
C2975 C 0.67958 0.49062 0.5546 0.0
C2976 C 0.69925 0.49139 0.54066 0.0
C2977 C 0.64157 0.4907 0.579 0.0
C2978 C 0.65253 0.51016 0.57463 0.0
C2979 C 0.67113 0.5099 0.56212 0.0
C2980 C 0.64584 0.53085 0.58393 0.0
C2981 C 0.62069 0.4901 0.59104 0.0
C2982 C 0.64239 0.54862 0.57073 0.0
C2983 C 0.63823 0.56867 0.57972 0.0
C2984 C 0.63754 0.57128 0.60209 0.0
C2985 C 0.64049 0.55331 0.61521 0.0
C2986 C 0.64476 0.53335 0.60622 0.0
H2987 H 0.61099 0.47565 0.58672 0.0
H2988 H 0.62409 0.48943 0.60848 0.0
H2989 H 0.61105 0.50455 0.58781 0.0
H2990 H 0.64328 0.54704 0.55347 0.0
H2991 H 0.63595 0.58218 0.56916 0.0
H2992 H 0.74563 0.81313 0.53182 0.0
H2993 H 0.72045 0.79028 0.55097 0.0
H2994 H 0.72581 0.83133 0.60654 0.0
H2995 H 0.75148 0.85428 0.58758 0.0
H2996 H 0.72842 0.78935 0.61696 0.0
H2997 H 0.65822 0.80087 0.56458 0.0
H2998 H 0.68098 0.79346 0.54897 0.0
H2999 H 0.6815 0.81833 0.56376 0.0
C3000 C 0.74142 0.81745 0.54807 0.0
C3001 C 0.75052 0.83563 0.55811 0.0
C3002 C 0.72685 0.80444 0.55894 0.0
C3003 C 0.72084 0.80943 0.57997 0.0
C3004 C 0.73006 0.82737 0.59021 0.0
H3005 H 0.62256 0.7176 0.62245 0.0
H3006 H 0.64005 0.7527 0.61855 0.0
C3007 C 0.74476 0.84041 0.57936 0.0
C3008 C 0.70587 0.79499 0.59141 0.0
H3009 H 0.65911 0.76713 0.58395 0.0
C3010 C 0.71303 0.78481 0.61004 0.0
C3011 C 0.68549 0.78956 0.58282 0.0
C3012 C 0.67601 0.80134 0.56407 0.0
C3013 C 0.70121 0.76793 0.61913 0.0
C3014 C 0.68211 0.76077 0.60894 0.0
C3015 C 0.67399 0.7723 0.59153 0.0
C3016 C 0.67181 0.73996 0.61419 0.0
C3017 C 0.70967 0.75755 0.63917 0.0
C3018 C 0.68386 0.72118 0.61306 0.0
C3019 C 0.67398 0.70119 0.61533 0.0
C3020 C 0.65173 0.6995 0.61842 0.0
C3021 C 0.63971 0.71834 0.61997 0.0
C3022 C 0.64967 0.73841 0.61783 0.0
H3023 H 0.71853 0.7694 0.64931 0.0
H3024 H 0.69656 0.75028 0.64877 0.0
H3025 H 0.72107 0.74483 0.63469 0.0
H3026 H 0.70083 0.7219 0.60959 0.0
H3027 H 0.68374 0.68704 0.61401 0.0
H3028 H 0.21814 0.65339 0.46544 0.0
H3029 H 0.20813 0.67848 0.43717 0.0
H3030 H 0.18398 0.72206 0.48476 0.0
H3031 H 0.19414 0.69741 0.51307 0.0
H3032 H 0.16923 0.69759 0.42526 0.0
H3033 H 0.22891 0.75799 0.45288 0.0
H3034 H 0.22911 0.73056 0.46188 0.0
H3035 H 0.2115 0.74963 0.47411 0.0
C3036 C 0.21049 0.66822 0.46989 0.0
C3037 C 0.20717 0.6735 0.49157 0.0
C3038 C 0.20482 0.68252 0.4537 0.0
C3039 C 0.19579 0.7023 0.45895 0.0
C3040 C 0.19143 0.70709 0.48044 0.0
H3041 H 0.12106 0.79569 0.40177 0.0
H3042 H 0.13581 0.76179 0.41319 0.0
C3043 C 0.19716 0.69291 0.4966 0.0
C3044 C 0.19137 0.71837 0.44223 0.0
H3045 H 0.20047 0.77091 0.43055 0.0
C3046 C 0.17629 0.71355 0.42613 0.0
C3047 C 0.20112 0.73893 0.44296 0.0
C3048 C 0.21874 0.74453 0.45874 0.0
C3049 C 0.1695 0.72932 0.41172 0.0
C3050 C 0.17769 0.75048 0.41387 0.0
C3051 C 0.19395 0.75478 0.42897 0.0
C3052 C 0.16811 0.76897 0.40267 0.0
C3053 C 0.15339 0.72319 0.3946 0.0
C3054 C 0.18125 0.78436 0.39269 0.0
C3055 C 0.17291 0.80409 0.38654 0.0
C3056 C 0.15125 0.80873 0.39021 0.0
C3057 C 0.13781 0.79267 0.39869 0.0
C3058 C 0.14621 0.7731 0.40506 0.0
H3059 H 0.15544 0.70628 0.38948 0.0
H3060 H 0.13699 0.72461 0.40118 0.0
H3061 H 0.15481 0.73366 0.38035 0.0
H3062 H 0.19821 0.78155 0.39071 0.0
H3063 H 0.18365 0.81604 0.37987 0.0
H3064 H 0.58074 0.97052 0.72919 0.0
H3065 H 0.5498 0.95368 0.71142 0.0
H3066 H 0.56955 0.98098 0.65119 0.0
H3067 H 0.60002 -0.00146 0.66906 0.0
H3068 H 0.52873 0.9875 0.6575 0.0
H3069 H 0.54494 0.90222 0.67325 0.0
H3070 H 0.54473 0.91743 0.69766 0.0
H3071 H 0.56481 0.92303 0.67775 0.0
C3072 C 0.57859 0.9727 0.71212 0.0
C3073 C 0.5927 0.98579 0.70047 0.0
C3074 C 0.56102 0.96295 0.70195 0.0
C3075 C 0.55759 0.96575 0.6799 0.0
C3076 C 0.57194 0.97854 0.6682 0.0
H3077 H 0.45482 0.89183 0.61799 0.0
H3078 H 0.48999 0.90761 0.62613 0.0
C3079 C 0.58932 0.98854 0.67841 0.0
C3080 C 0.53821 0.95665 0.66939 0.0
H3081 H 0.50858 0.91071 0.66383 0.0
C3082 C 0.52447 0.97064 0.65861 0.0
C3083 C 0.53287 0.93461 0.67045 0.0
C3084 C 0.54776 0.91844 0.6802 0.0
C3085 C 0.50506 0.96334 0.64968 0.0
C3086 C 0.49896 0.94162 0.65222 0.0
C3087 C 0.51313 0.92745 0.66216 0.0
C3088 C 0.47761 0.93338 0.64558 0.0
C3089 C 0.49138 0.979 0.63759 0.0
C3090 C 0.45898 0.94274 0.65368 0.0
C3091 C 0.43887 0.93395 0.64882 0.0
C3092 C 0.43709 0.91532 0.63619 0.0
C3093 C 0.45573 0.90613 0.62787 0.0
C3094 C 0.47582 0.91512 0.63248 0.0
H3095 H 0.50128 0.99214 0.63067 0.0
H3096 H 0.48226 0.97097 0.62444 0.0
H3097 H 0.47983 0.98636 0.64878 0.0
H3098 H 0.46001 0.95647 0.66431 0.0
H3099 H 0.4248 0.94126 0.65562 0.0
H3100 H 0.26586 0.33147 0.95294 0.0
H3101 H 0.26695 0.30032 0.92905 0.0
H3102 H 0.31635 0.27281 0.9684 0.0
H3103 H 0.31526 0.30377 0.99246 0.0
H3104 H 0.30211 0.28684 0.90586 0.0
H3105 H 0.27359 0.22311 0.96029 0.0
H3106 H 0.26968 0.25123 0.96576 0.0
H3107 H 0.29483 0.23889 0.97209 0.0
C3108 C 0.27679 0.31866 0.95665 0.0
C3109 C 0.29049 0.32003 0.97458 0.0
C3110 C 0.27737 0.30092 0.94298 0.0
C3111 C 0.29151 0.28419 0.94715 0.0
C3112 C 0.30501 0.28538 0.96518 0.0
H3113 H 0.36416 0.19788 0.87947 0.0
H3114 H 0.34563 0.2297 0.89159 0.0
C3115 C 0.30446 0.30312 0.97883 0.0
C3116 C 0.29335 0.2661 0.93198 0.0
H3117 H 0.29482 0.21164 0.93025 0.0
C3118 C 0.3001 0.27037 0.91101 0.0
C3119 C 0.2902 0.24468 0.93855 0.0
C3120 C 0.28144 0.23919 0.96034 0.0
C3121 C 0.30545 0.25369 0.89698 0.0
C3122 C 0.30433 0.23233 0.90432 0.0
C3123 C 0.29592 0.22804 0.92469 0.0
C3124 C 0.31429 0.21446 0.89255 0.0
C3125 C 0.31283 0.25914 0.87468 0.0
C3126 C 0.30278 0.19537 0.8887 0.0
C3127 C 0.31341 0.17699 0.88199 0.0
C3128 C 0.33577 0.17741 0.8792 0.0
C3129 C 0.34696 0.19697 0.88154 0.0
C3130 C 0.33633 0.21528 0.8883 0.0
H3131 H 0.30528 0.27409 0.86895 0.0
H3132 H 0.33043 0.26188 0.87489 0.0
H3133 H 0.30903 0.24601 0.86316 0.0
H3134 H 0.28576 0.1944 0.89195 0.0
H3135 H 0.30427 0.16222 0.88015 0.0
H3136 H 0.39389 0.5232 0.6693 0.0
H3137 H 0.42166 0.54556 0.6528 0.0
H3138 H 0.45983 0.54179 0.7104 0.0
H3139 H 0.43208 0.51992 0.72719 0.0
H3140 H 0.45886 0.58235 0.69393 0.0
H3141 H 0.47814 0.52275 0.63058 0.0
H3142 H 0.45078 0.53126 0.63133 0.0
H3143 H 0.46153 0.51616 0.65322 0.0
C3144 C 0.40817 0.52718 0.67849 0.0
C3145 C 0.41082 0.51964 0.69953 0.0
C3146 C 0.42405 0.53988 0.66898 0.0
C3147 C 0.44293 0.545 0.68026 0.0
C3148 C 0.44538 0.53796 0.70141 0.0
H3149 H 0.57067 0.57533 0.64837 0.0
H3150 H 0.53543 0.55958 0.65523 0.0
C3151 C 0.42948 0.52544 0.71098 0.0
C3152 C 0.46049 0.55738 0.67015 0.0
H3153 H 0.49863 0.55461 0.63132 0.0
C3154 C 0.46745 0.57644 0.6801 0.0
C3155 C 0.47165 0.5495 0.65216 0.0
C3156 C 0.46532 0.52872 0.64124 0.0
C3157 C 0.48582 0.58743 0.67311 0.0
C3158 C 0.4972 0.57937 0.65534 0.0
C3159 C 0.48976 0.56076 0.64486 0.0
C3160 C 0.51809 0.58868 0.6489 0.0
C3161 C 0.4935 0.60689 0.68556 0.0
C3162 C 0.51993 0.61011 0.64245 0.0
C3163 C 0.54011 0.61926 0.63876 0.0
C3164 C 0.55873 0.60703 0.64121 0.0
C3165 C 0.55668 0.58525 0.64649 0.0
C3166 C 0.53654 0.57619 0.65036 0.0
H3167 H 0.48546 0.60827 0.70132 0.0
H3168 H 0.51108 0.60637 0.68831 0.0
H3169 H 0.48995 0.62153 0.67626 0.0
H3170 H 0.50582 0.61987 0.64074 0.0
H3171 H 0.54114 0.63601 0.63438 0.0
H3172 H 0.75501 0.13744 0.06691 0.0
H3173 H 0.7732 0.16779 0.08439 0.0
H3174 H 0.79417 0.19083 0.02282 0.0
H3175 H 0.77676 0.15997 0.00534 0.0
H3176 H 0.82488 0.196 0.05251 0.0
H3177 H 0.74808 0.22663 0.08383 0.0
H3178 H 0.75392 0.20011 0.09287 0.0
H3179 H 0.74924 0.20486 0.06483 0.0
C3180 C 0.76371 0.14888 0.05716 0.0
C3181 C 0.76437 0.14656 0.0348 0.0
C3182 C 0.77395 0.16626 0.06713 0.0
C3183 C 0.78449 0.18186 0.05483 0.0
C3184 C 0.78596 0.17903 0.03257 0.0
H3185 H 0.81012 0.31327 0.08855 0.0
H3186 H 0.79544 0.27901 0.07591 0.0
C3187 C 0.77605 0.16143 0.02262 0.0
C3188 C 0.79335 0.20149 0.06504 0.0
H3189 H 0.77967 0.24476 0.09535 0.0
C3190 C 0.81502 0.20669 0.06189 0.0
C3191 C 0.78032 0.21554 0.07696 0.0
C3192 C 0.75656 0.21165 0.07966 0.0
C3193 C 0.82406 0.22563 0.07028 0.0
C3194 C 0.81119 0.23935 0.08276 0.0
C3195 C 0.78954 0.23408 0.08599 0.0
C3196 C 0.81951 0.25986 0.0916 0.0
C3197 C 0.84707 0.23109 0.06501 0.0
C3198 C 0.83752 0.2604 0.10513 0.0
C3199 C 0.84613 0.27998 0.11211 0.0
C3200 C 0.83655 0.29929 0.10606 0.0
C3201 C 0.81783 0.29865 0.09348 0.0
C3202 C 0.80946 0.27909 0.08622 0.0
H3203 H 0.85264 0.22216 0.05069 0.0
H3204 H 0.8492 0.2485 0.06202 0.0
H3205 H 0.85747 0.22666 0.0787 0.0
H3206 H 0.84511 0.24571 0.11003 0.0
H3207 H 0.86041 0.28001 0.12204 0.0
H3208 H 0.55318 0.0641 0.73171 0.0
H3209 H 0.52678 0.07211 0.75916 0.0
H3210 H 0.56543 0.04025 0.80643 0.0
H3211 H 0.59227 0.03261 0.77915 0.0
H3212 H 0.50392 0.0433 0.78228 0.0
H3213 H 0.5519 0.09618 0.83663 0.0
H3214 H 0.56059 0.08937 0.80996 0.0
H3215 H 0.56323 0.07041 0.83133 0.0
C3216 C 0.55621 0.05897 0.74798 0.0
C3217 C 0.57487 0.04776 0.75324 0.0
C3218 C 0.54109 0.06355 0.76365 0.0
C3219 C 0.54424 0.05696 0.78487 0.0
C3220 C 0.56289 0.04588 0.79026 0.0
H3221 H 0.4294 0.06063 0.86524 0.0
H3222 H 0.46324 0.0474 0.85101 0.0
C3223 C 0.57817 0.04146 0.77461 0.0
C3224 C 0.52736 0.0609 0.80093 0.0
H3225 H 0.51647 0.08796 0.84717 0.0
C3226 C 0.50667 0.05294 0.79657 0.0
C3227 C 0.53107 0.07348 0.81951 0.0
C3228 C 0.55284 0.08303 0.82463 0.0
C3229 C 0.48936 0.05788 0.8098 0.0
C3230 C 0.49299 0.07062 0.82832 0.0
C3231 C 0.51383 0.07799 0.8331 0.0
C3232 C 0.47492 0.07862 0.84122 0.0
C3233 C 0.46719 0.05041 0.8031 0.0
C3234 C 0.47105 0.10068 0.84187 0.0
C3235 C 0.45195 0.10832 0.85028 0.0
C3236 C 0.43627 0.09399 0.85803 0.0
C3237 C 0.44099 0.07205 0.85905 0.0
C3238 C 0.46027 0.06444 0.85085 0.0
H3239 H 0.46672 0.04464 0.78624 0.0
H3240 H 0.46201 0.03696 0.81349 0.0
H3241 H 0.45547 0.06352 0.80482 0.0
H3242 H 0.48222 0.11192 0.83468 0.0
H3243 H 0.44897 0.12534 0.84943 0.0
H3244 H 0.94059 0.94581 0.26788 0.0
H3245 H 0.96957 0.93869 0.29313 0.0
H3246 H 0.9487 0.9906 0.33343 0.0
H3247 H 0.91941 -0.00221 0.30824 0.0
H3248 H 0.00254 0.96786 0.30711 0.0
H3249 H 0.95182 0.93781 0.374 0.0
H3250 H 0.94183 0.93963 0.34689 0.0
H3251 H 0.9455 0.96345 0.36274 0.0
C3252 C 0.94214 0.95575 0.28208 0.0
C3253 C 0.92769 0.97231 0.28612 0.0
C3254 C 0.9587 0.95166 0.29649 0.0
C3255 C 0.96107 0.96398 0.31521 0.0
C3256 C 0.94689 0.98074 0.3192 0.0
H3257 H 0.0814 0.94119 0.38373 0.0
H3258 H 0.04966 0.96115 0.37306 0.0
C3259 C 0.93028 0.98487 0.30475 0.0
C3260 C 0.97864 0.95911 0.33025 0.0
H3261 H 0.98917 0.93559 0.37833 0.0
C3262 C -0.00029 0.96114 0.32285 0.0
C3263 C 0.97473 0.95032 0.3507 0.0
C3264 C 0.95227 0.9475 0.35914 0.0
C3265 C 0.017 0.95363 0.3349 0.0
C3266 C 0.01307 0.94419 0.3551 0.0
C3267 C 0.99207 0.94302 0.36294 0.0
C3268 C 0.03021 0.93289 0.36668 0.0
C3269 C 0.03914 0.95461 0.32528 0.0
C3270 C 0.02918 0.91049 0.36809 0.0
C3271 C 0.04718 0.89903 0.37435 0.0
C3272 C 0.06653 0.90984 0.37914 0.0
C3273 C 0.06684 0.93239 0.37974 0.0
C3274 C 0.04875 0.94383 0.37363 0.0
H3275 H 0.03878 0.95906 0.30808 0.0
H3276 H 0.04899 0.96679 0.33398 0.0
H3277 H 0.04718 0.93892 0.32681 0.0
H3278 H 0.01494 0.90177 0.3629 0.0
H3279 H 0.04632 0.8817 0.37393 0.0
H3280 H 0.44341 0.25788 0.16668 0.0
H3281 H 0.42564 0.28139 0.19233 0.0
H3282 H 0.48544 0.31525 0.2035 0.0
H3283 H 0.50289 0.29258 0.17703 0.0
H3284 H 0.43092 0.28567 0.2322 0.0
H3285 H 0.44769 0.36519 0.19801 0.0
H3286 H 0.45251 0.34082 0.18325 0.0
H3287 H 0.4724 0.35143 0.20167 0.0
C3288 C 0.45269 0.27045 0.17454 0.0
C3289 C 0.4745 0.27346 0.1699 0.0
C3290 C 0.44251 0.28395 0.1891 0.0
C3291 C 0.45404 0.3005 0.19951 0.0
C3292 C 0.47596 0.30321 0.19511 0.0
H3293 H 0.43942 0.34345 0.32535 0.0
H3294 H 0.44698 0.32739 0.29072 0.0
C3295 C 0.48601 0.29003 0.18021 0.0
C3296 C 0.44372 0.31364 0.21636 0.0
H3297 H 0.44115 0.36452 0.23656 0.0
C3298 C 0.43281 0.30296 0.23284 0.0
C3299 C 0.44556 0.3363 0.21708 0.0
C3300 C 0.45495 0.34907 0.19888 0.0
C3301 C 0.4251 0.31407 0.25066 0.0
C3302 C 0.42912 0.33636 0.2525 0.0
C3303 C 0.43855 0.34734 0.23536 0.0
C3304 C 0.42562 0.34784 0.27296 0.0
C3305 C 0.41313 0.30168 0.26762 0.0
C3306 C 0.41209 0.36562 0.27429 0.0
C3307 C 0.408 0.37519 0.29421 0.0
C3308 C 0.41734 0.36695 0.31291 0.0
C3309 C 0.43166 0.34987 0.31125 0.0
C3310 C 0.43592 0.34059 0.29148 0.0
H3311 H 0.40478 0.28743 0.26062 0.0
H3312 H 0.42468 0.29588 0.27977 0.0
H3313 H 0.40112 0.31179 0.27577 0.0
H3314 H 0.40422 0.37162 0.26008 0.0
H3315 H 0.39693 0.38837 0.29511 0.0
H3316 H 0.51843 0.73619 0.95385 0.0
H3317 H 0.49262 0.71465 0.97435 0.0
H3318 H 0.44117 0.73725 0.93445 0.0
H3319 H 0.4666 0.75875 0.91398 0.0
H3320 H 0.43416 0.73925 0.98016 0.0
H3321 H 0.46033 0.65938 0.95162 0.0
H3322 H 0.48134 0.67697 0.96129 0.0
H3323 H 0.46664 0.68389 0.93759 0.0
C3324 C 0.50162 0.73664 0.94952 0.0
C3325 C 0.4946 0.74907 0.93222 0.0
C3326 C 0.48696 0.72421 0.9611 0.0
C3327 C 0.46512 0.72415 0.95559 0.0
C3328 C 0.45801 0.73695 0.93874 0.0
H3329 H 0.35816 0.66853 0.02913 0.0
H3330 H 0.37693 0.68362 -0.00197 0.0
C3331 C 0.4726 0.74922 0.9271 0.0
C3332 C 0.44951 0.7112 0.96777 0.0
H3333 H 0.43589 0.65983 0.98071 0.0
C3334 C 0.4343 0.72188 0.98014 0.0
C3335 C 0.44974 0.68859 0.96742 0.0
C3336 C 0.46525 0.67644 0.95364 0.0
C3337 C 0.41999 0.71052 0.99322 0.0
C3338 C 0.42065 0.68787 0.99343 0.0
C3339 C 0.43533 0.67718 0.98036 0.0
C3340 C 0.40856 0.67532 0.00944 0.0
C3341 C 0.40517 0.72292 0.00758 0.0
C3342 C 0.42003 0.66454 0.02531 0.0
C3343 C 0.40944 0.65586 0.04282 0.0
C3344 C 0.38713 0.6578 0.04482 0.0
C3345 C 0.37538 0.66697 0.02804 0.0
C3346 C 0.38608 0.67571 0.0104 0.0
H3347 H 0.40932 0.74027 0.00811 0.0
H3348 H 0.3885 0.72117 0.00154 0.0
H3349 H 0.40569 0.7166 0.02417 0.0
H3350 H 0.43736 0.66392 0.02479 0.0
H3351 H 0.41888 0.64853 0.05535 0.0
H3352 H 0.05283 0.65942 0.64965 0.0
H3353 H 0.07208 0.64605 0.68082 0.0
H3354 H 0.07224 0.70928 0.70894 0.0
H3355 H 0.05246 0.72279 0.67805 0.0
H3356 H 0.11059 0.65653 0.70181 0.0
H3357 H 0.03958 0.67288 0.75232 0.0
H3358 H 0.03865 0.67404 0.72349 0.0
H3359 H 0.04998 0.69599 0.73871 0.0
C3360 C 0.05712 0.67058 0.66234 0.0
C3361 C 0.05074 0.69211 0.66155 0.0
C3362 C 0.0682 0.6629 0.6801 0.0
C3363 C 0.07317 0.6766 0.69729 0.0
C3364 C 0.0681 0.69838 0.69597 0.0
H3365 H 0.11979 0.65808 0.82503 0.0
H3366 H 0.11245 0.67197 0.7894 0.0
C3367 C 0.05682 0.70606 0.67832 0.0
C3368 C 0.08203 0.66772 0.71727 0.0
H3369 H 0.07052 0.66064 0.77007 0.0
C3370 C 0.10189 0.6574 0.71676 0.0
C3371 C 0.07041 0.66864 0.73663 0.0
C3372 C 0.04839 0.67829 0.73787 0.0
C3373 C 0.11064 0.64836 0.73535 0.0
C3374 C 0.09915 0.64968 0.75468 0.0
C3375 C 0.07929 0.65985 0.75514 0.0
C3376 C 0.10724 0.64081 0.77492 0.0
C3377 C 0.13216 0.63773 0.73437 0.0
C3378 C 0.10708 0.61862 0.77836 0.0
C3379 C 0.11114 0.61055 0.79881 0.0
C3380 C 0.11521 0.62464 0.81604 0.0
C3381 C 0.1164 0.6468 0.81217 0.0
C3382 C 0.11236 0.65479 0.79181 0.0
H3383 H 0.14036 0.64067 0.7189 0.0
H3384 H 0.14262 0.64363 0.74764 0.0
H3385 H 0.12997 0.62019 0.73639 0.0
H3386 H 0.10286 0.60764 0.76548 0.0
H3387 H 0.11022 0.59341 0.80128 0.0
H3388 H 0.00235 0.3445 0.43362 0.0
H3389 H 0.013 0.35921 0.46855 0.0
H3390 H 0.07949 0.35083 0.45247 0.0
H3391 H 0.06903 0.33645 0.41753 0.0
H3392 H 0.0346 0.33416 0.49691 0.0
H3393 H 0.08117 0.40868 0.48264 0.0
H3394 H 0.06332 0.39703 0.46276 0.0
H3395 H 0.08995 0.38685 0.46623 0.0
C3396 C 0.01924 0.34634 0.43732 0.0
C3397 C 0.03487 0.33914 0.42296 0.0
C3398 C 0.02529 0.35476 0.45725 0.0
C3399 C 0.04703 0.35628 0.46301 0.0
C3400 C 0.06265 0.35023 0.44819 0.0
H3401 H 0.12579 0.35642 0.57472 0.0
H3402 H 0.11037 0.35784 0.53863 0.0
C3403 C 0.05663 0.34182 0.42829 0.0
C3404 C 0.05333 0.3609 0.48542 0.0
H3405 H 0.08754 0.39104 0.51636 0.0
C3406 C 0.04584 0.34687 0.50127 0.0
C3407 C 0.06812 0.37737 0.49096 0.0
C3408 C 0.07595 0.39347 0.47477 0.0
C3409 C 0.05353 0.3482 0.52233 0.0
C3410 C 0.06885 0.36423 0.52774 0.0
C3411 C 0.07585 0.37873 0.51208 0.0
C3412 C 0.07845 0.36543 0.54937 0.0
C3413 C 0.04596 0.33178 0.53838 0.0
C3414 C 0.06566 0.3697 0.56721 0.0
C3415 C 0.07434 0.36872 0.5878 0.0
C3416 C 0.09602 0.3636 0.59088 0.0
C3417 C 0.10901 0.36023 0.57289 0.0
C3418 C 0.10026 0.36113 0.55228 0.0
H3419 H 0.03769 0.31793 0.53054 0.0
H3420 H 0.05962 0.32572 0.54795 0.0
H3421 H 0.03451 0.33933 0.54955 0.0
H3422 H 0.04886 0.3734 0.56521 0.0
H3423 H 0.06396 0.37174 0.6013 0.0
H3424 H 0.42488 0.75257 0.32307 0.0
H3425 H 0.40706 0.74088 0.28989 0.0
H3426 H 0.40884 0.67533 0.31124 0.0
H3427 H 0.42687 0.68679 0.34421 0.0
H3428 H 0.42871 0.68302 0.27191 0.0
H3429 H 0.34689 0.71707 0.27376 0.0
H3430 H 0.36845 0.73553 0.27987 0.0
H3431 H 0.36293 0.71366 0.29765 0.0
C3432 C 0.42107 0.73572 0.32086 0.0
C3433 C 0.42744 0.72054 0.33608 0.0
C3434 C 0.41076 0.7291 0.30199 0.0
C3435 C 0.40652 0.70728 0.29825 0.0
C3436 C 0.41193 0.69226 0.31392 0.0
H3437 H 0.37401 0.62939 0.18795 0.0
H3438 H 0.37989 0.64315 0.22421 0.0
C3439 C 0.42228 0.69883 0.33269 0.0
C3440 C 0.39919 0.69971 0.27699 0.0
H3441 H 0.35798 0.70137 0.24092 0.0
C3442 C 0.41318 0.6869 0.26519 0.0
C3443 C 0.37905 0.70507 0.26826 0.0
C3444 C 0.36334 0.71846 0.28056 0.0
C3445 C 0.40765 0.67935 0.24477 0.0
C3446 C 0.38741 0.68443 0.2361 0.0
C3447 C 0.37343 0.69743 0.24776 0.0
C3448 C 0.38081 0.67644 0.21478 0.0
C3449 C 0.42371 0.66633 0.23245 0.0
C3450 C 0.37852 0.69072 0.19771 0.0
C3451 C 0.3751 0.68293 0.17695 0.0
C3452 C 0.37398 0.66073 0.17302 0.0
C3453 C 0.37515 0.64656 0.19039 0.0
C3454 C 0.37847 0.65437 0.21111 0.0
H3455 H 0.44015 0.66815 0.2392 0.0
H3456 H 0.41909 0.64913 0.23323 0.0
H3457 H 0.42403 0.67108 0.21535 0.0
H3458 H 0.38022 0.70783 0.20033 0.0
H3459 H 0.37406 0.69428 0.16394 0.0
H3460 H 0.00423 0.70734 0.07416 0.0
H3461 H 0.01323 0.68282 0.04497 0.0
H3462 H 0.07743 0.67762 0.0701 0.0
H3463 H 0.06858 0.70159 0.09944 0.0
H3464 H 0.04307 0.69046 0.01517 0.0
H3465 H 0.06324 0.61571 0.0573 0.0
H3466 H 0.04894 0.63719 0.07009 0.0
H3467 H 0.07772 0.63824 0.06825 0.0
C3468 C 0.02019 0.70078 0.07362 0.0
C3469 C 0.03569 0.70649 0.08913 0.0
C3470 C 0.02526 0.68671 0.05699 0.0
C3471 C 0.04586 0.67808 0.05564 0.0
C3472 C 0.06125 0.68357 0.0712 0.0
H3473 H 0.12992 0.63126 0.96117 0.0
H3474 H 0.11184 0.64216 0.99408 0.0
C3475 C 0.0562 0.69751 0.08785 0.0
C3476 C 0.05213 0.66531 0.03675 0.0
H3477 H 0.07813 0.61989 0.02178 0.0
C3478 C 0.05032 0.67482 0.01654 0.0
C3479 C 0.0616 0.64493 0.03864 0.0
C3480 C 0.06279 0.63334 0.05974 0.0
C3481 C 0.05878 0.66505 -0.0017 0.0
C3482 C 0.06914 0.64518 0.00037 0.0
C3483 C 0.07026 0.63522 0.02039 0.0
C3484 C 0.07995 0.63533 0.98196 0.0
C3485 C 0.05746 0.67647 0.97709 0.0
C3486 C 0.06793 0.62726 0.96467 0.0
C3487 C 0.07814 0.62113 0.94587 0.0
C3488 C 0.10056 0.62298 0.94408 0.0
C3489 C 0.11264 0.62982 0.96197 0.0
C3490 C 0.10237 0.63597 0.98079 0.0
H3491 H 0.0517 0.69315 0.97885 0.0
H3492 H 0.07339 0.67692 0.96926 0.0
H3493 H 0.04621 0.66763 0.96632 0.0
H3494 H 0.0506 0.62651 0.96545 0.0
H3495 H 0.06838 0.61561 0.93249 0.0
H3496 H -0.00087 0.20602 0.79337 0.0
H3497 H 0.02467 0.22665 0.7715 0.0
H3498 H 0.04181 0.26522 0.82662 0.0
H3499 H 0.01672 0.24483 0.8484 0.0
H3500 H 0.02068 0.27122 0.76584 0.0
H3501 H 0.10013 0.25191 0.80018 0.0
H3502 H 0.07665 0.2352 0.80418 0.0
H3503 H 0.0807 0.25909 0.81996 0.0
C3504 C 0.00873 0.21857 0.80086 0.0
C3505 C 0.00584 0.22393 0.8225 0.0
C3506 C 0.02324 0.23034 0.78839 0.0
C3507 C 0.03525 0.24728 0.79756 0.0
C3508 C 0.033 0.25197 0.81935 0.0
H3509 H 0.08257 0.36074 0.73219 0.0
H3510 H 0.06741 0.33682 0.75954 0.0
C3511 C 0.01847 0.24042 0.8317 0.0
C3512 C 0.04829 0.26176 0.7841 0.0
H3513 H 0.09844 0.28346 0.7786 0.0
C3514 C 0.03771 0.27377 0.76848 0.0
C3515 C 0.07047 0.26506 0.78771 0.0
C3516 C 0.08272 0.25199 0.80379 0.0
C3517 C 0.04868 0.28932 0.75655 0.0
C3518 C 0.07071 0.29313 0.76063 0.0
C3519 C 0.08142 0.2808 0.77592 0.0
C3520 C 0.08313 0.30849 0.7476 0.0
C3521 C 0.03667 0.30133 0.73945 0.0
C3522 C 0.09785 0.30063 0.7328 0.0
C3523 C 0.10643 0.31414 0.7173 0.0
C3524 C 0.10055 0.33578 0.71649 0.0
C3525 C 0.08737 0.34413 0.73254 0.0
C3526 C 0.07861 0.33049 0.74802 0.0
H3527 H 0.0209 0.29373 0.73568 0.0
H3528 H 0.03383 0.31794 0.74506 0.0
H3529 H 0.04619 0.30224 0.7245 0.0
H3530 H 0.10159 0.28373 0.73231 0.0
H3531 H 0.11674 0.30739 0.70517 0.0
H3532 H 0.52136 0.28758 0.56773 0.0
H3533 H 0.50382 0.30675 0.53854 0.0
H3534 H 0.44459 0.27308 0.55151 0.0
H3535 H 0.46195 0.25386 0.58079 0.0
H3536 H 0.4812 0.28966 0.50147 0.0
H3537 H 0.42926 0.33782 0.55487 0.0
H3538 H 0.45264 0.32407 0.56455 0.0
H3539 H 0.4284 0.30931 0.55883 0.0
C3540 C 0.50464 0.28414 0.56428 0.0
C3541 C 0.493 0.26931 0.57663 0.0
C3542 C 0.49466 0.29512 0.54763 0.0
C3543 C 0.47285 0.29158 0.54318 0.0
C3544 C 0.46135 0.2763 0.555 0.0
H3545 H 0.38567 0.34588 0.44983 0.0
H3546 H 0.40135 0.32772 0.4807 0.0
C3547 C 0.47134 0.26524 0.5716 0.0
C3548 C 0.46217 0.30399 0.52618 0.0
H3549 H 0.42413 0.34187 0.51757 0.0
C3550 C 0.46876 0.30111 0.50496 0.0
C3551 C 0.44589 0.31882 0.53086 0.0
C3552 C 0.43867 0.32289 0.55352 0.0
C3553 C 0.45933 0.31255 0.48817 0.0
C3554 C 0.44327 0.32763 0.49286 0.0
C3555 C 0.43653 0.33037 0.51408 0.0
C3556 C 0.43329 0.34059 0.47582 0.0
C3557 C 0.46638 0.30807 0.46552 0.0
C3558 C 0.44586 0.35457 0.46349 0.0
C3559 C 0.437 0.36492 0.44584 0.0
C3560 C 0.41533 0.36161 0.44032 0.0
C3561 C 0.40242 0.34874 0.45361 0.0
C3562 C 0.41135 0.3383 0.47122 0.0
H3563 H 0.47454 0.29242 0.46415 0.0
H3564 H 0.45251 0.30808 0.4543 0.0
H3565 H 0.47784 0.32077 0.46044 0.0
H3566 H 0.46271 0.35696 0.46712 0.0
H3567 H 0.44732 0.37493 0.4361 0.0
H3568 H 0.17349 0.46852 0.29563 0.0
H3569 H 0.20577 0.45259 0.31085 0.0
H3570 H 0.22638 0.43447 0.24762 0.0
H3571 H 0.19405 0.45023 0.23219 0.0
H3572 H 0.2199 0.40588 0.30208 0.0
H3573 H 0.2772 0.47069 0.27843 0.0
H3574 H 0.24892 0.4755 0.28172 0.0
H3575 H 0.25812 0.46094 0.25881 0.0
C3576 C 0.18492 0.46123 0.28494 0.0
C3577 C 0.18126 0.46064 0.26271 0.0
C3578 C 0.20328 0.45209 0.29367 0.0
C3579 C 0.21836 0.44244 0.28031 0.0
C3580 C 0.21489 0.44194 0.25812 0.0
H3581 H 0.34511 0.39559 0.31213 0.0
H3582 H 0.31235 0.40461 0.29276 0.0
C3583 C 0.19644 0.45094 0.24937 0.0
C3584 C 0.23769 0.43281 0.2897 0.0
H3585 H 0.29123 0.44144 0.29713 0.0
C3586 C 0.23555 0.41354 0.30097 0.0
C3587 C 0.25798 0.44284 0.28799 0.0
C3588 C 0.26087 0.4637 0.27619 0.0
C3589 C 0.25332 0.40402 0.31074 0.0
C3590 C 0.27358 0.4144 0.30962 0.0
C3591 C 0.2757 0.4335 0.29797 0.0
C3592 C 0.29265 0.40635 0.32111 0.0
C3593 C 0.25026 0.38285 0.32192 0.0
C3594 C 0.29238 0.40401 0.34346 0.0
C3595 C 0.31103 0.39867 0.35456 0.0
C3596 C 0.33039 0.39595 0.34355 0.0
C3597 C 0.33047 0.39768 0.3211 0.0
C3598 C 0.31177 0.40284 0.31 0.0
H3599 H 0.23611 0.3739 0.31548 0.0
H3600 H 0.26461 0.37266 0.32029 0.0
H3601 H 0.24747 0.3858 0.33921 0.0
H3602 H 0.27795 0.40714 0.35243 0.0
H3603 H 0.31046 0.3976 0.37186 0.0
H3604 H 0.33754 0.41616 0.98144 0.0
H3605 H 0.35411 0.45135 0.98799 0.0
H3606 H 0.35537 0.43857 0.0558 0.0
H3607 H 0.33905 0.40345 0.04939 0.0
H3608 H 0.33132 0.47991 0.01173 0.0
H3609 H 0.41165 0.47102 0.0478 0.0
H3610 H 0.39867 0.44991 0.03241 0.0
H3611 H 0.39227 0.45372 0.06024 0.0
C3612 C 0.34203 0.42056 -0.00234 0.0
C3613 C 0.33676 0.40721 0.01496 0.0
C3614 C 0.35151 0.44066 0.00136 0.0
C3615 C 0.35609 0.44751 0.02235 0.0
C3616 C 0.35238 0.43346 0.03944 0.0
H3617 H 0.35807 0.5536 0.10423 0.0
H3618 H 0.36113 0.51949 0.0853 0.0
C3619 C 0.34285 0.41345 0.03577 0.0
C3620 C 0.36069 0.47036 0.02696 0.0
H3621 H 0.39251 0.50331 0.05752 0.0
C3622 C 0.34501 0.48521 0.02125 0.0
C3623 C 0.37848 0.47713 0.03945 0.0
C3624 C 0.39632 0.46211 0.04514 0.0
C3625 C 0.34575 0.50627 0.02906 0.0
C3626 C 0.36292 0.51273 0.04259 0.0
C3627 C 0.37931 0.49825 0.04724 0.0
C3628 C 0.3629 0.53364 0.05379 0.0
C3629 C 0.32738 0.52094 0.024 0.0
C3630 C 0.36322 0.5529 0.04233 0.0
C3631 C 0.3612 0.57244 0.05308 0.0
C3632 C 0.35905 0.57302 0.0755 0.0
C3633 C 0.35952 0.55371 0.08695 0.0
C3634 C 0.3614 0.53421 0.07618 0.0
H3635 H 0.31352 0.51217 0.01674 0.0
H3636 H 0.32187 0.52925 0.03869 0.0
H3637 H 0.33281 0.53329 0.01245 0.0
H3638 H 0.36475 0.55279 0.02507 0.0
H3639 H 0.36123 0.58707 0.04382 0.0
H3640 H 0.29451 0.5048 0.73608 0.0
H3641 H 0.26883 0.52505 0.75742 0.0
H3642 H 0.31975 0.54604 0.79978 0.0
H3643 H 0.34551 0.52595 0.77869 0.0
H3644 H 0.26278 0.51824 0.8038 0.0
H3645 H 0.28643 0.60181 0.78289 0.0
H3646 H 0.2925 0.57914 0.76597 0.0
H3647 H 0.30769 0.58395 0.79002 0.0
C3648 C 0.30029 0.5139 0.74979 0.0
C3649 C 0.32205 0.51372 0.75569 0.0
C3650 C 0.28561 0.52542 0.76196 0.0
C3651 C 0.29251 0.53714 0.78 0.0
C3652 C 0.31421 0.5373 0.78573 0.0
H3653 H 0.20966 0.58183 0.88286 0.0
H3654 H 0.24156 0.56993 0.86352 0.0
C3655 C 0.32886 0.52568 0.77371 0.0
C3656 C 0.27682 0.54813 0.79363 0.0
H3657 H 0.26014 0.59748 0.80975 0.0
C3658 C 0.26221 0.53555 0.80519 0.0
C3659 C 0.27626 0.5707 0.79531 0.0
C3660 C 0.29143 0.5848 0.78281 0.0
C3661 C 0.24688 0.54499 0.81839 0.0
C3662 C 0.2463 0.56756 0.82011 0.0
C3663 C 0.26092 0.58017 0.80858 0.0
C3664 C 0.22919 0.57814 0.83224 0.0
C3665 C 0.23101 0.53082 0.82998 0.0
C3666 C 0.21222 0.5874 0.82103 0.0
C3667 C 0.19405 0.59405 0.83194 0.0
C3668 C 0.19265 0.59169 0.85427 0.0
C3669 C 0.21035 0.58387 0.86567 0.0
C3670 C 0.2285 0.57701 0.85467 0.0
H3671 H 0.23192 0.51382 0.82477 0.0
H3672 H 0.23429 0.53163 0.84745 0.0
H3673 H 0.21443 0.53649 0.82726 0.0
H3674 H 0.21254 0.5884 0.80372 0.0
H3675 H 0.18071 0.60021 0.82279 0.0
H3676 H 0.20248 0.56543 0.52843 0.0
H3677 H 0.18528 0.53361 0.54362 0.0
H3678 H 0.17108 0.56901 0.60118 0.0
H3679 H 0.18773 0.60095 0.58607 0.0
H3680 H 0.20011 0.51442 0.57965 0.0
H3681 H 0.11523 0.53668 0.59103 0.0
H3682 H 0.13317 0.55161 0.57391 0.0
H3683 H 0.13384 0.55574 0.60243 0.0
C3684 C 0.19532 0.5666 0.54415 0.0
C3685 C 0.19665 0.58574 0.55607 0.0
C3686 C 0.18549 0.54839 0.5528 0.0
C3687 C 0.17674 0.54902 0.57345 0.0
C3688 C 0.17731 0.56828 0.58505 0.0
H3689 H 0.14417 0.4478 0.66385 0.0
H3690 H 0.15235 0.48267 0.64748 0.0
C3691 C 0.18704 0.58651 0.5764 0.0
C3692 C 0.16932 0.52902 0.58381 0.0
H3693 H 0.12699 0.50534 0.60933 0.0
C3694 C 0.18407 0.5124 0.58598 0.0
C3695 C 0.14844 0.52651 0.59223 0.0
C3696 C 0.13168 0.54351 0.58963 0.0
C3697 C 0.17857 0.49339 0.59651 0.0
C3698 C 0.15778 0.49093 0.60499 0.0
C3699 C 0.14298 0.50748 0.60293 0.0
C3700 C 0.15099 0.47063 0.61496 0.0
C3701 C 0.19503 0.47602 0.59859 0.0
C3702 C 0.14721 0.45265 0.60199 0.0
C3703 C 0.14263 0.43287 0.61118 0.0
C3704 C 0.14176 0.43067 0.63359 0.0
C3705 C 0.14487 0.44894 0.64657 0.0
C3706 C 0.14945 0.46883 0.63728 0.0
H3707 H 0.21138 0.48181 0.5944 0.0
H3708 H 0.19531 0.46971 0.61519 0.0
H3709 H 0.19068 0.46254 0.58768 0.0
H3710 H 0.14824 0.45385 0.58471 0.0
H3711 H 0.14007 0.41923 0.60064 0.0
H3712 H 0.17653 0.53345 0.24009 0.0
H3713 H 0.20551 0.55817 0.23024 0.0
H3714 H 0.17228 0.57302 0.17153 0.0
H3715 H 0.14312 0.54902 0.1814 0.0
H3716 H 0.22935 0.5506 0.19625 0.0
H3717 H 0.19519 0.6312 0.18745 0.0
H3718 H 0.18148 0.60999 0.20165 0.0
H3719 H 0.17955 0.61169 0.1729 0.0
C3720 C 0.17515 0.54237 0.22532 0.0
C3721 C 0.15763 0.53903 0.21141 0.0
C3722 C 0.19168 0.55655 0.21977 0.0
C3723 C 0.19094 0.5676 0.20026 0.0
C3724 C 0.17296 0.56511 0.18691 0.0
H3725 H 0.28298 0.60795 0.10798 0.0
H3726 H 0.25032 0.59859 0.12779 0.0
C3727 C 0.15639 0.55111 0.19249 0.0
C3728 C 0.21023 0.57879 0.19211 0.0
H3729 H 0.22733 0.62423 0.16681 0.0
C3730 C 0.22902 0.56686 0.19023 0.0
C3731 C 0.20973 0.59996 0.18415 0.0
C3732 C 0.19044 0.614 0.18685 0.0
C3733 C 0.247 0.57515 0.17973 0.0
C3734 C 0.24613 0.59589 0.17094 0.0
C3735 C 0.2277 0.60819 0.17339 0.0
C3736 C 0.26442 0.60469 0.15898 0.0
C3737 C 0.26662 0.56145 0.17746 0.0
C3738 C 0.28277 0.6116 0.17008 0.0
C3739 C 0.30135 0.61676 0.15893 0.0
C3740 C 0.30189 0.61508 0.13644 0.0
C3741 C 0.28309 0.60923 0.12528 0.0
C3742 C 0.26444 0.604 0.13653 0.0
H3743 H 0.26383 0.54484 0.18319 0.0
H3744 H 0.27169 0.56082 0.16045 0.0
H3745 H 0.28001 0.56868 0.18689 0.0
H3746 H 0.28293 0.61221 0.18743 0.0
H3747 H 0.31546 0.62157 0.16801 0.0
H3748 H 0.26041 0.41586 0.97294 0.0
H3749 H 0.23622 0.441 0.95593 0.0
H3750 H 0.23245 0.47699 0.01491 0.0
H3751 H 0.25713 0.45209 0.03203 0.0
H3752 H 0.19494 0.44956 0.96702 0.0
H3753 H 0.24541 0.52344 0.97155 0.0
H3754 H 0.25604 0.49716 0.97636 0.0
H3755 H 0.24114 0.51062 0.99686 0.0
C3756 C 0.25461 0.42922 0.98229 0.0
C3757 C 0.26069 0.43199 0.00386 0.0
C3758 C 0.24075 0.44355 0.97253 0.0
C3759 C 0.23266 0.46091 0.98411 0.0
C3760 C 0.23883 0.4639 0.00558 0.0
H3761 H 0.14669 0.56218 0.94778 0.0
H3762 H 0.16545 0.53485 0.96809 0.0
C3763 C 0.25289 0.44964 0.01535 0.0
C3764 C 0.21726 0.4754 0.97372 0.0
H3765 H 0.20985 0.52731 0.95903 0.0
C3766 C 0.19818 0.46657 0.96526 0.0
C3767 C 0.22158 0.49756 0.97146 0.0
C3768 C 0.24223 0.50777 0.97935 0.0
C3769 C 0.18325 0.47935 0.95459 0.0
C3770 C 0.18764 0.50144 0.95228 0.0
C3771 C 0.20655 0.51033 0.96096 0.0
C3772 C 0.17324 0.51569 0.94034 0.0
C3773 C 0.16287 0.46923 0.946 0.0
C3774 C 0.1709 0.51355 0.91807 0.0
C3775 C 0.1602 0.52918 0.90634 0.0
C3776 C 0.15186 0.54725 0.91675 0.0
C3777 C 0.1531 0.54856 0.93923 0.0
C3778 C 0.16379 0.53298 0.95089 0.0
H3779 H 0.15973 0.45323 0.95313 0.0
H3780 H 0.14896 0.47966 0.94917 0.0
H3781 H 0.16424 0.46718 0.9284 0.0
H3782 H 0.17833 0.50042 0.90964 0.0
H3783 H 0.15956 0.52772 0.88906 0.0
H3784 H 0.33629 0.44734 0.70698 0.0
H3785 H 0.30537 0.42407 0.70102 0.0
H3786 H 0.31668 0.3934 0.76179 0.0
H3787 H 0.347 0.41799 0.76854 0.0
H3788 H 0.29897 0.38342 0.69684 0.0
H3789 H 0.25647 0.4099 0.77035 0.0
H3790 H 0.28103 0.42251 0.76175 0.0
H3791 H 0.28151 0.39684 0.77472 0.0
C3792 C 0.33222 0.4357 0.71913 0.0
C3793 C 0.34378 0.43474 0.7384 0.0
C3794 C 0.31457 0.42226 0.71565 0.0
C3795 C 0.30835 0.40722 0.73114 0.0
C3796 C 0.32069 0.40533 0.74991 0.0
H3797 H 0.19305 0.34124 0.67878 0.0
H3798 H 0.22874 0.34324 0.69557 0.0
C3799 C 0.33808 0.41926 0.75368 0.0
C3800 C 0.28833 0.39459 0.7276 0.0
H3801 H 0.23735 0.38837 0.74621 0.0
C3802 C 0.28551 0.3843 0.70771 0.0
C3803 C 0.27087 0.39554 0.74194 0.0
C3804 C 0.27247 0.4069 0.76331 0.0
C3805 C 0.26529 0.37695 0.70081 0.0
C3806 C 0.24758 0.37886 0.71476 0.0
C3807 C 0.2509 0.38712 0.73549 0.0
C3808 C 0.22517 0.37578 0.70717 0.0
C3809 C 0.26294 0.36897 0.67803 0.0
C3810 C 0.21078 0.39279 0.70933 0.0
C3811 C 0.19024 0.39128 0.70058 0.0
C3812 C 0.18391 0.37293 0.68914 0.0
C3813 C 0.19787 0.35561 0.68744 0.0
C3814 C 0.21826 0.35684 0.69683 0.0
H3815 H 0.27721 0.37295 0.66819 0.0
H3816 H 0.26099 0.35129 0.67804 0.0
H3817 H 0.24868 0.37598 0.67017 0.0
H3818 H 0.21567 0.40759 0.71719 0.0
H3819 H 0.17963 0.4048 0.70196 0.0
H3820 H 0.24566 0.56267 0.47297 0.0
H3821 H 0.26616 0.53389 0.45639 0.0
H3822 H 0.32028 0.54997 0.497 0.0
H3823 H 0.29934 0.57773 0.51449 0.0
H3824 H 0.29993 0.53516 0.43348 0.0
H3825 H 0.31959 0.48752 0.50516 0.0
H3826 H 0.3007 0.50906 0.50598 0.0
H3827 H 0.32907 0.51459 0.50794 0.0
C3828 C 0.26181 0.55975 0.47857 0.0
C3829 C 0.27087 0.5722 0.49514 0.0
C3830 C 0.27355 0.54339 0.46905 0.0
C3831 C 0.2947 0.53945 0.47567 0.0
C3832 C 0.3038 0.55212 0.49209 0.0
H3833 H 0.37958 0.46521 0.39203 0.0
H3834 H 0.36244 0.49475 0.41122 0.0
C3835 C 0.29186 0.56808 0.502 0.0
C3836 C 0.30745 0.52274 0.46472 0.0
H3837 H 0.33918 0.47955 0.47354 0.0
C3838 C 0.30838 0.52288 0.44224 0.0
C3839 C 0.31835 0.5066 0.47611 0.0
C3840 C 0.31669 0.50428 0.5001 0.0
C3841 C 0.31967 0.50728 0.43084 0.0
C3842 C 0.33128 0.49166 0.44226 0.0
C3843 C 0.33053 0.49167 0.46475 0.0
C3844 C 0.34296 0.47416 0.43133 0.0
C3845 C 0.31827 0.5073 0.40669 0.0
C3846 C 0.33864 0.45282 0.43699 0.0
C3847 C 0.34896 0.43608 0.42665 0.0
C3848 C 0.36357 0.44025 0.41011 0.0
C3849 C 0.36822 0.46158 0.40459 0.0
C3850 C 0.35827 0.47843 0.4154 0.0
H3851 H 0.30397 0.51603 0.40093 0.0
H3852 H 0.33265 0.51552 0.40013 0.0
H3853 H 0.3175 0.49074 0.40015 0.0
H3854 H 0.32694 0.44904 0.4492 0.0
H3855 H 0.34491 0.41979 0.43116 0.0
H3856 H 0.29895 0.17947 0.46806 0.0
H3857 H 0.32207 0.20228 0.44615 0.0
H3858 H 0.26671 0.22559 0.41238 0.0
H3859 H 0.24336 0.20329 0.43459 0.0
H3860 H 0.32931 0.20757 0.40224 0.0
H3861 H 0.29288 0.27957 0.43901 0.0
H3862 H 0.28818 0.25295 0.44914 0.0
H3863 H 0.27391 0.26205 0.42587 0.0
C3864 C 0.29167 0.1893 0.45584 0.0
C3865 C 0.26927 0.18987 0.45333 0.0
C3866 C 0.30494 0.20224 0.44328 0.0
C3867 C 0.29605 0.21586 0.42794 0.0
C3868 C 0.27382 0.21549 0.42447 0.0
H3869 H 0.34531 0.32391 0.35917 0.0
H3870 H 0.32662 0.29017 0.36643 0.0
C3871 C 0.26051 0.20275 0.43718 0.0
C3872 C 0.30982 0.23174 0.41692 0.0
H3873 H 0.31794 0.28553 0.41158 0.0
C3874 C 0.32684 0.22463 0.40419 0.0
C3875 C 0.30668 0.25397 0.41978 0.0
C3876 C 0.28957 0.26265 0.43435 0.0
C3877 C 0.34065 0.23928 0.39397 0.0
C3878 C 0.33726 0.26142 0.39668 0.0
C3879 C 0.32027 0.26847 0.40937 0.0
C3880 C 0.35135 0.27801 0.38728 0.0
C3881 C 0.35862 0.23114 0.38027 0.0
C3882 C 0.37191 0.28181 0.39582 0.0
C3883 C 0.3827 0.30112 0.39164 0.0
C3884 C 0.37282 0.31686 0.37914 0.0
C3885 C 0.35316 0.3121 0.36904 0.0
C3886 C 0.34251 0.29282 0.37308 0.0
H3887 H 0.35684 0.21374 0.37676 0.0
H3888 H 0.35932 0.24004 0.36494 0.0
H3889 H 0.37409 0.23385 0.38877 0.0
H3890 H 0.37883 0.27068 0.40708 0.0
H3891 H 0.3978 0.30446 0.39969 0.0
H3892 H 0.78788 0.34204 0.52149 0.0
H3893 H 0.8123 0.31604 0.53666 0.0
H3894 H 0.75916 0.28305 0.56631 0.0
H3895 H 0.7344 0.3095 0.55144 0.0
H3896 H 0.79632 0.28806 0.59309 0.0
H3897 H 0.81623 0.25506 0.51293 0.0
H3898 H 0.82026 0.28348 0.51548 0.0
H3899 H 0.79365 0.27226 0.51725 0.0
C3900 C 0.78131 0.32928 0.53124 0.0
C3901 C 0.75917 0.32763 0.53506 0.0
C3902 C 0.79532 0.31443 0.53987 0.0
C3903 C 0.78748 0.29746 0.55226 0.0
C3904 C 0.76546 0.29604 0.55667 0.0
H3905 H 0.8319 0.18046 0.60144 0.0
H3906 H 0.81445 0.21474 0.59638 0.0
C3907 C 0.75136 0.31106 0.54813 0.0
C3908 C 0.80228 0.28085 0.55991 0.0
H3909 H 0.836 0.24211 0.54228 0.0
C3910 C 0.80503 0.27801 0.58203 0.0
C3911 C 0.81371 0.2679 0.54538 0.0
C3912 C 0.81072 0.26964 0.52144 0.0
C3913 C 0.8189 0.26239 0.59001 0.0
C3914 C 0.83004 0.24924 0.57546 0.0
C3915 C 0.82763 0.25243 0.55338 0.0
C3916 C 0.84218 0.23035 0.58246 0.0
C3917 C 0.82146 0.26002 0.6139 0.0
C3918 C 0.8637 0.22785 0.57657 0.0
C3919 C 0.87377 0.20817 0.57944 0.0
C3920 C 0.86224 0.19069 0.58783 0.0
C3921 C 0.8411 0.19365 0.59478 0.0
C3922 C 0.83117 0.21329 0.59211 0.0
H3923 H 0.81748 0.27507 0.62247 0.0
H3924 H 0.81037 0.24725 0.61958 0.0
H3925 H 0.83806 0.25544 0.61819 0.0
H3926 H 0.87236 0.24083 0.5689 0.0
H3927 H 0.89005 0.20627 0.5739 0.0
H3928 H 0.4045 0.06527 0.31079 0.0
H3929 H 0.43625 0.06344 0.33362 0.0
H3930 H 0.44717 -0.00122 0.31214 0.0
H3931 H 0.41565 0.00054 0.28885 0.0
H3932 H 0.45031 0.03568 0.36656 0.0
H3933 H 0.50138 0.03122 0.29379 0.0
H3934 H 0.47338 0.0378 0.29239 0.0
H3935 H 0.48129 0.01058 0.29657 0.0
C3936 C 0.41347 0.05055 0.31105 0.0
C3937 C 0.4077 0.03319 0.29767 0.0
C3938 C 0.43158 0.04951 0.3242 0.0
C3939 C 0.44423 0.03111 0.32428 0.0
C3940 C 0.43782 0.01327 0.31199 0.0
H3941 H 0.57761 0.03597 0.36742 0.0
H3942 H 0.54285 0.01923 0.35916 0.0
C3943 C 0.41977 0.01432 0.29871 0.0
C3944 C 0.46505 0.03156 0.33573 0.0
H3945 H 0.51883 0.03463 0.32677 0.0
C3946 C 0.46534 0.03513 0.35795 0.0
C3947 C 0.48462 0.0307 0.32445 0.0
C3948 C 0.4853 0.02752 0.30047 0.0
C3949 C 0.48468 0.03871 0.36906 0.0
C3950 C 0.50413 0.03908 0.35755 0.0
C3951 C 0.5039 0.03427 0.33557 0.0
C3952 C 0.52446 0.0473 0.36701 0.0
C3953 C 0.48408 0.04253 0.3929 0.0
C3954 C 0.52559 0.06844 0.37468 0.0
C3955 C 0.54537 0.07806 0.37935 0.0
C3956 C 0.56446 0.06678 0.37625 0.0
C3957 C 0.56322 0.04514 0.3699 0.0
C3958 C 0.54337 0.03553 0.3652 0.0
H3959 H 0.47013 0.03416 0.40023 0.0
H3960 H 0.49897 0.03705 0.40084 0.0
H3961 H 0.48237 0.05993 0.39605 0.0
H3962 H 0.51129 0.07801 0.37576 0.0
H3963 H 0.54573 0.0947 0.38434 0.0
H3964 H 0.7746 0.68122 0.08853 0.0
H3965 H 0.76218 0.71138 0.11035 0.0
H3966 H 0.69732 0.68706 0.10544 0.0
H3967 H 0.70953 0.65703 0.084 0.0
H3968 H 0.73433 0.74026 0.09411 0.0
H3969 H 0.69987 0.70575 0.16759 0.0
H3970 H 0.71841 0.69131 0.15094 0.0
H3971 H 0.69027 0.69157 0.14435 0.0
C3972 C 0.75778 0.68212 0.09254 0.0
C3973 C 0.74298 0.66694 0.08444 0.0
C3974 C 0.75074 0.69926 0.10504 0.0
C3975 C 0.72889 0.70124 0.1098 0.0
C3976 C 0.71431 0.68555 0.10247 0.0
H3977 H 0.63036 0.78839 0.12672 0.0
H3978 H 0.65434 0.7577 0.12506 0.0
C3979 C 0.72129 0.66854 0.08996 0.0
C3980 C 0.72057 0.72116 0.11928 0.0
H3981 H 0.68404 0.73915 0.15536 0.0
C3982 C 0.72381 0.74021 0.10788 0.0
C3983 C 0.70685 0.72099 0.13722 0.0
C3984 C 0.70384 0.70132 0.15084 0.0
C3985 C 0.7123 0.75867 0.11283 0.0
C3986 C 0.69747 0.75806 0.12987 0.0
C3987 C 0.69528 0.73944 0.14218 0.0
C3988 C 0.68281 0.77598 0.13375 0.0
C3989 C 0.71503 0.77818 0.09885 0.0
C3990 C 0.69087 0.79617 0.13978 0.0
C3991 C 0.67731 0.8137 0.14049 0.0
C3992 C 0.65541 0.81128 0.13537 0.0
C3993 C 0.64716 0.79077 0.13055 0.0
C3994 C 0.66081 0.77324 0.1297 0.0
H3995 H 0.72428 0.77468 0.08412 0.0
H3996 H 0.69919 0.78456 0.09409 0.0
H3997 H 0.72376 0.79089 0.10796 0.0
H3998 H 0.70775 0.79847 0.14333 0.0
H3999 H 0.68407 0.82924 0.14468 0.0
H4000 H 0.57457 0.48328 0.25548 0.0
H4001 H 0.55185 0.46761 0.28306 0.0
H4002 H 0.52815 0.5302 0.29907 0.0
H4003 H 0.55068 0.54613 0.27124 0.0
H4004 H 0.55139 0.47651 0.32761 0.0
H4005 H 0.47351 0.49435 0.28813 0.0
H4006 H 0.49865 0.49594 0.27408 0.0
H4007 H 0.49132 0.51683 0.29239 0.0
C4008 C 0.56447 0.49378 0.26475 0.0
C4009 C 0.56439 0.51599 0.26103 0.0
C4010 C 0.55157 0.48477 0.28058 0.0
C4011 C 0.53827 0.49773 0.293 0.0
C4012 C 0.53812 0.5199 0.28945 0.0
H4013 H 0.43747 0.45339 0.37806 0.0
H4014 H 0.46551 0.47682 0.36375 0.0
C4015 C 0.55101 0.52896 0.27353 0.0
C4016 C 0.52441 0.48777 0.30942 0.0
H4017 H 0.47221 0.47635 0.32096 0.0
C4018 C 0.53406 0.4766 0.32631 0.0
C4019 C 0.50183 0.48805 0.3077 0.0
C4020 C 0.49063 0.49928 0.28954 0.0
C4021 C 0.52169 0.46529 0.34131 0.0
C4022 C 0.49915 0.46492 0.33911 0.0
C4023 C 0.48951 0.47674 0.32267 0.0
C4024 C 0.48515 0.45095 0.35226 0.0
C4025 C 0.53287 0.45376 0.35925 0.0
C4026 C 0.48737 0.42861 0.35136 0.0
C4027 C 0.4714 0.41514 0.35963 0.0
C4028 C 0.45282 0.42384 0.36862 0.0
C4029 C 0.4515 0.4462 0.37104 0.0
C4030 C 0.46751 0.45962 0.36288 0.0
H4031 H 0.54872 0.46125 0.36294 0.0
H4032 H 0.52305 0.45367 0.37403 0.0
H4033 H 0.53561 0.43692 0.35434 0.0
H4034 H 0.50064 0.42154 0.34291 0.0
H4035 H 0.47289 0.398 0.35745 0.0
H4036 H 0.21852 0.83007 0.9568 0.0
H4037 H 0.21544 0.79647 0.9369 0.0
H4038 H 0.15011 0.81102 0.92026 0.0
H4039 H 0.15318 0.84499 0.93976 0.0
H4040 H 0.18812 0.76516 0.94821 0.0
H4041 H 0.17201 0.78751 0.86402 0.0
H4042 H 0.18245 0.80641 0.88356 0.0
H4043 H 0.15424 0.80016 0.88254 0.0
C4044 C 0.20358 0.82633 0.94862 0.0
C4045 C 0.18601 0.84014 0.95003 0.0
C4046 C 0.2019 0.80714 0.93717 0.0
C4047 C 0.18263 0.80131 0.92693 0.0
C4048 C 0.1653 0.8154 0.92762 0.0
H4049 H 0.11977 0.6866 0.88673 0.0
H4050 H 0.13194 0.72338 0.8931 0.0
C4051 C 0.16702 0.83475 0.93893 0.0
C4052 C 0.17986 0.77942 0.91799 0.0
H4053 H 0.16343 0.75117 0.87376 0.0
C4054 C 0.18308 0.76209 0.93181 0.0
C4055 C 0.17321 0.77547 0.89663 0.0
C4056 C 0.17048 0.79337 0.88076 0.0
C4057 C 0.17898 0.74097 0.92518 0.0
C4058 C 0.17178 0.73704 0.904 0.0
C4059 C 0.16904 0.75429 0.88996 0.0
C4060 C 0.1653 0.71526 0.89693 0.0
C4061 C 0.18144 0.72312 0.9412 0.0
C4062 C 0.18019 0.69863 0.89626 0.0
C4063 C 0.17328 0.6775 0.89276 0.0
C4064 C 0.15137 0.67273 0.88984 0.0
C4065 C 0.13673 0.68966 0.88919 0.0
C4066 C 0.14365 0.71072 0.89271 0.0
H4067 H 0.18318 0.72928 0.95785 0.0
H4068 H 0.16742 0.71199 0.94051 0.0
H4069 H 0.19596 0.71384 0.93732 0.0
H4070 H 0.19704 0.70191 0.89918 0.0
H4071 H 0.185 0.66487 0.89311 0.0
H4072 H 0.39927 0.95512 0.22725 0.0
H4073 H 0.42653 0.93243 0.21131 0.0
H4074 H 0.45743 0.9882 0.1843 0.0
H4075 H 0.43037 0.01115 0.20053 0.0
H4076 H 0.43905 0.92679 0.16842 0.0
H4077 H 0.50493 0.9599 0.2193 0.0
H4078 H 0.47706 0.96459 0.22494 0.0
H4079 H 0.49058 0.9798 0.20459 0.0
C4080 C 0.41188 0.96259 0.21793 0.0
C4081 C 0.41284 0.98494 0.2153 0.0
C4082 C 0.42735 0.94958 0.20877 0.0
C4083 C 0.44405 0.95869 0.19686 0.0
C4084 C 0.4448 0.98094 0.19375 0.0
H4085 H 0.55673 0.91625 0.13526 0.0
H4086 H 0.52256 0.93291 0.14335 0.0
C4087 C 0.42936 0.99401 0.20299 0.0
C4088 C 0.46108 0.94496 0.18831 0.0
H4089 H 0.51483 0.9366 0.19109 0.0
C4090 C 0.45562 0.92882 0.1734 0.0
C4091 C 0.48258 0.94754 0.19512 0.0
C4092 C 0.48917 0.96374 0.21202 0.0
C4093 C 0.47136 0.91558 0.16462 0.0
C4094 C 0.49287 0.91865 0.17102 0.0
C4095 C 0.49824 0.93449 0.18618 0.0
C4096 C 0.51051 0.90623 0.16187 0.0
C4097 C 0.46515 0.89876 0.14826 0.0
C4098 C 0.51454 0.88536 0.16896 0.0
C4099 C 0.5341 0.87573 0.16431 0.0
C4100 C 0.5498 0.8871 0.15282 0.0
C4101 C 0.54495 0.90728 0.14437 0.0
C4102 C 0.52545 0.91677 0.14888 0.0
H4103 H 0.44793 0.89948 0.14379 0.0
H4104 H 0.47498 0.90078 0.13362 0.0
H4105 H 0.46846 0.88264 0.1548 0.0
H4106 H 0.5032 0.87715 0.17923 0.0
H4107 H 0.53755 0.86018 0.17104 0.0
H4108 H 0.0779 0.04049 0.69674 0.0
H4109 H 0.05198 0.05178 0.66992 0.0
H4110 H 0.04146 0.986 0.65071 0.0
H4111 H 0.06742 0.97443 0.67785 0.0
H4112 H 0.05103 0.04428 0.62409 0.0
H4113 H 0.9814 0.00831 0.66732 0.0
H4114 H 0.00711 0.01226 0.68018 0.0
H4115 H 0.00344 0.99125 0.66075 0.0
C4116 C 0.0701 0.02838 0.68683 0.0
C4117 C 0.07452 0.00656 0.6895 0.0
C4118 C 0.05541 0.03488 0.67142 0.0
C4119 C 0.04482 0.01971 0.65843 0.0
C4120 C 0.0494 -0.0021 0.66074 0.0
H4121 H 0.92926 0.05963 0.59192 0.0
H4122 H 0.96025 0.03723 0.59888 0.0
C4123 C 0.06416 0.99134 0.67623 0.0
C4124 C 0.02817 0.02708 0.64346 0.0
H4125 H 0.97401 0.03133 0.639 0.0
C4126 C 0.03416 0.04115 0.62701 0.0
C4127 C 0.00625 0.02277 0.64725 0.0
C4128 C -0.001 0.00792 0.66486 0.0
C4129 C 0.01871 0.052 0.61502 0.0
C4130 C 0.99683 0.04896 0.61996 0.0
C4131 C 0.99084 0.0337 0.63533 0.0
C4132 C 0.98 0.06311 0.61153 0.0
C4133 C 0.02598 0.06705 0.59762 0.0
C4134 C 0.98106 0.08521 0.61584 0.0
C4135 C 0.96338 0.09809 0.61187 0.0
C4136 C 0.94426 0.08898 0.60385 0.0
C4137 C 0.94369 0.06707 0.5984 0.0
C4138 C 0.9614 0.05426 0.60225 0.0
H4139 H 0.04142 0.06186 0.59065 0.0
H4140 H 0.01386 0.06809 0.58459 0.0
H4141 H 0.02854 0.08329 0.60456 0.0
H4142 H 0.99509 0.09229 0.62347 0.0
H4143 H 0.9643 0.1149 0.61621 0.0
loop_
_geom_bond_atom_site_label_1
_geom_bond_atom_site_label_2
_geom_bond_distance
_geom_bond_site_symmetry_2
_ccdc_geom_bond_type
Co0 O1 2.216 1_655 S
Co0 O2 2.091 . S
Co0 O4 2.004 . S
Co0 O10 2.021 1_655 S
Co0 O12 2.140 . S
Co0 O13 2.244 1_655 S
O1 Co0 2.216 1_455 S
O1 C8 1.247 1_455 S
O2 Co0 2.091 . S
O2 C8 1.261 . S
C3 O12 1.225 1_455 S
C3 O13 1.272 . S
O4 Co0 2.004 . S
O4 C9 1.259 . S
Co5 O6 2.061 . S
Co5 O11 2.052 . S
Co5 O13 2.135 . S
O6 Co5 2.061 . S
O6 C9 1.235 1_455 S
C7 O10 1.238 . S
C7 O11 1.241 . S
C8 O1 1.247 1_655 S
C8 O2 1.261 . S
C9 O4 1.259 . S
C9 O6 1.235 1_655 S
O10 Co0 2.021 1_455 S
O10 C7 1.238 . S
O11 Co5 2.052 . S
O11 C7 1.241 . S
O12 Co0 2.140 . S
O12 C3 1.225 1_655 S
O13 Co0 2.244 1_455 S
O13 C3 1.272 . S
O13 Co5 2.135 . S
Co14 O15 2.216 . S
Co14 O16 2.091 . S
Co14 O18 2.004 1_655 S
Co14 O24 2.021 1_655 S
Co14 O26 2.137 . S
Co14 O27 2.244 . S
O15 Co14 2.216 . S
O15 C22 1.247 . S
O16 Co14 2.091 . S
O16 C22 1.261 . S
C17 O26 1.247 . S
C17 O27 1.272 . S
O18 Co14 2.004 1_455 S
O18 C23 1.259 . S
Co19 O20 2.061 . S
Co19 O25 2.052 . S
Co19 O27 2.135 1_455 S
O20 Co19 2.061 . S
O20 C23 1.235 . S
C21 O24 1.238 . S
C21 O25 1.241 . S
C22 O15 1.247 . S
C22 O16 1.261 . S
C23 O18 1.259 . S
C23 O20 1.235 . S
O24 Co14 2.021 1_455 S
O24 C21 1.238 . S
O25 Co19 2.052 . S
O25 C21 1.241 . S
O26 Co14 2.137 . S
O26 C17 1.247 . S
O27 Co14 2.244 . S
O27 C17 1.272 . S
O27 Co19 2.135 1_655 S
Co28 O29 2.216 . S
Co28 O30 2.091 . S
Co28 O32 2.004 . S
Co28 O38 2.021 . S
Co28 O40 2.137 . S
Co28 O41 2.244 . S
O29 Co28 2.216 . S
O29 C36 1.247 . S
O30 Co28 2.091 . S
O30 C36 1.261 . S
C31 O40 1.247 . S
C31 O41 1.272 . S
O32 Co28 2.004 . S
O32 C37 1.259 . S
Co33 O34 2.061 . S
Co33 O39 2.052 . S
Co33 O41 2.135 . S
O34 Co33 2.061 . S
O34 C37 1.235 . S
C35 O38 1.238 . S
C35 O39 1.241 . S
C36 O29 1.247 . S
C36 O30 1.261 . S
C37 O32 1.259 . S
C37 O34 1.235 . S
O38 Co28 2.021 . S
O38 C35 1.238 . S
O39 Co33 2.052 . S
O39 C35 1.241 . S
O40 Co28 2.137 . S
O40 C31 1.247 . S
O41 Co28 2.244 . S
O41 C31 1.272 . S
O41 Co33 2.135 . S
Co42 O43 2.216 . S
Co42 O44 2.091 . S
Co42 O46 2.004 . S
Co42 O52 2.021 . S
Co42 O54 2.137 . S
Co42 O55 2.244 . S
O43 Co42 2.216 . S
O43 C50 1.247 . S
O44 Co42 2.091 . S
O44 C50 1.261 . S
C45 O54 1.247 . S
C45 O55 1.272 . S
O46 Co42 2.004 . S
O46 C51 1.259 . S
Co47 O48 2.061 . S
Co47 O53 2.052 . S
Co47 O55 2.135 . S
O48 Co47 2.061 . S
O48 C51 1.235 . S
C49 O52 1.238 . S
C49 O53 1.241 . S
C50 O43 1.247 . S
C50 O44 1.261 . S
C51 O46 1.259 . S
C51 O48 1.235 . S
O52 Co42 2.021 . S
O52 C49 1.238 . S
O53 Co47 2.052 . S
O53 C49 1.241 . S
O54 Co42 2.137 . S
O54 C45 1.247 . S
O55 Co42 2.244 . S
O55 C45 1.272 . S
O55 Co47 2.135 . S
Co56 O57 2.216 1_655 S
Co56 O58 2.091 . S
Co56 O60 2.004 . S
Co56 O66 2.021 1_655 S
Co56 O68 2.137 . S
Co56 O69 2.244 1_655 S
O57 Co56 2.216 1_455 S
O57 C64 1.247 1_455 S
O58 Co56 2.091 . S
O58 C64 1.261 . S
C59 O68 1.247 1_455 S
C59 O69 1.272 . S
O60 Co56 2.004 . S
O60 C65 1.259 . S
Co61 O62 2.061 . S
Co61 O67 2.052 . S
Co61 O69 2.135 . S
O62 Co61 2.061 . S
O62 C65 1.235 1_455 S
C63 O66 1.238 . S
C63 O67 1.241 . S
C64 O57 1.247 1_655 S
C64 O58 1.261 . S
C65 O60 1.259 . S
C65 O62 1.235 1_655 S
O66 Co56 2.021 1_455 S
O66 C63 1.238 . S
O67 Co61 2.052 . S
O67 C63 1.241 . S
O68 Co56 2.137 . S
O68 C59 1.247 1_655 S
O69 Co56 2.244 1_455 S
O69 C59 1.272 . S
O69 Co61 2.135 . S
Co70 O71 2.216 . S
Co70 O72 2.091 . S
Co70 O74 2.004 . S
Co70 O80 2.021 . S
Co70 O82 2.137 . S
Co70 O83 2.244 . S
O71 Co70 2.216 . S
O71 C78 1.247 . S
O72 Co70 2.091 . S
O72 C78 1.261 . S
C73 O82 1.247 . S
C73 O83 1.272 . S
O74 Co70 2.004 . S
O74 C79 1.259 . S
Co75 O76 2.061 . S
Co75 O81 2.052 . S
Co75 O83 2.135 . S
O76 Co75 2.061 . S
O76 C79 1.235 . S
C77 O80 1.238 . S
C77 O81 1.241 . S
C78 O71 1.247 . S
C78 O72 1.261 . S
C79 O74 1.259 . S
C79 O76 1.235 . S
O80 Co70 2.021 . S
O80 C77 1.238 . S
O81 Co75 2.052 . S
O81 C77 1.241 . S
O82 Co70 2.137 . S
O82 C73 1.247 . S
O83 Co70 2.244 . S
O83 C73 1.272 . S
O83 Co75 2.135 . S
Co84 O85 2.216 . S
Co84 O86 2.091 . S
Co84 O88 2.004 . S
Co84 O94 2.021 . S
Co84 O96 2.137 . S
Co84 O97 2.244 . S
O85 Co84 2.216 . S
O85 C92 1.247 . S
O86 Co84 2.091 . S
O86 C92 1.261 . S
C87 O96 1.247 . S
C87 O97 1.272 . S
O88 Co84 2.004 . S
O88 C93 1.259 . S
Co89 O90 2.061 . S
Co89 O95 2.052 . S
Co89 O97 2.135 . S
O90 Co89 2.061 . S
O90 C93 1.235 . S
C91 O94 1.238 . S
C91 O95 1.241 . S
C92 O85 1.247 . S
C92 O86 1.261 . S
C93 O88 1.259 . S
C93 O90 1.235 . S
O94 Co84 2.021 . S
O94 C91 1.238 . S
O95 Co89 2.052 . S
O95 C91 1.241 . S
O96 Co84 2.137 . S
O96 C87 1.247 . S
O97 Co84 2.244 . S
O97 C87 1.272 . S
O97 Co89 2.135 . S
Co98 O99 2.216 . S
Co98 O100 2.091 . S
Co98 O102 2.004 1_655 S
Co98 O108 2.021 1_655 S
Co98 O110 2.137 . S
Co98 O111 2.244 . S
O99 Co98 2.216 . S
O99 C106 1.247 . S
O100 Co98 2.091 . S
O100 C106 1.261 . S
C101 O110 1.247 . S
C101 O111 1.272 . S
O102 Co98 2.004 1_455 S
O102 C107 1.259 . S
Co103 O104 2.061 . S
Co103 O109 2.052 . S
Co103 O111 2.135 1_455 S
O104 Co103 2.061 . S
O104 C107 1.235 . S
C105 O108 1.238 . S
C105 O109 1.241 . S
C106 O99 1.247 . S
C106 O100 1.261 . S
C107 O102 1.259 . S
C107 O104 1.235 . S
O108 Co98 2.021 1_455 S
O108 C105 1.238 . S
O109 Co103 2.052 . S
O109 C105 1.241 . S
O110 Co98 2.137 . S
O110 C101 1.247 . S
O111 Co98 2.244 . S
O111 C101 1.272 . S
O111 Co103 2.135 1_655 S
Co112 O113 2.207 1_565 S
Co112 O114 2.091 . S
Co112 O116 2.004 . S
Co112 O122 2.021 1_565 S
Co112 O124 2.137 . S
Co112 O125 2.244 1_565 S
O113 Co112 2.207 1_545 S
O113 C120 1.195 1_545 S
O114 Co112 2.091 . S
O114 C120 1.261 . S
C115 O124 1.247 1_545 S
C115 O125 1.272 . S
O116 Co112 2.004 . S
O116 C121 1.259 . S
Co117 O118 2.061 . S
Co117 O123 2.052 . S
Co117 O125 2.135 . S
O118 Co117 2.061 . S
O118 C121 1.235 1_545 S
C119 O122 1.238 . S
C119 O123 1.241 . S
C120 O113 1.195 1_565 S
C120 O114 1.261 . S
C121 O116 1.259 . S
C121 O118 1.235 1_565 S
O122 Co112 2.021 1_545 S
O122 C119 1.238 . S
O123 Co117 2.052 . S
O123 C119 1.241 . S
O124 Co112 2.137 . S
O124 C115 1.247 1_565 S
O125 Co112 2.244 1_545 S
O125 C115 1.272 . S
O125 Co117 2.135 . S
Co126 O127 2.216 . S
Co126 O128 2.091 . S
Co126 O130 2.004 . S
Co126 O136 2.021 . S
Co126 O138 2.137 . S
Co126 O139 2.244 . S
O127 Co126 2.216 . S
O127 C134 1.247 . S
O128 Co126 2.091 . S
O128 C134 1.261 . S
C129 O138 1.247 . S
C129 O139 1.272 . S
O130 Co126 2.004 . S
O130 C135 1.259 . S
Co131 O132 2.061 . S
Co131 O137 2.052 . S
Co131 O139 2.135 . S
O132 Co131 2.061 . S
O132 C135 1.235 . S
C133 O136 1.238 . S
C133 O137 1.241 . S
C134 O127 1.247 . S
C134 O128 1.261 . S
C135 O130 1.259 . S
C135 O132 1.235 . S
O136 Co126 2.021 . S
O136 C133 1.238 . S
O137 Co131 2.052 . S
O137 C133 1.241 . S
O138 Co126 2.137 . S
O138 C129 1.247 . S
O139 Co126 2.244 . S
O139 C129 1.272 . S
O139 Co131 2.135 . S
Co140 O141 2.216 1_565 S
Co140 O142 2.091 . S
Co140 O144 2.004 . S
Co140 O150 2.021 1_565 S
Co140 O152 2.143 . S
Co140 O153 2.244 1_565 S
O141 Co140 2.216 1_545 S
O141 C148 1.247 1_545 S
O142 Co140 2.091 . S
O142 C148 1.261 . S
C143 O152 1.205 1_545 S
C143 O153 1.272 . S
O144 Co140 2.004 . S
O144 C149 1.259 . S
Co145 O146 2.061 . S
Co145 O151 2.052 . S
Co145 O153 2.135 . S
O146 Co145 2.061 . S
O146 C149 1.235 1_545 S
C147 O150 1.238 . S
C147 O151 1.241 . S
C148 O141 1.247 1_565 S
C148 O142 1.261 . S
C149 O144 1.259 . S
C149 O146 1.235 1_565 S
O150 Co140 2.021 1_545 S
O150 C147 1.238 . S
O151 Co145 2.052 . S
O151 C147 1.241 . S
O152 Co140 2.143 . S
O152 C143 1.205 1_565 S
O153 Co140 2.244 1_545 S
O153 C143 1.272 . S
O153 Co145 2.135 . S
Co154 O155 2.216 . S
Co154 O156 2.091 . S
Co154 O158 2.004 1_554 S
Co154 O164 2.021 1_554 S
Co154 O166 2.137 . S
Co154 O167 2.244 . S
O155 Co154 2.216 . S
O155 C162 1.247 . S
O156 Co154 2.091 . S
O156 C162 1.261 . S
C157 O166 1.247 . S
C157 O167 1.272 . S
O158 Co154 2.004 1_556 S
O158 C163 1.259 . S
Co159 O160 2.061 . S
Co159 O165 2.052 . S
Co159 O167 2.135 1_556 S
O160 Co159 2.061 . S
O160 C163 1.235 . S
C161 O164 1.238 . S
C161 O165 1.241 . S
C162 O155 1.247 . S
C162 O156 1.261 . S
C163 O158 1.259 . S
C163 O160 1.235 . S
O164 Co154 2.021 1_556 S
O164 C161 1.238 . S
O165 Co159 2.052 . S
O165 C161 1.241 . S
O166 Co154 2.137 . S
O166 C157 1.247 . S
O167 Co154 2.244 . S
O167 C157 1.272 . S
O167 Co159 2.135 1_554 S
Co168 O169 2.216 1_556 S
Co168 O170 2.091 . S
Co168 O172 2.004 . S
Co168 O178 2.021 1_556 S
Co168 O180 2.141 . S
Co168 O181 2.244 1_556 S
O169 Co168 2.216 1_554 S
O169 C176 1.247 1_554 S
O170 Co168 2.091 . S
O170 C176 1.261 . S
C171 O180 1.214 1_554 S
C171 O181 1.272 . S
O172 Co168 2.004 . S
O172 C177 1.259 . S
Co173 O174 2.061 . S
Co173 O179 2.052 . S
Co173 O181 2.135 . S
O174 Co173 2.061 . S
O174 C177 1.235 1_554 S
C175 O178 1.238 . S
C175 O179 1.241 . S
C176 O169 1.247 1_556 S
C176 O170 1.261 . S
C177 O172 1.259 . S
C177 O174 1.235 1_556 S
O178 Co168 2.021 1_554 S
O178 C175 1.238 . S
O179 Co173 2.052 . S
O179 C175 1.241 . S
O180 Co168 2.141 . S
O180 C171 1.214 1_556 S
O181 Co168 2.244 1_554 S
O181 C171 1.272 . S
O181 Co173 2.135 . S
Co182 O183 2.207 1_556 S
Co182 O184 2.091 . S
Co182 O186 2.004 . S
Co182 O192 2.021 1_556 S
Co182 O194 2.137 . S
Co182 O195 2.244 1_556 S
O183 Co182 2.207 1_554 S
O183 C190 1.197 1_554 S
O184 Co182 2.091 . S
O184 C190 1.261 . S
C185 O194 1.247 1_554 S
C185 O195 1.272 . S
O186 Co182 2.004 . S
O186 C191 1.259 . S
Co187 O188 2.061 . S
Co187 O193 2.052 . S
Co187 O195 2.135 . S
O188 Co187 2.061 . S
O188 C191 1.235 1_554 S
C189 O192 1.238 . S
C189 O193 1.241 . S
C190 O183 1.197 1_556 S
C190 O184 1.261 . S
C191 O186 1.259 . S
C191 O188 1.235 1_556 S
O192 Co182 2.021 1_554 S
O192 C189 1.238 . S
O193 Co187 2.052 . S
O193 C189 1.241 . S
O194 Co182 2.137 . S
O194 C185 1.247 1_556 S
O195 Co182 2.244 1_554 S
O195 C185 1.272 . S
O195 Co187 2.135 . S
Co196 O197 2.216 . S
Co196 O198 2.091 . S
Co196 O200 2.004 . S
Co196 O206 2.021 . S
Co196 O208 2.137 . S
Co196 O209 2.244 . S
O197 Co196 2.216 . S
O197 C204 1.247 . S
O198 Co196 2.091 . S
O198 C204 1.261 . S
C199 O208 1.247 . S
C199 O209 1.272 . S
O200 Co196 2.004 . S
O200 C205 1.259 . S
Co201 O202 2.061 . S
Co201 O207 2.052 . S
Co201 O209 2.135 . S
O202 Co201 2.061 . S
O202 C205 1.235 . S
C203 O206 1.238 . S
C203 O207 1.241 . S
C204 O197 1.247 . S
C204 O198 1.261 . S
C205 O200 1.259 . S
C205 O202 1.235 . S
O206 Co196 2.021 . S
O206 C203 1.238 . S
O207 Co201 2.052 . S
O207 C203 1.241 . S
O208 Co196 2.137 . S
O208 C199 1.247 . S
O209 Co196 2.244 . S
O209 C199 1.272 . S
O209 Co201 2.135 . S
Co210 O211 2.216 . S
Co210 O212 2.091 . S
Co210 O214 2.004 . S
Co210 O220 2.021 . S
Co210 O222 2.137 . S
Co210 O223 2.244 . S
O211 Co210 2.216 . S
O211 C218 1.247 . S
O212 Co210 2.091 . S
O212 C218 1.261 . S
C213 O222 1.247 . S
C213 O223 1.272 . S
O214 Co210 2.004 . S
O214 C219 1.259 . S
Co215 O216 2.061 . S
Co215 O221 2.052 . S
Co215 O223 2.135 . S
O216 Co215 2.061 . S
O216 C219 1.235 . S
C217 O220 1.238 . S
C217 O221 1.241 . S
C218 O211 1.247 . S
C218 O212 1.261 . S
C219 O214 1.259 . S
C219 O216 1.235 . S
O220 Co210 2.021 . S
O220 C217 1.238 . S
O221 Co215 2.052 . S
O221 C217 1.241 . S
O222 Co210 2.137 . S
O222 C213 1.247 . S
O223 Co210 2.244 . S
O223 C213 1.272 . S
O223 Co215 2.135 . S
Co224 O225 2.216 1_545 S
Co224 O226 2.091 1_545 S
Co224 O228 2.004 . S
Co224 O234 2.021 . S
Co224 O236 2.137 1_545 S
Co224 O237 2.240 1_545 S
O225 Co224 2.216 1_565 S
O225 C232 1.247 . S
O226 Co224 2.091 1_565 S
O226 C232 1.261 . S
C227 O236 1.247 . S
C227 O237 1.305 . S
O228 Co224 2.004 . S
O228 C233 1.259 . S
Co229 O230 2.061 . S
Co229 O235 2.052 . S
Co229 O237 2.097 1_545 S
O230 Co229 2.061 . S
O230 C233 1.235 . S
C231 O234 1.238 . S
C231 O235 1.241 . S
C232 O225 1.247 . S
C232 O226 1.261 . S
C233 O228 1.259 . S
C233 O230 1.235 . S
O234 Co224 2.021 . S
O234 C231 1.238 . S
O235 Co229 2.052 . S
O235 C231 1.241 . S
O236 Co224 2.137 1_565 S
O236 C227 1.247 . S
O237 Co224 2.240 1_565 S
O237 C227 1.305 . S
O237 Co229 2.097 1_565 S
Co238 O239 2.216 . S
Co238 O240 2.091 . S
Co238 O242 2.004 . S
Co238 O248 2.021 . S
Co238 O250 2.137 . S
Co238 O251 2.244 . S
O239 Co238 2.216 . S
O239 C246 1.247 . S
O240 Co238 2.091 . S
O240 C246 1.261 . S
C241 O250 1.247 . S
C241 O251 1.272 . S
O242 Co238 2.004 . S
O242 C247 1.259 . S
Co243 O244 2.061 . S
Co243 O249 2.052 . S
Co243 O251 2.135 . S
O244 Co243 2.061 . S
O244 C247 1.235 . S
C245 O248 1.238 . S
C245 O249 1.241 . S
C246 O239 1.247 . S
C246 O240 1.261 . S
C247 O242 1.259 . S
C247 O244 1.235 . S
O248 Co238 2.021 . S
O248 C245 1.238 . S
O249 Co243 2.052 . S
O249 C245 1.241 . S
O250 Co238 2.137 . S
O250 C241 1.247 . S
O251 Co238 2.244 . S
O251 C241 1.272 . S
O251 Co243 2.135 . S
Co252 O253 2.216 . S
Co252 O254 2.091 . S
Co252 O256 2.004 . S
Co252 O262 2.021 . S
Co252 O264 2.137 . S
Co252 O265 2.244 . S
O253 Co252 2.216 . S
O253 C260 1.247 . S
O254 Co252 2.091 . S
O254 C260 1.261 . S
C255 O264 1.247 . S
C255 O265 1.272 . S
O256 Co252 2.004 . S
O256 C261 1.259 . S
Co257 O258 2.061 . S
Co257 O263 2.052 . S
Co257 O265 2.135 . S
O258 Co257 2.061 . S
O258 C261 1.235 . S
C259 O262 1.238 . S
C259 O263 1.241 . S
C260 O253 1.247 . S
C260 O254 1.261 . S
C261 O256 1.259 . S
C261 O258 1.235 . S
O262 Co252 2.021 . S
O262 C259 1.238 . S
O263 Co257 2.052 . S
O263 C259 1.241 . S
O264 Co252 2.137 . S
O264 C255 1.247 . S
O265 Co252 2.244 . S
O265 C255 1.272 . S
O265 Co257 2.135 . S
Co266 O267 2.216 . S
Co266 O268 2.091 . S
Co266 O270 2.004 1_565 S
Co266 O276 2.021 1_565 S
Co266 O278 2.137 . S
Co266 O279 2.244 . S
O267 Co266 2.216 . S
O267 C274 1.247 . S
O268 Co266 2.091 . S
O268 C274 1.261 . S
C269 O278 1.247 . S
C269 O279 1.272 . S
O270 Co266 2.004 1_545 S
O270 C275 1.259 . S
Co271 O272 2.061 . S
Co271 O277 2.052 . S
Co271 O279 2.135 1_545 S
O272 Co271 2.061 . S
O272 C275 1.235 . S
C273 O276 1.238 . S
C273 O277 1.241 . S
C274 O267 1.247 . S
C274 O268 1.261 . S
C275 O270 1.259 . S
C275 O272 1.235 . S
O276 Co266 2.021 1_545 S
O276 C273 1.238 . S
O277 Co271 2.052 . S
O277 C273 1.241 . S
O278 Co266 2.137 . S
O278 C269 1.247 . S
O279 Co266 2.244 . S
O279 C269 1.272 . S
O279 Co271 2.135 1_565 S
Co280 O281 2.216 . S
Co280 O282 2.091 . S
Co280 O284 2.004 1_554 S
Co280 O290 2.021 1_554 S
Co280 O292 2.137 . S
Co280 O293 2.244 . S
O281 Co280 2.216 . S
O281 C288 1.247 . S
O282 Co280 2.091 . S
O282 C288 1.261 . S
C283 O292 1.247 . S
C283 O293 1.272 . S
O284 Co280 2.004 1_556 S
O284 C289 1.259 . S
Co285 O286 2.061 . S
Co285 O291 2.052 . S
Co285 O293 2.135 1_556 S
O286 Co285 2.061 . S
O286 C289 1.235 . S
C287 O290 1.238 . S
C287 O291 1.241 . S
C288 O281 1.247 . S
C288 O282 1.261 . S
C289 O284 1.259 . S
C289 O286 1.235 . S
O290 Co280 2.021 1_556 S
O290 C287 1.238 . S
O291 Co285 2.052 . S
O291 C287 1.241 . S
O292 Co280 2.137 . S
O292 C283 1.247 . S
O293 Co280 2.244 . S
O293 C283 1.272 . S
O293 Co285 2.135 1_554 S
Co294 O295 2.216 . S
Co294 O296 2.091 . S
Co294 O298 2.004 . S
Co294 O304 2.021 . S
Co294 O306 2.137 . S
Co294 O307 2.244 . S
O295 Co294 2.216 . S
O295 C302 1.247 . S
O296 Co294 2.091 . S
O296 C302 1.261 . S
C297 O306 1.247 . S
C297 O307 1.272 . S
O298 Co294 2.004 . S
O298 C303 1.259 . S
Co299 O300 2.061 . S
Co299 O305 2.052 . S
Co299 O307 2.135 . S
O300 Co299 2.061 . S
O300 C303 1.235 . S
C301 O304 1.238 . S
C301 O305 1.241 . S
C302 O295 1.247 . S
C302 O296 1.261 . S
C303 O298 1.259 . S
C303 O300 1.235 . S
O304 Co294 2.021 . S
O304 C301 1.238 . S
O305 Co299 2.052 . S
O305 C301 1.241 . S
O306 Co294 2.137 . S
O306 C297 1.247 . S
O307 Co294 2.244 . S
O307 C297 1.272 . S
O307 Co299 2.135 . S
Co308 O309 2.216 . S
Co308 O310 2.091 . S
Co308 O312 2.004 . S
Co308 O318 2.021 . S
Co308 O320 2.137 . S
Co308 O321 2.244 . S
O309 Co308 2.216 . S
O309 C316 1.247 . S
O310 Co308 2.091 . S
O310 C316 1.261 . S
C311 O320 1.247 . S
C311 O321 1.272 . S
O312 Co308 2.004 . S
O312 C317 1.259 . S
Co313 O314 2.061 . S
Co313 O319 2.052 . S
Co313 O321 2.135 . S
O314 Co313 2.061 . S
O314 C317 1.235 . S
C315 O318 1.238 . S
C315 O319 1.241 . S
C316 O309 1.247 . S
C316 O310 1.261 . S
C317 O312 1.259 . S
C317 O314 1.235 . S
O318 Co308 2.021 . S
O318 C315 1.238 . S
O319 Co313 2.052 . S
O319 C315 1.241 . S
O320 Co308 2.137 . S
O320 C311 1.247 . S
O321 Co308 2.244 . S
O321 C311 1.272 . S
O321 Co313 2.135 . S
Co322 O323 2.216 . S
Co322 O324 2.091 . S
Co322 O326 2.004 . S
Co322 O332 2.021 . S
Co322 O334 2.137 . S
Co322 O335 2.244 . S
O323 Co322 2.216 . S
O323 C330 1.247 . S
O324 Co322 2.091 . S
O324 C330 1.261 . S
C325 O334 1.247 . S
C325 O335 1.272 . S
O326 Co322 2.004 . S
O326 C331 1.259 . S
Co327 O328 2.061 . S
Co327 O333 2.052 . S
Co327 O335 2.135 . S
O328 Co327 2.061 . S
O328 C331 1.235 . S
C329 O332 1.238 . S
C329 O333 1.241 . S
C330 O323 1.247 . S
C330 O324 1.261 . S
C331 O326 1.259 . S
C331 O328 1.235 . S
O332 Co322 2.021 . S
O332 C329 1.238 . S
O333 Co327 2.052 . S
O333 C329 1.241 . S
O334 Co322 2.137 . S
O334 C325 1.247 . S
O335 Co322 2.244 . S
O335 C325 1.272 . S
O335 Co327 2.135 . S
Fe336 O338 1.918 . S
Fe336 O341 1.997 . S
Fe336 O342 2.002 . S
Fe336 O347 1.976 . S
Fe336 O350 1.996 . S
Fe337 O338 1.918 . S
Fe337 O345 1.997 . S
Fe337 O348 1.996 . S
Fe337 O352 1.976 . S
Fe337 O355 2.002 . S
O338 Fe336 1.918 . S
O338 Fe337 1.918 . S
O338 Fe339 1.918 . S
Fe339 O338 1.918 . S
Fe339 O340 2.002 . S
Fe339 O349 1.976 . S
Fe339 O353 1.996 . S
Fe339 O356 1.997 . S
O340 Fe339 2.002 . S
O340 C357 1.295 . S
O341 Fe336 1.997 . S
O341 C357 1.235 . S
O342 Fe336 2.002 . S
O342 C343 1.295 . S
C343 O342 1.295 . S
C343 O345 1.235 . S
C344 O349 1.287 . S
C344 O350 1.255 . S
O345 Fe337 1.997 . S
O345 C343 1.235 . S
C346 O352 1.287 . S
C346 O353 1.255 . S
O347 Fe336 1.976 . S
O347 C354 1.287 . S
O348 Fe337 1.996 . S
O348 C354 1.255 . S
O349 Fe339 1.976 . S
O349 C344 1.287 . S
O350 Fe336 1.996 . S
O350 C344 1.255 . S
C351 O355 1.295 . S
C351 O356 1.235 . S
O352 Fe337 1.976 . S
O352 C346 1.287 . S
O353 Fe339 1.996 . S
O353 C346 1.255 . S
C354 O347 1.287 . S
C354 O348 1.255 . S
O355 Fe337 2.002 . S
O355 C351 1.295 . S
O356 Fe339 1.997 . S
O356 C351 1.235 . S
C357 O340 1.295 . S
C357 O341 1.235 . S
Fe358 O360 1.918 . S
Fe358 O363 1.997 . S
Fe358 O364 2.002 . S
Fe358 O369 1.976 . S
Fe358 O372 1.996 . S
Fe359 O360 1.918 . S
Fe359 O367 1.997 . S
Fe359 O370 1.996 . S
Fe359 O374 1.976 . S
Fe359 O377 2.002 . S
O360 Fe358 1.918 . S
O360 Fe359 1.918 . S
O360 Fe361 1.918 . S
Fe361 O360 1.918 . S
Fe361 O362 2.002 . S
Fe361 O371 1.976 . S
Fe361 O375 1.996 . S
Fe361 O378 1.997 . S
O362 Fe361 2.002 . S
O362 C379 1.295 . S
O363 Fe358 1.997 . S
O363 C379 1.235 . S
O364 Fe358 2.002 . S
O364 C365 1.295 . S
C365 O364 1.295 . S
C365 O367 1.235 . S
C366 O371 1.287 . S
C366 O372 1.255 . S
O367 Fe359 1.997 . S
O367 C365 1.235 . S
C368 O374 1.287 . S
C368 O375 1.255 . S
O369 Fe358 1.976 . S
O369 C376 1.287 . S
O370 Fe359 1.996 . S
O370 C376 1.255 . S
O371 Fe361 1.976 . S
O371 C366 1.287 . S
O372 Fe358 1.996 . S
O372 C366 1.255 . S
C373 O377 1.295 . S
C373 O378 1.235 . S
O374 Fe359 1.976 . S
O374 C368 1.287 . S
O375 Fe361 1.996 . S
O375 C368 1.255 . S
C376 O369 1.287 . S
C376 O370 1.255 . S
O377 Fe359 2.002 . S
O377 C373 1.295 . S
O378 Fe361 1.997 . S
O378 C373 1.235 . S
C379 O362 1.295 . S
C379 O363 1.235 . S
Fe380 O382 1.918 . S
Fe380 O385 1.997 . S
Fe380 O386 2.002 . S
Fe380 O391 1.976 . S
Fe380 O394 1.996 . S
Fe381 O382 1.918 . S
Fe381 O389 1.997 . S
Fe381 O392 1.996 . S
Fe381 O396 1.976 . S
Fe381 O399 2.002 . S
O382 Fe380 1.918 . S
O382 Fe381 1.918 . S
O382 Fe383 1.918 . S
Fe383 O382 1.918 . S
Fe383 O384 2.002 . S
Fe383 O393 1.976 . S
Fe383 O397 1.996 . S
Fe383 O400 1.997 . S
O384 Fe383 2.002 . S
O384 C401 1.295 . S
O385 Fe380 1.997 . S
O385 C401 1.235 . S
O386 Fe380 2.002 . S
O386 C387 1.295 . S
C387 O386 1.295 . S
C387 O389 1.235 . S
C388 O393 1.287 . S
C388 O394 1.255 . S
O389 Fe381 1.997 . S
O389 C387 1.235 . S
C390 O396 1.287 . S
C390 O397 1.255 . S
O391 Fe380 1.976 . S
O391 C398 1.287 . S
O392 Fe381 1.996 . S
O392 C398 1.255 . S
O393 Fe383 1.976 . S
O393 C388 1.287 . S
O394 Fe380 1.996 . S
O394 C388 1.255 . S
C395 O399 1.295 . S
C395 O400 1.235 . S
O396 Fe381 1.976 . S
O396 C390 1.287 . S
O397 Fe383 1.996 . S
O397 C390 1.255 . S
C398 O391 1.287 . S
C398 O392 1.255 . S
O399 Fe381 2.002 . S
O399 C395 1.295 . S
O400 Fe383 1.997 . S
O400 C395 1.235 . S
C401 O384 1.295 . S
C401 O385 1.235 . S
Fe402 O404 1.918 . S
Fe402 O407 1.997 . S
Fe402 O408 2.002 . S
Fe402 O413 1.976 . S
Fe402 O416 1.996 . S
Fe403 O404 1.918 . S
Fe403 O411 1.997 . S
Fe403 O414 1.996 . S
Fe403 O418 1.976 . S
Fe403 O421 2.002 . S
O404 Fe402 1.918 . S
O404 Fe403 1.918 . S
O404 Fe405 1.918 . S
Fe405 O404 1.918 . S
Fe405 O406 2.002 . S
Fe405 O415 1.976 . S
Fe405 O419 1.996 . S
Fe405 O422 1.997 . S
O406 Fe405 2.002 . S
O406 C423 1.295 . S
O407 Fe402 1.997 . S
O407 C423 1.235 . S
O408 Fe402 2.002 . S
O408 C409 1.295 . S
C409 O408 1.295 . S
C409 O411 1.235 . S
C410 O415 1.287 . S
C410 O416 1.255 . S
O411 Fe403 1.997 . S
O411 C409 1.235 . S
C412 O418 1.287 . S
C412 O419 1.255 . S
O413 Fe402 1.976 . S
O413 C420 1.287 . S
O414 Fe403 1.996 . S
O414 C420 1.255 . S
O415 Fe405 1.976 . S
O415 C410 1.287 . S
O416 Fe402 1.996 . S
O416 C410 1.255 . S
C417 O421 1.295 . S
C417 O422 1.235 . S
O418 Fe403 1.976 . S
O418 C412 1.287 . S
O419 Fe405 1.996 . S
O419 C412 1.255 . S
C420 O413 1.287 . S
C420 O414 1.255 . S
O421 Fe403 2.002 . S
O421 C417 1.295 . S
O422 Fe405 1.997 . S
O422 C417 1.235 . S
C423 O406 1.295 . S
C423 O407 1.235 . S
Fe424 O426 1.918 . S
Fe424 O429 1.997 . S
Fe424 O430 2.002 . S
Fe424 O435 1.976 . S
Fe424 O438 1.996 . S
Fe425 O426 1.918 . S
Fe425 O433 1.997 . S
Fe425 O436 1.996 . S
Fe425 O440 1.976 . S
Fe425 O443 2.002 . S
O426 Fe424 1.918 . S
O426 Fe425 1.918 . S
O426 Fe427 1.918 . S
Fe427 O426 1.918 . S
Fe427 O428 2.002 . S
Fe427 O437 1.976 . S
Fe427 O441 1.996 . S
Fe427 O444 1.997 . S
O428 Fe427 2.002 . S
O428 C445 1.295 . S
O429 Fe424 1.997 . S
O429 C445 1.235 . S
O430 Fe424 2.002 . S
O430 C431 1.295 . S
C431 O430 1.295 . S
C431 O433 1.235 . S
C432 O437 1.287 . S
C432 O438 1.255 . S
O433 Fe425 1.997 . S
O433 C431 1.235 . S
C434 O440 1.287 . S
C434 O441 1.255 . S
O435 Fe424 1.976 . S
O435 C442 1.287 . S
O436 Fe425 1.996 . S
O436 C442 1.255 . S
O437 Fe427 1.976 . S
O437 C432 1.287 . S
O438 Fe424 1.996 . S
O438 C432 1.255 . S
C439 O443 1.295 . S
C439 O444 1.235 . S
O440 Fe425 1.976 . S
O440 C434 1.287 . S
O441 Fe427 1.996 . S
O441 C434 1.255 . S
C442 O435 1.287 . S
C442 O436 1.255 . S
O443 Fe425 2.002 . S
O443 C439 1.295 . S
O444 Fe427 1.997 . S
O444 C439 1.235 . S
C445 O428 1.295 . S
C445 O429 1.235 . S
Fe446 O448 1.918 . S
Fe446 O451 1.997 . S
Fe446 O452 2.002 . S
Fe446 O457 1.976 . S
Fe446 O460 1.996 . S
Fe447 O448 1.918 . S
Fe447 O455 1.997 . S
Fe447 O458 1.996 . S
Fe447 O462 1.976 . S
Fe447 O465 2.002 . S
O448 Fe446 1.918 . S
O448 Fe447 1.918 . S
O448 Fe449 1.918 . S
Fe449 O448 1.918 . S
Fe449 O450 2.002 . S
Fe449 O459 1.976 . S
Fe449 O463 1.996 . S
Fe449 O466 1.997 . S
O450 Fe449 2.002 . S
O450 C467 1.295 . S
O451 Fe446 1.997 . S
O451 C467 1.235 . S
O452 Fe446 2.002 . S
O452 C453 1.295 . S
C453 O452 1.295 . S
C453 O455 1.235 . S
C454 O459 1.287 . S
C454 O460 1.255 . S
O455 Fe447 1.997 . S
O455 C453 1.235 . S
C456 O462 1.287 . S
C456 O463 1.255 . S
O457 Fe446 1.976 . S
O457 C464 1.287 . S
O458 Fe447 1.996 . S
O458 C464 1.255 . S
O459 Fe449 1.976 . S
O459 C454 1.287 . S
O460 Fe446 1.996 . S
O460 C454 1.255 . S
C461 O465 1.295 . S
C461 O466 1.235 . S
O462 Fe447 1.976 . S
O462 C456 1.287 . S
O463 Fe449 1.996 . S
O463 C456 1.255 . S
C464 O457 1.287 . S
C464 O458 1.255 . S
O465 Fe447 2.002 . S
O465 C461 1.295 . S
O466 Fe449 1.997 . S
O466 C461 1.235 . S
C467 O450 1.295 . S
C467 O451 1.235 . S
Fe468 O470 1.918 . S
Fe468 O473 1.997 . S
Fe468 O474 2.002 . S
Fe468 O479 1.976 . S
Fe468 O482 1.996 . S
Fe469 O470 1.918 . S
Fe469 O477 1.997 . S
Fe469 O480 1.996 . S
Fe469 O484 1.976 . S
Fe469 O487 2.002 . S
O470 Fe468 1.918 . S
O470 Fe469 1.918 . S
O470 Fe471 1.918 . S
Fe471 O470 1.918 . S
Fe471 O472 2.002 . S
Fe471 O481 1.976 . S
Fe471 O485 1.996 . S
Fe471 O488 1.997 . S
O472 Fe471 2.002 . S
O472 C489 1.295 . S
O473 Fe468 1.997 . S
O473 C489 1.235 . S
O474 Fe468 2.002 . S
O474 C475 1.295 . S
C475 O474 1.295 . S
C475 O477 1.235 . S
C476 O481 1.287 . S
C476 O482 1.255 . S
O477 Fe469 1.997 . S
O477 C475 1.235 . S
C478 O484 1.287 . S
C478 O485 1.255 . S
O479 Fe468 1.976 . S
O479 C486 1.287 . S
O480 Fe469 1.996 . S
O480 C486 1.255 . S
O481 Fe471 1.976 . S
O481 C476 1.287 . S
O482 Fe468 1.996 . S
O482 C476 1.255 . S
C483 O487 1.295 . S
C483 O488 1.235 . S
O484 Fe469 1.976 . S
O484 C478 1.287 . S
O485 Fe471 1.996 . S
O485 C478 1.255 . S
C486 O479 1.287 . S
C486 O480 1.255 . S
O487 Fe469 2.002 . S
O487 C483 1.295 . S
O488 Fe471 1.997 . S
O488 C483 1.235 . S
C489 O472 1.295 . S
C489 O473 1.235 . S
Fe490 O492 1.918 . S
Fe490 O495 1.997 . S
Fe490 O496 2.002 . S
Fe490 O501 1.976 . S
Fe490 O504 1.996 . S
Fe491 O492 1.918 . S
Fe491 O499 1.997 . S
Fe491 O502 1.996 . S
Fe491 O506 1.976 . S
Fe491 O509 2.002 . S
O492 Fe490 1.918 . S
O492 Fe491 1.918 . S
O492 Fe493 1.918 . S
Fe493 O492 1.918 . S
Fe493 O494 2.002 . S
Fe493 O503 1.976 . S
Fe493 O507 1.996 . S
Fe493 O510 1.997 . S
O494 Fe493 2.002 . S
O494 C511 1.295 . S
O495 Fe490 1.997 . S
O495 C511 1.235 . S
O496 Fe490 2.002 . S
O496 C497 1.295 . S
C497 O496 1.295 . S
C497 O499 1.235 . S
C498 O503 1.287 . S
C498 O504 1.255 . S
O499 Fe491 1.997 . S
O499 C497 1.235 . S
C500 O506 1.287 . S
C500 O507 1.255 . S
O501 Fe490 1.976 . S
O501 C508 1.287 . S
O502 Fe491 1.996 . S
O502 C508 1.255 . S
O503 Fe493 1.976 . S
O503 C498 1.287 . S
O504 Fe490 1.996 . S
O504 C498 1.255 . S
C505 O509 1.295 . S
C505 O510 1.235 . S
O506 Fe491 1.976 . S
O506 C500 1.287 . S
O507 Fe493 1.996 . S
O507 C500 1.255 . S
C508 O501 1.287 . S
C508 O502 1.255 . S
O509 Fe491 2.002 . S
O509 C505 1.295 . S
O510 Fe493 1.997 . S
O510 C505 1.235 . S
C511 O494 1.295 . S
C511 O495 1.235 . S
Fe512 O514 1.918 . S
Fe512 O517 1.997 . S
Fe512 O518 2.002 . S
Fe512 O523 1.976 . S
Fe512 O526 1.996 . S
Fe513 O514 1.918 . S
Fe513 O521 1.997 . S
Fe513 O524 1.996 . S
Fe513 O528 1.976 . S
Fe513 O531 2.002 . S
O514 Fe512 1.918 . S
O514 Fe513 1.918 . S
O514 Fe515 1.918 . S
Fe515 O514 1.918 . S
Fe515 O516 2.002 . S
Fe515 O525 1.976 . S
Fe515 O529 1.996 . S
Fe515 O532 1.997 . S
O516 Fe515 2.002 . S
O516 C533 1.295 . S
O517 Fe512 1.997 . S
O517 C533 1.235 . S
O518 Fe512 2.002 . S
O518 C519 1.295 . S
C519 O518 1.295 . S
C519 O521 1.235 . S
C520 O525 1.287 . S
C520 O526 1.255 . S
O521 Fe513 1.997 . S
O521 C519 1.235 . S
C522 O528 1.287 . S
C522 O529 1.255 . S
O523 Fe512 1.976 . S
O523 C530 1.287 . S
O524 Fe513 1.996 . S
O524 C530 1.255 . S
O525 Fe515 1.976 . S
O525 C520 1.287 . S
O526 Fe512 1.996 . S
O526 C520 1.255 . S
C527 O531 1.295 . S
C527 O532 1.235 . S
O528 Fe513 1.976 . S
O528 C522 1.287 . S
O529 Fe515 1.996 . S
O529 C522 1.255 . S
C530 O523 1.287 . S
C530 O524 1.255 . S
O531 Fe513 2.002 . S
O531 C527 1.295 . S
O532 Fe515 1.997 . S
O532 C527 1.235 . S
C533 O516 1.295 . S
C533 O517 1.235 . S
Fe534 O536 1.918 . S
Fe534 O539 1.997 . S
Fe534 O540 2.002 . S
Fe534 O545 1.976 . S
Fe534 O548 1.996 . S
Fe535 O536 1.918 . S
Fe535 O543 1.997 . S
Fe535 O546 1.996 . S
Fe535 O550 1.976 . S
Fe535 O553 2.002 . S
O536 Fe534 1.918 . S
O536 Fe535 1.918 . S
O536 Fe537 1.918 . S
Fe537 O536 1.918 . S
Fe537 O538 2.002 . S
Fe537 O547 1.976 . S
Fe537 O551 1.996 . S
Fe537 O554 1.997 . S
O538 Fe537 2.002 . S
O538 C555 1.295 . S
O539 Fe534 1.997 . S
O539 C555 1.235 . S
O540 Fe534 2.002 . S
O540 C541 1.295 . S
C541 O540 1.295 . S
C541 O543 1.235 . S
C542 O547 1.287 . S
C542 O548 1.255 . S
O543 Fe535 1.997 . S
O543 C541 1.235 . S
C544 O550 1.287 . S
C544 O551 1.255 . S
O545 Fe534 1.976 . S
O545 C552 1.287 . S
O546 Fe535 1.996 . S
O546 C552 1.255 . S
O547 Fe537 1.976 . S
O547 C542 1.287 . S
O548 Fe534 1.996 . S
O548 C542 1.255 . S
C549 O553 1.295 . S
C549 O554 1.235 . S
O550 Fe535 1.976 . S
O550 C544 1.287 . S
O551 Fe537 1.996 . S
O551 C544 1.255 . S
C552 O545 1.287 . S
C552 O546 1.255 . S
O553 Fe535 2.002 . S
O553 C549 1.295 . S
O554 Fe537 1.997 . S
O554 C549 1.235 . S
C555 O538 1.295 . S
C555 O539 1.235 . S
Fe556 O558 1.918 . S
Fe556 O561 1.997 . S
Fe556 O562 2.002 . S
Fe556 O567 1.976 . S
Fe556 O570 1.996 . S
Fe557 O558 1.918 . S
Fe557 O565 1.997 . S
Fe557 O568 1.996 . S
Fe557 O572 1.976 . S
Fe557 O575 2.002 . S
O558 Fe556 1.918 . S
O558 Fe557 1.918 . S
O558 Fe559 1.918 . S
Fe559 O558 1.918 . S
Fe559 O560 2.002 . S
Fe559 O569 1.976 . S
Fe559 O573 1.996 . S
Fe559 O576 1.997 . S
O560 Fe559 2.002 . S
O560 C577 1.295 . S
O561 Fe556 1.997 . S
O561 C577 1.235 . S
O562 Fe556 2.002 . S
O562 C563 1.295 . S
C563 O562 1.295 . S
C563 O565 1.235 . S
C564 O569 1.287 . S
C564 O570 1.255 . S
O565 Fe557 1.997 . S
O565 C563 1.235 . S
C566 O572 1.287 . S
C566 O573 1.255 . S
O567 Fe556 1.976 . S
O567 C574 1.287 . S
O568 Fe557 1.996 . S
O568 C574 1.255 . S
O569 Fe559 1.976 . S
O569 C564 1.287 . S
O570 Fe556 1.996 . S
O570 C564 1.255 . S
C571 O575 1.295 . S
C571 O576 1.235 . S
O572 Fe557 1.976 . S
O572 C566 1.287 . S
O573 Fe559 1.996 . S
O573 C566 1.255 . S
C574 O567 1.287 . S
C574 O568 1.255 . S
O575 Fe557 2.002 . S
O575 C571 1.295 . S
O576 Fe559 1.997 . S
O576 C571 1.235 . S
C577 O560 1.295 . S
C577 O561 1.235 . S
Fe578 O580 1.918 . S
Fe578 O583 1.997 . S
Fe578 O584 2.002 . S
Fe578 O589 1.976 . S
Fe578 O592 1.996 . S
Fe579 O580 1.918 . S
Fe579 O587 1.997 . S
Fe579 O590 1.996 . S
Fe579 O594 1.976 . S
Fe579 O597 2.002 . S
O580 Fe578 1.918 . S
O580 Fe579 1.918 . S
O580 Fe581 1.918 . S
Fe581 O580 1.918 . S
Fe581 O582 2.002 . S
Fe581 O591 1.976 . S
Fe581 O595 1.996 . S
Fe581 O598 1.997 . S
O582 Fe581 2.002 . S
O582 C599 1.295 . S
O583 Fe578 1.997 . S
O583 C599 1.235 . S
O584 Fe578 2.002 . S
O584 C585 1.295 . S
C585 O584 1.295 . S
C585 O587 1.235 . S
C586 O591 1.287 . S
C586 O592 1.255 . S
O587 Fe579 1.997 . S
O587 C585 1.235 . S
C588 O594 1.287 . S
C588 O595 1.255 . S
O589 Fe578 1.976 . S
O589 C596 1.287 . S
O590 Fe579 1.996 . S
O590 C596 1.255 . S
O591 Fe581 1.976 . S
O591 C586 1.287 . S
O592 Fe578 1.996 . S
O592 C586 1.255 . S
C593 O597 1.295 . S
C593 O598 1.235 . S
O594 Fe579 1.976 . S
O594 C588 1.287 . S
O595 Fe581 1.996 . S
O595 C588 1.255 . S
C596 O589 1.287 . S
C596 O590 1.255 . S
O597 Fe579 2.002 . S
O597 C593 1.295 . S
O598 Fe581 1.997 . S
O598 C593 1.235 . S
C599 O582 1.295 . S
C599 O583 1.235 . S
Fe600 O602 1.918 . S
Fe600 O605 1.997 . S
Fe600 O606 2.002 . S
Fe600 O611 1.976 . S
Fe600 O614 1.996 . S
Fe601 O602 1.918 . S
Fe601 O609 1.997 . S
Fe601 O612 1.996 . S
Fe601 O616 1.976 . S
Fe601 O619 2.002 . S
O602 Fe600 1.918 . S
O602 Fe601 1.918 . S
O602 Fe603 1.918 . S
Fe603 O602 1.918 . S
Fe603 O604 2.002 . S
Fe603 O613 1.976 . S
Fe603 O617 1.996 . S
Fe603 O620 1.997 . S
O604 Fe603 2.002 . S
O604 C621 1.295 . S
O605 Fe600 1.997 . S
O605 C621 1.235 . S
O606 Fe600 2.002 . S
O606 C607 1.295 . S
C607 O606 1.295 . S
C607 O609 1.235 . S
C608 O613 1.287 . S
C608 O614 1.255 . S
O609 Fe601 1.997 . S
O609 C607 1.235 . S
C610 O616 1.287 . S
C610 O617 1.255 . S
O611 Fe600 1.976 . S
O611 C618 1.287 . S
O612 Fe601 1.996 . S
O612 C618 1.255 . S
O613 Fe603 1.976 . S
O613 C608 1.287 . S
O614 Fe600 1.996 . S
O614 C608 1.255 . S
C615 O619 1.295 . S
C615 O620 1.235 . S
O616 Fe601 1.976 . S
O616 C610 1.287 . S
O617 Fe603 1.996 . S
O617 C610 1.255 . S
C618 O611 1.287 . S
C618 O612 1.255 . S
O619 Fe601 2.002 . S
O619 C615 1.295 . S
O620 Fe603 1.997 . S
O620 C615 1.235 . S
C621 O604 1.295 . S
C621 O605 1.235 . S
Fe622 O624 1.918 . S
Fe622 O627 1.997 . S
Fe622 O628 2.002 . S
Fe622 O633 1.976 . S
Fe622 O636 1.996 . S
Fe623 O624 1.918 . S
Fe623 O631 1.997 . S
Fe623 O634 1.996 . S
Fe623 O638 1.976 . S
Fe623 O641 2.002 . S
O624 Fe622 1.918 . S
O624 Fe623 1.918 . S
O624 Fe625 1.918 . S
Fe625 O624 1.918 . S
Fe625 O626 2.002 . S
Fe625 O635 1.976 . S
Fe625 O639 1.996 . S
Fe625 O642 1.997 . S
O626 Fe625 2.002 . S
O626 C643 1.295 . S
O627 Fe622 1.997 . S
O627 C643 1.235 . S
O628 Fe622 2.002 . S
O628 C629 1.295 . S
C629 O628 1.295 . S
C629 O631 1.235 . S
C630 O635 1.287 . S
C630 O636 1.255 . S
O631 Fe623 1.997 . S
O631 C629 1.235 . S
C632 O638 1.287 . S
C632 O639 1.255 . S
O633 Fe622 1.976 . S
O633 C640 1.287 . S
O634 Fe623 1.996 . S
O634 C640 1.255 . S
O635 Fe625 1.976 . S
O635 C630 1.287 . S
O636 Fe622 1.996 . S
O636 C630 1.255 . S
C637 O641 1.295 . S
C637 O642 1.235 . S
O638 Fe623 1.976 . S
O638 C632 1.287 . S
O639 Fe625 1.996 . S
O639 C632 1.255 . S
C640 O633 1.287 . S
C640 O634 1.255 . S
O641 Fe623 2.002 . S
O641 C637 1.295 . S
O642 Fe625 1.997 . S
O642 C637 1.235 . S
C643 O626 1.295 . S
C643 O627 1.235 . S
Fe644 O646 1.918 . S
Fe644 O649 1.997 . S
Fe644 O650 2.002 . S
Fe644 O655 1.976 . S
Fe644 O658 1.996 . S
Fe645 O646 1.918 . S
Fe645 O653 1.997 . S
Fe645 O656 1.996 . S
Fe645 O660 1.976 . S
Fe645 O663 2.002 . S
O646 Fe644 1.918 . S
O646 Fe645 1.918 . S
O646 Fe647 1.918 . S
Fe647 O646 1.918 . S
Fe647 O648 2.002 . S
Fe647 O657 1.976 . S
Fe647 O661 1.996 . S
Fe647 O664 1.997 . S
O648 Fe647 2.002 . S
O648 C665 1.295 . S
O649 Fe644 1.997 . S
O649 C665 1.235 . S
O650 Fe644 2.002 . S
O650 C651 1.295 . S
C651 O650 1.295 . S
C651 O653 1.235 . S
C652 O657 1.287 . S
C652 O658 1.255 . S
O653 Fe645 1.997 . S
O653 C651 1.235 . S
C654 O660 1.287 . S
C654 O661 1.255 . S
O655 Fe644 1.976 . S
O655 C662 1.287 . S
O656 Fe645 1.996 . S
O656 C662 1.255 . S
O657 Fe647 1.976 . S
O657 C652 1.287 . S
O658 Fe644 1.996 . S
O658 C652 1.255 . S
C659 O663 1.295 . S
C659 O664 1.235 . S
O660 Fe645 1.976 . S
O660 C654 1.287 . S
O661 Fe647 1.996 . S
O661 C654 1.255 . S
C662 O655 1.287 . S
C662 O656 1.255 . S
O663 Fe645 2.002 . S
O663 C659 1.295 . S
O664 Fe647 1.997 . S
O664 C659 1.235 . S
C665 O648 1.295 . S
C665 O649 1.235 . S
Fe666 O668 1.918 . S
Fe666 O671 1.997 . S
Fe666 O672 2.002 . S
Fe666 O677 1.976 . S
Fe666 O680 1.996 . S
Fe667 O668 1.918 . S
Fe667 O675 1.997 . S
Fe667 O678 1.996 . S
Fe667 O682 1.976 . S
Fe667 O685 2.002 . S
O668 Fe666 1.918 . S
O668 Fe667 1.918 . S
O668 Fe669 1.918 . S
Fe669 O668 1.918 . S
Fe669 O670 2.002 . S
Fe669 O679 1.976 . S
Fe669 O683 1.996 . S
Fe669 O686 1.997 . S
O670 Fe669 2.002 . S
O670 C687 1.295 . S
O671 Fe666 1.997 . S
O671 C687 1.235 . S
O672 Fe666 2.002 . S
O672 C673 1.295 . S
C673 O672 1.295 . S
C673 O675 1.235 . S
C674 O679 1.287 . S
C674 O680 1.255 . S
O675 Fe667 1.997 . S
O675 C673 1.235 . S
C676 O682 1.287 . S
C676 O683 1.255 . S
O677 Fe666 1.976 . S
O677 C684 1.287 . S
O678 Fe667 1.996 . S
O678 C684 1.255 . S
O679 Fe669 1.976 . S
O679 C674 1.287 . S
O680 Fe666 1.996 . S
O680 C674 1.255 . S
C681 O685 1.295 . S
C681 O686 1.235 . S
O682 Fe667 1.976 . S
O682 C676 1.287 . S
O683 Fe669 1.996 . S
O683 C676 1.255 . S
C684 O677 1.287 . S
C684 O678 1.255 . S
O685 Fe667 2.002 . S
O685 C681 1.295 . S
O686 Fe669 1.997 . S
O686 C681 1.235 . S
C687 O670 1.295 . S
C687 O671 1.235 . S
H688 C696 0.978 . S
H689 C698 0.930 . S
H690 C700 0.930 . S
H691 C703 0.929 . S
H692 C706 0.930 . S
H693 C708 0.960 . S
H694 C708 0.960 . S
H695 C708 0.960 . S
C696 H688 0.978 . S
C696 C697 1.377 . S
C696 C698 1.384 . S
C697 C696 1.377 . S
C697 C703 1.390 . S
C698 H689 0.930 . S
C698 C696 1.384 . S
C698 C699 1.372 . S
C699 C698 1.372 . S
C699 C700 1.400 . S
C699 C704 1.490 . S
C700 H690 0.930 . S
C700 C699 1.400 . S
C700 C703 1.386 . S
H701 C717 0.930 . S
H702 C718 0.931 . S
C703 H691 0.929 . S
C703 C697 1.390 . S
C703 C700 1.386 . S
C704 C699 1.490 . S
C704 C706 1.395 . S
C704 C707 1.403 . S
H705 C711 0.930 . S
C706 H692 0.930 . S
C706 C704 1.395 . S
C706 C709 1.403 . S
C707 C704 1.403 . S
C707 C708 1.524 . S
C707 C711 1.400 . S
C708 H693 0.960 . S
C708 H694 0.960 . S
C708 H695 0.960 . S
C708 C707 1.524 . S
C709 C706 1.403 . S
C709 C710 1.392 . S
C709 C713 1.495 . S
C710 C709 1.392 . S
C710 C711 1.385 . S
C710 C712 1.478 . S
C711 H705 0.930 . S
C711 C707 1.400 . S
C711 C710 1.385 . S
C712 C710 1.478 . S
C712 C714 1.381 . S
C712 C718 1.383 . S
C713 C709 1.495 . S
C713 H719 0.959 . S
C713 H720 0.961 . S
C713 H721 0.960 . S
C714 C712 1.381 . S
C714 C715 1.394 . S
C714 H722 0.930 . S
C715 C714 1.394 . S
C715 C716 1.383 . S
C715 H723 0.929 . S
C716 C715 1.383 . S
C716 C717 1.377 . S
C717 H701 0.930 . S
C717 C716 1.377 . S
C717 C718 1.379 . S
C718 H702 0.931 . S
C718 C712 1.383 . S
C718 C717 1.379 . S
H719 C713 0.959 . S
H720 C713 0.961 . S
H721 C713 0.960 . S
H722 C714 0.930 . S
H723 C715 0.929 . S
H724 C732 0.929 . S
H725 C734 0.930 . S
H726 C736 0.930 . S
H727 C739 0.929 . S
H728 C742 0.930 . S
H729 C744 0.960 . S
H730 C744 0.960 . S
H731 C744 0.960 . S
C732 H724 0.929 . S
C732 C733 1.377 . S
C732 C734 1.384 . S
C733 C732 1.377 . S
C733 C739 1.390 . S
C734 H725 0.930 . S
C734 C732 1.384 . S
C734 C735 1.372 . S
C735 C734 1.372 . S
C735 C736 1.400 . S
C735 C740 1.490 . S
C736 H726 0.930 . S
C736 C735 1.400 . S
C736 C739 1.386 . S
H737 C753 0.930 . S
H738 C754 0.931 . S
C739 H727 0.929 . S
C739 C733 1.390 . S
C739 C736 1.386 . S
C740 C735 1.490 . S
C740 C742 1.395 . S
C740 C743 1.403 . S
H741 C747 0.930 . S
C742 H728 0.930 . S
C742 C740 1.395 . S
C742 C745 1.403 . S
C743 C740 1.403 . S
C743 C744 1.524 . S
C743 C747 1.400 . S
C744 H729 0.960 . S
C744 H730 0.960 . S
C744 H731 0.960 . S
C744 C743 1.524 . S
C745 C742 1.403 . S
C745 C746 1.392 . S
C745 C749 1.495 . S
C746 C745 1.392 . S
C746 C747 1.385 . S
C746 C748 1.478 . S
C747 H741 0.930 . S
C747 C743 1.400 . S
C747 C746 1.385 . S
C748 C746 1.478 . S
C748 C750 1.381 . S
C748 C754 1.383 . S
C749 C745 1.495 . S
C749 H755 0.959 . S
C749 H756 0.961 . S
C749 H757 0.960 . S
C750 C748 1.381 . S
C750 C751 1.394 . S
C750 H758 0.930 . S
C751 C750 1.394 . S
C751 C752 1.383 . S
C751 H759 0.929 . S
C752 C751 1.383 . S
C752 C753 1.377 . S
C753 H737 0.930 . S
C753 C752 1.377 . S
C753 C754 1.379 . S
C754 H738 0.931 . S
C754 C748 1.383 . S
C754 C753 1.379 . S
H755 C749 0.959 . S
H756 C749 0.961 . S
H757 C749 0.960 . S
H758 C750 0.930 . S
H759 C751 0.929 . S
H760 C768 0.929 . S
H761 C770 0.930 . S
H762 C772 0.930 . S
H763 C775 0.929 . S
H764 C778 0.930 . S
H765 C780 0.960 . S
H766 C780 0.960 . S
H767 C780 0.960 . S
C768 H760 0.929 . S
C768 C769 1.377 . S
C768 C770 1.384 . S
C769 C768 1.377 . S
C769 C775 1.390 . S
C770 H761 0.930 . S
C770 C768 1.384 . S
C770 C771 1.372 . S
C771 C770 1.372 . S
C771 C772 1.400 . S
C771 C776 1.490 . S
C772 H762 0.930 . S
C772 C771 1.400 . S
C772 C775 1.386 . S
H773 C789 0.930 . S
H774 C790 0.931 . S
C775 H763 0.929 . S
C775 C769 1.390 . S
C775 C772 1.386 . S
C776 C771 1.490 . S
C776 C778 1.395 . S
C776 C779 1.403 . S
H777 C783 0.930 . S
C778 H764 0.930 . S
C778 C776 1.395 . S
C778 C781 1.403 . S
C779 C776 1.403 . S
C779 C780 1.524 . S
C779 C783 1.400 . S
C780 H765 0.960 . S
C780 H766 0.960 . S
C780 H767 0.960 . S
C780 C779 1.524 . S
C781 C778 1.403 . S
C781 C782 1.392 . S
C781 C785 1.495 . S
C782 C781 1.392 . S
C782 C783 1.385 . S
C782 C784 1.478 . S
C783 H777 0.930 . S
C783 C779 1.400 . S
C783 C782 1.385 . S
C784 C782 1.478 . S
C784 C786 1.381 . S
C784 C790 1.383 . S
C785 C781 1.495 . S
C785 H791 0.959 . S
C785 H792 0.961 . S
C785 H793 0.960 . S
C786 C784 1.381 . S
C786 C787 1.394 . S
C786 H794 0.930 . S
C787 C786 1.394 . S
C787 C788 1.383 . S
C787 H795 0.929 . S
C788 C787 1.383 . S
C788 C789 1.377 . S
C789 H773 0.930 . S
C789 C788 1.377 . S
C789 C790 1.379 . S
C790 H774 0.931 . S
C790 C784 1.383 . S
C790 C789 1.379 . S
H791 C785 0.959 . S
H792 C785 0.961 . S
H793 C785 0.960 . S
H794 C786 0.930 . S
H795 C787 0.929 . S
H796 C804 0.929 . S
H797 C806 0.930 . S
H798 C808 0.930 . S
H799 C811 0.929 . S
H800 C814 0.930 . S
H801 C816 0.960 . S
H802 C816 0.960 . S
H803 C816 0.960 . S
C804 H796 0.929 . S
C804 C805 1.377 . S
C804 C806 1.384 . S
C805 C804 1.377 . S
C805 C811 1.390 . S
C806 H797 0.930 . S
C806 C804 1.384 . S
C806 C807 1.372 . S
C807 C806 1.372 . S
C807 C808 1.400 . S
C807 C812 1.490 . S
C808 H798 0.930 . S
C808 C807 1.400 . S
C808 C811 1.386 . S
H809 C825 0.930 . S
H810 C826 0.931 . S
C811 H799 0.929 . S
C811 C805 1.390 . S
C811 C808 1.386 . S
C812 C807 1.490 . S
C812 C814 1.395 . S
C812 C815 1.403 . S
H813 C819 0.930 . S
C814 H800 0.930 . S
C814 C812 1.395 . S
C814 C817 1.403 . S
C815 C812 1.403 . S
C815 C816 1.524 . S
C815 C819 1.400 . S
C816 H801 0.960 . S
C816 H802 0.960 . S
C816 H803 0.960 . S
C816 C815 1.524 . S
C817 C814 1.403 . S
C817 C818 1.392 1_554 S
C817 C821 1.495 1_554 S
C818 C817 1.392 1_556 S
C818 C819 1.385 1_556 S
C818 C820 1.478 . S
C819 H813 0.930 . S
C819 C815 1.400 . S
C819 C818 1.385 1_554 S
C820 C818 1.478 . S
C820 C822 1.381 . S
C820 C826 1.383 . S
C821 C817 1.495 1_556 S
C821 H827 0.959 . S
C821 H828 0.961 . S
C821 H829 0.960 . S
C822 C820 1.381 . S
C822 C823 1.394 . S
C822 H830 0.930 . S
C823 C822 1.394 . S
C823 C824 1.383 . S
C823 H831 0.929 . S
C824 C823 1.383 . S
C824 C825 1.377 . S
C825 H809 0.930 . S
C825 C824 1.377 . S
C825 C826 1.379 . S
C826 H810 0.931 . S
C826 C820 1.383 . S
C826 C825 1.379 . S
H827 C821 0.959 . S
H828 C821 0.961 . S
H829 C821 0.960 . S
H830 C822 0.930 . S
H831 C823 0.929 . S
H832 C840 0.929 . S
H833 C842 0.930 . S
H834 C844 0.930 . S
H835 C847 0.929 . S
H836 C850 0.930 . S
H837 C852 0.960 . S
H838 C852 0.960 . S
H839 C852 0.960 . S
C840 H832 0.929 . S
C840 C841 1.377 . S
C840 C842 1.384 . S
C841 C840 1.377 . S
C841 C847 1.390 . S
C842 H833 0.930 . S
C842 C840 1.384 . S
C842 C843 1.372 . S
C843 C842 1.372 . S
C843 C844 1.400 . S
C843 C848 1.490 . S
C844 H834 0.930 . S
C844 C843 1.400 . S
C844 C847 1.386 . S
H845 C861 0.930 . S
H846 C862 0.931 . S
C847 H835 0.929 . S
C847 C841 1.390 . S
C847 C844 1.386 . S
C848 C843 1.490 . S
C848 C850 1.395 . S
C848 C851 1.403 . S
H849 C855 0.930 . S
C850 H836 0.930 . S
C850 C848 1.395 . S
C850 C853 1.403 . S
C851 C848 1.403 . S
C851 C852 1.524 . S
C851 C855 1.400 . S
C852 H837 0.960 . S
C852 H838 0.960 . S
C852 H839 0.960 . S
C852 C851 1.524 . S
C853 C850 1.403 . S
C853 C854 1.392 . S
C853 C857 1.495 . S
C854 C853 1.392 . S
C854 C855 1.385 . S
C854 C856 1.478 . S
C855 H849 0.930 . S
C855 C851 1.400 . S
C855 C854 1.385 . S
C856 C854 1.478 . S
C856 C858 1.381 . S
C856 C862 1.383 . S
C857 C853 1.495 . S
C857 H863 0.959 . S
C857 H864 0.961 . S
C857 H865 0.960 . S
C858 C856 1.381 . S
C858 C859 1.394 . S
C858 H866 0.930 . S
C859 C858 1.394 . S
C859 C860 1.383 . S
C859 H867 0.929 . S
C860 C859 1.383 . S
C860 C861 1.377 . S
C861 H845 0.930 . S
C861 C860 1.377 . S
C861 C862 1.379 . S
C862 H846 0.931 . S
C862 C856 1.383 . S
C862 C861 1.379 . S
H863 C857 0.959 . S
H864 C857 0.961 . S
H865 C857 0.960 . S
H866 C858 0.930 . S
H867 C859 0.929 . S
H868 C876 0.929 . S
H869 C878 0.930 . S
H870 C880 0.930 . S
H871 C883 0.929 . S
H872 C886 0.930 . S
H873 C888 0.960 . S
H874 C888 0.960 . S
H875 C888 0.960 . S
C876 H868 0.929 . S
C876 C877 1.377 . S
C876 C878 1.384 . S
C877 C876 1.377 . S
C877 C883 1.390 . S
C878 H869 0.930 . S
C878 C876 1.384 . S
C878 C879 1.372 . S
C879 C878 1.372 . S
C879 C880 1.400 . S
C879 C884 1.490 . S
C880 H870 0.930 . S
C880 C879 1.400 . S
C880 C883 1.386 . S
H881 C897 0.930 . S
H882 C898 0.931 . S
C883 H871 0.929 . S
C883 C877 1.390 . S
C883 C880 1.386 . S
C884 C879 1.490 . S
C884 C886 1.395 . S
C884 C887 1.403 . S
H885 C891 0.930 . S
C886 H872 0.930 . S
C886 C884 1.395 . S
C886 C889 1.403 . S
C887 C884 1.403 . S
C887 C888 1.524 . S
C887 C891 1.400 . S
C888 H873 0.960 . S
C888 H874 0.960 . S
C888 H875 0.960 . S
C888 C887 1.524 . S
C889 C886 1.403 . S
C889 C890 1.392 . S
C889 C893 1.495 . S
C890 C889 1.392 . S
C890 C891 1.385 . S
C890 C892 1.478 . S
C891 H885 0.930 . S
C891 C887 1.400 . S
C891 C890 1.385 . S
C892 C890 1.478 . S
C892 C894 1.381 . S
C892 C898 1.383 . S
C893 C889 1.495 . S
C893 H899 0.959 . S
C893 H900 0.961 . S
C893 H901 0.960 . S
C894 C892 1.381 . S
C894 C895 1.394 . S
C894 H902 0.930 . S
C895 C894 1.394 . S
C895 C896 1.383 . S
C895 H903 0.929 . S
C896 C895 1.383 . S
C896 C897 1.377 . S
C897 H881 0.930 . S
C897 C896 1.377 . S
C897 C898 1.379 . S
C898 H882 0.931 . S
C898 C892 1.383 . S
C898 C897 1.379 . S
H899 C893 0.959 . S
H900 C893 0.961 . S
H901 C893 0.960 . S
H902 C894 0.930 . S
H903 C895 0.929 . S
H904 C912 0.929 . S
H905 C914 0.930 . S
H906 C916 0.930 . S
H907 C919 0.929 . S
H908 C922 0.930 . S
H909 C924 0.960 . S
H910 C924 0.960 . S
H911 C924 0.960 . S
C912 H904 0.929 . S
C912 C913 1.377 . S
C912 C914 1.384 . S
C913 C912 1.377 . S
C913 C919 1.390 . S
C914 H905 0.930 . S
C914 C912 1.384 . S
C914 C915 1.372 . S
C915 C914 1.372 . S
C915 C916 1.400 . S
C915 C920 1.490 . S
C916 H906 0.930 . S
C916 C915 1.400 . S
C916 C919 1.386 . S
H917 C933 0.930 . S
H918 C934 0.931 . S
C919 H907 0.929 . S
C919 C913 1.390 . S
C919 C916 1.386 . S
C920 C915 1.490 . S
C920 C922 1.395 . S
C920 C923 1.403 . S
H921 C927 0.930 . S
C922 H908 0.930 . S
C922 C920 1.395 . S
C922 C925 1.403 . S
C923 C920 1.403 . S
C923 C924 1.524 . S
C923 C927 1.400 . S
C924 H909 0.960 . S
C924 H910 0.960 . S
C924 H911 0.960 . S
C924 C923 1.524 . S
C925 C922 1.403 . S
C925 C926 1.392 . S
C925 C929 1.495 . S
C926 C925 1.392 . S
C926 C927 1.385 . S
C926 C928 1.478 . S
C927 H921 0.930 . S
C927 C923 1.400 . S
C927 C926 1.385 . S
C928 C926 1.478 . S
C928 C930 1.381 . S
C928 C934 1.383 . S
C929 C925 1.495 . S
C929 H935 0.959 . S
C929 H936 0.961 . S
C929 H937 0.960 . S
C930 C928 1.381 . S
C930 C931 1.394 . S
C930 H938 0.930 . S
C931 C930 1.394 . S
C931 C932 1.383 . S
C931 H939 0.929 . S
C932 C931 1.383 . S
C932 C933 1.377 . S
C933 H917 0.930 . S
C933 C932 1.377 . S
C933 C934 1.379 . S
C934 H918 0.931 . S
C934 C928 1.383 . S
C934 C933 1.379 . S
H935 C929 0.959 . S
H936 C929 0.961 . S
H937 C929 0.960 . S
H938 C930 0.930 . S
H939 C931 0.929 . S
H940 C948 0.929 . S
H941 C950 0.930 . S
H942 C952 0.930 . S
H943 C955 0.929 . S
H944 C958 0.930 . S
H945 C960 0.960 1_554 S
H946 C960 0.960 . S
H947 C960 0.960 . S
C948 H940 0.929 . S
C948 C949 1.377 . S
C948 C950 1.384 . S
C949 C948 1.377 . S
C949 C955 1.390 . S
C950 H941 0.930 . S
C950 C948 1.384 . S
C950 C951 1.372 . S
C951 C950 1.372 . S
C951 C952 1.400 . S
C951 C956 1.490 . S
C952 H942 0.930 . S
C952 C951 1.400 . S
C952 C955 1.386 . S
H953 C969 0.930 . S
H954 C970 0.931 . S
C955 H943 0.929 . S
C955 C949 1.390 . S
C955 C952 1.386 . S
C956 C951 1.490 . S
C956 C958 1.395 . S
C956 C959 1.403 . S
H957 C963 0.930 . S
C958 H944 0.930 . S
C958 C956 1.395 . S
C958 C961 1.403 . S
C959 C956 1.403 . S
C959 C960 1.524 . S
C959 C963 1.400 1_556 S
C960 H945 0.960 1_556 S
C960 H946 0.960 . S
C960 H947 0.960 . S
C960 C959 1.524 . S
C961 C958 1.403 . S
C961 C962 1.392 1_556 S
C961 C965 1.495 . S
C962 C961 1.392 1_554 S
C962 C963 1.385 . S
C962 C964 1.478 . S
C963 H957 0.930 . S
C963 C959 1.400 1_554 S
C963 C962 1.385 . S
C964 C962 1.478 . S
C964 C966 1.381 . S
C964 C970 1.383 . S
C965 C961 1.495 . S
C965 H971 0.959 . S
C965 H972 0.961 . S
C965 H973 0.960 . S
C966 C964 1.381 . S
C966 C967 1.394 . S
C966 H974 0.930 . S
C967 C966 1.394 . S
C967 C968 1.383 . S
C967 H975 0.929 . S
C968 C967 1.383 . S
C968 C969 1.377 . S
C969 H953 0.930 . S
C969 C968 1.377 . S
C969 C970 1.379 . S
C970 H954 0.931 . S
C970 C964 1.383 . S
C970 C969 1.379 . S
H971 C965 0.959 . S
H972 C965 0.961 . S
H973 C965 0.960 . S
H974 C966 0.930 . S
H975 C967 0.929 . S
H976 C984 0.929 . S
H977 C986 0.930 . S
H978 C988 0.930 . S
H979 C991 0.929 . S
H980 C994 0.930 . S
H981 C996 0.960 . S
H982 C996 0.960 . S
H983 C996 0.960 . S
C984 H976 0.929 . S
C984 C985 1.377 . S
C984 C986 1.384 . S
C985 C984 1.377 . S
C985 C991 1.390 . S
C986 H977 0.930 . S
C986 C984 1.384 . S
C986 C987 1.372 . S
C987 C986 1.372 . S
C987 C988 1.400 . S
C987 C992 1.490 . S
C988 H978 0.930 . S
C988 C987 1.400 . S
C988 C991 1.386 . S
H989 C1005 0.930 . S
H990 C1006 0.931 . S
C991 H979 0.929 . S
C991 C985 1.390 . S
C991 C988 1.386 . S
C992 C987 1.490 . S
C992 C994 1.395 . S
C992 C995 1.403 . S
H993 C999 0.930 . S
C994 H980 0.930 . S
C994 C992 1.395 . S
C994 C997 1.403 . S
C995 C992 1.403 . S
C995 C996 1.524 . S
C995 C999 1.400 . S
C996 H981 0.960 . S
C996 H982 0.960 . S
C996 H983 0.960 . S
C996 C995 1.524 . S
C997 C994 1.403 . S
C997 C998 1.392 . S
C997 C1001 1.495 . S
C998 C997 1.392 . S
C998 C999 1.385 . S
C998 C1000 1.478 . S
C999 H993 0.930 . S
C999 C995 1.400 . S
C999 C998 1.385 . S
C1000 C998 1.478 . S
C1000 C1002 1.381 . S
C1000 C1006 1.383 . S
C1001 C997 1.495 . S
C1001 H1007 0.959 . S
C1001 H1008 0.961 . S
C1001 H1009 0.960 . S
C1002 C1000 1.381 . S
C1002 C1003 1.394 . S
C1002 H1010 0.930 . S
C1003 C1002 1.394 . S
C1003 C1004 1.383 . S
C1003 H1011 0.929 . S
C1004 C1003 1.383 . S
C1004 C1005 1.377 . S
C1005 H989 0.930 . S
C1005 C1004 1.377 . S
C1005 C1006 1.379 . S
C1006 H990 0.931 . S
C1006 C1000 1.383 . S
C1006 C1005 1.379 . S
H1007 C1001 0.959 . S
H1008 C1001 0.961 . S
H1009 C1001 0.960 . S
H1010 C1002 0.930 . S
H1011 C1003 0.929 . S
H1012 C1020 0.929 . S
H1013 C1022 0.930 . S
H1014 C1024 0.930 . S
H1015 C1027 0.929 . S
H1016 C1030 0.930 . S
H1017 C1032 0.960 . S
H1018 C1032 0.960 . S
H1019 C1032 0.960 . S
C1020 H1012 0.929 . S
C1020 C1021 1.377 . S
C1020 C1022 1.384 . S
C1021 C1020 1.377 . S
C1021 C1027 1.390 . S
C1022 H1013 0.930 . S
C1022 C1020 1.384 . S
C1022 C1023 1.372 . S
C1023 C1022 1.372 . S
C1023 C1024 1.400 . S
C1023 C1028 1.490 . S
C1024 H1014 0.930 . S
C1024 C1023 1.400 . S
C1024 C1027 1.386 . S
H1025 C1041 0.930 . S
H1026 C1042 0.931 . S
C1027 H1015 0.929 . S
C1027 C1021 1.390 . S
C1027 C1024 1.386 . S
C1028 C1023 1.490 . S
C1028 C1030 1.395 . S
C1028 C1031 1.403 . S
H1029 C1035 0.930 . S
C1030 H1016 0.930 . S
C1030 C1028 1.395 . S
C1030 C1033 1.403 1_545 S
C1031 C1028 1.403 . S
C1031 C1032 1.524 . S
C1031 C1035 1.400 . S
C1032 H1017 0.960 . S
C1032 H1018 0.960 . S
C1032 H1019 0.960 . S
C1032 C1031 1.524 . S
C1033 C1030 1.403 1_565 S
C1033 C1034 1.392 . S
C1033 C1037 1.495 . S
C1034 C1033 1.392 . S
C1034 C1035 1.385 1_565 S
C1034 C1036 1.478 . S
C1035 H1029 0.930 . S
C1035 C1031 1.400 . S
C1035 C1034 1.385 1_545 S
C1036 C1034 1.478 . S
C1036 C1038 1.381 . S
C1036 C1042 1.383 . S
C1037 C1033 1.495 . S
C1037 H1043 0.959 . S
C1037 H1044 0.961 . S
C1037 H1045 0.960 . S
C1038 C1036 1.381 . S
C1038 C1039 1.394 . S
C1038 H1046 0.930 . S
C1039 C1038 1.394 . S
C1039 C1040 1.383 . S
C1039 H1047 0.929 . S
C1040 C1039 1.383 . S
C1040 C1041 1.377 . S
C1041 H1025 0.930 . S
C1041 C1040 1.377 . S
C1041 C1042 1.379 . S
C1042 H1026 0.931 . S
C1042 C1036 1.383 . S
C1042 C1041 1.379 . S
H1043 C1037 0.959 . S
H1044 C1037 0.961 . S
H1045 C1037 0.960 . S
H1046 C1038 0.930 . S
H1047 C1039 0.929 . S
H1048 C1056 0.929 . S
H1049 C1058 0.930 . S
H1050 C1060 0.930 . S
H1051 C1063 0.929 1_545 S
H1052 C1066 0.930 . S
H1053 C1068 0.960 . S
H1054 C1068 0.960 . S
H1055 C1068 0.960 . S
C1056 H1048 0.929 . S
C1056 C1057 1.377 . S
C1056 C1058 1.384 . S
C1057 C1056 1.377 . S
C1057 C1063 1.390 . S
C1058 H1049 0.930 . S
C1058 C1056 1.384 . S
C1058 C1059 1.372 . S
C1059 C1058 1.372 . S
C1059 C1060 1.400 . S
C1059 C1064 1.490 . S
C1060 H1050 0.930 . S
C1060 C1059 1.400 . S
C1060 C1063 1.386 . S
H1061 C1077 0.930 . S
H1062 C1078 0.931 . S
C1063 H1051 0.929 1_565 S
C1063 C1057 1.390 . S
C1063 C1060 1.386 . S
C1064 C1059 1.490 . S
C1064 C1066 1.395 . S
C1064 C1067 1.403 . S
H1065 C1071 0.930 . S
C1066 H1052 0.930 . S
C1066 C1064 1.395 . S
C1066 C1069 1.403 . S
C1067 C1064 1.403 . S
C1067 C1068 1.524 . S
C1067 C1071 1.400 . S
C1068 H1053 0.960 . S
C1068 H1054 0.960 . S
C1068 H1055 0.960 . S
C1068 C1067 1.524 . S
C1069 C1066 1.403 . S
C1069 C1070 1.392 . S
C1069 C1073 1.495 . S
C1070 C1069 1.392 . S
C1070 C1071 1.385 . S
C1070 C1072 1.478 . S
C1071 H1065 0.930 . S
C1071 C1067 1.400 . S
C1071 C1070 1.385 . S
C1072 C1070 1.478 . S
C1072 C1074 1.381 . S
C1072 C1078 1.383 . S
C1073 C1069 1.495 . S
C1073 H1079 0.959 . S
C1073 H1080 0.961 . S
C1073 H1081 0.960 . S
C1074 C1072 1.381 . S
C1074 C1075 1.394 . S
C1074 H1082 0.930 . S
C1075 C1074 1.394 . S
C1075 C1076 1.383 . S
C1075 H1083 0.929 . S
C1076 C1075 1.383 . S
C1076 C1077 1.377 . S
C1077 H1061 0.930 . S
C1077 C1076 1.377 . S
C1077 C1078 1.379 . S
C1078 H1062 0.931 . S
C1078 C1072 1.383 . S
C1078 C1077 1.379 . S
H1079 C1073 0.959 . S
H1080 C1073 0.961 . S
H1081 C1073 0.960 . S
H1082 C1074 0.930 . S
H1083 C1075 0.929 . S
H1084 C1092 0.929 . S
H1085 C1094 0.930 . S
H1086 C1096 0.930 . S
H1087 C1099 0.929 . S
H1088 C1102 0.930 . S
H1089 C1104 0.960 . S
H1090 C1104 0.960 . S
H1091 C1104 0.960 . S
C1092 H1084 0.929 . S
C1092 C1093 1.377 . S
C1092 C1094 1.384 . S
C1093 C1092 1.377 . S
C1093 C1099 1.390 . S
C1094 H1085 0.930 . S
C1094 C1092 1.384 . S
C1094 C1095 1.372 . S
C1095 C1094 1.372 . S
C1095 C1096 1.400 . S
C1095 C1100 1.490 . S
C1096 H1086 0.930 . S
C1096 C1095 1.400 . S
C1096 C1099 1.386 . S
H1097 C1113 0.930 . S
H1098 C1114 0.931 . S
C1099 H1087 0.929 . S
C1099 C1093 1.390 . S
C1099 C1096 1.386 . S
C1100 C1095 1.490 . S
C1100 C1102 1.395 . S
C1100 C1103 1.403 . S
H1101 C1107 0.930 . S
C1102 H1088 0.930 . S
C1102 C1100 1.395 . S
C1102 C1105 1.403 . S
C1103 C1100 1.403 . S
C1103 C1104 1.524 . S
C1103 C1107 1.400 1_565 S
C1104 H1089 0.960 . S
C1104 H1090 0.960 . S
C1104 H1091 0.960 . S
C1104 C1103 1.524 . S
C1105 C1102 1.403 . S
C1105 C1106 1.392 1_565 S
C1105 C1109 1.495 1_565 S
C1106 C1105 1.392 1_545 S
C1106 C1107 1.385 . S
C1106 C1108 1.478 . S
C1107 H1101 0.930 . S
C1107 C1103 1.400 1_545 S
C1107 C1106 1.385 . S
C1108 C1106 1.478 . S
C1108 C1110 1.381 . S
C1108 C1114 1.383 . S
C1109 C1105 1.495 1_545 S
C1109 H1115 0.959 1_545 S
C1109 H1116 0.961 . S
C1109 H1117 0.960 . S
C1110 C1108 1.381 . S
C1110 C1111 1.394 . S
C1110 H1118 0.930 . S
C1111 C1110 1.394 . S
C1111 C1112 1.383 . S
C1111 H1119 0.929 . S
C1112 C1111 1.383 . S
C1112 C1113 1.377 . S
C1113 H1097 0.930 . S
C1113 C1112 1.377 . S
C1113 C1114 1.379 . S
C1114 H1098 0.931 . S
C1114 C1108 1.383 . S
C1114 C1113 1.379 . S
H1115 C1109 0.959 1_565 S
H1116 C1109 0.961 . S
H1117 C1109 0.960 . S
H1118 C1110 0.930 . S
H1119 C1111 0.929 . S
H1120 C1128 0.929 . S
H1121 C1130 0.930 . S
H1122 C1132 0.930 . S
H1123 C1135 0.929 . S
H1124 C1138 0.930 . S
H1125 C1140 0.960 . S
H1126 C1140 0.960 . S
H1127 C1140 0.960 . S
C1128 H1120 0.929 . S
C1128 C1129 1.377 . S
C1128 C1130 1.384 . S
C1129 C1128 1.377 . S
C1129 C1135 1.390 . S
C1130 H1121 0.930 . S
C1130 C1128 1.384 . S
C1130 C1131 1.372 . S
C1131 C1130 1.372 . S
C1131 C1132 1.400 . S
C1131 C1136 1.490 . S
C1132 H1122 0.930 . S
C1132 C1131 1.400 . S
C1132 C1135 1.386 . S
H1133 C1149 0.930 . S
H1134 C1150 0.931 . S
C1135 H1123 0.929 . S
C1135 C1129 1.390 . S
C1135 C1132 1.386 . S
C1136 C1131 1.490 . S
C1136 C1138 1.395 . S
C1136 C1139 1.403 . S
H1137 C1143 0.930 . S
C1138 H1124 0.930 . S
C1138 C1136 1.395 . S
C1138 C1141 1.403 . S
C1139 C1136 1.403 . S
C1139 C1140 1.524 . S
C1139 C1143 1.400 . S
C1140 H1125 0.960 . S
C1140 H1126 0.960 . S
C1140 H1127 0.960 . S
C1140 C1139 1.524 . S
C1141 C1138 1.403 . S
C1141 C1142 1.392 . S
C1141 C1145 1.495 . S
C1142 C1141 1.392 . S
C1142 C1143 1.385 . S
C1142 C1144 1.478 . S
C1143 H1137 0.930 . S
C1143 C1139 1.400 . S
C1143 C1142 1.385 . S
C1144 C1142 1.478 . S
C1144 C1146 1.381 . S
C1144 C1150 1.383 . S
C1145 C1141 1.495 . S
C1145 H1151 0.959 . S
C1145 H1152 0.961 . S
C1145 H1153 0.960 . S
C1146 C1144 1.381 . S
C1146 C1147 1.394 . S
C1146 H1154 0.930 . S
C1147 C1146 1.394 . S
C1147 C1148 1.383 . S
C1147 H1155 0.929 . S
C1148 C1147 1.383 . S
C1148 C1149 1.377 . S
C1149 H1133 0.930 . S
C1149 C1148 1.377 . S
C1149 C1150 1.379 . S
C1150 H1134 0.931 . S
C1150 C1144 1.383 . S
C1150 C1149 1.379 . S
H1151 C1145 0.959 . S
H1152 C1145 0.961 . S
H1153 C1145 0.960 . S
H1154 C1146 0.930 . S
H1155 C1147 0.929 . S
H1156 C1164 0.929 . S
H1157 C1166 0.930 . S
H1158 C1168 0.930 . S
H1159 C1171 0.929 . S
H1160 C1174 0.930 . S
H1161 C1176 0.960 . S
H1162 C1176 0.960 . S
H1163 C1176 0.960 . S
C1164 H1156 0.929 . S
C1164 C1165 1.377 . S
C1164 C1166 1.384 . S
C1165 C1164 1.377 . S
C1165 C1171 1.390 . S
C1166 H1157 0.930 . S
C1166 C1164 1.384 . S
C1166 C1167 1.372 . S
C1167 C1166 1.372 . S
C1167 C1168 1.400 . S
C1167 C1172 1.490 . S
C1168 H1158 0.930 . S
C1168 C1167 1.400 . S
C1168 C1171 1.386 . S
H1169 C1185 0.930 . S
H1170 C1186 0.931 . S
C1171 H1159 0.929 . S
C1171 C1165 1.390 . S
C1171 C1168 1.386 . S
C1172 C1167 1.490 . S
C1172 C1174 1.395 . S
C1172 C1175 1.403 . S
H1173 C1179 0.932 1_565 S
C1174 H1160 0.930 . S
C1174 C1172 1.395 . S
C1174 C1177 1.403 . S
C1175 C1172 1.403 . S
C1175 C1176 1.524 . S
C1175 C1179 1.400 . S
C1176 H1161 0.960 . S
C1176 H1162 0.960 . S
C1176 H1163 0.960 . S
C1176 C1175 1.524 . S
C1177 C1174 1.403 . S
C1177 C1178 1.392 1_545 S
C1177 C1181 1.495 1_545 S
C1178 C1177 1.392 1_565 S
C1178 C1179 1.385 1_565 S
C1178 C1180 1.478 . S
C1179 H1173 0.932 1_545 S
C1179 C1175 1.400 . S
C1179 C1178 1.385 1_545 S
C1180 C1178 1.478 . S
C1180 C1182 1.381 . S
C1180 C1186 1.383 . S
C1181 C1177 1.495 1_565 S
C1181 H1187 0.959 1_565 S
C1181 H1188 0.961 . S
C1181 H1189 0.960 . S
C1182 C1180 1.381 . S
C1182 C1183 1.394 . S
C1182 H1190 0.930 . S
C1183 C1182 1.394 . S
C1183 C1184 1.383 . S
C1183 H1191 0.929 . S
C1184 C1183 1.383 . S
C1184 C1185 1.377 . S
C1185 H1169 0.930 . S
C1185 C1184 1.377 . S
C1185 C1186 1.379 . S
C1186 H1170 0.931 . S
C1186 C1180 1.383 . S
C1186 C1185 1.379 . S
H1187 C1181 0.959 1_545 S
H1188 C1181 0.961 . S
H1189 C1181 0.960 . S
H1190 C1182 0.930 . S
H1191 C1183 0.929 . S
H1192 C1200 0.929 . S
H1193 C1202 0.930 . S
H1194 C1204 0.930 . S
H1195 C1207 0.929 . S
H1196 C1210 0.930 . S
H1197 C1212 0.960 . S
H1198 C1212 0.960 . S
H1199 C1212 0.960 . S
C1200 H1192 0.929 . S
C1200 C1201 1.377 . S
C1200 C1202 1.384 . S
C1201 C1200 1.377 . S
C1201 C1207 1.390 . S
C1202 H1193 0.930 . S
C1202 C1200 1.384 . S
C1202 C1203 1.372 . S
C1203 C1202 1.372 . S
C1203 C1204 1.400 . S
C1203 C1208 1.490 . S
C1204 H1194 0.930 . S
C1204 C1203 1.400 . S
C1204 C1207 1.386 . S
H1205 C1221 0.930 . S
H1206 C1222 0.931 . S
C1207 H1195 0.929 . S
C1207 C1201 1.390 . S
C1207 C1204 1.386 . S
C1208 C1203 1.490 . S
C1208 C1210 1.395 . S
C1208 C1211 1.403 . S
H1209 C1215 0.930 . S
C1210 H1196 0.930 . S
C1210 C1208 1.395 . S
C1210 C1213 1.403 . S
C1211 C1208 1.403 . S
C1211 C1212 1.524 . S
C1211 C1215 1.400 . S
C1212 H1197 0.960 . S
C1212 H1198 0.960 . S
C1212 H1199 0.960 . S
C1212 C1211 1.524 . S
C1213 C1210 1.403 . S
C1213 C1214 1.392 . S
C1213 C1217 1.495 . S
C1214 C1213 1.392 . S
C1214 C1215 1.385 . S
C1214 C1216 1.478 . S
C1215 H1209 0.930 . S
C1215 C1211 1.400 . S
C1215 C1214 1.385 . S
C1216 C1214 1.478 . S
C1216 C1218 1.381 . S
C1216 C1222 1.383 . S
C1217 C1213 1.495 . S
C1217 H1223 0.959 . S
C1217 H1224 0.961 . S
C1217 H1225 0.960 . S
C1218 C1216 1.381 . S
C1218 C1219 1.394 . S
C1218 H1226 0.930 . S
C1219 C1218 1.394 . S
C1219 C1220 1.383 . S
C1219 H1227 0.929 . S
C1220 C1219 1.383 . S
C1220 C1221 1.377 . S
C1221 H1205 0.930 . S
C1221 C1220 1.377 . S
C1221 C1222 1.379 . S
C1222 H1206 0.931 . S
C1222 C1216 1.383 . S
C1222 C1221 1.379 . S
H1223 C1217 0.959 . S
H1224 C1217 0.961 . S
H1225 C1217 0.960 . S
H1226 C1218 0.930 . S
H1227 C1219 0.929 . S
H1228 C1236 0.929 . S
H1229 C1238 0.930 . S
H1230 C1240 0.930 . S
H1231 C1243 0.929 . S
H1232 C1246 0.930 . S
H1233 C1248 0.960 . S
H1234 C1248 0.960 . S
H1235 C1248 0.960 . S
C1236 H1228 0.929 . S
C1236 C1237 1.377 . S
C1236 C1238 1.384 . S
C1237 C1236 1.377 . S
C1237 C1243 1.390 . S
C1238 H1229 0.930 . S
C1238 C1236 1.384 . S
C1238 C1239 1.372 . S
C1239 C1238 1.372 . S
C1239 C1240 1.400 . S
C1239 C1244 1.490 . S
C1240 H1230 0.930 . S
C1240 C1239 1.400 . S
C1240 C1243 1.386 . S
H1241 C1257 0.930 . S
H1242 C1258 0.931 . S
C1243 H1231 0.929 . S
C1243 C1237 1.390 . S
C1243 C1240 1.386 . S
C1244 C1239 1.490 . S
C1244 C1246 1.395 . S
C1244 C1247 1.403 . S
H1245 C1251 0.930 . S
C1246 H1232 0.930 . S
C1246 C1244 1.395 . S
C1246 C1249 1.403 1_565 S
C1247 C1244 1.403 . S
C1247 C1248 1.524 . S
C1247 C1251 1.400 . S
C1248 H1233 0.960 . S
C1248 H1234 0.960 . S
C1248 H1235 0.960 . S
C1248 C1247 1.524 . S
C1249 C1246 1.403 1_545 S
C1249 C1250 1.392 . S
C1249 C1253 1.495 . S
C1250 C1249 1.392 . S
C1250 C1251 1.385 1_545 S
C1250 C1252 1.478 . S
C1251 H1245 0.930 . S
C1251 C1247 1.400 . S
C1251 C1250 1.385 1_565 S
C1252 C1250 1.478 . S
C1252 C1254 1.381 . S
C1252 C1258 1.383 . S
C1253 C1249 1.495 . S
C1253 H1259 0.959 . S
C1253 H1260 0.961 . S
C1253 H1261 0.960 . S
C1254 C1252 1.381 . S
C1254 C1255 1.394 . S
C1254 H1262 0.930 . S
C1255 C1254 1.394 . S
C1255 C1256 1.383 . S
C1255 H1263 0.929 . S
C1256 C1255 1.383 . S
C1256 C1257 1.377 . S
C1257 H1241 0.930 . S
C1257 C1256 1.377 . S
C1257 C1258 1.379 . S
C1258 H1242 0.931 . S
C1258 C1252 1.383 . S
C1258 C1257 1.379 . S
H1259 C1253 0.959 . S
H1260 C1253 0.961 . S
H1261 C1253 0.960 . S
H1262 C1254 0.930 . S
H1263 C1255 0.929 . S
H1264 C1272 0.929 . S
H1265 C1274 0.930 . S
H1266 C1276 0.930 . S
H1267 C1279 0.929 . S
H1268 C1282 0.930 . S
H1269 C1284 0.960 . S
H1270 C1284 0.960 . S
H1271 C1284 0.960 . S
C1272 H1264 0.929 . S
C1272 C1273 1.377 . S
C1272 C1274 1.384 . S
C1273 C1272 1.377 . S
C1273 C1279 1.390 . S
C1274 H1265 0.930 . S
C1274 C1272 1.384 . S
C1274 C1275 1.372 . S
C1275 C1274 1.372 . S
C1275 C1276 1.400 . S
C1275 C1280 1.490 . S
C1276 H1266 0.930 . S
C1276 C1275 1.400 . S
C1276 C1279 1.386 . S
H1277 C1293 0.930 . S
H1278 C1294 0.931 . S
C1279 H1267 0.929 . S
C1279 C1273 1.390 . S
C1279 C1276 1.386 . S
C1280 C1275 1.490 . S
C1280 C1282 1.395 . S
C1280 C1283 1.403 . S
H1281 C1287 0.930 . S
C1282 H1268 0.930 . S
C1282 C1280 1.395 . S
C1282 C1285 1.403 . S
C1283 C1280 1.403 . S
C1283 C1284 1.524 . S
C1283 C1287 1.400 . S
C1284 H1269 0.960 . S
C1284 H1270 0.960 . S
C1284 H1271 0.960 . S
C1284 C1283 1.524 . S
C1285 C1282 1.403 . S
C1285 C1286 1.392 . S
C1285 C1289 1.495 . S
C1286 C1285 1.392 . S
C1286 C1287 1.385 . S
C1286 C1288 1.478 . S
C1287 H1281 0.930 . S
C1287 C1283 1.400 . S
C1287 C1286 1.385 . S
C1288 C1286 1.478 . S
C1288 C1290 1.381 . S
C1288 C1294 1.383 . S
C1289 C1285 1.495 . S
C1289 H1295 0.959 . S
C1289 H1296 0.961 . S
C1289 H1297 0.960 . S
C1290 C1288 1.381 . S
C1290 C1291 1.394 . S
C1290 H1298 0.930 . S
C1291 C1290 1.394 . S
C1291 C1292 1.383 . S
C1291 H1299 0.929 . S
C1292 C1291 1.383 . S
C1292 C1293 1.377 . S
C1293 H1277 0.930 . S
C1293 C1292 1.377 . S
C1293 C1294 1.379 . S
C1294 H1278 0.931 . S
C1294 C1288 1.383 . S
C1294 C1293 1.379 . S
H1295 C1289 0.959 . S
H1296 C1289 0.961 . S
H1297 C1289 0.960 . S
H1298 C1290 0.930 . S
H1299 C1291 0.929 . S
H1300 C1308 0.929 . S
H1301 C1310 0.930 . S
H1302 C1312 0.930 . S
H1303 C1315 0.929 . S
H1304 C1318 0.930 . S
H1305 C1320 0.960 . S
H1306 C1320 0.960 . S
H1307 C1320 0.960 . S
C1308 H1300 0.929 . S
C1308 C1309 1.377 . S
C1308 C1310 1.384 . S
C1309 C1308 1.377 . S
C1309 C1315 1.390 . S
C1310 H1301 0.930 . S
C1310 C1308 1.384 . S
C1310 C1311 1.372 . S
C1311 C1310 1.372 . S
C1311 C1312 1.400 . S
C1311 C1316 1.490 . S
C1312 H1302 0.930 . S
C1312 C1311 1.400 . S
C1312 C1315 1.386 . S
H1313 C1329 0.930 . S
H1314 C1330 0.931 . S
C1315 H1303 0.929 . S
C1315 C1309 1.390 . S
C1315 C1312 1.386 . S
C1316 C1311 1.490 . S
C1316 C1318 1.395 . S
C1316 C1319 1.403 . S
H1317 C1323 0.930 . S
C1318 H1304 0.930 . S
C1318 C1316 1.395 . S
C1318 C1321 1.403 . S
C1319 C1316 1.403 . S
C1319 C1320 1.524 . S
C1319 C1323 1.400 . S
C1320 H1305 0.960 . S
C1320 H1306 0.960 . S
C1320 H1307 0.960 . S
C1320 C1319 1.524 . S
C1321 C1318 1.403 . S
C1321 C1322 1.392 . S
C1321 C1325 1.495 . S
C1322 C1321 1.392 . S
C1322 C1323 1.385 . S
C1322 C1324 1.478 . S
C1323 H1317 0.930 . S
C1323 C1319 1.400 . S
C1323 C1322 1.385 . S
C1324 C1322 1.478 . S
C1324 C1326 1.381 . S
C1324 C1330 1.383 . S
C1325 C1321 1.495 . S
C1325 H1331 0.959 . S
C1325 H1332 0.961 . S
C1325 H1333 0.960 . S
C1326 C1324 1.381 . S
C1326 C1327 1.394 . S
C1326 H1334 0.930 . S
C1327 C1326 1.394 . S
C1327 C1328 1.383 . S
C1327 H1335 0.929 . S
C1328 C1327 1.383 . S
C1328 C1329 1.377 . S
C1329 H1313 0.930 . S
C1329 C1328 1.377 . S
C1329 C1330 1.379 . S
C1330 H1314 0.931 . S
C1330 C1324 1.383 . S
C1330 C1329 1.379 . S
H1331 C1325 0.959 . S
H1332 C1325 0.961 . S
H1333 C1325 0.960 . S
H1334 C1326 0.930 . S
H1335 C1327 0.929 . S
H1336 C1344 0.929 . S
H1337 C1346 0.930 . S
H1338 C1348 0.930 . S
H1339 C1351 0.929 . S
H1340 C1354 0.930 . S
H1341 C1356 0.960 1_655 S
H1342 C1356 0.960 . S
H1343 C1356 0.960 . S
C1344 H1336 0.929 . S
C1344 C1345 1.377 . S
C1344 C1346 1.384 . S
C1345 C1344 1.377 . S
C1345 C1351 1.390 . S
C1346 H1337 0.930 . S
C1346 C1344 1.384 . S
C1346 C1347 1.372 . S
C1347 C1346 1.372 . S
C1347 C1348 1.400 . S
C1347 C1352 1.490 . S
C1348 H1338 0.930 . S
C1348 C1347 1.400 . S
C1348 C1351 1.386 . S
H1349 C1365 0.930 . S
H1350 C1366 0.931 . S
C1351 H1339 0.929 . S
C1351 C1345 1.390 . S
C1351 C1348 1.386 . S
C1352 C1347 1.490 . S
C1352 C1354 1.395 . S
C1352 C1355 1.403 . S
H1353 C1359 0.930 . S
C1354 H1340 0.930 . S
C1354 C1352 1.395 . S
C1354 C1357 1.403 . S
C1355 C1352 1.403 . S
C1355 C1356 1.524 . S
C1355 C1359 1.400 1_455 S
C1356 H1341 0.960 1_455 S
C1356 H1342 0.960 . S
C1356 H1343 0.960 . S
C1356 C1355 1.524 . S
C1357 C1354 1.403 . S
C1357 C1358 1.392 1_455 S
C1357 C1361 1.495 . S
C1358 C1357 1.392 1_655 S
C1358 C1359 1.385 . S
C1358 C1360 1.478 . S
C1359 H1353 0.930 . S
C1359 C1355 1.400 1_655 S
C1359 C1358 1.385 . S
C1360 C1358 1.478 . S
C1360 C1362 1.381 . S
C1360 C1366 1.383 . S
C1361 C1357 1.495 . S
C1361 H1367 0.959 . S
C1361 H1368 0.961 . S
C1361 H1369 0.960 . S
C1362 C1360 1.381 . S
C1362 C1363 1.394 . S
C1362 H1370 0.930 . S
C1363 C1362 1.394 . S
C1363 C1364 1.383 . S
C1363 H1371 0.929 . S
C1364 C1363 1.383 . S
C1364 C1365 1.377 . S
C1365 H1349 0.930 . S
C1365 C1364 1.377 . S
C1365 C1366 1.379 . S
C1366 H1350 0.931 . S
C1366 C1360 1.383 . S
C1366 C1365 1.379 . S
H1367 C1361 0.959 . S
H1368 C1361 0.961 . S
H1369 C1361 0.960 . S
H1370 C1362 0.930 . S
H1371 C1363 0.929 . S
H1372 C1380 0.929 . S
H1373 C1382 0.930 . S
H1374 C1384 0.930 . S
H1375 C1387 0.929 . S
H1376 C1390 0.930 . S
H1377 C1392 0.960 . S
H1378 C1392 0.960 . S
H1379 C1392 0.960 . S
C1380 H1372 0.929 . S
C1380 C1381 1.377 . S
C1380 C1382 1.384 . S
C1381 C1380 1.377 . S
C1381 C1387 1.390 . S
C1382 H1373 0.930 . S
C1382 C1380 1.384 . S
C1382 C1383 1.372 . S
C1383 C1382 1.372 . S
C1383 C1384 1.400 . S
C1383 C1388 1.490 . S
C1384 H1374 0.930 . S
C1384 C1383 1.400 . S
C1384 C1387 1.386 . S
H1385 C1401 0.930 . S
H1386 C1402 0.931 . S
C1387 H1375 0.929 . S
C1387 C1381 1.390 . S
C1387 C1384 1.386 . S
C1388 C1383 1.490 . S
C1388 C1390 1.395 . S
C1388 C1391 1.403 . S
H1389 C1395 0.930 . S
C1390 H1376 0.930 . S
C1390 C1388 1.395 . S
C1390 C1393 1.403 . S
C1391 C1388 1.403 . S
C1391 C1392 1.524 . S
C1391 C1395 1.400 . S
C1392 H1377 0.960 . S
C1392 H1378 0.960 . S
C1392 H1379 0.960 . S
C1392 C1391 1.524 . S
C1393 C1390 1.403 . S
C1393 C1394 1.392 . S
C1393 C1397 1.495 . S
C1394 C1393 1.392 . S
C1394 C1395 1.385 . S
C1394 C1396 1.478 . S
C1395 H1389 0.930 . S
C1395 C1391 1.400 . S
C1395 C1394 1.385 . S
C1396 C1394 1.478 . S
C1396 C1398 1.381 . S
C1396 C1402 1.383 . S
C1397 C1393 1.495 . S
C1397 H1403 0.959 . S
C1397 H1404 0.961 . S
C1397 H1405 0.960 . S
C1398 C1396 1.381 . S
C1398 C1399 1.394 . S
C1398 H1406 0.930 . S
C1399 C1398 1.394 . S
C1399 C1400 1.383 . S
C1399 H1407 0.929 . S
C1400 C1399 1.383 . S
C1400 C1401 1.377 . S
C1401 H1385 0.930 . S
C1401 C1400 1.377 . S
C1401 C1402 1.379 . S
C1402 H1386 0.931 . S
C1402 C1396 1.383 . S
C1402 C1401 1.379 . S
H1403 C1397 0.959 . S
H1404 C1397 0.961 . S
H1405 C1397 0.960 . S
H1406 C1398 0.930 . S
H1407 C1399 0.929 . S
H1408 C1416 0.929 . S
H1409 C1418 0.930 . S
H1410 C1420 0.930 . S
H1411 C1423 0.929 . S
H1412 C1426 0.930 . S
H1413 C1428 0.960 1_455 S
H1414 C1428 0.960 . S
H1415 C1428 0.960 . S
C1416 H1408 0.929 . S
C1416 C1417 1.377 . S
C1416 C1418 1.384 . S
C1417 C1416 1.377 . S
C1417 C1423 1.390 . S
C1418 H1409 0.930 . S
C1418 C1416 1.384 . S
C1418 C1419 1.372 . S
C1419 C1418 1.372 . S
C1419 C1420 1.400 . S
C1419 C1424 1.490 . S
C1420 H1410 0.930 . S
C1420 C1419 1.400 . S
C1420 C1423 1.386 . S
H1421 C1437 0.930 . S
H1422 C1438 0.931 . S
C1423 H1411 0.929 . S
C1423 C1417 1.390 . S
C1423 C1420 1.386 . S
C1424 C1419 1.490 . S
C1424 C1426 1.395 . S
C1424 C1427 1.403 . S
H1425 C1431 0.930 . S
C1426 H1412 0.930 . S
C1426 C1424 1.395 . S
C1426 C1429 1.403 . S
C1427 C1424 1.403 . S
C1427 C1428 1.524 . S
C1427 C1431 1.400 1_655 S
C1428 H1413 0.960 1_655 S
C1428 H1414 0.960 . S
C1428 H1415 0.960 . S
C1428 C1427 1.524 . S
C1429 C1426 1.403 . S
C1429 C1430 1.392 1_655 S
C1429 C1433 1.495 . S
C1430 C1429 1.392 1_455 S
C1430 C1431 1.385 . S
C1430 C1432 1.478 . S
C1431 H1425 0.930 . S
C1431 C1427 1.400 1_455 S
C1431 C1430 1.385 . S
C1432 C1430 1.478 . S
C1432 C1434 1.381 . S
C1432 C1438 1.383 . S
C1433 C1429 1.495 . S
C1433 H1439 0.959 . S
C1433 H1440 0.961 . S
C1433 H1441 0.960 . S
C1434 C1432 1.381 . S
C1434 C1435 1.394 . S
C1434 H1442 0.930 . S
C1435 C1434 1.394 . S
C1435 C1436 1.383 . S
C1435 H1443 0.929 . S
C1436 C1435 1.383 . S
C1436 C1437 1.377 . S
C1437 H1421 0.930 . S
C1437 C1436 1.377 . S
C1437 C1438 1.379 . S
C1438 H1422 0.931 . S
C1438 C1432 1.383 . S
C1438 C1437 1.379 . S
H1439 C1433 0.959 . S
H1440 C1433 0.961 . S
H1441 C1433 0.960 . S
H1442 C1434 0.930 . S
H1443 C1435 0.929 . S
H1444 C1452 0.929 . S
H1445 C1454 0.930 . S
H1446 C1456 0.930 . S
H1447 C1459 0.929 . S
H1448 C1462 0.930 . S
H1449 C1464 0.960 . S
H1450 C1464 0.960 . S
H1451 C1464 0.960 . S
C1452 H1444 0.929 . S
C1452 C1453 1.377 . S
C1452 C1454 1.384 . S
C1453 C1452 1.377 . S
C1453 C1459 1.390 . S
C1454 H1445 0.930 . S
C1454 C1452 1.384 . S
C1454 C1455 1.372 . S
C1455 C1454 1.372 . S
C1455 C1456 1.400 . S
C1455 C1460 1.490 . S
C1456 H1446 0.930 . S
C1456 C1455 1.400 . S
C1456 C1459 1.386 . S
H1457 C1473 0.930 . S
H1458 C1474 0.931 . S
C1459 H1447 0.929 . S
C1459 C1453 1.390 . S
C1459 C1456 1.386 . S
C1460 C1455 1.490 . S
C1460 C1462 1.395 . S
C1460 C1463 1.403 . S
H1461 C1467 0.930 . S
C1462 H1448 0.930 . S
C1462 C1460 1.395 . S
C1462 C1465 1.403 . S
C1463 C1460 1.403 . S
C1463 C1464 1.524 . S
C1463 C1467 1.400 . S
C1464 H1449 0.960 . S
C1464 H1450 0.960 . S
C1464 H1451 0.960 . S
C1464 C1463 1.524 . S
C1465 C1462 1.403 . S
C1465 C1466 1.392 . S
C1465 C1469 1.495 . S
C1466 C1465 1.392 . S
C1466 C1467 1.385 . S
C1466 C1468 1.478 . S
C1467 H1461 0.930 . S
C1467 C1463 1.400 . S
C1467 C1466 1.385 . S
C1468 C1466 1.478 . S
C1468 C1470 1.381 . S
C1468 C1474 1.383 . S
C1469 C1465 1.495 . S
C1469 H1475 0.959 . S
C1469 H1476 0.961 . S
C1469 H1477 0.960 . S
C1470 C1468 1.381 . S
C1470 C1471 1.394 . S
C1470 H1478 0.930 . S
C1471 C1470 1.394 . S
C1471 C1472 1.383 . S
C1471 H1479 0.929 . S
C1472 C1471 1.383 . S
C1472 C1473 1.377 . S
C1473 H1457 0.930 . S
C1473 C1472 1.377 . S
C1473 C1474 1.379 . S
C1474 H1458 0.931 . S
C1474 C1468 1.383 . S
C1474 C1473 1.379 . S
H1475 C1469 0.959 . S
H1476 C1469 0.961 . S
H1477 C1469 0.960 . S
H1478 C1470 0.930 . S
H1479 C1471 0.929 . S
H1480 C1488 0.929 . S
H1481 C1490 0.930 . S
H1482 C1492 0.930 . S
H1483 C1495 0.929 . S
H1484 C1498 0.930 . S
H1485 C1500 0.960 . S
H1486 C1500 0.960 . S
H1487 C1500 0.960 . S
C1488 H1480 0.929 . S
C1488 C1489 1.377 . S
C1488 C1490 1.384 . S
C1489 C1488 1.377 . S
C1489 C1495 1.390 . S
C1490 H1481 0.930 . S
C1490 C1488 1.384 . S
C1490 C1491 1.372 . S
C1491 C1490 1.372 . S
C1491 C1492 1.400 . S
C1491 C1496 1.490 . S
C1492 H1482 0.930 . S
C1492 C1491 1.400 . S
C1492 C1495 1.386 . S
H1493 C1509 0.930 . S
H1494 C1510 0.931 . S
C1495 H1483 0.929 . S
C1495 C1489 1.390 . S
C1495 C1492 1.386 . S
C1496 C1491 1.490 . S
C1496 C1498 1.395 . S
C1496 C1499 1.403 . S
H1497 C1503 0.930 . S
C1498 H1484 0.930 . S
C1498 C1496 1.395 . S
C1498 C1501 1.403 1_455 S
C1499 C1496 1.403 . S
C1499 C1500 1.524 . S
C1499 C1503 1.400 . S
C1500 H1485 0.960 . S
C1500 H1486 0.960 . S
C1500 H1487 0.960 . S
C1500 C1499 1.524 . S
C1501 C1498 1.403 1_655 S
C1501 C1502 1.392 . S
C1501 C1505 1.495 . S
C1502 C1501 1.392 . S
C1502 C1503 1.385 1_655 S
C1502 C1504 1.478 . S
C1503 H1497 0.930 . S
C1503 C1499 1.400 . S
C1503 C1502 1.385 1_455 S
C1504 C1502 1.478 . S
C1504 C1506 1.381 . S
C1504 C1510 1.383 . S
C1505 C1501 1.495 . S
C1505 H1511 0.959 . S
C1505 H1512 0.961 . S
C1505 H1513 0.960 . S
C1506 C1504 1.381 . S
C1506 C1507 1.394 . S
C1506 H1514 0.930 . S
C1507 C1506 1.394 . S
C1507 C1508 1.383 . S
C1507 H1515 0.929 . S
C1508 C1507 1.383 . S
C1508 C1509 1.377 . S
C1509 H1493 0.930 . S
C1509 C1508 1.377 . S
C1509 C1510 1.379 . S
C1510 H1494 0.931 . S
C1510 C1504 1.383 . S
C1510 C1509 1.379 . S
H1511 C1505 0.959 . S
H1512 C1505 0.961 . S
H1513 C1505 0.960 . S
H1514 C1506 0.930 . S
H1515 C1507 0.929 . S
H1516 C1524 0.929 . S
H1517 C1526 0.930 . S
H1518 C1528 0.930 . S
H1519 C1531 0.929 . S
H1520 C1534 0.930 . S
H1521 C1536 0.960 . S
H1522 C1536 0.960 . S
H1523 C1536 0.960 . S
C1524 H1516 0.929 . S
C1524 C1525 1.377 . S
C1524 C1526 1.384 . S
C1525 C1524 1.377 . S
C1525 C1531 1.390 . S
C1526 H1517 0.930 . S
C1526 C1524 1.384 . S
C1526 C1527 1.372 . S
C1527 C1526 1.372 . S
C1527 C1528 1.400 . S
C1527 C1532 1.490 . S
C1528 H1518 0.930 . S
C1528 C1527 1.400 . S
C1528 C1531 1.386 . S
H1529 C1545 0.930 . S
H1530 C1546 0.931 . S
C1531 H1519 0.929 . S
C1531 C1525 1.390 . S
C1531 C1528 1.386 . S
C1532 C1527 1.490 . S
C1532 C1534 1.395 . S
C1532 C1535 1.403 . S
H1533 C1539 0.930 . S
C1534 H1520 0.930 . S
C1534 C1532 1.395 . S
C1534 C1537 1.403 . S
C1535 C1532 1.403 . S
C1535 C1536 1.524 . S
C1535 C1539 1.400 . S
C1536 H1521 0.960 . S
C1536 H1522 0.960 . S
C1536 H1523 0.960 . S
C1536 C1535 1.524 . S
C1537 C1534 1.403 . S
C1537 C1538 1.392 . S
C1537 C1541 1.495 . S
C1538 C1537 1.392 . S
C1538 C1539 1.385 . S
C1538 C1540 1.478 . S
C1539 H1533 0.930 . S
C1539 C1535 1.400 . S
C1539 C1538 1.385 . S
C1540 C1538 1.478 . S
C1540 C1542 1.381 . S
C1540 C1546 1.383 . S
C1541 C1537 1.495 . S
C1541 H1547 0.959 . S
C1541 H1548 0.961 . S
C1541 H1549 0.960 . S
C1542 C1540 1.381 . S
C1542 C1543 1.394 . S
C1542 H1550 0.930 . S
C1543 C1542 1.394 . S
C1543 C1544 1.383 . S
C1543 H1551 0.929 . S
C1544 C1543 1.383 . S
C1544 C1545 1.377 . S
C1545 H1529 0.930 . S
C1545 C1544 1.377 . S
C1545 C1546 1.379 . S
C1546 H1530 0.931 . S
C1546 C1540 1.383 . S
C1546 C1545 1.379 . S
H1547 C1541 0.959 . S
H1548 C1541 0.961 . S
H1549 C1541 0.960 . S
H1550 C1542 0.930 . S
H1551 C1543 0.929 . S
H1552 C1560 0.929 . S
H1553 C1562 0.930 . S
H1554 C1564 0.930 . S
H1555 C1567 0.929 . S
H1556 C1570 0.930 . S
H1557 C1572 0.960 . S
H1558 C1572 0.960 . S
H1559 C1572 0.960 . S
C1560 H1552 0.929 . S
C1560 C1561 1.377 . S
C1560 C1562 1.384 . S
C1561 C1560 1.377 . S
C1561 C1567 1.390 . S
C1562 H1553 0.930 . S
C1562 C1560 1.384 . S
C1562 C1563 1.372 . S
C1563 C1562 1.372 . S
C1563 C1564 1.400 . S
C1563 C1568 1.490 . S
C1564 H1554 0.930 . S
C1564 C1563 1.400 . S
C1564 C1567 1.386 . S
H1565 C1581 0.930 . S
H1566 C1582 0.931 . S
C1567 H1555 0.929 . S
C1567 C1561 1.390 . S
C1567 C1564 1.386 . S
C1568 C1563 1.490 . S
C1568 C1570 1.395 . S
C1568 C1571 1.403 . S
H1569 C1575 0.930 . S
C1570 H1556 0.930 . S
C1570 C1568 1.395 . S
C1570 C1573 1.403 . S
C1571 C1568 1.403 . S
C1571 C1572 1.524 . S
C1571 C1575 1.400 . S
C1572 H1557 0.960 . S
C1572 H1558 0.960 . S
C1572 H1559 0.960 . S
C1572 C1571 1.524 . S
C1573 C1570 1.403 . S
C1573 C1574 1.392 . S
C1573 C1577 1.495 . S
C1574 C1573 1.392 . S
C1574 C1575 1.385 . S
C1574 C1576 1.478 . S
C1575 H1569 0.930 . S
C1575 C1571 1.400 . S
C1575 C1574 1.385 . S
C1576 C1574 1.478 . S
C1576 C1578 1.381 . S
C1576 C1582 1.383 . S
C1577 C1573 1.495 . S
C1577 H1583 0.959 . S
C1577 H1584 0.961 . S
C1577 H1585 0.960 . S
C1578 C1576 1.381 . S
C1578 C1579 1.394 . S
C1578 H1586 0.930 . S
C1579 C1578 1.394 . S
C1579 C1580 1.383 . S
C1579 H1587 0.929 . S
C1580 C1579 1.383 . S
C1580 C1581 1.377 . S
C1581 H1565 0.930 . S
C1581 C1580 1.377 . S
C1581 C1582 1.379 . S
C1582 H1566 0.931 . S
C1582 C1576 1.383 . S
C1582 C1581 1.379 . S
H1583 C1577 0.959 . S
H1584 C1577 0.961 . S
H1585 C1577 0.960 . S
H1586 C1578 0.930 . S
H1587 C1579 0.929 . S
H1588 C1596 0.929 . S
H1589 C1598 0.930 . S
H1590 C1600 0.930 . S
H1591 C1603 0.929 . S
H1592 C1606 0.930 . S
H1593 C1608 0.960 . S
H1594 C1608 0.960 . S
H1595 C1608 0.960 . S
C1596 H1588 0.929 . S
C1596 C1597 1.377 . S
C1596 C1598 1.384 . S
C1597 C1596 1.377 . S
C1597 C1603 1.390 . S
C1598 H1589 0.930 . S
C1598 C1596 1.384 . S
C1598 C1599 1.372 . S
C1599 C1598 1.372 . S
C1599 C1600 1.400 . S
C1599 C1604 1.490 . S
C1600 H1590 0.930 . S
C1600 C1599 1.400 . S
C1600 C1603 1.386 . S
H1601 C1617 0.930 . S
H1602 C1618 0.931 . S
C1603 H1591 0.929 . S
C1603 C1597 1.390 . S
C1603 C1600 1.386 . S
C1604 C1599 1.490 . S
C1604 C1606 1.395 . S
C1604 C1607 1.403 . S
H1605 C1611 0.930 . S
C1606 H1592 0.930 . S
C1606 C1604 1.395 . S
C1606 C1609 1.403 . S
C1607 C1604 1.403 . S
C1607 C1608 1.524 . S
C1607 C1611 1.400 . S
C1608 H1593 0.960 . S
C1608 H1594 0.960 . S
C1608 H1595 0.960 . S
C1608 C1607 1.524 . S
C1609 C1606 1.403 . S
C1609 C1610 1.392 . S
C1609 C1613 1.495 . S
C1610 C1609 1.392 . S
C1610 C1611 1.385 . S
C1610 C1612 1.478 . S
C1611 H1605 0.930 . S
C1611 C1607 1.400 . S
C1611 C1610 1.385 . S
C1612 C1610 1.478 . S
C1612 C1614 1.381 . S
C1612 C1618 1.383 . S
C1613 C1609 1.495 . S
C1613 H1619 0.959 . S
C1613 H1620 0.961 . S
C1613 H1621 0.960 . S
C1614 C1612 1.381 . S
C1614 C1615 1.394 . S
C1614 H1622 0.930 . S
C1615 C1614 1.394 . S
C1615 C1616 1.383 . S
C1615 H1623 0.929 . S
C1616 C1615 1.383 . S
C1616 C1617 1.377 . S
C1617 H1601 0.930 . S
C1617 C1616 1.377 . S
C1617 C1618 1.379 . S
C1618 H1602 0.931 . S
C1618 C1612 1.383 . S
C1618 C1617 1.379 . S
H1619 C1613 0.959 . S
H1620 C1613 0.961 . S
H1621 C1613 0.960 . S
H1622 C1614 0.930 . S
H1623 C1615 0.929 . S
H1624 C1632 0.929 . S
H1625 C1634 0.930 . S
H1626 C1636 0.930 . S
H1627 C1639 0.929 . S
H1628 C1642 0.930 . S
H1629 C1644 0.960 . S
H1630 C1644 0.960 . S
H1631 C1644 0.960 . S
C1632 H1624 0.929 . S
C1632 C1633 1.377 . S
C1632 C1634 1.384 . S
C1633 C1632 1.377 . S
C1633 C1639 1.390 . S
C1634 H1625 0.930 . S
C1634 C1632 1.384 . S
C1634 C1635 1.372 . S
C1635 C1634 1.372 . S
C1635 C1636 1.400 . S
C1635 C1640 1.490 . S
C1636 H1626 0.930 . S
C1636 C1635 1.400 . S
C1636 C1639 1.386 . S
H1637 C1653 0.930 . S
H1638 C1654 0.931 . S
C1639 H1627 0.929 . S
C1639 C1633 1.390 . S
C1639 C1636 1.386 . S
C1640 C1635 1.490 . S
C1640 C1642 1.395 . S
C1640 C1643 1.403 . S
H1641 C1647 0.930 . S
C1642 H1628 0.930 . S
C1642 C1640 1.395 . S
C1642 C1645 1.403 . S
C1643 C1640 1.403 . S
C1643 C1644 1.524 . S
C1643 C1647 1.400 . S
C1644 H1629 0.960 . S
C1644 H1630 0.960 . S
C1644 H1631 0.960 . S
C1644 C1643 1.524 . S
C1645 C1642 1.403 . S
C1645 C1646 1.392 . S
C1645 C1649 1.495 . S
C1646 C1645 1.392 . S
C1646 C1647 1.385 . S
C1646 C1648 1.478 . S
C1647 H1641 0.930 . S
C1647 C1643 1.400 . S
C1647 C1646 1.385 . S
C1648 C1646 1.478 . S
C1648 C1650 1.381 . S
C1648 C1654 1.383 . S
C1649 C1645 1.495 . S
C1649 H1655 0.959 . S
C1649 H1656 0.961 . S
C1649 H1657 0.960 . S
C1650 C1648 1.381 . S
C1650 C1651 1.394 . S
C1650 H1658 0.930 . S
C1651 C1650 1.394 . S
C1651 C1652 1.383 . S
C1651 H1659 0.929 . S
C1652 C1651 1.383 . S
C1652 C1653 1.377 . S
C1653 H1637 0.930 . S
C1653 C1652 1.377 . S
C1653 C1654 1.379 . S
C1654 H1638 0.931 . S
C1654 C1648 1.383 . S
C1654 C1653 1.379 . S
H1655 C1649 0.959 . S
H1656 C1649 0.961 . S
H1657 C1649 0.960 . S
H1658 C1650 0.930 . S
H1659 C1651 0.929 . S
H1660 C1668 0.929 . S
H1661 C1670 0.930 . S
H1662 C1672 0.930 . S
H1663 C1675 0.929 . S
H1664 C1678 0.930 . S
H1665 C1680 0.960 . S
H1666 C1680 0.960 . S
H1667 C1680 0.960 . S
C1668 H1660 0.929 . S
C1668 C1669 1.377 . S
C1668 C1670 1.384 . S
C1669 C1668 1.377 . S
C1669 C1675 1.390 . S
C1670 H1661 0.930 . S
C1670 C1668 1.384 . S
C1670 C1671 1.372 . S
C1671 C1670 1.372 . S
C1671 C1672 1.400 . S
C1671 C1676 1.490 . S
C1672 H1662 0.930 . S
C1672 C1671 1.400 . S
C1672 C1675 1.386 . S
H1673 C1689 0.930 . S
H1674 C1690 0.931 . S
C1675 H1663 0.929 . S
C1675 C1669 1.390 . S
C1675 C1672 1.386 . S
C1676 C1671 1.490 . S
C1676 C1678 1.395 . S
C1676 C1679 1.403 . S
H1677 C1683 0.930 . S
C1678 H1664 0.930 . S
C1678 C1676 1.395 . S
C1678 C1681 1.403 1_556 S
C1679 C1676 1.403 . S
C1679 C1680 1.524 . S
C1679 C1683 1.400 . S
C1680 H1665 0.960 . S
C1680 H1666 0.960 . S
C1680 H1667 0.960 . S
C1680 C1679 1.524 . S
C1681 C1678 1.403 1_554 S
C1681 C1682 1.392 . S
C1681 C1685 1.495 . S
C1682 C1681 1.392 . S
C1682 C1683 1.385 1_554 S
C1682 C1684 1.478 . S
C1683 H1677 0.930 . S
C1683 C1679 1.400 . S
C1683 C1682 1.385 1_556 S
C1684 C1682 1.478 . S
C1684 C1686 1.381 . S
C1684 C1690 1.383 . S
C1685 C1681 1.495 . S
C1685 H1691 0.959 . S
C1685 H1692 0.961 . S
C1685 H1693 0.960 . S
C1686 C1684 1.381 . S
C1686 C1687 1.394 . S
C1686 H1694 0.930 . S
C1687 C1686 1.394 . S
C1687 C1688 1.383 . S
C1687 H1695 0.929 . S
C1688 C1687 1.383 . S
C1688 C1689 1.377 . S
C1689 H1673 0.930 . S
C1689 C1688 1.377 . S
C1689 C1690 1.379 . S
C1690 H1674 0.931 . S
C1690 C1684 1.383 . S
C1690 C1689 1.379 . S
H1691 C1685 0.959 . S
H1692 C1685 0.961 . S
H1693 C1685 0.960 . S
H1694 C1686 0.930 . S
H1695 C1687 0.929 . S
H1696 C1704 0.929 . S
H1697 C1706 0.930 . S
H1698 C1708 0.930 . S
H1699 C1711 0.929 . S
H1700 C1714 0.930 . S
H1701 C1716 0.960 . S
H1702 C1716 0.960 . S
H1703 C1716 0.960 . S
C1704 H1696 0.929 . S
C1704 C1705 1.377 . S
C1704 C1706 1.384 . S
C1705 C1704 1.377 . S
C1705 C1711 1.390 . S
C1706 H1697 0.930 . S
C1706 C1704 1.384 . S
C1706 C1707 1.372 . S
C1707 C1706 1.372 . S
C1707 C1708 1.400 . S
C1707 C1712 1.490 . S
C1708 H1698 0.930 . S
C1708 C1707 1.400 . S
C1708 C1711 1.386 . S
H1709 C1725 0.930 . S
H1710 C1726 0.931 . S
C1711 H1699 0.929 . S
C1711 C1705 1.390 . S
C1711 C1708 1.386 . S
C1712 C1707 1.490 . S
C1712 C1714 1.395 . S
C1712 C1715 1.403 . S
H1713 C1719 0.930 . S
C1714 H1700 0.930 . S
C1714 C1712 1.395 . S
C1714 C1717 1.403 . S
C1715 C1712 1.403 . S
C1715 C1716 1.524 . S
C1715 C1719 1.400 . S
C1716 H1701 0.960 . S
C1716 H1702 0.960 . S
C1716 H1703 0.960 . S
C1716 C1715 1.524 . S
C1717 C1714 1.403 . S
C1717 C1718 1.392 . S
C1717 C1721 1.495 . S
C1718 C1717 1.392 . S
C1718 C1719 1.385 . S
C1718 C1720 1.478 . S
C1719 H1713 0.930 . S
C1719 C1715 1.400 . S
C1719 C1718 1.385 . S
C1720 C1718 1.478 . S
C1720 C1722 1.381 . S
C1720 C1726 1.383 . S
C1721 C1717 1.495 . S
C1721 H1727 0.959 . S
C1721 H1728 0.961 . S
C1721 H1729 0.960 . S
C1722 C1720 1.381 . S
C1722 C1723 1.394 . S
C1722 H1730 0.930 . S
C1723 C1722 1.394 . S
C1723 C1724 1.383 . S
C1723 H1731 0.929 . S
C1724 C1723 1.383 . S
C1724 C1725 1.377 . S
C1725 H1709 0.930 . S
C1725 C1724 1.377 . S
C1725 C1726 1.379 . S
C1726 H1710 0.931 . S
C1726 C1720 1.383 . S
C1726 C1725 1.379 . S
H1727 C1721 0.959 . S
H1728 C1721 0.961 . S
H1729 C1721 0.960 . S
H1730 C1722 0.930 . S
H1731 C1723 0.929 . S
H1732 C1740 0.929 . S
H1733 C1742 0.930 . S
H1734 C1744 0.930 . S
H1735 C1747 0.929 . S
H1736 C1750 0.930 . S
H1737 C1752 0.960 . S
H1738 C1752 0.960 . S
H1739 C1752 0.960 . S
C1740 H1732 0.929 . S
C1740 C1741 1.377 . S
C1740 C1742 1.384 . S
C1741 C1740 1.377 . S
C1741 C1747 1.390 . S
C1742 H1733 0.930 . S
C1742 C1740 1.384 . S
C1742 C1743 1.372 . S
C1743 C1742 1.372 . S
C1743 C1744 1.400 . S
C1743 C1748 1.490 . S
C1744 H1734 0.930 . S
C1744 C1743 1.400 . S
C1744 C1747 1.386 . S
H1745 C1761 0.930 . S
H1746 C1762 0.931 . S
C1747 H1735 0.929 . S
C1747 C1741 1.390 . S
C1747 C1744 1.386 . S
C1748 C1743 1.490 . S
C1748 C1750 1.395 . S
C1748 C1751 1.403 . S
H1749 C1755 0.930 . S
C1750 H1736 0.930 . S
C1750 C1748 1.395 . S
C1750 C1753 1.403 . S
C1751 C1748 1.403 . S
C1751 C1752 1.524 . S
C1751 C1755 1.400 . S
C1752 H1737 0.960 . S
C1752 H1738 0.960 . S
C1752 H1739 0.960 . S
C1752 C1751 1.524 . S
C1753 C1750 1.403 . S
C1753 C1754 1.392 . S
C1753 C1757 1.495 . S
C1754 C1753 1.392 . S
C1754 C1755 1.385 . S
C1754 C1756 1.478 . S
C1755 H1749 0.930 . S
C1755 C1751 1.400 . S
C1755 C1754 1.385 . S
C1756 C1754 1.478 . S
C1756 C1758 1.381 . S
C1756 C1762 1.383 . S
C1757 C1753 1.495 . S
C1757 H1763 0.959 . S
C1757 H1764 0.961 . S
C1757 H1765 0.960 . S
C1758 C1756 1.381 . S
C1758 C1759 1.394 . S
C1758 H1766 0.930 . S
C1759 C1758 1.394 . S
C1759 C1760 1.383 . S
C1759 H1767 0.929 . S
C1760 C1759 1.383 . S
C1760 C1761 1.377 . S
C1761 H1745 0.930 . S
C1761 C1760 1.377 . S
C1761 C1762 1.379 . S
C1762 H1746 0.931 . S
C1762 C1756 1.383 . S
C1762 C1761 1.379 . S
H1763 C1757 0.959 . S
H1764 C1757 0.961 . S
H1765 C1757 0.960 . S
H1766 C1758 0.930 . S
H1767 C1759 0.929 . S
H1768 C1776 0.929 . S
H1769 C1778 0.930 . S
H1770 C1780 0.930 . S
H1771 C1783 0.929 . S
H1772 C1786 0.930 . S
H1773 C1788 0.960 . S
H1774 C1788 0.960 . S
H1775 C1788 0.960 . S
C1776 H1768 0.929 . S
C1776 C1777 1.377 . S
C1776 C1778 1.384 . S
C1777 C1776 1.377 . S
C1777 C1783 1.390 . S
C1778 H1769 0.930 . S
C1778 C1776 1.384 . S
C1778 C1779 1.372 . S
C1779 C1778 1.372 . S
C1779 C1780 1.400 . S
C1779 C1784 1.490 . S
C1780 H1770 0.930 . S
C1780 C1779 1.400 . S
C1780 C1783 1.386 . S
H1781 C1797 0.930 . S
H1782 C1798 0.931 . S
C1783 H1771 0.929 . S
C1783 C1777 1.390 . S
C1783 C1780 1.386 . S
C1784 C1779 1.490 . S
C1784 C1786 1.395 . S
C1784 C1787 1.403 . S
H1785 C1791 0.930 . S
C1786 H1772 0.930 . S
C1786 C1784 1.395 . S
C1786 C1789 1.403 . S
C1787 C1784 1.403 . S
C1787 C1788 1.524 . S
C1787 C1791 1.400 . S
C1788 H1773 0.960 . S
C1788 H1774 0.960 . S
C1788 H1775 0.960 . S
C1788 C1787 1.524 . S
C1789 C1786 1.403 . S
C1789 C1790 1.392 . S
C1789 C1793 1.495 . S
C1790 C1789 1.392 . S
C1790 C1791 1.385 . S
C1790 C1792 1.478 . S
C1791 H1785 0.930 . S
C1791 C1787 1.400 . S
C1791 C1790 1.385 . S
C1792 C1790 1.478 . S
C1792 C1794 1.381 . S
C1792 C1798 1.383 . S
C1793 C1789 1.495 . S
C1793 H1799 0.959 . S
C1793 H1800 0.961 . S
C1793 H1801 0.960 . S
C1794 C1792 1.381 . S
C1794 C1795 1.394 . S
C1794 H1802 0.930 . S
C1795 C1794 1.394 . S
C1795 C1796 1.383 . S
C1795 H1803 0.929 . S
C1796 C1795 1.383 . S
C1796 C1797 1.377 . S
C1797 H1781 0.930 . S
C1797 C1796 1.377 . S
C1797 C1798 1.379 . S
C1798 H1782 0.931 . S
C1798 C1792 1.383 . S
C1798 C1797 1.379 . S
H1799 C1793 0.959 . S
H1800 C1793 0.961 . S
H1801 C1793 0.960 . S
H1802 C1794 0.930 . S
H1803 C1795 0.929 . S
H1804 C1812 0.929 . S
H1805 C1814 0.930 . S
H1806 C1816 0.930 . S
H1807 C1819 0.909 1_455 S
H1808 C1822 0.930 . S
H1809 C1824 0.960 1_556 S
H1810 C1824 0.960 . S
H1811 C1824 0.960 . S
C1812 H1804 0.929 . S
C1812 C1813 1.377 . S
C1812 C1814 1.384 . S
C1813 C1812 1.377 . S
C1813 C1819 1.390 . S
C1814 H1805 0.930 . S
C1814 C1812 1.384 . S
C1814 C1815 1.372 . S
C1815 C1814 1.372 . S
C1815 C1816 1.400 . S
C1815 C1820 1.490 . S
C1816 H1806 0.930 . S
C1816 C1815 1.400 . S
C1816 C1819 1.386 . S
H1817 C1833 0.930 . S
H1818 C1834 0.931 . S
C1819 H1807 0.909 1_655 S
C1819 C1813 1.390 . S
C1819 C1816 1.386 . S
C1820 C1815 1.490 . S
C1820 C1822 1.395 . S
C1820 C1823 1.403 . S
H1821 C1827 0.930 . S
C1822 H1808 0.930 . S
C1822 C1820 1.395 . S
C1822 C1825 1.403 . S
C1823 C1820 1.403 . S
C1823 C1824 1.524 . S
C1823 C1827 1.400 1_554 S
C1824 H1809 0.960 1_554 S
C1824 H1810 0.960 . S
C1824 H1811 0.960 . S
C1824 C1823 1.524 . S
C1825 C1822 1.403 . S
C1825 C1826 1.392 1_554 S
C1825 C1829 1.495 . S
C1826 C1825 1.392 1_556 S
C1826 C1827 1.385 . S
C1826 C1828 1.478 . S
C1827 H1821 0.930 . S
C1827 C1823 1.400 1_556 S
C1827 C1826 1.385 . S
C1828 C1826 1.478 . S
C1828 C1830 1.381 . S
C1828 C1834 1.383 . S
C1829 C1825 1.495 . S
C1829 H1835 0.959 . S
C1829 H1836 0.961 . S
C1829 H1837 0.960 . S
C1830 C1828 1.381 . S
C1830 C1831 1.394 . S
C1830 H1838 0.930 . S
C1831 C1830 1.394 . S
C1831 C1832 1.383 . S
C1831 H1839 0.929 . S
C1832 C1831 1.383 . S
C1832 C1833 1.377 . S
C1833 H1817 0.930 . S
C1833 C1832 1.377 . S
C1833 C1834 1.379 . S
C1834 H1818 0.931 . S
C1834 C1828 1.383 . S
C1834 C1833 1.379 . S
H1835 C1829 0.959 . S
H1836 C1829 0.961 . S
H1837 C1829 0.960 . S
H1838 C1830 0.930 . S
H1839 C1831 0.929 . S
H1840 C1848 0.929 . S
H1841 C1850 0.930 . S
H1842 C1852 0.930 . S
H1843 C1855 0.929 . S
H1844 C1858 0.930 . S
H1845 C1860 0.960 . S
H1846 C1860 0.960 . S
H1847 C1860 0.960 . S
C1848 H1840 0.929 . S
C1848 C1849 1.377 . S
C1848 C1850 1.384 . S
C1849 C1848 1.377 . S
C1849 C1855 1.390 . S
C1850 H1841 0.930 . S
C1850 C1848 1.384 . S
C1850 C1851 1.372 . S
C1851 C1850 1.372 . S
C1851 C1852 1.400 . S
C1851 C1856 1.490 . S
C1852 H1842 0.930 . S
C1852 C1851 1.400 . S
C1852 C1855 1.386 . S
H1853 C1869 0.930 . S
H1854 C1870 0.931 . S
C1855 H1843 0.929 . S
C1855 C1849 1.390 . S
C1855 C1852 1.386 . S
C1856 C1851 1.490 . S
C1856 C1858 1.395 . S
C1856 C1859 1.403 . S
H1857 C1863 0.930 . S
C1858 H1844 0.930 . S
C1858 C1856 1.395 . S
C1858 C1861 1.403 . S
C1859 C1856 1.403 . S
C1859 C1860 1.524 . S
C1859 C1863 1.400 . S
C1860 H1845 0.960 . S
C1860 H1846 0.960 . S
C1860 H1847 0.960 . S
C1860 C1859 1.524 . S
C1861 C1858 1.403 . S
C1861 C1862 1.392 . S
C1861 C1865 1.495 . S
C1862 C1861 1.392 . S
C1862 C1863 1.385 . S
C1862 C1864 1.478 . S
C1863 H1857 0.930 . S
C1863 C1859 1.400 . S
C1863 C1862 1.385 . S
C1864 C1862 1.478 . S
C1864 C1866 1.381 . S
C1864 C1870 1.383 . S
C1865 C1861 1.495 . S
C1865 H1871 0.959 . S
C1865 H1872 0.961 . S
C1865 H1873 0.960 . S
C1866 C1864 1.381 . S
C1866 C1867 1.394 . S
C1866 H1874 0.930 . S
C1867 C1866 1.394 . S
C1867 C1868 1.383 . S
C1867 H1875 0.929 . S
C1868 C1867 1.383 . S
C1868 C1869 1.377 . S
C1869 H1853 0.930 . S
C1869 C1868 1.377 . S
C1869 C1870 1.379 . S
C1870 H1854 0.931 . S
C1870 C1864 1.383 . S
C1870 C1869 1.379 . S
H1871 C1865 0.959 . S
H1872 C1865 0.961 . S
H1873 C1865 0.960 . S
H1874 C1866 0.930 . S
H1875 C1867 0.929 . S
H1876 C1884 0.929 . S
H1877 C1886 0.930 . S
H1878 C1888 0.930 . S
H1879 C1891 0.929 . S
H1880 C1894 0.930 . S
H1881 C1896 0.960 1_545 S
H1882 C1896 0.960 . S
H1883 C1896 0.960 . S
C1884 H1876 0.929 . S
C1884 C1885 1.377 . S
C1884 C1886 1.384 . S
C1885 C1884 1.377 . S
C1885 C1891 1.390 . S
C1886 H1877 0.930 . S
C1886 C1884 1.384 . S
C1886 C1887 1.372 . S
C1887 C1886 1.372 . S
C1887 C1888 1.400 . S
C1887 C1892 1.490 . S
C1888 H1878 0.930 . S
C1888 C1887 1.400 . S
C1888 C1891 1.386 . S
H1889 C1905 0.930 . S
H1890 C1906 0.931 . S
C1891 H1879 0.929 . S
C1891 C1885 1.390 . S
C1891 C1888 1.386 . S
C1892 C1887 1.490 . S
C1892 C1894 1.395 . S
C1892 C1895 1.403 . S
H1893 C1899 0.930 . S
C1894 H1880 0.930 . S
C1894 C1892 1.395 . S
C1894 C1897 1.403 . S
C1895 C1892 1.403 . S
C1895 C1896 1.524 . S
C1895 C1899 1.400 1_565 S
C1896 H1881 0.960 1_565 S
C1896 H1882 0.960 . S
C1896 H1883 0.960 . S
C1896 C1895 1.524 . S
C1897 C1894 1.403 . S
C1897 C1898 1.392 1_565 S
C1897 C1901 1.495 . S
C1898 C1897 1.392 1_545 S
C1898 C1899 1.385 . S
C1898 C1900 1.478 . S
C1899 H1893 0.930 . S
C1899 C1895 1.400 1_545 S
C1899 C1898 1.385 . S
C1900 C1898 1.478 . S
C1900 C1902 1.381 . S
C1900 C1906 1.383 . S
C1901 C1897 1.495 . S
C1901 H1907 0.959 . S
C1901 H1908 0.961 . S
C1901 H1909 0.960 . S
C1902 C1900 1.381 . S
C1902 C1903 1.394 . S
C1902 H1910 0.930 . S
C1903 C1902 1.394 . S
C1903 C1904 1.383 . S
C1903 H1911 0.929 . S
C1904 C1903 1.383 . S
C1904 C1905 1.377 . S
C1905 H1889 0.930 . S
C1905 C1904 1.377 . S
C1905 C1906 1.379 . S
C1906 H1890 0.931 . S
C1906 C1900 1.383 . S
C1906 C1905 1.379 . S
H1907 C1901 0.959 . S
H1908 C1901 0.961 . S
H1909 C1901 0.960 . S
H1910 C1902 0.930 . S
H1911 C1903 0.929 . S
H1912 C1920 0.929 . S
H1913 C1922 0.930 . S
H1914 C1924 0.930 . S
H1915 C1927 0.929 . S
H1916 C1930 0.930 . S
H1917 C1932 0.960 . S
H1918 C1932 0.960 . S
H1919 C1932 0.960 . S
C1920 H1912 0.929 . S
C1920 C1921 1.377 . S
C1920 C1922 1.384 . S
C1921 C1920 1.377 . S
C1921 C1927 1.390 . S
C1922 H1913 0.930 . S
C1922 C1920 1.384 . S
C1922 C1923 1.372 . S
C1923 C1922 1.372 . S
C1923 C1924 1.400 . S
C1923 C1928 1.490 . S
C1924 H1914 0.930 . S
C1924 C1923 1.400 . S
C1924 C1927 1.386 . S
H1925 C1941 0.930 . S
H1926 C1942 0.931 . S
C1927 H1915 0.929 . S
C1927 C1921 1.390 . S
C1927 C1924 1.386 . S
C1928 C1923 1.490 . S
C1928 C1930 1.395 . S
C1928 C1931 1.403 . S
H1929 C1935 0.930 . S
C1930 H1916 0.930 . S
C1930 C1928 1.395 . S
C1930 C1933 1.403 . S
C1931 C1928 1.403 . S
C1931 C1932 1.524 . S
C1931 C1935 1.400 . S
C1932 H1917 0.960 . S
C1932 H1918 0.960 . S
C1932 H1919 0.960 . S
C1932 C1931 1.524 . S
C1933 C1930 1.403 . S
C1933 C1934 1.392 . S
C1933 C1937 1.495 . S
C1934 C1933 1.392 . S
C1934 C1935 1.385 . S
C1934 C1936 1.478 . S
C1935 H1929 0.930 . S
C1935 C1931 1.400 . S
C1935 C1934 1.385 . S
C1936 C1934 1.478 . S
C1936 C1938 1.381 . S
C1936 C1942 1.383 . S
C1937 C1933 1.495 . S
C1937 H1943 0.959 . S
C1937 H1944 0.961 . S
C1937 H1945 0.960 . S
C1938 C1936 1.381 . S
C1938 C1939 1.394 . S
C1938 H1946 0.930 . S
C1939 C1938 1.394 . S
C1939 C1940 1.383 . S
C1939 H1947 0.929 . S
C1940 C1939 1.383 . S
C1940 C1941 1.377 . S
C1941 H1925 0.930 . S
C1941 C1940 1.377 . S
C1941 C1942 1.379 . S
C1942 H1926 0.931 . S
C1942 C1936 1.383 . S
C1942 C1941 1.379 . S
H1943 C1937 0.959 . S
H1944 C1937 0.961 . S
H1945 C1937 0.960 . S
H1946 C1938 0.930 . S
H1947 C1939 0.929 . S
H1948 C1956 0.935 . S
H1949 C1958 0.930 . S
H1950 C1960 0.930 . S
H1951 C1963 0.929 . S
H1952 C1966 0.930 . S
H1953 C1968 0.960 . S
H1954 C1968 0.960 . S
H1955 C1968 0.960 . S
C1956 H1948 0.935 . S
C1956 C1957 1.377 . S
C1956 C1958 1.384 . S
C1957 C1956 1.377 . S
C1957 C1963 1.390 . S
C1958 H1949 0.930 . S
C1958 C1956 1.384 . S
C1958 C1959 1.372 . S
C1959 C1958 1.372 . S
C1959 C1960 1.400 . S
C1959 C1964 1.490 . S
C1960 H1950 0.930 . S
C1960 C1959 1.400 . S
C1960 C1963 1.386 . S
H1961 C1977 0.930 . S
H1962 C1978 0.931 . S
C1963 H1951 0.929 . S
C1963 C1957 1.390 . S
C1963 C1960 1.386 . S
C1964 C1959 1.490 . S
C1964 C1966 1.395 . S
C1964 C1967 1.403 . S
H1965 C1971 0.930 . S
C1966 H1952 0.930 . S
C1966 C1964 1.395 . S
C1966 C1969 1.403 1_545 S
C1967 C1964 1.403 . S
C1967 C1968 1.524 . S
C1967 C1971 1.400 . S
C1968 H1953 0.960 . S
C1968 H1954 0.960 . S
C1968 H1955 0.960 . S
C1968 C1967 1.524 . S
C1969 C1966 1.403 1_565 S
C1969 C1970 1.392 . S
C1969 C1973 1.495 . S
C1970 C1969 1.392 . S
C1970 C1971 1.385 1_565 S
C1970 C1972 1.478 . S
C1971 H1965 0.930 . S
C1971 C1967 1.400 . S
C1971 C1970 1.385 1_545 S
C1972 C1970 1.478 . S
C1972 C1974 1.381 . S
C1972 C1978 1.383 . S
C1973 C1969 1.495 . S
C1973 H1979 0.959 . S
C1973 H1980 0.961 . S
C1973 H1981 0.960 . S
C1974 C1972 1.381 . S
C1974 C1975 1.394 . S
C1974 H1982 0.930 . S
C1975 C1974 1.394 . S
C1975 C1976 1.383 . S
C1975 H1983 0.929 . S
C1976 C1975 1.383 . S
C1976 C1977 1.377 . S
C1977 H1961 0.930 . S
C1977 C1976 1.377 . S
C1977 C1978 1.379 . S
C1978 H1962 0.931 . S
C1978 C1972 1.383 . S
C1978 C1977 1.379 . S
H1979 C1973 0.959 . S
H1980 C1973 0.961 . S
H1981 C1973 0.960 . S
H1982 C1974 0.930 . S
H1983 C1975 0.929 . S
H1984 C1992 0.929 . S
H1985 C1994 0.930 . S
H1986 C1996 0.930 . S
H1987 C1999 0.929 . S
H1988 C2002 0.930 . S
H1989 C2004 0.960 . S
H1990 C2004 0.960 . S
H1991 C2004 0.960 . S
C1992 H1984 0.929 . S
C1992 C1993 1.377 . S
C1992 C1994 1.384 . S
C1993 C1992 1.377 . S
C1993 C1999 1.390 . S
C1994 H1985 0.930 . S
C1994 C1992 1.384 . S
C1994 C1995 1.372 . S
C1995 C1994 1.372 . S
C1995 C1996 1.400 . S
C1995 C2000 1.490 . S
C1996 H1986 0.930 . S
C1996 C1995 1.400 . S
C1996 C1999 1.386 . S
H1997 C2013 0.930 . S
H1998 C2014 0.931 . S
C1999 H1987 0.929 . S
C1999 C1993 1.390 . S
C1999 C1996 1.386 . S
C2000 C1995 1.490 . S
C2000 C2002 1.395 . S
C2000 C2003 1.403 . S
H2001 C2007 0.930 . S
C2002 H1988 0.930 . S
C2002 C2000 1.395 . S
C2002 C2005 1.403 . S
C2003 C2000 1.403 . S
C2003 C2004 1.524 . S
C2003 C2007 1.400 . S
C2004 H1989 0.960 . S
C2004 H1990 0.960 . S
C2004 H1991 0.960 . S
C2004 C2003 1.524 . S
C2005 C2002 1.403 . S
C2005 C2006 1.392 . S
C2005 C2009 1.495 . S
C2006 C2005 1.392 . S
C2006 C2007 1.385 . S
C2006 C2008 1.478 . S
C2007 H2001 0.930 . S
C2007 C2003 1.400 . S
C2007 C2006 1.385 . S
C2008 C2006 1.478 . S
C2008 C2010 1.381 . S
C2008 C2014 1.383 . S
C2009 C2005 1.495 . S
C2009 H2015 0.959 . S
C2009 H2016 0.961 . S
C2009 H2017 0.960 . S
C2010 C2008 1.381 . S
C2010 C2011 1.394 . S
C2010 H2018 0.930 . S
C2011 C2010 1.394 . S
C2011 C2012 1.383 . S
C2011 H2019 0.929 . S
C2012 C2011 1.383 . S
C2012 C2013 1.377 . S
C2013 H1997 0.930 . S
C2013 C2012 1.377 . S
C2013 C2014 1.379 . S
C2014 H1998 0.931 . S
C2014 C2008 1.383 . S
C2014 C2013 1.379 . S
H2015 C2009 0.959 . S
H2016 C2009 0.961 . S
H2017 C2009 0.960 . S
H2018 C2010 0.930 . S
H2019 C2011 0.929 . S
H2020 C2028 0.929 . S
H2021 C2030 0.930 . S
H2022 C2032 0.930 . S
H2023 C2035 0.929 . S
H2024 C2038 0.930 . S
H2025 C2040 0.960 . S
H2026 C2040 0.960 . S
H2027 C2040 0.960 . S
C2028 H2020 0.929 . S
C2028 C2029 1.377 . S
C2028 C2030 1.384 . S
C2029 C2028 1.377 . S
C2029 C2035 1.390 . S
C2030 H2021 0.930 . S
C2030 C2028 1.384 . S
C2030 C2031 1.372 . S
C2031 C2030 1.372 . S
C2031 C2032 1.400 . S
C2031 C2036 1.490 . S
C2032 H2022 0.930 . S
C2032 C2031 1.400 . S
C2032 C2035 1.386 . S
H2033 C2049 0.930 . S
H2034 C2050 0.931 . S
C2035 H2023 0.929 . S
C2035 C2029 1.390 . S
C2035 C2032 1.386 . S
C2036 C2031 1.490 . S
C2036 C2038 1.395 . S
C2036 C2039 1.403 . S
H2037 C2043 0.930 . S
C2038 H2024 0.930 . S
C2038 C2036 1.395 . S
C2038 C2041 1.403 1_565 S
C2039 C2036 1.403 . S
C2039 C2040 1.524 . S
C2039 C2043 1.400 . S
C2040 H2025 0.960 . S
C2040 H2026 0.960 . S
C2040 H2027 0.960 . S
C2040 C2039 1.524 . S
C2041 C2038 1.403 1_545 S
C2041 C2042 1.392 . S
C2041 C2045 1.495 . S
C2042 C2041 1.392 . S
C2042 C2043 1.385 1_545 S
C2042 C2044 1.478 . S
C2043 H2037 0.930 . S
C2043 C2039 1.400 . S
C2043 C2042 1.385 1_565 S
C2044 C2042 1.478 . S
C2044 C2046 1.381 . S
C2044 C2050 1.383 . S
C2045 C2041 1.495 . S
C2045 H2051 0.959 . S
C2045 H2052 0.961 . S
C2045 H2053 0.960 . S
C2046 C2044 1.381 . S
C2046 C2047 1.394 . S
C2046 H2054 0.930 . S
C2047 C2046 1.394 . S
C2047 C2048 1.383 . S
C2047 H2055 0.929 . S
C2048 C2047 1.383 . S
C2048 C2049 1.377 . S
C2049 H2033 0.930 . S
C2049 C2048 1.377 . S
C2049 C2050 1.379 . S
C2050 H2034 0.931 . S
C2050 C2044 1.383 . S
C2050 C2049 1.379 . S
H2051 C2045 0.959 . S
H2052 C2045 0.961 . S
H2053 C2045 0.960 . S
H2054 C2046 0.930 . S
H2055 C2047 0.929 . S
H2056 C2064 0.929 . S
H2057 C2066 0.930 . S
H2058 C2068 0.930 . S
H2059 C2071 0.929 . S
H2060 C2074 0.930 . S
H2061 C2076 0.960 . S
H2062 C2076 0.960 . S
H2063 C2076 0.960 . S
C2064 H2056 0.929 . S
C2064 C2065 1.377 . S
C2064 C2066 1.384 . S
C2065 C2064 1.377 . S
C2065 C2071 1.390 . S
C2066 H2057 0.930 . S
C2066 C2064 1.384 . S
C2066 C2067 1.372 . S
C2067 C2066 1.372 . S
C2067 C2068 1.400 . S
C2067 C2072 1.490 . S
C2068 H2058 0.930 . S
C2068 C2067 1.400 . S
C2068 C2071 1.386 . S
H2069 C2085 0.930 . S
H2070 C2086 0.931 . S
C2071 H2059 0.929 . S
C2071 C2065 1.390 . S
C2071 C2068 1.386 . S
C2072 C2067 1.490 . S
C2072 C2074 1.395 . S
C2072 C2075 1.403 . S
H2073 C2079 0.930 . S
C2074 H2060 0.930 . S
C2074 C2072 1.395 . S
C2074 C2077 1.403 . S
C2075 C2072 1.403 . S
C2075 C2076 1.524 . S
C2075 C2079 1.400 . S
C2076 H2061 0.960 . S
C2076 H2062 0.960 . S
C2076 H2063 0.960 . S
C2076 C2075 1.524 . S
C2077 C2074 1.403 . S
C2077 C2078 1.392 . S
C2077 C2081 1.495 . S
C2078 C2077 1.392 . S
C2078 C2079 1.385 . S
C2078 C2080 1.478 . S
C2079 H2073 0.930 . S
C2079 C2075 1.400 . S
C2079 C2078 1.385 . S
C2080 C2078 1.478 . S
C2080 C2082 1.381 . S
C2080 C2086 1.383 . S
C2081 C2077 1.495 . S
C2081 H2087 0.959 . S
C2081 H2088 0.961 . S
C2081 H2089 0.960 . S
C2082 C2080 1.381 . S
C2082 C2083 1.394 . S
C2082 H2090 0.930 . S
C2083 C2082 1.394 . S
C2083 C2084 1.383 . S
C2083 H2091 0.929 . S
C2084 C2083 1.383 . S
C2084 C2085 1.377 . S
C2085 H2069 0.930 . S
C2085 C2084 1.377 . S
C2085 C2086 1.379 . S
C2086 H2070 0.931 . S
C2086 C2080 1.383 . S
C2086 C2085 1.379 . S
H2087 C2081 0.959 . S
H2088 C2081 0.961 . S
H2089 C2081 0.960 . S
H2090 C2082 0.930 . S
H2091 C2083 0.929 . S
H2092 C2100 0.929 . S
H2093 C2102 0.930 . S
H2094 C2104 0.930 . S
H2095 C2107 0.929 . S
H2096 C2110 0.930 . S
H2097 C2112 0.960 . S
H2098 C2112 0.960 . S
H2099 C2112 0.960 . S
C2100 H2092 0.929 . S
C2100 C2101 1.377 . S
C2100 C2102 1.384 . S
C2101 C2100 1.377 . S
C2101 C2107 1.390 . S
C2102 H2093 0.930 . S
C2102 C2100 1.384 . S
C2102 C2103 1.372 . S
C2103 C2102 1.372 . S
C2103 C2104 1.400 . S
C2103 C2108 1.490 . S
C2104 H2094 0.930 . S
C2104 C2103 1.400 . S
C2104 C2107 1.386 . S
H2105 C2121 0.930 . S
H2106 C2122 0.931 . S
C2107 H2095 0.929 . S
C2107 C2101 1.390 . S
C2107 C2104 1.386 . S
C2108 C2103 1.490 . S
C2108 C2110 1.395 . S
C2108 C2111 1.403 . S
H2109 C2115 0.942 . S
C2110 H2096 0.930 . S
C2110 C2108 1.395 . S
C2110 C2113 1.403 1_545 S
C2111 C2108 1.403 . S
C2111 C2112 1.524 . S
C2111 C2115 1.400 . S
C2112 H2097 0.960 . S
C2112 H2098 0.960 . S
C2112 H2099 0.960 . S
C2112 C2111 1.524 . S
C2113 C2110 1.403 1_565 S
C2113 C2114 1.392 . S
C2113 C2117 1.495 . S
C2114 C2113 1.392 . S
C2114 C2115 1.385 1_565 S
C2114 C2116 1.478 . S
C2115 H2109 0.942 . S
C2115 C2111 1.400 . S
C2115 C2114 1.385 1_545 S
C2116 C2114 1.478 . S
C2116 C2118 1.381 . S
C2116 C2122 1.383 . S
C2117 C2113 1.495 . S
C2117 H2123 0.959 . S
C2117 H2124 0.961 . S
C2117 H2125 0.960 . S
C2118 C2116 1.381 . S
C2118 C2119 1.394 . S
C2118 H2126 0.930 . S
C2119 C2118 1.394 . S
C2119 C2120 1.383 . S
C2119 H2127 0.929 . S
C2120 C2119 1.383 . S
C2120 C2121 1.377 . S
C2121 H2105 0.930 . S
C2121 C2120 1.377 . S
C2121 C2122 1.379 . S
C2122 H2106 0.931 . S
C2122 C2116 1.383 . S
C2122 C2121 1.379 . S
H2123 C2117 0.959 . S
H2124 C2117 0.961 . S
H2125 C2117 0.960 . S
H2126 C2118 0.930 . S
H2127 C2119 0.929 . S
H2128 C2136 0.929 . S
H2129 C2138 0.930 . S
H2130 C2140 0.930 . S
H2131 C2143 0.929 . S
H2132 C2146 0.930 . S
H2133 C2148 0.960 . S
H2134 C2148 0.960 . S
H2135 C2148 0.960 . S
C2136 H2128 0.929 . S
C2136 C2137 1.377 . S
C2136 C2138 1.384 . S
C2137 C2136 1.377 . S
C2137 C2143 1.390 . S
C2138 H2129 0.930 . S
C2138 C2136 1.384 . S
C2138 C2139 1.372 . S
C2139 C2138 1.372 . S
C2139 C2140 1.400 . S
C2139 C2144 1.490 . S
C2140 H2130 0.930 . S
C2140 C2139 1.400 . S
C2140 C2143 1.386 . S
H2141 C2157 0.930 . S
H2142 C2158 0.931 . S
C2143 H2131 0.929 . S
C2143 C2137 1.390 . S
C2143 C2140 1.386 . S
C2144 C2139 1.490 . S
C2144 C2146 1.395 . S
C2144 C2147 1.403 . S
H2145 C2151 0.930 . S
C2146 H2132 0.930 . S
C2146 C2144 1.395 . S
C2146 C2149 1.403 . S
C2147 C2144 1.403 . S
C2147 C2148 1.524 . S
C2147 C2151 1.400 . S
C2148 H2133 0.960 . S
C2148 H2134 0.960 . S
C2148 H2135 0.960 . S
C2148 C2147 1.524 . S
C2149 C2146 1.403 . S
C2149 C2150 1.392 . S
C2149 C2153 1.495 . S
C2150 C2149 1.392 . S
C2150 C2151 1.385 . S
C2150 C2152 1.478 . S
C2151 H2145 0.930 . S
C2151 C2147 1.400 . S
C2151 C2150 1.385 . S
C2152 C2150 1.478 . S
C2152 C2154 1.381 . S
C2152 C2158 1.383 . S
C2153 C2149 1.495 . S
C2153 H2159 0.959 . S
C2153 H2160 0.961 . S
C2153 H2161 0.960 . S
C2154 C2152 1.381 . S
C2154 C2155 1.394 . S
C2154 H2162 0.930 . S
C2155 C2154 1.394 . S
C2155 C2156 1.383 . S
C2155 H2163 0.929 . S
C2156 C2155 1.383 . S
C2156 C2157 1.377 . S
C2157 H2141 0.930 . S
C2157 C2156 1.377 . S
C2157 C2158 1.379 . S
C2158 H2142 0.931 . S
C2158 C2152 1.383 . S
C2158 C2157 1.379 . S
H2159 C2153 0.959 . S
H2160 C2153 0.961 . S
H2161 C2153 0.960 . S
H2162 C2154 0.930 . S
H2163 C2155 0.929 . S
H2164 C2172 0.929 . S
H2165 C2174 0.930 . S
H2166 C2176 0.930 . S
H2167 C2179 0.929 . S
H2168 C2182 0.930 . S
H2169 C2184 0.960 . S
H2170 C2184 0.960 . S
H2171 C2184 0.960 . S
C2172 H2164 0.929 . S
C2172 C2173 1.377 . S
C2172 C2174 1.384 . S
C2173 C2172 1.377 . S
C2173 C2179 1.390 . S
C2174 H2165 0.930 . S
C2174 C2172 1.384 . S
C2174 C2175 1.372 . S
C2175 C2174 1.372 . S
C2175 C2176 1.400 . S
C2175 C2180 1.490 . S
C2176 H2166 0.930 . S
C2176 C2175 1.400 . S
C2176 C2179 1.386 . S
H2177 C2193 0.930 . S
H2178 C2194 0.931 . S
C2179 H2167 0.929 . S
C2179 C2173 1.390 . S
C2179 C2176 1.386 . S
C2180 C2175 1.490 . S
C2180 C2182 1.395 . S
C2180 C2183 1.403 . S
H2181 C2187 0.930 . S
C2182 H2168 0.930 . S
C2182 C2180 1.395 . S
C2182 C2185 1.403 . S
C2183 C2180 1.403 . S
C2183 C2184 1.524 . S
C2183 C2187 1.400 . S
C2184 H2169 0.960 . S
C2184 H2170 0.960 . S
C2184 H2171 0.960 . S
C2184 C2183 1.524 . S
C2185 C2182 1.403 . S
C2185 C2186 1.392 . S
C2185 C2189 1.495 . S
C2186 C2185 1.392 . S
C2186 C2187 1.385 . S
C2186 C2188 1.478 . S
C2187 H2181 0.930 . S
C2187 C2183 1.400 . S
C2187 C2186 1.385 . S
C2188 C2186 1.478 . S
C2188 C2190 1.381 . S
C2188 C2194 1.383 . S
C2189 C2185 1.495 . S
C2189 H2195 0.959 . S
C2189 H2196 0.961 . S
C2189 H2197 0.960 . S
C2190 C2188 1.381 . S
C2190 C2191 1.394 . S
C2190 H2198 0.930 . S
C2191 C2190 1.394 . S
C2191 C2192 1.383 . S
C2191 H2199 0.929 . S
C2192 C2191 1.383 . S
C2192 C2193 1.377 . S
C2193 H2177 0.930 . S
C2193 C2192 1.377 . S
C2193 C2194 1.379 . S
C2194 H2178 0.931 . S
C2194 C2188 1.383 . S
C2194 C2193 1.379 . S
H2195 C2189 0.959 . S
H2196 C2189 0.961 . S
H2197 C2189 0.960 . S
H2198 C2190 0.930 . S
H2199 C2191 0.929 . S
H2200 C2208 0.929 . S
H2201 C2210 0.930 . S
H2202 C2212 0.930 . S
H2203 C2215 0.929 . S
H2204 C2218 0.930 . S
H2205 C2220 0.960 . S
H2206 C2220 0.960 . S
H2207 C2220 0.960 . S
C2208 H2200 0.929 . S
C2208 C2209 1.377 . S
C2208 C2210 1.384 . S
C2209 C2208 1.377 . S
C2209 C2215 1.390 . S
C2210 H2201 0.930 . S
C2210 C2208 1.384 . S
C2210 C2211 1.372 . S
C2211 C2210 1.372 . S
C2211 C2212 1.400 . S
C2211 C2216 1.490 . S
C2212 H2202 0.930 . S
C2212 C2211 1.400 . S
C2212 C2215 1.386 . S
H2213 C2229 0.930 . S
H2214 C2230 0.931 . S
C2215 H2203 0.929 . S
C2215 C2209 1.390 . S
C2215 C2212 1.386 . S
C2216 C2211 1.490 . S
C2216 C2218 1.395 . S
C2216 C2219 1.403 . S
H2217 C2223 0.930 . S
C2218 H2204 0.930 . S
C2218 C2216 1.395 . S
C2218 C2221 1.403 . S
C2219 C2216 1.403 . S
C2219 C2220 1.524 . S
C2219 C2223 1.400 1_655 S
C2220 H2205 0.960 . S
C2220 H2206 0.960 . S
C2220 H2207 0.960 . S
C2220 C2219 1.524 . S
C2221 C2218 1.403 . S
C2221 C2222 1.392 1_655 S
C2221 C2225 1.495 . S
C2222 C2221 1.392 1_455 S
C2222 C2223 1.385 . S
C2222 C2224 1.478 . S
C2223 H2217 0.930 . S
C2223 C2219 1.400 1_455 S
C2223 C2222 1.385 . S
C2224 C2222 1.478 . S
C2224 C2226 1.381 . S
C2224 C2230 1.383 . S
C2225 C2221 1.495 . S
C2225 H2231 0.959 . S
C2225 H2232 0.961 . S
C2225 H2233 0.952 1_655 S
C2226 C2224 1.381 . S
C2226 C2227 1.394 . S
C2226 H2234 0.930 . S
C2227 C2226 1.394 . S
C2227 C2228 1.383 . S
C2227 H2235 0.929 . S
C2228 C2227 1.383 . S
C2228 C2229 1.377 . S
C2229 H2213 0.930 . S
C2229 C2228 1.377 . S
C2229 C2230 1.379 . S
C2230 H2214 0.931 . S
C2230 C2224 1.383 . S
C2230 C2229 1.379 . S
H2231 C2225 0.959 . S
H2232 C2225 0.961 . S
H2233 C2225 0.952 1_455 S
H2234 C2226 0.930 . S
H2235 C2227 0.929 . S
H2236 C2244 0.929 . S
H2237 C2246 0.930 . S
H2238 C2248 0.930 . S
H2239 C2251 0.929 . S
H2240 C2254 0.930 . S
H2241 C2256 0.960 . S
H2242 C2256 0.960 . S
H2243 C2256 0.960 . S
C2244 H2236 0.929 . S
C2244 C2245 1.377 . S
C2244 C2246 1.384 . S
C2245 C2244 1.377 . S
C2245 C2251 1.390 . S
C2246 H2237 0.930 . S
C2246 C2244 1.384 . S
C2246 C2247 1.372 . S
C2247 C2246 1.372 . S
C2247 C2248 1.400 . S
C2247 C2252 1.490 . S
C2248 H2238 0.930 . S
C2248 C2247 1.400 . S
C2248 C2251 1.386 . S
H2249 C2265 0.930 . S
H2250 C2266 0.931 . S
C2251 H2239 0.929 . S
C2251 C2245 1.390 . S
C2251 C2248 1.386 . S
C2252 C2247 1.490 . S
C2252 C2254 1.395 . S
C2252 C2255 1.403 . S
H2253 C2259 0.930 . S
C2254 H2240 0.930 . S
C2254 C2252 1.395 . S
C2254 C2257 1.403 . S
C2255 C2252 1.403 . S
C2255 C2256 1.524 . S
C2255 C2259 1.400 . S
C2256 H2241 0.960 . S
C2256 H2242 0.960 . S
C2256 H2243 0.960 . S
C2256 C2255 1.524 . S
C2257 C2254 1.403 . S
C2257 C2258 1.392 . S
C2257 C2261 1.495 . S
C2258 C2257 1.392 . S
C2258 C2259 1.385 . S
C2258 C2260 1.478 . S
C2259 H2253 0.930 . S
C2259 C2255 1.400 . S
C2259 C2258 1.385 . S
C2260 C2258 1.478 . S
C2260 C2262 1.381 . S
C2260 C2266 1.383 . S
C2261 C2257 1.495 . S
C2261 H2267 0.959 . S
C2261 H2268 0.961 . S
C2261 H2269 0.960 . S
C2262 C2260 1.381 . S
C2262 C2263 1.394 . S
C2262 H2270 0.930 . S
C2263 C2262 1.394 . S
C2263 C2264 1.383 . S
C2263 H2271 0.929 . S
C2264 C2263 1.383 . S
C2264 C2265 1.377 . S
C2265 H2249 0.930 . S
C2265 C2264 1.377 . S
C2265 C2266 1.379 . S
C2266 H2250 0.931 . S
C2266 C2260 1.383 . S
C2266 C2265 1.379 . S
H2267 C2261 0.959 . S
H2268 C2261 0.961 . S
H2269 C2261 0.960 . S
H2270 C2262 0.930 . S
H2271 C2263 0.929 . S
H2272 C2280 0.929 . S
H2273 C2282 0.930 . S
H2274 C2284 0.930 . S
H2275 C2287 0.929 . S
H2276 C2290 0.930 . S
H2277 C2292 0.960 . S
H2278 C2292 0.960 . S
H2279 C2292 0.960 . S
C2280 H2272 0.929 . S
C2280 C2281 1.377 . S
C2280 C2282 1.384 . S
C2281 C2280 1.377 . S
C2281 C2287 1.390 . S
C2282 H2273 0.930 . S
C2282 C2280 1.384 . S
C2282 C2283 1.372 . S
C2283 C2282 1.372 . S
C2283 C2284 1.400 . S
C2283 C2288 1.490 . S
C2284 H2274 0.930 . S
C2284 C2283 1.400 . S
C2284 C2287 1.386 . S
H2285 C2301 0.930 . S
H2286 C2302 0.931 . S
C2287 H2275 0.929 . S
C2287 C2281 1.390 . S
C2287 C2284 1.386 . S
C2288 C2283 1.490 . S
C2288 C2290 1.395 . S
C2288 C2291 1.403 . S
H2289 C2295 0.930 . S
C2290 H2276 0.930 . S
C2290 C2288 1.395 . S
C2290 C2293 1.403 . S
C2291 C2288 1.403 . S
C2291 C2292 1.524 . S
C2291 C2295 1.400 1_455 S
C2292 H2277 0.960 . S
C2292 H2278 0.960 . S
C2292 H2279 0.960 . S
C2292 C2291 1.524 . S
C2293 C2290 1.403 . S
C2293 C2294 1.392 1_455 S
C2293 C2297 1.495 . S
C2294 C2293 1.392 1_655 S
C2294 C2295 1.385 . S
C2294 C2296 1.478 . S
C2295 H2289 0.930 . S
C2295 C2291 1.400 1_655 S
C2295 C2294 1.385 . S
C2296 C2294 1.478 . S
C2296 C2298 1.381 . S
C2296 C2302 1.383 . S
C2297 C2293 1.495 . S
C2297 H2303 0.959 . S
C2297 H2304 0.961 1_455 S
C2297 H2305 0.960 . S
C2298 C2296 1.381 . S
C2298 C2299 1.394 . S
C2298 H2306 0.930 . S
C2299 C2298 1.394 . S
C2299 C2300 1.383 . S
C2299 H2307 0.929 . S
C2300 C2299 1.383 . S
C2300 C2301 1.377 . S
C2301 H2285 0.930 . S
C2301 C2300 1.377 . S
C2301 C2302 1.379 . S
C2302 H2286 0.931 . S
C2302 C2296 1.383 . S
C2302 C2301 1.379 . S
H2303 C2297 0.959 . S
H2304 C2297 0.961 1_655 S
H2305 C2297 0.960 . S
H2306 C2298 0.930 . S
H2307 C2299 0.929 . S
H2308 C2316 0.929 . S
H2309 C2318 0.930 . S
H2310 C2320 0.930 . S
H2311 C2323 0.929 . S
H2312 C2326 0.930 . S
H2313 C2328 0.960 . S
H2314 C2328 0.960 . S
H2315 C2328 0.960 . S
C2316 H2308 0.929 . S
C2316 C2317 1.377 . S
C2316 C2318 1.384 . S
C2317 C2316 1.377 . S
C2317 C2323 1.390 . S
C2318 H2309 0.930 . S
C2318 C2316 1.384 . S
C2318 C2319 1.372 . S
C2319 C2318 1.372 . S
C2319 C2320 1.400 . S
C2319 C2324 1.490 . S
C2320 H2310 0.930 . S
C2320 C2319 1.400 . S
C2320 C2323 1.386 . S
H2321 C2337 0.930 . S
H2322 C2338 0.931 . S
C2323 H2311 0.929 . S
C2323 C2317 1.390 . S
C2323 C2320 1.386 . S
C2324 C2319 1.490 . S
C2324 C2326 1.395 . S
C2324 C2327 1.403 . S
H2325 C2331 0.930 . S
C2326 H2312 0.930 . S
C2326 C2324 1.395 . S
C2326 C2329 1.403 . S
C2327 C2324 1.403 . S
C2327 C2328 1.524 . S
C2327 C2331 1.400 . S
C2328 H2313 0.960 . S
C2328 H2314 0.960 . S
C2328 H2315 0.960 . S
C2328 C2327 1.524 . S
C2329 C2326 1.403 . S
C2329 C2330 1.392 . S
C2329 C2333 1.495 . S
C2330 C2329 1.392 . S
C2330 C2331 1.385 . S
C2330 C2332 1.478 . S
C2331 H2325 0.930 . S
C2331 C2327 1.400 . S
C2331 C2330 1.385 . S
C2332 C2330 1.478 . S
C2332 C2334 1.381 . S
C2332 C2338 1.383 . S
C2333 C2329 1.495 . S
C2333 H2339 0.959 . S
C2333 H2340 0.961 . S
C2333 H2341 0.960 . S
C2334 C2332 1.381 . S
C2334 C2335 1.394 . S
C2334 H2342 0.930 . S
C2335 C2334 1.394 . S
C2335 C2336 1.383 . S
C2335 H2343 0.929 . S
C2336 C2335 1.383 . S
C2336 C2337 1.377 . S
C2337 H2321 0.930 . S
C2337 C2336 1.377 . S
C2337 C2338 1.379 . S
C2338 H2322 0.931 . S
C2338 C2332 1.383 . S
C2338 C2337 1.379 . S
H2339 C2333 0.959 . S
H2340 C2333 0.961 . S
H2341 C2333 0.960 . S
H2342 C2334 0.930 . S
H2343 C2335 0.929 . S
H2344 C2352 0.929 . S
H2345 C2354 0.930 . S
H2346 C2356 0.930 . S
H2347 C2359 0.929 . S
H2348 C2362 0.930 . S
H2349 C2364 0.960 . S
H2350 C2364 0.960 . S
H2351 C2364 0.960 . S
C2352 H2344 0.929 . S
C2352 C2353 1.377 . S
C2352 C2354 1.384 . S
C2353 C2352 1.377 . S
C2353 C2359 1.390 . S
C2354 H2345 0.930 . S
C2354 C2352 1.384 . S
C2354 C2355 1.372 . S
C2355 C2354 1.372 . S
C2355 C2356 1.400 . S
C2355 C2360 1.490 . S
C2356 H2346 0.930 . S
C2356 C2355 1.400 . S
C2356 C2359 1.386 . S
H2357 C2373 0.930 . S
H2358 C2374 0.931 . S
C2359 H2347 0.929 . S
C2359 C2353 1.390 . S
C2359 C2356 1.386 . S
C2360 C2355 1.490 . S
C2360 C2362 1.395 . S
C2360 C2363 1.403 . S
H2361 C2367 0.930 . S
C2362 H2348 0.930 . S
C2362 C2360 1.395 . S
C2362 C2365 1.403 1_655 S
C2363 C2360 1.403 . S
C2363 C2364 1.524 . S
C2363 C2367 1.400 . S
C2364 H2349 0.960 . S
C2364 H2350 0.960 . S
C2364 H2351 0.960 . S
C2364 C2363 1.524 . S
C2365 C2362 1.403 1_455 S
C2365 C2366 1.392 . S
C2365 C2369 1.495 . S
C2366 C2365 1.392 . S
C2366 C2367 1.385 1_455 S
C2366 C2368 1.478 . S
C2367 H2361 0.930 . S
C2367 C2363 1.400 . S
C2367 C2366 1.385 1_655 S
C2368 C2366 1.478 . S
C2368 C2370 1.381 . S
C2368 C2374 1.383 . S
C2369 C2365 1.495 . S
C2369 H2375 0.959 . S
C2369 H2376 0.961 . S
C2369 H2377 0.960 . S
C2370 C2368 1.381 . S
C2370 C2371 1.394 . S
C2370 H2378 0.930 . S
C2371 C2370 1.394 . S
C2371 C2372 1.383 . S
C2371 H2379 0.929 . S
C2372 C2371 1.383 . S
C2372 C2373 1.377 . S
C2373 H2357 0.930 . S
C2373 C2372 1.377 . S
C2373 C2374 1.379 . S
C2374 H2358 0.931 . S
C2374 C2368 1.383 . S
C2374 C2373 1.379 . S
H2375 C2369 0.959 . S
H2376 C2369 0.961 . S
H2377 C2369 0.960 . S
H2378 C2370 0.930 . S
H2379 C2371 0.929 . S
H2380 C2388 0.929 . S
H2381 C2390 0.930 . S
H2382 C2392 0.930 . S
H2383 C2395 0.929 . S
H2384 C2398 0.930 . S
H2385 C2400 0.960 . S
H2386 C2400 0.960 . S
H2387 C2400 0.960 . S
C2388 H2380 0.929 . S
C2388 C2389 1.377 . S
C2388 C2390 1.384 . S
C2389 C2388 1.377 . S
C2389 C2395 1.390 . S
C2390 H2381 0.930 . S
C2390 C2388 1.384 . S
C2390 C2391 1.372 . S
C2391 C2390 1.372 . S
C2391 C2392 1.400 . S
C2391 C2396 1.490 . S
C2392 H2382 0.930 . S
C2392 C2391 1.400 . S
C2392 C2395 1.386 . S
H2393 C2409 0.930 . S
H2394 C2410 0.931 . S
C2395 H2383 0.929 . S
C2395 C2389 1.390 . S
C2395 C2392 1.386 . S
C2396 C2391 1.490 . S
C2396 C2398 1.395 . S
C2396 C2399 1.403 . S
H2397 C2403 0.930 . S
C2398 H2384 0.930 . S
C2398 C2396 1.395 . S
C2398 C2401 1.403 . S
C2399 C2396 1.403 . S
C2399 C2400 1.524 . S
C2399 C2403 1.400 . S
C2400 H2385 0.960 . S
C2400 H2386 0.960 . S
C2400 H2387 0.960 . S
C2400 C2399 1.524 . S
C2401 C2398 1.403 . S
C2401 C2402 1.392 . S
C2401 C2405 1.495 . S
C2402 C2401 1.392 . S
C2402 C2403 1.385 . S
C2402 C2404 1.478 . S
C2403 H2397 0.930 . S
C2403 C2399 1.400 . S
C2403 C2402 1.385 . S
C2404 C2402 1.478 . S
C2404 C2406 1.381 . S
C2404 C2410 1.383 . S
C2405 C2401 1.495 . S
C2405 H2411 0.959 . S
C2405 H2412 0.961 . S
C2405 H2413 0.960 . S
C2406 C2404 1.381 . S
C2406 C2407 1.394 . S
C2406 H2414 0.930 . S
C2407 C2406 1.394 . S
C2407 C2408 1.383 . S
C2407 H2415 0.929 . S
C2408 C2407 1.383 . S
C2408 C2409 1.377 . S
C2409 H2393 0.930 . S
C2409 C2408 1.377 . S
C2409 C2410 1.379 . S
C2410 H2394 0.931 . S
C2410 C2404 1.383 . S
C2410 C2409 1.379 . S
H2411 C2405 0.959 . S
H2412 C2405 0.961 . S
H2413 C2405 0.960 . S
H2414 C2406 0.930 . S
H2415 C2407 0.929 . S
H2416 C2424 0.929 . S
H2417 C2426 0.930 . S
H2418 C2428 0.930 . S
H2419 C2431 0.929 . S
H2420 C2434 0.930 . S
H2421 C2436 0.960 . S
H2422 C2436 0.960 . S
H2423 C2436 0.960 . S
C2424 H2416 0.929 . S
C2424 C2425 1.377 . S
C2424 C2426 1.384 . S
C2425 C2424 1.377 . S
C2425 C2431 1.390 . S
C2426 H2417 0.930 . S
C2426 C2424 1.384 . S
C2426 C2427 1.372 . S
C2427 C2426 1.372 . S
C2427 C2428 1.400 . S
C2427 C2432 1.490 . S
C2428 H2418 0.930 . S
C2428 C2427 1.400 . S
C2428 C2431 1.386 . S
H2429 C2445 0.930 . S
H2430 C2446 0.931 . S
C2431 H2419 0.929 . S
C2431 C2425 1.390 . S
C2431 C2428 1.386 . S
C2432 C2427 1.490 . S
C2432 C2434 1.395 . S
C2432 C2435 1.403 . S
H2433 C2439 0.930 . S
C2434 H2420 0.930 . S
C2434 C2432 1.395 . S
C2434 C2437 1.403 . S
C2435 C2432 1.403 . S
C2435 C2436 1.524 . S
C2435 C2439 1.400 . S
C2436 H2421 0.960 . S
C2436 H2422 0.960 . S
C2436 H2423 0.960 . S
C2436 C2435 1.524 . S
C2437 C2434 1.403 . S
C2437 C2438 1.392 . S
C2437 C2441 1.495 . S
C2438 C2437 1.392 . S
C2438 C2439 1.385 . S
C2438 C2440 1.478 . S
C2439 H2433 0.930 . S
C2439 C2435 1.400 . S
C2439 C2438 1.385 . S
C2440 C2438 1.478 . S
C2440 C2442 1.381 . S
C2440 C2446 1.383 . S
C2441 C2437 1.495 . S
C2441 H2447 0.959 . S
C2441 H2448 0.961 . S
C2441 H2449 0.960 . S
C2442 C2440 1.381 . S
C2442 C2443 1.394 . S
C2442 H2450 0.930 . S
C2443 C2442 1.394 . S
C2443 C2444 1.383 . S
C2443 H2451 0.929 . S
C2444 C2443 1.383 . S
C2444 C2445 1.377 . S
C2445 H2429 0.930 . S
C2445 C2444 1.377 . S
C2445 C2446 1.379 . S
C2446 H2430 0.931 . S
C2446 C2440 1.383 . S
C2446 C2445 1.379 . S
H2447 C2441 0.959 . S
H2448 C2441 0.961 . S
H2449 C2441 0.960 . S
H2450 C2442 0.930 . S
H2451 C2443 0.929 . S
H2452 C2460 0.929 . S
H2453 C2462 0.930 . S
H2454 C2464 0.930 . S
H2455 C2467 0.929 . S
H2456 C2470 0.930 . S
H2457 C2472 0.960 . S
H2458 C2472 0.960 . S
H2459 C2472 0.960 . S
C2460 H2452 0.929 . S
C2460 C2461 1.377 . S
C2460 C2462 1.384 . S
C2461 C2460 1.377 . S
C2461 C2467 1.390 . S
C2462 H2453 0.930 . S
C2462 C2460 1.384 . S
C2462 C2463 1.372 . S
C2463 C2462 1.372 . S
C2463 C2464 1.400 . S
C2463 C2468 1.490 . S
C2464 H2454 0.930 . S
C2464 C2463 1.400 . S
C2464 C2467 1.386 . S
H2465 C2481 0.930 . S
H2466 C2482 0.931 . S
C2467 H2455 0.929 . S
C2467 C2461 1.390 . S
C2467 C2464 1.386 . S
C2468 C2463 1.490 . S
C2468 C2470 1.395 . S
C2468 C2471 1.403 . S
H2469 C2475 0.950 . S
C2470 H2456 0.930 . S
C2470 C2468 1.395 . S
C2470 C2473 1.403 . S
C2471 C2468 1.403 . S
C2471 C2472 1.524 . S
C2471 C2475 1.400 . S
C2472 H2457 0.960 . S
C2472 H2458 0.960 . S
C2472 H2459 0.960 . S
C2472 C2471 1.524 . S
C2473 C2470 1.403 . S
C2473 C2474 1.392 1_554 S
C2473 C2477 1.490 1_554 S
C2474 C2473 1.392 1_556 S
C2474 C2475 1.385 1_556 S
C2474 C2476 1.478 . S
C2475 H2469 0.950 . S
C2475 C2471 1.400 . S
C2475 C2474 1.385 1_554 S
C2476 C2474 1.478 . S
C2476 C2478 1.381 . S
C2476 C2482 1.383 . S
C2477 C2473 1.490 1_556 S
C2477 H2483 0.950 1_556 S
C2477 H2484 0.975 . S
C2477 H2485 0.959 . S
C2478 C2476 1.381 . S
C2478 C2479 1.394 . S
C2478 H2486 0.930 . S
C2479 C2478 1.394 . S
C2479 C2480 1.383 . S
C2479 H2487 0.929 . S
C2480 C2479 1.383 . S
C2480 C2481 1.377 . S
C2481 H2465 0.930 . S
C2481 C2480 1.377 . S
C2481 C2482 1.379 . S
C2482 H2466 0.931 . S
C2482 C2476 1.383 . S
C2482 C2481 1.379 . S
H2483 C2477 0.950 1_554 S
H2484 C2477 0.975 . S
H2485 C2477 0.959 . S
H2486 C2478 0.930 . S
H2487 C2479 0.929 . S
H2488 C2496 0.929 . S
H2489 C2498 0.930 . S
H2490 C2500 0.930 . S
H2491 C2503 0.929 . S
H2492 C2506 0.930 . S
H2493 C2508 0.960 . S
H2494 C2508 0.960 . S
H2495 C2508 0.960 . S
C2496 H2488 0.929 . S
C2496 C2497 1.377 . S
C2496 C2498 1.384 . S
C2497 C2496 1.377 . S
C2497 C2503 1.390 . S
C2498 H2489 0.930 . S
C2498 C2496 1.384 . S
C2498 C2499 1.372 . S
C2499 C2498 1.372 . S
C2499 C2500 1.400 . S
C2499 C2504 1.490 . S
C2500 H2490 0.930 . S
C2500 C2499 1.400 . S
C2500 C2503 1.386 . S
H2501 C2517 0.930 . S
H2502 C2518 0.931 . S
C2503 H2491 0.929 . S
C2503 C2497 1.390 . S
C2503 C2500 1.386 . S
C2504 C2499 1.490 . S
C2504 C2506 1.395 . S
C2504 C2507 1.403 . S
H2505 C2511 0.930 . S
C2506 H2492 0.930 . S
C2506 C2504 1.395 . S
C2506 C2509 1.403 . S
C2507 C2504 1.403 . S
C2507 C2508 1.524 . S
C2507 C2511 1.400 . S
C2508 H2493 0.960 . S
C2508 H2494 0.960 . S
C2508 H2495 0.960 . S
C2508 C2507 1.524 . S
C2509 C2506 1.403 . S
C2509 C2510 1.392 . S
C2509 C2513 1.495 . S
C2510 C2509 1.392 . S
C2510 C2511 1.385 . S
C2510 C2512 1.478 . S
C2511 H2505 0.930 . S
C2511 C2507 1.400 . S
C2511 C2510 1.385 . S
C2512 C2510 1.478 . S
C2512 C2514 1.381 . S
C2512 C2518 1.383 . S
C2513 C2509 1.495 . S
C2513 H2519 0.959 . S
C2513 H2520 0.961 . S
C2513 H2521 0.960 . S
C2514 C2512 1.381 . S
C2514 C2515 1.394 . S
C2514 H2522 0.930 . S
C2515 C2514 1.394 . S
C2515 C2516 1.383 . S
C2515 H2523 0.929 . S
C2516 C2515 1.383 . S
C2516 C2517 1.377 . S
C2517 H2501 0.930 . S
C2517 C2516 1.377 . S
C2517 C2518 1.379 . S
C2518 H2502 0.931 . S
C2518 C2512 1.383 . S
C2518 C2517 1.379 . S
H2519 C2513 0.959 . S
H2520 C2513 0.961 . S
H2521 C2513 0.960 . S
H2522 C2514 0.930 . S
H2523 C2515 0.929 . S
H2524 C2532 0.929 . S
H2525 C2534 0.930 . S
H2526 C2536 0.930 . S
H2527 C2539 0.929 . S
H2528 C2542 0.930 . S
H2529 C2544 0.960 . S
H2530 C2544 0.960 . S
H2531 C2544 0.960 . S
C2532 H2524 0.929 . S
C2532 C2533 1.377 . S
C2532 C2534 1.384 . S
C2533 C2532 1.377 . S
C2533 C2539 1.390 . S
C2534 H2525 0.930 . S
C2534 C2532 1.384 . S
C2534 C2535 1.372 . S
C2535 C2534 1.372 . S
C2535 C2536 1.400 . S
C2535 C2540 1.490 . S
C2536 H2526 0.930 . S
C2536 C2535 1.400 . S
C2536 C2539 1.386 . S
H2537 C2553 0.930 . S
H2538 C2554 0.931 . S
C2539 H2527 0.929 . S
C2539 C2533 1.390 . S
C2539 C2536 1.386 . S
C2540 C2535 1.490 . S
C2540 C2542 1.395 . S
C2540 C2543 1.403 . S
H2541 C2547 0.930 . S
C2542 H2528 0.930 . S
C2542 C2540 1.395 . S
C2542 C2545 1.403 . S
C2543 C2540 1.403 . S
C2543 C2544 1.524 . S
C2543 C2547 1.400 . S
C2544 H2529 0.960 . S
C2544 H2530 0.960 . S
C2544 H2531 0.960 . S
C2544 C2543 1.524 . S
C2545 C2542 1.403 . S
C2545 C2546 1.392 . S
C2545 C2549 1.495 . S
C2546 C2545 1.392 . S
C2546 C2547 1.385 . S
C2546 C2548 1.478 . S
C2547 H2541 0.930 . S
C2547 C2543 1.400 . S
C2547 C2546 1.385 . S
C2548 C2546 1.478 . S
C2548 C2550 1.381 . S
C2548 C2554 1.383 . S
C2549 C2545 1.495 . S
C2549 H2555 0.959 . S
C2549 H2556 0.961 . S
C2549 H2557 0.960 . S
C2550 C2548 1.381 . S
C2550 C2551 1.394 . S
C2550 H2558 0.930 . S
C2551 C2550 1.394 . S
C2551 C2552 1.383 . S
C2551 H2559 0.929 . S
C2552 C2551 1.383 . S
C2552 C2553 1.377 . S
C2553 H2537 0.930 . S
C2553 C2552 1.377 . S
C2553 C2554 1.379 . S
C2554 H2538 0.931 . S
C2554 C2548 1.383 . S
C2554 C2553 1.379 . S
H2555 C2549 0.959 . S
H2556 C2549 0.961 . S
H2557 C2549 0.960 . S
H2558 C2550 0.930 . S
H2559 C2551 0.929 . S
H2560 C2568 0.929 . S
H2561 C2570 0.930 . S
H2562 C2572 0.930 . S
H2563 C2575 0.929 . S
H2564 C2578 0.930 . S
H2565 C2580 0.960 . S
H2566 C2580 0.960 . S
H2567 C2580 0.960 . S
C2568 H2560 0.929 . S
C2568 C2569 1.377 . S
C2568 C2570 1.384 . S
C2569 C2568 1.377 . S
C2569 C2575 1.390 . S
C2570 H2561 0.930 . S
C2570 C2568 1.384 . S
C2570 C2571 1.372 . S
C2571 C2570 1.372 . S
C2571 C2572 1.400 . S
C2571 C2576 1.490 . S
C2572 H2562 0.930 . S
C2572 C2571 1.400 . S
C2572 C2575 1.386 . S
H2573 C2589 0.930 . S
H2574 C2590 0.931 . S
C2575 H2563 0.929 . S
C2575 C2569 1.390 . S
C2575 C2572 1.386 . S
C2576 C2571 1.490 . S
C2576 C2578 1.395 . S
C2576 C2579 1.403 . S
H2577 C2583 0.930 . S
C2578 H2564 0.930 . S
C2578 C2576 1.395 . S
C2578 C2581 1.403 . S
C2579 C2576 1.403 . S
C2579 C2580 1.524 . S
C2579 C2583 1.400 . S
C2580 H2565 0.960 . S
C2580 H2566 0.960 . S
C2580 H2567 0.960 . S
C2580 C2579 1.524 . S
C2581 C2578 1.403 . S
C2581 C2582 1.392 . S
C2581 C2585 1.495 . S
C2582 C2581 1.392 . S
C2582 C2583 1.385 . S
C2582 C2584 1.478 . S
C2583 H2577 0.930 . S
C2583 C2579 1.400 . S
C2583 C2582 1.385 . S
C2584 C2582 1.478 . S
C2584 C2586 1.381 . S
C2584 C2590 1.383 . S
C2585 C2581 1.495 . S
C2585 H2591 0.959 . S
C2585 H2592 0.961 . S
C2585 H2593 0.960 . S
C2586 C2584 1.381 . S
C2586 C2587 1.394 . S
C2586 H2594 0.930 . S
C2587 C2586 1.394 . S
C2587 C2588 1.383 . S
C2587 H2595 0.929 . S
C2588 C2587 1.383 . S
C2588 C2589 1.377 . S
C2589 H2573 0.930 . S
C2589 C2588 1.377 . S
C2589 C2590 1.379 . S
C2590 H2574 0.931 . S
C2590 C2584 1.383 . S
C2590 C2589 1.379 . S
H2591 C2585 0.959 . S
H2592 C2585 0.961 . S
H2593 C2585 0.960 . S
H2594 C2586 0.930 . S
H2595 C2587 0.929 . S
H2596 C2604 0.929 . S
H2597 C2606 0.930 . S
H2598 C2608 0.930 . S
H2599 C2611 0.929 . S
H2600 C2614 0.930 . S
H2601 C2616 0.996 . S
H2602 C2616 0.946 1_556 S
H2603 C2616 0.947 1_556 S
C2604 H2596 0.929 . S
C2604 C2605 1.377 . S
C2604 C2606 1.384 . S
C2605 C2604 1.377 . S
C2605 C2611 1.390 . S
C2606 H2597 0.930 . S
C2606 C2604 1.384 . S
C2606 C2607 1.372 . S
C2607 C2606 1.372 . S
C2607 C2608 1.400 . S
C2607 C2612 1.490 . S
C2608 H2598 0.930 . S
C2608 C2607 1.400 . S
C2608 C2611 1.386 . S
H2609 C2625 0.930 . S
H2610 C2626 0.931 . S
C2611 H2599 0.929 . S
C2611 C2605 1.390 . S
C2611 C2608 1.386 . S
C2612 C2607 1.490 . S
C2612 C2614 1.395 . S
C2612 C2615 1.403 . S
H2613 C2619 0.930 . S
C2614 H2600 0.930 . S
C2614 C2612 1.395 . S
C2614 C2617 1.403 . S
C2615 C2612 1.403 . S
C2615 C2616 1.517 1_556 S
C2615 C2619 1.400 1_556 S
C2616 H2601 0.996 . S
C2616 H2602 0.946 1_554 S
C2616 H2603 0.947 1_554 S
C2616 C2615 1.517 1_554 S
C2617 C2614 1.403 . S
C2617 C2618 1.392 1_556 S
C2617 C2621 1.495 . S
C2618 C2617 1.392 1_554 S
C2618 C2619 1.385 . S
C2618 C2620 1.478 . S
C2619 H2613 0.930 . S
C2619 C2615 1.400 1_554 S
C2619 C2618 1.385 . S
C2620 C2618 1.478 . S
C2620 C2622 1.381 . S
C2620 C2626 1.383 . S
C2621 C2617 1.495 . S
C2621 H2627 0.959 . S
C2621 H2628 0.961 . S
C2621 H2629 0.960 . S
C2622 C2620 1.381 . S
C2622 C2623 1.394 . S
C2622 H2630 0.930 . S
C2623 C2622 1.394 . S
C2623 C2624 1.383 . S
C2623 H2631 0.929 . S
C2624 C2623 1.383 . S
C2624 C2625 1.377 . S
C2625 H2609 0.930 . S
C2625 C2624 1.377 . S
C2625 C2626 1.379 . S
C2626 H2610 0.931 . S
C2626 C2620 1.383 . S
C2626 C2625 1.379 . S
H2627 C2621 0.959 . S
H2628 C2621 0.961 . S
H2629 C2621 0.960 . S
H2630 C2622 0.930 . S
H2631 C2623 0.929 . S
H2632 C2640 0.929 . S
H2633 C2642 0.930 . S
H2634 C2644 0.930 . S
H2635 C2647 0.929 . S
H2636 C2650 0.930 . S
H2637 C2652 0.960 . S
H2638 C2652 0.960 . S
H2639 C2652 0.960 . S
C2640 H2632 0.929 . S
C2640 C2641 1.377 . S
C2640 C2642 1.384 . S
C2641 C2640 1.377 . S
C2641 C2647 1.390 . S
C2642 H2633 0.930 . S
C2642 C2640 1.384 . S
C2642 C2643 1.372 . S
C2643 C2642 1.372 . S
C2643 C2644 1.400 . S
C2643 C2648 1.490 . S
C2644 H2634 0.930 . S
C2644 C2643 1.400 . S
C2644 C2647 1.386 . S
H2645 C2661 0.930 . S
H2646 C2662 0.931 . S
C2647 H2635 0.929 . S
C2647 C2641 1.390 . S
C2647 C2644 1.386 . S
C2648 C2643 1.490 . S
C2648 C2650 1.395 . S
C2648 C2651 1.403 . S
H2649 C2655 0.930 . S
C2650 H2636 0.930 . S
C2650 C2648 1.395 . S
C2650 C2653 1.403 . S
C2651 C2648 1.403 . S
C2651 C2652 1.524 . S
C2651 C2655 1.400 . S
C2652 H2637 0.960 . S
C2652 H2638 0.960 . S
C2652 H2639 0.960 . S
C2652 C2651 1.524 . S
C2653 C2650 1.403 . S
C2653 C2654 1.392 . S
C2653 C2657 1.495 . S
C2654 C2653 1.392 . S
C2654 C2655 1.385 . S
C2654 C2656 1.478 . S
C2655 H2649 0.930 . S
C2655 C2651 1.400 . S
C2655 C2654 1.385 . S
C2656 C2654 1.478 . S
C2656 C2658 1.381 . S
C2656 C2662 1.383 . S
C2657 C2653 1.495 . S
C2657 H2663 0.959 . S
C2657 H2664 0.961 . S
C2657 H2665 0.960 . S
C2658 C2656 1.381 . S
C2658 C2659 1.394 . S
C2658 H2666 0.930 . S
C2659 C2658 1.394 . S
C2659 C2660 1.383 . S
C2659 H2667 0.929 . S
C2660 C2659 1.383 . S
C2660 C2661 1.377 . S
C2661 H2645 0.930 . S
C2661 C2660 1.377 . S
C2661 C2662 1.379 . S
C2662 H2646 0.931 . S
C2662 C2656 1.383 . S
C2662 C2661 1.379 . S
H2663 C2657 0.959 . S
H2664 C2657 0.961 . S
H2665 C2657 0.960 . S
H2666 C2658 0.930 . S
H2667 C2659 0.929 . S
H2668 C2676 0.929 . S
H2669 C2678 0.930 . S
H2670 C2680 0.930 . S
H2671 C2683 0.929 . S
H2672 C2686 0.930 . S
H2673 C2688 0.960 . S
H2674 C2688 0.960 . S
H2675 C2688 0.960 . S
C2676 H2668 0.929 . S
C2676 C2677 1.377 . S
C2676 C2678 1.384 . S
C2677 C2676 1.377 . S
C2677 C2683 1.390 . S
C2678 H2669 0.930 . S
C2678 C2676 1.384 . S
C2678 C2679 1.372 . S
C2679 C2678 1.372 . S
C2679 C2680 1.400 . S
C2679 C2684 1.490 . S
C2680 H2670 0.930 . S
C2680 C2679 1.400 . S
C2680 C2683 1.386 . S
H2681 C2697 0.930 . S
H2682 C2698 0.931 . S
C2683 H2671 0.929 . S
C2683 C2677 1.390 . S
C2683 C2680 1.386 . S
C2684 C2679 1.490 . S
C2684 C2686 1.395 . S
C2684 C2687 1.403 . S
H2685 C2691 0.930 . S
C2686 H2672 0.930 . S
C2686 C2684 1.395 . S
C2686 C2689 1.403 . S
C2687 C2684 1.403 . S
C2687 C2688 1.524 . S
C2687 C2691 1.400 . S
C2688 H2673 0.960 . S
C2688 H2674 0.960 . S
C2688 H2675 0.960 . S
C2688 C2687 1.524 . S
C2689 C2686 1.403 . S
C2689 C2690 1.392 . S
C2689 C2693 1.495 . S
C2690 C2689 1.392 . S
C2690 C2691 1.385 . S
C2690 C2692 1.478 . S
C2691 H2685 0.930 . S
C2691 C2687 1.400 . S
C2691 C2690 1.385 . S
C2692 C2690 1.478 . S
C2692 C2694 1.381 . S
C2692 C2698 1.383 . S
C2693 C2689 1.495 . S
C2693 H2699 0.959 . S
C2693 H2700 0.961 . S
C2693 H2701 0.960 . S
C2694 C2692 1.381 . S
C2694 C2695 1.394 . S
C2694 H2702 0.930 . S
C2695 C2694 1.394 . S
C2695 C2696 1.383 . S
C2695 H2703 0.929 . S
C2696 C2695 1.383 . S
C2696 C2697 1.377 . S
C2697 H2681 0.930 . S
C2697 C2696 1.377 . S
C2697 C2698 1.379 . S
C2698 H2682 0.931 . S
C2698 C2692 1.383 . S
C2698 C2697 1.379 . S
H2699 C2693 0.959 . S
H2700 C2693 0.961 . S
H2701 C2693 0.960 . S
H2702 C2694 0.930 . S
H2703 C2695 0.929 . S
H2704 C2712 0.929 . S
H2705 C2714 0.930 . S
H2706 C2716 0.930 . S
H2707 C2719 0.929 . S
H2708 C2722 0.930 . S
H2709 C2724 0.960 . S
H2710 C2724 0.960 . S
H2711 C2724 0.960 . S
C2712 H2704 0.929 . S
C2712 C2713 1.377 . S
C2712 C2714 1.384 . S
C2713 C2712 1.377 . S
C2713 C2719 1.390 . S
C2714 H2705 0.930 . S
C2714 C2712 1.384 . S
C2714 C2715 1.372 . S
C2715 C2714 1.372 . S
C2715 C2716 1.400 . S
C2715 C2720 1.490 . S
C2716 H2706 0.930 . S
C2716 C2715 1.400 . S
C2716 C2719 1.386 . S
H2717 C2733 0.930 . S
H2718 C2734 0.931 . S
C2719 H2707 0.929 . S
C2719 C2713 1.390 . S
C2719 C2716 1.386 . S
C2720 C2715 1.490 . S
C2720 C2722 1.395 . S
C2720 C2723 1.403 . S
H2721 C2727 0.930 . S
C2722 H2708 0.930 . S
C2722 C2720 1.395 . S
C2722 C2725 1.403 . S
C2723 C2720 1.403 . S
C2723 C2724 1.524 . S
C2723 C2727 1.400 . S
C2724 H2709 0.960 . S
C2724 H2710 0.960 . S
C2724 H2711 0.960 . S
C2724 C2723 1.524 . S
C2725 C2722 1.403 . S
C2725 C2726 1.392 . S
C2725 C2729 1.495 . S
C2726 C2725 1.392 . S
C2726 C2727 1.385 . S
C2726 C2728 1.478 . S
C2727 H2721 0.930 . S
C2727 C2723 1.400 . S
C2727 C2726 1.385 . S
C2728 C2726 1.478 . S
C2728 C2730 1.381 . S
C2728 C2734 1.383 . S
C2729 C2725 1.495 . S
C2729 H2735 0.959 . S
C2729 H2736 0.961 . S
C2729 H2737 0.960 . S
C2730 C2728 1.381 . S
C2730 C2731 1.394 . S
C2730 H2738 0.930 . S
C2731 C2730 1.394 . S
C2731 C2732 1.383 . S
C2731 H2739 0.929 . S
C2732 C2731 1.383 . S
C2732 C2733 1.377 . S
C2733 H2717 0.930 . S
C2733 C2732 1.377 . S
C2733 C2734 1.379 . S
C2734 H2718 0.931 . S
C2734 C2728 1.383 . S
C2734 C2733 1.379 . S
H2735 C2729 0.959 . S
H2736 C2729 0.961 . S
H2737 C2729 0.960 . S
H2738 C2730 0.930 . S
H2739 C2731 0.929 . S
H2740 C2748 0.929 . S
H2741 C2750 0.930 . S
H2742 C2752 0.930 . S
H2743 C2755 0.929 . S
H2744 C2758 0.930 . S
H2745 C2760 0.960 . S
H2746 C2760 0.960 . S
H2747 C2760 0.960 . S
C2748 H2740 0.929 . S
C2748 C2749 1.377 . S
C2748 C2750 1.384 . S
C2749 C2748 1.377 . S
C2749 C2755 1.390 . S
C2750 H2741 0.930 . S
C2750 C2748 1.384 . S
C2750 C2751 1.372 . S
C2751 C2750 1.372 . S
C2751 C2752 1.400 . S
C2751 C2756 1.490 . S
C2752 H2742 0.930 . S
C2752 C2751 1.400 . S
C2752 C2755 1.386 . S
H2753 C2769 0.930 . S
H2754 C2770 0.931 . S
C2755 H2743 0.929 . S
C2755 C2749 1.390 . S
C2755 C2752 1.386 . S
C2756 C2751 1.490 . S
C2756 C2758 1.395 . S
C2756 C2759 1.403 . S
H2757 C2763 0.930 . S
C2758 H2744 0.930 . S
C2758 C2756 1.395 . S
C2758 C2761 1.403 . S
C2759 C2756 1.403 . S
C2759 C2760 1.524 . S
C2759 C2763 1.400 . S
C2760 H2745 0.960 . S
C2760 H2746 0.960 . S
C2760 H2747 0.960 . S
C2760 C2759 1.524 . S
C2761 C2758 1.403 . S
C2761 C2762 1.392 . S
C2761 C2765 1.495 . S
C2762 C2761 1.392 . S
C2762 C2763 1.385 . S
C2762 C2764 1.478 . S
C2763 H2757 0.930 . S
C2763 C2759 1.400 . S
C2763 C2762 1.385 . S
C2764 C2762 1.478 . S
C2764 C2766 1.381 . S
C2764 C2770 1.383 . S
C2765 C2761 1.495 . S
C2765 H2771 0.959 . S
C2765 H2772 0.961 . S
C2765 H2773 0.960 . S
C2766 C2764 1.381 . S
C2766 C2767 1.394 . S
C2766 H2774 0.930 . S
C2767 C2766 1.394 . S
C2767 C2768 1.383 . S
C2767 H2775 0.929 . S
C2768 C2767 1.383 . S
C2768 C2769 1.377 . S
C2769 H2753 0.930 . S
C2769 C2768 1.377 . S
C2769 C2770 1.379 . S
C2770 H2754 0.931 . S
C2770 C2764 1.383 . S
C2770 C2769 1.379 . S
H2771 C2765 0.959 . S
H2772 C2765 0.961 . S
H2773 C2765 0.960 . S
H2774 C2766 0.930 . S
H2775 C2767 0.929 . S
H2776 C2784 0.929 . S
H2777 C2786 0.930 . S
H2778 C2788 0.930 . S
H2779 C2791 0.929 . S
H2780 C2794 0.930 . S
H2781 C2796 0.960 . S
H2782 C2796 0.960 . S
H2783 C2796 0.960 . S
C2784 H2776 0.929 . S
C2784 C2785 1.377 . S
C2784 C2786 1.384 . S
C2785 C2784 1.377 . S
C2785 C2791 1.390 . S
C2786 H2777 0.930 . S
C2786 C2784 1.384 . S
C2786 C2787 1.372 . S
C2787 C2786 1.372 . S
C2787 C2788 1.400 . S
C2787 C2792 1.490 . S
C2788 H2778 0.930 . S
C2788 C2787 1.400 . S
C2788 C2791 1.386 . S
H2789 C2805 0.930 . S
H2790 C2806 0.931 . S
C2791 H2779 0.929 . S
C2791 C2785 1.390 . S
C2791 C2788 1.386 . S
C2792 C2787 1.490 . S
C2792 C2794 1.395 . S
C2792 C2795 1.403 . S
H2793 C2799 0.930 . S
C2794 H2780 0.930 . S
C2794 C2792 1.395 . S
C2794 C2797 1.403 . S
C2795 C2792 1.403 . S
C2795 C2796 1.524 . S
C2795 C2799 1.400 . S
C2796 H2781 0.960 . S
C2796 H2782 0.960 . S
C2796 H2783 0.960 . S
C2796 C2795 1.524 . S
C2797 C2794 1.403 . S
C2797 C2798 1.392 . S
C2797 C2801 1.495 . S
C2798 C2797 1.392 . S
C2798 C2799 1.385 . S
C2798 C2800 1.478 . S
C2799 H2793 0.930 . S
C2799 C2795 1.400 . S
C2799 C2798 1.385 . S
C2800 C2798 1.478 . S
C2800 C2802 1.381 . S
C2800 C2806 1.383 . S
C2801 C2797 1.495 . S
C2801 H2807 0.959 . S
C2801 H2808 0.961 . S
C2801 H2809 0.960 . S
C2802 C2800 1.381 . S
C2802 C2803 1.394 . S
C2802 H2810 0.930 . S
C2803 C2802 1.394 . S
C2803 C2804 1.383 . S
C2803 H2811 0.929 . S
C2804 C2803 1.383 . S
C2804 C2805 1.377 . S
C2805 H2789 0.930 . S
C2805 C2804 1.377 . S
C2805 C2806 1.379 . S
C2806 H2790 0.931 . S
C2806 C2800 1.383 . S
C2806 C2805 1.379 . S
H2807 C2801 0.959 . S
H2808 C2801 0.961 . S
H2809 C2801 0.960 . S
H2810 C2802 0.930 . S
H2811 C2803 0.929 . S
H2812 C2820 0.929 . S
H2813 C2822 0.930 . S
H2814 C2824 0.930 . S
H2815 C2827 0.929 . S
H2816 C2830 0.930 . S
H2817 C2832 0.960 . S
H2818 C2832 0.960 . S
H2819 C2832 0.960 . S
C2820 H2812 0.929 . S
C2820 C2821 1.377 . S
C2820 C2822 1.384 . S
C2821 C2820 1.377 . S
C2821 C2827 1.390 . S
C2822 H2813 0.930 . S
C2822 C2820 1.384 . S
C2822 C2823 1.372 . S
C2823 C2822 1.372 . S
C2823 C2824 1.400 . S
C2823 C2828 1.490 . S
C2824 H2814 0.930 . S
C2824 C2823 1.400 . S
C2824 C2827 1.386 . S
H2825 C2841 0.930 . S
H2826 C2842 0.931 . S
C2827 H2815 0.929 . S
C2827 C2821 1.390 . S
C2827 C2824 1.386 . S
C2828 C2823 1.490 . S
C2828 C2830 1.395 . S
C2828 C2831 1.403 . S
H2829 C2835 0.930 . S
C2830 H2816 0.930 . S
C2830 C2828 1.395 . S
C2830 C2833 1.403 . S
C2831 C2828 1.403 . S
C2831 C2832 1.524 . S
C2831 C2835 1.400 . S
C2832 H2817 0.960 . S
C2832 H2818 0.960 . S
C2832 H2819 0.960 . S
C2832 C2831 1.524 . S
C2833 C2830 1.403 . S
C2833 C2834 1.392 . S
C2833 C2837 1.495 . S
C2834 C2833 1.392 . S
C2834 C2835 1.385 . S
C2834 C2836 1.478 . S
C2835 H2829 0.930 . S
C2835 C2831 1.400 . S
C2835 C2834 1.385 . S
C2836 C2834 1.478 . S
C2836 C2838 1.381 . S
C2836 C2842 1.383 . S
C2837 C2833 1.495 . S
C2837 H2843 0.959 . S
C2837 H2844 0.961 . S
C2837 H2845 0.960 . S
C2838 C2836 1.381 . S
C2838 C2839 1.394 . S
C2838 H2846 0.930 . S
C2839 C2838 1.394 . S
C2839 C2840 1.383 . S
C2839 H2847 0.929 . S
C2840 C2839 1.383 . S
C2840 C2841 1.377 . S
C2841 H2825 0.930 . S
C2841 C2840 1.377 . S
C2841 C2842 1.379 . S
C2842 H2826 0.931 . S
C2842 C2836 1.383 . S
C2842 C2841 1.379 . S
H2843 C2837 0.959 . S
H2844 C2837 0.961 . S
H2845 C2837 0.960 . S
H2846 C2838 0.930 . S
H2847 C2839 0.929 . S
H2848 C2856 0.929 . S
H2849 C2858 0.930 . S
H2850 C2860 0.930 . S
H2851 C2863 0.929 . S
H2852 C2866 0.930 . S
H2853 C2868 0.960 . S
H2854 C2868 0.960 . S
H2855 C2868 0.960 . S
C2856 H2848 0.929 . S
C2856 C2857 1.377 . S
C2856 C2858 1.384 . S
C2857 C2856 1.377 . S
C2857 C2863 1.390 . S
C2858 H2849 0.930 . S
C2858 C2856 1.384 . S
C2858 C2859 1.372 . S
C2859 C2858 1.372 . S
C2859 C2860 1.400 . S
C2859 C2864 1.490 . S
C2860 H2850 0.930 . S
C2860 C2859 1.400 . S
C2860 C2863 1.386 . S
H2861 C2877 0.930 . S
H2862 C2878 0.931 . S
C2863 H2851 0.929 . S
C2863 C2857 1.390 . S
C2863 C2860 1.386 . S
C2864 C2859 1.490 . S
C2864 C2866 1.395 . S
C2864 C2867 1.403 . S
H2865 C2871 0.930 . S
C2866 H2852 0.930 . S
C2866 C2864 1.395 . S
C2866 C2869 1.403 . S
C2867 C2864 1.403 . S
C2867 C2868 1.524 . S
C2867 C2871 1.400 . S
C2868 H2853 0.960 . S
C2868 H2854 0.960 . S
C2868 H2855 0.960 . S
C2868 C2867 1.524 . S
C2869 C2866 1.403 . S
C2869 C2870 1.392 . S
C2869 C2873 1.495 . S
C2870 C2869 1.392 . S
C2870 C2871 1.385 . S
C2870 C2872 1.478 . S
C2871 H2865 0.930 . S
C2871 C2867 1.400 . S
C2871 C2870 1.385 . S
C2872 C2870 1.478 . S
C2872 C2874 1.381 . S
C2872 C2878 1.383 . S
C2873 C2869 1.495 . S
C2873 H2879 0.959 . S
C2873 H2880 0.961 . S
C2873 H2881 0.960 . S
C2874 C2872 1.381 . S
C2874 C2875 1.394 . S
C2874 H2882 0.930 . S
C2875 C2874 1.394 . S
C2875 C2876 1.383 . S
C2875 H2883 0.929 . S
C2876 C2875 1.383 . S
C2876 C2877 1.377 . S
C2877 H2861 0.930 . S
C2877 C2876 1.377 . S
C2877 C2878 1.379 . S
C2878 H2862 0.931 . S
C2878 C2872 1.383 . S
C2878 C2877 1.379 . S
H2879 C2873 0.959 . S
H2880 C2873 0.961 . S
H2881 C2873 0.960 . S
H2882 C2874 0.930 . S
H2883 C2875 0.929 . S
H2884 C2892 0.929 . S
H2885 C2894 0.930 . S
H2886 C2896 0.930 . S
H2887 C2899 0.929 . S
H2888 C2902 0.930 . S
H2889 C2904 0.960 . S
H2890 C2904 0.960 . S
H2891 C2904 0.960 . S
C2892 H2884 0.929 . S
C2892 C2893 1.377 . S
C2892 C2894 1.384 . S
C2893 C2892 1.377 . S
C2893 C2899 1.390 . S
C2894 H2885 0.930 . S
C2894 C2892 1.384 . S
C2894 C2895 1.372 . S
C2895 C2894 1.372 . S
C2895 C2896 1.400 . S
C2895 C2900 1.490 . S
C2896 H2886 0.930 . S
C2896 C2895 1.400 . S
C2896 C2899 1.386 . S
H2897 C2913 0.930 . S
H2898 C2914 0.931 . S
C2899 H2887 0.929 . S
C2899 C2893 1.390 . S
C2899 C2896 1.386 . S
C2900 C2895 1.490 . S
C2900 C2902 1.395 . S
C2900 C2903 1.403 . S
H2901 C2907 0.930 . S
C2902 H2888 0.930 . S
C2902 C2900 1.395 . S
C2902 C2905 1.403 . S
C2903 C2900 1.403 . S
C2903 C2904 1.524 . S
C2903 C2907 1.400 . S
C2904 H2889 0.960 . S
C2904 H2890 0.960 . S
C2904 H2891 0.960 . S
C2904 C2903 1.524 . S
C2905 C2902 1.403 . S
C2905 C2906 1.392 . S
C2905 C2909 1.495 . S
C2906 C2905 1.392 . S
C2906 C2907 1.385 . S
C2906 C2908 1.478 . S
C2907 H2901 0.930 . S
C2907 C2903 1.400 . S
C2907 C2906 1.385 . S
C2908 C2906 1.478 . S
C2908 C2910 1.381 . S
C2908 C2914 1.383 . S
C2909 C2905 1.495 . S
C2909 H2915 0.959 . S
C2909 H2916 0.961 . S
C2909 H2917 0.960 . S
C2910 C2908 1.381 . S
C2910 C2911 1.394 . S
C2910 H2918 0.930 . S
C2911 C2910 1.394 . S
C2911 C2912 1.383 . S
C2911 H2919 0.929 . S
C2912 C2911 1.383 . S
C2912 C2913 1.377 . S
C2913 H2897 0.930 . S
C2913 C2912 1.377 . S
C2913 C2914 1.379 . S
C2914 H2898 0.931 . S
C2914 C2908 1.383 . S
C2914 C2913 1.379 . S
H2915 C2909 0.959 . S
H2916 C2909 0.961 . S
H2917 C2909 0.960 . S
H2918 C2910 0.930 . S
H2919 C2911 0.929 . S
H2920 C2928 0.929 . S
H2921 C2930 0.930 . S
H2922 C2932 0.930 . S
H2923 C2935 0.929 . S
H2924 C2938 0.930 . S
H2925 C2940 0.960 . S
H2926 C2940 0.960 . S
H2927 C2940 0.960 . S
C2928 H2920 0.929 . S
C2928 C2929 1.377 . S
C2928 C2930 1.384 . S
C2929 C2928 1.377 . S
C2929 C2935 1.390 . S
C2930 H2921 0.930 . S
C2930 C2928 1.384 . S
C2930 C2931 1.372 . S
C2931 C2930 1.372 . S
C2931 C2932 1.400 . S
C2931 C2936 1.490 . S
C2932 H2922 0.930 . S
C2932 C2931 1.400 . S
C2932 C2935 1.386 . S
H2933 C2949 0.930 . S
H2934 C2950 0.931 . S
C2935 H2923 0.929 . S
C2935 C2929 1.390 . S
C2935 C2932 1.386 . S
C2936 C2931 1.490 . S
C2936 C2938 1.395 . S
C2936 C2939 1.403 . S
H2937 C2943 0.930 . S
C2938 H2924 0.930 . S
C2938 C2936 1.395 . S
C2938 C2941 1.403 . S
C2939 C2936 1.403 . S
C2939 C2940 1.524 . S
C2939 C2943 1.400 . S
C2940 H2925 0.960 . S
C2940 H2926 0.960 . S
C2940 H2927 0.960 . S
C2940 C2939 1.524 . S
C2941 C2938 1.403 . S
C2941 C2942 1.392 . S
C2941 C2945 1.495 . S
C2942 C2941 1.392 . S
C2942 C2943 1.385 . S
C2942 C2944 1.478 . S
C2943 H2937 0.930 . S
C2943 C2939 1.400 . S
C2943 C2942 1.385 . S
C2944 C2942 1.478 . S
C2944 C2946 1.381 . S
C2944 C2950 1.383 . S
C2945 C2941 1.495 . S
C2945 H2951 0.959 . S
C2945 H2952 0.961 . S
C2945 H2953 0.960 . S
C2946 C2944 1.381 . S
C2946 C2947 1.394 . S
C2946 H2954 0.930 . S
C2947 C2946 1.394 . S
C2947 C2948 1.383 . S
C2947 H2955 0.929 . S
C2948 C2947 1.383 . S
C2948 C2949 1.377 . S
C2949 H2933 0.930 . S
C2949 C2948 1.377 . S
C2949 C2950 1.379 . S
C2950 H2934 0.931 . S
C2950 C2944 1.383 . S
C2950 C2949 1.379 . S
H2951 C2945 0.959 . S
H2952 C2945 0.961 . S
H2953 C2945 0.960 . S
H2954 C2946 0.930 . S
H2955 C2947 0.929 . S
H2956 C2964 0.929 . S
H2957 C2966 0.930 . S
H2958 C2968 0.930 . S
H2959 C2971 0.929 . S
H2960 C2974 0.930 . S
H2961 C2976 0.960 . S
H2962 C2976 0.960 . S
H2963 C2976 0.960 . S
C2964 H2956 0.929 . S
C2964 C2965 1.377 . S
C2964 C2966 1.384 . S
C2965 C2964 1.377 . S
C2965 C2971 1.390 . S
C2966 H2957 0.930 . S
C2966 C2964 1.384 . S
C2966 C2967 1.372 . S
C2967 C2966 1.372 . S
C2967 C2968 1.400 . S
C2967 C2972 1.490 . S
C2968 H2958 0.930 . S
C2968 C2967 1.400 . S
C2968 C2971 1.386 . S
H2969 C2985 0.930 . S
H2970 C2986 0.931 . S
C2971 H2959 0.929 . S
C2971 C2965 1.390 . S
C2971 C2968 1.386 . S
C2972 C2967 1.490 . S
C2972 C2974 1.395 . S
C2972 C2975 1.403 . S
H2973 C2979 0.930 . S
C2974 H2960 0.930 . S
C2974 C2972 1.395 . S
C2974 C2977 1.403 . S
C2975 C2972 1.403 . S
C2975 C2976 1.524 . S
C2975 C2979 1.400 . S
C2976 H2961 0.960 . S
C2976 H2962 0.960 . S
C2976 H2963 0.960 . S
C2976 C2975 1.524 . S
C2977 C2974 1.403 . S
C2977 C2978 1.392 . S
C2977 C2981 1.495 . S
C2978 C2977 1.392 . S
C2978 C2979 1.385 . S
C2978 C2980 1.478 . S
C2979 H2973 0.930 . S
C2979 C2975 1.400 . S
C2979 C2978 1.385 . S
C2980 C2978 1.478 . S
C2980 C2982 1.381 . S
C2980 C2986 1.383 . S
C2981 C2977 1.495 . S
C2981 H2987 0.959 . S
C2981 H2988 0.961 . S
C2981 H2989 0.960 . S
C2982 C2980 1.381 . S
C2982 C2983 1.394 . S
C2982 H2990 0.930 . S
C2983 C2982 1.394 . S
C2983 C2984 1.383 . S
C2983 H2991 0.929 . S
C2984 C2983 1.383 . S
C2984 C2985 1.377 . S
C2985 H2969 0.930 . S
C2985 C2984 1.377 . S
C2985 C2986 1.379 . S
C2986 H2970 0.931 . S
C2986 C2980 1.383 . S
C2986 C2985 1.379 . S
H2987 C2981 0.959 . S
H2988 C2981 0.961 . S
H2989 C2981 0.960 . S
H2990 C2982 0.930 . S
H2991 C2983 0.929 . S
H2992 C3000 0.929 . S
H2993 C3002 0.930 . S
H2994 C3004 0.930 . S
H2995 C3007 0.929 . S
H2996 C3010 0.930 . S
H2997 C3012 0.960 . S
H2998 C3012 0.960 . S
H2999 C3012 0.960 . S
C3000 H2992 0.929 . S
C3000 C3001 1.377 . S
C3000 C3002 1.384 . S
C3001 C3000 1.377 . S
C3001 C3007 1.390 . S
C3002 H2993 0.930 . S
C3002 C3000 1.384 . S
C3002 C3003 1.372 . S
C3003 C3002 1.372 . S
C3003 C3004 1.400 . S
C3003 C3008 1.490 . S
C3004 H2994 0.930 . S
C3004 C3003 1.400 . S
C3004 C3007 1.386 . S
H3005 C3021 0.930 . S
H3006 C3022 0.931 . S
C3007 H2995 0.929 . S
C3007 C3001 1.390 . S
C3007 C3004 1.386 . S
C3008 C3003 1.490 . S
C3008 C3010 1.395 . S
C3008 C3011 1.403 . S
H3009 C3015 0.930 . S
C3010 H2996 0.930 . S
C3010 C3008 1.395 . S
C3010 C3013 1.403 . S
C3011 C3008 1.403 . S
C3011 C3012 1.524 . S
C3011 C3015 1.400 . S
C3012 H2997 0.960 . S
C3012 H2998 0.960 . S
C3012 H2999 0.960 . S
C3012 C3011 1.524 . S
C3013 C3010 1.403 . S
C3013 C3014 1.392 . S
C3013 C3017 1.495 . S
C3014 C3013 1.392 . S
C3014 C3015 1.385 . S
C3014 C3016 1.478 . S
C3015 H3009 0.930 . S
C3015 C3011 1.400 . S
C3015 C3014 1.385 . S
C3016 C3014 1.478 . S
C3016 C3018 1.381 . S
C3016 C3022 1.383 . S
C3017 C3013 1.495 . S
C3017 H3023 0.959 . S
C3017 H3024 0.961 . S
C3017 H3025 0.960 . S
C3018 C3016 1.381 . S
C3018 C3019 1.394 . S
C3018 H3026 0.930 . S
C3019 C3018 1.394 . S
C3019 C3020 1.383 . S
C3019 H3027 0.929 . S
C3020 C3019 1.383 . S
C3020 C3021 1.377 . S
C3021 H3005 0.930 . S
C3021 C3020 1.377 . S
C3021 C3022 1.379 . S
C3022 H3006 0.931 . S
C3022 C3016 1.383 . S
C3022 C3021 1.379 . S
H3023 C3017 0.959 . S
H3024 C3017 0.961 . S
H3025 C3017 0.960 . S
H3026 C3018 0.930 . S
H3027 C3019 0.929 . S
H3028 C3036 0.929 . S
H3029 C3038 0.930 . S
H3030 C3040 0.930 . S
H3031 C3043 0.929 . S
H3032 C3046 0.930 . S
H3033 C3048 0.960 . S
H3034 C3048 0.960 . S
H3035 C3048 0.960 . S
C3036 H3028 0.929 . S
C3036 C3037 1.377 . S
C3036 C3038 1.384 . S
C3037 C3036 1.377 . S
C3037 C3043 1.390 . S
C3038 H3029 0.930 . S
C3038 C3036 1.384 . S
C3038 C3039 1.372 . S
C3039 C3038 1.372 . S
C3039 C3040 1.400 . S
C3039 C3044 1.490 . S
C3040 H3030 0.930 . S
C3040 C3039 1.400 . S
C3040 C3043 1.386 . S
H3041 C3057 0.930 . S
H3042 C3058 0.931 . S
C3043 H3031 0.929 . S
C3043 C3037 1.390 . S
C3043 C3040 1.386 . S
C3044 C3039 1.490 . S
C3044 C3046 1.395 . S
C3044 C3047 1.403 . S
H3045 C3051 0.930 . S
C3046 H3032 0.930 . S
C3046 C3044 1.395 . S
C3046 C3049 1.403 . S
C3047 C3044 1.403 . S
C3047 C3048 1.524 . S
C3047 C3051 1.400 . S
C3048 H3033 0.960 . S
C3048 H3034 0.960 . S
C3048 H3035 0.960 . S
C3048 C3047 1.524 . S
C3049 C3046 1.403 . S
C3049 C3050 1.392 . S
C3049 C3053 1.495 . S
C3050 C3049 1.392 . S
C3050 C3051 1.385 . S
C3050 C3052 1.478 . S
C3051 H3045 0.930 . S
C3051 C3047 1.400 . S
C3051 C3050 1.385 . S
C3052 C3050 1.478 . S
C3052 C3054 1.381 . S
C3052 C3058 1.383 . S
C3053 C3049 1.495 . S
C3053 H3059 0.959 . S
C3053 H3060 0.961 . S
C3053 H3061 0.960 . S
C3054 C3052 1.381 . S
C3054 C3055 1.394 . S
C3054 H3062 0.930 . S
C3055 C3054 1.394 . S
C3055 C3056 1.383 . S
C3055 H3063 0.929 . S
C3056 C3055 1.383 . S
C3056 C3057 1.377 . S
C3057 H3041 0.930 . S
C3057 C3056 1.377 . S
C3057 C3058 1.379 . S
C3058 H3042 0.931 . S
C3058 C3052 1.383 . S
C3058 C3057 1.379 . S
H3059 C3053 0.959 . S
H3060 C3053 0.961 . S
H3061 C3053 0.960 . S
H3062 C3054 0.930 . S
H3063 C3055 0.929 . S
H3064 C3072 0.929 . S
H3065 C3074 0.930 . S
H3066 C3076 0.930 . S
H3067 C3079 0.929 . S
H3068 C3082 0.930 . S
H3069 C3084 0.960 . S
H3070 C3084 0.960 . S
H3071 C3084 0.960 . S
C3072 H3064 0.929 . S
C3072 C3073 1.377 . S
C3072 C3074 1.384 . S
C3073 C3072 1.377 . S
C3073 C3079 1.390 . S
C3074 H3065 0.930 . S
C3074 C3072 1.384 . S
C3074 C3075 1.372 . S
C3075 C3074 1.372 . S
C3075 C3076 1.400 . S
C3075 C3080 1.490 . S
C3076 H3066 0.930 . S
C3076 C3075 1.400 . S
C3076 C3079 1.386 . S
H3077 C3093 0.930 . S
H3078 C3094 0.931 . S
C3079 H3067 0.929 . S
C3079 C3073 1.390 . S
C3079 C3076 1.386 . S
C3080 C3075 1.490 . S
C3080 C3082 1.395 . S
C3080 C3083 1.403 . S
H3081 C3087 0.930 . S
C3082 H3068 0.930 . S
C3082 C3080 1.395 . S
C3082 C3085 1.403 . S
C3083 C3080 1.403 . S
C3083 C3084 1.524 . S
C3083 C3087 1.400 . S
C3084 H3069 0.960 . S
C3084 H3070 0.960 . S
C3084 H3071 0.960 . S
C3084 C3083 1.524 . S
C3085 C3082 1.403 . S
C3085 C3086 1.392 . S
C3085 C3089 1.495 . S
C3086 C3085 1.392 . S
C3086 C3087 1.385 . S
C3086 C3088 1.478 . S
C3087 H3081 0.930 . S
C3087 C3083 1.400 . S
C3087 C3086 1.385 . S
C3088 C3086 1.478 . S
C3088 C3090 1.381 . S
C3088 C3094 1.383 . S
C3089 C3085 1.495 . S
C3089 H3095 0.959 . S
C3089 H3096 0.961 . S
C3089 H3097 0.960 . S
C3090 C3088 1.381 . S
C3090 C3091 1.394 . S
C3090 H3098 0.930 . S
C3091 C3090 1.394 . S
C3091 C3092 1.383 . S
C3091 H3099 0.929 . S
C3092 C3091 1.383 . S
C3092 C3093 1.377 . S
C3093 H3077 0.930 . S
C3093 C3092 1.377 . S
C3093 C3094 1.379 . S
C3094 H3078 0.931 . S
C3094 C3088 1.383 . S
C3094 C3093 1.379 . S
H3095 C3089 0.959 . S
H3096 C3089 0.961 . S
H3097 C3089 0.960 . S
H3098 C3090 0.930 . S
H3099 C3091 0.929 . S
H3100 C3108 0.929 . S
H3101 C3110 0.930 . S
H3102 C3112 0.930 . S
H3103 C3115 0.929 . S
H3104 C3118 0.930 . S
H3105 C3120 0.960 . S
H3106 C3120 0.960 . S
H3107 C3120 0.960 . S
C3108 H3100 0.929 . S
C3108 C3109 1.377 . S
C3108 C3110 1.384 . S
C3109 C3108 1.377 . S
C3109 C3115 1.390 . S
C3110 H3101 0.930 . S
C3110 C3108 1.384 . S
C3110 C3111 1.372 . S
C3111 C3110 1.372 . S
C3111 C3112 1.400 . S
C3111 C3116 1.490 . S
C3112 H3102 0.930 . S
C3112 C3111 1.400 . S
C3112 C3115 1.386 . S
H3113 C3129 0.930 . S
H3114 C3130 0.931 . S
C3115 H3103 0.929 . S
C3115 C3109 1.390 . S
C3115 C3112 1.386 . S
C3116 C3111 1.490 . S
C3116 C3118 1.395 . S
C3116 C3119 1.403 . S
H3117 C3123 0.930 . S
C3118 H3104 0.930 . S
C3118 C3116 1.395 . S
C3118 C3121 1.403 . S
C3119 C3116 1.403 . S
C3119 C3120 1.524 . S
C3119 C3123 1.400 . S
C3120 H3105 0.960 . S
C3120 H3106 0.960 . S
C3120 H3107 0.960 . S
C3120 C3119 1.524 . S
C3121 C3118 1.403 . S
C3121 C3122 1.392 . S
C3121 C3125 1.495 . S
C3122 C3121 1.392 . S
C3122 C3123 1.385 . S
C3122 C3124 1.478 . S
C3123 H3117 0.930 . S
C3123 C3119 1.400 . S
C3123 C3122 1.385 . S
C3124 C3122 1.478 . S
C3124 C3126 1.381 . S
C3124 C3130 1.383 . S
C3125 C3121 1.495 . S
C3125 H3131 0.959 . S
C3125 H3132 0.961 . S
C3125 H3133 0.960 . S
C3126 C3124 1.381 . S
C3126 C3127 1.394 . S
C3126 H3134 0.930 . S
C3127 C3126 1.394 . S
C3127 C3128 1.383 . S
C3127 H3135 0.929 . S
C3128 C3127 1.383 . S
C3128 C3129 1.377 . S
C3129 H3113 0.930 . S
C3129 C3128 1.377 . S
C3129 C3130 1.379 . S
C3130 H3114 0.931 . S
C3130 C3124 1.383 . S
C3130 C3129 1.379 . S
H3131 C3125 0.959 . S
H3132 C3125 0.961 . S
H3133 C3125 0.960 . S
H3134 C3126 0.930 . S
H3135 C3127 0.929 . S
H3136 C3144 0.929 . S
H3137 C3146 0.930 . S
H3138 C3148 0.930 . S
H3139 C3151 0.929 . S
H3140 C3154 0.930 . S
H3141 C3156 0.960 . S
H3142 C3156 0.960 . S
H3143 C3156 0.960 . S
C3144 H3136 0.929 . S
C3144 C3145 1.377 . S
C3144 C3146 1.384 . S
C3145 C3144 1.377 . S
C3145 C3151 1.390 . S
C3146 H3137 0.930 . S
C3146 C3144 1.384 . S
C3146 C3147 1.372 . S
C3147 C3146 1.372 . S
C3147 C3148 1.400 . S
C3147 C3152 1.490 . S
C3148 H3138 0.930 . S
C3148 C3147 1.400 . S
C3148 C3151 1.386 . S
H3149 C3165 0.930 . S
H3150 C3166 0.931 . S
C3151 H3139 0.929 . S
C3151 C3145 1.390 . S
C3151 C3148 1.386 . S
C3152 C3147 1.490 . S
C3152 C3154 1.395 . S
C3152 C3155 1.403 . S
H3153 C3159 0.930 . S
C3154 H3140 0.930 . S
C3154 C3152 1.395 . S
C3154 C3157 1.403 . S
C3155 C3152 1.403 . S
C3155 C3156 1.524 . S
C3155 C3159 1.400 . S
C3156 H3141 0.960 . S
C3156 H3142 0.960 . S
C3156 H3143 0.960 . S
C3156 C3155 1.524 . S
C3157 C3154 1.403 . S
C3157 C3158 1.392 . S
C3157 C3161 1.495 . S
C3158 C3157 1.392 . S
C3158 C3159 1.385 . S
C3158 C3160 1.478 . S
C3159 H3153 0.930 . S
C3159 C3155 1.400 . S
C3159 C3158 1.385 . S
C3160 C3158 1.478 . S
C3160 C3162 1.381 . S
C3160 C3166 1.383 . S
C3161 C3157 1.495 . S
C3161 H3167 0.959 . S
C3161 H3168 0.961 . S
C3161 H3169 0.960 . S
C3162 C3160 1.381 . S
C3162 C3163 1.394 . S
C3162 H3170 0.930 . S
C3163 C3162 1.394 . S
C3163 C3164 1.383 . S
C3163 H3171 0.929 . S
C3164 C3163 1.383 . S
C3164 C3165 1.377 . S
C3165 H3149 0.930 . S
C3165 C3164 1.377 . S
C3165 C3166 1.379 . S
C3166 H3150 0.931 . S
C3166 C3160 1.383 . S
C3166 C3165 1.379 . S
H3167 C3161 0.959 . S
H3168 C3161 0.961 . S
H3169 C3161 0.960 . S
H3170 C3162 0.930 . S
H3171 C3163 0.929 . S
H3172 C3180 0.929 . S
H3173 C3182 0.930 . S
H3174 C3184 0.930 . S
H3175 C3187 0.929 . S
H3176 C3190 0.930 . S
H3177 C3192 0.960 . S
H3178 C3192 0.960 . S
H3179 C3192 0.960 . S
C3180 H3172 0.929 . S
C3180 C3181 1.377 . S
C3180 C3182 1.384 . S
C3181 C3180 1.377 . S
C3181 C3187 1.390 . S
C3182 H3173 0.930 . S
C3182 C3180 1.384 . S
C3182 C3183 1.372 . S
C3183 C3182 1.372 . S
C3183 C3184 1.400 . S
C3183 C3188 1.490 . S
C3184 H3174 0.930 . S
C3184 C3183 1.400 . S
C3184 C3187 1.386 . S
H3185 C3201 0.930 . S
H3186 C3202 0.931 . S
C3187 H3175 0.929 . S
C3187 C3181 1.390 . S
C3187 C3184 1.386 . S
C3188 C3183 1.490 . S
C3188 C3190 1.395 . S
C3188 C3191 1.403 . S
H3189 C3195 0.930 . S
C3190 H3176 0.930 . S
C3190 C3188 1.395 . S
C3190 C3193 1.403 . S
C3191 C3188 1.403 . S
C3191 C3192 1.524 . S
C3191 C3195 1.400 . S
C3192 H3177 0.960 . S
C3192 H3178 0.960 . S
C3192 H3179 0.960 . S
C3192 C3191 1.524 . S
C3193 C3190 1.403 . S
C3193 C3194 1.392 . S
C3193 C3197 1.495 . S
C3194 C3193 1.392 . S
C3194 C3195 1.385 . S
C3194 C3196 1.478 . S
C3195 H3189 0.930 . S
C3195 C3191 1.400 . S
C3195 C3194 1.385 . S
C3196 C3194 1.478 . S
C3196 C3198 1.381 . S
C3196 C3202 1.383 . S
C3197 C3193 1.495 . S
C3197 H3203 0.959 . S
C3197 H3204 0.961 . S
C3197 H3205 0.960 . S
C3198 C3196 1.381 . S
C3198 C3199 1.394 . S
C3198 H3206 0.930 . S
C3199 C3198 1.394 . S
C3199 C3200 1.383 . S
C3199 H3207 0.929 . S
C3200 C3199 1.383 . S
C3200 C3201 1.377 . S
C3201 H3185 0.930 . S
C3201 C3200 1.377 . S
C3201 C3202 1.379 . S
C3202 H3186 0.931 . S
C3202 C3196 1.383 . S
C3202 C3201 1.379 . S
H3203 C3197 0.959 . S
H3204 C3197 0.961 . S
H3205 C3197 0.960 . S
H3206 C3198 0.930 . S
H3207 C3199 0.929 . S
H3208 C3216 0.929 . S
H3209 C3218 0.930 . S
H3210 C3220 0.930 . S
H3211 C3223 0.929 . S
H3212 C3226 0.930 . S
H3213 C3228 0.960 . S
H3214 C3228 0.960 . S
H3215 C3228 0.960 . S
C3216 H3208 0.929 . S
C3216 C3217 1.377 . S
C3216 C3218 1.384 . S
C3217 C3216 1.377 . S
C3217 C3223 1.390 . S
C3218 H3209 0.930 . S
C3218 C3216 1.384 . S
C3218 C3219 1.372 . S
C3219 C3218 1.372 . S
C3219 C3220 1.400 . S
C3219 C3224 1.490 . S
C3220 H3210 0.930 . S
C3220 C3219 1.400 . S
C3220 C3223 1.386 . S
H3221 C3237 0.930 . S
H3222 C3238 0.931 . S
C3223 H3211 0.929 . S
C3223 C3217 1.390 . S
C3223 C3220 1.386 . S
C3224 C3219 1.490 . S
C3224 C3226 1.395 . S
C3224 C3227 1.403 . S
H3225 C3231 0.930 . S
C3226 H3212 0.930 . S
C3226 C3224 1.395 . S
C3226 C3229 1.403 . S
C3227 C3224 1.403 . S
C3227 C3228 1.524 . S
C3227 C3231 1.400 . S
C3228 H3213 0.960 . S
C3228 H3214 0.960 . S
C3228 H3215 0.960 . S
C3228 C3227 1.524 . S
C3229 C3226 1.403 . S
C3229 C3230 1.392 . S
C3229 C3233 1.495 . S
C3230 C3229 1.392 . S
C3230 C3231 1.385 . S
C3230 C3232 1.478 . S
C3231 H3225 0.930 . S
C3231 C3227 1.400 . S
C3231 C3230 1.385 . S
C3232 C3230 1.478 . S
C3232 C3234 1.381 . S
C3232 C3238 1.383 . S
C3233 C3229 1.495 . S
C3233 H3239 0.959 . S
C3233 H3240 0.961 . S
C3233 H3241 0.960 . S
C3234 C3232 1.381 . S
C3234 C3235 1.394 . S
C3234 H3242 0.930 . S
C3235 C3234 1.394 . S
C3235 C3236 1.383 . S
C3235 H3243 0.929 . S
C3236 C3235 1.383 . S
C3236 C3237 1.377 . S
C3237 H3221 0.930 . S
C3237 C3236 1.377 . S
C3237 C3238 1.379 . S
C3238 H3222 0.931 . S
C3238 C3232 1.383 . S
C3238 C3237 1.379 . S
H3239 C3233 0.959 . S
H3240 C3233 0.961 . S
H3241 C3233 0.960 . S
H3242 C3234 0.930 . S
H3243 C3235 0.929 . S
H3244 C3252 0.929 . S
H3245 C3254 0.930 . S
H3246 C3256 0.930 . S
H3247 C3259 0.929 . S
H3248 C3262 0.930 . S
H3249 C3264 0.960 . S
H3250 C3264 0.960 . S
H3251 C3264 0.960 . S
C3252 H3244 0.929 . S
C3252 C3253 1.377 . S
C3252 C3254 1.384 . S
C3253 C3252 1.377 . S
C3253 C3259 1.390 . S
C3254 H3245 0.930 . S
C3254 C3252 1.384 . S
C3254 C3255 1.372 . S
C3255 C3254 1.372 . S
C3255 C3256 1.400 . S
C3255 C3260 1.490 . S
C3256 H3246 0.930 . S
C3256 C3255 1.400 . S
C3256 C3259 1.386 . S
H3257 C3273 0.930 . S
H3258 C3274 0.931 . S
C3259 H3247 0.929 . S
C3259 C3253 1.390 . S
C3259 C3256 1.386 . S
C3260 C3255 1.490 . S
C3260 C3262 1.395 . S
C3260 C3263 1.403 . S
H3261 C3267 0.930 . S
C3262 H3248 0.930 . S
C3262 C3260 1.395 . S
C3262 C3265 1.403 1_655 S
C3263 C3260 1.403 . S
C3263 C3264 1.524 . S
C3263 C3267 1.400 . S
C3264 H3249 0.960 . S
C3264 H3250 0.960 . S
C3264 H3251 0.960 . S
C3264 C3263 1.524 . S
C3265 C3262 1.403 1_455 S
C3265 C3266 1.392 . S
C3265 C3269 1.495 . S
C3266 C3265 1.392 . S
C3266 C3267 1.385 1_455 S
C3266 C3268 1.478 . S
C3267 H3261 0.930 . S
C3267 C3263 1.400 . S
C3267 C3266 1.385 1_655 S
C3268 C3266 1.478 . S
C3268 C3270 1.381 . S
C3268 C3274 1.383 . S
C3269 C3265 1.495 . S
C3269 H3275 0.959 . S
C3269 H3276 0.961 . S
C3269 H3277 0.960 . S
C3270 C3268 1.381 . S
C3270 C3271 1.394 . S
C3270 H3278 0.930 . S
C3271 C3270 1.394 . S
C3271 C3272 1.383 . S
C3271 H3279 0.929 . S
C3272 C3271 1.383 . S
C3272 C3273 1.377 . S
C3273 H3257 0.930 . S
C3273 C3272 1.377 . S
C3273 C3274 1.379 . S
C3274 H3258 0.931 . S
C3274 C3268 1.383 . S
C3274 C3273 1.379 . S
H3275 C3269 0.959 . S
H3276 C3269 0.961 . S
H3277 C3269 0.960 . S
H3278 C3270 0.930 . S
H3279 C3271 0.929 . S
H3280 C3288 0.929 . S
H3281 C3290 0.930 . S
H3282 C3292 0.930 . S
H3283 C3295 0.929 . S
H3284 C3298 0.930 . S
H3285 C3300 0.960 . S
H3286 C3300 0.960 . S
H3287 C3300 0.960 . S
C3288 H3280 0.929 . S
C3288 C3289 1.377 . S
C3288 C3290 1.384 . S
C3289 C3288 1.377 . S
C3289 C3295 1.390 . S
C3290 H3281 0.930 . S
C3290 C3288 1.384 . S
C3290 C3291 1.372 . S
C3291 C3290 1.372 . S
C3291 C3292 1.400 . S
C3291 C3296 1.490 . S
C3292 H3282 0.930 . S
C3292 C3291 1.400 . S
C3292 C3295 1.386 . S
H3293 C3309 0.930 . S
H3294 C3310 0.931 . S
C3295 H3283 0.929 . S
C3295 C3289 1.390 . S
C3295 C3292 1.386 . S
C3296 C3291 1.490 . S
C3296 C3298 1.395 . S
C3296 C3299 1.403 . S
H3297 C3303 0.930 . S
C3298 H3284 0.930 . S
C3298 C3296 1.395 . S
C3298 C3301 1.403 . S
C3299 C3296 1.403 . S
C3299 C3300 1.524 . S
C3299 C3303 1.400 . S
C3300 H3285 0.960 . S
C3300 H3286 0.960 . S
C3300 H3287 0.960 . S
C3300 C3299 1.524 . S
C3301 C3298 1.403 . S
C3301 C3302 1.392 . S
C3301 C3305 1.495 . S
C3302 C3301 1.392 . S
C3302 C3303 1.385 . S
C3302 C3304 1.478 . S
C3303 H3297 0.930 . S
C3303 C3299 1.400 . S
C3303 C3302 1.385 . S
C3304 C3302 1.478 . S
C3304 C3306 1.381 . S
C3304 C3310 1.383 . S
C3305 C3301 1.495 . S
C3305 H3311 0.959 . S
C3305 H3312 0.961 . S
C3305 H3313 0.960 . S
C3306 C3304 1.381 . S
C3306 C3307 1.394 . S
C3306 H3314 0.930 . S
C3307 C3306 1.394 . S
C3307 C3308 1.383 . S
C3307 H3315 0.929 . S
C3308 C3307 1.383 . S
C3308 C3309 1.377 . S
C3309 H3293 0.930 . S
C3309 C3308 1.377 . S
C3309 C3310 1.379 . S
C3310 H3294 0.931 . S
C3310 C3304 1.383 . S
C3310 C3309 1.379 . S
H3311 C3305 0.959 . S
H3312 C3305 0.961 . S
H3313 C3305 0.960 . S
H3314 C3306 0.930 . S
H3315 C3307 0.929 . S
H3316 C3324 0.929 . S
H3317 C3326 0.930 . S
H3318 C3328 0.930 . S
H3319 C3331 0.929 . S
H3320 C3334 0.930 . S
H3321 C3336 0.960 . S
H3322 C3336 0.960 . S
H3323 C3336 0.960 . S
C3324 H3316 0.929 . S
C3324 C3325 1.377 . S
C3324 C3326 1.384 . S
C3325 C3324 1.377 . S
C3325 C3331 1.390 . S
C3326 H3317 0.930 . S
C3326 C3324 1.384 . S
C3326 C3327 1.372 . S
C3327 C3326 1.372 . S
C3327 C3328 1.400 . S
C3327 C3332 1.490 . S
C3328 H3318 0.930 . S
C3328 C3327 1.400 . S
C3328 C3331 1.386 . S
H3329 C3345 0.930 . S
H3330 C3346 0.931 . S
C3331 H3319 0.929 . S
C3331 C3325 1.390 . S
C3331 C3328 1.386 . S
C3332 C3327 1.490 . S
C3332 C3334 1.395 . S
C3332 C3335 1.403 . S
H3333 C3339 0.930 . S
C3334 H3320 0.930 . S
C3334 C3332 1.395 . S
C3334 C3337 1.403 1_556 S
C3335 C3332 1.403 . S
C3335 C3336 1.524 . S
C3335 C3339 1.400 1_556 S
C3336 H3321 0.960 . S
C3336 H3322 0.960 . S
C3336 H3323 0.960 . S
C3336 C3335 1.524 . S
C3337 C3334 1.403 1_554 S
C3337 C3338 1.392 . S
C3337 C3341 1.495 . S
C3338 C3337 1.392 . S
C3338 C3339 1.385 . S
C3338 C3340 1.478 . S
C3339 H3333 0.930 . S
C3339 C3335 1.400 1_554 S
C3339 C3338 1.385 . S
C3340 C3338 1.478 . S
C3340 C3342 1.381 . S
C3340 C3346 1.383 . S
C3341 C3337 1.495 . S
C3341 H3347 0.959 1_554 S
C3341 H3348 0.961 . S
C3341 H3349 0.960 . S
C3342 C3340 1.381 . S
C3342 C3343 1.394 . S
C3342 H3350 0.930 . S
C3343 C3342 1.394 . S
C3343 C3344 1.383 . S
C3343 H3351 0.929 . S
C3344 C3343 1.383 . S
C3344 C3345 1.377 . S
C3345 H3329 0.930 . S
C3345 C3344 1.377 . S
C3345 C3346 1.379 . S
C3346 H3330 0.931 . S
C3346 C3340 1.383 . S
C3346 C3345 1.379 . S
H3347 C3341 0.959 1_556 S
H3348 C3341 0.961 . S
H3349 C3341 0.960 . S
H3350 C3342 0.930 . S
H3351 C3343 0.929 . S
H3352 C3360 0.929 . S
H3353 C3362 0.930 . S
H3354 C3364 0.930 . S
H3355 C3367 0.929 . S
H3356 C3370 0.930 . S
H3357 C3372 0.960 . S
H3358 C3372 0.960 . S
H3359 C3372 0.960 . S
C3360 H3352 0.929 . S
C3360 C3361 1.377 . S
C3360 C3362 1.384 . S
C3361 C3360 1.377 . S
C3361 C3367 1.390 . S
C3362 H3353 0.930 . S
C3362 C3360 1.384 . S
C3362 C3363 1.372 . S
C3363 C3362 1.372 . S
C3363 C3364 1.400 . S
C3363 C3368 1.490 . S
C3364 H3354 0.930 . S
C3364 C3363 1.400 . S
C3364 C3367 1.386 . S
H3365 C3381 0.930 . S
H3366 C3382 0.931 . S
C3367 H3355 0.929 . S
C3367 C3361 1.390 . S
C3367 C3364 1.386 . S
C3368 C3363 1.490 . S
C3368 C3370 1.395 . S
C3368 C3371 1.403 . S
H3369 C3375 0.930 . S
C3370 H3356 0.930 . S
C3370 C3368 1.395 . S
C3370 C3373 1.403 . S
C3371 C3368 1.403 . S
C3371 C3372 1.524 . S
C3371 C3375 1.400 . S
C3372 H3357 0.960 . S
C3372 H3358 0.960 . S
C3372 H3359 0.960 . S
C3372 C3371 1.524 . S
C3373 C3370 1.403 . S
C3373 C3374 1.392 . S
C3373 C3377 1.495 . S
C3374 C3373 1.392 . S
C3374 C3375 1.385 . S
C3374 C3376 1.478 . S
C3375 H3369 0.930 . S
C3375 C3371 1.400 . S
C3375 C3374 1.385 . S
C3376 C3374 1.478 . S
C3376 C3378 1.381 . S
C3376 C3382 1.383 . S
C3377 C3373 1.495 . S
C3377 H3383 0.959 . S
C3377 H3384 0.961 . S
C3377 H3385 0.960 . S
C3378 C3376 1.381 . S
C3378 C3379 1.394 . S
C3378 H3386 0.930 . S
C3379 C3378 1.394 . S
C3379 C3380 1.383 . S
C3379 H3387 0.929 . S
C3380 C3379 1.383 . S
C3380 C3381 1.377 . S
C3381 H3365 0.930 . S
C3381 C3380 1.377 . S
C3381 C3382 1.379 . S
C3382 H3366 0.931 . S
C3382 C3376 1.383 . S
C3382 C3381 1.379 . S
H3383 C3377 0.959 . S
H3384 C3377 0.961 . S
H3385 C3377 0.960 . S
H3386 C3378 0.930 . S
H3387 C3379 0.929 . S
H3388 C3396 0.921 1_655 S
H3389 C3398 0.930 . S
H3390 C3400 0.930 . S
H3391 C3403 0.929 . S
H3392 C3406 0.930 . S
H3393 C3408 0.960 . S
H3394 C3408 0.960 . S
H3395 C3408 0.960 . S
C3396 H3388 0.921 1_455 S
C3396 C3397 1.377 . S
C3396 C3398 1.384 . S
C3397 C3396 1.377 . S
C3397 C3403 1.390 . S
C3398 H3389 0.930 . S
C3398 C3396 1.384 . S
C3398 C3399 1.372 . S
C3399 C3398 1.372 . S
C3399 C3400 1.400 . S
C3399 C3404 1.490 . S
C3400 H3390 0.930 . S
C3400 C3399 1.400 . S
C3400 C3403 1.386 . S
H3401 C3417 0.930 . S
H3402 C3418 0.931 . S
C3403 H3391 0.929 . S
C3403 C3397 1.390 . S
C3403 C3400 1.386 . S
C3404 C3399 1.490 . S
C3404 C3406 1.395 . S
C3404 C3407 1.403 . S
H3405 C3411 0.930 . S
C3406 H3392 0.930 . S
C3406 C3404 1.395 . S
C3406 C3409 1.403 . S
C3407 C3404 1.403 . S
C3407 C3408 1.524 . S
C3407 C3411 1.400 . S
C3408 H3393 0.960 . S
C3408 H3394 0.960 . S
C3408 H3395 0.960 . S
C3408 C3407 1.524 . S
C3409 C3406 1.403 . S
C3409 C3410 1.392 . S
C3409 C3413 1.495 . S
C3410 C3409 1.392 . S
C3410 C3411 1.385 . S
C3410 C3412 1.478 . S
C3411 H3405 0.930 . S
C3411 C3407 1.400 . S
C3411 C3410 1.385 . S
C3412 C3410 1.478 . S
C3412 C3414 1.381 . S
C3412 C3418 1.383 . S
C3413 C3409 1.495 . S
C3413 H3419 0.959 . S
C3413 H3420 0.961 . S
C3413 H3421 0.960 . S
C3414 C3412 1.381 . S
C3414 C3415 1.394 . S
C3414 H3422 0.930 . S
C3415 C3414 1.394 . S
C3415 C3416 1.383 . S
C3415 H3423 0.929 . S
C3416 C3415 1.383 . S
C3416 C3417 1.377 . S
C3417 H3401 0.930 . S
C3417 C3416 1.377 . S
C3417 C3418 1.379 . S
C3418 H3402 0.931 . S
C3418 C3412 1.383 . S
C3418 C3417 1.379 . S
H3419 C3413 0.959 . S
H3420 C3413 0.961 . S
H3421 C3413 0.960 . S
H3422 C3414 0.930 . S
H3423 C3415 0.929 . S
H3424 C3432 0.929 . S
H3425 C3434 0.930 . S
H3426 C3436 0.930 . S
H3427 C3439 0.929 . S
H3428 C3442 0.930 . S
H3429 C3444 0.960 . S
H3430 C3444 0.960 . S
H3431 C3444 0.960 . S
C3432 H3424 0.929 . S
C3432 C3433 1.377 . S
C3432 C3434 1.384 . S
C3433 C3432 1.377 . S
C3433 C3439 1.390 . S
C3434 H3425 0.930 . S
C3434 C3432 1.384 . S
C3434 C3435 1.372 . S
C3435 C3434 1.372 . S
C3435 C3436 1.400 . S
C3435 C3440 1.490 . S
C3436 H3426 0.930 . S
C3436 C3435 1.400 . S
C3436 C3439 1.386 . S
H3437 C3453 0.930 . S
H3438 C3454 0.931 . S
C3439 H3427 0.929 . S
C3439 C3433 1.390 . S
C3439 C3436 1.386 . S
C3440 C3435 1.490 . S
C3440 C3442 1.395 . S
C3440 C3443 1.403 . S
H3441 C3447 0.930 . S
C3442 H3428 0.930 . S
C3442 C3440 1.395 . S
C3442 C3445 1.403 . S
C3443 C3440 1.403 . S
C3443 C3444 1.524 . S
C3443 C3447 1.400 . S
C3444 H3429 0.960 . S
C3444 H3430 0.960 . S
C3444 H3431 0.960 . S
C3444 C3443 1.524 . S
C3445 C3442 1.403 . S
C3445 C3446 1.392 . S
C3445 C3449 1.495 . S
C3446 C3445 1.392 . S
C3446 C3447 1.385 . S
C3446 C3448 1.478 . S
C3447 H3441 0.930 . S
C3447 C3443 1.400 . S
C3447 C3446 1.385 . S
C3448 C3446 1.478 . S
C3448 C3450 1.381 . S
C3448 C3454 1.383 . S
C3449 C3445 1.495 . S
C3449 H3455 0.959 . S
C3449 H3456 0.961 . S
C3449 H3457 0.960 . S
C3450 C3448 1.381 . S
C3450 C3451 1.394 . S
C3450 H3458 0.930 . S
C3451 C3450 1.394 . S
C3451 C3452 1.383 . S
C3451 H3459 0.929 . S
C3452 C3451 1.383 . S
C3452 C3453 1.377 . S
C3453 H3437 0.930 . S
C3453 C3452 1.377 . S
C3453 C3454 1.379 . S
C3454 H3438 0.931 . S
C3454 C3448 1.383 . S
C3454 C3453 1.379 . S
H3455 C3449 0.959 . S
H3456 C3449 0.961 . S
H3457 C3449 0.960 . S
H3458 C3450 0.930 . S
H3459 C3451 0.929 . S
H3460 C3468 0.929 . S
H3461 C3470 0.930 . S
H3462 C3472 0.930 . S
H3463 C3475 0.929 . S
H3464 C3478 0.930 . S
H3465 C3480 0.960 . S
H3466 C3480 0.960 . S
H3467 C3480 0.960 . S
C3468 H3460 0.929 . S
C3468 C3469 1.377 . S
C3468 C3470 1.384 . S
C3469 C3468 1.377 . S
C3469 C3475 1.390 . S
C3470 H3461 0.930 . S
C3470 C3468 1.384 . S
C3470 C3471 1.372 . S
C3471 C3470 1.372 . S
C3471 C3472 1.400 . S
C3471 C3476 1.490 . S
C3472 H3462 0.930 . S
C3472 C3471 1.400 . S
C3472 C3475 1.386 . S
H3473 C3489 0.930 . S
H3474 C3490 0.931 . S
C3475 H3463 0.929 . S
C3475 C3469 1.390 . S
C3475 C3472 1.386 . S
C3476 C3471 1.490 . S
C3476 C3478 1.395 . S
C3476 C3479 1.403 . S
H3477 C3483 0.930 . S
C3478 H3464 0.930 . S
C3478 C3476 1.395 . S
C3478 C3481 1.426 . S
C3479 C3476 1.403 . S
C3479 C3480 1.524 . S
C3479 C3483 1.400 . S
C3480 H3465 0.960 . S
C3480 H3466 0.960 . S
C3480 H3467 0.960 . S
C3480 C3479 1.524 . S
C3481 C3478 1.426 . S
C3481 C3482 1.389 1_554 S
C3481 C3485 1.478 1_554 S
C3482 C3481 1.389 1_556 S
C3482 C3483 1.385 1_556 S
C3482 C3484 1.478 . S
C3483 H3477 0.930 . S
C3483 C3479 1.400 . S
C3483 C3482 1.385 1_554 S
C3484 C3482 1.478 . S
C3484 C3486 1.381 . S
C3484 C3490 1.383 . S
C3485 C3481 1.478 1_556 S
C3485 H3491 0.959 . S
C3485 H3492 0.961 . S
C3485 H3493 0.960 . S
C3486 C3484 1.381 . S
C3486 C3487 1.394 . S
C3486 H3494 0.930 . S
C3487 C3486 1.394 . S
C3487 C3488 1.383 . S
C3487 H3495 0.929 . S
C3488 C3487 1.383 . S
C3488 C3489 1.377 . S
C3489 H3473 0.930 . S
C3489 C3488 1.377 . S
C3489 C3490 1.379 . S
C3490 H3474 0.931 . S
C3490 C3484 1.383 . S
C3490 C3489 1.379 . S
H3491 C3485 0.959 . S
H3492 C3485 0.961 . S
H3493 C3485 0.960 . S
H3494 C3486 0.930 . S
H3495 C3487 0.929 . S
H3496 C3504 0.929 . S
H3497 C3506 0.930 . S
H3498 C3508 0.930 . S
H3499 C3511 0.929 . S
H3500 C3514 0.930 . S
H3501 C3516 0.960 . S
H3502 C3516 0.960 . S
H3503 C3516 0.960 . S
C3504 H3496 0.929 . S
C3504 C3505 1.377 . S
C3504 C3506 1.384 . S
C3505 C3504 1.377 . S
C3505 C3511 1.390 . S
C3506 H3497 0.930 . S
C3506 C3504 1.384 . S
C3506 C3507 1.372 . S
C3507 C3506 1.372 . S
C3507 C3508 1.400 . S
C3507 C3512 1.490 . S
C3508 H3498 0.930 . S
C3508 C3507 1.400 . S
C3508 C3511 1.386 . S
H3509 C3525 0.930 . S
H3510 C3526 0.931 . S
C3511 H3499 0.929 . S
C3511 C3505 1.390 . S
C3511 C3508 1.386 . S
C3512 C3507 1.490 . S
C3512 C3514 1.395 . S
C3512 C3515 1.403 . S
H3513 C3519 0.930 . S
C3514 H3500 0.930 . S
C3514 C3512 1.395 . S
C3514 C3517 1.403 . S
C3515 C3512 1.403 . S
C3515 C3516 1.524 . S
C3515 C3519 1.400 . S
C3516 H3501 0.960 . S
C3516 H3502 0.960 . S
C3516 H3503 0.960 . S
C3516 C3515 1.524 . S
C3517 C3514 1.403 . S
C3517 C3518 1.392 . S
C3517 C3521 1.495 . S
C3518 C3517 1.392 . S
C3518 C3519 1.385 . S
C3518 C3520 1.478 . S
C3519 H3513 0.930 . S
C3519 C3515 1.400 . S
C3519 C3518 1.385 . S
C3520 C3518 1.478 . S
C3520 C3522 1.381 . S
C3520 C3526 1.383 . S
C3521 C3517 1.495 . S
C3521 H3527 0.959 . S
C3521 H3528 0.961 . S
C3521 H3529 0.960 . S
C3522 C3520 1.381 . S
C3522 C3523 1.394 . S
C3522 H3530 0.930 . S
C3523 C3522 1.394 . S
C3523 C3524 1.383 . S
C3523 H3531 0.929 . S
C3524 C3523 1.383 . S
C3524 C3525 1.377 . S
C3525 H3509 0.930 . S
C3525 C3524 1.377 . S
C3525 C3526 1.379 . S
C3526 H3510 0.931 . S
C3526 C3520 1.383 . S
C3526 C3525 1.379 . S
H3527 C3521 0.959 . S
H3528 C3521 0.961 . S
H3529 C3521 0.960 . S
H3530 C3522 0.930 . S
H3531 C3523 0.929 . S
H3532 C3540 0.929 . S
H3533 C3542 0.930 . S
H3534 C3544 0.930 . S
H3535 C3547 0.929 . S
H3536 C3550 0.930 . S
H3537 C3552 0.960 . S
H3538 C3552 0.960 . S
H3539 C3552 0.960 . S
C3540 H3532 0.929 . S
C3540 C3541 1.377 . S
C3540 C3542 1.384 . S
C3541 C3540 1.377 . S
C3541 C3547 1.390 . S
C3542 H3533 0.930 . S
C3542 C3540 1.384 . S
C3542 C3543 1.372 . S
C3543 C3542 1.372 . S
C3543 C3544 1.400 . S
C3543 C3548 1.490 . S
C3544 H3534 0.930 . S
C3544 C3543 1.400 . S
C3544 C3547 1.386 . S
H3545 C3561 0.930 . S
H3546 C3562 0.931 . S
C3547 H3535 0.929 . S
C3547 C3541 1.390 . S
C3547 C3544 1.386 . S
C3548 C3543 1.490 . S
C3548 C3550 1.395 . S
C3548 C3551 1.403 . S
H3549 C3555 0.930 . S
C3550 H3536 0.930 . S
C3550 C3548 1.395 . S
C3550 C3553 1.403 . S
C3551 C3548 1.403 . S
C3551 C3552 1.524 . S
C3551 C3555 1.400 . S
C3552 H3537 0.960 . S
C3552 H3538 0.960 . S
C3552 H3539 0.960 . S
C3552 C3551 1.524 . S
C3553 C3550 1.403 . S
C3553 C3554 1.392 . S
C3553 C3557 1.495 . S
C3554 C3553 1.392 . S
C3554 C3555 1.385 . S
C3554 C3556 1.478 . S
C3555 H3549 0.930 . S
C3555 C3551 1.400 . S
C3555 C3554 1.385 . S
C3556 C3554 1.478 . S
C3556 C3558 1.381 . S
C3556 C3562 1.383 . S
C3557 C3553 1.495 . S
C3557 H3563 0.959 . S
C3557 H3564 0.961 . S
C3557 H3565 0.960 . S
C3558 C3556 1.381 . S
C3558 C3559 1.394 . S
C3558 H3566 0.930 . S
C3559 C3558 1.394 . S
C3559 C3560 1.383 . S
C3559 H3567 0.929 . S
C3560 C3559 1.383 . S
C3560 C3561 1.377 . S
C3561 H3545 0.930 . S
C3561 C3560 1.377 . S
C3561 C3562 1.379 . S
C3562 H3546 0.931 . S
C3562 C3556 1.383 . S
C3562 C3561 1.379 . S
H3563 C3557 0.959 . S
H3564 C3557 0.961 . S
H3565 C3557 0.960 . S
H3566 C3558 0.930 . S
H3567 C3559 0.929 . S
H3568 C3576 0.929 . S
H3569 C3578 0.930 . S
H3570 C3580 0.930 . S
H3571 C3583 0.929 . S
H3572 C3586 0.930 . S
H3573 C3588 0.960 . S
H3574 C3588 0.960 . S
H3575 C3588 0.960 . S
C3576 H3568 0.929 . S
C3576 C3577 1.377 . S
C3576 C3578 1.384 . S
C3577 C3576 1.377 . S
C3577 C3583 1.390 . S
C3578 H3569 0.930 . S
C3578 C3576 1.384 . S
C3578 C3579 1.372 . S
C3579 C3578 1.372 . S
C3579 C3580 1.400 . S
C3579 C3584 1.490 . S
C3580 H3570 0.930 . S
C3580 C3579 1.400 . S
C3580 C3583 1.386 . S
H3581 C3597 0.930 . S
H3582 C3598 0.931 . S
C3583 H3571 0.929 . S
C3583 C3577 1.390 . S
C3583 C3580 1.386 . S
C3584 C3579 1.490 . S
C3584 C3586 1.395 . S
C3584 C3587 1.403 . S
H3585 C3591 0.930 . S
C3586 H3572 0.930 . S
C3586 C3584 1.395 . S
C3586 C3589 1.403 . S
C3587 C3584 1.403 . S
C3587 C3588 1.524 . S
C3587 C3591 1.400 . S
C3588 H3573 0.960 . S
C3588 H3574 0.960 . S
C3588 H3575 0.960 . S
C3588 C3587 1.524 . S
C3589 C3586 1.403 . S
C3589 C3590 1.392 . S
C3589 C3593 1.495 . S
C3590 C3589 1.392 . S
C3590 C3591 1.385 . S
C3590 C3592 1.478 . S
C3591 H3585 0.930 . S
C3591 C3587 1.400 . S
C3591 C3590 1.385 . S
C3592 C3590 1.478 . S
C3592 C3594 1.381 . S
C3592 C3598 1.383 . S
C3593 C3589 1.495 . S
C3593 H3599 0.959 . S
C3593 H3600 0.961 . S
C3593 H3601 0.960 . S
C3594 C3592 1.381 . S
C3594 C3595 1.394 . S
C3594 H3602 0.930 . S
C3595 C3594 1.394 . S
C3595 C3596 1.383 . S
C3595 H3603 0.929 . S
C3596 C3595 1.383 . S
C3596 C3597 1.377 . S
C3597 H3581 0.930 . S
C3597 C3596 1.377 . S
C3597 C3598 1.379 . S
C3598 H3582 0.931 . S
C3598 C3592 1.383 . S
C3598 C3597 1.379 . S
H3599 C3593 0.959 . S
H3600 C3593 0.961 . S
H3601 C3593 0.960 . S
H3602 C3594 0.930 . S
H3603 C3595 0.929 . S
H3604 C3612 0.929 . S
H3605 C3614 0.930 . S
H3606 C3616 0.930 . S
H3607 C3619 0.929 . S
H3608 C3622 0.930 . S
H3609 C3624 0.960 . S
H3610 C3624 0.960 . S
H3611 C3624 0.960 . S
C3612 H3604 0.929 . S
C3612 C3613 1.377 . S
C3612 C3614 1.384 . S
C3613 C3612 1.377 . S
C3613 C3619 1.390 . S
C3614 H3605 0.930 . S
C3614 C3612 1.384 . S
C3614 C3615 1.372 . S
C3615 C3614 1.372 . S
C3615 C3616 1.400 . S
C3615 C3620 1.490 . S
C3616 H3606 0.930 . S
C3616 C3615 1.400 . S
C3616 C3619 1.386 . S
H3617 C3633 0.930 . S
H3618 C3634 0.931 . S
C3619 H3607 0.929 . S
C3619 C3613 1.390 . S
C3619 C3616 1.386 . S
C3620 C3615 1.490 . S
C3620 C3622 1.395 . S
C3620 C3623 1.403 . S
H3621 C3627 0.930 . S
C3622 H3608 0.930 . S
C3622 C3620 1.395 . S
C3622 C3625 1.403 . S
C3623 C3620 1.403 . S
C3623 C3624 1.524 . S
C3623 C3627 1.400 . S
C3624 H3609 0.960 . S
C3624 H3610 0.960 . S
C3624 H3611 0.960 . S
C3624 C3623 1.524 . S
C3625 C3622 1.403 . S
C3625 C3626 1.392 . S
C3625 C3629 1.495 . S
C3626 C3625 1.392 . S
C3626 C3627 1.385 . S
C3626 C3628 1.478 . S
C3627 H3621 0.930 . S
C3627 C3623 1.400 . S
C3627 C3626 1.385 . S
C3628 C3626 1.478 . S
C3628 C3630 1.381 . S
C3628 C3634 1.383 . S
C3629 C3625 1.495 . S
C3629 H3635 0.959 . S
C3629 H3636 0.961 . S
C3629 H3637 0.960 . S
C3630 C3628 1.381 . S
C3630 C3631 1.394 . S
C3630 H3638 0.930 . S
C3631 C3630 1.394 . S
C3631 C3632 1.383 . S
C3631 H3639 0.929 . S
C3632 C3631 1.383 . S
C3632 C3633 1.377 . S
C3633 H3617 0.930 . S
C3633 C3632 1.377 . S
C3633 C3634 1.379 . S
C3634 H3618 0.931 . S
C3634 C3628 1.383 . S
C3634 C3633 1.379 . S
H3635 C3629 0.959 . S
H3636 C3629 0.961 . S
H3637 C3629 0.960 . S
H3638 C3630 0.930 . S
H3639 C3631 0.929 . S
H3640 C3648 0.929 . S
H3641 C3650 0.930 . S
H3642 C3652 0.930 . S
H3643 C3655 0.929 . S
H3644 C3658 0.930 . S
H3645 C3660 0.960 . S
H3646 C3660 0.960 . S
H3647 C3660 0.960 . S
C3648 H3640 0.929 . S
C3648 C3649 1.377 . S
C3648 C3650 1.384 . S
C3649 C3648 1.377 . S
C3649 C3655 1.390 . S
C3650 H3641 0.930 . S
C3650 C3648 1.384 . S
C3650 C3651 1.372 . S
C3651 C3650 1.372 . S
C3651 C3652 1.400 . S
C3651 C3656 1.490 . S
C3652 H3642 0.930 . S
C3652 C3651 1.400 . S
C3652 C3655 1.386 . S
H3653 C3669 0.930 . S
H3654 C3670 0.931 . S
C3655 H3643 0.929 . S
C3655 C3649 1.390 . S
C3655 C3652 1.386 . S
C3656 C3651 1.490 . S
C3656 C3658 1.395 . S
C3656 C3659 1.403 . S
H3657 C3663 0.930 . S
C3658 H3644 0.930 . S
C3658 C3656 1.395 . S
C3658 C3661 1.403 . S
C3659 C3656 1.403 . S
C3659 C3660 1.524 . S
C3659 C3663 1.400 . S
C3660 H3645 0.960 . S
C3660 H3646 0.960 . S
C3660 H3647 0.960 . S
C3660 C3659 1.524 . S
C3661 C3658 1.403 . S
C3661 C3662 1.392 . S
C3661 C3665 1.495 . S
C3662 C3661 1.392 . S
C3662 C3663 1.385 . S
C3662 C3664 1.478 . S
C3663 H3657 0.930 . S
C3663 C3659 1.400 . S
C3663 C3662 1.385 . S
C3664 C3662 1.478 . S
C3664 C3666 1.381 . S
C3664 C3670 1.383 . S
C3665 C3661 1.495 . S
C3665 H3671 0.959 . S
C3665 H3672 0.961 . S
C3665 H3673 0.960 . S
C3666 C3664 1.381 . S
C3666 C3667 1.394 . S
C3666 H3674 0.930 . S
C3667 C3666 1.394 . S
C3667 C3668 1.383 . S
C3667 H3675 0.929 . S
C3668 C3667 1.383 . S
C3668 C3669 1.377 . S
C3669 H3653 0.930 . S
C3669 C3668 1.377 . S
C3669 C3670 1.379 . S
C3670 H3654 0.931 . S
C3670 C3664 1.383 . S
C3670 C3669 1.379 . S
H3671 C3665 0.959 . S
H3672 C3665 0.961 . S
H3673 C3665 0.960 . S
H3674 C3666 0.930 . S
H3675 C3667 0.929 . S
H3676 C3684 0.929 . S
H3677 C3686 0.930 . S
H3678 C3688 0.930 . S
H3679 C3691 0.929 . S
H3680 C3694 0.930 . S
H3681 C3696 0.960 . S
H3682 C3696 0.960 . S
H3683 C3696 0.960 . S
C3684 H3676 0.929 . S
C3684 C3685 1.377 . S
C3684 C3686 1.384 . S
C3685 C3684 1.377 . S
C3685 C3691 1.390 . S
C3686 H3677 0.930 . S
C3686 C3684 1.384 . S
C3686 C3687 1.372 . S
C3687 C3686 1.372 . S
C3687 C3688 1.400 . S
C3687 C3692 1.490 . S
C3688 H3678 0.930 . S
C3688 C3687 1.400 . S
C3688 C3691 1.386 . S
H3689 C3705 0.930 . S
H3690 C3706 0.931 . S
C3691 H3679 0.929 . S
C3691 C3685 1.390 . S
C3691 C3688 1.386 . S
C3692 C3687 1.490 . S
C3692 C3694 1.395 . S
C3692 C3695 1.403 . S
H3693 C3699 0.930 . S
C3694 H3680 0.930 . S
C3694 C3692 1.395 . S
C3694 C3697 1.403 . S
C3695 C3692 1.403 . S
C3695 C3696 1.524 . S
C3695 C3699 1.400 . S
C3696 H3681 0.960 . S
C3696 H3682 0.960 . S
C3696 H3683 0.960 . S
C3696 C3695 1.524 . S
C3697 C3694 1.403 . S
C3697 C3698 1.392 . S
C3697 C3701 1.495 . S
C3698 C3697 1.392 . S
C3698 C3699 1.385 . S
C3698 C3700 1.478 . S
C3699 H3693 0.930 . S
C3699 C3695 1.400 . S
C3699 C3698 1.385 . S
C3700 C3698 1.478 . S
C3700 C3702 1.381 . S
C3700 C3706 1.383 . S
C3701 C3697 1.495 . S
C3701 H3707 0.959 . S
C3701 H3708 0.961 . S
C3701 H3709 0.960 . S
C3702 C3700 1.381 . S
C3702 C3703 1.394 . S
C3702 H3710 0.930 . S
C3703 C3702 1.394 . S
C3703 C3704 1.383 . S
C3703 H3711 0.929 . S
C3704 C3703 1.383 . S
C3704 C3705 1.377 . S
C3705 H3689 0.930 . S
C3705 C3704 1.377 . S
C3705 C3706 1.379 . S
C3706 H3690 0.931 . S
C3706 C3700 1.383 . S
C3706 C3705 1.379 . S
H3707 C3701 0.959 . S
H3708 C3701 0.961 . S
H3709 C3701 0.960 . S
H3710 C3702 0.930 . S
H3711 C3703 0.929 . S
H3712 C3720 0.929 . S
H3713 C3722 0.930 . S
H3714 C3724 0.930 . S
H3715 C3727 0.929 . S
H3716 C3730 0.930 . S
H3717 C3732 0.960 . S
H3718 C3732 0.960 . S
H3719 C3732 0.960 . S
C3720 H3712 0.929 . S
C3720 C3721 1.377 . S
C3720 C3722 1.384 . S
C3721 C3720 1.377 . S
C3721 C3727 1.390 . S
C3722 H3713 0.930 . S
C3722 C3720 1.384 . S
C3722 C3723 1.372 . S
C3723 C3722 1.372 . S
C3723 C3724 1.400 . S
C3723 C3728 1.490 . S
C3724 H3714 0.930 . S
C3724 C3723 1.400 . S
C3724 C3727 1.386 . S
H3725 C3741 0.930 . S
H3726 C3742 0.931 . S
C3727 H3715 0.929 . S
C3727 C3721 1.390 . S
C3727 C3724 1.386 . S
C3728 C3723 1.490 . S
C3728 C3730 1.395 . S
C3728 C3731 1.403 . S
H3729 C3735 0.930 . S
C3730 H3716 0.930 . S
C3730 C3728 1.395 . S
C3730 C3733 1.403 . S
C3731 C3728 1.403 . S
C3731 C3732 1.524 . S
C3731 C3735 1.400 . S
C3732 H3717 0.960 . S
C3732 H3718 0.960 . S
C3732 H3719 0.960 . S
C3732 C3731 1.524 . S
C3733 C3730 1.403 . S
C3733 C3734 1.392 . S
C3733 C3737 1.495 . S
C3734 C3733 1.392 . S
C3734 C3735 1.385 . S
C3734 C3736 1.478 . S
C3735 H3729 0.930 . S
C3735 C3731 1.400 . S
C3735 C3734 1.385 . S
C3736 C3734 1.478 . S
C3736 C3738 1.381 . S
C3736 C3742 1.383 . S
C3737 C3733 1.495 . S
C3737 H3743 0.959 . S
C3737 H3744 0.961 . S
C3737 H3745 0.960 . S
C3738 C3736 1.381 . S
C3738 C3739 1.394 . S
C3738 H3746 0.930 . S
C3739 C3738 1.394 . S
C3739 C3740 1.383 . S
C3739 H3747 0.929 . S
C3740 C3739 1.383 . S
C3740 C3741 1.377 . S
C3741 H3725 0.930 . S
C3741 C3740 1.377 . S
C3741 C3742 1.379 . S
C3742 H3726 0.931 . S
C3742 C3736 1.383 . S
C3742 C3741 1.379 . S
H3743 C3737 0.959 . S
H3744 C3737 0.961 . S
H3745 C3737 0.960 . S
H3746 C3738 0.930 . S
H3747 C3739 0.929 . S
H3748 C3756 0.929 . S
H3749 C3758 0.930 . S
H3750 C3760 0.930 . S
H3751 C3763 0.929 1_554 S
H3752 C3766 0.930 . S
H3753 C3768 0.960 . S
H3754 C3768 0.960 . S
H3755 C3768 0.960 . S
C3756 H3748 0.929 . S
C3756 C3757 1.377 . S
C3756 C3758 1.384 . S
C3757 C3756 1.377 . S
C3757 C3763 1.390 . S
C3758 H3749 0.930 . S
C3758 C3756 1.384 . S
C3758 C3759 1.372 . S
C3759 C3758 1.372 . S
C3759 C3760 1.400 . S
C3759 C3764 1.490 . S
C3760 H3750 0.930 . S
C3760 C3759 1.400 . S
C3760 C3763 1.386 . S
H3761 C3777 0.930 . S
H3762 C3778 0.931 . S
C3763 H3751 0.929 1_556 S
C3763 C3757 1.390 . S
C3763 C3760 1.386 . S
C3764 C3759 1.490 . S
C3764 C3766 1.395 . S
C3764 C3767 1.403 . S
H3765 C3771 0.930 . S
C3766 H3752 0.930 . S
C3766 C3764 1.395 . S
C3766 C3769 1.403 . S
C3767 C3764 1.403 . S
C3767 C3768 1.524 . S
C3767 C3771 1.400 . S
C3768 H3753 0.960 . S
C3768 H3754 0.960 . S
C3768 H3755 0.960 . S
C3768 C3767 1.524 . S
C3769 C3766 1.403 . S
C3769 C3770 1.392 . S
C3769 C3773 1.495 . S
C3770 C3769 1.392 . S
C3770 C3771 1.385 . S
C3770 C3772 1.478 . S
C3771 H3765 0.930 . S
C3771 C3767 1.400 . S
C3771 C3770 1.385 . S
C3772 C3770 1.478 . S
C3772 C3774 1.381 . S
C3772 C3778 1.383 . S
C3773 C3769 1.495 . S
C3773 H3779 0.959 . S
C3773 H3780 0.961 . S
C3773 H3781 0.960 . S
C3774 C3772 1.381 . S
C3774 C3775 1.394 . S
C3774 H3782 0.930 . S
C3775 C3774 1.394 . S
C3775 C3776 1.383 . S
C3775 H3783 0.929 . S
C3776 C3775 1.383 . S
C3776 C3777 1.377 . S
C3777 H3761 0.930 . S
C3777 C3776 1.377 . S
C3777 C3778 1.379 . S
C3778 H3762 0.931 . S
C3778 C3772 1.383 . S
C3778 C3777 1.379 . S
H3779 C3773 0.959 . S
H3780 C3773 0.961 . S
H3781 C3773 0.960 . S
H3782 C3774 0.930 . S
H3783 C3775 0.929 . S
H3784 C3792 0.929 . S
H3785 C3794 0.930 . S
H3786 C3796 0.930 . S
H3787 C3799 0.929 . S
H3788 C3802 0.930 . S
H3789 C3804 0.960 . S
H3790 C3804 0.960 . S
H3791 C3804 0.960 . S
C3792 H3784 0.929 . S
C3792 C3793 1.377 . S
C3792 C3794 1.384 . S
C3793 C3792 1.377 . S
C3793 C3799 1.390 . S
C3794 H3785 0.930 . S
C3794 C3792 1.384 . S
C3794 C3795 1.372 . S
C3795 C3794 1.372 . S
C3795 C3796 1.400 . S
C3795 C3800 1.490 . S
C3796 H3786 0.930 . S
C3796 C3795 1.400 . S
C3796 C3799 1.386 . S
H3797 C3813 0.930 . S
H3798 C3814 0.931 . S
C3799 H3787 0.929 . S
C3799 C3793 1.390 . S
C3799 C3796 1.386 . S
C3800 C3795 1.490 . S
C3800 C3802 1.395 . S
C3800 C3803 1.403 . S
H3801 C3807 0.930 . S
C3802 H3788 0.930 . S
C3802 C3800 1.395 . S
C3802 C3805 1.403 . S
C3803 C3800 1.403 . S
C3803 C3804 1.524 . S
C3803 C3807 1.400 . S
C3804 H3789 0.960 . S
C3804 H3790 0.960 . S
C3804 H3791 0.960 . S
C3804 C3803 1.524 . S
C3805 C3802 1.403 . S
C3805 C3806 1.392 . S
C3805 C3809 1.495 . S
C3806 C3805 1.392 . S
C3806 C3807 1.385 . S
C3806 C3808 1.478 . S
C3807 H3801 0.930 . S
C3807 C3803 1.400 . S
C3807 C3806 1.385 . S
C3808 C3806 1.478 . S
C3808 C3810 1.381 . S
C3808 C3814 1.383 . S
C3809 C3805 1.495 . S
C3809 H3815 0.959 . S
C3809 H3816 0.961 . S
C3809 H3817 0.960 . S
C3810 C3808 1.381 . S
C3810 C3811 1.394 . S
C3810 H3818 0.930 . S
C3811 C3810 1.394 . S
C3811 C3812 1.383 . S
C3811 H3819 0.929 . S
C3812 C3811 1.383 . S
C3812 C3813 1.377 . S
C3813 H3797 0.930 . S
C3813 C3812 1.377 . S
C3813 C3814 1.379 . S
C3814 H3798 0.931 . S
C3814 C3808 1.383 . S
C3814 C3813 1.379 . S
H3815 C3809 0.959 . S
H3816 C3809 0.961 . S
H3817 C3809 0.960 . S
H3818 C3810 0.930 . S
H3819 C3811 0.929 . S
H3820 C3828 0.929 . S
H3821 C3830 0.930 . S
H3822 C3832 0.930 . S
H3823 C3835 0.929 . S
H3824 C3838 0.930 . S
H3825 C3840 0.960 . S
H3826 C3840 0.960 . S
H3827 C3840 0.960 . S
C3828 H3820 0.929 . S
C3828 C3829 1.377 . S
C3828 C3830 1.384 . S
C3829 C3828 1.377 . S
C3829 C3835 1.390 . S
C3830 H3821 0.930 . S
C3830 C3828 1.384 . S
C3830 C3831 1.372 . S
C3831 C3830 1.372 . S
C3831 C3832 1.400 . S
C3831 C3836 1.490 . S
C3832 H3822 0.930 . S
C3832 C3831 1.400 . S
C3832 C3835 1.386 . S
H3833 C3849 0.930 . S
H3834 C3850 0.931 . S
C3835 H3823 0.929 . S
C3835 C3829 1.390 . S
C3835 C3832 1.386 . S
C3836 C3831 1.490 . S
C3836 C3838 1.395 . S
C3836 C3839 1.403 . S
H3837 C3843 0.930 . S
C3838 H3824 0.930 . S
C3838 C3836 1.395 . S
C3838 C3841 1.403 . S
C3839 C3836 1.403 . S
C3839 C3840 1.524 . S
C3839 C3843 1.400 . S
C3840 H3825 0.960 . S
C3840 H3826 0.960 . S
C3840 H3827 0.960 . S
C3840 C3839 1.524 . S
C3841 C3838 1.403 . S
C3841 C3842 1.392 . S
C3841 C3845 1.495 . S
C3842 C3841 1.392 . S
C3842 C3843 1.385 . S
C3842 C3844 1.478 . S
C3843 H3837 0.930 . S
C3843 C3839 1.400 . S
C3843 C3842 1.385 . S
C3844 C3842 1.478 . S
C3844 C3846 1.381 . S
C3844 C3850 1.383 . S
C3845 C3841 1.495 . S
C3845 H3851 0.959 . S
C3845 H3852 0.961 . S
C3845 H3853 0.960 . S
C3846 C3844 1.381 . S
C3846 C3847 1.394 . S
C3846 H3854 0.930 . S
C3847 C3846 1.394 . S
C3847 C3848 1.383 . S
C3847 H3855 0.929 . S
C3848 C3847 1.383 . S
C3848 C3849 1.377 . S
C3849 H3833 0.930 . S
C3849 C3848 1.377 . S
C3849 C3850 1.379 . S
C3850 H3834 0.931 . S
C3850 C3844 1.383 . S
C3850 C3849 1.379 . S
H3851 C3845 0.959 . S
H3852 C3845 0.961 . S
H3853 C3845 0.960 . S
H3854 C3846 0.930 . S
H3855 C3847 0.929 . S
H3856 C3864 0.929 . S
H3857 C3866 0.930 . S
H3858 C3868 0.930 . S
H3859 C3871 0.929 . S
H3860 C3874 0.930 . S
H3861 C3876 0.960 . S
H3862 C3876 0.960 . S
H3863 C3876 0.960 . S
C3864 H3856 0.929 . S
C3864 C3865 1.377 . S
C3864 C3866 1.384 . S
C3865 C3864 1.377 . S
C3865 C3871 1.390 . S
C3866 H3857 0.930 . S
C3866 C3864 1.384 . S
C3866 C3867 1.372 . S
C3867 C3866 1.372 . S
C3867 C3868 1.400 . S
C3867 C3872 1.490 . S
C3868 H3858 0.930 . S
C3868 C3867 1.400 . S
C3868 C3871 1.386 . S
H3869 C3885 0.930 . S
H3870 C3886 0.931 . S
C3871 H3859 0.929 . S
C3871 C3865 1.390 . S
C3871 C3868 1.386 . S
C3872 C3867 1.490 . S
C3872 C3874 1.395 . S
C3872 C3875 1.403 . S
H3873 C3879 0.930 . S
C3874 H3860 0.930 . S
C3874 C3872 1.395 . S
C3874 C3877 1.403 . S
C3875 C3872 1.403 . S
C3875 C3876 1.524 . S
C3875 C3879 1.400 . S
C3876 H3861 0.960 . S
C3876 H3862 0.960 . S
C3876 H3863 0.960 . S
C3876 C3875 1.524 . S
C3877 C3874 1.403 . S
C3877 C3878 1.392 . S
C3877 C3881 1.495 . S
C3878 C3877 1.392 . S
C3878 C3879 1.385 . S
C3878 C3880 1.478 . S
C3879 H3873 0.930 . S
C3879 C3875 1.400 . S
C3879 C3878 1.385 . S
C3880 C3878 1.478 . S
C3880 C3882 1.381 . S
C3880 C3886 1.383 . S
C3881 C3877 1.495 . S
C3881 H3887 0.959 . S
C3881 H3888 0.961 . S
C3881 H3889 0.960 . S
C3882 C3880 1.381 . S
C3882 C3883 1.394 . S
C3882 H3890 0.930 . S
C3883 C3882 1.394 . S
C3883 C3884 1.383 . S
C3883 H3891 0.929 . S
C3884 C3883 1.383 . S
C3884 C3885 1.377 . S
C3885 H3869 0.930 . S
C3885 C3884 1.377 . S
C3885 C3886 1.379 . S
C3886 H3870 0.931 . S
C3886 C3880 1.383 . S
C3886 C3885 1.379 . S
H3887 C3881 0.959 . S
H3888 C3881 0.961 . S
H3889 C3881 0.960 . S
H3890 C3882 0.930 . S
H3891 C3883 0.929 . S
H3892 C3900 0.929 . S
H3893 C3902 0.930 . S
H3894 C3904 0.930 . S
H3895 C3907 0.929 . S
H3896 C3910 0.930 . S
H3897 C3912 0.960 . S
H3898 C3912 0.960 . S
H3899 C3912 0.960 . S
C3900 H3892 0.929 . S
C3900 C3901 1.377 . S
C3900 C3902 1.384 . S
C3901 C3900 1.377 . S
C3901 C3907 1.390 . S
C3902 H3893 0.930 . S
C3902 C3900 1.384 . S
C3902 C3903 1.372 . S
C3903 C3902 1.372 . S
C3903 C3904 1.400 . S
C3903 C3908 1.490 . S
C3904 H3894 0.930 . S
C3904 C3903 1.400 . S
C3904 C3907 1.386 . S
H3905 C3921 0.930 . S
H3906 C3922 0.931 . S
C3907 H3895 0.929 . S
C3907 C3901 1.390 . S
C3907 C3904 1.386 . S
C3908 C3903 1.490 . S
C3908 C3910 1.395 . S
C3908 C3911 1.403 . S
H3909 C3915 0.930 . S
C3910 H3896 0.930 . S
C3910 C3908 1.395 . S
C3910 C3913 1.403 . S
C3911 C3908 1.403 . S
C3911 C3912 1.524 . S
C3911 C3915 1.400 . S
C3912 H3897 0.960 . S
C3912 H3898 0.960 . S
C3912 H3899 0.960 . S
C3912 C3911 1.524 . S
C3913 C3910 1.403 . S
C3913 C3914 1.392 . S
C3913 C3917 1.495 . S
C3914 C3913 1.392 . S
C3914 C3915 1.385 . S
C3914 C3916 1.478 . S
C3915 H3909 0.930 . S
C3915 C3911 1.400 . S
C3915 C3914 1.385 . S
C3916 C3914 1.478 . S
C3916 C3918 1.381 . S
C3916 C3922 1.383 . S
C3917 C3913 1.495 . S
C3917 H3923 0.959 . S
C3917 H3924 0.961 . S
C3917 H3925 0.960 . S
C3918 C3916 1.381 . S
C3918 C3919 1.394 . S
C3918 H3926 0.930 . S
C3919 C3918 1.394 . S
C3919 C3920 1.383 . S
C3919 H3927 0.929 . S
C3920 C3919 1.383 . S
C3920 C3921 1.377 . S
C3921 H3905 0.930 . S
C3921 C3920 1.377 . S
C3921 C3922 1.379 . S
C3922 H3906 0.931 . S
C3922 C3916 1.383 . S
C3922 C3921 1.379 . S
H3923 C3917 0.959 . S
H3924 C3917 0.961 . S
H3925 C3917 0.960 . S
H3926 C3918 0.930 . S
H3927 C3919 0.929 . S
H3928 C3936 0.929 . S
H3929 C3938 0.930 . S
H3930 C3940 0.930 . S
H3931 C3943 0.929 . S
H3932 C3946 0.930 . S
H3933 C3948 0.960 . S
H3934 C3948 0.960 . S
H3935 C3948 0.960 . S
C3936 H3928 0.929 . S
C3936 C3937 1.377 . S
C3936 C3938 1.384 . S
C3937 C3936 1.377 . S
C3937 C3943 1.390 . S
C3938 H3929 0.930 . S
C3938 C3936 1.384 . S
C3938 C3939 1.372 . S
C3939 C3938 1.372 . S
C3939 C3940 1.400 . S
C3939 C3944 1.490 . S
C3940 H3930 0.930 . S
C3940 C3939 1.400 . S
C3940 C3943 1.386 . S
H3941 C3957 0.930 . S
H3942 C3958 0.931 . S
C3943 H3931 0.929 . S
C3943 C3937 1.390 . S
C3943 C3940 1.386 . S
C3944 C3939 1.490 . S
C3944 C3946 1.395 . S
C3944 C3947 1.403 . S
H3945 C3951 0.930 . S
C3946 H3932 0.930 . S
C3946 C3944 1.395 . S
C3946 C3949 1.403 . S
C3947 C3944 1.403 . S
C3947 C3948 1.524 . S
C3947 C3951 1.400 . S
C3948 H3933 0.960 . S
C3948 H3934 0.960 . S
C3948 H3935 0.960 . S
C3948 C3947 1.524 . S
C3949 C3946 1.403 . S
C3949 C3950 1.392 . S
C3949 C3953 1.495 . S
C3950 C3949 1.392 . S
C3950 C3951 1.385 . S
C3950 C3952 1.478 . S
C3951 H3945 0.930 . S
C3951 C3947 1.400 . S
C3951 C3950 1.385 . S
C3952 C3950 1.478 . S
C3952 C3954 1.381 . S
C3952 C3958 1.383 . S
C3953 C3949 1.495 . S
C3953 H3959 0.959 . S
C3953 H3960 0.961 . S
C3953 H3961 0.960 . S
C3954 C3952 1.381 . S
C3954 C3955 1.394 . S
C3954 H3962 0.930 . S
C3955 C3954 1.394 . S
C3955 C3956 1.383 . S
C3955 H3963 0.929 . S
C3956 C3955 1.383 . S
C3956 C3957 1.377 . S
C3957 H3941 0.930 . S
C3957 C3956 1.377 . S
C3957 C3958 1.379 . S
C3958 H3942 0.931 . S
C3958 C3952 1.383 . S
C3958 C3957 1.379 . S
H3959 C3953 0.959 . S
H3960 C3953 0.961 . S
H3961 C3953 0.960 . S
H3962 C3954 0.930 . S
H3963 C3955 0.929 . S
H3964 C3972 0.929 . S
H3965 C3974 0.930 . S
H3966 C3976 0.930 . S
H3967 C3979 0.929 . S
H3968 C3982 0.930 . S
H3969 C3984 0.960 . S
H3970 C3984 0.960 . S
H3971 C3984 0.960 . S
C3972 H3964 0.929 . S
C3972 C3973 1.377 . S
C3972 C3974 1.384 . S
C3973 C3972 1.377 . S
C3973 C3979 1.390 . S
C3974 H3965 0.930 . S
C3974 C3972 1.384 . S
C3974 C3975 1.372 . S
C3975 C3974 1.372 . S
C3975 C3976 1.400 . S
C3975 C3980 1.490 . S
C3976 H3966 0.930 . S
C3976 C3975 1.400 . S
C3976 C3979 1.386 . S
H3977 C3993 0.930 . S
H3978 C3994 0.931 . S
C3979 H3967 0.929 . S
C3979 C3973 1.390 . S
C3979 C3976 1.386 . S
C3980 C3975 1.490 . S
C3980 C3982 1.395 . S
C3980 C3983 1.403 . S
H3981 C3987 0.930 . S
C3982 H3968 0.930 . S
C3982 C3980 1.395 . S
C3982 C3985 1.403 . S
C3983 C3980 1.403 . S
C3983 C3984 1.524 . S
C3983 C3987 1.400 . S
C3984 H3969 0.960 . S
C3984 H3970 0.960 . S
C3984 H3971 0.960 . S
C3984 C3983 1.524 . S
C3985 C3982 1.403 . S
C3985 C3986 1.392 . S
C3985 C3989 1.495 . S
C3986 C3985 1.392 . S
C3986 C3987 1.385 . S
C3986 C3988 1.478 . S
C3987 H3981 0.930 . S
C3987 C3983 1.400 . S
C3987 C3986 1.385 . S
C3988 C3986 1.478 . S
C3988 C3990 1.381 . S
C3988 C3994 1.383 . S
C3989 C3985 1.495 . S
C3989 H3995 0.959 . S
C3989 H3996 0.961 . S
C3989 H3997 0.960 . S
C3990 C3988 1.381 . S
C3990 C3991 1.394 . S
C3990 H3998 0.930 . S
C3991 C3990 1.394 . S
C3991 C3992 1.383 . S
C3991 H3999 0.929 . S
C3992 C3991 1.383 . S
C3992 C3993 1.377 . S
C3993 H3977 0.930 . S
C3993 C3992 1.377 . S
C3993 C3994 1.379 . S
C3994 H3978 0.931 . S
C3994 C3988 1.383 . S
C3994 C3993 1.379 . S
H3995 C3989 0.959 . S
H3996 C3989 0.961 . S
H3997 C3989 0.960 . S
H3998 C3990 0.930 . S
H3999 C3991 0.929 . S
H4000 C4008 0.929 . S
H4001 C4010 0.930 . S
H4002 C4012 0.930 . S
H4003 C4015 0.929 . S
H4004 C4018 0.930 . S
H4005 C4020 0.960 . S
H4006 C4020 0.960 . S
H4007 C4020 0.960 . S
C4008 H4000 0.929 . S
C4008 C4009 1.377 . S
C4008 C4010 1.384 . S
C4009 C4008 1.377 . S
C4009 C4015 1.390 . S
C4010 H4001 0.930 . S
C4010 C4008 1.384 . S
C4010 C4011 1.372 . S
C4011 C4010 1.372 . S
C4011 C4012 1.400 . S
C4011 C4016 1.490 . S
C4012 H4002 0.930 . S
C4012 C4011 1.400 . S
C4012 C4015 1.386 . S
H4013 C4029 0.930 . S
H4014 C4030 0.931 . S
C4015 H4003 0.929 . S
C4015 C4009 1.390 . S
C4015 C4012 1.386 . S
C4016 C4011 1.490 . S
C4016 C4018 1.395 . S
C4016 C4019 1.403 . S
H4017 C4023 0.930 . S
C4018 H4004 0.930 . S
C4018 C4016 1.395 . S
C4018 C4021 1.403 . S
C4019 C4016 1.403 . S
C4019 C4020 1.524 . S
C4019 C4023 1.400 . S
C4020 H4005 0.960 . S
C4020 H4006 0.960 . S
C4020 H4007 0.960 . S
C4020 C4019 1.524 . S
C4021 C4018 1.403 . S
C4021 C4022 1.392 . S
C4021 C4025 1.495 . S
C4022 C4021 1.392 . S
C4022 C4023 1.385 . S
C4022 C4024 1.478 . S
C4023 H4017 0.930 . S
C4023 C4019 1.400 . S
C4023 C4022 1.385 . S
C4024 C4022 1.478 . S
C4024 C4026 1.381 . S
C4024 C4030 1.383 . S
C4025 C4021 1.495 . S
C4025 H4031 0.959 . S
C4025 H4032 0.961 . S
C4025 H4033 0.960 . S
C4026 C4024 1.381 . S
C4026 C4027 1.394 . S
C4026 H4034 0.930 . S
C4027 C4026 1.394 . S
C4027 C4028 1.383 . S
C4027 H4035 0.929 . S
C4028 C4027 1.383 . S
C4028 C4029 1.377 . S
C4029 H4013 0.930 . S
C4029 C4028 1.377 . S
C4029 C4030 1.379 . S
C4030 H4014 0.931 . S
C4030 C4024 1.383 . S
C4030 C4029 1.379 . S
H4031 C4025 0.959 . S
H4032 C4025 0.961 . S
H4033 C4025 0.960 . S
H4034 C4026 0.930 . S
H4035 C4027 0.929 . S
H4036 C4044 0.929 . S
H4037 C4046 0.930 . S
H4038 C4048 0.930 . S
H4039 C4051 0.929 . S
H4040 C4054 0.930 . S
H4041 C4056 0.960 . S
H4042 C4056 0.960 . S
H4043 C4056 0.960 . S
C4044 H4036 0.929 . S
C4044 C4045 1.377 . S
C4044 C4046 1.384 . S
C4045 C4044 1.377 . S
C4045 C4051 1.390 . S
C4046 H4037 0.930 . S
C4046 C4044 1.384 . S
C4046 C4047 1.372 . S
C4047 C4046 1.372 . S
C4047 C4048 1.400 . S
C4047 C4052 1.490 . S
C4048 H4038 0.930 . S
C4048 C4047 1.400 . S
C4048 C4051 1.386 . S
H4049 C4065 0.930 . S
H4050 C4066 0.931 . S
C4051 H4039 0.929 . S
C4051 C4045 1.390 . S
C4051 C4048 1.386 . S
C4052 C4047 1.490 . S
C4052 C4054 1.395 . S
C4052 C4055 1.403 . S
H4053 C4059 0.930 . S
C4054 H4040 0.930 . S
C4054 C4052 1.395 . S
C4054 C4057 1.403 . S
C4055 C4052 1.403 . S
C4055 C4056 1.524 . S
C4055 C4059 1.400 . S
C4056 H4041 0.960 . S
C4056 H4042 0.960 . S
C4056 H4043 0.960 . S
C4056 C4055 1.524 . S
C4057 C4054 1.403 . S
C4057 C4058 1.392 . S
C4057 C4061 1.495 . S
C4058 C4057 1.392 . S
C4058 C4059 1.385 . S
C4058 C4060 1.478 . S
C4059 H4053 0.930 . S
C4059 C4055 1.400 . S
C4059 C4058 1.385 . S
C4060 C4058 1.478 . S
C4060 C4062 1.381 . S
C4060 C4066 1.383 . S
C4061 C4057 1.495 . S
C4061 H4067 0.959 . S
C4061 H4068 0.961 . S
C4061 H4069 0.960 . S
C4062 C4060 1.381 . S
C4062 C4063 1.394 . S
C4062 H4070 0.930 . S
C4063 C4062 1.394 . S
C4063 C4064 1.383 . S
C4063 H4071 0.929 . S
C4064 C4063 1.383 . S
C4064 C4065 1.377 . S
C4065 H4049 0.930 . S
C4065 C4064 1.377 . S
C4065 C4066 1.379 . S
C4066 H4050 0.931 . S
C4066 C4060 1.383 . S
C4066 C4065 1.379 . S
H4067 C4061 0.959 . S
H4068 C4061 0.961 . S
H4069 C4061 0.960 . S
H4070 C4062 0.930 . S
H4071 C4063 0.929 . S
H4072 C4080 0.929 . S
H4073 C4082 0.930 . S
H4074 C4084 0.930 . S
H4075 C4087 0.929 1_545 S
H4076 C4090 0.930 . S
H4077 C4092 0.960 . S
H4078 C4092 0.960 . S
H4079 C4092 0.960 . S
C4080 H4072 0.929 . S
C4080 C4081 1.377 . S
C4080 C4082 1.384 . S
C4081 C4080 1.377 . S
C4081 C4087 1.390 . S
C4082 H4073 0.930 . S
C4082 C4080 1.384 . S
C4082 C4083 1.372 . S
C4083 C4082 1.372 . S
C4083 C4084 1.400 . S
C4083 C4088 1.490 . S
C4084 H4074 0.930 . S
C4084 C4083 1.400 . S
C4084 C4087 1.386 . S
H4085 C4101 0.930 . S
H4086 C4102 0.931 . S
C4087 H4075 0.929 1_565 S
C4087 C4081 1.390 . S
C4087 C4084 1.386 . S
C4088 C4083 1.490 . S
C4088 C4090 1.395 . S
C4088 C4091 1.403 . S
H4089 C4095 0.930 . S
C4090 H4076 0.930 . S
C4090 C4088 1.395 . S
C4090 C4093 1.403 . S
C4091 C4088 1.403 . S
C4091 C4092 1.524 . S
C4091 C4095 1.400 . S
C4092 H4077 0.960 . S
C4092 H4078 0.960 . S
C4092 H4079 0.960 . S
C4092 C4091 1.524 . S
C4093 C4090 1.403 . S
C4093 C4094 1.392 . S
C4093 C4097 1.495 . S
C4094 C4093 1.392 . S
C4094 C4095 1.385 . S
C4094 C4096 1.478 . S
C4095 H4089 0.930 . S
C4095 C4091 1.400 . S
C4095 C4094 1.385 . S
C4096 C4094 1.478 . S
C4096 C4098 1.381 . S
C4096 C4102 1.383 . S
C4097 C4093 1.495 . S
C4097 H4103 0.959 . S
C4097 H4104 0.961 . S
C4097 H4105 0.960 . S
C4098 C4096 1.381 . S
C4098 C4099 1.394 . S
C4098 H4106 0.930 . S
C4099 C4098 1.394 . S
C4099 C4100 1.383 . S
C4099 H4107 0.929 . S
C4100 C4099 1.383 . S
C4100 C4101 1.377 . S
C4101 H4085 0.930 . S
C4101 C4100 1.377 . S
C4101 C4102 1.379 . S
C4102 H4086 0.931 . S
C4102 C4096 1.383 . S
C4102 C4101 1.379 . S
H4103 C4097 0.959 . S
H4104 C4097 0.961 . S
H4105 C4097 0.960 . S
H4106 C4098 0.930 . S
H4107 C4099 0.929 . S
H4108 C4116 0.929 . S
H4109 C4118 0.930 . S
H4110 C4120 0.930 . S
H4111 C4123 0.929 . S
H4112 C4126 0.930 . S
H4113 C4128 0.991 . S
H4114 C4128 0.960 . S
H4115 C4128 0.960 . S
C4116 H4108 0.929 . S
C4116 C4117 1.377 . S
C4116 C4118 1.384 . S
C4117 C4116 1.377 . S
C4117 C4123 1.390 . S
C4118 H4109 0.930 . S
C4118 C4116 1.384 . S
C4118 C4119 1.372 . S
C4119 C4118 1.372 . S
C4119 C4120 1.400 . S
C4119 C4124 1.490 . S
C4120 H4110 0.930 . S
C4120 C4119 1.400 . S
C4120 C4123 1.386 . S
H4121 C4137 0.930 . S
H4122 C4138 0.931 . S
C4123 H4111 0.929 . S
C4123 C4117 1.390 . S
C4123 C4120 1.386 . S
C4124 C4119 1.490 . S
C4124 C4126 1.395 . S
C4124 C4127 1.403 . S
H4125 C4131 0.930 . S
C4126 H4112 0.930 . S
C4126 C4124 1.395 . S
C4126 C4129 1.403 . S
C4127 C4124 1.403 . S
C4127 C4128 1.524 . S
C4127 C4131 1.400 1_455 S
C4128 H4113 0.991 . S
C4128 H4114 0.960 . S
C4128 H4115 0.960 . S
C4128 C4127 1.524 . S
C4129 C4126 1.403 . S
C4129 C4130 1.392 1_455 S
C4129 C4133 1.495 . S
C4130 C4129 1.392 1_655 S
C4130 C4131 1.385 . S
C4130 C4132 1.478 . S
C4131 H4125 0.930 . S
C4131 C4127 1.400 1_655 S
C4131 C4130 1.385 . S
C4132 C4130 1.478 . S
C4132 C4134 1.381 . S
C4132 C4138 1.383 . S
C4133 C4129 1.495 . S
C4133 H4139 0.959 . S
C4133 H4140 0.961 . S
C4133 H4141 0.960 . S
C4134 C4132 1.381 . S
C4134 C4135 1.394 . S
C4134 H4142 0.930 . S
C4135 C4134 1.394 . S
C4135 C4136 1.383 . S
C4135 H4143 0.929 . S
C4136 C4135 1.383 . S
C4136 C4137 1.377 . S
C4137 H4121 0.930 . S
C4137 C4136 1.377 . S
C4137 C4138 1.379 . S
C4138 H4122 0.931 . S
C4138 C4132 1.383 . S
C4138 C4137 1.379 . S
H4139 C4133 0.959 . S
H4140 C4133 0.961 . S
H4141 C4133 0.960 . S
H4142 C4134 0.930 . S
H4143 C4135 0.929 . S
C716 C354 1.049 . S
C697 C7 1.078 . S
C733 C23 1.019 . S
C752 C366 1.026 . S
C788 C401 0.976 . S
C769 C36 1.003 . S
C824 C410 1.010 . S
C805 C45 1.048 . S
C860 C365 1.094 . S
C841 C59 1.079 . S
C877 C78 0.969 . S
C896 C390 0.938 . S
C932 C409 1.063 . S
C913 C93 1.039 . S
C949 C105 1.138 . S
C968 C351 1.144 . S
C985 C115 1.121 . S
C1004 C344 1.084 . S
C1040 C368 1.033 . S
C1021 C133 1.052 . S
C1076 C387 1.031 . S
C1057 C148 1.028 . S
C1112 C412 0.981 . S
C1093 C163 1.002 . S
C1148 C373 1.029 . S
C1129 C121 0.999 . S
C1184 C398 0.961 . S
C1165 C134 0.990 . S
C1201 C147 1.047 . S
C1220 C417 1.049 . S
C1256 C357 1.083 . S
C1237 C157 1.124 . S
C1273 C175 1.081 . S
C1292 C346 1.073 . S
C1309 C191 1.063 . S
C1328 C445 1.085 . S
C1364 C461 1.041 . S
C1345 C199 1.031 . S
C1400 C475 1.013 . S
C1381 C218 0.996 . S
C1417 C231 1.098 . S
C1436 C343 1.087 . S
C1453 C241 1.055 . S
C1472 C395 1.066 . S
C1508 C478 1.031 . S
C1489 C205 1.064 . S
C1544 C442 1.036 . S
C1525 C260 1.020 . S
C1580 C498 0.925 . S
C1561 C22 0.904 . S
C1616 C522 1.055 . S
C1597 C9 1.042 . S
C1633 C49 1.089 . S
C1652 C555 1.045 . S
C1669 C31 1.051 . S
C1688 C563 1.027 . S
C1705 C101 1.038 . S
C1724 C533 1.006 . S
C1741 C91 1.070 . S
C1760 C544 1.066 . S
C1796 C564 1.061 . S
C1777 C79 1.072 . S
C1813 C64 0.956 . S
C1832 C497 0.965 . S
C1849 C274 0.894 . S
C1868 C500 0.912 . S
C1904 C530 1.028 . S
C1885 C213 1.011 . S
C1940 C541 1.120 . S
C1921 C233 1.106 . S
C1976 C571 1.036 . S
C1957 C189 1.085 . S
C2012 C519 1.038 . S
C1993 C273 1.082 . S
C2048 C552 1.069 . S
C2029 C219 1.076 . S
C2084 C566 0.985 . S
C2065 C227 1.017 . S
C2101 C190 0.960 . S
C2120 C505 0.914 . S
C2156 C508 0.933 . S
C2137 C289 0.913 . S
C2173 C162 1.051 . S
C2192 C596 1.068 . S
C2228 C608 1.027 . S
C2209 C301 1.032 . S
C2245 C129 1.096 . S
C2264 C629 1.086 . S
C2300 C511 1.027 . S
C2281 C149 1.005 . S
C2336 C549 1.017 . S
C2317 C315 1.026 . S
C2372 C632 0.971 . S
C2353 C302 1.003 . S
C2389 C325 1.071 . S
C2408 C599 1.038 . S
C2425 C35 1.096 . S
C2444 C654 1.071 . S
C2461 C51 1.025 . S
C2480 C432 1.001 . S
C2516 C456 0.912 . S
C2497 C8 0.937 . S
C2533 C17 1.059 . S
C2552 C486 1.026 . S
C2569 C87 1.058 . S
C2588 C431 1.058 . S
C2605 C106 0.988 . S
C2624 C467 0.996 . S
C2660 C483 1.041 . S
C2641 C65 1.072 . S
C2696 C665 1.124 . S
C2677 C77 1.117 . S
C2732 C662 1.075 . S
C2713 C297 1.099 . S
C2768 C434 1.051 . S
C2749 C287 1.035 . S
C2804 C464 0.980 . S
C2785 C330 1.015 . S
C2821 C317 1.024 . S
C2840 C476 1.051 . S
C2876 C439 0.961 . S
C2857 C303 1.007 . S
C2893 C288 0.980 . S
C2912 C453 0.997 . S
C2948 C489 1.034 . S
C2929 C329 1.056 . S
C2965 C311 1.140 . S
C2984 C651 1.151 . S
C3020 C652 1.101 . S
C3001 C217 1.086 . S
C3037 C247 1.053 . S
C3056 C379 1.075 . S
C3092 C388 0.971 . S
C3073 C269 0.998 . S
C3109 C176 0.982 . S
C3128 C423 1.002 . S
C3164 C659 1.046 . S
C3145 C259 1.089 . S
C3200 C454 1.009 . S
C3181 C185 1.030 . S
C3236 C420 1.020 . S
C3217 C275 1.049 . S
C3272 C376 0.963 . S
C3253 C232 1.003 . S
C3289 C50 0.954 . S
C3308 C673 0.965 . S
C3325 C37 1.076 . S
C3344 C585 1.064 . S
C3361 C21 1.088 . S
C3380 C621 1.090 . S
C3416 C640 0.963 . S
C3397 C3 0.992 . S
C3452 C586 0.967 . S
C3433 C73 0.996 . S
C3469 C63 1.082 . S
C3488 C610 1.048 . S
C3524 C637 1.079 . S
C3505 C107 1.107 . S
C3541 C92 0.940 . S
C3560 C674 0.926 . S
C3596 C681 0.950 . S
C3577 C204 0.947 . S
C3613 C171 1.025 . S
C3632 C593 0.998 . S
C3649 C261 1.107 . S
C3668 C607 1.080 . S
C3704 C630 1.020 . S
C3685 C245 1.052 . S
C3740 C588 1.020 . S
C3721 C203 1.052 . S
C3757 C177 1.069 . S
C3776 C618 1.096 . S
C3812 C643 1.009 . S
C3793 C255 1.037 . S
C3848 C676 0.930 . S
C3829 C246 0.939 . S
C3884 C687 0.966 . S
C3865 C135 0.949 . S
C3920 C527 1.113 . S
C3901 C316 1.108 . S
C3937 C119 1.024 . S
C3956 C542 1.039 . S
C3973 C283 1.076 . S
C3992 C574 1.050 . S
C4028 C684 0.985 . S
C4009 C331 0.966 . S
C4064 C615 0.998 . S
C4045 C161 1.017 . S
C4100 C577 1.067 . S
C4081 C120 1.054 . S
C4136 C520 1.052 . S
C4117 C143 1.048 . S
