# Generated by pormake.
# Topology anh, (6,3)-cn, num edge types: 1
# Building blocks:
#     Node 0, Type 0, BuildingBlock: CUKXOW_clean_sbu_0, # of connection points: 6
#     Node 1, Type 0, BuildingBlock: CUKXOW_clean_sbu_0, # of connection points: 6
#     Node 2, Type 0, BuildingBlock: CUKXOW_clean_sbu_0, # of connection points: 6
#     Node 3, Type 1, BuildingBlock: WUSLED_clean_sbu_0, # of connection points: 3
#     Node 4, Type 1, BuildingBlock: WUSLED_clean_sbu_0, # of connection points: 3
#     Node 5, Type 1, BuildingBlock: WUSLED_clean_sbu_0, # of connection points: 3
#     Node 6, Type 1, BuildingBlock: WUSLED_clean_sbu_0, # of connection points: 3
#     Node 7, Type 1, BuildingBlock: WUSLED_clean_sbu_0, # of connection points: 3
#     Node 8, Type 1, BuildingBlock: WUSLED_clean_sbu_0, # of connection points: 3
#     Edge 9, Type (0, 1), BuildingBlock: UVAHIK_clean_linker_0, # of connection points: 2
#     Edge 10, Type (0, 1), BuildingBlock: UVAHIK_clean_linker_0, # of connection points: 2
#     Edge 11, Type (0, 1), BuildingBlock: UVAHIK_clean_linker_0, # of connection points: 2
#     Edge 12, Type (0, 1), BuildingBlock: UVAHIK_clean_linker_0, # of connection points: 2
#     Edge 13, Type (0, 1), BuildingBlock: UVAHIK_clean_linker_0, # of connection points: 2
#     Edge 14, Type (0, 1), BuildingBlock: UVAHIK_clean_linker_0, # of connection points: 2
#     Edge 15, Type (0, 1), BuildingBlock: UVAHIK_clean_linker_0, # of connection points: 2
#     Edge 16, Type (0, 1), BuildingBlock: UVAHIK_clean_linker_0, # of connection points: 2
#     Edge 17, Type (0, 1), BuildingBlock: UVAHIK_clean_linker_0, # of connection points: 2
#     Edge 18, Type (0, 1), BuildingBlock: UVAHIK_clean_linker_0, # of connection points: 2
#     Edge 19, Type (0, 1), BuildingBlock: UVAHIK_clean_linker_0, # of connection points: 2
#     Edge 20, Type (0, 1), BuildingBlock: UVAHIK_clean_linker_0, # of connection points: 2
#     Edge 21, Type (0, 1), BuildingBlock: UVAHIK_clean_linker_0, # of connection points: 2
#     Edge 22, Type (0, 1), BuildingBlock: UVAHIK_clean_linker_0, # of connection points: 2
#     Edge 23, Type (0, 1), BuildingBlock: UVAHIK_clean_linker_0, # of connection points: 2
#     Edge 24, Type (0, 1), BuildingBlock: UVAHIK_clean_linker_0, # of connection points: 2
#     Edge 25, Type (0, 1), BuildingBlock: UVAHIK_clean_linker_0, # of connection points: 2
#     Edge 26, Type (0, 1), BuildingBlock: UVAHIK_clean_linker_0, # of connection points: 2
# Relax obj value: 0.127
# Max RMSD: 0.190
# Mean RMSD: 0.133
data_MOF--net-anh--node1-CUKXOW_clean_sbu_0--node2-WUSLED_clean_sbu_0--edge1-UVAHIK_clean_linker_0
_symmetry_space_group_name_H-M    P1
_symmetry_Int_Tables_number       1
_symmetry_cell_setting            triclinic
loop_
_symmetry_equiv_pos_as_xyz
'x, y, z'
_cell_length_a     46.365821
_cell_length_b     45.0631
_cell_length_c     84.069794
_cell_angle_alpha  95.221741
_cell_angle_beta   90.147023
_cell_angle_gamma 116.62634
loop_
_atom_site_label
_atom_site_type_symbol
_atom_site_fract_x
_atom_site_fract_y
_atom_site_fract_z
_atom_type_partial_charge
Tb0 Tb 0.07572 0.53324 0.16298 0.0
C1 C 0.04413 0.49927 0.19384 0.0
Tb2 Tb 0.0239 0.45757 0.15913 0.0
O3 O 0.04128 0.55519 0.1628 0.0
O4 O 0.02568 0.50484 0.16118 0.0
O5 O 0.06705 0.5258 0.18803 0.0
C6 C 0.97082 0.39982 0.1598 0.0
O7 O 0.02421 0.47168 0.18477 0.0
C8 C 0.08423 0.46913 0.15447 0.0
C9 C 0.04895 0.49475 0.12882 0.0
O10 O 0.99809 0.40813 0.16755 0.0
O11 O 0.97366 0.42383 0.15149 0.0
O12 O 0.05906 0.44272 0.14826 0.0
O13 O 0.07474 0.48566 0.16415 0.0
O14 O 0.02349 0.47172 0.1352 0.0
O15 O 0.07465 0.51742 0.13755 0.0
C16 C 0.13242 0.58801 0.16662 0.0
O17 O 0.11007 0.58165 0.15566 0.0
O18 O 0.12286 0.56349 0.17547 0.0
C19 C 0.01561 0.52649 0.16131 0.0
Tb20 Tb 0.50455 0.01573 0.50916 0.0
C21 C 0.53796 0.04562 0.47837 0.0
Tb22 Tb 0.57541 0.06896 0.51246 0.0
O23 O 0.48882 0.05241 0.50248 0.0
O24 O 0.52998 0.06734 0.51725 0.0
O25 O 0.51485 0.01919 0.48403 0.0
C26 C 0.63147 0.1239 0.51121 0.0
O27 O 0.56123 0.06988 0.48774 0.0
C28 C 0.56699 1.00753 0.5131 0.0
C29 C 0.54196 0.03925 0.54334 0.0
O30 O 0.62427 0.09469 0.50387 0.0
O31 O 0.60721 0.12211 0.51944 0.0
O32 O 0.59225 0.03361 0.51943 0.0
O33 O 0.55015 0.01695 0.505 0.0
O34 O 0.56521 0.06569 0.53763 0.0
O35 O 0.5183 0.01499 0.53404 0.0
C36 C 0.44859 0.95987 0.50772 0.0
O37 O 0.45439 0.98787 0.51602 0.0
O38 O 0.47422 0.96342 0.50029 0.0
C39 C 0.51364 0.07785 0.50961 0.0
Tb40 Tb 0.53604 0.53613 0.83727 0.0
C41 C 0.56715 0.54004 0.87094 0.0
Tb42 Tb 0.60596 0.5495 0.83868 0.0
O43 O 0.52024 0.48501 0.8432 0.0
O44 O 0.56175 0.50857 0.83044 0.0
O45 O 0.54235 0.54015 0.86307 0.0
C46 C 0.66098 0.54485 0.84148 0.0
O47 O 0.59344 0.54197 0.86375 0.0
C48 C 0.59679 0.60253 0.83767 0.0
C49 C 0.57439 0.54584 0.80535 0.0
O50 O 0.65872 0.5724 0.84103 0.0
O51 O 0.6323 0.52001 0.8406 0.0
O52 O 0.6214 0.59975 0.83177 0.0
O53 O 0.58041 0.57747 0.84501 0.0
O54 O 0.59691 0.54093 0.81281 0.0
O55 O 0.55073 0.54872 0.81309 0.0
C56 C 0.48229 0.54228 0.83268 0.0
O57 O 0.48635 0.51647 0.8275 0.0
O58 O 0.50814 0.56416 0.84068 0.0
C59 C 0.54515 0.48279 0.83725 0.0
C60 C 0.60693 0.07793 0.2003 0.0
C61 C 0.63005 0.09874 0.2123 0.0
C62 C 0.66591 0.12964 0.19216 0.0
C63 C 0.65928 0.1243 0.20827 0.0
C64 C 0.64253 0.1087 0.18019 0.0
C65 C 0.61327 0.08305 0.18424 0.0
U66 U 0.55051 0.03502 0.2322 0.0
O67 O 0.49762 0.01338 0.23326 0.0
O68 O 0.52216 0.982 0.23556 0.0
C69 C 0.49438 0.98306 0.23422 0.0
C70 C 0.57626 0.05101 0.20459 0.0
C71 C 0.46841 0.9555 0.22393 0.0
C72 C 0.41362 0.93012 0.21204 0.0
C73 C 0.44009 0.95771 0.21978 0.0
C74 C 0.44346 0.89772 0.21205 0.0
C75 C 0.41474 0.89958 0.2084 0.0
C76 C 0.46994 0.92531 0.21977 0.0
C77 C 0.57584 0.07009 0.27561 0.0
C78 C 0.53948 0.0494 0.29714 0.0
C79 C 0.59629 0.08619 0.30323 0.0
C80 C 0.60151 0.08771 0.2869 0.0
C81 C 0.5652 0.06703 0.30857 0.0
C82 C 0.54478 0.05085 0.28079 0.0
C83 C 0.58195 0.07139 0.25849 0.0
O84 O 0.57913 0.02863 0.21257 0.0
O85 O 0.55547 0.06087 0.21062 0.0
O86 O 0.56259 0.07844 0.24986 0.0
O87 O 0.58692 0.04678 0.25168 0.0
H88 H 0.62552 0.0951 0.22478 0.0
H89 H 0.67687 0.13958 0.21779 0.0
H90 H 0.64665 0.11236 0.16769 0.0
H91 H 0.5956 0.06727 0.17484 0.0
H92 H 0.392 0.93251 0.20923 0.0
H93 H 0.43795 0.98045 0.22296 0.0
H94 H 0.44502 0.87448 0.20962 0.0
H95 H 0.49115 0.9225 0.22299 0.0
H96 H 0.51519 0.03471 0.30082 0.0
H97 H 0.61676 0.09959 0.31167 0.0
H98 H 0.62569 0.10245 0.28308 0.0
H99 H 0.52467 0.03694 0.2722 0.0
C100 C 0.54645 0.61971 0.53153 0.0
C101 C 0.531 0.63344 0.54203 0.0
C102 C 0.54669 0.68117 0.52658 0.0
C103 C 0.53095 0.66372 0.53953 0.0
C104 C 0.56218 0.66736 0.51611 0.0
C105 C 0.56198 0.6369 0.51855 0.0
U106 U 0.55079 0.56216 0.56056 0.0
O107 O 0.52619 0.5076 0.56079 0.0
O108 O 0.57929 0.53403 0.56124 0.0
C109 C 0.55343 0.50521 0.56118 0.0
C110 C 0.54762 0.58833 0.53437 0.0
C111 C 0.55417 0.47573 0.55234 0.0
C112 C 0.53395 0.42887 0.53155 0.0
C113 C 0.53526 0.45922 0.53826 0.0
C114 C 0.5707 0.43167 0.55279 0.0
C115 C 0.55134 0.41442 0.53887 0.0
C116 C 0.57216 0.4619 0.55935 0.0
C117 C 0.55531 0.5889 0.60495 0.0
C118 C 0.56084 0.55488 0.62442 0.0
C119 C 0.55958 0.60696 0.63331 0.0
C120 C 0.55628 0.6122 0.61741 0.0
C121 C 0.56198 0.57827 0.63702 0.0
C122 C 0.55755 0.56017 0.60852 0.0
C123 C 0.55265 0.59503 0.58828 0.0
O124 O 0.57499 0.59205 0.54091 0.0
O125 O 0.52206 0.56591 0.54066 0.0
O126 O 0.52557 0.57428 0.58033 0.0
O127 O 0.57837 0.60077 0.58008 0.0
H128 H 0.51923 0.62093 0.55228 0.0
H129 H 0.51919 0.67386 0.54795 0.0
H130 H 0.5743 0.68 0.50596 0.0
H131 H 0.57418 0.62687 0.51034 0.0
H132 H 0.51907 0.41661 0.52073 0.0
H133 H 0.52102 0.46936 0.53267 0.0
H134 H 0.58387 0.42125 0.55906 0.0
H135 H 0.58655 0.47396 0.57035 0.0
H136 H 0.56298 0.53273 0.62683 0.0
H137 H 0.5599 0.62521 0.64272 0.0
H138 H 0.55455 0.6345 0.61484 0.0
H139 H 0.557 0.54199 0.599 0.0
C140 C 0.01714 0.52863 0.85012 0.0
C141 C 0.98808 0.50711 0.85646 0.0
C142 C 0.95806 0.52294 0.83816 0.0
C143 C 0.95878 0.50414 0.85047 0.0
C144 C 0.98713 0.54369 0.83148 0.0
C145 C 0.01651 0.54645 0.83742 0.0
U146 U 0.06485 0.5348 0.88752 0.0
O147 O 0.10183 0.51847 0.89218 0.0
O148 O 0.11372 0.57162 0.89635 0.0
C149 C 0.12471 0.54926 0.89511 0.0
C150 C 0.04808 0.53517 0.85782 0.0
C151 C 0.15242 0.55725 0.8851 0.0
C152 C 0.17389 0.56082 0.8587 0.0
C153 C 0.14817 0.55568 0.86847 0.0
C154 C 0.20864 0.57039 0.88219 0.0
C155 C 0.20425 0.56778 0.86545 0.0
C156 C 0.1828 0.56506 0.89196 0.0
C157 C 0.02445 0.51748 0.92659 0.0
C158 C 0.05622 0.51938 0.94996 0.0
C159 C 1.00024 0.50825 0.95233 0.0
C160 C 0.99774 0.51068 0.93597 0.0
C161 C 0.02954 0.51262 0.9595 0.0
C162 C 0.05369 0.52183 0.93365 0.0
C163 C 0.02196 0.51999 0.90945 0.0
O164 O 0.06062 0.56217 0.86802 0.0
O165 O 0.04931 0.50927 0.86325 0.0
O166 O 0.02613 0.49729 0.90015 0.0
O167 O 0.038 0.55028 0.90515 0.0
H168 H 0.9881 0.49355 0.86647 0.0
H169 H 0.93684 0.48845 0.85606 0.0
H170 H 0.98719 0.55838 0.82196 0.0
H171 H 0.0388 0.56337 0.83249 0.0
H172 H 0.16996 0.55892 0.84586 0.0
H173 H 0.12475 0.54976 0.86303 0.0
H174 H 0.2317 0.5753 0.88769 0.0
H175 H 0.18634 0.56628 0.90479 0.0
H176 H 0.07897 0.52241 0.95507 0.0
H177 H 0.97939 0.5034 0.9594 0.0
H178 H 0.97503 0.50735 0.93067 0.0
H179 H 0.07453 0.52702 0.9265 0.0
C180 C 0.96818 0.48052 0.47223 0.0
C181 C 0.94851 0.45601 0.46017 0.0
C182 C 0.91333 0.42345 0.4801 0.0
C183 C 0.9214 0.42774 0.46406 0.0
C184 C 0.93288 0.44838 0.49214 0.0
C185 C 0.96014 0.47665 0.48822 0.0
U186 U 0.01948 0.53039 0.44042 0.0
O187 O 0.0466 0.58435 0.43877 0.0
O188 O 0.07198 0.55313 0.43749 0.0
C189 C 0.07451 0.58342 0.43784 0.0
C190 C 0.99726 0.50971 0.46808 0.0
C191 C 0.10207 0.60994 0.44748 0.0
C192 C 0.1256 0.64916 0.47125 0.0
C193 C 0.09888 0.62266 0.4629 0.0
C194 C 0.1588 0.64996 0.44893 0.0
C195 C 0.15589 0.66319 0.46431 0.0
C196 C 0.13221 0.62366 0.44064 0.0
C197 C 0.99085 0.49891 0.39694 0.0
C198 C 0.02576 0.52052 0.37498 0.0
C199 C 0.96906 0.48248 0.36952 0.0
C200 C 0.96472 0.48089 0.38592 0.0
C201 C 0.9997 0.50208 0.36382 0.0
C202 C 0.02135 0.51901 0.3914 0.0
C203 C 0.98614 0.49613 0.41411 0.0
O204 O 0.01872 0.50259 0.46072 0.0
O205 O 0.99187 0.53221 0.46146 0.0
O206 O 0.98134 0.51994 0.42201 0.0
O207 O 1.00645 0.48864 0.42168 0.0
H208 H 0.95426 0.45868 0.44773 0.0
H209 H 0.90661 0.40931 0.45448 0.0
H210 H 0.92748 0.44571 0.5046 0.0
H211 H 0.97509 0.49532 0.49768 0.0
H212 H 0.1226 0.65858 0.48312 0.0
H213 H 0.07578 0.61235 0.46841 0.0
H214 H 0.18152 0.66047 0.44308 0.0
H215 H 0.13509 0.61432 0.42871 0.0
H216 H 0.04973 0.53557 0.37104 0.0
H217 H 0.94835 0.46842 0.36129 0.0
H218 H 0.94098 0.46541 0.39002 0.0
H219 H 0.04181 0.53317 0.39976 0.0
C220 C 0.56766 0.96614 0.81769 0.0
C221 C 0.56605 0.94411 0.80441 0.0
C222 C 0.56786 0.90466 0.82194 0.0
C223 C 0.56616 0.91373 0.8065 0.0
C224 C 0.56905 0.92669 0.83523 0.0
C225 C 0.56902 0.9572 0.83311 0.0
U226 U 0.56528 0.02442 0.78904 0.0
O227 O 0.54161 0.05721 0.78909 0.0
O228 O 0.5944 0.07843 0.78762 0.0
C229 C 0.569 0.08418 0.78816 0.0
C230 C 0.56843 0.99852 0.81532 0.0
C231 C 0.57282 0.11571 0.79698 0.0
C232 C 0.55737 0.14707 0.81742 0.0
C233 C 0.55638 0.11678 0.81086 0.0
C234 C 0.59166 0.17537 0.79649 0.0
C235 C 0.5746 0.17672 0.81014 0.0
C236 C 0.59084 0.14533 0.79006 0.0
C237 C 0.55698 0.99461 0.74442 0.0
C238 C 0.58153 0.02239 0.72098 0.0
C239 C 0.52587 0.97999 0.71909 0.0
C240 C 0.52811 0.97554 0.73521 0.0
C241 C 0.55258 1.00344 0.71175 0.0
C242 C 0.58371 0.01808 0.73712 0.0
C243 C 0.55893 0.9893 0.76144 0.0
O244 O 0.59411 0.0191 0.8084 0.0
O245 O 0.54139 0.99678 0.80935 0.0
O246 O 0.53421 0.98672 0.76986 0.0
O247 O 0.5869 1.00741 0.76925 0.0
H248 H 0.56486 0.95052 0.79239 0.0
H249 H 0.5647 0.89722 0.796 0.0
H250 H 0.57066 0.92066 0.84728 0.0
H251 H 0.57033 0.97391 0.84351 0.0
H252 H 0.54428 0.14713 0.82806 0.0
H253 H 0.54218 0.09419 0.81639 0.0
H254 H 0.60464 0.19726 0.79027 0.0
H255 H 0.60335 0.14501 0.77922 0.0
H256 H 0.60276 0.04024 0.71568 0.0
H257 H 0.50306 0.96525 0.71243 0.0
H258 H 0.50719 0.95717 0.74051 0.0
H259 H 0.60643 0.03308 0.7438 0.0
C260 C 0.63254 0.50229 0.13945 0.0
C261 C 0.64177 0.4851 0.12731 0.0
C262 C 0.69439 0.50343 0.14126 0.0
C263 C 0.67234 0.48571 0.1282 0.0
C264 C 0.6852 0.52119 0.15316 0.0
C265 C 0.65473 0.52055 0.15227 0.0
U266 U 0.55493 0.50232 0.12106 0.0
O267 O 0.50439 0.46995 0.12653 0.0
O268 O 0.52498 0.52433 0.13228 0.0
C269 C 0.49966 0.4952 0.13271 0.0
C270 C 0.59947 0.49989 0.13978 0.0
C271 C 0.46679 0.49298 0.13102 0.0
C272 C 0.41211 0.47014 0.14057 0.0
C273 C 0.44257 0.47085 0.14003 0.0
C274 C 0.42887 0.51329 0.12264 0.0
C275 C 0.40462 0.49139 0.13195 0.0
C276 C 0.45967 0.51419 0.12224 0.0
C277 C 0.55842 0.5163 0.07491 0.0
C278 C 0.53202 0.49234 0.04851 0.0
C279 C 0.5741 0.5493 0.05222 0.0
C280 C 0.57714 0.54649 0.06848 0.0
C281 C 0.55225 0.52195 0.04194 0.0
C282 C 0.53522 0.48945 0.06483 0.0
C283 C 0.56809 0.5119 0.09101 0.0
O284 O 0.5969 0.52741 0.13835 0.0
O285 O 0.57602 0.47339 0.13199 0.0
O286 O 0.55394 0.48212 0.09611 0.0
O287 O 0.57532 0.53645 0.10243 0.0
H288 H 0.62518 0.4707 0.11728 0.0
H289 H 0.67832 0.47152 0.11885 0.0
H290 H 0.70158 0.53567 0.16324 0.0
H291 H 0.64827 0.53399 0.1618 0.0
H292 H 0.39478 0.45348 0.1482 0.0
H293 H 0.44756 0.45465 0.14715 0.0
H294 H 0.42414 0.52981 0.11567 0.0
H295 H 0.47797 0.53175 0.11529 0.0
H296 H 0.51504 0.47078 0.04089 0.0
H297 H 0.5897 0.57259 0.04757 0.0
H298 H 0.5955 0.56747 0.07588 0.0
H299 H 0.52068 0.46569 0.06935 0.0
C300 C 0.12467 0.46 0.13786 0.0
C301 C 0.1182 0.47607 0.15148 0.0
C302 C 0.15598 0.46408 0.1352 0.0
C303 C 0.24347 0.51486 0.14912 0.0
H304 H 0.24993 0.4385 0.12757 0.0
C305 C 0.36806 0.52009 0.13271 0.0
C306 C 0.37191 0.49084 0.13308 0.0
C307 C 0.33765 0.51952 0.13457 0.0
C308 C 0.24887 0.46005 0.1338 0.0
H309 H 0.13981 0.50964 0.17292 0.0
H310 H 0.19447 0.51598 0.16868 0.0
H311 H 0.19735 0.43542 0.13223 0.0
H312 H 0.34565 0.43771 0.13527 0.0
H313 H 0.29379 0.43706 0.13929 0.0
H314 H 0.29523 0.53878 0.1514 0.0
C315 C 0.17548 0.50071 0.15976 0.0
C316 C 0.21836 0.45852 0.13623 0.0
C317 C 0.14406 0.49703 0.16227 0.0
C318 C 0.34419 0.461 0.13519 0.0
C319 C 0.31399 0.46051 0.13723 0.0
C320 C 0.27412 0.51625 0.14687 0.0
C321 C 0.18191 0.48387 0.14627 0.0
C322 C 0.21499 0.4859 0.14386 0.0
C323 C 0.31006 0.48972 0.13696 0.0
C324 C 0.27738 0.48881 0.13917 0.0
H325 H 0.10535 0.44401 0.1292 0.0
H326 H 0.1597 0.4515 0.1244 0.0
H327 H 0.24223 0.5367 0.15489 0.0
H328 H 0.38866 0.54371 0.13129 0.0
H329 H 0.33585 0.54254 0.13403 0.0
C330 C 0.68476 0.15354 0.4991 0.0
C331 C 0.66136 0.15461 0.50937 0.0
C332 C 0.71225 0.18279 0.49657 0.0
C333 C 0.76308 0.2699 0.51352 0.0
H334 H 0.78994 0.28232 0.46998 0.0
C335 C 0.86371 0.39478 0.49573 0.0
C336 C 0.88485 0.39287 0.48417 0.0
C337 C 0.83656 0.36599 0.49923 0.0
C338 C 0.78308 0.27912 0.48224 0.0
H339 H 0.64847 0.18691 0.52527 0.0
H340 H 0.69664 0.23819 0.52087 0.0
H341 H 0.7428 0.23167 0.47545 0.0
H342 H 0.89457 0.35899 0.46763 0.0
H343 H 0.84755 0.3089 0.4738 0.0
H344 H 0.80353 0.31732 0.52031 0.0
C345 C 0.69384 0.2147 0.51484 0.0
C346 C 0.75599 0.25005 0.48538 0.0
C347 C 0.66623 0.1854 0.51732 0.0
C348 C 0.87845 0.36144 0.47638 0.0
C349 C 0.85143 0.3327 0.47991 0.0
C350 C 0.79031 0.29898 0.51039 0.0
C351 C 0.71701 0.21378 0.50429 0.0
C352 C 0.74572 0.24499 0.50105 0.0
C353 C 0.82997 0.33458 0.4913 0.0
C354 C 0.80074 0.3039 0.49471 0.0
H355 H 0.68163 0.13011 0.49284 0.0
H356 H 0.72985 0.18111 0.48856 0.0
H357 H 0.756 0.26663 0.52575 0.0
H358 H 0.86776 0.41865 0.50183 0.0
H359 H 0.82037 0.36847 0.50792 0.0
C360 C 0.60644 0.65383 0.82502 0.0
C361 C 0.59021 0.63144 0.83625 0.0
C362 C 0.60118 0.68168 0.8236 0.0
C363 C 0.57384 0.7382 0.84568 0.0
H364 H 0.56898 0.76489 0.80359 0.0
C365 C 0.55129 0.85251 0.83592 0.0
C366 C 0.5688 0.87255 0.82406 0.0
C367 C 0.55184 0.82209 0.83762 0.0
C368 C 0.57063 0.75804 0.81545 0.0
H369 H 0.55604 0.62085 0.85497 0.0
H370 H 0.54651 0.66961 0.85241 0.0
H371 H 0.57296 0.71343 0.80608 0.0
H372 H 0.60145 0.87664 0.80502 0.0
H373 H 0.60256 0.82397 0.80801 0.0
H374 H 0.572 0.78314 0.85506 0.0
C375 C 0.56338 0.66557 0.84471 0.0
C376 C 0.57283 0.72843 0.81687 0.0
C377 C 0.56856 0.63749 0.84607 0.0
C378 C 0.58715 0.86157 0.81407 0.0
C379 C 0.58775 0.83127 0.81578 0.0
C380 C 0.57172 0.76793 0.84426 0.0
C381 C 0.57965 0.68801 0.83343 0.0
C382 C 0.57491 0.71833 0.832 0.0
C383 C 0.56996 0.81098 0.82751 0.0
C384 C 0.57052 0.77848 0.82912 0.0
H385 H 0.62334 0.64984 0.81731 0.0
H386 H 0.6145 0.69865 0.81496 0.0
H387 H 0.57572 0.73134 0.85752 0.0
H388 H 0.53662 0.86 0.84371 0.0
H389 H 0.53758 0.807 0.84667 0.0
C390 C 0.97623 0.54873 0.15608 0.0
C391 C 0.98183 0.5215 0.15901 0.0
C392 C 0.94476 0.54484 0.15367 0.0
C393 C 0.85862 0.48915 0.16054 0.0
H394 H 0.84271 0.53973 0.12971 0.0
C395 C 0.73954 0.50207 0.1577 0.0
C396 C 0.72656 0.50308 0.14269 0.0
C397 C 0.76982 0.50237 0.15918 0.0
C398 C 0.8465 0.52511 0.13826 0.0
H399 H 0.95858 0.46902 0.16228 0.0
H400 H 0.90344 0.46177 0.15775 0.0
H401 H 0.89633 0.54316 0.13294 0.0
H402 H 0.73579 0.50499 0.11744 0.0
H403 H 0.78819 0.50489 0.11998 0.0
H404 H 0.80862 0.47074 0.16569 0.0
C405 C 0.92345 0.4863 0.15731 0.0
C406 C 0.87752 0.52742 0.14028 0.0
C407 C 0.95509 0.49027 0.15971 0.0
C408 C 0.74474 0.50397 0.12919 0.0
C409 C 0.77508 0.5043 0.13068 0.0
C410 C 0.82757 0.48686 0.15853 0.0
C411 C 0.91781 0.51354 0.15416 0.0
C412 C 0.88419 0.50973 0.15155 0.0
C413 C 0.78819 0.50365 0.14572 0.0
C414 C 0.82105 0.50501 0.14745 0.0
H415 H 0.99629 0.57323 0.15558 0.0
H416 H 0.94159 0.5666 0.15163 0.0
H417 H 0.86271 0.4753 0.16942 0.0
H418 H 0.72621 0.50085 0.16837 0.0
H419 H 0.77906 0.5022 0.171 0.0
C420 C 0.38952 0.92915 0.51246 0.0
C421 C 0.41771 0.92907 0.50644 0.0
C422 C 0.36005 0.90012 0.51049 0.0
C423 C 0.32494 0.80842 0.50225 0.0
H424 H 0.25046 0.81446 0.48484 0.0
C425 C 0.21533 0.69388 0.47167 0.0
C426 C 0.18432 0.69206 0.47272 0.0
C427 C 0.24254 0.72225 0.4782 0.0
C428 C 0.27077 0.8123 0.49 0.0
H429 H 0.43751 0.89862 0.49399 0.0
H430 H 0.38625 0.84793 0.49068 0.0
H431 H 0.3004 0.86525 0.49194 0.0
H432 H 0.15762 0.7184 0.48199 0.0
H433 H 0.2051 0.76767 0.49377 0.0
H434 H 0.29556 0.75556 0.50026 0.0
C435 C 0.3868 0.8703 0.49693 0.0
C436 C 0.29945 0.84146 0.49404 0.0
C437 C 0.41611 0.89936 0.49874 0.0
C438 C 0.18111 0.71887 0.48103 0.0
C439 C 0.2084 0.74731 0.48762 0.0
C440 C 0.29623 0.7793 0.49835 0.0
C441 C 0.35837 0.87039 0.50266 0.0
C442 C 0.32704 0.83978 0.49989 0.0
C443 C 0.23953 0.74958 0.48606 0.0
C444 C 0.26896 0.78078 0.49184 0.0
H445 H 0.39015 0.95177 0.51845 0.0
H446 H 0.33858 0.90088 0.51511 0.0
H447 H 0.34565 0.80636 0.50699 0.0
H448 H 0.21867 0.6735 0.46557 0.0
H449 H 0.26606 0.72313 0.47659 0.0
C450 C 0.57458 0.45041 0.82705 0.0
C451 C 0.54951 0.45205 0.8358 0.0
C452 C 0.57848 0.42125 0.82557 0.0
C453 C 0.5514 0.33881 0.84228 0.0
H454 H 0.58459 0.3169 0.80303 0.0
C455 C 0.545 0.20843 0.82186 0.0
C456 C 0.57351 0.20858 0.81599 0.0
C457 C 0.54303 0.2384 0.82567 0.0
C458 C 0.57552 0.32282 0.81411 0.0
H459 H 0.50837 0.42416 0.84958 0.0
H460 H 0.51402 0.37276 0.84637 0.0
H461 H 0.57864 0.36801 0.80647 0.0
H462 H 0.62297 0.24097 0.81058 0.0
H463 H 0.61898 0.29287 0.81667 0.0
H464 H 0.5471 0.29251 0.84949 0.0
C465 C 0.5316 0.39431 0.84114 0.0
C466 C 0.57226 0.3523 0.81617 0.0
C467 C 0.52812 0.42374 0.84287 0.0
C468 C 0.60031 0.23963 0.81464 0.0
C469 C 0.59814 0.26947 0.81819 0.0
C470 C 0.55412 0.30896 0.84008 0.0
C471 C 0.55687 0.39257 0.83246 0.0
C472 C 0.5603 0.36092 0.83032 0.0
C473 C 0.56934 0.26917 0.8235 0.0
C474 C 0.56638 0.30077 0.826 0.0
H475 H 0.59108 0.47159 0.8212 0.0
H476 H 0.59859 0.42136 0.81903 0.0
H477 H 0.54265 0.34463 0.85347 0.0
H478 H 0.52371 0.18515 0.8229 0.0
H479 H 0.52047 0.23743 0.82967 0.0
C480 C 0.53254 0.9461 0.51429 0.0
C481 C 0.56295 0.97302 0.51291 0.0
C482 C 0.52941 0.91382 0.51499 0.0
C483 C 0.57127 0.8615 0.50549 0.0
H484 H 0.51783 0.80764 0.53734 0.0
C485 C 0.57604 0.74081 0.52025 0.0
C486 C 0.54739 0.71391 0.5242 0.0
C487 C 0.57694 0.77177 0.51836 0.0
C488 C 0.53248 0.82204 0.52819 0.0
H489 H 0.61408 0.98759 0.51152 0.0
H490 H 0.60876 0.93135 0.51259 0.0
H491 H 0.52067 0.8623 0.53466 0.0
H492 H 0.49699 0.69835 0.52891 0.0
H493 H 0.49832 0.75205 0.52533 0.0
H494 H 0.58295 0.82131 0.4989 0.0
C495 C 0.58716 0.93492 0.51289 0.0
C496 C 0.53413 0.85348 0.52668 0.0
C497 C 0.59025 0.96716 0.51236 0.0
C498 C 0.51957 0.71867 0.52607 0.0
C499 C 0.52039 0.74956 0.52406 0.0
C500 C 0.56943 0.82998 0.50691 0.0
C501 C 0.55672 0.90783 0.51428 0.0
C502 C 0.55376 0.87373 0.51541 0.0
C503 C 0.54912 0.77664 0.52024 0.0
C504 C 0.55023 0.80987 0.51838 0.0
H505 H 0.51139 0.95015 0.51547 0.0
H506 H 0.50562 0.89355 0.51611 0.0
H507 H 0.58626 0.87624 0.49652 0.0
H508 H 0.59804 0.73817 0.51896 0.0
H509 H 0.59969 0.79208 0.51573 0.0
C510 C 0.69035 0.51018 0.83982 0.0
C511 C 0.69118 0.5418 0.84101 0.0
C512 C 0.71881 0.50704 0.8381 0.0
C513 C 0.80178 0.55149 0.82496 0.0
H514 H 0.81737 0.48998 0.84882 0.0
C515 C 0.92638 0.5538 0.83282 0.0
C516 C 0.92738 0.52328 0.83363 0.0
C517 C 0.89681 0.55472 0.83139 0.0
C518 C 0.81313 0.50683 0.84184 0.0
H519 H 0.72208 0.59496 0.84166 0.0
H520 H 0.77201 0.58957 0.8389 0.0
H521 H 0.76736 0.49467 0.8519 0.0
H522 H 0.89857 0.46964 0.83232 0.0
H523 H 0.84682 0.47118 0.82966 0.0
H524 H 0.84784 0.56397 0.81508 0.0
C525 C 0.74937 0.56718 0.83903 0.0
C526 C 0.78453 0.50959 0.84366 0.0
C527 C 0.72089 0.5703 0.84076 0.0
C528 C 0.89841 0.49353 0.83196 0.0
C529 C 0.86885 0.49444 0.83049 0.0
C530 C 0.83042 0.54872 0.82313 0.0
C531 C 0.74856 0.5355 0.83753 0.0
C532 C 0.77865 0.53212 0.83533 0.0
C533 C 0.86772 0.52511 0.83071 0.0
C534 C 0.83646 0.5265 0.83164 0.0
H535 H 0.66764 0.48781 0.83988 0.0
H536 H 0.71741 0.48229 0.83683 0.0
H537 H 0.79765 0.56868 0.81818 0.0
H538 H 0.94831 0.57716 0.83427 0.0
H539 H 0.89671 0.57876 0.83173 0.0
C540 C 0.18392 0.62415 0.18241 0.0
C541 C 0.16281 0.61914 0.16933 0.0
C542 C 0.21174 0.65443 0.18562 0.0
C543 C 0.26777 0.73027 0.16782 0.0
H544 H 0.28654 0.76903 0.212 0.0
C545 C 0.38755 0.84571 0.1904 0.0
C546 C 0.38538 0.86912 0.20198 0.0
C547 C 0.36025 0.81581 0.18542 0.0
C548 C 0.28152 0.75869 0.19958 0.0
H549 H 0.15449 0.64132 0.1491 0.0
H550 H 0.20318 0.69439 0.15471 0.0
H551 H 0.23967 0.71539 0.20518 0.0
H552 H 0.35261 0.87957 0.2172 0.0
H553 H 0.30504 0.82783 0.20831 0.0
H554 H 0.30957 0.77391 0.16225 0.0
C555 C 0.19833 0.67488 0.16244 0.0
C556 C 0.25488 0.72774 0.19571 0.0
C557 C 0.1704 0.64459 0.15927 0.0
C558 C 0.35512 0.8623 0.20814 0.0
C559 C 0.3279 0.83243 0.2032 0.0
C560 C 0.29459 0.76124 0.17172 0.0
C561 C 0.21908 0.6803 0.17579 0.0
C562 C 0.24768 0.71314 0.17979 0.0
C563 C 0.33023 0.8086 0.19197 0.0
C564 C 0.30171 0.77583 0.18765 0.0
H565 H 0.17868 0.60486 0.19031 0.0
H566 H 0.22748 0.65764 0.19585 0.0
H567 H 0.26297 0.71957 0.15547 0.0
H568 H 0.41044 0.85034 0.18531 0.0
H569 H 0.36288 0.7979 0.17681 0.0
C570 C 0.54328 0.1376 0.52113 0.0
C571 C 0.51815 0.11271 0.51119 0.0
C572 C 0.54732 0.17044 0.52282 0.0
C573 C 0.52024 0.2281 0.50513 0.0
H574 H 0.5556 0.28102 0.54576 0.0
C575 C 0.51862 0.35501 0.52632 0.0
C576 C 0.54833 0.38083 0.53273 0.0
C577 C 0.51512 0.32263 0.52226 0.0
C578 C 0.54586 0.26658 0.53432 0.0
H579 H 0.477 0.10249 0.49548 0.0
H580 H 0.48282 0.15924 0.49903 0.0
H581 H 0.54836 0.22394 0.542 0.0
H582 H 0.59822 0.39282 0.53877 0.0
H583 H 0.59158 0.33625 0.53233 0.0
H584 H 0.51655 0.27087 0.49788 0.0
C585 C 0.50039 0.15397 0.50507 0.0
C586 C 0.54189 0.23382 0.53207 0.0
C587 C 0.4968 0.12124 0.50312 0.0
C588 C 0.5747 0.37356 0.53433 0.0
C589 C 0.57102 0.34116 0.53055 0.0
C590 C 0.52361 0.26074 0.50753 0.0
C591 C 0.52572 0.17915 0.51497 0.0
C592 C 0.52933 0.21408 0.51738 0.0
C593 C 0.54109 0.31524 0.52473 0.0
C594 C 0.53675 0.28039 0.5221 0.0
H595 H 0.55964 0.13167 0.52779 0.0
H596 H 0.56752 0.18894 0.53031 0.0
H597 H 0.51096 0.21413 0.49356 0.0
H598 H 0.49764 0.35939 0.52504 0.0
H599 H 0.49173 0.30304 0.51783 0.0
C600 C 0.42666 0.52187 0.82062 0.0
C601 C 0.45324 0.54657 0.82983 0.0
C602 C 0.39865 0.52567 0.81852 0.0
C603 C 0.36567 0.58742 0.82462 0.0
H604 H 0.28768 0.51034 0.83405 0.0
C605 C 0.26242 0.59447 0.85883 0.0
C606 C 0.23065 0.56983 0.8551 0.0
C607 C 0.2879 0.59361 0.85037 0.0
C608 C 0.30901 0.53191 0.831 0.0
H609 H 0.47223 0.59506 0.84357 0.0
H610 H 0.42321 0.60135 0.84035 0.0
H611 H 0.33643 0.50445 0.82891 0.0
H612 H 0.20033 0.526 0.83909 0.0
H613 H 0.24498 0.5245 0.8243 0.0
H614 H 0.33848 0.61525 0.82778 0.0
C615 C 0.42396 0.57934 0.83445 0.0
C616 C 0.337 0.52853 0.82804 0.0
C617 C 0.45192 0.57557 0.83648 0.0
C618 C 0.2246 0.54541 0.84217 0.0
C619 C 0.25011 0.54443 0.83377 0.0
C620 C 0.33768 0.59084 0.8277 0.0
C621 C 0.39683 0.55422 0.82566 0.0
C622 C 0.36595 0.55652 0.82544 0.0
C623 C 0.28206 0.56796 0.83809 0.0
C624 C 0.30945 0.56335 0.83148 0.0
H625 H 0.42734 0.49943 0.81523 0.0
H626 H 0.37825 0.50605 0.81155 0.0
H627 H 0.38746 0.60929 0.82231 0.0
H628 H 0.26766 0.61376 0.86864 0.0
H629 H 0.31233 0.61188 0.85408 0.0
C630 C 0.93936 0.34681 0.17212 0.0
C631 C 0.94048 0.36956 0.16151 0.0
C632 C 0.91006 0.31954 0.17469 0.0
C633 C 0.82674 0.26762 0.15767 0.0
H634 H 0.80763 0.2487 0.20156 0.0
C635 C 0.71363 0.15191 0.17473 0.0
C636 C 0.69715 0.15687 0.18794 0.0
C637 C 0.74337 0.17727 0.17104 0.0
C638 C 0.81252 0.25376 0.18924 0.0
H639 H 0.91215 0.38143 0.145 0.0
H640 H 0.86092 0.33379 0.14946 0.0
H641 H 0.85952 0.29357 0.19575 0.0
H642 H 0.69871 0.19288 0.20733 0.0
H643 H 0.75059 0.23694 0.20096 0.0
H644 H 0.77943 0.22812 0.15121 0.0
C645 C 0.88267 0.33681 0.15572 0.0
C646 C 0.84242 0.27923 0.1859 0.0
C647 C 0.91196 0.36415 0.1532 0.0
C648 C 0.711 0.18794 0.19726 0.0
C649 C 0.74075 0.21323 0.19361 0.0
C650 C 0.79686 0.24201 0.16101 0.0
C651 C 0.8813 0.31442 0.16665 0.0
C652 C 0.84984 0.28657 0.17008 0.0
C653 C 0.75738 0.20815 0.18051 0.0
C654 C 0.78933 0.23492 0.17685 0.0
H655 H 0.96103 0.35042 0.17868 0.0
H656 H 0.9099 0.30251 0.18303 0.0
H657 H 0.83181 0.27249 0.14534 0.0
H658 H 0.7039 0.12816 0.16743 0.0
H659 H 0.75574 0.17244 0.16098 0.0
C660 C 0.02171 0.47207 0.10163 0.0
C661 C 0.04865 0.49522 0.11126 0.0
C662 C 0.02093 0.47319 0.0851 0.0
C663 C 0.05608 0.53065 0.0544 0.0
H664 H 0.02122 0.44955 0.02521 0.0
C665 C 0.06028 0.53289 0.98602 0.0
C666 C 0.0324 0.51023 0.97686 0.0
C667 C 0.06312 0.5306 1.00234 0.0
C668 C 0.03073 0.47239 0.03322 0.0
H669 H 0.0962 0.5373 0.11101 0.0
H670 H 0.09482 0.53904 0.08215 0.0
H671 H 0.02508 0.44613 0.05388 0.0
H672 H 0.98578 0.46719 0.9776 0.0
H673 H 0.99045 0.46362 0.0062 0.0
H674 H 0.0615 0.55691 0.0338 0.0
C675 C 0.07417 0.52032 0.08743 0.0
C676 C 0.03297 0.47042 0.04963 0.0
C677 C 0.07498 0.51918 0.10396 0.0
C678 C 1.00742 0.48522 0.98437 0.0
C679 C 1.01027 0.48293 1.0007 0.0
C680 C 0.05382 0.53261 0.03801 0.0
C681 C 0.04703 0.49749 0.07785 0.0
C682 C 0.04556 0.49953 0.06039 0.0
C683 C 0.03814 0.50562 0.00986 0.0
C684 C 0.04101 0.50349 0.02725 0.0
H685 H 1.00099 0.45328 0.10684 0.0
H686 H 0.99952 0.45549 0.07805 0.0
H687 H 0.06542 0.55348 0.06242 0.0
H688 H 0.07982 0.55265 0.98061 0.0
H689 H 0.08503 0.54826 0.00904 0.0
C690 C 0.5595 0.07798 0.45483 0.0
C691 C 0.53823 0.04823 0.46092 0.0
C692 C 0.56075 0.08025 0.43837 0.0
C693 C 0.51579 0.03957 0.39958 0.0
H694 H 0.60012 0.08735 0.38246 0.0
C695 C 0.5389 0.03493 0.33181 0.0
C696 C 0.55984 0.0652 0.32598 0.0
C697 C 0.53484 0.03303 0.34823 0.0
C698 C 0.57636 0.07422 0.38707 0.0
H699 H 0.50126 0.99759 0.45444 0.0
H700 H 0.50389 1.0013 0.42568 0.0
H701 H 0.59568 0.0835 0.41111 0.0
H702 H 0.59199 0.11749 0.33289 0.0
H703 H 0.58522 0.11402 0.36151 0.0
H704 H 0.49665 0.02988 0.37538 0.0
C705 C 0.51926 0.02311 0.43366 0.0
C706 C 0.57378 0.07206 0.40351 0.0
C707 C 0.51786 0.02091 0.45016 0.0
C708 C 0.5762 0.09362 0.33697 0.0
C709 C 0.57227 0.09167 0.35337 0.0
C710 C 0.51841 0.04157 0.38309 0.0
C711 C 0.54093 0.05273 0.42755 0.0
C712 C 0.54346 0.05482 0.41 0.0
C713 C 0.55176 0.06131 0.35919 0.0
C714 C 0.54873 0.05904 0.37667 0.0
H715 H 0.57532 0.09966 0.46277 0.0
H716 H 0.57725 0.10366 0.43413 0.0
H717 H 0.49203 0.02646 0.40417 0.0
H718 H 0.52624 0.01245 0.32372 0.0
H719 H 0.51912 0.00921 0.35237 0.0
C720 C 0.55029 0.55135 0.77979 0.0
C721 C 0.57485 0.54746 0.7878 0.0
C722 C 0.55019 0.55266 0.76328 0.0
C723 C 0.60271 0.57085 0.72911 0.0
H724 H 0.52107 0.52573 0.70448 0.0
C725 C 0.58568 0.59946 0.66508 0.0
C726 C 0.56555 0.57277 0.65395 0.0
C727 C 0.58835 0.59452 0.68109 0.0
C728 C 0.54414 0.53817 0.71112 0.0
H729 H 0.61875 0.54206 0.78464 0.0
H730 H 0.6185 0.54429 0.75568 0.0
H731 H 0.52277 0.51982 0.73292 0.0
H732 H 0.53265 0.51986 0.65094 0.0
H733 H 0.5377 0.51114 0.67882 0.0
H734 H 0.62407 0.58912 0.70724 0.0
C735 C 0.59941 0.5465 0.76228 0.0
C736 C 0.54506 0.5351 0.72747 0.0
C737 C 0.59946 0.54508 0.77886 0.0
C738 C 0.54855 0.54091 0.65917 0.0
C739 C 0.55119 0.53598 0.67518 0.0
C740 C 0.60178 0.57399 0.71273 0.0
C741 C 0.57466 0.55016 0.7543 0.0
C742 C 0.57426 0.55173 0.73671 0.0
C743 C 0.57093 0.56278 0.68637 0.0
C744 C 0.57242 0.55798 0.70358 0.0
H745 H 0.53098 0.55342 0.78626 0.0
H746 H 0.53108 0.55608 0.75756 0.0
H747 H 0.62556 0.58413 0.7359 0.0
H748 H 0.59944 0.62423 0.66142 0.0
H749 H 0.60353 0.61578 0.6894 0.0
C750 C 0.52301 1.00599 0.5668 0.0
C751 C 0.54249 0.03641 0.56074 0.0
C752 C 0.5237 1.00312 0.58319 0.0
C753 C 0.5737 0.04401 0.62069 0.0
H754 H 0.49482 0.98869 0.64069 0.0
C755 C 0.56608 0.03979 0.68916 0.0
C756 C 0.55041 1.0079 0.69452 0.0
C757 C 0.56468 0.04388 0.67293 0.0
C758 C 0.51707 1.00405 0.63524 0.0
H759 H 0.57768 0.08784 0.56719 0.0
H760 H 0.57831 0.08309 0.5958 0.0
H761 H 0.49313 0.99508 0.61227 0.0
H762 H 0.52109 0.95527 0.6869 0.0
H763 H 0.5182 0.96256 0.65865 0.0
H764 H 0.59749 0.05324 0.64378 0.0
C765 C 0.56301 0.06119 0.58787 0.0
C766 C 0.51616 1.00765 0.61894 0.0
C767 C 0.56254 0.06397 0.57145 0.0
C768 C 0.53299 0.98026 0.68326 0.0
C769 C 0.53139 0.9844 0.66706 0.0
C770 C 0.57455 0.04063 0.63702 0.0
C771 C 0.54368 0.03069 0.59395 0.0
C772 C 0.5445 0.02751 0.61142 0.0
C773 C 0.54736 0.01622 0.66171 0.0
C774 C 0.54628 0.02046 0.64445 0.0
H775 H 0.50748 0.98416 0.55887 0.0
H776 H 0.50892 0.97908 0.58738 0.0
H777 H 0.5961 0.05905 0.61528 0.0
H778 H 0.57921 0.06173 0.69751 0.0
H779 H 0.57687 0.06876 0.66918 0.0
C780 C 0.53581 0.52894 0.89585 0.0
C781 C 0.56535 0.53787 0.88847 0.0
C782 C 0.53383 0.5266 0.91233 0.0
C783 C 0.57811 0.51951 0.94777 0.0
H784 H 0.52036 0.54616 0.97143 0.0
C785 C 0.58223 0.53718 0.01681 0.0
C786 C 0.55262 0.52362 0.02431 0.0
C787 C 0.58307 0.53817 1.00024 0.0
C788 C 0.53636 0.53832 0.96496 0.0
H789 H 0.61611 0.55162 0.89277 0.0
H790 H 0.61293 0.54851 0.92154 0.0
H791 H 0.52384 0.55011 0.94269 0.0
H792 H 0.50063 0.5006 0.02026 0.0
H793 H 0.50209 0.50267 0.9912 0.0
H794 H 0.59113 0.50851 0.97019 0.0
C795 C 0.59102 0.5425 0.91455 0.0
C796 C 0.53834 0.54049 0.94845 0.0
C797 C 0.59292 0.5445 0.89802 0.0
C798 C 0.5238 0.51115 0.01483 0.0
C799 C 0.52465 0.51253 0.99822 0.0
C800 C 0.57637 0.51769 0.9643 0.0
C801 C 0.56142 0.53345 0.92196 0.0
C802 C 0.55927 0.53113 0.9396 0.0
C803 C 0.55432 0.52589 0.99074 0.0
C804 C 0.55552 0.52711 0.97309 0.0
H805 H 0.51398 0.52334 0.88887 0.0
H806 H 0.51049 0.51894 0.91747 0.0
H807 H 0.59401 0.5114 0.94139 0.0
H808 H 0.60486 0.54658 0.02374 0.0
H809 H 0.6063 0.54887 0.99487 0.0
C810 C 0.01841 0.47188 0.21821 0.0
C811 C 0.04026 0.5004 0.21137 0.0
C812 C 1.01477 0.47277 0.23471 0.0
C813 C 0.02668 0.5301 0.27099 0.0
H814 H 0.0213 0.45589 0.29295 0.0
C815 C 0.02516 0.53246 0.33998 0.0
C816 C 1.00456 0.50271 0.34633 0.0
C817 C 0.03006 0.53279 0.32357 0.0
C818 C 0.02236 0.47664 0.28699 0.0
H819 H 0.07529 0.55235 0.21663 0.0
H820 H 0.06886 0.55382 0.24545 0.0
H821 H 0.02878 0.45535 0.26428 0.0
H822 H 0.97315 0.44991 0.34031 0.0
H823 H 0.98093 0.4507 0.31172 0.0
H824 H 0.0199 0.55125 0.29367 0.0
C825 C 0.05445 0.53082 0.23798 0.0
C826 C 0.0267 0.47634 0.27055 0.0
C827 C 0.05825 0.5299 0.22146 0.0
C828 C 0.98887 0.47337 0.33584 0.0
C829 C 0.9937 0.47372 0.31944 0.0
C830 C 0.02218 0.53034 0.28744 0.0
C831 C 0.03274 0.50223 0.24479 0.0
C832 C 0.02878 0.50299 0.26234 0.0
C833 C 1.01445 0.50339 0.3131 0.0
C834 C 0.01982 0.50354 0.29564 0.0
H835 H 1.00409 0.44871 0.21084 0.0
H836 H 0.99754 0.45044 0.23956 0.0
H837 H 0.02782 0.55083 0.26497 0.0
H838 H 0.03737 0.5556 0.34768 0.0
H839 H 0.04644 0.55603 0.31913 0.0
loop_
_geom_bond_atom_site_label_1
_geom_bond_atom_site_label_2
_geom_bond_distance
_geom_bond_site_symmetry_2
_ccdc_geom_bond_type
Tb0 O3 2.453 1_455 S
Tb0 O4 2.596 1_455 S
Tb0 O5 2.374 . S
Tb0 O13 2.343 . S
Tb0 O15 2.353 . S
Tb0 O17 2.427 . S
Tb0 O18 2.513 . S
C1 O5 1.251 . S
C1 O7 1.263 . S
Tb2 O4 2.343 1_455 S
Tb2 O7 2.353 . S
Tb2 O10 2.427 1_455 S
Tb2 O11 2.513 1_455 S
Tb2 O12 2.453 . S
Tb2 O13 2.596 . S
Tb2 O14 2.374 . S
O3 Tb0 2.453 1_655 S
O3 C19 1.245 . S
O4 Tb0 2.596 1_655 S
O4 Tb2 2.343 1_655 S
O4 C19 1.259 . S
O5 Tb0 2.374 . S
O5 C1 1.251 . S
C6 O10 1.275 . S
C6 O11 1.246 . S
O7 C1 1.263 . S
O7 Tb2 2.353 . S
C8 O12 1.245 . S
C8 O13 1.259 . S
C9 O14 1.250 . S
C9 O15 1.263 . S
O10 Tb2 2.427 1_655 S
O10 C6 1.275 . S
O11 Tb2 2.513 1_655 S
O11 C6 1.246 . S
O12 Tb2 2.453 . S
O12 C8 1.245 . S
O13 Tb0 2.343 . S
O13 Tb2 2.596 . S
O13 C8 1.259 . S
O14 Tb2 2.374 . S
O14 C9 1.250 . S
O15 Tb0 2.353 . S
O15 C9 1.263 . S
C16 O17 1.275 . S
C16 O18 1.246 . S
O17 Tb0 2.427 . S
O17 C16 1.275 . S
O18 Tb0 2.513 . S
O18 C16 1.246 . S
C19 O3 1.245 . S
C19 O4 1.259 . S
Tb20 O23 2.453 . S
Tb20 O24 2.596 . S
Tb20 O25 2.374 . S
Tb20 O33 2.343 1_545 S
Tb20 O35 2.353 . S
Tb20 O37 2.427 1_545 S
Tb20 O38 2.513 1_545 S
C21 O25 1.251 . S
C21 O27 1.263 . S
Tb22 O24 2.343 . S
Tb22 O27 2.353 . S
Tb22 O30 2.427 . S
Tb22 O31 2.513 . S
Tb22 O32 2.453 1_545 S
Tb22 O33 2.596 1_545 S
Tb22 O34 2.374 . S
O23 Tb20 2.453 . S
O23 C39 1.245 . S
O24 Tb20 2.596 . S
O24 Tb22 2.343 . S
O24 C39 1.259 . S
O25 Tb20 2.374 . S
O25 C21 1.251 . S
C26 O30 1.275 . S
C26 O31 1.246 . S
O27 C21 1.263 . S
O27 Tb22 2.353 . S
C28 O32 1.245 . S
C28 O33 1.259 . S
C29 O34 1.250 . S
C29 O35 1.263 . S
O30 Tb22 2.427 . S
O30 C26 1.275 . S
O31 Tb22 2.513 . S
O31 C26 1.246 . S
O32 Tb22 2.453 1_565 S
O32 C28 1.245 . S
O33 Tb20 2.343 1_565 S
O33 Tb22 2.596 1_565 S
O33 C28 1.259 . S
O34 Tb22 2.374 . S
O34 C29 1.250 . S
O35 Tb20 2.353 . S
O35 C29 1.263 . S
C36 O37 1.275 . S
C36 O38 1.246 . S
O37 Tb20 2.427 1_565 S
O37 C36 1.275 . S
O38 Tb20 2.513 1_565 S
O38 C36 1.246 . S
C39 O23 1.245 . S
C39 O24 1.259 . S
Tb40 O43 2.453 . S
Tb40 O44 2.596 . S
Tb40 O45 2.374 . S
Tb40 O53 2.343 . S
Tb40 O55 2.353 . S
Tb40 O57 2.427 . S
Tb40 O58 2.513 . S
C41 O45 1.251 . S
C41 O47 1.263 . S
Tb42 O44 2.343 . S
Tb42 O47 2.353 . S
Tb42 O50 2.427 . S
Tb42 O51 2.513 . S
Tb42 O52 2.453 . S
Tb42 O53 2.596 . S
Tb42 O54 2.374 . S
O43 Tb40 2.453 . S
O43 C59 1.245 . S
O44 Tb40 2.596 . S
O44 Tb42 2.343 . S
O44 C59 1.259 . S
O45 Tb40 2.374 . S
O45 C41 1.251 . S
C46 O50 1.275 . S
C46 O51 1.246 . S
O47 C41 1.263 . S
O47 Tb42 2.353 . S
C48 O52 1.245 . S
C48 O53 1.259 . S
C49 O54 1.250 . S
C49 O55 1.263 . S
O50 Tb42 2.427 . S
O50 C46 1.275 . S
O51 Tb42 2.513 . S
O51 C46 1.246 . S
O52 Tb42 2.453 . S
O52 C48 1.245 . S
O53 Tb40 2.343 . S
O53 Tb42 2.596 . S
O53 C48 1.259 . S
O54 Tb42 2.374 . S
O54 C49 1.250 . S
O55 Tb40 2.353 . S
O55 C49 1.263 . S
C56 O57 1.275 . S
C56 O58 1.246 . S
O57 Tb40 2.427 . S
O57 C56 1.275 . S
O58 Tb40 2.513 . S
O58 C56 1.246 . S
C59 O43 1.245 . S
C59 O44 1.259 . S
C60 C61 1.264 . S
C60 C65 1.479 . S
C60 C70 1.465 . S
C61 C60 1.264 . S
C61 C63 1.339 . S
C61 H88 0.931 . S
C62 C63 1.395 . S
C62 C64 1.320 . S
C63 C61 1.339 . S
C63 C62 1.395 . S
C63 H89 0.929 . S
C64 C62 1.320 . S
C64 C65 1.405 . S
C64 H90 0.930 . S
C65 C60 1.479 . S
C65 C64 1.405 . S
C65 H91 0.931 . S
U66 O67 2.454 . S
U66 O68 2.458 1_545 S
U66 C69 2.984 1_545 S
U66 C70 2.847 . S
U66 C83 2.882 . S
U66 O84 2.441 . S
U66 O85 2.420 . S
U66 O86 2.455 . S
U66 O87 2.449 . S
O67 U66 2.454 . S
O67 C69 1.353 1_545 S
O68 U66 2.458 1_565 S
O68 C69 1.286 . S
C69 U66 2.984 1_565 S
C69 O67 1.353 1_565 S
C69 O68 1.286 . S
C69 C71 1.363 . S
C70 C60 1.465 . S
C70 U66 2.847 . S
C70 O84 1.249 . S
C70 O85 1.202 . S
C71 C69 1.363 . S
C71 C73 1.408 . S
C71 C76 1.342 . S
C72 C73 1.310 . S
C72 C75 1.461 . S
C72 H92 0.932 . S
C73 C71 1.408 . S
C73 C72 1.310 . S
C73 H93 0.930 . S
C74 C75 1.474 . S
C74 C76 1.285 . S
C74 H94 0.929 . S
C75 C72 1.461 . S
C75 C74 1.474 . S
C76 C71 1.342 . S
C76 C74 1.285 . S
C76 H95 0.930 . S
C77 C80 1.424 . S
C77 C82 1.245 . S
C77 C83 1.428 . S
C78 C81 1.260 . S
C78 C82 1.477 . S
C78 H96 0.932 . S
C79 C80 1.384 . S
C79 C81 1.479 . S
C79 H97 0.929 . S
C80 C77 1.424 . S
C80 C79 1.384 . S
C80 H98 0.928 . S
C81 C78 1.260 . S
C81 C79 1.479 . S
C82 C77 1.245 . S
C82 C78 1.477 . S
C82 H99 0.932 . S
C83 U66 2.882 . S
C83 C77 1.428 . S
C83 O86 1.301 . S
C83 O87 1.282 . S
O84 U66 2.441 . S
O84 C70 1.249 . S
O85 U66 2.420 . S
O85 C70 1.202 . S
O86 U66 2.455 . S
O86 C83 1.301 . S
O87 U66 2.449 . S
O87 C83 1.282 . S
H88 C61 0.931 . S
H89 C63 0.929 . S
H90 C64 0.930 . S
H91 C65 0.931 . S
H92 C72 0.932 . S
H93 C73 0.930 . S
H94 C74 0.929 . S
H95 C76 0.930 . S
H96 C78 0.932 . S
H97 C79 0.929 . S
H98 C80 0.928 . S
H99 C82 0.932 . S
C100 C101 1.264 . S
C100 C105 1.479 . S
C100 C110 1.465 . S
C101 C100 1.264 . S
C101 C103 1.339 . S
C101 H128 0.931 . S
C102 C103 1.395 . S
C102 C104 1.320 . S
C103 C101 1.339 . S
C103 C102 1.395 . S
C103 H129 0.929 . S
C104 C102 1.320 . S
C104 C105 1.405 . S
C104 H130 0.930 . S
C105 C100 1.479 . S
C105 C104 1.405 . S
C105 H131 0.931 . S
U106 O107 2.454 . S
U106 O108 2.458 . S
U106 C109 2.984 . S
U106 C110 2.847 . S
U106 C123 2.882 . S
U106 O124 2.441 . S
U106 O125 2.420 . S
U106 O126 2.455 . S
U106 O127 2.449 . S
O107 U106 2.454 . S
O107 C109 1.353 . S
O108 U106 2.458 . S
O108 C109 1.286 . S
C109 U106 2.984 . S
C109 O107 1.353 . S
C109 O108 1.286 . S
C109 C111 1.363 . S
C110 C100 1.465 . S
C110 U106 2.847 . S
C110 O124 1.249 . S
C110 O125 1.202 . S
C111 C109 1.363 . S
C111 C113 1.408 . S
C111 C116 1.342 . S
C112 C113 1.310 . S
C112 C115 1.461 . S
C112 H132 0.932 . S
C113 C111 1.408 . S
C113 C112 1.310 . S
C113 H133 0.930 . S
C114 C115 1.474 . S
C114 C116 1.285 . S
C114 H134 0.929 . S
C115 C112 1.461 . S
C115 C114 1.474 . S
C116 C111 1.342 . S
C116 C114 1.285 . S
C116 H135 0.930 . S
C117 C120 1.424 . S
C117 C122 1.245 . S
C117 C123 1.428 . S
C118 C121 1.260 . S
C118 C122 1.477 . S
C118 H136 0.932 . S
C119 C120 1.384 . S
C119 C121 1.479 . S
C119 H137 0.929 . S
C120 C117 1.424 . S
C120 C119 1.384 . S
C120 H138 0.928 . S
C121 C118 1.260 . S
C121 C119 1.479 . S
C122 C117 1.245 . S
C122 C118 1.477 . S
C122 H139 0.932 . S
C123 U106 2.882 . S
C123 C117 1.428 . S
C123 O126 1.301 . S
C123 O127 1.282 . S
O124 U106 2.441 . S
O124 C110 1.249 . S
O125 U106 2.420 . S
O125 C110 1.202 . S
O126 U106 2.455 . S
O126 C123 1.301 . S
O127 U106 2.449 . S
O127 C123 1.282 . S
H128 C101 0.931 . S
H129 C103 0.929 . S
H130 C104 0.930 . S
H131 C105 0.931 . S
H132 C112 0.932 . S
H133 C113 0.930 . S
H134 C114 0.929 . S
H135 C116 0.930 . S
H136 C118 0.932 . S
H137 C119 0.929 . S
H138 C120 0.928 . S
H139 C122 0.932 . S
C140 C141 1.264 . S
C140 C145 1.479 . S
C140 C150 1.465 1_655 S
C141 C140 1.264 . S
C141 C143 1.339 . S
C141 H168 0.931 . S
C142 C143 1.395 . S
C142 C144 1.320 . S
C143 C141 1.339 . S
C143 C142 1.395 . S
C143 H169 0.929 . S
C144 C142 1.320 . S
C144 C145 1.405 . S
C144 H170 0.930 . S
C145 C140 1.479 . S
C145 C144 1.405 . S
C145 H171 0.931 1_655 S
U146 O147 2.454 . S
U146 O148 2.458 . S
U146 C149 2.984 . S
U146 C150 2.847 . S
U146 C163 2.882 . S
U146 O164 2.441 . S
U146 O165 2.420 . S
U146 O166 2.455 . S
U146 O167 2.449 . S
O147 U146 2.454 . S
O147 C149 1.353 . S
O148 U146 2.458 . S
O148 C149 1.286 . S
C149 U146 2.984 . S
C149 O147 1.353 . S
C149 O148 1.286 . S
C149 C151 1.363 . S
C150 C140 1.465 1_455 S
C150 U146 2.847 . S
C150 O164 1.249 . S
C150 O165 1.202 . S
C151 C149 1.363 . S
C151 C153 1.408 . S
C151 C156 1.342 . S
C152 C153 1.310 . S
C152 C155 1.461 . S
C152 H172 0.932 . S
C153 C151 1.408 . S
C153 C152 1.310 . S
C153 H173 0.930 . S
C154 C155 1.474 . S
C154 C156 1.285 . S
C154 H174 0.929 . S
C155 C152 1.461 . S
C155 C154 1.474 . S
C156 C151 1.342 . S
C156 C154 1.285 . S
C156 H175 0.930 . S
C157 C160 1.424 . S
C157 C162 1.245 . S
C157 C163 1.428 . S
C158 C161 1.260 . S
C158 C162 1.477 . S
C158 H176 0.932 . S
C159 C160 1.384 . S
C159 C161 1.479 . S
C159 H177 0.929 . S
C160 C157 1.424 . S
C160 C159 1.384 . S
C160 H178 0.928 . S
C161 C158 1.260 . S
C161 C159 1.479 . S
C162 C157 1.245 . S
C162 C158 1.477 . S
C162 H179 0.932 . S
C163 U146 2.882 . S
C163 C157 1.428 . S
C163 O166 1.301 . S
C163 O167 1.282 . S
O164 U146 2.441 . S
O164 C150 1.249 . S
O165 U146 2.420 . S
O165 C150 1.202 . S
O166 U146 2.455 . S
O166 C163 1.301 . S
O167 U146 2.449 . S
O167 C163 1.282 . S
H168 C141 0.931 . S
H169 C143 0.929 . S
H170 C144 0.930 . S
H171 C145 0.931 1_455 S
H172 C152 0.932 . S
H173 C153 0.930 . S
H174 C154 0.929 . S
H175 C156 0.930 . S
H176 C158 0.932 . S
H177 C159 0.929 . S
H178 C160 0.928 . S
H179 C162 0.932 . S
C180 C181 1.264 . S
C180 C185 1.479 . S
C180 C190 1.465 . S
C181 C180 1.264 . S
C181 C183 1.339 . S
C181 H208 0.931 . S
C182 C183 1.395 . S
C182 C184 1.320 . S
C183 C181 1.339 . S
C183 C182 1.395 . S
C183 H209 0.929 . S
C184 C182 1.320 . S
C184 C185 1.405 . S
C184 H210 0.930 . S
C185 C180 1.479 . S
C185 C184 1.405 . S
C185 H211 0.931 . S
U186 O187 2.454 1_655 S
U186 O188 2.458 1_655 S
U186 C189 2.984 1_655 S
U186 C190 2.847 . S
U186 C203 2.882 . S
U186 O204 2.441 . S
U186 O205 2.420 . S
U186 O206 2.455 1_655 S
U186 O207 2.449 . S
O187 U186 2.454 1_455 S
O187 C189 1.353 . S
O188 U186 2.458 1_455 S
O188 C189 1.286 . S
C189 U186 2.984 1_455 S
C189 O187 1.353 . S
C189 O188 1.286 . S
C189 C191 1.363 . S
C190 C180 1.465 . S
C190 U186 2.847 . S
C190 O204 1.249 . S
C190 O205 1.202 . S
C191 C189 1.363 . S
C191 C193 1.408 . S
C191 C196 1.342 . S
C192 C193 1.310 . S
C192 C195 1.461 . S
C192 H212 0.932 . S
C193 C191 1.408 . S
C193 C192 1.310 . S
C193 H213 0.930 . S
C194 C195 1.474 . S
C194 C196 1.285 . S
C194 H214 0.929 . S
C195 C192 1.461 . S
C195 C194 1.474 . S
C196 C191 1.342 . S
C196 C194 1.285 . S
C196 H215 0.930 . S
C197 C200 1.424 . S
C197 C202 1.245 1_655 S
C197 C203 1.428 . S
C198 C201 1.260 1_455 S
C198 C202 1.477 . S
C198 H216 0.932 . S
C199 C200 1.384 . S
C199 C201 1.479 . S
C199 H217 0.929 . S
C200 C197 1.424 . S
C200 C199 1.384 . S
C200 H218 0.928 . S
C201 C198 1.260 1_655 S
C201 C199 1.479 . S
C202 C197 1.245 1_455 S
C202 C198 1.477 . S
C202 H219 0.932 . S
C203 U186 2.882 . S
C203 C197 1.428 . S
C203 O206 1.301 1_655 S
C203 O207 1.282 . S
O204 U186 2.441 . S
O204 C190 1.249 . S
O205 U186 2.420 . S
O205 C190 1.202 . S
O206 U186 2.455 1_455 S
O206 C203 1.301 1_455 S
O207 U186 2.449 . S
O207 C203 1.282 . S
H208 C181 0.931 . S
H209 C183 0.929 . S
H210 C184 0.930 . S
H211 C185 0.931 . S
H212 C192 0.932 . S
H213 C193 0.930 . S
H214 C194 0.929 . S
H215 C196 0.930 . S
H216 C198 0.932 . S
H217 C199 0.929 . S
H218 C200 0.928 . S
H219 C202 0.932 . S
C220 C221 1.264 . S
C220 C225 1.479 . S
C220 C230 1.465 . S
C221 C220 1.264 . S
C221 C223 1.339 . S
C221 H248 0.931 . S
C222 C223 1.395 . S
C222 C224 1.320 . S
C223 C221 1.339 . S
C223 C222 1.395 . S
C223 H249 0.929 . S
C224 C222 1.320 . S
C224 C225 1.405 . S
C224 H250 0.930 . S
C225 C220 1.479 . S
C225 C224 1.405 . S
C225 H251 0.931 . S
U226 O227 2.454 . S
U226 O228 2.458 . S
U226 C229 2.984 . S
U226 C230 2.847 1_545 S
U226 C243 2.882 . S
U226 O244 2.441 1_545 S
U226 O245 2.420 1_545 S
U226 O246 2.455 . S
U226 O247 2.449 1_545 S
O227 U226 2.454 . S
O227 C229 1.353 . S
O228 U226 2.458 . S
O228 C229 1.286 . S
C229 U226 2.984 . S
C229 O227 1.353 . S
C229 O228 1.286 . S
C229 C231 1.363 . S
C230 C220 1.465 . S
C230 U226 2.847 1_565 S
C230 O244 1.249 . S
C230 O245 1.202 . S
C231 C229 1.363 . S
C231 C233 1.408 . S
C231 C236 1.342 . S
C232 C233 1.310 . S
C232 C235 1.461 . S
C232 H252 0.932 . S
C233 C231 1.408 . S
C233 C232 1.310 . S
C233 H253 0.930 . S
C234 C235 1.474 . S
C234 C236 1.285 . S
C234 H254 0.929 . S
C235 C232 1.461 . S
C235 C234 1.474 . S
C236 C231 1.342 . S
C236 C234 1.285 . S
C236 H255 0.930 . S
C237 C240 1.424 1_545 S
C237 C242 1.245 . S
C237 C243 1.428 . S
C238 C241 1.260 . S
C238 C242 1.477 . S
C238 H256 0.932 . S
C239 C240 1.384 . S
C239 C241 1.479 1_565 S
C239 H257 0.929 . S
C240 C237 1.424 1_565 S
C240 C239 1.384 . S
C240 H258 0.928 . S
C241 C238 1.260 . S
C241 C239 1.479 1_545 S
C242 C237 1.245 . S
C242 C238 1.477 . S
C242 H259 0.932 . S
C243 U226 2.882 . S
C243 C237 1.428 . S
C243 O246 1.301 . S
C243 O247 1.282 1_545 S
O244 U226 2.441 1_565 S
O244 C230 1.249 . S
O245 U226 2.420 1_565 S
O245 C230 1.202 . S
O246 U226 2.455 . S
O246 C243 1.301 . S
O247 U226 2.449 1_565 S
O247 C243 1.282 1_565 S
H248 C221 0.931 . S
H249 C223 0.929 . S
H250 C224 0.930 . S
H251 C225 0.931 . S
H252 C232 0.932 . S
H253 C233 0.930 . S
H254 C234 0.929 . S
H255 C236 0.930 . S
H256 C238 0.932 . S
H257 C239 0.929 . S
H258 C240 0.928 . S
H259 C242 0.932 . S
C260 C261 1.264 . S
C260 C265 1.479 . S
C260 C270 1.465 . S
C261 C260 1.264 . S
C261 C263 1.339 . S
C261 H288 0.931 . S
C262 C263 1.395 . S
C262 C264 1.320 . S
C263 C261 1.339 . S
C263 C262 1.395 . S
C263 H289 0.929 . S
C264 C262 1.320 . S
C264 C265 1.405 . S
C264 H290 0.930 . S
C265 C260 1.479 . S
C265 C264 1.405 . S
C265 H291 0.931 . S
U266 O267 2.454 . S
U266 O268 2.458 . S
U266 C269 2.984 . S
U266 C270 2.847 . S
U266 C283 2.882 . S
U266 O284 2.441 . S
U266 O285 2.420 . S
U266 O286 2.455 . S
U266 O287 2.449 . S
O267 U266 2.454 . S
O267 C269 1.353 . S
O268 U266 2.458 . S
O268 C269 1.286 . S
C269 U266 2.984 . S
C269 O267 1.353 . S
C269 O268 1.286 . S
C269 C271 1.363 . S
C270 C260 1.465 . S
C270 U266 2.847 . S
C270 O284 1.249 . S
C270 O285 1.202 . S
C271 C269 1.363 . S
C271 C273 1.408 . S
C271 C276 1.342 . S
C272 C273 1.310 . S
C272 C275 1.461 . S
C272 H292 0.932 . S
C273 C271 1.408 . S
C273 C272 1.310 . S
C273 H293 0.930 . S
C274 C275 1.474 . S
C274 C276 1.285 . S
C274 H294 0.929 . S
C275 C272 1.461 . S
C275 C274 1.474 . S
C276 C271 1.342 . S
C276 C274 1.285 . S
C276 H295 0.930 . S
C277 C280 1.424 . S
C277 C282 1.245 . S
C277 C283 1.428 . S
C278 C281 1.260 . S
C278 C282 1.477 . S
C278 H296 0.932 . S
C279 C280 1.384 . S
C279 C281 1.479 . S
C279 H297 0.929 . S
C280 C277 1.424 . S
C280 C279 1.384 . S
C280 H298 0.928 . S
C281 C278 1.260 . S
C281 C279 1.479 . S
C282 C277 1.245 . S
C282 C278 1.477 . S
C282 H299 0.932 . S
C283 U266 2.882 . S
C283 C277 1.428 . S
C283 O286 1.301 . S
C283 O287 1.282 . S
O284 U266 2.441 . S
O284 C270 1.249 . S
O285 U266 2.420 . S
O285 C270 1.202 . S
O286 U266 2.455 . S
O286 C283 1.301 . S
O287 U266 2.449 . S
O287 C283 1.282 . S
H288 C261 0.931 . S
H289 C263 0.929 . S
H290 C264 0.930 . S
H291 C265 0.931 . S
H292 C272 0.932 . S
H293 C273 0.930 . S
H294 C274 0.929 . S
H295 C276 0.930 . S
H296 C278 0.932 . S
H297 C279 0.929 . S
H298 C280 0.928 . S
H299 C282 0.932 . S
C300 C301 1.349 . S
C300 C302 1.327 . S
C300 H325 0.950 . S
C301 C300 1.349 . S
C301 C317 1.349 . S
C302 C300 1.327 . S
C302 C321 1.429 . S
C302 H326 0.950 . S
C303 C320 1.574 . S
C303 C322 1.368 . S
C303 H327 0.949 . S
H304 C308 0.949 . S
C305 C306 1.349 . S
C305 C307 1.327 . S
C305 H328 0.950 . S
C306 C305 1.349 . S
C306 C318 1.349 . S
C307 C305 1.327 . S
C307 C323 1.429 . S
C307 H329 0.950 . S
C308 H304 0.949 . S
C308 C316 1.574 . S
C308 C324 1.368 . S
H309 C317 0.950 . S
H310 C315 0.950 . S
H311 C316 0.949 . S
H312 C318 0.950 . S
H313 C319 0.950 . S
H314 C320 0.949 . S
C315 H310 0.950 . S
C315 C317 1.327 . S
C315 C321 1.429 . S
C316 C308 1.574 . S
C316 H311 0.949 . S
C316 C322 1.368 . S
C317 C301 1.349 . S
C317 H309 0.950 . S
C317 C315 1.327 . S
C318 C306 1.349 . S
C318 H312 0.950 . S
C318 C319 1.327 . S
C319 H313 0.950 . S
C319 C318 1.327 . S
C319 C323 1.429 . S
C320 C303 1.574 . S
C320 H314 0.949 . S
C320 C324 1.368 . S
C321 C302 1.429 . S
C321 C315 1.429 . S
C321 C322 1.523 . S
C322 C303 1.368 . S
C322 C316 1.368 . S
C322 C321 1.523 . S
C323 C307 1.429 . S
C323 C319 1.429 . S
C323 C324 1.523 . S
C324 C308 1.368 . S
C324 C320 1.368 . S
C324 C323 1.523 . S
H325 C300 0.950 . S
H326 C302 0.950 . S
H327 C303 0.949 . S
H328 C305 0.950 . S
H329 C307 0.950 . S
C330 C331 1.349 . S
C330 C332 1.327 . S
C330 H355 0.950 . S
C331 C330 1.349 . S
C331 C347 1.349 . S
C332 C330 1.327 . S
C332 C351 1.429 . S
C332 H356 0.950 . S
C333 C350 1.574 . S
C333 C352 1.368 . S
C333 H357 0.949 . S
H334 C338 0.949 . S
C335 C336 1.349 . S
C335 C337 1.327 . S
C335 H358 0.950 . S
C336 C335 1.349 . S
C336 C348 1.349 . S
C337 C335 1.327 . S
C337 C353 1.429 . S
C337 H359 0.950 . S
C338 H334 0.949 . S
C338 C346 1.574 . S
C338 C354 1.368 . S
H339 C347 0.950 . S
H340 C345 0.950 . S
H341 C346 0.949 . S
H342 C348 0.950 . S
H343 C349 0.950 . S
H344 C350 0.949 . S
C345 H340 0.950 . S
C345 C347 1.327 . S
C345 C351 1.429 . S
C346 C338 1.574 . S
C346 H341 0.949 . S
C346 C352 1.368 . S
C347 C331 1.349 . S
C347 H339 0.950 . S
C347 C345 1.327 . S
C348 C336 1.349 . S
C348 H342 0.950 . S
C348 C349 1.327 . S
C349 H343 0.950 . S
C349 C348 1.327 . S
C349 C353 1.429 . S
C350 C333 1.574 . S
C350 H344 0.949 . S
C350 C354 1.368 . S
C351 C332 1.429 . S
C351 C345 1.429 . S
C351 C352 1.523 . S
C352 C333 1.368 . S
C352 C346 1.368 . S
C352 C351 1.523 . S
C353 C337 1.429 . S
C353 C349 1.429 . S
C353 C354 1.523 . S
C354 C338 1.368 . S
C354 C350 1.368 . S
C354 C353 1.523 . S
H355 C330 0.950 . S
H356 C332 0.950 . S
H357 C333 0.949 . S
H358 C335 0.950 . S
H359 C337 0.950 . S
C360 C361 1.349 . S
C360 C362 1.327 . S
C360 H385 0.950 . S
C361 C360 1.349 . S
C361 C377 1.349 . S
C362 C360 1.327 . S
C362 C381 1.429 . S
C362 H386 0.950 . S
C363 C380 1.574 . S
C363 C382 1.368 . S
C363 H387 0.949 . S
H364 C368 0.949 . S
C365 C366 1.349 . S
C365 C367 1.327 . S
C365 H388 0.950 . S
C366 C365 1.349 . S
C366 C378 1.349 . S
C367 C365 1.327 . S
C367 C383 1.429 . S
C367 H389 0.950 . S
C368 H364 0.949 . S
C368 C376 1.574 . S
C368 C384 1.368 . S
H369 C377 0.950 . S
H370 C375 0.950 . S
H371 C376 0.949 . S
H372 C378 0.950 . S
H373 C379 0.950 . S
H374 C380 0.949 . S
C375 H370 0.950 . S
C375 C377 1.327 . S
C375 C381 1.429 . S
C376 C368 1.574 . S
C376 H371 0.949 . S
C376 C382 1.368 . S
C377 C361 1.349 . S
C377 H369 0.950 . S
C377 C375 1.327 . S
C378 C366 1.349 . S
C378 H372 0.950 . S
C378 C379 1.327 . S
C379 H373 0.950 . S
C379 C378 1.327 . S
C379 C383 1.429 . S
C380 C363 1.574 . S
C380 H374 0.949 . S
C380 C384 1.368 . S
C381 C362 1.429 . S
C381 C375 1.429 . S
C381 C382 1.523 . S
C382 C363 1.368 . S
C382 C376 1.368 . S
C382 C381 1.523 . S
C383 C367 1.429 . S
C383 C379 1.429 . S
C383 C384 1.523 . S
C384 C368 1.368 . S
C384 C380 1.368 . S
C384 C383 1.523 . S
H385 C360 0.950 . S
H386 C362 0.950 . S
H387 C363 0.949 . S
H388 C365 0.950 . S
H389 C367 0.950 . S
C390 C391 1.349 . S
C390 C392 1.327 . S
C390 H415 0.950 . S
C391 C390 1.349 . S
C391 C407 1.349 . S
C392 C390 1.327 . S
C392 C411 1.429 . S
C392 H416 0.950 . S
C393 C410 1.574 . S
C393 C412 1.368 . S
C393 H417 0.949 . S
H394 C398 0.949 . S
C395 C396 1.349 . S
C395 C397 1.327 . S
C395 H418 0.950 . S
C396 C395 1.349 . S
C396 C408 1.349 . S
C397 C395 1.327 . S
C397 C413 1.429 . S
C397 H419 0.950 . S
C398 H394 0.949 . S
C398 C406 1.574 . S
C398 C414 1.368 . S
H399 C407 0.950 . S
H400 C405 0.950 . S
H401 C406 0.949 . S
H402 C408 0.950 . S
H403 C409 0.950 . S
H404 C410 0.949 . S
C405 H400 0.950 . S
C405 C407 1.327 . S
C405 C411 1.429 . S
C406 C398 1.574 . S
C406 H401 0.949 . S
C406 C412 1.368 . S
C407 C391 1.349 . S
C407 H399 0.950 . S
C407 C405 1.327 . S
C408 C396 1.349 . S
C408 H402 0.950 . S
C408 C409 1.327 . S
C409 H403 0.950 . S
C409 C408 1.327 . S
C409 C413 1.429 . S
C410 C393 1.574 . S
C410 H404 0.949 . S
C410 C414 1.368 . S
C411 C392 1.429 . S
C411 C405 1.429 . S
C411 C412 1.523 . S
C412 C393 1.368 . S
C412 C406 1.368 . S
C412 C411 1.523 . S
C413 C397 1.429 . S
C413 C409 1.429 . S
C413 C414 1.523 . S
C414 C398 1.368 . S
C414 C410 1.368 . S
C414 C413 1.523 . S
H415 C390 0.950 . S
H416 C392 0.950 . S
H417 C393 0.949 . S
H418 C395 0.950 . S
H419 C397 0.950 . S
C420 C421 1.349 . S
C420 C422 1.327 . S
C420 H445 0.950 . S
C421 C420 1.349 . S
C421 C437 1.349 . S
C422 C420 1.327 . S
C422 C441 1.429 . S
C422 H446 0.950 . S
C423 C440 1.574 . S
C423 C442 1.368 . S
C423 H447 0.949 . S
H424 C428 0.949 . S
C425 C426 1.349 . S
C425 C427 1.327 . S
C425 H448 0.950 . S
C426 C425 1.349 . S
C426 C438 1.349 . S
C427 C425 1.327 . S
C427 C443 1.429 . S
C427 H449 0.950 . S
C428 H424 0.949 . S
C428 C436 1.574 . S
C428 C444 1.368 . S
H429 C437 0.950 . S
H430 C435 0.950 . S
H431 C436 0.949 . S
H432 C438 0.950 . S
H433 C439 0.950 . S
H434 C440 0.949 . S
C435 H430 0.950 . S
C435 C437 1.327 . S
C435 C441 1.429 . S
C436 C428 1.574 . S
C436 H431 0.949 . S
C436 C442 1.368 . S
C437 C421 1.349 . S
C437 H429 0.950 . S
C437 C435 1.327 . S
C438 C426 1.349 . S
C438 H432 0.950 . S
C438 C439 1.327 . S
C439 H433 0.950 . S
C439 C438 1.327 . S
C439 C443 1.429 . S
C440 C423 1.574 . S
C440 H434 0.949 . S
C440 C444 1.368 . S
C441 C422 1.429 . S
C441 C435 1.429 . S
C441 C442 1.523 . S
C442 C423 1.368 . S
C442 C436 1.368 . S
C442 C441 1.523 . S
C443 C427 1.429 . S
C443 C439 1.429 . S
C443 C444 1.523 . S
C444 C428 1.368 . S
C444 C440 1.368 . S
C444 C443 1.523 . S
H445 C420 0.950 . S
H446 C422 0.950 . S
H447 C423 0.949 . S
H448 C425 0.950 . S
H449 C427 0.950 . S
C450 C451 1.349 . S
C450 C452 1.327 . S
C450 H475 0.950 . S
C451 C450 1.349 . S
C451 C467 1.349 . S
C452 C450 1.327 . S
C452 C471 1.429 . S
C452 H476 0.950 . S
C453 C470 1.574 . S
C453 C472 1.368 . S
C453 H477 0.949 . S
H454 C458 0.949 . S
C455 C456 1.349 . S
C455 C457 1.327 . S
C455 H478 0.950 . S
C456 C455 1.349 . S
C456 C468 1.349 . S
C457 C455 1.327 . S
C457 C473 1.429 . S
C457 H479 0.950 . S
C458 H454 0.949 . S
C458 C466 1.574 . S
C458 C474 1.368 . S
H459 C467 0.950 . S
H460 C465 0.950 . S
H461 C466 0.949 . S
H462 C468 0.950 . S
H463 C469 0.950 . S
H464 C470 0.949 . S
C465 H460 0.950 . S
C465 C467 1.327 . S
C465 C471 1.429 . S
C466 C458 1.574 . S
C466 H461 0.949 . S
C466 C472 1.368 . S
C467 C451 1.349 . S
C467 H459 0.950 . S
C467 C465 1.327 . S
C468 C456 1.349 . S
C468 H462 0.950 . S
C468 C469 1.327 . S
C469 H463 0.950 . S
C469 C468 1.327 . S
C469 C473 1.429 . S
C470 C453 1.574 . S
C470 H464 0.949 . S
C470 C474 1.368 . S
C471 C452 1.429 . S
C471 C465 1.429 . S
C471 C472 1.523 . S
C472 C453 1.368 . S
C472 C466 1.368 . S
C472 C471 1.523 . S
C473 C457 1.429 . S
C473 C469 1.429 . S
C473 C474 1.523 . S
C474 C458 1.368 . S
C474 C470 1.368 . S
C474 C473 1.523 . S
H475 C450 0.950 . S
H476 C452 0.950 . S
H477 C453 0.949 . S
H478 C455 0.950 . S
H479 C457 0.950 . S
C480 C481 1.349 . S
C480 C482 1.327 . S
C480 H505 0.950 . S
C481 C480 1.349 . S
C481 C497 1.349 . S
C482 C480 1.327 . S
C482 C501 1.429 . S
C482 H506 0.950 . S
C483 C500 1.574 . S
C483 C502 1.368 . S
C483 H507 0.949 . S
H484 C488 0.949 . S
C485 C486 1.349 . S
C485 C487 1.327 . S
C485 H508 0.950 . S
C486 C485 1.349 . S
C486 C498 1.349 . S
C487 C485 1.327 . S
C487 C503 1.429 . S
C487 H509 0.950 . S
C488 H484 0.949 . S
C488 C496 1.574 . S
C488 C504 1.368 . S
H489 C497 0.950 . S
H490 C495 0.950 . S
H491 C496 0.949 . S
H492 C498 0.950 . S
H493 C499 0.950 . S
H494 C500 0.949 . S
C495 H490 0.950 . S
C495 C497 1.327 . S
C495 C501 1.429 . S
C496 C488 1.574 . S
C496 H491 0.949 . S
C496 C502 1.368 . S
C497 C481 1.349 . S
C497 H489 0.950 . S
C497 C495 1.327 . S
C498 C486 1.349 . S
C498 H492 0.950 . S
C498 C499 1.327 . S
C499 H493 0.950 . S
C499 C498 1.327 . S
C499 C503 1.429 . S
C500 C483 1.574 . S
C500 H494 0.949 . S
C500 C504 1.368 . S
C501 C482 1.429 . S
C501 C495 1.429 . S
C501 C502 1.523 . S
C502 C483 1.368 . S
C502 C496 1.368 . S
C502 C501 1.523 . S
C503 C487 1.429 . S
C503 C499 1.429 . S
C503 C504 1.523 . S
C504 C488 1.368 . S
C504 C500 1.368 . S
C504 C503 1.523 . S
H505 C480 0.950 . S
H506 C482 0.950 . S
H507 C483 0.949 . S
H508 C485 0.950 . S
H509 C487 0.950 . S
C510 C511 1.349 . S
C510 C512 1.327 . S
C510 H535 0.950 . S
C511 C510 1.349 . S
C511 C527 1.349 . S
C512 C510 1.327 . S
C512 C531 1.429 . S
C512 H536 0.950 . S
C513 C530 1.574 . S
C513 C532 1.368 . S
C513 H537 0.949 . S
H514 C518 0.949 . S
C515 C516 1.349 . S
C515 C517 1.327 . S
C515 H538 0.950 . S
C516 C515 1.349 . S
C516 C528 1.349 . S
C517 C515 1.327 . S
C517 C533 1.429 . S
C517 H539 0.950 . S
C518 H514 0.949 . S
C518 C526 1.574 . S
C518 C534 1.368 . S
H519 C527 0.950 . S
H520 C525 0.950 . S
H521 C526 0.949 . S
H522 C528 0.950 . S
H523 C529 0.950 . S
H524 C530 0.949 . S
C525 H520 0.950 . S
C525 C527 1.327 . S
C525 C531 1.429 . S
C526 C518 1.574 . S
C526 H521 0.949 . S
C526 C532 1.368 . S
C527 C511 1.349 . S
C527 H519 0.950 . S
C527 C525 1.327 . S
C528 C516 1.349 . S
C528 H522 0.950 . S
C528 C529 1.327 . S
C529 H523 0.950 . S
C529 C528 1.327 . S
C529 C533 1.429 . S
C530 C513 1.574 . S
C530 H524 0.949 . S
C530 C534 1.368 . S
C531 C512 1.429 . S
C531 C525 1.429 . S
C531 C532 1.523 . S
C532 C513 1.368 . S
C532 C526 1.368 . S
C532 C531 1.523 . S
C533 C517 1.429 . S
C533 C529 1.429 . S
C533 C534 1.523 . S
C534 C518 1.368 . S
C534 C530 1.368 . S
C534 C533 1.523 . S
H535 C510 0.950 . S
H536 C512 0.950 . S
H537 C513 0.949 . S
H538 C515 0.950 . S
H539 C517 0.950 . S
C540 C541 1.349 . S
C540 C542 1.327 . S
C540 H565 0.950 . S
C541 C540 1.349 . S
C541 C557 1.349 . S
C542 C540 1.327 . S
C542 C561 1.429 . S
C542 H566 0.950 . S
C543 C560 1.574 . S
C543 C562 1.368 . S
C543 H567 0.949 . S
H544 C548 0.949 . S
C545 C546 1.349 . S
C545 C547 1.327 . S
C545 H568 0.950 . S
C546 C545 1.349 . S
C546 C558 1.349 . S
C547 C545 1.327 . S
C547 C563 1.429 . S
C547 H569 0.950 . S
C548 H544 0.949 . S
C548 C556 1.574 . S
C548 C564 1.368 . S
H549 C557 0.950 . S
H550 C555 0.950 . S
H551 C556 0.949 . S
H552 C558 0.950 . S
H553 C559 0.950 . S
H554 C560 0.949 . S
C555 H550 0.950 . S
C555 C557 1.327 . S
C555 C561 1.429 . S
C556 C548 1.574 . S
C556 H551 0.949 . S
C556 C562 1.368 . S
C557 C541 1.349 . S
C557 H549 0.950 . S
C557 C555 1.327 . S
C558 C546 1.349 . S
C558 H552 0.950 . S
C558 C559 1.327 . S
C559 H553 0.950 . S
C559 C558 1.327 . S
C559 C563 1.429 . S
C560 C543 1.574 . S
C560 H554 0.949 . S
C560 C564 1.368 . S
C561 C542 1.429 . S
C561 C555 1.429 . S
C561 C562 1.523 . S
C562 C543 1.368 . S
C562 C556 1.368 . S
C562 C561 1.523 . S
C563 C547 1.429 . S
C563 C559 1.429 . S
C563 C564 1.523 . S
C564 C548 1.368 . S
C564 C560 1.368 . S
C564 C563 1.523 . S
H565 C540 0.950 . S
H566 C542 0.950 . S
H567 C543 0.949 . S
H568 C545 0.950 . S
H569 C547 0.950 . S
C570 C571 1.349 . S
C570 C572 1.327 . S
C570 H595 0.950 . S
C571 C570 1.349 . S
C571 C587 1.349 . S
C572 C570 1.327 . S
C572 C591 1.429 . S
C572 H596 0.950 . S
C573 C590 1.574 . S
C573 C592 1.368 . S
C573 H597 0.949 . S
H574 C578 0.949 . S
C575 C576 1.349 . S
C575 C577 1.327 . S
C575 H598 0.950 . S
C576 C575 1.349 . S
C576 C588 1.349 . S
C577 C575 1.327 . S
C577 C593 1.429 . S
C577 H599 0.950 . S
C578 H574 0.949 . S
C578 C586 1.574 . S
C578 C594 1.368 . S
H579 C587 0.950 . S
H580 C585 0.950 . S
H581 C586 0.949 . S
H582 C588 0.950 . S
H583 C589 0.950 . S
H584 C590 0.949 . S
C585 H580 0.950 . S
C585 C587 1.327 . S
C585 C591 1.429 . S
C586 C578 1.574 . S
C586 H581 0.949 . S
C586 C592 1.368 . S
C587 C571 1.349 . S
C587 H579 0.950 . S
C587 C585 1.327 . S
C588 C576 1.349 . S
C588 H582 0.950 . S
C588 C589 1.327 . S
C589 H583 0.950 . S
C589 C588 1.327 . S
C589 C593 1.429 . S
C590 C573 1.574 . S
C590 H584 0.949 . S
C590 C594 1.368 . S
C591 C572 1.429 . S
C591 C585 1.429 . S
C591 C592 1.523 . S
C592 C573 1.368 . S
C592 C586 1.368 . S
C592 C591 1.523 . S
C593 C577 1.429 . S
C593 C589 1.429 . S
C593 C594 1.523 . S
C594 C578 1.368 . S
C594 C590 1.368 . S
C594 C593 1.523 . S
H595 C570 0.950 . S
H596 C572 0.950 . S
H597 C573 0.949 . S
H598 C575 0.950 . S
H599 C577 0.950 . S
C600 C601 1.349 . S
C600 C602 1.327 . S
C600 H625 0.950 . S
C601 C600 1.349 . S
C601 C617 1.349 . S
C602 C600 1.327 . S
C602 C621 1.429 . S
C602 H626 0.950 . S
C603 C620 1.574 . S
C603 C622 1.368 . S
C603 H627 0.949 . S
H604 C608 0.949 . S
C605 C606 1.349 . S
C605 C607 1.327 . S
C605 H628 0.950 . S
C606 C605 1.349 . S
C606 C618 1.349 . S
C607 C605 1.327 . S
C607 C623 1.429 . S
C607 H629 0.950 . S
C608 H604 0.949 . S
C608 C616 1.574 . S
C608 C624 1.368 . S
H609 C617 0.950 . S
H610 C615 0.950 . S
H611 C616 0.949 . S
H612 C618 0.950 . S
H613 C619 0.950 . S
H614 C620 0.949 . S
C615 H610 0.950 . S
C615 C617 1.327 . S
C615 C621 1.429 . S
C616 C608 1.574 . S
C616 H611 0.949 . S
C616 C622 1.368 . S
C617 C601 1.349 . S
C617 H609 0.950 . S
C617 C615 1.327 . S
C618 C606 1.349 . S
C618 H612 0.950 . S
C618 C619 1.327 . S
C619 H613 0.950 . S
C619 C618 1.327 . S
C619 C623 1.429 . S
C620 C603 1.574 . S
C620 H614 0.949 . S
C620 C624 1.368 . S
C621 C602 1.429 . S
C621 C615 1.429 . S
C621 C622 1.523 . S
C622 C603 1.368 . S
C622 C616 1.368 . S
C622 C621 1.523 . S
C623 C607 1.429 . S
C623 C619 1.429 . S
C623 C624 1.523 . S
C624 C608 1.368 . S
C624 C620 1.368 . S
C624 C623 1.523 . S
H625 C600 0.950 . S
H626 C602 0.950 . S
H627 C603 0.949 . S
H628 C605 0.950 . S
H629 C607 0.950 . S
C630 C631 1.349 . S
C630 C632 1.327 . S
C630 H655 0.950 . S
C631 C630 1.349 . S
C631 C647 1.349 . S
C632 C630 1.327 . S
C632 C651 1.429 . S
C632 H656 0.950 . S
C633 C650 1.574 . S
C633 C652 1.368 . S
C633 H657 0.949 . S
H634 C638 0.949 . S
C635 C636 1.349 . S
C635 C637 1.327 . S
C635 H658 0.950 . S
C636 C635 1.349 . S
C636 C648 1.349 . S
C637 C635 1.327 . S
C637 C653 1.429 . S
C637 H659 0.950 . S
C638 H634 0.949 . S
C638 C646 1.574 . S
C638 C654 1.368 . S
H639 C647 0.950 . S
H640 C645 0.950 . S
H641 C646 0.949 . S
H642 C648 0.950 . S
H643 C649 0.950 . S
H644 C650 0.949 . S
C645 H640 0.950 . S
C645 C647 1.327 . S
C645 C651 1.429 . S
C646 C638 1.574 . S
C646 H641 0.949 . S
C646 C652 1.368 . S
C647 C631 1.349 . S
C647 H639 0.950 . S
C647 C645 1.327 . S
C648 C636 1.349 . S
C648 H642 0.950 . S
C648 C649 1.327 . S
C649 H643 0.950 . S
C649 C648 1.327 . S
C649 C653 1.429 . S
C650 C633 1.574 . S
C650 H644 0.949 . S
C650 C654 1.368 . S
C651 C632 1.429 . S
C651 C645 1.429 . S
C651 C652 1.523 . S
C652 C633 1.368 . S
C652 C646 1.368 . S
C652 C651 1.523 . S
C653 C637 1.429 . S
C653 C649 1.429 . S
C653 C654 1.523 . S
C654 C638 1.368 . S
C654 C650 1.368 . S
C654 C653 1.523 . S
H655 C630 0.950 . S
H656 C632 0.950 . S
H657 C633 0.949 . S
H658 C635 0.950 . S
H659 C637 0.950 . S
C660 C661 1.349 . S
C660 C662 1.327 . S
C660 H685 0.953 . S
C661 C660 1.349 . S
C661 C677 1.349 . S
C662 C660 1.327 . S
C662 C681 1.429 . S
C662 H686 0.950 . S
C663 C680 1.574 . S
C663 C682 1.368 . S
C663 H687 0.949 . S
H664 C668 0.949 . S
C665 C666 1.349 . S
C665 C667 1.327 1_556 S
C665 H688 0.950 . S
C666 C665 1.349 . S
C666 C678 1.349 . S
C667 C665 1.327 1_554 S
C667 C683 1.429 . S
C667 H689 0.950 . S
C668 H664 0.949 . S
C668 C676 1.574 . S
C668 C684 1.368 . S
H669 C677 0.950 . S
H670 C675 0.950 . S
H671 C676 0.949 . S
H672 C678 0.950 . S
H673 C679 0.950 . S
H674 C680 0.949 . S
C675 H670 0.950 . S
C675 C677 1.327 . S
C675 C681 1.429 . S
C676 C668 1.574 . S
C676 H671 0.949 . S
C676 C682 1.368 . S
C677 C661 1.349 . S
C677 H669 0.950 . S
C677 C675 1.327 . S
C678 C666 1.349 . S
C678 H672 0.950 . S
C678 C679 1.327 1_556 S
C679 H673 0.950 . S
C679 C678 1.327 1_554 S
C679 C683 1.429 . S
C680 C663 1.574 . S
C680 H674 0.949 . S
C680 C684 1.368 . S
C681 C662 1.429 . S
C681 C675 1.429 . S
C681 C682 1.523 . S
C682 C663 1.368 . S
C682 C676 1.368 . S
C682 C681 1.523 . S
C683 C667 1.429 . S
C683 C679 1.429 . S
C683 C684 1.523 . S
C684 C668 1.368 . S
C684 C680 1.368 . S
C684 C683 1.523 . S
H685 C660 0.953 . S
H686 C662 0.950 . S
H687 C663 0.949 . S
H688 C665 0.950 . S
H689 C667 0.950 . S
C690 C691 1.349 . S
C690 C692 1.327 . S
C690 H715 0.950 . S
C691 C690 1.349 . S
C691 C707 1.349 . S
C692 C690 1.327 . S
C692 C711 1.429 . S
C692 H716 0.950 . S
C693 C710 1.574 . S
C693 C712 1.368 . S
C693 H717 0.949 . S
H694 C698 0.949 . S
C695 C696 1.349 . S
C695 C697 1.327 . S
C695 H718 0.950 . S
C696 C695 1.349 . S
C696 C708 1.349 . S
C697 C695 1.327 . S
C697 C713 1.429 . S
C697 H719 0.950 . S
C698 H694 0.949 . S
C698 C706 1.574 . S
C698 C714 1.368 . S
H699 C707 0.950 1_565 S
H700 C705 0.949 1_565 S
H701 C706 0.949 . S
H702 C708 0.950 . S
H703 C709 0.950 . S
H704 C710 0.949 . S
C705 H700 0.949 1_545 S
C705 C707 1.327 . S
C705 C711 1.429 . S
C706 C698 1.574 . S
C706 H701 0.949 . S
C706 C712 1.368 . S
C707 C691 1.349 . S
C707 H699 0.950 1_545 S
C707 C705 1.327 . S
C708 C696 1.349 . S
C708 H702 0.950 . S
C708 C709 1.327 . S
C709 H703 0.950 . S
C709 C708 1.327 . S
C709 C713 1.429 . S
C710 C693 1.574 . S
C710 H704 0.949 . S
C710 C714 1.368 . S
C711 C692 1.429 . S
C711 C705 1.429 . S
C711 C712 1.523 . S
C712 C693 1.368 . S
C712 C706 1.368 . S
C712 C711 1.523 . S
C713 C697 1.429 . S
C713 C709 1.429 . S
C713 C714 1.523 . S
C714 C698 1.368 . S
C714 C710 1.368 . S
C714 C713 1.523 . S
H715 C690 0.950 . S
H716 C692 0.950 . S
H717 C693 0.949 . S
H718 C695 0.950 . S
H719 C697 0.950 . S
C720 C721 1.349 . S
C720 C722 1.327 . S
C720 H745 0.950 . S
C721 C720 1.349 . S
C721 C737 1.349 . S
C722 C720 1.327 . S
C722 C741 1.429 . S
C722 H746 0.950 . S
C723 C740 1.574 . S
C723 C742 1.368 . S
C723 H747 0.949 . S
H724 C728 0.949 . S
C725 C726 1.349 . S
C725 C727 1.327 . S
C725 H748 0.950 . S
C726 C725 1.349 . S
C726 C738 1.349 . S
C727 C725 1.327 . S
C727 C743 1.429 . S
C727 H749 0.950 . S
C728 H724 0.949 . S
C728 C736 1.574 . S
C728 C744 1.368 . S
H729 C737 0.950 . S
H730 C735 0.950 . S
H731 C736 0.949 . S
H732 C738 0.950 . S
H733 C739 0.950 . S
H734 C740 0.949 . S
C735 H730 0.950 . S
C735 C737 1.327 . S
C735 C741 1.429 . S
C736 C728 1.574 . S
C736 H731 0.949 . S
C736 C742 1.368 . S
C737 C721 1.349 . S
C737 H729 0.950 . S
C737 C735 1.327 . S
C738 C726 1.349 . S
C738 H732 0.950 . S
C738 C739 1.327 . S
C739 H733 0.950 . S
C739 C738 1.327 . S
C739 C743 1.429 . S
C740 C723 1.574 . S
C740 H734 0.949 . S
C740 C744 1.368 . S
C741 C722 1.429 . S
C741 C735 1.429 . S
C741 C742 1.523 . S
C742 C723 1.368 . S
C742 C736 1.368 . S
C742 C741 1.523 . S
C743 C727 1.429 . S
C743 C739 1.429 . S
C743 C744 1.523 . S
C744 C728 1.368 . S
C744 C740 1.368 . S
C744 C743 1.523 . S
H745 C720 0.950 . S
H746 C722 0.950 . S
H747 C723 0.949 . S
H748 C725 0.950 . S
H749 C727 0.950 . S
C750 C751 1.349 . S
C750 C752 1.327 1_545 S
C750 H775 0.950 1_545 S
C751 C750 1.349 . S
C751 C767 1.349 . S
C752 C750 1.327 1_565 S
C752 C771 1.429 1_565 S
C752 H776 0.950 . S
C753 C770 1.574 . S
C753 C772 1.368 . S
C753 H777 0.949 . S
H754 C758 0.949 . S
C755 C756 1.349 . S
C755 C757 1.327 . S
C755 H778 0.950 . S
C756 C755 1.349 . S
C756 C768 1.349 1_545 S
C757 C755 1.327 . S
C757 C773 1.429 . S
C757 H779 0.950 . S
C758 H754 0.949 . S
C758 C766 1.574 . S
C758 C774 1.368 1_565 S
H759 C767 0.950 . S
H760 C765 0.950 . S
H761 C766 0.949 . S
H762 C768 0.950 . S
H763 C769 0.950 . S
H764 C770 0.949 . S
C765 H760 0.950 . S
C765 C767 1.327 . S
C765 C771 1.429 . S
C766 C758 1.574 . S
C766 H761 0.949 . S
C766 C772 1.368 1_565 S
C767 C751 1.349 . S
C767 H759 0.950 . S
C767 C765 1.327 . S
C768 C756 1.349 1_565 S
C768 H762 0.950 . S
C768 C769 1.327 . S
C769 H763 0.950 . S
C769 C768 1.327 . S
C769 C773 1.429 1_565 S
C770 C753 1.574 . S
C770 H764 0.949 . S
C770 C774 1.368 . S
C771 C752 1.429 1_545 S
C771 C765 1.429 . S
C771 C772 1.523 . S
C772 C753 1.368 . S
C772 C766 1.368 1_545 S
C772 C771 1.523 . S
C773 C757 1.429 . S
C773 C769 1.429 1_545 S
C773 C774 1.523 . S
C774 C758 1.368 1_545 S
C774 C770 1.368 . S
C774 C773 1.523 . S
H775 C750 0.950 1_565 S
H776 C752 0.950 . S
H777 C753 0.949 . S
H778 C755 0.950 . S
H779 C757 0.950 . S
C780 C781 1.349 . S
C780 C782 1.327 . S
C780 H805 0.950 . S
C781 C780 1.349 . S
C781 C797 1.349 . S
C782 C780 1.327 . S
C782 C801 1.429 . S
C782 H806 0.950 . S
C783 C800 1.574 . S
C783 C802 1.368 . S
C783 H807 0.949 . S
H784 C788 0.949 . S
C785 C786 1.349 . S
C785 C787 1.327 1_554 S
C785 H808 0.950 . S
C786 C785 1.349 . S
C786 C798 1.349 . S
C787 C785 1.327 1_556 S
C787 C803 1.429 . S
C787 H809 0.950 . S
C788 H784 0.949 . S
C788 C796 1.574 . S
C788 C804 1.368 . S
H789 C797 0.950 . S
H790 C795 0.950 . S
H791 C796 0.949 . S
H792 C798 0.950 . S
H793 C799 0.950 . S
H794 C800 0.949 . S
C795 H790 0.950 . S
C795 C797 1.327 . S
C795 C801 1.429 . S
C796 C788 1.574 . S
C796 H791 0.949 . S
C796 C802 1.368 . S
C797 C781 1.349 . S
C797 H789 0.950 . S
C797 C795 1.327 . S
C798 C786 1.349 . S
C798 H792 0.950 . S
C798 C799 1.327 1_554 S
C799 H793 0.950 . S
C799 C798 1.327 1_556 S
C799 C803 1.429 . S
C800 C783 1.574 . S
C800 H794 0.949 . S
C800 C804 1.368 . S
C801 C782 1.429 . S
C801 C795 1.429 . S
C801 C802 1.523 . S
C802 C783 1.368 . S
C802 C796 1.368 . S
C802 C801 1.523 . S
C803 C787 1.429 . S
C803 C799 1.429 . S
C803 C804 1.523 . S
C804 C788 1.368 . S
C804 C800 1.368 . S
C804 C803 1.523 . S
H805 C780 0.950 . S
H806 C782 0.950 . S
H807 C783 0.949 . S
H808 C785 0.950 . S
H809 C787 0.950 . S
C810 C811 1.349 . S
C810 C812 1.327 . S
C810 H835 0.950 . S
C811 C810 1.349 . S
C811 C827 1.349 . S
C812 C810 1.327 . S
C812 C831 1.429 . S
C812 H836 0.950 . S
C813 C830 1.572 1_455 S
C813 C832 1.376 . S
C813 H837 0.944 1_455 S
H814 C818 0.949 . S
C815 C816 1.349 . S
C815 C817 1.327 . S
C815 H838 0.950 . S
C816 C815 1.349 . S
C816 C828 1.349 1_655 S
C817 C815 1.327 . S
C817 C833 1.429 1_655 S
C817 H839 0.950 . S
C818 H814 0.949 . S
C818 C826 1.574 . S
C818 C834 1.368 . S
H819 C827 0.950 . S
H820 C825 0.926 1_655 S
H821 C826 0.949 . S
H822 C828 0.950 . S
H823 C829 0.950 . S
H824 C830 0.949 . S
C825 H820 0.926 1_455 S
C825 C827 1.327 . S
C825 C831 1.429 . S
C826 C818 1.574 . S
C826 H821 0.949 . S
C826 C832 1.368 . S
C827 C811 1.349 . S
C827 H819 0.950 . S
C827 C825 1.327 . S
C828 C816 1.349 1_455 S
C828 H822 0.950 . S
C828 C829 1.327 . S
C829 H823 0.950 . S
C829 C828 1.327 . S
C829 C833 1.429 . S
C830 C813 1.572 1_655 S
C830 H824 0.949 . S
C830 C834 1.368 1_655 S
C831 C812 1.429 . S
C831 C825 1.429 . S
C831 C832 1.523 . S
C832 C813 1.376 . S
C832 C826 1.368 . S
C832 C831 1.523 . S
C833 C817 1.429 1_455 S
C833 C829 1.429 . S
C833 C834 1.523 . S
C834 C818 1.368 . S
C834 C830 1.368 1_455 S
C834 C833 1.523 . S
H835 C810 0.950 . S
H836 C812 0.950 . S
H837 C813 0.944 1_655 S
H838 C815 0.950 . S
H839 C817 0.950 . S
C301 C8 2.073 . S
C306 C275 2.130 . S
C331 C26 1.302 . S
C336 C182 1.306 . S
C361 C48 1.468 . S
C366 C222 1.508 . S
C391 C19 1.772 . S
C396 C262 1.825 . S
C426 C195 1.573 . S
C421 C36 1.567 . S
C456 C235 1.804 . S
C451 C59 1.761 . S
C481 C28 1.492 . S
C486 C102 1.537 . S
C511 C46 1.254 . S
C516 C142 1.258 . S
C541 C16 1.646 . S
C546 C75 1.652 . S
C576 C115 1.756 . S
C571 C39 1.723 . S
C606 C155 1.004 . S
C601 C56 0.999 . S
C631 C6 1.336 . S
C636 C62 1.337 . S
C666 C161 1.418 . S
C661 C9 1.403 . S
C691 C21 1.501 . S
C696 C81 1.513 . S
C721 C49 1.486 . S
C726 C121 1.494 . S
C756 C241 1.470 . S
C751 C29 1.467 . S
C786 C281 1.589 . S
C781 C41 1.576 . S
C811 C1 1.506 . S
C816 C201 1.517 . S
