# Generated by pormake.
# Topology anh, (6,3)-cn, num edge types: 1
# Building blocks:
#     Node 0, Type 0, BuildingBlock: INOVEN_clean_sbu_0, # of connection points: 6
#     Node 1, Type 0, BuildingBlock: INOVEN_clean_sbu_0, # of connection points: 6
#     Node 2, Type 0, BuildingBlock: INOVEN_clean_sbu_0, # of connection points: 6
#     Node 3, Type 1, BuildingBlock: OLANEW_clean_sbu_2, # of connection points: 3
#     Node 4, Type 1, BuildingBlock: OLANEW_clean_sbu_2, # of connection points: 3
#     Node 5, Type 1, BuildingBlock: OLANEW_clean_sbu_2, # of connection points: 3
#     Node 6, Type 1, BuildingBlock: OLANEW_clean_sbu_2, # of connection points: 3
#     Node 7, Type 1, BuildingBlock: OLANEW_clean_sbu_2, # of connection points: 3
#     Node 8, Type 1, BuildingBlock: OLANEW_clean_sbu_2, # of connection points: 3
#     Edge 9, Type (0, 1), BuildingBlock: AJUNOK_clean_linker_0, # of connection points: 2
#     Edge 10, Type (0, 1), BuildingBlock: AJUNOK_clean_linker_0, # of connection points: 2
#     Edge 11, Type (0, 1), BuildingBlock: AJUNOK_clean_linker_0, # of connection points: 2
#     Edge 12, Type (0, 1), BuildingBlock: AJUNOK_clean_linker_0, # of connection points: 2
#     Edge 13, Type (0, 1), BuildingBlock: AJUNOK_clean_linker_0, # of connection points: 2
#     Edge 14, Type (0, 1), BuildingBlock: AJUNOK_clean_linker_0, # of connection points: 2
#     Edge 15, Type (0, 1), BuildingBlock: AJUNOK_clean_linker_0, # of connection points: 2
#     Edge 16, Type (0, 1), BuildingBlock: AJUNOK_clean_linker_0, # of connection points: 2
#     Edge 17, Type (0, 1), BuildingBlock: AJUNOK_clean_linker_0, # of connection points: 2
#     Edge 18, Type (0, 1), BuildingBlock: AJUNOK_clean_linker_0, # of connection points: 2
#     Edge 19, Type (0, 1), BuildingBlock: AJUNOK_clean_linker_0, # of connection points: 2
#     Edge 20, Type (0, 1), BuildingBlock: AJUNOK_clean_linker_0, # of connection points: 2
#     Edge 21, Type (0, 1), BuildingBlock: AJUNOK_clean_linker_0, # of connection points: 2
#     Edge 22, Type (0, 1), BuildingBlock: AJUNOK_clean_linker_0, # of connection points: 2
#     Edge 23, Type (0, 1), BuildingBlock: AJUNOK_clean_linker_0, # of connection points: 2
#     Edge 24, Type (0, 1), BuildingBlock: AJUNOK_clean_linker_0, # of connection points: 2
#     Edge 25, Type (0, 1), BuildingBlock: AJUNOK_clean_linker_0, # of connection points: 2
#     Edge 26, Type (0, 1), BuildingBlock: AJUNOK_clean_linker_0, # of connection points: 2
# Relax obj value: 0.188
# Max RMSD: 0.197
# Mean RMSD: 0.124
data_MOF--net-anh--node1-INOVEN_clean_sbu_0--node2-OLANEW_clean_sbu_2--edge1-AJUNOK_clean_linker_0
_symmetry_space_group_name_H-M    P1
_symmetry_Int_Tables_number       1
_symmetry_cell_setting            triclinic
loop_
_symmetry_equiv_pos_as_xyz
'x, y, z'
_cell_length_a     29.361862
_cell_length_b     33.980824
_cell_length_c     37.132221
_cell_angle_alpha  92.648755
_cell_angle_beta   89.454128
_cell_angle_gamma 132.07979
loop_
_atom_site_label
_atom_site_type_symbol
_atom_site_fract_x
_atom_site_fract_y
_atom_site_fract_z
_atom_type_partial_charge
Gd0 Gd 0.06092 0.48765 0.14861 0.0
Gd1 Gd 0.99128 0.5292 0.16522 0.0
C2 C 0.1395 0.61566 0.16168 0.0
C3 C 0.12799 0.46977 0.12289 0.0
C4 C 0.1927 0.49428 0.12615 0.0
C5 C 0.20862 0.47295 0.14893 0.0
C6 C 0.23882 0.53808 0.1062 0.0
C7 C 0.31515 0.53859 0.13187 0.0
C8 C 0.29949 0.56006 0.10909 0.0
C9 C 0.26928 0.49512 0.15195 0.0
C10 C 0.03924 0.49444 0.21846 0.0
C11 C 0.91508 0.40313 0.15264 0.0
C12 C 0.93023 0.54768 0.19941 0.0
C13 C 0.86637 0.52382 0.19615 0.0
C14 C 0.83188 0.49487 0.16437 0.0
C15 C 0.83782 0.52528 0.22596 0.0
C16 C 0.74037 0.46856 0.1923 0.0
C17 C 0.77515 0.49779 0.22408 0.0
C18 C 0.76945 0.46764 0.16242 0.0
C19 C 0.99128 0.51 0.09306 0.0
O20 O 0.13972 0.57726 0.15336 0.0
O21 O 0.08881 0.60641 0.16881 0.0
O22 O 0.09499 0.44784 0.15159 0.0
O23 O 0.11666 0.49541 0.10575 0.0
O24 O 0.04115 0.45946 0.2054 0.0
O25 O 0.05332 0.52583 0.19462 0.0
O26 O 0.9187 0.4408 0.16859 0.0
O27 O 0.96257 0.4131 0.13721 0.0
O28 O 0.96557 0.5756 0.17243 0.0
O29 O 0.9366 0.51552 0.2106 0.0
O30 O 0.96625 0.52747 0.10633 0.0
O31 O 0.01193 0.50318 0.11897 0.0
H32 H 0.17406 0.43887 0.16435 0.0
H33 H 0.22817 0.55539 0.08829 0.0
H34 H 0.33425 0.59403 0.09366 0.0
H35 H 0.28022 0.47771 0.16954 0.0
H36 H 0.85298 0.49252 0.1413 0.0
H37 H 0.86367 0.5466 0.25092 0.0
H38 H 0.75363 0.49836 0.24769 0.0
H39 H 0.74378 0.44563 0.13756 0.0
Gd40 Gd 0.55208 0.98677 0.48651 0.0
Gd41 Gd 0.49712 0.03442 0.47413 0.0
C42 C 0.40555 0.91279 0.48326 0.0
C43 C 0.58388 0.93786 0.51101 0.0
C44 C 0.56093 0.8924 0.53241 0.0
C45 C 0.55731 0.85214 0.51643 0.0
C46 C 0.54743 0.89051 0.5691 0.0
C47 C 0.53017 0.81015 0.57366 0.0
C48 C 0.53238 0.84977 0.58956 0.0
C49 C 0.54207 0.81143 0.5368 0.0
C50 C 0.53964 -0.00487 0.41622 0.0
C51 C 0.64414 0.10641 0.46659 0.0
C52 C 0.46762 0.08773 0.45631 0.0
C53 C 0.48714 0.13768 0.47184 0.0
C54 C 0.52225 0.16035 0.50413 0.0
C55 C 0.47248 0.16372 0.45428 0.0
C56 C 0.52929 0.23556 0.50084 0.0
C57 C 0.49327 0.21232 0.46875 0.0
C58 C 0.54289 0.20872 0.5186 0.0
C59 C 0.51877 0.03165 0.54453 0.0
O60 O 0.45205 0.92303 0.50035 0.0
O61 O 0.41462 0.94877 0.46368 0.0
O62 O 0.55845 0.92694 0.47903 0.0
O63 O 0.59641 0.9789 0.52793 0.0
O64 O 0.58395 0.00026 0.42982 0.0
O65 O 0.50074 0.9819 0.4398 0.0
O66 O 0.59507 0.09896 0.4586 0.0
O67 O 0.64069 0.0708 0.48279 0.0
O68 O 0.43444 0.04758 0.47709 0.0
O69 O 0.51068 0.09199 0.44065 0.0
O70 O 0.47237 0.02466 0.53303 0.0
O71 O 0.5531 0.04304 0.51879 0.0
H72 H 0.56825 0.85308 0.48834 0.0
H73 H 0.55 0.92112 0.58222 0.0
H74 H 0.52359 0.84974 0.61797 0.0
H75 H 0.54218 0.78219 0.52402 0.0
H76 H 0.53394 0.14067 0.51806 0.0
H77 H 0.44551 0.14675 0.42928 0.0
H78 H 0.48212 0.2322 0.45456 0.0
H79 H 0.56934 0.22506 0.54377 0.0
Gd80 Gd 0.57747 0.56667 0.88539 0.0
Gd81 Gd 0.48339 0.44869 0.88241 0.0
C82 C 0.43208 0.50591 0.88366 0.0
C83 C 0.64153 0.66535 0.87285 0.0
C84 C 0.62961 0.69795 0.8589 0.0
C85 C 0.62136 0.72593 0.88281 0.0
C86 C 0.6285 0.70293 0.82159 0.0
C87 C 0.61215 0.76372 0.83246 0.0
C88 C 0.61984 0.73546 0.80854 0.0
C89 C 0.6126 0.75841 0.86971 0.0
C90 C 0.54591 0.52316 0.94974 0.0
C91 C 0.63108 0.51075 0.88884 0.0
C92 C 0.4176 0.34857 0.89029 0.0
C93 C 0.42119 0.30954 0.8755 0.0
C94 C 0.38492 0.27653 0.84503 0.0
C95 C 0.46324 0.30705 0.89001 0.0
C96 C 0.43761 0.24407 0.84142 0.0
C97 C 0.47149 0.2747 0.87303 0.0
C98 C 0.39312 0.24417 0.82814 0.0
C99 C 0.51563 0.49119 0.81701 0.0
O100 O 0.48764 0.54692 0.8727 0.0
O101 O 0.42151 0.46438 0.89543 0.0
O102 O 0.62071 0.64645 0.90468 0.0
O103 O 0.63468 0.63125 0.8498 0.0
O104 O 0.60207 0.56427 0.94239 0.0
O105 O 0.50975 0.50869 0.92385 0.0
O106 O 0.57289 0.46581 0.8911 0.0
O107 O 0.64488 0.55583 0.88343 0.0
O108 O 0.40395 0.36713 0.86686 0.0
O109 O 0.46083 0.38545 0.91358 0.0
O110 O 0.46043 0.44939 0.82483 0.0
O111 O 0.55147 0.50643 0.84345 0.0
H112 H 0.62266 0.72342 0.9117 0.0
H113 H 0.63508 0.68225 0.80238 0.0
H114 H 0.61971 0.73894 0.77968 0.0
H115 H 0.60803 0.78062 0.88878 0.0
H116 H 0.35149 0.27695 0.83353 0.0
H117 H 0.49085 0.331 0.91395 0.0
H118 H 0.5049 0.27413 0.88432 0.0
H119 H 0.36614 0.22062 0.80392 0.0
O120 O 0.56279 0.07953 0.25896 0.0
Cd121 Cd 0.56929 0.09491 0.19448 0.0
O122 O 0.52602 0.00119 0.23935 0.0
Cd123 Cd 0.48021 0.91784 0.24243 0.0
O124 O 0.40432 0.83544 0.22394 0.0
C125 C 0.3657 0.82945 0.20315 0.0
O126 O 0.37572 0.87183 0.19488 0.0
C127 C 0.54141 0.03361 0.26568 0.0
C128 C 0.68137 0.19188 0.17593 0.0
O129 O 0.63582 0.18742 0.18476 0.0
O130 O 0.67399 0.1502 0.17603 0.0
O131 O 0.62476 0.52173 0.65961 0.0
Cd132 Cd 0.6525 0.53026 0.5963 0.0
O133 O 0.57648 0.54745 0.64521 0.0
Cd134 Cd 0.52681 0.57422 0.65304 0.0
O135 O 0.5004 0.61755 0.63651 0.0
C136 C 0.52788 0.66386 0.65007 0.0
O137 O 0.5692 0.68345 0.67606 0.0
C138 C 0.59213 0.53235 0.66892 0.0
C139 C 0.61488 0.43612 0.56429 0.0
O140 O 0.66828 0.47143 0.57931 0.0
O141 O 0.57905 0.44529 0.56458 0.0
O142 O 0.07736 0.50199 0.93283 0.0
Cd143 Cd 0.12529 0.49531 0.87887 0.0
O144 O 1.00036 0.49608 0.91556 0.0
Cd145 Cd 0.92157 0.49455 0.91827 0.0
O146 O 0.83834 0.48655 0.9136 0.0
C147 C 0.8417 0.52392 0.90351 0.0
O148 O 0.89597 0.56906 0.89593 0.0
C149 C 0.03417 0.50138 0.94066 0.0
C150 C 0.22889 0.50338 0.88546 0.0
O151 O 0.17373 0.45935 0.88912 0.0
O152 O 0.23578 0.54415 0.8804 0.0
O153 O 0.06363 0.57872 0.38525 0.0
Cd154 Cd 0.06401 0.5933 0.45022 0.0
O155 O 1.00883 0.49516 0.3947 0.0
Cd156 Cd 0.9503 0.4097 0.38496 0.0
O157 O 0.8747 0.32613 0.39358 0.0
C158 C 0.87169 0.30732 0.42322 0.0
O159 O 0.9167 0.33847 0.4473 0.0
C160 C 0.03504 0.53185 0.37259 0.0
C161 C 0.16979 0.69692 0.46958 0.0
O162 O 0.16879 0.65868 0.47045 0.0
O163 O 0.12001 0.68561 0.46052 0.0
O164 O 0.59172 -0.00106 0.69801 0.0
Cd165 Cd 0.61796 0.00401 0.76133 0.0
O166 O 0.56762 0.04363 0.71936 0.0
Cd167 Cd 0.54341 0.09186 0.7195 0.0
O168 O 0.52931 0.1423 0.74421 0.0
C169 C 0.47965 0.12071 0.76033 0.0
O170 O 0.437 0.06863 0.75962 0.0
C171 C 0.57217 0.02206 0.69245 0.0
C172 C 0.60891 0.92111 0.78141 0.0
O173 O 0.56355 0.91857 0.78506 0.0
O174 O 0.65782 0.96239 0.76765 0.0
O175 O 0.40753 0.3558 0.07534 0.0
Cd176 Cd 0.37332 0.3111 0.13177 0.0
O177 O 0.44825 0.42836 0.10849 0.0
Cd178 Cd 0.50872 0.51478 0.11584 0.0
O179 O 0.57839 0.59807 0.13523 0.0
C180 C 0.56466 0.62521 0.14519 0.0
O181 O 0.60718 0.67319 0.16007 0.0
C182 C 0.4402 0.40572 0.07796 0.0
C183 C 0.483 0.35363 0.16548 0.0
O184 O 0.46012 0.37478 0.171 0.0
O185 O 0.45158 0.31021 0.14595 0.0
C186 C 0.40883 0.57613 0.16865 0.0
C187 C 0.37911 0.56105 0.13463 0.0
C188 C 0.46927 0.59725 0.17189 0.0
C189 C 0.50119 0.60259 0.14131 0.0
H190 H 0.38544 0.57218 0.19286 0.0
H191 H 0.49094 0.60894 0.19847 0.0
S192 S 0.44499 0.57073 0.04631 0.0
N193 N 0.38688 0.55433 0.06982 0.0
N194 N 0.50004 0.59284 0.0761 0.0
C195 C 0.47216 0.58763 0.10724 0.0
C196 C 0.41118 0.56719 0.10385 0.0
C197 C 0.75618 0.185 0.47672 0.0
C198 C 0.70347 0.15459 0.45416 0.0
C199 C 0.81113 0.23373 0.46602 0.0
C200 C 0.81527 0.25317 0.43221 0.0
H201 H 0.7543 0.17211 0.50327 0.0
H202 H 0.85012 0.25686 0.48479 0.0
S203 S 0.69116 0.18341 0.36146 0.0
N204 N 0.65954 0.14398 0.39549 0.0
N205 N 0.76253 0.23478 0.37497 0.0
C206 C 0.76336 0.22121 0.40868 0.0
C207 C 0.70749 0.17212 0.41979 0.0
C208 C 0.65202 0.83952 0.79474 0.0
C209 C 0.60789 0.80141 0.81859 0.0
C210 C 0.65131 0.87747 0.78255 0.0
C211 C 0.60606 0.87851 0.79343 0.0
H212 H 0.68836 0.84084 0.78609 0.0
H213 H 0.68692 0.90647 0.76463 0.0
S214 S 0.47812 0.78528 0.85428 0.0
N215 N 0.51649 0.76562 0.85176 0.0
N216 N 0.51459 0.83668 0.82869 0.0
C217 C 0.56068 0.83972 0.81664 0.0
C218 C 0.56183 0.80134 0.82933 0.0
C219 C 0.63295 0.38538 0.17598 0.0
C220 C 0.67366 0.43827 0.18999 0.0
C221 C 0.57062 0.35735 0.17003 0.0
C222 C 0.54649 0.38116 0.1778 0.0
H223 H 0.6497 0.3658 0.16882 0.0
H224 H 0.54165 0.31728 0.15809 0.0
S225 S 0.63364 0.51815 0.21691 0.0
N226 N 0.68541 0.51285 0.21294 0.0
N227 N 0.56803 0.46015 0.20222 0.0
C228 C 0.58628 0.43334 0.19342 0.0
C229 C 0.6499 0.4619 0.19942 0.0
C230 C 0.33802 0.81559 0.49119 0.0
C231 C 0.34395 0.85891 0.48338 0.0
C232 C 0.28114 0.76348 0.48776 0.0
C233 C 0.22781 0.75268 0.4767 0.0
H234 H 0.37799 0.82166 0.49877 0.0
H235 H 0.27938 0.73142 0.493 0.0
S236 S 0.21769 0.8529 0.45707 0.0
N237 N 0.29102 0.88813 0.46696 0.0
N238 N 0.18396 0.7903 0.4607 0.0
C239 C 0.23262 0.79592 0.47056 0.0
C240 C 0.2907 0.84899 0.4738 0.0
C241 C 0.401 0.15944 0.81135 0.0
C242 C 0.44976 0.21328 0.82148 0.0
C243 C 0.41122 0.12995 0.79159 0.0
C244 C 0.47049 0.15337 0.78078 0.0
H245 H 0.3546 0.13987 0.81896 0.0
H246 H 0.37216 0.08852 0.78455 0.0
S247 S 0.61364 0.29382 0.8001 0.0
N248 N 0.55926 0.28928 0.81901 0.0
N249 N 0.57879 0.23411 0.78182 0.0
C250 C 0.51969 0.20743 0.79064 0.0
C251 C 0.50926 0.23727 0.81105 0.0
C252 C 0.55844 0.78733 0.627 0.0
C253 C 0.52134 0.77037 0.59587 0.0
C254 C 0.55797 0.75195 0.64538 0.0
C255 C 0.52034 0.69819 0.63335 0.0
H256 H 0.59036 0.82882 0.63622 0.0
H257 H 0.58927 0.76752 0.66835 0.0
S258 S 0.40778 0.63258 0.55618 0.0
N259 N 0.44103 0.69548 0.55608 0.0
N260 N 0.43996 0.62874 0.59039 0.0
C261 C 0.4801 0.68009 0.60353 0.0
C262 C 0.48074 0.71624 0.58482 0.0
C263 C 0.7439 0.55911 0.88795 0.0
C264 C 0.68286 0.51151 0.89251 0.0
C265 C 0.79394 0.56222 0.89158 0.0
C266 C 0.78613 0.518 0.90012 0.0
H267 H 0.7536 0.59479 0.88147 0.0
H268 H 0.83946 0.60014 0.88769 0.0
S269 S 0.63606 0.38332 0.91473 0.0
N270 N 0.61775 0.41852 0.90594 0.0
N271 N 0.71158 0.42446 0.91284 0.0
C272 C 0.72539 0.46995 0.90474 0.0
C273 C 0.67407 0.4667 0.90092 0.0
C274 C 0.25105 0.68067 0.17992 0.0
C275 C 0.19875 0.67085 0.16794 0.0
C276 C 0.30516 0.73215 0.19087 0.0
C277 C 0.30925 0.7758 0.18971 0.0
H278 H 0.24952 0.64813 0.18226 0.0
H279 H 0.34378 0.73763 0.20073 0.0
S280 S 0.18646 0.77162 0.15774 0.0
N281 N 0.15548 0.70934 0.15362 0.0
N282 N 0.2569 0.80586 0.17384 0.0
C283 C 0.25798 0.7667 0.17638 0.0
C284 C 0.20283 0.71431 0.1656 0.0
C285 C 0.51239 0.29644 0.52041 0.0
C286 C 0.55259 0.28762 0.51594 0.0
C287 C 0.53304 0.34464 0.53584 0.0
C288 C 0.59474 0.38595 0.54737 0.0
H289 H 0.46432 0.26547 0.51254 0.0
H290 H 0.50008 0.34922 0.53912 0.0
S291 S 0.71944 0.38404 0.53875 0.0
N292 N 0.65758 0.32509 0.52211 0.0
N293 N 0.69647 0.41542 0.55143 0.0
C294 C 0.63567 0.37791 0.54233 0.0
C295 C 0.61458 0.32885 0.52657 0.0
C296 C 0.32237 0.46266 0.89502 0.0
C297 C 0.38167 0.50704 0.88408 0.0
C298 C 0.274 0.46221 0.89573 0.0
C299 C 0.28229 0.50615 0.88579 0.0
H300 H 0.31289 0.42763 0.90299 0.0
H301 H 0.22941 0.4267 0.90414 0.0
S302 S 0.4284 0.63264 0.85496 0.0
N303 N 0.44559 0.59647 0.863 0.0
N304 N 0.35525 0.59568 0.86452 0.0
C305 C 0.34148 0.55106 0.87501 0.0
C306 C 0.39076 0.55139 0.87411 0.0
C307 C 0.80198 0.339 0.16033 0.0
C308 C 0.85551 0.34781 0.15413 0.0
C309 C 0.74594 0.28834 0.16641 0.0
C310 C 0.74084 0.24414 0.16672 0.0
H311 H 0.80343 0.37175 0.16119 0.0
H312 H 0.70657 0.28419 0.17164 0.0
S313 S 0.86672 0.24525 0.15015 0.0
N314 N 0.89953 0.30774 0.14721 0.0
N315 N 0.79397 0.21217 0.15864 0.0
C316 C 0.79354 0.25194 0.15931 0.0
C317 C 0.85085 0.3038 0.15296 0.0
C318 C 0.95486 0.48341 0.02855 0.0
C319 C 1.00271 0.50822 0.05449 0.0
C320 C 0.96521 0.4819 0.99163 0.0
C321 C 0.02408 0.50611 0.97939 0.0
H322 H 0.90888 0.46411 0.03692 0.0
H323 H 0.92649 0.46038 0.9728 0.0
S324 S 0.16634 0.58307 0.03664 0.0
N325 N 0.11174 0.5619 0.06545 0.0
N326 N 0.1318 0.55955 0.99645 0.0
C327 C 0.07264 0.53267 0.00525 0.0
C328 C 0.06184 0.53371 0.0427 0.0
C329 C 0.50822 0.01969 0.36567 0.0
C330 C 0.53378 -0.00084 0.37739 0.0
C331 C 0.51022 0.03036 0.32927 0.0
C332 C 0.53571 0.01891 0.30332 0.0
H333 H 0.48881 0.02949 0.3849 0.0
H334 H 0.49204 0.04793 0.32139 0.0
S335 S 0.60513 0.96187 0.31992 0.0
N336 N 0.58366 0.96631 0.36002 0.0
N337 N 0.58517 0.98446 0.29162 0.0
C338 C 0.55904 -0.00362 0.3145 0.0
C339 C 0.5586 0.98695 0.35156 0.0
C340 C 0.59689 0.53406 0.7709 0.0
C341 C 0.53567 0.50667 0.77967 0.0
C342 C 0.61511 0.54337 0.73495 0.0
C343 C 0.57316 0.52682 0.70667 0.0
H344 H 0.63045 0.54657 0.79175 0.0
H345 H 0.66221 0.56302 0.72918 0.0
S346 S 0.4084 0.45596 0.71558 0.0
N347 N 0.43369 0.46493 0.75738 0.0
N348 N 0.46819 0.48287 0.68986 0.0
C349 C 0.51246 0.50126 0.7152 0.0
C350 C 0.49366 0.49111 0.75173 0.0
C351 C 0.58531 0.04037 0.59193 0.0
C352 C 0.53197 0.03045 0.58265 0.0
C353 C 0.59763 0.03716 0.62752 0.0
C354 C 0.55809 0.02565 0.65535 0.0
H355 H 0.61792 0.05071 0.57159 0.0
H356 H 0.63891 0.04449 0.63339 0.0
S357 S 0.41285 -0.00269 0.64567 0.0
N358 N 0.43924 0.00867 0.6044 0.0
N359 N 0.46346 0.00409 0.67148 0.0
C360 C 0.50522 0.01666 0.64669 0.0
C361 C 0.49197 0.01883 0.6103 0.0
C362 C 0.48407 0.4974 0.00411 0.0
C363 C 0.52508 0.49767 0.98417 0.0
C364 C 0.45794 0.46856 0.0352 0.0
C365 C 0.47011 0.43737 0.04619 0.0
H366 H 0.47162 0.5191 0.99523 0.0
H367 H 0.4265 0.4692 0.05007 0.0
S368 S 0.57275 0.42337 1.00214 0.0
N369 N 0.57701 0.46479 0.97728 0.0
N370 N 0.52527 0.40802 0.03476 0.0
C371 C 0.51069 0.43696 0.02624 0.0
C372 C 0.53889 0.4678 0.99534 0.0
C373 C 0.02425 0.468 0.28215 0.0
C374 C 0.03501 0.50325 0.25728 0.0
C375 C 0.02355 0.47703 0.31933 0.0
C376 C 0.03266 0.52122 0.33306 0.0
H377 H 0.01765 0.43373 0.27294 0.0
H378 H 0.01804 0.45008 0.33733 0.0
S379 S 0.0625 0.62553 0.27905 0.0
N380 N 0.05594 0.5846 0.24897 0.0
N381 N 0.05215 0.60045 0.31849 0.0
C382 C 0.04279 0.55649 0.30833 0.0
C383 C 0.04435 0.54768 0.27055 0.0
loop_
_geom_bond_atom_site_label_1
_geom_bond_atom_site_label_2
_geom_bond_distance
_geom_bond_site_symmetry_2
_ccdc_geom_bond_type
Gd0 C3 2.818 . S
Gd0 O20 2.377 . S
Gd0 O22 2.448 . S
Gd0 O23 2.506 . S
Gd0 O24 2.435 . S
Gd0 O25 2.717 . S
Gd0 O27 2.395 1_455 S
Gd0 O31 2.327 . S
Gd1 C12 2.818 . S
Gd1 O21 2.395 1_655 S
Gd1 O25 2.327 1_655 S
Gd1 O26 2.377 . S
Gd1 O28 2.448 . S
Gd1 O29 2.506 . S
Gd1 O30 2.435 1_655 S
Gd1 O31 2.717 1_655 S
C2 O20 1.240 . S
C2 O21 1.240 . S
C3 Gd0 2.818 . S
C3 C4 1.510 . S
C3 O22 1.249 . S
C3 O23 1.252 . S
C4 C3 1.510 . S
C4 C5 1.404 . S
C4 C6 1.352 . S
C5 C4 1.404 . S
C5 C9 1.389 . S
C5 H32 0.930 . S
C6 C4 1.352 . S
C6 C8 1.374 . S
C6 H33 0.931 . S
C7 C8 1.359 . S
C7 C9 1.364 . S
C8 C6 1.374 . S
C8 C7 1.359 . S
C8 H34 0.931 . S
C9 C5 1.389 . S
C9 C7 1.364 . S
C9 H35 0.931 . S
C10 O24 1.256 . S
C10 O25 1.257 . S
C11 O26 1.240 . S
C11 O27 1.240 . S
C12 Gd1 2.818 . S
C12 C13 1.510 . S
C12 O28 1.249 . S
C12 O29 1.252 . S
C13 C12 1.510 . S
C13 C14 1.404 . S
C13 C15 1.352 . S
C14 C13 1.404 . S
C14 C18 1.389 . S
C14 H36 0.930 . S
C15 C13 1.352 . S
C15 C17 1.374 . S
C15 H37 0.931 . S
C16 C17 1.359 . S
C16 C18 1.364 . S
C17 C15 1.374 . S
C17 C16 1.359 . S
C17 H38 0.931 . S
C18 C14 1.389 . S
C18 C16 1.364 . S
C18 H39 0.931 . S
C19 O30 1.256 . S
C19 O31 1.257 . S
O20 Gd0 2.377 . S
O20 C2 1.240 . S
O21 Gd1 2.395 1_455 S
O21 C2 1.240 . S
O22 Gd0 2.448 . S
O22 C3 1.249 . S
O23 Gd0 2.506 . S
O23 C3 1.252 . S
O24 Gd0 2.435 . S
O24 C10 1.256 . S
O25 Gd0 2.717 . S
O25 Gd1 2.327 1_455 S
O25 C10 1.257 . S
O26 Gd1 2.377 . S
O26 C11 1.240 . S
O27 Gd0 2.395 1_655 S
O27 C11 1.240 . S
O28 Gd1 2.448 . S
O28 C12 1.249 . S
O29 Gd1 2.506 . S
O29 C12 1.252 . S
O30 Gd1 2.435 1_455 S
O30 C19 1.256 . S
O31 Gd0 2.327 . S
O31 Gd1 2.717 1_455 S
O31 C19 1.257 . S
H32 C5 0.930 . S
H33 C6 0.931 . S
H34 C8 0.931 . S
H35 C9 0.931 . S
H36 C14 0.930 . S
H37 C15 0.931 . S
H38 C17 0.931 . S
H39 C18 0.931 . S
Gd40 C43 2.818 . S
Gd40 O60 2.377 . S
Gd40 O62 2.448 . S
Gd40 O63 2.506 . S
Gd40 O64 2.435 . S
Gd40 O65 2.717 1_565 S
Gd40 O67 2.395 1_565 S
Gd40 O71 2.327 1_565 S
Gd41 C52 2.818 . S
Gd41 O61 2.395 1_545 S
Gd41 O65 2.327 . S
Gd41 O66 2.377 . S
Gd41 O68 2.448 . S
Gd41 O69 2.506 . S
Gd41 O70 2.435 . S
Gd41 O71 2.717 . S
C42 O60 1.240 . S
C42 O61 1.240 . S
C43 Gd40 2.818 . S
C43 C44 1.510 . S
C43 O62 1.249 . S
C43 O63 1.252 . S
C44 C43 1.510 . S
C44 C45 1.404 . S
C44 C46 1.352 . S
C45 C44 1.404 . S
C45 C49 1.389 . S
C45 H72 0.930 . S
C46 C44 1.352 . S
C46 C48 1.374 . S
C46 H73 0.931 . S
C47 C48 1.359 . S
C47 C49 1.364 . S
C48 C46 1.374 . S
C48 C47 1.359 . S
C48 H74 0.931 . S
C49 C45 1.389 . S
C49 C47 1.364 . S
C49 H75 0.931 . S
C50 O64 1.256 1_545 S
C50 O65 1.257 . S
C51 O66 1.240 . S
C51 O67 1.240 . S
C52 Gd41 2.818 . S
C52 C53 1.510 . S
C52 O68 1.249 . S
C52 O69 1.252 . S
C53 C52 1.510 . S
C53 C54 1.404 . S
C53 C55 1.352 . S
C54 C53 1.404 . S
C54 C58 1.389 . S
C54 H76 0.930 . S
C55 C53 1.352 . S
C55 C57 1.374 . S
C55 H77 0.931 . S
C56 C57 1.359 . S
C56 C58 1.364 . S
C57 C55 1.374 . S
C57 C56 1.359 . S
C57 H78 0.931 . S
C58 C54 1.389 . S
C58 C56 1.364 . S
C58 H79 0.931 . S
C59 O70 1.256 . S
C59 O71 1.257 . S
O60 Gd40 2.377 . S
O60 C42 1.240 . S
O61 Gd41 2.395 1_565 S
O61 C42 1.240 . S
O62 Gd40 2.448 . S
O62 C43 1.249 . S
O63 Gd40 2.506 . S
O63 C43 1.252 . S
O64 Gd40 2.435 . S
O64 C50 1.256 1_565 S
O65 Gd40 2.717 1_545 S
O65 Gd41 2.327 . S
O65 C50 1.257 . S
O66 Gd41 2.377 . S
O66 C51 1.240 . S
O67 Gd40 2.395 1_545 S
O67 C51 1.240 . S
O68 Gd41 2.448 . S
O68 C52 1.249 . S
O69 Gd41 2.506 . S
O69 C52 1.252 . S
O70 Gd41 2.435 . S
O70 C59 1.256 . S
O71 Gd40 2.327 1_545 S
O71 Gd41 2.717 . S
O71 C59 1.257 . S
H72 C45 0.930 . S
H73 C46 0.931 . S
H74 C48 0.931 . S
H75 C49 0.931 . S
H76 C54 0.930 . S
H77 C55 0.931 . S
H78 C57 0.931 . S
H79 C58 0.931 . S
Gd80 C83 2.818 . S
Gd80 O100 2.377 . S
Gd80 O102 2.448 . S
Gd80 O103 2.506 . S
Gd80 O104 2.435 . S
Gd80 O105 2.717 . S
Gd80 O107 2.395 . S
Gd80 O111 2.327 . S
Gd81 C92 2.818 . S
Gd81 O101 2.395 . S
Gd81 O105 2.327 . S
Gd81 O106 2.377 . S
Gd81 O108 2.448 . S
Gd81 O109 2.506 . S
Gd81 O110 2.435 . S
Gd81 O111 2.717 . S
C82 O100 1.240 . S
C82 O101 1.240 . S
C83 Gd80 2.818 . S
C83 C84 1.510 . S
C83 O102 1.249 . S
C83 O103 1.252 . S
C84 C83 1.510 . S
C84 C85 1.404 . S
C84 C86 1.352 . S
C85 C84 1.404 . S
C85 C89 1.389 . S
C85 H112 0.930 . S
C86 C84 1.352 . S
C86 C88 1.374 . S
C86 H113 0.931 . S
C87 C88 1.359 . S
C87 C89 1.364 . S
C88 C86 1.374 . S
C88 C87 1.359 . S
C88 H114 0.931 . S
C89 C85 1.389 . S
C89 C87 1.364 . S
C89 H115 0.931 . S
C90 O104 1.256 . S
C90 O105 1.257 . S
C91 O106 1.240 . S
C91 O107 1.240 . S
C92 Gd81 2.818 . S
C92 C93 1.510 . S
C92 O108 1.249 . S
C92 O109 1.252 . S
C93 C92 1.510 . S
C93 C94 1.404 . S
C93 C95 1.352 . S
C94 C93 1.404 . S
C94 C98 1.389 . S
C94 H116 0.930 . S
C95 C93 1.352 . S
C95 C97 1.374 . S
C95 H117 0.931 . S
C96 C97 1.359 . S
C96 C98 1.364 . S
C97 C95 1.374 . S
C97 C96 1.359 . S
C97 H118 0.931 . S
C98 C94 1.389 . S
C98 C96 1.364 . S
C98 H119 0.931 . S
C99 O110 1.256 . S
C99 O111 1.257 . S
O100 Gd80 2.377 . S
O100 C82 1.240 . S
O101 Gd81 2.395 . S
O101 C82 1.240 . S
O102 Gd80 2.448 . S
O102 C83 1.249 . S
O103 Gd80 2.506 . S
O103 C83 1.252 . S
O104 Gd80 2.435 . S
O104 C90 1.256 . S
O105 Gd80 2.717 . S
O105 Gd81 2.327 . S
O105 C90 1.257 . S
O106 Gd81 2.377 . S
O106 C91 1.240 . S
O107 Gd80 2.395 . S
O107 C91 1.240 . S
O108 Gd81 2.448 . S
O108 C92 1.249 . S
O109 Gd81 2.506 . S
O109 C92 1.252 . S
O110 Gd81 2.435 . S
O110 C99 1.256 . S
O111 Gd80 2.327 . S
O111 Gd81 2.717 . S
O111 C99 1.257 . S
H112 C85 0.930 . S
H113 C86 0.931 . S
H114 C88 0.931 . S
H115 C89 0.931 . S
H116 C94 0.930 . S
H117 C95 0.931 . S
H118 C97 0.931 . S
H119 C98 0.931 . S
O120 Cd121 2.300 . S
O120 C127 1.275 . S
Cd121 O120 2.300 . S
Cd121 O129 2.381 . S
Cd121 O130 2.378 . S
O122 Cd123 2.385 . S
O122 C127 1.255 1_565 S
Cd123 O122 2.385 . S
Cd123 O124 2.317 . S
O124 Cd123 2.317 . S
O124 C125 1.232 . S
C125 O124 1.232 . S
C125 O126 1.218 . S
O126 C125 1.218 . S
C127 O120 1.275 . S
C127 O122 1.255 1_545 S
C128 O129 1.258 . S
C128 O130 1.256 . S
O129 Cd121 2.381 . S
O129 C128 1.258 . S
O130 Cd121 2.378 . S
O130 C128 1.256 . S
O131 Cd132 2.300 . S
O131 C138 1.275 . S
Cd132 O131 2.300 . S
Cd132 O140 2.381 . S
Cd132 O141 2.378 . S
O133 Cd134 2.385 . S
O133 C138 1.255 . S
Cd134 O133 2.385 . S
Cd134 O135 2.317 . S
O135 Cd134 2.317 . S
O135 C136 1.232 . S
C136 O135 1.232 . S
C136 O137 1.218 . S
O137 C136 1.218 . S
C138 O131 1.275 . S
C138 O133 1.255 . S
C139 O140 1.258 . S
C139 O141 1.256 . S
O140 Cd132 2.381 . S
O140 C139 1.258 . S
O141 Cd132 2.378 . S
O141 C139 1.256 . S
O142 Cd143 2.300 . S
O142 C149 1.275 . S
Cd143 O142 2.300 . S
Cd143 O151 2.381 . S
Cd143 O152 2.378 . S
O144 Cd145 2.385 . S
O144 C149 1.255 1_655 S
Cd145 O144 2.385 . S
Cd145 O146 2.317 . S
O146 Cd145 2.317 . S
O146 C147 1.232 . S
C147 O146 1.232 . S
C147 O148 1.218 . S
O148 C147 1.218 . S
C149 O142 1.275 . S
C149 O144 1.255 1_455 S
C150 O151 1.258 . S
C150 O152 1.256 . S
O151 Cd143 2.381 . S
O151 C150 1.258 . S
O152 Cd143 2.378 . S
O152 C150 1.256 . S
O153 Cd154 2.300 . S
O153 C160 1.275 1_455 S
Cd154 O153 2.300 . S
Cd154 O162 2.381 . S
Cd154 O163 2.378 . S
O155 Cd156 2.385 . S
O155 C160 1.255 . S
Cd156 O155 2.385 . S
Cd156 O157 2.317 . S
O157 Cd156 2.317 . S
O157 C158 1.232 . S
C158 O157 1.232 . S
C158 O159 1.218 . S
O159 C158 1.218 . S
C160 O153 1.275 1_655 S
C160 O155 1.255 . S
C161 O162 1.258 . S
C161 O163 1.256 . S
O162 Cd154 2.381 . S
O162 C161 1.258 . S
O163 Cd154 2.378 . S
O163 C161 1.256 . S
O164 Cd165 2.300 . S
O164 C171 1.275 1_565 S
Cd165 O164 2.300 . S
Cd165 O173 2.381 . S
Cd165 O174 2.378 . S
O166 Cd167 2.385 . S
O166 C171 1.255 . S
Cd167 O166 2.385 . S
Cd167 O168 2.317 . S
O168 Cd167 2.317 . S
O168 C169 1.232 . S
C169 O168 1.232 . S
C169 O170 1.218 . S
O170 C169 1.218 . S
C171 O164 1.275 1_545 S
C171 O166 1.255 . S
C172 O173 1.258 . S
C172 O174 1.256 . S
O173 Cd165 2.381 . S
O173 C172 1.258 . S
O174 Cd165 2.378 . S
O174 C172 1.256 . S
O175 Cd176 2.300 . S
O175 C182 1.275 . S
Cd176 O175 2.300 . S
Cd176 O184 2.381 . S
Cd176 O185 2.378 . S
O177 Cd178 2.385 . S
O177 C182 1.255 . S
Cd178 O177 2.385 . S
Cd178 O179 2.317 . S
O179 Cd178 2.317 . S
O179 C180 1.232 . S
C180 O179 1.232 . S
C180 O181 1.218 . S
O181 C180 1.218 . S
C182 O175 1.275 . S
C182 O177 1.255 . S
C183 O184 1.258 . S
C183 O185 1.256 . S
O184 Cd176 2.381 . S
O184 C183 1.258 . S
O185 Cd176 2.378 . S
O185 C183 1.256 . S
C186 C187 1.369 . S
C186 C188 1.419 . S
C186 H190 0.930 . S
C187 C186 1.369 . S
C187 C196 1.429 . S
C188 C186 1.419 . S
C188 C189 1.363 . S
C188 H191 0.929 . S
C189 C188 1.363 . S
C189 C195 1.428 . S
H190 C186 0.930 . S
H191 C188 0.929 . S
S192 N193 1.613 . S
S192 N194 1.610 . S
N193 S192 1.613 . S
N193 C196 1.350 . S
N194 S192 1.610 . S
N194 C195 1.351 . S
C195 C189 1.428 . S
C195 N194 1.351 . S
C195 C196 1.434 . S
C196 C187 1.429 . S
C196 N193 1.350 . S
C196 C195 1.434 . S
C197 C198 1.369 . S
C197 C199 1.419 . S
C197 H201 0.930 . S
C198 C197 1.369 . S
C198 C207 1.429 . S
C199 C197 1.419 . S
C199 C200 1.363 . S
C199 H202 0.929 . S
C200 C199 1.363 . S
C200 C206 1.428 . S
H201 C197 0.930 . S
H202 C199 0.929 . S
S203 N204 1.613 . S
S203 N205 1.610 . S
N204 S203 1.613 . S
N204 C207 1.350 . S
N205 S203 1.610 . S
N205 C206 1.351 . S
C206 C200 1.428 . S
C206 N205 1.351 . S
C206 C207 1.434 . S
C207 C198 1.429 . S
C207 N204 1.350 . S
C207 C206 1.434 . S
C208 C209 1.369 . S
C208 C210 1.419 . S
C208 H212 0.930 . S
C209 C208 1.369 . S
C209 C218 1.429 . S
C210 C208 1.419 . S
C210 C211 1.363 . S
C210 H213 0.929 . S
C211 C210 1.363 . S
C211 C217 1.428 . S
H212 C208 0.930 . S
H213 C210 0.929 . S
S214 N215 1.613 . S
S214 N216 1.610 . S
N215 S214 1.613 . S
N215 C218 1.350 . S
N216 S214 1.610 . S
N216 C217 1.351 . S
C217 C211 1.428 . S
C217 N216 1.351 . S
C217 C218 1.434 . S
C218 C209 1.429 . S
C218 N215 1.350 . S
C218 C217 1.434 . S
C219 C220 1.369 . S
C219 C221 1.419 . S
C219 H223 0.930 . S
C220 C219 1.369 . S
C220 C229 1.429 . S
C221 C219 1.419 . S
C221 C222 1.363 . S
C221 H224 0.929 . S
C222 C221 1.363 . S
C222 C228 1.428 . S
H223 C219 0.930 . S
H224 C221 0.929 . S
S225 N226 1.613 . S
S225 N227 1.610 . S
N226 S225 1.613 . S
N226 C229 1.350 . S
N227 S225 1.610 . S
N227 C228 1.351 . S
C228 C222 1.428 . S
C228 N227 1.351 . S
C228 C229 1.434 . S
C229 C220 1.429 . S
C229 N226 1.350 . S
C229 C228 1.434 . S
C230 C231 1.369 . S
C230 C232 1.419 . S
C230 H234 0.930 . S
C231 C230 1.369 . S
C231 C240 1.429 . S
C232 C230 1.419 . S
C232 C233 1.363 . S
C232 H235 0.929 . S
C233 C232 1.363 . S
C233 C239 1.428 . S
H234 C230 0.930 . S
H235 C232 0.929 . S
S236 N237 1.613 . S
S236 N238 1.610 . S
N237 S236 1.613 . S
N237 C240 1.350 . S
N238 S236 1.610 . S
N238 C239 1.351 . S
C239 C233 1.428 . S
C239 N238 1.351 . S
C239 C240 1.434 . S
C240 C231 1.429 . S
C240 N237 1.350 . S
C240 C239 1.434 . S
C241 C242 1.369 . S
C241 C243 1.419 . S
C241 H245 0.930 . S
C242 C241 1.369 . S
C242 C251 1.429 . S
C243 C241 1.419 . S
C243 C244 1.363 . S
C243 H246 0.929 . S
C244 C243 1.363 . S
C244 C250 1.428 . S
H245 C241 0.930 . S
H246 C243 0.929 . S
S247 N248 1.613 . S
S247 N249 1.610 . S
N248 S247 1.613 . S
N248 C251 1.350 . S
N249 S247 1.610 . S
N249 C250 1.351 . S
C250 C244 1.428 . S
C250 N249 1.351 . S
C250 C251 1.434 . S
C251 C242 1.429 . S
C251 N248 1.350 . S
C251 C250 1.434 . S
C252 C253 1.369 . S
C252 C254 1.419 . S
C252 H256 0.930 . S
C253 C252 1.369 . S
C253 C262 1.429 . S
C254 C252 1.419 . S
C254 C255 1.363 . S
C254 H257 0.929 . S
C255 C254 1.363 . S
C255 C261 1.428 . S
H256 C252 0.930 . S
H257 C254 0.929 . S
S258 N259 1.613 . S
S258 N260 1.610 . S
N259 S258 1.613 . S
N259 C262 1.350 . S
N260 S258 1.610 . S
N260 C261 1.351 . S
C261 C255 1.428 . S
C261 N260 1.351 . S
C261 C262 1.434 . S
C262 C253 1.429 . S
C262 N259 1.350 . S
C262 C261 1.434 . S
C263 C264 1.369 . S
C263 C265 1.419 . S
C263 H267 0.930 . S
C264 C263 1.369 . S
C264 C273 1.429 . S
C265 C263 1.419 . S
C265 C266 1.363 . S
C265 H268 0.929 . S
C266 C265 1.363 . S
C266 C272 1.428 . S
H267 C263 0.930 . S
H268 C265 0.929 . S
S269 N270 1.613 . S
S269 N271 1.610 . S
N270 S269 1.613 . S
N270 C273 1.350 . S
N271 S269 1.610 . S
N271 C272 1.351 . S
C272 C266 1.428 . S
C272 N271 1.351 . S
C272 C273 1.434 . S
C273 C264 1.429 . S
C273 N270 1.350 . S
C273 C272 1.434 . S
C274 C275 1.369 . S
C274 C276 1.419 . S
C274 H278 0.930 . S
C275 C274 1.369 . S
C275 C284 1.429 . S
C276 C274 1.419 . S
C276 C277 1.363 . S
C276 H279 0.929 . S
C277 C276 1.363 . S
C277 C283 1.428 . S
H278 C274 0.930 . S
H279 C276 0.929 . S
S280 N281 1.613 . S
S280 N282 1.610 . S
N281 S280 1.613 . S
N281 C284 1.350 . S
N282 S280 1.610 . S
N282 C283 1.351 . S
C283 C277 1.428 . S
C283 N282 1.351 . S
C283 C284 1.434 . S
C284 C275 1.429 . S
C284 N281 1.350 . S
C284 C283 1.434 . S
C285 C286 1.369 . S
C285 C287 1.419 . S
C285 H289 0.930 . S
C286 C285 1.369 . S
C286 C295 1.429 . S
C287 C285 1.419 . S
C287 C288 1.363 . S
C287 H290 0.929 . S
C288 C287 1.363 . S
C288 C294 1.428 . S
H289 C285 0.930 . S
H290 C287 0.929 . S
S291 N292 1.613 . S
S291 N293 1.610 . S
N292 S291 1.613 . S
N292 C295 1.350 . S
N293 S291 1.610 . S
N293 C294 1.351 . S
C294 C288 1.428 . S
C294 N293 1.351 . S
C294 C295 1.434 . S
C295 C286 1.429 . S
C295 N292 1.350 . S
C295 C294 1.434 . S
C296 C297 1.369 . S
C296 C298 1.419 . S
C296 H300 0.930 . S
C297 C296 1.369 . S
C297 C306 1.429 . S
C298 C296 1.419 . S
C298 C299 1.363 . S
C298 H301 0.929 . S
C299 C298 1.363 . S
C299 C305 1.428 . S
H300 C296 0.930 . S
H301 C298 0.929 . S
S302 N303 1.613 . S
S302 N304 1.610 . S
N303 S302 1.613 . S
N303 C306 1.350 . S
N304 S302 1.610 . S
N304 C305 1.351 . S
C305 C299 1.428 . S
C305 N304 1.351 . S
C305 C306 1.434 . S
C306 C297 1.429 . S
C306 N303 1.350 . S
C306 C305 1.434 . S
C307 C308 1.369 . S
C307 C309 1.419 . S
C307 H311 0.930 . S
C308 C307 1.369 . S
C308 C317 1.429 . S
C309 C307 1.419 . S
C309 C310 1.363 . S
C309 H312 0.929 . S
C310 C309 1.363 . S
C310 C316 1.428 . S
H311 C307 0.930 . S
H312 C309 0.929 . S
S313 N314 1.613 . S
S313 N315 1.610 . S
N314 S313 1.613 . S
N314 C317 1.350 . S
N315 S313 1.610 . S
N315 C316 1.351 . S
C316 C310 1.428 . S
C316 N315 1.351 . S
C316 C317 1.434 . S
C317 C308 1.429 . S
C317 N314 1.350 . S
C317 C316 1.434 . S
C318 C319 1.369 1_655 S
C318 C320 1.419 . S
C318 H322 0.930 . S
C319 C318 1.369 1_455 S
C319 C328 1.429 . S
C320 C318 1.419 . S
C320 C321 1.363 1_654 S
C320 H323 0.929 1_554 S
C321 C320 1.363 1_456 S
C321 C327 1.428 1_556 S
H322 C318 0.930 . S
H323 C320 0.929 1_556 S
S324 N325 1.613 . S
S324 N326 1.610 . S
N325 S324 1.613 . S
N325 C328 1.350 . S
N326 S324 1.610 . S
N326 C327 1.351 . S
C327 C321 1.428 1_554 S
C327 N326 1.351 . S
C327 C328 1.434 . S
C328 C319 1.429 . S
C328 N325 1.350 . S
C328 C327 1.434 . S
C329 C330 1.369 . S
C329 C331 1.419 . S
C329 H333 0.930 . S
C330 C329 1.369 . S
C330 C339 1.429 1_545 S
C331 C329 1.419 . S
C331 C332 1.363 . S
C331 H334 0.929 . S
C332 C331 1.363 . S
C332 C338 1.428 1_545 S
H333 C329 0.930 . S
H334 C331 0.929 . S
S335 N336 1.613 . S
S335 N337 1.610 . S
N336 S335 1.613 . S
N336 C339 1.350 . S
N337 S335 1.610 . S
N337 C338 1.351 . S
C338 C332 1.428 1_565 S
C338 N337 1.351 . S
C338 C339 1.434 . S
C339 C330 1.429 1_565 S
C339 N336 1.350 . S
C339 C338 1.434 . S
C340 C341 1.369 . S
C340 C342 1.419 . S
C340 H344 0.930 . S
C341 C340 1.369 . S
C341 C350 1.429 . S
C342 C340 1.419 . S
C342 C343 1.363 . S
C342 H345 0.929 . S
C343 C342 1.363 . S
C343 C349 1.428 . S
H344 C340 0.930 . S
H345 C342 0.929 . S
S346 N347 1.613 . S
S346 N348 1.610 . S
N347 S346 1.613 . S
N347 C350 1.350 . S
N348 S346 1.610 . S
N348 C349 1.351 . S
C349 C343 1.428 . S
C349 N348 1.351 . S
C349 C350 1.434 . S
C350 C341 1.429 . S
C350 N347 1.350 . S
C350 C349 1.434 . S
C351 C352 1.369 1_565 S
C351 C353 1.419 . S
C351 H355 0.930 . S
C352 C351 1.369 1_545 S
C352 C361 1.429 . S
C353 C351 1.419 . S
C353 C354 1.363 1_565 S
C353 H356 0.929 . S
C354 C353 1.363 1_545 S
C354 C360 1.428 . S
H355 C351 0.930 . S
H356 C353 0.929 . S
S357 N358 1.613 . S
S357 N359 1.610 . S
N358 S357 1.613 . S
N358 C361 1.350 . S
N359 S357 1.610 . S
N359 C360 1.351 . S
C360 C354 1.428 . S
C360 N359 1.351 . S
C360 C361 1.434 . S
C361 C352 1.429 . S
C361 N358 1.350 . S
C361 C360 1.434 . S
C362 C363 1.369 . S
C362 C364 1.419 1_556 S
C362 H366 0.930 . S
C363 C362 1.369 . S
C363 C372 1.429 . S
C364 C362 1.419 1_554 S
C364 C365 1.363 . S
C364 H367 0.929 . S
C365 C364 1.363 . S
C365 C371 1.428 1_554 S
H366 C362 0.930 . S
H367 C364 0.929 . S
S368 N369 1.613 . S
S368 N370 1.610 . S
N369 S368 1.613 . S
N369 C372 1.350 . S
N370 S368 1.610 . S
N370 C371 1.351 . S
C371 C365 1.428 1_556 S
C371 N370 1.351 . S
C371 C372 1.434 . S
C372 C363 1.429 . S
C372 N369 1.350 . S
C372 C371 1.434 . S
C373 C374 1.369 . S
C373 C375 1.419 . S
C373 H377 0.930 . S
C374 C373 1.369 . S
C374 C383 1.429 1_455 S
C375 C373 1.419 . S
C375 C376 1.363 1_455 S
C375 H378 0.929 . S
C376 C375 1.363 1_655 S
C376 C382 1.428 . S
H377 C373 0.930 . S
H378 C375 0.929 . S
S379 N380 1.613 . S
S379 N381 1.610 . S
N380 S379 1.613 . S
N380 C383 1.350 . S
N381 S379 1.610 . S
N381 C382 1.351 . S
C382 C376 1.428 . S
C382 N381 1.351 . S
C382 C383 1.434 . S
C383 C374 1.429 1_655 S
C383 N380 1.350 . S
C383 C382 1.434 . S
C187 C7 0.981 . S
C189 C180 0.758 . S
C198 C51 2.030 . S
C200 C158 1.746 . S
C209 C87 1.197 . S
C211 C172 1.189 . S
C220 C16 0.627 . S
C222 C183 0.465 . S
C233 C161 1.873 . S
C231 C42 1.964 . S
C244 C169 1.269 . S
C242 C96 1.428 . S
C253 C47 1.361 . S
C255 C136 1.162 . S
C264 C91 3.263 . S
C266 C147 2.905 . S
C275 C2 2.134 . S
C277 C125 1.767 . S
C288 C139 1.190 . S
C286 C56 1.183 . S
C299 C150 2.889 . S
C297 C82 2.975 . S
C308 C11 1.866 . S
C310 C128 1.811 . S
C321 C149 1.676 . S
C319 C19 1.681 . S
C330 C50 1.397 . S
C332 C127 1.376 . S
C341 C99 1.522 . S
C343 C138 1.472 . S
C354 C171 1.433 . S
C352 C59 1.442 . S
C365 C182 1.133 . S
C363 C90 1.218 . S
C374 C10 1.421 . S
C376 C160 1.366 . S
