# Generated by pormake.
# Topology nia, (6,6)-cn, num edge types: 1
# Building blocks:
#     Node 0, Type 0, BuildingBlock: MIFKUJ_clean_sbu_0, # of connection points: 6
#     Node 1, Type 0, BuildingBlock: MIFKUJ_clean_sbu_0, # of connection points: 6
#     Node 2, Type 1, BuildingBlock: MIDCAF_clean_sbu_0, # of connection points: 6
#     Node 3, Type 1, BuildingBlock: MIDCAF_clean_sbu_0, # of connection points: 6
#     Edge 4, Type (0, 1), BuildingBlock: KIFKEQ_clean_linker_1, # of connection points: 2
#     Edge 5, Type (0, 1), BuildingBlock: KIFKEQ_clean_linker_1, # of connection points: 2
#     Edge 6, Type (0, 1), BuildingBlock: KIFKEQ_clean_linker_1, # of connection points: 2
#     Edge 7, Type (0, 1), BuildingBlock: KIFKEQ_clean_linker_1, # of connection points: 2
#     Edge 8, Type (0, 1), BuildingBlock: KIFKEQ_clean_linker_1, # of connection points: 2
#     Edge 9, Type (0, 1), BuildingBlock: KIFKEQ_clean_linker_1, # of connection points: 2
#     Edge 10, Type (0, 1), BuildingBlock: KIFKEQ_clean_linker_1, # of connection points: 2
#     Edge 11, Type (0, 1), BuildingBlock: KIFKEQ_clean_linker_1, # of connection points: 2
#     Edge 12, Type (0, 1), BuildingBlock: KIFKEQ_clean_linker_1, # of connection points: 2
#     Edge 13, Type (0, 1), BuildingBlock: KIFKEQ_clean_linker_1, # of connection points: 2
#     Edge 14, Type (0, 1), BuildingBlock: KIFKEQ_clean_linker_1, # of connection points: 2
#     Edge 15, Type (0, 1), BuildingBlock: KIFKEQ_clean_linker_1, # of connection points: 2
# Relax obj value: 0.172
# Max RMSD: 0.250
# Mean RMSD: 0.184
data_MOF--net-nia--node1-MIFKUJ_clean_sbu_0--node2-MIDCAF_clean_sbu_0--edge1-KIFKEQ_clean_linker_1
_symmetry_space_group_name_H-M    P1
_symmetry_Int_Tables_number       1
_symmetry_cell_setting            triclinic
loop_
_symmetry_equiv_pos_as_xyz
'x, y, z'
_cell_length_a     25.792986
_cell_length_b     25.785214
_cell_length_c     30.603317
_cell_angle_alpha  88.324074
_cell_angle_beta   88.829282
_cell_angle_gamma 126.95296
loop_
_atom_site_label
_atom_site_type_symbol
_atom_site_fract_x
_atom_site_fract_y
_atom_site_fract_z
_atom_type_partial_charge
Zn0 Zn 0.03253 0.95064 0.07088 0.0
Zn1 Zn -0.01099 0.01607 1.0171 0.0
C2 C 0.95592 0.82639 1.03395 0.0
O3 O 0.94691 0.8083 0.07571 0.0
C4 C 0.07769 0.14003 0.05285 0.0
O5 O 0.09464 0.15611 1.01105 0.0
O6 O 0.06523 0.91458 0.11201 0.0
O7 O 0.10995 0.03449 0.04236 0.0
O8 O 0.05816 0.019 0.98227 0.0
C9 C 0.12178 0.94622 0.1268 0.0
O10 O 0.16404 0.00847 0.11593 0.0
O11 O -0.01011 0.88662 1.02307 0.0
C12 C 0.91108 0.05458 0.99573 0.0
O13 O 0.89918 0.04213 0.0382 0.0
O14 O 0.95065 0.04726 0.97715 0.0
O15 O 0.91264 0.93154 0.04545 0.0
O16 O 0.96474 0.94994 0.1055 0.0
O17 O 0.03243 0.08114 0.06432 0.0
C18 C 0.11098 0.04222 1.00103 0.0
C19 C 0.91197 0.92724 0.08693 0.0
Zn20 Zn 0.05878 0.96951 0.51968 0.0
Zn21 Zn 0.96964 0.00297 0.56834 0.0
C22 C 0.16554 0.07134 0.57258 0.0
O23 O 0.18073 0.11218 0.5393 0.0
C24 C 0.87603 0.97294 0.50423 0.0
O25 O 0.89141 0.02951 0.51464 0.0
O26 O 0.09915 0.93785 0.48279 0.0
O27 O 0.9731 0.89115 0.54483 0.0
O28 O 0.97821 0.94077 0.60363 0.0
C29 C 0.06645 0.88489 0.46327 0.0
O30 O 0.00272 0.84774 0.46706 0.0
O31 O 0.11709 0.01199 0.57066 0.0
C32 C 0.95458 0.09567 0.6052 0.0
O33 O -0.00321 0.13295 0.57301 0.0
O34 O 0.9351 0.03719 0.61027 0.0
O35 O 0.04665 0.08108 0.53408 0.0
O36 O 0.05834 0.03293 0.48054 0.0
O37 O 0.90224 0.95051 0.52379 0.0
C38 C 0.96181 0.8893 0.5857 0.0
C39 C 0.06181 0.08069 0.4944 0.0
Zn40 Zn 0.35082 0.65647 0.20845 0.0
Zn41 Zn 0.34333 0.64159 0.3729 0.0
Zn42 Zn 0.34742 0.64622 0.29096 0.0
C43 C 0.47014 0.69784 0.35093 0.0
C44 C 0.25947 0.5141 0.3508 0.0
O45 O 0.30214 0.69383 0.26932 0.0
O46 O 0.28937 0.67676 0.19868 0.0
C47 C 0.47848 0.73636 0.23029 0.0
O48 O 0.4487 0.69854 0.31337 0.0
O49 O 0.43122 0.66915 0.38379 0.0
O50 O 0.27205 0.54874 0.38299 0.0
O51 O 0.28643 0.54125 0.31276 0.0
O52 O 0.44417 0.7284 0.19866 0.0
O53 O 0.45115 0.7063 0.26764 0.0
O54 O 0.29587 0.5461 0.26726 0.0
O55 O 0.32319 0.56866 0.19655 0.0
C56 C 0.29663 0.52779 0.22865 0.0
O57 O 0.30129 0.69119 0.31538 0.0
O58 O 0.32329 0.70251 0.38537 0.0
C59 C 0.28101 0.69808 0.23253 0.0
C60 C 0.29978 0.71172 0.353 0.0
Zn61 Zn 0.675 0.3217 0.87696 0.0
Zn62 Zn 0.67814 0.31712 0.71619 0.0
Zn63 Zn 0.67681 0.32488 0.79773 0.0
C64 C 0.73138 0.44626 0.73218 0.0
C65 C 0.54945 0.2388 0.74148 0.0
O66 O 0.71401 0.27102 0.82306 0.0
O67 O 0.67505 0.24651 0.89145 0.0
C68 C 0.76972 0.44895 0.85247 0.0
O69 O 0.73174 0.42675 0.77132 0.0
O70 O 0.70556 0.40613 0.70243 0.0
O71 O 0.58525 0.24461 0.71002 0.0
O72 O 0.57502 0.26905 0.77667 0.0
O73 O 0.75688 0.40924 0.88364 0.0
O74 O 0.73952 0.42777 0.81671 0.0
O75 O 0.57477 0.27656 0.82191 0.0
O76 O 0.59331 0.31068 0.889 0.0
C77 C 0.5544 0.28271 0.85878 0.0
O78 O 0.72514 0.27992 0.77822 0.0
O79 O 0.7424 0.30002 0.70658 0.0
C80 C 0.7033 0.24038 0.86022 0.0
C81 C 0.74998 0.27882 0.74158 0.0
H82 H 0.24328 -0.00701 0.15254 0.0
H83 H 0.04386 0.82053 0.15981 0.0
H84 H 0.27653 0.93145 0.18713 0.0
H85 H 0.07689 0.75956 0.19534 0.0
H86 H 0.17758 0.66005 0.18502 0.0
H87 H 0.13533 0.72055 0.16783 0.0
H88 H 0.2731 0.87114 0.25188 0.0
H89 H 0.31665 0.81067 0.26802 0.0
C90 C 0.20638 0.94229 0.16225 0.0
C91 C 0.14108 0.91145 0.15278 0.0
C92 C 0.22538 0.90709 0.18239 0.0
C93 C 0.17944 0.84038 0.19362 0.0
C94 C 0.11366 0.81057 0.18637 0.0
C95 C 0.09472 0.84561 0.16609 0.0
C96 C 0.198 0.70554 0.2004 0.0
C97 C 0.24976 0.73044 0.22819 0.0
C98 C 0.17356 0.74008 0.19082 0.0
C99 C 0.20074 0.80073 0.20853 0.0
C100 C 0.25142 0.82479 0.23747 0.0
C101 C 0.27586 0.78997 0.2471 0.0
H102 H 0.16504 -0.00534 0.63655 0.0
H103 H 0.26408 0.19543 0.59273 0.0
H104 H 0.24617 0.02837 0.69112 0.0
H105 H 0.34478 0.2289 0.64756 0.0
H106 H 0.47249 0.27577 0.76015 0.0
H107 H 0.3664 0.23054 0.72988 0.0
H108 H 0.36528 0.07729 0.67537 0.0
H109 H 0.47103 0.12296 0.70485 0.0
C110 C 0.20331 0.04606 0.63911 0.0
C111 C 0.20874 0.09236 0.60981 0.0
C112 C 0.24968 0.06526 0.6704 0.0
C113 C 0.30183 0.13118 0.67349 0.0
C114 C 0.30475 0.17779 0.64623 0.0
C115 C 0.25887 0.15855 0.61454 0.0
C116 C 0.44826 0.23114 0.74301 0.0
C117 C 0.4796 0.2027 0.73469 0.0
C118 C 0.38798 0.20562 0.72544 0.0
C119 C 0.35789 0.15071 0.70003 0.0
C120 C 0.38696 0.1193 0.69509 0.0
C121 C 0.44752 0.14544 0.71187 0.0
H122 H 0.04487 0.12873 0.14056 0.0
H123 H 0.18546 0.26493 0.03933 0.0
H124 H 0.09906 0.21402 0.19351 0.0
H125 H 0.2386 0.3493 0.09159 0.0
H126 H 0.16984 0.42221 0.24343 0.0
H127 H 0.11629 0.3193 0.20682 0.0
H128 H 0.30329 0.37917 0.156 0.0
H129 H 0.35577 0.48197 0.19129 0.0
C130 C 0.08746 0.17664 0.12968 0.0
C131 C 0.11085 0.19012 0.0857 0.0
C132 C 0.11828 0.22542 0.15996 0.0
C133 C 0.1735 0.28823 0.14691 0.0
C134 C 0.19701 0.30113 0.10304 0.0
C135 C 0.16612 0.25281 0.07288 0.0
C136 C 0.1993 0.41198 0.22572 0.0
C137 C 0.26666 0.45967 0.21984 0.0
C138 C 0.1688 0.35328 0.20468 0.0
C139 C 0.20551 0.34188 0.17761 0.0
C140 C 0.27354 0.38719 0.17569 0.0
C141 C 0.30369 0.44571 0.19623 0.0
H142 H 0.97376 0.21079 0.59337 0.0
H143 H 0.87695 0.03974 0.68097 0.0
H144 H 0.9296 0.2537 0.63676 0.0
H145 H 0.83396 0.0843 0.72601 0.0
H146 H 0.87886 0.34491 0.72593 0.0
H147 H 0.93482 0.29986 0.70291 0.0
H148 H 0.75542 0.10574 0.72351 0.0
H149 H 0.70096 0.15166 0.74898 0.0
C150 C 0.94374 0.18266 0.6224 0.0
C151 C 0.92884 0.12173 0.63362 0.0
C152 C 0.91883 0.20772 0.64771 0.0
C153 C 0.87878 0.17303 0.68541 0.0
C154 C 0.86438 0.11224 0.69709 0.0
C155 C 0.88908 0.08675 0.67137 0.0
C156 C 0.8523 0.29261 0.72697 0.0
C157 C 0.78598 0.25154 0.73904 0.0
C158 C 0.88393 0.26667 0.71328 0.0
C159 C 0.84923 0.19912 0.71003 0.0
C160 C 0.7838 0.1579 0.72557 0.0
C161 C 0.75246 0.18403 0.74011 0.0
H162 H 0.89045 0.90579 0.17618 0.0
H163 H 0.79621 0.88986 0.05672 0.0
H164 H 0.79071 0.86724 0.21874 0.0
H165 H 0.69752 0.85134 0.09894 0.0
H166 H 0.55253 0.84708 0.17958 0.0
H167 H 0.66261 0.89854 0.15021 0.0
H168 H 0.67361 0.76488 0.23018 0.0
H169 H 0.56288 0.71362 0.26011 0.0
C170 C 0.84852 0.8939 0.15902 0.0
C171 C 0.85132 0.90109 0.11305 0.0
C172 C 0.79154 0.87179 0.18339 0.0
C173 C 0.73673 0.85724 0.16222 0.0
C174 C 0.73943 0.86353 0.11629 0.0
C175 C 0.7959 0.88507 0.09202 0.0
C176 C 0.57912 0.82982 0.19174 0.0
C177 C 0.54931 0.77626 0.22185 0.0
C178 C 0.6419 0.85893 0.17472 0.0
C179 C 0.67602 0.83466 0.18711 0.0
C180 C 0.64834 0.78449 0.22 0.0
C181 C 0.58519 0.75534 0.23724 0.0
H182 H 0.90819 0.7696 0.55527 0.0
H183 H 0.94151 0.868 0.67519 0.0
H184 H 0.85173 0.66641 0.59695 0.0
H185 H 0.88438 0.76343 0.71714 0.0
H186 H 0.83976 0.55725 0.76407 0.0
H187 H 0.89601 0.66905 0.73315 0.0
H188 H 0.74483 0.59973 0.64143 0.0
H189 H 0.68919 0.48954 0.67207 0.0
C190 C 0.90357 0.76931 0.59056 0.0
C191 C 0.92891 0.82706 0.61183 0.0
C192 C 0.87097 0.71006 0.61443 0.0
C193 C 0.8631 0.70689 0.66023 0.0
C194 C 0.88982 0.76463 0.68186 0.0
C195 C 0.92213 0.82426 0.65781 0.0
C196 C 0.81786 0.56652 0.73821 0.0
C197 C 0.7605 0.51484 0.72021 0.0
C198 C 0.85008 0.63024 0.72041 0.0
C199 C 0.82529 0.64262 0.68434 0.0
C200 C 0.76573 0.59137 0.66857 0.0
C201 C 0.73384 0.52832 0.68621 0.0
H202 H 0.19475 0.95801 0.43726 0.0
H203 H 0.01468 0.76468 0.43302 0.0
H204 H 0.25245 0.92194 0.40168 0.0
H205 H 0.07278 0.7279 0.39881 0.0
H206 H 0.18931 0.68387 0.31802 0.0
H207 H 0.13373 0.73158 0.33625 0.0
H208 H 0.2837 0.85611 0.42526 0.0
H209 H 0.33995 0.81065 0.40544 0.0
C210 C 0.16744 0.90779 0.42864 0.0
C211 C 0.10028 0.86399 0.43848 0.0
C212 C 0.20055 0.88704 0.40834 0.0
C213 C 0.16747 0.8218 0.39785 0.0
C214 C 0.09976 0.77863 0.40601 0.0
C215 C 0.06648 0.79959 0.42596 0.0
C216 C 0.21104 0.72278 0.34047 0.0
C217 C 0.26933 0.74442 0.35982 0.0
C218 C 0.1789 0.7495 0.35138 0.0
C219 C 0.20419 0.79775 0.38225 0.0
C220 C 0.26332 0.82004 0.40076 0.0
C221 C 0.29538 0.79362 0.38971 0.0
H222 H 0.23237 0.11541 1.03221 0.0
H223 H 0.13119 0.05336 0.91171 0.0
H224 H 0.33578 0.177 0.99068 0.0
H225 H 0.23571 0.11567 0.86992 0.0
H226 H 0.44586 0.16961 0.83029 0.0
H227 H 0.33402 0.11331 0.85984 0.0
H228 H 0.3977 0.27558 0.93952 0.0
H229 H 0.50851 0.33132 0.91019 0.0
C230 C 0.23216 0.11499 0.99683 0.0
C231 C 0.17355 0.0796 0.97528 0.0
C232 C 0.29147 0.15068 0.973 0.0
C233 C 0.29374 0.15164 0.92703 0.0
C234 C 0.23527 0.11573 0.90532 0.0
C235 C 0.17561 0.08036 0.92924 0.0
C236 C 0.43531 0.19396 0.85295 0.0
C237 C 0.48566 0.25455 0.86817 0.0
C238 C 0.3715 0.1617 0.87001 0.0
C239 C 0.3576 0.18963 0.90262 0.0
C240 C 0.4073 0.25234 0.91514 0.0
C241 C 0.47062 0.28433 0.8982 0.0
H242 H 0.16913 0.15045 0.43862 0.0
H243 H -0.00063 0.13385 0.48159 0.0
H244 H 0.20743 0.24883 0.39419 0.0
H245 H 0.03355 0.22773 0.43463 0.0
H246 H 0.16251 0.44704 0.41246 0.0
H247 H 0.10853 0.33666 0.43965 0.0
H248 H 0.20353 0.30745 0.33564 0.0
H249 H 0.26189 0.42143 0.31025 0.0
C250 C 0.13944 0.16725 0.4377 0.0
C251 C 0.08219 0.13586 0.46415 0.0
C252 C 0.16084 0.22313 0.41188 0.0
C253 C 0.12427 0.24736 0.41123 0.0
C254 C 0.06439 0.21231 0.43536 0.0
C255 C 0.0444 0.15814 0.46219 0.0
C256 C 0.17112 0.41682 0.39484 0.0
C257 C 0.21651 0.44293 0.35926 0.0
C258 C 0.13947 0.35282 0.41021 0.0
C259 C 0.15145 0.31241 0.39007 0.0
C260 C 0.19376 0.3373 0.35245 0.0
C261 C 0.2263 0.40222 0.33729 0.0
H262 H 0.92262 0.08411 0.90719 0.0
H263 H 0.8259 0.07501 1.02738 0.0
H264 H 0.86767 0.12034 0.86673 0.0
H265 H 0.77276 0.11217 0.98756 0.0
H266 H 0.64292 0.12822 0.90943 0.0
H267 H 0.68991 0.07564 0.9361 0.0
H268 H 0.86655 0.21512 0.85856 0.0
H269 H 0.81829 0.26673 0.83101 0.0
C270 C 0.88971 0.0898 0.92495 0.0
C271 C 0.8785 0.0765 0.97051 0.0
C272 C 0.85843 0.11072 0.9018 0.0
C273 C 0.8152 0.11842 0.92378 0.0
C274 C 0.80443 0.10525 0.96932 0.0
C275 C 0.83547 0.08445 0.99231 0.0
C276 C 0.69121 0.14662 0.89731 0.0
C277 C 0.72714 0.20158 0.86835 0.0
C278 C 0.71837 0.11688 0.9128 0.0
C279 C 0.78261 0.14219 0.90035 0.0
C280 C 0.81693 0.19435 0.86878 0.0
C281 C 0.78929 0.22381 0.85285 0.0
H282 H 0.80578 0.0039 0.46093 0.0
H283 H 0.83605 0.85653 0.4725 0.0
H284 H 0.71818 0.9373 0.41213 0.0
H285 H 0.74929 0.79045 0.42256 0.0
H286 H 0.52534 0.66043 0.40415 0.0
H287 H 0.63364 0.72884 0.43172 0.0
H288 H 0.6813 0.88659 0.34262 0.0
H289 H 0.57113 0.81772 0.3159 0.0
C290 C 0.79443 0.95769 0.45251 0.0
C291 C 0.8271 0.935 0.47127 0.0
C292 C 0.74461 0.91976 0.42404 0.0
C293 C 0.72641 0.85831 0.41349 0.0
C294 C 0.76147 0.83716 0.43047 0.0
C295 C 0.81118 0.87502 0.45911 0.0
C296 C 0.5596 0.70917 0.38958 0.0
C297 C 0.53998 0.73392 0.35801 0.0
C298 C 0.62193 0.7484 0.40521 0.0
C299 C 0.66609 0.81357 0.38978 0.0
C300 C 0.64807 0.83685 0.35563 0.0
C301 C 0.58539 0.79727 0.33987 0.0
H302 H 0.90588 0.6994 0.04697 0.0
H303 H 0.95217 0.84272 0.945 0.0
H304 H 0.87226 0.61953 0.9924 0.0
H305 H 0.91732 0.76132 0.88993 0.0
H306 H 0.75276 0.54242 0.83472 0.0
H307 H 0.80544 0.64433 0.87264 0.0
H308 H 0.93585 0.61151 0.92942 0.0
H309 H 0.88332 0.51034 0.89208 0.0
C310 C 0.90857 0.71385 1.01291 0.0
C311 C 0.93197 0.77752 1.00036 0.0
C312 C 0.88976 0.66816 0.98159 0.0
C313 C 0.8932 0.68463 0.93692 0.0
C314 C 0.91463 0.74764 0.92417 0.0
C315 C 0.9345 0.79401 0.95565 0.0
C316 C 0.7946 0.55872 0.85373 0.0
C317 C 0.81384 0.51858 0.86087 0.0
C318 C 0.82446 0.61673 0.87557 0.0
C319 C 0.87359 0.63473 0.90469 0.0
C320 C 0.8973 0.59806 0.90775 0.0
C321 C 0.86758 0.54047 0.88616 0.0
loop_
_geom_bond_atom_site_label_1
_geom_bond_atom_site_label_2
_geom_bond_distance
_geom_bond_site_symmetry_2
_ccdc_geom_bond_type
Zn0 O6 1.969 . S
Zn0 O7 1.965 1_565 S
Zn0 O11 2.024 1_554 S
Zn0 O16 1.969 1_455 S
Zn1 O8 1.968 1_554 S
Zn1 O14 1.966 1_554 S
Zn1 O15 1.965 1_445 S
Zn1 O17 2.027 . S
C2 O3 1.207 1_556 S
C2 O11 1.058 1_655 S
O3 C2 1.207 1_554 S
C4 O5 1.229 . S
C4 O17 1.058 . S
O5 C4 1.229 . S
O6 Zn0 1.969 . S
O6 C9 1.267 . S
O7 Zn0 1.965 1_545 S
O7 C18 1.260 1_554 S
O8 Zn1 1.968 1_556 S
O8 C18 1.258 . S
C9 O6 1.267 . S
C9 O10 1.228 . S
O10 C9 1.228 . S
O11 Zn0 2.024 1_556 S
O11 C2 1.058 1_455 S
C12 O13 1.228 . S
C12 O14 1.267 1_655 S
O13 C12 1.228 . S
O14 Zn1 1.966 1_556 S
O14 C12 1.267 1_455 S
O15 Zn1 1.965 1_665 S
O15 C19 1.260 . S
O16 Zn0 1.969 1_655 S
O16 C19 1.258 . S
O17 Zn1 2.027 . S
O17 C4 1.058 . S
C18 O7 1.260 1_556 S
C18 O8 1.258 . S
C19 O15 1.260 . S
C19 O16 1.258 . S
Zn20 O26 1.969 1_545 S
Zn20 O27 1.965 1_545 S
Zn20 O31 2.024 . S
Zn20 O36 1.969 . S
Zn21 O28 1.969 1_545 S
Zn21 O34 1.969 . S
Zn21 O35 1.965 1_655 S
Zn21 O37 2.024 1_545 S
C22 O23 1.229 . S
C22 O31 1.058 . S
O23 C22 1.229 . S
C24 O25 1.229 . S
C24 O37 1.058 . S
O25 C24 1.229 . S
O26 Zn20 1.969 1_565 S
O26 C29 1.267 . S
O27 Zn20 1.965 1_565 S
O27 C38 1.260 1_455 S
O28 Zn21 1.969 1_565 S
O28 C38 1.258 . S
C29 O26 1.267 . S
C29 O30 1.228 . S
O30 C29 1.228 . S
O31 Zn20 2.024 . S
O31 C22 1.058 . S
C32 O33 1.228 . S
C32 O34 1.267 . S
O33 C32 1.228 . S
O34 Zn21 1.969 . S
O34 C32 1.267 . S
O35 Zn21 1.965 1_455 S
O35 C39 1.260 . S
O36 Zn20 1.969 . S
O36 C39 1.258 . S
O37 Zn21 2.024 1_565 S
O37 C24 1.058 . S
C38 O27 1.260 1_655 S
C38 O28 1.258 . S
C39 O35 1.260 . S
C39 O36 1.258 . S
Zn40 O46 1.920 . S
Zn40 O52 1.898 . S
Zn40 O55 1.905 . S
Zn41 O49 1.905 . S
Zn41 O50 1.898 . S
Zn41 O58 1.920 . S
Zn42 O45 2.080 . S
Zn42 O48 2.114 . S
Zn42 O51 2.120 . S
Zn42 O53 2.120 . S
Zn42 O54 2.114 . S
Zn42 O57 2.080 . S
C43 O48 1.166 . S
C43 O49 1.182 . S
C44 O50 1.167 . S
C44 O51 1.299 . S
O45 Zn42 2.080 . S
O45 C59 1.305 . S
O46 Zn40 1.920 . S
O46 C59 1.234 . S
C47 O52 1.167 . S
C47 O53 1.299 . S
O48 Zn42 2.114 . S
O48 C43 1.166 . S
O49 Zn41 1.905 . S
O49 C43 1.182 . S
O50 Zn41 1.898 . S
O50 C44 1.167 . S
O51 Zn42 2.120 . S
O51 C44 1.299 . S
O52 Zn40 1.898 . S
O52 C47 1.167 . S
O53 Zn42 2.120 . S
O53 C47 1.299 . S
O54 Zn42 2.114 . S
O54 C56 1.166 . S
O55 Zn40 1.905 . S
O55 C56 1.182 . S
C56 O54 1.166 . S
C56 O55 1.182 . S
O57 Zn42 2.080 . S
O57 C60 1.305 . S
O58 Zn41 1.920 . S
O58 C60 1.234 . S
C59 O45 1.305 . S
C59 O46 1.234 . S
C60 O57 1.305 . S
C60 O58 1.234 . S
Zn61 O67 1.920 . S
Zn61 O73 1.898 . S
Zn61 O76 1.905 . S
Zn62 O70 1.905 . S
Zn62 O71 1.898 . S
Zn62 O79 1.920 . S
Zn63 O66 2.080 . S
Zn63 O69 2.114 . S
Zn63 O72 2.120 . S
Zn63 O74 2.120 . S
Zn63 O75 2.114 . S
Zn63 O78 2.080 . S
C64 O69 1.166 . S
C64 O70 1.182 . S
C65 O71 1.167 . S
C65 O72 1.299 . S
O66 Zn63 2.080 . S
O66 C80 1.305 . S
O67 Zn61 1.920 . S
O67 C80 1.234 . S
C68 O73 1.167 . S
C68 O74 1.299 . S
O69 Zn63 2.114 . S
O69 C64 1.166 . S
O70 Zn62 1.905 . S
O70 C64 1.182 . S
O71 Zn62 1.898 . S
O71 C65 1.167 . S
O72 Zn63 2.120 . S
O72 C65 1.299 . S
O73 Zn61 1.898 . S
O73 C68 1.167 . S
O74 Zn63 2.120 . S
O74 C68 1.299 . S
O75 Zn63 2.114 . S
O75 C77 1.166 . S
O76 Zn61 1.905 . S
O76 C77 1.182 . S
C77 O75 1.166 . S
C77 O76 1.182 . S
O78 Zn63 2.080 . S
O78 C81 1.305 . S
O79 Zn62 1.920 . S
O79 C81 1.234 . S
C80 O66 1.305 . S
C80 O67 1.234 . S
C81 O78 1.305 . S
C81 O79 1.234 . S
H82 C90 0.950 . S
H83 C95 0.950 . S
H84 C92 0.950 . S
H85 C94 0.950 . S
H86 C96 0.950 . S
H87 C98 0.950 . S
H88 C100 0.950 . S
H89 C101 0.950 . S
C90 H82 0.950 . S
C90 C91 1.386 . S
C90 C92 1.391 . S
C91 C90 1.386 . S
C91 C95 1.393 . S
C92 H84 0.950 . S
C92 C90 1.391 . S
C92 C93 1.400 . S
C93 C92 1.400 . S
C93 C94 1.398 . S
C93 C99 1.491 . S
C94 H85 0.950 . S
C94 C93 1.398 . S
C94 C95 1.391 . S
C95 H83 0.950 . S
C95 C91 1.393 . S
C95 C94 1.391 . S
C96 H86 0.950 . S
C96 C97 1.386 . S
C96 C98 1.391 . S
C97 C96 1.386 . S
C97 C101 1.393 . S
C98 H87 0.950 . S
C98 C96 1.391 . S
C98 C99 1.400 . S
C99 C93 1.491 . S
C99 C98 1.400 . S
C99 C100 1.398 . S
C100 H88 0.950 . S
C100 C99 1.398 . S
C100 C101 1.391 . S
C101 H89 0.950 . S
C101 C97 1.393 . S
C101 C100 1.391 . S
H102 C110 0.950 . S
H103 C115 0.950 . S
H104 C112 0.950 . S
H105 C114 0.950 . S
H106 C116 0.950 . S
H107 C118 0.950 . S
H108 C120 0.950 . S
H109 C121 0.950 . S
C110 H102 0.950 . S
C110 C111 1.386 . S
C110 C112 1.391 . S
C111 C110 1.386 . S
C111 C115 1.393 . S
C112 H104 0.950 . S
C112 C110 1.391 . S
C112 C113 1.400 . S
C113 C112 1.400 . S
C113 C114 1.398 . S
C113 C119 1.491 . S
C114 H105 0.950 . S
C114 C113 1.398 . S
C114 C115 1.391 . S
C115 H103 0.950 . S
C115 C111 1.393 . S
C115 C114 1.391 . S
C116 H106 0.950 . S
C116 C117 1.386 . S
C116 C118 1.391 . S
C117 C116 1.386 . S
C117 C121 1.393 . S
C118 H107 0.950 . S
C118 C116 1.391 . S
C118 C119 1.400 . S
C119 C113 1.491 . S
C119 C118 1.400 . S
C119 C120 1.398 . S
C120 H108 0.950 . S
C120 C119 1.398 . S
C120 C121 1.391 . S
C121 H109 0.950 . S
C121 C117 1.393 . S
C121 C120 1.391 . S
H122 C130 0.950 . S
H123 C135 0.950 . S
H124 C132 0.950 . S
H125 C134 0.950 . S
H126 C136 0.950 . S
H127 C138 0.950 . S
H128 C140 0.950 . S
H129 C141 0.950 . S
C130 H122 0.950 . S
C130 C131 1.386 . S
C130 C132 1.391 . S
C131 C130 1.386 . S
C131 C135 1.393 . S
C132 H124 0.950 . S
C132 C130 1.391 . S
C132 C133 1.400 . S
C133 C132 1.400 . S
C133 C134 1.398 . S
C133 C139 1.491 . S
C134 H125 0.950 . S
C134 C133 1.398 . S
C134 C135 1.391 . S
C135 H123 0.950 . S
C135 C131 1.393 . S
C135 C134 1.391 . S
C136 H126 0.950 . S
C136 C137 1.386 . S
C136 C138 1.391 . S
C137 C136 1.386 . S
C137 C141 1.393 . S
C138 H127 0.950 . S
C138 C136 1.391 . S
C138 C139 1.400 . S
C139 C133 1.491 . S
C139 C138 1.400 . S
C139 C140 1.398 . S
C140 H128 0.950 . S
C140 C139 1.398 . S
C140 C141 1.391 . S
C141 H129 0.950 . S
C141 C137 1.393 . S
C141 C140 1.391 . S
H142 C150 0.950 . S
H143 C155 0.950 . S
H144 C152 0.950 . S
H145 C154 0.950 . S
H146 C156 0.950 . S
H147 C158 0.950 . S
H148 C160 0.950 . S
H149 C161 0.950 . S
C150 H142 0.950 . S
C150 C151 1.386 . S
C150 C152 1.391 . S
C151 C150 1.386 . S
C151 C155 1.393 . S
C152 H144 0.950 . S
C152 C150 1.391 . S
C152 C153 1.400 . S
C153 C152 1.400 . S
C153 C154 1.398 . S
C153 C159 1.491 . S
C154 H145 0.950 . S
C154 C153 1.398 . S
C154 C155 1.391 . S
C155 H143 0.950 . S
C155 C151 1.393 . S
C155 C154 1.391 . S
C156 H146 0.950 . S
C156 C157 1.386 . S
C156 C158 1.391 . S
C157 C156 1.386 . S
C157 C161 1.393 . S
C158 H147 0.950 . S
C158 C156 1.391 . S
C158 C159 1.400 . S
C159 C153 1.491 . S
C159 C158 1.400 . S
C159 C160 1.398 . S
C160 H148 0.950 . S
C160 C159 1.398 . S
C160 C161 1.391 . S
C161 H149 0.950 . S
C161 C157 1.393 . S
C161 C160 1.391 . S
H162 C170 0.950 . S
H163 C175 0.950 . S
H164 C172 0.950 . S
H165 C174 0.950 . S
H166 C176 0.950 . S
H167 C178 0.950 . S
H168 C180 0.950 . S
H169 C181 0.950 . S
C170 H162 0.950 . S
C170 C171 1.386 . S
C170 C172 1.391 . S
C171 C170 1.386 . S
C171 C175 1.393 . S
C172 H164 0.950 . S
C172 C170 1.391 . S
C172 C173 1.400 . S
C173 C172 1.400 . S
C173 C174 1.398 . S
C173 C179 1.491 . S
C174 H165 0.950 . S
C174 C173 1.398 . S
C174 C175 1.391 . S
C175 H163 0.950 . S
C175 C171 1.393 . S
C175 C174 1.391 . S
C176 H166 0.950 . S
C176 C177 1.386 . S
C176 C178 1.391 . S
C177 C176 1.386 . S
C177 C181 1.393 . S
C178 H167 0.950 . S
C178 C176 1.391 . S
C178 C179 1.400 . S
C179 C173 1.491 . S
C179 C178 1.400 . S
C179 C180 1.398 . S
C180 H168 0.950 . S
C180 C179 1.398 . S
C180 C181 1.391 . S
C181 H169 0.950 . S
C181 C177 1.393 . S
C181 C180 1.391 . S
H182 C190 0.950 . S
H183 C195 0.950 . S
H184 C192 0.950 . S
H185 C194 0.950 . S
H186 C196 0.950 . S
H187 C198 0.950 . S
H188 C200 0.950 . S
H189 C201 0.950 . S
C190 H182 0.950 . S
C190 C191 1.386 . S
C190 C192 1.391 . S
C191 C190 1.386 . S
C191 C195 1.393 . S
C192 H184 0.950 . S
C192 C190 1.391 . S
C192 C193 1.400 . S
C193 C192 1.400 . S
C193 C194 1.398 . S
C193 C199 1.491 . S
C194 H185 0.950 . S
C194 C193 1.398 . S
C194 C195 1.391 . S
C195 H183 0.950 . S
C195 C191 1.393 . S
C195 C194 1.391 . S
C196 H186 0.950 . S
C196 C197 1.386 . S
C196 C198 1.391 . S
C197 C196 1.386 . S
C197 C201 1.393 . S
C198 H187 0.950 . S
C198 C196 1.391 . S
C198 C199 1.400 . S
C199 C193 1.491 . S
C199 C198 1.400 . S
C199 C200 1.398 . S
C200 H188 0.950 . S
C200 C199 1.398 . S
C200 C201 1.391 . S
C201 H189 0.950 . S
C201 C197 1.393 . S
C201 C200 1.391 . S
H202 C210 0.950 . S
H203 C215 0.950 . S
H204 C212 0.950 . S
H205 C214 0.950 . S
H206 C216 0.950 . S
H207 C218 0.950 . S
H208 C220 0.950 . S
H209 C221 0.950 . S
C210 H202 0.950 . S
C210 C211 1.386 . S
C210 C212 1.391 . S
C211 C210 1.386 . S
C211 C215 1.393 . S
C212 H204 0.950 . S
C212 C210 1.391 . S
C212 C213 1.400 . S
C213 C212 1.400 . S
C213 C214 1.398 . S
C213 C219 1.491 . S
C214 H205 0.950 . S
C214 C213 1.398 . S
C214 C215 1.391 . S
C215 H203 0.950 . S
C215 C211 1.393 . S
C215 C214 1.391 . S
C216 H206 0.950 . S
C216 C217 1.386 . S
C216 C218 1.391 . S
C217 C216 1.386 . S
C217 C221 1.393 . S
C218 H207 0.950 . S
C218 C216 1.391 . S
C218 C219 1.400 . S
C219 C213 1.491 . S
C219 C218 1.400 . S
C219 C220 1.398 . S
C220 H208 0.950 . S
C220 C219 1.398 . S
C220 C221 1.391 . S
C221 H209 0.950 . S
C221 C217 1.393 . S
C221 C220 1.391 . S
H222 C230 0.950 . S
H223 C235 0.950 . S
H224 C232 0.950 . S
H225 C234 0.950 . S
H226 C236 0.950 . S
H227 C238 0.950 . S
H228 C240 0.950 . S
H229 C241 0.950 . S
C230 H222 0.950 . S
C230 C231 1.386 . S
C230 C232 1.391 . S
C231 C230 1.386 . S
C231 C235 1.393 . S
C232 H224 0.950 . S
C232 C230 1.391 . S
C232 C233 1.400 . S
C233 C232 1.400 . S
C233 C234 1.398 . S
C233 C239 1.491 . S
C234 H225 0.950 . S
C234 C233 1.398 . S
C234 C235 1.391 . S
C235 H223 0.950 . S
C235 C231 1.393 . S
C235 C234 1.391 . S
C236 H226 0.950 . S
C236 C237 1.386 . S
C236 C238 1.391 . S
C237 C236 1.386 . S
C237 C241 1.393 . S
C238 H227 0.950 . S
C238 C236 1.391 . S
C238 C239 1.400 . S
C239 C233 1.491 . S
C239 C238 1.400 . S
C239 C240 1.398 . S
C240 H228 0.950 . S
C240 C239 1.398 . S
C240 C241 1.391 . S
C241 H229 0.950 . S
C241 C237 1.393 . S
C241 C240 1.391 . S
H242 C250 0.950 . S
H243 C255 0.950 . S
H244 C252 0.950 . S
H245 C254 0.950 . S
H246 C256 0.950 . S
H247 C258 0.950 . S
H248 C260 0.950 . S
H249 C261 0.950 . S
C250 H242 0.950 . S
C250 C251 1.386 . S
C250 C252 1.391 . S
C251 C250 1.386 . S
C251 C255 1.393 . S
C252 H244 0.950 . S
C252 C250 1.391 . S
C252 C253 1.400 . S
C253 C252 1.400 . S
C253 C254 1.398 . S
C253 C259 1.491 . S
C254 H245 0.950 . S
C254 C253 1.398 . S
C254 C255 1.391 . S
C255 H243 0.950 . S
C255 C251 1.393 . S
C255 C254 1.391 . S
C256 H246 0.950 . S
C256 C257 1.386 . S
C256 C258 1.391 . S
C257 C256 1.386 . S
C257 C261 1.393 . S
C258 H247 0.950 . S
C258 C256 1.391 . S
C258 C259 1.400 . S
C259 C253 1.491 . S
C259 C258 1.400 . S
C259 C260 1.398 . S
C260 H248 0.950 . S
C260 C259 1.398 . S
C260 C261 1.391 . S
C261 H249 0.950 . S
C261 C257 1.393 . S
C261 C260 1.391 . S
H262 C270 0.950 . S
H263 C275 0.950 . S
H264 C272 0.950 . S
H265 C274 0.950 . S
H266 C276 0.950 . S
H267 C278 0.950 . S
H268 C280 0.950 . S
H269 C281 0.950 . S
C270 H262 0.950 . S
C270 C271 1.386 . S
C270 C272 1.391 . S
C271 C270 1.386 . S
C271 C275 1.393 . S
C272 H264 0.950 . S
C272 C270 1.391 . S
C272 C273 1.400 . S
C273 C272 1.400 . S
C273 C274 1.398 . S
C273 C279 1.491 . S
C274 H265 0.950 . S
C274 C273 1.398 . S
C274 C275 1.391 . S
C275 H263 0.950 . S
C275 C271 1.393 . S
C275 C274 1.391 . S
C276 H266 0.950 . S
C276 C277 1.386 . S
C276 C278 1.391 . S
C277 C276 1.386 . S
C277 C281 1.393 . S
C278 H267 0.950 . S
C278 C276 1.391 . S
C278 C279 1.400 . S
C279 C273 1.491 . S
C279 C278 1.400 . S
C279 C280 1.398 . S
C280 H268 0.950 . S
C280 C279 1.398 . S
C280 C281 1.391 . S
C281 H269 0.950 . S
C281 C277 1.393 . S
C281 C280 1.391 . S
H282 C290 0.950 . S
H283 C295 0.950 . S
H284 C292 0.950 . S
H285 C294 0.950 . S
H286 C296 0.950 . S
H287 C298 0.950 . S
H288 C300 0.950 . S
H289 C301 0.950 . S
C290 H282 0.950 . S
C290 C291 1.386 . S
C290 C292 1.391 . S
C291 C290 1.386 . S
C291 C295 1.393 . S
C292 H284 0.950 . S
C292 C290 1.391 . S
C292 C293 1.400 . S
C293 C292 1.400 . S
C293 C294 1.398 . S
C293 C299 1.491 . S
C294 H285 0.950 . S
C294 C293 1.398 . S
C294 C295 1.391 . S
C295 H283 0.950 . S
C295 C291 1.393 . S
C295 C294 1.391 . S
C296 H286 0.950 . S
C296 C297 1.386 . S
C296 C298 1.391 . S
C297 C296 1.386 . S
C297 C301 1.393 . S
C298 H287 0.950 . S
C298 C296 1.391 . S
C298 C299 1.400 . S
C299 C293 1.491 . S
C299 C298 1.400 . S
C299 C300 1.398 . S
C300 H288 0.950 . S
C300 C299 1.398 . S
C300 C301 1.391 . S
C301 H289 0.950 . S
C301 C297 1.393 . S
C301 C300 1.391 . S
H302 C310 0.950 . S
H303 C315 0.950 . S
H304 C312 0.950 . S
H305 C314 0.950 . S
H306 C316 0.950 . S
H307 C318 0.950 . S
H308 C320 0.950 . S
H309 C321 0.950 . S
C310 H302 0.950 . S
C310 C311 1.386 . S
C310 C312 1.391 . S
C311 C310 1.386 . S
C311 C315 1.393 . S
C312 H304 0.950 . S
C312 C310 1.391 . S
C312 C313 1.400 . S
C313 C312 1.400 . S
C313 C314 1.398 . S
C313 C319 1.491 . S
C314 H305 0.950 . S
C314 C313 1.398 . S
C314 C315 1.391 . S
C315 H303 0.950 . S
C315 C311 1.393 . S
C315 C314 1.391 . S
C316 H306 0.950 . S
C316 C317 1.386 . S
C316 C318 1.391 . S
C317 C316 1.386 . S
C317 C321 1.393 . S
C318 H307 0.950 . S
C318 C316 1.391 . S
C318 C319 1.400 . S
C319 C313 1.491 . S
C319 C318 1.400 . S
C319 C320 1.398 . S
C320 H308 0.950 . S
C320 C319 1.398 . S
C320 C321 1.391 . S
C321 H309 0.950 . S
C321 C317 1.393 . S
C321 C320 1.391 . S
C91 C9 1.430 . S
C97 C59 1.306 . S
C111 C22 1.206 . S
C117 C65 1.158 . S
C131 C4 1.283 . S
C137 C56 1.194 . S
C151 C32 1.536 . S
C157 C81 1.396 . S
C171 C19 1.827 . S
C177 C47 1.663 . S
C197 C64 1.660 . S
C191 C38 1.760 . S
C211 C29 1.415 . S
C217 C60 1.346 . S
C237 C77 1.666 . S
C231 C18 1.755 . S
C257 C44 1.654 . S
C251 C39 1.829 . S
C277 C80 1.393 . S
C271 C12 1.528 . S
C297 C43 1.168 . S
C291 C24 1.296 . S
C317 C68 1.153 . S
C311 C2 1.215 . S
