# Generated by pormake.
# Topology pth, (4,4)-cn, num edge types: 1
# Building blocks:
#     Node 0, Type 0, BuildingBlock: CEKHIL_clean_sbu_0, # of connection points: 4
#     Node 1, Type 0, BuildingBlock: CEKHIL_clean_sbu_0, # of connection points: 4
#     Node 2, Type 0, BuildingBlock: CEKHIL_clean_sbu_0, # of connection points: 4
#     Node 3, Type 1, BuildingBlock: KOZSID_clean_sbu_0, # of connection points: 4
#     Node 4, Type 1, BuildingBlock: KOZSID_clean_sbu_0, # of connection points: 4
#     Node 5, Type 1, BuildingBlock: KOZSID_clean_sbu_0, # of connection points: 4
#     Edge 6, Type (0, 1), BuildingBlock: TEMPAE_clean_linker_10, # of connection points: 2
#     Edge 7, Type (0, 1), BuildingBlock: TEMPAE_clean_linker_10, # of connection points: 2
#     Edge 8, Type (0, 1), BuildingBlock: TEMPAE_clean_linker_10, # of connection points: 2
#     Edge 9, Type (0, 1), BuildingBlock: TEMPAE_clean_linker_10, # of connection points: 2
#     Edge 10, Type (0, 1), BuildingBlock: TEMPAE_clean_linker_10, # of connection points: 2
#     Edge 11, Type (0, 1), BuildingBlock: TEMPAE_clean_linker_10, # of connection points: 2
#     Edge 12, Type (0, 1), BuildingBlock: TEMPAE_clean_linker_10, # of connection points: 2
#     Edge 13, Type (0, 1), BuildingBlock: TEMPAE_clean_linker_10, # of connection points: 2
#     Edge 14, Type (0, 1), BuildingBlock: TEMPAE_clean_linker_10, # of connection points: 2
#     Edge 15, Type (0, 1), BuildingBlock: TEMPAE_clean_linker_10, # of connection points: 2
#     Edge 16, Type (0, 1), BuildingBlock: TEMPAE_clean_linker_10, # of connection points: 2
#     Edge 17, Type (0, 1), BuildingBlock: TEMPAE_clean_linker_10, # of connection points: 2
# Relax obj value: 0.006
# Max RMSD: 0.056
# Mean RMSD: 0.040
data_MOF--net-pth--node1-CEKHIL_clean_sbu_0--node2-KOZSID_clean_sbu_0--edge1-TEMPAE_clean_linker_10
_symmetry_space_group_name_H-M    P1
_symmetry_Int_Tables_number       1
_symmetry_cell_setting            triclinic
loop_
_symmetry_equiv_pos_as_xyz
'x, y, z'
_cell_length_a     26.508104
_cell_length_b     26.605188
_cell_length_c     61.766902
_cell_angle_alpha  88.327965
_cell_angle_beta   87.272048
_cell_angle_gamma 120.39527
loop_
_atom_site_label
_atom_site_type_symbol
_atom_site_fract_x
_atom_site_fract_y
_atom_site_fract_z
_atom_type_partial_charge
Co0 Co 0.05966 0.05397 0.04843 0.0
O1 O 0.02017 0.99099 0.07049 0.0
O2 O 0.09879 0.00902 0.04994 0.0
C3 C 0.06175 0.12396 0.06877 0.0
O4 O 0.11402 0.11642 0.02479 0.0
Co5 Co 0.99785 0.11714 0.03056 0.0
O6 O 0.07719 0.17417 0.01719 0.0
C7 C 0.96111 0.99816 0.01793 0.0
C8 C 0.05956 0.97719 0.06556 0.0
C9 C 0.11824 0.1625 0.01538 0.0
O10 O 0.00649 0.00179 0.0262 0.0
O11 O 0.94693 0.03734 0.01977 0.0
O12 O 0.101 0.10888 0.07044 0.0
O13 O 0.01981 0.09303 0.05661 0.0
Co14 Co 0.04264 0.08692 0.36447 0.0
O15 O 0.00695 0.111 0.34317 0.0
O16 O 0.08153 0.1715 0.36153 0.0
C17 C 0.04935 0.02043 0.34434 0.0
O18 O 0.09296 0.07853 0.38689 0.0
Co19 Co 0.97794 0.95993 0.38461 0.0
O20 O 0.05305 0.98369 0.39769 0.0
C21 C 0.93823 0.04045 0.39802 0.0
C22 C 0.04512 0.16443 0.34689 0.0
C23 C 0.09411 0.03681 0.39764 0.0
O24 O 0.9846 0.08333 0.388 0.0
O25 O 0.92516 0.98722 0.39699 0.0
O26 O 0.08855 0.07557 0.34148 0.0
O27 O 0.00506 0.00809 0.35772 0.0
Co28 Co 0.05558 0.05797 0.69831 0.0
O29 O 0.11948 0.10152 0.67655 0.0
O30 O 0.10233 0.0211 0.69485 0.0
C31 C 0.98535 0.05783 0.67874 0.0
O32 O 0.99298 0.99924 0.72115 0.0
Co33 Co 0.98708 0.1114 0.71957 0.0
O34 O 0.93036 0.02986 0.73025 0.0
C35 C 0.10542 0.14681 0.73306 0.0
C36 C 0.13436 0.06258 0.68006 0.0
C37 C 0.94489 0.99096 0.73081 0.0
O38 O 0.10649 0.10787 0.72143 0.0
O39 O 0.06324 0.15727 0.73349 0.0
O40 O 1.00183 0.01998 0.67571 0.0
O41 O 0.01477 0.09709 0.69214 0.0
C42 C 0.12203 0.67853 0.17106 0.0
C43 C 0.1765 0.72238 0.16219 0.0
C44 C 0.21749 0.71777 0.1732 0.0
C45 C 0.18595 0.67144 0.18803 0.0
N46 N 0.12719 0.64554 0.18702 0.0
Co47 Co 0.06529 0.57746 0.20603 0.0
N48 N 0.1258 0.57166 0.22256 0.0
C49 C 0.18474 0.60565 0.21916 0.0
C50 C 0.21519 0.59088 0.23275 0.0
C51 C 0.17329 0.54412 0.24545 0.0
C52 C 0.11943 0.53284 0.23877 0.0
N53 N 0.00337 0.51027 0.22541 0.0
C54 C 0.00845 0.47752 0.2415 0.0
C55 C 0.95388 0.43395 0.25043 0.0
C56 C 0.91299 0.43946 0.23971 0.0
C57 C 0.9446 0.48564 0.22483 0.0
N58 N 0.0048 0.58239 0.18914 0.0
C59 C 0.94591 0.54714 0.19209 0.0
C60 C 0.9154 0.5617 0.17847 0.0
C61 C 0.95717 0.60927 0.16608 0.0
C62 C 0.01112 0.62095 0.17282 0.0
N63 N 0.06649 0.52186 0.18539 0.0
C64 C 0.06825 0.44032 0.15739 0.0
C65 C 0.01551 0.43201 0.16699 0.0
C66 C 0.01562 0.473 0.18067 0.0
C67 C 0.12006 0.4908 0.16186 0.0
C68 C 0.11821 0.53047 0.1758 0.0
N69 N 0.06404 0.63306 0.22667 0.0
C70 C 0.01064 0.67008 0.24701 0.0
C71 C 0.06244 0.71507 0.25433 0.0
C72 C 0.11499 0.71765 0.2479 0.0
C73 C 0.11483 0.67671 0.23413 0.0
C74 C 0.01238 0.62976 0.23344 0.0
H75 H 0.15643 0.68174 0.22956 0.0
H76 H 0.9713 0.59655 0.22855 0.0
H77 H 0.97392 0.46376 0.18742 0.0
H78 H 0.15929 0.56761 0.17865 0.0
C79 C 0.2102 0.65118 0.20309 0.0
C80 C 0.06687 0.67064 0.1639 0.0
C81 C 0.06365 0.4843 0.24819 0.0
C82 C 0.92044 0.50375 0.20896 0.0
H83 H 0.18567 0.75464 0.14918 0.0
H84 H 0.26468 0.74516 0.17076 0.0
H85 H 0.26227 0.61146 0.23327 0.0
H86 H 0.18149 0.52072 0.25811 0.0
H87 H 0.94433 0.40063 0.26303 0.0
H88 H 0.86579 0.41191 0.24203 0.0
H89 H 0.8683 0.54125 0.17805 0.0
H90 H 0.9486 0.63336 0.15383 0.0
H91 H 0.9741 0.39338 0.16436 0.0
H92 H 0.16209 0.50003 0.15458 0.0
H93 H 0.9687 0.66572 0.25182 0.0
H94 H 0.15635 0.75195 0.25305 0.0
C95 C 0.44742 0.02009 0.57204 0.0
C96 C 0.40257 0.96502 0.57975 0.0
C97 C 0.40899 0.92567 0.56806 0.0
C98 C 0.4573 0.9587 0.55402 0.0
N99 N 0.48272 0.01686 0.55617 0.0
Co100 Co 0.55312 0.08048 0.53856 0.0
N101 N 0.56246 0.02232 0.52141 0.0
C102 C 0.52902 0.96345 0.52388 0.0
C103 C 0.54739 0.93489 0.51043 0.0
C104 C 0.59604 0.97803 0.49884 0.0
C105 C 0.60448 0.03062 0.50593 0.0
N106 N 0.62242 0.14411 0.52048 0.0
C107 C 0.6578 0.14088 0.50465 0.0
C108 C 0.70105 0.19583 0.49623 0.0
C109 C 0.69307 0.23528 0.50724 0.0
C110 C 0.64555 0.2023 0.52166 0.0
N111 N 0.545 0.13857 0.55623 0.0
C112 C 0.58003 0.19735 0.55428 0.0
C113 C 0.56337 0.22602 0.56835 0.0
C114 C 0.51468 0.1831 0.57999 0.0
C115 C 0.50446 0.13035 0.57237 0.0
N116 N 0.60625 0.07796 0.55975 0.0
C117 C 0.68504 0.074 0.58806 0.0
C118 C 0.69445 0.12716 0.5791 0.0
C119 C 0.65474 0.12817 0.56521 0.0
C120 C 0.63485 0.02295 0.58292 0.0
C121 C 0.59647 0.02588 0.56885 0.0
N122 N 0.49993 0.08299 0.51732 0.0
C123 C 0.4625 0.13613 0.49773 0.0
C124 C 0.42136 0.08544 0.48849 0.0
C125 C 0.42075 0.03368 0.4937 0.0
C126 C 0.45977 0.03336 0.50809 0.0
C127 C 0.50135 0.13406 0.51181 0.0
H128 H 0.45608 0.99222 0.51165 0.0
H129 H 0.53187 0.17436 0.51812 0.0
H130 H 0.66446 0.1701 0.55896 0.0
H131 H 0.55958 0.9853 0.56538 0.0
C132 C 0.48065 0.93633 0.539 0.0
C133 C 0.45418 0.07394 0.58027 0.0
C134 C 0.65366 0.08712 0.4977 0.0
C135 C 0.62506 0.22454 0.53781 0.0
H136 H 0.36858 0.95434 0.59248 0.0
H137 H 0.38173 0.87858 0.56964 0.0
H138 H 0.52804 0.88824 0.50934 0.0
H139 H 0.62266 0.97154 0.48668 0.0
H140 H 0.73555 0.20628 0.48374 0.0
H141 H 0.71983 0.2824 0.50542 0.0
H142 H 0.58318 0.27269 0.56954 0.0
H143 H 0.48891 0.19013 0.59232 0.0
H144 H 0.73223 0.16803 0.58285 0.0
H145 H 0.6258 0.98061 0.58931 0.0
H146 H 0.46504 0.17743 0.494 0.0
H147 H 0.38925 0.99312 0.4871 0.0
C148 C 0.67108 0.59542 0.83978 0.0
C149 C 0.71547 0.58561 0.83245 0.0
C150 C 0.70753 0.53771 0.84428 0.0
C151 C 0.659 0.5211 0.85812 0.0
N152 N 0.63502 0.55514 0.85573 0.0
Co153 Co 0.56539 0.54775 0.87314 0.0
N154 N 0.55525 0.47868 0.89119 0.0
C155 C 0.58869 0.45368 0.88948 0.0
C156 C 0.57013 0.4059 0.90358 0.0
C157 C 0.52149 0.3995 0.91485 0.0
C158 C 0.51326 0.44401 0.90694 0.0
N159 N 0.49601 0.54065 0.89062 0.0
C160 C 0.45979 0.50023 0.90648 0.0
C161 C 0.41629 0.51095 0.91419 0.0
C162 C 0.4248 0.5594 0.90262 0.0
C163 C 0.47287 0.57555 0.88859 0.0
N164 N 0.57513 0.61648 0.855 0.0
C165 C 0.54126 0.64108 0.85652 0.0
C166 C 0.559 0.68802 0.84209 0.0
C167 C 0.60744 0.69425 0.83075 0.0
C168 C 0.61658 0.65062 0.83903 0.0
N169 N 0.51194 0.49381 0.85217 0.0
C170 C 0.43304 0.41523 0.82369 0.0
C171 C 0.4291 0.46299 0.83019 0.0
C172 C 0.46831 0.50109 0.84441 0.0
C173 C 0.47751 0.40767 0.8315 0.0
C174 C 0.51657 0.44751 0.84543 0.0
N175 N 0.6189 0.60182 0.89411 0.0
C176 C 0.65553 0.69063 0.9132 0.0
C177 C 0.69839 0.68218 0.92197 0.0
C178 C 0.7002 0.63228 0.91697 0.0
C179 C 0.66073 0.59325 0.90294 0.0
C180 C 0.61615 0.64994 0.89968 0.0
H181 H 0.66536 0.55687 0.89931 0.0
H182 H 0.58415 0.65872 0.89383 0.0
H183 H 0.46192 0.53574 0.84906 0.0
H184 H 0.54992 0.43977 0.85062 0.0
C185 C 0.63604 0.47497 0.87395 0.0
C186 C 0.66625 0.64467 0.83158 0.0
C187 C 0.46376 0.45021 0.91438 0.0
C188 C 0.49498 0.62094 0.87248 0.0
H189 H 0.75046 0.611 0.82005 0.0
H190 H 0.73451 0.51793 0.84318 0.0
H191 H 0.58906 0.37835 0.90519 0.0
H192 H 0.49453 0.36536 0.92724 0.0
H193 H 0.38144 0.48576 0.92667 0.0
H194 H 0.39827 0.57965 0.90392 0.0
H195 H 0.53972 0.71522 0.84033 0.0
H196 H 0.63368 0.72771 0.81806 0.0
H197 H 0.39492 0.47025 0.82474 0.0
H198 H 0.48249 0.37146 0.82674 0.0
H199 H 0.65204 0.72836 0.91693 0.0
H200 H 0.73286 0.62411 0.92343 0.0
C201 C 0.03636 0.15911 0.10196 0.0
C202 C 0.06325 0.17127 0.08093 0.0
C203 C 0.0376 0.20367 0.114 0.0
C204 C 0.06658 0.26172 0.10471 0.0
C205 C 0.0938 0.274 0.08336 0.0
C206 C 0.09181 0.22846 0.07171 0.0
C207 C 0.00798 0.18865 0.13665 0.0
C208 C 0.12521 0.3352 0.0729 0.0
C209 C 0.02449 0.36639 0.1291 0.0
C210 C 0.06913 0.39621 0.14318 0.0
C211 C 0.02346 0.32304 0.11633 0.0
C212 C 0.06848 0.30942 0.11743 0.0
C213 C 0.11433 0.34011 0.13123 0.0
C214 C 0.11394 0.38281 0.144 0.0
C215 C 0.97368 0.29122 0.10188 0.0
C216 C 0.16331 0.32709 0.13281 0.0
H217 H 0.0144 0.11463 0.10899 0.0
H218 H 0.11273 0.23755 0.05542 0.0
H219 H 0.04046 0.21371 0.14852 0.0
H220 H 0.97395 0.20123 0.13776 0.0
H221 H 0.98704 0.14136 0.14144 0.0
H222 H 0.14382 0.33738 0.05616 0.0
H223 H 0.09455 0.35198 0.07223 0.0
H224 H 0.16131 0.3647 0.08282 0.0
H225 H 0.9902 0.37698 0.128 0.0
H226 H 0.1482 0.40479 0.15501 0.0
H227 H 0.94911 0.2439 0.10682 0.0
H228 H 0.9912 0.2959 0.08481 0.0
H229 H 0.9426 0.30767 0.10256 0.0
H230 H 0.14522 0.28143 0.13931 0.0
H231 H 0.19721 0.35675 0.14348 0.0
H232 H 0.18465 0.33122 0.11644 0.0
C233 C 0.91421 0.10966 0.41672 0.0
C234 C 0.89824 0.0525 0.41177 0.0
C235 C 0.87711 0.12061 0.43033 0.0
C236 C 0.82259 0.07338 0.43909 0.0
C237 C 0.80587 0.0158 0.43387 0.0
C238 C 0.84381 0.00608 0.42037 0.0
C239 C 0.89656 0.18259 0.4356 0.0
C240 C 0.74795 0.9642 0.44271 0.0
C241 C 0.74504 0.08298 0.49086 0.0
C242 C 0.70024 0.0894 0.48262 0.0
C243 C 0.78672 0.08015 0.47683 0.0
C244 C 0.78307 0.08344 0.45405 0.0
C245 C 0.73863 0.09163 0.44572 0.0
C246 C 0.69764 0.09448 0.46015 0.0
C247 C 0.83334 0.07152 0.4864 0.0
C248 C 0.73302 0.09512 0.4216 0.0
H249 H 0.95608 0.14587 0.41021 0.0
H250 H 0.83062 0.96175 0.4166 0.0
H251 H 0.86338 0.1939 0.431 0.0
H252 H 0.90017 0.18686 0.45335 0.0
H253 H 0.93953 0.21462 0.42709 0.0
H254 H 0.74083 0.9223 0.4367 0.0
H255 H 0.74608 0.96109 0.46071 0.0
H256 H 0.71132 0.97018 0.43806 0.0
H257 H 0.74659 0.07892 0.5083 0.0
H258 H 0.66261 0.09923 0.45393 0.0
H259 H 0.87737 0.10466 0.47904 0.0
H260 H 0.82627 0.02797 0.48265 0.0
H261 H 0.83305 0.07449 0.50431 0.0
H262 H 0.77556 0.12849 0.41325 0.0
H263 H 0.69906 0.10607 0.41773 0.0
H264 H 0.72121 0.05259 0.41489 0.0
C265 C 0.92463 0.89675 0.74994 0.0
C266 C 0.90557 0.93544 0.74398 0.0
C267 C 0.88862 0.84631 0.76362 0.0
C268 C 0.83209 0.83402 0.77138 0.0
C269 C 0.81208 0.87204 0.76492 0.0
C270 C 0.84897 0.92214 0.75139 0.0
C271 C 0.91156 0.80691 0.7702 0.0
C272 C 0.75195 0.86042 0.77264 0.0
C273 C 0.71228 0.683 0.79392 0.0
C274 C 0.71295 0.69054 0.81625 0.0
C275 C 0.75253 0.72855 0.7791 0.0
C276 C 0.7942 0.78277 0.78689 0.0
C277 C 0.79614 0.78955 0.80958 0.0
C278 C 0.75527 0.74334 0.82398 0.0
C279 C 0.74877 0.71951 0.75509 0.0
C280 C 0.83979 0.84644 0.8186 0.0
H281 H 0.96823 0.90655 0.74436 0.0
H282 H 0.8334 0.95128 0.74677 0.0
H283 H 0.91526 0.80678 0.78801 0.0
H284 H 0.88044 0.76135 0.76633 0.0
H285 H 0.95523 0.82086 0.76196 0.0
H286 H 0.74209 0.893 0.76546 0.0
H287 H 0.71784 0.81629 0.7684 0.0
H288 H 0.74873 0.86134 0.79058 0.0
H289 H 0.67912 0.64203 0.78806 0.0
H290 H 0.7553 0.74887 0.84131 0.0
H291 H 0.79259 0.73259 0.74729 0.0
H292 H 0.73405 0.74759 0.74734 0.0
H293 H 0.71766 0.6734 0.75177 0.0
H294 H 0.88481 0.86074 0.81177 0.0
H295 H 0.83887 0.84303 0.8366 0.0
H296 H 0.82993 0.88091 0.81379 0.0
C297 C 0.11019 0.92306 0.07655 0.0
C298 C 0.06054 0.92905 0.07796 0.0
C299 C 0.11282 0.88028 0.08962 0.0
C300 C 0.06437 0.84214 0.10422 0.0
C301 C 0.01349 0.84691 0.10518 0.0
C302 C 0.01235 0.89045 0.09216 0.0
C303 C 0.16803 0.87692 0.08824 0.0
C304 C 0.96058 0.80672 0.12029 0.0
C305 C 0.04956 0.7004 0.12728 0.0
C306 C 0.06757 0.71486 0.14829 0.0
C307 C 0.04883 0.74151 0.11265 0.0
C308 C 0.06741 0.79865 0.11912 0.0
C309 C 0.08687 0.81366 0.14023 0.0
C310 C 0.08641 0.77146 0.15459 0.0
C311 C 0.02719 0.72352 0.09043 0.0
C312 C 0.10749 0.87411 0.14774 0.0
H313 H 0.14766 0.95285 0.06568 0.0
H314 H 0.97366 0.89455 0.09327 0.0
H315 H 0.18789 0.88644 0.10411 0.0
H316 H 0.15755 0.83215 0.08468 0.0
H317 H 0.201 0.90823 0.07552 0.0
H318 H 0.9233 0.814 0.11824 0.0
H319 H 0.94593 0.7605 0.1174 0.0
H320 H 0.97235 0.81361 0.13739 0.0
H321 H 0.03538 0.65662 0.12244 0.0
H322 H 0.1005 0.7825 0.17084 0.0
H323 H 0.06126 0.75305 0.07769 0.0
H324 H 0.98794 0.72746 0.0884 0.0
H325 H 0.01554 0.67789 0.08773 0.0
H326 H 0.14314 0.90727 0.13625 0.0
H327 H 0.1238 0.87955 0.16425 0.0
H328 H 0.07094 0.88313 0.14794 0.0
C329 C 0.13774 0.01052 0.42785 0.0
C330 C 0.14445 0.05014 0.41085 0.0
C331 C 0.18471 0.02056 0.44019 0.0
C332 C 0.24037 0.07111 0.43529 0.0
C333 C 0.24751 0.11167 0.41829 0.0
C334 C 0.19931 0.10096 0.40638 0.0
C335 C 0.1748 0.9766 0.45838 0.0
C336 C 0.30633 0.1657 0.4124 0.0
C337 C 0.34681 0.11338 0.47985 0.0
C338 C 0.37838 0.08598 0.47395 0.0
C339 C 0.30303 0.11056 0.46707 0.0
C340 C 0.291 0.08023 0.44775 0.0
C341 C 0.32436 0.05444 0.4413 0.0
C342 C 0.36728 0.05724 0.45454 0.0
C343 C 0.26799 0.13793 0.47472 0.0
C344 C 0.31355 0.02238 0.4207 0.0
H345 H 0.09542 0.9714 0.43161 0.0
H346 H 0.20498 0.13167 0.39323 0.0
H347 H 0.20249 0.95712 0.45489 0.0
H348 H 0.18792 0.99854 0.47383 0.0
H349 H 0.12829 0.94083 0.46071 0.0
H350 H 0.3044 0.19364 0.39912 0.0
H351 H 0.32265 0.19184 0.4268 0.0
H352 H 0.33875 0.15299 0.40718 0.0
H353 H 0.35487 0.13525 0.49492 0.0
H354 H 0.39208 0.03663 0.44977 0.0
H355 H 0.22175 0.10325 0.47889 0.0
H356 H 0.26782 0.16713 0.46158 0.0
H357 H 0.28547 0.16346 0.48921 0.0
H358 H 0.26939 0.98255 0.42227 0.0
H359 H 0.34654 0.00924 0.41699 0.0
H360 H 0.31443 0.05017 0.40677 0.0
C361 C 0.14768 0.20984 0.76424 0.0
C362 C 0.15526 0.1818 0.74654 0.0
C363 C 0.19456 0.24512 0.7767 0.0
C364 C 0.25089 0.25355 0.77117 0.0
C365 C 0.25881 0.22485 0.75349 0.0
C366 C 0.21079 0.1889 0.7415 0.0
C367 C 0.1839 0.27408 0.79563 0.0
C368 C 0.31832 0.23334 0.7469 0.0
C369 C 0.37644 0.39352 0.79048 0.0
C370 C 0.39006 0.3732 0.80924 0.0
C371 C 0.33298 0.35475 0.77745 0.0
C372 C 0.30159 0.29418 0.7835 0.0
C373 C 0.31615 0.27326 0.80216 0.0
C374 C 0.36053 0.313 0.81471 0.0
C375 C 0.31956 0.37884 0.75751 0.0
C376 C 0.28323 0.20919 0.80936 0.0
H377 H 0.10485 0.2042 0.76841 0.0
H378 H 0.21713 0.16764 0.72779 0.0
H379 H 0.19872 0.26321 0.81064 0.0
H380 H 0.2098 0.32221 0.79258 0.0
H381 H 0.13692 0.26059 0.79852 0.0
H382 H 0.31685 0.20645 0.73325 0.0
H383 H 0.34935 0.27996 0.74191 0.0
H384 H 0.33612 0.2219 0.76088 0.0
H385 H 0.39964 0.43998 0.78607 0.0
H386 H 0.37062 0.29718 0.8293 0.0
H387 H 0.27472 0.37206 0.75978 0.0
H388 H 0.32062 0.35526 0.74313 0.0
H389 H 0.35104 0.42623 0.75406 0.0
H390 H 0.2368 0.19501 0.81406 0.0
H391 H 0.30229 0.19947 0.82339 0.0
H392 H 0.28329 0.18279 0.79579 0.0
C393 C 0.9125 0.01906 0.65038 0.0
C394 C 0.93801 0.05772 0.66681 0.0
C395 C 0.87003 0.02066 0.63807 0.0
C396 C 0.85226 0.06165 0.64238 0.0
C397 C 0.87689 0.0999 0.65929 0.0
C398 C 0.9196 0.0976 0.67125 0.0
C399 C 0.84505 0.97927 0.62015 0.0
C400 C 0.85881 0.1439 0.66452 0.0
C401 C 0.78827 0.10623 0.59681 0.0
C402 C 0.72778 0.07169 0.6023 0.0
C403 C 0.82915 0.10355 0.60974 0.0
C404 C 0.80921 0.06563 0.62875 0.0
C405 C 0.74824 0.03105 0.63451 0.0
C406 C 0.70829 0.03434 0.62119 0.0
C407 C 0.89372 0.1408 0.60291 0.0
C408 C 0.7252 0.99045 0.65472 0.0
H409 H 0.92652 0.98814 0.64684 0.0
H410 H 0.93897 0.1275 0.68397 0.0
H411 H 0.79656 0.95306 0.62269 0.0
H412 H 0.85577 0.00446 0.60429 0.0
H413 H 0.86234 0.94902 0.61922 0.0
H414 H 0.88018 0.16876 0.67876 0.0
H415 H 0.8705 0.17526 0.65032 0.0
H416 H 0.81056 0.12156 0.66789 0.0
H417 H 0.80368 0.13459 0.58209 0.0
H418 H 0.66167 0.00801 0.62568 0.0
H419 H 0.91275 0.11255 0.60017 0.0
H420 H 0.91715 0.16957 0.61602 0.0
H421 H 0.90211 0.16845 0.58782 0.0
H422 H 0.73899 0.95751 0.65373 0.0
H423 H 0.67661 0.96729 0.65715 0.0
H424 H 0.74407 0.0154 0.66919 0.0
C425 C 0.94771 0.9183 0.99387 0.0
C426 C 0.9239 0.94732 0.00522 0.0
C427 C 0.91344 0.87301 0.98047 0.0
C428 C 0.85364 0.85541 0.97882 0.0
C429 C 0.82894 0.88314 0.99092 0.0
C430 C 0.86447 0.92911 0.00373 0.0
C431 C 0.94172 0.84537 0.96751 0.0
C432 C 0.76511 0.86493 0.99005 0.0
C433 C 0.77343 0.78478 0.92894 0.0
C434 C 0.74097 0.72566 0.93609 0.0
C435 C 0.81202 0.82707 0.94238 0.0
C436 C 0.81727 0.81003 0.96372 0.0
C437 C 0.78513 0.75016 0.97092 0.0
C438 C 0.74782 0.70858 0.95691 0.0
C439 C 0.84633 0.89018 0.93388 0.0
C440 C 0.7885 0.7303 0.99367 0.0
H441 H 0.99367 0.93236 0.99485 0.0
H442 H 0.8456 0.95091 0.01264 0.0
H443 H 0.91684 0.79732 0.97081 0.0
H444 H 0.94067 0.85408 0.94991 0.0
H445 H 0.988 0.8623 0.97124 0.0
H446 H 0.75166 0.88793 1.00162 0.0
H447 H 0.75675 0.87439 0.97342 0.0
H448 H 0.73695 0.81719 0.99382 0.0
H449 H 0.76856 0.79792 0.91275 0.0
H450 H 0.72244 0.66287 0.96249 0.0
H451 H 0.89367 0.90873 0.93612 0.0
H452 H 0.83161 0.91606 0.94319 0.0
H453 H 0.8409 0.89558 0.91639 0.0
H454 H 0.83476 0.74601 0.99696 0.0
H455 H 0.76291 0.68202 0.99644 0.0
H456 H 0.77135 0.74946 0.00557 0.0
C457 C 0.09791 0.99135 0.31566 0.0
C458 C 0.05396 0.97518 0.33243 0.0
C459 C 0.10089 0.94916 0.30338 0.0
C460 C 0.05925 0.88924 0.30811 0.0
C461 C 0.01567 0.87258 0.32539 0.0
C462 C 0.01338 0.91575 0.33727 0.0
C463 C 0.14779 0.9688 0.285 0.0
C464 C 0.97085 0.80917 0.33111 0.0
C465 C 0.0279 0.78466 0.26313 0.0
C466 C 0.06161 0.75946 0.26824 0.0
C467 C 0.02687 0.82694 0.27594 0.0
C468 C 0.05996 0.8442 0.29445 0.0
C469 C 0.09387 0.81872 0.29977 0.0
C470 C 0.09454 0.77689 0.28653 0.0
C471 C 0.99068 0.85349 0.26954 0.0
C472 C 0.12925 0.83548 0.31949 0.0
H473 H 0.12939 0.0372 0.3118 0.0
H474 H 0.97945 0.90291 0.35027 0.0
H475 H 0.17402 0.94742 0.28723 0.0
H476 H 0.1271 0.95542 0.26938 0.0
H477 H 0.17789 0.01688 0.28381 0.0
H478 H 0.94174 0.80327 0.34569 0.0
H479 H 0.94333 0.7901 0.31726 0.0
H480 H 0.99315 0.78412 0.33415 0.0
H481 H 0.00298 0.77195 0.24885 0.0
H482 H 0.12022 0.75716 0.29068 0.0
H483 H 0.01927 0.90149 0.26668 0.0
H484 H 0.95761 0.84549 0.28294 0.0
H485 H 0.96759 0.83547 0.25464 0.0
H486 H 0.16187 0.88292 0.31817 0.0
H487 H 0.15278 0.81117 0.32153 0.0
H488 H 0.10003 0.82682 0.33431 0.0
C489 C 0.22293 0.11459 0.6539 0.0
C490 C 0.1841 0.06461 0.66715 0.0
C491 C 0.26839 0.11641 0.6406 0.0
C492 C 0.27485 0.06675 0.64029 0.0
C493 C 0.23635 0.01643 0.65389 0.0
C494 C 0.19167 0.0161 0.66726 0.0
C495 C 0.30892 0.1712 0.62659 0.0
C496 C 0.24144 0.96242 0.65388 0.0
C497 C 0.35192 0.0528 0.5892 0.0
C498 C 0.40811 0.07131 0.59588 0.0
C499 C 0.30786 0.05007 0.60362 0.0
C500 C 0.32059 0.06695 0.62516 0.0
C501 C 0.37741 0.08546 0.63197 0.0
C502 C 0.4204 0.08698 0.61727 0.0
C503 C 0.24779 0.02953 0.59574 0.0
C504 C 0.39298 0.10439 0.65468 0.0
H505 H 0.2176 0.1524 0.6538 0.0
H506 H 0.16173 0.97725 0.6774 0.0
H507 H 0.35523 0.18649 0.62971 0.0
H508 H 0.30396 0.16175 0.6092 0.0
H509 H 0.30001 0.20707 0.62955 0.0
H510 H 0.20929 0.92752 0.66585 0.0
H511 H 0.23417 0.94508 0.63749 0.0
H512 H 0.28625 0.97338 0.65765 0.0
H513 H 0.3426 0.04057 0.57264 0.0
H514 H 0.4639 0.10095 0.62238 0.0
H515 H 0.23754 0.06505 0.59651 0.0
H516 H 0.21401 0.9922 0.60645 0.0
H517 H 0.24439 0.01582 0.5788 0.0
H518 H 0.3872 0.14217 0.65765 0.0
H519 H 0.43888 0.11698 0.6575 0.0
H520 H 0.36304 0.06859 0.66676 0.0
C521 C 0.18173 0.25869 0.99452 0.0
C522 C 0.17214 0.20357 1.00149 0.0
C523 C 0.23103 0.29766 0.98083 0.0
C524 C 0.27198 0.28133 0.97372 0.0
C525 C 0.26317 0.22616 0.98088 0.0
C526 C 0.21351 0.18803 0.99474 0.0
C527 C 0.23891 0.35622 0.97377 0.0
C528 C 0.30573 0.20708 0.9736 0.0
C529 C 0.3641 0.36186 0.92154 0.0
C530 C 0.41619 0.40468 0.92956 0.0
C531 C 0.31749 0.3202 0.9357 0.0
C532 C 0.32314 0.3218 0.95843 0.0
C533 C 0.3764 0.36455 0.96651 0.0
C534 C 0.42238 0.40553 0.95194 0.0
C535 C 0.26165 0.27542 0.92638 0.0
C536 C 0.38418 0.36803 0.99057 0.0
H537 H 0.15052 0.27158 0.99975 0.0
H538 H 0.2066 0.14563 0.99998 0.0
H539 H 0.28204 0.39188 0.97823 0.0
H540 H 0.23854 0.35992 0.95584 0.0
H541 H 0.204 0.36299 0.98122 0.0
H542 H 0.29359 0.16355 0.98105 0.0
H543 H 0.30728 0.20519 0.95567 0.0
H544 H 0.35058 0.23939 0.97786 0.0
H545 H 0.35969 0.36156 0.90417 0.0
H546 H 0.46287 0.43896 0.95801 0.0
H547 H 0.2252 0.28235 0.93174 0.0
H548 H 0.24957 0.23082 0.9325 0.0
H549 H 0.26563 0.27771 0.90834 0.0
H550 H 0.35286 0.37888 0.99862 0.0
H551 H 0.42936 0.40154 0.99415 0.0
H552 H 0.37425 0.32511 0.99786 0.0
C553 C 1.00159 0.20501 0.3217 0.0
C554 C 0.04785 0.21429 0.33432 0.0
C555 C 0.00446 0.25061 0.30863 0.0
C556 C 0.05522 0.30688 0.30787 0.0
C557 C 0.10175 0.31681 0.32084 0.0
C558 C 0.09734 0.27047 0.33404 0.0
C559 C 0.95349 0.23827 0.29532 0.0
C560 C 0.15684 0.37598 0.32033 0.0
C561 C 0.08332 0.40344 0.25673 0.0
C562 C 0.06321 0.44018 0.26379 0.0
C563 C 0.08238 0.36091 0.27105 0.0
C564 C 0.06012 0.35456 0.29292 0.0
C565 C 0.04038 0.39218 0.30016 0.0
C566 C 0.04262 0.4349 0.28553 0.0
C567 C 0.10442 0.32221 0.2627 0.0
C568 C 0.01578 0.38651 0.32323 0.0
H569 H 0.96303 0.16181 0.32191 0.0
H570 H 0.13336 0.27792 0.34368 0.0
H571 H 0.93819 0.26926 0.29881 0.0
H572 H 0.96771 0.24478 0.27777 0.0
H573 H 0.91598 0.19303 0.29859 0.0
H574 H 0.18825 0.37711 0.33187 0.0
H575 H 0.17883 0.38788 0.30371 0.0
H576 H 0.14576 0.40978 0.32437 0.0
H577 H 0.09942 0.40784 0.2399 0.0
H578 H 0.02749 0.46374 0.29096 0.0
H579 H 0.06795 0.27617 0.26365 0.0
H580 H 0.13854 0.32427 0.27298 0.0
H581 H 0.12319 0.33479 0.24561 0.0
H582 H 0.97619 0.34267 0.3266 0.0
H583 H 0.0037 0.42009 0.32645 0.0
H584 H 0.04825 0.39047 0.33476 0.0
loop_
_geom_bond_atom_site_label_1
_geom_bond_atom_site_label_2
_geom_bond_distance
_geom_bond_site_symmetry_2
_ccdc_geom_bond_type
Co0 O1 2.216 1_545 S
Co0 O2 2.091 . S
Co0 O4 2.004 . S
Co0 O10 2.021 . S
Co0 O12 2.137 . S
Co0 O13 2.244 . S
O1 Co0 2.216 1_565 S
O1 C8 1.247 . S
O2 Co0 2.091 . S
O2 C8 1.261 1_545 S
C3 O12 1.247 . S
C3 O13 1.272 . S
O4 Co0 2.004 . S
O4 C9 1.259 . S
Co5 O6 2.061 . S
Co5 O11 2.052 1_455 S
Co5 O13 2.135 . S
O6 Co5 2.061 . S
O6 C9 1.235 . S
C7 O10 1.231 1_655 S
C7 O11 1.258 . S
C8 O1 1.247 . S
C8 O2 1.261 1_565 S
C9 O4 1.259 . S
C9 O6 1.235 . S
O10 Co0 2.021 . S
O10 C7 1.231 1_455 S
O11 Co5 2.052 1_655 S
O11 C7 1.258 . S
O12 Co0 2.137 . S
O12 C3 1.247 . S
O13 Co0 2.244 . S
O13 C3 1.272 . S
O13 Co5 2.135 . S
Co14 O15 2.216 . S
Co14 O16 2.091 . S
Co14 O18 2.004 . S
Co14 O24 2.021 . S
Co14 O26 2.137 . S
Co14 O27 2.244 . S
O15 Co14 2.216 . S
O15 C22 1.247 . S
O16 Co14 2.091 . S
O16 C22 1.261 . S
C17 O26 1.247 . S
C17 O27 1.272 . S
O18 Co14 2.004 . S
O18 C23 1.259 . S
Co19 O20 2.061 1_665 S
Co19 O25 2.052 1_565 S
Co19 O27 2.135 1_665 S
O20 Co19 2.061 1_445 S
O20 C23 1.235 . S
C21 O24 1.238 1_655 S
C21 O25 1.241 . S
C22 O15 1.247 . S
C22 O16 1.261 . S
C23 O18 1.259 . S
C23 O20 1.235 . S
O24 Co14 2.021 . S
O24 C21 1.238 1_455 S
O25 Co19 2.052 1_545 S
O25 C21 1.241 . S
O26 Co14 2.137 . S
O26 C17 1.247 . S
O27 Co14 2.244 . S
O27 C17 1.272 . S
O27 Co19 2.135 1_445 S
Co28 O29 2.216 . S
Co28 O30 2.091 . S
Co28 O32 2.004 1_545 S
Co28 O38 2.021 . S
Co28 O40 2.137 . S
Co28 O41 2.244 . S
O29 Co28 2.216 . S
O29 C36 1.247 . S
O30 Co28 2.091 . S
O30 C36 1.261 . S
C31 O40 1.247 1_655 S
C31 O41 1.272 1_655 S
O32 Co28 2.004 1_565 S
O32 C37 1.259 1_455 S
Co33 O34 2.061 . S
Co33 O39 2.052 1_655 S
Co33 O41 2.135 1_655 S
O34 Co33 2.061 . S
O34 C37 1.235 1_545 S
C35 O38 1.238 . S
C35 O39 1.241 . S
C36 O29 1.247 . S
C36 O30 1.261 . S
C37 O32 1.259 1_655 S
C37 O34 1.235 1_565 S
O38 Co28 2.021 . S
O38 C35 1.238 . S
O39 Co33 2.052 1_455 S
O39 C35 1.241 . S
O40 Co28 2.137 . S
O40 C31 1.247 1_455 S
O41 Co28 2.244 . S
O41 C31 1.272 1_455 S
O41 Co33 2.135 1_455 S
C42 C43 1.443 . S
C42 N46 1.376 . S
C42 C80 1.389 . S
C43 C42 1.443 . S
C43 C44 1.340 . S
C43 H83 0.951 . S
C44 C43 1.340 . S
C44 C45 1.439 . S
C44 H84 0.950 . S
C45 C44 1.439 . S
C45 N46 1.374 . S
C45 C79 1.395 . S
N46 C42 1.376 . S
N46 C45 1.374 . S
N46 Co47 2.008 . S
Co47 N46 2.008 . S
Co47 N48 1.995 . S
Co47 N53 2.008 1_455 S
Co47 N58 1.995 1_455 S
Co47 N63 2.282 . S
Co47 N69 2.282 . S
N48 Co47 1.995 . S
N48 C49 1.376 . S
N48 C52 1.383 . S
C49 N48 1.376 . S
C49 C50 1.446 . S
C49 C79 1.391 . S
C50 C49 1.446 . S
C50 C51 1.339 . S
C50 H85 0.949 . S
C51 C50 1.339 . S
C51 C52 1.439 . S
C51 H86 0.950 . S
C52 N48 1.383 . S
C52 C51 1.439 . S
C52 C81 1.392 . S
N53 Co47 2.008 1_655 S
N53 C54 1.376 . S
N53 C57 1.374 . S
C54 N53 1.376 . S
C54 C55 1.443 . S
C54 C81 1.389 1_655 S
C55 C54 1.443 . S
C55 C56 1.340 . S
C55 H87 0.951 . S
C56 C55 1.340 . S
C56 C57 1.439 . S
C56 H88 0.950 . S
C57 N53 1.374 . S
C57 C56 1.439 . S
C57 C82 1.395 . S
N58 Co47 1.995 1_655 S
N58 C59 1.376 . S
N58 C62 1.383 . S
C59 N58 1.376 . S
C59 C60 1.446 . S
C59 C82 1.391 . S
C60 C59 1.446 . S
C60 C61 1.339 . S
C60 H89 0.949 . S
C61 C60 1.339 . S
C61 C62 1.439 . S
C61 H90 0.950 . S
C62 N58 1.383 . S
C62 C61 1.439 . S
C62 C80 1.392 1_655 S
N63 Co47 2.282 . S
N63 C66 1.332 1_455 S
N63 C68 1.332 . S
C64 C65 1.386 1_455 S
C64 C67 1.388 . S
C65 C64 1.386 1_655 S
C65 C66 1.382 . S
C65 H91 0.950 . S
C66 N63 1.332 1_655 S
C66 C65 1.382 . S
C66 H77 0.952 . S
C67 C64 1.388 . S
C67 C68 1.382 . S
C67 H92 0.950 . S
C68 N63 1.332 . S
C68 C67 1.382 . S
C68 H78 0.948 . S
N69 Co47 2.282 . S
N69 C73 1.332 . S
N69 C74 1.332 1_455 S
C70 C71 1.388 1_655 S
C70 C74 1.382 . S
C70 H93 0.950 . S
C71 C70 1.388 1_455 S
C71 C72 1.386 . S
C72 C71 1.386 . S
C72 C73 1.382 . S
C72 H94 0.950 . S
C73 N69 1.332 . S
C73 C72 1.382 . S
C73 H75 0.952 . S
C74 N69 1.332 1_655 S
C74 C70 1.382 . S
C74 H76 0.948 . S
H75 C73 0.952 . S
H76 C74 0.948 . S
H77 C66 0.952 . S
H78 C68 0.948 . S
C79 C45 1.395 . S
C79 C49 1.391 . S
C80 C42 1.389 . S
C80 C62 1.392 1_455 S
C81 C52 1.392 . S
C81 C54 1.389 1_455 S
C82 C57 1.395 . S
C82 C59 1.391 . S
H83 C43 0.951 . S
H84 C44 0.950 . S
H85 C50 0.949 . S
H86 C51 0.950 . S
H87 C55 0.951 . S
H88 C56 0.950 . S
H89 C60 0.949 . S
H90 C61 0.950 . S
H91 C65 0.950 . S
H92 C67 0.950 . S
H93 C70 0.950 . S
H94 C72 0.950 . S
C95 C96 1.443 1_545 S
C95 N99 1.376 . S
C95 C133 1.389 . S
C96 C95 1.443 1_565 S
C96 C97 1.340 . S
C96 H136 0.951 . S
C97 C96 1.340 . S
C97 C98 1.439 . S
C97 H137 0.950 . S
C98 C97 1.439 . S
C98 N99 1.374 1_565 S
C98 C132 1.395 . S
N99 C95 1.376 . S
N99 C98 1.374 1_545 S
N99 Co100 2.008 . S
Co100 N99 2.008 . S
Co100 N101 1.995 . S
Co100 N106 2.008 . S
Co100 N111 1.995 . S
Co100 N116 2.282 . S
Co100 N122 2.282 . S
N101 Co100 1.995 . S
N101 C102 1.376 1_545 S
N101 C105 1.383 . S
C102 N101 1.376 1_565 S
C102 C103 1.446 . S
C102 C132 1.391 . S
C103 C102 1.446 . S
C103 C104 1.339 . S
C103 H138 0.949 . S
C104 C103 1.339 . S
C104 C105 1.439 1_565 S
C104 H139 0.950 . S
C105 N101 1.383 . S
C105 C104 1.439 1_545 S
C105 C134 1.392 . S
N106 Co100 2.008 . S
N106 C107 1.376 . S
N106 C110 1.374 . S
C107 N106 1.376 . S
C107 C108 1.443 . S
C107 C134 1.389 . S
C108 C107 1.443 . S
C108 C109 1.340 . S
C108 H140 0.951 . S
C109 C108 1.340 . S
C109 C110 1.439 . S
C109 H141 0.950 . S
C110 N106 1.374 . S
C110 C109 1.439 . S
C110 C135 1.395 . S
N111 Co100 1.995 . S
N111 C112 1.376 . S
N111 C115 1.383 . S
C112 N111 1.376 . S
C112 C113 1.446 . S
C112 C135 1.391 . S
C113 C112 1.446 . S
C113 C114 1.339 . S
C113 H142 0.949 . S
C114 C113 1.339 . S
C114 C115 1.439 . S
C114 H143 0.950 . S
C115 N111 1.383 . S
C115 C114 1.439 . S
C115 C133 1.392 . S
N116 Co100 2.282 . S
N116 C119 1.332 . S
N116 C121 1.332 . S
C117 C118 1.386 . S
C117 C120 1.388 . S
C118 C117 1.386 . S
C118 C119 1.382 . S
C118 H144 0.950 . S
C119 N116 1.332 . S
C119 C118 1.382 . S
C119 H130 0.952 . S
C120 C117 1.388 . S
C120 C121 1.382 . S
C120 H145 0.950 1_545 S
C121 N116 1.332 . S
C121 C120 1.382 . S
C121 H131 0.948 1_545 S
N122 Co100 2.282 . S
N122 C126 1.332 . S
N122 C127 1.332 . S
C123 C124 1.388 . S
C123 C127 1.382 . S
C123 H146 0.950 . S
C124 C123 1.388 . S
C124 C125 1.386 . S
C125 C124 1.386 . S
C125 C126 1.382 . S
C125 H147 0.950 1_545 S
C126 N122 1.332 . S
C126 C125 1.382 . S
C126 H128 0.952 . S
C127 N122 1.332 . S
C127 C123 1.382 . S
C127 H129 0.948 . S
H128 C126 0.952 . S
H129 C127 0.948 . S
H130 C119 0.952 . S
H131 C121 0.948 1_565 S
C132 C98 1.395 . S
C132 C102 1.391 . S
C133 C95 1.389 . S
C133 C115 1.392 . S
C134 C105 1.392 . S
C134 C107 1.389 . S
C135 C110 1.395 . S
C135 C112 1.391 . S
H136 C96 0.951 . S
H137 C97 0.950 . S
H138 C103 0.949 . S
H139 C104 0.950 . S
H140 C108 0.951 . S
H141 C109 0.950 . S
H142 C113 0.949 . S
H143 C114 0.950 . S
H144 C118 0.950 . S
H145 C120 0.950 1_565 S
H146 C123 0.950 . S
H147 C125 0.950 1_565 S
C148 C149 1.443 . S
C148 N152 1.376 . S
C148 C186 1.389 . S
C149 C148 1.443 . S
C149 C150 1.340 . S
C149 H189 0.951 . S
C150 C149 1.340 . S
C150 C151 1.439 . S
C150 H190 0.950 . S
C151 C150 1.439 . S
C151 N152 1.374 . S
C151 C185 1.395 . S
N152 C148 1.376 . S
N152 C151 1.374 . S
N152 Co153 2.008 . S
Co153 N152 2.008 . S
Co153 N154 1.995 . S
Co153 N159 2.008 . S
Co153 N164 1.995 . S
Co153 N169 2.282 . S
Co153 N175 2.282 . S
N154 Co153 1.995 . S
N154 C155 1.376 . S
N154 C158 1.383 . S
C155 N154 1.376 . S
C155 C156 1.446 . S
C155 C185 1.391 . S
C156 C155 1.446 . S
C156 C157 1.339 . S
C156 H191 0.949 . S
C157 C156 1.339 . S
C157 C158 1.439 . S
C157 H192 0.950 . S
C158 N154 1.383 . S
C158 C157 1.439 . S
C158 C187 1.392 . S
N159 Co153 2.008 . S
N159 C160 1.376 . S
N159 C163 1.374 . S
C160 N159 1.376 . S
C160 C161 1.443 . S
C160 C187 1.389 . S
C161 C160 1.443 . S
C161 C162 1.340 . S
C161 H193 0.951 . S
C162 C161 1.340 . S
C162 C163 1.439 . S
C162 H194 0.950 . S
C163 N159 1.374 . S
C163 C162 1.439 . S
C163 C188 1.395 . S
N164 Co153 1.995 . S
N164 C165 1.376 . S
N164 C168 1.383 . S
C165 N164 1.376 . S
C165 C166 1.446 . S
C165 C188 1.391 . S
C166 C165 1.446 . S
C166 C167 1.339 . S
C166 H195 0.949 . S
C167 C166 1.339 . S
C167 C168 1.439 . S
C167 H196 0.950 . S
C168 N164 1.383 . S
C168 C167 1.439 . S
C168 C186 1.392 . S
N169 Co153 2.282 . S
N169 C172 1.332 . S
N169 C174 1.332 . S
C170 C171 1.386 . S
C170 C173 1.388 . S
C171 C170 1.386 . S
C171 C172 1.382 . S
C171 H197 0.950 . S
C172 N169 1.332 . S
C172 C171 1.382 . S
C172 H183 0.952 . S
C173 C170 1.388 . S
C173 C174 1.382 . S
C173 H198 0.950 . S
C174 N169 1.332 . S
C174 C173 1.382 . S
C174 H184 0.948 . S
N175 Co153 2.282 . S
N175 C179 1.332 . S
N175 C180 1.332 . S
C176 C177 1.388 . S
C176 C180 1.382 . S
C176 H199 0.950 . S
C177 C176 1.388 . S
C177 C178 1.386 . S
C178 C177 1.386 . S
C178 C179 1.382 . S
C178 H200 0.950 . S
C179 N175 1.332 . S
C179 C178 1.382 . S
C179 H181 0.952 . S
C180 N175 1.332 . S
C180 C176 1.382 . S
C180 H182 0.948 . S
H181 C179 0.952 . S
H182 C180 0.948 . S
H183 C172 0.952 . S
H184 C174 0.948 . S
C185 C151 1.395 . S
C185 C155 1.391 . S
C186 C148 1.389 . S
C186 C168 1.392 . S
C187 C158 1.392 . S
C187 C160 1.389 . S
C188 C163 1.395 . S
C188 C165 1.391 . S
H189 C149 0.951 . S
H190 C150 0.950 . S
H191 C156 0.949 . S
H192 C157 0.950 . S
H193 C161 0.951 . S
H194 C162 0.950 . S
H195 C166 0.949 . S
H196 C167 0.950 . S
H197 C171 0.950 . S
H198 C173 0.950 . S
H199 C176 0.950 . S
H200 C178 0.950 . S
C201 C202 1.391 . S
C201 C203 1.394 . S
C201 H217 0.931 . S
C202 C201 1.391 . S
C202 C206 1.376 . S
C203 C201 1.394 . S
C203 C204 1.369 . S
C203 C207 1.531 . S
C204 C203 1.369 . S
C204 C205 1.410 . S
C204 C212 1.503 . S
C205 C204 1.410 . S
C205 C206 1.392 . S
C205 C208 1.511 . S
C206 C202 1.376 . S
C206 C205 1.392 . S
C206 H218 0.929 . S
C207 C203 1.531 . S
C207 H219 0.960 . S
C207 H220 0.962 1_455 S
C207 H221 0.960 . S
C208 C205 1.511 . S
C208 H222 0.961 . S
C208 H223 0.961 . S
C208 H224 0.961 . S
C209 C210 1.370 1_655 S
C209 C211 1.358 1_655 S
C209 H225 0.931 . S
C210 C209 1.370 1_455 S
C210 C214 1.408 . S
C211 C209 1.358 1_455 S
C211 C212 1.382 . S
C211 C215 1.518 1_455 S
C212 C204 1.503 . S
C212 C211 1.382 . S
C212 C213 1.403 . S
C213 C212 1.403 . S
C213 C214 1.404 . S
C213 C216 1.539 . S
C214 C210 1.408 . S
C214 C213 1.404 . S
C214 H226 0.930 . S
C215 C211 1.518 1_655 S
C215 H227 0.956 . S
C215 H228 0.961 . S
C215 H229 0.961 . S
C216 C213 1.539 . S
C216 H230 0.958 . S
C216 H231 0.961 . S
C216 H232 0.960 . S
H217 C201 0.931 . S
H218 C206 0.929 . S
H219 C207 0.960 . S
H220 C207 0.962 1_655 S
H221 C207 0.960 . S
H222 C208 0.961 . S
H223 C208 0.961 . S
H224 C208 0.961 . S
H225 C209 0.931 . S
H226 C214 0.930 . S
H227 C215 0.956 . S
H228 C215 0.961 . S
H229 C215 0.961 . S
H230 C216 0.958 . S
H231 C216 0.961 . S
H232 C216 0.960 . S
C233 C234 1.391 . S
C233 C235 1.394 . S
C233 H249 0.931 . S
C234 C233 1.391 . S
C234 C238 1.376 . S
C235 C233 1.394 . S
C235 C236 1.369 . S
C235 C239 1.531 . S
C236 C235 1.369 . S
C236 C237 1.410 . S
C236 C244 1.503 . S
C237 C236 1.410 . S
C237 C238 1.392 . S
C237 C240 1.511 . S
C238 C234 1.376 . S
C238 C237 1.392 . S
C238 H250 0.929 . S
C239 C235 1.531 . S
C239 H251 0.960 . S
C239 H252 0.962 . S
C239 H253 0.960 . S
C240 C237 1.511 . S
C240 H254 0.961 . S
C240 H255 0.961 . S
C240 H256 0.961 . S
C241 C242 1.370 . S
C241 C243 1.363 . S
C241 H257 0.931 . S
C242 C241 1.370 . S
C242 C246 1.408 . S
C243 C241 1.363 . S
C243 C244 1.370 . S
C243 C247 1.524 1_545 S
C244 C236 1.503 . S
C244 C243 1.370 . S
C244 C245 1.403 . S
C245 C244 1.403 . S
C245 C246 1.404 . S
C245 C248 1.539 . S
C246 C242 1.408 . S
C246 C245 1.404 . S
C246 H258 0.930 . S
C247 C243 1.524 1_565 S
C247 H259 0.956 . S
C247 H260 0.961 . S
C247 H261 0.961 . S
C248 C245 1.539 . S
C248 H262 0.958 . S
C248 H263 0.961 . S
C248 H264 0.960 . S
H249 C233 0.931 . S
H250 C238 0.929 . S
H251 C239 0.960 . S
H252 C239 0.962 . S
H253 C239 0.960 . S
H254 C240 0.961 . S
H255 C240 0.961 . S
H256 C240 0.961 . S
H257 C241 0.931 . S
H258 C246 0.930 . S
H259 C247 0.956 . S
H260 C247 0.961 . S
H261 C247 0.961 . S
H262 C248 0.958 . S
H263 C248 0.961 . S
H264 C248 0.960 . S
C265 C266 1.391 . S
C265 C267 1.394 . S
C265 H281 0.931 . S
C266 C265 1.391 . S
C266 C270 1.376 . S
C267 C265 1.394 . S
C267 C268 1.369 . S
C267 C271 1.531 . S
C268 C267 1.369 . S
C268 C269 1.410 . S
C268 C276 1.503 . S
C269 C268 1.410 . S
C269 C270 1.392 . S
C269 C272 1.511 . S
C270 C266 1.376 . S
C270 C269 1.392 . S
C270 H282 0.929 . S
C271 C267 1.531 . S
C271 H283 0.960 . S
C271 H284 0.962 . S
C271 H285 0.960 . S
C272 C269 1.511 . S
C272 H286 0.961 . S
C272 H287 0.961 . S
C272 H288 0.961 . S
C273 C274 1.370 . S
C273 C275 1.363 . S
C273 H289 0.931 . S
C274 C273 1.370 . S
C274 C278 1.408 . S
C275 C273 1.363 . S
C275 C276 1.370 . S
C275 C279 1.524 . S
C276 C268 1.503 . S
C276 C275 1.370 . S
C276 C277 1.403 . S
C277 C276 1.403 . S
C277 C278 1.404 . S
C277 C280 1.539 . S
C278 C274 1.408 . S
C278 C277 1.404 . S
C278 H290 0.930 . S
C279 C275 1.524 . S
C279 H291 0.956 . S
C279 H292 0.961 . S
C279 H293 0.961 . S
C280 C277 1.539 . S
C280 H294 0.958 . S
C280 H295 0.961 . S
C280 H296 0.960 . S
H281 C265 0.931 . S
H282 C270 0.929 . S
H283 C271 0.960 . S
H284 C271 0.962 . S
H285 C271 0.960 . S
H286 C272 0.961 . S
H287 C272 0.961 . S
H288 C272 0.961 . S
H289 C273 0.931 . S
H290 C278 0.930 . S
H291 C279 0.956 . S
H292 C279 0.961 . S
H293 C279 0.961 . S
H294 C280 0.958 . S
H295 C280 0.961 . S
H296 C280 0.960 . S
C297 C298 1.391 . S
C297 C299 1.394 . S
C297 H313 0.931 . S
C298 C297 1.391 . S
C298 C302 1.376 . S
C299 C297 1.394 . S
C299 C300 1.369 . S
C299 C303 1.531 . S
C300 C299 1.369 . S
C300 C301 1.410 1_455 S
C300 C308 1.503 . S
C301 C300 1.410 1_655 S
C301 C302 1.392 1_655 S
C301 C304 1.511 . S
C302 C298 1.376 . S
C302 C301 1.392 1_455 S
C302 H314 0.929 1_455 S
C303 C299 1.531 . S
C303 H315 0.960 . S
C303 H316 0.962 . S
C303 H317 0.960 . S
C304 C301 1.511 . S
C304 H318 0.961 . S
C304 H319 0.961 . S
C304 H320 0.961 . S
C305 C306 1.370 . S
C305 C307 1.363 . S
C305 H321 0.931 . S
C306 C305 1.370 . S
C306 C310 1.408 . S
C307 C305 1.363 . S
C307 C308 1.370 . S
C307 C311 1.524 . S
C308 C300 1.503 . S
C308 C307 1.370 . S
C308 C309 1.403 . S
C309 C308 1.403 . S
C309 C310 1.404 . S
C309 C312 1.539 1_455 S
C310 C306 1.408 . S
C310 C309 1.404 . S
C310 H322 0.930 1_455 S
C311 C307 1.524 . S
C311 H323 0.956 . S
C311 H324 0.961 . S
C311 H325 0.961 . S
C312 C309 1.539 1_655 S
C312 H326 0.958 1_655 S
C312 H327 0.961 . S
C312 H328 0.960 . S
H313 C297 0.931 . S
H314 C302 0.929 1_655 S
H315 C303 0.960 . S
H316 C303 0.962 . S
H317 C303 0.960 . S
H318 C304 0.961 . S
H319 C304 0.961 . S
H320 C304 0.961 . S
H321 C305 0.931 . S
H322 C310 0.930 1_655 S
H323 C311 0.956 . S
H324 C311 0.961 . S
H325 C311 0.961 . S
H326 C312 0.958 1_455 S
H327 C312 0.961 . S
H328 C312 0.960 . S
C329 C330 1.391 . S
C329 C331 1.394 . S
C329 H345 0.931 . S
C330 C329 1.391 . S
C330 C334 1.376 . S
C331 C329 1.394 . S
C331 C332 1.369 . S
C331 C335 1.531 . S
C332 C331 1.369 . S
C332 C333 1.410 . S
C332 C340 1.503 . S
C333 C332 1.410 . S
C333 C334 1.392 . S
C333 C336 1.511 . S
C334 C330 1.376 . S
C334 C333 1.392 . S
C334 H346 0.929 . S
C335 C331 1.531 . S
C335 H347 0.960 . S
C335 H348 0.962 . S
C335 H349 0.960 1_545 S
C336 C333 1.511 . S
C336 H350 0.961 . S
C336 H351 0.961 . S
C336 H352 0.961 . S
C337 C338 1.370 . S
C337 C339 1.363 . S
C337 H353 0.931 . S
C338 C337 1.370 . S
C338 C342 1.408 . S
C339 C337 1.363 . S
C339 C340 1.370 . S
C339 C343 1.524 . S
C340 C332 1.503 . S
C340 C339 1.370 . S
C340 C341 1.403 . S
C341 C340 1.403 . S
C341 C342 1.404 . S
C341 C344 1.539 1_545 S
C342 C338 1.408 . S
C342 C341 1.404 . S
C342 H354 0.930 . S
C343 C339 1.524 . S
C343 H355 0.956 . S
C343 H356 0.961 . S
C343 H357 0.961 . S
C344 C341 1.539 1_565 S
C344 H358 0.958 . S
C344 H359 0.961 . S
C344 H360 0.960 . S
H345 C329 0.931 . S
H346 C334 0.929 . S
H347 C335 0.960 . S
H348 C335 0.962 . S
H349 C335 0.960 1_565 S
H350 C336 0.961 . S
H351 C336 0.961 . S
H352 C336 0.961 . S
H353 C337 0.931 . S
H354 C342 0.930 . S
H355 C343 0.956 . S
H356 C343 0.961 . S
H357 C343 0.961 . S
H358 C344 0.958 . S
H359 C344 0.961 . S
H360 C344 0.960 . S
C361 C362 1.391 . S
C361 C363 1.394 . S
C361 H377 0.931 . S
C362 C361 1.391 . S
C362 C366 1.376 . S
C363 C361 1.394 . S
C363 C364 1.369 . S
C363 C367 1.531 . S
C364 C363 1.369 . S
C364 C365 1.410 . S
C364 C372 1.503 . S
C365 C364 1.410 . S
C365 C366 1.392 . S
C365 C368 1.511 . S
C366 C362 1.376 . S
C366 C365 1.392 . S
C366 H378 0.929 . S
C367 C363 1.531 . S
C367 H379 0.960 . S
C367 H380 0.962 . S
C367 H381 0.960 . S
C368 C365 1.511 . S
C368 H382 0.961 . S
C368 H383 0.961 . S
C368 H384 0.961 . S
C369 C370 1.370 . S
C369 C371 1.363 . S
C369 H385 0.931 . S
C370 C369 1.370 . S
C370 C374 1.408 . S
C371 C369 1.363 . S
C371 C372 1.370 . S
C371 C375 1.524 . S
C372 C364 1.503 . S
C372 C371 1.370 . S
C372 C373 1.403 . S
C373 C372 1.403 . S
C373 C374 1.404 . S
C373 C376 1.539 . S
C374 C370 1.408 . S
C374 C373 1.404 . S
C374 H386 0.930 . S
C375 C371 1.524 . S
C375 H387 0.956 . S
C375 H388 0.961 . S
C375 H389 0.961 . S
C376 C373 1.539 . S
C376 H390 0.958 . S
C376 H391 0.961 . S
C376 H392 0.960 . S
H377 C361 0.931 . S
H378 C366 0.929 . S
H379 C367 0.960 . S
H380 C367 0.962 . S
H381 C367 0.960 . S
H382 C368 0.961 . S
H383 C368 0.961 . S
H384 C368 0.961 . S
H385 C369 0.931 . S
H386 C374 0.930 . S
H387 C375 0.956 . S
H388 C375 0.961 . S
H389 C375 0.961 . S
H390 C376 0.958 . S
H391 C376 0.961 . S
H392 C376 0.960 . S
C393 C394 1.391 . S
C393 C395 1.394 . S
C393 H409 0.931 . S
C394 C393 1.391 . S
C394 C398 1.376 . S
C395 C393 1.394 . S
C395 C396 1.369 . S
C395 C399 1.531 . S
C396 C395 1.369 . S
C396 C397 1.410 . S
C396 C404 1.503 . S
C397 C396 1.410 . S
C397 C398 1.392 . S
C397 C400 1.511 . S
C398 C394 1.376 . S
C398 C397 1.392 . S
C398 H410 0.929 . S
C399 C395 1.531 . S
C399 H411 0.960 . S
C399 H412 0.962 . S
C399 H413 0.960 . S
C400 C397 1.511 . S
C400 H414 0.961 . S
C400 H415 0.961 . S
C400 H416 0.961 . S
C401 C402 1.370 . S
C401 C403 1.363 . S
C401 H417 0.931 . S
C402 C401 1.370 . S
C402 C406 1.408 . S
C403 C401 1.363 . S
C403 C404 1.370 . S
C403 C407 1.524 . S
C404 C396 1.503 . S
C404 C403 1.370 . S
C404 C405 1.403 . S
C405 C404 1.403 . S
C405 C406 1.404 . S
C405 C408 1.539 1_545 S
C406 C402 1.408 . S
C406 C405 1.404 . S
C406 H418 0.930 1_545 S
C407 C403 1.524 . S
C407 H419 0.956 . S
C407 H420 0.961 . S
C407 H421 0.961 . S
C408 C405 1.539 1_565 S
C408 H422 0.958 . S
C408 H423 0.961 . S
C408 H424 0.960 . S
H409 C393 0.931 . S
H410 C398 0.929 . S
H411 C399 0.960 . S
H412 C399 0.962 . S
H413 C399 0.960 . S
H414 C400 0.961 . S
H415 C400 0.961 . S
H416 C400 0.961 . S
H417 C401 0.931 . S
H418 C406 0.930 1_565 S
H419 C407 0.956 . S
H420 C407 0.961 . S
H421 C407 0.961 . S
H422 C408 0.958 . S
H423 C408 0.961 . S
H424 C408 0.960 . S
C425 C426 1.391 . S
C425 C427 1.394 . S
C425 H441 0.931 1_655 S
C426 C425 1.391 . S
C426 C430 1.376 1_556 S
C427 C425 1.394 . S
C427 C428 1.369 . S
C427 C431 1.531 . S
C428 C427 1.369 . S
C428 C429 1.410 . S
C428 C436 1.503 . S
C429 C428 1.410 . S
C429 C430 1.392 1_556 S
C429 C432 1.516 . S
C430 C426 1.376 1_554 S
C430 C429 1.392 1_554 S
C430 H442 0.929 . S
C431 C427 1.531 . S
C431 H443 0.960 . S
C431 H444 0.962 . S
C431 H445 0.960 . S
C432 C429 1.516 . S
C432 H446 0.949 1_556 S
C432 H447 0.977 . S
C432 H448 0.952 1_556 S
C433 C434 1.370 . S
C433 C435 1.363 . S
C433 H449 0.931 . S
C434 C433 1.370 . S
C434 C438 1.408 . S
C435 C433 1.363 . S
C435 C436 1.370 . S
C435 C439 1.524 . S
C436 C428 1.503 . S
C436 C435 1.370 . S
C436 C437 1.403 . S
C437 C436 1.403 . S
C437 C438 1.404 . S
C437 C440 1.539 . S
C438 C434 1.408 . S
C438 C437 1.404 . S
C438 H450 0.930 . S
C439 C435 1.524 . S
C439 H451 0.956 . S
C439 H452 0.961 . S
C439 H453 0.961 . S
C440 C437 1.539 . S
C440 H454 0.958 . S
C440 H455 0.961 . S
C440 H456 0.960 . S
H441 C425 0.931 1_455 S
H442 C430 0.929 . S
H443 C431 0.960 . S
H444 C431 0.962 . S
H445 C431 0.960 . S
H446 C432 0.949 1_554 S
H447 C432 0.977 . S
H448 C432 0.952 1_554 S
H449 C433 0.931 . S
H450 C438 0.930 . S
H451 C439 0.956 . S
H452 C439 0.961 . S
H453 C439 0.961 . S
H454 C440 0.958 . S
H455 C440 0.961 . S
H456 C440 0.960 . S
C457 C458 1.391 . S
C457 C459 1.394 . S
C457 H473 0.931 1_565 S
C458 C457 1.391 . S
C458 C462 1.376 . S
C459 C457 1.394 . S
C459 C460 1.369 . S
C459 C463 1.531 . S
C460 C459 1.369 . S
C460 C461 1.410 . S
C460 C468 1.503 . S
C461 C460 1.410 . S
C461 C462 1.392 . S
C461 C464 1.511 1_455 S
C462 C458 1.376 . S
C462 C461 1.392 . S
C462 H474 0.929 1_455 S
C463 C459 1.531 . S
C463 H475 0.960 . S
C463 H476 0.962 . S
C463 H477 0.960 1_565 S
C464 C461 1.511 1_655 S
C464 H478 0.961 . S
C464 H479 0.961 . S
C464 H480 0.978 . S
C465 C466 1.370 1_655 S
C465 C467 1.363 . S
C465 H481 0.931 . S
C466 C465 1.370 1_455 S
C466 C470 1.408 . S
C467 C465 1.363 . S
C467 C468 1.370 1_655 S
C467 C471 1.524 . S
C468 C460 1.503 . S
C468 C467 1.370 1_455 S
C468 C469 1.403 . S
C469 C468 1.403 . S
C469 C470 1.404 . S
C469 C472 1.539 . S
C470 C466 1.408 . S
C470 C469 1.404 . S
C470 H482 0.930 . S
C471 C467 1.524 . S
C471 H483 0.956 . S
C471 H484 0.961 . S
C471 H485 0.961 . S
C472 C469 1.539 . S
C472 H486 0.958 . S
C472 H487 0.961 . S
C472 H488 0.960 . S
H473 C457 0.931 1_545 S
H474 C462 0.929 1_655 S
H475 C463 0.960 . S
H476 C463 0.962 . S
H477 C463 0.960 1_545 S
H478 C464 0.961 . S
H479 C464 0.961 . S
H480 C464 0.978 . S
H481 C465 0.931 . S
H482 C470 0.930 . S
H483 C471 0.956 . S
H484 C471 0.961 . S
H485 C471 0.961 . S
H486 C472 0.958 . S
H487 C472 0.961 . S
H488 C472 0.960 . S
C489 C490 1.391 . S
C489 C491 1.394 . S
C489 H505 0.931 . S
C490 C489 1.391 . S
C490 C494 1.376 . S
C491 C489 1.394 . S
C491 C492 1.369 . S
C491 C495 1.531 . S
C492 C491 1.369 . S
C492 C493 1.410 . S
C492 C500 1.503 . S
C493 C492 1.410 . S
C493 C494 1.392 . S
C493 C496 1.511 1_545 S
C494 C490 1.376 . S
C494 C493 1.392 . S
C494 H506 0.929 1_545 S
C495 C491 1.531 . S
C495 H507 0.960 . S
C495 H508 0.962 . S
C495 H509 0.960 . S
C496 C493 1.511 1_565 S
C496 H510 0.961 . S
C496 H511 0.961 . S
C496 H512 0.961 . S
C497 C498 1.370 . S
C497 C499 1.363 . S
C497 H513 0.931 . S
C498 C497 1.370 . S
C498 C502 1.408 . S
C499 C497 1.363 . S
C499 C500 1.370 . S
C499 C503 1.524 . S
C500 C492 1.503 . S
C500 C499 1.370 . S
C500 C501 1.403 . S
C501 C500 1.403 . S
C501 C502 1.404 . S
C501 C504 1.539 . S
C502 C498 1.408 . S
C502 C501 1.404 . S
C502 H514 0.930 . S
C503 C499 1.524 . S
C503 H515 0.956 . S
C503 H516 0.961 . S
C503 H517 0.961 . S
C504 C501 1.539 . S
C504 H518 0.958 . S
C504 H519 0.961 1_545 S
C504 H520 0.960 1_545 S
H505 C489 0.931 . S
H506 C494 0.929 1_565 S
H507 C495 0.960 . S
H508 C495 0.962 . S
H509 C495 0.960 . S
H510 C496 0.961 . S
H511 C496 0.961 . S
H512 C496 0.961 . S
H513 C497 0.931 . S
H514 C502 0.930 . S
H515 C503 0.956 . S
H516 C503 0.961 . S
H517 C503 0.961 . S
H518 C504 0.958 . S
H519 C504 0.961 1_565 S
H520 C504 0.960 1_565 S
C521 C522 1.391 . S
C521 C523 1.394 . S
C521 H537 0.931 . S
C522 C521 1.391 . S
C522 C526 1.376 . S
C523 C521 1.394 . S
C523 C524 1.369 . S
C523 C527 1.531 . S
C524 C523 1.369 . S
C524 C525 1.410 . S
C524 C532 1.503 . S
C525 C524 1.410 . S
C525 C526 1.392 . S
C525 C528 1.511 . S
C526 C522 1.376 . S
C526 C525 1.392 . S
C526 H538 0.929 . S
C527 C523 1.531 . S
C527 H539 0.960 . S
C527 H540 0.962 . S
C527 H541 0.960 . S
C528 C525 1.511 . S
C528 H542 0.961 . S
C528 H543 0.961 . S
C528 H544 0.961 . S
C529 C530 1.370 . S
C529 C531 1.363 . S
C529 H545 0.931 . S
C530 C529 1.370 . S
C530 C534 1.408 . S
C531 C529 1.363 . S
C531 C532 1.370 . S
C531 C535 1.524 . S
C532 C524 1.503 . S
C532 C531 1.370 . S
C532 C533 1.403 . S
C533 C532 1.403 . S
C533 C534 1.404 . S
C533 C536 1.539 . S
C534 C530 1.408 . S
C534 C533 1.404 . S
C534 H546 0.930 . S
C535 C531 1.524 . S
C535 H547 0.956 . S
C535 H548 0.961 . S
C535 H549 0.961 . S
C536 C533 1.539 . S
C536 H550 0.958 . S
C536 H551 0.961 . S
C536 H552 0.960 . S
H537 C521 0.931 . S
H538 C526 0.929 . S
H539 C527 0.960 . S
H540 C527 0.962 . S
H541 C527 0.960 . S
H542 C528 0.961 . S
H543 C528 0.961 . S
H544 C528 0.961 . S
H545 C529 0.931 . S
H546 C534 0.930 . S
H547 C535 0.956 . S
H548 C535 0.961 . S
H549 C535 0.961 . S
H550 C536 0.958 . S
H551 C536 0.961 . S
H552 C536 0.960 . S
C553 C554 1.384 1_655 S
C553 C555 1.397 . S
C553 H569 0.935 . S
C554 C553 1.384 1_455 S
C554 C558 1.376 . S
C555 C553 1.397 . S
C555 C556 1.369 1_655 S
C555 C559 1.531 . S
C556 C555 1.369 1_455 S
C556 C557 1.410 . S
C556 C564 1.503 . S
C557 C556 1.410 . S
C557 C558 1.392 . S
C557 C560 1.511 . S
C558 C554 1.376 . S
C558 C557 1.392 . S
C558 H570 0.929 . S
C559 C555 1.531 . S
C559 H571 0.960 . S
C559 H572 0.962 . S
C559 H573 0.960 . S
C560 C557 1.511 . S
C560 H574 0.961 . S
C560 H575 0.961 . S
C560 H576 0.961 . S
C561 C562 1.370 . S
C561 C563 1.363 . S
C561 H577 0.931 1_455 S
C562 C561 1.370 . S
C562 C566 1.408 . S
C563 C561 1.363 . S
C563 C564 1.370 . S
C563 C567 1.524 1_455 S
C564 C556 1.503 . S
C564 C563 1.370 . S
C564 C565 1.403 . S
C565 C564 1.403 . S
C565 C566 1.404 . S
C565 C568 1.539 . S
C566 C562 1.408 . S
C566 C565 1.404 . S
C566 H578 0.930 . S
C567 C563 1.524 1_655 S
C567 H579 0.956 . S
C567 H580 0.961 1_655 S
C567 H581 0.961 . S
C568 C565 1.539 . S
C568 H582 0.958 . S
C568 H583 0.961 . S
C568 H584 0.960 . S
H569 C553 0.935 . S
H570 C558 0.929 . S
H571 C559 0.960 . S
H572 C559 0.962 . S
H573 C559 0.960 . S
H574 C560 0.961 . S
H575 C560 0.961 . S
H576 C560 0.961 . S
H577 C561 0.931 1_655 S
H578 C566 0.930 . S
H579 C567 0.956 . S
H580 C567 0.961 1_455 S
H581 C567 0.961 . S
H582 C568 0.958 . S
H583 C568 0.961 . S
H584 C568 0.960 . S
C210 C64 1.494 . S
C202 C3 1.482 . S
C234 C21 1.522 . S
C242 C134 1.525 . S
C266 C37 1.475 . S
C274 C186 1.507 . S
C298 C8 1.497 . S
C306 C80 1.503 . S
C338 C124 1.505 . S
C330 C23 1.468 . S
C362 C35 1.482 . S
C370 C170 1.500 . S
C402 C117 1.486 . S
C394 C31 1.473 . S
C426 C7 1.485 1_566 S
C434 C177 1.499 . S
C466 C71 1.494 . S
C458 C17 1.487 1_565 S
C498 C133 1.471 . S
C490 C36 1.472 . S
C530 C187 1.504 . S
C522 C9 1.489 1_556 S
C554 C22 1.500 . S
C562 C81 1.499 . S
