# Generated by pormake.
# Topology ocu, (6,8)-cn, num edge types: 1
# Building blocks:
#     Node 0, Type 0, BuildingBlock: VOLQOD_clean_sbu_1, # of connection points: 6
#     Node 1, Type 0, BuildingBlock: VOLQOD_clean_sbu_1, # of connection points: 6
#     Node 2, Type 0, BuildingBlock: VOLQOD_clean_sbu_1, # of connection points: 6
#     Node 3, Type 0, BuildingBlock: VOLQOD_clean_sbu_1, # of connection points: 6
#     Node 4, Type 0, BuildingBlock: VOLQOD_clean_sbu_1, # of connection points: 6
#     Node 5, Type 0, BuildingBlock: VOLQOD_clean_sbu_1, # of connection points: 6
#     Node 6, Type 0, BuildingBlock: VOLQOD_clean_sbu_1, # of connection points: 6
#     Node 7, Type 0, BuildingBlock: VOLQOD_clean_sbu_1, # of connection points: 6
#     Node 8, Type 1, BuildingBlock: AJUNOK_clean_sbu_0, # of connection points: 8
#     Node 9, Type 1, BuildingBlock: AJUNOK_clean_sbu_0, # of connection points: 8
#     Node 10, Type 1, BuildingBlock: AJUNOK_clean_sbu_0, # of connection points: 8
#     Node 11, Type 1, BuildingBlock: AJUNOK_clean_sbu_0, # of connection points: 8
#     Node 12, Type 1, BuildingBlock: AJUNOK_clean_sbu_0, # of connection points: 8
#     Node 13, Type 1, BuildingBlock: AJUNOK_clean_sbu_0, # of connection points: 8
#     Edge 14, Type (0, 1), BuildingBlock: UVAHIK_clean_linker_0, # of connection points: 2
#     Edge 15, Type (0, 1), BuildingBlock: UVAHIK_clean_linker_0, # of connection points: 2
#     Edge 16, Type (0, 1), BuildingBlock: UVAHIK_clean_linker_0, # of connection points: 2
#     Edge 17, Type (0, 1), BuildingBlock: UVAHIK_clean_linker_0, # of connection points: 2
#     Edge 18, Type (0, 1), BuildingBlock: UVAHIK_clean_linker_0, # of connection points: 2
#     Edge 19, Type (0, 1), BuildingBlock: UVAHIK_clean_linker_0, # of connection points: 2
#     Edge 20, Type (0, 1), BuildingBlock: UVAHIK_clean_linker_0, # of connection points: 2
#     Edge 21, Type (0, 1), BuildingBlock: UVAHIK_clean_linker_0, # of connection points: 2
#     Edge 22, Type (0, 1), BuildingBlock: UVAHIK_clean_linker_0, # of connection points: 2
#     Edge 23, Type (0, 1), BuildingBlock: UVAHIK_clean_linker_0, # of connection points: 2
#     Edge 24, Type (0, 1), BuildingBlock: UVAHIK_clean_linker_0, # of connection points: 2
#     Edge 25, Type (0, 1), BuildingBlock: UVAHIK_clean_linker_0, # of connection points: 2
#     Edge 26, Type (0, 1), BuildingBlock: UVAHIK_clean_linker_0, # of connection points: 2
#     Edge 27, Type (0, 1), BuildingBlock: UVAHIK_clean_linker_0, # of connection points: 2
#     Edge 28, Type (0, 1), BuildingBlock: UVAHIK_clean_linker_0, # of connection points: 2
#     Edge 29, Type (0, 1), BuildingBlock: UVAHIK_clean_linker_0, # of connection points: 2
#     Edge 30, Type (0, 1), BuildingBlock: UVAHIK_clean_linker_0, # of connection points: 2
#     Edge 31, Type (0, 1), BuildingBlock: UVAHIK_clean_linker_0, # of connection points: 2
#     Edge 32, Type (0, 1), BuildingBlock: UVAHIK_clean_linker_0, # of connection points: 2
#     Edge 33, Type (0, 1), BuildingBlock: UVAHIK_clean_linker_0, # of connection points: 2
#     Edge 34, Type (0, 1), BuildingBlock: UVAHIK_clean_linker_0, # of connection points: 2
#     Edge 35, Type (0, 1), BuildingBlock: UVAHIK_clean_linker_0, # of connection points: 2
#     Edge 36, Type (0, 1), BuildingBlock: UVAHIK_clean_linker_0, # of connection points: 2
#     Edge 37, Type (0, 1), BuildingBlock: UVAHIK_clean_linker_0, # of connection points: 2
#     Edge 38, Type (0, 1), BuildingBlock: UVAHIK_clean_linker_0, # of connection points: 2
#     Edge 39, Type (0, 1), BuildingBlock: UVAHIK_clean_linker_0, # of connection points: 2
#     Edge 40, Type (0, 1), BuildingBlock: UVAHIK_clean_linker_0, # of connection points: 2
#     Edge 41, Type (0, 1), BuildingBlock: UVAHIK_clean_linker_0, # of connection points: 2
#     Edge 42, Type (0, 1), BuildingBlock: UVAHIK_clean_linker_0, # of connection points: 2
#     Edge 43, Type (0, 1), BuildingBlock: UVAHIK_clean_linker_0, # of connection points: 2
#     Edge 44, Type (0, 1), BuildingBlock: UVAHIK_clean_linker_0, # of connection points: 2
#     Edge 45, Type (0, 1), BuildingBlock: UVAHIK_clean_linker_0, # of connection points: 2
#     Edge 46, Type (0, 1), BuildingBlock: UVAHIK_clean_linker_0, # of connection points: 2
#     Edge 47, Type (0, 1), BuildingBlock: UVAHIK_clean_linker_0, # of connection points: 2
#     Edge 48, Type (0, 1), BuildingBlock: UVAHIK_clean_linker_0, # of connection points: 2
#     Edge 49, Type (0, 1), BuildingBlock: UVAHIK_clean_linker_0, # of connection points: 2
#     Edge 50, Type (0, 1), BuildingBlock: UVAHIK_clean_linker_0, # of connection points: 2
#     Edge 51, Type (0, 1), BuildingBlock: UVAHIK_clean_linker_0, # of connection points: 2
#     Edge 52, Type (0, 1), BuildingBlock: UVAHIK_clean_linker_0, # of connection points: 2
#     Edge 53, Type (0, 1), BuildingBlock: UVAHIK_clean_linker_0, # of connection points: 2
#     Edge 54, Type (0, 1), BuildingBlock: UVAHIK_clean_linker_0, # of connection points: 2
#     Edge 55, Type (0, 1), BuildingBlock: UVAHIK_clean_linker_0, # of connection points: 2
#     Edge 56, Type (0, 1), BuildingBlock: UVAHIK_clean_linker_0, # of connection points: 2
#     Edge 57, Type (0, 1), BuildingBlock: UVAHIK_clean_linker_0, # of connection points: 2
#     Edge 58, Type (0, 1), BuildingBlock: UVAHIK_clean_linker_0, # of connection points: 2
#     Edge 59, Type (0, 1), BuildingBlock: UVAHIK_clean_linker_0, # of connection points: 2
#     Edge 60, Type (0, 1), BuildingBlock: UVAHIK_clean_linker_0, # of connection points: 2
#     Edge 61, Type (0, 1), BuildingBlock: UVAHIK_clean_linker_0, # of connection points: 2
# Relax obj value: 0.279
# Max RMSD: 0.356
# Mean RMSD: 0.271
data_MOF--net-ocu--node1-VOLQOD_clean_sbu_1--node2-AJUNOK_clean_sbu_0--edge1-UVAHIK_clean_linker_0
_symmetry_space_group_name_H-M    P1
_symmetry_Int_Tables_number       1
_symmetry_cell_setting            triclinic
loop_
_symmetry_equiv_pos_as_xyz
'x, y, z'
_cell_length_a     53.603514
_cell_length_b     53.174289
_cell_length_c     44.235906
_cell_angle_alpha  95.854464
_cell_angle_beta   96.26658
_cell_angle_gamma 97.852913
loop_
_atom_site_label
_atom_site_type_symbol
_atom_site_fract_x
_atom_site_fract_y
_atom_site_fract_z
_atom_type_partial_charge
O0 O 0.27677 0.28157 0.27247 0.0
Zn1 Zn 0.25044 0.2522 0.28074 0.0
O2 O 0.23211 0.23336 0.24189 0.0
Zn3 Zn 0.19578 0.23476 0.23954 0.0
Zn4 Zn 0.24484 0.24826 0.20714 0.0
Zn5 Zn 0.23689 0.19756 0.23885 0.0
O6 O 0.17576 0.2003 0.24252 0.0
O7 O 0.20447 0.17408 0.2412 0.0
O8 O 0.22543 0.26709 0.3065 0.0
O9 O 0.18892 0.25713 0.27585 0.0
O10 O 0.18231 0.24873 0.20119 0.0
O11 O 0.21704 0.25895 0.17935 0.0
O12 O 0.26177 0.22355 0.18165 0.0
O13 O 0.26867 0.2285 0.30567 0.0
O14 O 0.25225 0.18693 0.20083 0.0
O15 O 0.26038 0.19186 0.27495 0.0
C16 C 0.28133 0.29024 0.24746 0.0
C17 C 0.18179 0.17801 0.24328 0.0
C18 C 0.19322 0.25791 0.17967 0.0
C19 C 0.20168 0.26784 0.30092 0.0
C20 C 0.26222 0.19962 0.18113 0.0
C21 C 0.271 0.205 0.29982 0.0
O22 O 0.27001 0.27954 0.22165 0.0
O23 O 0.74094 0.19212 0.21157 0.0
Zn24 Zn 0.76133 0.21972 0.24378 0.0
O25 O 0.73963 0.24355 0.26042 0.0
Zn26 Zn 0.75165 0.27813 0.25282 0.0
Zn27 Zn 0.70481 0.23418 0.24063 0.0
Zn28 Zn 0.74053 0.24344 0.30462 0.0
O29 O 0.75624 0.30317 0.29075 0.0
O30 O 0.75255 0.27856 0.32803 0.0
O31 O 0.79017 0.2389 0.22495 0.0
O32 O 0.7855 0.27939 0.23801 0.0
O33 O 0.72817 0.29041 0.22081 0.0
O34 O 0.69379 0.26123 0.21593 0.0
O35 O 0.68027 0.22624 0.27118 0.0
O36 O 0.77795 0.20289 0.27811 0.0
O37 O 0.70589 0.23114 0.31503 0.0
O38 O 0.76392 0.2198 0.31992 0.0
C39 C 0.71754 0.18874 0.20069 0.0
C40 C 0.75708 0.30057 0.31909 0.0
C41 C 0.70548 0.28192 0.20901 0.0
C42 C 0.79794 0.26281 0.2267 0.0
C43 C 0.68383 0.22544 0.30001 0.0
C44 C 0.77738 0.20499 0.307 0.0
O45 O 0.70231 0.2033 0.21001 0.0
O46 O 0.71412 0.70178 0.27796 0.0
Zn47 Zn 0.73934 0.73421 0.29037 0.0
O48 O 0.74956 0.749 0.25324 0.0
Zn49 Zn 0.78601 0.75069 0.25274 0.0
Zn50 Zn 0.73263 0.72868 0.21551 0.0
Zn51 Zn 0.74081 0.78323 0.25365 0.0
O52 O 0.80333 0.78696 0.26021 0.0
O53 O 0.77173 0.80987 0.25796 0.0
O54 O 0.76963 0.72293 0.31461 0.0
O55 O 0.80061 0.73226 0.28629 0.0
O56 O 0.79492 0.73382 0.21329 0.0
O57 O 0.75749 0.71643 0.18815 0.0
O58 O 0.70856 0.74789 0.19097 0.0
O59 O 0.72304 0.75916 0.31772 0.0
O60 O 0.71679 0.78669 0.21687 0.0
O61 O 0.72318 0.79169 0.29006 0.0
C62 C 0.70682 0.68917 0.25171 0.0
C63 C 0.79536 0.80848 0.26137 0.0
C64 C 0.78162 0.72029 0.19019 0.0
C65 C 0.79252 0.7227 0.30927 0.0
C66 C 0.70493 0.77118 0.19444 0.0
C67 C 0.71763 0.78131 0.31361 0.0
O68 O 0.71302 0.69735 0.22711 0.0
O69 O 0.27946 0.73583 0.30487 0.0
Zn70 Zn 0.25153 0.71793 0.27177 0.0
O71 O 0.22967 0.74192 0.25615 0.0
Zn72 Zn 0.19407 0.73024 0.2602 0.0
Zn73 Zn 0.23984 0.77565 0.27917 0.0
Zn74 Zn 0.23315 0.74436 0.21312 0.0
O75 O 0.17256 0.7222 0.21898 0.0
O76 O 0.20018 0.73137 0.18637 0.0
O77 O 0.23087 0.68958 0.28946 0.0
O78 O 0.19141 0.69761 0.27941 0.0
O79 O 0.17938 0.75556 0.28793 0.0
O80 O 0.21187 0.78677 0.30123 0.0
O81 O 0.25105 0.8025 0.25219 0.0
O82 O 0.26794 0.70123 0.23769 0.0
O83 O 0.24559 0.78032 0.20608 0.0
O84 O 0.25786 0.7222 0.19827 0.0
C85 C 0.28283 0.75846 0.31875 0.0
C86 C 0.17783 0.72312 0.19167 0.0
C87 C 0.1891 0.77705 0.30291 0.0
C88 C 0.20708 0.68382 0.29013 0.0
C89 C 0.25217 0.80133 0.22347 0.0
C90 C 0.26933 0.70543 0.21004 0.0
O91 O 0.26878 0.77485 0.31141 0.0
O92 O 0.24895 0.68458 0.70777 0.0
Zn93 Zn 0.2643 0.71487 0.7395 0.0
O94 O 0.23808 0.7351 0.75223 0.0
Zn95 Zn 0.24605 0.77052 0.74403 0.0
Zn96 Zn 0.20535 0.72105 0.72936 0.0
Zn97 Zn 0.23574 0.73421 0.79589 0.0
O98 O 0.2543 0.79448 0.7833 0.0
O99 O 0.24729 0.76926 0.81947 0.0
O100 O 0.29072 0.73646 0.71988 0.0
O101 O 0.27676 0.77399 0.72215 0.0
O102 O 0.21838 0.78178 0.71575 0.0
O103 O 0.19155 0.74572 0.70338 0.0
O104 O 0.17933 0.71074 0.7568 0.0
O105 O 0.28178 0.70127 0.77595 0.0
O106 O 0.2002 0.72072 0.80359 0.0
O107 O 0.25903 0.71125 0.81338 0.0
C108 C 0.22628 0.67815 0.69464 0.0
C109 C 0.25421 0.79125 0.81146 0.0
C110 C 0.19826 0.76912 0.70048 0.0
C111 C 0.29262 0.75961 0.71418 0.0
C112 C 0.17991 0.71189 0.78574 0.0
C113 C 0.27683 0.70049 0.80341 0.0
O114 O 0.20852 0.69057 0.70097 0.0
O115 O 0.20457 0.21006 0.77705 0.0
Zn116 Zn 0.23401 0.2388 0.78754 0.0
O117 O 0.24561 0.2505 0.74962 0.0
Zn118 Zn 0.28116 0.2467 0.74894 0.0
Zn119 Zn 0.22614 0.23081 0.71302 0.0
Zn120 Zn 0.24144 0.28618 0.74831 0.0
O121 O 0.30292 0.28088 0.75194 0.0
O122 O 0.2752 0.30823 0.7537 0.0
O123 O 0.26209 0.22574 0.8136 0.0
O124 O 0.29392 0.23027 0.78551 0.0
O125 O 0.28663 0.22405 0.71169 0.0
O126 O 0.24759 0.20913 0.68924 0.0
O127 O 0.20981 0.25306 0.68448 0.0
O128 O 0.22051 0.26712 0.81251 0.0
O129 O 0.22162 0.29207 0.70902 0.0
O130 O 0.22308 0.29847 0.78296 0.0
C131 C 0.19181 0.20102 0.75137 0.0
C132 C 0.29794 0.30368 0.75454 0.0
C133 C 0.27154 0.20946 0.69091 0.0
C134 C 0.28482 0.22328 0.80927 0.0
C135 C 0.20985 0.27712 0.68606 0.0
C136 C 0.21661 0.28944 0.80701 0.0
O137 O 0.19797 0.20787 0.72614 0.0
O138 O 0.77315 0.24 0.79655 0.0
Zn139 Zn 0.74595 0.22245 0.76243 0.0
O140 O 0.72576 0.24685 0.74484 0.0
Zn141 Zn 0.69067 0.23948 0.75283 0.0
Zn142 Zn 0.73981 0.28093 0.76392 0.0
Zn143 Zn 0.72636 0.24546 0.70068 0.0
O144 O 0.66603 0.23534 0.71419 0.0
O145 O 0.69146 0.23242 0.67801 0.0
O146 O 0.72361 0.19442 0.77885 0.0
O147 O 0.6853 0.20548 0.76861 0.0
O148 O 0.68208 0.26572 0.78517 0.0
O149 O 0.71701 0.29438 0.7926 0.0
O150 O 0.74568 0.30535 0.73301 0.0
O151 O 0.76352 0.20565 0.72937 0.0
O152 O 0.73804 0.28046 0.68861 0.0
O153 O 0.75011 0.2215 0.68692 0.0
C154 C 0.78263 0.26353 0.80247 0.0
C155 C 0.66926 0.2307 0.68616 0.0
C156 C 0.69492 0.28646 0.79895 0.0
C157 C 0.6996 0.19008 0.77841 0.0
C158 C 0.74464 0.30244 0.70397 0.0
C159 C 0.76341 0.20701 0.70073 0.0
O160 O 0.77285 0.28083 0.78965 0.0
O161 O 0.77889 0.78563 0.78133 0.0
Zn162 Zn 0.75149 0.75739 0.78963 0.0
O163 O 0.73337 0.73795 0.75121 0.0
Zn164 Zn 0.69704 0.74019 0.74812 0.0
Zn165 Zn 0.74683 0.7521 0.71648 0.0
Zn166 Zn 0.73801 0.70199 0.7496 0.0
O167 O 0.67648 0.70586 0.75011 0.0
O168 O 0.70492 0.67922 0.75179 0.0
O169 O 0.7269 0.77392 0.814 0.0
O170 O 0.68999 0.76307 0.78429 0.0
O171 O 0.68442 0.75448 0.70944 0.0
O172 O 0.71989 0.76386 0.68871 0.0
O173 O 0.7627 0.72638 0.69131 0.0
O174 O 0.76854 0.73409 0.81595 0.0
O175 O 0.75327 0.69032 0.71167 0.0
O176 O 0.76181 0.69689 0.78622 0.0
C177 C 0.78424 0.79351 0.75621 0.0
C178 C 0.68211 0.68351 0.75196 0.0
C179 C 0.6961 0.76351 0.6884 0.0
C180 C 0.70315 0.77465 0.80872 0.0
C181 C 0.76305 0.7025 0.69141 0.0
C182 C 0.77163 0.71075 0.81099 0.0
O183 O 0.77302 0.78263 0.73046 0.0
Cd184 Cd 0.9728 0.97101 0.55868 0.0
Cd185 Cd 0.01147 0.01519 0.48391 0.0
C186 C 0.02371 0.94746 0.56829 0.0
N187 N 0.00182 0.94344 0.54872 0.0
C188 C 0.01408 0.90607 0.52316 0.0
C189 C 0.037 0.91002 0.54297 0.0
C190 C 0.04168 0.93114 0.56563 0.0
C191 C -0.00333 0.92325 0.52638 0.0
H192 H 0.02696 0.96284 0.58678 0.0
H193 H -0.02121 0.9201 0.51174 0.0
C194 C 0.96103 0.97572 0.47771 0.0
C195 C 0.96277 0.04279 0.4971 0.0
C196 C 0.94678 0.06115 0.49327 0.0
C197 C 0.95655 0.08498 0.48493 0.0
C198 C -0.01718 0.0907 0.48404 0.0
C199 C -0.00191 0.07176 0.48806 0.0
N200 N -0.01237 0.04803 0.49304 0.0
H201 H 0.95483 0.02382 0.50086 0.0
H202 H 0.0179 0.07542 0.48484 0.0
C203 C 0.01959 0.95773 0.46348 0.0
N204 N 0.0293 0.97766 0.48514 0.0
C205 C 0.06386 0.95614 0.50147 0.0
C206 C 0.05452 0.93553 0.47877 0.0
C207 C 0.0318 0.93632 0.46007 0.0
C208 C 0.05083 0.97716 0.50429 0.0
H209 H 0.00304 0.95889 0.44773 0.0
H210 H 0.05849 -0.00649 0.52088 0.0
C211 C 0.02256 0.01644 0.56858 0.0
C212 C 0.94662 0.94374 0.60039 0.0
N213 N 0.94617 0.00195 0.55544 0.0
C214 C 0.95419 0.02523 0.5718 0.0
C215 C 0.93798 0.04355 0.57334 0.0
C216 C 0.91315 0.03788 0.558 0.0
C217 C 0.90567 0.01394 0.54035 0.0
C218 C 0.92255 -0.00391 0.53955 0.0
C219 C 0.0417 0.0372 0.44133 0.0
O220 O 0.9703 0.97805 0.50557 0.0
O221 O 0.97227 -0.01083 0.45983 0.0
O222 O 0.01873 0.01598 0.53966 0.0
O223 O 0.00817 0.00189 0.58254 0.0
O224 O 0.94177 0.93657 0.57167 0.0
O225 O 0.96332 0.96326 0.60893 0.0
O226 O 0.04916 0.04184 0.46994 0.0
O227 O 0.02072 0.02267 0.43333 0.0
H228 H 0.97287 0.02933 0.58466 0.0
H229 H 0.91661 0.97732 0.52692 0.0
H230 H 0.00955 0.88981 0.50565 0.0
H231 H 0.0586 0.93446 0.58215 0.0
H232 H 0.92663 0.05586 0.49404 0.0
H233 H -0.00884 0.10899 0.47812 0.0
H234 H 0.08131 0.95628 0.51637 0.0
H235 H 0.02422 0.92119 0.4418 0.0
H236 H 0.94449 0.06148 0.58773 0.0
H237 H 0.88681 0.00883 0.5279 0.0
Cd238 Cd 0.4684 0.97212 0.05092 0.0
Cd239 Cd 0.50588 0.00408 0.97211 0.0
C240 C 0.51875 0.94461 0.05134 0.0
N241 N 0.49307 0.93906 0.0448 0.0
C242 C 0.49568 0.89432 0.03699 0.0
C243 C 0.52217 0.89948 0.04484 0.0
C244 C 0.53368 0.92511 0.05142 0.0
C245 C 0.48142 0.9145 0.0372 0.0
H246 H 0.52777 0.96409 0.05757 0.0
H247 H 0.46097 0.91051 0.03236 0.0
C248 C 0.45703 0.9631 0.96715 0.0
C249 C 0.45287 0.02804 0.97086 0.0
C250 C 0.43608 0.04554 0.96649 0.0
C251 C 0.44541 0.07114 0.9642 0.0
C252 C 0.47187 0.07871 0.96823 0.0
C253 C 0.48808 0.06044 0.97265 0.0
N254 N 0.47837 0.03547 0.97321 0.0
H255 H 0.44521 0.0084 0.97132 0.0
H256 H 0.50839 0.06602 0.97428 0.0
C257 C 0.51804 0.94523 0.97474 0.0
N258 N 0.52916 0.97011 0.97904 0.0
C259 C 0.57041 0.95735 0.98205 0.0
C260 C 0.55939 0.93153 0.97551 0.0
C261 C 0.53284 0.9256 0.9733 0.0
C262 C 0.55486 0.97637 0.98388 0.0
H263 H 0.49771 0.94034 0.97115 0.0
H264 H 0.56337 -0.00377 0.98747 0.0
C265 C 0.51679 0.01155 0.05433 0.0
C266 C 0.43078 0.95083 0.0853 0.0
N267 N 0.44707 0.00652 0.04136 0.0
C268 C 0.45607 0.03103 0.05355 0.0
C269 C 0.44051 0.05 0.05153 0.0
C270 C 0.41536 0.04353 0.03731 0.0
C271 C 0.40704 0.01832 0.02372 0.0
C272 C 0.42326 5e-05 0.02608 0.0
C273 C 0.54132 0.02864 0.93733 0.0
O274 O 0.46607 0.96944 0.99509 0.0
O275 O 0.4693 0.97297 0.94714 0.0
O276 O 0.50609 0.00488 0.02714 0.0
O277 O 0.50583 0.00228 0.07566 0.0
O278 O 0.42778 0.948 0.05626 0.0
O279 O 0.45206 0.96233 0.0987 0.0
O280 O 0.54359 0.03375 0.96629 0.0
O281 O 0.52232 0.01261 0.9248 0.0
H282 H 0.4748 0.03572 0.06622 0.0
H283 H 0.41652 -0.01957 0.01666 0.0
H284 H 0.486 0.87486 0.03155 0.0
H285 H 0.55394 0.93011 0.05808 0.0
H286 H 0.41588 0.03886 0.96416 0.0
H287 H 0.47999 0.0982 0.9664 0.0
H288 H 0.59074 0.96301 0.9838 0.0
H289 H 0.52345 0.90598 0.96926 0.0
H290 H 0.44759 0.06912 0.06271 0.0
H291 H 0.38792 0.01259 0.01217 0.0
Cd292 Cd 0.9703 0.46776 0.03465 0.0
Cd293 Cd -0.0121 0.50692 0.9525 0.0
C294 C 0.02529 0.44843 0.02365 0.0
N295 N 0.00022 0.44043 0.02497 0.0
C296 C 0.00756 0.39708 0.02395 0.0
C297 C 0.03377 0.40485 0.02512 0.0
C298 C 0.04253 0.43085 0.02379 0.0
C299 C -0.00875 0.41523 0.02465 0.0
H300 H 0.03221 0.4685 0.02397 0.0
H301 H 0.97146 0.40916 0.02631 0.0
C302 C 0.94743 0.46178 0.95506 0.0
C303 C 0.93282 0.52555 0.95011 0.0
C304 C 0.91565 0.54274 0.95402 0.0
C305 C 0.92258 0.56477 0.97526 0.0
C306 C 0.94614 0.568 0.99358 0.0
C307 C 0.96252 0.55001 0.98937 0.0
N308 N 0.95594 0.52969 0.9673 0.0
H309 H 0.92823 0.50989 0.93193 0.0
H310 H -0.01894 0.55312 0.00248 0.0
C311 C 0.00935 0.45199 0.94676 0.0
N312 N 0.01732 0.47766 0.95154 0.0
C313 C 0.06054 0.47075 0.95109 0.0
C314 C 0.05271 0.44417 0.94515 0.0
C315 C 0.02674 0.43491 0.94381 0.0
C316 C 0.04244 0.48721 0.95426 0.0
H317 H -0.01054 0.44453 0.9445 0.0
H318 H 0.04835 0.50768 0.95798 0.0
C319 C 0.01337 0.51404 0.03463 0.0
C320 C 0.94278 0.43418 0.0692 0.0
N321 N 0.94677 0.50161 0.04085 0.0
C322 C 0.95512 0.52106 0.06361 0.0
C323 C 0.94142 0.54134 0.06797 0.0
C324 C 0.91866 0.54157 0.04899 0.0
C325 C 0.91017 0.5209 0.02608 0.0
C326 C 0.92465 0.50106 0.02234 0.0
C327 C 0.00855 0.54383 0.91612 0.0
O328 O 0.9607 0.47056 0.98039 0.0
O329 O 0.95239 0.47279 0.93184 0.0
O330 O 0.00186 0.5079 0.00762 0.0
O331 O 0.0068 0.50031 0.05517 0.0
O332 O 0.93624 0.43393 0.04065 0.0
O333 O 0.96134 0.45082 0.08162 0.0
O334 O 0.01047 0.5478 0.94504 0.0
O335 O -0.00235 0.52197 0.90352 0.0
H336 H 0.9723 0.52076 0.07871 0.0
H337 H 0.91821 0.48519 0.00466 0.0
H338 H -0.00026 0.37721 0.02406 0.0
H339 H 0.06258 0.4378 0.02465 0.0
H340 H 0.89794 0.53978 0.93889 0.0
H341 H 0.95224 0.58475 0.01015 0.0
H342 H 0.0803 0.47888 0.95204 0.0
H343 H 0.01978 0.41461 0.94001 0.0
H344 H 0.94838 0.55646 0.08647 0.0
H345 H 0.8928 0.5203 0.01085 0.0
Cd346 Cd 0.46923 0.47444 0.05518 0.0
Cd347 Cd 0.51009 0.50747 0.97987 0.0
C348 C 0.52285 0.45773 0.07516 0.0
N349 N 0.50249 0.4506 0.05339 0.0
C350 C 0.5212 0.41544 0.03243 0.0
C351 C 0.54261 0.42268 0.05445 0.0
C352 C 0.54327 0.44415 0.07594 0.0
C353 C 0.50121 0.42982 0.03228 0.0
H354 H 0.52309 0.47367 0.09243 0.0
H355 H 0.48457 0.42422 0.0156 0.0
C356 C 0.46609 0.46119 0.9744 0.0
C357 C 0.45221 0.52176 0.97014 0.0
C358 C 0.43393 0.53791 0.96728 0.0
C359 C 0.44059 0.56409 0.9772 0.0
C360 C 0.46523 0.5731 0.99189 0.0
C361 C 0.4829 0.55615 0.99467 0.0
N362 N 0.47633 0.53111 0.98322 0.0
H363 H 0.44721 0.50221 0.96011 0.0
H364 H 0.50227 0.56323 0.0045 0.0
C365 C 0.52943 0.45305 0.96756 0.0
N366 N 0.53486 0.47493 0.98736 0.0
C367 C 0.57352 0.46196 0.00835 0.0
C368 C 0.56825 0.43923 0.98807 0.0
C369 C 0.54562 0.43476 0.9679 0.0
C370 C 0.55631 0.47954 0.00782 0.0
H371 H 0.51332 0.45015 0.95014 0.0
H372 H 0.56073 0.49742 0.02262 0.0
C373 C 0.51892 0.5232 0.06487 0.0
C374 C 0.44297 0.44681 0.09672 0.0
N375 N 0.44062 0.50245 0.04451 0.0
C376 C 0.44869 0.52806 0.04953 0.0
C377 C 0.43117 0.54513 0.05054 0.0
C378 C 0.4051 0.53572 0.04653 0.0
C379 C 0.39734 0.50926 0.03895 0.0
C380 C 0.41556 0.49285 0.03823 0.0
C381 C 0.53689 0.53388 0.93692 0.0
O382 O 0.47108 0.47014 0.00217 0.0
O383 O 0.47811 0.47226 0.95527 0.0
O384 O 0.52063 0.52144 0.03614 0.0
O385 O 0.50155 0.50959 0.07597 0.0
O386 O 0.43975 0.43878 0.06822 0.0
O387 O 0.45809 0.46748 0.1053 0.0
O388 O 0.54237 0.54042 0.96554 0.0
O389 O 0.51924 0.51529 0.92863 0.0
H390 H 0.46867 0.53529 0.05454 0.0
H391 H 0.4097 0.47237 0.03453 0.0
H392 H 0.51996 0.39894 0.01554 0.0
H393 H 0.55908 0.44995 0.09385 0.0
H394 H 0.41529 0.53023 0.95534 0.0
H395 H 0.47107 0.59318 -2e-05 0.0
H396 H 0.59104 0.46645 0.0238 0.0
H397 H 0.54118 0.41802 0.95105 0.0
H398 H 0.43808 0.56531 0.05663 0.0
H399 H 0.37741 0.50123 0.03525 0.0
Cd400 Cd 0.96762 0.47982 0.54781 0.0
Cd401 Cd 0.01618 0.49634 0.47177 0.0
C402 C 0.01442 0.4536 0.57604 0.0
N403 N -0.00446 0.44973 0.55217 0.0
C404 C 0.01034 0.4117 0.53216 0.0
C405 C 0.03087 0.41603 0.55561 0.0
C406 C 0.03247 0.43709 0.57805 0.0
C407 C -0.00707 0.42904 0.53069 0.0
H408 H 0.01566 0.46961 0.59351 0.0
H409 H 0.97754 0.42617 0.51216 0.0
C410 C 0.96134 0.46862 0.46544 0.0
C411 C -0.01603 0.52842 0.42856 0.0
C412 C 0.96786 0.54553 0.4195 0.0
C413 C 0.95776 0.56063 0.44171 0.0
C414 C 0.96424 0.558 0.47275 0.0
C415 C -0.01942 0.5407 0.48079 0.0
N416 N -0.01011 0.52625 0.45874 0.0
H417 H -0.00837 0.51665 0.41152 0.0
H418 H -0.01409 0.53885 0.50462 0.0
C419 C 0.01572 0.43394 0.46359 0.0
N420 N 0.03012 0.45668 0.47506 0.0
C421 C 0.06699 0.43628 0.48303 0.0
C422 C 0.05294 0.41267 0.47007 0.0
C423 C 0.02678 0.41158 0.46102 0.0
C424 C 0.05521 0.45808 0.48507 0.0
H425 H -0.0041 0.43313 0.45531 0.0
H426 H 0.06655 0.47642 0.49278 0.0
C427 C 0.01937 0.51388 0.55345 0.0
C428 C 0.92622 0.45596 0.57442 0.0
N429 N 0.94779 0.51487 0.53741 0.0
C430 C 0.95552 0.5382 0.55382 0.0
C431 C 0.94012 0.55731 0.5523 0.0
C432 C 0.91638 0.5521 0.53422 0.0
C433 C 0.90958 0.52835 0.51617 0.0
C434 C 0.92565 0.50987 0.51821 0.0
C435 C 0.05925 0.51798 0.44615 0.0
O436 O 0.97083 0.47492 0.49313 0.0
O437 O 0.97565 0.47319 0.44497 0.0
O438 O 0.0115 0.50342 0.52638 0.0
O439 O 0.00475 0.51002 0.57382 0.0
O440 O 0.92912 0.44981 0.54666 0.0
O441 O 0.94333 0.47248 0.59023 0.0
O442 O 0.05523 0.52644 0.47284 0.0
O443 O 0.0429 0.50016 0.43146 0.0
H444 H 0.97288 0.54158 0.56949 0.0
H445 H 0.91968 0.49096 0.50605 0.0
H446 H 0.00809 0.39549 0.51468 0.0
H447 H 0.0474 0.44069 0.59722 0.0
H448 H 0.96313 0.54672 0.3953 0.0
H449 H 0.95715 0.56951 0.49059 0.0
H450 H 0.08729 0.43838 0.48956 0.0
H451 H 0.01505 0.39378 0.45126 0.0
H452 H 0.94588 0.57525 0.56692 0.0
H453 H 0.89142 0.52363 0.50197 0.0
Cd454 Cd 0.47008 0.96339 0.53565 0.0
Cd455 Cd 0.50342 0.00582 0.46111 0.0
C456 C 0.52811 0.95229 0.54971 0.0
N457 N 0.50651 0.94513 0.52983 0.0
C458 C 0.52266 0.90861 0.50806 0.0
C459 C 0.54466 0.91486 0.52923 0.0
C460 C 0.54766 0.93741 0.54963 0.0
C461 C 0.50369 0.92409 0.50882 0.0
H462 H 0.52963 0.96867 0.56675 0.0
H463 H 0.48604 0.91848 0.49388 0.0
C464 C 0.46546 0.95679 0.45438 0.0
C465 C 0.44312 0.01458 0.45074 0.0
C466 C 0.42306 0.02874 0.44857 0.0
C467 C 0.42775 0.05543 0.45612 0.0
C468 C 0.45259 0.06691 0.46774 0.0
C469 C 0.47201 0.05194 0.47015 0.0
N470 N 0.46717 0.02636 0.46097 0.0
H471 H 0.4393 -0.00566 0.44354 0.0
H472 H 0.49118 0.06093 0.47846 0.0
C473 C 0.52999 0.95905 0.43534 0.0
N474 N 0.53193 0.97603 0.46092 0.0
C475 C 0.56672 0.95786 0.48409 0.0
C476 C 0.56454 0.93952 0.4583 0.0
C477 C 0.54594 0.94048 0.43365 0.0
C478 C 0.54996 0.97591 0.48505 0.0
H479 H 0.51615 0.96003 0.41598 0.0
H480 H 0.55135 -0.01018 0.50501 0.0
C481 C 0.50702 0.01445 0.5445 0.0
C482 C 0.44755 0.92008 0.56065 0.0
N483 N 0.43823 -0.01032 0.53757 0.0
C484 C 0.44242 0.01327 0.52817 0.0
C485 C 0.42555 0.03066 0.53278 0.0
C486 C 0.40409 0.02385 0.54743 0.0
C487 C 0.39963 -0.00105 0.55579 0.0
C488 C 0.41709 -0.01789 0.55069 0.0
C489 C 0.53139 0.04584 0.43568 0.0
O490 O 0.47186 0.96731 0.48164 0.0
O491 O 0.4744 0.96831 0.43327 0.0
O492 O 0.50289 0.00505 0.51653 0.0
O493 O 0.49718 0.00133 0.56387 0.0
O494 O 0.44336 0.92236 0.53233 0.0
O495 O 0.46137 0.93864 0.57769 0.0
O496 O 0.53259 0.04542 0.46444 0.0
O497 O 0.51832 0.02683 0.41866 0.0
H498 H 0.45929 0.01898 0.51798 0.0
H499 H 0.41426 0.96333 0.55826 0.0
H500 H 0.5197 0.89133 0.49206 0.0
H501 H 0.56422 0.94261 0.56661 0.0
H502 H 0.40415 0.01887 0.44024 0.0
H503 H 0.45732 0.0874 0.47364 0.0
H504 H 0.58092 0.95804 0.50351 0.0
H505 H 0.54407 0.92738 0.41284 0.0
H506 H 0.4296 0.04949 0.52554 0.0
H507 H 0.38348 -0.00708 0.56743 0.0
C508 C 0.13961 0.16257 0.25976 0.0
C509 C 0.16336 0.15742 0.25214 0.0
C510 C 0.12478 0.14556 0.27507 0.0
C511 C 0.09348 0.10297 0.30185 0.0
H512 H 0.13338 0.08029 0.36962 0.0
C513 C 0.04736 0.04147 0.38676 0.0
C514 C 0.0562 0.04829 0.41803 0.0
C515 C 0.06024 0.0523 0.36438 0.0
C516 C 0.12197 0.08654 0.35087 0.0
H517 H 0.18883 0.12898 0.25181 0.0
H518 H 0.16279 0.09923 0.27817 0.0
H519 H 0.15475 0.10238 0.33181 0.0
H520 H 0.08575 0.07161 0.45034 0.0
H521 H 0.10826 0.09081 0.41112 0.0
H522 H 0.0607 0.08789 0.32154 0.0
C523 C 0.15598 0.11677 0.27301 0.0
C524 C 0.1342 0.09887 0.32893 0.0
C525 C 0.17081 0.13377 0.25768 0.0
C526 C 0.07849 0.06595 0.42644 0.0
C527 C 0.09143 0.07682 0.40396 0.0
C528 C 0.08124 0.09055 0.32375 0.0
C529 C 0.13334 0.12299 0.28304 0.0
C530 C 0.12012 0.10751 0.30435 0.0
C531 C 0.08231 0.07026 0.37267 0.0
C532 C 0.09536 0.08248 0.34873 0.0
H533 H 0.13315 0.18051 0.25569 0.0
H534 H 0.10744 0.15096 0.28243 0.0
H535 H 0.08208 0.10927 0.28313 0.0
H536 H 0.03032 0.02779 0.37946 0.0
H537 H 0.05293 0.04652 0.34051 0.0
C538 C 0.81404 0.18078 0.31477 0.0
C539 C 0.79368 0.19097 0.32629 0.0
C540 C 0.83053 0.1692 0.33363 0.0
C541 C 0.85214 0.16573 0.41555 0.0
H542 H 0.88263 0.10895 0.38137 0.0
C543 C 0.91667 0.10521 0.48444 0.0
C544 C 0.93905 0.1015 0.4718 0.0
C545 C 0.89839 0.11731 0.46889 0.0
C546 C 0.8743 0.12486 0.39116 0.0
H547 H 0.77414 0.19622 0.36641 0.0
H548 H 0.80242 0.17526 0.39903 0.0
H549 H 0.85058 0.126 0.34945 0.0
H550 H 0.95999 0.10812 0.43329 0.0
H551 H 0.92825 0.12914 0.40645 0.0
H552 H 0.87578 0.16401 0.45753 0.0
C553 C 0.80611 0.17686 0.37567 0.0
C554 C 0.85602 0.13473 0.37287 0.0
C555 C 0.78978 0.18872 0.35689 0.0
C556 C 0.94319 0.11101 0.44396 0.0
C557 C 0.92488 0.12276 0.42834 0.0
C558 C 0.87023 0.15557 0.434 0.0
C559 C 0.82687 0.1672 0.36438 0.0
C560 C 0.84502 0.15559 0.38463 0.0
C561 C 0.90209 0.12547 0.44027 0.0
C562 C 0.88177 0.13537 0.42175 0.0
H563 H 0.81771 0.1824 0.29139 0.0
H564 H 0.84656 0.16241 0.32424 0.0
H565 H 0.84431 0.18198 0.42531 0.0
H566 H 0.91297 0.0981 0.50583 0.0
H567 H 0.88092 0.11922 0.47852 0.0
C568 C 0.80443 0.85474 0.28233 0.0
C569 C 0.81345 0.83175 0.27359 0.0
C570 C 0.81949 0.87366 0.30334 0.0
C571 C 0.86281 0.87297 0.36985 0.0
H572 H 0.87978 0.94647 0.37327 0.0
C573 C 0.93932 0.93263 0.45762 0.0
C574 C 0.93785 0.95844 0.46568 0.0
C575 C 0.92002 0.91744 0.43749 0.0
C576 C 0.87462 0.92602 0.37295 0.0
H577 H 0.84672 0.81249 0.27596 0.0
H578 H 0.87278 0.84546 0.31273 0.0
H579 H 0.85677 0.92173 0.32644 0.0
H580 H 0.9149 -0.0114 0.46126 0.0
H581 H 0.88047 0.9618 0.42665 0.0
H582 H 0.88022 0.87696 0.41621 0.0
C583 C 0.85389 0.84847 0.30389 0.0
C584 C 0.86177 0.91193 0.34602 0.0
C585 C 0.83897 0.82968 0.28277 0.0
C586 C 0.91608 0.96854 0.45541 0.0
C587 C 0.89663 0.95331 0.4354 0.0
C588 C 0.87528 0.88702 0.39683 0.0
C589 C 0.84367 0.86976 0.31573 0.0
C590 C 0.85643 0.88524 0.34408 0.0
C591 C 0.89903 0.92796 0.42505 0.0
C592 C 0.88194 0.91363 0.39846 0.0
H593 H 0.78499 0.85714 0.27526 0.0
H594 H 0.81139 0.89013 0.31198 0.0
H595 H 0.8582 0.8524 0.36905 0.0
H596 H 0.9564 0.92483 0.46451 0.0
H597 H 0.9227 0.89813 0.42972 0.0
C598 C 0.18522 0.81402 0.34099 0.0
C599 C 0.17437 0.79046 0.32416 0.0
C600 C 0.17213 0.82618 0.36232 0.0
C601 C 0.10803 0.82997 0.38232 0.0
H602 H 0.14449 0.86567 0.45864 0.0
C603 C 0.05695 0.88928 0.46349 0.0
C604 C 0.06934 0.91443 0.47225 0.0
C605 C 0.07008 0.87041 0.45156 0.0
C606 C 0.13406 0.85578 0.43744 0.0
H607 H 0.14109 0.76127 0.31655 0.0
H608 H 0.11818 0.78261 0.35389 0.0
H609 H 0.16648 0.83997 0.42436 0.0
H610 H 0.10569 0.93903 0.47745 0.0
H611 H 0.12853 0.90623 0.45635 0.0
H612 H 0.07585 0.84633 0.3948 0.0
C613 C 0.13682 0.79168 0.35038 0.0
C614 C 0.14665 0.84112 0.41778 0.0
C615 C 0.14995 0.77946 0.32899 0.0
C616 C 0.0956 0.91982 0.47107 0.0
C617 C 0.10871 0.90097 0.45897 0.0
C618 C 0.09546 0.84461 0.40195 0.0
C619 C 0.14785 0.81511 0.36739 0.0
C620 C 0.1339 0.82851 0.38969 0.0
C621 C 0.09585 0.87634 0.44792 0.0
C622 C 0.10845 0.8581 0.42945 0.0
H623 H 0.20396 0.8231 0.33787 0.0
H624 H 0.18095 0.84446 0.37458 0.0
H625 H 0.09775 0.82074 0.36072 0.0
H626 H 0.03683 0.88441 0.46467 0.0
H627 H 0.05978 0.85145 0.44395 0.0
C628 C 0.16013 0.76734 0.66186 0.0
C629 C 0.18267 0.78126 0.67805 0.0
C630 C 0.1455 0.7783 0.64025 0.0
C631 C 0.14693 0.83077 0.59156 0.0
H632 H 0.0747 0.82288 0.59726 0.0
C633 C 0.08137 0.89985 0.54902 0.0
C634 C 0.05514 0.89132 0.54253 0.0
C635 C 0.09804 0.88293 0.55688 0.0
C636 C 0.09469 0.82478 0.59464 0.0
H637 H 0.20765 0.81759 0.68381 0.0
H638 H 0.18178 0.83689 0.6462 0.0
H639 H 0.10168 0.80085 0.62962 0.0
H640 H 0.02626 0.85777 0.53511 0.0
H641 H 0.0555 0.82803 0.54772 0.0
H642 H 0.1399 0.8552 0.55692 0.0
C643 C 0.17567 0.81735 0.65011 0.0
C644 C 0.11022 0.81224 0.61343 0.0
C645 C 0.19034 0.80638 0.67186 0.0
C646 C 0.04633 0.86501 0.54032 0.0
C647 C 0.06306 0.84801 0.54793 0.0
C648 C 0.13132 0.84324 0.57255 0.0
C649 C 0.15301 0.80345 0.63422 0.0
C650 C 0.13655 0.81545 0.61252 0.0
C651 C 0.08884 0.85705 0.55811 0.0
C652 C 0.10506 0.84079 0.5743 0.0
H653 H 0.1537 0.74788 0.66584 0.0
H654 H 0.12828 0.76701 0.62816 0.0
H655 H 0.16713 0.83328 0.59005 0.0
H656 H 0.08881 0.91995 0.55005 0.0
H657 H 0.11776 0.89064 0.56438 0.0
C658 C 0.14687 0.18603 0.73296 0.0
C659 C 0.1693 0.18187 0.74977 0.0
C660 C 0.12798 0.16558 0.72186 0.0
C661 C 0.12862 0.10057 0.69144 0.0
H662 H 0.05734 0.10263 0.66667 0.0
C663 C 0.05926 0.02408 0.6087 0.0
C664 C 0.04358 0.03367 0.58657 0.0
C665 C 0.07576 0.04079 0.63062 0.0
C666 C 0.07728 0.10197 0.67338 0.0
H667 H 0.18882 0.15412 0.7714 0.0
H668 H 0.1556 0.1179 0.75174 0.0
H669 H 0.08022 0.13266 0.70941 0.0
H670 H 0.03355 0.06764 0.56822 0.0
H671 H 0.06222 0.09722 0.60733 0.0
H672 H 0.12562 0.07004 0.65505 0.0
C673 C 0.15266 0.13694 0.74703 0.0
C674 C 0.09026 0.1189 0.69795 0.0
C675 C 0.17152 0.15759 0.75846 0.0
C676 C 0.04566 0.06003 0.58517 0.0
C677 C 0.06179 0.07681 0.60756 0.0
C678 C 0.11555 0.08346 0.66706 0.0
C679 C 0.13151 0.1406 0.72704 0.0
C680 C 0.11626 0.11891 0.70663 0.0
C681 C 0.07626 0.06723 0.63101 0.0
C682 C 0.09 0.08458 0.65734 0.0
H683 H 0.14493 0.20474 0.72613 0.0
H684 H 0.11199 0.16909 0.70652 0.0
H685 H 0.14876 0.10041 0.69715 0.0
H686 H 0.05786 0.00369 0.60988 0.0
H687 H 0.08685 0.03305 0.64843 0.0
C688 C 0.79379 0.17518 0.69775 0.0
C689 C 0.77852 0.19088 0.68297 0.0
C690 C 0.80724 0.15921 0.68093 0.0
C691 C 0.832 0.14846 0.60664 0.0
H692 H 0.83383 0.08035 0.62999 0.0
C693 C 0.86973 0.04652 0.56785 0.0
C694 C 0.89467 0.05587 0.5632 0.0
C695 C 0.85357 0.06326 0.57779 0.0
C696 C 0.83323 0.09915 0.62281 0.0
H697 H 0.7658 0.20236 0.63883 0.0
H698 H 0.7891 0.17425 0.60949 0.0
H699 H 0.80993 0.109 0.65709 0.0
H700 H 0.92145 0.09034 0.56297 0.0
H701 H 0.8935 0.11947 0.58111 0.0
H702 H 0.85519 0.13839 0.5721 0.0
C703 C 0.79084 0.17451 0.63415 0.0
C704 C 0.81983 0.11574 0.63871 0.0
C705 C 0.77738 0.19053 0.65099 0.0
C706 C 0.9025 0.08247 0.56687 0.0
C707 C 0.88636 0.09921 0.57695 0.0
C708 C 0.84543 0.1318 0.59067 0.0
C709 C 0.80571 0.15848 0.64891 0.0
C710 C 0.81928 0.14068 0.63107 0.0
C711 C 0.862 0.08972 0.5835 0.0
C712 C 0.84635 0.10701 0.59873 0.0
H713 H 0.79527 0.17507 0.72235 0.0
H714 H 0.81891 0.14745 0.69308 0.0
H715 H 0.83206 0.1676 0.6003 0.0
H716 H 0.86305 0.02618 0.56546 0.0
H717 H 0.83472 0.05536 0.582 0.0
C718 C 0.82929 0.81481 0.76796 0.0
C719 C 0.80408 0.81549 0.75598 0.0
C720 C 0.84895 0.83245 0.76055 0.0
C721 C 0.88068 0.85351 0.71213 0.0
H722 H 0.87863 0.92543 0.70579 0.0
C723 C 0.91919 0.90593 0.61517 0.0
C724 C 0.93361 0.93026 0.62323 0.0
C725 C 0.90723 0.89334 0.63717 0.0
C726 C 0.87967 0.90545 0.70771 0.0
H727 H 0.77922 0.83602 0.72928 0.0
H728 H 0.81329 0.86732 0.71729 0.0
H729 H 0.85106 0.90279 0.73806 0.0
H730 H 0.94678 0.9605 0.66064 0.0
H731 H 0.9254 0.93872 0.69876 0.0
H732 H 0.9082 0.85578 0.68042 0.0
C733 C 0.81805 0.85319 0.73208 0.0
C734 C 0.86391 0.89253 0.72615 0.0
C735 C 0.79856 0.83526 0.73884 0.0
C736 C 0.9358 0.94174 0.65369 0.0
C737 C 0.92355 0.92933 0.67554 0.0
C738 C 0.89612 0.86632 0.69332 0.0
C739 C 0.8435 0.85128 0.74168 0.0
C740 C 0.86379 0.86627 0.72789 0.0
C741 C 0.90917 0.905 0.66752 0.0
C742 C 0.89526 0.89223 0.6903 0.0
H743 H 0.83393 0.79953 0.78099 0.0
H744 H 0.86844 0.83063 0.76826 0.0
H745 H 0.88078 0.83321 0.71279 0.0
H746 H 0.91722 0.89658 0.59192 0.0
H747 H 0.89599 0.8747 0.6303 0.0
C748 C 0.27142 0.15957 0.15241 0.0
C749 C 0.27526 0.1864 0.15779 0.0
C750 C 0.28466 0.14698 0.13158 0.0
C751 C 0.34429 0.15409 0.09939 0.0
H752 H 0.3123 0.0939 0.04479 0.0
C753 C 0.40427 0.0881 0.03736 0.0
C754 C 0.39712 0.06204 0.03995 0.0
C755 C 0.38794 0.10578 0.04398 0.0
C756 C 0.32154 0.11067 0.05991 0.0
H757 H 0.29573 0.22108 0.14508 0.0
H758 H 0.31921 0.19891 0.10898 0.0
H759 H 0.28611 0.12032 0.07196 0.0
H760 H 0.36696 0.03407 0.05073 0.0
H761 H 0.33882 0.06461 0.0624 0.0
H762 H 0.37979 0.14373 0.0888 0.0
C763 C 0.30583 0.18773 0.12086 0.0
C764 C 0.30653 0.12579 0.0754 0.0
C765 C 0.29232 0.20038 0.14143 0.0
C766 C 0.37292 0.05392 0.04796 0.0
C767 C 0.3567 0.07151 0.05464 0.0
C768 C 0.35935 0.13882 0.08411 0.0
C769 C 0.30224 0.1609 0.11589 0.0
C770 C 0.31779 0.14722 0.09597 0.0
C771 C 0.36419 0.09773 0.05343 0.0
C772 C 0.34818 0.11645 0.06495 0.0
H773 H 0.25837 0.14824 0.16455 0.0
H774 H 0.28174 0.12627 0.1285 0.0
H775 H 0.35348 0.17043 0.11525 0.0
H776 H 0.4227 0.09486 0.03087 0.0
H777 H 0.39414 0.12581 0.0424 0.0
C778 C 0.82368 0.2658 0.18328 0.0
C779 C 0.82122 0.27229 0.21421 0.0
C780 C 0.84218 0.28012 0.16943 0.0
C781 C 0.87564 0.3461 0.1806 0.0
H782 H 0.90589 0.32431 0.10853 0.0
C783 C 0.93676 0.41699 0.11875 0.0
C784 C 0.93066 0.41486 0.08681 0.0
C785 C 0.9265 0.39803 0.13535 0.0
C786 C 0.89748 0.3306 0.12863 0.0
H787 H 0.83749 0.29657 0.25587 0.0
H788 H 0.8707 0.32058 0.23231 0.0
H789 H 0.88476 0.2922 0.13696 0.0
H790 H 0.90919 0.39114 0.04712 0.0
H791 H 0.89112 0.35798 0.0763 0.0
H792 H 0.88808 0.38439 0.17219 0.0
C793 C 0.85779 0.30533 0.21826 0.0
C794 C 0.88541 0.31225 0.1449 0.0
C795 C 0.83899 0.29145 0.23185 0.0
C796 C 0.91409 0.39337 0.07177 0.0
C797 C 0.90399 0.37427 0.08838 0.0
C798 C 0.88784 0.36433 0.16455 0.0
C799 C 0.85866 0.30086 0.18652 0.0
C800 C 0.87405 0.31981 0.17089 0.0
C801 C 0.91009 0.37644 0.12034 0.0
C802 C 0.89857 0.35681 0.13818 0.0
H803 H 0.80999 0.25117 0.16927 0.0
H804 H 0.84224 0.27614 0.14495 0.0
H805 H 0.86657 0.35275 0.19998 0.0
H806 H 0.94958 0.43326 0.13095 0.0
H807 H 0.9316 0.40012 0.15996 0.0
C808 C 0.6743 0.7657 0.14574 0.0
C809 C 0.68557 0.78038 0.17337 0.0
C810 C 0.65523 0.7744 0.12694 0.0
C811 C 0.60574 0.81488 0.13175 0.0
H812 H 0.60883 0.82234 0.04587 0.0
C813 C 0.52833 0.85786 0.06457 0.0
C814 C 0.53756 0.87858 0.04948 0.0
C815 C 0.54432 0.84078 0.07419 0.0
C816 C 0.60764 0.82019 0.06978 0.0
H817 H 0.68574 0.81583 0.20259 0.0
H818 H 0.65249 0.83057 0.17023 0.0
H819 H 0.6415 0.80266 0.07434 0.0
H820 H 0.57022 0.89616 0.03029 0.0
H821 H 0.59823 0.86658 0.04746 0.0
H822 H 0.57255 0.83298 0.12784 0.0
C823 C 0.65838 0.81241 0.16307 0.0
C824 C 0.62622 0.80881 0.08597 0.0
C825 C 0.67756 0.80398 0.18153 0.0
C826 C 0.56262 0.88063 0.04223 0.0
C827 C 0.57862 0.86351 0.05183 0.0
C828 C 0.58711 0.82595 0.11559 0.0
C829 C 0.64684 0.79766 0.13576 0.0
C830 C 0.62574 0.80665 0.1173 0.0
C831 C 0.56991 0.84399 0.06899 0.0
C832 C 0.58808 0.82923 0.08458 0.0
H833 H 0.68007 0.74747 0.13875 0.0
H834 H 0.6466 0.76268 0.10596 0.0
H835 H 0.60482 0.81328 0.15584 0.0
H836 H 0.5092 0.8557 0.07069 0.0
H837 H 0.53693 0.82567 0.08693 0.0
C838 C 0.1667 0.70352 0.13713 0.0
C839 C 0.15886 0.7105 0.16576 0.0
C840 C 0.15069 0.68629 0.11501 0.0
C841 C 0.08581 0.65265 0.09099 0.0
H842 H 0.11787 0.59193 0.07759 0.0
C843 C 0.0485 0.54061 0.07091 0.0
C844 C 0.03311 0.53685 0.04251 0.0
C845 C 0.0654 0.56327 0.07974 0.0
C846 C 0.10883 0.60888 0.08074 0.0
H847 H 0.12702 0.7071 0.1922 0.0
H848 H 0.09889 0.67741 0.15321 0.0
H849 H 0.14316 0.63188 0.10275 0.0
H850 H 0.02435 0.55344 0.00074 0.0
H851 H 0.05307 0.59361 0.01675 0.0
H852 H 0.05133 0.6293 0.06944 0.0
C853 C 0.11758 0.68501 0.14815 0.0
C854 C 0.12326 0.63172 0.09495 0.0
C855 C 0.13374 0.70194 0.17052 0.0
C856 C 0.03567 0.55588 0.02277 0.0
C857 C 0.0521 0.57884 0.03192 0.0
C858 C 0.07148 0.6299 0.0761 0.0
C859 C 0.12635 0.67612 0.12083 0.0
C860 C 0.11175 0.65362 0.10099 0.0
C861 C 0.06688 0.58279 0.06063 0.0
C862 C 0.08276 0.60767 0.0717 0.0
H863 H 0.18585 0.70987 0.13256 0.0
H864 H 0.15778 0.67987 0.09399 0.0
H865 H 0.07653 0.66927 0.09545 0.0
H866 H 0.04716 0.52625 0.08659 0.0
H867 H 0.07663 0.56595 0.10204 0.0
C868 C 0.26951 0.80881 0.86628 0.0
C869 C 0.26541 0.81276 0.83526 0.0
C870 C 0.28439 0.82758 0.88778 0.0
C871 C 0.31725 0.89518 0.89897 0.0
H872 H 0.37077 0.86716 0.94462 0.0
C873 C 0.42087 0.93133 0.97798 0.0
C874 C 0.43188 0.94733 0.95811 0.0
C875 C 0.39688 0.91673 0.96917 0.0
C876 C 0.35573 0.87535 0.93258 0.0
H877 H 0.27194 0.84049 0.80314 0.0
H878 H 0.29792 0.87292 0.84034 0.0
H879 H 0.33352 0.83864 0.91852 0.0
H880 H 0.42626 0.96094 0.91366 0.0
H881 H 0.38464 0.93554 0.89829 0.0
H882 H 0.34023 0.93177 0.91177 0.0
C883 C 0.28965 0.85541 0.84823 0.0
C884 C 0.33429 0.859 0.91764 0.0
C885 C 0.27483 0.83667 0.82676 0.0
C886 C 0.41836 0.94867 0.92943 0.0
C887 C 0.39435 0.93436 0.92078 0.0
C888 C 0.33874 0.9115 0.91379 0.0
C889 C 0.29541 0.85074 0.87876 0.0
C890 C 0.31525 0.8686 0.89968 0.0
C891 C 0.38336 0.91813 0.94044 0.0
C892 C 0.35864 0.90164 0.92978 0.0
H893 H 0.26232 0.79072 0.87374 0.0
H894 H 0.28808 0.82355 0.91123 0.0
H895 H 0.30268 0.90327 0.8859 0.0
H896 H 0.43095 0.92987 9e-05 0.0
H897 H 0.38891 0.90436 0.9848 0.0
C898 C 0.19194 0.29438 0.85207 0.0
C899 C 0.20336 0.30497 0.82815 0.0
C900 C 0.17794 0.30868 0.87044 0.0
C901 C 0.16611 0.37501 0.89262 0.0
H902 H 0.09995 0.3419 0.90637 0.0
C903 C 0.06388 0.40539 0.9153 0.0
C904 C 0.07107 0.42632 0.93819 0.0
C905 C 0.08125 0.38937 0.90722 0.0
C906 C 0.1184 0.35142 0.9028 0.0
H907 H 0.2096 0.33925 0.80552 0.0
H908 H 0.18523 0.36394 0.83729 0.0
H909 H 0.12875 0.31677 0.88215 0.0
H910 H 0.1022 0.44617 0.97123 0.0
H911 H 0.13272 0.41827 0.95677 0.0
H912 H 0.15533 0.40986 0.91206 0.0
C913 C 0.18721 0.34469 0.84208 0.0
C914 C 0.13502 0.33695 0.88919 0.0
C915 C 0.20106 0.33041 0.82366 0.0
C916 C 0.09609 0.4305 0.95317 0.0
C917 C 0.11356 0.41447 0.94496 0.0
C918 C 0.14951 0.38946 0.90629 0.0
C919 C 0.17521 0.33393 0.86546 0.0
C920 C 0.15885 0.34869 0.88327 0.0
C921 C 0.10639 0.39386 0.92165 0.0
C922 C 0.12522 0.37795 0.91087 0.0
H923 H 0.19334 0.27487 0.8562 0.0
H924 H 0.16912 0.2999 0.88844 0.0
H925 H 0.18446 0.38458 0.88878 0.0
H926 H 0.045 0.40181 0.90273 0.0
H927 H 0.07519 0.37399 0.88877 0.0
C928 C 0.69776 0.15921 0.8174 0.0
C929 C 0.68763 0.16696 0.78988 0.0
C930 C 0.68396 0.13983 0.83061 0.0
C931 C 0.61706 0.11053 0.82909 0.0
H932 H 0.64591 0.06636 0.88351 0.0
C933 C 0.55458 0.0382 0.88689 0.0
C934 C 0.5599 0.04072 0.91894 0.0
C935 C 0.57169 0.05024 0.8694 0.0
C936 C 0.63769 0.07861 0.86832 0.0
H937 H 0.65659 0.15919 0.75297 0.0
H938 H 0.63322 0.12446 0.7749 0.0
H939 H 0.67361 0.09241 0.85438 0.0
H940 H 0.58769 0.05699 0.9578 0.0
H941 H 0.61778 0.07795 0.927 0.0
H942 H 0.58121 0.09664 0.84286 0.0
C943 C 0.65109 0.13405 0.78727 0.0
C944 C 0.6535 0.09359 0.85173 0.0
C945 C 0.66454 0.1538 0.77454 0.0
C946 C 0.58303 0.05487 0.93313 0.0
C947 C 0.60032 0.06666 0.91555 0.0
C948 C 0.60131 0.09533 0.84525 0.0
C949 C 0.66004 0.12756 0.81613 0.0
C950 C 0.64339 0.10996 0.83213 0.0
C951 C 0.5946 0.06476 0.88358 0.0
C952 C 0.61147 0.07946 0.86524 0.0
H953 H 0.71556 0.16918 0.82961 0.0
H954 H 0.69144 0.13549 0.8529 0.0
H955 H 0.60857 0.12335 0.81497 0.0
H956 H 0.53697 0.02731 0.87531 0.0
H957 H 0.56692 0.04841 0.84475 0.0
C958 C 0.79134 0.71017 0.86512 0.0
C959 C 0.78716 0.69942 0.83424 0.0
C960 C 0.806 0.69919 0.88691 0.0
C961 C 0.85785 0.66232 0.89423 0.0
H962 H 0.83141 0.63758 0.96574 0.0
C963 C 0.91867 0.61077 0.97264 0.0
C964 C 0.90699 0.58576 0.97456 0.0
C965 C 0.90415 0.62924 0.9637 0.0
C966 C 0.8391 0.64468 0.94605 0.0
H967 H 0.79517 0.66885 0.80204 0.0
H968 H 0.82127 0.65021 0.8399 0.0
H969 H 0.80566 0.66083 0.93204 0.0
H970 H 0.87084 0.56139 0.97253 0.0
H971 H 0.8454 0.59369 0.95667 0.0
H972 H 0.8909 0.6458 0.90741 0.0
C973 C 0.813 0.66695 0.84723 0.0
C974 C 0.82445 0.658 0.9269 0.0
C975 C 0.79799 0.67757 0.82562 0.0
C976 C 0.88034 0.5804 0.97066 0.0
C977 C 0.86578 0.59896 0.96184 0.0
C978 C 0.87259 0.64944 0.91352 0.0
C979 C 0.81716 0.67765 0.87803 0.0
C980 C 0.8335 0.66634 0.90043 0.0
C981 C 0.87768 0.6231 0.95666 0.0
C982 C 0.8632 0.63999 0.93928 0.0
H983 H 0.78312 0.72692 0.87247 0.0
H984 H 0.80902 0.70776 0.91055 0.0
H985 H 0.86526 0.66869 0.87402 0.0
H986 H 0.93916 0.61554 0.97549 0.0
H987 H 0.91377 0.64785 0.96035 0.0
C988 C 0.15176 0.26706 0.15442 0.0
C989 C 0.17821 0.26862 0.15527 0.0
C990 C 0.13784 0.27861 0.13266 0.0
C991 C 0.14465 0.3314 0.08575 0.0
H992 H 0.07632 0.30125 0.05082 0.0
C993 C 0.07496 0.38751 0.01935 0.0
C994 C 0.05164 0.38637 0.03143 0.0
C995 C 0.09201 0.37075 0.0273 0.0
C996 C 0.09546 0.30984 0.0602 0.0
H997 H 0.21066 0.28299 0.13324 0.0
H998 H 0.18627 0.30316 0.09528 0.0
H999 H 0.10342 0.27564 0.07844 0.0
H1000 H 0.02848 0.367 0.06201 0.0
H1001 H 0.05753 0.33778 0.07487 0.0
H1002 H 0.13621 0.36594 0.06849 0.0
C1003 C 0.17638 0.29312 0.11162 0.0
C1004 C 0.11092 0.29523 0.07612 0.0
C1005 C 0.19031 0.28146 0.13332 0.0
C1006 C 0.04576 0.36798 0.05131 0.0
C1007 C 0.06251 0.35118 0.05885 0.0
C1008 C 0.12915 0.34604 0.06976 0.0
C1009 C 0.15003 0.29205 0.11126 0.0
C1010 C 0.13534 0.30613 0.09004 0.0
C1011 C 0.08586 0.35243 0.04715 0.0
C1012 C 0.10407 0.33566 0.05787 0.0
H1013 H 0.14181 0.25733 0.17094 0.0
H1014 H 0.1176 0.27774 0.1333 0.0
H1015 H 0.16335 0.34039 0.09632 0.0
H1016 H 0.08006 0.40135 0.00392 0.0
H1017 H 0.10996 0.37213 0.01802 0.0
C1018 C 0.13329 0.6955 0.78038 0.0
C1019 C 0.15698 0.70118 0.79865 0.0
C1020 C 0.1122 0.683 0.79169 0.0
C1021 C 0.07766 0.63975 0.81256 0.0
H1022 H 0.07113 0.64685 0.89925 0.0
C1023 C 0.02876 0.55809 0.87119 0.0
C1024 C 0.01853 0.56404 0.8984 0.0
C1025 C 0.04068 0.57762 0.85648 0.0
C1026 C 0.07216 0.6448 0.87484 0.0
H1027 H 0.17688 0.699 0.84347 0.0
H1028 H 0.14055 0.67661 0.86283 0.0
H1029 H 0.10048 0.67781 0.87931 0.0
H1030 H 0.01067 0.5948 0.93031 0.0
H1031 H 0.03018 0.62887 0.90392 0.0
H1032 H 0.04895 0.60696 0.80804 0.0
C1033 C 0.13793 0.68227 0.84001 0.0
C1034 C 0.08939 0.66243 0.86347 0.0
C1035 C 0.1589 0.69499 0.82883 0.0
C1036 C 0.01891 0.58975 0.90963 0.0
C1037 C 0.03022 0.60926 0.89456 0.0
C1038 C 0.06011 0.62229 0.82388 0.0
C1039 C 0.11441 0.67569 0.82142 0.0
C1040 C 0.09306 0.6596 0.83241 0.0
C1041 C 0.04207 0.60348 0.86839 0.0
C1042 C 0.05775 0.62408 0.85535 0.0
H1043 H 0.13112 0.70029 0.75711 0.0
H1044 H 0.09429 0.67869 0.77694 0.0
H1045 H 0.07996 0.63688 0.7885 0.0
H1046 H 0.02866 0.53835 0.86215 0.0
H1047 H 0.0498 0.57231 0.83663 0.0
C1048 C 0.32636 0.20976 0.82756 0.0
C1049 C 0.30094 0.2114 0.83161 0.0
C1050 C 0.34134 0.19742 0.84739 0.0
C1051 C 0.37307 0.17991 0.9 0.0
H1052 H 0.34259 0.11452 0.92071 0.0
C1053 C 0.43174 0.11494 0.96732 0.0
C1054 C 0.42755 0.08902 0.95511 0.0
C1055 C 0.41532 0.13165 0.95734 0.0
C1056 C 0.3514 0.13277 0.91517 0.0
H1057 H 0.27159 0.2018 0.86039 0.0
H1058 H 0.29784 0.18031 0.89515 0.0
H1059 H 0.31621 0.14094 0.8935 0.0
H1060 H 0.40283 0.06055 0.9225 0.0
H1061 H 0.37446 0.0894 0.9054 0.0
H1062 H 0.40847 0.17117 0.92042 0.0
C1063 C 0.30607 0.18841 0.87635 0.0
C1064 C 0.3362 0.14807 0.89986 0.0
C1065 C 0.29106 0.20085 0.8565 0.0
C1066 C 0.4064 0.08021 0.93301 0.0
C1067 C 0.39004 0.09682 0.92314 0.0
C1068 C 0.38827 0.16461 0.91533 0.0
C1069 C 0.33135 0.18634 0.87186 0.0
C1070 C 0.34695 0.17156 0.89141 0.0
C1071 C 0.39435 0.12279 0.93495 0.0
C1072 C 0.37773 0.14055 0.92243 0.0
H1073 H 0.33469 0.21765 0.80869 0.0
H1074 H 0.36057 0.19588 0.8429 0.0
H1075 H 0.3819 0.19808 0.89429 0.0
H1076 H 0.44767 0.12231 0.98462 0.0
H1077 H 0.41905 0.15152 0.96712 0.0
C1078 C 0.80071 0.26989 0.85731 0.0
C1079 C 0.80408 0.27184 0.82657 0.0
C1080 C 0.81815 0.28413 0.8808 0.0
C1081 C 0.84225 0.33799 0.91243 0.0
H1082 H 0.91562 0.34864 0.91647 0.0
C1083 C 0.90624 0.43551 0.93212 0.0
C1084 C 0.92898 0.43821 0.95188 0.0
C1085 C 0.89031 0.41197 0.9264 0.0
C1086 C 0.89518 0.34564 0.9161 0.0
H1087 H 0.82881 0.28835 0.79598 0.0
H1088 H 0.85991 0.3123 0.83695 0.0
H1089 H 0.89097 0.30953 0.88812 0.0
H1090 H 0.95298 0.41892 0.9809 0.0
H1091 H 0.92546 0.37743 0.97069 0.0
H1092 H 0.84632 0.37513 0.93806 0.0
C1093 C 0.84383 0.30001 0.84301 0.0
C1094 C 0.88113 0.32332 0.89989 0.0
C1095 C 0.82609 0.28637 0.81959 0.0
C1096 C 0.93522 0.41729 0.96639 0.0
C1097 C 0.91962 0.39361 0.96027 0.0
C1098 C 0.85626 0.36055 0.92808 0.0
C1099 C 0.83942 0.29995 0.87373 0.0
C1100 C 0.85451 0.31972 0.89705 0.0
C1101 C 0.89723 0.39063 0.93977 0.0
C1102 C 0.88278 0.36493 0.92914 0.0
H1103 H 0.7836 0.25907 0.86307 0.0
H1104 H 0.81432 0.28391 0.90432 0.0
H1105 H 0.82171 0.33577 0.91031 0.0
H1106 H 0.90112 0.45142 0.92055 0.0
H1107 H 0.87329 0.41007 0.91019 0.0
C1108 C 0.6638 0.78772 0.82727 0.0
C1109 C 0.69033 0.78884 0.83156 0.0
C1110 C 0.65149 0.80087 0.84865 0.0
C1111 C 0.66161 0.85567 0.90827 0.0
H1112 H 0.5961 0.82504 0.92723 0.0
C1113 C 0.60032 0.91279 0.98119 0.0
C1114 C 0.57512 0.91137 0.96743 0.0
C1115 C 0.61584 0.89552 0.97057 0.0
C1116 C 0.6144 0.83385 0.92221 0.0
H1117 H 0.72469 0.80469 0.86192 0.0
H1118 H 0.70306 0.82779 0.89929 0.0
H1119 H 0.62091 0.79942 0.89683 0.0
H1120 H 0.54654 0.89009 0.93198 0.0
H1121 H 0.57326 0.86006 0.91409 0.0
H1122 H 0.65468 0.89036 0.93284 0.0
C1123 C 0.69188 0.81673 0.87924 0.0
C1124 C 0.62858 0.8192 0.90474 0.0
C1125 C 0.70424 0.80344 0.85786 0.0
C1126 C 0.56559 0.89158 0.94371 0.0
C1127 C 0.58099 0.8743 0.9333 0.0
C1128 C 0.6474 0.87036 0.92576 0.0
C1129 C 0.66535 0.81554 0.87487 0.0
C1130 C 0.652 0.83014 0.89681 0.0
C1131 C 0.60643 0.87637 0.94614 0.0
C1132 C 0.6233 0.85979 0.93215 0.0
H1133 H 0.65243 0.77669 0.80732 0.0
H1134 H 0.63108 0.79992 0.8443 0.0
H1135 H 0.67952 0.86471 0.9024 0.0
H1136 H 0.60819 0.92747 -0.00015 0.0
H1137 H 0.6353 0.8974 0.98114 0.0
C1138 C 0.82063 0.71424 0.16551 0.0
C1139 C 0.79464 0.70688 0.16691 0.0
C1140 C 0.83375 0.69959 0.1465 0.0
C1141 C 0.8257 0.64499 0.08392 0.0
H1142 H 0.89174 0.63556 0.12244 0.0
C1143 C 0.87725 0.55859 0.05187 0.0
C1144 C 0.90388 0.5631 0.05369 0.0
C1145 C 0.86375 0.5785 0.05992 0.0
C1146 C 0.87353 0.63828 0.11105 0.0
H1147 H 0.76177 0.67894 0.14834 0.0
H1148 H 0.78475 0.65297 0.11593 0.0
H1149 H 0.86859 0.66614 0.14725 0.0
H1150 H 0.93691 0.59256 0.06267 0.0
H1151 H 0.91341 0.62712 0.07686 0.0
H1152 H 0.83049 0.61611 0.04828 0.0
C1153 C 0.79499 0.67034 0.12902 0.0
C1154 C 0.86021 0.65592 0.12527 0.0
C1155 C 0.78179 0.6852 0.14775 0.0
C1156 C 0.91649 0.58826 0.06184 0.0
C1157 C 0.90303 0.6081 0.06988 0.0
C1158 C 0.839 0.62712 0.06977 0.0
C1159 C 0.8213 0.67698 0.12875 0.0
C1160 C 0.83603 0.65942 0.11208 0.0
C1161 C 0.87661 0.6033 0.06996 0.0
C1162 C 0.863 0.62346 0.08333 0.0
H1163 H 0.83104 0.73102 0.17968 0.0
H1164 H 0.85384 0.70571 0.1463 0.0
H1165 H 0.80728 0.64739 0.07287 0.0
H1166 H 0.86692 0.53945 0.04574 0.0
H1167 H 0.8434 0.57417 0.05986 0.0
C1168 C 0.27145 0.84773 0.22843 0.0
C1169 C 0.2633 0.82415 0.21021 0.0
C1170 C 0.28483 0.86815 0.21643 0.0
C1171 C 0.30477 0.88875 0.14298 0.0
H1172 H 0.36531 0.92245 0.1952 0.0
C1173 C 0.38486 0.94512 0.09081 0.0
C1174 C 0.4097 0.94268 0.10242 0.0
C1175 C 0.36455 0.93737 0.1066 0.0
C1176 C 0.3486 0.91309 0.18019 0.0
H1177 H 0.26167 0.80407 0.16461 0.0
H1178 H 0.28538 0.83894 0.14418 0.0
H1179 H 0.33271 0.89623 0.21699 0.0
H1180 H 0.43313 0.93087 0.13975 0.0
H1181 H 0.39759 0.91542 0.16635 0.0
H1182 H 0.32143 0.90345 0.10571 0.0
C1183 C 0.28114 0.84212 0.16752 0.0
C1184 C 0.3296 0.8984 0.19286 0.0
C1185 C 0.26767 0.8219 0.17939 0.0
C1186 C 0.41406 0.93282 0.13037 0.0
C1187 C 0.39364 0.92429 0.14575 0.0
C1188 C 0.32393 0.90294 0.13023 0.0
C1189 C 0.29043 0.86534 0.18602 0.0
C1190 C 0.3079 0.8852 0.17414 0.0
C1191 C 0.36852 0.92617 0.13389 0.0
C1192 C 0.34655 0.91459 0.14845 0.0
H1193 H 0.26817 0.8502 0.25222 0.0
H1194 H 0.29131 0.8859 0.23119 0.0
H1195 H 0.28798 0.8795 0.12801 0.0
H1196 H 0.38116 0.95328 0.06958 0.0
H1197 H 0.34571 0.93994 0.09712 0.0
C1198 C 0.69708 0.17437 0.14769 0.0
C1199 C 0.70732 0.1681 0.17599 0.0
C1200 C 0.68223 0.15563 0.12626 0.0
C1201 C 0.65724 0.08541 0.11044 0.0
H1202 H 0.5962 0.11032 0.07821 0.0
C1203 C 0.55864 0.02414 0.0866 0.0
C1204 C 0.54205 0.02735 0.06093 0.0
C1205 C 0.58237 0.03939 0.09354 0.0
C1206 C 0.61329 0.10305 0.08644 0.0
H1207 H 0.71127 0.13744 0.20384 0.0
H1208 H 0.68455 0.10466 0.16698 0.0
H1209 H 0.63244 0.14055 0.10293 0.0
H1210 H 0.53712 0.04887 0.02235 0.0
H1211 H 0.5787 0.0759 0.0346 0.0
H1212 H 0.63711 0.04771 0.0954 0.0
C1213 C 0.68849 0.12382 0.1607 0.0
C1214 C 0.63423 0.12043 0.10061 0.0
C1215 C 0.70377 0.14256 0.18193 0.0
C1216 C 0.54976 0.04584 0.04201 0.0
C1217 C 0.57343 0.06136 0.04915 0.0
C1218 C 0.63614 0.06799 0.0965 0.0
C1219 C 0.67668 0.13034 0.13307 0.0
C1220 C 0.65626 0.11186 0.11361 0.0
C1221 C 0.58989 0.05844 0.07519 0.0
C1222 C 0.61369 0.07663 0.08514 0.0
H1223 H 0.69964 0.19403 0.14273 0.0
H1224 H 0.67409 0.16128 0.10495 0.0
H1225 H 0.67403 0.0781 0.11956 0.0
H1226 H 0.55322 0.0099 0.10147 0.0
H1227 H 0.59444 0.03689 0.11397 0.0
C1228 C 0.66916 0.63991 0.7674 0.0
C1229 C 0.66247 0.66316 0.75901 0.0
C1230 C 0.65218 0.62317 0.78054 0.0
C1231 C 0.60961 0.58769 0.80254 0.0
H1232 H 0.58102 0.62475 0.86724 0.0
C1233 C 0.54474 0.53814 0.88282 0.0
C1234 C 0.55009 0.5473 0.91416 0.0
C1235 C 0.55676 0.55098 0.86109 0.0
C1236 C 0.58889 0.61413 0.84931 0.0
H1237 H 0.63163 0.68564 0.75483 0.0
H1238 H 0.60206 0.65637 0.77753 0.0
H1239 H 0.60358 0.64822 0.83151 0.0
H1240 H 0.57238 0.57699 0.94731 0.0
H1241 H 0.59334 0.59947 0.90933 0.0
H1242 H 0.59536 0.55359 0.82104 0.0
C1243 C 0.62066 0.65142 0.77463 0.0
C1244 C 0.60152 0.62754 0.82855 0.0
C1245 C 0.63761 0.66813 0.76148 0.0
C1246 C 0.56781 0.56949 0.92334 0.0
C1247 C 0.5797 0.58244 0.90158 0.0
C1248 C 0.59674 0.57423 0.82322 0.0
C1249 C 0.62816 0.62933 0.78553 0.0
C1250 C 0.61235 0.61453 0.80518 0.0
C1251 C 0.57423 0.57336 0.87021 0.0
C1252 C 0.58664 0.58737 0.84715 0.0
H1253 H 0.68807 0.63534 0.76563 0.0
H1254 H 0.65854 0.6063 0.78867 0.0
H1255 H 0.61766 0.57714 0.78472 0.0
H1256 H 0.53118 0.52107 0.87501 0.0
H1257 H 0.55203 0.54363 0.8371 0.0
C1258 C 0.3177 0.68533 0.82036 0.0
C1259 C 0.29241 0.68734 0.82453 0.0
C1260 C 0.33273 0.67383 0.8411 0.0
C1261 C 0.33115 0.62545 0.89151 0.0
H1262 H 0.39443 0.66313 0.93398 0.0
C1263 C 0.3968 0.57608 0.9699 0.0
C1264 C 0.42295 0.58202 0.96838 0.0
C1265 C 0.37985 0.59117 0.95745 0.0
C1266 C 0.37699 0.65218 0.92208 0.0
H1267 H 0.26282 0.67841 0.85322 0.0
H1268 H 0.28896 0.65735 0.88884 0.0
H1269 H 0.36702 0.68437 0.90046 0.0
H1270 H 0.45185 0.60854 0.95281 0.0
H1271 H 0.42248 0.63411 0.93003 0.0
H1272 H 0.34153 0.59281 0.91124 0.0
C1273 C 0.29716 0.66515 0.86983 0.0
C1274 C 0.36127 0.66445 0.90306 0.0
C1275 C 0.28229 0.67721 0.84952 0.0
C1276 C 0.43186 0.60376 0.95493 0.0
C1277 C 0.41491 0.6185 0.94188 0.0
C1278 C 0.34712 0.61298 0.90997 0.0
C1279 C 0.32254 0.66361 0.86592 0.0
C1280 C 0.33838 0.65109 0.88741 0.0
C1281 C 0.3886 0.61213 0.94239 0.0
C1282 C 0.37045 0.62609 0.92523 0.0
H1283 H 0.32602 0.69309 0.80142 0.0
H1284 H 0.35225 0.67265 0.8376 0.0
H1285 H 0.31359 0.61478 0.87947 0.0
H1286 H 0.38941 0.55946 0.98024 0.0
H1287 H 0.35984 0.58599 0.95904 0.0
C1288 C 0.31292 0.34851 0.77803 0.0
C1289 C 0.31875 0.32474 0.76621 0.0
C1290 C 0.33025 0.36466 0.79973 0.0
C1291 C 0.37873 0.35508 0.85996 0.0
H1292 H 0.38592 0.42861 0.87953 0.0
C1293 C 0.45343 0.41759 0.94852 0.0
C1294 C 0.44649 0.43949 0.96369 0.0
C1295 C 0.43538 0.4006 0.92871 0.0
C1296 C 0.38359 0.40798 0.87457 0.0
H1297 H 0.34899 0.30164 0.76305 0.0
H1298 H 0.3795 0.33027 0.80028 0.0
H1299 H 0.36355 0.40858 0.83016 0.0
H1300 H 0.41549 0.46 0.97301 0.0
H1301 H 0.38365 0.43031 0.93779 0.0
H1302 H 0.39939 0.35466 0.90415 0.0
C1303 C 0.36106 0.33574 0.794 0.0
C1304 C 0.37107 0.39658 0.8462 0.0
C1305 C 0.34366 0.31948 0.77245 0.0
C1306 C 0.42098 0.44299 0.96155 0.0
C1307 C 0.40293 0.42619 0.94131 0.0
C1308 C 0.39142 0.36651 0.88822 0.0
C1309 C 0.35376 0.35742 0.80951 0.0
C1310 C 0.36864 0.37002 0.83852 0.0
C1311 C 0.41038 0.40576 0.92346 0.0
C1312 C 0.39401 0.39306 0.8957 0.0
H1313 H 0.29406 0.35344 0.77316 0.0
H1314 H 0.32417 0.38145 0.81093 0.0
H1315 H 0.37651 0.33446 0.8551 0.0
H1316 H 0.47317 0.41481 0.94996 0.0
H1317 H 0.44158 0.385 0.91519 0.0
C1318 C 0.69872 0.32431 0.83867 0.0
C1319 C 0.68467 0.30125 0.82376 0.0
C1320 C 0.68961 0.3381 0.86258 0.0
C1321 C 0.64406 0.33303 0.91946 0.0
H1322 H 0.64752 0.40599 0.9165 0.0
C1323 C 0.57917 0.39509 0.97797 0.0
C1324 C 0.5872 0.42157 0.98464 0.0
C1325 C 0.59524 0.37917 0.96595 0.0
C1326 C 0.64693 0.38577 0.91829 0.0
H1327 H 0.65008 0.27451 0.82267 0.0
H1328 H 0.634 0.29888 0.86425 0.0
H1329 H 0.66655 0.38073 0.87912 0.0
H1330 H 0.61946 0.45155 0.98789 0.0
H1331 H 0.64785 0.42363 0.9681 0.0
H1332 H 0.62393 0.3381 0.95839 0.0
C1333 C 0.65223 0.30606 0.85756 0.0
C1334 C 0.65774 0.37123 0.89665 0.0
C1335 C 0.66133 0.29224 0.83353 0.0
C1336 C 0.61261 0.43128 0.98273 0.0
C1337 C 0.62878 0.4153 0.97096 0.0
C1338 C 0.63331 0.34764 0.94131 0.0
C1339 C 0.66624 0.32921 0.87224 0.0
C1340 C 0.65609 0.34465 0.89665 0.0
C1341 C 0.61978 0.38938 0.96068 0.0
C1342 C 0.63425 0.37416 0.94067 0.0
H1343 H 0.71686 0.33178 0.83195 0.0
H1344 H 0.70098 0.35572 0.87363 0.0
H1345 H 0.64282 0.31261 0.92031 0.0
H1346 H 0.55984 0.38697 0.97998 0.0
H1347 H 0.58763 0.3593 0.95854 0.0
C1348 C 0.66841 0.28571 0.17097 0.0
C1349 C 0.69263 0.29594 0.18621 0.0
C1350 C 0.65618 0.29892 0.14955 0.0
C1351 C 0.65358 0.36377 0.13125 0.0
H1352 H 0.61173 0.32977 0.05743 0.0
C1353 C 0.58888 0.41943 0.06348 0.0
C1354 C 0.56362 0.40729 0.05665 0.0
C1355 C 0.60834 0.40542 0.07093 0.0
C1356 C 0.62335 0.33953 0.07794 0.0
H1357 H 0.72326 0.32782 0.19027 0.0
H1358 H 0.70176 0.35094 0.15296 0.0
H1359 H 0.63901 0.30582 0.08768 0.0
H1360 H 0.53917 0.37069 0.05026 0.0
H1361 H 0.57297 0.34626 0.06442 0.0
H1362 H 0.63721 0.39706 0.12269 0.0
C1363 C 0.69224 0.33274 0.15777 0.0
C1364 C 0.63894 0.32583 0.09523 0.0
C1365 C 0.70453 0.31948 0.17913 0.0
C1366 C 0.55847 0.38057 0.05532 0.0
C1367 C 0.57791 0.36655 0.06333 0.0
C1368 C 0.63794 0.37739 0.11412 0.0
C1369 C 0.66785 0.32268 0.14295 0.0
C1370 C 0.65378 0.3377 0.12243 0.0
C1371 C 0.60289 0.37901 0.07248 0.0
C1372 C 0.6222 0.36532 0.08763 0.0
H1373 H 0.65874 0.26756 0.17573 0.0
H1374 H 0.63724 0.29087 0.13884 0.0
H1375 H 0.66451 0.37337 0.1523 0.0
H1376 H 0.59349 0.43997 0.06433 0.0
H1377 H 0.62748 0.4155 0.07703 0.0
C1378 C 0.66616 0.66193 0.25633 0.0
C1379 C 0.69102 0.66413 0.24872 0.0
C1380 C 0.64839 0.64076 0.24336 0.0
C1381 C 0.6371 0.60869 0.16904 0.0
H1382 H 0.58173 0.56371 0.19356 0.0
C1383 C 0.5635 0.54464 0.07976 0.0
C1384 C 0.53845 0.53999 0.08646 0.0
C1385 C 0.5827 0.55741 0.10207 0.0
C1386 C 0.59693 0.57644 0.18639 0.0
H1387 H 0.71802 0.64501 0.22566 0.0
H1388 H 0.68712 0.60798 0.20335 0.0
H1389 H 0.61489 0.58747 0.23265 0.0
H1390 H 0.51342 0.54614 0.12095 0.0
H1391 H 0.54665 0.56973 0.15935 0.0
H1392 H 0.61887 0.59931 0.12328 0.0
C1393 C 0.68121 0.6225 0.21888 0.0
C1394 C 0.61596 0.58974 0.20875 0.0
C1395 C 0.69882 0.64363 0.23157 0.0
C1396 C 0.53269 0.54932 0.11533 0.0
C1397 C 0.55178 0.56255 0.13744 0.0
C1398 C 0.61796 0.59588 0.14687 0.0
C1399 C 0.65555 0.62185 0.22287 0.0
C1400 C 0.6362 0.60588 0.20012 0.0
C1401 C 0.57711 0.56631 0.13131 0.0
C1402 C 0.59761 0.57959 0.15519 0.0
H1403 H 0.65985 0.67769 0.26944 0.0
H1404 H 0.62863 0.6406 0.24665 0.0
H1405 H 0.65225 0.62157 0.16194 0.0
H1406 H 0.56847 0.53744 0.05777 0.0
H1407 H 0.60202 0.55964 0.09661 0.0
C1408 C 0.28686 0.66496 0.19754 0.0
C1409 C 0.28323 0.6895 0.19054 0.0
C1410 C 0.29823 0.64907 0.17787 0.0
C1411 C 0.34259 0.6485 0.12244 0.0
H1412 H 0.30733 0.58031 0.09303 0.0
C1413 C 0.38957 0.57835 0.04778 0.0
C1414 C 0.38663 0.55295 0.05459 0.0
C1415 C 0.37432 0.59545 0.05927 0.0
C1416 C 0.31759 0.59918 0.10124 0.0
H1417 H 0.28931 0.71693 0.15799 0.0
H1418 H 0.31004 0.68929 0.1241 0.0
H1419 H 0.28699 0.60956 0.12491 0.0
H1420 H 0.3652 0.52564 0.07884 0.0
H1421 H 0.33936 0.55539 0.09959 0.0
H1422 H 0.37379 0.63792 0.10051 0.0
C1423 C 0.30367 0.68235 0.14458 0.0
C1424 C 0.30585 0.61592 0.11936 0.0
C1425 C 0.29182 0.69808 0.16392 0.0
C1426 C 0.36761 0.54487 0.07246 0.0
C1427 C 0.3527 0.56204 0.08441 0.0
C1428 C 0.35457 0.6316 0.10482 0.0
C1429 C 0.30662 0.6576 0.1512 0.0
C1430 C 0.3184 0.64057 0.13041 0.0
C1431 C 0.35618 0.5877 0.0785 0.0
C1432 C 0.34237 0.60656 0.09436 0.0
H1433 H 0.28031 0.65777 0.21778 0.0
H1434 H 0.30054 0.6301 0.18353 0.0
H1435 H 0.35264 0.66743 0.13087 0.0
H1436 H 0.40413 0.58525 0.03425 0.0
H1437 H 0.37723 0.6149 0.05368 0.0
C1438 C 0.29454 0.33212 0.22966 0.0
C1439 C 0.30053 0.31284 0.24738 0.0
C1440 C 0.31361 0.35073 0.22332 0.0
C1441 C 0.35818 0.39196 0.21869 0.0
H1442 H 0.40625 0.35793 0.1764 0.0
C1443 C 0.43041 0.44461 0.1493 0.0
C1444 C 0.42991 0.4329 0.1192 0.0
C1445 C 0.41803 0.43171 0.1707 0.0
C1446 C 0.3931 0.36773 0.18835 0.0
H1447 H 0.33076 0.29849 0.27382 0.0
H1448 H 0.36454 0.33081 0.26187 0.0
H1449 H 0.37861 0.33412 0.2075 0.0
H1450 H 0.41638 0.39835 0.08808 0.0
H1451 H 0.3949 0.37568 0.12564 0.0
H1452 H 0.37206 0.42532 0.19861 0.0
C1453 C 0.34499 0.33169 0.25334 0.0
C1454 C 0.3775 0.35421 0.20644 0.0
C1455 C 0.32572 0.31335 0.26031 0.0
C1456 C 0.41705 0.40788 0.11106 0.0
C1457 C 0.40495 0.39485 0.13262 0.0
C1458 C 0.37406 0.40559 0.20097 0.0
C1459 C 0.33913 0.35005 0.23397 0.0
C1460 C 0.35929 0.36595 0.22093 0.0
C1461 C 0.40519 0.4067 0.16259 0.0
C1462 C 0.39105 0.39334 0.18479 0.0
H1463 H 0.27522 0.33201 0.21939 0.0
H1464 H 0.30853 0.36448 0.20814 0.0
H1465 H 0.34431 0.40146 0.22965 0.0
H1466 H 0.44018 0.46388 0.15628 0.0
H1467 H 0.41856 0.44126 0.19365 0.0
C1468 C 0.7926 0.70265 0.65122 0.0
C1469 C 0.77586 0.68888 0.66814 0.0
C1470 C 0.80586 0.68984 0.63054 0.0
C1471 C 0.80626 0.62837 0.5846 0.0
H1472 H 0.87943 0.64715 0.59615 0.0
C1473 C 0.87316 0.5599 0.54469 0.0
C1474 C 0.89743 0.56963 0.53818 0.0
C1475 C 0.85663 0.57637 0.55412 0.0
C1476 C 0.859 0.64198 0.59193 0.0
H1477 H 0.75931 0.65085 0.6758 0.0
H1478 H 0.78227 0.62851 0.63934 0.0
H1479 H 0.85347 0.67237 0.62501 0.0
H1480 H 0.92276 0.60417 0.53417 0.0
H1481 H 0.89351 0.63315 0.54969 0.0
H1482 H 0.81166 0.59797 0.55155 0.0
C1483 C 0.78512 0.64922 0.64221 0.0
C1484 C 0.84414 0.6564 0.60868 0.0
C1485 C 0.77213 0.66202 0.66323 0.0
C1486 C 0.90423 0.5962 0.53937 0.0
C1487 C 0.88753 0.61274 0.54846 0.0
C1488 C 0.82109 0.61414 0.56749 0.0
C1489 C 0.80238 0.66301 0.62599 0.0
C1490 C 0.8177 0.64936 0.60572 0.0
C1491 C 0.86384 0.60304 0.55697 0.0
C1492 C 0.84773 0.62033 0.57154 0.0
H1493 H 0.79594 0.72335 0.65446 0.0
H1494 H 0.81897 0.70091 0.6182 0.0
H1495 H 0.78586 0.62277 0.58159 0.0
H1496 H 0.86752 0.53951 0.54443 0.0
H1497 H 0.8388 0.56808 0.56089 0.0
C1498 C 0.33348 0.75725 0.69144 0.0
C1499 C 0.31253 0.76985 0.69616 0.0
C1500 C 0.35159 0.76699 0.67335 0.0
C1501 C 0.35861 0.80715 0.61156 0.0
H1502 H 0.42857 0.82893 0.64705 0.0
C1503 C 0.42444 0.87534 0.55319 0.0
C1504 C 0.437 0.89673 0.57304 0.0
C1505 C 0.41361 0.85357 0.56493 0.0
C1506 C 0.40915 0.82273 0.63671 0.0
H1507 H 0.2942 0.80246 0.68561 0.0
H1508 H 0.32538 0.81903 0.65409 0.0
H1509 H 0.4 0.80159 0.67387 0.0
H1510 H 0.44908 0.9117 0.62059 0.0
H1511 H 0.4295 0.87411 0.64111 0.0
H1512 H 0.36694 0.82943 0.57549 0.0
C1513 C 0.32782 0.80167 0.66423 0.0
C1514 C 0.39293 0.80691 0.6519 0.0
C1515 C 0.31008 0.79227 0.68255 0.0
C1516 C 0.43937 0.89557 0.60476 0.0
C1517 C 0.42842 0.87387 0.61649 0.0
C1518 C 0.37476 0.82282 0.59635 0.0
C1519 C 0.34863 0.7891 0.65929 0.0
C1520 C 0.36724 0.80003 0.64009 0.0
C1521 C 0.41497 0.85282 0.59674 0.0
C1522 C 0.3999 0.83174 0.60944 0.0
H1523 H 0.33589 0.73997 0.70172 0.0
H1524 H 0.36763 0.75711 0.66998 0.0
H1525 H 0.33889 0.80184 0.60189 0.0
H1526 H 0.42268 0.87551 0.52858 0.0
H1527 H 0.40366 0.83755 0.5491 0.0
C1528 C 0.19797 0.31437 0.66032 0.0
C1529 C 0.1945 0.28788 0.66201 0.0
C1530 C 0.18173 0.32502 0.64004 0.0
C1531 C 0.11631 0.31398 0.60428 0.0
H1532 H 0.13832 0.3713 0.56106 0.0
C1533 C 0.04377 0.3721 0.5505 0.0
C1534 C 0.05048 0.39875 0.55717 0.0
C1535 C 0.06199 0.3559 0.55513 0.0
C1536 C 0.13184 0.35536 0.57306 0.0
H1537 H 0.17178 0.25169 0.64279 0.0
H1538 H 0.14316 0.27044 0.6076 0.0
H1539 H 0.16972 0.34769 0.58471 0.0
H1540 H 0.08204 0.42931 0.57139 0.0
H1541 H 0.11342 0.40125 0.58063 0.0
H1542 H 0.07865 0.32238 0.59429 0.0
C1543 C 0.15852 0.28289 0.62201 0.0
C1544 C 0.14983 0.3418 0.5865 0.0
C1545 C 0.17499 0.27217 0.64207 0.0
C1546 C 0.07606 0.40884 0.56683 0.0
C1547 C 0.0942 0.3927 0.57163 0.0
C1548 C 0.09834 0.32768 0.59112 0.0
C1549 C 0.16146 0.30948 0.62119 0.0
C1550 C 0.14231 0.32138 0.60294 0.0
C1551 C 0.0873 0.36598 0.56659 0.0
C1552 C 0.10593 0.34901 0.57608 0.0
H1553 H 0.21287 0.32701 0.67525 0.0
H1554 H 0.18435 0.3456 0.64017 0.0
H1555 H 0.10994 0.2985 0.61705 0.0
H1556 H 0.02425 0.36365 0.54294 0.0
H1557 H 0.05608 0.33544 0.55049 0.0
C1558 C 0.62248 0.21653 0.67231 0.0
C1559 C 0.64708 0.21909 0.66364 0.0
C1560 C 0.60255 0.20019 0.65424 0.0
C1561 C 0.58373 0.15729 0.58056 0.0
H1562 H 0.55299 0.1115 0.63345 0.0
C1563 C 0.5397 0.05179 0.5397 0.0
C1564 C 0.51924 0.04107 0.55377 0.0
C1565 C 0.55156 0.07691 0.54943 0.0
C1566 C 0.56085 0.12427 0.61818 0.0
H1567 H 0.66931 0.20876 0.62737 0.0
H1568 H 0.63471 0.17999 0.59621 0.0
H1569 H 0.57913 0.15111 0.65581 0.0
H1570 H 0.49409 0.04837 0.58771 0.0
H1571 H 0.51428 0.0922 0.6043 0.0
H1572 H 0.56583 0.12978 0.54289 0.0
C1573 C 0.63075 0.19059 0.61693 0.0
C1574 C 0.57589 0.14713 0.63108 0.0
C1575 C 0.65067 0.20704 0.63494 0.0
C1576 C 0.51021 0.05606 0.57694 0.0
C1577 C 0.52179 0.08118 0.5864 0.0
C1578 C 0.56851 0.13434 0.56756 0.0
C1579 C 0.60681 0.18596 0.62719 0.0
C1580 C 0.58791 0.16373 0.61254 0.0
C1581 C 0.54299 0.09177 0.5733 0.0
C1582 C 0.55725 0.11733 0.5863 0.0
H1583 H 0.6189 0.2259 0.69399 0.0
H1584 H 0.58413 0.19755 0.66237 0.0
H1585 H 0.59259 0.16976 0.56563 0.0
H1586 H 0.54711 0.04044 0.522 0.0
H1587 H 0.56801 0.08428 0.53906 0.0
C1588 C 0.76728 0.34794 0.33264 0.0
C1589 C 0.76653 0.32329 0.34169 0.0
C1590 C 0.78118 0.36906 0.35134 0.0
C1591 C 0.82022 0.39123 0.42699 0.0
H1592 H 0.86585 0.42496 0.37641 0.0
C1593 C 0.92305 0.43809 0.47181 0.0
C1594 C 0.93443 0.45791 0.457 0.0
C1595 C 0.89801 0.42664 0.46188 0.0
C1596 C 0.85303 0.41639 0.39106 0.0
H1597 H 0.77755 0.30185 0.37882 0.0
H1598 H 0.80235 0.33864 0.41117 0.0
H1599 H 0.82848 0.39645 0.3524 0.0
H1600 H 0.92837 0.48282 0.42203 0.0
H1601 H 0.88443 0.46355 0.40526 0.0
H1602 H 0.84552 0.41078 0.46574 0.0
C1603 C 0.79204 0.34172 0.38974 0.0
C1604 C 0.83146 0.39992 0.37718 0.0
C1605 C 0.77791 0.32057 0.37111 0.0
C1606 C 0.92007 0.46714 0.43332 0.0
C1607 C 0.89493 0.45606 0.42376 0.0
C1608 C 0.84184 0.40796 0.44098 0.0
C1609 C 0.79488 0.36596 0.37935 0.0
C1610 C 0.81511 0.38662 0.39487 0.0
C1611 C 0.88383 0.43505 0.43715 0.0
C1612 C 0.85889 0.42023 0.42311 0.0
H1613 H 0.75825 0.35075 0.31035 0.0
H1614 H 0.78247 0.38761 0.34304 0.0
H1615 H 0.80785 0.38143 0.44125 0.0
H1616 H 0.9339 0.43061 0.49001 0.0
H1617 H 0.89029 0.41037 0.47258 0.0
C1618 C 0.69922 0.82022 0.33105 0.0
C1619 C 0.70452 0.79569 0.33612 0.0
C1620 C 0.68665 0.83408 0.35141 0.0
C1621 C 0.64364 0.82736 0.41041 0.0
H1622 H 0.66172 0.90112 0.42286 0.0
C1623 C 0.57304 0.89526 0.44138 0.0
C1624 C 0.58203 0.92008 0.45606 0.0
C1625 C 0.58989 0.87821 0.43469 0.0
C1626 C 0.65659 0.88054 0.42033 0.0
H1627 H 0.70068 0.76659 0.36695 0.0
H1628 H 0.67867 0.79107 0.4029 0.0
H1629 H 0.68841 0.87532 0.39646 0.0
H1630 H 0.61572 0.94552 0.47775 0.0
H1631 H 0.64503 0.91546 0.4672 0.0
H1632 H 0.6118 0.83266 0.43446 0.0
C1633 C 0.68423 0.7994 0.38286 0.0
C1634 C 0.67176 0.86571 0.40468 0.0
C1635 C 0.69692 0.78542 0.36234 0.0
C1636 C 0.60811 0.92665 0.46621 0.0
C1637 C 0.62498 0.90946 0.45981 0.0
C1638 C 0.6285 0.84222 0.42634 0.0
C1639 C 0.67902 0.82396 0.37764 0.0
C1640 C 0.66502 0.83903 0.39854 0.0
C1641 C 0.6162 0.88539 0.44285 0.0
C1642 C 0.63434 0.8691 0.43067 0.0
H1643 H 0.70461 0.82882 0.31109 0.0
H1644 H 0.68247 0.85263 0.34617 0.0
H1645 H 0.63788 0.80686 0.40615 0.0
H1646 H 0.55298 0.8893 0.43399 0.0
H1647 H 0.58228 0.85994 0.42158 0.0
C1648 C 0.21361 0.64749 0.32096 0.0
C1649 C 0.19721 0.6608 0.30385 0.0
C1650 C 0.20381 0.62656 0.33513 0.0
C1651 C 0.14581 0.57977 0.33456 0.0
H1652 H 0.16662 0.58223 0.42169 0.0
C1653 C 0.0961 0.55209 0.4448 0.0
C1654 C 0.08161 0.52859 0.43233 0.0
C1655 C 0.11566 0.5632 0.42977 0.0
C1656 C 0.16069 0.58119 0.39734 0.0
H1657 H 0.15777 0.66199 0.28737 0.0
H1658 H 0.14085 0.62581 0.31199 0.0
H1659 H 0.19032 0.61116 0.39183 0.0
H1660 H 0.07755 0.49721 0.39591 0.0
H1661 H 0.11196 0.51632 0.37003 0.0
H1662 H 0.11529 0.55112 0.34014 0.0
C1663 C 0.16125 0.63135 0.31435 0.0
C1664 C 0.17444 0.59755 0.38018 0.0
C1665 C 0.17096 0.65229 0.30047 0.0
C1666 C 0.08808 0.51562 0.4057 0.0
C1667 C 0.10779 0.52657 0.39087 0.0
C1668 C 0.1321 0.56348 0.35164 0.0
C1669 C 0.1775 0.61841 0.3321 0.0
C1670 C 0.16648 0.59769 0.34887 0.0
C1671 C 0.12126 0.55088 0.40215 0.0
C1672 C 0.13879 0.56466 0.38345 0.0
H1673 H 0.23394 0.65354 0.32394 0.0
H1674 H 0.21677 0.61687 0.34861 0.0
H1675 H 0.1395 0.57918 0.31035 0.0
H1676 H 0.09163 0.56242 0.46544 0.0
H1677 H 0.12545 0.58206 0.43897 0.0
C1678 C 0.28623 0.16571 0.31662 0.0
C1679 C 0.28545 0.19206 0.32255 0.0
C1680 C 0.29905 0.15293 0.33791 0.0
C1681 C 0.35029 0.16202 0.40138 0.0
H1682 H 0.32164 0.09265 0.41095 0.0
C1683 C 0.40664 0.09447 0.46748 0.0
C1684 C 0.40747 0.07133 0.44926 0.0
C1685 C 0.38925 0.1106 0.45871 0.0
C1686 C 0.3298 0.11207 0.40871 0.0
H1687 H 0.29779 0.22566 0.35567 0.0
H1688 H 0.32051 0.20313 0.39305 0.0
H1689 H 0.29591 0.11919 0.38294 0.0
H1690 H 0.39011 0.04701 0.40774 0.0
H1691 H 0.35953 0.07452 0.39327 0.0
H1692 H 0.38451 0.15444 0.42638 0.0
C1693 C 0.31106 0.19249 0.37175 0.0
C1694 C 0.31514 0.12723 0.39259 0.0
C1695 C 0.29804 0.20536 0.35037 0.0
C1696 C 0.38978 0.06429 0.42282 0.0
C1697 C 0.37224 0.08016 0.41437 0.0
C1698 C 0.36497 0.14683 0.41768 0.0
C1699 C 0.3115 0.16607 0.36578 0.0
C1700 C 0.32554 0.152 0.38768 0.0
C1701 C 0.37206 0.10367 0.43188 0.0
C1702 C 0.35515 0.12139 0.42045 0.0
H1703 H 0.27685 0.15477 0.29546 0.0
H1704 H 0.29951 0.1327 0.33227 0.0
H1705 H 0.35885 0.18101 0.39793 0.0
H1706 H 0.41966 0.10033 0.48827 0.0
H1707 H 0.38938 0.12857 0.47271 0.0
C1708 C 0.69571 0.79177 0.64654 0.0
C1709 C 0.68223 0.77522 0.66401 0.0
C1710 C 0.68282 0.80457 0.62522 0.0
C1711 C 0.62254 0.80471 0.57797 0.0
H1712 H 0.63903 0.87856 0.5925 0.0
C1713 C 0.55347 0.87106 0.53689 0.0
C1714 C 0.56267 0.89637 0.53301 0.0
C1715 C 0.57016 0.85452 0.546 0.0
C1716 C 0.63453 0.85799 0.58737 0.0
H1717 H 0.64466 0.75828 0.67179 0.0
H1718 H 0.62211 0.78044 0.63398 0.0
H1719 H 0.66412 0.85234 0.62147 0.0
H1720 H 0.59652 0.92372 0.53316 0.0
H1721 H 0.62593 0.89446 0.54745 0.0
H1722 H 0.59308 0.81019 0.5437 0.0
C1723 C 0.64268 0.78351 0.63705 0.0
C1724 C 0.64885 0.84297 0.60423 0.0
C1725 C 0.65557 0.77098 0.65879 0.0
C1726 C 0.58897 0.90433 0.53627 0.0
C1727 C 0.60576 0.8876 0.54473 0.0
C1728 C 0.60848 0.81971 0.56062 0.0
C1729 C 0.65621 0.80078 0.62053 0.0
C1730 C 0.6426 0.81626 0.60021 0.0
C1731 C 0.59653 0.86278 0.55096 0.0
C1732 C 0.61383 0.84661 0.56569 0.0
H1733 H 0.71625 0.79549 0.64998 0.0
H1734 H 0.69365 0.81774 0.61266 0.0
H1735 H 0.61757 0.78409 0.57423 0.0
H1736 H 0.53324 0.86452 0.53486 0.0
H1737 H 0.56217 0.83579 0.55092 0.0
C1738 C 0.66733 0.20903 0.34594 0.0
C1739 C 0.66242 0.21573 0.3162 0.0
C1740 C 0.64794 0.1967 0.36004 0.0
C1741 C 0.60411 0.17466 0.39018 0.0
H1742 H 0.5595 0.12113 0.33637 0.0
C1743 C 0.54547 0.09275 0.43916 0.0
C1744 C 0.54293 0.06836 0.42268 0.0
C1745 C 0.55491 0.11441 0.4262 0.0
C1746 C 0.57197 0.13582 0.3518 0.0
H1747 H 0.63284 0.21658 0.27889 0.0
H1748 H 0.59865 0.19566 0.30399 0.0
H1749 H 0.58539 0.15391 0.31454 0.0
H1750 H 0.54839 0.04726 0.38005 0.0
H1751 H 0.56656 0.08469 0.35815 0.0
H1752 H 0.59257 0.15532 0.42736 0.0
C1753 C 0.61773 0.19922 0.31601 0.0
C1754 C 0.58649 0.15503 0.33923 0.0
C1755 C 0.63729 0.21132 0.30166 0.0
C1756 C 0.55016 0.06591 0.39317 0.0
C1757 C 0.56024 0.08748 0.3805 0.0
C1758 C 0.59005 0.15514 0.40273 0.0
C1759 C 0.62297 0.19102 0.34501 0.0
C1760 C 0.60355 0.17412 0.35825 0.0
C1761 C 0.56266 0.11209 0.39676 0.0
C1762 C 0.57451 0.1349 0.38366 0.0
H1763 H 0.68644 0.21214 0.35787 0.0
H1764 H 0.65297 0.19037 0.38209 0.0
H1765 H 0.61641 0.1895 0.4056 0.0
H1766 H 0.53955 0.09515 0.4618 0.0
H1767 H 0.55596 0.13296 0.43927 0.0
C1768 C 0.83482 0.70881 0.32207 0.0
C1769 C 0.80974 0.70931 0.32847 0.0
C1770 C 0.85034 0.69387 0.33732 0.0
C1771 C 0.8601 0.65955 0.4048 0.0
H1772 H 0.89522 0.61831 0.35109 0.0
C1773 C 0.91857 0.58155 0.44572 0.0
C1774 C 0.94088 0.57918 0.43229 0.0
C1775 C 0.90204 0.59797 0.43522 0.0
C1776 C 0.88586 0.62992 0.36655 0.0
H1777 H 0.78184 0.69537 0.35723 0.0
H1778 H 0.80921 0.66924 0.38407 0.0
H1779 H 0.86773 0.64642 0.32959 0.0
H1780 H 0.9641 0.59333 0.39872 0.0
H1781 H 0.93568 0.62206 0.38078 0.0
H1782 H 0.8786 0.64312 0.44186 0.0
C1783 C 0.8167 0.68047 0.36709 0.0
C1784 C 0.87003 0.64601 0.35417 0.0
C1785 C 0.80102 0.6954 0.35167 0.0
C1786 C 0.94676 0.59425 0.40902 0.0
C1787 C 0.93041 0.61069 0.39869 0.0
C1788 C 0.87616 0.64348 0.41729 0.0
C1789 C 0.8413 0.67906 0.35948 0.0
C1790 C 0.85722 0.66127 0.37313 0.0
C1791 C 0.90758 0.61242 0.41118 0.0
C1792 C 0.88952 0.62874 0.39831 0.0
H1793 H 0.84235 0.71943 0.30461 0.0
H1794 H 0.86939 0.69358 0.33137 0.0
H1795 H 0.85047 0.67112 0.41998 0.0
H1796 H 0.91348 0.57012 0.46367 0.0
H1797 H 0.8846 0.59875 0.4453 0.0
C1798 C 0.32908 0.76843 0.33689 0.0
C1799 C 0.30393 0.76685 0.34332 0.0
C1800 C 0.34868 0.78318 0.35738 0.0
C1801 C 0.35447 0.8404 0.41288 0.0
H1802 H 0.42632 0.83575 0.41842 0.0
C1803 C 0.42911 0.9261 0.4653 0.0
C1804 C 0.4488 0.932 0.44764 0.0
C1805 C 0.41329 0.90254 0.45919 0.0
C1806 C 0.40629 0.83726 0.4171 0.0
H1807 H 0.27954 0.77671 0.37711 0.0
H1808 H 0.31376 0.80125 0.41368 0.0
H1809 H 0.39523 0.79816 0.39764 0.0
H1810 H 0.46768 0.91817 0.40983 0.0
H1811 H 0.43967 0.87707 0.39854 0.0
H1812 H 0.36535 0.87953 0.43134 0.0
C1813 C 0.31845 0.79211 0.39245 0.0
C1814 C 0.38849 0.81575 0.40522 0.0
C1815 C 0.29887 0.77788 0.37171 0.0
C1816 C 0.45253 0.914 0.42372 0.0
C1817 C 0.43674 0.89038 0.41758 0.0
C1818 C 0.37218 0.86175 0.42485 0.0
C1819 C 0.34334 0.79629 0.38471 0.0
C1820 C 0.36235 0.81727 0.40219 0.0
C1821 C 0.41677 0.88449 0.43506 0.0
C1822 C 0.39829 0.86067 0.42632 0.0
H1823 H 0.3333 0.76019 0.31493 0.0
H1824 H 0.36755 0.78597 0.35053 0.0
H1825 H 0.3346 0.84261 0.41039 0.0
H1826 H 0.4256 0.93999 0.48343 0.0
H1827 H 0.39813 0.89858 0.47312 0.0
C1828 C 0.16192 0.28127 0.31751 0.0
C1829 C 0.188 0.2803 0.32427 0.0
C1830 C 0.14837 0.29181 0.33949 0.0
C1831 C 0.15537 0.33647 0.40977 0.0
H1832 H 0.08559 0.30601 0.41159 0.0
C1833 C 0.08826 0.38663 0.48076 0.0
C1834 C 0.06626 0.39046 0.46234 0.0
C1835 C 0.10342 0.36894 0.47035 0.0
C1836 C 0.1051 0.31463 0.41152 0.0
H1837 H 0.22031 0.28994 0.35959 0.0
H1838 H 0.19646 0.30851 0.39819 0.0
H1839 H 0.11267 0.28367 0.38079 0.0
H1840 H 0.04232 0.37734 0.4192 0.0
H1841 H 0.06819 0.34625 0.40169 0.0
H1842 H 0.14746 0.3678 0.43985 0.0
C1843 C 0.18662 0.30108 0.3757 0.0
C1844 C 0.12058 0.30193 0.39378 0.0
C1845 C 0.20026 0.29045 0.35359 0.0
C1846 C 0.05883 0.37479 0.43434 0.0
C1847 C 0.07377 0.35694 0.42415 0.0
C1848 C 0.13988 0.34913 0.42769 0.0
C1849 C 0.16045 0.30165 0.36892 0.0
C1850 C 0.14559 0.31315 0.39177 0.0
C1851 C 0.09665 0.35443 0.44154 0.0
C1852 C 0.11433 0.33874 0.42786 0.0
H1853 H 0.15179 0.2738 0.29517 0.0
H1854 H 0.1284 0.29253 0.3332 0.0
H1855 H 0.17451 0.34567 0.40865 0.0
H1856 H 0.0943 0.39797 0.50274 0.0
H1857 H 0.12079 0.36713 0.4844 0.0
C1858 C 0.26666 0.17046 0.65212 0.0
C1859 C 0.28219 0.19166 0.66947 0.0
C1860 C 0.27728 0.15255 0.63403 0.0
C1861 C 0.33471 0.14324 0.59735 0.0
H1862 H 0.3165 0.07179 0.60765 0.0
C1863 C 0.39863 0.06841 0.56724 0.0
C1864 C 0.38764 0.04321 0.5559 0.0
C1865 C 0.38362 0.08645 0.57679 0.0
C1866 C 0.32149 0.09157 0.60397 0.0
H1867 H 0.32095 0.21109 0.68045 0.0
H1868 H 0.33932 0.18009 0.64882 0.0
H1869 H 0.29383 0.1037 0.6315 0.0
H1870 H 0.35205 0.01745 0.54496 0.0
H1871 H 0.32572 0.04908 0.56145 0.0
H1872 H 0.36248 0.13128 0.57006 0.0
C1873 C 0.31895 0.17727 0.64917 0.0
C1874 C 0.3085 0.10988 0.61772 0.0
C1875 C 0.30842 0.19498 0.66747 0.0
C1876 C 0.36115 0.03662 0.55391 0.0
C1877 C 0.34607 0.05475 0.56339 0.0
C1878 C 0.34756 0.12495 0.58343 0.0
C1879 C 0.30359 0.15566 0.63258 0.0
C1880 C 0.31535 0.13597 0.61512 0.0
C1881 C 0.35715 0.07987 0.5752 0.0
C1882 C 0.34155 0.09893 0.58715 0.0
H1883 H 0.2464 0.1673 0.65318 0.0
H1884 H 0.26494 0.13618 0.62132 0.0
H1885 H 0.34013 0.16316 0.59451 0.0
H1886 H 0.41901 0.07407 0.5697 0.0
H1887 H 0.39295 0.10539 0.58635 0.0
C1888 C 0.75727 0.32137 0.65724 0.0
C1889 C 0.75368 0.32465 0.68832 0.0
C1890 C 0.77006 0.34131 0.644 0.0
C1891 C 0.82072 0.39421 0.66833 0.0
H1892 H 0.811 0.40686 0.58339 0.0
C1893 C 0.89842 0.45512 0.61626 0.0
C1894 C 0.90342 0.4451 0.58731 0.0
C1895 C 0.87658 0.44518 0.6282 0.0
C1896 C 0.81399 0.40347 0.60716 0.0
H1897 H 0.75831 0.35231 0.72896 0.0
H1898 H 0.78058 0.38701 0.70578 0.0
H1899 H 0.77703 0.38143 0.60462 0.0
H1900 H 0.88933 0.41709 0.54789 0.0
H1901 H 0.85169 0.39916 0.5691 0.0
H1902 H 0.858 0.41499 0.67069 0.0
C1903 C 0.77396 0.36886 0.69186 0.0
C1904 C 0.79451 0.38903 0.6193 0.0
C1905 C 0.76118 0.34895 0.7051 0.0
C1906 C 0.88602 0.42515 0.57034 0.0
C1907 C 0.86428 0.41509 0.58236 0.0
C1908 C 0.8402 0.40849 0.65618 0.0
C1909 C 0.77948 0.3649 0.66158 0.0
C1910 C 0.79795 0.38371 0.64982 0.0
C1911 C 0.85937 0.42487 0.61151 0.0
C1912 C 0.83735 0.41271 0.62524 0.0
H1913 H 0.75152 0.30298 0.64356 0.0
H1914 H 0.77408 0.33763 0.62062 0.0
H1915 H 0.82414 0.39014 0.6918 0.0
H1916 H 0.91131 0.47075 0.62969 0.0
H1917 H 0.87321 0.4534 0.65054 0.0
C1918 C 0.21251 0.6319 0.67844 0.0
C1919 C 0.21969 0.65648 0.67054 0.0
C1920 C 0.19701 0.61338 0.65721 0.0
C1921 C 0.1629 0.57684 0.60589 0.0
H1922 H 0.10548 0.61089 0.58202 0.0
C1923 C 0.06459 0.52477 0.54486 0.0
C1924 C 0.04439 0.52999 0.56097 0.0
C1925 C 0.08872 0.53913 0.55269 0.0
C1926 C 0.12144 0.60116 0.58822 0.0
H1927 H 0.21867 0.68054 0.634 0.0
H1928 H 0.19194 0.64813 0.59671 0.0
H1929 H 0.14608 0.63627 0.60327 0.0
H1930 H 0.03336 0.55445 0.59784 0.0
H1931 H 0.07545 0.58015 0.61114 0.0
H1932 H 0.13766 0.54163 0.59156 0.0
C1933 C 0.19806 0.64309 0.61917 0.0
C1934 C 0.14478 0.61564 0.60009 0.0
C1935 C 0.21351 0.66154 0.64037 0.0
C1936 C 0.04861 0.55007 0.58497 0.0
C1937 C 0.07261 0.56479 0.59246 0.0
C1938 C 0.13956 0.5623 0.59347 0.0
C1939 C 0.18834 0.61941 0.62802 0.0
C1940 C 0.16557 0.60368 0.6099 0.0
C1941 C 0.09291 0.55931 0.57654 0.0
C1942 C 0.11845 0.57439 0.58549 0.0
H1943 H 0.21674 0.62783 0.7018 0.0
H1944 H 0.18974 0.59535 0.66473 0.0
H1945 H 0.17859 0.56714 0.61328 0.0
H1946 H 0.06181 0.50914 0.52672 0.0
H1947 H 0.10406 0.53453 0.54008 0.0
loop_
_geom_bond_atom_site_label_1
_geom_bond_atom_site_label_2
_geom_bond_distance
_geom_bond_site_symmetry_2
_ccdc_geom_bond_type
O0 Zn1 1.953 . S
O0 C16 1.225 . S
Zn1 O0 1.953 . S
Zn1 O2 1.949 . S
Zn1 O8 1.919 . S
Zn1 O13 1.924 . S
O2 Zn1 1.949 . S
O2 Zn3 1.923 . S
O2 Zn4 1.950 . S
O2 Zn5 1.945 . S
Zn3 O2 1.923 . S
Zn3 O6 1.933 . S
Zn3 O9 1.941 . S
Zn3 O10 1.965 . S
Zn4 O2 1.950 . S
Zn4 O11 1.938 . S
Zn4 O12 1.906 . S
Zn4 O22 1.953 . S
Zn5 O2 1.945 . S
Zn5 O7 1.932 . S
Zn5 O14 1.977 . S
Zn5 O15 1.910 . S
O6 Zn3 1.933 . S
O6 C17 1.226 . S
O7 Zn5 1.932 . S
O7 C17 1.307 . S
O8 Zn1 1.919 . S
O8 C19 1.253 . S
O9 Zn3 1.941 . S
O9 C19 1.283 . S
O10 Zn3 1.965 . S
O10 C18 1.303 . S
O11 Zn4 1.938 . S
O11 C18 1.247 . S
O12 Zn4 1.906 . S
O12 C20 1.304 . S
O13 Zn1 1.924 . S
O13 C21 1.311 . S
O14 Zn5 1.977 . S
O14 C20 1.272 . S
O15 Zn5 1.910 . S
O15 C21 1.231 . S
C16 O0 1.225 . S
C16 O22 1.298 . S
C17 O6 1.226 . S
C17 O7 1.307 . S
C18 O10 1.303 . S
C18 O11 1.247 . S
C19 O8 1.253 . S
C19 O9 1.283 . S
C20 O12 1.304 . S
C20 O14 1.272 . S
C21 O13 1.311 . S
C21 O15 1.231 . S
O22 Zn4 1.953 . S
O22 C16 1.298 . S
O23 Zn24 1.953 . S
O23 C39 1.225 . S
Zn24 O23 1.953 . S
Zn24 O25 1.949 . S
Zn24 O31 1.919 . S
Zn24 O36 1.924 . S
O25 Zn24 1.949 . S
O25 Zn26 1.923 . S
O25 Zn27 1.950 . S
O25 Zn28 1.945 . S
Zn26 O25 1.923 . S
Zn26 O29 1.933 . S
Zn26 O32 1.941 . S
Zn26 O33 1.965 . S
Zn27 O25 1.950 . S
Zn27 O34 1.938 . S
Zn27 O35 1.906 . S
Zn27 O45 1.953 . S
Zn28 O25 1.945 . S
Zn28 O30 1.932 . S
Zn28 O37 1.977 . S
Zn28 O38 1.910 . S
O29 Zn26 1.933 . S
O29 C40 1.226 . S
O30 Zn28 1.932 . S
O30 C40 1.307 . S
O31 Zn24 1.919 . S
O31 C42 1.253 . S
O32 Zn26 1.941 . S
O32 C42 1.283 . S
O33 Zn26 1.965 . S
O33 C41 1.303 . S
O34 Zn27 1.938 . S
O34 C41 1.247 . S
O35 Zn27 1.906 . S
O35 C43 1.304 . S
O36 Zn24 1.924 . S
O36 C44 1.311 . S
O37 Zn28 1.977 . S
O37 C43 1.272 . S
O38 Zn28 1.910 . S
O38 C44 1.231 . S
C39 O23 1.225 . S
C39 O45 1.298 . S
C40 O29 1.226 . S
C40 O30 1.307 . S
C41 O33 1.303 . S
C41 O34 1.247 . S
C42 O31 1.253 . S
C42 O32 1.283 . S
C43 O35 1.304 . S
C43 O37 1.272 . S
C44 O36 1.311 . S
C44 O38 1.231 . S
O45 Zn27 1.953 . S
O45 C39 1.298 . S
O46 Zn47 1.953 . S
O46 C62 1.225 . S
Zn47 O46 1.953 . S
Zn47 O48 1.949 . S
Zn47 O54 1.919 . S
Zn47 O59 1.924 . S
O48 Zn47 1.949 . S
O48 Zn49 1.923 . S
O48 Zn50 1.950 . S
O48 Zn51 1.945 . S
Zn49 O48 1.923 . S
Zn49 O52 1.933 . S
Zn49 O55 1.941 . S
Zn49 O56 1.965 . S
Zn50 O48 1.950 . S
Zn50 O57 1.938 . S
Zn50 O58 1.906 . S
Zn50 O68 1.953 . S
Zn51 O48 1.945 . S
Zn51 O53 1.932 . S
Zn51 O60 1.977 . S
Zn51 O61 1.910 . S
O52 Zn49 1.933 . S
O52 C63 1.226 . S
O53 Zn51 1.932 . S
O53 C63 1.307 . S
O54 Zn47 1.919 . S
O54 C65 1.253 . S
O55 Zn49 1.941 . S
O55 C65 1.283 . S
O56 Zn49 1.965 . S
O56 C64 1.303 . S
O57 Zn50 1.938 . S
O57 C64 1.247 . S
O58 Zn50 1.906 . S
O58 C66 1.304 . S
O59 Zn47 1.924 . S
O59 C67 1.311 . S
O60 Zn51 1.977 . S
O60 C66 1.272 . S
O61 Zn51 1.910 . S
O61 C67 1.231 . S
C62 O46 1.225 . S
C62 O68 1.298 . S
C63 O52 1.226 . S
C63 O53 1.307 . S
C64 O56 1.303 . S
C64 O57 1.247 . S
C65 O54 1.253 . S
C65 O55 1.283 . S
C66 O58 1.304 . S
C66 O60 1.272 . S
C67 O59 1.311 . S
C67 O61 1.231 . S
O68 Zn50 1.953 . S
O68 C62 1.298 . S
O69 Zn70 1.953 . S
O69 C85 1.225 . S
Zn70 O69 1.953 . S
Zn70 O71 1.949 . S
Zn70 O77 1.919 . S
Zn70 O82 1.924 . S
O71 Zn70 1.949 . S
O71 Zn72 1.923 . S
O71 Zn73 1.950 . S
O71 Zn74 1.945 . S
Zn72 O71 1.923 . S
Zn72 O75 1.933 . S
Zn72 O78 1.941 . S
Zn72 O79 1.965 . S
Zn73 O71 1.950 . S
Zn73 O80 1.938 . S
Zn73 O81 1.906 . S
Zn73 O91 1.953 . S
Zn74 O71 1.945 . S
Zn74 O76 1.932 . S
Zn74 O83 1.977 . S
Zn74 O84 1.910 . S
O75 Zn72 1.933 . S
O75 C86 1.226 . S
O76 Zn74 1.932 . S
O76 C86 1.307 . S
O77 Zn70 1.919 . S
O77 C88 1.253 . S
O78 Zn72 1.941 . S
O78 C88 1.283 . S
O79 Zn72 1.965 . S
O79 C87 1.303 . S
O80 Zn73 1.938 . S
O80 C87 1.247 . S
O81 Zn73 1.906 . S
O81 C89 1.304 . S
O82 Zn70 1.924 . S
O82 C90 1.311 . S
O83 Zn74 1.977 . S
O83 C89 1.272 . S
O84 Zn74 1.910 . S
O84 C90 1.231 . S
C85 O69 1.225 . S
C85 O91 1.298 . S
C86 O75 1.226 . S
C86 O76 1.307 . S
C87 O79 1.303 . S
C87 O80 1.247 . S
C88 O77 1.253 . S
C88 O78 1.283 . S
C89 O81 1.304 . S
C89 O83 1.272 . S
C90 O82 1.311 . S
C90 O84 1.231 . S
O91 Zn73 1.953 . S
O91 C85 1.298 . S
O92 Zn93 1.953 . S
O92 C108 1.225 . S
Zn93 O92 1.953 . S
Zn93 O94 1.949 . S
Zn93 O100 1.919 . S
Zn93 O105 1.924 . S
O94 Zn93 1.949 . S
O94 Zn95 1.923 . S
O94 Zn96 1.950 . S
O94 Zn97 1.945 . S
Zn95 O94 1.923 . S
Zn95 O98 1.933 . S
Zn95 O101 1.941 . S
Zn95 O102 1.965 . S
Zn96 O94 1.950 . S
Zn96 O103 1.938 . S
Zn96 O104 1.906 . S
Zn96 O114 1.953 . S
Zn97 O94 1.945 . S
Zn97 O99 1.932 . S
Zn97 O106 1.977 . S
Zn97 O107 1.910 . S
O98 Zn95 1.933 . S
O98 C109 1.226 . S
O99 Zn97 1.932 . S
O99 C109 1.307 . S
O100 Zn93 1.919 . S
O100 C111 1.253 . S
O101 Zn95 1.941 . S
O101 C111 1.283 . S
O102 Zn95 1.965 . S
O102 C110 1.303 . S
O103 Zn96 1.938 . S
O103 C110 1.247 . S
O104 Zn96 1.906 . S
O104 C112 1.304 . S
O105 Zn93 1.924 . S
O105 C113 1.311 . S
O106 Zn97 1.977 . S
O106 C112 1.272 . S
O107 Zn97 1.910 . S
O107 C113 1.231 . S
C108 O92 1.225 . S
C108 O114 1.298 . S
C109 O98 1.226 . S
C109 O99 1.307 . S
C110 O102 1.303 . S
C110 O103 1.247 . S
C111 O100 1.253 . S
C111 O101 1.283 . S
C112 O104 1.304 . S
C112 O106 1.272 . S
C113 O105 1.311 . S
C113 O107 1.231 . S
O114 Zn96 1.953 . S
O114 C108 1.298 . S
O115 Zn116 1.953 . S
O115 C131 1.225 . S
Zn116 O115 1.953 . S
Zn116 O117 1.949 . S
Zn116 O123 1.919 . S
Zn116 O128 1.924 . S
O117 Zn116 1.949 . S
O117 Zn118 1.923 . S
O117 Zn119 1.950 . S
O117 Zn120 1.945 . S
Zn118 O117 1.923 . S
Zn118 O121 1.933 . S
Zn118 O124 1.941 . S
Zn118 O125 1.965 . S
Zn119 O117 1.950 . S
Zn119 O126 1.938 . S
Zn119 O127 1.906 . S
Zn119 O137 1.953 . S
Zn120 O117 1.945 . S
Zn120 O122 1.932 . S
Zn120 O129 1.977 . S
Zn120 O130 1.910 . S
O121 Zn118 1.933 . S
O121 C132 1.226 . S
O122 Zn120 1.932 . S
O122 C132 1.307 . S
O123 Zn116 1.919 . S
O123 C134 1.253 . S
O124 Zn118 1.941 . S
O124 C134 1.283 . S
O125 Zn118 1.965 . S
O125 C133 1.303 . S
O126 Zn119 1.938 . S
O126 C133 1.247 . S
O127 Zn119 1.906 . S
O127 C135 1.304 . S
O128 Zn116 1.924 . S
O128 C136 1.311 . S
O129 Zn120 1.977 . S
O129 C135 1.272 . S
O130 Zn120 1.910 . S
O130 C136 1.231 . S
C131 O115 1.225 . S
C131 O137 1.298 . S
C132 O121 1.226 . S
C132 O122 1.307 . S
C133 O125 1.303 . S
C133 O126 1.247 . S
C134 O123 1.253 . S
C134 O124 1.283 . S
C135 O127 1.304 . S
C135 O129 1.272 . S
C136 O128 1.311 . S
C136 O130 1.231 . S
O137 Zn119 1.953 . S
O137 C131 1.298 . S
O138 Zn139 1.953 . S
O138 C154 1.225 . S
Zn139 O138 1.953 . S
Zn139 O140 1.949 . S
Zn139 O146 1.919 . S
Zn139 O151 1.924 . S
O140 Zn139 1.949 . S
O140 Zn141 1.923 . S
O140 Zn142 1.950 . S
O140 Zn143 1.945 . S
Zn141 O140 1.923 . S
Zn141 O144 1.933 . S
Zn141 O147 1.941 . S
Zn141 O148 1.965 . S
Zn142 O140 1.950 . S
Zn142 O149 1.938 . S
Zn142 O150 1.906 . S
Zn142 O160 1.953 . S
Zn143 O140 1.945 . S
Zn143 O145 1.932 . S
Zn143 O152 1.977 . S
Zn143 O153 1.910 . S
O144 Zn141 1.933 . S
O144 C155 1.226 . S
O145 Zn143 1.932 . S
O145 C155 1.307 . S
O146 Zn139 1.919 . S
O146 C157 1.253 . S
O147 Zn141 1.941 . S
O147 C157 1.283 . S
O148 Zn141 1.965 . S
O148 C156 1.303 . S
O149 Zn142 1.938 . S
O149 C156 1.247 . S
O150 Zn142 1.906 . S
O150 C158 1.304 . S
O151 Zn139 1.924 . S
O151 C159 1.311 . S
O152 Zn143 1.977 . S
O152 C158 1.272 . S
O153 Zn143 1.910 . S
O153 C159 1.231 . S
C154 O138 1.225 . S
C154 O160 1.298 . S
C155 O144 1.226 . S
C155 O145 1.307 . S
C156 O148 1.303 . S
C156 O149 1.247 . S
C157 O146 1.253 . S
C157 O147 1.283 . S
C158 O150 1.304 . S
C158 O152 1.272 . S
C159 O151 1.311 . S
C159 O153 1.231 . S
O160 Zn142 1.953 . S
O160 C154 1.298 . S
O161 Zn162 1.953 . S
O161 C177 1.225 . S
Zn162 O161 1.953 . S
Zn162 O163 1.949 . S
Zn162 O169 1.919 . S
Zn162 O174 1.924 . S
O163 Zn162 1.949 . S
O163 Zn164 1.923 . S
O163 Zn165 1.950 . S
O163 Zn166 1.945 . S
Zn164 O163 1.923 . S
Zn164 O167 1.933 . S
Zn164 O170 1.941 . S
Zn164 O171 1.965 . S
Zn165 O163 1.950 . S
Zn165 O172 1.938 . S
Zn165 O173 1.906 . S
Zn165 O183 1.953 . S
Zn166 O163 1.945 . S
Zn166 O168 1.932 . S
Zn166 O175 1.977 . S
Zn166 O176 1.910 . S
O167 Zn164 1.933 . S
O167 C178 1.226 . S
O168 Zn166 1.932 . S
O168 C178 1.307 . S
O169 Zn162 1.919 . S
O169 C180 1.253 . S
O170 Zn164 1.941 . S
O170 C180 1.283 . S
O171 Zn164 1.965 . S
O171 C179 1.303 . S
O172 Zn165 1.938 . S
O172 C179 1.247 . S
O173 Zn165 1.906 . S
O173 C181 1.304 . S
O174 Zn162 1.924 . S
O174 C182 1.311 . S
O175 Zn166 1.977 . S
O175 C181 1.272 . S
O176 Zn166 1.910 . S
O176 C182 1.231 . S
C177 O161 1.225 . S
C177 O183 1.298 . S
C178 O167 1.226 . S
C178 O168 1.307 . S
C179 O171 1.303 . S
C179 O172 1.247 . S
C180 O169 1.253 . S
C180 O170 1.283 . S
C181 O173 1.304 . S
C181 O175 1.272 . S
C182 O174 1.311 . S
C182 O176 1.231 . S
O183 Zn165 1.953 . S
O183 C177 1.298 . S
Cd184 N187 2.334 1_655 S
Cd184 N213 2.304 1_565 S
Cd184 O220 2.268 . S
Cd184 O223 2.273 1_665 S
Cd184 O224 2.417 . S
Cd184 O225 2.330 . S
Cd185 N200 2.304 1_455 S
Cd185 N204 2.334 1_545 S
Cd185 O221 2.273 1_445 S
Cd185 O222 2.268 . S
Cd185 O226 2.417 . S
Cd185 O227 2.330 . S
C186 N187 1.332 . S
C186 C190 1.381 . S
C186 H192 0.931 . S
N187 Cd184 2.334 1_455 S
N187 C186 1.332 . S
N187 C191 1.328 . S
C188 C189 1.396 . S
C188 C191 1.378 . S
C188 H230 0.931 . S
C189 C188 1.396 . S
C189 C190 1.382 . S
C190 C186 1.381 . S
C190 C189 1.382 . S
C190 H231 0.930 . S
C191 N187 1.328 . S
C191 C188 1.378 . S
C191 H193 0.930 . S
H192 C186 0.931 . S
H193 C191 0.930 . S
C194 O220 1.238 . S
C194 O221 1.253 . S
C195 C196 1.379 . S
C195 N200 1.337 . S
C195 H201 0.929 . S
C196 C195 1.379 . S
C196 C197 1.380 . S
C196 H232 0.929 . S
C197 C196 1.380 . S
C197 C198 1.399 . S
C198 C197 1.399 . S
C198 C199 1.376 . S
C198 H233 0.931 . S
C199 C198 1.376 . S
C199 N200 1.338 . S
C199 H202 0.930 1_655 S
N200 Cd185 2.304 1_655 S
N200 C195 1.337 . S
N200 C199 1.338 . S
H201 C195 0.929 . S
H202 C199 0.930 1_455 S
C203 N204 1.332 . S
C203 C207 1.381 . S
C203 H209 0.931 . S
N204 Cd185 2.334 1_565 S
N204 C203 1.332 . S
N204 C208 1.328 . S
C205 C206 1.396 . S
C205 C208 1.378 . S
C205 H234 0.931 . S
C206 C205 1.396 . S
C206 C207 1.382 . S
C207 C203 1.381 . S
C207 C206 1.382 . S
C207 H235 0.930 . S
C208 N204 1.328 . S
C208 C205 1.378 . S
C208 H210 0.930 1_565 S
H209 C203 0.931 . S
H210 C208 0.930 1_545 S
C211 O222 1.238 . S
C211 O223 1.253 . S
C212 O224 1.239 . S
C212 O225 1.230 . S
N213 Cd184 2.304 1_545 S
N213 C214 1.337 . S
N213 C218 1.338 . S
C214 N213 1.337 . S
C214 C215 1.379 . S
C214 H228 0.929 . S
C215 C214 1.379 . S
C215 C216 1.380 . S
C215 H236 0.929 . S
C216 C215 1.380 . S
C216 C217 1.399 . S
C217 C216 1.399 . S
C217 C218 1.376 . S
C217 H237 0.931 . S
C218 N213 1.338 . S
C218 C217 1.376 . S
C218 H229 0.930 . S
C219 O226 1.239 . S
C219 O227 1.230 . S
O220 Cd184 2.268 . S
O220 C194 1.238 . S
O221 Cd185 2.273 1_665 S
O221 C194 1.253 . S
O222 Cd185 2.268 . S
O222 C211 1.238 . S
O223 Cd184 2.273 1_445 S
O223 C211 1.253 . S
O224 Cd184 2.417 . S
O224 C212 1.239 . S
O225 Cd184 2.330 . S
O225 C212 1.230 . S
O226 Cd185 2.417 . S
O226 C219 1.239 . S
O227 Cd185 2.330 . S
O227 C219 1.230 . S
H228 C214 0.929 . S
H229 C218 0.930 . S
H230 C188 0.931 . S
H231 C190 0.930 . S
H232 C196 0.929 . S
H233 C198 0.931 . S
H234 C205 0.931 . S
H235 C207 0.930 . S
H236 C215 0.929 . S
H237 C217 0.931 . S
Cd238 N241 2.334 . S
Cd238 N267 2.304 1_565 S
Cd238 O274 2.268 1_554 S
Cd238 O277 2.273 1_565 S
Cd238 O278 2.417 . S
Cd238 O279 2.330 . S
Cd239 N254 2.304 . S
Cd239 N258 2.334 1_545 S
Cd239 O275 2.273 1_545 S
Cd239 O276 2.268 1_556 S
Cd239 O280 2.417 . S
Cd239 O281 2.330 . S
C240 N241 1.332 . S
C240 C244 1.381 . S
C240 H246 0.931 . S
N241 Cd238 2.334 . S
N241 C240 1.332 . S
N241 C245 1.328 . S
C242 C243 1.396 . S
C242 C245 1.378 . S
C242 H284 0.931 . S
C243 C242 1.396 . S
C243 C244 1.382 . S
C244 C240 1.381 . S
C244 C243 1.382 . S
C244 H285 0.930 . S
C245 N241 1.328 . S
C245 C242 1.378 . S
C245 H247 0.930 . S
H246 C240 0.931 . S
H247 C245 0.930 . S
C248 O274 1.238 . S
C248 O275 1.253 . S
C249 C250 1.379 . S
C249 N254 1.337 . S
C249 H255 0.929 . S
C250 C249 1.379 . S
C250 C251 1.380 . S
C250 H286 0.929 . S
C251 C250 1.380 . S
C251 C252 1.399 1_556 S
C252 C251 1.399 1_554 S
C252 C253 1.376 . S
C252 H287 0.931 . S
C253 C252 1.376 . S
C253 N254 1.338 1_554 S
C253 H256 0.930 . S
N254 Cd239 2.304 . S
N254 C249 1.337 . S
N254 C253 1.338 1_556 S
H255 C249 0.929 . S
H256 C253 0.930 . S
C257 N258 1.332 . S
C257 C261 1.381 . S
C257 H263 0.931 . S
N258 Cd239 2.334 1_565 S
N258 C257 1.332 . S
N258 C262 1.330 . S
C259 C260 1.384 1_554 S
C259 C262 1.378 1_554 S
C259 H288 0.944 . S
C260 C259 1.384 1_556 S
C260 C261 1.382 . S
C261 C257 1.381 . S
C261 C260 1.382 . S
C261 H289 0.930 . S
C262 N258 1.330 . S
C262 C259 1.378 1_556 S
C262 H264 0.927 1_566 S
H263 C257 0.931 . S
H264 C262 0.927 1_544 S
C265 O276 1.238 . S
C265 O277 1.253 . S
C266 O278 1.239 . S
C266 O279 1.230 . S
N267 Cd238 2.304 1_545 S
N267 C268 1.337 . S
N267 C272 1.338 . S
C268 N267 1.337 . S
C268 C269 1.379 . S
C268 H282 0.929 . S
C269 C268 1.379 . S
C269 C270 1.380 . S
C269 H290 0.929 . S
C270 C269 1.380 . S
C270 C271 1.399 . S
C271 C270 1.399 . S
C271 C272 1.376 . S
C271 H291 0.931 . S
C272 N267 1.338 . S
C272 C271 1.376 . S
C272 H283 0.930 . S
C273 O280 1.239 . S
C273 O281 1.230 . S
O274 Cd238 2.268 1_556 S
O274 C248 1.238 . S
O275 Cd239 2.273 1_565 S
O275 C248 1.253 . S
O276 Cd239 2.268 1_554 S
O276 C265 1.238 . S
O277 Cd238 2.273 1_545 S
O277 C265 1.253 . S
O278 Cd238 2.417 . S
O278 C266 1.239 . S
O279 Cd238 2.330 . S
O279 C266 1.230 . S
O280 Cd239 2.417 . S
O280 C273 1.239 . S
O281 Cd239 2.330 . S
O281 C273 1.230 . S
H282 C268 0.929 . S
H283 C272 0.930 . S
H284 C242 0.931 . S
H285 C244 0.930 . S
H286 C250 0.929 . S
H287 C252 0.931 . S
H288 C259 0.944 . S
H289 C261 0.930 . S
H290 C269 0.929 . S
H291 C271 0.931 . S
Cd292 N295 2.334 1_655 S
Cd292 N321 2.304 . S
Cd292 O328 2.268 1_554 S
Cd292 O331 2.273 1_655 S
Cd292 O332 2.417 . S
Cd292 O333 2.330 . S
Cd293 N308 2.304 1_455 S
Cd293 N312 2.334 . S
Cd293 O329 2.273 1_455 S
Cd293 O330 2.268 1_556 S
Cd293 O334 2.417 . S
Cd293 O335 2.330 . S
C294 N295 1.332 . S
C294 C298 1.381 . S
C294 H300 0.931 . S
N295 Cd292 2.334 1_455 S
N295 C294 1.332 . S
N295 C299 1.328 . S
C296 C297 1.396 . S
C296 C299 1.378 . S
C296 H338 0.913 1_554 S
C297 C296 1.396 . S
C297 C298 1.382 . S
C298 C294 1.381 . S
C298 C297 1.382 . S
C298 H339 0.930 . S
C299 N295 1.328 . S
C299 C296 1.378 . S
C299 H301 0.928 . S
H300 C294 0.931 . S
H301 C299 0.928 . S
C302 O328 1.238 . S
C302 O329 1.253 . S
C303 C304 1.379 . S
C303 N308 1.337 . S
C303 H309 0.929 . S
C304 C303 1.379 . S
C304 C305 1.380 . S
C304 H340 0.929 . S
C305 C304 1.380 . S
C305 C306 1.399 . S
C306 C305 1.399 . S
C306 C307 1.353 1_655 S
C306 H341 0.931 1_556 S
C307 C306 1.353 1_455 S
C307 N308 1.343 1_455 S
C307 H310 0.950 1_556 S
N308 Cd293 2.304 1_655 S
N308 C303 1.337 . S
N308 C307 1.343 1_655 S
H309 C303 0.929 . S
H310 C307 0.950 1_554 S
C311 N312 1.332 . S
C311 C315 1.381 . S
C311 H317 0.931 . S
N312 Cd293 2.334 . S
N312 C311 1.332 . S
N312 C316 1.328 . S
C313 C314 1.396 . S
C313 C316 1.378 . S
C313 H342 0.931 1_556 S
C314 C313 1.396 . S
C314 C315 1.382 . S
C315 C311 1.381 . S
C315 C314 1.382 . S
C315 H343 0.930 . S
C316 N312 1.328 . S
C316 C313 1.378 . S
C316 H318 0.930 1_556 S
H317 C311 0.931 . S
H318 C316 0.930 1_554 S
C319 O330 1.238 . S
C319 O331 1.253 . S
C320 O332 1.239 . S
C320 O333 1.230 . S
N321 Cd292 2.304 . S
N321 C322 1.337 . S
N321 C326 1.338 . S
C322 N321 1.337 . S
C322 C323 1.379 . S
C322 H336 0.929 . S
C323 C322 1.379 . S
C323 C324 1.380 . S
C323 H344 0.929 . S
C324 C323 1.380 . S
C324 C325 1.399 . S
C325 C324 1.399 . S
C325 C326 1.376 . S
C325 H345 0.931 1_554 S
C326 N321 1.338 . S
C326 C325 1.376 . S
C326 H337 0.930 1_554 S
C327 O334 1.239 . S
C327 O335 1.230 . S
O328 Cd292 2.268 1_556 S
O328 C302 1.238 . S
O329 Cd293 2.273 1_655 S
O329 C302 1.253 . S
O330 Cd293 2.268 1_554 S
O330 C319 1.238 . S
O331 Cd292 2.273 1_455 S
O331 C319 1.253 . S
O332 Cd292 2.417 . S
O332 C320 1.239 . S
O333 Cd292 2.330 . S
O333 C320 1.230 . S
O334 Cd293 2.417 . S
O334 C327 1.239 . S
O335 Cd293 2.330 . S
O335 C327 1.230 . S
H336 C322 0.929 . S
H337 C326 0.930 1_556 S
H338 C296 0.913 1_556 S
H339 C298 0.930 . S
H340 C304 0.929 . S
H341 C306 0.931 1_554 S
H342 C313 0.931 1_554 S
H343 C315 0.930 . S
H344 C323 0.929 . S
H345 C325 0.931 1_556 S
Cd346 N349 2.334 . S
Cd346 N375 2.304 . S
Cd346 O382 2.268 1_554 S
Cd346 O385 2.273 . S
Cd346 O386 2.417 . S
Cd346 O387 2.330 . S
Cd347 N362 2.304 . S
Cd347 N366 2.334 . S
Cd347 O383 2.273 . S
Cd347 O384 2.268 1_556 S
Cd347 O388 2.417 . S
Cd347 O389 2.330 . S
C348 N349 1.332 . S
C348 C352 1.381 . S
C348 H354 0.931 . S
N349 Cd346 2.334 . S
N349 C348 1.332 . S
N349 C353 1.328 . S
C350 C351 1.396 . S
C350 C353 1.378 . S
C350 H392 0.931 . S
C351 C350 1.396 . S
C351 C352 1.382 . S
C352 C348 1.381 . S
C352 C351 1.382 . S
C352 H393 0.930 . S
C353 N349 1.328 . S
C353 C350 1.378 . S
C353 H355 0.930 . S
H354 C348 0.931 . S
H355 C353 0.930 . S
C356 O382 1.238 . S
C356 O383 1.253 . S
C357 C358 1.379 . S
C357 N362 1.337 . S
C357 H363 0.929 . S
C358 C357 1.379 . S
C358 C359 1.380 . S
C358 H394 0.929 . S
C359 C358 1.380 . S
C359 C360 1.403 . S
C360 C359 1.403 . S
C360 C361 1.376 . S
C360 H395 0.926 1_556 S
C361 C360 1.376 . S
C361 N362 1.357 . S
C361 H364 0.911 1_556 S
N362 Cd347 2.304 . S
N362 C357 1.337 . S
N362 C361 1.357 . S
H363 C357 0.929 . S
H364 C361 0.911 1_554 S
C365 N366 1.332 . S
C365 C369 1.381 . S
C365 H371 0.931 . S
N366 Cd347 2.334 . S
N366 C365 1.332 . S
N366 C370 1.328 . S
C367 C368 1.396 . S
C367 C370 1.378 . S
C367 H396 0.931 1_556 S
C368 C367 1.396 . S
C368 C369 1.382 . S
C369 C365 1.381 . S
C369 C368 1.382 . S
C369 H397 0.930 . S
C370 N366 1.328 . S
C370 C367 1.378 . S
C370 H372 0.930 1_556 S
H371 C365 0.931 . S
H372 C370 0.930 1_554 S
C373 O384 1.238 . S
C373 O385 1.253 . S
C374 O386 1.239 . S
C374 O387 1.230 . S
N375 Cd346 2.304 . S
N375 C376 1.337 . S
N375 C380 1.338 . S
C376 N375 1.337 . S
C376 C377 1.379 . S
C376 H390 0.929 . S
C377 C376 1.379 . S
C377 C378 1.380 . S
C377 H398 0.929 . S
C378 C377 1.380 . S
C378 C379 1.399 . S
C379 C378 1.399 . S
C379 C380 1.376 . S
C379 H399 0.931 . S
C380 N375 1.338 . S
C380 C379 1.376 . S
C380 H391 0.930 . S
C381 O388 1.239 . S
C381 O389 1.230 . S
O382 Cd346 2.268 1_556 S
O382 C356 1.238 . S
O383 Cd347 2.273 . S
O383 C356 1.253 . S
O384 Cd347 2.268 1_554 S
O384 C373 1.238 . S
O385 Cd346 2.273 . S
O385 C373 1.253 . S
O386 Cd346 2.417 . S
O386 C374 1.239 . S
O387 Cd346 2.330 . S
O387 C374 1.230 . S
O388 Cd347 2.417 . S
O388 C381 1.239 . S
O389 Cd347 2.330 . S
O389 C381 1.230 . S
H390 C376 0.929 . S
H391 C380 0.930 . S
H392 C350 0.931 . S
H393 C352 0.930 . S
H394 C358 0.929 . S
H395 C360 0.926 1_554 S
H396 C367 0.931 1_554 S
H397 C369 0.930 . S
H398 C377 0.929 . S
H399 C379 0.931 . S
Cd400 N403 2.334 1_655 S
Cd400 N429 2.304 . S
Cd400 O436 2.268 . S
Cd400 O439 2.273 1_655 S
Cd400 O440 2.417 . S
Cd400 O441 2.330 . S
Cd401 N416 2.304 1_455 S
Cd401 N420 2.334 . S
Cd401 O437 2.273 1_455 S
Cd401 O438 2.268 . S
Cd401 O442 2.417 . S
Cd401 O443 2.330 . S
C402 N403 1.332 . S
C402 C406 1.381 . S
C402 H408 0.931 . S
N403 Cd400 2.334 1_455 S
N403 C402 1.332 . S
N403 C407 1.328 . S
C404 C405 1.396 . S
C404 C407 1.378 . S
C404 H446 0.931 . S
C405 C404 1.396 . S
C405 C406 1.382 . S
C406 C402 1.381 . S
C406 C405 1.382 . S
C406 H447 0.930 . S
C407 N403 1.328 . S
C407 C404 1.378 . S
C407 H409 0.930 . S
H408 C402 0.931 . S
H409 C407 0.930 . S
C410 O436 1.238 . S
C410 O437 1.253 . S
C411 C412 1.379 . S
C411 N416 1.337 . S
C411 H417 0.929 . S
C412 C411 1.379 . S
C412 C413 1.380 . S
C412 H448 0.929 . S
C413 C412 1.380 . S
C413 C414 1.399 . S
C414 C413 1.399 . S
C414 C415 1.376 . S
C414 H449 0.931 . S
C415 C414 1.376 . S
C415 N416 1.338 . S
C415 H418 0.930 1_655 S
N416 Cd401 2.304 1_655 S
N416 C411 1.337 . S
N416 C415 1.338 . S
H417 C411 0.929 . S
H418 C415 0.930 1_455 S
C419 N420 1.332 . S
C419 C423 1.381 . S
C419 H425 0.931 . S
N420 Cd401 2.334 . S
N420 C419 1.332 . S
N420 C424 1.328 . S
C421 C422 1.396 . S
C421 C424 1.378 . S
C421 H450 0.931 . S
C422 C421 1.396 . S
C422 C423 1.382 . S
C423 C419 1.381 . S
C423 C422 1.382 . S
C423 H451 0.930 . S
C424 N420 1.328 . S
C424 C421 1.378 . S
C424 H426 0.930 . S
H425 C419 0.931 . S
H426 C424 0.930 . S
C427 O438 1.238 . S
C427 O439 1.253 . S
C428 O440 1.239 . S
C428 O441 1.230 . S
N429 Cd400 2.304 . S
N429 C430 1.337 . S
N429 C434 1.338 . S
C430 N429 1.337 . S
C430 C431 1.379 . S
C430 H444 0.929 . S
C431 C430 1.379 . S
C431 C432 1.380 . S
C431 H452 0.929 . S
C432 C431 1.380 . S
C432 C433 1.399 . S
C433 C432 1.399 . S
C433 C434 1.376 . S
C433 H453 0.931 . S
C434 N429 1.338 . S
C434 C433 1.376 . S
C434 H445 0.930 . S
C435 O442 1.239 . S
C435 O443 1.230 . S
O436 Cd400 2.268 . S
O436 C410 1.238 . S
O437 Cd401 2.273 1_655 S
O437 C410 1.253 . S
O438 Cd401 2.268 . S
O438 C427 1.238 . S
O439 Cd400 2.273 1_455 S
O439 C427 1.253 . S
O440 Cd400 2.417 . S
O440 C428 1.239 . S
O441 Cd400 2.330 . S
O441 C428 1.230 . S
O442 Cd401 2.417 . S
O442 C435 1.239 . S
O443 Cd401 2.330 . S
O443 C435 1.230 . S
H444 C430 0.929 . S
H445 C434 0.930 . S
H446 C404 0.931 . S
H447 C406 0.930 . S
H448 C412 0.929 . S
H449 C414 0.931 . S
H450 C421 0.931 . S
H451 C423 0.930 . S
H452 C431 0.929 . S
H453 C433 0.931 . S
Cd454 N457 2.334 . S
Cd454 N483 2.304 1_565 S
Cd454 O490 2.268 . S
Cd454 O493 2.273 1_565 S
Cd454 O494 2.417 . S
Cd454 O495 2.330 . S
Cd455 N470 2.304 . S
Cd455 N474 2.334 1_545 S
Cd455 O491 2.273 1_545 S
Cd455 O492 2.268 . S
Cd455 O496 2.417 . S
Cd455 O497 2.330 . S
C456 N457 1.332 . S
C456 C460 1.381 . S
C456 H462 0.931 . S
N457 Cd454 2.334 . S
N457 C456 1.332 . S
N457 C461 1.328 . S
C458 C459 1.396 . S
C458 C461 1.378 . S
C458 H500 0.931 . S
C459 C458 1.396 . S
C459 C460 1.382 . S
C460 C456 1.381 . S
C460 C459 1.382 . S
C460 H501 0.930 . S
C461 N457 1.328 . S
C461 C458 1.378 . S
C461 H463 0.930 . S
H462 C456 0.931 . S
H463 C461 0.930 . S
C464 O490 1.238 . S
C464 O491 1.253 . S
C465 C466 1.379 . S
C465 N470 1.337 . S
C465 H471 0.929 . S
C466 C465 1.379 . S
C466 C467 1.380 . S
C466 H502 0.929 . S
C467 C466 1.380 . S
C467 C468 1.399 . S
C468 C467 1.399 . S
C468 C469 1.376 . S
C468 H503 0.931 . S
C469 C468 1.376 . S
C469 N470 1.338 . S
C469 H472 0.930 . S
N470 Cd455 2.304 . S
N470 C465 1.337 . S
N470 C469 1.338 . S
H471 C465 0.929 . S
H472 C469 0.930 . S
C473 N474 1.332 . S
C473 C477 1.381 . S
C473 H479 0.931 . S
N474 Cd455 2.334 1_565 S
N474 C473 1.332 . S
N474 C478 1.333 1_565 S
C475 C476 1.396 . S
C475 C478 1.346 1_565 S
C475 H504 0.931 . S
C476 C475 1.396 . S
C476 C477 1.382 . S
C477 C473 1.381 . S
C477 C476 1.382 . S
C477 H505 0.930 . S
C478 N474 1.333 1_545 S
C478 C475 1.346 1_545 S
C478 H480 0.959 . S
H479 C473 0.931 . S
H480 C478 0.959 . S
C481 O492 1.238 . S
C481 O493 1.253 . S
C482 O494 1.239 . S
C482 O495 1.230 . S
N483 Cd454 2.304 1_545 S
N483 C484 1.337 . S
N483 C488 1.338 . S
C484 N483 1.337 . S
C484 C485 1.379 . S
C484 H498 0.929 . S
C485 C484 1.379 . S
C485 C486 1.380 . S
C485 H506 0.929 . S
C486 C485 1.380 . S
C486 C487 1.399 . S
C487 C486 1.399 . S
C487 C488 1.376 . S
C487 H507 0.931 . S
C488 N483 1.338 . S
C488 C487 1.376 . S
C488 H499 0.930 . S
C489 O496 1.239 . S
C489 O497 1.230 . S
O490 Cd454 2.268 . S
O490 C464 1.238 . S
O491 Cd455 2.273 1_565 S
O491 C464 1.253 . S
O492 Cd455 2.268 . S
O492 C481 1.238 . S
O493 Cd454 2.273 1_545 S
O493 C481 1.253 . S
O494 Cd454 2.417 . S
O494 C482 1.239 . S
O495 Cd454 2.330 . S
O495 C482 1.230 . S
O496 Cd455 2.417 . S
O496 C489 1.239 . S
O497 Cd455 2.330 . S
O497 C489 1.230 . S
H498 C484 0.929 . S
H499 C488 0.930 . S
H500 C458 0.931 . S
H501 C460 0.930 . S
H502 C466 0.929 . S
H503 C468 0.931 . S
H504 C475 0.931 . S
H505 C477 0.930 . S
H506 C485 0.929 . S
H507 C487 0.931 . S
C508 C509 1.349 . S
C508 C510 1.327 . S
C508 H533 0.950 . S
C509 C508 1.349 . S
C509 C525 1.349 . S
C510 C508 1.327 . S
C510 C529 1.429 . S
C510 H534 0.950 . S
C511 C528 1.574 . S
C511 C530 1.368 . S
C511 H535 0.949 . S
H512 C516 0.949 . S
C513 C514 1.349 . S
C513 C515 1.327 . S
C513 H536 0.950 . S
C514 C513 1.349 . S
C514 C526 1.349 . S
C515 C513 1.327 . S
C515 C531 1.429 . S
C515 H537 0.950 . S
C516 H512 0.949 . S
C516 C524 1.574 . S
C516 C532 1.368 . S
H517 C525 0.950 . S
H518 C523 0.950 . S
H519 C524 0.949 . S
H520 C526 0.950 . S
H521 C527 0.950 . S
H522 C528 0.949 . S
C523 H518 0.950 . S
C523 C525 1.327 . S
C523 C529 1.429 . S
C524 C516 1.574 . S
C524 H519 0.949 . S
C524 C530 1.368 . S
C525 C509 1.349 . S
C525 H517 0.950 . S
C525 C523 1.327 . S
C526 C514 1.349 . S
C526 H520 0.950 . S
C526 C527 1.327 . S
C527 H521 0.950 . S
C527 C526 1.327 . S
C527 C531 1.429 . S
C528 C511 1.574 . S
C528 H522 0.949 . S
C528 C532 1.368 . S
C529 C510 1.429 . S
C529 C523 1.429 . S
C529 C530 1.523 . S
C530 C511 1.368 . S
C530 C524 1.368 . S
C530 C529 1.523 . S
C531 C515 1.429 . S
C531 C527 1.429 . S
C531 C532 1.523 . S
C532 C516 1.368 . S
C532 C528 1.368 . S
C532 C531 1.523 . S
H533 C508 0.950 . S
H534 C510 0.950 . S
H535 C511 0.949 . S
H536 C513 0.950 . S
H537 C515 0.950 . S
C538 C539 1.349 . S
C538 C540 1.327 . S
C538 H563 0.950 . S
C539 C538 1.349 . S
C539 C555 1.349 . S
C540 C538 1.327 . S
C540 C559 1.429 . S
C540 H564 0.950 . S
C541 C558 1.574 . S
C541 C560 1.368 . S
C541 H565 0.949 . S
H542 C546 0.949 . S
C543 C544 1.349 . S
C543 C545 1.327 . S
C543 H566 0.950 . S
C544 C543 1.349 . S
C544 C556 1.349 . S
C545 C543 1.327 . S
C545 C561 1.429 . S
C545 H567 0.950 . S
C546 H542 0.949 . S
C546 C554 1.574 . S
C546 C562 1.368 . S
H547 C555 0.950 . S
H548 C553 0.950 . S
H549 C554 0.949 . S
H550 C556 0.950 . S
H551 C557 0.950 . S
H552 C558 0.949 . S
C553 H548 0.950 . S
C553 C555 1.327 . S
C553 C559 1.429 . S
C554 C546 1.574 . S
C554 H549 0.949 . S
C554 C560 1.368 . S
C555 C539 1.349 . S
C555 H547 0.950 . S
C555 C553 1.327 . S
C556 C544 1.349 . S
C556 H550 0.950 . S
C556 C557 1.327 . S
C557 H551 0.950 . S
C557 C556 1.327 . S
C557 C561 1.429 . S
C558 C541 1.574 . S
C558 H552 0.949 . S
C558 C562 1.368 . S
C559 C540 1.429 . S
C559 C553 1.429 . S
C559 C560 1.523 . S
C560 C541 1.368 . S
C560 C554 1.368 . S
C560 C559 1.523 . S
C561 C545 1.429 . S
C561 C557 1.429 . S
C561 C562 1.523 . S
C562 C546 1.368 . S
C562 C558 1.368 . S
C562 C561 1.523 . S
H563 C538 0.950 . S
H564 C540 0.950 . S
H565 C541 0.949 . S
H566 C543 0.950 . S
H567 C545 0.950 . S
C568 C569 1.349 . S
C568 C570 1.327 . S
C568 H593 0.950 . S
C569 C568 1.349 . S
C569 C585 1.349 . S
C570 C568 1.327 . S
C570 C589 1.429 . S
C570 H594 0.950 . S
C571 C588 1.574 . S
C571 C590 1.368 . S
C571 H595 0.949 . S
H572 C576 0.949 . S
C573 C574 1.349 . S
C573 C575 1.327 . S
C573 H596 0.950 . S
C574 C573 1.349 . S
C574 C586 1.349 . S
C575 C573 1.327 . S
C575 C591 1.429 . S
C575 H597 0.950 . S
C576 H572 0.949 . S
C576 C584 1.574 . S
C576 C592 1.368 . S
H577 C585 0.950 . S
H578 C583 0.950 . S
H579 C584 0.949 . S
H580 C586 0.950 . S
H581 C587 0.950 . S
H582 C588 0.949 . S
C583 H578 0.950 . S
C583 C585 1.327 . S
C583 C589 1.429 . S
C584 C576 1.574 . S
C584 H579 0.949 . S
C584 C590 1.368 . S
C585 C569 1.349 . S
C585 H577 0.950 . S
C585 C583 1.327 . S
C586 C574 1.349 . S
C586 H580 0.950 . S
C586 C587 1.327 . S
C587 H581 0.950 . S
C587 C586 1.327 . S
C587 C591 1.429 . S
C588 C571 1.574 . S
C588 H582 0.949 . S
C588 C592 1.368 . S
C589 C570 1.429 . S
C589 C583 1.429 . S
C589 C590 1.523 . S
C590 C571 1.368 . S
C590 C584 1.368 . S
C590 C589 1.523 . S
C591 C575 1.429 . S
C591 C587 1.429 . S
C591 C592 1.523 . S
C592 C576 1.368 . S
C592 C588 1.368 . S
C592 C591 1.523 . S
H593 C568 0.950 . S
H594 C570 0.950 . S
H595 C571 0.949 . S
H596 C573 0.950 . S
H597 C575 0.950 . S
C598 C599 1.349 . S
C598 C600 1.327 . S
C598 H623 0.950 . S
C599 C598 1.349 . S
C599 C615 1.349 . S
C600 C598 1.327 . S
C600 C619 1.429 . S
C600 H624 0.950 . S
C601 C618 1.574 . S
C601 C620 1.368 . S
C601 H625 0.949 . S
H602 C606 0.949 . S
C603 C604 1.349 . S
C603 C605 1.327 . S
C603 H626 0.950 . S
C604 C603 1.349 . S
C604 C616 1.349 . S
C605 C603 1.327 . S
C605 C621 1.429 . S
C605 H627 0.950 . S
C606 H602 0.949 . S
C606 C614 1.574 . S
C606 C622 1.368 . S
H607 C615 0.950 . S
H608 C613 0.950 . S
H609 C614 0.949 . S
H610 C616 0.950 . S
H611 C617 0.950 . S
H612 C618 0.949 . S
C613 H608 0.950 . S
C613 C615 1.327 . S
C613 C619 1.429 . S
C614 C606 1.574 . S
C614 H609 0.949 . S
C614 C620 1.368 . S
C615 C599 1.349 . S
C615 H607 0.950 . S
C615 C613 1.327 . S
C616 C604 1.349 . S
C616 H610 0.950 . S
C616 C617 1.327 . S
C617 H611 0.950 . S
C617 C616 1.327 . S
C617 C621 1.429 . S
C618 C601 1.574 . S
C618 H612 0.949 . S
C618 C622 1.368 . S
C619 C600 1.429 . S
C619 C613 1.429 . S
C619 C620 1.523 . S
C620 C601 1.368 . S
C620 C614 1.368 . S
C620 C619 1.523 . S
C621 C605 1.429 . S
C621 C617 1.429 . S
C621 C622 1.523 . S
C622 C606 1.368 . S
C622 C618 1.368 . S
C622 C621 1.523 . S
H623 C598 0.950 . S
H624 C600 0.950 . S
H625 C601 0.949 . S
H626 C603 0.950 . S
H627 C605 0.950 . S
C628 C629 1.349 . S
C628 C630 1.327 . S
C628 H653 0.950 . S
C629 C628 1.349 . S
C629 C645 1.349 . S
C630 C628 1.327 . S
C630 C649 1.429 . S
C630 H654 0.950 . S
C631 C648 1.574 . S
C631 C650 1.368 . S
C631 H655 0.949 . S
H632 C636 0.949 . S
C633 C634 1.349 . S
C633 C635 1.327 . S
C633 H656 0.950 . S
C634 C633 1.349 . S
C634 C646 1.349 . S
C635 C633 1.327 . S
C635 C651 1.429 . S
C635 H657 0.950 . S
C636 H632 0.949 . S
C636 C644 1.574 . S
C636 C652 1.368 . S
H637 C645 0.950 . S
H638 C643 0.950 . S
H639 C644 0.949 . S
H640 C646 0.950 . S
H641 C647 0.950 . S
H642 C648 0.949 . S
C643 H638 0.950 . S
C643 C645 1.327 . S
C643 C649 1.429 . S
C644 C636 1.574 . S
C644 H639 0.949 . S
C644 C650 1.368 . S
C645 C629 1.349 . S
C645 H637 0.950 . S
C645 C643 1.327 . S
C646 C634 1.349 . S
C646 H640 0.950 . S
C646 C647 1.327 . S
C647 H641 0.950 . S
C647 C646 1.327 . S
C647 C651 1.429 . S
C648 C631 1.574 . S
C648 H642 0.949 . S
C648 C652 1.368 . S
C649 C630 1.429 . S
C649 C643 1.429 . S
C649 C650 1.523 . S
C650 C631 1.368 . S
C650 C644 1.368 . S
C650 C649 1.523 . S
C651 C635 1.429 . S
C651 C647 1.429 . S
C651 C652 1.523 . S
C652 C636 1.368 . S
C652 C648 1.368 . S
C652 C651 1.523 . S
H653 C628 0.950 . S
H654 C630 0.950 . S
H655 C631 0.949 . S
H656 C633 0.950 . S
H657 C635 0.950 . S
C658 C659 1.349 . S
C658 C660 1.327 . S
C658 H683 0.950 . S
C659 C658 1.349 . S
C659 C675 1.349 . S
C660 C658 1.327 . S
C660 C679 1.429 . S
C660 H684 0.950 . S
C661 C678 1.574 . S
C661 C680 1.368 . S
C661 H685 0.949 . S
H662 C666 0.949 . S
C663 C664 1.349 . S
C663 C665 1.327 . S
C663 H686 0.950 . S
C664 C663 1.349 . S
C664 C676 1.349 . S
C665 C663 1.327 . S
C665 C681 1.429 . S
C665 H687 0.950 . S
C666 H662 0.949 . S
C666 C674 1.574 . S
C666 C682 1.368 . S
H667 C675 0.950 . S
H668 C673 0.950 . S
H669 C674 0.949 . S
H670 C676 0.950 . S
H671 C677 0.950 . S
H672 C678 0.949 . S
C673 H668 0.950 . S
C673 C675 1.327 . S
C673 C679 1.429 . S
C674 C666 1.574 . S
C674 H669 0.949 . S
C674 C680 1.368 . S
C675 C659 1.349 . S
C675 H667 0.950 . S
C675 C673 1.327 . S
C676 C664 1.349 . S
C676 H670 0.950 . S
C676 C677 1.327 . S
C677 H671 0.950 . S
C677 C676 1.327 . S
C677 C681 1.429 . S
C678 C661 1.574 . S
C678 H672 0.949 . S
C678 C682 1.368 . S
C679 C660 1.429 . S
C679 C673 1.429 . S
C679 C680 1.523 . S
C680 C661 1.368 . S
C680 C674 1.368 . S
C680 C679 1.523 . S
C681 C665 1.429 . S
C681 C677 1.429 . S
C681 C682 1.523 . S
C682 C666 1.368 . S
C682 C678 1.368 . S
C682 C681 1.523 . S
H683 C658 0.950 . S
H684 C660 0.950 . S
H685 C661 0.949 . S
H686 C663 0.950 . S
H687 C665 0.950 . S
C688 C689 1.349 . S
C688 C690 1.327 . S
C688 H713 0.950 . S
C689 C688 1.349 . S
C689 C705 1.349 . S
C690 C688 1.327 . S
C690 C709 1.429 . S
C690 H714 0.950 . S
C691 C708 1.574 . S
C691 C710 1.368 . S
C691 H715 0.949 . S
H692 C696 0.949 . S
C693 C694 1.349 . S
C693 C695 1.327 . S
C693 H716 0.950 . S
C694 C693 1.349 . S
C694 C706 1.349 . S
C695 C693 1.327 . S
C695 C711 1.429 . S
C695 H717 0.950 . S
C696 H692 0.949 . S
C696 C704 1.574 . S
C696 C712 1.368 . S
H697 C705 0.950 . S
H698 C703 0.950 . S
H699 C704 0.949 . S
H700 C706 0.950 . S
H701 C707 0.950 . S
H702 C708 0.949 . S
C703 H698 0.950 . S
C703 C705 1.327 . S
C703 C709 1.429 . S
C704 C696 1.574 . S
C704 H699 0.949 . S
C704 C710 1.368 . S
C705 C689 1.349 . S
C705 H697 0.950 . S
C705 C703 1.327 . S
C706 C694 1.349 . S
C706 H700 0.950 . S
C706 C707 1.327 . S
C707 H701 0.950 . S
C707 C706 1.327 . S
C707 C711 1.429 . S
C708 C691 1.574 . S
C708 H702 0.949 . S
C708 C712 1.368 . S
C709 C690 1.429 . S
C709 C703 1.429 . S
C709 C710 1.523 . S
C710 C691 1.368 . S
C710 C704 1.368 . S
C710 C709 1.523 . S
C711 C695 1.429 . S
C711 C707 1.429 . S
C711 C712 1.523 . S
C712 C696 1.368 . S
C712 C708 1.368 . S
C712 C711 1.523 . S
H713 C688 0.950 . S
H714 C690 0.950 . S
H715 C691 0.949 . S
H716 C693 0.950 . S
H717 C695 0.950 . S
C718 C719 1.349 . S
C718 C720 1.327 . S
C718 H743 0.950 . S
C719 C718 1.349 . S
C719 C735 1.349 . S
C720 C718 1.327 . S
C720 C739 1.429 . S
C720 H744 0.950 . S
C721 C738 1.574 . S
C721 C740 1.368 . S
C721 H745 0.949 . S
H722 C726 0.949 . S
C723 C724 1.349 . S
C723 C725 1.327 . S
C723 H746 0.950 . S
C724 C723 1.349 . S
C724 C736 1.349 . S
C725 C723 1.327 . S
C725 C741 1.429 . S
C725 H747 0.950 . S
C726 H722 0.949 . S
C726 C734 1.574 . S
C726 C742 1.368 . S
H727 C735 0.950 . S
H728 C733 0.950 . S
H729 C734 0.949 . S
H730 C736 0.950 . S
H731 C737 0.950 . S
H732 C738 0.949 . S
C733 H728 0.950 . S
C733 C735 1.327 . S
C733 C739 1.429 . S
C734 C726 1.574 . S
C734 H729 0.949 . S
C734 C740 1.368 . S
C735 C719 1.349 . S
C735 H727 0.950 . S
C735 C733 1.327 . S
C736 C724 1.349 . S
C736 H730 0.950 . S
C736 C737 1.327 . S
C737 H731 0.950 . S
C737 C736 1.327 . S
C737 C741 1.429 . S
C738 C721 1.574 . S
C738 H732 0.949 . S
C738 C742 1.368 . S
C739 C720 1.429 . S
C739 C733 1.429 . S
C739 C740 1.523 . S
C740 C721 1.368 . S
C740 C734 1.368 . S
C740 C739 1.523 . S
C741 C725 1.429 . S
C741 C737 1.429 . S
C741 C742 1.523 . S
C742 C726 1.368 . S
C742 C738 1.368 . S
C742 C741 1.523 . S
H743 C718 0.950 . S
H744 C720 0.950 . S
H745 C721 0.949 . S
H746 C723 0.950 . S
H747 C725 0.950 . S
C748 C749 1.349 . S
C748 C750 1.327 . S
C748 H773 0.950 . S
C749 C748 1.349 . S
C749 C765 1.349 . S
C750 C748 1.327 . S
C750 C769 1.429 . S
C750 H774 0.950 . S
C751 C768 1.574 . S
C751 C770 1.368 . S
C751 H775 0.949 . S
H752 C756 0.949 . S
C753 C754 1.349 . S
C753 C755 1.327 . S
C753 H776 0.950 . S
C754 C753 1.349 . S
C754 C766 1.349 . S
C755 C753 1.327 . S
C755 C771 1.429 . S
C755 H777 0.950 . S
C756 H752 0.949 . S
C756 C764 1.574 . S
C756 C772 1.368 . S
H757 C765 0.950 . S
H758 C763 0.950 . S
H759 C764 0.949 . S
H760 C766 0.950 . S
H761 C767 0.950 . S
H762 C768 0.949 . S
C763 H758 0.950 . S
C763 C765 1.327 . S
C763 C769 1.429 . S
C764 C756 1.574 . S
C764 H759 0.949 . S
C764 C770 1.368 . S
C765 C749 1.349 . S
C765 H757 0.950 . S
C765 C763 1.327 . S
C766 C754 1.349 . S
C766 H760 0.950 . S
C766 C767 1.327 . S
C767 H761 0.950 . S
C767 C766 1.327 . S
C767 C771 1.429 . S
C768 C751 1.574 . S
C768 H762 0.949 . S
C768 C772 1.368 . S
C769 C750 1.429 . S
C769 C763 1.429 . S
C769 C770 1.523 . S
C770 C751 1.368 . S
C770 C764 1.368 . S
C770 C769 1.523 . S
C771 C755 1.429 . S
C771 C767 1.429 . S
C771 C772 1.523 . S
C772 C756 1.368 . S
C772 C768 1.368 . S
C772 C771 1.523 . S
H773 C748 0.950 . S
H774 C750 0.950 . S
H775 C751 0.949 . S
H776 C753 0.950 . S
H777 C755 0.950 . S
C778 C779 1.349 . S
C778 C780 1.327 . S
C778 H803 0.950 . S
C779 C778 1.349 . S
C779 C795 1.349 . S
C780 C778 1.327 . S
C780 C799 1.429 . S
C780 H804 0.950 . S
C781 C798 1.574 . S
C781 C800 1.368 . S
C781 H805 0.949 . S
H782 C786 0.949 . S
C783 C784 1.349 . S
C783 C785 1.327 . S
C783 H806 0.950 . S
C784 C783 1.349 . S
C784 C796 1.349 . S
C785 C783 1.327 . S
C785 C801 1.429 . S
C785 H807 0.950 . S
C786 H782 0.949 . S
C786 C794 1.574 . S
C786 C802 1.368 . S
H787 C795 0.950 . S
H788 C793 0.950 . S
H789 C794 0.949 . S
H790 C796 0.950 . S
H791 C797 0.950 . S
H792 C798 0.949 . S
C793 H788 0.950 . S
C793 C795 1.327 . S
C793 C799 1.429 . S
C794 C786 1.574 . S
C794 H789 0.949 . S
C794 C800 1.368 . S
C795 C779 1.349 . S
C795 H787 0.950 . S
C795 C793 1.327 . S
C796 C784 1.349 . S
C796 H790 0.950 . S
C796 C797 1.327 . S
C797 H791 0.950 . S
C797 C796 1.327 . S
C797 C801 1.429 . S
C798 C781 1.574 . S
C798 H792 0.949 . S
C798 C802 1.368 . S
C799 C780 1.429 . S
C799 C793 1.429 . S
C799 C800 1.523 . S
C800 C781 1.368 . S
C800 C794 1.368 . S
C800 C799 1.523 . S
C801 C785 1.429 . S
C801 C797 1.429 . S
C801 C802 1.523 . S
C802 C786 1.368 . S
C802 C798 1.368 . S
C802 C801 1.523 . S
H803 C778 0.950 . S
H804 C780 0.950 . S
H805 C781 0.949 . S
H806 C783 0.950 . S
H807 C785 0.950 . S
C808 C809 1.349 . S
C808 C810 1.327 . S
C808 H833 0.950 . S
C809 C808 1.349 . S
C809 C825 1.349 . S
C810 C808 1.327 . S
C810 C829 1.429 . S
C810 H834 0.950 . S
C811 C828 1.574 . S
C811 C830 1.368 . S
C811 H835 0.949 . S
H812 C816 0.949 . S
C813 C814 1.349 . S
C813 C815 1.327 . S
C813 H836 0.950 . S
C814 C813 1.349 . S
C814 C826 1.349 . S
C815 C813 1.327 . S
C815 C831 1.429 . S
C815 H837 0.950 . S
C816 H812 0.949 . S
C816 C824 1.574 . S
C816 C832 1.368 . S
H817 C825 0.950 . S
H818 C823 0.950 . S
H819 C824 0.949 . S
H820 C826 0.950 . S
H821 C827 0.950 . S
H822 C828 0.949 . S
C823 H818 0.950 . S
C823 C825 1.327 . S
C823 C829 1.429 . S
C824 C816 1.574 . S
C824 H819 0.949 . S
C824 C830 1.368 . S
C825 C809 1.349 . S
C825 H817 0.950 . S
C825 C823 1.327 . S
C826 C814 1.349 . S
C826 H820 0.950 . S
C826 C827 1.327 . S
C827 H821 0.950 . S
C827 C826 1.327 . S
C827 C831 1.429 . S
C828 C811 1.574 . S
C828 H822 0.949 . S
C828 C832 1.368 . S
C829 C810 1.429 . S
C829 C823 1.429 . S
C829 C830 1.523 . S
C830 C811 1.368 . S
C830 C824 1.368 . S
C830 C829 1.523 . S
C831 C815 1.429 . S
C831 C827 1.429 . S
C831 C832 1.523 . S
C832 C816 1.368 . S
C832 C828 1.368 . S
C832 C831 1.523 . S
H833 C808 0.950 . S
H834 C810 0.950 . S
H835 C811 0.949 . S
H836 C813 0.950 . S
H837 C815 0.950 . S
C838 C839 1.349 . S
C838 C840 1.327 . S
C838 H863 0.950 . S
C839 C838 1.349 . S
C839 C855 1.349 . S
C840 C838 1.327 . S
C840 C859 1.429 . S
C840 H864 0.950 . S
C841 C858 1.574 . S
C841 C860 1.368 . S
C841 H865 0.949 . S
H842 C846 0.949 . S
C843 C844 1.349 . S
C843 C845 1.327 . S
C843 H866 0.950 . S
C844 C843 1.349 . S
C844 C856 1.349 . S
C845 C843 1.327 . S
C845 C861 1.429 . S
C845 H867 0.950 . S
C846 H842 0.949 . S
C846 C854 1.574 . S
C846 C862 1.368 . S
H847 C855 0.950 . S
H848 C853 0.950 . S
H849 C854 0.949 . S
H850 C856 0.950 . S
H851 C857 0.950 . S
H852 C858 0.949 . S
C853 H848 0.950 . S
C853 C855 1.327 . S
C853 C859 1.429 . S
C854 C846 1.574 . S
C854 H849 0.949 . S
C854 C860 1.368 . S
C855 C839 1.349 . S
C855 H847 0.950 . S
C855 C853 1.327 . S
C856 C844 1.349 . S
C856 H850 0.950 . S
C856 C857 1.327 . S
C857 H851 0.950 . S
C857 C856 1.327 . S
C857 C861 1.429 . S
C858 C841 1.574 . S
C858 H852 0.949 . S
C858 C862 1.368 . S
C859 C840 1.429 . S
C859 C853 1.429 . S
C859 C860 1.523 . S
C860 C841 1.368 . S
C860 C854 1.368 . S
C860 C859 1.523 . S
C861 C845 1.429 . S
C861 C857 1.429 . S
C861 C862 1.523 . S
C862 C846 1.368 . S
C862 C858 1.368 . S
C862 C861 1.523 . S
H863 C838 0.950 . S
H864 C840 0.950 . S
H865 C841 0.949 . S
H866 C843 0.950 . S
H867 C845 0.950 . S
C868 C869 1.349 . S
C868 C870 1.327 . S
C868 H893 0.950 . S
C869 C868 1.349 . S
C869 C885 1.349 . S
C870 C868 1.327 . S
C870 C889 1.429 . S
C870 H894 0.950 . S
C871 C888 1.574 . S
C871 C890 1.368 . S
C871 H895 0.949 . S
H872 C876 0.949 . S
C873 C874 1.349 . S
C873 C875 1.327 . S
C873 H896 0.950 . S
C874 C873 1.349 . S
C874 C886 1.349 . S
C875 C873 1.327 . S
C875 C891 1.429 . S
C875 H897 0.950 . S
C876 H872 0.949 . S
C876 C884 1.574 . S
C876 C892 1.368 . S
H877 C885 0.950 . S
H878 C883 0.950 . S
H879 C884 0.949 . S
H880 C886 0.950 . S
H881 C887 0.950 . S
H882 C888 0.949 . S
C883 H878 0.950 . S
C883 C885 1.327 . S
C883 C889 1.429 . S
C884 C876 1.574 . S
C884 H879 0.949 . S
C884 C890 1.368 . S
C885 C869 1.349 . S
C885 H877 0.950 . S
C885 C883 1.327 . S
C886 C874 1.349 . S
C886 H880 0.950 . S
C886 C887 1.327 . S
C887 H881 0.950 . S
C887 C886 1.327 . S
C887 C891 1.429 . S
C888 C871 1.574 . S
C888 H882 0.949 . S
C888 C892 1.368 . S
C889 C870 1.429 . S
C889 C883 1.429 . S
C889 C890 1.523 . S
C890 C871 1.368 . S
C890 C884 1.368 . S
C890 C889 1.523 . S
C891 C875 1.429 . S
C891 C887 1.429 . S
C891 C892 1.523 . S
C892 C876 1.368 . S
C892 C888 1.368 . S
C892 C891 1.523 . S
H893 C868 0.950 . S
H894 C870 0.950 . S
H895 C871 0.949 . S
H896 C873 0.950 . S
H897 C875 0.950 . S
C898 C899 1.349 . S
C898 C900 1.327 . S
C898 H923 0.950 . S
C899 C898 1.349 . S
C899 C915 1.349 . S
C900 C898 1.327 . S
C900 C919 1.429 . S
C900 H924 0.950 . S
C901 C918 1.574 . S
C901 C920 1.368 . S
C901 H925 0.949 . S
H902 C906 0.949 . S
C903 C904 1.349 . S
C903 C905 1.327 . S
C903 H926 0.950 . S
C904 C903 1.349 . S
C904 C916 1.349 . S
C905 C903 1.327 . S
C905 C921 1.429 . S
C905 H927 0.950 . S
C906 H902 0.949 . S
C906 C914 1.574 . S
C906 C922 1.368 . S
H907 C915 0.950 . S
H908 C913 0.950 . S
H909 C914 0.949 . S
H910 C916 0.950 . S
H911 C917 0.950 . S
H912 C918 0.949 . S
C913 H908 0.950 . S
C913 C915 1.327 . S
C913 C919 1.429 . S
C914 C906 1.574 . S
C914 H909 0.949 . S
C914 C920 1.368 . S
C915 C899 1.349 . S
C915 H907 0.950 . S
C915 C913 1.327 . S
C916 C904 1.349 . S
C916 H910 0.950 . S
C916 C917 1.327 . S
C917 H911 0.950 . S
C917 C916 1.327 . S
C917 C921 1.429 . S
C918 C901 1.574 . S
C918 H912 0.949 . S
C918 C922 1.368 . S
C919 C900 1.429 . S
C919 C913 1.429 . S
C919 C920 1.523 . S
C920 C901 1.368 . S
C920 C914 1.368 . S
C920 C919 1.523 . S
C921 C905 1.429 . S
C921 C917 1.429 . S
C921 C922 1.523 . S
C922 C906 1.368 . S
C922 C918 1.368 . S
C922 C921 1.523 . S
H923 C898 0.950 . S
H924 C900 0.950 . S
H925 C901 0.949 . S
H926 C903 0.950 . S
H927 C905 0.950 . S
C928 C929 1.349 . S
C928 C930 1.327 . S
C928 H953 0.950 . S
C929 C928 1.349 . S
C929 C945 1.349 . S
C930 C928 1.327 . S
C930 C949 1.429 . S
C930 H954 0.950 . S
C931 C948 1.574 . S
C931 C950 1.368 . S
C931 H955 0.949 . S
H932 C936 0.949 . S
C933 C934 1.349 . S
C933 C935 1.327 . S
C933 H956 0.950 . S
C934 C933 1.349 . S
C934 C946 1.349 . S
C935 C933 1.327 . S
C935 C951 1.429 . S
C935 H957 0.950 . S
C936 H932 0.949 . S
C936 C944 1.574 . S
C936 C952 1.368 . S
H937 C945 0.950 . S
H938 C943 0.950 . S
H939 C944 0.949 . S
H940 C946 0.950 . S
H941 C947 0.950 . S
H942 C948 0.949 . S
C943 H938 0.950 . S
C943 C945 1.327 . S
C943 C949 1.429 . S
C944 C936 1.574 . S
C944 H939 0.949 . S
C944 C950 1.368 . S
C945 C929 1.349 . S
C945 H937 0.950 . S
C945 C943 1.327 . S
C946 C934 1.349 . S
C946 H940 0.950 . S
C946 C947 1.327 . S
C947 H941 0.950 . S
C947 C946 1.327 . S
C947 C951 1.429 . S
C948 C931 1.574 . S
C948 H942 0.949 . S
C948 C952 1.368 . S
C949 C930 1.429 . S
C949 C943 1.429 . S
C949 C950 1.523 . S
C950 C931 1.368 . S
C950 C944 1.368 . S
C950 C949 1.523 . S
C951 C935 1.429 . S
C951 C947 1.429 . S
C951 C952 1.523 . S
C952 C936 1.368 . S
C952 C948 1.368 . S
C952 C951 1.523 . S
H953 C928 0.950 . S
H954 C930 0.950 . S
H955 C931 0.949 . S
H956 C933 0.950 . S
H957 C935 0.950 . S
C958 C959 1.349 . S
C958 C960 1.327 . S
C958 H983 0.950 . S
C959 C958 1.349 . S
C959 C975 1.349 . S
C960 C958 1.327 . S
C960 C979 1.429 . S
C960 H984 0.950 . S
C961 C978 1.574 . S
C961 C980 1.368 . S
C961 H985 0.949 . S
H962 C966 0.949 . S
C963 C964 1.349 . S
C963 C965 1.327 . S
C963 H986 0.950 . S
C964 C963 1.349 . S
C964 C976 1.349 . S
C965 C963 1.327 . S
C965 C981 1.429 . S
C965 H987 0.950 . S
C966 H962 0.949 . S
C966 C974 1.574 . S
C966 C982 1.368 . S
H967 C975 0.950 . S
H968 C973 0.950 . S
H969 C974 0.949 . S
H970 C976 0.950 . S
H971 C977 0.950 . S
H972 C978 0.949 . S
C973 H968 0.950 . S
C973 C975 1.327 . S
C973 C979 1.429 . S
C974 C966 1.574 . S
C974 H969 0.949 . S
C974 C980 1.368 . S
C975 C959 1.349 . S
C975 H967 0.950 . S
C975 C973 1.327 . S
C976 C964 1.349 . S
C976 H970 0.950 . S
C976 C977 1.327 . S
C977 H971 0.950 . S
C977 C976 1.327 . S
C977 C981 1.429 . S
C978 C961 1.574 . S
C978 H972 0.949 . S
C978 C982 1.368 . S
C979 C960 1.429 . S
C979 C973 1.429 . S
C979 C980 1.523 . S
C980 C961 1.368 . S
C980 C974 1.368 . S
C980 C979 1.523 . S
C981 C965 1.429 . S
C981 C977 1.429 . S
C981 C982 1.523 . S
C982 C966 1.368 . S
C982 C978 1.368 . S
C982 C981 1.523 . S
H983 C958 0.950 . S
H984 C960 0.950 . S
H985 C961 0.949 . S
H986 C963 0.950 . S
H987 C965 0.950 . S
C988 C989 1.349 . S
C988 C990 1.327 . S
C988 H1013 0.950 . S
C989 C988 1.349 . S
C989 C1005 1.349 . S
C990 C988 1.327 . S
C990 C1009 1.429 . S
C990 H1014 0.950 . S
C991 C1008 1.574 . S
C991 C1010 1.368 . S
C991 H1015 0.949 . S
H992 C996 0.949 . S
C993 C994 1.349 . S
C993 C995 1.327 . S
C993 H1016 0.950 . S
C994 C993 1.349 . S
C994 C1006 1.349 . S
C995 C993 1.327 . S
C995 C1011 1.429 . S
C995 H1017 0.950 . S
C996 H992 0.949 . S
C996 C1004 1.574 . S
C996 C1012 1.368 . S
H997 C1005 0.950 . S
H998 C1003 0.950 . S
H999 C1004 0.949 . S
H1000 C1006 0.950 . S
H1001 C1007 0.950 . S
H1002 C1008 0.949 . S
C1003 H998 0.950 . S
C1003 C1005 1.327 . S
C1003 C1009 1.429 . S
C1004 C996 1.574 . S
C1004 H999 0.949 . S
C1004 C1010 1.368 . S
C1005 C989 1.349 . S
C1005 H997 0.950 . S
C1005 C1003 1.327 . S
C1006 C994 1.349 . S
C1006 H1000 0.950 . S
C1006 C1007 1.327 . S
C1007 H1001 0.950 . S
C1007 C1006 1.327 . S
C1007 C1011 1.429 . S
C1008 C991 1.574 . S
C1008 H1002 0.949 . S
C1008 C1012 1.368 . S
C1009 C990 1.429 . S
C1009 C1003 1.429 . S
C1009 C1010 1.523 . S
C1010 C991 1.368 . S
C1010 C1004 1.368 . S
C1010 C1009 1.523 . S
C1011 C995 1.429 . S
C1011 C1007 1.429 . S
C1011 C1012 1.523 . S
C1012 C996 1.368 . S
C1012 C1008 1.368 . S
C1012 C1011 1.523 . S
H1013 C988 0.950 . S
H1014 C990 0.950 . S
H1015 C991 0.949 . S
H1016 C993 0.950 . S
H1017 C995 0.950 . S
C1018 C1019 1.349 . S
C1018 C1020 1.327 . S
C1018 H1043 0.950 . S
C1019 C1018 1.349 . S
C1019 C1035 1.349 . S
C1020 C1018 1.327 . S
C1020 C1039 1.429 . S
C1020 H1044 0.950 . S
C1021 C1038 1.574 . S
C1021 C1040 1.368 . S
C1021 H1045 0.949 . S
H1022 C1026 0.949 . S
C1023 C1024 1.349 . S
C1023 C1025 1.327 . S
C1023 H1046 0.950 . S
C1024 C1023 1.349 . S
C1024 C1036 1.349 . S
C1025 C1023 1.327 . S
C1025 C1041 1.429 . S
C1025 H1047 0.950 . S
C1026 H1022 0.949 . S
C1026 C1034 1.574 . S
C1026 C1042 1.368 . S
H1027 C1035 0.950 . S
H1028 C1033 0.950 . S
H1029 C1034 0.949 . S
H1030 C1036 0.950 . S
H1031 C1037 0.950 . S
H1032 C1038 0.949 . S
C1033 H1028 0.950 . S
C1033 C1035 1.327 . S
C1033 C1039 1.429 . S
C1034 C1026 1.574 . S
C1034 H1029 0.949 . S
C1034 C1040 1.368 . S
C1035 C1019 1.349 . S
C1035 H1027 0.950 . S
C1035 C1033 1.327 . S
C1036 C1024 1.349 . S
C1036 H1030 0.950 . S
C1036 C1037 1.327 . S
C1037 H1031 0.950 . S
C1037 C1036 1.327 . S
C1037 C1041 1.429 . S
C1038 C1021 1.574 . S
C1038 H1032 0.949 . S
C1038 C1042 1.368 . S
C1039 C1020 1.429 . S
C1039 C1033 1.429 . S
C1039 C1040 1.523 . S
C1040 C1021 1.368 . S
C1040 C1034 1.368 . S
C1040 C1039 1.523 . S
C1041 C1025 1.429 . S
C1041 C1037 1.429 . S
C1041 C1042 1.523 . S
C1042 C1026 1.368 . S
C1042 C1038 1.368 . S
C1042 C1041 1.523 . S
H1043 C1018 0.950 . S
H1044 C1020 0.950 . S
H1045 C1021 0.949 . S
H1046 C1023 0.950 . S
H1047 C1025 0.950 . S
C1048 C1049 1.349 . S
C1048 C1050 1.327 . S
C1048 H1073 0.950 . S
C1049 C1048 1.349 . S
C1049 C1065 1.349 . S
C1050 C1048 1.327 . S
C1050 C1069 1.429 . S
C1050 H1074 0.950 . S
C1051 C1068 1.574 . S
C1051 C1070 1.368 . S
C1051 H1075 0.949 . S
H1052 C1056 0.949 . S
C1053 C1054 1.349 . S
C1053 C1055 1.327 . S
C1053 H1076 0.950 1_556 S
C1054 C1053 1.349 . S
C1054 C1066 1.349 . S
C1055 C1053 1.327 . S
C1055 C1071 1.429 . S
C1055 H1077 0.950 . S
C1056 H1052 0.949 . S
C1056 C1064 1.574 . S
C1056 C1072 1.368 . S
H1057 C1065 0.950 . S
H1058 C1063 0.950 . S
H1059 C1064 0.949 . S
H1060 C1066 0.950 . S
H1061 C1067 0.950 . S
H1062 C1068 0.949 . S
C1063 H1058 0.950 . S
C1063 C1065 1.327 . S
C1063 C1069 1.429 . S
C1064 C1056 1.574 . S
C1064 H1059 0.949 . S
C1064 C1070 1.368 . S
C1065 C1049 1.349 . S
C1065 H1057 0.950 . S
C1065 C1063 1.327 . S
C1066 C1054 1.349 . S
C1066 H1060 0.950 . S
C1066 C1067 1.327 . S
C1067 H1061 0.950 . S
C1067 C1066 1.327 . S
C1067 C1071 1.429 . S
C1068 C1051 1.574 . S
C1068 H1062 0.949 . S
C1068 C1072 1.368 . S
C1069 C1050 1.429 . S
C1069 C1063 1.429 . S
C1069 C1070 1.523 . S
C1070 C1051 1.368 . S
C1070 C1064 1.368 . S
C1070 C1069 1.523 . S
C1071 C1055 1.429 . S
C1071 C1067 1.429 . S
C1071 C1072 1.523 . S
C1072 C1056 1.368 . S
C1072 C1068 1.368 . S
C1072 C1071 1.523 . S
H1073 C1048 0.950 . S
H1074 C1050 0.950 . S
H1075 C1051 0.949 . S
H1076 C1053 0.950 1_554 S
H1077 C1055 0.950 . S
C1078 C1079 1.349 . S
C1078 C1080 1.327 . S
C1078 H1103 0.950 . S
C1079 C1078 1.349 . S
C1079 C1095 1.349 . S
C1080 C1078 1.327 . S
C1080 C1099 1.429 . S
C1080 H1104 0.950 . S
C1081 C1098 1.574 . S
C1081 C1100 1.368 . S
C1081 H1105 0.949 . S
H1082 C1086 0.949 . S
C1083 C1084 1.349 . S
C1083 C1085 1.327 . S
C1083 H1106 0.950 . S
C1084 C1083 1.349 . S
C1084 C1096 1.349 . S
C1085 C1083 1.327 . S
C1085 C1101 1.429 . S
C1085 H1107 0.950 . S
C1086 H1082 0.949 . S
C1086 C1094 1.574 . S
C1086 C1102 1.368 . S
H1087 C1095 0.950 . S
H1088 C1093 0.950 . S
H1089 C1094 0.949 . S
H1090 C1096 0.950 . S
H1091 C1097 0.950 . S
H1092 C1098 0.949 . S
C1093 H1088 0.950 . S
C1093 C1095 1.327 . S
C1093 C1099 1.429 . S
C1094 C1086 1.574 . S
C1094 H1089 0.949 . S
C1094 C1100 1.368 . S
C1095 C1079 1.349 . S
C1095 H1087 0.950 . S
C1095 C1093 1.327 . S
C1096 C1084 1.349 . S
C1096 H1090 0.950 . S
C1096 C1097 1.327 . S
C1097 H1091 0.950 . S
C1097 C1096 1.327 . S
C1097 C1101 1.429 . S
C1098 C1081 1.574 . S
C1098 H1092 0.949 . S
C1098 C1102 1.368 . S
C1099 C1080 1.429 . S
C1099 C1093 1.429 . S
C1099 C1100 1.523 . S
C1100 C1081 1.368 . S
C1100 C1094 1.368 . S
C1100 C1099 1.523 . S
C1101 C1085 1.429 . S
C1101 C1097 1.429 . S
C1101 C1102 1.523 . S
C1102 C1086 1.368 . S
C1102 C1098 1.368 . S
C1102 C1101 1.523 . S
H1103 C1078 0.950 . S
H1104 C1080 0.950 . S
H1105 C1081 0.949 . S
H1106 C1083 0.950 . S
H1107 C1085 0.950 . S
C1108 C1109 1.349 . S
C1108 C1110 1.327 . S
C1108 H1133 0.950 . S
C1109 C1108 1.349 . S
C1109 C1125 1.349 . S
C1110 C1108 1.327 . S
C1110 C1129 1.429 . S
C1110 H1134 0.950 . S
C1111 C1128 1.574 . S
C1111 C1130 1.368 . S
C1111 H1135 0.949 . S
H1112 C1116 0.949 . S
C1113 C1114 1.349 . S
C1113 C1115 1.327 . S
C1113 H1136 0.950 1_556 S
C1114 C1113 1.349 . S
C1114 C1126 1.349 . S
C1115 C1113 1.327 . S
C1115 C1131 1.429 . S
C1115 H1137 0.950 . S
C1116 H1112 0.949 . S
C1116 C1124 1.574 . S
C1116 C1132 1.368 . S
H1117 C1125 0.950 . S
H1118 C1123 0.950 . S
H1119 C1124 0.949 . S
H1120 C1126 0.950 . S
H1121 C1127 0.950 . S
H1122 C1128 0.949 . S
C1123 H1118 0.950 . S
C1123 C1125 1.327 . S
C1123 C1129 1.429 . S
C1124 C1116 1.574 . S
C1124 H1119 0.949 . S
C1124 C1130 1.368 . S
C1125 C1109 1.349 . S
C1125 H1117 0.950 . S
C1125 C1123 1.327 . S
C1126 C1114 1.349 . S
C1126 H1120 0.950 . S
C1126 C1127 1.327 . S
C1127 H1121 0.950 . S
C1127 C1126 1.327 . S
C1127 C1131 1.429 . S
C1128 C1111 1.574 . S
C1128 H1122 0.949 . S
C1128 C1132 1.368 . S
C1129 C1110 1.429 . S
C1129 C1123 1.429 . S
C1129 C1130 1.523 . S
C1130 C1111 1.368 . S
C1130 C1124 1.368 . S
C1130 C1129 1.523 . S
C1131 C1115 1.429 . S
C1131 C1127 1.429 . S
C1131 C1132 1.523 . S
C1132 C1116 1.368 . S
C1132 C1128 1.368 . S
C1132 C1131 1.523 . S
H1133 C1108 0.950 . S
H1134 C1110 0.950 . S
H1135 C1111 0.949 . S
H1136 C1113 0.950 1_554 S
H1137 C1115 0.950 . S
C1138 C1139 1.349 . S
C1138 C1140 1.327 . S
C1138 H1163 0.950 . S
C1139 C1138 1.349 . S
C1139 C1155 1.349 . S
C1140 C1138 1.327 . S
C1140 C1159 1.429 . S
C1140 H1164 0.950 . S
C1141 C1158 1.574 . S
C1141 C1160 1.368 . S
C1141 H1165 0.949 . S
H1142 C1146 0.949 . S
C1143 C1144 1.349 . S
C1143 C1145 1.327 . S
C1143 H1166 0.950 . S
C1144 C1143 1.349 . S
C1144 C1156 1.349 . S
C1145 C1143 1.327 . S
C1145 C1161 1.429 . S
C1145 H1167 0.950 . S
C1146 H1142 0.949 . S
C1146 C1154 1.574 . S
C1146 C1162 1.368 . S
H1147 C1155 0.950 . S
H1148 C1153 0.950 . S
H1149 C1154 0.949 . S
H1150 C1156 0.950 . S
H1151 C1157 0.950 . S
H1152 C1158 0.949 . S
C1153 H1148 0.950 . S
C1153 C1155 1.327 . S
C1153 C1159 1.429 . S
C1154 C1146 1.574 . S
C1154 H1149 0.949 . S
C1154 C1160 1.368 . S
C1155 C1139 1.349 . S
C1155 H1147 0.950 . S
C1155 C1153 1.327 . S
C1156 C1144 1.349 . S
C1156 H1150 0.950 . S
C1156 C1157 1.327 . S
C1157 H1151 0.950 . S
C1157 C1156 1.327 . S
C1157 C1161 1.429 . S
C1158 C1141 1.574 . S
C1158 H1152 0.949 . S
C1158 C1162 1.368 . S
C1159 C1140 1.429 . S
C1159 C1153 1.429 . S
C1159 C1160 1.523 . S
C1160 C1141 1.368 . S
C1160 C1154 1.368 . S
C1160 C1159 1.523 . S
C1161 C1145 1.429 . S
C1161 C1157 1.429 . S
C1161 C1162 1.523 . S
C1162 C1146 1.368 . S
C1162 C1158 1.368 . S
C1162 C1161 1.523 . S
H1163 C1138 0.950 . S
H1164 C1140 0.950 . S
H1165 C1141 0.949 . S
H1166 C1143 0.950 . S
H1167 C1145 0.950 . S
C1168 C1169 1.349 . S
C1168 C1170 1.327 . S
C1168 H1193 0.950 . S
C1169 C1168 1.349 . S
C1169 C1185 1.349 . S
C1170 C1168 1.327 . S
C1170 C1189 1.429 . S
C1170 H1194 0.950 . S
C1171 C1188 1.574 . S
C1171 C1190 1.368 . S
C1171 H1195 0.949 . S
H1172 C1176 0.949 . S
C1173 C1174 1.349 . S
C1173 C1175 1.327 . S
C1173 H1196 0.950 . S
C1174 C1173 1.349 . S
C1174 C1186 1.349 . S
C1175 C1173 1.327 . S
C1175 C1191 1.429 . S
C1175 H1197 0.950 . S
C1176 H1172 0.949 . S
C1176 C1184 1.574 . S
C1176 C1192 1.368 . S
H1177 C1185 0.950 . S
H1178 C1183 0.950 . S
H1179 C1184 0.949 . S
H1180 C1186 0.950 . S
H1181 C1187 0.950 . S
H1182 C1188 0.949 . S
C1183 H1178 0.950 . S
C1183 C1185 1.327 . S
C1183 C1189 1.429 . S
C1184 C1176 1.574 . S
C1184 H1179 0.949 . S
C1184 C1190 1.368 . S
C1185 C1169 1.349 . S
C1185 H1177 0.950 . S
C1185 C1183 1.327 . S
C1186 C1174 1.349 . S
C1186 H1180 0.950 . S
C1186 C1187 1.327 . S
C1187 H1181 0.950 . S
C1187 C1186 1.327 . S
C1187 C1191 1.429 . S
C1188 C1171 1.574 . S
C1188 H1182 0.949 . S
C1188 C1192 1.368 . S
C1189 C1170 1.429 . S
C1189 C1183 1.429 . S
C1189 C1190 1.523 . S
C1190 C1171 1.368 . S
C1190 C1184 1.368 . S
C1190 C1189 1.523 . S
C1191 C1175 1.429 . S
C1191 C1187 1.429 . S
C1191 C1192 1.523 . S
C1192 C1176 1.368 . S
C1192 C1188 1.368 . S
C1192 C1191 1.523 . S
H1193 C1168 0.950 . S
H1194 C1170 0.950 . S
H1195 C1171 0.949 . S
H1196 C1173 0.950 . S
H1197 C1175 0.950 . S
C1198 C1199 1.349 . S
C1198 C1200 1.327 . S
C1198 H1223 0.950 . S
C1199 C1198 1.349 . S
C1199 C1215 1.349 . S
C1200 C1198 1.327 . S
C1200 C1219 1.429 . S
C1200 H1224 0.950 . S
C1201 C1218 1.574 . S
C1201 C1220 1.368 . S
C1201 H1225 0.949 . S
H1202 C1206 0.949 . S
C1203 C1204 1.349 . S
C1203 C1205 1.327 . S
C1203 H1226 0.950 . S
C1204 C1203 1.349 . S
C1204 C1216 1.349 . S
C1205 C1203 1.327 . S
C1205 C1221 1.429 . S
C1205 H1227 0.950 . S
C1206 H1202 0.949 . S
C1206 C1214 1.574 . S
C1206 C1222 1.368 . S
H1207 C1215 0.950 . S
H1208 C1213 0.950 . S
H1209 C1214 0.949 . S
H1210 C1216 0.950 . S
H1211 C1217 0.950 . S
H1212 C1218 0.949 . S
C1213 H1208 0.950 . S
C1213 C1215 1.327 . S
C1213 C1219 1.429 . S
C1214 C1206 1.574 . S
C1214 H1209 0.949 . S
C1214 C1220 1.368 . S
C1215 C1199 1.349 . S
C1215 H1207 0.950 . S
C1215 C1213 1.327 . S
C1216 C1204 1.349 . S
C1216 H1210 0.950 . S
C1216 C1217 1.327 . S
C1217 H1211 0.950 . S
C1217 C1216 1.327 . S
C1217 C1221 1.429 . S
C1218 C1201 1.574 . S
C1218 H1212 0.949 . S
C1218 C1222 1.368 . S
C1219 C1200 1.429 . S
C1219 C1213 1.429 . S
C1219 C1220 1.523 . S
C1220 C1201 1.368 . S
C1220 C1214 1.368 . S
C1220 C1219 1.523 . S
C1221 C1205 1.429 . S
C1221 C1217 1.429 . S
C1221 C1222 1.523 . S
C1222 C1206 1.368 . S
C1222 C1218 1.368 . S
C1222 C1221 1.523 . S
H1223 C1198 0.950 . S
H1224 C1200 0.950 . S
H1225 C1201 0.949 . S
H1226 C1203 0.950 . S
H1227 C1205 0.950 . S
C1228 C1229 1.349 . S
C1228 C1230 1.327 . S
C1228 H1253 0.950 . S
C1229 C1228 1.349 . S
C1229 C1245 1.349 . S
C1230 C1228 1.327 . S
C1230 C1249 1.429 . S
C1230 H1254 0.950 . S
C1231 C1248 1.574 . S
C1231 C1250 1.368 . S
C1231 H1255 0.949 . S
H1232 C1236 0.949 . S
C1233 C1234 1.349 . S
C1233 C1235 1.327 . S
C1233 H1256 0.950 . S
C1234 C1233 1.349 . S
C1234 C1246 1.349 . S
C1235 C1233 1.327 . S
C1235 C1251 1.429 . S
C1235 H1257 0.950 . S
C1236 H1232 0.949 . S
C1236 C1244 1.574 . S
C1236 C1252 1.368 . S
H1237 C1245 0.950 . S
H1238 C1243 0.950 . S
H1239 C1244 0.949 . S
H1240 C1246 0.950 . S
H1241 C1247 0.950 . S
H1242 C1248 0.949 . S
C1243 H1238 0.950 . S
C1243 C1245 1.327 . S
C1243 C1249 1.429 . S
C1244 C1236 1.574 . S
C1244 H1239 0.949 . S
C1244 C1250 1.368 . S
C1245 C1229 1.349 . S
C1245 H1237 0.950 . S
C1245 C1243 1.327 . S
C1246 C1234 1.349 . S
C1246 H1240 0.950 . S
C1246 C1247 1.327 . S
C1247 H1241 0.950 . S
C1247 C1246 1.327 . S
C1247 C1251 1.429 . S
C1248 C1231 1.574 . S
C1248 H1242 0.949 . S
C1248 C1252 1.368 . S
C1249 C1230 1.429 . S
C1249 C1243 1.429 . S
C1249 C1250 1.523 . S
C1250 C1231 1.368 . S
C1250 C1244 1.368 . S
C1250 C1249 1.523 . S
C1251 C1235 1.429 . S
C1251 C1247 1.429 . S
C1251 C1252 1.523 . S
C1252 C1236 1.368 . S
C1252 C1248 1.368 . S
C1252 C1251 1.523 . S
H1253 C1228 0.950 . S
H1254 C1230 0.950 . S
H1255 C1231 0.949 . S
H1256 C1233 0.950 . S
H1257 C1235 0.950 . S
C1258 C1259 1.349 . S
C1258 C1260 1.327 . S
C1258 H1283 0.950 . S
C1259 C1258 1.349 . S
C1259 C1275 1.349 . S
C1260 C1258 1.327 . S
C1260 C1279 1.429 . S
C1260 H1284 0.950 . S
C1261 C1278 1.574 . S
C1261 C1280 1.368 . S
C1261 H1285 0.949 . S
H1262 C1266 0.949 . S
C1263 C1264 1.349 . S
C1263 C1265 1.327 . S
C1263 H1286 0.950 . S
C1264 C1263 1.349 . S
C1264 C1276 1.349 . S
C1265 C1263 1.327 . S
C1265 C1281 1.429 . S
C1265 H1287 0.950 . S
C1266 H1262 0.949 . S
C1266 C1274 1.574 . S
C1266 C1282 1.368 . S
H1267 C1275 0.950 . S
H1268 C1273 0.950 . S
H1269 C1274 0.949 . S
H1270 C1276 0.950 . S
H1271 C1277 0.950 . S
H1272 C1278 0.949 . S
C1273 H1268 0.950 . S
C1273 C1275 1.327 . S
C1273 C1279 1.429 . S
C1274 C1266 1.574 . S
C1274 H1269 0.949 . S
C1274 C1280 1.368 . S
C1275 C1259 1.349 . S
C1275 H1267 0.950 . S
C1275 C1273 1.327 . S
C1276 C1264 1.349 . S
C1276 H1270 0.950 . S
C1276 C1277 1.327 . S
C1277 H1271 0.950 . S
C1277 C1276 1.327 . S
C1277 C1281 1.429 . S
C1278 C1261 1.574 . S
C1278 H1272 0.949 . S
C1278 C1282 1.368 . S
C1279 C1260 1.429 . S
C1279 C1273 1.429 . S
C1279 C1280 1.523 . S
C1280 C1261 1.368 . S
C1280 C1274 1.368 . S
C1280 C1279 1.523 . S
C1281 C1265 1.429 . S
C1281 C1277 1.429 . S
C1281 C1282 1.523 . S
C1282 C1266 1.368 . S
C1282 C1278 1.368 . S
C1282 C1281 1.523 . S
H1283 C1258 0.950 . S
H1284 C1260 0.950 . S
H1285 C1261 0.949 . S
H1286 C1263 0.950 . S
H1287 C1265 0.950 . S
C1288 C1289 1.349 . S
C1288 C1290 1.327 . S
C1288 H1313 0.950 . S
C1289 C1288 1.349 . S
C1289 C1305 1.349 . S
C1290 C1288 1.327 . S
C1290 C1309 1.429 . S
C1290 H1314 0.950 . S
C1291 C1308 1.574 . S
C1291 C1310 1.368 . S
C1291 H1315 0.949 . S
H1292 C1296 0.949 . S
C1293 C1294 1.349 . S
C1293 C1295 1.327 . S
C1293 H1316 0.950 . S
C1294 C1293 1.349 . S
C1294 C1306 1.349 . S
C1295 C1293 1.327 . S
C1295 C1311 1.429 . S
C1295 H1317 0.950 . S
C1296 H1292 0.949 . S
C1296 C1304 1.574 . S
C1296 C1312 1.368 . S
H1297 C1305 0.950 . S
H1298 C1303 0.950 . S
H1299 C1304 0.949 . S
H1300 C1306 0.950 . S
H1301 C1307 0.950 . S
H1302 C1308 0.949 . S
C1303 H1298 0.950 . S
C1303 C1305 1.327 . S
C1303 C1309 1.429 . S
C1304 C1296 1.574 . S
C1304 H1299 0.949 . S
C1304 C1310 1.368 . S
C1305 C1289 1.349 . S
C1305 H1297 0.950 . S
C1305 C1303 1.327 . S
C1306 C1294 1.349 . S
C1306 H1300 0.950 . S
C1306 C1307 1.327 . S
C1307 H1301 0.950 . S
C1307 C1306 1.327 . S
C1307 C1311 1.429 . S
C1308 C1291 1.574 . S
C1308 H1302 0.949 . S
C1308 C1312 1.368 . S
C1309 C1290 1.429 . S
C1309 C1303 1.429 . S
C1309 C1310 1.523 . S
C1310 C1291 1.368 . S
C1310 C1304 1.368 . S
C1310 C1309 1.523 . S
C1311 C1295 1.429 . S
C1311 C1307 1.429 . S
C1311 C1312 1.523 . S
C1312 C1296 1.368 . S
C1312 C1308 1.368 . S
C1312 C1311 1.523 . S
H1313 C1288 0.950 . S
H1314 C1290 0.950 . S
H1315 C1291 0.949 . S
H1316 C1293 0.950 . S
H1317 C1295 0.950 . S
C1318 C1319 1.349 . S
C1318 C1320 1.327 . S
C1318 H1343 0.950 . S
C1319 C1318 1.349 . S
C1319 C1335 1.349 . S
C1320 C1318 1.327 . S
C1320 C1339 1.429 . S
C1320 H1344 0.950 . S
C1321 C1338 1.574 . S
C1321 C1340 1.368 . S
C1321 H1345 0.949 . S
H1322 C1326 0.949 . S
C1323 C1324 1.349 . S
C1323 C1325 1.327 . S
C1323 H1346 0.950 . S
C1324 C1323 1.349 . S
C1324 C1336 1.349 . S
C1325 C1323 1.327 . S
C1325 C1341 1.429 . S
C1325 H1347 0.950 . S
C1326 H1322 0.949 . S
C1326 C1334 1.574 . S
C1326 C1342 1.368 . S
H1327 C1335 0.950 . S
H1328 C1333 0.950 . S
H1329 C1334 0.949 . S
H1330 C1336 0.950 . S
H1331 C1337 0.950 . S
H1332 C1338 0.949 . S
C1333 H1328 0.950 . S
C1333 C1335 1.327 . S
C1333 C1339 1.429 . S
C1334 C1326 1.574 . S
C1334 H1329 0.949 . S
C1334 C1340 1.368 . S
C1335 C1319 1.349 . S
C1335 H1327 0.950 . S
C1335 C1333 1.327 . S
C1336 C1324 1.349 . S
C1336 H1330 0.950 . S
C1336 C1337 1.327 . S
C1337 H1331 0.950 . S
C1337 C1336 1.327 . S
C1337 C1341 1.429 . S
C1338 C1321 1.574 . S
C1338 H1332 0.949 . S
C1338 C1342 1.368 . S
C1339 C1320 1.429 . S
C1339 C1333 1.429 . S
C1339 C1340 1.523 . S
C1340 C1321 1.368 . S
C1340 C1334 1.368 . S
C1340 C1339 1.523 . S
C1341 C1325 1.429 . S
C1341 C1337 1.429 . S
C1341 C1342 1.523 . S
C1342 C1326 1.368 . S
C1342 C1338 1.368 . S
C1342 C1341 1.523 . S
H1343 C1318 0.950 . S
H1344 C1320 0.950 . S
H1345 C1321 0.949 . S
H1346 C1323 0.950 . S
H1347 C1325 0.950 . S
C1348 C1349 1.349 . S
C1348 C1350 1.327 . S
C1348 H1373 0.950 . S
C1349 C1348 1.349 . S
C1349 C1365 1.349 . S
C1350 C1348 1.327 . S
C1350 C1369 1.429 . S
C1350 H1374 0.950 . S
C1351 C1368 1.574 . S
C1351 C1370 1.368 . S
C1351 H1375 0.949 . S
H1352 C1356 0.949 . S
C1353 C1354 1.349 . S
C1353 C1355 1.327 . S
C1353 H1376 0.950 . S
C1354 C1353 1.349 . S
C1354 C1366 1.349 . S
C1355 C1353 1.327 . S
C1355 C1371 1.429 . S
C1355 H1377 0.950 . S
C1356 H1352 0.949 . S
C1356 C1364 1.574 . S
C1356 C1372 1.368 . S
H1357 C1365 0.950 . S
H1358 C1363 0.950 . S
H1359 C1364 0.949 . S
H1360 C1366 0.950 . S
H1361 C1367 0.950 . S
H1362 C1368 0.949 . S
C1363 H1358 0.950 . S
C1363 C1365 1.327 . S
C1363 C1369 1.429 . S
C1364 C1356 1.574 . S
C1364 H1359 0.949 . S
C1364 C1370 1.368 . S
C1365 C1349 1.349 . S
C1365 H1357 0.950 . S
C1365 C1363 1.327 . S
C1366 C1354 1.349 . S
C1366 H1360 0.950 . S
C1366 C1367 1.327 . S
C1367 H1361 0.950 . S
C1367 C1366 1.327 . S
C1367 C1371 1.429 . S
C1368 C1351 1.574 . S
C1368 H1362 0.949 . S
C1368 C1372 1.368 . S
C1369 C1350 1.429 . S
C1369 C1363 1.429 . S
C1369 C1370 1.523 . S
C1370 C1351 1.368 . S
C1370 C1364 1.368 . S
C1370 C1369 1.523 . S
C1371 C1355 1.429 . S
C1371 C1367 1.429 . S
C1371 C1372 1.523 . S
C1372 C1356 1.368 . S
C1372 C1368 1.368 . S
C1372 C1371 1.523 . S
H1373 C1348 0.950 . S
H1374 C1350 0.950 . S
H1375 C1351 0.949 . S
H1376 C1353 0.950 . S
H1377 C1355 0.950 . S
C1378 C1379 1.349 . S
C1378 C1380 1.327 . S
C1378 H1403 0.950 . S
C1379 C1378 1.349 . S
C1379 C1395 1.349 . S
C1380 C1378 1.327 . S
C1380 C1399 1.429 . S
C1380 H1404 0.950 . S
C1381 C1398 1.574 . S
C1381 C1400 1.368 . S
C1381 H1405 0.949 . S
H1382 C1386 0.949 . S
C1383 C1384 1.349 . S
C1383 C1385 1.327 . S
C1383 H1406 0.950 . S
C1384 C1383 1.349 . S
C1384 C1396 1.349 . S
C1385 C1383 1.327 . S
C1385 C1401 1.429 . S
C1385 H1407 0.950 . S
C1386 H1382 0.949 . S
C1386 C1394 1.574 . S
C1386 C1402 1.368 . S
H1387 C1395 0.950 . S
H1388 C1393 0.950 . S
H1389 C1394 0.949 . S
H1390 C1396 0.950 . S
H1391 C1397 0.950 . S
H1392 C1398 0.949 . S
C1393 H1388 0.950 . S
C1393 C1395 1.327 . S
C1393 C1399 1.429 . S
C1394 C1386 1.574 . S
C1394 H1389 0.949 . S
C1394 C1400 1.368 . S
C1395 C1379 1.349 . S
C1395 H1387 0.950 . S
C1395 C1393 1.327 . S
C1396 C1384 1.349 . S
C1396 H1390 0.950 . S
C1396 C1397 1.327 . S
C1397 H1391 0.950 . S
C1397 C1396 1.327 . S
C1397 C1401 1.429 . S
C1398 C1381 1.574 . S
C1398 H1392 0.949 . S
C1398 C1402 1.368 . S
C1399 C1380 1.429 . S
C1399 C1393 1.429 . S
C1399 C1400 1.523 . S
C1400 C1381 1.368 . S
C1400 C1394 1.368 . S
C1400 C1399 1.523 . S
C1401 C1385 1.429 . S
C1401 C1397 1.429 . S
C1401 C1402 1.523 . S
C1402 C1386 1.368 . S
C1402 C1398 1.368 . S
C1402 C1401 1.523 . S
H1403 C1378 0.950 . S
H1404 C1380 0.950 . S
H1405 C1381 0.949 . S
H1406 C1383 0.950 . S
H1407 C1385 0.950 . S
C1408 C1409 1.349 . S
C1408 C1410 1.327 . S
C1408 H1433 0.950 . S
C1409 C1408 1.349 . S
C1409 C1425 1.349 . S
C1410 C1408 1.327 . S
C1410 C1429 1.429 . S
C1410 H1434 0.950 . S
C1411 C1428 1.574 . S
C1411 C1430 1.368 . S
C1411 H1435 0.949 . S
H1412 C1416 0.949 . S
C1413 C1414 1.349 . S
C1413 C1415 1.327 . S
C1413 H1436 0.950 . S
C1414 C1413 1.349 . S
C1414 C1426 1.349 . S
C1415 C1413 1.327 . S
C1415 C1431 1.429 . S
C1415 H1437 0.950 . S
C1416 H1412 0.949 . S
C1416 C1424 1.574 . S
C1416 C1432 1.368 . S
H1417 C1425 0.950 . S
H1418 C1423 0.950 . S
H1419 C1424 0.949 . S
H1420 C1426 0.950 . S
H1421 C1427 0.950 . S
H1422 C1428 0.949 . S
C1423 H1418 0.950 . S
C1423 C1425 1.327 . S
C1423 C1429 1.429 . S
C1424 C1416 1.574 . S
C1424 H1419 0.949 . S
C1424 C1430 1.368 . S
C1425 C1409 1.349 . S
C1425 H1417 0.950 . S
C1425 C1423 1.327 . S
C1426 C1414 1.349 . S
C1426 H1420 0.950 . S
C1426 C1427 1.327 . S
C1427 H1421 0.950 . S
C1427 C1426 1.327 . S
C1427 C1431 1.429 . S
C1428 C1411 1.574 . S
C1428 H1422 0.949 . S
C1428 C1432 1.368 . S
C1429 C1410 1.429 . S
C1429 C1423 1.429 . S
C1429 C1430 1.523 . S
C1430 C1411 1.368 . S
C1430 C1424 1.368 . S
C1430 C1429 1.523 . S
C1431 C1415 1.429 . S
C1431 C1427 1.429 . S
C1431 C1432 1.523 . S
C1432 C1416 1.368 . S
C1432 C1428 1.368 . S
C1432 C1431 1.523 . S
H1433 C1408 0.950 . S
H1434 C1410 0.950 . S
H1435 C1411 0.949 . S
H1436 C1413 0.950 . S
H1437 C1415 0.950 . S
C1438 C1439 1.349 . S
C1438 C1440 1.327 . S
C1438 H1463 0.950 . S
C1439 C1438 1.349 . S
C1439 C1455 1.349 . S
C1440 C1438 1.327 . S
C1440 C1459 1.429 . S
C1440 H1464 0.950 . S
C1441 C1458 1.574 . S
C1441 C1460 1.368 . S
C1441 H1465 0.949 . S
H1442 C1446 0.949 . S
C1443 C1444 1.349 . S
C1443 C1445 1.327 . S
C1443 H1466 0.950 . S
C1444 C1443 1.349 . S
C1444 C1456 1.349 . S
C1445 C1443 1.327 . S
C1445 C1461 1.429 . S
C1445 H1467 0.950 . S
C1446 H1442 0.949 . S
C1446 C1454 1.574 . S
C1446 C1462 1.368 . S
H1447 C1455 0.950 . S
H1448 C1453 0.950 . S
H1449 C1454 0.949 . S
H1450 C1456 0.950 . S
H1451 C1457 0.950 . S
H1452 C1458 0.949 . S
C1453 H1448 0.950 . S
C1453 C1455 1.327 . S
C1453 C1459 1.429 . S
C1454 C1446 1.574 . S
C1454 H1449 0.949 . S
C1454 C1460 1.368 . S
C1455 C1439 1.349 . S
C1455 H1447 0.950 . S
C1455 C1453 1.327 . S
C1456 C1444 1.349 . S
C1456 H1450 0.950 . S
C1456 C1457 1.327 . S
C1457 H1451 0.950 . S
C1457 C1456 1.327 . S
C1457 C1461 1.429 . S
C1458 C1441 1.574 . S
C1458 H1452 0.949 . S
C1458 C1462 1.368 . S
C1459 C1440 1.429 . S
C1459 C1453 1.429 . S
C1459 C1460 1.523 . S
C1460 C1441 1.368 . S
C1460 C1454 1.368 . S
C1460 C1459 1.523 . S
C1461 C1445 1.429 . S
C1461 C1457 1.429 . S
C1461 C1462 1.523 . S
C1462 C1446 1.368 . S
C1462 C1458 1.368 . S
C1462 C1461 1.523 . S
H1463 C1438 0.950 . S
H1464 C1440 0.950 . S
H1465 C1441 0.949 . S
H1466 C1443 0.950 . S
H1467 C1445 0.950 . S
C1468 C1469 1.349 . S
C1468 C1470 1.327 . S
C1468 H1493 0.950 . S
C1469 C1468 1.349 . S
C1469 C1485 1.349 . S
C1470 C1468 1.327 . S
C1470 C1489 1.429 . S
C1470 H1494 0.950 . S
C1471 C1488 1.574 . S
C1471 C1490 1.368 . S
C1471 H1495 0.949 . S
H1472 C1476 0.949 . S
C1473 C1474 1.349 . S
C1473 C1475 1.327 . S
C1473 H1496 0.950 . S
C1474 C1473 1.349 . S
C1474 C1486 1.349 . S
C1475 C1473 1.327 . S
C1475 C1491 1.429 . S
C1475 H1497 0.950 . S
C1476 H1472 0.949 . S
C1476 C1484 1.574 . S
C1476 C1492 1.368 . S
H1477 C1485 0.950 . S
H1478 C1483 0.950 . S
H1479 C1484 0.949 . S
H1480 C1486 0.950 . S
H1481 C1487 0.950 . S
H1482 C1488 0.949 . S
C1483 H1478 0.950 . S
C1483 C1485 1.327 . S
C1483 C1489 1.429 . S
C1484 C1476 1.574 . S
C1484 H1479 0.949 . S
C1484 C1490 1.368 . S
C1485 C1469 1.349 . S
C1485 H1477 0.950 . S
C1485 C1483 1.327 . S
C1486 C1474 1.349 . S
C1486 H1480 0.950 . S
C1486 C1487 1.327 . S
C1487 H1481 0.950 . S
C1487 C1486 1.327 . S
C1487 C1491 1.429 . S
C1488 C1471 1.574 . S
C1488 H1482 0.949 . S
C1488 C1492 1.368 . S
C1489 C1470 1.429 . S
C1489 C1483 1.429 . S
C1489 C1490 1.523 . S
C1490 C1471 1.368 . S
C1490 C1484 1.368 . S
C1490 C1489 1.523 . S
C1491 C1475 1.429 . S
C1491 C1487 1.429 . S
C1491 C1492 1.523 . S
C1492 C1476 1.368 . S
C1492 C1488 1.368 . S
C1492 C1491 1.523 . S
H1493 C1468 0.950 . S
H1494 C1470 0.950 . S
H1495 C1471 0.949 . S
H1496 C1473 0.950 . S
H1497 C1475 0.950 . S
C1498 C1499 1.349 . S
C1498 C1500 1.327 . S
C1498 H1523 0.950 . S
C1499 C1498 1.349 . S
C1499 C1515 1.349 . S
C1500 C1498 1.327 . S
C1500 C1519 1.429 . S
C1500 H1524 0.950 . S
C1501 C1518 1.574 . S
C1501 C1520 1.368 . S
C1501 H1525 0.949 . S
H1502 C1506 0.949 . S
C1503 C1504 1.349 . S
C1503 C1505 1.327 . S
C1503 H1526 0.950 . S
C1504 C1503 1.349 . S
C1504 C1516 1.349 . S
C1505 C1503 1.327 . S
C1505 C1521 1.429 . S
C1505 H1527 0.950 . S
C1506 H1502 0.949 . S
C1506 C1514 1.574 . S
C1506 C1522 1.368 . S
H1507 C1515 0.950 . S
H1508 C1513 0.950 . S
H1509 C1514 0.949 . S
H1510 C1516 0.950 . S
H1511 C1517 0.950 . S
H1512 C1518 0.949 . S
C1513 H1508 0.950 . S
C1513 C1515 1.327 . S
C1513 C1519 1.429 . S
C1514 C1506 1.574 . S
C1514 H1509 0.949 . S
C1514 C1520 1.368 . S
C1515 C1499 1.349 . S
C1515 H1507 0.950 . S
C1515 C1513 1.327 . S
C1516 C1504 1.349 . S
C1516 H1510 0.950 . S
C1516 C1517 1.327 . S
C1517 H1511 0.950 . S
C1517 C1516 1.327 . S
C1517 C1521 1.429 . S
C1518 C1501 1.574 . S
C1518 H1512 0.949 . S
C1518 C1522 1.368 . S
C1519 C1500 1.429 . S
C1519 C1513 1.429 . S
C1519 C1520 1.523 . S
C1520 C1501 1.368 . S
C1520 C1514 1.368 . S
C1520 C1519 1.523 . S
C1521 C1505 1.429 . S
C1521 C1517 1.429 . S
C1521 C1522 1.523 . S
C1522 C1506 1.368 . S
C1522 C1518 1.368 . S
C1522 C1521 1.523 . S
H1523 C1498 0.950 . S
H1524 C1500 0.950 . S
H1525 C1501 0.949 . S
H1526 C1503 0.950 . S
H1527 C1505 0.950 . S
C1528 C1529 1.349 . S
C1528 C1530 1.327 . S
C1528 H1553 0.950 . S
C1529 C1528 1.349 . S
C1529 C1545 1.349 . S
C1530 C1528 1.327 . S
C1530 C1549 1.429 . S
C1530 H1554 0.950 . S
C1531 C1548 1.574 . S
C1531 C1550 1.368 . S
C1531 H1555 0.949 . S
H1532 C1536 0.949 . S
C1533 C1534 1.349 . S
C1533 C1535 1.327 . S
C1533 H1556 0.950 . S
C1534 C1533 1.349 . S
C1534 C1546 1.349 . S
C1535 C1533 1.327 . S
C1535 C1551 1.429 . S
C1535 H1557 0.950 . S
C1536 H1532 0.949 . S
C1536 C1544 1.574 . S
C1536 C1552 1.368 . S
H1537 C1545 0.950 . S
H1538 C1543 0.950 . S
H1539 C1544 0.949 . S
H1540 C1546 0.950 . S
H1541 C1547 0.950 . S
H1542 C1548 0.949 . S
C1543 H1538 0.950 . S
C1543 C1545 1.327 . S
C1543 C1549 1.429 . S
C1544 C1536 1.574 . S
C1544 H1539 0.949 . S
C1544 C1550 1.368 . S
C1545 C1529 1.349 . S
C1545 H1537 0.950 . S
C1545 C1543 1.327 . S
C1546 C1534 1.349 . S
C1546 H1540 0.950 . S
C1546 C1547 1.327 . S
C1547 H1541 0.950 . S
C1547 C1546 1.327 . S
C1547 C1551 1.429 . S
C1548 C1531 1.574 . S
C1548 H1542 0.949 . S
C1548 C1552 1.368 . S
C1549 C1530 1.429 . S
C1549 C1543 1.429 . S
C1549 C1550 1.523 . S
C1550 C1531 1.368 . S
C1550 C1544 1.368 . S
C1550 C1549 1.523 . S
C1551 C1535 1.429 . S
C1551 C1547 1.429 . S
C1551 C1552 1.523 . S
C1552 C1536 1.368 . S
C1552 C1548 1.368 . S
C1552 C1551 1.523 . S
H1553 C1528 0.950 . S
H1554 C1530 0.950 . S
H1555 C1531 0.949 . S
H1556 C1533 0.950 . S
H1557 C1535 0.950 . S
C1558 C1559 1.349 . S
C1558 C1560 1.327 . S
C1558 H1583 0.950 . S
C1559 C1558 1.349 . S
C1559 C1575 1.349 . S
C1560 C1558 1.327 . S
C1560 C1579 1.429 . S
C1560 H1584 0.950 . S
C1561 C1578 1.574 . S
C1561 C1580 1.368 . S
C1561 H1585 0.949 . S
H1562 C1566 0.949 . S
C1563 C1564 1.349 . S
C1563 C1565 1.327 . S
C1563 H1586 0.950 . S
C1564 C1563 1.349 . S
C1564 C1576 1.349 . S
C1565 C1563 1.327 . S
C1565 C1581 1.429 . S
C1565 H1587 0.950 . S
C1566 H1562 0.949 . S
C1566 C1574 1.574 . S
C1566 C1582 1.368 . S
H1567 C1575 0.950 . S
H1568 C1573 0.950 . S
H1569 C1574 0.949 . S
H1570 C1576 0.950 . S
H1571 C1577 0.950 . S
H1572 C1578 0.949 . S
C1573 H1568 0.950 . S
C1573 C1575 1.327 . S
C1573 C1579 1.429 . S
C1574 C1566 1.574 . S
C1574 H1569 0.949 . S
C1574 C1580 1.368 . S
C1575 C1559 1.349 . S
C1575 H1567 0.950 . S
C1575 C1573 1.327 . S
C1576 C1564 1.349 . S
C1576 H1570 0.950 . S
C1576 C1577 1.327 . S
C1577 H1571 0.950 . S
C1577 C1576 1.327 . S
C1577 C1581 1.429 . S
C1578 C1561 1.574 . S
C1578 H1572 0.949 . S
C1578 C1582 1.368 . S
C1579 C1560 1.429 . S
C1579 C1573 1.429 . S
C1579 C1580 1.523 . S
C1580 C1561 1.368 . S
C1580 C1574 1.368 . S
C1580 C1579 1.523 . S
C1581 C1565 1.429 . S
C1581 C1577 1.429 . S
C1581 C1582 1.523 . S
C1582 C1566 1.368 . S
C1582 C1578 1.368 . S
C1582 C1581 1.523 . S
H1583 C1558 0.950 . S
H1584 C1560 0.950 . S
H1585 C1561 0.949 . S
H1586 C1563 0.950 . S
H1587 C1565 0.950 . S
C1588 C1589 1.349 . S
C1588 C1590 1.327 . S
C1588 H1613 0.950 . S
C1589 C1588 1.349 . S
C1589 C1605 1.349 . S
C1590 C1588 1.327 . S
C1590 C1609 1.429 . S
C1590 H1614 0.950 . S
C1591 C1608 1.574 . S
C1591 C1610 1.368 . S
C1591 H1615 0.949 . S
H1592 C1596 0.949 . S
C1593 C1594 1.349 . S
C1593 C1595 1.327 . S
C1593 H1616 0.950 . S
C1594 C1593 1.349 . S
C1594 C1606 1.349 . S
C1595 C1593 1.327 . S
C1595 C1611 1.429 . S
C1595 H1617 0.950 . S
C1596 H1592 0.949 . S
C1596 C1604 1.574 . S
C1596 C1612 1.368 . S
H1597 C1605 0.950 . S
H1598 C1603 0.950 . S
H1599 C1604 0.949 . S
H1600 C1606 0.950 . S
H1601 C1607 0.950 . S
H1602 C1608 0.949 . S
C1603 H1598 0.950 . S
C1603 C1605 1.327 . S
C1603 C1609 1.429 . S
C1604 C1596 1.574 . S
C1604 H1599 0.949 . S
C1604 C1610 1.368 . S
C1605 C1589 1.349 . S
C1605 H1597 0.950 . S
C1605 C1603 1.327 . S
C1606 C1594 1.349 . S
C1606 H1600 0.950 . S
C1606 C1607 1.327 . S
C1607 H1601 0.950 . S
C1607 C1606 1.327 . S
C1607 C1611 1.429 . S
C1608 C1591 1.574 . S
C1608 H1602 0.949 . S
C1608 C1612 1.368 . S
C1609 C1590 1.429 . S
C1609 C1603 1.429 . S
C1609 C1610 1.523 . S
C1610 C1591 1.368 . S
C1610 C1604 1.368 . S
C1610 C1609 1.523 . S
C1611 C1595 1.429 . S
C1611 C1607 1.429 . S
C1611 C1612 1.523 . S
C1612 C1596 1.368 . S
C1612 C1608 1.368 . S
C1612 C1611 1.523 . S
H1613 C1588 0.950 . S
H1614 C1590 0.950 . S
H1615 C1591 0.949 . S
H1616 C1593 0.950 . S
H1617 C1595 0.950 . S
C1618 C1619 1.349 . S
C1618 C1620 1.327 . S
C1618 H1643 0.950 . S
C1619 C1618 1.349 . S
C1619 C1635 1.349 . S
C1620 C1618 1.327 . S
C1620 C1639 1.429 . S
C1620 H1644 0.950 . S
C1621 C1638 1.574 . S
C1621 C1640 1.368 . S
C1621 H1645 0.949 . S
H1622 C1626 0.949 . S
C1623 C1624 1.349 . S
C1623 C1625 1.327 . S
C1623 H1646 0.950 . S
C1624 C1623 1.349 . S
C1624 C1636 1.349 . S
C1625 C1623 1.327 . S
C1625 C1641 1.429 . S
C1625 H1647 0.950 . S
C1626 H1622 0.949 . S
C1626 C1634 1.574 . S
C1626 C1642 1.368 . S
H1627 C1635 0.950 . S
H1628 C1633 0.950 . S
H1629 C1634 0.949 . S
H1630 C1636 0.950 . S
H1631 C1637 0.950 . S
H1632 C1638 0.949 . S
C1633 H1628 0.950 . S
C1633 C1635 1.327 . S
C1633 C1639 1.429 . S
C1634 C1626 1.574 . S
C1634 H1629 0.949 . S
C1634 C1640 1.368 . S
C1635 C1619 1.349 . S
C1635 H1627 0.950 . S
C1635 C1633 1.327 . S
C1636 C1624 1.349 . S
C1636 H1630 0.950 . S
C1636 C1637 1.327 . S
C1637 H1631 0.950 . S
C1637 C1636 1.327 . S
C1637 C1641 1.429 . S
C1638 C1621 1.574 . S
C1638 H1632 0.949 . S
C1638 C1642 1.368 . S
C1639 C1620 1.429 . S
C1639 C1633 1.429 . S
C1639 C1640 1.523 . S
C1640 C1621 1.368 . S
C1640 C1634 1.368 . S
C1640 C1639 1.523 . S
C1641 C1625 1.429 . S
C1641 C1637 1.429 . S
C1641 C1642 1.523 . S
C1642 C1626 1.368 . S
C1642 C1638 1.368 . S
C1642 C1641 1.523 . S
H1643 C1618 0.950 . S
H1644 C1620 0.950 . S
H1645 C1621 0.949 . S
H1646 C1623 0.950 . S
H1647 C1625 0.950 . S
C1648 C1649 1.349 . S
C1648 C1650 1.327 . S
C1648 H1673 0.950 . S
C1649 C1648 1.349 . S
C1649 C1665 1.349 . S
C1650 C1648 1.327 . S
C1650 C1669 1.429 . S
C1650 H1674 0.950 . S
C1651 C1668 1.574 . S
C1651 C1670 1.368 . S
C1651 H1675 0.949 . S
H1652 C1656 0.949 . S
C1653 C1654 1.349 . S
C1653 C1655 1.327 . S
C1653 H1676 0.950 . S
C1654 C1653 1.349 . S
C1654 C1666 1.349 . S
C1655 C1653 1.327 . S
C1655 C1671 1.429 . S
C1655 H1677 0.950 . S
C1656 H1652 0.949 . S
C1656 C1664 1.574 . S
C1656 C1672 1.368 . S
H1657 C1665 0.950 . S
H1658 C1663 0.950 . S
H1659 C1664 0.949 . S
H1660 C1666 0.950 . S
H1661 C1667 0.950 . S
H1662 C1668 0.949 . S
C1663 H1658 0.950 . S
C1663 C1665 1.327 . S
C1663 C1669 1.429 . S
C1664 C1656 1.574 . S
C1664 H1659 0.949 . S
C1664 C1670 1.368 . S
C1665 C1649 1.349 . S
C1665 H1657 0.950 . S
C1665 C1663 1.327 . S
C1666 C1654 1.349 . S
C1666 H1660 0.950 . S
C1666 C1667 1.327 . S
C1667 H1661 0.950 . S
C1667 C1666 1.327 . S
C1667 C1671 1.429 . S
C1668 C1651 1.574 . S
C1668 H1662 0.949 . S
C1668 C1672 1.368 . S
C1669 C1650 1.429 . S
C1669 C1663 1.429 . S
C1669 C1670 1.523 . S
C1670 C1651 1.368 . S
C1670 C1664 1.368 . S
C1670 C1669 1.523 . S
C1671 C1655 1.429 . S
C1671 C1667 1.429 . S
C1671 C1672 1.523 . S
C1672 C1656 1.368 . S
C1672 C1668 1.368 . S
C1672 C1671 1.523 . S
H1673 C1648 0.950 . S
H1674 C1650 0.950 . S
H1675 C1651 0.949 . S
H1676 C1653 0.950 . S
H1677 C1655 0.950 . S
C1678 C1679 1.349 . S
C1678 C1680 1.327 . S
C1678 H1703 0.950 . S
C1679 C1678 1.349 . S
C1679 C1695 1.349 . S
C1680 C1678 1.327 . S
C1680 C1699 1.429 . S
C1680 H1704 0.950 . S
C1681 C1698 1.574 . S
C1681 C1700 1.368 . S
C1681 H1705 0.949 . S
H1682 C1686 0.949 . S
C1683 C1684 1.349 . S
C1683 C1685 1.327 . S
C1683 H1706 0.950 . S
C1684 C1683 1.349 . S
C1684 C1696 1.349 . S
C1685 C1683 1.327 . S
C1685 C1701 1.429 . S
C1685 H1707 0.950 . S
C1686 H1682 0.949 . S
C1686 C1694 1.574 . S
C1686 C1702 1.368 . S
H1687 C1695 0.950 . S
H1688 C1693 0.950 . S
H1689 C1694 0.949 . S
H1690 C1696 0.950 . S
H1691 C1697 0.950 . S
H1692 C1698 0.949 . S
C1693 H1688 0.950 . S
C1693 C1695 1.327 . S
C1693 C1699 1.429 . S
C1694 C1686 1.574 . S
C1694 H1689 0.949 . S
C1694 C1700 1.368 . S
C1695 C1679 1.349 . S
C1695 H1687 0.950 . S
C1695 C1693 1.327 . S
C1696 C1684 1.349 . S
C1696 H1690 0.950 . S
C1696 C1697 1.327 . S
C1697 H1691 0.950 . S
C1697 C1696 1.327 . S
C1697 C1701 1.429 . S
C1698 C1681 1.574 . S
C1698 H1692 0.949 . S
C1698 C1702 1.368 . S
C1699 C1680 1.429 . S
C1699 C1693 1.429 . S
C1699 C1700 1.523 . S
C1700 C1681 1.368 . S
C1700 C1694 1.368 . S
C1700 C1699 1.523 . S
C1701 C1685 1.429 . S
C1701 C1697 1.429 . S
C1701 C1702 1.523 . S
C1702 C1686 1.368 . S
C1702 C1698 1.368 . S
C1702 C1701 1.523 . S
H1703 C1678 0.950 . S
H1704 C1680 0.950 . S
H1705 C1681 0.949 . S
H1706 C1683 0.950 . S
H1707 C1685 0.950 . S
C1708 C1709 1.349 . S
C1708 C1710 1.327 . S
C1708 H1733 0.950 . S
C1709 C1708 1.349 . S
C1709 C1725 1.349 . S
C1710 C1708 1.327 . S
C1710 C1729 1.429 . S
C1710 H1734 0.950 . S
C1711 C1728 1.574 . S
C1711 C1730 1.368 . S
C1711 H1735 0.949 . S
H1712 C1716 0.949 . S
C1713 C1714 1.349 . S
C1713 C1715 1.327 . S
C1713 H1736 0.950 . S
C1714 C1713 1.349 . S
C1714 C1726 1.349 . S
C1715 C1713 1.327 . S
C1715 C1731 1.429 . S
C1715 H1737 0.950 . S
C1716 H1712 0.949 . S
C1716 C1724 1.574 . S
C1716 C1732 1.368 . S
H1717 C1725 0.950 . S
H1718 C1723 0.950 . S
H1719 C1724 0.949 . S
H1720 C1726 0.950 . S
H1721 C1727 0.950 . S
H1722 C1728 0.949 . S
C1723 H1718 0.950 . S
C1723 C1725 1.327 . S
C1723 C1729 1.429 . S
C1724 C1716 1.574 . S
C1724 H1719 0.949 . S
C1724 C1730 1.368 . S
C1725 C1709 1.349 . S
C1725 H1717 0.950 . S
C1725 C1723 1.327 . S
C1726 C1714 1.349 . S
C1726 H1720 0.950 . S
C1726 C1727 1.327 . S
C1727 H1721 0.950 . S
C1727 C1726 1.327 . S
C1727 C1731 1.429 . S
C1728 C1711 1.574 . S
C1728 H1722 0.949 . S
C1728 C1732 1.368 . S
C1729 C1710 1.429 . S
C1729 C1723 1.429 . S
C1729 C1730 1.523 . S
C1730 C1711 1.368 . S
C1730 C1724 1.368 . S
C1730 C1729 1.523 . S
C1731 C1715 1.429 . S
C1731 C1727 1.429 . S
C1731 C1732 1.523 . S
C1732 C1716 1.368 . S
C1732 C1728 1.368 . S
C1732 C1731 1.523 . S
H1733 C1708 0.950 . S
H1734 C1710 0.950 . S
H1735 C1711 0.949 . S
H1736 C1713 0.950 . S
H1737 C1715 0.950 . S
C1738 C1739 1.349 . S
C1738 C1740 1.327 . S
C1738 H1763 0.950 . S
C1739 C1738 1.349 . S
C1739 C1755 1.349 . S
C1740 C1738 1.327 . S
C1740 C1759 1.429 . S
C1740 H1764 0.950 . S
C1741 C1758 1.574 . S
C1741 C1760 1.368 . S
C1741 H1765 0.949 . S
H1742 C1746 0.949 . S
C1743 C1744 1.349 . S
C1743 C1745 1.327 . S
C1743 H1766 0.950 . S
C1744 C1743 1.349 . S
C1744 C1756 1.349 . S
C1745 C1743 1.327 . S
C1745 C1761 1.429 . S
C1745 H1767 0.950 . S
C1746 H1742 0.949 . S
C1746 C1754 1.574 . S
C1746 C1762 1.368 . S
H1747 C1755 0.950 . S
H1748 C1753 0.950 . S
H1749 C1754 0.949 . S
H1750 C1756 0.950 . S
H1751 C1757 0.950 . S
H1752 C1758 0.949 . S
C1753 H1748 0.950 . S
C1753 C1755 1.327 . S
C1753 C1759 1.429 . S
C1754 C1746 1.574 . S
C1754 H1749 0.949 . S
C1754 C1760 1.368 . S
C1755 C1739 1.349 . S
C1755 H1747 0.950 . S
C1755 C1753 1.327 . S
C1756 C1744 1.349 . S
C1756 H1750 0.950 . S
C1756 C1757 1.327 . S
C1757 H1751 0.950 . S
C1757 C1756 1.327 . S
C1757 C1761 1.429 . S
C1758 C1741 1.574 . S
C1758 H1752 0.949 . S
C1758 C1762 1.368 . S
C1759 C1740 1.429 . S
C1759 C1753 1.429 . S
C1759 C1760 1.523 . S
C1760 C1741 1.368 . S
C1760 C1754 1.368 . S
C1760 C1759 1.523 . S
C1761 C1745 1.429 . S
C1761 C1757 1.429 . S
C1761 C1762 1.523 . S
C1762 C1746 1.368 . S
C1762 C1758 1.368 . S
C1762 C1761 1.523 . S
H1763 C1738 0.950 . S
H1764 C1740 0.950 . S
H1765 C1741 0.949 . S
H1766 C1743 0.950 . S
H1767 C1745 0.950 . S
C1768 C1769 1.349 . S
C1768 C1770 1.327 . S
C1768 H1793 0.950 . S
C1769 C1768 1.349 . S
C1769 C1785 1.349 . S
C1770 C1768 1.327 . S
C1770 C1789 1.429 . S
C1770 H1794 0.950 . S
C1771 C1788 1.574 . S
C1771 C1790 1.368 . S
C1771 H1795 0.949 . S
H1772 C1776 0.949 . S
C1773 C1774 1.349 . S
C1773 C1775 1.327 . S
C1773 H1796 0.950 . S
C1774 C1773 1.349 . S
C1774 C1786 1.349 . S
C1775 C1773 1.327 . S
C1775 C1791 1.429 . S
C1775 H1797 0.950 . S
C1776 H1772 0.949 . S
C1776 C1784 1.574 . S
C1776 C1792 1.368 . S
H1777 C1785 0.950 . S
H1778 C1783 0.950 . S
H1779 C1784 0.949 . S
H1780 C1786 0.950 . S
H1781 C1787 0.950 . S
H1782 C1788 0.949 . S
C1783 H1778 0.950 . S
C1783 C1785 1.327 . S
C1783 C1789 1.429 . S
C1784 C1776 1.574 . S
C1784 H1779 0.949 . S
C1784 C1790 1.368 . S
C1785 C1769 1.349 . S
C1785 H1777 0.950 . S
C1785 C1783 1.327 . S
C1786 C1774 1.349 . S
C1786 H1780 0.950 . S
C1786 C1787 1.327 . S
C1787 H1781 0.950 . S
C1787 C1786 1.327 . S
C1787 C1791 1.429 . S
C1788 C1771 1.574 . S
C1788 H1782 0.949 . S
C1788 C1792 1.368 . S
C1789 C1770 1.429 . S
C1789 C1783 1.429 . S
C1789 C1790 1.523 . S
C1790 C1771 1.368 . S
C1790 C1784 1.368 . S
C1790 C1789 1.523 . S
C1791 C1775 1.429 . S
C1791 C1787 1.429 . S
C1791 C1792 1.523 . S
C1792 C1776 1.368 . S
C1792 C1788 1.368 . S
C1792 C1791 1.523 . S
H1793 C1768 0.950 . S
H1794 C1770 0.950 . S
H1795 C1771 0.949 . S
H1796 C1773 0.950 . S
H1797 C1775 0.950 . S
C1798 C1799 1.349 . S
C1798 C1800 1.327 . S
C1798 H1823 0.950 . S
C1799 C1798 1.349 . S
C1799 C1815 1.349 . S
C1800 C1798 1.327 . S
C1800 C1819 1.429 . S
C1800 H1824 0.950 . S
C1801 C1818 1.574 . S
C1801 C1820 1.368 . S
C1801 H1825 0.949 . S
H1802 C1806 0.949 . S
C1803 C1804 1.349 . S
C1803 C1805 1.327 . S
C1803 H1826 0.950 . S
C1804 C1803 1.349 . S
C1804 C1816 1.349 . S
C1805 C1803 1.327 . S
C1805 C1821 1.429 . S
C1805 H1827 0.950 . S
C1806 H1802 0.949 . S
C1806 C1814 1.574 . S
C1806 C1822 1.368 . S
H1807 C1815 0.950 . S
H1808 C1813 0.950 . S
H1809 C1814 0.949 . S
H1810 C1816 0.950 . S
H1811 C1817 0.950 . S
H1812 C1818 0.949 . S
C1813 H1808 0.950 . S
C1813 C1815 1.327 . S
C1813 C1819 1.429 . S
C1814 C1806 1.574 . S
C1814 H1809 0.949 . S
C1814 C1820 1.368 . S
C1815 C1799 1.349 . S
C1815 H1807 0.950 . S
C1815 C1813 1.327 . S
C1816 C1804 1.349 . S
C1816 H1810 0.950 . S
C1816 C1817 1.327 . S
C1817 H1811 0.950 . S
C1817 C1816 1.327 . S
C1817 C1821 1.429 . S
C1818 C1801 1.574 . S
C1818 H1812 0.949 . S
C1818 C1822 1.368 . S
C1819 C1800 1.429 . S
C1819 C1813 1.429 . S
C1819 C1820 1.523 . S
C1820 C1801 1.368 . S
C1820 C1814 1.368 . S
C1820 C1819 1.523 . S
C1821 C1805 1.429 . S
C1821 C1817 1.429 . S
C1821 C1822 1.523 . S
C1822 C1806 1.368 . S
C1822 C1818 1.368 . S
C1822 C1821 1.523 . S
H1823 C1798 0.950 . S
H1824 C1800 0.950 . S
H1825 C1801 0.949 . S
H1826 C1803 0.950 . S
H1827 C1805 0.950 . S
C1828 C1829 1.349 . S
C1828 C1830 1.327 . S
C1828 H1853 0.950 . S
C1829 C1828 1.349 . S
C1829 C1845 1.349 . S
C1830 C1828 1.327 . S
C1830 C1849 1.429 . S
C1830 H1854 0.950 . S
C1831 C1848 1.574 . S
C1831 C1850 1.368 . S
C1831 H1855 0.949 . S
H1832 C1836 0.949 . S
C1833 C1834 1.349 . S
C1833 C1835 1.327 . S
C1833 H1856 0.950 . S
C1834 C1833 1.349 . S
C1834 C1846 1.349 . S
C1835 C1833 1.327 . S
C1835 C1851 1.429 . S
C1835 H1857 0.950 . S
C1836 H1832 0.949 . S
C1836 C1844 1.574 . S
C1836 C1852 1.368 . S
H1837 C1845 0.950 . S
H1838 C1843 0.950 . S
H1839 C1844 0.949 . S
H1840 C1846 0.950 . S
H1841 C1847 0.950 . S
H1842 C1848 0.949 . S
C1843 H1838 0.950 . S
C1843 C1845 1.327 . S
C1843 C1849 1.429 . S
C1844 C1836 1.574 . S
C1844 H1839 0.949 . S
C1844 C1850 1.368 . S
C1845 C1829 1.349 . S
C1845 H1837 0.950 . S
C1845 C1843 1.327 . S
C1846 C1834 1.349 . S
C1846 H1840 0.950 . S
C1846 C1847 1.327 . S
C1847 H1841 0.950 . S
C1847 C1846 1.327 . S
C1847 C1851 1.429 . S
C1848 C1831 1.574 . S
C1848 H1842 0.949 . S
C1848 C1852 1.368 . S
C1849 C1830 1.429 . S
C1849 C1843 1.429 . S
C1849 C1850 1.523 . S
C1850 C1831 1.368 . S
C1850 C1844 1.368 . S
C1850 C1849 1.523 . S
C1851 C1835 1.429 . S
C1851 C1847 1.429 . S
C1851 C1852 1.523 . S
C1852 C1836 1.368 . S
C1852 C1848 1.368 . S
C1852 C1851 1.523 . S
H1853 C1828 0.950 . S
H1854 C1830 0.950 . S
H1855 C1831 0.949 . S
H1856 C1833 0.950 . S
H1857 C1835 0.950 . S
C1858 C1859 1.349 . S
C1858 C1860 1.327 . S
C1858 H1883 0.950 . S
C1859 C1858 1.349 . S
C1859 C1875 1.349 . S
C1860 C1858 1.327 . S
C1860 C1879 1.429 . S
C1860 H1884 0.950 . S
C1861 C1878 1.574 . S
C1861 C1880 1.368 . S
C1861 H1885 0.949 . S
H1862 C1866 0.949 . S
C1863 C1864 1.349 . S
C1863 C1865 1.327 . S
C1863 H1886 0.950 . S
C1864 C1863 1.349 . S
C1864 C1876 1.349 . S
C1865 C1863 1.327 . S
C1865 C1881 1.429 . S
C1865 H1887 0.950 . S
C1866 H1862 0.949 . S
C1866 C1874 1.574 . S
C1866 C1882 1.368 . S
H1867 C1875 0.950 . S
H1868 C1873 0.950 . S
H1869 C1874 0.949 . S
H1870 C1876 0.950 . S
H1871 C1877 0.950 . S
H1872 C1878 0.949 . S
C1873 H1868 0.950 . S
C1873 C1875 1.327 . S
C1873 C1879 1.429 . S
C1874 C1866 1.574 . S
C1874 H1869 0.949 . S
C1874 C1880 1.368 . S
C1875 C1859 1.349 . S
C1875 H1867 0.950 . S
C1875 C1873 1.327 . S
C1876 C1864 1.349 . S
C1876 H1870 0.950 . S
C1876 C1877 1.327 . S
C1877 H1871 0.950 . S
C1877 C1876 1.327 . S
C1877 C1881 1.429 . S
C1878 C1861 1.574 . S
C1878 H1872 0.949 . S
C1878 C1882 1.368 . S
C1879 C1860 1.429 . S
C1879 C1873 1.429 . S
C1879 C1880 1.523 . S
C1880 C1861 1.368 . S
C1880 C1874 1.368 . S
C1880 C1879 1.523 . S
C1881 C1865 1.429 . S
C1881 C1877 1.429 . S
C1881 C1882 1.523 . S
C1882 C1866 1.368 . S
C1882 C1878 1.368 . S
C1882 C1881 1.523 . S
H1883 C1858 0.950 . S
H1884 C1860 0.950 . S
H1885 C1861 0.949 . S
H1886 C1863 0.950 . S
H1887 C1865 0.950 . S
C1888 C1889 1.349 . S
C1888 C1890 1.327 . S
C1888 H1913 0.950 . S
C1889 C1888 1.349 . S
C1889 C1905 1.349 . S
C1890 C1888 1.327 . S
C1890 C1909 1.429 . S
C1890 H1914 0.950 . S
C1891 C1908 1.574 . S
C1891 C1910 1.368 . S
C1891 H1915 0.949 . S
H1892 C1896 0.949 . S
C1893 C1894 1.349 . S
C1893 C1895 1.327 . S
C1893 H1916 0.950 . S
C1894 C1893 1.349 . S
C1894 C1906 1.349 . S
C1895 C1893 1.327 . S
C1895 C1911 1.429 . S
C1895 H1917 0.950 . S
C1896 H1892 0.949 . S
C1896 C1904 1.574 . S
C1896 C1912 1.368 . S
H1897 C1905 0.950 . S
H1898 C1903 0.950 . S
H1899 C1904 0.949 . S
H1900 C1906 0.950 . S
H1901 C1907 0.950 . S
H1902 C1908 0.949 . S
C1903 H1898 0.950 . S
C1903 C1905 1.327 . S
C1903 C1909 1.429 . S
C1904 C1896 1.574 . S
C1904 H1899 0.949 . S
C1904 C1910 1.368 . S
C1905 C1889 1.349 . S
C1905 H1897 0.950 . S
C1905 C1903 1.327 . S
C1906 C1894 1.349 . S
C1906 H1900 0.950 . S
C1906 C1907 1.327 . S
C1907 H1901 0.950 . S
C1907 C1906 1.327 . S
C1907 C1911 1.429 . S
C1908 C1891 1.574 . S
C1908 H1902 0.949 . S
C1908 C1912 1.368 . S
C1909 C1890 1.429 . S
C1909 C1903 1.429 . S
C1909 C1910 1.523 . S
C1910 C1891 1.368 . S
C1910 C1904 1.368 . S
C1910 C1909 1.523 . S
C1911 C1895 1.429 . S
C1911 C1907 1.429 . S
C1911 C1912 1.523 . S
C1912 C1896 1.368 . S
C1912 C1908 1.368 . S
C1912 C1911 1.523 . S
H1913 C1888 0.950 . S
H1914 C1890 0.950 . S
H1915 C1891 0.949 . S
H1916 C1893 0.950 . S
H1917 C1895 0.950 . S
C1918 C1919 1.349 . S
C1918 C1920 1.327 . S
C1918 H1943 0.950 . S
C1919 C1918 1.349 . S
C1919 C1935 1.349 . S
C1920 C1918 1.327 . S
C1920 C1939 1.429 . S
C1920 H1944 0.950 . S
C1921 C1938 1.574 . S
C1921 C1940 1.368 . S
C1921 H1945 0.949 . S
H1922 C1926 0.949 . S
C1923 C1924 1.349 . S
C1923 C1925 1.327 . S
C1923 H1946 0.950 . S
C1924 C1923 1.349 . S
C1924 C1936 1.349 . S
C1925 C1923 1.327 . S
C1925 C1941 1.429 . S
C1925 H1947 0.950 . S
C1926 H1922 0.949 . S
C1926 C1934 1.574 . S
C1926 C1942 1.368 . S
H1927 C1935 0.950 . S
H1928 C1933 0.950 . S
H1929 C1934 0.949 . S
H1930 C1936 0.950 . S
H1931 C1937 0.950 . S
H1932 C1938 0.949 . S
C1933 H1928 0.950 . S
C1933 C1935 1.327 . S
C1933 C1939 1.429 . S
C1934 C1926 1.574 . S
C1934 H1929 0.949 . S
C1934 C1940 1.368 . S
C1935 C1919 1.349 . S
C1935 H1927 0.950 . S
C1935 C1933 1.327 . S
C1936 C1924 1.349 . S
C1936 H1930 0.950 . S
C1936 C1937 1.327 . S
C1937 H1931 0.950 . S
C1937 C1936 1.327 . S
C1937 C1941 1.429 . S
C1938 C1921 1.574 . S
C1938 H1932 0.949 . S
C1938 C1942 1.368 . S
C1939 C1920 1.429 . S
C1939 C1933 1.429 . S
C1939 C1940 1.523 . S
C1940 C1921 1.368 . S
C1940 C1934 1.368 . S
C1940 C1939 1.523 . S
C1941 C1925 1.429 . S
C1941 C1937 1.429 . S
C1941 C1942 1.523 . S
C1942 C1926 1.368 . S
C1942 C1938 1.368 . S
C1942 C1941 1.523 . S
H1943 C1918 0.950 . S
H1944 C1920 0.950 . S
H1945 C1921 0.949 . S
H1946 C1923 0.950 . S
H1947 C1925 0.950 . S
C514 C219 0.926 . S
C509 C17 0.925 . S
C544 C197 1.706 . S
C539 C44 1.686 . S
C574 C194 0.465 . S
C569 C63 0.455 . S
C599 C87 1.593 . S
C604 C206 1.515 . S
C629 C110 1.561 . S
C634 C189 1.486 . S
C664 C211 0.476 . S
C659 C131 0.469 . S
C689 C159 1.653 . S
C694 C216 1.674 . S
C719 C177 0.944 . S
C724 C212 0.945 . S
C754 C270 1.615 . S
C749 C20 1.545 . S
C779 C42 1.117 . S
C784 C320 1.124 . S
C814 C243 1.669 . S
C809 C66 1.579 . S
C844 C319 0.426 . S
C839 C86 0.438 . S
C869 C109 0.422 . S
C874 C248 0.408 . S
C904 C314 1.673 . S
C899 C136 1.614 . S
C929 C157 1.104 . S
C934 C273 1.110 . S
C959 C182 1.582 . S
C964 C305 1.624 . S
C989 C18 1.651 . S
C994 C297 1.596 . S
C1019 C112 1.005 . S
C1024 C327 1.082 . S
C1054 C251 1.580 . S
C1049 C134 1.592 . S
C1084 C302 0.621 . S
C1079 C154 0.630 . S
C1109 C180 1.598 . S
C1114 C260 1.582 . S
C1139 C64 1.648 . S
C1144 C324 1.596 . S
C1174 C266 1.091 . S
C1169 C89 1.013 . S
C1199 C39 0.642 . S
C1204 C265 0.635 . S
C1229 C178 0.925 . S
C1234 C381 0.925 . S
C1259 C113 1.686 . S
C1264 C359 1.706 . S
C1294 C356 0.465 . S
C1289 C132 0.455 . S
C1324 C368 1.515 . S
C1319 C156 1.594 . S
C1349 C41 1.561 . S
C1354 C351 1.487 . S
C1384 C373 0.476 . S
C1379 C62 0.469 . S
C1409 C90 1.653 . S
C1414 C378 1.674 . S
C1439 C16 0.944 . S
C1444 C374 0.945 . S
C1469 C181 1.545 . S
C1474 C432 1.615 . S
C1504 C482 1.124 . S
C1499 C111 1.117 . S
C1529 C135 1.579 . S
C1534 C405 1.669 . S
C1559 C155 0.438 . S
C1564 C481 0.426 . S
C1594 C410 0.408 . S
C1589 C40 0.423 . S
C1619 C67 1.614 . S
C1624 C476 1.673 . S
C1654 C435 1.110 . S
C1649 C88 1.104 . S
C1684 C467 1.623 . S
C1679 C21 1.582 . S
C1714 C459 1.595 . S
C1709 C179 1.651 . S
C1739 C43 1.005 . S
C1744 C489 1.082 . S
C1769 C65 1.592 . S
C1774 C413 1.580 . S
C1804 C464 0.621 . S
C1799 C85 0.630 . S
C1829 C19 1.597 . S
C1834 C422 1.582 . S
C1859 C133 1.648 . S
C1864 C486 1.596 . S
C1894 C428 1.091 . S
C1889 C158 1.013 . S
C1924 C427 0.635 . S
C1919 C108 0.642 . S
