# Generated by pormake.
# Topology scu, (8,4)-cn, num edge types: 1
# Building blocks:
#     Node 0, Type 0, BuildingBlock: GIZVER_clean_sbu_0, # of connection points: 8
#     Node 1, Type 1, BuildingBlock: KOZSID_clean_sbu_0, # of connection points: 4
#     Node 2, Type 1, BuildingBlock: KOZSID_clean_sbu_0, # of connection points: 4
#     Edge 3, Type (0, 1), BuildingBlock: ZUJKAS_clean_linker_0, # of connection points: 2
#     Edge 4, Type (0, 1), BuildingBlock: ZUJKAS_clean_linker_0, # of connection points: 2
#     Edge 5, Type (0, 1), BuildingBlock: ZUJKAS_clean_linker_0, # of connection points: 2
#     Edge 6, Type (0, 1), BuildingBlock: ZUJKAS_clean_linker_0, # of connection points: 2
#     Edge 7, Type (0, 1), BuildingBlock: ZUJKAS_clean_linker_0, # of connection points: 2
#     Edge 8, Type (0, 1), BuildingBlock: ZUJKAS_clean_linker_0, # of connection points: 2
#     Edge 9, Type (0, 1), BuildingBlock: ZUJKAS_clean_linker_0, # of connection points: 2
#     Edge 10, Type (0, 1), BuildingBlock: ZUJKAS_clean_linker_0, # of connection points: 2
# Relax obj value: 0.045
# Max RMSD: 0.114
# Mean RMSD: 0.104
data_MOF--net-scu--node1-GIZVER_clean_sbu_0--node2-KOZSID_clean_sbu_0--edge1-ZUJKAS_clean_linker_0
_symmetry_space_group_name_H-M    P1
_symmetry_Int_Tables_number       1
_symmetry_cell_setting            triclinic
loop_
_symmetry_equiv_pos_as_xyz
'x, y, z'
_cell_length_a     33.279623
_cell_length_b     34.048904
_cell_length_c     30.033373
_cell_angle_alpha  94.682509
_cell_angle_beta   80.963987
_cell_angle_gamma 111.80224
loop_
_atom_site_label
_atom_site_type_symbol
_atom_site_fract_x
_atom_site_fract_y
_atom_site_fract_z
_atom_type_partial_charge
Co0 Co 0.01315 0.95594 0.10309 0.0
Co1 Co 0.08276 0.01581 0.06716 0.0
Co2 Co 0.00636 0.01127 0.0131 0.0
O3 O 0.03421 0.97898 0.04307 0.0
H4 H 0.04273 0.95937 0.02224 0.0
O5 O 0.9785 0.04355 0.98316 0.0
Co6 Co 0.99988 0.06712 0.92349 0.0
Co7 Co 0.93063 1.00713 0.95814 0.0
H8 H 0.96967 0.06289 1.00411 0.0
O9 O 0.1273 0.99871 0.07445 0.0
O10 O 0.06808 0.99507 0.12489 0.0
O11 O 0.09108 0.0748 0.07281 0.0
O12 O 0.0266 0.06458 0.05221 0.0
O13 O 0.0606 0.03184 0.96791 0.0
O14 O 0.0181 0.09261 0.87019 0.0
O15 O 0.97855 0.11037 0.93045 0.0
O16 O 0.02719 0.02657 0.90785 0.0
O17 O 0.98617 0.9579 0.97408 0.0
O18 O 0.92271 0.94835 0.9514 0.0
O19 O 0.94486 0.02869 0.90084 0.0
O20 O 0.88576 0.0239 0.95217 0.0
C21 C 0.0158 0.90652 0.13848 0.0
C22 C 0.95218 0.99451 0.10092 0.0
C23 C 0.06026 0.08754 0.07038 0.0
C24 C 0.1062 0.99136 0.11499 0.0
C25 C 0.99827 0.11752 0.88894 0.0
C26 C 0.06012 0.0273 0.92521 0.0
C27 C 0.95311 0.93532 0.95482 0.0
C28 C 0.90626 0.03133 0.91138 0.0
O29 O 0.9956 0.93126 0.15679 0.0
O30 O 0.03496 0.913 0.09671 0.0
O31 O 0.95207 0.99066 0.05816 0.0
O32 O 0.98544 0.99614 0.11826 0.0
C33 C 0.05373 0.58737 0.44896 0.0
C34 C 0.09471 0.61675 0.43407 0.0
C35 C 0.1241 0.60776 0.4543 0.0
C36 C 0.09963 0.57372 0.48059 0.0
N37 N 0.05626 0.56027 0.47848 0.0
Co38 Co 0.00925 0.51229 0.51293 0.0
N39 N 0.05271 0.49962 0.54334 0.0
C40 C 0.09656 0.52008 0.53716 0.0
C41 C 0.11838 0.50411 0.56138 0.0
C42 C 0.08665 0.47147 0.5846 0.0
C43 C 0.04698 0.46951 0.57348 0.0
N44 N 0.96224 0.46428 0.54735 0.0
C45 C 0.96471 0.4377 0.57752 0.0
C46 C 0.92354 0.40962 0.59406 0.0
C47 C 0.8942 0.41819 0.57329 0.0
C48 C 0.91882 0.45109 0.54557 0.0
N49 N 0.96579 0.52501 0.48257 0.0
C50 C 0.92201 0.50407 0.4881 0.0
C51 C 0.90036 0.51918 0.46272 0.0
C52 C 0.93211 0.55188 0.4396 0.0
C53 C 0.97155 0.55513 0.45244 0.0
N54 N 0.01526 0.47206 0.46257 0.0
C55 C 0.02353 0.41376 0.39228 0.0
C56 C 0.98252 0.41349 0.41212 0.0
C57 C 0.97918 0.44259 0.4468 0.0
C58 C 0.06036 0.4441 0.40804 0.0
C59 C 0.05553 0.47266 0.44281 0.0
N60 N 1.0032 0.55247 0.56326 0.0
C61 C 0.95774 0.58017 0.6175 0.0
C62 C 0.99436 0.61049 0.63362 0.0
C63 C 0.03553 0.61085 0.61411 0.0
C64 C 0.03915 0.58181 0.5794 0.0
C65 C 0.96285 0.55185 0.58267 0.0
H66 H 0.07143 0.58393 0.56599 0.0
H67 H 0.93358 0.52979 0.57202 0.0
H68 H 0.94697 0.4405 0.4603 0.0
H69 H 0.0849 0.49474 0.45328 0.0
C70 C 0.11634 0.554 0.50804 0.0
C71 C 0.01349 0.58716 0.43461 0.0
C72 C 0.00495 0.43801 0.59202 0.0
C73 C 0.90214 0.47043 0.51762 0.0
H74 H 0.10262 0.64234 0.41121 0.0
H75 H 0.15915 0.62431 0.45059 0.0
H76 H 0.15327 0.51476 0.56186 0.0
H77 H 0.09226 0.45124 0.60694 0.0
H78 H 0.91542 0.38551 0.61878 0.0
H79 H 0.85903 0.40242 0.57802 0.0
H80 H 0.86559 0.50773 0.46117 0.0
H81 H 0.92676 0.57108 0.41584 0.0
H82 H 0.95291 0.39114 0.40074 0.0
H83 H 0.09291 0.44544 0.39424 0.0
H84 H 0.92504 0.57793 0.63188 0.0
H85 H 0.06504 0.63394 0.62491 0.0
C86 C 0.42942 0.96789 0.5894 0.0
C87 C 0.40306 0.92957 0.60884 0.0
C88 C 0.41536 0.89913 0.58487 0.0
C89 C 0.44845 0.92047 0.55236 0.0
N90 N 0.45842 0.96285 0.55433 0.0
Co91 Co 0.50356 1.00565 0.51246 0.0
N92 N 0.52005 0.96053 0.47569 0.0
C93 C 0.50234 0.91835 0.48242 0.0
C94 C 0.52095 0.89534 0.45245 0.0
C95 C 0.55281 0.92453 0.42516 0.0
C96 C 0.55187 0.96386 0.44022 0.0
N97 N 0.54858 0.04844 0.47048 0.0
C98 C 0.57749 0.04342 0.43529 0.0
C99 C 0.60393 0.08182 0.41602 0.0
C100 C 0.59151 0.1122 0.43994 0.0
C101 C 0.55841 0.09079 0.47238 0.0
N102 N 0.48722 0.0508 0.54938 0.0
C103 C 0.50493 0.09297 0.54262 0.0
C104 C 0.48647 0.11604 0.57266 0.0
C105 C 0.45476 0.08691 0.6001 0.0
C106 C 0.45577 0.04755 0.5852 0.0
N107 N 0.54869 0.01187 0.55141 0.0
C108 C 0.61516 0.02029 0.60336 0.0
C109 C 0.61052 0.05589 0.58821 0.0
C110 C 0.57735 0.05099 0.56252 0.0
C111 C 0.58554 0.98047 0.59263 0.0
C112 C 0.55283 0.97703 0.56698 0.0
N113 N 0.45837 0.99936 0.47354 0.0
C114 C 0.42042 0.03043 0.43337 0.0
C115 C 0.391 0.99047 0.42264 0.0
C116 C 0.39644 0.95503 0.43706 0.0
C117 C 0.43006 0.96016 0.46217 0.0
C118 C 0.45361 0.03411 0.45851 0.0
H119 H 0.4321 0.93188 0.47238 0.0
H120 H 0.47482 0.06542 0.46557 0.0
H121 H 0.57583 0.07933 0.55173 0.0
H122 H 0.53141 0.9458 0.56007 0.0
C123 C 0.46954 0.9015 0.5184 0.0
C124 C 0.425 1.00801 0.60505 0.0
C125 C 0.58243 1.00339 0.42014 0.0
C126 C 0.53749 0.10975 0.50647 0.0
H127 H 0.37723 0.92417 0.63709 0.0
H128 H 0.40131 0.86535 0.59002 0.0
H129 H 0.51284 0.86143 0.45111 0.0
H130 H 0.57467 0.91773 0.39763 0.0
H131 H 0.63012 0.08744 0.38812 0.0
H132 H 0.60564 0.14599 0.43495 0.0
H133 H 0.49448 0.14993 0.57384 0.0
H134 H 0.43283 0.0938 0.62749 0.0
H135 H 0.63283 0.08745 0.59544 0.0
H136 H 0.58724 0.95194 0.60435 0.0
H137 H 0.41813 0.05888 0.42216 0.0
H138 H 0.37435 0.92337 0.42981 0.0
H139 H 0.12512 0.14456 0.11429 0.0
H140 H 0.12057 0.20342 0.16447 0.0
H141 H 0.99073 0.17873 0.13461 0.0
H142 H 0.99501 0.12001 0.08391 0.0
H143 H 0.04265 0.26598 0.13953 0.0
H144 H 0.04468 0.1808 0.28863 0.0
H145 H 0.09017 0.18741 0.24507 0.0
H146 H 0.03591 0.15509 0.23413 0.0
C147 C 0.09578 0.15193 0.1178 0.0
C148 C 0.06028 0.12717 0.09524 0.0
C149 C 0.09316 0.18548 0.14677 0.0
C150 C 0.05496 0.19489 0.15403 0.0
C151 C 0.02041 0.17183 0.12974 0.0
H152 H 0.9724 0.32966 0.38598 0.0
H153 H 0.97931 0.27813 0.32663 0.0
C154 C 0.02299 0.13828 0.10067 0.0
C155 C 0.05026 0.22739 0.18846 0.0
H156 H 0.04767 0.25128 0.30136 0.0
C157 C 0.04376 0.26284 0.17491 0.0
C158 C 0.05095 0.22285 0.23475 0.0
C159 C 0.05539 0.18433 0.25174 0.0
C160 C 0.03862 0.29421 0.20633 0.0
C161 C 0.04064 0.29026 0.25244 0.0
C162 C 0.04654 0.2545 0.26599 0.0
C163 C 0.03584 0.32235 0.28745 0.0
C164 C 0.03015 0.3308 0.19002 0.0
C165 C 0.06548 0.36439 0.28541 0.0
C166 C 0.06141 0.3941 0.31919 0.0
C167 C 0.02774 0.38234 0.35592 0.0
C168 C 0.99826 0.34009 0.35789 0.0
C169 C 1.00235 0.31046 0.32411 0.0
H170 H 0.01817 0.32353 0.15667 0.0
H171 H 0.0058 0.3393 0.21448 0.0
H172 H 0.06105 0.35878 0.18636 0.0
H173 H 0.0921 0.37415 0.25794 0.0
H174 H 0.0845 0.42636 0.31633 0.0
H175 H 0.93847 0.99471 0.19311 0.0
H176 H 0.87441 0.99727 0.24347 0.0
H177 H 0.81389 1.00412 0.12897 0.0
H178 H 0.87776 1.00064 0.07799 0.0
H179 H 0.83838 0.05737 0.25656 0.0
H180 H 0.71802 0.90775 0.19678 0.0
H181 H 0.77617 0.92192 0.18121 0.0
H182 H 0.74677 0.9453 0.15336 0.0
C183 C 0.91158 0.99669 0.17843 0.0
C184 C 0.9133 0.9972 0.13132 0.0
C185 C 0.87488 0.99817 0.20741 0.0
C186 C 0.83888 1.00018 0.19015 0.0
C187 C 0.84073 1.00152 0.14316 0.0
H188 H 0.59099 0.01219 0.32919 0.0
H189 H 0.65312 0.0127 0.27228 0.0
C190 C 0.87745 0.9998 0.11402 0.0
C191 C 0.79997 1.0015 0.2217 0.0
H192 H 0.69019 0.949 0.25103 0.0
C193 C 0.806 0.03364 0.2553 0.0
C194 C 0.75759 0.97059 0.22014 0.0
C195 C 0.74914 0.9342 0.18623 0.0
C196 C 0.77103 0.03574 0.28721 0.0
C197 C 0.72884 1.00457 0.28597 0.0
C198 C 0.72255 0.97286 0.25196 0.0
C199 C 0.69105 1.00389 0.32028 0.0
C200 C 0.77947 0.0716 0.32176 0.0
C201 C 0.69141 0.99812 0.36601 0.0
C202 C 0.65602 0.99774 0.39833 0.0
C203 C 0.61964 1.00306 0.38547 0.0
C204 C 0.61888 1.00822 0.33974 0.0
C205 C 0.65425 1.00846 0.30736 0.0
H206 H 0.81026 0.09842 0.31121 0.0
H207 H 0.75208 0.0834 0.32776 0.0
H208 H 0.78244 0.06008 0.35416 0.0
H209 H 0.71904 0.99373 0.37669 0.0
H210 H 0.65706 0.99346 0.43343 0.0
H211 H 0.05496 0.84725 0.11428 0.0
H212 H 0.05591 0.79169 0.16131 0.0
H213 H 0.98299 0.83465 0.27302 0.0
H214 H 0.98136 0.88927 0.22661 0.0
H215 H 0.08834 0.79543 0.24269 0.0
H216 H 0.90928 0.70972 0.26738 0.0
H217 H 0.93611 0.74951 0.22531 0.0
H218 H 0.92455 0.76471 0.28331 0.0
C219 C 0.03893 0.8447 0.14878 0.0
C220 C 0.01757 0.87261 0.16622 0.0
C221 C 0.03958 0.81292 0.17575 0.0
C222 C 0.01867 0.80811 0.22067 0.0
C223 C 0.99835 0.83665 0.23828 0.0
H224 H 0.98055 0.65062 0.45039 0.0
H225 H 0.98315 0.70338 0.39766 0.0
C226 C 0.99766 0.86821 0.21153 0.0
C227 C 0.01821 0.77384 0.2496 0.0
H228 H 0.94964 0.69147 0.31581 0.0
C229 C 0.05799 0.77243 0.25825 0.0
C230 C 0.9787 0.74364 0.27026 0.0
C231 C 0.93474 0.7416 0.2608 0.0
C232 C 0.05929 0.7428 0.28785 0.0
C233 C 0.01974 0.7131 0.30907 0.0
C234 C 0.98002 0.71419 0.29993 0.0
C235 C 0.01872 0.68099 0.34122 0.0
C236 C 0.1031 0.7445 0.29732 0.0
C237 C 0.03727 0.65021 0.32728 0.0
C238 C 0.03552 0.61987 0.3574 0.0
C239 C 0.0152 0.61952 0.40223 0.0
C240 C 0.99642 0.6501 0.4161 0.0
C241 C 0.99795 0.68028 0.38593 0.0
H242 H 0.12946 0.77523 0.28777 0.0
H243 H 0.10224 0.73945 0.33358 0.0
H244 H 0.1115 0.71902 0.2774 0.0
H245 H 0.05267 0.64928 0.29287 0.0
H246 H 0.04994 0.59649 0.34565 0.0
H247 H 0.07653 0.98136 0.20566 0.0
H248 H 0.11715 0.97536 0.2647 0.0
H249 H 0.22425 0.97477 0.16353 0.0
H250 H 0.18437 0.98079 0.10458 0.0
H251 H 0.16276 0.91379 0.2746 0.0
H252 H 0.27164 0.08199 0.25024 0.0
H253 H 0.21846 0.06004 0.23165 0.0
H254 H 0.26392 0.04969 0.19955 0.0
C255 C 0.10851 0.97944 0.19596 0.0
C256 C 0.12756 0.98235 0.15048 0.0
C257 C 0.13155 0.9759 0.2297 0.0
C258 C 0.17385 0.9753 0.21832 0.0
C259 C 0.19182 0.97573 0.17288 0.0
H260 H 0.36173 0.93309 0.35458 0.0
H261 H 0.30426 0.92736 0.30997 0.0
C262 C 0.16893 0.97921 0.13927 0.0
C263 C 0.20093 0.97742 0.25362 0.0
H264 H 0.29382 0.04158 0.29507 0.0
C265 C 0.19119 0.94178 0.27953 0.0
C266 C 0.23761 0.01421 0.26016 0.0
C267 C 0.2485 0.05386 0.23425 0.0
C268 C 0.21834 0.94153 0.31087 0.0
C269 C 0.25622 0.97771 0.31585 0.0
C270 C 0.26491 0.0138 0.29102 0.0
C271 C 0.28826 0.97871 0.34544 0.0
C272 C 0.20631 0.90262 0.3383 0.0
C273 C 0.29878 0.00987 0.37974 0.0
C274 C 0.33173 0.01335 0.40516 0.0
C275 C 0.355 0.98585 0.39658 0.0
C276 C 0.34401 0.95434 0.3625 0.0
C277 C 0.31105 0.95092 0.33707 0.0
H278 H 0.17098 0.88298 0.34 0.0
H279 H 0.22509 0.88302 0.32226 0.0
H280 H 0.21436 0.91129 0.37315 0.0
H281 H 0.28174 0.0318 0.38654 0.0
H282 H 0.33898 0.03759 0.43155 0.0
H283 H 0.01496 0.89891 0.94894 0.0
H284 H 0.02089 0.84041 0.89859 0.0
H285 H 0.89915 0.82439 0.85302 0.0
H286 H 0.89269 0.88261 0.90312 0.0
H287 H 0.95731 0.75098 0.88761 0.0
H288 H 0.99549 0.85119 0.73803 0.0
H289 H 1.00086 0.87322 0.79454 0.0
H290 H 0.94781 0.84949 0.77673 0.0
C291 C 0.989 0.88252 0.92883 0.0
C292 C 0.95347 0.8958 0.92996 0.0
C293 C 0.99253 0.84911 0.90003 0.0
C294 C 0.96078 0.82855 0.87167 0.0
C295 C 0.92425 0.84023 0.8743 0.0
H296 H 0.93557 0.65074 0.64573 0.0
H297 H 0.9274 0.70155 0.7053 0.0
C298 C 0.92056 0.87345 0.90316 0.0
C299 C 0.96687 0.79647 0.83754 0.0
H300 H 0.98592 0.77926 0.72392 0.0
C301 C 0.96374 0.75709 0.85181 0.0
C302 C 0.97531 0.80468 0.79092 0.0
C303 C 0.98045 0.84701 0.7739 0.0
C304 C 0.96767 0.72519 0.8205 0.0
C305 C 0.97592 0.73333 0.77376 0.0
C306 C 0.97949 0.77296 0.75967 0.0
C307 C 0.98029 0.70111 0.7387 0.0
C308 C 0.96167 0.68269 0.83772 0.0
C309 C 0.01296 0.68406 0.73735 0.0
C310 C 0.01744 0.65453 0.70351 0.0
C311 C 0.98956 0.64169 0.67001 0.0
C312 C 0.95712 0.65919 0.67134 0.0
C313 C 0.95259 0.68855 0.70523 0.0
H314 H 0.94409 0.6779 0.87267 0.0
H315 H 0.94326 0.65655 0.81565 0.0
H316 H 0.9942 0.6808 0.83802 0.0
H317 H 0.03536 0.69391 0.76218 0.0
H318 H 0.04258 0.64157 0.70382 0.0
H319 H 0.06626 1.00897 0.8346 0.0
H320 H 0.12907 1.00397 0.78381 0.0
H321 H 0.20365 0.03124 0.89515 0.0
H322 H 0.14042 0.03549 0.94665 0.0
H323 H 0.20901 0.06515 0.76384 0.0
H324 H 0.22674 0.92872 0.83662 0.0
H325 H 0.1786 0.9421 0.85147 0.0
H326 H 0.22731 0.97125 0.87631 0.0
C327 C 0.09585 0.0136 0.84854 0.0
C328 C 0.09814 0.02264 0.89488 0.0
C329 C 0.13184 0.01075 0.81932 0.0
C330 C 0.17107 0.01675 0.83557 0.0
C331 C 0.17351 0.02558 0.88185 0.0
H332 H 0.42665 0.02828 0.69476 0.0
H333 H 0.36562 0.03082 0.75164 0.0
C334 C 0.13735 0.02826 0.91126 0.0
C335 C 0.20969 0.01553 0.80348 0.0
H336 H 0.28251 0.96499 0.77868 0.0
C337 C 0.22496 0.04315 0.76709 0.0
C338 C 0.23072 0.98694 0.80769 0.0
C339 C 0.21485 0.95528 0.84487 0.0
C340 C 0.2606 0.04309 0.73502 0.0
C341 C 0.28134 0.01427 0.73899 0.0
C342 C 0.26656 0.98704 0.77566 0.0
C343 C 0.31801 0.01163 0.70494 0.0
C344 C 0.27615 0.07431 0.69741 0.0
C345 C 0.31137 0.99934 0.66003 0.0
C346 C 0.34607 0.9978 0.62774 0.0
C347 C 0.38795 1.00847 0.63984 0.0
C348 C 0.39455 0.02006 0.68482 0.0
C349 C 0.35978 0.02145 0.71719 0.0
H350 H 0.26414 0.10083 0.70528 0.0
H351 H 0.31239 0.08756 0.69065 0.0
H352 H 0.26367 0.05789 0.66614 0.0
H353 H 0.27931 0.99097 0.64994 0.0
H354 H 0.34035 0.9886 0.59323 0.0
H355 H 0.95586 0.17423 0.91248 0.0
H356 H 0.95579 0.23089 0.86664 0.0
H357 H 0.03905 0.19653 0.75841 0.0
H358 H 0.03965 0.14062 0.80377 0.0
H359 H 0.06703 0.28239 0.77194 0.0
H360 H 0.88963 0.21749 0.75979 0.0
H361 H 0.90231 0.22866 0.81654 0.0
H362 H 0.9166 0.18833 0.7832 0.0
C363 C 0.97418 0.17876 0.87895 0.0
C364 C 0.99772 0.15259 0.86206 0.0
C365 C 0.97393 0.21111 0.85256 0.0
C366 C 0.99711 0.21802 0.8086 0.0
C367 C 0.02088 0.19213 0.79204 0.0
H368 H 0.97841 0.35163 0.5813 0.0
H369 H 0.97614 0.29988 0.63514 0.0
C370 C 0.02106 0.15991 0.81819 0.0
C371 C 0.99702 0.25196 0.77948 0.0
H372 H 0.93068 0.28414 0.72668 0.0
C373 C 0.03713 0.28282 0.76231 0.0
C374 C 0.9582 0.25264 0.76625 0.0
C375 C 0.9142 0.21983 0.78201 0.0
C376 C 0.03944 0.31396 0.73265 0.0
C377 C 1.00061 0.31468 0.71961 0.0
C378 C 0.9605 0.28389 0.7367 0.0
C379 C 1.00115 0.34638 0.68731 0.0
C380 C 0.08363 0.34528 0.71449 0.0
C381 C 0.01541 0.38988 0.69863 0.0
C382 C 0.01633 0.41943 0.668 0.0
C383 C 1.00322 0.40627 0.62519 0.0
C384 C 0.98866 0.36274 0.61401 0.0
C385 C 0.98736 0.33315 0.6448 0.0
H386 H 0.11061 0.33539 0.72032 0.0
H387 H 0.08579 0.34931 0.67776 0.0
H388 H 0.0884 0.37651 0.73163 0.0
H389 H 0.02567 0.401 0.73132 0.0
H390 H 0.0274 0.4527 0.67769 0.0
H391 H 0.93343 0.03934 0.82008 0.0
H392 H 0.89013 0.04146 0.76187 0.0
H393 H 0.78379 0.04048 0.86488 0.0
H394 H 0.82629 0.03818 0.92294 0.0
H395 H 0.76195 0.97572 0.79524 0.0
H396 H 0.8507 0.13752 0.72809 0.0
H397 H 0.88275 0.10638 0.7348 0.0
H398 H 0.85447 0.12356 0.78367 0.0
C399 C 0.90107 0.04018 0.83033 0.0
C400 C 0.88315 0.0381 0.87614 0.0
C401 C 0.87646 0.0415 0.79706 0.0
C402 C 0.83378 0.04103 0.80919 0.0
C403 C 0.81661 0.04069 0.85489 0.0
H404 H 0.64347 0.07761 0.67171 0.0
H405 H 0.69935 0.08245 0.71823 0.0
C406 C 0.84105 0.03941 0.88802 0.0
C407 C 0.80551 0.03802 0.77466 0.0
H408 H 0.78944 0.09385 0.69418 0.0
C409 C 0.76807 1.00137 0.77285 0.0
C410 C 0.81352 0.07171 0.74594 0.0
C411 C 0.85238 0.11225 0.74808 0.0
C412 C 0.73799 0.99772 0.74343 0.0
C413 C 0.74599 0.03143 0.71462 0.0
C414 C 0.78367 0.06795 0.71609 0.0
C415 C 0.71441 0.03003 0.68435 0.0
C416 C 0.69716 0.95845 0.74455 0.0
C417 C 0.70504 0.99946 0.64939 0.0
C418 C 0.67319 0.99663 0.62274 0.0
C419 C 0.65031 0.0245 0.63043 0.0
C420 C 0.66072 0.05589 0.66469 0.0
C421 C 0.69255 0.05864 0.69136 0.0
H422 H 0.69145 0.93981 0.77515 0.0
H423 H 0.66807 0.96677 0.7435 0.0
H424 H 0.70043 0.93799 0.71456 0.0
H425 H 0.72215 0.97758 0.64295 0.0
H426 H 0.66654 0.97266 0.59604 0.0
loop_
_geom_bond_atom_site_label_1
_geom_bond_atom_site_label_2
_geom_bond_distance
_geom_bond_site_symmetry_2
_ccdc_geom_bond_type
Co0 O3 2.046 . S
Co0 O10 2.277 . S
Co0 O29 2.287 1_455 S
Co0 O30 2.084 . S
Co0 O32 1.997 1_455 S
Co1 O3 2.122 1_545 S
Co1 O9 2.073 . S
Co1 O10 2.327 1_545 S
Co1 O11 1.976 . S
Co2 O3 2.093 1_545 S
Co2 O5 2.081 1_454 S
Co2 O12 2.143 . S
Co2 O13 2.129 1_554 S
Co2 O17 2.080 1_444 S
Co2 O31 2.158 1_445 S
O3 Co0 2.046 . S
O3 Co1 2.122 1_565 S
O3 Co2 2.093 1_565 S
O3 H4 0.980 . S
H4 O3 0.980 . S
O5 Co2 2.081 1_656 S
O5 Co6 2.042 1_655 S
O5 Co7 2.122 1_545 S
O5 H8 0.980 . S
Co6 O5 2.042 1_455 S
Co6 O14 2.286 . S
Co6 O15 2.069 1_455 S
Co6 O16 2.015 . S
Co6 O19 2.264 1_455 S
Co7 O5 2.122 1_565 S
Co7 O18 1.976 . S
Co7 O19 2.327 1_565 S
Co7 O20 2.073 . S
H8 O5 0.980 . S
O9 Co1 2.073 . S
O9 C24 1.245 1_545 S
O10 Co0 2.277 . S
O10 Co1 2.327 1_565 S
O10 C24 1.257 . S
O11 Co1 1.976 . S
O11 C23 1.251 . S
O12 Co2 2.143 . S
O12 C23 1.274 . S
O13 Co2 2.129 1_556 S
O13 C26 1.246 . S
O14 Co6 2.286 . S
O14 C25 1.259 1_455 S
O15 Co6 2.069 1_655 S
O15 C25 1.289 . S
O16 Co6 2.015 . S
O16 C26 1.257 . S
O17 Co2 2.080 1_666 S
O17 C27 1.274 . S
O18 Co7 1.976 . S
O18 C27 1.251 . S
O19 Co6 2.264 1_655 S
O19 Co7 2.327 1_545 S
O19 C28 1.257 . S
O20 Co7 2.073 . S
O20 C28 1.245 1_565 S
C21 O29 1.259 1_455 S
C21 O30 1.289 . S
C22 O31 1.246 . S
C22 O32 1.257 . S
C23 O11 1.251 . S
C23 O12 1.274 . S
C24 O9 1.245 1_565 S
C24 O10 1.257 . S
C25 O14 1.259 1_655 S
C25 O15 1.289 . S
C26 O13 1.246 . S
C26 O16 1.257 . S
C27 O17 1.274 . S
C27 O18 1.251 . S
C28 O19 1.257 . S
C28 O20 1.245 1_545 S
O29 Co0 2.287 1_655 S
O29 C21 1.259 1_655 S
O30 Co0 2.084 . S
O30 C21 1.289 . S
O31 Co2 2.158 1_665 S
O31 C22 1.246 . S
O32 Co0 1.997 1_655 S
O32 C22 1.257 . S
C33 C34 1.443 . S
C33 N37 1.376 . S
C33 C71 1.389 . S
C34 C33 1.443 . S
C34 C35 1.340 . S
C34 H74 0.951 . S
C35 C34 1.340 . S
C35 C36 1.439 . S
C35 H75 0.950 . S
C36 C35 1.439 . S
C36 N37 1.374 . S
C36 C70 1.395 . S
N37 C33 1.376 . S
N37 C36 1.374 . S
N37 Co38 2.008 . S
Co38 N37 2.008 . S
Co38 N39 1.995 . S
Co38 N44 2.008 1_455 S
Co38 N49 1.995 1_455 S
Co38 N54 2.282 . S
Co38 N60 2.282 1_455 S
N39 Co38 1.995 . S
N39 C40 1.376 . S
N39 C43 1.383 . S
C40 N39 1.376 . S
C40 C41 1.446 . S
C40 C70 1.391 . S
C41 C40 1.446 . S
C41 C42 1.339 . S
C41 H76 0.949 . S
C42 C41 1.339 . S
C42 C43 1.439 . S
C42 H77 0.950 . S
C43 N39 1.383 . S
C43 C42 1.439 . S
C43 C72 1.404 . S
N44 Co38 2.008 1_655 S
N44 C45 1.376 . S
N44 C48 1.374 . S
C45 N44 1.376 . S
C45 C46 1.443 . S
C45 C72 1.369 1_655 S
C46 C45 1.443 . S
C46 C47 1.340 . S
C46 H78 0.951 . S
C47 C46 1.340 . S
C47 C48 1.439 . S
C47 H79 0.950 . S
C48 N44 1.374 . S
C48 C47 1.439 . S
C48 C73 1.395 . S
N49 Co38 1.995 1_655 S
N49 C50 1.376 . S
N49 C53 1.383 . S
C50 N49 1.376 . S
C50 C51 1.446 . S
C50 C73 1.391 . S
C51 C50 1.446 . S
C51 C52 1.339 . S
C51 H80 0.949 . S
C52 C51 1.339 . S
C52 C53 1.439 . S
C52 H81 0.950 . S
C53 N49 1.383 . S
C53 C52 1.439 . S
C53 C71 1.392 1_655 S
N54 Co38 2.282 . S
N54 C57 1.332 1_455 S
N54 C59 1.332 . S
C55 C56 1.386 1_455 S
C55 C58 1.388 . S
C56 C55 1.386 1_655 S
C56 C57 1.382 . S
C56 H82 0.950 . S
C57 N54 1.332 1_655 S
C57 C56 1.382 . S
C57 H68 0.952 . S
C58 C55 1.388 . S
C58 C59 1.382 . S
C58 H83 0.950 . S
C59 N54 1.332 . S
C59 C58 1.382 . S
C59 H69 0.948 . S
N60 Co38 2.282 1_655 S
N60 C64 1.332 1_655 S
N60 C65 1.332 . S
C61 C62 1.372 1_655 S
C61 C65 1.382 . S
C61 H84 0.950 . S
C62 C61 1.372 1_455 S
C62 C63 1.408 . S
C63 C62 1.408 . S
C63 C64 1.382 . S
C63 H85 0.950 . S
C64 N60 1.332 1_455 S
C64 C63 1.382 . S
C64 H66 0.952 . S
C65 N60 1.332 . S
C65 C61 1.382 . S
C65 H67 0.948 . S
H66 C64 0.952 . S
H67 C65 0.948 . S
H68 C57 0.952 . S
H69 C59 0.948 . S
C70 C36 1.395 . S
C70 C40 1.391 . S
C71 C33 1.389 . S
C71 C53 1.392 1_455 S
C72 C43 1.404 . S
C72 C45 1.369 1_455 S
C73 C48 1.395 . S
C73 C50 1.391 . S
H74 C34 0.951 . S
H75 C35 0.950 . S
H76 C41 0.949 . S
H77 C42 0.950 . S
H78 C46 0.951 . S
H79 C47 0.950 . S
H80 C51 0.949 . S
H81 C52 0.950 . S
H82 C56 0.950 . S
H83 C58 0.950 . S
H84 C61 0.950 . S
H85 C63 0.950 . S
C86 C87 1.443 . S
C86 N90 1.376 . S
C86 C124 1.381 1_565 S
C87 C86 1.443 . S
C87 C88 1.340 . S
C87 H127 0.951 . S
C88 C87 1.340 . S
C88 C89 1.439 . S
C88 H128 0.950 . S
C89 C88 1.439 . S
C89 N90 1.374 . S
C89 C123 1.395 . S
N90 C86 1.376 . S
N90 C89 1.374 . S
N90 Co91 1.996 1_565 S
Co91 N90 1.996 1_545 S
Co91 N92 1.974 1_545 S
Co91 N97 2.021 . S
Co91 N102 2.016 . S
Co91 N107 2.273 1_545 S
Co91 N113 2.293 . S
N92 Co91 1.974 1_565 S
N92 C93 1.376 . S
N92 C96 1.383 . S
C93 N92 1.376 . S
C93 C94 1.446 . S
C93 C123 1.391 . S
C94 C93 1.446 . S
C94 C95 1.339 . S
C94 H129 0.949 . S
C95 C94 1.339 . S
C95 C96 1.439 . S
C95 H130 0.950 . S
C96 N92 1.383 . S
C96 C95 1.439 . S
C96 C125 1.392 1_565 S
N97 Co91 2.021 . S
N97 C98 1.376 . S
N97 C101 1.374 . S
C98 N97 1.376 . S
C98 C99 1.443 . S
C98 C125 1.389 . S
C99 C98 1.443 . S
C99 C100 1.340 . S
C99 H131 0.951 . S
C100 C99 1.340 . S
C100 C101 1.439 . S
C100 H132 0.950 . S
C101 N97 1.374 . S
C101 C100 1.439 . S
C101 C126 1.395 . S
N102 Co91 2.016 . S
N102 C103 1.376 . S
N102 C106 1.383 . S
C103 N102 1.376 . S
C103 C104 1.446 . S
C103 C126 1.391 . S
C104 C103 1.446 . S
C104 C105 1.339 . S
C104 H133 0.949 . S
C105 C104 1.339 . S
C105 C106 1.439 . S
C105 H134 0.950 . S
C106 N102 1.383 . S
C106 C105 1.439 . S
C106 C124 1.398 . S
N107 Co91 2.273 1_565 S
N107 C110 1.332 1_565 S
N107 C112 1.332 . S
C108 C109 1.397 . S
C108 C111 1.381 1_545 S
C109 C108 1.397 . S
C109 C110 1.382 . S
C109 H135 0.950 . S
C110 N107 1.332 1_545 S
C110 C109 1.382 . S
C110 H121 0.952 . S
C111 C108 1.381 1_565 S
C111 C112 1.382 . S
C111 H136 0.950 . S
C112 N107 1.332 . S
C112 C111 1.382 . S
C112 H122 0.948 . S
N113 Co91 2.293 . S
N113 C117 1.332 1_545 S
N113 C118 1.332 . S
C114 C115 1.388 . S
C114 C118 1.382 . S
C114 H137 0.950 . S
C115 C114 1.388 . S
C115 C116 1.386 1_545 S
C116 C115 1.386 1_565 S
C116 C117 1.382 . S
C116 H138 0.950 . S
C117 N113 1.332 1_565 S
C117 C116 1.382 . S
C117 H119 0.952 . S
C118 N113 1.332 . S
C118 C114 1.382 . S
C118 H120 0.948 . S
H119 C117 0.952 . S
H120 C118 0.948 . S
H121 C110 0.952 . S
H122 C112 0.948 . S
C123 C89 1.395 . S
C123 C93 1.391 . S
C124 C86 1.381 1_545 S
C124 C106 1.398 . S
C125 C96 1.392 1_545 S
C125 C98 1.389 . S
C126 C101 1.395 . S
C126 C103 1.391 . S
H127 C87 0.951 . S
H128 C88 0.950 . S
H129 C94 0.949 . S
H130 C95 0.950 . S
H131 C99 0.951 . S
H132 C100 0.950 . S
H133 C104 0.949 . S
H134 C105 0.950 . S
H135 C109 0.950 . S
H136 C111 0.950 . S
H137 C114 0.950 . S
H138 C116 0.950 . S
H139 C147 0.929 . S
H140 C149 0.930 . S
H141 C151 0.930 . S
H142 C154 0.929 . S
H143 C157 0.930 . S
H144 C159 0.960 . S
H145 C159 0.960 . S
H146 C159 0.960 . S
C147 H139 0.929 . S
C147 C148 1.377 . S
C147 C149 1.384 . S
C148 C147 1.377 . S
C148 C154 1.390 1_455 S
C149 H140 0.930 . S
C149 C147 1.384 . S
C149 C150 1.372 . S
C150 C149 1.372 . S
C150 C151 1.400 1_455 S
C150 C155 1.490 . S
C151 H141 0.930 . S
C151 C150 1.400 1_655 S
C151 C154 1.386 . S
H152 C168 0.930 . S
H153 C169 0.931 . S
C154 H142 0.929 . S
C154 C148 1.390 1_655 S
C154 C151 1.386 . S
C155 C150 1.490 . S
C155 C157 1.395 1_455 S
C155 C158 1.403 . S
H156 C162 0.930 . S
C157 H143 0.930 . S
C157 C155 1.395 1_655 S
C157 C160 1.403 . S
C158 C155 1.403 . S
C158 C159 1.524 . S
C158 C162 1.400 . S
C159 H144 0.960 . S
C159 H145 0.960 . S
C159 H146 0.960 . S
C159 C158 1.524 . S
C160 C157 1.403 . S
C160 C161 1.394 . S
C160 C164 1.495 . S
C161 C160 1.394 . S
C161 C162 1.383 1_655 S
C161 C163 1.478 . S
C162 H156 0.930 . S
C162 C158 1.400 . S
C162 C161 1.383 1_455 S
C163 C161 1.478 . S
C163 C165 1.381 1_655 S
C163 C169 1.383 . S
C164 C160 1.495 . S
C164 H170 0.959 . S
C164 H171 0.961 . S
C164 H172 0.960 . S
C165 C163 1.381 1_455 S
C165 C166 1.394 . S
C165 H173 0.930 . S
C166 C165 1.394 . S
C166 C167 1.383 1_455 S
C166 H174 0.929 . S
C167 C166 1.383 1_655 S
C167 C168 1.377 . S
C168 H152 0.930 . S
C168 C167 1.377 . S
C168 C169 1.379 . S
C169 H153 0.931 . S
C169 C163 1.383 . S
C169 C168 1.379 . S
H170 C164 0.959 . S
H171 C164 0.961 . S
H172 C164 0.960 . S
H173 C165 0.930 . S
H174 C166 0.929 . S
H175 C183 0.929 . S
H176 C185 0.930 . S
H177 C187 0.930 . S
H178 C190 0.929 . S
H179 C193 0.930 . S
H180 C195 0.960 . S
H181 C195 0.960 . S
H182 C195 0.960 . S
C183 H175 0.929 . S
C183 C184 1.377 . S
C183 C185 1.384 . S
C184 C183 1.377 . S
C184 C190 1.390 . S
C185 H176 0.930 . S
C185 C183 1.384 . S
C185 C186 1.372 . S
C186 C185 1.372 . S
C186 C187 1.400 . S
C186 C191 1.490 . S
C187 H177 0.930 . S
C187 C186 1.400 . S
C187 C190 1.386 . S
H188 C204 0.930 . S
H189 C205 0.931 . S
C190 H178 0.929 . S
C190 C184 1.390 . S
C190 C187 1.386 . S
C191 C186 1.490 . S
C191 C193 1.395 1_565 S
C191 C194 1.403 . S
H192 C198 0.930 . S
C193 H179 0.930 . S
C193 C191 1.395 1_545 S
C193 C196 1.403 . S
C194 C191 1.403 . S
C194 C195 1.524 . S
C194 C198 1.400 . S
C195 H180 0.960 . S
C195 H181 0.960 . S
C195 H182 0.960 . S
C195 C194 1.524 . S
C196 C193 1.403 . S
C196 C197 1.392 . S
C196 C200 1.495 . S
C197 C196 1.392 . S
C197 C198 1.385 1_545 S
C197 C199 1.478 . S
C198 H192 0.930 . S
C198 C194 1.400 . S
C198 C197 1.385 1_565 S
C199 C197 1.478 . S
C199 C201 1.381 . S
C199 C205 1.383 . S
C200 C196 1.495 . S
C200 H206 0.959 . S
C200 H207 0.961 . S
C200 H208 0.960 . S
C201 C199 1.381 . S
C201 C202 1.393 . S
C201 H209 0.936 . S
C202 C201 1.393 . S
C202 C203 1.386 . S
C202 H210 0.927 1_545 S
C203 C202 1.386 . S
C203 C204 1.377 . S
C204 H188 0.930 . S
C204 C203 1.377 . S
C204 C205 1.379 . S
C205 H189 0.931 . S
C205 C199 1.383 . S
C205 C204 1.379 . S
H206 C200 0.959 . S
H207 C200 0.961 . S
H208 C200 0.960 . S
H209 C201 0.936 . S
H210 C202 0.927 1_565 S
H211 C219 0.929 1_655 S
H212 C221 0.930 1_655 S
H213 C223 0.930 . S
H214 C226 0.929 . S
H215 C229 0.930 . S
H216 C231 0.960 . S
H217 C231 0.960 . S
H218 C231 0.960 . S
C219 H211 0.929 1_455 S
C219 C220 1.377 . S
C219 C221 1.384 . S
C220 C219 1.377 . S
C220 C226 1.390 . S
C221 H212 0.930 1_455 S
C221 C219 1.384 . S
C221 C222 1.372 . S
C222 C221 1.372 . S
C222 C223 1.400 . S
C222 C227 1.490 . S
C223 H213 0.930 . S
C223 C222 1.400 . S
C223 C226 1.386 . S
H224 C240 0.930 . S
H225 C241 0.931 . S
C226 H214 0.929 . S
C226 C220 1.390 . S
C226 C223 1.386 . S
C227 C222 1.490 . S
C227 C229 1.395 . S
C227 C230 1.403 1_455 S
H228 C234 0.930 . S
C229 H215 0.930 . S
C229 C227 1.395 . S
C229 C232 1.403 . S
C230 C227 1.403 1_655 S
C230 C231 1.524 . S
C230 C234 1.400 . S
C231 H216 0.960 . S
C231 H217 0.960 . S
C231 H218 0.960 . S
C231 C230 1.524 . S
C232 C229 1.403 . S
C232 C233 1.392 . S
C232 C236 1.495 . S
C233 C232 1.392 . S
C233 C234 1.385 1_455 S
C233 C235 1.478 . S
C234 H228 0.930 . S
C234 C230 1.400 . S
C234 C233 1.385 1_655 S
C235 C233 1.478 . S
C235 C237 1.382 1_455 S
C235 C241 1.383 . S
C236 C232 1.495 . S
C236 H242 0.959 . S
C236 H243 0.961 . S
C236 H244 0.960 . S
C237 C235 1.382 1_655 S
C237 C238 1.392 . S
C237 H245 0.932 . S
C238 C237 1.392 . S
C238 C239 1.383 1_655 S
C238 H246 0.929 . S
C239 C238 1.383 1_455 S
C239 C240 1.377 . S
C240 H224 0.930 . S
C240 C239 1.377 . S
C240 C241 1.379 . S
C241 H225 0.931 . S
C241 C235 1.383 . S
C241 C240 1.379 . S
H242 C236 0.959 . S
H243 C236 0.961 . S
H244 C236 0.960 . S
H245 C237 0.932 . S
H246 C238 0.929 . S
H247 C255 0.929 . S
H248 C257 0.930 . S
H249 C259 0.930 . S
H250 C262 0.929 . S
H251 C265 0.930 . S
H252 C267 0.960 . S
H253 C267 0.960 . S
H254 C267 0.960 1_565 S
C255 H247 0.929 . S
C255 C256 1.377 1_545 S
C255 C257 1.384 . S
C256 C255 1.377 1_565 S
C256 C262 1.390 . S
C257 H248 0.930 . S
C257 C255 1.384 . S
C257 C258 1.372 1_545 S
C258 C257 1.372 1_565 S
C258 C259 1.400 . S
C258 C263 1.490 . S
C259 H249 0.930 . S
C259 C258 1.400 . S
C259 C262 1.386 . S
H260 C276 0.930 . S
H261 C277 0.931 . S
C262 H250 0.929 . S
C262 C256 1.390 . S
C262 C259 1.386 . S
C263 C258 1.490 . S
C263 C265 1.395 . S
C263 C266 1.402 1_565 S
H264 C270 0.929 . S
C265 H251 0.930 . S
C265 C263 1.395 . S
C265 C268 1.403 . S
C266 C263 1.402 1_545 S
C266 C267 1.523 . S
C266 C270 1.403 . S
C267 H252 0.960 . S
C267 H253 0.960 . S
C267 H254 0.960 1_545 S
C267 C266 1.523 . S
C268 C265 1.403 . S
C268 C269 1.392 . S
C268 C272 1.495 . S
C269 C268 1.392 . S
C269 C270 1.384 1_565 S
C269 C271 1.478 . S
C270 H264 0.929 . S
C270 C266 1.403 . S
C270 C269 1.384 1_545 S
C271 C269 1.478 . S
C271 C273 1.381 1_565 S
C271 C277 1.383 . S
C272 C268 1.495 . S
C272 H278 0.959 . S
C272 H279 0.961 . S
C272 H280 0.960 . S
C273 C271 1.381 1_545 S
C273 C274 1.394 . S
C273 H281 0.930 . S
C274 C273 1.394 . S
C274 C275 1.383 1_545 S
C274 H282 0.929 . S
C275 C274 1.383 1_565 S
C275 C276 1.377 . S
C276 H260 0.930 . S
C276 C275 1.377 . S
C276 C277 1.379 . S
C277 H261 0.931 . S
C277 C271 1.383 . S
C277 C276 1.379 . S
H278 C272 0.959 . S
H279 C272 0.961 . S
H280 C272 0.960 . S
H281 C273 0.930 . S
H282 C274 0.929 . S
H283 C291 0.929 . S
H284 C293 0.930 . S
H285 C295 0.930 . S
H286 C298 0.929 . S
H287 C301 0.930 . S
H288 C303 0.960 . S
H289 C303 0.960 . S
H290 C303 0.960 . S
C291 H283 0.929 . S
C291 C292 1.377 . S
C291 C293 1.384 . S
C292 C291 1.377 . S
C292 C298 1.390 1_455 S
C293 H284 0.930 . S
C293 C291 1.384 . S
C293 C294 1.372 . S
C294 C293 1.372 . S
C294 C295 1.400 1_455 S
C294 C299 1.490 . S
C295 H285 0.930 . S
C295 C294 1.400 1_655 S
C295 C298 1.386 . S
H296 C312 0.930 . S
H297 C313 0.931 . S
C298 H286 0.929 . S
C298 C292 1.390 1_655 S
C298 C295 1.386 . S
C299 C294 1.490 . S
C299 C301 1.395 1_455 S
C299 C302 1.403 . S
H300 C306 0.930 . S
C301 H287 0.930 . S
C301 C299 1.395 1_655 S
C301 C304 1.403 . S
C302 C299 1.403 . S
C302 C303 1.524 . S
C302 C306 1.400 . S
C303 H288 0.960 . S
C303 H289 0.960 . S
C303 H290 0.960 . S
C303 C302 1.524 . S
C304 C301 1.403 . S
C304 C305 1.392 . S
C304 C308 1.495 . S
C305 C304 1.392 . S
C305 C306 1.385 1_655 S
C305 C307 1.478 . S
C306 H300 0.930 . S
C306 C302 1.400 . S
C306 C305 1.385 1_455 S
C307 C305 1.478 . S
C307 C309 1.381 1_655 S
C307 C313 1.383 . S
C308 C304 1.495 . S
C308 H314 0.959 . S
C308 H315 0.961 . S
C308 H316 0.960 . S
C309 C307 1.381 1_455 S
C309 C310 1.394 . S
C309 H317 0.930 . S
C310 C309 1.394 . S
C310 C311 1.375 1_455 S
C310 H318 0.929 . S
C311 C310 1.375 1_655 S
C311 C312 1.387 . S
C312 H296 0.930 . S
C312 C311 1.387 . S
C312 C313 1.379 . S
C313 H297 0.931 . S
C313 C307 1.383 . S
C313 C312 1.379 . S
H314 C308 0.959 . S
H315 C308 0.961 . S
H316 C308 0.960 . S
H317 C309 0.930 . S
H318 C310 0.929 . S
H319 C327 0.929 . S
H320 C329 0.930 . S
H321 C331 0.930 . S
H322 C334 0.929 . S
H323 C337 0.930 . S
H324 C339 0.960 . S
H325 C339 0.960 . S
H326 C339 0.960 . S
C327 H319 0.929 . S
C327 C328 1.377 1_565 S
C327 C329 1.384 . S
C328 C327 1.377 1_545 S
C328 C334 1.390 . S
C329 H320 0.930 . S
C329 C327 1.384 . S
C329 C330 1.372 1_565 S
C330 C329 1.372 1_545 S
C330 C331 1.400 . S
C330 C335 1.490 . S
C331 H321 0.930 . S
C331 C330 1.400 . S
C331 C334 1.386 . S
H332 C348 0.930 . S
H333 C349 0.931 . S
C334 H322 0.929 . S
C334 C328 1.390 . S
C334 C331 1.386 . S
C335 C330 1.490 . S
C335 C337 1.395 . S
C335 C338 1.403 1_545 S
H336 C342 0.930 . S
C337 H323 0.930 . S
C337 C335 1.395 . S
C337 C340 1.403 . S
C338 C335 1.403 1_565 S
C338 C339 1.524 . S
C338 C342 1.400 . S
C339 H324 0.960 . S
C339 H325 0.960 . S
C339 H326 0.960 . S
C339 C338 1.524 . S
C340 C337 1.403 . S
C340 C341 1.392 . S
C340 C344 1.495 . S
C341 C340 1.392 . S
C341 C342 1.385 1_545 S
C341 C343 1.478 . S
C342 H336 0.930 . S
C342 C338 1.400 . S
C342 C341 1.385 1_565 S
C343 C341 1.478 . S
C343 C345 1.381 1_545 S
C343 C349 1.383 . S
C344 C340 1.495 . S
C344 H350 0.959 . S
C344 H351 0.961 . S
C344 H352 0.960 . S
C345 C343 1.381 1_565 S
C345 C346 1.394 . S
C345 H353 0.930 . S
C346 C345 1.394 . S
C346 C347 1.383 1_565 S
C346 H354 0.929 . S
C347 C346 1.383 1_545 S
C347 C348 1.377 . S
C348 H332 0.930 . S
C348 C347 1.377 . S
C348 C349 1.379 . S
C349 H333 0.931 . S
C349 C343 1.383 . S
C349 C348 1.379 . S
H350 C344 0.959 . S
H351 C344 0.961 . S
H352 C344 0.960 . S
H353 C345 0.930 . S
H354 C346 0.929 . S
H355 C363 0.928 1_455 S
H356 C365 0.930 . S
H357 C367 0.930 . S
H358 C370 0.929 . S
H359 C373 0.930 . S
H360 C375 0.960 . S
H361 C375 0.960 . S
H362 C375 0.960 . S
C363 H355 0.928 1_655 S
C363 C364 1.377 . S
C363 C365 1.386 1_655 S
C364 C363 1.377 . S
C364 C370 1.390 . S
C365 H356 0.930 . S
C365 C363 1.386 1_455 S
C365 C366 1.372 1_455 S
C366 C365 1.372 1_655 S
C366 C367 1.400 . S
C366 C371 1.490 . S
C367 H357 0.930 . S
C367 C366 1.400 . S
C367 C370 1.386 . S
H368 C384 0.930 . S
H369 C385 0.931 . S
C370 H358 0.929 . S
C370 C364 1.390 . S
C370 C367 1.386 . S
C371 C366 1.490 . S
C371 C373 1.395 1_655 S
C371 C374 1.403 . S
H372 C378 0.930 . S
C373 H359 0.930 . S
C373 C371 1.395 1_455 S
C373 C376 1.403 . S
C374 C371 1.403 . S
C374 C375 1.524 . S
C374 C378 1.400 . S
C375 H360 0.960 . S
C375 H361 0.960 . S
C375 H362 0.960 . S
C375 C374 1.524 . S
C376 C373 1.403 . S
C376 C377 1.392 . S
C376 C380 1.495 . S
C377 C376 1.392 . S
C377 C378 1.385 1_455 S
C377 C379 1.478 . S
C378 H372 0.930 . S
C378 C374 1.400 . S
C378 C377 1.385 1_655 S
C379 C377 1.478 . S
C379 C381 1.381 . S
C379 C385 1.383 . S
C380 C376 1.495 . S
C380 H386 0.959 . S
C380 H387 0.961 . S
C380 H388 0.960 . S
C381 C379 1.381 . S
C381 C382 1.394 . S
C381 H389 0.930 . S
C382 C381 1.394 . S
C382 C383 1.383 . S
C382 H390 0.929 . S
C383 C382 1.383 . S
C383 C384 1.377 . S
C384 H368 0.930 . S
C384 C383 1.377 . S
C384 C385 1.379 . S
C385 H369 0.931 . S
C385 C379 1.383 . S
C385 C384 1.379 . S
H386 C380 0.959 . S
H387 C380 0.961 . S
H388 C380 0.960 . S
H389 C381 0.930 . S
H390 C382 0.929 . S
H391 C399 0.929 . S
H392 C401 0.930 . S
H393 C403 0.930 . S
H394 C406 0.929 . S
H395 C409 0.930 . S
H396 C411 0.960 . S
H397 C411 0.960 . S
H398 C411 0.960 . S
C399 H391 0.929 . S
C399 C400 1.377 1_565 S
C399 C401 1.384 . S
C400 C399 1.377 1_545 S
C400 C406 1.390 . S
C401 H392 0.930 . S
C401 C399 1.384 . S
C401 C402 1.372 1_565 S
C402 C401 1.372 1_545 S
C402 C403 1.400 . S
C402 C407 1.490 . S
C403 H393 0.930 . S
C403 C402 1.400 . S
C403 C406 1.386 . S
H404 C420 0.930 . S
H405 C421 0.931 . S
C406 H394 0.929 . S
C406 C400 1.390 . S
C406 C403 1.386 . S
C407 C402 1.490 . S
C407 C409 1.395 1_545 S
C407 C410 1.403 . S
H408 C414 0.930 . S
C409 H395 0.930 . S
C409 C407 1.395 1_565 S
C409 C412 1.403 . S
C410 C407 1.403 . S
C410 C411 1.524 . S
C410 C414 1.400 . S
C411 H396 0.960 . S
C411 H397 0.960 . S
C411 H398 0.960 . S
C411 C410 1.524 . S
C412 C409 1.403 . S
C412 C413 1.392 1_565 S
C412 C416 1.495 . S
C413 C412 1.392 1_545 S
C413 C414 1.385 . S
C413 C415 1.478 1_545 S
C414 H408 0.930 . S
C414 C410 1.400 . S
C414 C413 1.385 . S
C415 C413 1.478 1_565 S
C415 C417 1.381 . S
C415 C421 1.383 1_565 S
C416 C412 1.495 . S
C416 H422 0.959 . S
C416 H423 0.961 . S
C416 H424 0.960 . S
C417 C415 1.381 . S
C417 C418 1.394 . S
C417 H425 0.930 . S
C418 C417 1.394 . S
C418 C419 1.399 . S
C418 H426 0.929 . S
C419 C418 1.399 . S
C419 C420 1.367 1_565 S
C420 H404 0.930 . S
C420 C419 1.367 1_545 S
C420 C421 1.379 . S
C421 H405 0.931 . S
C421 C415 1.383 1_545 S
C421 C420 1.379 . S
H422 C416 0.959 . S
H423 C416 0.961 . S
H424 C416 0.960 . S
H425 C417 0.930 . S
H426 C418 0.929 . S
C148 C23 1.254 . S
C167 C55 1.331 1_655 S
C184 C22 1.527 . S
C203 C125 1.571 . S
C220 C21 1.992 . S
C239 C71 1.995 . S
C256 C24 1.461 . S
C275 C115 1.540 1_565 S
C292 C27 1.269 1_455 S
C311 C62 1.323 1_655 S
C328 C26 1.534 . S
C347 C124 1.578 . S
C383 C72 2.008 . S
C364 C25 1.995 . S
C400 C28 1.468 . S
C419 C108 1.521 1_565 S
