# Generated by pormake.
# Topology gar, (4,6)-cn, num edge types: 1
# Building blocks:
#     Node 0, Type 0, BuildingBlock: UXUYUI_clean_sbu_0, # of connection points: 4
#     Node 1, Type 0, BuildingBlock: UXUYUI_clean_sbu_0, # of connection points: 4
#     Node 2, Type 0, BuildingBlock: UXUYUI_clean_sbu_0, # of connection points: 4
#     Node 3, Type 0, BuildingBlock: UXUYUI_clean_sbu_0, # of connection points: 4
#     Node 4, Type 0, BuildingBlock: UXUYUI_clean_sbu_0, # of connection points: 4
#     Node 5, Type 0, BuildingBlock: UXUYUI_clean_sbu_0, # of connection points: 4
#     Node 6, Type 0, BuildingBlock: UXUYUI_clean_sbu_0, # of connection points: 4
#     Node 7, Type 0, BuildingBlock: UXUYUI_clean_sbu_0, # of connection points: 4
#     Node 8, Type 0, BuildingBlock: UXUYUI_clean_sbu_0, # of connection points: 4
#     Node 9, Type 0, BuildingBlock: UXUYUI_clean_sbu_0, # of connection points: 4
#     Node 10, Type 0, BuildingBlock: UXUYUI_clean_sbu_0, # of connection points: 4
#     Node 11, Type 0, BuildingBlock: UXUYUI_clean_sbu_0, # of connection points: 4
#     Node 12, Type 0, BuildingBlock: UXUYUI_clean_sbu_0, # of connection points: 4
#     Node 13, Type 0, BuildingBlock: UXUYUI_clean_sbu_0, # of connection points: 4
#     Node 14, Type 0, BuildingBlock: UXUYUI_clean_sbu_0, # of connection points: 4
#     Node 15, Type 0, BuildingBlock: UXUYUI_clean_sbu_0, # of connection points: 4
#     Node 16, Type 0, BuildingBlock: UXUYUI_clean_sbu_0, # of connection points: 4
#     Node 17, Type 0, BuildingBlock: UXUYUI_clean_sbu_0, # of connection points: 4
#     Node 18, Type 0, BuildingBlock: UXUYUI_clean_sbu_0, # of connection points: 4
#     Node 19, Type 0, BuildingBlock: UXUYUI_clean_sbu_0, # of connection points: 4
#     Node 20, Type 0, BuildingBlock: UXUYUI_clean_sbu_0, # of connection points: 4
#     Node 21, Type 0, BuildingBlock: UXUYUI_clean_sbu_0, # of connection points: 4
#     Node 22, Type 0, BuildingBlock: UXUYUI_clean_sbu_0, # of connection points: 4
#     Node 23, Type 0, BuildingBlock: UXUYUI_clean_sbu_0, # of connection points: 4
#     Node 24, Type 1, BuildingBlock: KUMBUR_clean_sbu_1, # of connection points: 6
#     Node 25, Type 1, BuildingBlock: KUMBUR_clean_sbu_1, # of connection points: 6
#     Node 26, Type 1, BuildingBlock: KUMBUR_clean_sbu_1, # of connection points: 6
#     Node 27, Type 1, BuildingBlock: KUMBUR_clean_sbu_1, # of connection points: 6
#     Node 28, Type 1, BuildingBlock: KUMBUR_clean_sbu_1, # of connection points: 6
#     Node 29, Type 1, BuildingBlock: KUMBUR_clean_sbu_1, # of connection points: 6
#     Node 30, Type 1, BuildingBlock: KUMBUR_clean_sbu_1, # of connection points: 6
#     Node 31, Type 1, BuildingBlock: KUMBUR_clean_sbu_1, # of connection points: 6
#     Node 32, Type 1, BuildingBlock: KUMBUR_clean_sbu_1, # of connection points: 6
#     Node 33, Type 1, BuildingBlock: KUMBUR_clean_sbu_1, # of connection points: 6
#     Node 34, Type 1, BuildingBlock: KUMBUR_clean_sbu_1, # of connection points: 6
#     Node 35, Type 1, BuildingBlock: KUMBUR_clean_sbu_1, # of connection points: 6
#     Node 36, Type 1, BuildingBlock: KUMBUR_clean_sbu_1, # of connection points: 6
#     Node 37, Type 1, BuildingBlock: KUMBUR_clean_sbu_1, # of connection points: 6
#     Node 38, Type 1, BuildingBlock: KUMBUR_clean_sbu_1, # of connection points: 6
#     Node 39, Type 1, BuildingBlock: KUMBUR_clean_sbu_1, # of connection points: 6
#     Edge 40, Type (0, 1), BuildingBlock: XIVTED_clean_linker_0, # of connection points: 2
#     Edge 41, Type (0, 1), BuildingBlock: XIVTED_clean_linker_0, # of connection points: 2
#     Edge 42, Type (0, 1), BuildingBlock: XIVTED_clean_linker_0, # of connection points: 2
#     Edge 43, Type (0, 1), BuildingBlock: XIVTED_clean_linker_0, # of connection points: 2
#     Edge 44, Type (0, 1), BuildingBlock: XIVTED_clean_linker_0, # of connection points: 2
#     Edge 45, Type (0, 1), BuildingBlock: XIVTED_clean_linker_0, # of connection points: 2
#     Edge 46, Type (0, 1), BuildingBlock: XIVTED_clean_linker_0, # of connection points: 2
#     Edge 47, Type (0, 1), BuildingBlock: XIVTED_clean_linker_0, # of connection points: 2
#     Edge 48, Type (0, 1), BuildingBlock: XIVTED_clean_linker_0, # of connection points: 2
#     Edge 49, Type (0, 1), BuildingBlock: XIVTED_clean_linker_0, # of connection points: 2
#     Edge 50, Type (0, 1), BuildingBlock: XIVTED_clean_linker_0, # of connection points: 2
#     Edge 51, Type (0, 1), BuildingBlock: XIVTED_clean_linker_0, # of connection points: 2
#     Edge 52, Type (0, 1), BuildingBlock: XIVTED_clean_linker_0, # of connection points: 2
#     Edge 53, Type (0, 1), BuildingBlock: XIVTED_clean_linker_0, # of connection points: 2
#     Edge 54, Type (0, 1), BuildingBlock: XIVTED_clean_linker_0, # of connection points: 2
#     Edge 55, Type (0, 1), BuildingBlock: XIVTED_clean_linker_0, # of connection points: 2
#     Edge 56, Type (0, 1), BuildingBlock: XIVTED_clean_linker_0, # of connection points: 2
#     Edge 57, Type (0, 1), BuildingBlock: XIVTED_clean_linker_0, # of connection points: 2
#     Edge 58, Type (0, 1), BuildingBlock: XIVTED_clean_linker_0, # of connection points: 2
#     Edge 59, Type (0, 1), BuildingBlock: XIVTED_clean_linker_0, # of connection points: 2
#     Edge 60, Type (0, 1), BuildingBlock: XIVTED_clean_linker_0, # of connection points: 2
#     Edge 61, Type (0, 1), BuildingBlock: XIVTED_clean_linker_0, # of connection points: 2
#     Edge 62, Type (0, 1), BuildingBlock: XIVTED_clean_linker_0, # of connection points: 2
#     Edge 63, Type (0, 1), BuildingBlock: XIVTED_clean_linker_0, # of connection points: 2
#     Edge 64, Type (0, 1), BuildingBlock: XIVTED_clean_linker_0, # of connection points: 2
#     Edge 65, Type (0, 1), BuildingBlock: XIVTED_clean_linker_0, # of connection points: 2
#     Edge 66, Type (0, 1), BuildingBlock: XIVTED_clean_linker_0, # of connection points: 2
#     Edge 67, Type (0, 1), BuildingBlock: XIVTED_clean_linker_0, # of connection points: 2
#     Edge 68, Type (0, 1), BuildingBlock: XIVTED_clean_linker_0, # of connection points: 2
#     Edge 69, Type (0, 1), BuildingBlock: XIVTED_clean_linker_0, # of connection points: 2
#     Edge 70, Type (0, 1), BuildingBlock: XIVTED_clean_linker_0, # of connection points: 2
#     Edge 71, Type (0, 1), BuildingBlock: XIVTED_clean_linker_0, # of connection points: 2
#     Edge 72, Type (0, 1), BuildingBlock: XIVTED_clean_linker_0, # of connection points: 2
#     Edge 73, Type (0, 1), BuildingBlock: XIVTED_clean_linker_0, # of connection points: 2
#     Edge 74, Type (0, 1), BuildingBlock: XIVTED_clean_linker_0, # of connection points: 2
#     Edge 75, Type (0, 1), BuildingBlock: XIVTED_clean_linker_0, # of connection points: 2
#     Edge 76, Type (0, 1), BuildingBlock: XIVTED_clean_linker_0, # of connection points: 2
#     Edge 77, Type (0, 1), BuildingBlock: XIVTED_clean_linker_0, # of connection points: 2
#     Edge 78, Type (0, 1), BuildingBlock: XIVTED_clean_linker_0, # of connection points: 2
#     Edge 79, Type (0, 1), BuildingBlock: XIVTED_clean_linker_0, # of connection points: 2
#     Edge 80, Type (0, 1), BuildingBlock: XIVTED_clean_linker_0, # of connection points: 2
#     Edge 81, Type (0, 1), BuildingBlock: XIVTED_clean_linker_0, # of connection points: 2
#     Edge 82, Type (0, 1), BuildingBlock: XIVTED_clean_linker_0, # of connection points: 2
#     Edge 83, Type (0, 1), BuildingBlock: XIVTED_clean_linker_0, # of connection points: 2
#     Edge 84, Type (0, 1), BuildingBlock: XIVTED_clean_linker_0, # of connection points: 2
#     Edge 85, Type (0, 1), BuildingBlock: XIVTED_clean_linker_0, # of connection points: 2
#     Edge 86, Type (0, 1), BuildingBlock: XIVTED_clean_linker_0, # of connection points: 2
#     Edge 87, Type (0, 1), BuildingBlock: XIVTED_clean_linker_0, # of connection points: 2
#     Edge 88, Type (0, 1), BuildingBlock: XIVTED_clean_linker_0, # of connection points: 2
#     Edge 89, Type (0, 1), BuildingBlock: XIVTED_clean_linker_0, # of connection points: 2
#     Edge 90, Type (0, 1), BuildingBlock: XIVTED_clean_linker_0, # of connection points: 2
#     Edge 91, Type (0, 1), BuildingBlock: XIVTED_clean_linker_0, # of connection points: 2
#     Edge 92, Type (0, 1), BuildingBlock: XIVTED_clean_linker_0, # of connection points: 2
#     Edge 93, Type (0, 1), BuildingBlock: XIVTED_clean_linker_0, # of connection points: 2
#     Edge 94, Type (0, 1), BuildingBlock: XIVTED_clean_linker_0, # of connection points: 2
#     Edge 95, Type (0, 1), BuildingBlock: XIVTED_clean_linker_0, # of connection points: 2
#     Edge 96, Type (0, 1), BuildingBlock: XIVTED_clean_linker_0, # of connection points: 2
#     Edge 97, Type (0, 1), BuildingBlock: XIVTED_clean_linker_0, # of connection points: 2
#     Edge 98, Type (0, 1), BuildingBlock: XIVTED_clean_linker_0, # of connection points: 2
#     Edge 99, Type (0, 1), BuildingBlock: XIVTED_clean_linker_0, # of connection points: 2
#     Edge 100, Type (0, 1), BuildingBlock: XIVTED_clean_linker_0, # of connection points: 2
#     Edge 101, Type (0, 1), BuildingBlock: XIVTED_clean_linker_0, # of connection points: 2
#     Edge 102, Type (0, 1), BuildingBlock: XIVTED_clean_linker_0, # of connection points: 2
#     Edge 103, Type (0, 1), BuildingBlock: XIVTED_clean_linker_0, # of connection points: 2
#     Edge 104, Type (0, 1), BuildingBlock: XIVTED_clean_linker_0, # of connection points: 2
#     Edge 105, Type (0, 1), BuildingBlock: XIVTED_clean_linker_0, # of connection points: 2
#     Edge 106, Type (0, 1), BuildingBlock: XIVTED_clean_linker_0, # of connection points: 2
#     Edge 107, Type (0, 1), BuildingBlock: XIVTED_clean_linker_0, # of connection points: 2
#     Edge 108, Type (0, 1), BuildingBlock: XIVTED_clean_linker_0, # of connection points: 2
#     Edge 109, Type (0, 1), BuildingBlock: XIVTED_clean_linker_0, # of connection points: 2
#     Edge 110, Type (0, 1), BuildingBlock: XIVTED_clean_linker_0, # of connection points: 2
#     Edge 111, Type (0, 1), BuildingBlock: XIVTED_clean_linker_0, # of connection points: 2
#     Edge 112, Type (0, 1), BuildingBlock: XIVTED_clean_linker_0, # of connection points: 2
#     Edge 113, Type (0, 1), BuildingBlock: XIVTED_clean_linker_0, # of connection points: 2
#     Edge 114, Type (0, 1), BuildingBlock: XIVTED_clean_linker_0, # of connection points: 2
#     Edge 115, Type (0, 1), BuildingBlock: XIVTED_clean_linker_0, # of connection points: 2
#     Edge 116, Type (0, 1), BuildingBlock: XIVTED_clean_linker_0, # of connection points: 2
#     Edge 117, Type (0, 1), BuildingBlock: XIVTED_clean_linker_0, # of connection points: 2
#     Edge 118, Type (0, 1), BuildingBlock: XIVTED_clean_linker_0, # of connection points: 2
#     Edge 119, Type (0, 1), BuildingBlock: XIVTED_clean_linker_0, # of connection points: 2
#     Edge 120, Type (0, 1), BuildingBlock: XIVTED_clean_linker_0, # of connection points: 2
#     Edge 121, Type (0, 1), BuildingBlock: XIVTED_clean_linker_0, # of connection points: 2
#     Edge 122, Type (0, 1), BuildingBlock: XIVTED_clean_linker_0, # of connection points: 2
#     Edge 123, Type (0, 1), BuildingBlock: XIVTED_clean_linker_0, # of connection points: 2
#     Edge 124, Type (0, 1), BuildingBlock: XIVTED_clean_linker_0, # of connection points: 2
#     Edge 125, Type (0, 1), BuildingBlock: XIVTED_clean_linker_0, # of connection points: 2
#     Edge 126, Type (0, 1), BuildingBlock: XIVTED_clean_linker_0, # of connection points: 2
#     Edge 127, Type (0, 1), BuildingBlock: XIVTED_clean_linker_0, # of connection points: 2
#     Edge 128, Type (0, 1), BuildingBlock: XIVTED_clean_linker_0, # of connection points: 2
#     Edge 129, Type (0, 1), BuildingBlock: XIVTED_clean_linker_0, # of connection points: 2
#     Edge 130, Type (0, 1), BuildingBlock: XIVTED_clean_linker_0, # of connection points: 2
#     Edge 131, Type (0, 1), BuildingBlock: XIVTED_clean_linker_0, # of connection points: 2
#     Edge 132, Type (0, 1), BuildingBlock: XIVTED_clean_linker_0, # of connection points: 2
#     Edge 133, Type (0, 1), BuildingBlock: XIVTED_clean_linker_0, # of connection points: 2
#     Edge 134, Type (0, 1), BuildingBlock: XIVTED_clean_linker_0, # of connection points: 2
#     Edge 135, Type (0, 1), BuildingBlock: XIVTED_clean_linker_0, # of connection points: 2
# Relax obj value: 0.086
# Max RMSD: 0.200
# Mean RMSD: 0.155
data_MOF--net-gar--node1-UXUYUI_clean_sbu_0--node2-KUMBUR_clean_sbu_1--edge1-XIVTED_clean_linker_0
_symmetry_space_group_name_H-M    P1
_symmetry_Int_Tables_number       1
_symmetry_cell_setting            triclinic
loop_
_symmetry_equiv_pos_as_xyz
'x, y, z'
_cell_length_a     72.633808
_cell_length_b     72.673731
_cell_length_c     68.605511
_cell_angle_alpha  95.726457
_cell_angle_beta   95.757606
_cell_angle_gamma 100.61025
loop_
_atom_site_label
_atom_site_type_symbol
_atom_site_fract_x
_atom_site_fract_y
_atom_site_fract_z
_atom_type_partial_charge
Li0 Li 0.02975 0.30218 0.34564 0.0
Li1 Li 0.0521 0.32445 0.37369 0.0
Li2 Li 0.06661 0.30395 0.34698 0.0
Li3 Li 0.04792 0.28964 0.37129 0.0
C4 C 0.04916 0.33724 0.33101 0.0
N5 N 0.04543 0.36317 0.30478 0.0
C6 C 0.04054 0.35244 0.336 0.0
C7 C 0.05609 0.33534 0.31278 0.0
C8 C 0.03873 0.36537 0.3225 0.0
C9 C 0.05401 0.34856 0.29969 0.0
C10 C 0.0202 0.29904 0.38987 0.0
C11 C 0.01747 0.30038 0.42471 0.0
N12 N 1.0035 0.28475 0.42107 0.0
C13 C 1.00579 0.28303 0.38647 0.0
C14 C 0.0261 0.30781 0.40913 0.0
C15 C 0.99754 0.276 0.40244 0.0
C16 C 0.99152 0.28233 0.33053 0.0
N17 N 1.00337 0.29941 0.33169 0.0
C18 C 0.97702 0.31298 0.31971 0.0
C19 C 0.99639 0.31458 0.3262 0.0
C20 C 0.9643 0.29568 0.3191 0.0
C21 C 0.97203 0.28018 0.32441 0.0
H22 H 0.99707 0.27038 0.33507 0.0
H23 H 1.00567 0.32818 0.32753 0.0
C24 C 0.07069 0.35952 0.39866 0.0
N25 N 0.05406 0.34866 0.38983 0.0
C26 C 0.07093 0.37651 0.4106 0.0
C27 C 0.03701 0.37098 0.40393 0.0
C28 C 0.03743 0.35417 0.39222 0.0
C29 C 0.05388 0.38245 0.41355 0.0
H30 H 0.08379 0.35492 0.39664 0.0
H31 H 0.02437 0.3454 0.38503 0.0
C32 C 0.04309 0.27417 0.32278 0.0
N33 N 0.03995 0.25996 0.28343 0.0
C34 C 0.04737 0.25652 0.31743 0.0
C35 C 0.03714 0.28456 0.30811 0.0
C36 C 0.04573 0.24959 0.29746 0.0
C37 C 0.03566 0.27714 0.28831 0.0
C38 C 0.08226 0.30253 0.39131 0.0
C39 C 0.09071 0.28704 0.38712 0.0
C40 C 0.08416 0.31133 0.41067 0.0
C41 C 0.10082 0.28046 0.40248 0.0
C42 C 0.09442 0.30435 0.42561 0.0
N43 N 0.10244 0.28918 0.42124 0.0
C44 C 0.10262 0.31897 0.33143 0.0
C45 C 0.09544 0.28589 0.33021 0.0
C46 C 0.12038 0.31816 0.32489 0.0
N47 N 0.09045 0.30297 0.33412 0.0
C48 C 0.11299 0.28444 0.32364 0.0
C49 C 0.12611 0.30071 0.32107 0.0
H50 H 0.09884 0.33254 0.33492 0.0
H51 H 0.08599 0.27324 0.33273 0.0
C52 C 0.04019 0.25077 0.37615 0.0
N53 N 0.04568 0.26813 0.38672 0.0
C54 C 0.03777 0.23446 0.38564 0.0
C55 C 0.04665 0.25396 0.41693 0.0
C56 C 0.04887 0.26994 0.4068 0.0
C57 C 0.04092 0.23583 0.40635 0.0
H58 H 0.03756 0.24955 0.36025 0.0
H59 H 0.05295 0.28379 0.41508 0.0
O60 O 0.05124 0.32452 0.34407 0.0
O61 O 0.02871 0.30593 0.37448 0.0
O62 O 0.04478 0.28117 0.34229 0.0
O63 O 0.07218 0.30907 0.37653 0.0
H64 H 0.03517 0.35416 0.35007 0.0
H65 H 0.06301 0.32376 0.3088 0.0
H66 H 0.03199 0.37715 0.32612 0.0
H67 H 0.05925 0.34723 0.28551 0.0
H68 H 0.02194 0.30697 0.4397 0.0
H69 H 1.00118 0.27597 0.37168 0.0
H70 H 0.0374 0.32008 0.41207 0.0
H71 H 0.98645 0.26355 0.40004 0.0
H72 H 0.97194 0.32545 0.31601 0.0
H73 H 0.96306 0.26645 0.32402 0.0
H74 H 0.08431 0.38468 0.41776 0.0
H75 H 0.02352 0.37497 0.40531 0.0
H76 H 0.05206 0.24831 0.32858 0.0
H77 H 0.03367 0.29818 0.31192 0.0
H78 H 0.04906 0.23598 0.29311 0.0
H79 H 0.03108 0.28505 0.27682 0.0
H80 H 0.08929 0.28005 0.37221 0.0
H81 H 0.07763 0.3233 0.41414 0.0
H82 H 0.10734 0.26841 0.39949 0.0
H83 H 0.09594 0.31095 0.44068 0.0
H84 H 0.12977 0.33125 0.32351 0.0
H85 H 0.11619 0.27055 0.32069 0.0
H86 H 0.0336 0.22087 0.37674 0.0
H87 H 0.04902 0.25583 0.43289 0.0
Li88 Li 0.027 0.76815 0.67436 0.0
Li89 Li 0.04559 0.75508 0.70085 0.0
Li90 Li 0.02307 0.73293 0.6734 0.0
Li91 Li 1.00868 0.75115 0.69977 0.0
C92 C 0.05654 0.75888 0.65756 0.0
N93 N 0.07739 0.77281 0.62884 0.0
C94 C 0.07354 0.77179 0.66291 0.0
C95 C 0.05021 0.75296 0.63761 0.0
C96 C 0.08386 0.7787 0.64817 0.0
C97 C 0.06094 0.7602 0.62331 0.0
C98 C 0.03744 0.78678 0.72023 0.0
C99 C 0.03991 0.79607 0.75527 0.0
N100 N 0.05425 0.8106 0.7537 0.0
C101 C 0.05217 0.8018 0.71894 0.0
C102 C 0.03122 0.78387 0.73851 0.0
C103 C 0.06049 0.81369 0.73604 0.0
C104 C 0.01119 0.79074 0.64777 0.0
N105 N 0.02738 0.78933 0.65884 0.0
C106 C 0.04351 0.81789 0.64829 0.0
C107 C 0.04331 0.80274 0.6595 0.0
C108 C 0.02707 0.81957 0.63641 0.0
C109 C 0.01071 0.80572 0.63646 0.0
H110 H 0.99851 0.78029 0.64783 0.0
H111 H 0.05593 0.80175 0.66875 0.0
C112 C 0.08311 0.74824 0.7032 0.0
N113 N 0.07219 0.7575 0.71415 0.0
C114 C 0.10254 0.7499 0.70908 0.0
C115 C 0.0995 0.7698 0.73825 0.0
C116 C 0.08006 0.76796 0.73165 0.0
C117 C 0.11125 0.76098 0.72675 0.0
H118 H 0.07682 0.73979 0.68946 0.0
H119 H 0.07141 0.77517 0.74045 0.0
C120 C 0.99023 0.73864 0.65521 0.0
N121 N 0.96446 0.7181 0.62486 0.0
C122 C 0.97376 0.72722 0.65938 0.0
C123 C 0.99354 0.73971 0.6356 0.0
C124 C 0.96091 0.71693 0.64383 0.0
C125 C 0.98037 0.72919 0.62046 0.0
C126 C 0.02106 0.72323 0.71889 0.0
C127 C 1.00814 0.70614 0.71661 0.0
C128 C 0.02908 0.73168 0.73776 0.0
C129 C 1.00329 0.69782 0.73336 0.0
C130 C 0.02387 0.72292 0.75415 0.0
N131 N 0.01118 0.70632 0.75163 0.0
C132 C 0.03884 0.70661 0.6503 0.0
C133 C 1.00647 0.69508 0.65181 0.0
C134 C 0.04017 0.69021 0.63836 0.0
N135 N 0.02214 0.70899 0.6566 0.0
C136 C 1.0072 0.67832 0.63991 0.0
C137 C 0.02422 0.6757 0.63283 0.0
H138 H 0.05132 0.71746 0.65468 0.0
H139 H 0.9934 0.69688 0.65727 0.0
C140 C 0.9805 0.76944 0.71712 0.0
N141 N 0.98493 0.75212 0.71305 0.0
C142 C 0.96309 0.77141 0.72376 0.0
C143 C 0.95469 0.73774 0.72233 0.0
C144 C 0.97234 0.7364 0.71575 0.0
C145 C 0.9495 0.75545 0.72622 0.0
H146 H 0.99034 0.78188 0.71474 0.0
H147 H 0.97556 0.72263 0.71207 0.0
O148 O 0.04613 0.75206 0.67178 0.0
O149 O 0.02915 0.77496 0.70369 0.0
O150 O 1.00306 0.74867 0.67024 0.0
O151 O 0.02577 0.7317 0.70271 0.0
H152 H 0.07856 0.7767 0.67827 0.0
H153 H 0.0372 0.74283 0.63322 0.0
H154 H 0.09698 0.78879 0.6521 0.0
H155 H 0.05618 0.75576 0.60782 0.0
H156 H 0.03527 0.79398 0.76953 0.0
H157 H 0.05719 0.80417 0.70491 0.0
H158 H 0.01983 0.77229 0.73974 0.0
H159 H 0.07195 0.82534 0.73529 0.0
H160 H 0.05655 0.82801 0.64877 0.0
H161 H 0.99752 0.80651 0.62803 0.0
H162 H 0.11065 0.74245 0.69977 0.0
H163 H 0.10536 0.77853 0.75199 0.0
H164 H 0.97099 0.72619 0.67446 0.0
H165 H 1.00611 0.74863 0.6321 0.0
H166 H 0.94814 0.70797 0.64686 0.0
H167 H 0.98277 0.72986 0.60522 0.0
H168 H 1.00183 0.69946 0.70205 0.0
H169 H 0.03921 0.74485 0.73972 0.0
H170 H 0.99323 0.68463 0.73185 0.0
H171 H 0.02991 0.72931 0.76886 0.0
H172 H 0.05373 0.68882 0.63379 0.0
H173 H 0.99448 0.66763 0.63611 0.0
H174 H 0.96033 0.78548 0.7268 0.0
H175 H 0.94494 0.72486 0.72362 0.0
Li176 Li 0.53097 0.8018 0.84573 0.0
Li177 Li 0.55277 0.82281 0.87305 0.0
Li178 Li 0.56764 0.80264 0.84727 0.0
Li179 Li 0.54943 0.78794 0.87276 0.0
C180 C 0.54943 0.83183 0.82702 0.0
N181 N 0.54311 0.84853 0.79318 0.0
C182 C 0.54178 0.84814 0.82779 0.0
C183 C 0.5542 0.82421 0.80914 0.0
C184 C 0.53859 0.85632 0.81049 0.0
C185 C 0.5508 0.8328 0.79217 0.0
C186 C 0.52092 0.81082 0.88946 0.0
C187 C 0.52049 0.82136 0.92385 0.0
N188 N 0.50366 0.82653 0.91929 0.0
C189 C 0.50355 0.81612 0.88512 0.0
C190 C 0.5294 0.81335 0.90899 0.0
C191 C 0.49507 0.82407 0.9004 0.0
C192 C 0.49342 0.78204 0.82699 0.0
N193 N 0.50484 0.7994 0.83156 0.0
C194 C 0.47825 0.81389 0.82278 0.0
C195 C 0.49753 0.81518 0.82937 0.0
C196 C 0.46594 0.79618 0.81837 0.0
C197 C 0.47404 0.78011 0.8203 0.0
H198 H 0.49915 0.76959 0.82927 0.0
H199 H 0.50642 0.82891 0.83365 0.0
C200 C 0.57003 0.85526 0.90228 0.0
N201 N 0.55471 0.84733 0.88901 0.0
C202 C 0.57053 0.87244 0.91397 0.0
C203 C 0.53961 0.8732 0.89806 0.0
C204 C 0.53976 0.85612 0.88663 0.0
C205 C 0.55512 0.88173 0.91209 0.0
H206 H 0.58192 0.84827 0.90385 0.0
H207 H 0.52775 0.84972 0.87595 0.0
C208 C 0.5452 0.76939 0.82597 0.0
N209 N 0.54447 0.74724 0.79064 0.0
C210 C 0.55284 0.75307 0.82559 0.0
C211 C 0.53703 0.77434 0.80842 0.0
C212 C 0.55237 0.74208 0.80756 0.0
C213 C 0.53685 0.76299 0.7907 0.0
C214 C 0.58449 0.80142 0.89089 0.0
C215 C 0.59609 0.78901 0.88516 0.0
C216 C 0.58445 0.80722 0.91092 0.0
C217 C 0.60735 0.78246 0.8996 0.0
C218 C 0.5959 0.80036 0.92492 0.0
N219 N 0.60701 0.78821 0.91902 0.0
C220 C 0.608 0.81243 0.84426 0.0
C221 C 0.59264 0.7894 0.81826 0.0
C222 C 0.62577 0.81111 0.83817 0.0
N223 N 0.59171 0.80148 0.83456 0.0
C224 C 0.61016 0.78763 0.81165 0.0
C225 C 0.62731 0.79837 0.82173 0.0
H226 H 0.6073 0.82197 0.8572 0.0
H227 H 0.57984 0.78074 0.81045 0.0
C228 C 0.535 0.76389 0.90138 0.0
N229 N 0.54774 0.76661 0.88815 0.0
C230 C 0.53308 0.74784 0.91138 0.0
C231 C 0.55738 0.73758 0.89405 0.0
C232 C 0.55885 0.75382 0.88443 0.0
C233 C 0.54422 0.73424 0.90764 0.0
H234 H 0.52595 0.77391 0.90385 0.0
H235 H 0.56873 0.75605 0.87373 0.0
O236 O 0.55268 0.82363 0.84379 0.0
O237 O 0.52968 0.80343 0.87464 0.0
O238 O 0.54544 0.78029 0.84347 0.0
O239 O 0.57323 0.80784 0.87694 0.0
H240 H 0.53824 0.85435 0.84158 0.0
H241 H 0.56049 0.81181 0.80839 0.0
H242 H 0.53254 0.86886 0.81083 0.0
H243 H 0.55433 0.827 0.7782 0.0
H244 H 0.52696 0.82348 0.93902 0.0
H245 H 0.49671 0.81418 0.87013 0.0
H246 H 0.54275 0.8092 0.9126 0.0
H247 H 0.48167 0.8283 0.89724 0.0
H248 H 0.47305 0.82679 0.82142 0.0
H249 H 0.46538 0.7661 0.81746 0.0
H250 H 0.583 0.87844 0.92422 0.0
H251 H 0.52722 0.87944 0.8961 0.0
H252 H 0.55914 0.74897 0.83902 0.0
H253 H 0.53088 0.7868 0.80847 0.0
H254 H 0.55831 0.72947 0.80703 0.0
H255 H 0.53062 0.7667 0.777 0.0
H256 H 0.59619 0.78424 0.86973 0.0
H257 H 0.57572 0.81695 0.91565 0.0
H258 H 0.61629 0.77276 0.89537 0.0
H259 H 0.59598 0.8047 0.94048 0.0
H260 H 0.63822 0.8201 0.84641 0.0
H261 H 0.61018 0.77746 0.79902 0.0
H262 H 0.52253 0.74581 0.92146 0.0
H263 H 0.56646 0.7277 0.89078 0.0
Li264 Li 0.52636 0.26893 0.17018 0.0
Li265 Li 0.54362 0.25643 0.19816 0.0
Li266 Li 0.52157 0.23347 0.17077 0.0
Li267 Li 0.50696 0.25325 0.19556 0.0
C268 C 0.55358 0.25391 0.15251 0.0
N269 N 0.57045 0.25747 0.11839 0.0
C270 C 0.57296 0.26092 0.15361 0.0
C271 C 0.5428 0.24863 0.13409 0.0
C272 C 0.58122 0.26264 0.13618 0.0
C273 C 0.55159 0.25055 0.117 0.0
C274 C 0.53503 0.28832 0.21612 0.0
C275 C 0.53816 0.29525 0.25152 0.0
N276 N 0.55049 0.31154 0.2504 0.0
C277 C 0.54767 0.30514 0.21528 0.0
C278 C 0.53017 0.28332 0.23434 0.0
C279 C 0.55537 0.31669 0.2328 0.0
C280 C 0.51339 0.2948 0.14506 0.0
N281 N 0.52889 0.28974 0.15425 0.0
C282 C 0.54909 0.31515 0.14247 0.0
C283 C 0.5465 0.29969 0.15325 0.0
C284 C 0.53339 0.32076 0.13277 0.0
C285 C 0.51533 0.31035 0.13427 0.0
H286 H 0.49949 0.28686 0.14624 0.0
H287 H 0.5586 0.29575 0.16105 0.0
C288 C 0.57593 0.24686 0.22243 0.0
N289 N 0.56974 0.26044 0.21265 0.0
C290 C 0.59521 0.24867 0.22954 0.0
C291 C 0.60164 0.27847 0.21668 0.0
C292 C 0.58228 0.27614 0.2099 0.0
C293 C 0.60862 0.26452 0.22645 0.0
H294 H 0.56604 0.23418 0.22408 0.0
H295 H 0.5774 0.28662 0.20168 0.0
C296 C 0.48715 0.23995 0.15327 0.0
N297 N 0.45624 0.22044 0.12791 0.0
C298 C 0.47279 0.22787 0.16046 0.0
C299 C 0.48575 0.2422 0.13322 0.0
C300 C 0.45728 0.21813 0.14739 0.0
C301 C 0.47004 0.23217 0.12062 0.0
C302 C 0.51541 0.22364 0.21424 0.0
C303 C 0.49975 0.20906 0.20863 0.0
C304 C 0.52271 0.22819 0.23412 0.0
C305 C 0.49154 0.19928 0.22312 0.0
C306 C 0.51412 0.21805 0.24816 0.0
N307 N 0.49883 0.20394 0.24241 0.0
C308 C 0.53811 0.20512 0.1514 0.0
C309 C 0.50488 0.19633 0.14706 0.0
C310 C 0.53966 0.18851 0.13987 0.0
N311 N 0.52093 0.20897 0.15463 0.0
C312 C 0.50579 0.17941 0.13552 0.0
C313 C 0.52338 0.1753 0.13157 0.0
H314 H 0.55079 0.21499 0.15781 0.0
H315 H 0.4913 0.19926 0.1499 0.0
C316 C 0.47028 0.2633 0.19666 0.0
N317 N 0.48271 0.25536 0.2077 0.0
C318 C 0.45262 0.26518 0.20268 0.0
C319 C 0.46055 0.25123 0.23188 0.0
C320 C 0.47809 0.24948 0.22521 0.0
C321 C 0.44725 0.25905 0.22053 0.0
H322 H 0.47399 0.26816 0.18291 0.0
H323 H 0.4879 0.24332 0.23411 0.0
O324 O 0.54516 0.25235 0.16938 0.0
O325 O 0.52761 0.2767 0.19919 0.0
O326 O 0.50235 0.24976 0.16586 0.0
O327 O 0.52351 0.23349 0.20032 0.0
H328 H 0.58151 0.26504 0.16776 0.0
H329 H 0.52781 0.24309 0.13302 0.0
H330 H 0.59619 0.26809 0.13679 0.0
H331 H 0.54341 0.24654 0.10264 0.0
H332 H 0.53457 0.29156 0.26575 0.0
H333 H 0.55156 0.30917 0.20125 0.0
H334 H 0.52039 0.27034 0.23519 0.0
H335 H 0.56522 0.32972 0.2324 0.0
H336 H 0.56326 0.32289 0.14208 0.0
H337 H 0.50282 0.31406 0.12701 0.0
H338 H 0.59964 0.23731 0.23668 0.0
H339 H 0.61107 0.2911 0.21404 0.0
H340 H 0.47367 0.22594 0.17593 0.0
H341 H 0.49666 0.25164 0.12746 0.0
H342 H 0.44608 0.20869 0.15273 0.0
H343 H 0.46878 0.23374 0.10506 0.0
H344 H 0.494 0.20538 0.19326 0.0
H345 H 0.53481 0.23948 0.23866 0.0
H346 H 0.47937 0.188 0.21902 0.0
H347 H 0.51957 0.22143 0.26362 0.0
H348 H 0.55358 0.18597 0.13773 0.0
H349 H 0.49279 0.16981 0.12947 0.0
H350 H 0.44335 0.27165 0.19339 0.0
H351 H 0.45734 0.24614 0.24569 0.0
Li352 Li 0.05459 0.80806 0.10071 0.0
Li353 Li 0.0735 0.79399 0.1264 0.0
Li354 Li 0.05268 0.77181 0.0996 0.0
Li355 Li 0.03854 0.78934 0.12568 0.0
C356 C 0.07957 0.79339 0.07832 0.0
N357 N 0.08806 0.79576 0.04019 0.0
C358 C 0.09738 0.80267 0.07495 0.0
C359 C 0.06606 0.78533 0.06234 0.0
C360 C 0.1014 0.80372 0.05555 0.0
C361 C 0.07064 0.78666 0.04316 0.0
C362 C 0.06861 0.83083 0.13685 0.0
C363 C 0.07636 0.85922 0.15986 0.0
N364 N 0.09066 0.866 0.14954 0.0
C365 C 0.08339 0.83805 0.12648 0.0
C366 C 0.06503 0.84146 0.15366 0.0
C367 C 0.09436 0.85589 0.13313 0.0
C368 C 0.04267 0.84353 0.0976 0.0
N369 N 0.05259 0.83194 0.08808 0.0
C370 C 0.05951 0.855 0.06528 0.0
C371 C 0.06091 0.83743 0.07204 0.0
C372 C 0.04965 0.86744 0.07513 0.0
C373 C 0.04112 0.86121 0.0915 0.0
H374 H 0.03607 0.83917 0.11029 0.0
H375 H 0.06889 0.82837 0.06453 0.0
C376 C 0.10408 0.77888 0.14198 0.0
N377 N 0.09723 0.79512 0.14348 0.0
C378 C 0.12039 0.77722 0.15392 0.0
C379 C 0.12274 0.80916 0.16878 0.0
C380 C 0.10619 0.81012 0.1567 0.0
C381 C 0.13015 0.7925 0.16761 0.0
H382 H 0.09664 0.767 0.13164 0.0
H383 H 0.10054 0.82284 0.15812 0.0
C384 C 0.01662 0.77608 0.08478 0.0
N385 N 0.98627 0.75373 0.06081 0.0
C386 C 1.00659 0.76001 0.09131 0.0
C387 C 0.01126 0.7808 0.06608 0.0
C388 C 0.99127 0.74889 0.07897 0.0
C389 C 0.99586 0.76931 0.05418 0.0
C390 C 0.05573 0.76566 0.14717 0.0
C391 C 0.0532 0.74666 0.15015 0.0
C392 C 0.05899 0.77957 0.16343 0.0
C393 C 0.05403 0.74188 0.1694 0.0
C394 C 0.05974 0.77421 0.18244 0.0
N395 N 0.05726 0.75563 0.18501 0.0
C396 C 0.062 0.73537 0.09624 0.0
C397 C 0.0389 0.73673 0.06998 0.0
C398 C 0.061 0.71604 0.0905 0.0
N399 N 0.05088 0.74542 0.08626 0.0
C400 C 0.03752 0.71732 0.06363 0.0
C401 C 0.04845 0.70645 0.0741 0.0
H402 H 0.07148 0.74232 0.10911 0.0
H403 H 0.03002 0.74464 0.06209 0.0
C404 C 0.01197 0.80444 0.14694 0.0
N405 N 0.0177 0.78811 0.14136 0.0
C406 C 0.99706 0.80443 0.15841 0.0
C407 C 0.99402 0.77077 0.15813 0.0
C408 C 1.00904 0.77144 0.14672 0.0
C409 C 0.98782 0.78743 0.16423 0.0
H410 H 0.01902 0.81752 0.14246 0.0
H411 H 0.01384 0.75862 0.14222 0.0
O412 O 0.07532 0.79257 0.09721 0.0
O413 O 0.05754 0.81352 0.13049 0.0
O414 O 0.03183 0.78699 0.09647 0.0
O415 O 0.05486 0.77058 0.12842 0.0
H416 H 0.10794 0.80908 0.0872 0.0
H417 H 0.05218 0.77822 0.06469 0.0
H418 H 0.11512 0.81089 0.0527 0.0
H419 H 0.06032 0.7805 0.03064 0.0
H420 H 0.07377 0.86761 0.17286 0.0
H421 H 0.08638 0.82998 0.11345 0.0
H422 H 0.05362 0.83604 0.16182 0.0
H423 H 0.10584 0.86167 0.12525 0.0
H424 H 0.06653 0.85896 0.0527 0.0
H425 H 0.03308 0.86986 0.09956 0.0
H426 H 0.12501 0.76388 0.1526 0.0
H427 H 0.12967 0.82147 0.17883 0.0
H428 H 0.01077 0.75603 0.10562 0.0
H429 H 0.01898 0.79317 0.06082 0.0
H430 H 0.98341 0.73636 0.08378 0.0
H431 H 0.99156 0.77276 0.03965 0.0
H432 H 0.05054 0.73572 0.13772 0.0
H433 H 0.06092 0.79434 0.16142 0.0
H434 H 0.05208 0.72723 0.17193 0.0
H435 H 0.06227 0.78481 0.19515 0.0
H436 H 0.07007 0.70869 0.09896 0.0
H437 H 0.02753 0.7108 0.05096 0.0
H438 H 0.9927 0.81761 0.1625 0.0
H439 H 0.98757 0.75737 0.16244 0.0
Li440 Li 0.50565 0.78607 0.45402 0.0
Li441 Li 0.48374 0.76517 0.42683 0.0
Li442 Li 0.50361 0.74932 0.45267 0.0
Li443 Li 0.51899 0.7674 0.42684 0.0
C444 C 0.47566 0.77137 0.47255 0.0
N445 N 0.46083 0.78451 0.50552 0.0
C446 C 0.46262 0.78323 0.47084 0.0
C447 C 0.48096 0.76597 0.49094 0.0
C448 C 0.45534 0.7898 0.48771 0.0
C449 C 0.47336 0.77282 0.50745 0.0
C450 C 0.50017 0.79489 0.40773 0.0
C451 C 0.49634 0.79162 0.37214 0.0
N452 N 0.49236 0.80921 0.37265 0.0
C453 C 0.49623 0.81302 0.4079 0.0
C454 C 0.50037 0.78417 0.38972 0.0
C455 C 0.49224 0.81997 0.39002 0.0
C456 C 0.524 0.82103 0.48122 0.0
N457 N 0.50856 0.81222 0.46845 0.0
C458 C 0.49703 0.84143 0.46957 0.0
C459 C 0.49511 0.82212 0.46284 0.0
C460 C 0.51292 0.85115 0.48257 0.0
C461 C 0.52635 0.84033 0.48856 0.0
H462 H 0.53485 0.8133 0.48538 0.0
H463 H 0.48309 0.81522 0.45239 0.0
C464 C 0.44916 0.74819 0.39998 0.0
N465 N 0.45942 0.76425 0.41071 0.0
C466 C 0.43216 0.74851 0.38827 0.0
C467 C 0.4364 0.78177 0.39892 0.0
C468 C 0.45319 0.78079 0.41047 0.0
C469 C 0.42547 0.7655 0.3875 0.0
H470 H 0.45412 0.73508 0.40049 0.0
H471 H 0.46135 0.79339 0.41921 0.0
C472 C 0.53967 0.77091 0.47147 0.0
N473 N 0.56655 0.77075 0.50288 0.0
C474 C 0.55742 0.76739 0.46808 0.0
C475 C 0.5356 0.77445 0.4908 0.0
C476 C 0.57082 0.76733 0.48417 0.0
C477 C 0.54938 0.77429 0.5065 0.0
C478 C 0.50076 0.73072 0.40865 0.0
C479 C 0.51083 0.71687 0.41357 0.0
C480 C 0.49285 0.73033 0.38914 0.0
C481 C 0.51324 0.70313 0.3988 0.0
C482 C 0.49555 0.71636 0.37479 0.0
N483 N 0.50563 0.70317 0.37987 0.0
C484 C 0.48909 0.71243 0.46682 0.0
C485 C 0.52225 0.721 0.47064 0.0
C486 C 0.49011 0.69466 0.47323 0.0
N487 N 0.50504 0.72532 0.46546 0.0
C488 C 0.5239 0.70344 0.47707 0.0
C489 C 0.50773 0.68962 0.47829 0.0
H490 H 0.47545 0.71566 0.46236 0.0
H491 H 0.53491 0.73094 0.46918 0.0
C492 C 0.54665 0.78433 0.40317 0.0
N493 N 0.54023 0.76841 0.41135 0.0
C494 C 0.56211 0.7854 0.39231 0.0
C495 C 0.56451 0.75389 0.39886 0.0
C496 C 0.54907 0.75347 0.40965 0.0
C497 C 0.57124 0.76999 0.38989 0.0
H498 H 0.53986 0.79632 0.40512 0.0
H499 H 0.54439 0.74129 0.41698 0.0
O500 O 0.4831 0.76496 0.45627 0.0
O501 O 0.50375 0.78763 0.42508 0.0
O502 O 0.52635 0.77086 0.45591 0.0
O503 O 0.4982 0.74424 0.42297 0.0
H504 H 0.45821 0.78735 0.45665 0.0
H505 H 0.49084 0.75656 0.49241 0.0
H506 H 0.44532 0.79908 0.48665 0.0
H507 H 0.47739 0.76882 0.5218 0.0
H508 H 0.49644 0.78344 0.3581 0.0
H509 H 0.49619 0.82163 0.42167 0.0
H510 H 0.50384 0.77033 0.38933 0.0
H511 H 0.48906 0.83394 0.38994 0.0
H512 H 0.4863 0.8487 0.46391 0.0
H513 H 0.53877 0.84663 0.49875 0.0
H514 H 0.42426 0.73546 0.38012 0.0
H515 H 0.43224 0.79531 0.39878 0.0
H516 H 0.56078 0.76464 0.45318 0.0
H517 H 0.522 0.77741 0.49365 0.0
H518 H 0.5846 0.76457 0.48178 0.0
H519 H 0.54643 0.77702 0.52155 0.0
H520 H 0.51696 0.71685 0.42858 0.0
H521 H 0.4846 0.74063 0.38509 0.0
H522 H 0.52116 0.69243 0.40239 0.0
H523 H 0.48958 0.71596 0.35963 0.0
H524 H 0.47711 0.68472 0.47356 0.0
H525 H 0.53789 0.70075 0.48097 0.0
H526 H 0.56669 0.79811 0.38567 0.0
H527 H 0.57131 0.74182 0.39786 0.0
Li528 Li 0.55347 0.30774 0.60304 0.0
Li529 Li 0.57361 0.29393 0.62998 0.0
Li530 Li 0.55096 0.27082 0.60203 0.0
Li531 Li 0.53871 0.29035 0.62738 0.0
C532 C 0.58723 0.29868 0.58907 0.0
N533 N 0.61432 0.3139 0.56657 0.0
C534 C 0.60072 0.31469 0.59686 0.0
C535 C 0.58755 0.29032 0.56988 0.0
C536 C 0.61429 0.3222 0.58523 0.0
C537 C 0.60136 0.29825 0.55873 0.0
C538 C 0.55239 0.32476 0.64672 0.0
C539 C 0.55412 0.3373 0.68087 0.0
N540 N 0.53942 0.34588 0.67615 0.0
C541 C 0.53741 0.3338 0.64216 0.0
C542 C 0.56092 0.32657 0.66618 0.0
C543 C 0.531 0.34438 0.65727 0.0
C544 C 0.53599 0.33418 0.57983 0.0
N545 N 0.55237 0.33182 0.59007 0.0
C546 C 0.56607 0.36444 0.58753 0.0
C547 C 0.56726 0.34672 0.59395 0.0
C548 C 0.54935 0.36732 0.5769 0.0
C549 C 0.53427 0.35159 0.57298 0.0
H550 H 0.52388 0.32272 0.57742 0.0
H551 H 0.58002 0.34514 0.6026 0.0
C552 C 0.60122 0.27845 0.6516 0.0
N553 N 0.59769 0.29522 0.64651 0.0
C554 C 0.61765 0.27764 0.66383 0.0
C555 C 0.62729 0.3113 0.66477 0.0
C556 C 0.61039 0.31154 0.65284 0.0
C557 C 0.63102 0.29418 0.67062 0.0
H558 H 0.59112 0.26559 0.64629 0.0
H559 H 0.6074 0.32477 0.64872 0.0
C560 C 0.52355 0.28247 0.57869 0.0
N561 N 0.50998 0.27401 0.53907 0.0
C562 C 0.50524 0.2722 0.57284 0.0
C563 C 0.53501 0.28826 0.56436 0.0
C564 C 0.49863 0.2681 0.55275 0.0
C565 C 0.52788 0.28392 0.54442 0.0
C566 C 0.54669 0.26202 0.64604 0.0
C567 C 0.53023 0.2482 0.64172 0.0
C568 C 0.55496 0.26703 0.6656 0.0
C569 C 0.52231 0.23959 0.65706 0.0
C570 C 0.54663 0.25805 0.68053 0.0
N571 N 0.53061 0.24464 0.67599 0.0
C572 C 0.56414 0.23815 0.58318 0.0
C573 C 0.53176 0.23209 0.58712 0.0
C574 C 0.56328 0.21888 0.57677 0.0
N575 N 0.54855 0.24448 0.58843 0.0
C576 C 0.53038 0.21267 0.58115 0.0
C577 C 0.54632 0.20561 0.57606 0.0
H578 H 0.5775 0.24794 0.58462 0.0
H579 H 0.51947 0.23713 0.59138 0.0
C580 C 0.49978 0.28592 0.63251 0.0
N581 N 0.51729 0.2895 0.64287 0.0
C582 C 0.48361 0.28428 0.64226 0.0
C583 C 0.5036 0.29048 0.67335 0.0
C584 C 0.51941 0.29198 0.66298 0.0
C585 C 0.4853 0.28637 0.66301 0.0
H586 H 0.49831 0.2842 0.61658 0.0
H587 H 0.53337 0.29489 0.67108 0.0
O588 O 0.57375 0.29121 0.60015 0.0
O589 O 0.55871 0.31416 0.63221 0.0
O590 O 0.53038 0.28609 0.5983 0.0
O591 O 0.55449 0.27082 0.63124 0.0
H592 H 0.60062 0.32131 0.61167 0.0
H593 H 0.5772 0.27789 0.56367 0.0
H594 H 0.62478 0.33464 0.59104 0.0
H595 H 0.60175 0.29198 0.54384 0.0
H596 H 0.56049 0.33875 0.69603 0.0
H597 H 0.5307 0.33251 0.62713 0.0
H598 H 0.57254 0.31962 0.6699 0.0
H599 H 0.51933 0.35137 0.654 0.0
H600 H 0.57824 0.37582 0.59097 0.0
H601 H 0.5209 0.35285 0.56527 0.0
H602 H 0.61997 0.2641 0.66776 0.0
H603 H 0.63715 0.32443 0.6697 0.0
H604 H 0.49627 0.26729 0.58369 0.0
H605 H 0.54922 0.29614 0.56856 0.0
H606 H 0.48449 0.26016 0.54802 0.0
H607 H 0.53658 0.28841 0.53321 0.0
H608 H 0.52351 0.24435 0.62672 0.0
H609 H 0.56748 0.27796 0.66929 0.0
H610 H 0.50953 0.22893 0.65393 0.0
H611 H 0.55284 0.26183 0.69573 0.0
H612 H 0.57605 0.21431 0.57319 0.0
H613 H 0.5169 0.20323 0.58066 0.0
H614 H 0.46989 0.28144 0.63355 0.0
H615 H 0.50573 0.29204 0.68932 0.0
Li616 Li 1.00932 0.28636 0.95253 0.0
Li617 Li 0.98653 0.26459 0.92529 0.0
Li618 Li 1.00647 0.2495 0.95208 0.0
Li619 Li 0.02123 0.26712 0.92745 0.0
C620 C 0.97341 0.27286 0.96505 0.0
N621 N 0.94726 0.28723 0.98543 0.0
C622 C 0.96678 0.28863 0.95939 0.0
C623 C 0.9668 0.2644 0.98109 0.0
C624 C 0.95356 0.29569 0.96988 0.0
C625 C 0.95355 0.27187 0.9912 0.0
C626 C 0.01332 0.29428 0.90787 0.0
C627 C 0.01266 0.2952 0.87278 0.0
N628 N 0.02879 0.30856 0.87603 0.0
C629 C 0.02985 0.30805 0.91088 0.0
C630 C 1.00462 0.28778 0.88869 0.0
C631 C 0.03747 0.31508 0.89458 0.0
C632 C 0.01667 0.31892 0.98572 0.0
N633 N 0.01185 0.31289 0.96605 0.0
C634 C 1.01037 0.34483 0.96003 0.0
C635 C 1.00846 0.32557 0.9534 0.0
C636 C 0.01557 0.35162 0.98012 0.0
C637 C 0.01846 0.33819 0.99307 0.0
H638 H 0.01925 0.30889 0.99579 0.0
H639 H 1.00421 0.32081 0.93792 0.0
C640 C 0.94941 0.24739 0.90318 0.0
N641 N 0.96211 0.26367 0.90958 0.0
C642 C 0.93197 0.24781 0.89238 0.0
C643 C 0.94092 0.28165 0.89488 0.0
C644 C 0.95814 0.28058 0.90552 0.0
C645 C 0.92739 0.26515 0.88814 0.0
H646 H 0.95274 0.23406 0.90656 0.0
H647 H 0.96841 0.29338 0.91057 0.0
C648 C 0.03598 0.27338 0.9764 0.0
N649 N 0.04864 0.27823 0.01631 0.0
C650 C 0.05502 0.28059 0.98307 0.0
C651 C 0.0234 0.26862 0.99008 0.0
C652 C 0.06115 0.28292 0.00329 0.0
C653 C 0.03006 0.2712 0.01017 0.0
C654 C 1.00653 0.23239 0.90827 0.0
C655 C 0.02153 0.22332 0.91271 0.0
C656 C 0.99725 0.22979 0.88906 0.0
C657 C 0.02716 0.2119 0.89773 0.0
C658 C 1.00329 0.21823 0.87449 0.0
N659 N 0.018 0.20962 0.87909 0.0
C660 C 0.9916 0.2122 0.9653 0.0
C661 C 0.02467 0.22188 0.97115 0.0
C662 C 0.99281 0.19447 0.97172 0.0
N663 N 1.00742 0.22559 0.96495 0.0
C664 C 0.0265 0.2044 0.97766 0.0
C665 C 1.0105 0.19004 0.97781 0.0
H666 H 0.97797 0.21499 0.95999 0.0
H667 H 0.03723 0.23234 0.97055 0.0
C668 C 0.06002 0.27432 0.92229 0.0
N669 N 0.04268 0.26802 0.91187 0.0
C670 C 0.07637 0.27594 0.91287 0.0
C671 C 0.05695 0.26473 0.88186 0.0
C672 C 0.04092 0.26336 0.89193 0.0
C673 C 0.07509 0.27102 0.89234 0.0
H674 H 0.0612 0.27829 0.938 0.0
H675 H 0.02708 0.25867 0.88371 0.0
O676 O 0.98651 0.26587 0.95511 0.0
O677 O 1.00587 0.28692 0.92361 0.0
O678 O 0.02988 0.2708 0.95658 0.0
O679 O 1.00086 0.24366 0.92269 0.0
H680 H 0.97193 0.29545 0.94714 0.0
H681 H 0.97185 0.25219 0.98566 0.0
H682 H 0.94833 0.30792 0.96569 0.0
H683 H 0.94829 0.26546 0.00363 0.0
H684 H 1.00613 0.29025 0.85784 0.0
H685 H 0.03683 0.3131 0.92565 0.0
H686 H 0.99196 0.27694 0.88609 0.0
H687 H 0.05031 0.32567 0.89667 0.0
H688 H 1.00756 0.35433 0.9494 0.0
H689 H 0.0225 0.34258 0.00871 0.0
H690 H 0.92205 0.23467 0.88771 0.0
H691 H 0.93837 0.29534 0.89177 0.0
H692 H 0.06502 0.28434 0.97277 0.0
H693 H 1.00867 0.26286 0.98533 0.0
H694 H 0.07585 0.28845 0.00862 0.0
H695 H 0.02046 0.26757 0.02089 0.0
H696 H 0.02884 0.22522 0.92754 0.0
H697 H 0.9856 0.23673 0.88543 0.0
H698 H 0.03882 0.20487 0.9009 0.0
H699 H 0.9963 0.21613 0.85953 0.0
H700 H 0.97995 0.1841 0.9712 0.0
H701 H 0.0405 0.2022 0.98244 0.0
H702 H 0.08989 0.28129 0.92163 0.0
H703 H 0.05513 0.26068 0.86607 0.0
Li704 Li 0.40405 0.02394 0.31331 0.0
Li705 Li 0.37811 1.00059 0.29423 0.0
Li706 Li 0.39857 0.02198 0.27675 0.0
Li707 Li 0.37651 0.03236 0.29814 0.0
C708 C 0.41669 0.99041 0.29598 0.0
N709 N 0.43913 0.96404 0.30169 0.0
C710 C 0.4114 0.97596 0.30752 0.0
C711 C 0.43335 0.99131 0.28719 0.0
C712 C 0.42293 0.96281 0.31027 0.0
C713 C 0.44452 0.97789 0.2903 0.0
C714 C 0.36787 0.0248 0.33204 0.0
C715 C 0.33813 0.02986 0.34206 0.0
N716 N 0.34751 0.04368 0.35634 0.0
C717 C 0.37723 0.03897 0.34688 0.0
C718 C 0.34817 0.02012 0.32966 0.0
C719 C 0.36668 0.04837 0.359 0.0
C720 C 0.43307 0.04596 0.34177 0.0
N721 N 0.42288 0.02838 0.33532 0.0
C722 C 0.43948 0.01534 0.36058 0.0
C723 C 0.42547 0.0133 0.3447 0.0
C724 C 0.45064 0.03319 0.36713 0.0
C725 C 0.44722 0.04869 0.35767 0.0
H726 H 0.43015 0.05794 0.33479 0.0
H727 H 0.41641 0.99976 0.34012 0.0
C728 C 0.37261 0.96412 0.27679 0.0
N729 N 0.36645 0.97499 0.29105 0.0
C730 C 0.36621 0.94472 0.27405 0.0
C731 C 0.34639 0.94815 0.30002 0.0
C732 C 0.35353 0.96754 0.30258 0.0
C733 C 0.35305 0.9366 0.28582 0.0
H734 H 0.38285 0.97056 0.26784 0.0
H735 H 0.34898 0.97661 0.31384 0.0
C736 C 0.42059 0.05541 0.29579 0.0
N737 N 0.45567 0.0769 0.2933 0.0
C738 C 0.42279 0.07491 0.29572 0.0
C739 C 0.43622 0.04684 0.29457 0.0
C740 C 0.44065 0.08554 0.29446 0.0
C741 C 0.45384 0.05794 0.29333 0.0
C742 C 0.35687 1.00234 0.26171 0.0
C743 C 0.35987 0.99484 0.243 0.0
C744 C 0.33976 0.99606 0.26889 0.0
C745 C 0.34584 0.9809 0.23194 0.0
C746 C 0.32609 0.98208 0.2574 0.0
N747 N 0.3294 0.97483 0.23932 0.0
C748 C 0.41172 1.0066 0.24416 0.0
C749 C 0.41666 0.04001 0.24668 0.0
C750 C 0.42046 1.00592 0.22707 0.0
N751 N 0.41009 0.02344 0.25358 0.0
C752 C 0.42591 0.04002 0.22981 0.0
C753 C 0.42782 0.02278 0.21989 0.0
H754 H 0.40627 0.9937 0.25004 0.0
H755 H 0.4149 0.05319 0.25435 0.0
C756 C 0.36991 0.06771 0.31061 0.0
N757 N 0.36169 0.05085 0.30012 0.0
C758 C 0.36224 0.08363 0.30802 0.0
C759 C 0.33712 0.06415 0.28495 0.0
C760 C 0.34527 0.04861 0.28801 0.0
C761 C 0.34616 0.08208 0.2943 0.0
H762 H 0.38319 0.06906 0.31982 0.0
H763 H 0.33935 0.03514 0.2795 0.0
O764 O 0.40534 1.00318 0.29267 0.0
O765 O 0.37796 0.01573 0.31978 0.0
O766 O 0.40312 0.04485 0.29678 0.0
O767 O 0.37059 0.01577 0.27293 0.0
H768 H 0.39858 0.97498 0.31446 0.0
H769 H 0.43762 1.0022 0.27799 0.0
H770 H 0.41901 0.95162 0.31924 0.0
H771 H 0.45745 0.97847 0.28362 0.0
H772 H 0.32287 0.02645 0.34032 0.0
H773 H 0.39247 0.0428 0.34891 0.0
H774 H 0.3407 0.00915 0.3183 0.0
H775 H 0.37374 0.05944 0.37047 0.0
H776 H 0.4412 1.00317 0.36799 0.0
H777 H 0.45536 0.06274 0.36251 0.0
H778 H 0.37142 0.93613 0.26283 0.0
H779 H 0.33615 0.94217 0.30925 0.0
H780 H 0.41081 0.08176 0.29658 0.0
H781 H 0.4348 0.03182 0.29473 0.0
H782 H 0.44256 0.10064 0.29439 0.0
H783 H 0.46605 0.05147 0.29242 0.0
H784 H 0.37285 0.99974 0.23703 0.0
H785 H 0.33718 1.00169 0.28332 0.0
H786 H 0.34802 0.97491 0.21747 0.0
H787 H 0.31287 0.97695 0.26288 0.0
H788 H 0.4219 0.9924 0.21983 0.0
H789 H 0.43147 0.05325 0.22454 0.0
H790 H 0.36949 0.09718 0.31566 0.0
H791 H 0.32486 0.06236 0.27406 0.0
Li792 Li 0.27167 0.18994 0.53042 0.0
Li793 Li 0.28666 0.16433 0.51462 0.0
Li794 Li 0.27114 0.18594 0.49453 0.0
Li795 Li 0.25238 0.16271 0.50972 0.0
C796 C 0.3068 0.2061 0.52646 0.0
N797 N 0.33252 0.23365 0.55089 0.0
C798 C 0.32253 0.20147 0.53687 0.0
C799 C 0.30423 0.22475 0.52834 0.0
C800 C 0.33536 0.2156 0.54917 0.0
C801 C 0.31736 0.23847 0.54082 0.0
C802 C 0.25803 0.15287 0.54619 0.0
C803 C 0.24769 0.12407 0.56007 0.0
N804 N 0.23435 0.13196 0.56846 0.0
C805 C 0.24422 0.1607 0.55494 0.0
C806 C 0.2598 0.13441 0.54875 0.0
C807 C 0.23238 0.1499 0.56615 0.0
C808 C 0.26022 0.21532 0.56016 0.0
N809 N 0.27353 0.20517 0.55561 0.0
C810 C 0.28802 0.2111 0.58916 0.0
C811 C 0.28729 0.20301 0.56967 0.0
C812 C 0.27418 0.22123 0.59454 0.0
C813 C 0.26033 0.22356 0.57958 0.0
H814 H 0.24898 0.21627 0.54895 0.0
H815 H 0.29734 0.19437 0.56591 0.0
C816 C 0.31852 0.15143 0.50281 0.0
N817 N 0.30733 0.15178 0.51753 0.0
C818 C 0.33437 0.14308 0.50475 0.0
C819 C 0.32671 0.13542 0.53686 0.0
C820 C 0.31114 0.1441 0.53438 0.0
C821 C 0.33862 0.13495 0.52197 0.0
H822 H 0.31519 0.1578 0.48963 0.0
H823 H 0.30229 0.14503 0.54606 0.0
C824 C 0.24332 0.20178 0.49892 0.0
N825 N 0.23104 0.22661 0.47502 0.0
C826 C 0.23138 0.19496 0.48142 0.0
C827 C 0.24893 0.22122 0.50433 0.0
C828 C 0.22536 0.20774 0.46951 0.0
C829 C 0.24258 0.23354 0.49203 0.0
C830 C 0.26046 0.14077 0.48004 0.0
C831 C 0.24361 0.13889 0.46754 0.0
C832 C 0.26816 0.12482 0.48286 0.0
C833 C 0.23469 0.12107 0.45818 0.0
C834 C 0.25882 0.10725 0.47321 0.0
N835 N 0.24241 0.10575 0.46118 0.0
C836 C 0.26785 0.18627 0.4531 0.0
C837 C 0.2816 0.21617 0.47053 0.0
C838 C 0.26995 0.19326 0.43502 0.0
N839 N 0.27362 0.19768 0.47042 0.0
C840 C 0.28401 0.22378 0.45274 0.0
C841 C 0.27824 0.21225 0.43457 0.0
H842 H 0.26177 0.17161 0.45325 0.0
H843 H 0.2863 0.22499 0.48442 0.0
C844 C 0.21263 0.15283 0.50765 0.0
N845 N 0.22855 0.14547 0.50828 0.0
C846 C 0.19503 0.14117 0.50758 0.0
C847 C 0.21047 0.11453 0.50898 0.0
C848 C 0.22777 0.1267 0.50901 0.0
C849 C 0.19377 0.12172 0.50831 0.0
H850 H 0.21361 0.16784 0.50757 0.0
H851 H 0.24061 0.12117 0.50982 0.0
O852 O 0.29393 0.19241 0.51458 0.0
O853 O 0.26942 0.16308 0.53474 0.0
O854 O 0.24981 0.18947 0.51047 0.0
O855 O 0.26944 0.1581 0.48939 0.0
H856 H 0.32476 0.18712 0.53558 0.0
H857 H 0.29213 0.22857 0.52044 0.0
H858 H 0.34755 0.21221 0.55738 0.0
H859 H 0.31549 0.25294 0.54251 0.0
H860 H 0.24883 0.10973 0.56209 0.0
H861 H 0.24246 0.17486 0.55285 0.0
H862 H 0.27017 0.128 0.54178 0.0
H863 H 0.22157 0.15574 0.57293 0.0
H864 H 0.29916 0.20909 0.59998 0.0
H865 H 0.24917 0.23094 0.58296 0.0
H866 H 0.34315 0.14293 0.4929 0.0
H867 H 0.32969 0.12961 0.5505 0.0
H868 H 0.22697 0.17995 0.47698 0.0
H869 H 0.25822 0.22674 0.51778 0.0
H870 H 0.21621 0.20266 0.45587 0.0
H871 H 0.24688 0.24863 0.49599 0.0
H872 H 0.23731 0.15101 0.46533 0.0
H873 H 0.28114 0.12594 0.4925 0.0
H874 H 0.22158 0.11942 0.44858 0.0
H875 H 0.26459 0.09479 0.47531 0.0
H876 H 0.26498 0.18384 0.42153 0.0
H877 H 0.2907 0.23845 0.45326 0.0
H878 H 0.18259 0.14742 0.50744 0.0
H879 H 0.21019 0.09963 0.50941 0.0
Li880 Li 0.15325 0.05887 0.79026 0.0
Li881 Li 0.12927 0.0397 0.80543 0.0
Li882 Li 0.15183 0.02451 0.78732 0.0
Li883 Li 0.1268 0.03821 0.76924 0.0
C884 C 0.16308 0.05359 0.82967 0.0
N885 N 0.17403 0.07457 0.86622 0.0
C886 C 0.15767 0.07093 0.83366 0.0
C887 C 0.17408 0.04692 0.84425 0.0
C888 C 0.16333 0.08132 0.85223 0.0
C889 C 0.17947 0.05774 0.86264 0.0
C890 C 0.11133 0.06778 0.7937 0.0
C891 C 0.07838 0.0643 0.79804 0.0
N892 N 0.08127 0.08291 0.80505 0.0
C893 C 0.114 0.08687 0.801 0.0
C894 C 0.09341 0.0564 0.79225 0.0
C895 C 0.09861 0.09425 0.80664 0.0
C896 C 0.16263 0.09613 0.78219 0.0
N897 N 0.16986 0.08276 0.79119 0.0
C898 C 0.19994 0.10353 0.79905 0.0
C899 C 0.18814 0.08605 0.79953 0.0
C900 C 0.19274 0.1177 0.79004 0.0
C901 C 0.17382 0.11378 0.78151 0.0
H902 H 0.14817 0.09295 0.77527 0.0
H903 H 0.19359 0.07506 0.8064 0.0
C904 C 0.11368 0.02065 0.83577 0.0
N905 N 0.11673 0.0378 0.82902 0.0
C906 C 0.10642 0.01848 0.85376 0.0
C907 C 0.10529 0.05161 0.85746 0.0
C908 C 0.11277 0.05319 0.83955 0.0
C909 C 0.10214 0.03411 0.8649 0.0
H910 H 0.11724 0.00868 0.82734 0.0
H911 H 0.11585 0.06684 0.8344 0.0
C912 C 0.16903 0.05027 0.75861 0.0
N913 N 0.19967 0.07047 0.74412 0.0
C914 C 0.16633 0.0627 0.74478 0.0
C915 C 0.18728 0.04804 0.76502 0.0
C916 C 0.18201 0.07281 0.73765 0.0
C917 C 0.20259 0.05839 0.75751 0.0
C918 C 0.10971 1.00392 0.77465 0.0
C919 C 0.11358 0.99356 0.7578 0.0
C920 C 0.09131 1.00131 0.77968 0.0
C921 C 0.09888 0.98095 0.74604 0.0
C922 C 0.077 0.98854 0.76756 0.0
N923 N 0.08104 0.97873 0.75111 0.0
C924 C 0.17068 0.99666 0.80213 0.0
C925 C 0.16832 0.99732 0.76751 0.0
C926 C 0.17961 0.98115 0.8005 0.0
N927 N 0.16518 1.0043 0.78572 0.0
C928 C 0.17707 0.98182 0.76518 0.0
C929 C 0.1827 0.97338 0.78178 0.0
H930 H 0.16787 1.00244 0.81643 0.0
H931 H 0.16383 1.00372 0.75473 0.0
C932 C 0.09518 0.04045 0.73982 0.0
N933 N 0.11221 0.03536 0.74346 0.0
C934 C 0.08652 0.03929 0.72038 0.0
C935 C 0.113 0.02763 0.7088 0.0
C936 C 0.12103 0.02889 0.72837 0.0
C937 C 0.09551 0.03296 0.70445 0.0
H938 H 0.08837 0.04568 0.7519 0.0
H939 H 0.1346 0.02501 0.73152 0.0
O940 O 0.15758 0.04306 0.81166 0.0
O941 O 0.12629 0.06024 0.78845 0.0
O942 O 0.15393 0.04076 0.76628 0.0
O943 O 0.12383 0.01665 0.78608 0.0
H944 H 0.14911 0.07629 0.8226 0.0
H945 H 0.17838 0.03351 0.84139 0.0
H946 H 0.1592 0.09475 0.85553 0.0
H947 H 0.18797 0.05275 0.87408 0.0
H948 H 0.06443 0.05562 0.79701 0.0
H949 H 0.12782 0.09586 0.80246 0.0
H950 H 0.09117 0.04159 0.78684 0.0
H951 H 0.10047 0.10899 0.81233 0.0
H952 H 0.21443 0.106 0.80585 0.0
H953 H 0.16779 0.12416 0.7741 0.0
H954 H 0.10413 1.0047 0.85885 0.0
H955 H 0.10249 0.06411 0.86569 0.0
H956 H 0.15228 0.06469 0.73982 0.0
H957 H 0.1896 0.03862 0.77587 0.0
H958 H 0.18016 0.08257 0.72704 0.0
H959 H 0.21681 0.05689 0.76241 0.0
H960 H 0.12775 0.99543 0.75372 0.0
H961 H 0.08814 0.00904 0.79284 0.0
H962 H 0.10164 0.97295 0.73285 0.0
H963 H 0.06268 0.98642 0.77122 0.0
H964 H 0.18361 0.97503 0.81366 0.0
H965 H 0.17946 0.97652 0.75052 0.0
H966 H 0.07295 0.04334 0.7179 0.0
H967 H 0.12075 0.023 0.69719 0.0
Li968 Li 0.28288 0.93251 0.01375 0.0
Li969 Li 0.29944 0.91099 0.03009 0.0
Li970 Li 0.3159 0.9384 0.01711 0.0
Li971 Li 0.29796 0.91229 0.99423 0.0
C972 C 0.3099 0.95068 0.05353 0.0
N973 N 0.33106 0.9769 0.08317 0.0
C974 C 0.31616 0.94503 0.07152 0.0
C975 C 0.31416 0.96974 0.05077 0.0
C976 C 0.32689 0.95848 0.08628 0.0
C977 C 0.32495 0.98275 0.06588 0.0
C978 C 0.27016 0.88538 0.00556 0.0
C979 C 0.2752 0.85342 0.00501 0.0
N980 N 0.25687 0.8469 0.99742 0.0
C981 C 0.25136 0.87833 0.99776 0.0
C982 C 0.28218 0.8728 0.00921 0.0
C983 C 0.24491 0.85885 0.99374 0.0
C984 C 0.24427 0.93342 0.00602 0.0
N985 N 0.26117 0.94305 0.01537 0.0
C986 C 0.24663 0.96654 0.03074 0.0
C987 C 0.26269 0.95946 0.02727 0.0
C988 C 0.22886 0.95654 0.0219 0.0
C989 C 0.22779 0.93998 0.00906 0.0
H990 H 0.24358 0.92049 0.99651 0.0
H991 H 0.27628 0.96673 0.0346 0.0
C992 C 0.31735 0.89424 0.05964 0.0
N993 N 0.30021 0.8958 0.05078 0.0
C994 C 0.31853 0.88292 0.07479 0.0
C995 C 0.2844 0.87486 0.07113 0.0
C996 C 0.28387 0.88667 0.05635 0.0
C997 C 0.3019 0.87292 0.08047 0.0
H998 H 0.33006 0.90186 0.05495 0.0
H999 H 0.27046 0.88836 0.04911 0.0
C1000 C 0.28901 0.9524 0.9861 0.0
N1001 N 0.26774 0.97774 0.97327 0.0
C1002 C 0.27232 0.94603 0.97327 0.0
C1003 C 0.29479 0.97169 0.99246 0.0
C1004 C 0.26179 0.95906 0.96693 0.0
C1005 C 0.28387 0.98426 0.98579 0.0
C1006 C 0.33599 0.91105 0.00479 0.0
C1007 C 0.33924 0.9202 0.98811 0.0
C1008 C 0.34913 0.90101 0.01244 0.0
C1009 C 0.35564 0.91917 0.97938 0.0
C1010 C 0.36536 0.90031 0.00327 0.0
N1011 N 0.36825 0.90933 0.98707 0.0
C1012 C 0.35124 0.95341 0.03759 0.0
C1013 C 0.34491 0.96736 0.00845 0.0
C1014 C 0.36952 0.96399 0.0409 0.0
N1015 N 0.33937 0.95535 0.02166 0.0
C1016 C 0.36316 0.97815 0.01111 0.0
C1017 C 0.3758 0.97628 0.02736 0.0
H1018 H 0.34666 0.94321 0.04741 0.0
H1019 H 0.3355 0.9679 0.99538 0.0
C1020 C 0.29115 0.90306 0.95273 0.0
N1021 N 0.29744 0.89713 0.96987 0.0
C1022 C 0.28945 0.89148 0.93492 0.0
C1023 C 0.30163 0.86829 0.95262 0.0
C1024 C 0.30323 0.88039 0.97004 0.0
C1025 C 0.29436 0.87366 0.93477 0.0
H1026 H 0.28747 0.91676 0.95282 0.0
H1027 H 0.30895 0.87632 0.98373 0.0
O1028 O 0.29948 0.93764 0.03885 0.0
O1029 O 0.27665 0.90447 0.00953 0.0
O1030 O 0.29938 0.93981 0.99274 0.0
O1031 O 0.32014 0.91201 0.01378 0.0
H1032 H 0.31273 0.93045 0.07411 0.0
H1033 H 0.30952 0.97441 0.03698 0.0
H1034 H 0.3319 0.95427 0.10022 0.0
H1035 H 0.32852 0.9975 0.06383 0.0
H1036 H 0.28439 0.84357 0.00773 0.0
H1037 H 0.24181 0.88777 0.99481 0.0
H1038 H 0.29681 0.87791 0.01504 0.0
H1039 H 0.2304 0.85323 0.98769 0.0
H1040 H 0.24807 0.97922 0.04096 0.0
H1041 H 0.21437 0.93201 1.00176 0.0
H1042 H 0.33224 0.88163 0.08168 0.0
H1043 H 0.27132 0.86739 0.07528 0.0
H1044 H 0.26717 0.93114 0.96873 0.0
H1045 H 0.30747 0.97694 1.00258 0.0
H1046 H 0.24878 0.95428 0.95713 0.0
H1047 H 0.2882 0.99921 0.99064 0.0
H1048 H 0.32926 0.92807 0.98198 0.0
H1049 H 0.34682 0.89384 0.02532 0.0
H1050 H 0.35834 0.92621 0.96649 0.0
H1051 H 0.37566 0.89259 0.00904 0.0
H1052 H 0.37881 0.96213 0.05361 0.0
H1053 H 0.36762 0.98707 1.00004 0.0
H1054 H 0.28438 0.89647 0.92142 0.0
H1055 H 0.30566 0.85471 0.95323 0.0
Li1056 Li 0.27762 0.39943 0.03557 0.0
Li1057 Li 0.29308 0.37748 0.05309 0.0
Li1058 Li 0.31162 0.4031 0.03775 0.0
Li1059 Li 0.29197 0.37563 0.01713 0.0
C1060 C 0.30853 0.41797 0.07274 0.0
N1061 N 0.3357 0.44344 0.09793 0.0
C1062 C 0.31882 0.41185 0.0883 0.0
C1063 C 0.31206 0.43706 0.07 0.0
C1064 C 0.33248 0.42495 0.10089 0.0
C1065 C 0.32586 0.4497 0.08287 0.0
C1066 C 0.25861 0.35822 0.04067 0.0
C1067 C 0.24999 0.32661 0.04911 0.0
N1068 N 0.23576 0.33181 0.05846 0.0
C1069 C 0.24385 0.36324 0.05025 0.0
C1070 C 0.26167 0.33975 0.03997 0.0
C1071 C 0.23247 0.34968 0.05919 0.0
C1072 C 0.24127 0.40564 0.02169 0.0
N1073 N 0.25696 0.41257 0.03476 0.0
C1074 C 0.24468 0.43994 0.04471 0.0
C1075 C 0.25872 0.42919 0.04646 0.0
C1076 C 0.22855 0.43344 0.03093 0.0
C1077 C 0.2268 0.41587 0.01956 0.0
H1078 H 0.24023 0.39239 0.01254 0.0
H1079 H 0.27122 0.43431 0.05687 0.0
C1080 C 0.30395 0.35282 0.08106 0.0
N1081 N 0.2919 0.36442 0.07634 0.0
C1082 C 0.30346 0.34469 0.09876 0.0
C1083 C 0.27805 0.36038 0.10629 0.0
C1084 C 0.27919 0.36836 0.08862 0.0
C1085 C 0.2904 0.34845 0.11179 0.0
H1086 H 0.31424 0.35021 0.07131 0.0
H1087 H 0.27003 0.37794 0.08478 0.0
C1088 C 0.28364 0.41216 1.00224 0.0
N1089 N 0.26124 0.4307 0.97935 0.0
C1090 C 0.27163 0.40232 0.98582 0.0
C1091 C 0.2842 0.43144 0.00705 0.0
C1092 C 0.26046 0.41195 0.9744 0.0
C1093 C 0.27276 0.44055 0.9953 0.0
C1094 C 0.32369 0.36479 0.02705 0.0
C1095 C 0.33821 0.37254 0.01663 0.0
C1096 C 0.31849 0.34522 0.02632 0.0
C1097 C 0.34722 0.36052 0.0055 0.0
C1098 C 0.32784 0.33368 0.01501 0.0
N1099 N 0.34188 0.3415 0.00491 0.0
C1100 C 0.35045 0.41797 0.05122 0.0
C1101 C 0.33653 0.43465 0.02772 0.0
C1102 C 0.36795 0.42999 0.05168 0.0
N1103 N 0.33521 0.42047 0.03931 0.0
C1104 C 0.35367 0.44709 0.02784 0.0
C1105 C 0.3698 0.44477 0.03977 0.0
H1106 H 0.34907 0.40641 0.0601 0.0
H1107 H 0.32434 0.43619 0.01815 0.0
C1108 C 0.27957 0.34398 0.98577 0.0
N1109 N 0.2913 0.36089 0.99191 0.0
C1110 C 0.27914 0.3351 0.96652 0.0
C1111 C 0.30302 0.36104 0.96051 0.0
C1112 C 0.30301 0.36934 0.97975 0.0
C1113 C 0.29078 0.34381 0.95347 0.0
H1114 H 0.27024 0.33758 0.99561 0.0
H1115 H 0.31212 0.38284 0.98492 0.0
O1116 O 0.29545 0.40529 0.05992 0.0
O1117 O 0.27013 0.37137 0.03216 0.0
O1118 O 0.29432 0.40288 0.01393 0.0
O1119 O 0.31436 0.3763 0.0376 0.0
H1120 H 0.31644 0.39713 0.09057 0.0
H1121 H 0.30452 0.442 0.0578 0.0
H1122 H 0.34058 0.4204 0.11297 0.0
H1123 H 0.32884 0.46448 0.08083 0.0
H1124 H 0.25226 0.31229 0.0488 0.0
H1125 H 0.24135 0.3775 0.05098 0.0
H1126 H 0.27303 0.33565 0.03261 0.0
H1127 H 0.22106 0.35339 0.06676 0.0
H1128 H 0.2465 0.45328 0.05396 0.0
H1129 H 0.2147 0.41041 0.00863 0.0
H1130 H 0.31355 0.33593 0.10237 0.0
H1131 H 0.26752 0.36356 0.1155 0.0
H1132 H 0.27071 0.38736 0.98203 0.0
H1133 H 0.29301 0.43921 0.01999 0.0
H1134 H 0.25108 0.4045 0.96168 0.0
H1135 H 0.27295 0.45541 0.99895 0.0
H1136 H 0.34231 0.38766 0.01691 0.0
H1137 H 0.30726 0.33901 0.03428 0.0
H1138 H 0.35841 0.36631 0.99727 0.0
H1139 H 0.3239 0.3185 0.01423 0.0
H1140 H 0.37998 0.42739 0.06088 0.0
H1141 H 0.35423 0.45838 0.01862 0.0
H1142 H 0.26936 0.3219 0.96173 0.0
H1143 H 0.31248 0.36817 0.95118 0.0
Li1144 Li 0.78351 0.15545 0.0516 0.0
Li1145 Li 0.79659 0.13353 0.03209 0.0
Li1146 Li 0.7821 0.15642 0.01529 0.0
Li1147 Li 0.76399 0.12964 0.02813 0.0
C1148 C 0.81239 0.18035 0.03819 0.0
N1149 N 0.82788 0.21844 0.04302 0.0
C1150 C 0.83185 0.18643 0.03865 0.0
C1151 C 0.80081 0.19363 0.04024 0.0
C1152 C 0.83941 0.20575 0.04109 0.0
C1153 C 0.80891 0.21282 0.04265 0.0
C1154 C 0.78935 0.11692 0.06311 0.0
C1155 C 0.7979 0.08682 0.06687 0.0
N1156 N 0.80958 0.09471 0.08352 0.0
C1157 C 0.80131 0.12469 0.08036 0.0
C1158 C 0.7875 0.0978 0.05639 0.0
C1159 C 0.81146 0.11325 0.09044 0.0
C1160 C 0.77056 0.17244 0.08504 0.0
N1161 N 0.78613 0.17038 0.0763 0.0
C1162 C 0.80617 0.18999 0.10309 0.0
C1163 C 0.80376 0.17859 0.08508 0.0
C1164 C 0.79025 0.19285 0.11208 0.0
C1165 C 0.77228 0.18378 0.10296 0.0
H1166 H 0.7568 0.1652 0.07826 0.0
H1167 H 0.81597 0.17624 0.07812 0.0
C1168 C 0.81823 0.10744 0.01906 0.0
N1169 N 0.81762 0.12205 0.03276 0.0
C1170 C 0.83473 0.10036 0.01838 0.0
C1171 C 0.84937 0.12316 0.04634 0.0
C1172 C 0.8326 0.12984 0.04641 0.0
C1173 C 0.85069 0.10851 0.0319 0.0
H1174 H 0.80615 0.10177 0.00823 0.0
H1175 H 0.83164 0.14159 0.057 0.0
C1176 C 0.74649 0.16353 0.03651 0.0
N1177 N 0.71499 0.17761 0.04521 0.0
C1178 C 0.73289 0.15318 0.04634 0.0
C1179 C 0.74404 0.18107 0.03115 0.0
C1180 C 0.71707 0.16053 0.05058 0.0
C1181 C 0.72804 0.18794 0.03568 0.0
C1182 C 0.76903 0.11598 0.99276 0.0
C1183 C 0.76085 0.1213 0.97542 0.0
C1184 C 0.76537 0.09704 0.99603 0.0
C1185 C 0.74879 0.10764 0.96184 0.0
C1186 C 0.75322 0.0838 0.98212 0.0
N1187 N 0.74522 0.08934 0.96546 0.0
C1188 C 0.79699 0.183 0.98998 0.0
C1189 C 0.76374 0.17301 0.98705 0.0
C1190 C 0.79518 0.19562 0.97615 0.0
N1191 N 0.78132 0.1723 0.99532 0.0
C1192 C 0.76128 0.18526 0.97312 0.0
C1193 C 0.77711 0.19691 0.96767 0.0
H1194 H 0.81083 0.18197 0.99666 0.0
H1195 H 0.75158 0.16422 0.99157 0.0
C1196 C 0.73524 0.10072 0.03592 0.0
N1197 N 0.74006 0.11382 0.02359 0.0
C1198 C 0.71654 0.09145 0.03494 0.0
C1199 C 0.70842 0.10872 0.00797 0.0
C1200 C 0.72725 0.11773 0.00955 0.0
C1201 C 0.70283 0.09582 0.02117 0.0
H1202 H 0.74571 0.09821 0.04716 0.0
H1203 H 0.73151 0.12861 1.00033 0.0
O1204 O 0.80486 0.16145 0.03574 0.0
O1205 O 0.7795 0.12799 0.05289 0.0
O1206 O 0.7619 0.1564 0.03175 0.0
O1207 O 0.78064 0.12922 0.0064 0.0
H1208 H 0.84099 0.17631 0.03711 0.0
H1209 H 0.78578 0.1892 0.04006 0.0
H1210 H 0.85445 0.21067 0.04145 0.0
H1211 H 0.80011 0.22324 0.04425 0.0
H1212 H 0.7967 0.07203 0.06176 0.0
H1213 H 0.80285 0.13942 0.08585 0.0
H1214 H 0.7782 0.0915 0.04318 0.0
H1215 H 0.82085 0.11911 0.10374 0.0
H1216 H 0.82027 0.1967 0.10975 0.0
H1217 H 0.7597 0.18527 0.10972 0.0
H1218 H 0.83524 0.08929 0.00677 0.0
H1219 H 0.86129 0.12969 0.05713 0.0
H1220 H 0.73467 0.13979 0.05102 0.0
H1221 H 0.75438 0.18934 0.02357 0.0
H1222 H 0.70649 0.15268 0.05823 0.0
H1223 H 0.72599 0.20149 0.03161 0.0
H1224 H 0.76375 0.1358 0.97245 0.0
H1225 H 0.77165 0.09264 0.00929 0.0
H1226 H 0.74227 0.11159 0.94841 0.0
H1227 H 0.75012 0.06914 0.98458 0.0
H1228 H 0.80772 0.20427 0.97216 0.0
H1229 H 0.7471 0.18599 0.96712 0.0
H1230 H 0.71272 0.08146 0.04526 0.0
H1231 H 0.6982 0.11261 0.99734 0.0
Li1232 Li 0.20717 0.55654 0.25752 0.0
Li1233 Li 0.18095 0.54524 0.27622 0.0
Li1234 Li 0.19729 0.52253 0.25829 0.0
Li1235 Li 0.17633 0.53874 0.24092 0.0
C1236 C 0.22242 0.54435 0.29495 0.0
N1237 N 0.25271 0.54832 0.32394 0.0
C1238 C 0.2233 0.55617 0.31253 0.0
C1239 C 0.23696 0.53447 0.2922 0.0
C1240 C 0.23873 0.55802 0.32698 0.0
C1241 C 0.25214 0.53668 0.30701 0.0
C1242 C 0.17347 0.57759 0.26486 0.0
C1243 C 0.14613 0.5877 0.27629 0.0
N1244 N 0.15658 0.60532 0.2819 0.0
C1245 C 0.18395 0.5958 0.27087 0.0
C1246 C 0.1544 0.57351 0.26769 0.0
C1247 C 0.17515 0.60962 0.27939 0.0
C1248 C 0.22286 0.58971 0.24408 0.0
N1249 N 0.22656 0.57789 0.25744 0.0
C1250 C 0.24953 0.60227 0.27679 0.0
C1251 C 0.24048 0.58342 0.27282 0.0
C1252 C 0.24401 0.61532 0.26483 0.0
C1253 C 0.23152 0.60871 0.24752 0.0
H1254 H 0.21159 0.58491 0.23209 0.0
H1255 H 0.24341 0.57375 0.28307 0.0
C1256 C 0.15646 0.53706 0.30487 0.0
N1257 N 0.1699 0.55056 0.29945 0.0
C1258 C 0.14725 0.54107 0.32122 0.0
C1259 C 0.16602 0.5727 0.32608 0.0
C1260 C 0.17511 0.56797 0.30993 0.0
C1261 C 0.15184 0.55919 0.33175 0.0
H1262 H 0.15275 0.52328 0.29636 0.0
H1263 H 0.18608 0.57832 0.30552 0.0
C1264 C 0.21784 0.53217 0.227 0.0
N1265 N 0.24962 0.52446 0.2114 0.0
C1266 C 0.21638 0.5234 0.20766 0.0
C1267 C 0.23549 0.53718 0.2383 0.0
C1268 C 0.2326 0.51958 0.20006 0.0
C1269 C 0.25138 0.53312 0.23019 0.0
C1270 C 0.1542 0.50926 0.25044 0.0
C1271 C 0.15567 0.49326 0.23804 0.0
C1272 C 0.13647 0.51368 0.25224 0.0
C1273 C 0.13934 0.48204 0.22744 0.0
C1274 C 0.12048 0.50212 0.24138 0.0
N1275 N 0.12224 0.48668 0.2293 0.0
C1276 C 0.20518 0.4949 0.27942 0.0
C1277 C 0.2097 0.48841 0.24581 0.0
C1278 C 0.21093 0.47847 0.28385 0.0
N1279 N 0.20506 0.4997 0.26081 0.0
C1280 C 0.21526 0.47156 0.24952 0.0
C1281 C 0.21615 0.46669 0.26882 0.0
H1282 H 0.20095 0.50402 0.29087 0.0
H1283 H 0.20899 0.4924 0.23104 0.0
C1284 C 0.1447 0.5461 0.2179 0.0
N1285 N 0.15838 0.53566 0.21833 0.0
C1286 C 0.13075 0.54318 0.20187 0.0
C1287 C 0.14552 0.51914 0.18665 0.0
C1288 C 0.15905 0.52235 0.20318 0.0
C1289 C 0.13111 0.52966 0.18585 0.0
H1290 H 0.1445 0.55662 0.23002 0.0
H1291 H 0.17001 0.51411 0.20406 0.0
O1292 O 0.20738 0.54242 0.28062 0.0
O1293 O 0.18189 0.56382 0.25653 0.0
O1294 O 0.20203 0.53587 0.23466 0.0
O1295 O 0.17008 0.52069 0.26051 0.0
H1296 H 0.2123 0.56398 0.31497 0.0
H1297 H 0.2366 0.52515 0.27881 0.0
H1298 H 0.23959 0.5672 0.3406 0.0
H1299 H 0.26346 0.52912 0.30504 0.0
H1300 H 0.13143 0.58466 0.27866 0.0
H1301 H 0.19876 0.59924 0.26928 0.0
H1302 H 0.14617 0.55941 0.26375 0.0
H1303 H 0.18313 0.62374 0.2841 0.0
H1304 H 0.25918 0.60686 0.29022 0.0
H1305 H 0.22711 0.61841 0.23785 0.0
H1306 H 0.13637 0.53032 0.32531 0.0
H1307 H 0.17006 0.58673 0.33409 0.0
H1308 H 0.20285 0.51953 0.19863 0.0
H1309 H 0.23695 0.54419 0.25313 0.0
H1310 H 0.23165 0.51273 0.18515 0.0
H1311 H 0.26513 0.53689 0.23882 0.0
H1312 H 0.16929 0.48969 0.23641 0.0
H1313 H 0.13507 0.52597 0.26181 0.0
H1314 H 0.14028 0.4697 0.21768 0.0
H1315 H 0.10668 0.50543 0.24253 0.0
H1316 H 0.21117 0.47491 0.29882 0.0
H1317 H 0.21911 0.46264 0.23761 0.0
H1318 H 0.11974 0.5514 0.20213 0.0
H1319 H 0.14653 0.50873 0.17456 0.0
Li1320 Li 0.77979 0.89978 0.53697 0.0
Li1321 Li 0.79356 0.87861 0.55522 0.0
Li1322 Li 0.81456 0.90382 0.53977 0.0
Li1323 Li 0.79353 0.87546 0.51961 0.0
C1324 C 0.79364 0.92277 0.57008 0.0
N1325 N 0.78423 0.95509 0.58784 0.0
C1326 C 0.77648 0.92186 0.57791 0.0
C1327 C 0.80599 0.94017 0.5713 0.0
C1328 C 0.77198 0.93834 0.58681 0.0
C1329 C 0.80098 0.95633 0.58033 0.0
C1330 C 0.76098 0.85882 0.54401 0.0
C1331 C 0.75352 0.82704 0.55236 0.0
N1332 N 0.74163 0.83252 0.56489 0.0
C1333 C 0.74867 0.86412 0.55696 0.0
C1334 C 0.76341 0.84012 0.54166 0.0
C1335 C 0.73902 0.85062 0.56737 0.0
C1336 C 0.74171 0.90478 0.52948 0.0
N1337 N 0.75995 0.91408 0.53369 0.0
C1338 C 0.7504 0.94375 0.53187 0.0
C1339 C 0.76448 0.93321 0.5347 0.0
C1340 C 0.7314 0.93456 0.52771 0.0
C1341 C 0.72715 0.91478 0.52656 0.0
H1342 H 0.73847 0.88956 0.52804 0.0
H1343 H 0.77908 0.94032 0.53759 0.0
C1344 C 0.80045 0.85099 0.58184 0.0
N1345 N 0.79243 0.86621 0.57916 0.0
C1346 C 0.79965 0.84287 0.59956 0.0
C1347 C 0.78237 0.86616 0.61141 0.0
C1348 C 0.78357 0.87381 0.59359 0.0
C1349 C 0.79057 0.85051 0.61474 0.0
H1350 H 0.80764 0.84524 0.57034 0.0
H1351 H 0.7773 0.88585 0.59127 0.0
C1352 C 0.78776 0.91088 0.50215 0.0
N1353 N 0.76827 0.92799 0.47488 0.0
C1354 C 0.77202 0.90041 0.48988 0.0
C1355 C 0.7936 0.93004 0.50056 0.0
C1356 C 0.76236 0.90932 0.47618 0.0
C1357 C 0.78356 0.93843 0.48668 0.0
C1358 C 0.82486 0.86474 0.5298 0.0
C1359 C 0.84027 0.87242 0.52051 0.0
C1360 C 0.81861 0.8452 0.52772 0.0
C1361 C 0.84909 0.86039 0.50916 0.0
C1362 C 0.8278 0.83364 0.51623 0.0
N1363 N 0.84271 0.84141 0.50725 0.0
C1364 C 0.85028 0.92505 0.5579 0.0
C1365 C 0.84299 0.92742 0.52391 0.0
C1366 C 0.86779 0.93706 0.55837 0.0
N1367 N 0.83828 0.92059 0.54086 0.0
C1368 C 0.86033 0.93944 0.5237 0.0
C1369 C 0.87304 0.94444 0.54108 0.0
H1370 H 0.84621 0.9193 0.57114 0.0
H1371 H 0.8334 0.92324 0.51044 0.0
C1372 C 0.78152 0.84384 0.48783 0.0
N1373 N 0.79301 0.86085 0.49421 0.0
C1374 C 0.78127 0.83523 0.46851 0.0
C1375 C 0.8046 0.86174 0.46275 0.0
C1376 C 0.80457 0.86969 0.48214 0.0
C1377 C 0.79268 0.84439 0.45556 0.0
H1378 H 0.77223 0.83714 0.49751 0.0
H1379 H 0.81355 0.88322 0.48749 0.0
O1380 O 0.79844 0.90678 0.56141 0.0
O1381 O 0.77098 0.87195 0.53411 0.0
O1382 O 0.79704 0.90252 0.51605 0.0
O1383 O 0.81565 0.87632 0.54044 0.0
H1384 H 0.76644 0.90872 0.57663 0.0
H1385 H 0.81925 0.94126 0.56525 0.0
H1386 H 0.75868 0.93784 0.59276 0.0
H1387 H 0.81041 0.96986 0.58133 0.0
H1388 H 0.75535 0.81255 0.55076 0.0
H1389 H 0.74682 0.87857 0.55923 0.0
H1390 H 0.773 0.83579 0.53189 0.0
H1391 H 0.72954 0.85457 0.57752 0.0
H1392 H 0.75437 0.95896 0.53298 0.0
H1393 H 0.71277 0.90705 0.52293 0.0
H1394 H 0.8064 0.83096 0.60144 0.0
H1395 H 0.7749 0.87239 0.6224 0.0
H1396 H 0.76717 0.88562 0.4911 0.0
H1397 H 0.80557 0.93842 0.51017 0.0
H1398 H 0.75011 0.90141 0.46664 0.0
H1399 H 0.78785 0.95327 0.48535 0.0
H1400 H 0.84528 0.8875 0.52189 0.0
H1401 H 0.80667 0.83902 0.53471 0.0
H1402 H 0.86097 0.86614 0.5018 0.0
H1403 H 0.82303 0.8185 0.51439 0.0
H1404 H 0.87705 0.94062 0.57215 0.0
H1405 H 0.8639 0.9444 0.50993 0.0
H1406 H 0.77174 0.82191 0.46354 0.0
H1407 H 0.81379 0.86921 0.4534 0.0
Li1408 Li 0.9398 0.02018 0.28244 0.0
Li1409 Li 0.91135 0.9976 0.26108 0.0
Li1410 Li 0.93603 0.0179 0.24595 0.0
Li1411 Li 0.91454 0.032 0.26248 0.0
C1412 C 0.95426 0.99148 0.25578 0.0
N1413 N 0.98452 0.98009 0.24018 0.0
C1414 C 0.95121 0.97794 0.23923 0.0
C1415 C 0.97267 0.99921 0.26442 0.0
C1416 C 0.96671 0.97238 0.23155 0.0
C1417 C 0.98778 0.99326 0.25632 0.0
C1418 C 0.90095 0.02544 0.29562 0.0
C1419 C 0.87036 0.03089 0.30262 0.0
N1420 N 0.87887 0.04528 0.31669 0.0
C1421 C 0.90937 0.04029 0.31014 0.0
C1422 C 0.88127 0.0207 0.2918 0.0
C1423 C 0.89798 0.05015 0.32064 0.0
C1424 C 0.96222 0.0392 0.31843 0.0
N1425 N 0.95503 0.02222 0.30757 0.0
C1426 C 0.96555 1.00606 0.33408 0.0
C1427 C 0.95673 1.00583 0.31493 0.0
C1428 C 0.97251 0.02334 0.34597 0.0
C1429 C 0.97097 0.04008 0.33777 0.0
H1430 H 0.96059 0.05205 0.31232 0.0
H1431 H 0.9507 0.9925 0.30609 0.0
C1432 C 0.89415 0.95948 0.24575 0.0
N1433 N 0.89497 0.97361 0.26056 0.0
C1434 C 0.88241 0.9419 0.2459 0.0
C1435 C 0.87217 0.95397 0.27618 0.0
C1436 C 0.88444 0.97108 0.2757 0.0
C1437 C 0.8711 0.93888 0.26128 0.0
H1438 H 0.90275 0.9618 0.23391 0.0
H1439 H 0.88562 0.98232 0.28756 0.0
C1440 C 0.95576 0.05267 0.2582 0.0
N1441 N 0.98336 0.07607 0.24246 0.0
C1442 C 0.95089 0.06204 0.24221 0.0
C1443 C 0.97462 0.05534 0.26635 0.0
C1444 C 0.96507 0.07375 0.23441 0.0
C1445 C 0.98838 0.06721 0.25814 0.0
C1446 C 0.89303 0.01581 0.22797 0.0
C1447 C 0.89485 0.03088 0.21666 0.0
C1448 C 0.87543 1.00401 0.22754 0.0
C1449 C 0.87892 0.03405 0.20531 0.0
C1450 C 0.85985 1.00765 0.21598 0.0
N1451 N 0.8619 0.02248 0.20522 0.0
C1452 C 0.93724 0.01409 0.20473 0.0
C1453 C 0.9678 0.02373 0.22228 0.0
C1454 C 0.94453 0.01551 0.18673 0.0
N1455 N 0.94877 0.01855 0.22212 0.0
C1456 C 0.97574 0.02523 0.20454 0.0
C1457 C 0.96402 0.02137 0.1864 0.0
H1458 H 0.92225 0.00951 0.20476 0.0
H1459 H 0.97685 0.02697 0.23615 0.0
C1460 C 0.91026 0.07013 0.26918 0.0
N1461 N 0.90053 0.05228 0.26315 0.0
C1462 C 0.9008 0.08525 0.27076 0.0
C1463 C 0.87148 0.06342 0.25965 0.0
C1464 C 0.88146 0.04876 0.25845 0.0
C1465 C 0.88108 0.08199 0.26609 0.0
H1466 H 0.92537 0.07261 0.27318 0.0
H1467 H 0.87384 0.0345 0.25416 0.0
O1468 O 0.93932 0.99739 0.26331 0.0
O1469 O 0.91192 0.01597 0.28484 0.0
O1470 O 0.94211 0.04111 0.26601 0.0
O1471 O 0.90848 0.01233 0.23902 0.0
H1472 H 0.93705 0.97194 0.23229 0.0
H1473 H 0.97527 0.00984 0.27712 0.0
H1474 H 0.96458 0.96197 0.2187 0.0
H1475 H 1.00211 0.99917 0.26281 0.0
H1476 H 0.85513 0.02746 0.29971 0.0
H1477 H 0.92455 0.04431 0.31314 0.0
H1478 H 0.87446 0.00959 0.28025 0.0
H1479 H 0.90433 0.06171 0.33188 0.0
H1480 H 0.96621 0.9928 0.3398 0.0
H1481 H 0.97628 0.05373 0.3463 0.0
H1482 H 0.88251 0.93076 0.23422 0.0
H1483 H 0.86359 0.95274 0.28818 0.0
H1484 H 0.93633 0.06021 0.23587 0.0
H1485 H 0.97858 0.04821 0.27877 0.0
H1486 H 0.96153 0.08101 0.22195 0.0
H1487 H 1.00305 0.06935 0.26421 0.0
H1488 H 0.9084 0.04004 0.2167 0.0
H1489 H 0.87379 0.99225 0.23613 0.0
H1490 H 0.88009 0.04571 0.19656 0.0
H1491 H 0.84612 0.9987 0.21558 0.0
H1492 H 0.93496 0.01191 0.17316 0.0
H1493 H 0.99086 0.02979 0.20507 0.0
H1494 H 0.90882 0.09923 0.27614 0.0
H1495 H 0.85633 0.06016 0.25568 0.0
Li1496 Li 0.27846 0.65791 0.54423 0.0
Li1497 Li 0.29292 0.63657 0.52544 0.0
Li1498 Li 0.27629 0.65744 0.50765 0.0
Li1499 Li 0.26017 0.63045 0.52197 0.0
C1500 C 0.30557 0.68372 0.52944 0.0
N1501 N 0.31847 0.72224 0.53272 0.0
C1502 C 0.32481 0.69104 0.52982 0.0
C1503 C 0.29289 0.69598 0.53076 0.0
C1504 C 0.33105 0.71056 0.53148 0.0
C1505 C 0.29969 0.71541 0.5324 0.0
C1506 C 0.28765 0.62113 0.55741 0.0
C1507 C 0.29877 0.5925 0.56263 0.0
N1508 N 0.31071 0.60188 0.57851 0.0
C1509 C 0.29993 0.63045 0.57387 0.0
C1510 C 0.28695 0.60196 0.55181 0.0
C1511 C 0.31151 0.62049 0.58432 0.0
C1512 C 0.26471 0.67388 0.57785 0.0
N1513 N 0.2803 0.67353 0.56853 0.0
C1514 C 0.29938 0.69512 0.59452 0.0
C1515 C 0.2975 0.68363 0.57662 0.0
C1516 C 0.28342 0.69602 0.60425 0.0
C1517 C 0.26592 0.68518 0.59574 0.0
H1518 H 0.25139 0.66515 0.57165 0.0
H1519 H 0.30984 0.68261 0.56933 0.0
C1520 C 0.31514 0.61059 0.51392 0.0
N1521 N 0.3148 0.62629 0.52625 0.0
C1522 C 0.33165 0.60349 0.51364 0.0
C1523 C 0.34705 0.62875 0.53899 0.0
C1524 C 0.33021 0.63537 0.53876 0.0
C1525 C 0.34794 0.61274 0.52612 0.0
H1526 H 0.30274 0.60386 0.50397 0.0
H1527 H 0.32944 0.64789 0.54833 0.0
C1528 C 0.2402 0.66268 0.529 0.0
N1529 N 0.20748 0.67443 0.53752 0.0
C1530 C 0.22766 0.65203 0.5397 0.0
C1531 C 0.23606 0.67929 0.52261 0.0
C1532 C 0.2112 0.6582 0.54386 0.0
C1533 C 0.21947 0.68501 0.52709 0.0
C1534 C 0.26557 0.61616 0.48693 0.0
C1535 C 0.25708 0.62018 0.46907 0.0
C1536 C 0.26281 0.59752 0.49128 0.0
C1537 C 0.24563 0.60557 0.45606 0.0
C1538 C 0.25124 0.58331 0.47791 0.0
N1539 N 0.24294 0.5876 0.46073 0.0
C1540 C 0.28919 0.68323 0.48083 0.0
C1541 C 0.25628 0.67093 0.47772 0.0
C1542 C 0.28657 0.69438 0.46574 0.0
N1543 N 0.27408 0.67204 0.48663 0.0
C1544 C 0.25306 0.68153 0.46237 0.0
C1545 C 0.26831 0.69356 0.45637 0.0
H1546 H 0.30323 0.68364 0.48801 0.0
H1547 H 0.24458 0.66181 0.48264 0.0
C1548 C 0.23351 0.59939 0.53 0.0
N1549 N 0.23709 0.6131 0.51805 0.0
C1550 C 0.21548 0.5883 0.52854 0.0
C1551 C 0.20549 0.60539 0.50215 0.0
C1552 C 0.2237 0.61606 0.50407 0.0
C1553 C 0.20113 0.59162 0.51481 0.0
H1554 H 0.2444 0.59763 0.54121 0.0
H1555 H 0.22702 0.62726 0.49496 0.0
O1556 O 0.29934 0.66461 0.52784 0.0
O1557 O 0.27647 0.63076 0.54677 0.0
O1558 O 0.25622 0.65668 0.52435 0.0
O1559 O 0.27657 0.63035 0.50001 0.0
H1560 H 0.3348 0.68172 0.52884 0.0
H1561 H 0.278 0.6906 0.53062 0.0
H1562 H 0.3459 0.71643 0.53178 0.0
H1563 H 0.29003 0.72506 0.53345 0.0
H1564 H 0.29846 0.57769 0.55837 0.0
H1565 H 0.30065 0.64526 0.57845 0.0
H1566 H 0.27751 0.59449 0.53916 0.0
H1567 H 0.32116 0.62756 0.59702 0.0
H1568 H 0.31315 0.70322 0.60062 0.0
H1569 H 0.25336 0.68509 0.60305 0.0
H1570 H 0.33183 0.59133 0.50322 0.0
H1571 H 0.35928 0.63619 0.54891 0.0
H1572 H 0.23072 0.63929 0.54505 0.0
H1573 H 0.24554 0.68772 0.51427 0.0
H1574 H 0.20142 0.65012 0.55218 0.0
H1575 H 0.21611 0.69785 0.52224 0.0
H1576 H 0.25933 0.63441 0.46523 0.0
H1577 H 0.26924 0.59411 0.50499 0.0
H1578 H 0.23889 0.60853 0.44225 0.0
H1579 H 0.24882 0.56888 0.48122 0.0
H1580 H 0.29865 0.70347 0.46137 0.0
H1581 H 0.23876 0.68069 0.45557 0.0
H1582 H 0.21256 0.57798 0.53874 0.0
H1583 H 0.1948 0.60826 0.49132 0.0
Li1584 Li 0.41166 0.49911 0.76365 0.0
Li1585 Li 0.43971 0.51931 0.78617 0.0
Li1586 Li 0.41579 0.53378 0.76808 0.0
Li1587 Li 0.43773 0.51982 0.74905 0.0
C1588 C 0.40045 0.52326 0.80007 0.0
N1589 N 0.37714 0.53946 0.82306 0.0
C1590 C 0.40671 0.53024 0.81981 0.0
C1591 C 0.38226 0.52438 0.79207 0.0
C1592 C 0.39472 0.53839 0.83119 0.0
C1593 C 0.37072 0.53268 0.80391 0.0
C1594 C 0.45689 0.49317 0.76553 0.0
C1595 C 0.49071 0.50226 0.76727 0.0
N1596 N 0.49217 0.48387 0.76737 0.0
C1597 C 0.4587 0.47437 0.76564 0.0
C1598 C 0.473 0.50725 0.76635 0.0
C1599 C 0.47667 0.46995 0.76659 0.0
C1600 C 0.39949 0.4596 0.75168 0.0
N1601 N 0.39455 0.47524 0.76059 0.0
C1602 C 0.36569 0.45682 0.76766 0.0
C1603 C 0.37799 0.47414 0.76845 0.0
C1604 C 0.37054 0.44028 0.75901 0.0
C1605 C 0.38765 0.4419 0.75073 0.0
H1606 H 0.41281 0.46082 0.74567 0.0
H1607 H 0.37437 0.48666 0.77556 0.0
C1608 C 0.45958 0.53729 0.82297 0.0
N1609 N 0.45512 0.52057 0.8111 0.0
C1610 C 0.46825 0.53827 0.84233 0.0
C1611 C 0.46843 0.50498 0.83668 0.0
C1612 C 0.45954 0.50459 0.81749 0.0
C1613 C 0.47252 0.5219 0.84956 0.0
H1614 H 0.45568 0.54974 0.81768 0.0
H1615 H 0.45552 0.49137 0.80796 0.0
C1616 C 0.39617 0.51881 0.72936 0.0
N1617 N 0.36824 0.52416 0.70131 0.0
C1618 C 0.40071 0.53039 0.71477 0.0
C1619 C 0.37746 0.50986 0.72964 0.0
C1620 C 0.38638 0.53294 0.70072 0.0
C1621 C 0.36353 0.51278 0.71535 0.0
C1622 C 0.45392 0.5584 0.76951 0.0
C1623 C 0.44619 0.5709 0.75848 0.0
C1624 C 0.47218 0.56394 0.77946 0.0
C1625 C 0.45694 0.58874 0.75746 0.0
C1626 C 0.48248 0.5819 0.77807 0.0
N1627 N 0.47471 0.59382 0.7672 0.0
C1628 C 0.40957 0.56711 0.78843 0.0
C1629 C 0.38886 0.55807 0.75872 0.0
C1630 C 0.40085 0.58227 0.7933 0.0
N1631 N 0.40332 0.55516 0.77154 0.0
C1632 C 0.37992 0.57326 0.76286 0.0
C1633 C 0.38572 0.58543 0.78048 0.0
H1634 H 0.42114 0.56459 0.79837 0.0
H1635 H 0.3839 0.54852 0.74545 0.0
C1636 C 0.45415 0.50523 0.71595 0.0
N1637 N 0.45077 0.52132 0.72564 0.0
C1638 C 0.46171 0.50555 0.69792 0.0
C1639 C 0.46227 0.53897 0.7001 0.0
C1640 C 0.45481 0.53803 0.71809 0.0
C1641 C 0.46566 0.52256 0.68957 0.0
H1642 H 0.45052 0.49201 0.72195 0.0
H1643 H 0.45171 0.55059 0.72568 0.0
O1644 O 0.41217 0.51562 0.78858 0.0
O1645 O 0.43941 0.49774 0.76475 0.0
O1646 O 0.41001 0.516 0.74312 0.0
O1647 O 0.44356 0.54099 0.77103 0.0
H1648 H 0.42066 0.52937 0.8263 0.0
H1649 H 0.3773 0.5194 0.77672 0.0
H1650 H 0.39941 0.54389 0.84647 0.0
H1651 H 0.35671 0.53384 0.79784 0.0
H1652 H 0.5033 0.513 0.7679 0.0
H1653 H 0.44636 0.46332 0.76508 0.0
H1654 H 0.47185 0.52186 0.76624 0.0
H1655 H 0.4783 0.45547 0.76671 0.0
H1656 H 0.35253 0.45645 0.77391 0.0
H1657 H 0.39216 0.42957 0.74412 0.0
H1658 H 0.47126 0.55165 0.85167 0.0
H1659 H 0.47126 0.49199 0.84166 0.0
H1660 H 0.41512 0.53744 0.71436 0.0
H1661 H 0.37371 0.50084 0.74082 0.0
H1662 H 0.38967 0.54191 0.68937 0.0
H1663 H 0.34897 0.50599 0.71542 0.0
H1664 H 0.43213 0.5668 0.75058 0.0
H1665 H 0.47832 0.55446 0.78815 0.0
H1666 H 0.45117 0.59853 0.74891 0.0
H1667 H 0.49664 0.58637 0.78566 0.0
H1668 H 0.40589 0.59143 0.80696 0.0
H1669 H 0.36821 0.57511 0.75265 0.0
H1670 H 0.46384 0.49246 0.69031 0.0
H1671 H 0.46525 0.55246 0.69445 0.0
Li1672 Li 0.67944 0.04979 0.77892 0.0
Li1673 Li 0.70434 0.0608 0.75989 0.0
Li1674 Li 0.67461 0.04272 0.74211 0.0
Li1675 Li 0.69645 0.0286 0.76091 0.0
C1676 C 0.68125 0.08479 0.75253 0.0
N1677 N 0.68825 0.12019 0.7401 0.0
C1678 C 0.68749 0.08711 0.73413 0.0
C1679 C 0.67831 0.10047 0.76447 0.0
C1680 C 0.69102 0.10511 0.72815 0.0
C1681 C 0.68198 0.11825 0.75795 0.0
C1682 C 0.72162 0.05684 0.79616 0.0
C1683 C 0.75525 0.06849 0.80271 0.0
N1684 N 0.75309 0.07581 0.82117 0.0
C1685 C 0.71979 0.06429 0.8153 0.0
C1686 C 0.73954 0.05876 0.7899 0.0
C1687 C 0.73583 0.0739 0.82768 0.0
C1688 C 0.65519 0.04257 0.80874 0.0
N1689 N 0.66784 0.05564 0.80159 0.0
C1690 C 0.66364 0.07974 0.82608 0.0
C1691 C 0.67245 0.07383 0.81012 0.0
C1692 C 0.64987 0.06677 0.83315 0.0
C1693 C 0.64579 0.04793 0.82447 0.0
H1694 H 0.6522 0.02806 0.80214 0.0
H1695 H 0.68303 0.08372 0.8045 0.0
C1696 C 0.7319 0.08615 0.74355 0.0
N1697 N 0.72319 0.08256 0.75981 0.0
C1698 C 0.74266 0.10402 0.74269 0.0
C1699 C 0.73631 0.11346 0.77581 0.0
C1700 C 0.72528 0.09572 0.7758 0.0
C1701 C 0.74467 0.1179 0.75891 0.0
H1702 H 0.72941 0.07561 0.7308 0.0
H1703 H 0.71748 0.09277 0.78811 0.0
C1704 C 0.64975 0.02025 0.76213 0.0
N1705 N 0.61112 0.01032 0.7619 0.0
C1706 C 0.64125 1.00146 0.76271 0.0
C1707 C 0.63858 0.03399 0.76137 0.0
C1708 C 0.6217 0.99673 0.76261 0.0
C1709 C 0.61909 0.02868 0.76128 0.0
C1710 C 0.71081 0.02953 0.72809 0.0
C1711 C 0.70147 0.01345 0.71559 0.0
C1712 C 0.73049 0.03313 0.73186 0.0
C1713 C 0.71196 1.00103 0.70737 0.0
C1714 C 0.74049 0.02038 0.72336 0.0
N1715 N 0.73109 1.00471 0.71141 0.0
C1716 C 0.64779 0.05264 0.71401 0.0
C1717 C 0.64879 0.02013 0.71274 0.0
C1718 C 0.63296 0.04886 0.69875 0.0
N1719 N 0.65555 0.03837 0.72043 0.0
C1720 C 0.63387 0.01567 0.69757 0.0
C1721 C 0.62582 0.03016 0.69031 0.0
H1722 H 0.65284 0.06692 0.72086 0.0
H1723 H 0.65473 0.009 0.71872 0.0
C1724 C 0.72287 1.00682 0.77155 0.0
N1725 N 0.70527 1.00601 0.76233 0.0
C1726 C 0.72925 0.9903 0.77448 0.0
C1727 C 0.69942 0.97239 0.75786 0.0
C1728 C 0.69362 0.98933 0.75522 0.0
C1729 C 0.71735 0.9728 0.76789 0.0
H1730 H 0.73175 0.02026 0.7771 0.0
H1731 H 0.67972 0.98922 0.74784 0.0
O1732 O 0.67844 0.06733 0.75894 0.0
O1733 O 0.70596 0.04745 0.78385 0.0
O1734 O 0.66885 0.02497 0.76178 0.0
O1735 O 0.70075 0.04164 0.73666 0.0
H1736 H 0.68986 0.07513 0.72469 0.0
H1737 H 0.67318 0.09899 0.77858 0.0
H1738 H 0.69605 0.10711 0.71405 0.0
H1739 H 0.67985 0.13051 0.76709 0.0
H1740 H 0.76916 0.07024 0.79795 0.0
H1741 H 0.70615 0.06255 0.82063 0.0
H1742 H 0.7413 0.0531 0.77521 0.0
H1743 H 0.73458 0.07979 0.84249 0.0
H1744 H 0.66721 0.09436 0.8325 0.0
H1745 H 0.63548 0.03748 0.82983 0.0
H1746 H 0.74865 0.10723 0.7293 0.0
H1747 H 0.73713 0.12405 0.78832 0.0
H1748 H 0.64966 0.99064 0.76322 0.0
H1749 H 0.64485 0.04859 0.76083 0.0
H1750 H 0.61493 0.98224 0.76306 0.0
H1751 H 0.61029 0.03916 0.7607 0.0
H1752 H 0.68629 0.01049 0.7124 0.0
H1753 H 0.73799 0.04561 0.74126 0.0
H1754 H 0.7049 0.98846 0.69779 0.0
H1755 H 0.75571 0.02294 0.72625 0.0
H1756 H 0.6273 0.0605 0.69351 0.0
H1757 H 0.62854 1.00103 0.6918 0.0
H1758 H 0.74306 0.99126 0.78255 0.0
H1759 H 0.68991 0.95916 0.7524 0.0
Li1760 Li 0.77076 0.6886 0.03245 0.0
Li1761 Li 0.78604 0.66306 0.01667 0.0
Li1762 Li 0.77011 0.68455 0.99628 0.0
Li1763 Li 0.75172 0.66107 0.01183 0.0
C1764 C 0.8056 0.70566 0.02725 0.0
N1765 N 0.83106 0.73489 0.04967 0.0
C1766 C 0.82203 0.70217 0.03742 0.0
C1767 C 0.80218 0.72401 0.02835 0.0
C1768 C 0.83471 0.71715 0.0487 0.0
C1769 C 0.8152 0.7386 0.03981 0.0
C1770 C 0.75813 0.65106 0.04829 0.0
C1771 C 0.74957 0.62195 0.06222 0.0
N1772 N 0.73578 0.62895 0.07075 0.0
C1773 C 0.74392 0.65799 0.05723 0.0
C1774 C 0.76103 0.63292 0.05081 0.0
C1775 C 0.73275 0.64658 0.06851 0.0
C1776 C 0.75869 0.71281 0.06285 0.0
N1777 N 0.77266 0.7038 0.0577 0.0
C1778 C 0.78822 0.71061 0.09083 0.0
C1779 C 0.78727 0.70264 0.07126 0.0
C1780 C 0.77378 0.71959 0.09681 0.0
C1781 C 0.75903 0.72093 0.08236 0.0
H1782 H 0.74678 0.71291 0.05208 0.0
H1783 H 0.79785 0.69483 0.06706 0.0
C1784 C 0.81676 0.64751 0.00473 0.0
N1785 N 0.80679 0.65066 0.02005 0.0
C1786 C 0.83263 0.63924 0.00741 0.0
C1787 C 0.82748 0.63749 0.0415 0.0
C1788 C 0.81179 0.64583 0.03818 0.0
C1789 C 0.8383 0.63425 0.02606 0.0
H1790 H 0.81253 0.65167 0.99052 0.0
H1791 H 0.80372 0.64873 0.05015 0.0
C1792 C 0.7416 0.70015 1.0016 0.0
N1793 N 0.72743 0.72521 0.97937 0.0
C1794 C 0.7299 0.69356 0.9839 0.0
C1795 C 0.74601 0.71947 0.00806 0.0
C1796 C 0.72292 0.70646 0.97285 0.0
C1797 C 0.73871 0.73192 0.99661 0.0
C1798 C 0.75951 0.63969 0.98168 0.0
C1799 C 0.74325 0.63865 0.96852 0.0
C1800 C 0.76625 0.62326 0.98473 0.0
C1801 C 0.73389 0.62113 0.95877 0.0
C1802 C 0.7565 0.60601 0.97466 0.0
N1803 N 0.74065 0.60531 0.96202 0.0
C1804 C 0.77078 0.68431 0.95508 0.0
C1805 C 0.77617 0.71529 0.97167 0.0
C1806 C 0.77278 0.69126 0.93696 0.0
N1807 N 0.77242 0.69627 0.97202 0.0
C1808 C 0.77818 0.72288 0.95378 0.0
C1809 C 0.77658 0.7108 0.93605 0.0
H1810 H 0.76809 0.66928 0.95559 0.0
H1811 H 0.77777 0.72463 0.98527 0.0
C1812 C 0.72758 0.62476 0.01165 0.0
N1813 N 0.72809 0.64345 0.01052 0.0
C1814 C 0.71041 0.6124 0.01184 0.0
C1815 C 0.69453 0.63868 0.00975 0.0
C1816 C 0.712 0.65052 0.00965 0.0
C1817 C 0.69355 0.61932 0.01089 0.0
H1818 H 0.74054 0.61945 0.01267 0.0
H1819 H 0.71275 0.66546 0.00923 0.0
O1820 O 0.79289 0.69115 0.01637 0.0
O1821 O 0.7689 0.66185 0.0368 0.0
O1822 O 0.74882 0.68774 0.01245 0.0
O1823 O 0.76883 0.65669 0.99147 0.0
H1824 H 0.8249 0.68805 0.03669 0.0
H1825 H 0.78953 0.72692 0.02059 0.0
H1826 H 0.84745 0.71465 0.05671 0.0
H1827 H 0.81269 0.75286 0.04089 0.0
H1828 H 0.75157 0.60784 0.0642 0.0
H1829 H 0.74137 0.67193 0.05524 0.0
H1830 H 0.77182 0.62725 0.04378 0.0
H1831 H 0.72163 0.65172 0.07544 0.0
H1832 H 0.80001 0.70937 0.10126 0.0
H1833 H 0.74739 0.72739 0.08624 0.0
H1834 H 0.84064 0.63728 0.99514 0.0
H1835 H 0.83111 0.63366 0.05604 0.0
H1836 H 0.72634 0.67865 0.9787 0.0
H1837 H 0.75513 0.72484 0.02165 0.0
H1838 H 0.71392 0.70156 0.95907 0.0
H1839 H 0.74208 0.74692 1.00138 0.0
H1840 H 0.73786 0.65122 0.96597 0.0
H1841 H 0.77877 0.62378 0.9949 0.0
H1842 H 0.72123 0.62011 0.94864 0.0
H1843 H 0.76151 0.59317 0.97695 0.0
H1844 H 0.7712 0.68134 0.92374 0.0
H1845 H 0.78133 0.73804 0.95392 0.0
H1846 H 0.71035 0.59759 0.01261 0.0
H1847 H 0.68197 0.64473 0.00937 0.0
Li1848 Li 0.86983 0.50644 0.78914 0.0
Li1849 Li 0.89847 0.52345 0.81056 0.0
Li1850 Li 0.87425 0.5387 0.79857 0.0
Li1851 Li 0.89372 0.52717 0.77484 0.0
C1852 C 0.86246 0.52723 0.82988 0.0
N1853 N 0.84344 0.54573 0.85604 0.0
C1854 C 0.87243 0.53903 0.84637 0.0
C1855 C 0.84279 0.52467 0.82683 0.0
C1856 C 0.86257 0.5483 0.8594 0.0
C1857 C 0.83344 0.53419 0.84018 0.0
C1858 C 0.90321 0.48842 0.78786 0.0
C1859 C 0.9252 0.46889 0.7787 0.0
N1860 N 0.91655 0.45522 0.78875 0.0
C1861 C 0.89457 0.47419 0.79814 0.0
C1862 C 0.91865 0.48575 0.77806 0.0
C1863 C 0.9015 0.45751 0.79839 0.0
C1864 C 0.85712 0.47294 0.76501 0.0
N1865 N 0.85405 0.48254 0.78203 0.0
C1866 C 0.83202 0.45604 0.7888 0.0
C1867 C 0.84163 0.47467 0.79381 0.0
C1868 C 0.83547 0.44556 0.77165 0.0
C1869 C 0.84793 0.45433 0.7595 0.0
H1870 H 0.86726 0.4796 0.75609 0.0
H1871 H 0.83975 0.48258 0.80742 0.0
C1872 C 0.92511 0.54062 0.84213 0.0
N1873 N 0.91716 0.5235 0.83201 0.0
C1874 C 0.93866 0.54207 0.85833 0.0
C1875 C 0.9356 0.50819 0.8536 0.0
C1876 C 0.92215 0.50742 0.83738 0.0
C1877 C 0.94386 0.52569 0.86442 0.0
H1878 H 0.92066 0.55318 0.83784 0.0
H1879 H 0.91546 0.49395 0.82945 0.0
C1880 C 0.85119 0.5165 0.75838 0.0
N1881 N 0.8212 0.49639 0.7321 0.0
C1882 C 0.85356 0.51189 0.73863 0.0
C1883 C 0.83345 0.5112 0.76464 0.0
C1884 C 0.83825 0.50165 0.7256 0.0
C1885 C 0.8185 0.50094 0.75117 0.0
C1886 C 0.9206 0.55461 0.79785 0.0
C1887 C 0.92688 0.57416 0.80084 0.0
C1888 C 0.93352 0.54285 0.79476 0.0
C1889 C 0.94601 0.58163 0.80066 0.0
C1890 C 0.95252 0.55086 0.79469 0.0
N1891 N 0.95832 0.56993 0.79762 0.0
C1892 C 0.87412 0.57462 0.81688 0.0
C1893 C 0.84648 0.56092 0.79504 0.0
C1894 C 0.86856 0.59201 0.81851 0.0
N1895 N 0.86334 0.55975 0.80481 0.0
C1896 C 0.84036 0.57802 0.79625 0.0
C1897 C 0.85185 0.59403 0.80746 0.0
H1898 H 0.88756 0.57322 0.82431 0.0
H1899 H 0.83839 0.54895 0.78532 0.0
C1900 C 0.90426 0.51297 0.74027 0.0
N1901 N 0.90573 0.52946 0.75202 0.0
C1902 C 0.91345 0.51247 0.72348 0.0
C1903 C 0.92558 0.54604 0.73118 0.0
C1904 C 0.9158 0.54594 0.74769 0.0
C1905 C 0.92446 0.5291 0.71896 0.0
H1906 H 0.89611 0.50014 0.74416 0.0
H1907 H 0.91655 0.5589 0.75722 0.0
O1908 O 0.87193 0.51841 0.8167 0.0
O1909 O 0.89638 0.50471 0.78699 0.0
O1910 O 0.86612 0.52623 0.77145 0.0
O1911 O 0.90187 0.54719 0.79796 0.0
H1912 H 0.88763 0.54115 0.849 0.0
H1913 H 0.83482 0.5155 0.81424 0.0
H1914 H 0.87013 0.55758 0.87214 0.0
H1915 H 0.81823 0.53243 0.83793 0.0
H1916 H 0.93715 0.46666 0.77119 0.0
H1917 H 0.88282 0.47611 0.80612 0.0
H1918 H 0.92555 0.49661 0.77006 0.0
H1919 H 0.89497 0.4464 0.80632 0.0
H1920 H 0.8227 0.44966 0.79869 0.0
H1921 H 0.85084 0.44675 0.74611 0.0
H1922 H 0.94478 0.55587 0.86618 0.0
H1923 H 0.93895 0.49518 0.85804 0.0
H1924 H 0.86703 0.51621 0.73338 0.0
H1925 H 0.83131 0.51467 0.77981 0.0
H1926 H 0.83994 0.4979 0.71031 0.0
H1927 H 0.80477 0.49656 0.7559 0.0
H1928 H 0.91705 0.58346 0.80325 0.0
H1929 H 0.92898 0.52771 0.79248 0.0
H1930 H 0.95106 0.59674 0.80294 0.0
H1931 H 0.96266 0.54192 0.79232 0.0
H1932 H 0.87772 0.60398 0.82745 0.0
H1933 H 0.82754 0.57899 0.78723 0.0
H1934 H 0.91249 0.49911 0.71451 0.0
H1935 H 0.93399 0.55909 0.72803 0.0
Li1936 Li 0.79841 0.41751 0.52796 0.0
Li1937 Li 0.78267 0.44065 0.51313 0.0
Li1938 Li 0.79737 0.421 0.49224 0.0
Li1939 Li 0.81535 0.44569 0.51732 0.0
C1940 C 0.76852 0.39405 0.50284 0.0
N1941 N 0.75345 0.35597 0.49389 0.0
C1942 C 0.74897 0.38774 0.49944 0.0
C1943 C 0.78039 0.38096 0.50176 0.0
C1944 C 0.74162 0.36844 0.49492 0.0
C1945 C 0.77251 0.36179 0.49719 0.0
C1946 C 0.80876 0.45486 0.55498 0.0
C1947 C 0.82294 0.48555 0.57234 0.0
N1948 N 0.82911 0.47723 0.58796 0.0
C1949 C 0.8152 0.44664 0.57128 0.0
C1950 C 0.8126 0.47451 0.55558 0.0
C1951 C 0.82547 0.45817 0.58778 0.0
C1952 C 0.81027 0.38793 0.54557 0.0
N1953 N 0.79779 0.39972 0.54606 0.0
C1954 C 0.78535 0.38677 0.57369 0.0
C1955 C 0.78519 0.39916 0.55943 0.0
C1956 C 0.79847 0.37478 0.57389 0.0
C1957 C 0.81083 0.37523 0.55941 0.0
H1958 H 0.8199 0.38852 0.53452 0.0
H1959 H 0.77535 0.40868 0.55928 0.0
C1960 C 0.74465 0.44275 0.50363 0.0
N1961 N 0.76119 0.45138 0.51455 0.0
C1962 C 0.72809 0.44922 0.50655 0.0
C1963 C 0.74625 0.47379 0.53116 0.0
C1964 C 0.76235 0.46678 0.52785 0.0
C1965 C 0.72878 0.46471 0.52077 0.0
H1966 H 0.74427 0.43057 0.49308 0.0
H1967 H 0.77564 0.4732 0.5364 0.0
C1968 C 0.83766 0.42169 0.50891 0.0
N1969 N 0.87556 0.42835 0.50418 0.0
C1970 C 0.84363 0.42807 0.49158 0.0
C1971 C 0.85098 0.41867 0.52382 0.0
C1972 C 0.86285 0.43134 0.48947 0.0
C1973 C 0.87007 0.42213 0.52115 0.0
C1974 C 0.79129 0.46343 0.48813 0.0
C1975 C 0.77595 0.46028 0.47335 0.0
C1976 C 0.79764 0.48151 0.49829 0.0
C1977 C 0.76718 0.47522 0.46906 0.0
C1978 C 0.78851 0.49609 0.49357 0.0
N1979 N 0.77358 0.49267 0.47918 0.0
C1980 C 0.78325 0.40745 0.45235 0.0
C1981 C 0.80745 0.39332 0.46657 0.0
C1982 C 0.78153 0.39544 0.43481 0.0
N1983 N 0.79613 0.40624 0.4677 0.0
C1984 C 0.80603 0.38087 0.44947 0.0
C1985 C 0.79294 0.38182 0.43327 0.0
H1986 H 0.77406 0.41744 0.45382 0.0
H1987 H 0.81721 0.39227 0.47917 0.0
C1988 C 0.85011 0.46194 0.53992 0.0
N1989 N 0.83888 0.46292 0.52313 0.0
C1990 C 0.86843 0.47232 0.54344 0.0
C1991 C 0.86351 0.48455 0.51222 0.0
C1992 C 0.84513 0.47403 0.50941 0.0
C1993 C 0.87552 0.48339 0.52923 0.0
H1994 H 0.84526 0.45226 0.55009 0.0
H1995 H 0.83621 0.47394 0.49579 0.0
O1996 O 0.77587 0.41294 0.50724 0.0
O1997 O 0.79857 0.44374 0.53871 0.0
O1998 O 0.81894 0.41901 0.51147 0.0
O1999 O 0.79979 0.44886 0.49291 0.0
H2000 H 0.73955 0.39764 0.50033 0.0
H2001 H 0.79552 0.38553 0.50439 0.0
H2002 H 0.72652 0.36338 0.49225 0.0
H2003 H 0.78156 0.35153 0.49628 0.0
H2004 H 0.82611 0.50075 0.5729 0.0
H2005 H 0.81252 0.43152 0.57118 0.0
H2006 H 0.80795 0.48121 0.54315 0.0
H2007 H 0.8306 0.45196 0.60043 0.0
H2008 H 0.77548 0.38668 0.58452 0.0
H2009 H 0.82124 0.3663 0.55917 0.0
H2010 H 0.71488 0.44198 0.49815 0.0
H2011 H 0.74733 0.48559 0.54246 0.0
H2012 H 0.83354 0.43074 0.48001 0.0
H2013 H 0.84668 0.41409 0.53748 0.0
H2014 H 0.86766 0.43638 0.47619 0.0
H2015 H 0.88054 0.41999 0.53262 0.0
H2016 H 0.77062 0.44641 0.46549 0.0
H2017 H 0.8094 0.48428 0.50981 0.0
H2018 H 0.75522 0.47291 0.45775 0.0
H2019 H 0.79326 0.51011 0.50139 0.0
H2020 H 0.77136 0.39681 0.42265 0.0
H2021 H 0.8148 0.37033 0.4492 0.0
H2022 H 0.87723 0.47103 0.55674 0.0
H2023 H 0.86858 0.49256 0.50068 0.0
Li2024 Li 0.62854 0.53936 0.30743 0.0
Li2025 Li 0.65199 0.55835 0.29174 0.0
Li2026 Li 0.62618 0.5393 0.27045 0.0
Li2027 Li 0.65208 0.52503 0.28772 0.0
C2028 C 0.60664 0.5626 0.29127 0.0
N2029 N 0.5696 0.56688 0.29132 0.0
C2030 C 0.60254 0.58035 0.29655 0.0
C2031 C 0.59188 0.54704 0.28597 0.0
C2032 C 0.58373 0.58223 0.2965 0.0
C2033 C 0.57326 0.54949 0.2861 0.0
C2034 C 0.66938 0.55361 0.32651 0.0
C2035 C 0.70103 0.56282 0.34329 0.0
N2036 N 0.69583 0.57749 0.35385 0.0
C2037 C 0.66429 0.56866 0.33761 0.0
C2038 C 0.68784 0.55056 0.32942 0.0
C2039 C 0.6779 0.58062 0.35133 0.0
C2040 C 0.61591 0.52032 0.33933 0.0
N2041 N 0.61606 0.53651 0.33088 0.0
C2042 C 0.60126 0.5493 0.35739 0.0
C2043 C 0.60901 0.55092 0.3396 0.0
C2044 C 0.60101 0.53279 0.36657 0.0
C2045 C 0.60848 0.51817 0.35724 0.0
H2046 H 0.62185 0.50916 0.33228 0.0
H2047 H 0.60975 0.56389 0.33301 0.0
C2048 C 0.66094 0.59794 0.29245 0.0
N2049 N 0.66883 0.58253 0.29425 0.0
C2050 C 0.67232 0.6157 0.29259 0.0
C2051 C 0.69982 0.60149 0.29649 0.0
C2052 C 0.6879 0.58401 0.29638 0.0
C2053 C 0.69206 0.61764 0.29446 0.0
H2054 H 0.64577 0.59637 0.29042 0.0
H2055 H 0.69388 0.57155 0.29749 0.0
C2056 C 0.61261 0.50019 0.28009 0.0
N2057 N 0.59002 0.46522 0.2676 0.0
C2058 C 0.61823 0.48764 0.26616 0.0
C2059 C 0.59562 0.49487 0.28786 0.0
C2060 C 0.60657 0.47006 0.25997 0.0
C2061 C 0.58436 0.47715 0.2813 0.0
C2062 C 0.66528 0.55353 0.25756 0.0
C2063 C 0.659 0.56754 0.24765 0.0
C2064 C 0.68416 0.55176 0.25808 0.0
C2065 C 0.67177 0.57966 0.23855 0.0
C2066 C 0.69648 0.56414 0.24877 0.0
N2067 N 0.69009 0.57773 0.2393 0.0
C2068 C 0.60473 0.55314 0.23979 0.0
C2069 C 0.60853 0.52169 0.23216 0.0
C2070 C 0.59616 0.55323 0.22058 0.0
N2071 N 0.61083 0.53755 0.24521 0.0
C2072 C 0.59992 0.52112 0.21284 0.0
C2073 C 0.59385 0.53714 0.20668 0.0
H2074 H 0.60715 0.56581 0.25015 0.0
H2075 H 0.61407 0.50971 0.23645 0.0
C2076 C 0.67006 0.49583 0.3009 0.0
N2077 N 0.66616 0.50539 0.28541 0.0
C2078 C 0.68088 0.48179 0.29893 0.0
C2079 C 0.68333 0.48775 0.26516 0.0
C2080 C 0.67236 0.50147 0.26771 0.0
C2081 C 0.68786 0.47779 0.28093 0.0
H2082 H 0.66491 0.49923 0.31481 0.0
H2083 H 0.6688 0.50907 0.25555 0.0
O2084 O 0.62504 0.56062 0.29138 0.0
O2085 O 0.65634 0.54192 0.31284 0.0
O2086 O 0.62395 0.51736 0.28659 0.0
O2087 O 0.65307 0.54181 0.26692 0.0
H2088 H 0.61378 0.59256 0.30076 0.0
H2089 H 0.5947 0.53327 0.28162 0.0
H2090 H 0.58037 0.59588 0.30061 0.0
H2091 H 0.56172 0.53756 0.28199 0.0
H2092 H 0.71541 0.56071 0.34564 0.0
H2093 H 0.65003 0.57119 0.33548 0.0
H2094 H 0.69195 0.53893 0.32092 0.0
H2095 H 0.67421 0.59241 0.35994 0.0
H2096 H 0.59596 0.56106 0.36415 0.0
H2097 H 0.60847 0.50515 0.36367 0.0
H2098 H 0.66569 0.62768 0.29067 0.0
H2099 H 0.71494 0.60234 0.29811 0.0
H2100 H 0.63137 0.4915 0.26008 0.0
H2101 H 0.59119 0.50431 0.29888 0.0
H2102 H 0.6107 0.46025 0.24912 0.0
H2103 H 0.57115 0.47287 0.28714 0.0
H2104 H 0.64448 0.56921 0.24726 0.0
H2105 H 0.68933 0.54115 0.26589 0.0
H2106 H 0.66713 0.59066 0.23096 0.0
H2107 H 0.71116 0.56301 0.24917 0.0
H2108 H 0.59162 0.56588 0.21659 0.0
H2109 H 0.59877 0.5085 0.20261 0.0
H2110 H 0.6841 0.47447 0.31146 0.0
H2111 H 0.68813 0.48488 0.25093 0.0
Tb2112 Tb 0.05787 0.04134 0.03974 0.0
C2113 C 0.99388 0.97393 0.00935 0.0
N2114 N 1.00475 0.98648 0.99984 0.0
C2115 C 1.00912 0.96134 0.97639 0.0
C2116 C 0.99106 0.9544 0.00346 0.0
C2117 C 0.0116 0.98061 0.98293 0.0
C2118 C 0.99908 0.94815 0.98691 0.0
C2119 C 0.97256 0.96851 0.03398 0.0
C2120 C 0.98474 0.98092 0.02424 0.0
C2121 C 0.97061 0.94893 0.02913 0.0
C2122 C 0.9798 0.94188 0.01383 0.0
Tb2123 Tb 1.00778 0.01761 0.0113 0.0
N2124 N 0.98652 0.99989 0.02793 0.0
C2125 C 0.96207 0.97618 0.04759 0.0
C2126 C 0.97497 1.0073 0.03977 0.0
C2127 C 0.963 0.99565 0.0502 0.0
H2128 H 0.01938 0.99083 0.97485 0.0
H2129 H 0.95429 1.00167 0.05998 0.0
H2130 H 0.04664 0.05193 0.08565 0.0
H2131 H 0.09688 0.08537 0.9933 0.0
H2132 H 0.97481 0.02219 0.04106 0.0
H2133 H 0.95257 0.96715 0.05543 0.0
H2134 H 0.08257 0.0552 0.00444 0.0
H2135 H 0.01497 0.95668 0.9633 0.0
H2136 H 0.96148 0.93916 0.03659 0.0
H2137 H 0.97764 0.92678 0.00974 0.0
H2138 H 0.04297 0.08021 0.1063 0.0
H2139 H 0.99719 0.93324 0.98184 0.0
H2140 H 0.09397 0.11565 0.0116 0.0
N2141 N 0.05497 0.06658 0.0615 0.0
C2142 C 0.06151 0.08386 0.05603 0.0
C2143 C 0.04782 0.08143 0.09198 0.0
C2144 C 0.06058 0.10059 0.0679 0.0
C2145 C 0.04936 0.06527 0.07985 0.0
C2146 C 0.05309 0.09916 0.08581 0.0
N2147 N 0.07117 0.06837 0.02821 0.0
C2148 C 0.08109 0.06836 0.01233 0.0
C2149 C 0.07821 0.10232 0.03332 0.0
C2150 C 0.0703 0.0848 0.03907 0.0
C2151 C 0.08766 0.10247 0.01649 0.0
C2152 C 0.08929 0.0854 0.00609 0.0
H2153 H 0.05214 0.11167 0.09537 0.0
H2154 H 0.06703 0.13115 0.07072 0.0
H2155 H 0.08242 0.13265 0.04038 0.0
O2156 O 0.08303 0.03178 0.03611 0.0
O2157 O 0.04321 0.05705 0.01879 0.0
O2158 O 0.01208 0.04797 0.02234 0.0
O2159 O 0.08004 0.04834 0.06295 0.0
O2160 O 0.05843 0.02549 0.01078 0.0
O2161 O 0.03008 0.02768 0.99369 0.0
O2162 O 0.97976 0.01656 0.99905 0.0
O2163 O 0.0285 0.9991 0.01788 0.0
O2164 O 0.04598 0.01291 0.04705 0.0
O2165 O 1.00277 0.02273 0.98194 0.0
O2166 O 1.00836 0.03335 0.0407 0.0
O2167 O 0.03613 0.02955 0.05747 0.0
C2168 C 0.02611 0.06083 0.01843 0.0
C2169 C 0.09625 0.02336 0.06556 0.0
C2170 C 0.11808 1.00212 0.0704 0.0
C2171 C 0.10698 0.99352 0.08387 0.0
C2172 C 0.08525 0.01473 0.07911 0.0
C2173 C 0.09069 0.9999 0.08826 0.0
C2174 C 0.1126 0.01708 0.06136 0.0
C2175 C 0.04773 0.02576 0.99417 0.0
C2176 C 0.09009 0.03772 0.0543 0.0
C2177 C 0.06778 0.11816 0.06188 0.0
C2178 C 0.0766 0.11902 0.04464 0.0
C2179 C 0.03808 0.99767 0.03487 0.0
C2180 C 0.97873 0.03975 0.97701 0.0
C2181 C 0.96075 0.06465 0.98238 0.0
C2182 C 0.96838 0.07321 0.9667 0.0
C2183 C 0.986 0.04836 0.96119 0.0
C2184 C 0.9662 0.04805 0.98757 0.0
C2185 C 0.98095 0.06507 0.95621 0.0
C2186 C 0.01834 0.03104 0.05704 0.0
C2187 C 0.98504 0.02273 0.98291 0.0
H2188 H 0.11093 0.98194 0.09101 0.0
H2189 H 0.07235 0.0192 0.08235 0.0
H2190 H 0.08212 0.9932 0.09858 0.0
H2191 H 0.1207 0.02342 0.05044 0.0
H2192 H 0.96433 0.08592 0.96225 0.0
H2193 H 0.99576 0.04228 0.95282 0.0
H2194 H 0.96081 0.04171 1.00002 0.0
H2195 H 0.98669 0.07167 0.94408 0.0
Tb2196 Tb 0.26829 0.79489 0.29997 0.0
C2197 C 0.30258 0.72469 0.25549 0.0
N2198 N 0.30667 0.74371 0.25645 0.0
C2199 C 0.33957 0.74294 0.2564 0.0
C2200 C 0.31685 0.71394 0.25548 0.0
C2201 C 0.32481 0.75291 0.25607 0.0
C2202 C 0.3356 0.72337 0.25637 0.0
C2203 C 0.27864 0.69622 0.25031 0.0
C2204 C 0.28389 0.71602 0.25305 0.0
C2205 C 0.29273 0.6853 0.25115 0.0
C2206 C 0.31184 0.69416 0.2538 0.0
Tb2207 Tb 0.28178 0.75891 0.25569 0.0
N2208 N 0.27085 0.72711 0.25207 0.0
C2209 C 0.25944 0.68806 0.24621 0.0
C2210 C 0.25212 0.71929 0.24771 0.0
C2211 C 0.24612 0.69966 0.24486 0.0
H2212 H 0.3279 0.768 0.2558 0.0
H2213 H 0.23125 0.6935 0.24155 0.0
H2214 H 0.26365 0.8315 0.27664 0.0
H2215 H 0.2965 0.79126 0.37495 0.0
H2216 H 0.24178 0.72817 0.2463 0.0
H2217 H 0.25479 0.67288 0.24385 0.0
H2218 H 0.2775 0.77924 0.34278 0.0
H2219 H 0.35396 0.75034 0.25653 0.0
H2220 H 0.28901 0.67004 0.2493 0.0
H2221 H 0.32258 0.68561 0.25392 0.0
H2222 H 0.27728 0.86568 0.28049 0.0
H2223 H 0.34702 0.71565 0.2564 0.0
H2224 H 0.31444 0.82418 0.38083 0.0
N2225 N 0.27921 0.82668 0.30292 0.0
C2226 C 0.29104 0.8345 0.31934 0.0
C2227 C 0.28136 0.85704 0.2915 0.0
C2228 C 0.29909 0.85388 0.32231 0.0
C2229 C 0.27373 0.83769 0.28932 0.0
C2230 C 0.29437 0.86513 0.30791 0.0
N2231 N 0.28474 0.80499 0.33052 0.0
C2232 C 0.28511 0.79366 0.34525 0.0
C2233 C 0.30492 0.83073 0.35185 0.0
C2234 C 0.29388 0.82319 0.33378 0.0
C2235 C 0.30611 0.81897 0.3667 0.0
C2236 C 0.29595 0.8004 0.36346 0.0
H2237 H 0.30024 0.8801 0.30958 0.0
H2238 H 0.31745 0.87625 0.34238 0.0
H2239 H 0.32257 0.85591 0.36833 0.0
O2240 O 0.24072 0.77983 0.30064 0.0
O2241 O 0.27895 0.80089 0.27248 0.0
O2242 O 0.30169 0.78571 0.26382 0.0
O2243 O 0.24921 0.80893 0.31337 0.0
O2244 O 0.2949 0.7849 0.30804 0.0
O2245 O 0.30228 0.76361 0.28285 0.0
O2246 O 0.2788 0.7474 0.22612 0.0
O2247 O 0.2599 0.7547 0.2749 0.0
O2248 O 0.26802 0.76615 0.30678 0.0
O2249 O 0.2829 0.77752 0.23386 0.0
O2250 O 0.25246 0.76395 0.25492 0.0
O2251 O 0.25616 0.79481 0.26888 0.0
C2252 C 0.29659 0.80131 0.27022 0.0
C2253 C 0.22715 0.78974 0.3288 0.0
C2254 C 0.22657 0.77519 0.35922 0.0
C2255 C 0.21272 0.78517 0.36476 0.0
C2256 C 0.21322 0.79952 0.33441 0.0
C2257 C 0.20595 0.79713 0.35228 0.0
C2258 C 0.23355 0.77733 0.34107 0.0
C2259 C 0.30568 0.77354 0.3007 0.0
C2260 C 0.23597 0.79388 0.31101 0.0
C2261 C 0.31095 0.86142 0.33986 0.0
C2262 C 0.31385 0.84984 0.35463 0.0
C2263 C 0.26392 0.75177 0.2931 0.0
C2264 C 0.29691 0.76649 0.20642 0.0
C2265 C 0.30983 0.78207 0.17959 0.0
C2266 C 0.32316 0.77034 0.17902 0.0
C2267 C 0.3104 0.75488 0.20572 0.0
C2268 C 0.29686 0.78024 0.19347 0.0
C2269 C 0.32352 0.75692 0.19217 0.0
C2270 C 0.24674 0.78027 0.25636 0.0
C2271 C 0.28228 0.76385 0.21983 0.0
H2272 H 0.20709 0.78365 0.37867 0.0
H2273 H 0.20821 0.80923 0.32512 0.0
H2274 H 0.19526 0.80477 0.3566 0.0
H2275 H 0.24436 0.76981 0.33682 0.0
H2276 H 0.33326 0.77158 0.1684 0.0
H2277 H 0.31064 0.744 0.21536 0.0
H2278 H 0.28633 0.78906 0.19374 0.0
H2279 H 0.33381 0.7479 0.19167 0.0
Tb2280 Tb 0.50659 0.0261 0.53887 0.0
C2281 C 0.58264 0.07271 0.52802 0.0
N2282 N 0.57001 0.06033 0.51476 0.0
C2283 C 0.57308 0.08224 0.49084 0.0
C2284 C 0.59031 0.09082 0.52354 0.0
C2285 C 0.56571 0.06448 0.49606 0.0
C2286 C 0.58525 0.09557 0.50472 0.0
C2287 C 0.60118 0.07925 0.56013 0.0
C2288 C 0.58791 0.06696 0.54602 0.0
C2289 C 0.60832 0.09764 0.55615 0.0
C2290 C 0.60293 0.1034 0.53786 0.0
Tb2291 Tb 0.55928 0.03156 0.52435 0.0
N2292 N 0.58094 0.04895 0.54913 0.0
C2293 C 0.60738 0.07244 0.57749 0.0
C2294 C 0.58838 0.04179 0.56513 0.0
C2295 C 0.60122 0.05351 0.57981 0.0
H2296 H 0.55642 0.05413 0.48531 0.0
H2297 H 0.60667 0.04782 0.5927 0.0
H2298 H 0.51141 0.0216 0.58729 0.0
H2299 H 0.45849 0.98463 0.47907 0.0
H2300 H 0.58492 0.02693 0.56642 0.0
H2301 H 0.61755 0.08142 0.58873 0.0
H2302 H 0.4817 0.0126 0.49551 0.0
H2303 H 0.56939 0.08565 0.47613 0.0
H2304 H 0.61841 0.10734 0.56688 0.0
H2305 H 0.60887 0.11747 0.53481 0.0
H2306 H 0.50378 0.99633 0.60815 0.0
H2307 H 0.59089 0.10933 0.50065 0.0
H2308 H 0.44966 0.95706 0.49709 0.0
N2309 N 0.49961 1.0043 0.56036 0.0
C2310 C 0.48817 0.98777 0.55226 0.0
C2311 C 0.49959 0.9936 0.59238 0.0
C2312 C 0.48259 0.97319 0.56381 0.0
C2313 C 0.50436 1.00778 0.58037 0.0
C2314 C 0.48894 0.9761 0.58402 0.0
N2315 N 0.48635 1.00051 0.52208 0.0
C2316 C 0.47802 1.00051 0.50332 0.0
C2317 C 0.46779 0.96979 0.52388 0.0
C2318 C 0.4809 0.986 0.53258 0.0
C2319 C 0.45985 0.96924 0.50431 0.0
C2320 C 0.46483 0.98477 0.49406 0.0
H2321 H 0.48499 0.96525 0.59341 0.0
H2322 H 0.46593 0.94514 0.5636 0.0
H2323 H 0.45292 0.94219 0.52863 0.0
O2324 O 0.48797 0.04263 0.52774 0.0
O2325 O 0.51431 1.00212 0.52035 0.0
O2326 O 0.54576 1.00318 0.53022 0.0
O2327 O 0.48444 0.03107 0.55496 0.0
O2328 O 0.51264 0.0387 0.51216 0.0
O2329 O 0.5362 0.02493 0.50026 0.0
O2330 O 0.5865 0.0249 0.52319 0.0
O2331 O 0.54597 0.05697 0.52773 0.0
O2332 O 0.52696 0.05187 0.55218 0.0
O2333 O 0.56562 0.01989 0.49715 0.0
O2334 O 0.55285 0.01809 0.55072 0.0
O2335 O 0.5301 0.03291 0.56262 0.0
C2336 C 0.52885 0.99358 0.5228 0.0
C2337 C 0.47559 0.06035 0.55183 0.0
C2338 C 0.45668 0.08486 0.55282 0.0
C2339 C 0.47032 0.0959 0.56745 0.0
C2340 C 0.48879 0.07135 0.56675 0.0
C2341 C 0.48622 0.0891 0.57441 0.0
C2342 C 0.45949 0.06707 0.54501 0.0
C2343 C 0.52149 0.03295 0.49766 0.0
C2344 C 0.47864 0.04208 0.54292 0.0
C2345 C 0.47026 0.95655 0.555 0.0
C2346 C 0.46281 0.95489 0.53509 0.0
C2347 C 0.53779 0.06354 0.54257 0.0
C2348 C 0.59588 0.01157 0.49232 0.0
C2349 C 0.62418 0.99826 0.48906 0.0
C2350 C 0.621 0.99823 0.46849 0.0
C2351 C 0.59301 0.01128 0.47173 0.0
C2352 C 0.61149 1.00499 0.50096 0.0
C2353 C 0.60552 1.00467 0.45994 0.0
C2354 C 0.54407 0.0239 0.56529 0.0
C2355 C 0.58256 0.01888 0.5045 0.0
H2356 H 0.46848 0.10959 0.57382 0.0
H2357 H 0.50103 0.06617 0.57246 0.0
H2358 H 0.49651 0.09758 0.58587 0.0
H2359 H 0.44926 0.05853 0.53349 0.0
H2360 H 0.63033 0.99292 0.45893 0.0
H2361 H 0.58114 0.0163 0.46474 0.0
H2362 H 0.61382 1.00518 0.51683 0.0
H2363 H 0.60319 1.00451 0.44408 0.0
Tb2364 Tb 0.30556 0.27397 0.77908 0.0
C2365 C 0.2357 0.30195 0.73417 0.0
N2366 N 0.24641 0.30932 0.75154 0.0
C2367 C 0.24661 0.34062 0.74317 0.0
C2368 C 0.23015 0.31367 0.72045 0.0
C2369 C 0.25167 0.3284 0.75637 0.0
C2370 C 0.23587 0.33323 0.7251 0.0
C2371 C 0.21899 0.27424 0.71244 0.0
C2372 C 0.2302 0.28252 0.7302 0.0
C2373 C 0.21349 0.28584 0.69864 0.0
C2374 C 0.21908 0.30551 0.70263 0.0
Tb2375 Tb 0.25395 0.28791 0.77158 0.0
N2376 N 0.23635 0.27174 0.7436 0.0
C2377 C 0.21371 0.25456 0.70912 0.0
C2378 C 0.23055 0.2526 0.74087 0.0
C2379 C 0.21938 0.24371 0.72348 0.0
H2380 H 0.25945 0.33424 0.77056 0.0
H2381 H 0.21508 0.22851 0.7212 0.0
H2382 H 0.29737 0.2358 0.80192 0.0
H2383 H 0.34984 0.34293 0.80177 0.0
H2384 H 0.23455 0.24416 0.75198 0.0
H2385 H 0.2051 0.24762 0.69565 0.0
H2386 H 0.33166 0.31696 0.77784 0.0
H2387 H 0.25086 0.35572 0.74702 0.0
H2388 H 0.20492 0.27975 0.68487 0.0
H2389 H 0.2147 0.31428 0.69186 0.0
H2390 H 0.30489 0.22711 0.83532 0.0
H2391 H 0.23192 0.34274 0.71494 0.0
H2392 H 0.35556 0.33827 0.83694 0.0
N2393 N 0.31179 0.26427 0.80923 0.0
C2394 C 0.3227 0.27742 0.82324 0.0
C2395 C 0.30991 0.24133 0.83213 0.0
C2396 C 0.32723 0.27314 0.8425 0.0
C2397 C 0.30561 0.24629 0.81326 0.0
C2398 C 0.32068 0.25482 0.84684 0.0
N2399 N 0.32394 0.29893 0.79949 0.0
C2400 C 0.33252 0.31528 0.79327 0.0
C2401 C 0.33988 0.3095 0.83243 0.0
C2402 C 0.32866 0.29542 0.81829 0.0
C2403 C 0.34687 0.32707 0.82655 0.0
C2404 C 0.34353 0.32981 0.80676 0.0
H2405 H 0.32387 0.25096 0.86148 0.0
H2406 H 0.34144 0.28433 0.87172 0.0
H2407 H 0.35269 0.31612 0.86286 0.0
O2408 O 0.33099 0.27927 0.76549 0.0
O2409 O 0.28885 0.27775 0.80403 0.0
O2410 O 0.27381 0.30177 0.79716 0.0
O2411 O 0.32146 0.25268 0.77662 0.0
O2412 O 0.3016 0.2978 0.76247 0.0
O2413 O 0.27894 0.31048 0.77742 0.0
O2414 O 0.23317 0.27475 0.78778 0.0
O2415 O 0.26553 0.27934 0.7442 0.0
O2416 O 0.28859 0.26163 0.75112 0.0
O2417 O 0.23269 0.30237 0.77971 0.0
O2418 O 0.25676 0.26137 0.78328 0.0
O2419 O 0.28222 0.24957 0.77257 0.0
C2420 C 0.28246 0.2929 0.80988 0.0
C2421 C 0.35096 0.25524 0.76221 0.0
C2422 C 0.37822 0.25588 0.74358 0.0
C2423 C 0.38106 0.239 0.75062 0.0
C2424 C 0.35437 0.23842 0.76904 0.0
C2425 C 0.36931 0.23044 0.76333 0.0
C2426 C 0.36319 0.26417 0.74959 0.0
C2427 C 0.2933 0.31209 0.76702 0.0
C2428 C 0.3343 0.26266 0.7681 0.0
C2429 C 0.33791 0.28729 0.85679 0.0
C2430 C 0.34422 0.30543 0.85177 0.0
C2431 C 0.2766 0.26772 0.73881 0.0
C2432 C 0.22058 0.29519 0.80943 0.0
C2433 C 0.19875 0.29427 0.83463 0.0
C2434 C 0.21324 0.30598 0.84789 0.0
C2435 C 0.23459 0.30702 0.82295 0.0
C2436 C 0.20255 0.28896 0.81525 0.0
C2437 C 0.23095 0.3123 0.84206 0.0
C2438 C 0.26528 0.24731 0.77848 0.0
C2439 C 0.22488 0.28916 0.78942 0.0
H2440 H 0.3925 0.23243 0.74629 0.0
H2441 H 0.34539 0.23129 0.77879 0.0
H2442 H 0.37171 0.21746 0.76868 0.0
H2443 H 0.36077 0.2771 0.7441 0.0
H2444 H 0.21079 0.31051 0.86278 0.0
H2445 H 0.24832 0.31222 0.81868 0.0
H2446 H 0.19166 0.27981 0.80486 0.0
H2447 H 0.24189 0.3214 0.8524 0.0
Tb2448 Tb 0.04076 1.00381 0.52299 0.0
C2449 C 0.01813 0.07864 0.56464 0.0
N2450 N 1.0098 0.06808 0.54748 0.0
C2451 C 0.97937 0.07253 0.55538 0.0
C2452 C 1.00731 0.08645 0.57801 0.0
C2453 C 0.99071 0.06516 0.54253 0.0
C2454 C 0.98769 0.08317 0.57323 0.0
C2455 C 0.04682 0.09261 0.58638 0.0
C2456 C 0.03762 0.08166 0.56881 0.0
C2457 C 0.0361 0.10038 0.59979 0.0
C2458 C 0.0164 0.09729 0.59563 0.0
Tb2459 Tb 0.0299 0.057 0.52794 0.0
N2460 N 0.04749 0.07335 0.55583 0.0
C2461 C 0.06651 0.09535 0.58994 0.0
C2462 C 0.06673 0.07666 0.5588 0.0
C2463 C 0.07651 0.08746 0.57601 0.0
H2464 H 0.98423 0.05745 0.5285 0.0
H2465 H 0.09176 0.08976 0.57848 0.0
H2466 H 0.08621 1.00632 0.51723 0.0
H2467 H 0.97672 0.96622 0.4789 0.0
H2468 H 0.07455 0.07092 0.54802 0.0
H2469 H 0.07413 0.10367 0.60328 0.0
H2470 H 0.99568 0.98552 0.50823 0.0
H2471 H 0.96425 0.07014 0.55144 0.0
H2472 H 0.04291 0.1088 0.61341 0.0
H2473 H 1.00832 0.10339 0.60611 0.0
H2474 H 0.10454 0.99595 0.49136 0.0
H2475 H 0.97887 0.08891 0.58312 0.0
H2476 H 0.99252 0.95497 0.45098 0.0
N2477 N 0.05953 0.99466 0.50056 0.0
C2478 C 0.05029 0.98403 0.48378 0.0
C2479 C 0.08928 0.99263 0.48898 0.0
C2480 C 0.06022 0.97745 0.46878 0.0
C2481 C 0.07881 0.99872 0.50352 0.0
C2482 C 0.07995 0.98204 0.47149 0.0
N2483 N 0.02174 0.98626 0.49659 0.0
C2484 C 1.00265 0.98117 0.49598 0.0
C2485 C 0.02058 0.96815 0.4649 0.0
C2486 C 0.03075 0.97944 0.48183 0.0
C2487 C 1.00088 0.96362 0.46375 0.0
C2488 C 0.9919 0.97001 0.47945 0.0
H2489 H 0.08812 0.97726 0.46031 0.0
H2490 H 0.05753 0.96125 0.43999 0.0
H2491 H 0.02282 0.9531 0.4366 0.0
O2492 O 0.02767 0.98276 0.53906 0.0
O2493 O 0.03215 0.01553 0.4954 0.0
O2494 O 0.01417 0.0382 0.50246 0.0
O2495 O 0.056 0.98367 0.53257 0.0
O2496 O 0.01657 0.01016 0.53747 0.0
O2497 O 1.00484 0.03426 0.5238 0.0
O2498 O 0.04679 0.07887 0.51619 0.0
O2499 O 0.03609 0.04462 0.55566 0.0
O2500 O 0.05531 0.02361 0.54824 0.0
O2501 O 0.01715 0.07811 0.51626 0.0
O2502 O 0.05235 0.04857 0.51204 0.0
O2503 O 0.06543 0.02698 0.52787 0.0
C2504 C 0.02006 0.0262 0.48998 0.0
C2505 C 0.03808 0.95358 0.53571 0.0
C2506 C 0.03215 0.92185 0.54632 0.0
C2507 C 0.03095 0.91417 0.52645 0.0
C2508 C 0.03687 0.94533 0.51615 0.0
C2509 C 0.03328 0.92581 0.51157 0.0
C2510 C 0.03583 0.94175 0.55086 0.0
C2511 C 1.00251 0.01834 0.53187 0.0
C2512 C 0.04207 0.97441 0.54034 0.0
C2513 C 0.05015 0.96639 0.45171 0.0
C2514 C 0.03038 0.96174 0.44978 0.0
C2515 C 0.04756 0.0334 0.5611 0.0
C2516 C 0.03149 0.0908 0.48973 0.0
C2517 C 0.03003 0.11296 0.46506 0.0
C2518 C 0.02933 0.09794 0.45017 0.0
C2519 C 0.03118 0.07631 0.47454 0.0
C2520 C 0.03115 0.10925 0.48498 0.0
C2521 C 0.02996 0.07982 0.45491 0.0
C2522 C 0.06719 0.04248 0.5192 0.0
C2523 C 0.03267 0.0866 0.51044 0.0
H2524 H 0.02856 0.89906 0.52238 0.0
H2525 H 0.03895 0.95394 0.50439 0.0
H2526 H 0.03247 0.91966 0.4964 0.0
H2527 H 0.0368 0.948 0.56604 0.0
H2528 H 0.02872 0.10027 0.43479 0.0
H2529 H 0.03212 0.0623 0.47792 0.0
H2530 H 0.03161 0.12057 0.49667 0.0
H2531 H 0.02966 0.06848 0.44332 0.0
Tb2532 Tb 0.29275 0.80544 0.76361 0.0
C2533 C 0.24506 0.73046 0.78014 0.0
N2534 N 0.2576 0.74388 0.79236 0.0
C2535 C 0.23617 0.74282 0.8168 0.0
C2536 C 0.22711 0.72328 0.78537 0.0
C2537 C 0.25379 0.7496 0.81085 0.0
C2538 C 0.22267 0.72979 0.8039 0.0
C2539 C 0.23828 0.70932 0.74965 0.0
C2540 C 0.25059 0.72366 0.76258 0.0
C2541 C 0.21999 0.70267 0.75428 0.0
C2542 C 0.21443 0.70961 0.77214 0.0
Tb2543 Tb 0.28594 0.75396 0.78149 0.0
N2544 N 0.26851 0.73019 0.7589 0.0
C2545 C 0.245 0.70159 0.73291 0.0
C2546 C 0.27561 0.72141 0.74364 0.0
C2547 C 0.26387 0.70742 0.7301 0.0
H2548 H 0.26425 0.75959 0.82084 0.0
H2549 H 0.26949 0.70088 0.71774 0.0
H2550 H 0.30341 0.79385 0.71764 0.0
H2551 H 0.33093 0.85571 0.82355 0.0
H2552 H 0.29043 0.72488 0.74207 0.0
H2553 H 0.236 0.69055 0.72257 0.0
H2554 H 0.30318 0.83331 0.80563 0.0
H2555 H 0.23301 0.74764 0.8313 0.0
H2556 H 0.21026 0.69177 0.74444 0.0
H2557 H 0.20047 0.70403 0.77576 0.0
H2558 H 0.33176 0.79722 0.70075 0.0
H2559 H 0.20903 0.72459 0.80852 0.0
H2560 H 0.36091 0.8613 0.80877 0.0
N2561 N 0.31771 0.80806 0.74526 0.0
C2562 C 0.33382 0.81982 0.75421 0.0
C2563 C 0.33266 0.80331 0.71596 0.0
C2564 C 0.35025 0.82297 0.74469 0.0
C2565 C 0.31665 0.80085 0.7259 0.0
C2566 C 0.34963 0.81413 0.72551 0.0
N2567 N 0.31763 0.82575 0.78156 0.0
C2568 C 0.3163 0.83543 0.7993 0.0
C2569 C 0.34979 0.842 0.78233 0.0
C2570 C 0.33364 0.82932 0.77274 0.0
C2571 C 0.3488 0.85143 0.80091 0.0
C2572 C 0.33193 0.84824 0.80935 0.0
H2573 H 0.36194 0.8162 0.71768 0.0
H2574 H 0.37935 0.83774 0.74732 0.0
H2575 H 0.37896 0.85434 0.7803 0.0
O2576 O 0.27808 0.82796 0.76988 0.0
O2577 O 0.31541 0.7972 0.78347 0.0
O2578 O 0.31346 0.76616 0.77261 0.0
O2579 O 0.29115 0.82441 0.74292 0.0
O2580 O 0.27942 0.80211 0.79048 0.0
O2581 O 0.29195 0.77844 0.80414 0.0
O2582 O 0.29274 0.7273 0.78542 0.0
O2583 O 0.26054 0.76716 0.77763 0.0
O2584 O 0.26527 0.78644 0.75307 0.0
O2585 O 0.30029 0.75087 0.80884 0.0
O2586 O 0.2975 0.75849 0.75368 0.0
O2587 O 0.28359 0.78133 0.74073 0.0
C2588 C 0.32366 0.78264 0.78028 0.0
C2589 C 0.27612 0.85136 0.74626 0.0
C2590 C 0.25778 0.87638 0.74769 0.0
C2591 C 0.26506 0.8825 0.73072 0.0
C2592 C 0.28328 0.85791 0.72936 0.0
C2593 C 0.27781 0.87339 0.72172 0.0
C2594 C 0.2635 0.86087 0.75563 0.0
C2595 C 0.28475 0.79382 0.8057 0.0
C2596 C 0.28177 0.83439 0.75336 0.0
C2597 C 0.36657 0.83525 0.75436 0.0
C2598 C 0.36633 0.84476 0.77312 0.0
C2599 C 0.25391 0.77546 0.76289 0.0
C2600 C 0.30957 0.72151 0.81623 0.0
C2601 C 0.32447 0.69436 0.82098 0.0
C2602 C 0.32757 0.70036 0.84141 0.0
C2603 C 0.31281 0.72706 0.83666 0.0
C2604 C 0.31533 0.70507 0.80843 0.0
C2605 C 0.32169 0.7165 0.84913 0.0
C2606 C 0.28972 0.76542 0.73869 0.0
C2607 C 0.30084 0.73338 0.80322 0.0
H2608 H 0.26092 0.89446 0.72446 0.0
H2609 H 0.2931 0.85103 0.72192 0.0
H2610 H 0.28338 0.87827 0.70869 0.0
H2611 H 0.25782 0.856 0.76863 0.0
H2612 H 0.3349 0.69281 0.85148 0.0
H2613 H 0.30853 0.73964 0.84302 0.0
H2614 H 0.3128 0.70072 0.79267 0.0
H2615 H 0.32423 0.72096 0.86486 0.0
Tb2616 Tb 0.54387 0.04774 0.99792 0.0
C2617 C 0.56918 0.99366 0.06833 0.0
N2618 N 0.55699 0.9898 0.0514 0.0
C2619 C 0.56568 0.95958 0.04512 0.0
C2620 C 0.58047 0.9808 0.07405 0.0
C2621 C 0.55463 0.97267 0.04019 0.0
C2622 C 0.5788 0.96373 0.06202 0.0
C2623 C 0.58187 0.01463 0.09833 0.0
C2624 C 0.56982 0.01028 0.08038 0.0
C2625 C 0.59341 1.00205 0.1039 0.0
C2626 C 0.59271 0.98517 0.09178 0.0
Tb2627 Tb 0.53931 0.01219 0.04532 0.0
N2628 N 0.55859 0.02222 0.0744 0.0
C2629 C 0.58181 0.03139 0.11024 0.0
C2630 C 0.55797 0.03824 0.08636 0.0
C2631 C 0.5697 0.04317 0.10429 0.0
H2632 H 0.54387 0.96872 0.02766 0.0
H2633 H 0.56927 0.05599 0.11359 0.0
H2634 H 0.52498 0.08247 0.01699 0.0
H2635 H 0.53438 0.01132 0.9237 0.0
H2636 H 0.54838 0.04726 0.08239 0.0
H2637 H 0.59083 0.03523 0.12417 0.0
H2638 H 0.55084 0.02185 0.95709 0.0
H2639 H 0.56385 0.94616 0.03604 0.0
H2640 H 0.60278 1.00515 0.11763 0.0
H2641 H 0.60152 0.97549 0.09638 0.0
H2642 H 0.49857 0.09813 0.00778 0.0
H2643 H 0.5872 0.95347 0.0659 0.0
H2644 H 0.50539 0.02263 0.91275 0.0
N2645 N 0.51998 0.06338 0.99056 0.0
C2646 C 0.5099 0.05834 0.97247 0.0
C2647 C 0.50151 0.08685 0.99776 0.0
C2648 C 0.49479 0.067 0.96647 0.0
C2649 C 0.51641 0.07786 1.003 0.0
C2650 C 0.49052 0.08127 0.97949 0.0
N2651 N 0.5303 0.03745 0.9661 0.0
C2652 C 0.53772 0.02625 0.95301 0.0
C2653 C 0.5056 0.0396 0.9406 0.0
C2654 C 0.51514 0.04476 0.95986 0.0
C2655 C 0.5123 0.02695 0.92768 0.0
C2656 C 0.52862 0.02051 0.93383 0.0
H2657 H 0.47903 0.0883 0.97543 0.0
H2658 H 0.47299 0.06778 0.94271 0.0
H2659 H 0.48253 0.04381 0.91998 0.0
O2660 O 0.56542 0.0553 0.98018 0.0
O2661 O 0.51508 0.0394 0.00513 0.0
O2662 O 0.52316 0.01425 0.01735 0.0
O2663 O 0.56097 0.07481 0.00396 0.0
O2664 O 0.54966 0.01853 0.99097 0.0
O2665 O 0.54255 0.998 0.01551 0.0
O2666 O 0.51753 0.01334 0.06319 0.0
O2667 O 0.56849 0.02751 0.04716 0.0
O2668 O 0.55495 0.03391 0.02044 0.0
O2669 O 0.5224 0.98678 0.05034 0.0
O2670 O 0.5322 0.04102 0.04973 0.0
O2671 O 0.54653 0.06171 0.02847 0.0
C2672 C 0.51069 0.02489 0.01477 0.0
C2673 C 0.5693 0.08709 0.97474 0.0
C2674 C 0.57987 0.09943 0.9452 0.0
C2675 C 0.56723 0.11187 0.94608 0.0
C2676 C 0.55684 0.09977 0.97561 0.0
C2677 C 0.55592 0.11215 0.96137 0.0
C2678 C 0.58098 0.08724 0.9597 0.0
C2679 C 0.54768 1.00166 0.9978 0.0
C2680 C 0.56944 0.07268 0.98836 0.0
C2681 C 0.48472 0.06138 0.94759 0.0
C2682 C 0.49013 0.0477 0.93467 0.0
C2683 C 0.57059 0.03636 0.03199 0.0
C2684 C 0.51496 0.98867 0.08306 0.0
C2685 C 0.50618 0.99114 0.11636 0.0
C2686 C 0.51875 0.97949 0.12183 0.0
C2687 C 0.5272 0.97665 0.08862 0.0
C2688 C 0.50433 0.99563 0.09695 0.0
C2689 C 0.52911 0.97218 0.10794 0.0
C2690 C 0.53827 0.05817 0.04455 0.0
C2691 C 0.51403 0.99515 0.06341 0.0
H2692 H 0.56611 0.12131 0.93494 0.0
H2693 H 0.54762 0.09996 0.98705 0.0
H2694 H 0.5462 0.12177 0.96202 0.0
H2695 H 0.59036 0.07724 0.9588 0.0
H2696 H 0.52032 0.97579 0.13674 0.0
H2697 H 0.53545 0.97085 0.07818 0.0
H2698 H 0.49493 1.00496 0.09276 0.0
H2699 H 0.53867 0.96307 0.11215 0.0
Tb2700 Tb 0.2744 0.25401 0.25828 0.0
C2701 C 0.34191 0.31862 0.28924 0.0
N2702 N 0.32946 0.30749 0.29861 0.0
C2703 C 0.35474 0.30327 0.32202 0.0
C2704 C 0.36146 0.32172 0.2952 0.0
C2705 C 0.33545 0.30053 0.31541 0.0
C2706 C 0.36784 0.31364 0.31165 0.0
C2707 C 0.34702 0.34027 0.26489 0.0
C2708 C 0.33477 0.32778 0.27446 0.0
C2709 C 0.36664 0.34253 0.26979 0.0
C2710 C 0.37386 0.33331 0.28499 0.0
Tb2711 Tb 0.29828 0.30395 0.28703 0.0
N2712 N 0.31576 0.32568 0.27073 0.0
C2713 C 0.33915 0.35075 0.25139 0.0
C2714 C 0.30812 0.33716 0.259 0.0
C2715 C 0.31961 0.34945 0.24873 0.0
H2716 H 0.32531 0.29247 0.32337 0.0
H2717 H 0.3134 0.35813 0.23904 0.0
H2718 H 0.2647 0.26509 0.21215 0.0
H2719 H 0.22846 0.21595 0.30378 0.0
H2720 H 0.29316 0.33702 0.2577 0.0
H2721 H 0.34804 0.36049 0.24368 0.0
H2722 H 0.25914 0.22912 0.29287 0.0
H2723 H 0.35949 0.29735 0.33504 0.0
H2724 H 0.37631 0.35191 0.26246 0.0
H2725 H 0.38897 0.33569 0.28913 0.0
H2726 H 0.23704 0.27027 0.19144 0.0
H2727 H 0.38277 0.31573 0.31677 0.0
H2728 H 0.19873 0.22065 0.28569 0.0
N2729 N 0.24962 0.25784 0.23635 0.0
C2730 C 0.23213 0.25214 0.24173 0.0
C2731 C 0.23549 0.26557 0.20578 0.0
C2732 C 0.2157 0.25393 0.22985 0.0
C2733 C 0.25131 0.26318 0.21793 0.0
C2734 C 0.21762 0.26133 0.21195 0.0
N2735 N 0.24681 0.24151 0.26936 0.0
C2736 C 0.24622 0.23126 0.28501 0.0
C2737 C 0.21286 0.23611 0.26423 0.0
C2738 C 0.23065 0.24326 0.25857 0.0
C2739 C 0.21213 0.2264 0.28086 0.0
C2740 C 0.22889 0.22374 0.29113 0.0
H2741 H 0.20536 0.26293 0.20238 0.0
H2742 H 0.18513 0.24902 0.22699 0.0
H2743 H 0.18266 0.23347 0.25717 0.0
O2744 O 0.28263 0.2283 0.26219 0.0
O2745 O 0.25928 0.2686 0.27979 0.0
O2746 O 0.2679 0.29959 0.2759 0.0
O2747 O 0.26749 0.23207 0.23479 0.0
O2748 O 0.29021 0.25302 0.28722 0.0
O2749 O 0.28876 0.28148 0.30461 0.0
O2750 O 0.29828 0.33175 0.29934 0.0
O2751 O 0.31709 0.28356 0.28021 0.0
O2752 O 0.30314 0.26536 0.25134 0.0
O2753 O 0.29327 0.30862 0.31644 0.0
O2754 O 0.28244 0.30315 0.2577 0.0
O2755 O 0.28671 0.27575 0.24071 0.0
C2756 C 0.25521 0.28553 0.27999 0.0
C2757 C 0.29111 0.21385 0.23347 0.0
C2758 C 0.31103 0.19049 0.23085 0.0
C2759 C 0.32076 0.20047 0.21724 0.0
C2760 C 0.30084 0.22375 0.21981 0.0
C2761 C 0.31555 0.21696 0.21166 0.0
C2762 C 0.29615 0.19725 0.23875 0.0
C2763 C 0.29051 0.26377 0.30396 0.0
C2764 C 0.27696 0.22134 0.24394 0.0
C2765 C 0.1979 0.24759 0.23583 0.0
C2766 C 0.19648 0.23867 0.25297 0.0
C2767 C 0.3184 0.27349 0.26344 0.0
C2768 C 0.27419 0.33117 0.32033 0.0
C2769 C 0.25129 0.35157 0.31692 0.0
C2770 C 0.23849 0.33912 0.32581 0.0
C2771 C 0.26138 0.31901 0.32967 0.0
C2772 C 0.26913 0.34761 0.31439 0.0
C2773 C 0.24365 0.323 0.33236 0.0
C2774 C 0.28515 0.29353 0.24133 0.0
C2775 C 0.29207 0.32607 0.31531 0.0
H2776 H 0.33236 0.19555 0.21102 0.0
H2777 H 0.29734 0.23683 0.21576 0.0
H2778 H 0.32313 0.22468 0.20126 0.0
H2779 H 0.28898 0.19005 0.2498 0.0
H2780 H 0.22463 0.34195 0.32782 0.0
H2781 H 0.26482 0.30617 0.33448 0.0
H2782 H 0.27882 0.35703 0.30709 0.0
H2783 H 0.23378 0.31343 0.33925 0.0
Tb2784 Tb 0.53805 0.50372 0.02705 0.0
C2785 C 0.5187 0.57318 0.07126 0.0
N2786 N 0.50948 0.56289 0.05428 0.0
C2787 C 0.47996 0.5619 0.06755 0.0
C2788 C 0.509 0.57755 0.08737 0.0
C2789 C 0.49018 0.55827 0.05185 0.0
C2790 C 0.48944 0.57128 0.08552 0.0
C2791 C 0.54769 0.59246 0.08861 0.0
C2792 C 0.53776 0.58053 0.07196 0.0
C2793 C 0.53829 0.59615 0.10505 0.0
C2794 C 0.51898 0.58866 0.10446 0.0
Tb2795 Tb 0.52821 0.55723 0.03014 0.0
N2796 N 0.54647 0.57633 0.05597 0.0
C2797 C 0.56663 0.60063 0.088 0.0
C2798 C 0.5646 0.58508 0.05478 0.0
C2799 C 0.57504 0.59714 0.07089 0.0
H2800 H 0.48243 0.55211 0.03775 0.0
H2801 H 0.58953 0.60373 0.0701 0.0
H2802 H 0.57493 0.50772 1.00234 0.0
H2803 H 0.47061 0.45523 0.01397 0.0
H2804 H 0.57101 0.58248 0.04149 0.0
H2805 H 0.57475 0.60994 0.10047 0.0
H2806 H 0.49689 0.47739 0.03425 0.0
H2807 H 0.46473 0.55779 0.06565 0.0
H2808 H 0.5457 0.60512 0.1181 0.0
H2809 H 0.51179 0.59202 0.11704 0.0
H2810 H 0.58229 0.49575 0.96955 0.0
H2811 H 0.48145 0.57432 0.09756 0.0
H2812 H 0.47338 0.44474 0.97912 0.0
N2813 N 0.54627 0.49342 0.99728 0.0
C2814 C 0.53285 0.48076 0.98516 0.0
C2815 C 0.56828 0.49155 0.9737 0.0
C2816 C 0.53635 0.47357 0.96635 0.0
C2817 C 0.56406 0.49837 0.99221 0.0
C2818 C 0.5543 0.47927 0.96062 0.0
N2819 N 0.51335 0.4816 0.0105 0.0
C2820 C 0.49782 0.47391 0.01877 0.0
C2821 C 0.50138 0.46161 0.97993 0.0
C2822 C 0.51565 0.47496 0.99186 0.0
C2823 C 0.48471 0.45498 0.9878 0.0
C2824 C 0.48307 0.46092 0.00744 0.0
H2825 H 0.55759 0.47405 0.94628 0.0
H2826 H 0.52426 0.45527 0.93947 0.0
H2827 H 0.49361 0.44475 0.95137 0.0
O2828 O 0.53749 0.47635 0.03608 0.0
O2829 O 0.53478 0.51738 0.9997 0.0
O2830 O 0.5136 0.53686 0.0051 0.0
O2831 O 0.5628 0.49827 0.042 0.0
O2832 O 0.51318 0.5099 0.04057 0.0
O2833 O 0.50325 0.53396 0.02509 0.0
O2834 O 0.5396 0.57655 0.01143 0.0
O2835 O 0.54651 0.54861 0.05411 0.0
O2836 O 0.53223 0.51803 0.05456 0.0
O2837 O 0.51469 0.5798 0.02434 0.0
O2838 O 0.552 0.55066 0.01559 0.0
O2839 O 0.56308 0.52675 0.03027 0.0
C2840 C 0.52091 0.52549 0.99326 0.0
C2841 C 0.56557 0.46822 0.05386 0.0
C2842 C 0.56736 0.43888 0.06843 0.0
C2843 C 0.58703 0.44502 0.0725 0.0
C2844 C 0.58525 0.47378 0.05821 0.0
C2845 C 0.59584 0.46228 0.06747 0.0
C2846 C 0.55657 0.45069 0.05916 0.0
C2847 C 0.49975 0.51841 0.03369 0.0
C2848 C 0.55497 0.48105 0.04394 0.0
C2849 C 0.52194 0.46084 0.95407 0.0
C2850 C 0.50447 0.45489 0.96083 0.0
C2851 C 0.54274 0.53374 0.06357 0.0
C2852 C 0.51793 0.59064 0.9932 0.0
C2853 C 0.5167 0.61214 0.96786 0.0
C2854 C 0.50278 0.5982 0.95625 0.0
C2855 C 0.50394 0.57715 0.98137 0.0
C2856 C 0.52421 0.60822 0.98648 0.0
C2857 C 0.49646 0.5809 0.96299 0.0
C2858 C 0.56585 0.54262 0.02211 0.0
C2859 C 0.52631 0.58624 0.01229 0.0
H2860 H 0.59568 0.43648 0.07982 0.0
H2861 H 0.59257 0.48708 0.05441 0.0
H2862 H 0.61099 0.46678 0.07075 0.0
H2863 H 0.5414 0.44619 0.05594 0.0
H2864 H 0.49652 0.60076 0.94201 0.0
H2865 H 0.4988 0.56374 0.98641 0.0
H2866 H 0.5351 0.61864 0.99557 0.0
H2867 H 0.48568 0.57037 0.95393 0.0
Tb2868 Tb 0.78987 0.30665 0.26355 0.0
C2869 C 0.74403 0.23884 0.29795 0.0
N2870 N 0.75951 0.25186 0.30615 0.0
C2871 C 0.74599 0.25513 0.3365 0.0
C2872 C 0.7287 0.23372 0.30868 0.0
C2873 C 0.76082 0.25983 0.32525 0.0
C2874 C 0.72985 0.24205 0.32817 0.0
C2875 C 0.72717 0.21823 0.26918 0.0
C2876 C 0.74326 0.2313 0.27837 0.0
C2877 C 0.7119 0.21301 0.27985 0.0
C2878 C 0.71266 0.22073 0.29954 0.0
Tb2879 Tb 0.78303 0.25751 0.2866 0.0
N2880 N 0.75814 0.23703 0.26829 0.0
C2881 C 0.72697 0.21069 0.24957 0.0
C2882 C 0.75843 0.22875 0.2496 0.0
C2883 C 0.74276 0.21581 0.23984 0.0
H2884 H 0.7735 0.2694 0.33206 0.0
H2885 H 0.74302 0.20951 0.22491 0.0
H2886 H 0.80487 0.29617 0.22055 0.0
H2887 H 0.82059 0.35796 0.32663 0.0
H2888 H 0.77085 0.23139 0.24228 0.0
H2889 H 0.71489 0.20059 0.24199 0.0
H2890 H 0.79505 0.33553 0.306 0.0
H2891 H 0.7471 0.26147 0.35163 0.0
H2892 H 0.69942 0.20301 0.27301 0.0
H2893 H 0.70073 0.21663 0.30754 0.0
H2894 H 0.83355 0.30545 0.20449 0.0
H2895 H 0.71837 0.23848 0.33691 0.0
H2896 H 0.85159 0.36659 0.31452 0.0
N2897 N 0.81571 0.31374 0.24737 0.0
C2898 C 0.83015 0.32709 0.25723 0.0
C2899 C 0.83282 0.31155 0.21938 0.0
C2900 C 0.84674 0.33293 0.24861 0.0
C2901 C 0.81668 0.30613 0.22858 0.0
C2902 C 0.84794 0.32497 0.22945 0.0
N2903 N 0.81216 0.32837 0.2841 0.0
C2904 C 0.80888 0.33762 0.30135 0.0
C2905 C 0.84324 0.34804 0.2871 0.0
C2906 C 0.82847 0.33433 0.27634 0.0
C2907 C 0.84061 0.356 0.30578 0.0
C2908 C 0.8232 0.35104 0.31275 0.0
H2909 H 0.86045 0.32907 0.2223 0.0
H2910 H 0.87455 0.35083 0.25316 0.0
H2911 H 0.87143 0.3642 0.28678 0.0
O2912 O 0.77689 0.33064 0.26699 0.0
O2913 O 0.81548 0.29395 0.26889 0.0
O2914 O 0.81072 0.27662 0.295 0.0
O2915 O 0.78412 0.31997 0.23856 0.0
O2916 O 0.77781 0.30463 0.2915 0.0
O2917 O 0.7928 0.28347 0.30635 0.0
O2918 O 0.79461 0.23271 0.2812 0.0
O2919 O 0.75723 0.26973 0.28032 0.0
O2920 O 0.76249 0.28723 0.25443 0.0
O2921 O 0.78983 0.2435 0.31063 0.0
O2922 O 0.79441 0.25848 0.2582 0.0
O2923 O 0.78099 0.28083 0.2434 0.0
C2924 C 0.82208 0.28581 0.28379 0.0
C2925 C 0.7697 0.34751 0.23861 0.0
C2926 C 0.75607 0.37595 0.23961 0.0
C2927 C 0.75692 0.37586 0.21921 0.0
C2928 C 0.77036 0.34784 0.21823 0.0
C2929 C 0.76396 0.36189 0.20864 0.0
C2930 C 0.76233 0.36156 0.24927 0.0
C2931 C 0.78413 0.29776 0.3073 0.0
C2932 C 0.77703 0.33261 0.24835 0.0
C2933 C 0.86164 0.34623 0.25948 0.0
C2934 C 0.8599 0.35376 0.27867 0.0
C2935 C 0.7509 0.27769 0.26516 0.0
C2936 C 0.80263 0.21503 0.30883 0.0
C2937 C 0.81558 0.18622 0.30662 0.0
C2938 C 0.8143 0.18536 0.32681 0.0
C2939 C 0.80161 0.21381 0.32905 0.0
C2940 C 0.80988 0.20123 0.29763 0.0
C2941 C 0.80745 0.19911 0.33793 0.0
C2942 C 0.78931 0.26626 0.24252 0.0
C2943 C 0.79557 0.2305 0.29987 0.0
H2944 H 0.75195 0.38657 0.21136 0.0
H2945 H 0.77589 0.33725 0.20963 0.0
H2946 H 0.76451 0.36197 0.19294 0.0
H2947 H 0.76182 0.36153 0.265 0.0
H2948 H 0.81871 0.17401 0.33403 0.0
H2949 H 0.79613 0.22416 0.33807 0.0
H2950 H 0.8107 0.20191 0.28202 0.0
H2951 H 0.80656 0.19831 0.35349 0.0
Tb2952 Tb 0.04597 0.54672 0.50042 0.0
C2953 C 0.0656 0.48948 0.56855 0.0
N2954 N 0.05404 0.48738 0.55127 0.0
C2955 C 0.06168 0.45712 0.54243 0.0
C2956 C 0.0759 0.47554 0.5733 0.0
C2957 C 0.05159 0.47124 0.53848 0.0
C2958 C 0.07397 0.45931 0.55986 0.0
C2959 C 0.07859 0.50829 0.5998 0.0
C2960 C 0.06692 0.50561 0.58165 0.0
C2961 C 0.0889 0.49446 0.60458 0.0
C2962 C 0.08758 0.47814 0.59136 0.0
Tb2963 Tb 0.03754 0.51093 0.54716 0.0
N2964 N 0.05703 0.51889 0.57631 0.0
C2965 C 0.07952 0.52477 0.61258 0.0
C2966 C 0.05752 0.53477 0.58898 0.0
C2967 C 0.06888 0.53801 0.60717 0.0
H2968 H 0.04136 0.46879 0.52557 0.0
H2969 H 0.0693 0.55068 0.61709 0.0
H2970 H 0.02825 0.58401 0.51293 0.0
H2971 H 0.03716 0.50143 0.43084 0.0
H2972 H 0.04909 0.54495 0.5854 0.0
H2973 H 0.08828 0.52733 0.62669 0.0
H2974 H 0.05358 0.51619 0.46304 0.0
H2975 H 0.05971 0.4444 0.53217 0.0
H2976 H 0.09794 0.49625 0.61847 0.0
H2977 H 0.09559 0.46758 0.59528 0.0
H2978 H 1.0028 0.59941 0.49979 0.0
H2979 H 0.08163 0.44827 0.56296 0.0
H2980 H 1.00856 0.51174 0.41685 0.0
N2981 N 0.02325 0.56214 0.4889 0.0
C2982 C 0.01335 0.55509 0.47111 0.0
C2983 C 1.00556 0.58689 0.49161 0.0
C2984 C 0.99871 0.56335 0.463 0.0
C2985 C 0.01995 0.57814 0.49902 0.0
C2986 C 0.99476 0.57936 0.47359 0.0
N2987 N 0.03305 0.5329 0.46916 0.0
C2988 C 0.04043 0.52001 0.45803 0.0
C2989 C 1.00888 0.53231 0.44205 0.0
C2990 C 0.01827 0.53974 0.46097 0.0
C2991 C 0.01535 0.51784 0.43145 0.0
C2992 C 0.03143 0.51193 0.43933 0.0
H2993 H 0.98363 0.58616 0.46788 0.0
H2994 H 0.97737 0.56159 0.43805 0.0
H2995 H 0.98635 0.53441 0.41961 0.0
O2996 O 0.06935 0.55352 0.48481 0.0
O2997 O 0.01663 0.54035 0.50654 0.0
O2998 O 0.02256 0.51471 0.51915 0.0
O2999 O 0.0623 0.57412 0.50582 0.0
O3000 O 0.05484 0.51856 0.49722 0.0
O3001 O 0.03607 0.49848 0.51563 0.0
O3002 O 0.01564 0.51284 0.56465 0.0
O3003 O 0.06783 0.52258 0.54851 0.0
O3004 O 0.0546 0.53454 0.52534 0.0
O3005 O 0.02006 0.48588 0.5522 0.0
O3006 O 0.03299 0.54064 0.55306 0.0
O3007 O 0.04513 0.56118 0.53027 0.0
C3008 C 0.01113 0.52636 0.51651 0.0
C3009 C 0.07472 0.58511 0.47761 0.0
C3010 C 0.08689 0.59476 0.44752 0.0
C3011 C 0.08003 0.61157 0.45052 0.0
C3012 C 0.06797 0.60201 0.48038 0.0
C3013 C 0.0706 0.61511 0.46684 0.0
C3014 C 0.08408 0.58161 0.46116 0.0
C3015 C 0.04756 0.50139 0.50165 0.0
C3016 C 0.07261 0.57122 0.49192 0.0
C3017 C 0.98876 0.55554 0.44452 0.0
C3018 C 0.99383 0.54003 0.43406 0.0
C3019 C 0.07041 0.53374 0.53529 0.0
C3020 C 0.01209 0.48836 0.58475 0.0
C3021 C 1.00309 0.49171 0.61793 0.0
C3022 C 0.01485 0.47936 0.62363 0.0
C3023 C 0.02354 0.47571 0.59054 0.0
C3024 C 1.00176 0.4961 0.59846 0.0
C3025 C 0.02493 0.47133 0.60991 0.0
C3026 C 0.03787 0.55767 0.547 0.0
C3027 C 0.01169 0.49466 0.565 0.0
H3028 H 0.08215 0.6221 0.44043 0.0
H3029 H 0.06074 0.60518 0.49299 0.0
H3030 H 0.06541 0.62811 0.46908 0.0
H3031 H 0.089 0.56845 0.45891 0.0
H3032 H 0.016 0.4757 0.63856 0.0
H3033 H 0.03158 0.46936 0.58024 0.0
H3034 H 0.99304 0.50596 0.59408 0.0
H3035 H 0.03388 0.46171 0.61432 0.0
Tb3036 Tb 0.80561 0.77233 0.27915 0.0
C3037 C 0.73447 0.79712 0.23602 0.0
N3038 N 0.74501 0.80565 0.25313 0.0
C3039 C 0.74387 0.83603 0.2428 0.0
C3040 C 0.72827 0.80777 0.22151 0.0
C3041 C 0.74964 0.82486 0.25679 0.0
C3042 C 0.73318 0.82746 0.22506 0.0
C3043 C 0.71877 0.76814 0.2157 0.0
C3044 C 0.72986 0.77758 0.23309 0.0
C3045 C 0.71263 0.77867 0.20113 0.0
C3046 C 0.71739 0.79843 0.20401 0.0
Tb3047 Tb 0.75389 0.78587 0.27448 0.0
N3048 N 0.73643 0.76785 0.24736 0.0
C3049 C 0.71412 0.74842 0.21359 0.0
C3050 C 0.73119 0.74871 0.24579 0.0
C3051 C 0.7202 0.73868 0.22879 0.0
H3052 H 0.75753 0.83163 0.27065 0.0
H3053 H 0.71631 0.72347 0.22749 0.0
H3054 H 0.80231 0.72722 0.28591 0.0
H3055 H 0.84335 0.83673 0.32278 0.0
H3056 H 0.73527 0.74111 0.25763 0.0
H3057 H 0.70562 0.74061 0.20044 0.0
H3058 H 0.82498 0.81753 0.2932 0.0
H3059 H 0.74758 0.85125 0.24574 0.0
H3060 H 0.70415 0.77168 0.18761 0.0
H3061 H 0.71252 0.80637 0.19266 0.0
H3062 H 0.81191 0.70915 0.31246 0.0
H3063 H 0.7287 0.83616 0.21427 0.0
H3064 H 0.85336 0.8213 0.35151 0.0
N3065 N 0.8144 0.75394 0.30212 0.0
C3066 C 0.82477 0.76334 0.31897 0.0
C3067 C 0.81552 0.7244 0.31452 0.0
C3068 C 0.83077 0.7536 0.33441 0.0
C3069 C 0.80991 0.73469 0.29959 0.0
C3070 C 0.82593 0.73388 0.33204 0.0
N3071 N 0.82307 0.79169 0.30548 0.0
C3072 C 0.82853 0.81071 0.30581 0.0
C3073 C 0.84028 0.79318 0.33776 0.0
C3074 C 0.82941 0.78286 0.32066 0.0
C3075 C 0.84501 0.81283 0.33863 0.0
C3076 C 0.83929 0.8216 0.32249 0.0
H3077 H 0.83028 0.72586 0.34356 0.0
H3078 H 0.84613 0.7566 0.36369 0.0
H3079 H 0.85448 0.79125 0.3666 0.0
O3080 O 0.8269 0.78427 0.26279 0.0
O3081 O 0.79272 0.77861 0.30651 0.0
O3082 O 0.77402 0.8001 0.29965 0.0
O3083 O 0.82544 0.75622 0.27046 0.0
O3084 O 0.80108 0.79731 0.26489 0.0
O3085 O 0.778 0.80949 0.27981 0.0
O3086 O 0.73355 0.77315 0.29144 0.0
O3087 O 0.76605 0.77892 0.24682 0.0
O3088 O 0.78583 0.75831 0.25365 0.0
O3089 O 0.73338 0.80092 0.28362 0.0
O3090 O 0.75841 0.7606 0.28803 0.0
O3091 O 0.78178 0.7483 0.27372 0.0
C3092 C 0.7837 0.79197 0.31227 0.0
C3093 C 0.85576 0.77359 0.26698 0.0
C3094 C 0.88741 0.77987 0.25634 0.0
C3095 C 0.8952 0.78177 0.27623 0.0
C3096 C 0.86404 0.77543 0.28661 0.0
C3097 C 0.8836 0.77952 0.29118 0.0
C3098 C 0.86753 0.77568 0.2518 0.0
C3099 C 0.79282 0.81144 0.27003 0.0
C3100 C 0.83496 0.76968 0.26225 0.0
C3101 C 0.84142 0.76382 0.35162 0.0
C3102 C 0.84617 0.78357 0.35329 0.0
C3103 C 0.77596 0.76631 0.24106 0.0
C3104 C 0.70386 0.78228 0.28787 0.0
C3105 C 0.67255 0.77517 0.29917 0.0
C3106 C 0.66445 0.77147 0.27934 0.0
C3107 C 0.69525 0.7787 0.2683 0.0
C3108 C 0.6924 0.78071 0.30337 0.0
C3109 C 0.67571 0.77332 0.26408 0.0
C3110 C 0.76633 0.74633 0.28256 0.0
C3111 C 0.72471 0.78721 0.29216 0.0
H3112 H 0.91035 0.7847 0.28025 0.0
H3113 H 0.85543 0.7736 0.29843 0.0
H3114 H 0.88981 0.78088 0.3064 0.0
H3115 H 0.86124 0.77429 0.23659 0.0
H3116 H 0.64929 0.76739 0.27562 0.0
H3117 H 0.70357 0.78009 0.25623 0.0
H3118 H 0.6989 0.78345 0.31857 0.0
H3119 H 0.66926 0.77057 0.24889 0.0
Tb3120 Tb 0.76434 0.28991 0.80906 0.0
C3121 C 0.80455 0.23428 0.74711 0.0
N3122 N 0.81143 0.25187 0.75637 0.0
C3123 C 0.84205 0.24401 0.7627 0.0
C3124 C 0.8159 0.22052 0.7459 0.0
C3125 C 0.8302 0.25715 0.76337 0.0
C3126 C 0.83479 0.2255 0.7542 0.0
C3127 C 0.77881 0.21274 0.727 0.0
C3128 C 0.7864 0.23052 0.73786 0.0
C3129 C 0.78965 0.19859 0.72647 0.0
C3130 C 0.8082 0.20248 0.73594 0.0
Tb3131 Tb 0.79105 0.27249 0.75771 0.0
N3132 N 0.77649 0.24461 0.73876 0.0
C3133 C 0.76072 0.20983 0.71671 0.0
C3134 C 0.75916 0.24206 0.72784 0.0
C3135 C 0.75097 0.22465 0.71694 0.0
H3136 H 0.83596 0.27149 0.76989 0.0
H3137 H 0.73714 0.22273 0.70863 0.0
H3138 H 0.7803 0.33655 0.81007 0.0
H3139 H 0.77689 0.24092 0.86121 0.0
H3140 H 0.75138 0.25325 0.72714 0.0
H3141 H 0.75436 0.19638 0.70823 0.0
H3142 H 0.76474 0.24961 0.82958 0.0
H3143 H 0.85676 0.24818 0.76873 0.0
H3144 H 0.78397 0.18476 0.71846 0.0
H3145 H 0.8166 0.19162 0.73503 0.0
H3146 H 0.80023 0.362 0.8332 0.0
H3147 H 0.844 0.21535 0.7536 0.0
H3148 H 0.7955 0.26533 0.88693 0.0
N3149 N 0.78366 0.31495 0.82831 0.0
C3150 C 0.79054 0.31114 0.84636 0.0
C3151 C 0.79779 0.34772 0.837 0.0
C3152 C 0.80154 0.32553 0.86034 0.0
C3153 C 0.7868 0.33306 0.82367 0.0
C3154 C 0.80523 0.34394 0.85539 0.0
N3155 N 0.7767 0.27899 0.83666 0.0
C3156 C 0.77308 0.26056 0.84029 0.0
C3157 C 0.79395 0.28815 0.86919 0.0
C3158 C 0.78677 0.29265 0.85078 0.0
C3159 C 0.79031 0.26933 0.87292 0.0
C3160 C 0.77987 0.2555 0.8584 0.0
H3161 H 0.81362 0.35538 0.86573 0.0
H3162 H 0.81688 0.33201 0.88974 0.0
H3163 H 0.81021 0.29931 0.89749 0.0
O3164 O 0.73927 0.28067 0.82116 0.0
O3165 O 0.7719 0.30879 0.78704 0.0
O3166 O 0.79804 0.29867 0.77761 0.0
O3167 O 0.74988 0.31017 0.82092 0.0
O3168 O 0.79397 0.28423 0.81323 0.0
O3169 O 0.80574 0.26861 0.78631 0.0
O3170 O 0.78778 0.2846 0.73135 0.0
O3171 O 0.77363 0.26945 0.7799 0.0
O3172 O 0.75452 0.25984 0.79994 0.0
O3173 O 0.81447 0.2905 0.74977 0.0
O3174 O 0.76203 0.27828 0.75119 0.0
O3175 O 0.74771 0.28816 0.77926 0.0
C3176 C 0.78685 0.31088 0.7775 0.0
C3177 C 0.73731 0.30139 0.84949 0.0
C3178 C 0.74307 0.29238 0.88254 0.0
C3179 C 0.74066 0.31017 0.89066 0.0
C3180 C 0.73469 0.31903 0.8578 0.0
C3181 C 0.73627 0.32333 0.8783 0.0
C3182 C 0.74108 0.28805 0.86198 0.0
C3183 C 0.80653 0.27534 0.80524 0.0
C3184 C 0.73812 0.29771 0.82809 0.0
C3185 C 0.80848 0.32112 0.8788 0.0
C3186 C 0.80467 0.3025 0.88323 0.0
C3187 C 0.76336 0.25497 0.78565 0.0
C3188 C 0.81495 0.28872 0.71528 0.0
C3189 C 0.82063 0.296 0.68225 0.0
C3190 C 0.83131 0.28174 0.68065 0.0
C3191 C 0.82554 0.27445 0.71343 0.0
C3192 C 0.8125 0.29936 0.69968 0.0
C3193 C 0.83373 0.27105 0.6962 0.0
C3194 C 0.74786 0.28378 0.75982 0.0
C3195 C 0.80558 0.29229 0.73287 0.0
H3196 H 0.74203 0.31383 0.90651 0.0
H3197 H 0.73187 0.3296 0.84846 0.0
H3198 H 0.73438 0.33701 0.88463 0.0
H3199 H 0.74327 0.27447 0.85574 0.0
H3200 H 0.83789 0.27896 0.66747 0.0
H3201 H 0.82741 0.26586 0.72516 0.0
H3202 H 0.80385 0.31 0.701 0.0
H3203 H 0.84193 0.26007 0.69487 0.0
Tb3204 Tb 0.77789 0.75293 0.7604 0.0
C3205 C 0.84379 0.80398 0.80506 0.0
N3206 N 0.82629 0.79831 0.81045 0.0
C3207 C 0.84038 0.78996 0.84073 0.0
C3208 C 0.86019 0.80187 0.81679 0.0
C3209 C 0.82459 0.79268 0.82875 0.0
C3210 C 0.85823 0.79418 0.83452 0.0
C3211 C 0.86316 0.82029 0.7828 0.0
C3212 C 0.84534 0.81316 0.7884 0.0
C3213 C 0.87949 0.81743 0.79391 0.0
C3214 C 0.87801 0.80821 0.81085 0.0
Tb3215 Tb 0.80164 0.80287 0.7888 0.0
N3216 N 0.82924 0.81525 0.77775 0.0
C3217 C 0.86398 0.83026 0.76636 0.0
C3218 C 0.82991 0.82567 0.76226 0.0
C3219 C 0.84728 0.83316 0.75619 0.0
H3220 H 0.81126 0.79082 0.83463 0.0
H3221 H 0.84778 0.84114 0.74369 0.0
H3222 H 0.7512 0.76327 0.72298 0.0
H3223 H 0.76256 0.6989 0.80858 0.0
H3224 H 0.81704 0.82802 0.7545 0.0
H3225 H 0.87741 0.83601 0.76159 0.0
H3226 H 0.78298 0.71997 0.79004 0.0
H3227 H 0.83882 0.78505 0.85497 0.0
H3228 H 0.89333 0.82261 0.78974 0.0
H3229 H 0.89075 0.80654 0.81958 0.0
H3230 H 0.7171 0.75804 0.71089 0.0
H3231 H 0.87047 0.79234 0.84398 0.0
H3232 H 0.72792 0.69648 0.80361 0.0
N3233 N 0.74686 0.74888 0.74814 0.0
C3234 C 0.73436 0.7379 0.75759 0.0
C3235 C 0.72176 0.75245 0.72416 0.0
C3236 C 0.71484 0.73456 0.75136 0.0
C3237 C 0.74101 0.75542 0.73103 0.0
C3238 C 0.70858 0.74226 0.73458 0.0
N3239 N 0.76042 0.73119 0.77668 0.0
C3240 C 0.76799 0.71976 0.78853 0.0
C3241 C 0.72909 0.71654 0.78223 0.0
C3242 C 0.74141 0.729 0.7727 0.0
C3243 C 0.73688 0.70619 0.79591 0.0
C3244 C 0.75642 0.70752 0.79876 0.0
H3245 H 0.69369 0.73997 0.72923 0.0
H3246 H 0.68728 0.72055 0.75724 0.0
H3247 H 0.69977 0.70479 0.78438 0.0
O3248 O 0.77493 0.72505 0.747 0.0
O3249 O 0.75889 0.77334 0.76628 0.0
O3250 O 0.7726 0.79184 0.79507 0.0
O3251 O 0.78794 0.74839 0.73303 0.0
O3252 O 0.79281 0.75387 0.79025 0.0
O3253 O 0.78861 0.78163 0.80646 0.0
O3254 O 0.79327 0.82867 0.78552 0.0
O3255 O 0.81621 0.78794 0.76695 0.0
O3256 O 0.80793 0.75749 0.77249 0.0
O3257 O 0.8093 0.82471 0.81231 0.0
O3258 O 0.78622 0.80437 0.75991 0.0
O3259 O 0.78549 0.77538 0.742 0.0
C3260 C 0.75744 0.78368 0.78282 0.0
C3261 C 0.80182 0.72176 0.73104 0.0
C3262 C 0.8236 0.70239 0.74304 0.0
C3263 C 0.8351 0.70769 0.72843 0.0
C3264 C 0.81336 0.72675 0.71641 0.0
C3265 C 0.82997 0.71983 0.71522 0.0
C3266 C 0.80712 0.70969 0.74437 0.0
C3267 C 0.78958 0.76373 0.80622 0.0
C3268 C 0.78508 0.73025 0.73319 0.0
C3269 C 0.70238 0.72309 0.76159 0.0
C3270 C 0.70949 0.71413 0.77707 0.0
C3271 C 0.82049 0.77115 0.76755 0.0
C3272 C 0.78491 0.84179 0.81505 0.0
C3273 C 0.763 0.86316 0.81877 0.0
C3274 C 0.75518 0.85293 0.8333 0.0
C3275 C 0.77699 0.83165 0.8296 0.0
C3276 C 0.77791 0.85748 0.80978 0.0
C3277 C 0.76224 0.8373 0.83872 0.0
C3278 C 0.7849 0.79344 0.74307 0.0
C3279 C 0.79917 0.8353 0.80383 0.0
H3280 H 0.84784 0.7022 0.72698 0.0
H3281 H 0.80966 0.73623 0.70609 0.0
H3282 H 0.83887 0.72383 0.70399 0.0
H3283 H 0.79858 0.70617 0.75604 0.0
H3284 H 0.7437 0.85705 0.84048 0.0
H3285 H 0.78191 0.81919 0.83365 0.0
H3286 H 0.78366 0.86484 0.79807 0.0
H3287 H 0.7561 0.82939 0.84984 0.0
Tb3288 Tb 0.55575 0.54169 0.54102 0.0
C3289 C 0.48754 0.47544 0.51011 0.0
N3290 N 0.4999 0.48705 0.50112 0.0
C3291 C 0.50255 0.46106 0.4778 0.0
C3292 C 0.48289 0.4559 0.50398 0.0
C3293 C 0.50678 0.48036 0.48456 0.0
C3294 C 0.4908 0.44871 0.48776 0.0
C3295 C 0.46496 0.47219 0.53374 0.0
C3296 C 0.47864 0.48348 0.52457 0.0
C3297 C 0.46111 0.45252 0.52869 0.0
C3298 C 0.47002 0.44438 0.51376 0.0
Tb3299 Tb 0.50559 0.51834 0.51266 0.0
N3300 N 0.48225 0.50256 0.52837 0.0
C3301 C 0.45498 0.4811 0.54699 0.0
C3302 C 0.47142 0.51133 0.53997 0.0
C3303 C 0.458 0.50078 0.54985 0.0
H3304 H 0.51584 0.48993 0.47688 0.0
H3305 H 0.44981 0.50784 0.55942 0.0
H3306 H 0.54205 0.55363 0.58564 0.0
H3307 H 0.59495 0.58461 0.49379 0.0
H3308 H 0.47302 0.5265 0.54151 0.0
H3309 H 0.44437 0.47295 0.55441 0.0
H3310 H 0.58106 0.55477 0.50588 0.0
H3311 H 0.50836 0.45572 0.46497 0.0
H3312 H 0.45077 0.44356 0.5357 0.0
H3313 H 0.46642 0.42928 0.50948 0.0
H3314 H 0.53651 0.58221 0.60421 0.0
H3315 H 0.48752 0.43378 0.48251 0.0
H3316 H 0.59068 0.61511 0.51043 0.0
N3317 N 0.55095 0.56731 0.56106 0.0
C3318 C 0.55742 0.58439 0.55504 0.0
C3319 C 0.54199 0.58299 0.59015 0.0
C3320 C 0.55544 0.60134 0.56581 0.0
C3321 C 0.54455 0.5666 0.57912 0.0
C3322 C 0.54709 0.60041 0.58327 0.0
N3323 N 0.56865 0.56833 0.52858 0.0
C3324 C 0.57903 0.56802 0.51307 0.0
C3325 C 0.57459 0.60228 0.5322 0.0
C3326 C 0.56699 0.58494 0.53855 0.0
C3327 C 0.58459 0.60209 0.51577 0.0
C3328 C 0.58699 0.58489 0.5063 0.0
H3329 H 0.54533 0.6131 0.59198 0.0
H3330 H 0.56089 0.63183 0.56719 0.0
H3331 H 0.57759 0.63263 0.53769 0.0
O3332 O 0.5822 0.53434 0.53889 0.0
O3333 O 0.54102 0.55614 0.51879 0.0
O3334 O 0.51049 0.54849 0.52426 0.0
O3335 O 0.57676 0.54993 0.56528 0.0
O3336 O 0.55708 0.52493 0.51287 0.0
O3337 O 0.5286 0.52557 0.49486 0.0
O3338 O 0.47835 0.51893 0.49917 0.0
O3339 O 0.52439 0.49817 0.52002 0.0
O3340 O 0.54513 0.51255 0.54741 0.0
O3341 O 0.50264 0.52537 0.48384 0.0
O3342 O 0.50732 0.53387 0.54226 0.0
O3343 O 0.53458 0.52917 0.559 0.0
C3344 C 0.52434 0.56076 0.51924 0.0
C3345 C 0.59544 0.52698 0.5689 0.0
C3346 C 0.61849 0.50699 0.57367 0.0
C3347 C 0.60838 0.49855 0.58793 0.0
C3348 C 0.58545 0.51858 0.5833 0.0
C3349 C 0.59199 0.50446 0.59282 0.0
C3350 C 0.61195 0.52126 0.56431 0.0
C3351 C 0.54643 0.52408 0.49597 0.0
C3352 C 0.58821 0.54057 0.55727 0.0
C3353 C 0.56244 0.61868 0.55919 0.0
C3354 C 0.57202 0.61915 0.54244 0.0
C3355 C 0.53587 0.4972 0.53599 0.0
C3356 C 0.47987 0.54405 0.47927 0.0
C3357 C 0.461 0.56826 0.48418 0.0
C3358 C 0.47184 0.57933 0.47217 0.0
C3359 C 0.49037 0.55521 0.46703 0.0
C3360 C 0.46519 0.55069 0.48772 0.0
C3361 C 0.48642 0.57278 0.46364 0.0
C3362 C 0.51661 0.52999 0.55826 0.0
C3363 C 0.48494 0.52609 0.48402 0.0
H3364 H 0.61316 0.48746 0.59528 0.0
H3365 H 0.57245 0.52262 0.58691 0.0
H3366 H 0.58418 0.4979 0.60377 0.0
H3367 H 0.61933 0.52745 0.55283 0.0
H3368 H 0.46886 0.5929 0.46912 0.0
H3369 H 0.50182 0.55048 0.4603 0.0
H3370 H 0.4572 0.54233 0.4974 0.0
H3371 H 0.4947 0.58135 0.45437 0.0
Tb3372 Tb 1.00801 0.52665 0.03966 0.0
C3373 C 0.07646 0.57675 0.01934 0.0
N3374 N 0.06486 0.56237 0.00727 0.0
C3375 C 0.06296 0.58227 0.98162 0.0
C3376 C 0.08119 0.59477 0.01321 0.0
C3377 C 0.05844 0.56468 0.98844 0.0
C3378 C 0.07428 0.59741 0.99409 0.0
C3379 C 0.0946 0.58814 0.05126 0.0
C3380 C 0.0829 0.57344 0.0382 0.0
C3381 C 0.09911 0.60624 0.04536 0.0
C3382 C 0.09245 0.60953 0.02638 0.0
Tb3383 Tb 0.05912 0.53426 0.01966 0.0
N3384 N 0.0781 0.55576 0.0435 0.0
C3385 C 0.1018 0.5841 0.06969 0.0
C3386 C 0.08668 0.55144 0.06064 0.0
C3387 C 0.09812 0.56558 0.07423 0.0
H3388 H 0.04973 0.55297 0.97879 0.0
H3389 H 0.10447 0.5621 0.08799 0.0
H3390 H 0.01617 0.53023 0.0886 0.0
H3391 H 0.96003 0.47595 0.98656 0.0
H3392 H 0.08548 0.53705 0.06364 0.0
H3393 H 0.11084 0.59499 0.08017 0.0
H3394 H 0.98262 0.50588 0.99799 0.0
H3395 H 0.05769 0.58416 0.96678 0.0
H3396 H 0.10797 0.61772 0.05526 0.0
H3397 H 0.09615 0.62354 0.022 0.0
H3398 H 1.00891 0.50983 0.11464 0.0
H3399 H 0.07762 0.61105 0.98881 0.0
H3400 H 0.95156 0.45301 0.01014 0.0
N3401 N 1.00174 0.50961 0.06522 0.0
C3402 C 0.98992 0.49261 0.06027 0.0
C3403 C 1.00366 0.50472 0.09937 0.0
C3404 C 0.98484 0.48073 0.07467 0.0
C3405 C 1.00806 0.51611 0.08455 0.0
C3406 C 0.99216 0.48686 0.0944 0.0
N3407 N 0.98757 0.49935 0.02733 0.0
C3408 C 0.97921 0.4958 0.00824 0.0
C3409 C 0.96935 0.47034 0.03498 0.0
C3410 C 0.98226 0.48747 0.04073 0.0
C3411 C 0.96154 0.46605 0.01517 0.0
C3412 C 0.96633 0.47894 1.0018 0.0
H3413 H 0.98862 0.47815 0.10593 0.0
H3414 H 0.96833 0.454 0.07983 0.0
H3415 H 0.95478 0.4449 0.04507 0.0
O3416 O 0.98949 0.54273 0.02731 0.0
O3417 O 0.0154 0.5 0.02666 0.0
O3418 O 0.04619 0.50415 0.01801 0.0
O3419 O 0.98686 0.53391 0.056 0.0
O3420 O 0.01117 0.53504 0.01039 0.0
O3421 O 0.03535 0.52349 0.99688 0.0
O3422 O 0.08691 0.52874 0.02199 0.0
O3423 O 0.04247 0.55715 0.02298 0.0
O3424 O 0.02885 0.55259 0.05101 0.0
O3425 O 0.07074 0.52819 0.99337 0.0
O3426 O 0.05592 0.51987 0.04613 0.0
O3427 O 0.03392 0.53416 0.05986 0.0
C3428 C 0.02984 0.49345 0.02015 0.0
C3429 C 0.97865 0.56297 0.0506 0.0
C3430 C 0.95922 0.58705 0.05321 0.0
C3431 C 0.9744 0.59919 0.06518 0.0
C3432 C 0.99331 0.57511 0.06308 0.0
C3433 C 0.99127 0.5932 0.0701 0.0
C3434 C 0.96161 0.56896 0.04571 0.0
C3435 C 0.01849 0.52778 0.99538 0.0
C3436 C 0.98087 0.54395 0.04299 0.0
C3437 C 0.97234 0.46337 0.06899 0.0
C3438 C 0.96459 0.4582 0.04919 0.0
C3439 C 0.03701 0.56415 0.03942 0.0
C3440 C 0.10244 0.52186 0.99283 0.0
C3441 C 0.13113 0.50879 0.99221 0.0
C3442 C 0.133 0.51453 0.97341 0.0
C3443 C 0.10452 0.52725 0.97397 0.0
C3444 C 0.11575 0.51252 1.0019 0.0
C3445 C 0.11975 0.52364 0.96437 0.0
C3446 C 0.04688 0.52385 0.06119 0.0
C3447 C 0.08652 0.52633 1.00294 0.0
H3448 H 0.97324 0.61333 0.07083 0.0
H3449 H 1.00623 0.57051 0.06755 0.0
H3450 H 1.00272 0.60256 0.07956 0.0
H3451 H 0.95011 0.55934 0.03653 0.0
H3452 H 0.14459 0.5117 0.96555 0.0
H3453 H 0.09449 0.53448 0.96672 0.0
H3454 H 0.11422 0.50828 0.01645 0.0
H3455 H 0.12129 0.5279 0.94985 0.0
H3456 H 0.0395 0.17039 0.97296 0.0
H3457 H 0.99564 0.0786 0.02318 0.0
H3458 H 0.98584 0.16454 0.99594 0.0
H3459 H 0.04825 0.08556 0.99831 0.0
H3460 H 0.9914 0.10951 0.01354 0.0
H3461 H 0.04265 0.13957 0.98255 0.0
C3462 C 0.02837 0.16284 0.98017 0.0
C3463 C 0.0124 0.17063 0.98366 0.0
C3464 C 1.00388 0.10428 0.01019 0.0
C3465 C 0.0159 0.13434 0.99459 0.0
C3466 C 1.00634 0.08656 0.01573 0.0
C3467 C 0.0226 0.0794 0.01202 0.0
C3468 C 0.01766 0.11507 1.00062 0.0
C3469 C 0.03577 0.09052 1.00209 0.0
C3470 C 0.03015 0.14497 0.98554 0.0
C3471 C 0.99838 0.1594 0.99267 0.0
N3472 N 0.03306 0.1076 0.99687 0.0
N3473 N 1.00048 0.14204 0.99781 0.0
H3474 H 0.15729 0.77147 0.1595 0.0
H3475 H 0.22582 0.80809 0.26022 0.0
H3476 H 0.14371 0.80994 0.20559 0.0
H3477 H 0.2285 0.75739 0.22303 0.0
H3478 H 0.19768 0.81129 0.23884 0.0
H3479 H 0.1851 0.76836 0.18101 0.0
C3480 C 0.15995 0.7792 0.17414 0.0
C3481 C 0.14774 0.79092 0.18057 0.0
C3482 C 0.20442 0.79946 0.23537 0.0
C3483 C 0.18029 0.7877 0.20531 0.0
C3484 C 0.22055 0.79764 0.24754 0.0
C3485 C 0.22961 0.78242 0.24348 0.0
C3486 C 0.19737 0.78613 0.21877 0.0
C3487 C 0.222 0.76931 0.22684 0.0
C3488 C 0.17601 0.77747 0.18641 0.0
C3489 C 0.15261 0.80092 0.19966 0.0
N3490 N 0.20644 0.77153 0.21508 0.0
N3491 N 0.16844 0.79912 0.21125 0.0
H3492 H 0.54624 0.87772 0.49499 0.0
H3493 H 0.49858 0.96899 0.50063 0.0
H3494 H 0.48587 0.8739 0.48561 0.0
H3495 H 0.5539 0.96985 0.53025 0.0
H3496 H 0.49442 0.93481 0.49205 0.0
H3497 H 0.55006 0.91156 0.50507 0.0
C3498 C 0.53369 0.88372 0.49513 0.0
C3499 C 0.51562 0.8723 0.48925 0.0
C3500 C 0.50744 0.94242 0.50055 0.0
C3501 C 0.52018 0.91196 0.50045 0.0
C3502 C 0.50973 0.96203 0.50569 0.0
C3503 C 0.52635 0.97255 0.51679 0.0
C3504 C 0.52209 0.93299 0.506 0.0
C3505 C 0.54071 0.96254 0.52187 0.0
C3506 C 0.53598 0.90328 0.50081 0.0
C3507 C 0.50017 0.88168 0.48948 0.0
N3508 N 0.53828 0.9435 0.51642 0.0
N3509 N 0.50282 0.90074 0.49481 0.0
H3510 H 0.45206 0.26062 0.65265 0.0
H3511 H 0.40435 0.28914 0.74915 0.0
H3512 H 0.47916 0.30576 0.69786 0.0
H3513 H 0.38207 0.24018 0.70697 0.0
H3514 H 0.4297 0.29834 0.7286 0.0
H3515 H 0.42449 0.2557 0.67043 0.0
C3516 C 0.4522 0.26967 0.66621 0.0
C3517 C 0.46812 0.28365 0.67368 0.0
C3518 C 0.41909 0.28575 0.72369 0.0
C3519 C 0.43635 0.27786 0.69444 0.0
C3520 C 0.40452 0.28063 0.7353 0.0
C3521 C 0.39104 0.26396 0.72964 0.0
C3522 C 0.42013 0.27411 0.70629 0.0
C3523 C 0.39213 0.2532 0.71178 0.0
C3524 C 0.43641 0.26675 0.67647 0.0
C3525 C 0.46739 0.29464 0.6916 0.0
N3526 N 0.40641 0.25839 0.70084 0.0
N3527 N 0.45184 0.2915 0.70136 0.0
H3528 H 1.00726 0.81901 0.59984 0.0
H3529 H 0.05273 0.9246 0.5831 0.0
H3530 H 0.04675 0.85659 0.64419 0.0
H3531 H 1.00639 0.88889 0.54484 0.0
H3532 H 0.05091 0.90055 0.60605 0.0
H3533 H 1.00718 0.84474 0.57971 0.0
C3534 C 0.0158 0.83269 0.60553 0.0
C3535 C 0.02697 0.83545 0.62394 0.0
C3536 C 0.04107 0.89807 0.59268 0.0
C3537 C 0.02721 0.86523 0.60046 0.0
C3538 C 0.04201 0.91187 0.57964 0.0
C3539 C 0.02986 0.90874 0.56183 0.0
C3540 C 0.02789 0.88099 0.58789 0.0
C3541 C 0.01635 0.89183 0.55813 0.0
C3542 C 0.01583 0.84743 0.59389 0.0
C3543 C 0.03808 0.85356 0.63005 0.0
N3544 N 0.01585 0.87863 0.57089 0.0
N3545 N 0.03796 0.86769 0.61835 0.0
H3546 H 0.44238 0.82012 0.83046 0.0
H3547 H 0.34699 0.75921 0.76747 0.0
H3548 H 0.4407 0.76837 0.79297 0.0
H3549 H 0.34849 0.81022 0.8059 0.0
H3550 H 0.38112 0.76248 0.77633 0.0
H3551 H 0.40847 0.81713 0.82112 0.0
C3552 C 0.43505 0.80818 0.82013 0.0
C3553 C 0.44486 0.79454 0.81253 0.0
C3554 C 0.37405 0.77304 0.78278 0.0
C3555 C 0.40529 0.79088 0.80187 0.0
C3556 C 0.35445 0.77116 0.77774 0.0
C3557 C 0.34466 0.78459 0.78569 0.0
C3558 C 0.38421 0.78846 0.79603 0.0
C3559 C 0.35534 0.79972 0.79899 0.0
C3560 C 0.41549 0.80642 0.8149 0.0
C3561 C 0.43403 0.77921 0.7995 0.0
N3562 N 0.37438 0.80124 0.80368 0.0
N3563 N 0.41503 0.77784 0.79463 0.0
H3564 H 0.50202 0.13911 0.12942 0.0
H3565 H 0.55664 0.0949 0.04554 0.0
H3566 H 0.54826 0.17073 0.10442 0.0
H3567 H 0.51505 0.06058 0.07422 0.0
H3568 H 0.55271 0.12271 0.06641 0.0
H3569 H 0.50536 0.11052 0.10882 0.0
C3570 C 0.51281 0.14014 0.11957 0.0
C3571 C 0.52491 0.15756 0.11886 0.0
C3572 C 0.54443 0.10914 0.06823 0.0
C3573 C 0.52887 0.12459 0.09513 0.0
C3574 C 0.54664 0.09313 0.05622 0.0
C3575 C 0.53615 0.07516 0.05795 0.0
C3576 C 0.53153 0.10747 0.08224 0.0
C3577 C 0.52352 0.07403 0.0723 0.0
C3578 C 0.51479 0.12372 0.10788 0.0
C3579 C 0.53875 0.15773 0.10585 0.0
N3580 N 0.52152 0.08991 0.08379 0.0
N3581 N 0.54029 0.14164 0.09458 0.0
H3582 H 0.1491 0.32413 0.29937 0.0
H3583 H 0.23258 0.26444 0.30267 0.0
H3584 H 0.14845 0.27436 0.32893 0.0
H3585 H 0.23552 0.3144 0.27337 0.0
H3586 H 0.20192 0.26833 0.31229 0.0
H3587 H 0.18039 0.3215 0.29008 0.0
C3588 C 0.1554 0.31267 0.30405 0.0
C3589 C 0.14559 0.29941 0.31501 0.0
C3590 C 0.20915 0.27849 0.30372 0.0
C3591 C 0.18195 0.29621 0.30399 0.0
C3592 C 0.22673 0.27617 0.29804 0.0
C3593 C 0.23671 0.28881 0.28672 0.0
C3594 C 0.20113 0.29373 0.29827 0.0
C3595 C 0.22842 0.30413 0.2819 0.0
C3596 C 0.17337 0.31114 0.29857 0.0
C3597 C 0.15487 0.2848 0.3202 0.0
N3598 N 0.21119 0.3061 0.28758 0.0
N3599 N 0.17227 0.28365 0.31469 0.0
H3600 H 0.94954 0.03592 0.15399 0.0
H3601 H 0.02931 0.01317 0.08788 0.0
H3602 H 0.99647 0.01143 0.17493 0.0
H3603 H 0.98808 0.04559 0.06918 0.0
H3604 H 0.01629 0.01115 0.11913 0.0
H3605 H 0.96218 0.03829 0.12237 0.0
C3606 C 0.96247 0.03097 0.15195 0.0
C3607 C 0.97189 0.02339 0.16723 0.0
C3608 C 1.01 0.01867 0.10822 0.0
C3609 C 0.98652 0.02616 0.13092 0.0
C3610 C 0.01743 0.01982 0.0903 0.0
C3611 C 1.00968 0.02943 0.07573 0.0
C3612 C 0.9946 0.02715 0.11178 0.0
C3613 C 0.99429 0.03775 0.07981 0.0
C3614 C 0.96973 0.03244 0.13389 0.0
C3615 C 0.98877 0.01752 0.16373 0.0
N3616 N 0.98723 0.0364 0.09744 0.0
N3617 N 0.99546 0.01895 0.14598 0.0
H3618 H 0.28044 0.73152 0.45788 0.0
H3619 H 0.23056 0.73872 0.35056 0.0
H3620 H 0.2482 0.683 0.41993 0.0
H3621 H 0.24027 0.78423 0.39812 0.0
H3622 H 0.24299 0.7187 0.37334 0.0
H3623 H 0.27199 0.75178 0.43324 0.0
C3624 C 0.27181 0.72515 0.44422 0.0
C3625 C 0.26489 0.70565 0.44088 0.0
C3626 C 0.24241 0.73309 0.37873 0.0
C3627 C 0.25525 0.72856 0.41283 0.0
C3628 C 0.23538 0.74448 0.36579 0.0
C3629 C 0.23422 0.76301 0.37262 0.0
C3630 C 0.24861 0.74045 0.39849 0.0
C3631 C 0.24068 0.76989 0.39242 0.0
C3632 C 0.2669 0.73668 0.43028 0.0
C3633 C 0.25364 0.69802 0.42306 0.0
N3634 N 0.24766 0.7586 0.40469 0.0
N3635 N 0.24915 0.70952 0.40966 0.0
H3636 H 0.62185 1.00416 0.65766 0.0
H3637 H 0.54355 0.04685 0.59915 0.0
H3638 H 0.5948 0.04654 0.68492 0.0
H3639 H 0.56164 0.99624 0.5771 0.0
H3640 H 0.5602 0.04554 0.63162 0.0
H3641 H 0.59815 0.99947 0.62898 0.0
C3642 C 0.61075 0.01228 0.65777 0.0
C3643 C 0.61046 0.02594 0.67364 0.0
C3644 C 0.56029 0.03456 0.61977 0.0
C3645 C 0.58348 0.02089 0.64063 0.0
C3646 C 0.55076 0.03528 0.60128 0.0
C3647 C 0.55155 0.0218 0.58546 0.0
C3648 C 0.57075 0.02033 0.6223 0.0
C3649 C 0.56103 1.00709 0.58891 0.0
C3650 C 0.59725 0.00964 0.64133 0.0
C3651 C 0.59586 0.0362 0.67281 0.0
N3652 N 0.57052 1.00689 0.60692 0.0
N3653 N 0.58307 0.03362 0.65645 0.0
H3654 H 0.28714 0.30646 0.93819 0.0
H3655 H 0.28595 0.32932 0.82597 0.0
H3656 H 0.2919 0.36235 0.92058 0.0
H3657 H 0.2841 0.27325 0.8421 0.0
H3658 H 0.28826 0.3414 0.86081 0.0
H3659 H 0.28578 0.2937 0.90343 0.0
C3660 C 0.28784 0.31605 0.92705 0.0
C3661 C 0.28976 0.33556 0.93243 0.0
C3662 C 0.28743 0.32645 0.85682 0.0
C3663 C 0.28829 0.32103 0.89258 0.0
C3664 C 0.28607 0.31954 0.8369 0.0
C3665 C 0.28477 0.30024 0.83113 0.0
C3666 C 0.28742 0.31399 0.87123 0.0
C3667 C 0.28517 0.28825 0.84593 0.0
C3668 C 0.28717 0.30876 0.90721 0.0
C3669 C 0.29076 0.34727 0.91729 0.0
N3670 N 0.28637 0.29529 0.86531 0.0
N3671 N 0.28999 0.33985 0.89817 0.0
H3672 H 0.99654 1.00189 0.3617 0.0
H3673 H 0.99074 0.0409 0.47381 0.0
H3674 H 0.96624 0.04561 0.3784 0.0
H3675 H 0.03265 0.00911 0.4574 0.0
H3676 H 0.97971 0.04038 0.43897 0.0
H3677 H 1.00806 1.00202 0.3966 0.0
C3678 C 0.99231 0.01153 0.37269 0.0
C3679 C 0.98041 0.0238 0.36703 0.0
C3680 C 0.99124 0.0334 0.44297 0.0
C3681 C 0.99349 0.02393 0.40708 0.0
C3682 C 0.99755 0.03363 0.46293 0.0
C3683 C 0.01258 0.02485 0.46872 0.0
C3684 C 0.99985 0.02419 0.4285 0.0
C3685 C 0.0208 0.01574 0.45377 0.0
C3686 C 0.99896 0.01164 0.3926 0.0
C3687 C 0.97555 0.03607 0.38197 0.0
N3688 N 0.01431 0.0156 0.43439 0.0
N3689 N 0.982 0.03574 0.40124 0.0
H3690 H 0.25952 0.71852 0.61673 0.0
H3691 H 0.31554 0.74594 0.72529 0.0
H3692 H 0.31097 0.70011 0.63551 0.0
H3693 H 0.26431 0.76466 0.70655 0.0
H3694 H 0.31483 0.7301 0.69199 0.0
H3695 H 0.26167 0.73656 0.64915 0.0
C3696 C 0.27127 0.71828 0.62769 0.0
C3697 C 0.28505 0.70775 0.62347 0.0
C3698 C 0.30375 0.73769 0.69513 0.0
C3699 C 0.28766 0.72842 0.66052 0.0
C3700 C 0.30411 0.74663 0.71411 0.0
C3701 C 0.2898 0.75631 0.71861 0.0
C3702 C 0.28897 0.73849 0.68057 0.0
C3703 C 0.27554 0.75721 0.70361 0.0
C3704 C 0.27253 0.72864 0.64615 0.0
C3705 C 0.30013 0.70817 0.63809 0.0
N3706 N 0.27541 0.74829 0.68524 0.0
N3707 N 0.30098 0.71826 0.65601 0.0
H3708 H 0.61187 0.06004 0.83427 0.0
H3709 H 0.61773 0.10064 0.9467 0.0
H3710 H 0.66457 0.08756 0.8685 0.0
H3711 H 0.56711 0.09431 0.90597 0.0
H3712 H 0.63524 0.09424 0.91888 0.0
H3713 H 0.59498 0.07033 0.86121 0.0
C3714 C 0.61985 0.06821 0.84751 0.0
C3715 C 0.63959 0.07293 0.84929 0.0
C3716 C 0.62036 0.0945 0.91602 0.0
C3717 C 0.62048 0.08472 0.88 0.0
C3718 C 0.6104 0.09812 0.93184 0.0
C3719 C 0.59102 0.098 0.92851 0.0
C3720 C 0.61075 0.09037 0.89683 0.0
C3721 C 0.58209 0.09466 0.90906 0.0
C3722 C 0.61023 0.07421 0.86277 0.0
C3723 C 0.64932 0.08372 0.86659 0.0
N3724 N 0.59199 0.09073 0.89392 0.0
N3725 N 0.63966 0.08914 0.8814 0.0
H3726 H 0.2976 0.31394 0.12054 0.0
H3727 H 0.26974 0.32359 0.23053 0.0
H3728 H 0.28182 0.3642 0.14735 0.0
H3729 H 0.30207 0.28324 0.20933 0.0
H3730 H 0.2714 0.33737 0.19935 0.0
H3731 H 0.29671 0.30111 0.15207 0.0
C3732 C 0.29406 0.32239 0.133 0.0
C3733 C 0.2898 0.34028 0.13104 0.0
C3734 C 0.27821 0.32557 0.20159 0.0
C3735 C 0.28835 0.32533 0.16734 0.0
C3736 C 0.27739 0.31778 0.21945 0.0
C3737 C 0.28604 0.30242 0.22272 0.0
C3738 C 0.28746 0.31772 0.18671 0.0
C3739 C 0.29523 0.2951 0.20751 0.0
C3740 C 0.29346 0.31496 0.15103 0.0
C3741 C 0.2849 0.35024 0.14784 0.0
N3742 N 0.29564 0.30275 0.19021 0.0
N3743 N 0.28426 0.34262 0.16518 0.0
H3744 H 0.19624 0.93459 0.02973 0.0
H3745 H 0.15238 0.02306 0.06638 0.0
H3746 H 0.22232 0.9925 0.02684 0.0
H3747 H 0.12196 0.96556 0.0615 0.0
H3748 H 0.17892 0.01179 0.05357 0.0
H3749 H 0.16912 0.94534 0.04199 0.0
C3750 C 0.19614 0.94955 0.03139 0.0
C3751 C 0.21158 0.9627 0.02733 0.0
C3752 C 0.16648 1.00161 0.05533 0.0
C3753 C 0.18086 0.97507 0.04178 0.0
C3754 C 0.15135 1.00803 0.06266 0.0
C3755 C 0.13495 0.99521 0.06486 0.0
C3756 C 0.16523 0.9822 0.05019 0.0
C3757 C 0.13443 0.97588 0.06015 0.0
C3758 C 0.18074 0.95568 0.03857 0.0
C3759 C 0.21084 0.98192 0.03008 0.0
N3760 N 0.14936 0.96994 0.05293 0.0
N3761 N 0.19577 0.98753 0.03723 0.0
H3762 H 0.65977 0.61938 0.98926 0.0
H3763 H 0.5999 0.53662 0.03942 0.0
H3764 H 0.68508 0.59009 0.03325 0.0
H3765 H 0.57604 0.56959 0.9982 0.0
H3766 H 0.63154 0.55403 0.03583 0.0
H3767 H 0.62925 0.59943 0.99098 0.0
C3768 C 0.65891 0.60878 0.99934 0.0
C3769 C 0.67504 0.60655 0.01124 0.0
C3770 C 0.61934 0.55734 0.02752 0.0
C3771 C 0.63998 0.58339 0.01318 0.0
C3772 C 0.6013 0.54736 0.02951 0.0
C3773 C 0.58525 0.55171 0.01921 0.0
C3774 C 0.6213 0.57167 0.01508 0.0
C3775 C 0.58792 0.56582 0.00661 0.0
C3776 C 0.64146 0.59729 1.00025 0.0
C3777 C 0.67307 0.59225 0.0237 0.0
N3778 N 0.60552 0.57528 0.00497 0.0
N3779 N 0.65584 0.58128 0.02443 0.0
H3780 H 0.72037 0.48108 0.26372 0.0
H3781 H 0.72925 0.37303 0.26544 0.0
H3782 H 0.68309 0.44212 0.29246 0.0
H3783 H 0.76581 0.4137 0.23789 0.0
H3784 H 0.71416 0.39843 0.2788 0.0
H3785 H 0.73896 0.45696 0.25717 0.0
C3786 C 0.7161 0.4674 0.26867 0.0
C3787 C 0.7 0.46353 0.27841 0.0
C3788 C 0.72563 0.4018 0.27001 0.0
C3789 C 0.72131 0.43568 0.27097 0.0
C3790 C 0.73431 0.38735 0.26251 0.0
C3791 C 0.74863 0.39125 0.25034 0.0
C3792 C 0.73141 0.42025 0.26535 0.0
C3793 C 0.7546 0.41001 0.24692 0.0
C3794 C 0.72678 0.45363 0.26501 0.0
C3795 C 0.69539 0.44569 0.28488 0.0
N3796 N 0.74589 0.42373 0.25422 0.0
N3797 N 0.70588 0.43233 0.28086 0.0
H3798 H 0.90482 0.46725 0.54178 0.0
H3799 H 0.9853 0.54943 0.51726 0.0
H3800 H 0.89255 0.51808 0.52028 0.0
H3801 H 0.99267 0.49311 0.52593 0.0
H3802 H 0.95225 0.54072 0.52343 0.0
H3803 H 0.93827 0.47951 0.54207 0.0
C3804 C 0.90918 0.48117 0.53745 0.0
C3805 C 0.89587 0.49169 0.53103 0.0
C3806 C 0.96124 0.5304 0.52422 0.0
C3807 C 0.93425 0.50559 0.53076 0.0
C3808 C 0.98002 0.53533 0.52072 0.0
C3809 C 0.99173 0.52201 0.52139 0.0
C3810 C 0.95429 0.51206 0.52842 0.0
C3811 C 0.98427 0.50395 0.52578 0.0
C3812 C 0.9283 0.48809 0.53742 0.0
C3813 C 0.90237 0.50946 0.52514 0.0
N3814 N 0.96603 0.4995 0.52911 0.0
N3815 N 0.92117 0.51584 0.52503 0.0
H3816 H 0.31049 0.08871 0.2852 0.0
H3817 H 0.34678 0.18597 0.24299 0.0
H3818 H 0.36939 0.11387 0.28669 0.0
H3819 H 0.28851 0.15732 0.23582 0.0
H3820 H 0.35551 0.15999 0.25959 0.0
H3821 H 0.30208 0.11486 0.26877 0.0
C3822 C 0.32163 0.09984 0.28225 0.0
C3823 C 0.34064 0.09911 0.28732 0.0
C3824 C 0.34083 0.15934 0.25426 0.0
C3825 C 0.33118 0.12892 0.26839 0.0
C3826 C 0.33589 0.17404 0.2446 0.0
C3827 C 0.31691 0.17377 0.23813 0.0
C3828 C 0.32665 0.14434 0.25745 0.0
C3829 C 0.30329 0.15814 0.24083 0.0
C3830 C 0.31684 0.11471 0.27282 0.0
C3831 C 0.35453 0.11398 0.28332 0.0
N3832 N 0.30842 0.1441 0.2504 0.0
N3833 N 0.34952 0.12822 0.27398 0.0
H3834 H 0.34168 0.10146 0.53589 0.0
H3835 H 0.45395 0.11982 0.54257 0.0
H3836 H 0.37442 0.14933 0.51442 0.0
H3837 H 0.42009 0.06566 0.54807 0.0
H3838 H 0.42508 0.13145 0.53345 0.0
H3839 H 0.37033 0.08857 0.54177 0.0
C3840 C 0.35491 0.10924 0.5324 0.0
C3841 C 0.35569 0.12651 0.52471 0.0
C3842 C 0.42396 0.11698 0.53652 0.0
C3843 C 0.38853 0.1119 0.53145 0.0
C3844 C 0.44042 0.11038 0.54182 0.0
C3845 C 0.43939 0.09177 0.54614 0.0
C3846 C 0.40632 0.10498 0.53582 0.0
C3847 C 0.42151 0.08006 0.54473 0.0
C3848 C 0.37123 0.10183 0.53565 0.0
C3849 C 0.37316 0.1359 0.52024 0.0
N3850 N 0.40567 0.08691 0.53987 0.0
N3851 N 0.38892 0.12856 0.52383 0.0
H3852 H 0.7236 0.62568 0.27542 0.0
H3853 H 0.73884 0.73719 0.30633 0.0
H3854 H 0.68853 0.65224 0.31195 0.0
H3855 H 0.77179 0.71183 0.2662 0.0
H3856 H 0.72176 0.7059 0.3102 0.0
H3857 H 0.74292 0.65672 0.27366 0.0
C3858 C 0.72005 0.63801 0.28323 0.0
C3859 C 0.70436 0.63632 0.29382 0.0
C3860 C 0.7328 0.70713 0.30063 0.0
C3861 C 0.72634 0.67194 0.29171 0.0
C3862 C 0.74259 0.72504 0.2984 0.0
C3863 C 0.75685 0.72721 0.28594 0.0
C3864 C 0.7372 0.69114 0.29031 0.0
C3865 C 0.76107 0.71086 0.27613 0.0
C3866 C 0.73103 0.65574 0.28211 0.0
C3867 C 0.70031 0.65285 0.3034 0.0
N3868 N 0.75124 0.69353 0.27847 0.0
N3869 N 0.7112 0.66992 0.30209 0.0
H3870 H 0.85344 0.41714 0.76036 0.0
H3871 H 0.76506 0.33647 0.76932 0.0
H3872 H 0.79914 0.4277 0.77338 0.0
H3873 H 0.82206 0.32709 0.76949 0.0
H3874 H 0.7759 0.36892 0.7631 0.0
H3875 H 0.84062 0.38328 0.75625 0.0
C3876 C 0.83872 0.41233 0.76202 0.0
C3877 C 0.82733 0.4252 0.76733 0.0
C3878 C 0.786 0.3597 0.76426 0.0
C3879 C 0.81267 0.38655 0.76284 0.0
C3880 C 0.77983 0.34118 0.76778 0.0
C3881 C 0.79277 0.32921 0.7703 0.0
C3882 C 0.80523 0.36628 0.76321 0.0
C3883 C 0.81165 0.3359 0.76779 0.0
C3884 C 0.83146 0.39301 0.75979 0.0
C3885 C 0.80844 0.41821 0.76955 0.0
N3886 N 0.81738 0.35411 0.76464 0.0
N3887 N 0.80172 0.39933 0.76741 0.0
H3888 H 0.04659 0.87822 0.0372 0.0
H3889 H 0.04558 0.98761 0.07217 0.0
H3890 H 0.04966 0.90122 0.09812 0.0
H3891 H 0.03565 0.96373 0.01119 0.0
H3892 H 0.04861 0.95656 0.08172 0.0
H3893 H 0.044 0.90933 0.02733 0.0
C3894 C 0.04684 0.88974 0.04859 0.0
C3895 C 0.04831 0.8867 0.06864 0.0
C3896 C 0.04566 0.95801 0.06622 0.0
C3897 C 0.04527 0.92289 0.05723 0.0
C3898 C 0.04398 0.97587 0.06071 0.0
C3899 C 0.04005 0.97849 0.04075 0.0
C3900 C 0.04358 0.94235 0.05174 0.0
C3901 C 0.0382 0.96248 0.02674 0.0
C3902 C 0.04524 0.90759 0.04287 0.0
C3903 C 0.04829 0.90247 0.08248 0.0
N3904 N 0.03998 0.94526 0.03244 0.0
N3905 N 0.04687 0.91968 0.07656 0.0
H3906 H 0.90535 0.29204 0.89354 0.0
H3907 H 0.82655 0.24682 0.80212 0.0
H3908 H 0.90658 0.24064 0.85676 0.0
H3909 H 0.82508 0.29814 0.83877 0.0
H3910 H 0.85527 0.24393 0.82245 0.0
H3911 H 0.87572 0.2941 0.87432 0.0
C3912 C 0.8995 0.28119 0.88139 0.0
C3913 C 0.90876 0.26617 0.87683 0.0
C3914 C 0.84866 0.25581 0.82615 0.0
C3915 C 0.87436 0.2684 0.85468 0.0
C3916 C 0.83226 0.25754 0.81442 0.0
C3917 C 0.82332 0.27285 0.81855 0.0
C3918 C 0.85638 0.26947 0.84228 0.0
C3919 C 0.83126 0.286 0.83507 0.0
C3920 C 0.88243 0.28234 0.87046 0.0
C3921 C 0.90004 0.2524 0.86107 0.0
N3922 N 0.84732 0.28407 0.84621 0.0
N3923 N 0.88348 0.25389 0.85059 0.0
H3924 H 0.56269 0.18738 0.54681 0.0
H3925 H 0.53237 0.08305 0.57752 0.0
H3926 H 0.52793 0.17556 0.59315 0.0
H3927 H 0.54785 0.09248 0.51986 0.0
H3928 H 0.53405 0.11707 0.58534 0.0
H3929 H 0.56105 0.15331 0.53871 0.0
C3930 C 0.55475 0.1777 0.55536 0.0
C3931 C 0.54538 0.18463 0.5707 0.0
C3932 C 0.53711 0.11173 0.57096 0.0
C3933 C 0.5436 0.14519 0.56152 0.0
C3934 C 0.53601 0.09219 0.5664 0.0
C3935 C 0.53974 0.08458 0.54784 0.0
C3936 C 0.54238 0.12412 0.55707 0.0
C3937 C 0.54504 0.0975 0.53441 0.0
C3938 C 0.55375 0.15816 0.55063 0.0
C3939 C 0.53523 0.1711 0.58106 0.0
N3940 N 0.54625 0.11649 0.53927 0.0
N3941 N 0.53474 0.15223 0.57641 0.0
H3942 H 0.60062 0.79975 0.38832 0.0
H3943 H 0.64447 0.74543 0.30247 0.0
H3944 H 0.57923 0.74169 0.36432 0.0
H3945 H 0.67138 0.80052 0.33155 0.0
H3946 H 0.62095 0.74377 0.32565 0.0
H3947 H 0.62666 0.80052 0.36809 0.0
C3948 C 0.60133 0.78716 0.37879 0.0
C3949 C 0.58756 0.77063 0.37805 0.0
C3950 C 0.63206 0.75618 0.32714 0.0
C3951 C 0.61756 0.77141 0.35486 0.0
C3952 C 0.64551 0.75713 0.31389 0.0
C3953 C 0.65989 0.77317 0.31501 0.0
C3954 C 0.63272 0.77149 0.3416 0.0
C3955 C 0.66061 0.78785 0.33021 0.0
C3956 C 0.61632 0.78758 0.36734 0.0
C3957 C 0.58953 0.7547 0.3656 0.0
N3958 N 0.6471 0.78675 0.34277 0.0
N3959 N 0.6041 0.75553 0.35447 0.0
H3960 H 0.01336 0.20383 0.39691 0.0
H3961 H 0.05274 0.14692 0.48133 0.0
H3962 H 0.06172 0.22802 0.43954 0.0
H3963 H 1.00725 0.12301 0.43534 0.0
H3964 H 0.0546 0.17761 0.4686 0.0
H3965 H 1.0096 0.17503 0.41274 0.0
C3966 C 0.02328 0.20311 0.40956 0.0
C3967 C 0.03804 0.21845 0.41668 0.0
C3968 C 0.04413 0.16566 0.46139 0.0
C3969 C 0.03361 0.18525 0.43523 0.0
C3970 C 0.04296 0.14817 0.46876 0.0
C3971 C 0.02992 0.13227 0.45931 0.0
C3972 C 0.03208 0.16732 0.44453 0.0
C3973 C 0.01772 0.13476 0.44295 0.0
C3974 C 0.02103 0.18662 0.41871 0.0
C3975 C 0.05008 0.21667 0.43352 0.0
N3976 N 0.01916 0.15182 0.43608 0.0
N3977 N 0.04767 0.20038 0.44212 0.0
H3978 H 0.62683 0.25246 0.25916 0.0
H3979 H 0.7322 0.28719 0.23171 0.0
H3980 H 0.639 0.28038 0.20799 0.0
H3981 H 0.7211 0.26378 0.28562 0.0
H3982 H 0.69821 0.28393 0.22257 0.0
H3983 H 0.66085 0.25527 0.26854 0.0
C3984 C 0.63653 0.25913 0.24979 0.0
C3985 C 0.62964 0.26624 0.23268 0.0
C3986 C 0.70314 0.2794 0.23638 0.0
C3987 C 0.66916 0.26961 0.24358 0.0
C3988 C 0.72269 0.28127 0.24167 0.0
C3989 C 0.72986 0.27555 0.25947 0.0
C3990 C 0.69029 0.27171 0.24888 0.0
C3991 C 0.71649 0.26804 0.2716 0.0
C3992 C 0.65608 0.26082 0.25527 0.0
C3993 C 0.64331 0.27492 0.22146 0.0
N3994 N 0.69752 0.26632 0.26611 0.0
N3995 N 0.66218 0.2763 0.22704 0.0
H3996 H 0.57122 0.89377 0.95071 0.0
H3997 H 0.53 0.98911 0.96034 0.0
H3998 H 0.5389 0.91182 0.90243 0.0
H3999 H 0.5703 0.97609 0.00466 0.0
H4000 H 0.53269 0.96075 0.93908 0.0
H4001 H 0.57053 0.9233 0.97085 0.0
C4002 C 0.5641 0.90392 0.94419 0.0
C4003 C 0.55509 0.90001 0.92465 0.0
C4004 C 0.54106 0.96412 0.9534 0.0
C4005 C 0.55399 0.93408 0.94806 0.0
C4006 C 0.53971 0.98049 0.96545 0.0
C4007 C 0.55009 0.98513 0.98424 0.0
C4008 C 0.55276 0.95209 0.96024 0.0
C4009 C 0.56185 0.97294 0.9904 0.0
C4010 C 0.56362 0.92082 0.95583 0.0
C4011 C 0.5458 0.91382 0.91743 0.0
N4012 N 0.56283 0.95701 0.97851 0.0
N4013 N 0.54545 0.93009 0.92908 0.0
H4014 H 0.92823 0.78264 0.71833 0.0
H4015 H 0.83913 0.7416 0.77402 0.0
H4016 H 0.92558 0.73252 0.74759 0.0
H4017 H 0.84413 0.79208 0.74541 0.0
H4018 H 0.8699 0.7372 0.76403 0.0
H4019 H 0.89744 0.78576 0.72804 0.0
C4020 C 0.9214 0.7723 0.72694 0.0
C4021 C 0.93009 0.75733 0.73215 0.0
C4022 C 0.86432 0.7493 0.76001 0.0
C4023 C 0.89379 0.76075 0.74321 0.0
C4024 C 0.84664 0.75181 0.76569 0.0
C4025 C 0.83896 0.76751 0.76098 0.0
C4026 C 0.87456 0.7625 0.74936 0.0
C4027 C 0.84951 0.78006 0.74994 0.0
C4028 C 0.90354 0.77405 0.73238 0.0
C4029 C 0.91973 0.74425 0.74294 0.0
N4030 N 0.86657 0.77735 0.74465 0.0
N4031 N 0.90235 0.74628 0.74808 0.0
H4032 H 0.11365 0.01494 0.89514 0.0
H4033 H 0.03317 0.03699 0.96017 0.0
H4034 H 0.07336 0.04919 0.87873 0.0
H4035 H 0.08147 0.01649 0.98488 0.0
H4036 H 0.04653 0.03866 0.92923 0.0
H4037 H 0.10097 0.01258 0.92689 0.0
C4038 C 0.10208 0.02188 0.89816 0.0
C4039 C 0.09456 0.03229 0.88421 0.0
C4040 C 0.05427 0.03379 0.94137 0.0
C4041 C 0.08002 0.02963 0.92051 0.0
C4042 C 0.04658 0.03271 0.95912 0.0
C4043 C 0.05615 0.0265 0.97527 0.0
C4044 C 0.07167 0.02847 0.93945 0.0
C4045 C 0.0736 0.02137 0.97286 0.0
C4046 C 0.09495 0.02063 0.91634 0.0
C4047 C 0.07973 0.04117 0.88905 0.0
N4048 N 0.08078 0.02239 0.95524 0.0
N4049 N 0.07292 0.03955 0.90669 0.0
H4050 H 0.79832 0.38414 0.61335 0.0
H4051 H 0.81333 0.28373 0.64259 0.0
H4052 H 0.80256 0.33792 0.57045 0.0
H4053 H 0.82087 0.33383 0.6844 0.0
H4054 H 0.80701 0.30245 0.61587 0.0
H4055 H 0.8033 0.36466 0.63964 0.0
C4056 C 0.80007 0.36979 0.60947 0.0
C4057 C 0.80006 0.36261 0.58973 0.0
C4058 C 0.81008 0.30932 0.63091 0.0
C4059 C 0.80603 0.34035 0.61971 0.0
C4060 C 0.81382 0.29868 0.64614 0.0
C4061 C 0.81759 0.30722 0.66577 0.0
C4062 C 0.81004 0.32859 0.63537 0.0
C4063 C 0.81773 0.32659 0.66953 0.0
C4064 C 0.80309 0.35875 0.62448 0.0
C4065 C 0.80267 0.34403 0.58552 0.0
N4066 N 0.81396 0.3366 0.65448 0.0
N4067 N 0.80558 0.33352 0.60041 0.0
H4068 H 0.47626 0.01104 0.37573 0.0
H4069 H 0.49949 0.05763 0.48701 0.0
H4070 H 0.45713 0.06091 0.39828 0.0
H4071 H 0.52749 0.01466 0.4627 0.0
H4072 H 0.48556 0.06031 0.45393 0.0
H4073 H 0.49688 0.01327 0.40668 0.0
C4074 C 0.47656 0.02255 0.38715 0.0
C4075 C 0.46486 0.0357 0.38459 0.0
C4076 C 0.49489 0.05041 0.45576 0.0
C4077 C 0.4883 0.03834 0.41988 0.0
C4078 C 0.50277 0.0488 0.47466 0.0
C4079 C 0.51442 0.0357 0.47757 0.0
C4080 C 0.49848 0.03865 0.43967 0.0
C4081 C 0.51846 0.02485 0.46106 0.0
C4082 C 0.48838 0.02388 0.40473 0.0
C4083 C 0.46597 0.05052 0.39965 0.0
N4084 N 0.51027 0.02639 0.44277 0.0
N4085 N 0.47731 0.0513 0.41676 0.0
H4086 H 0.78475 0.70336 0.12943 0.0
H4087 H 0.76146 0.78178 0.20916 0.0
H4088 H 0.7622 0.75138 0.11308 0.0
H4089 H 0.78786 0.73558 0.22391 0.0
H4090 H 0.76011 0.77042 0.17407 0.0
H4091 H 0.78482 0.71466 0.16405 0.0
C4092 C 0.77997 0.7164 0.13306 0.0
C4093 C 0.77366 0.7265 0.11812 0.0
C4094 C 0.76616 0.76276 0.185 0.0
C4095 C 0.77337 0.73943 0.15817 0.0
C4096 C 0.76684 0.76918 0.20508 0.0
C4097 C 0.77469 0.7596 0.21963 0.0
C4098 C 0.77342 0.74664 0.17936 0.0
C4099 C 0.7817 0.74351 0.21333 0.0
C4100 C 0.77988 0.72279 0.15294 0.0
C4101 C 0.76711 0.74303 0.12398 0.0
N4102 N 0.78089 0.73758 0.19376 0.0
N4103 N 0.76718 0.74899 0.14349 0.0
H4104 H 0.09705 1.00717 0.67264 0.0
H4105 H 0.03621 0.0524 0.59332 0.0
H4106 H 0.07468 0.05708 0.68799 0.0
H4107 H 0.07278 0.01407 0.57792 0.0
H4108 H 0.04726 0.05239 0.62825 0.0
H4109 H 0.08518 1.0074 0.63819 0.0
C4110 C 0.08972 0.01826 0.66885 0.0
C4111 C 0.08712 0.03226 0.68344 0.0
C4112 C 0.05289 0.04405 0.61719 0.0
C4113 C 0.07305 0.03232 0.64369 0.0
C4114 C 0.04667 0.04412 0.59719 0.0
C4115 C 0.05379 0.03349 0.58249 0.0
C4116 C 0.06607 0.03296 0.62261 0.0
C4117 C 0.06695 0.02263 0.5886 0.0
C4118 C 0.08285 0.0183 0.64909 0.0
C4119 C 0.07695 0.04588 0.67743 0.0
N4120 N 0.07259 0.02261 0.60811 0.0
N4121 N 0.07032 0.04558 0.65806 0.0
H4122 H 0.82098 0.36792 0.41634 0.0
H4123 H 0.75772 0.31765 0.31837 0.0
H4124 H 0.76071 0.36526 0.40852 0.0
H4125 H 0.80923 0.30097 0.34018 0.0
H4126 H 0.75895 0.33721 0.34995 0.0
H4127 H 0.81763 0.34551 0.38676 0.0
C4128 C 0.80701 0.36254 0.40854 0.0
C4129 C 0.7911 0.36849 0.41503 0.0
C4130 C 0.76984 0.32908 0.34785 0.0
C4131 C 0.78728 0.34312 0.38088 0.0
C4132 C 0.76916 0.31799 0.32991 0.0
C4133 C 0.78345 0.30784 0.32677 0.0
C4134 C 0.78509 0.3302 0.36249 0.0
C4135 C 0.79794 0.3086 0.3421 0.0
C4136 C 0.80514 0.34977 0.39161 0.0
C4137 C 0.77343 0.36134 0.40393 0.0
N4138 N 0.79853 0.31982 0.35925 0.0
N4139 N 0.772 0.34909 0.38731 0.0
H4140 H 0.4155 1.0032 0.18368 0.0
H4141 H 0.51822 0.00877 0.15372 0.0
H4142 H 0.46383 0.04031 0.2174 0.0
H4143 H 0.46839 0.99034 0.11153 0.0
H4144 H 0.49871 0.02002 0.17769 0.0
H4145 H 0.43458 0.99818 0.15694 0.0
C4146 C 0.43009 0.0105 0.18524 0.0
C4147 C 0.43823 0.02211 0.20263 0.0
C4148 C 0.4921 0.01369 0.16311 0.0
C4149 C 0.46015 0.01619 0.17251 0.0
C4150 C 0.50317 1.00714 0.14955 0.0
C4151 C 0.49481 0.99853 0.13077 0.0
C4152 C 0.47254 0.01129 0.15788 0.0
C4153 C 0.47533 0.99694 0.1259 0.0
C4154 C 0.44095 1.00767 0.17004 0.0
C4155 C 0.45712 0.03131 0.2041 0.0
N4156 N 0.46479 1.00308 0.13947 0.0
N4157 N 0.46759 0.02791 0.18931 0.0
H4158 H 0.79441 0.69766 0.90542 0.0
H4159 H 0.76987 0.77428 0.83565 0.0
H4160 H 0.76408 0.7413 0.92243 0.0
H4161 H 0.80433 0.73411 0.81964 0.0
H4162 H 0.76683 0.76149 0.86696 0.0
H4163 H 0.79734 0.70982 0.87364 0.0
C4164 C 0.78828 0.70975 0.90249 0.0
C4165 C 0.77892 0.7184 0.91674 0.0
C4166 C 0.775 0.75537 0.85662 0.0
C4167 C 0.78237 0.73252 0.88022 0.0
C4168 C 0.77674 0.76266 0.83868 0.0
C4169 C 0.78722 0.75514 0.82485 0.0
C4170 C 0.78383 0.74037 0.86097 0.0
C4171 C 0.79581 0.74011 0.82968 0.0
C4172 C 0.79006 0.71675 0.88432 0.0
C4173 C 0.77159 0.73424 0.91209 0.0
N4174 N 0.79393 0.73322 0.84732 0.0
N4175 N 0.77341 0.74071 0.89428 0.0
H4176 H 0.88565 0.13133 0.03571 0.0
H4177 H 0.95984 0.10185 0.99342 0.0
H4178 H 0.85746 0.07299 0.02281 0.0
H4179 H 0.92913 0.04528 0.99496 0.0
H4180 H 0.93542 0.11419 0.00915 0.0
H4181 H 0.91486 0.12245 0.02774 0.0
C4182 C 0.88566 0.11658 0.03138 0.0
C4183 C 0.869 0.10291 0.02963 0.0
C4184 C 0.93413 0.09908 0.00656 0.0
C4185 C 0.9023 0.09268 0.01943 0.0
C4186 C 0.94804 0.09202 0.99729 0.0
C4187 C 0.94659 0.0725 0.99291 0.0
C4188 C 0.91862 0.08648 0.01149 0.0
C4189 C 0.93104 0.06043 0.99833 0.0
C4190 C 0.90235 0.11154 0.02644 0.0
C4191 C 0.86986 0.08406 0.02389 0.0
N4192 N 0.91764 0.06762 0.00721 0.0
N4193 N 0.88618 0.07955 0.01882 0.0
H4194 H 0.38411 0.46022 0.00807 0.0
H4195 H 0.487 0.50093 0.06443 0.0
H4196 H 0.39833 0.45799 0.07034 0.0
H4197 H 0.46793 0.51698 0.0082 0.0
H4198 H 0.45485 0.48441 0.06663 0.0
H4199 H 0.41488 0.48022 0.00746 0.0
C4200 C 0.39356 0.46407 0.0217 0.0
C4201 C 0.38846 0.45733 0.03931 0.0
C4202 C 0.45763 0.49168 0.05389 0.0
C4203 C 0.42405 0.48002 0.03854 0.0
C4204 C 0.47595 0.50109 0.05263 0.0
C4205 C 0.48006 0.5102 0.03606 0.0
C4206 C 0.44334 0.49119 0.03835 0.0
C4207 C 0.46529 0.51012 0.02123 0.0
C4208 C 0.41121 0.47546 0.02128 0.0
C4209 C 0.40164 0.46253 0.05634 0.0
N4210 N 0.44759 0.50055 0.0226 0.0
N4211 N 0.41883 0.47346 0.05549 0.0
H4212 H 0.37357 0.59491 0.81584 0.0
H4213 H 0.34056 0.68838 0.78665 0.0
H4214 H 0.37496 0.61122 0.75718 0.0
H4215 H 0.32427 0.66128 0.83721 0.0
H4216 H 0.35429 0.66129 0.77576 0.0
H4217 H 0.35725 0.62057 0.82457 0.0
C4218 C 0.37051 0.60397 0.80482 0.0
C4219 C 0.37572 0.60098 0.78579 0.0
C4220 C 0.3476 0.66127 0.78918 0.0
C4221 C 0.35695 0.63042 0.79566 0.0
C4222 C 0.33964 0.67669 0.79535 0.0
C4223 C 0.33138 0.67731 0.81304 0.0
C4224 C 0.34746 0.64641 0.80083 0.0
C4225 C 0.33086 0.66174 0.82376 0.0
C4226 C 0.36106 0.61853 0.80976 0.0
C4227 C 0.37113 0.61299 0.772 0.0
N4228 N 0.33892 0.64708 0.8176 0.0
N4229 N 0.36213 0.62728 0.77725 0.0
H4230 H 0.18746 0.5542 0.51682 0.0
H4231 H 0.08514 0.5709 0.53624 0.0
H4232 H 0.17005 0.60762 0.51389 0.0
H4233 H 0.09792 0.51553 0.52521 0.0
H4234 H 0.11657 0.58475 0.52862 0.0
H4235 H 0.15497 0.53958 0.52035 0.0
C4236 C 0.17675 0.56278 0.51678 0.0
C4237 C 0.18138 0.5821 0.51506 0.0
C4238 C 0.11246 0.56956 0.52762 0.0
C4239 C 0.1444 0.56563 0.51921 0.0
C4240 C 0.09452 0.56172 0.53178 0.0
C4241 C 0.089 0.54217 0.53066 0.0
C4242 C 0.12499 0.55768 0.52277 0.0
C4243 C 0.10181 0.53073 0.52592 0.0
C4244 C 0.15824 0.55446 0.51872 0.0
C4245 C 0.16701 0.59262 0.51495 0.0
N4246 N 0.11931 0.53867 0.52213 0.0
N4247 N 0.14918 0.58427 0.51717 0.0
H4248 H 0.75205 0.96364 0.76639 0.0
H4249 H 0.72593 0.86626 0.81131 0.0
H4250 H 0.69623 0.94223 0.78089 0.0
H4251 H 0.78284 0.89674 0.81102 0.0
H4252 H 0.71398 0.8922 0.79743 0.0
H4253 H 0.76275 0.93665 0.77883 0.0
C4254 C 0.74203 0.95319 0.77211 0.0
C4255 C 0.72329 0.95527 0.77282 0.0
C4256 C 0.72907 0.89318 0.80049 0.0
C4257 C 0.7354 0.92437 0.78706 0.0
C4258 C 0.73589 0.8785 0.80855 0.0
C4259 C 0.7554 0.87933 0.8122 0.0
C4260 C 0.74189 0.90868 0.79599 0.0
C4261 C 0.76769 0.89538 0.80811 0.0
C4262 C 0.74813 0.93781 0.77923 0.0
C4263 C 0.71078 0.94111 0.77999 0.0
N4264 N 0.76073 0.90936 0.80013 0.0
N4265 N 0.7171 0.92628 0.78697 0.0
H4266 H 0.73224 0.96505 0.50704 0.0
H4267 H 0.62515 0.97406 0.51734 0.0
H4268 H 0.69588 0.92897 0.53957 0.0
H4269 H 0.66052 1.00563 0.48034 0.0
H4270 H 0.65176 0.95975 0.5287 0.0
H4271 H 0.70699 0.98225 0.50007 0.0
C4272 C 0.71901 0.96084 0.5129 0.0
C4273 C 0.71622 0.94548 0.5239 0.0
C4274 C 0.65372 0.96989 0.51819 0.0
C4275 C 0.68702 0.96507 0.51571 0.0
C4276 C 0.63858 0.97816 0.51181 0.0
C4277 C 0.64058 0.99092 0.49773 0.0
C4278 C 0.67099 0.97452 0.51052 0.0
C4279 C 0.65826 0.99562 0.49096 0.0
C4280 C 0.70452 0.97062 0.5088 0.0
C4281 C 0.6986 0.94054 0.53081 0.0
N4282 N 0.67272 0.98738 0.49734 0.0
N4283 N 0.68467 0.95027 0.52657 0.0
H4284 H 0.34966 0.42832 0.78823 0.0
H4285 H 0.31529 0.32192 0.73802 0.0
H4286 H 0.3631 0.40916 0.73068 0.0
H4287 H 0.29294 0.34567 0.78856 0.0
H4288 H 0.33332 0.35336 0.73499 0.0
H4289 H 0.3294 0.39778 0.78868 0.0
C4290 C 0.34823 0.4178 0.77554 0.0
C4291 C 0.35809 0.42152 0.75931 0.0
C4292 C 0.32431 0.35171 0.7466 0.0
C4293 C 0.33503 0.38609 0.75997 0.0
C4294 C 0.31401 0.3338 0.74831 0.0
C4295 C 0.30258 0.3312 0.76353 0.0
C4296 C 0.3233 0.36709 0.76034 0.0
C4297 C 0.30142 0.34704 0.77649 0.0
C4298 C 0.33668 0.40026 0.77588 0.0
C4299 C 0.35598 0.40697 0.74361 0.0
N4300 N 0.31178 0.36424 0.7747 0.0
N4301 N 0.34473 0.3899 0.74436 0.0
H4302 H 0.27793 0.63799 0.28084 0.0
H4303 H 0.23071 0.72836 0.29327 0.0
H4304 H 0.21865 0.63811 0.26738 0.0
H4305 H 0.29077 0.73154 0.30269 0.0
H4306 H 0.22586 0.6941 0.29179 0.0
H4307 H 0.28295 0.67121 0.29511 0.0
C4308 C 0.26603 0.64505 0.28086 0.0
C4309 C 0.24796 0.63554 0.27247 0.0
C4310 C 0.24013 0.70223 0.29465 0.0
C4311 C 0.2534 0.67303 0.28924 0.0
C4312 C 0.24283 0.72176 0.29565 0.0
C4313 C 0.2611 0.7325 0.29802 0.0
C4314 C 0.25587 0.69349 0.29547 0.0
C4315 C 0.27646 0.72353 0.30087 0.0
C4316 C 0.26884 0.66387 0.28916 0.0
C4317 C 0.23292 0.64512 0.27312 0.0
N4318 N 0.27354 0.70439 0.29909 0.0
N4319 N 0.236 0.66332 0.28127 0.0
H4320 H 0.4837 0.66553 0.49837 0.0
H4321 H 0.5454 0.58356 0.49649 0.0
H4322 H 0.53542 0.66851 0.47187 0.0
H4323 H 0.49542 0.58029 0.52583 0.0
H4324 H 0.54123 0.61419 0.48686 0.0
H4325 H 0.48685 0.63436 0.50765 0.0
C4326 C 0.4957 0.65975 0.49436 0.0
C4327 C 0.50933 0.67018 0.48427 0.0
C4328 C 0.53113 0.60689 0.49544 0.0
C4329 C 0.51308 0.63391 0.49519 0.0
C4330 C 0.5336 0.58932 0.50111 0.0
C4331 C 0.52104 0.57926 0.51246 0.0
C4332 C 0.5158 0.61477 0.50089 0.0
C4333 C 0.50564 0.58744 0.51729 0.0
C4334 C 0.49752 0.64184 0.49982 0.0
C4335 C 0.52462 0.66156 0.4799 0.0
N4336 N 0.50352 0.60461 0.51158 0.0
N4337 N 0.52602 0.64417 0.48531 0.0
H4338 H 0.66797 0.31003 0.66731 0.0
H4339 H 0.71155 0.28103 0.76889 0.0
H4340 H 0.63415 0.27649 0.70401 0.0
H4341 H 0.74468 0.29028 0.72073 0.0
H4342 H 0.68341 0.28381 0.74735 0.0
H4343 H 0.69653 0.30753 0.68868 0.0
C4344 C 0.66653 0.30226 0.67993 0.0
C4345 C 0.64858 0.29342 0.68381 0.0
C4346 C 0.69683 0.28523 0.74148 0.0
C4347 C 0.68125 0.29067 0.70848 0.0
C4348 C 0.71296 0.28371 0.75381 0.0
C4349 C 0.73061 0.28538 0.74667 0.0
C4350 C 0.69828 0.28885 0.72189 0.0
C4351 C 0.73141 0.28877 0.72689 0.0
C4352 C 0.68285 0.30073 0.69204 0.0
C4353 C 0.64766 0.28341 0.70033 0.0
N4354 N 0.71555 0.29055 0.71527 0.0
N4355 N 0.66367 0.28244 0.71208 0.0
H4356 H 1.00464 0.36932 0.01373 0.0
H4357 H 0.04716 0.47503 0.9925 0.0
H4358 H 0.03209 0.382 0.96246 0.0
H4359 H 1.00802 0.46364 0.03501 0.0
H4360 H 0.04391 0.44101 0.98332 0.0
H4361 H 1.00782 0.4034 0.02369 0.0
C4362 C 0.01145 0.37919 0.00461 0.0
C4363 C 0.01801 0.37251 0.9871 0.0
C4364 C 0.03593 0.4459 0.99461 0.0
C4365 C 0.02178 0.4119 0.99857 0.0
C4366 C 0.03782 0.46542 0.99993 0.0
C4367 C 0.02766 0.47247 0.01444 0.0
C4368 C 0.02398 0.43298 0.00401 0.0
C4369 C 0.0158 0.45906 0.02344 0.0
C4370 C 0.01316 0.39872 0.01026 0.0
C4371 C 0.02657 0.38624 0.97591 0.0
N4372 N 0.01437 0.4401 0.01819 0.0
N4373 N 0.02825 0.40507 0.98183 0.0
H4374 H 0.98476 0.81336 0.19521 0.0
H4375 H 0.88552 0.75769 0.22083 0.0
H4376 H 0.95491 0.76088 0.16218 0.0
H4377 H 0.91897 0.8071 0.25636 0.0
H4378 H 0.90905 0.76001 0.19734 0.0
H4379 H 0.9593 0.81254 0.21596 0.0
C4380 C 0.97279 0.80172 0.19217 0.0
C4381 C 0.9721 0.78716 0.17684 0.0
C4382 C 0.91117 0.7704 0.21023 0.0
C4383 C 0.94274 0.78604 0.20087 0.0
C4384 C 0.89766 0.76916 0.22356 0.0
C4385 C 0.90032 0.78213 0.24071 0.0
C4386 C 0.92741 0.78479 0.21398 0.0
C4387 C 0.91645 0.79661 0.24353 0.0
C4388 C 0.95826 0.8012 0.20415 0.0
C4389 C 0.95625 0.77231 0.17395 0.0
N4390 N 0.92934 0.7975 0.23041 0.0
N4391 N 0.94225 0.77213 0.18582 0.0
H4392 H 0.51275 0.34912 0.13133 0.0
H4393 H 0.57862 0.40542 0.06068 0.0
H4394 H 0.56004 0.33042 0.10797 0.0
H4395 H 0.53712 0.42963 0.0896 0.0
H4396 H 0.56868 0.37612 0.07459 0.0
H4397 H 0.51847 0.3769 0.11342 0.0
C4398 C 0.52423 0.35074 0.12231 0.0
C4399 C 0.53601 0.33739 0.12131 0.0
C4400 C 0.56159 0.38773 0.07783 0.0
C4401 C 0.54262 0.36923 0.10073 0.0
C4402 C 0.56723 0.40449 0.06981 0.0
C4403 C 0.55882 0.42012 0.0741 0.0
C4404 C 0.54739 0.38639 0.0904 0.0
C4405 C 0.54396 0.41794 0.08586 0.0
C4406 C 0.52753 0.36667 0.11217 0.0
C4407 C 0.55075 0.3404 0.1095 0.0
N4408 N 0.53885 0.40147 0.09377 0.0
N4409 N 0.55361 0.35592 0.09975 0.0
H4410 H 0.9348 0.27544 0.33552 0.0
H4411 H 0.85091 0.29856 0.26183 0.0
H4412 H 0.94514 0.31206 0.29044 0.0
H4413 H 0.84181 0.27578 0.31644 0.0
H4414 H 0.88503 0.30167 0.27041 0.0
H4415 H 0.90078 0.27308 0.32699 0.0
C4416 C 0.93001 0.2829 0.32371 0.0
C4417 C 0.94318 0.29395 0.31372 0.0
C4418 C 0.8756 0.29609 0.2806 0.0
C4419 C 0.90367 0.29127 0.30379 0.0
C4420 C 0.856 0.29451 0.27578 0.0
C4421 C 0.84317 0.28738 0.28858 0.0
C4422 C 0.88271 0.29009 0.29823 0.0
C4423 C 0.85093 0.28151 0.30606 0.0
C4424 C 0.91046 0.28163 0.31893 0.0
C4425 C 0.93575 0.30348 0.29874 0.0
N4426 N 0.87001 0.28294 0.31028 0.0
N4427 N 0.91665 0.30183 0.2942 0.0
H4428 H 0.04447 0.67255 0.60122 0.0
H4429 H 0.0178 0.5593 0.5793 0.0
H4430 H 1.00706 0.63852 0.63451 0.0
H4431 H 0.05241 0.59507 0.54497 0.0
H4432 H 0.01393 0.58758 0.60007 0.0
H4433 H 0.04763 0.64401 0.58097 0.0
C4434 C 0.03696 0.65908 0.60439 0.0
C4435 C 0.02556 0.65812 0.61983 0.0
C4436 C 0.02236 0.58921 0.58797 0.0
C4437 C 0.02905 0.62498 0.59627 0.0
C4438 C 0.02465 0.57302 0.57611 0.0
C4439 C 0.03547 0.57461 0.56022 0.0
C4440 C 0.03098 0.60723 0.58404 0.0
C4441 C 0.04385 0.59293 0.55688 0.0
C4442 C 0.0387 0.64271 0.59268 0.0
C4443 C 0.0159 0.64011 0.62276 0.0
N4444 N 0.04145 0.60837 0.56862 0.0
N4445 N 0.01793 0.62432 0.6112 0.0
H4446 H 0.63699 0.78856 0.78416 0.0
H4447 H 0.74781 0.79489 0.81945 0.0
H4448 H 0.66216 0.80298 0.84475 0.0
H4449 H 0.72291 0.77822 0.75919 0.0
H4450 H 0.71682 0.79853 0.82864 0.0
H4451 H 0.66789 0.78486 0.77468 0.0
C4452 C 0.64886 0.79089 0.79559 0.0
C4453 C 0.6465 0.79617 0.81544 0.0
C4454 C 0.71802 0.79397 0.81339 0.0
C4455 C 0.68262 0.79211 0.80436 0.0
C4456 C 0.73586 0.79194 0.80806 0.0
C4457 C 0.73823 0.78598 0.78843 0.0
C4458 C 0.70207 0.7901 0.79905 0.0
C4459 C 0.72192 0.78239 0.77453 0.0
C4460 C 0.66667 0.78886 0.79006 0.0
C4461 C 0.66292 0.79923 0.82924 0.0
N4462 N 0.7047 0.78448 0.78006 0.0
N4463 N 0.68004 0.79716 0.82348 0.0
H4464 H 0.49155 0.5035 0.67447 0.0
H4465 H 0.48838 0.54709 0.57122 0.0
H4466 H 0.45619 0.54292 0.65956 0.0
H4467 H 0.52518 0.50955 0.58783 0.0
H4468 H 0.47534 0.54483 0.60277 0.0
H4469 H 0.50303 0.50467 0.64223 0.0
C4470 C 0.4861 0.51233 0.66441 0.0
C4471 C 0.47287 0.52315 0.66989 0.0
C4472 C 0.48619 0.537 0.59946 0.0
C4473 C 0.48613 0.52467 0.63277 0.0
C4474 C 0.49351 0.53816 0.58137 0.0
C4475 C 0.50771 0.5283 0.57676 0.0
C4476 C 0.49317 0.52594 0.6131 0.0
C4477 C 0.51421 0.51736 0.59074 0.0
C4478 C 0.49276 0.51307 0.64599 0.0
C4479 C 0.46658 0.53454 0.6562 0.0
N4480 N 0.50691 0.51647 0.6082 0.0
N4481 N 0.47323 0.53498 0.63833 0.0
H4482 H 0.79483 0.23395 0.97062 0.0
H4483 H 0.72859 0.25466 0.87839 0.0
H4484 H 0.75325 0.19149 0.93335 0.0
H4485 H 0.76969 0.29809 0.91498 0.0
H4486 H 0.73875 0.23119 0.89765 0.0
H4487 H 0.78758 0.25744 0.94934 0.0
C4488 C 0.78437 0.22953 0.9578 0.0
C4489 C 0.77449 0.21081 0.95382 0.0
C4490 C 0.74556 0.24584 0.90155 0.0
C4491 C 0.76595 0.23756 0.92967 0.0
C4492 C 0.73975 0.25925 0.89054 0.0
C4493 C 0.74826 0.27834 0.89517 0.0
C4494 C 0.75995 0.25153 0.9174 0.0
C4495 C 0.76255 0.28353 0.91116 0.0
C4496 C 0.78014 0.24296 0.94576 0.0
C4497 C 0.76097 0.20585 0.93714 0.0
N4498 N 0.76797 0.27017 0.92173 0.0
N4499 N 0.75703 0.21917 0.92575 0.0
H4500 H 0.11452 0.49676 0.16198 0.0
H4501 H 0.04919 0.54812 0.09449 0.0
H4502 H 0.1152 0.55667 0.16937 0.0
H4503 H 0.06546 0.49644 0.07254 0.0
H4504 H 0.06755 0.54782 0.12608 0.0
H4505 H 0.09161 0.49342 0.13244 0.0
C4506 C 0.10991 0.5092 0.15745 0.0
C4507 C 0.11684 0.52704 0.16825 0.0
C4508 C 0.06693 0.53641 0.11444 0.0
C4509 C 0.09037 0.52315 0.13492 0.0
C4510 C 0.05628 0.53645 0.09649 0.0
C4511 C 0.05579 0.52222 0.08097 0.0
C4512 C 0.07717 0.52206 0.11691 0.0
C4513 C 0.06558 0.50767 0.08421 0.0
C4514 C 0.09677 0.50722 0.14069 0.0
C4515 C 0.11005 0.54257 0.16184 0.0
N4516 N 0.07601 0.50799 0.10188 0.0
N4517 N 0.0972 0.54025 0.14564 0.0
H4518 H 0.79075 0.86307 0.42297 0.0
H4519 H 0.79518 0.77514 0.34444 0.0
H4520 H 0.7922 0.80774 0.43995 0.0
H4521 H 0.77694 0.82556 0.32879 0.0
H4522 H 0.79785 0.78762 0.37946 0.0
H4523 H 0.7893 0.85031 0.38842 0.0
C4524 C 0.79088 0.84823 0.41944 0.0
C4525 C 0.79165 0.83648 0.43444 0.0
C4526 C 0.79324 0.7959 0.36833 0.0
C4527 C 0.78997 0.8217 0.3947 0.0
C4528 C 0.79181 0.78885 0.34833 0.0
C4529 C 0.78578 0.79928 0.33359 0.0
C4530 C 0.78879 0.81362 0.37364 0.0
C4531 C 0.78151 0.81692 0.33957 0.0
C4532 C 0.78994 0.84092 0.39967 0.0
C4533 C 0.79149 0.81729 0.42888 0.0
N4534 N 0.78316 0.82352 0.35905 0.0
N4535 N 0.79077 0.81052 0.40948 0.0
H4536 H 0.46115 0.53932 0.88222 0.0
H4537 H 0.5388 0.51512 0.96142 0.0
H4538 H 0.50087 0.5051 0.86523 0.0
H4539 H 0.48689 0.5305 0.9762 0.0
H4540 H 0.52717 0.51334 0.92623 0.0
H4541 H 0.47289 0.53924 0.91685 0.0
C4542 C 0.47246 0.53191 0.88576 0.0
C4543 C 0.48006 0.52226 0.87072 0.0
C4544 C 0.51833 0.51705 0.93722 0.0
C4545 C 0.49354 0.52199 0.91056 0.0
C4546 C 0.52491 0.51792 0.9573 0.0
C4547 C 0.51388 0.52309 0.97185 0.0
C4548 C 0.50072 0.52165 0.93165 0.0
C4549 C 0.49608 0.52686 0.96558 0.0
C4550 C 0.47905 0.53172 0.90557 0.0
C4551 C 0.49452 0.51264 0.87631 0.0
N4552 N 0.49016 0.52624 0.94604 0.0
N4553 N 0.50086 0.51283 0.89576 0.0
H4554 H 0.81513 0.19407 0.14514 0.0
H4555 H 0.77146 0.27103 0.20703 0.0
H4556 H 0.76985 0.21958 0.1217 0.0
H4557 H 0.81136 0.24061 0.23336 0.0
H4558 H 0.77354 0.25478 0.17482 0.0
H4559 H 0.81679 0.21354 0.17679 0.0
C4560 C 0.80567 0.2039 0.14663 0.0
C4561 C 0.79223 0.20515 0.13091 0.0
C4562 C 0.78191 0.25168 0.18761 0.0
C4563 C 0.79395 0.22728 0.16689 0.0
C4564 C 0.78077 0.261 0.20602 0.0
C4565 C 0.7912 0.25708 0.2229 0.0
C4566 C 0.79353 0.23831 0.18605 0.0
C4567 C 0.80298 0.24393 0.22071 0.0
C4568 C 0.80655 0.21491 0.16468 0.0
C4569 C 0.78021 0.21799 0.13358 0.0
N4570 N 0.80378 0.23493 0.20258 0.0
N4571 N 0.78132 0.22852 0.15126 0.0
H4572 H 0.14741 0.54097 0.36428 0.0
H4573 H 0.07951 0.60305 0.40959 0.0
H4574 H 0.13375 0.58858 0.33716 0.0
H4575 H 0.11712 0.57715 0.44593 0.0
H4576 H 0.09532 0.59464 0.38108 0.0
H4577 H 0.13163 0.55018 0.39267 0.0
C4578 C 0.14096 0.55328 0.36431 0.0
C4579 C 0.14186 0.56412 0.34855 0.0
C4580 C 0.10006 0.59088 0.39535 0.0
C4581 C 0.12384 0.57459 0.38061 0.0
C4582 C 0.09115 0.59576 0.41166 0.0
C4583 C 0.09687 0.59068 0.43021 0.0
C4584 C 0.11455 0.58061 0.39759 0.0
C4585 C 0.11188 0.58095 0.43186 0.0
C4586 C 0.13211 0.55859 0.38048 0.0
C4587 C 0.13342 0.58 0.3492 0.0
N4588 N 0.12008 0.57609 0.41572 0.0
N4589 N 0.12463 0.58474 0.36497 0.0
H4590 H 0.79285 0.86925 0.65219 0.0
H4591 H 0.78339 0.77552 0.7057 0.0
H4592 H 0.78612 0.81321 0.62137 0.0
H4593 H 0.78528 0.83063 0.73683 0.0
H4594 H 0.7845 0.78932 0.67492 0.0
H4595 H 0.79041 0.85567 0.68323 0.0
C4596 C 0.79075 0.85407 0.65186 0.0
C4597 C 0.78962 0.8424 0.63395 0.0
C4598 C 0.78463 0.79844 0.68844 0.0
C4599 C 0.78705 0.82673 0.66975 0.0
C4600 C 0.78397 0.79055 0.70615 0.0
C4601 C 0.78436 0.8019 0.72411 0.0
C4602 C 0.78575 0.81792 0.68846 0.0
C4603 C 0.78505 0.82129 0.72345 0.0
C4604 C 0.78944 0.84634 0.66968 0.0
C4605 C 0.7873 0.82285 0.63471 0.0
N4606 N 0.78582 0.82869 0.70596 0.0
N4607 N 0.78609 0.81569 0.65225 0.0
H4608 H 0.69579 0.44204 0.52639 0.0
H4609 H 0.65199 0.52875 0.56866 0.0
H4610 H 0.72238 0.50049 0.52796 0.0
H4611 H 0.62309 0.47077 0.56431 0.0
H4612 H 0.67828 0.51833 0.55439 0.0
H4613 H 0.66872 0.452 0.5397 0.0
C4614 C 0.69578 0.45697 0.52922 0.0
C4615 C 0.71135 0.47049 0.52617 0.0
C4616 C 0.66624 0.50784 0.5566 0.0
C4617 C 0.68074 0.48193 0.54179 0.0
C4618 C 0.65128 0.51378 0.56479 0.0
C4619 C 0.63538 0.50057 0.56755 0.0
C4620 C 0.6653 0.48854 0.55111 0.0
C4621 C 0.6352 0.48136 0.56254 0.0
C4622 C 0.68043 0.46263 0.53701 0.0
C4623 C 0.71075 0.48963 0.53036 0.0
N4624 N 0.64993 0.47589 0.55443 0.0
N4625 N 0.69574 0.49478 0.53806 0.0
H4626 H 0.15972 0.12252 0.4874 0.0
H4627 H 0.10157 0.03828 0.53678 0.0
H4628 H 0.1854 0.09223 0.53017 0.0
H4629 H 0.07613 0.07014 0.49548 0.0
H4630 H 0.13262 0.05664 0.53327 0.0
H4631 H 0.12918 0.10246 0.48916 0.0
C4632 C 0.15895 0.11168 0.49721 0.0
C4633 C 0.17519 0.10914 0.50872 0.0
C4634 C 0.12025 0.05954 0.52491 0.0
C4635 C 0.14018 0.08593 0.51066 0.0
C4636 C 0.10252 0.049 0.52683 0.0
C4637 C 0.0862 0.05266 0.51641 0.0
C4638 C 0.12169 0.07387 0.51248 0.0
C4639 C 0.08828 0.06688 0.50391 0.0
C4640 C 0.14149 0.10015 0.49813 0.0
C4641 C 0.17332 0.0946 0.52087 0.0
N4642 N 0.10567 0.07697 0.50234 0.0
N4643 N 0.15614 0.08361 0.52158 0.0
H4644 H 0.1723 0.94282 0.75362 0.0
H4645 H 0.26123 0.89647 0.78435 0.0
H4646 H 0.21307 0.9653 0.80447 0.0
H4647 H 0.2236 0.87974 0.73027 0.0
H4648 H 0.24096 0.91822 0.79528 0.0
H4649 H 0.18825 0.9164 0.74801 0.0
C4650 C 0.18464 0.9422 0.76362 0.0
C4651 C 0.19153 0.95649 0.77934 0.0
C4652 C 0.23698 0.90954 0.78117 0.0
C4653 C 0.20988 0.92607 0.77307 0.0
C4654 C 0.24843 0.89705 0.77505 0.0
C4655 C 0.24401 0.8864 0.75641 0.0
C4656 C 0.22104 0.91127 0.76854 0.0
C4657 C 0.22747 0.88778 0.74473 0.0
C4658 C 0.19369 0.92703 0.76047 0.0
C4659 C 0.20728 0.95462 0.79214 0.0
N4660 N 0.21668 0.90008 0.75092 0.0
N4661 N 0.21606 0.9398 0.7886 0.0
H4662 H 0.39101 0.01231 0.02066 0.0
H4663 H 0.49453 0.99055 0.02374 0.0
H4664 H 0.40639 0.96091 0.03732 0.0
H4665 H 0.4829 0.04568 0.01614 0.0
H4666 H 0.46231 0.9803 0.03044 0.0
H4667 H 0.42451 0.02569 0.02028 0.0
C4668 C 0.40143 1.00392 0.02439 0.0
C4669 C 0.39592 0.98547 0.02899 0.0
C4670 C 0.46679 0.99473 0.02756 0.0
C4671 C 0.43407 1.00059 0.02859 0.0
C4672 C 0.48527 1.00063 0.02391 0.0
C4673 C 0.49145 0.01906 0.01976 0.0
C4674 C 0.4542 1.00723 0.02662 0.0
C4675 C 0.47864 0.03134 0.01937 0.0
C4676 C 0.42052 0.01158 0.02427 0.0
C4677 C 0.40997 0.97526 0.03393 0.0
N4678 N 0.46051 0.02515 0.02263 0.0
N4679 N 0.42836 0.98291 0.03344 0.0
H4680 H 0.8177 0.60525 0.80552 0.0
H4681 H 0.85835 0.70014 0.76153 0.0
H4682 H 0.87698 0.62579 0.80292 0.0
H4683 H 0.79941 0.67367 0.75535 0.0
H4684 H 0.86555 0.67642 0.78253 0.0
H4685 H 0.81092 0.63424 0.79379 0.0
C4686 C 0.82931 0.616 0.80281 0.0
C4687 C 0.84789 0.61297 0.80492 0.0
C4688 C 0.85102 0.67596 0.77672 0.0
C4689 C 0.84026 0.64605 0.79138 0.0
C4690 C 0.84694 0.68939 0.76462 0.0
C4691 C 0.82828 0.68881 0.75656 0.0
C4692 C 0.83634 0.66188 0.78074 0.0
C4693 C 0.81398 0.67478 0.76137 0.0
C4694 C 0.82544 0.63252 0.7961 0.0
C4695 C 0.86244 0.62751 0.80155 0.0
N4696 N 0.81833 0.66183 0.77303 0.0
N4697 N 0.85829 0.64331 0.79465 0.0
H4698 H 0.85204 0.60906 1.00133 0.0
H4699 H 0.94158 0.60711 0.07883 0.0
H4700 H 0.86451 0.64159 0.05892 0.0
H4701 H 0.93482 0.58081 0.01861 0.0
H4702 H 0.91213 0.61803 0.07211 0.0
H4703 H 0.88113 0.59694 0.00763 0.0
C4704 C 0.86088 0.61371 0.01527 0.0
C4705 C 0.85572 0.62637 0.02963 0.0
C4706 C 0.91705 0.60989 0.06032 0.0
C4707 C 0.88893 0.61235 0.03699 0.0
C4708 C 0.93397 0.60372 0.06412 0.0
C4709 C 0.94087 0.59318 0.04921 0.0
C4710 C 0.90676 0.60548 0.04146 0.0
C4711 C 0.93003 0.58881 0.03059 0.0
C4712 C 0.87744 0.6067 0.01887 0.0
C4713 C 0.86765 0.63163 0.04751 0.0
N4714 N 0.91354 0.59503 0.02722 0.0
N4715 N 0.88363 0.62462 0.05065 0.0
H4716 H 0.22943 0.12627 0.78162 0.0
H4717 H 0.23212 0.23749 0.79398 0.0
H4718 H 0.18323 0.15215 0.79736 0.0
H4719 H 0.27599 0.21314 0.7695 0.0
H4720 H 0.21553 0.20618 0.79775 0.0
H4721 H 0.24812 0.15772 0.77965 0.0
C4722 C 0.22328 0.13856 0.78481 0.0
C4723 C 0.20469 0.13657 0.78955 0.0
C4724 C 0.22878 0.2076 0.79156 0.0
C4725 C 0.22592 0.17249 0.78727 0.0
C4726 C 0.23835 0.22558 0.78938 0.0
C4727 C 0.25552 0.22808 0.78129 0.0
C4728 C 0.23636 0.19181 0.78568 0.0
C4729 C 0.26279 0.21193 0.77578 0.0
C4730 C 0.2339 0.15647 0.78356 0.0
C4731 C 0.19738 0.15296 0.79337 0.0
N4732 N 0.25315 0.19446 0.77804 0.0
N4733 N 0.20798 0.17016 0.79214 0.0
H4734 H 0.37383 0.90943 0.29021 0.0
H4735 H 0.28826 0.82634 0.24605 0.0
H4736 H 0.31715 0.91761 0.27471 0.0
H4737 H 0.33074 0.81742 0.29072 0.0
H4738 H 0.30385 0.85947 0.2484 0.0
H4739 H 0.36235 0.87506 0.28387 0.0
C4740 C 0.35898 0.9039 0.28549 0.0
C4741 C 0.3463 0.91611 0.28303 0.0
C4742 C 0.30995 0.85018 0.25742 0.0
C4743 C 0.33338 0.87738 0.27528 0.0
C4744 C 0.3012 0.83135 0.25597 0.0
C4745 C 0.30832 0.81943 0.26829 0.0
C4746 C 0.32586 0.85701 0.2713 0.0
C4747 C 0.325 0.82636 0.28098 0.0
C4748 C 0.3525 0.88444 0.28188 0.0
C4749 C 0.32724 0.90851 0.27688 0.0
N4750 N 0.3332 0.84491 0.28236 0.0
N4751 N 0.32135 0.88956 0.27304 0.0
H4752 H 0.52941 0.37554 0.54301 0.0
H4753 H 0.55229 0.48873 0.57136 0.0
H4754 H 0.56485 0.40348 0.59578 0.0
H4755 H 0.52496 0.46148 0.51457 0.0
H4756 H 0.55594 0.45788 0.58101 0.0
H4757 H 0.52623 0.40646 0.53316 0.0
C4758 C 0.5365 0.38808 0.55265 0.0
C4759 C 0.54747 0.38649 0.57039 0.0
C4760 C 0.54908 0.45857 0.56642 0.0
C4761 C 0.54382 0.42258 0.55891 0.0
C4762 C 0.54705 0.47633 0.5608 0.0
C4763 C 0.53817 0.47806 0.54199 0.0
C4764 C 0.54207 0.442 0.55328 0.0
C4765 C 0.53154 0.46111 0.52927 0.0
C4766 C 0.53474 0.40587 0.54689 0.0
C4767 C 0.55643 0.40364 0.58189 0.0
N4768 N 0.53355 0.44399 0.53511 0.0
N4769 N 0.55434 0.42074 0.57604 0.0
H4770 H 0.39954 0.78826 0.3946 0.0
H4771 H 0.32732 0.74612 0.29719 0.0
H4772 H 0.40951 0.74472 0.3516 0.0
H4773 H 0.32414 0.79695 0.33382 0.0
H4774 H 0.35613 0.744 0.31791 0.0
H4775 H 0.37086 0.79017 0.37375 0.0
C4776 C 0.39588 0.77915 0.38075 0.0
C4777 C 0.40734 0.76637 0.37499 0.0
C4778 C 0.34914 0.75562 0.32143 0.0
C4779 C 0.37382 0.76831 0.35096 0.0
C4780 C 0.33267 0.75693 0.30949 0.0
C4781 C 0.32312 0.77181 0.31357 0.0
C4782 C 0.35621 0.7692 0.33783 0.0
C4783 C 0.33071 0.78509 0.33011 0.0
C4784 C 0.37932 0.7802 0.36885 0.0
C4785 C 0.40123 0.75466 0.35697 0.0
N4786 N 0.34669 0.78346 0.34157 0.0
N4787 N 0.38499 0.75591 0.34569 0.0
H4788 H 0.04167 0.68576 0.03675 0.0
H4789 H 0.0423 0.5847 0.07616 0.0
H4790 H 0.05104 0.6784 0.09832 0.0
H4791 H 0.03672 0.59176 0.01442 0.0
H4792 H 0.04513 0.61885 0.08437 0.0
H4793 H 0.03918 0.65168 0.02819 0.0
C4794 C 0.04313 0.67708 0.04853 0.0
C4795 C 0.04668 0.68536 0.06838 0.0
C4796 C 0.04333 0.61301 0.069 0.0
C4797 C 0.04389 0.64581 0.05851 0.0
C4798 C 0.04164 0.59342 0.06429 0.0
C4799 C 0.03917 0.58516 0.04454 0.0
C4800 C 0.04246 0.62471 0.05388 0.0
C4801 C 0.03866 0.59738 0.02986 0.0
C4802 C 0.04181 0.65752 0.04358 0.0
C4803 C 0.04862 0.67304 0.08281 0.0
N4804 N 0.0402 0.61639 0.03479 0.0
N4805 N 0.04717 0.6541 0.07762 0.0
H4806 H 0.08073 0.28185 0.85542 0.0
H4807 H 0.19142 0.28031 0.86922 0.0
H4808 H 0.10965 0.26361 0.90587 0.0
H4809 H 0.16314 0.29393 0.81582 0.0
H4810 H 0.16113 0.27321 0.8821 0.0
H4811 H 0.11002 0.28537 0.83998 0.0
C4812 C 0.09313 0.27842 0.86323 0.0
C4813 C 0.09259 0.27255 0.88216 0.0
C4814 C 0.16144 0.27764 0.86751 0.0
C4815 C 0.12638 0.27678 0.86451 0.0
C4816 C 0.17879 0.28173 0.86014 0.0
C4817 C 0.17992 0.28789 0.84144 0.0
C4818 C 0.14488 0.2798 0.85625 0.0
C4819 C 0.16297 0.28918 0.83027 0.0
C4820 C 0.10991 0.28054 0.8544 0.0
C4821 C 0.10931 0.26856 0.8915 0.0
N4822 N 0.14619 0.28536 0.83791 0.0
N4823 N 0.12541 0.27081 0.88267 0.0
H4824 H 0.54504 0.6984 0.89108 0.0
H4825 H 0.52303 0.64815 0.98769 0.0
H4826 H 0.53726 0.72907 0.94585 0.0
H4827 H 0.52478 0.61826 0.93056 0.0
H4828 H 0.53091 0.67813 0.97381 0.0
H4829 H 0.54021 0.66928 0.90638 0.0
C4830 C 0.5425 0.6991 0.9064 0.0
C4831 C 0.54162 0.71637 0.91713 0.0
C4832 C 0.52963 0.665 0.96434 0.0
C4833 C 0.5358 0.68272 0.93482 0.0
C4834 C 0.52527 0.64787 0.9723 0.0
C4835 C 0.52308 0.63059 0.96027 0.0
C4836 C 0.53199 0.66489 0.94422 0.0
C4837 C 0.52601 0.63117 0.94036 0.0
C4838 C 0.5396 0.68237 0.91511 0.0
C4839 C 0.53789 0.71613 0.93687 0.0
N4840 N 0.53026 0.64795 0.93301 0.0
N4841 N 0.53513 0.69962 0.94506 0.0
H4842 H 0.13095 0.76257 0.76407 0.0
H4843 H 0.23439 0.78001 0.72768 0.0
H4844 H 0.14023 0.76497 0.70321 0.0
H4845 H 0.22504 0.76603 0.7859 0.0
H4846 H 0.20021 0.77658 0.71918 0.0
H4847 H 0.16517 0.76587 0.77299 0.0
C4848 C 0.1401 0.76389 0.75255 0.0
C4849 C 0.13237 0.76338 0.73276 0.0
C4850 C 0.20557 0.77417 0.73381 0.0
C4851 C 0.17201 0.76724 0.74302 0.0
C4852 C 0.2252 0.77619 0.73873 0.0
C4853 C 0.23284 0.77314 0.75755 0.0
C4854 C 0.19319 0.7693 0.74785 0.0
C4855 C 0.21995 0.76819 0.77112 0.0
C4856 C 0.15972 0.76566 0.75767 0.0
C4857 C 0.14524 0.765 0.71861 0.0
N4858 N 0.20092 0.76652 0.76607 0.0
N4859 N 0.16422 0.76691 0.72399 0.0
H4860 H 0.02754 0.38887 0.4383 0.0
H4861 H 0.07639 0.49616 0.47944 0.0
H4862 H 0.07931 0.41672 0.41936 0.0
H4863 H 0.02223 0.46803 0.49259 0.0
H4864 H 0.07852 0.46756 0.45789 0.0
H4865 H 0.02627 0.41778 0.45887 0.0
C4866 C 0.03861 0.40108 0.43829 0.0
C4867 C 0.05346 0.40019 0.42676 0.0
C4868 C 0.06618 0.46768 0.46552 0.0
C4869 C 0.05221 0.43373 0.45088 0.0
C4870 C 0.06494 0.48402 0.47777 0.0
C4871 C 0.04919 0.48452 0.48803 0.0
C4872 C 0.05156 0.45166 0.46348 0.0
C4873 C 0.0348 0.46831 0.48528 0.0
C4874 C 0.03792 0.41766 0.45021 0.0
C4875 C 0.06762 0.41655 0.428 0.0
N4876 N 0.03637 0.45266 0.47341 0.0
N4877 N 0.06663 0.43259 0.43976 0.0
H4878 H 0.41278 0.25589 0.19749 0.0
H4879 H 0.35262 0.27755 0.28713 0.0
H4880 H 0.43714 0.26615 0.25847 0.0
H4881 H 0.32827 0.26372 0.22642 0.0
H4882 H 0.38356 0.27433 0.27718 0.0
H4883 H 0.38222 0.25937 0.20787 0.0
C4884 C 0.41188 0.259 0.21309 0.0
C4885 C 0.42802 0.26079 0.22699 0.0
C4886 C 0.37149 0.27201 0.26598 0.0
C4887 C 0.39226 0.26471 0.23918 0.0
C4888 C 0.35374 0.27406 0.27168 0.0
C4889 C 0.33759 0.27123 0.25769 0.0
C4890 C 0.37339 0.267 0.246 0.0
C4891 C 0.34012 0.26607 0.23788 0.0
C4892 C 0.39421 0.26088 0.21903 0.0
C4893 C 0.42535 0.26444 0.24705 0.0
N4894 N 0.35749 0.2642 0.2327 0.0
N4895 N 0.40802 0.26634 0.25245 0.0
H4896 H 0.5688 0.54323 0.37753 0.0
H4897 H 0.58198 0.5181 0.48874 0.0
H4898 H 0.61501 0.51818 0.39933 0.0
H4899 H 0.53075 0.53041 0.45996 0.0
H4900 H 0.59565 0.5197 0.45735 0.0
H4901 H 0.55606 0.54064 0.40895 0.0
C4902 C 0.57633 0.53725 0.38896 0.0
C4903 C 0.59303 0.53094 0.38571 0.0
C4904 C 0.58138 0.52195 0.45798 0.0
C4905 C 0.57842 0.52784 0.42197 0.0
C4906 C 0.57357 0.52104 0.4759 0.0
C4907 C 0.55513 0.52407 0.47714 0.0
C4908 C 0.57074 0.52611 0.44125 0.0
C4909 C 0.54496 0.52786 0.45992 0.0
C4910 C 0.56898 0.53566 0.40691 0.0
C4911 C 0.602 0.52307 0.40108 0.0
N4912 N 0.5529 0.52886 0.44287 0.0
N4913 N 0.59465 0.52183 0.41856 0.0
H4914 H 0.32039 0.88095 0.11787 0.0
H4915 H 0.30567 0.77457 0.13965 0.0
H4916 H 0.28565 0.83577 0.07736 0.0
H4917 H 0.31162 0.82005 0.18669 0.0
H4918 H 0.30339 0.79703 0.11552 0.0
H4919 H 0.32225 0.8589 0.14263 0.0
C4920 C 0.31318 0.86638 0.11426 0.0
C4921 C 0.30282 0.86007 0.09568 0.0
C4922 C 0.30519 0.80206 0.13113 0.0
C4923 C 0.30512 0.83495 0.12354 0.0
C4924 C 0.3066 0.78933 0.14483 0.0
C4925 C 0.30885 0.79558 0.16506 0.0
C4926 C 0.30641 0.82119 0.13776 0.0
C4927 C 0.30983 0.81477 0.17115 0.0
C4928 C 0.31417 0.8539 0.12834 0.0
C4929 C 0.29366 0.84113 0.09161 0.0
N4930 N 0.30876 0.827 0.15751 0.0
N4931 N 0.29516 0.82916 0.10539 0.0
H4932 H 0.97228 0.506 0.87176 0.0
H4933 H 0.99075 0.54693 0.98574 0.0
H4934 H 0.94437 0.54758 0.89912 0.0
H4935 H 0.02416 0.50973 0.95988 0.0
H4936 H 0.9741 0.54719 0.95351 0.0
H4937 H 0.99187 0.50699 0.90328 0.0
C4938 C 0.97033 0.51537 0.88435 0.0
C4939 C 0.9567 0.52675 0.88282 0.0
C4940 C 0.98509 0.53898 0.95476 0.0
C4941 C 0.97899 0.52798 0.9187 0.0
C4942 C 0.9946 0.53875 0.97326 0.0
C4943 C 1.00882 0.52817 0.97555 0.0
C4944 C 0.98965 0.52845 0.93831 0.0
C4945 C 0.01328 0.51807 0.95872 0.0
C4946 C 0.98156 0.51599 0.90227 0.0
C4947 C 0.95487 0.53877 0.8995 0.0
N4948 N 1.00361 0.51835 0.94074 0.0
N4949 N 0.96582 0.53899 0.91672 0.0
H4950 H 0.26401 0.25407 0.61005 0.0
H4951 H 0.28858 0.23674 0.7225 0.0
H4952 H 0.28306 0.20462 0.62763 0.0
H4953 H 0.26172 0.28223 0.7064 0.0
H4954 H 0.28734 0.22548 0.68764 0.0
H4955 H 0.26349 0.26514 0.64491 0.0
C4956 C 0.26802 0.24548 0.62115 0.0
C4957 C 0.27375 0.2284 0.61572 0.0
C4958 C 0.28162 0.23788 0.69167 0.0
C4959 C 0.27335 0.24117 0.6558 0.0
C4960 C 0.28237 0.24437 0.71165 0.0
C4961 C 0.2752 0.26047 0.71751 0.0
C4962 C 0.27379 0.24759 0.67724 0.0
C4963 C 0.26724 0.26965 0.70264 0.0
C4964 C 0.26778 0.25187 0.64109 0.0
C4965 C 0.27896 0.21806 0.63094 0.0
N4966 N 0.26683 0.26314 0.68322 0.0
N4967 N 0.27868 0.22461 0.65016 0.0
H4968 H 0.60047 0.56563 0.18314 0.0
H4969 H 0.5324 0.50799 0.08892 0.0
H4970 H 0.56923 0.50891 0.18223 0.0
H4971 H 0.57012 0.56078 0.08657 0.0
H4972 H 0.54443 0.50903 0.12359 0.0
H4973 H 0.58794 0.56522 0.14857 0.0
C4974 C 0.59085 0.55313 0.17575 0.0
C4975 C 0.5859 0.53728 0.18572 0.0
C4976 C 0.55004 0.52046 0.11555 0.0
C4977 C 0.57161 0.53668 0.14593 0.0
C4978 C 0.54317 0.51989 0.09568 0.0
C4979 C 0.55005 0.5345 0.08476 0.0
C4980 C 0.56393 0.53577 0.12475 0.0
C4981 C 0.56406 0.54947 0.09445 0.0
C4982 C 0.58382 0.55287 0.15594 0.0
C4983 C 0.57361 0.5214 0.17517 0.0
N4984 N 0.5705 0.54975 0.11387 0.0
N4985 N 0.56689 0.52153 0.15594 0.0
H4986 H 0.26528 0.86777 0.90475 0.0
H4987 H 0.30478 0.78944 0.84026 0.0
H4988 H 0.31733 0.84985 0.92243 0.0
H4989 H 0.26381 0.81994 0.8163 0.0
H4990 H 0.30605 0.80764 0.87248 0.0
H4991 H 0.26148 0.8468 0.87393 0.0
C4992 C 0.27598 0.85952 0.90212 0.0
C4993 C 0.29174 0.86072 0.91616 0.0
C4994 C 0.29672 0.81026 0.86017 0.0
C4995 C 0.28722 0.8364 0.8811 0.0
C4996 C 0.29589 0.79981 0.84183 0.0
C4997 C 0.28428 0.80332 0.82557 0.0
C4998 C 0.28572 0.82415 0.86228 0.0
C4999 C 0.27309 0.81693 0.82842 0.0
C5000 C 0.27371 0.84746 0.88459 0.0
C5001 C 0.30486 0.84929 0.91215 0.0
N5002 N 0.27413 0.82691 0.84643 0.0
N5003 N 0.30232 0.83762 0.89496 0.0
H5004 H 0.91211 0.51364 0.68108 0.0
H5005 H 0.01518 0.50832 0.65572 0.0
H5006 H 0.96219 0.54188 0.71935 0.0
H5007 H 0.96596 0.49397 0.6123 0.0
H5008 H 0.9962 0.52119 0.67923 0.0
H5009 H 0.93166 0.50729 0.65519 0.0
C5010 C 0.92723 0.51875 0.68385 0.0
C5011 C 0.93564 0.52818 0.70229 0.0
C5012 C 0.98961 0.51539 0.6645 0.0
C5013 C 0.95808 0.52072 0.67304 0.0
C5014 C 1.00038 0.5079 0.65118 0.0
C5015 C 0.99204 0.49998 0.63216 0.0
C5016 C 0.97035 0.51469 0.65877 0.0
C5017 C 0.9729 0.50001 0.62683 0.0
C5018 C 0.93838 0.51515 0.66912 0.0
C5019 C 0.95523 0.53462 0.70524 0.0
N5020 N 0.96265 0.5071 0.64014 0.0
N5021 N 0.96587 0.5305 0.69083 0.0
H5022 H 0.27489 0.24736 0.42467 0.0
H5023 H 0.2927 0.22727 0.31146 0.0
H5024 H 0.28739 0.19458 0.40028 0.0
H5025 H 0.28733 0.28133 0.34023 0.0
H5026 H 0.29027 0.21438 0.34318 0.0
H5027 H 0.27886 0.25948 0.39319 0.0
C5028 C 0.27862 0.23833 0.41279 0.0
C5029 C 0.28081 0.21988 0.41532 0.0
C5030 C 0.2897 0.22909 0.34246 0.0
C5031 C 0.28514 0.23368 0.37879 0.0
C5032 C 0.29111 0.23645 0.32436 0.0
C5033 C 0.29017 0.25544 0.32298 0.0
C5034 C 0.28729 0.24078 0.35929 0.0
C5035 C 0.28811 0.26663 0.34031 0.0
C5036 C 0.28079 0.24524 0.39469 0.0
C5037 C 0.28527 0.20879 0.39905 0.0
N5038 N 0.28668 0.25914 0.35756 0.0
N5039 N 0.28726 0.21584 0.38152 0.0
H5040 H 0.38294 0.63458 0.52619 0.0
H5041 H 0.42639 0.54728 0.48718 0.0
H5042 H 0.354 0.57658 0.52205 0.0
H5043 H 0.45934 0.60382 0.50076 0.0
H5044 H 0.40018 0.55785 0.50123 0.0
H5045 H 0.41167 0.62376 0.51888 0.0
C5046 C 0.38272 0.61956 0.52411 0.0
C5047 C 0.366 0.60644 0.5245 0.0
C5048 C 0.41317 0.56795 0.50129 0.0
C5049 C 0.39867 0.59402 0.51573 0.0
C5050 C 0.42818 0.56191 0.49331 0.0
C5051 C 0.44509 0.5747 0.49281 0.0
C5052 C 0.41494 0.58699 0.50865 0.0
C5053 C 0.44645 0.59357 0.5006 0.0
C5054 C 0.3991 0.61341 0.5198 0.0
C5055 C 0.36648 0.58717 0.52148 0.0
N5056 N 0.43151 0.59918 0.50813 0.0
N5057 N 0.3825 0.58154 0.51702 0.0
H5058 H 0.88175 0.97565 0.52161 0.0
H5059 H 0.99279 0.99091 0.55553 0.0
H5060 H 0.90726 0.94149 0.56023 0.0
H5061 H 0.96832 0.02449 0.51544 0.0
H5062 H 0.96127 0.97405 0.5589 0.0
H5063 H 0.91296 0.99483 0.52046 0.0
C5064 C 0.89389 0.97215 0.52984 0.0
C5065 C 0.89181 0.95683 0.54098 0.0
C5066 C 0.96274 0.98519 0.54946 0.0
C5067 C 0.92763 0.97892 0.53986 0.0
C5068 C 0.98078 0.99486 0.54753 0.0
C5069 C 0.98326 0.00921 0.53519 0.0
C5070 C 0.94694 0.98977 0.53894 0.0
C5071 C 0.9671 0.01369 0.52526 0.0
C5072 C 0.91171 0.98319 0.52925 0.0
C5073 C 0.90807 0.95324 0.55161 0.0
N5074 N 0.94963 1.00393 0.52727 0.0
N5075 N 0.92525 0.96413 0.55072 0.0
H5076 H 0.89132 0.11913 0.25919 0.0
H5077 H 0.80122 0.14871 0.30255 0.0
H5078 H 0.84658 0.08065 0.27946 0.0
H5079 H 0.8464 0.18923 0.28611 0.0
H5080 H 0.81597 0.12323 0.28966 0.0
H5081 H 0.874 0.14464 0.26543 0.0
C5082 C 0.87787 0.11599 0.26491 0.0
C5083 C 0.87046 0.09762 0.26882 0.0
C5084 C 0.82263 0.13764 0.28862 0.0
C5085 C 0.85045 0.12676 0.27573 0.0
C5086 C 0.81414 0.15218 0.29589 0.0
C5087 C 0.82267 0.17103 0.29542 0.0
C5088 C 0.83997 0.14195 0.28104 0.0
C5089 C 0.83938 0.17482 0.28664 0.0
C5090 C 0.86793 0.13056 0.26833 0.0
C5091 C 0.8528 0.09443 0.27591 0.0
N5092 N 0.84765 0.16039 0.28 0.0
N5093 N 0.84351 0.10882 0.27919 0.0
H5094 H 0.67559 0.08122 0.99011 0.0
H5095 H 0.59398 0.06109 0.05981 0.0
H5096 H 0.68416 0.09388 0.05355 0.0
H5097 H 0.58781 0.0376 0.99881 0.0
H5098 H 0.62581 0.07778 0.05653 0.0
H5099 H 0.64199 0.06938 0.99178 0.0
C5100 C 0.67036 0.0815 0.00436 0.0
C5101 C 0.68263 0.08826 0.02174 0.0
C5102 C 0.61738 0.06926 0.04374 0.0
C5103 C 0.64444 0.07497 0.02376 0.0
C5104 C 0.59926 0.05986 0.0456 0.0
C5105 C 0.58828 0.04851 0.02937 0.0
C5106 C 0.62458 0.06697 0.02558 0.0
C5107 C 0.59568 0.04691 0.01137 0.0
C5108 C 0.65125 0.07476 0.00531 0.0
C5109 C 0.67523 0.08839 0.03984 0.0
N5110 N 0.61348 0.05601 0.00994 0.0
N5111 N 0.6566 0.08182 0.04038 0.0
H5112 H 0.20262 0.43052 0.25164 0.0
H5113 H 0.2716 0.38732 0.32434 0.0
H5114 H 0.2439 0.46401 0.29719 0.0
H5115 H 0.21966 0.35427 0.29309 0.0
H5116 H 0.26406 0.41526 0.31088 0.0
H5117 H 0.21144 0.40182 0.26272 0.0
C5118 C 0.2137 0.43176 0.26378 0.0
C5119 C 0.22254 0.44947 0.27365 0.0
C5120 C 0.25427 0.40192 0.307 0.0
C5121 C 0.23254 0.4171 0.28634 0.0
C5122 C 0.25857 0.38602 0.31466 0.0
C5123 C 0.24616 0.36861 0.30983 0.0
C5124 C 0.23752 0.40034 0.2943 0.0
C5125 C 0.22944 0.36757 0.29729 0.0
C5126 C 0.2186 0.41547 0.27018 0.0
C5127 C 0.2367 0.45051 0.28936 0.0
N5128 N 0.22561 0.38327 0.28984 0.0
N5129 N 0.24126 0.43452 0.29525 0.0
H5130 H 0.23437 0.47138 0.0285 0.0
H5131 H 0.12466 0.47585 0.00907 0.0
H5132 H 0.18987 0.42256 0.02604 0.0
H5133 H 0.16958 0.51861 0.99566 0.0
H5134 H 0.14824 0.45786 0.02074 0.0
H5135 H 0.21063 0.49053 0.02181 0.0
C5136 C 0.21958 0.46472 0.02677 0.0
C5137 C 0.21411 0.44531 0.02779 0.0
C5138 C 0.15291 0.47124 0.01536 0.0
C5139 C 0.1868 0.46718 0.01999 0.0
C5140 C 0.13949 0.48156 0.00885 0.0
C5141 C 0.14518 0.49867 1.00127 0.0
C5142 C 0.17216 0.47823 0.01451 0.0
C5143 C 0.16457 0.50538 1.00117 0.0
C5144 C 0.20604 0.47564 0.02282 0.0
C5145 C 0.19472 0.43742 0.02515 0.0
N5146 N 0.17734 0.49514 0.00764 0.0
N5147 N 0.18177 0.44838 0.02137 0.0
H5148 H 0.86028 0.92247 0.29408 0.0
H5149 H 0.81395 0.8215 0.24059 0.0
H5150 H 0.85313 0.91202 0.23032 0.0
H5151 H 0.79342 0.84479 0.29259 0.0
H5152 H 0.83195 0.85297 0.23753 0.0
H5153 H 0.83936 0.89241 0.29503 0.0
C5154 C 0.85424 0.9141 0.28022 0.0
C5155 C 0.85853 0.92018 0.26204 0.0
C5156 C 0.82333 0.85118 0.24946 0.0
C5157 C 0.83499 0.88512 0.26327 0.0
C5158 C 0.8131 0.83327 0.25124 0.0
C5159 C 0.80215 0.83059 0.26683 0.0
C5160 C 0.823 0.86635 0.26369 0.0
C5161 C 0.80156 0.84629 0.28026 0.0
C5162 C 0.84234 0.89681 0.28086 0.0
C5163 C 0.85062 0.90803 0.24473 0.0
N5164 N 0.81208 0.86346 0.27856 0.0
N5165 N 0.83938 0.89104 0.24579 0.0
H5166 H 0.73283 0.13982 0.73247 0.0
H5167 H 0.79072 0.23531 0.79415 0.0
H5168 H 0.77352 0.141 0.78307 0.0
H5169 H 0.73522 0.23005 0.76281 0.0
H5170 H 0.78986 0.20192 0.78374 0.0
H5171 H 0.73977 0.1744 0.73624 0.0
C5172 C 0.74372 0.1474 0.74392 0.0
C5173 C 0.75265 0.13775 0.75753 0.0
C5174 C 0.77797 0.20813 0.77897 0.0
C5175 C 0.76028 0.17692 0.76215 0.0
C5176 C 0.77854 0.22716 0.78472 0.0
C5177 C 0.76327 0.23535 0.7787 0.0
C5178 C 0.76197 0.19735 0.76721 0.0
C5179 C 0.74738 0.22413 0.76734 0.0
C5180 C 0.74747 0.16705 0.74622 0.0
C5181 C 0.76639 0.14808 0.77234 0.0
N5182 N 0.74715 0.20562 0.76181 0.0
N5183 N 0.76969 0.1672 0.7744 0.0
loop_
_geom_bond_atom_site_label_1
_geom_bond_atom_site_label_2
_geom_bond_distance
_geom_bond_site_symmetry_2
_ccdc_geom_bond_type
Li0 N17 1.990 1_455 S
Li0 O60 1.956 . S
Li0 O61 1.970 . S
Li0 O62 1.961 . S
Li1 N25 1.990 . S
Li1 O60 1.970 . S
Li1 O61 1.956 . S
Li1 O63 1.961 . S
Li2 N47 1.990 . S
Li2 O60 1.961 . S
Li2 O62 1.956 . S
Li2 O63 1.970 . S
Li3 N53 1.990 . S
Li3 O61 1.961 . S
Li3 O62 1.970 . S
Li3 O63 1.956 . S
C4 C6 1.348 . S
C4 C7 1.356 . S
C4 O60 1.325 . S
N5 C8 1.314 . S
N5 C9 1.279 . S
C6 C4 1.348 . S
C6 C8 1.353 . S
C6 H64 0.929 . S
C7 C4 1.356 . S
C7 C9 1.358 . S
C7 H65 0.930 . S
C8 N5 1.314 . S
C8 C6 1.353 . S
C8 H66 0.930 . S
C9 N5 1.279 . S
C9 C7 1.358 . S
C9 H67 0.930 . S
C10 C13 1.348 1_455 S
C10 C14 1.356 . S
C10 O61 1.325 . S
C11 N12 1.279 . S
C11 C14 1.358 1_655 S
C11 H68 0.930 . S
N12 C11 1.279 . S
N12 C15 1.314 . S
C13 C10 1.348 1_655 S
C13 C15 1.353 . S
C13 H69 0.929 . S
C14 C10 1.356 . S
C14 C11 1.358 1_455 S
C14 H70 0.930 . S
C15 N12 1.314 . S
C15 C13 1.353 . S
C15 H71 0.930 . S
C16 N17 1.314 . S
C16 C21 1.353 . S
C16 H22 0.930 . S
N17 Li0 1.990 1_655 S
N17 C16 1.314 . S
N17 C19 1.279 . S
C18 C19 1.358 . S
C18 C20 1.356 . S
C18 H72 0.930 . S
C19 N17 1.279 . S
C19 C18 1.358 . S
C19 H23 0.930 . S
C20 C18 1.356 . S
C20 C21 1.348 . S
C21 C16 1.353 . S
C21 C20 1.348 . S
C21 H73 0.929 . S
H22 C16 0.930 . S
H23 C19 0.930 . S
C24 N25 1.314 . S
C24 C26 1.353 . S
C24 H30 0.930 . S
N25 Li1 1.990 . S
N25 C24 1.314 . S
N25 C28 1.279 . S
C26 C24 1.353 . S
C26 C29 1.348 . S
C26 H74 0.929 . S
C27 C28 1.358 . S
C27 C29 1.356 . S
C27 H75 0.930 . S
C28 N25 1.279 . S
C28 C27 1.358 . S
C28 H31 0.930 . S
C29 C26 1.348 . S
C29 C27 1.356 . S
H30 C24 0.930 . S
H31 C28 0.930 . S
C32 C34 1.348 . S
C32 C35 1.356 . S
C32 O62 1.325 . S
N33 C36 1.314 . S
N33 C37 1.279 . S
C34 C32 1.348 . S
C34 C36 1.353 . S
C34 H76 0.929 . S
C35 C32 1.356 . S
C35 C37 1.358 . S
C35 H77 0.930 . S
C36 N33 1.314 . S
C36 C34 1.353 . S
C36 H78 0.930 . S
C37 N33 1.279 . S
C37 C35 1.358 . S
C37 H79 0.930 . S
C38 C39 1.348 . S
C38 C40 1.356 . S
C38 O63 1.325 . S
C39 C38 1.348 . S
C39 C41 1.353 . S
C39 H80 0.929 . S
C40 C38 1.356 . S
C40 C42 1.358 . S
C40 H81 0.930 . S
C41 C39 1.353 . S
C41 N43 1.314 . S
C41 H82 0.930 . S
C42 C40 1.358 . S
C42 N43 1.279 . S
C42 H83 0.930 . S
N43 C41 1.314 . S
N43 C42 1.279 . S
C44 C46 1.353 . S
C44 N47 1.314 . S
C44 H50 0.930 . S
C45 N47 1.279 . S
C45 C48 1.358 . S
C45 H51 0.930 . S
C46 C44 1.353 . S
C46 C49 1.348 . S
C46 H84 0.929 . S
N47 Li2 1.990 . S
N47 C44 1.314 . S
N47 C45 1.279 . S
C48 C45 1.358 . S
C48 C49 1.356 . S
C48 H85 0.930 . S
C49 C46 1.348 . S
C49 C48 1.356 . S
H50 C44 0.930 . S
H51 C45 0.930 . S
C52 N53 1.314 . S
C52 C54 1.353 . S
C52 H58 0.930 . S
N53 Li3 1.990 . S
N53 C52 1.314 . S
N53 C56 1.279 . S
C54 C52 1.353 . S
C54 C57 1.348 . S
C54 H86 0.929 . S
C55 C56 1.358 . S
C55 C57 1.356 . S
C55 H87 0.930 . S
C56 N53 1.279 . S
C56 C55 1.358 . S
C56 H59 0.930 . S
C57 C54 1.348 . S
C57 C55 1.356 . S
H58 C52 0.930 . S
H59 C56 0.930 . S
O60 Li0 1.956 . S
O60 Li1 1.970 . S
O60 Li2 1.961 . S
O60 C4 1.325 . S
O61 Li0 1.970 . S
O61 Li1 1.956 . S
O61 Li3 1.961 . S
O61 C10 1.325 . S
O62 Li0 1.961 . S
O62 Li2 1.956 . S
O62 Li3 1.970 . S
O62 C32 1.325 . S
O63 Li1 1.961 . S
O63 Li2 1.970 . S
O63 Li3 1.956 . S
O63 C38 1.325 . S
H64 C6 0.929 . S
H65 C7 0.930 . S
H66 C8 0.930 . S
H67 C9 0.930 . S
H68 C11 0.930 . S
H69 C13 0.929 . S
H70 C14 0.930 . S
H71 C15 0.930 . S
H72 C18 0.930 . S
H73 C21 0.929 . S
H74 C26 0.929 . S
H75 C27 0.930 . S
H76 C34 0.929 . S
H77 C35 0.930 . S
H78 C36 0.930 . S
H79 C37 0.930 . S
H80 C39 0.929 . S
H81 C40 0.930 . S
H82 C41 0.930 . S
H83 C42 0.930 . S
H84 C46 0.929 . S
H85 C48 0.930 . S
H86 C54 0.929 . S
H87 C55 0.930 . S
Li88 N105 1.990 . S
Li88 O148 1.956 . S
Li88 O149 1.970 . S
Li88 O150 1.961 1_455 S
Li89 N113 1.990 . S
Li89 O148 1.970 . S
Li89 O149 1.956 . S
Li89 O151 1.961 . S
Li90 N135 1.990 . S
Li90 O148 1.961 . S
Li90 O150 1.956 1_455 S
Li90 O151 1.970 . S
Li91 N141 1.990 . S
Li91 O149 1.961 1_655 S
Li91 O150 1.970 . S
Li91 O151 1.956 1_655 S
C92 C94 1.348 . S
C92 C95 1.356 . S
C92 O148 1.325 . S
N93 C96 1.314 . S
N93 C97 1.279 . S
C94 C92 1.348 . S
C94 C96 1.353 . S
C94 H152 0.929 . S
C95 C92 1.356 . S
C95 C97 1.358 . S
C95 H153 0.930 . S
C96 N93 1.314 . S
C96 C94 1.353 . S
C96 H154 0.930 . S
C97 N93 1.279 . S
C97 C95 1.358 . S
C97 H155 0.930 . S
C98 C101 1.348 . S
C98 C102 1.356 . S
C98 O149 1.325 . S
C99 N100 1.279 . S
C99 C102 1.358 . S
C99 H156 0.930 . S
N100 C99 1.279 . S
N100 C103 1.314 . S
C101 C98 1.348 . S
C101 C103 1.353 . S
C101 H157 0.929 . S
C102 C98 1.356 . S
C102 C99 1.358 . S
C102 H158 0.930 . S
C103 N100 1.314 . S
C103 C101 1.353 . S
C103 H159 0.930 . S
C104 N105 1.314 . S
C104 C109 1.353 . S
C104 H110 0.930 1_455 S
N105 Li88 1.990 . S
N105 C104 1.314 . S
N105 C107 1.279 . S
C106 C107 1.358 . S
C106 C108 1.356 . S
C106 H160 0.930 . S
C107 N105 1.279 . S
C107 C106 1.358 . S
C107 H111 0.930 . S
C108 C106 1.356 . S
C108 C109 1.348 . S
C109 C104 1.353 . S
C109 C108 1.348 . S
C109 H161 0.929 1_455 S
H110 C104 0.930 1_655 S
H111 C107 0.930 . S
C112 N113 1.314 . S
C112 C114 1.353 . S
C112 H118 0.930 . S
N113 Li89 1.990 . S
N113 C112 1.314 . S
N113 C116 1.279 . S
C114 C112 1.353 . S
C114 C117 1.348 . S
C114 H162 0.929 . S
C115 C116 1.358 . S
C115 C117 1.356 . S
C115 H163 0.930 . S
C116 N113 1.279 . S
C116 C115 1.358 . S
C116 H119 0.930 . S
C117 C114 1.348 . S
C117 C115 1.356 . S
H118 C112 0.930 . S
H119 C116 0.930 . S
C120 C122 1.348 . S
C120 C123 1.356 . S
C120 O150 1.325 . S
N121 C124 1.314 . S
N121 C125 1.279 . S
C122 C120 1.348 . S
C122 C124 1.353 . S
C122 H164 0.929 . S
C123 C120 1.356 . S
C123 C125 1.358 . S
C123 H165 0.930 . S
C124 N121 1.314 . S
C124 C122 1.353 . S
C124 H166 0.930 . S
C125 N121 1.279 . S
C125 C123 1.358 . S
C125 H167 0.930 . S
C126 C127 1.348 . S
C126 C128 1.356 . S
C126 O151 1.325 . S
C127 C126 1.348 . S
C127 C129 1.353 . S
C127 H168 0.940 . S
C128 C126 1.356 . S
C128 C130 1.358 . S
C128 H169 0.930 . S
C129 C127 1.353 . S
C129 N131 1.314 . S
C129 H170 0.931 . S
C130 C128 1.358 . S
C130 N131 1.279 . S
C130 H171 0.930 . S
N131 C129 1.314 . S
N131 C130 1.279 . S
C132 C134 1.353 . S
C132 N135 1.314 . S
C132 H138 0.930 . S
C133 N135 1.279 1_655 S
C133 C136 1.358 . S
C133 H139 0.930 . S
C134 C132 1.353 . S
C134 C137 1.348 . S
C134 H172 0.929 . S
N135 Li90 1.990 . S
N135 C132 1.314 . S
N135 C133 1.279 1_455 S
C136 C133 1.358 . S
C136 C137 1.356 1_655 S
C136 H173 0.930 . S
C137 C134 1.348 . S
C137 C136 1.356 1_455 S
H138 C132 0.930 . S
H139 C133 0.930 . S
C140 N141 1.314 . S
C140 C142 1.353 . S
C140 H146 0.930 . S
N141 Li91 1.990 . S
N141 C140 1.314 . S
N141 C144 1.279 . S
C142 C140 1.353 . S
C142 C145 1.348 . S
C142 H174 0.929 . S
C143 C144 1.358 . S
C143 C145 1.356 . S
C143 H175 0.930 . S
C144 N141 1.279 . S
C144 C143 1.358 . S
C144 H147 0.930 . S
C145 C142 1.348 . S
C145 C143 1.356 . S
H146 C140 0.930 . S
H147 C144 0.930 . S
O148 Li88 1.956 . S
O148 Li89 1.970 . S
O148 Li90 1.961 . S
O148 C92 1.325 . S
O149 Li88 1.970 . S
O149 Li89 1.956 . S
O149 Li91 1.961 1_455 S
O149 C98 1.325 . S
O150 Li88 1.961 1_655 S
O150 Li90 1.956 1_655 S
O150 Li91 1.970 . S
O150 C120 1.325 . S
O151 Li89 1.961 . S
O151 Li90 1.970 . S
O151 Li91 1.956 1_455 S
O151 C126 1.325 . S
H152 C94 0.929 . S
H153 C95 0.930 . S
H154 C96 0.930 . S
H155 C97 0.930 . S
H156 C99 0.930 . S
H157 C101 0.929 . S
H158 C102 0.930 . S
H159 C103 0.930 . S
H160 C106 0.930 . S
H161 C109 0.929 1_655 S
H162 C114 0.929 . S
H163 C115 0.930 . S
H164 C122 0.929 . S
H165 C123 0.930 . S
H166 C124 0.930 . S
H167 C125 0.930 . S
H168 C127 0.940 . S
H169 C128 0.930 . S
H170 C129 0.931 . S
H171 C130 0.930 . S
H172 C134 0.929 . S
H173 C136 0.930 . S
H174 C142 0.929 . S
H175 C143 0.930 . S
Li176 N193 1.990 . S
Li176 O236 1.956 . S
Li176 O237 1.970 . S
Li176 O238 1.961 . S
Li177 N201 1.990 . S
Li177 O236 1.970 . S
Li177 O237 1.956 . S
Li177 O239 1.961 . S
Li178 N223 1.990 . S
Li178 O236 1.961 . S
Li178 O238 1.956 . S
Li178 O239 1.970 . S
Li179 N229 1.990 . S
Li179 O237 1.961 . S
Li179 O238 1.970 . S
Li179 O239 1.956 . S
C180 C182 1.348 . S
C180 C183 1.356 . S
C180 O236 1.325 . S
N181 C184 1.314 . S
N181 C185 1.279 . S
C182 C180 1.348 . S
C182 C184 1.353 . S
C182 H240 0.929 . S
C183 C180 1.356 . S
C183 C185 1.358 . S
C183 H241 0.930 . S
C184 N181 1.314 . S
C184 C182 1.353 . S
C184 H242 0.930 . S
C185 N181 1.279 . S
C185 C183 1.358 . S
C185 H243 0.930 . S
C186 C189 1.348 . S
C186 C190 1.356 . S
C186 O237 1.325 . S
C187 N188 1.279 . S
C187 C190 1.358 . S
C187 H244 0.930 . S
N188 C187 1.279 . S
N188 C191 1.314 . S
C189 C186 1.348 . S
C189 C191 1.353 . S
C189 H245 0.929 . S
C190 C186 1.356 . S
C190 C187 1.358 . S
C190 H246 0.930 . S
C191 N188 1.314 . S
C191 C189 1.353 . S
C191 H247 0.930 . S
C192 N193 1.314 . S
C192 C197 1.353 . S
C192 H198 0.930 . S
N193 Li176 1.990 . S
N193 C192 1.314 . S
N193 C195 1.279 . S
C194 C195 1.358 . S
C194 C196 1.356 . S
C194 H248 0.930 . S
C195 N193 1.279 . S
C195 C194 1.358 . S
C195 H199 0.930 . S
C196 C194 1.356 . S
C196 C197 1.348 . S
C197 C192 1.353 . S
C197 C196 1.348 . S
C197 H249 0.929 . S
H198 C192 0.930 . S
H199 C195 0.930 . S
C200 N201 1.314 . S
C200 C202 1.353 . S
C200 H206 0.930 . S
N201 Li177 1.990 . S
N201 C200 1.314 . S
N201 C204 1.279 . S
C202 C200 1.353 . S
C202 C205 1.348 . S
C202 H250 0.929 . S
C203 C204 1.358 . S
C203 C205 1.356 . S
C203 H251 0.930 . S
C204 N201 1.279 . S
C204 C203 1.358 . S
C204 H207 0.930 . S
C205 C202 1.348 . S
C205 C203 1.356 . S
H206 C200 0.930 . S
H207 C204 0.930 . S
C208 C210 1.348 . S
C208 C211 1.356 . S
C208 O238 1.325 . S
N209 C212 1.314 . S
N209 C213 1.279 . S
C210 C208 1.348 . S
C210 C212 1.353 . S
C210 H252 0.929 . S
C211 C208 1.356 . S
C211 C213 1.358 . S
C211 H253 0.930 . S
C212 N209 1.314 . S
C212 C210 1.353 . S
C212 H254 0.930 . S
C213 N209 1.279 . S
C213 C211 1.358 . S
C213 H255 0.930 . S
C214 C215 1.348 . S
C214 C216 1.356 . S
C214 O239 1.325 . S
C215 C214 1.348 . S
C215 C217 1.353 . S
C215 H256 0.929 . S
C216 C214 1.356 . S
C216 C218 1.358 . S
C216 H257 0.930 . S
C217 C215 1.353 . S
C217 N219 1.314 . S
C217 H258 0.930 . S
C218 C216 1.358 . S
C218 N219 1.279 . S
C218 H259 0.930 . S
N219 C217 1.314 . S
N219 C218 1.279 . S
C220 C222 1.353 . S
C220 N223 1.314 . S
C220 H226 0.930 . S
C221 N223 1.279 . S
C221 C224 1.358 . S
C221 H227 0.930 . S
C222 C220 1.353 . S
C222 C225 1.348 . S
C222 H260 0.929 . S
N223 Li178 1.990 . S
N223 C220 1.314 . S
N223 C221 1.279 . S
C224 C221 1.358 . S
C224 C225 1.356 . S
C224 H261 0.930 . S
C225 C222 1.348 . S
C225 C224 1.356 . S
H226 C220 0.930 . S
H227 C221 0.930 . S
C228 N229 1.314 . S
C228 C230 1.353 . S
C228 H234 0.930 . S
N229 Li179 1.990 . S
N229 C228 1.314 . S
N229 C232 1.279 . S
C230 C228 1.353 . S
C230 C233 1.348 . S
C230 H262 0.929 . S
C231 C232 1.358 . S
C231 C233 1.356 . S
C231 H263 0.930 . S
C232 N229 1.279 . S
C232 C231 1.358 . S
C232 H235 0.930 . S
C233 C230 1.348 . S
C233 C231 1.356 . S
H234 C228 0.930 . S
H235 C232 0.930 . S
O236 Li176 1.956 . S
O236 Li177 1.970 . S
O236 Li178 1.961 . S
O236 C180 1.325 . S
O237 Li176 1.970 . S
O237 Li177 1.956 . S
O237 Li179 1.961 . S
O237 C186 1.325 . S
O238 Li176 1.961 . S
O238 Li178 1.956 . S
O238 Li179 1.970 . S
O238 C208 1.325 . S
O239 Li177 1.961 . S
O239 Li178 1.970 . S
O239 Li179 1.956 . S
O239 C214 1.325 . S
H240 C182 0.929 . S
H241 C183 0.930 . S
H242 C184 0.930 . S
H243 C185 0.930 . S
H244 C187 0.930 . S
H245 C189 0.929 . S
H246 C190 0.930 . S
H247 C191 0.930 . S
H248 C194 0.930 . S
H249 C197 0.929 . S
H250 C202 0.929 . S
H251 C203 0.930 . S
H252 C210 0.929 . S
H253 C211 0.930 . S
H254 C212 0.930 . S
H255 C213 0.930 . S
H256 C215 0.929 . S
H257 C216 0.930 . S
H258 C217 0.930 . S
H259 C218 0.930 . S
H260 C222 0.929 . S
H261 C224 0.930 . S
H262 C230 0.929 . S
H263 C231 0.930 . S
Li264 N281 1.990 . S
Li264 O324 1.956 . S
Li264 O325 1.970 . S
Li264 O326 1.961 . S
Li265 N289 1.990 . S
Li265 O324 1.970 . S
Li265 O325 1.956 . S
Li265 O327 1.961 . S
Li266 N311 1.990 . S
Li266 O324 1.961 . S
Li266 O326 1.956 . S
Li266 O327 1.970 . S
Li267 N317 1.990 . S
Li267 O325 1.961 . S
Li267 O326 1.970 . S
Li267 O327 1.956 . S
C268 C270 1.348 . S
C268 C271 1.356 . S
C268 O324 1.325 . S
N269 C272 1.314 . S
N269 C273 1.279 . S
C270 C268 1.348 . S
C270 C272 1.353 . S
C270 H328 0.929 . S
C271 C268 1.356 . S
C271 C273 1.358 . S
C271 H329 0.930 . S
C272 N269 1.314 . S
C272 C270 1.353 . S
C272 H330 0.930 . S
C273 N269 1.279 . S
C273 C271 1.358 . S
C273 H331 0.930 . S
C274 C277 1.348 . S
C274 C278 1.356 . S
C274 O325 1.325 . S
C275 N276 1.279 . S
C275 C278 1.358 . S
C275 H332 0.930 . S
N276 C275 1.279 . S
N276 C279 1.314 . S
C277 C274 1.348 . S
C277 C279 1.353 . S
C277 H333 0.929 . S
C278 C274 1.356 . S
C278 C275 1.358 . S
C278 H334 0.930 . S
C279 N276 1.314 . S
C279 C277 1.353 . S
C279 H335 0.930 . S
C280 N281 1.314 . S
C280 C285 1.353 . S
C280 H286 0.930 . S
N281 Li264 1.990 . S
N281 C280 1.314 . S
N281 C283 1.279 . S
C282 C283 1.358 . S
C282 C284 1.356 . S
C282 H336 0.930 . S
C283 N281 1.279 . S
C283 C282 1.358 . S
C283 H287 0.930 . S
C284 C282 1.356 . S
C284 C285 1.348 . S
C285 C280 1.353 . S
C285 C284 1.348 . S
C285 H337 0.929 . S
H286 C280 0.930 . S
H287 C283 0.930 . S
C288 N289 1.314 . S
C288 C290 1.353 . S
C288 H294 0.930 . S
N289 Li265 1.990 . S
N289 C288 1.314 . S
N289 C292 1.279 . S
C290 C288 1.353 . S
C290 C293 1.348 . S
C290 H338 0.929 . S
C291 C292 1.358 . S
C291 C293 1.356 . S
C291 H339 0.930 . S
C292 N289 1.279 . S
C292 C291 1.358 . S
C292 H295 0.930 . S
C293 C290 1.348 . S
C293 C291 1.356 . S
H294 C288 0.930 . S
H295 C292 0.930 . S
C296 C298 1.348 . S
C296 C299 1.356 . S
C296 O326 1.325 . S
N297 C300 1.314 . S
N297 C301 1.279 . S
C298 C296 1.348 . S
C298 C300 1.353 . S
C298 H340 0.929 . S
C299 C296 1.356 . S
C299 C301 1.358 . S
C299 H341 0.930 . S
C300 N297 1.314 . S
C300 C298 1.353 . S
C300 H342 0.930 . S
C301 N297 1.279 . S
C301 C299 1.358 . S
C301 H343 0.930 . S
C302 C303 1.348 . S
C302 C304 1.356 . S
C302 O327 1.325 . S
C303 C302 1.348 . S
C303 C305 1.353 . S
C303 H344 0.929 . S
C304 C302 1.356 . S
C304 C306 1.358 . S
C304 H345 0.930 . S
C305 C303 1.353 . S
C305 N307 1.314 . S
C305 H346 0.930 . S
C306 C304 1.358 . S
C306 N307 1.279 . S
C306 H347 0.930 . S
N307 C305 1.314 . S
N307 C306 1.279 . S
C308 C310 1.353 . S
C308 N311 1.314 . S
C308 H314 0.930 . S
C309 N311 1.279 . S
C309 C312 1.358 . S
C309 H315 0.930 . S
C310 C308 1.353 . S
C310 C313 1.348 . S
C310 H348 0.929 . S
N311 Li266 1.990 . S
N311 C308 1.314 . S
N311 C309 1.279 . S
C312 C309 1.358 . S
C312 C313 1.356 . S
C312 H349 0.930 . S
C313 C310 1.348 . S
C313 C312 1.356 . S
H314 C308 0.930 . S
H315 C309 0.930 . S
C316 N317 1.314 . S
C316 C318 1.353 . S
C316 H322 0.930 . S
N317 Li267 1.990 . S
N317 C316 1.314 . S
N317 C320 1.279 . S
C318 C316 1.353 . S
C318 C321 1.348 . S
C318 H350 0.929 . S
C319 C320 1.358 . S
C319 C321 1.356 . S
C319 H351 0.930 . S
C320 N317 1.279 . S
C320 C319 1.358 . S
C320 H323 0.930 . S
C321 C318 1.348 . S
C321 C319 1.356 . S
H322 C316 0.930 . S
H323 C320 0.930 . S
O324 Li264 1.956 . S
O324 Li265 1.970 . S
O324 Li266 1.961 . S
O324 C268 1.325 . S
O325 Li264 1.970 . S
O325 Li265 1.956 . S
O325 Li267 1.961 . S
O325 C274 1.325 . S
O326 Li264 1.961 . S
O326 Li266 1.956 . S
O326 Li267 1.970 . S
O326 C296 1.325 . S
O327 Li265 1.961 . S
O327 Li266 1.970 . S
O327 Li267 1.956 . S
O327 C302 1.325 . S
H328 C270 0.929 . S
H329 C271 0.930 . S
H330 C272 0.930 . S
H331 C273 0.930 . S
H332 C275 0.930 . S
H333 C277 0.929 . S
H334 C278 0.930 . S
H335 C279 0.930 . S
H336 C282 0.930 . S
H337 C285 0.929 . S
H338 C290 0.929 . S
H339 C291 0.930 . S
H340 C298 0.929 . S
H341 C299 0.930 . S
H342 C300 0.930 . S
H343 C301 0.930 . S
H344 C303 0.929 . S
H345 C304 0.930 . S
H346 C305 0.930 . S
H347 C306 0.930 . S
H348 C310 0.929 . S
H349 C312 0.930 . S
H350 C318 0.929 . S
H351 C319 0.930 . S
Li352 N369 1.990 . S
Li352 O412 1.956 . S
Li352 O413 1.970 . S
Li352 O414 1.961 . S
Li353 N377 1.990 . S
Li353 O412 1.970 . S
Li353 O413 1.956 . S
Li353 O415 1.961 . S
Li354 N399 1.990 . S
Li354 O412 1.961 . S
Li354 O414 1.956 . S
Li354 O415 1.970 . S
Li355 N405 1.990 . S
Li355 O413 1.961 . S
Li355 O414 1.970 . S
Li355 O415 1.956 . S
C356 C358 1.348 . S
C356 C359 1.356 . S
C356 O412 1.325 . S
N357 C360 1.314 . S
N357 C361 1.279 . S
C358 C356 1.348 . S
C358 C360 1.353 . S
C358 H416 0.929 . S
C359 C356 1.356 . S
C359 C361 1.358 . S
C359 H417 0.930 . S
C360 N357 1.314 . S
C360 C358 1.353 . S
C360 H418 0.930 . S
C361 N357 1.279 . S
C361 C359 1.358 . S
C361 H419 0.930 . S
C362 C365 1.348 . S
C362 C366 1.356 . S
C362 O413 1.325 . S
C363 N364 1.279 . S
C363 C366 1.358 . S
C363 H420 0.930 . S
N364 C363 1.279 . S
N364 C367 1.314 . S
C365 C362 1.348 . S
C365 C367 1.353 . S
C365 H421 0.929 . S
C366 C362 1.356 . S
C366 C363 1.358 . S
C366 H422 0.930 . S
C367 N364 1.314 . S
C367 C365 1.353 . S
C367 H423 0.930 . S
C368 N369 1.314 . S
C368 C373 1.353 . S
C368 H374 0.930 . S
N369 Li352 1.990 . S
N369 C368 1.314 . S
N369 C371 1.279 . S
C370 C371 1.358 . S
C370 C372 1.356 . S
C370 H424 0.930 . S
C371 N369 1.279 . S
C371 C370 1.358 . S
C371 H375 0.930 . S
C372 C370 1.356 . S
C372 C373 1.348 . S
C373 C368 1.353 . S
C373 C372 1.348 . S
C373 H425 0.929 . S
H374 C368 0.930 . S
H375 C371 0.930 . S
C376 N377 1.314 . S
C376 C378 1.353 . S
C376 H382 0.930 . S
N377 Li353 1.990 . S
N377 C376 1.314 . S
N377 C380 1.279 . S
C378 C376 1.353 . S
C378 C381 1.348 . S
C378 H426 0.929 . S
C379 C380 1.358 . S
C379 C381 1.356 . S
C379 H427 0.930 . S
C380 N377 1.279 . S
C380 C379 1.358 . S
C380 H383 0.930 . S
C381 C378 1.348 . S
C381 C379 1.356 . S
H382 C376 0.930 . S
H383 C380 0.930 . S
C384 C386 1.348 1_455 S
C384 C387 1.356 . S
C384 O414 1.325 . S
N385 C388 1.314 . S
N385 C389 1.279 . S
C386 C384 1.348 1_655 S
C386 C388 1.353 . S
C386 H428 0.929 . S
C387 C384 1.356 . S
C387 C389 1.358 1_455 S
C387 H429 0.930 . S
C388 N385 1.314 . S
C388 C386 1.353 . S
C388 H430 0.930 . S
C389 N385 1.279 . S
C389 C387 1.358 1_655 S
C389 H431 0.930 . S
C390 C391 1.348 . S
C390 C392 1.356 . S
C390 O415 1.325 . S
C391 C390 1.348 . S
C391 C393 1.353 . S
C391 H432 0.929 . S
C392 C390 1.356 . S
C392 C394 1.358 . S
C392 H433 0.930 . S
C393 C391 1.353 . S
C393 N395 1.314 . S
C393 H434 0.930 . S
C394 C392 1.358 . S
C394 N395 1.279 . S
C394 H435 0.930 . S
N395 C393 1.314 . S
N395 C394 1.279 . S
C396 C398 1.353 . S
C396 N399 1.314 . S
C396 H402 0.930 . S
C397 N399 1.279 . S
C397 C400 1.358 . S
C397 H403 0.930 . S
C398 C396 1.353 . S
C398 C401 1.348 . S
C398 H436 0.929 . S
N399 Li354 1.990 . S
N399 C396 1.314 . S
N399 C397 1.279 . S
C400 C397 1.358 . S
C400 C401 1.356 . S
C400 H437 0.930 . S
C401 C398 1.348 . S
C401 C400 1.356 . S
H402 C396 0.930 . S
H403 C397 0.930 . S
C404 N405 1.314 . S
C404 C406 1.353 1_455 S
C404 H410 0.930 . S
N405 Li355 1.990 . S
N405 C404 1.314 . S
N405 C408 1.279 . S
C406 C404 1.353 1_655 S
C406 C409 1.348 . S
C406 H438 0.929 . S
C407 C408 1.358 1_655 S
C407 C409 1.356 . S
C407 H439 0.930 . S
C408 N405 1.279 . S
C408 C407 1.358 1_455 S
C408 H411 0.930 . S
C409 C406 1.348 . S
C409 C407 1.356 . S
H410 C404 0.930 . S
H411 C408 0.930 . S
O412 Li352 1.956 . S
O412 Li353 1.970 . S
O412 Li354 1.961 . S
O412 C356 1.325 . S
O413 Li352 1.970 . S
O413 Li353 1.956 . S
O413 Li355 1.961 . S
O413 C362 1.325 . S
O414 Li352 1.961 . S
O414 Li354 1.956 . S
O414 Li355 1.970 . S
O414 C384 1.325 . S
O415 Li353 1.961 . S
O415 Li354 1.970 . S
O415 Li355 1.956 . S
O415 C390 1.325 . S
H416 C358 0.929 . S
H417 C359 0.930 . S
H418 C360 0.930 . S
H419 C361 0.930 . S
H420 C363 0.930 . S
H421 C365 0.929 . S
H422 C366 0.930 . S
H423 C367 0.930 . S
H424 C370 0.930 . S
H425 C373 0.929 . S
H426 C378 0.929 . S
H427 C379 0.930 . S
H428 C386 0.929 . S
H429 C387 0.930 . S
H430 C388 0.930 . S
H431 C389 0.930 . S
H432 C391 0.929 . S
H433 C392 0.930 . S
H434 C393 0.930 . S
H435 C394 0.930 . S
H436 C398 0.929 . S
H437 C400 0.930 . S
H438 C406 0.929 . S
H439 C407 0.930 . S
Li440 N457 1.990 . S
Li440 O500 1.956 . S
Li440 O501 1.970 . S
Li440 O502 1.961 . S
Li441 N465 1.990 . S
Li441 O500 1.970 . S
Li441 O501 1.956 . S
Li441 O503 1.961 . S
Li442 N487 1.990 . S
Li442 O500 1.961 . S
Li442 O502 1.956 . S
Li442 O503 1.970 . S
Li443 N493 1.990 . S
Li443 O501 1.961 . S
Li443 O502 1.970 . S
Li443 O503 1.956 . S
C444 C446 1.348 . S
C444 C447 1.356 . S
C444 O500 1.325 . S
N445 C448 1.314 . S
N445 C449 1.279 . S
C446 C444 1.348 . S
C446 C448 1.353 . S
C446 H504 0.929 . S
C447 C444 1.356 . S
C447 C449 1.358 . S
C447 H505 0.930 . S
C448 N445 1.314 . S
C448 C446 1.353 . S
C448 H506 0.930 . S
C449 N445 1.279 . S
C449 C447 1.358 . S
C449 H507 0.930 . S
C450 C453 1.348 . S
C450 C454 1.356 . S
C450 O501 1.325 . S
C451 N452 1.279 . S
C451 C454 1.358 . S
C451 H508 0.930 . S
N452 C451 1.279 . S
N452 C455 1.314 . S
C453 C450 1.348 . S
C453 C455 1.353 . S
C453 H509 0.929 . S
C454 C450 1.356 . S
C454 C451 1.358 . S
C454 H510 0.930 . S
C455 N452 1.314 . S
C455 C453 1.353 . S
C455 H511 0.930 . S
C456 N457 1.314 . S
C456 C461 1.353 . S
C456 H462 0.930 . S
N457 Li440 1.990 . S
N457 C456 1.314 . S
N457 C459 1.279 . S
C458 C459 1.358 . S
C458 C460 1.356 . S
C458 H512 0.930 . S
C459 N457 1.279 . S
C459 C458 1.358 . S
C459 H463 0.930 . S
C460 C458 1.356 . S
C460 C461 1.348 . S
C461 C456 1.353 . S
C461 C460 1.348 . S
C461 H513 0.929 . S
H462 C456 0.930 . S
H463 C459 0.930 . S
C464 N465 1.314 . S
C464 C466 1.353 . S
C464 H470 0.930 . S
N465 Li441 1.990 . S
N465 C464 1.314 . S
N465 C468 1.279 . S
C466 C464 1.353 . S
C466 C469 1.348 . S
C466 H514 0.929 . S
C467 C468 1.358 . S
C467 C469 1.356 . S
C467 H515 0.930 . S
C468 N465 1.279 . S
C468 C467 1.358 . S
C468 H471 0.930 . S
C469 C466 1.348 . S
C469 C467 1.356 . S
H470 C464 0.930 . S
H471 C468 0.930 . S
C472 C474 1.348 . S
C472 C475 1.356 . S
C472 O502 1.325 . S
N473 C476 1.314 . S
N473 C477 1.279 . S
C474 C472 1.348 . S
C474 C476 1.353 . S
C474 H516 0.929 . S
C475 C472 1.356 . S
C475 C477 1.358 . S
C475 H517 0.930 . S
C476 N473 1.314 . S
C476 C474 1.353 . S
C476 H518 0.930 . S
C477 N473 1.279 . S
C477 C475 1.358 . S
C477 H519 0.930 . S
C478 C479 1.348 . S
C478 C480 1.356 . S
C478 O503 1.325 . S
C479 C478 1.348 . S
C479 C481 1.353 . S
C479 H520 0.929 . S
C480 C478 1.356 . S
C480 C482 1.358 . S
C480 H521 0.930 . S
C481 C479 1.353 . S
C481 N483 1.314 . S
C481 H522 0.930 . S
C482 C480 1.358 . S
C482 N483 1.279 . S
C482 H523 0.930 . S
N483 C481 1.314 . S
N483 C482 1.279 . S
C484 C486 1.353 . S
C484 N487 1.314 . S
C484 H490 0.930 . S
C485 N487 1.279 . S
C485 C488 1.358 . S
C485 H491 0.930 . S
C486 C484 1.353 . S
C486 C489 1.348 . S
C486 H524 0.929 . S
N487 Li442 1.990 . S
N487 C484 1.314 . S
N487 C485 1.279 . S
C488 C485 1.358 . S
C488 C489 1.356 . S
C488 H525 0.930 . S
C489 C486 1.348 . S
C489 C488 1.356 . S
H490 C484 0.930 . S
H491 C485 0.930 . S
C492 N493 1.314 . S
C492 C494 1.353 . S
C492 H498 0.930 . S
N493 Li443 1.990 . S
N493 C492 1.314 . S
N493 C496 1.279 . S
C494 C492 1.353 . S
C494 C497 1.348 . S
C494 H526 0.929 . S
C495 C496 1.358 . S
C495 C497 1.356 . S
C495 H527 0.930 . S
C496 N493 1.279 . S
C496 C495 1.358 . S
C496 H499 0.930 . S
C497 C494 1.348 . S
C497 C495 1.356 . S
H498 C492 0.930 . S
H499 C496 0.930 . S
O500 Li440 1.956 . S
O500 Li441 1.970 . S
O500 Li442 1.961 . S
O500 C444 1.325 . S
O501 Li440 1.970 . S
O501 Li441 1.956 . S
O501 Li443 1.961 . S
O501 C450 1.325 . S
O502 Li440 1.961 . S
O502 Li442 1.956 . S
O502 Li443 1.970 . S
O502 C472 1.325 . S
O503 Li441 1.961 . S
O503 Li442 1.970 . S
O503 Li443 1.956 . S
O503 C478 1.325 . S
H504 C446 0.929 . S
H505 C447 0.930 . S
H506 C448 0.930 . S
H507 C449 0.930 . S
H508 C451 0.930 . S
H509 C453 0.929 . S
H510 C454 0.930 . S
H511 C455 0.930 . S
H512 C458 0.930 . S
H513 C461 0.929 . S
H514 C466 0.929 . S
H515 C467 0.930 . S
H516 C474 0.929 . S
H517 C475 0.930 . S
H518 C476 0.930 . S
H519 C477 0.930 . S
H520 C479 0.929 . S
H521 C480 0.930 . S
H522 C481 0.930 . S
H523 C482 0.930 . S
H524 C486 0.929 . S
H525 C488 0.930 . S
H526 C494 0.929 . S
H527 C495 0.930 . S
Li528 N545 1.990 . S
Li528 O588 1.956 . S
Li528 O589 1.970 . S
Li528 O590 1.961 . S
Li529 N553 1.990 . S
Li529 O588 1.970 . S
Li529 O589 1.956 . S
Li529 O591 1.961 . S
Li530 N575 1.990 . S
Li530 O588 1.961 . S
Li530 O590 1.956 . S
Li530 O591 1.970 . S
Li531 N581 1.990 . S
Li531 O589 1.961 . S
Li531 O590 1.970 . S
Li531 O591 1.956 . S
C532 C534 1.348 . S
C532 C535 1.356 . S
C532 O588 1.325 . S
N533 C536 1.314 . S
N533 C537 1.279 . S
C534 C532 1.348 . S
C534 C536 1.353 . S
C534 H592 0.929 . S
C535 C532 1.356 . S
C535 C537 1.358 . S
C535 H593 0.930 . S
C536 N533 1.314 . S
C536 C534 1.353 . S
C536 H594 0.930 . S
C537 N533 1.279 . S
C537 C535 1.358 . S
C537 H595 0.930 . S
C538 C541 1.348 . S
C538 C542 1.356 . S
C538 O589 1.325 . S
C539 N540 1.279 . S
C539 C542 1.358 . S
C539 H596 0.930 . S
N540 C539 1.279 . S
N540 C543 1.314 . S
C541 C538 1.348 . S
C541 C543 1.353 . S
C541 H597 0.929 . S
C542 C538 1.356 . S
C542 C539 1.358 . S
C542 H598 0.930 . S
C543 N540 1.314 . S
C543 C541 1.353 . S
C543 H599 0.930 . S
C544 N545 1.314 . S
C544 C549 1.353 . S
C544 H550 0.930 . S
N545 Li528 1.990 . S
N545 C544 1.314 . S
N545 C547 1.279 . S
C546 C547 1.358 . S
C546 C548 1.356 . S
C546 H600 0.930 . S
C547 N545 1.279 . S
C547 C546 1.358 . S
C547 H551 0.930 . S
C548 C546 1.356 . S
C548 C549 1.348 . S
C549 C544 1.353 . S
C549 C548 1.348 . S
C549 H601 0.929 . S
H550 C544 0.930 . S
H551 C547 0.930 . S
C552 N553 1.314 . S
C552 C554 1.353 . S
C552 H558 0.930 . S
N553 Li529 1.990 . S
N553 C552 1.314 . S
N553 C556 1.279 . S
C554 C552 1.353 . S
C554 C557 1.348 . S
C554 H602 0.929 . S
C555 C556 1.358 . S
C555 C557 1.356 . S
C555 H603 0.930 . S
C556 N553 1.279 . S
C556 C555 1.358 . S
C556 H559 0.930 . S
C557 C554 1.348 . S
C557 C555 1.356 . S
H558 C552 0.930 . S
H559 C556 0.930 . S
C560 C562 1.348 . S
C560 C563 1.356 . S
C560 O590 1.325 . S
N561 C564 1.314 . S
N561 C565 1.279 . S
C562 C560 1.348 . S
C562 C564 1.353 . S
C562 H604 0.929 . S
C563 C560 1.356 . S
C563 C565 1.358 . S
C563 H605 0.930 . S
C564 N561 1.314 . S
C564 C562 1.353 . S
C564 H606 0.930 . S
C565 N561 1.279 . S
C565 C563 1.358 . S
C565 H607 0.930 . S
C566 C567 1.348 . S
C566 C568 1.356 . S
C566 O591 1.325 . S
C567 C566 1.348 . S
C567 C569 1.353 . S
C567 H608 0.929 . S
C568 C566 1.356 . S
C568 C570 1.358 . S
C568 H609 0.930 . S
C569 C567 1.353 . S
C569 N571 1.314 . S
C569 H610 0.930 . S
C570 C568 1.358 . S
C570 N571 1.279 . S
C570 H611 0.930 . S
N571 C569 1.314 . S
N571 C570 1.279 . S
C572 C574 1.353 . S
C572 N575 1.314 . S
C572 H578 0.930 . S
C573 N575 1.279 . S
C573 C576 1.358 . S
C573 H579 0.930 . S
C574 C572 1.353 . S
C574 C577 1.348 . S
C574 H612 0.929 . S
N575 Li530 1.990 . S
N575 C572 1.314 . S
N575 C573 1.279 . S
C576 C573 1.358 . S
C576 C577 1.356 . S
C576 H613 0.930 . S
C577 C574 1.348 . S
C577 C576 1.356 . S
H578 C572 0.930 . S
H579 C573 0.930 . S
C580 N581 1.314 . S
C580 C582 1.353 . S
C580 H586 0.930 . S
N581 Li531 1.990 . S
N581 C580 1.314 . S
N581 C584 1.279 . S
C582 C580 1.353 . S
C582 C585 1.348 . S
C582 H614 0.929 . S
C583 C584 1.358 . S
C583 C585 1.356 . S
C583 H615 0.930 . S
C584 N581 1.279 . S
C584 C583 1.358 . S
C584 H587 0.930 . S
C585 C582 1.348 . S
C585 C583 1.356 . S
H586 C580 0.930 . S
H587 C584 0.930 . S
O588 Li528 1.956 . S
O588 Li529 1.970 . S
O588 Li530 1.961 . S
O588 C532 1.325 . S
O589 Li528 1.970 . S
O589 Li529 1.956 . S
O589 Li531 1.961 . S
O589 C538 1.325 . S
O590 Li528 1.961 . S
O590 Li530 1.956 . S
O590 Li531 1.970 . S
O590 C560 1.325 . S
O591 Li529 1.961 . S
O591 Li530 1.970 . S
O591 Li531 1.956 . S
O591 C566 1.325 . S
H592 C534 0.929 . S
H593 C535 0.930 . S
H594 C536 0.930 . S
H595 C537 0.930 . S
H596 C539 0.930 . S
H597 C541 0.929 . S
H598 C542 0.930 . S
H599 C543 0.930 . S
H600 C546 0.930 . S
H601 C549 0.929 . S
H602 C554 0.929 . S
H603 C555 0.930 . S
H604 C562 0.929 . S
H605 C563 0.930 . S
H606 C564 0.930 . S
H607 C565 0.930 . S
H608 C567 0.929 . S
H609 C568 0.930 . S
H610 C569 0.930 . S
H611 C570 0.930 . S
H612 C574 0.929 . S
H613 C576 0.930 . S
H614 C582 0.929 . S
H615 C583 0.930 . S
Li616 N633 1.990 . S
Li616 O676 1.956 1_455 S
Li616 O677 1.970 . S
Li616 O678 1.961 . S
Li617 N641 1.990 . S
Li617 O676 1.970 . S
Li617 O677 1.956 1_655 S
Li617 O679 1.961 . S
Li618 N663 1.993 . S
Li618 O676 1.958 . S
Li618 O678 1.958 1_655 S
Li618 O679 1.970 . S
Li619 N669 1.990 . S
Li619 O677 1.961 . S
Li619 O678 1.970 . S
Li619 O679 1.956 1_455 S
C620 C622 1.348 . S
C620 C623 1.356 . S
C620 O676 1.325 . S
N621 C624 1.314 . S
N621 C625 1.279 . S
C622 C620 1.348 . S
C622 C624 1.353 . S
C622 H680 0.929 . S
C623 C620 1.356 . S
C623 C625 1.358 . S
C623 H681 0.930 . S
C624 N621 1.314 . S
C624 C622 1.353 . S
C624 H682 0.930 . S
C625 N621 1.279 . S
C625 C623 1.358 . S
C625 H683 0.930 1_556 S
C626 C629 1.348 1_455 S
C626 C630 1.356 . S
C626 O677 1.325 . S
C627 N628 1.279 . S
C627 C630 1.358 . S
C627 H684 0.930 . S
N628 C627 1.279 . S
N628 C631 1.300 1_455 S
C629 C626 1.348 1_655 S
C629 C631 1.351 . S
C629 H685 0.929 . S
C630 C626 1.356 . S
C630 C627 1.358 . S
C630 H686 0.930 . S
C631 N628 1.300 1_655 S
C631 C629 1.351 . S
C631 H687 0.951 . S
C632 N633 1.314 . S
C632 C637 1.353 . S
C632 H638 0.930 . S
N633 Li616 1.990 . S
N633 C632 1.314 . S
N633 C635 1.279 1_455 S
C634 C635 1.358 . S
C634 C636 1.356 1_655 S
C634 H688 0.930 . S
C635 N633 1.279 1_655 S
C635 C634 1.358 . S
C635 H639 0.930 . S
C636 C634 1.356 1_455 S
C636 C637 1.348 . S
C637 C632 1.353 . S
C637 C636 1.348 . S
C637 H689 0.929 . S
H638 C632 0.930 . S
H639 C635 0.930 . S
C640 N641 1.314 . S
C640 C642 1.353 . S
C640 H646 0.930 . S
N641 Li617 1.990 . S
N641 C640 1.314 . S
N641 C644 1.279 . S
C642 C640 1.353 . S
C642 C645 1.348 . S
C642 H690 0.929 . S
C643 C644 1.358 . S
C643 C645 1.356 . S
C643 H691 0.930 . S
C644 N641 1.279 . S
C644 C643 1.358 . S
C644 H647 0.930 . S
C645 C642 1.348 . S
C645 C643 1.356 . S
H646 C640 0.930 . S
H647 C644 0.930 . S
C648 C650 1.348 . S
C648 C651 1.356 . S
C648 O678 1.325 . S
N649 C652 1.314 . S
N649 C653 1.279 . S
C650 C648 1.348 . S
C650 C652 1.353 . S
C650 H692 0.929 . S
C651 C648 1.356 . S
C651 C653 1.358 . S
C651 H693 0.930 . S
C652 N649 1.314 . S
C652 C650 1.353 . S
C652 H694 0.930 . S
C653 N649 1.279 . S
C653 C651 1.358 . S
C653 H695 0.930 1_556 S
C654 C655 1.348 . S
C654 C656 1.356 . S
C654 O679 1.325 . S
C655 C654 1.348 . S
C655 C657 1.353 . S
C655 H696 0.929 1_655 S
C656 C654 1.356 . S
C656 C658 1.358 . S
C656 H697 0.930 . S
C657 C655 1.353 . S
C657 N659 1.314 . S
C657 H698 0.930 . S
C658 C656 1.358 . S
C658 N659 1.279 . S
C658 H699 0.930 . S
N659 C657 1.314 . S
N659 C658 1.279 . S
C660 C662 1.353 . S
C660 N663 1.342 . S
C660 H666 0.930 . S
C661 N663 1.250 1_455 S
C661 C664 1.358 . S
C661 H667 0.930 . S
C662 C660 1.353 . S
C662 C665 1.348 . S
C662 H700 0.929 . S
N663 Li618 1.993 . S
N663 C660 1.342 . S
N663 C661 1.250 1_655 S
C664 C661 1.358 . S
C664 C665 1.356 1_455 S
C664 H701 0.930 . S
C665 C662 1.348 . S
C665 C664 1.356 1_655 S
H666 C660 0.930 . S
H667 C661 0.930 . S
C668 N669 1.314 . S
C668 C670 1.353 . S
C668 H674 0.930 . S
N669 Li619 1.990 . S
N669 C668 1.314 . S
N669 C672 1.279 . S
C670 C668 1.353 . S
C670 C673 1.348 . S
C670 H702 0.929 . S
C671 C672 1.358 . S
C671 C673 1.356 . S
C671 H703 0.930 . S
C672 N669 1.279 . S
C672 C671 1.358 . S
C672 H675 0.930 . S
C673 C670 1.348 . S
C673 C671 1.356 . S
H674 C668 0.930 . S
H675 C672 0.930 . S
O676 Li616 1.956 1_655 S
O676 Li617 1.970 . S
O676 Li618 1.958 . S
O676 C620 1.325 . S
O677 Li616 1.970 . S
O677 Li617 1.956 1_455 S
O677 Li619 1.961 . S
O677 C626 1.325 . S
O678 Li616 1.961 . S
O678 Li618 1.958 1_455 S
O678 Li619 1.970 . S
O678 C648 1.325 . S
O679 Li617 1.961 . S
O679 Li618 1.970 . S
O679 Li619 1.956 1_655 S
O679 C654 1.325 . S
H680 C622 0.929 . S
H681 C623 0.930 . S
H682 C624 0.930 . S
H683 C625 0.930 1_554 S
H684 C627 0.930 . S
H685 C629 0.929 . S
H686 C630 0.930 . S
H687 C631 0.951 . S
H688 C634 0.930 . S
H689 C637 0.929 . S
H690 C642 0.929 . S
H691 C643 0.930 . S
H692 C650 0.929 . S
H693 C651 0.930 . S
H694 C652 0.930 . S
H695 C653 0.930 1_554 S
H696 C655 0.929 1_455 S
H697 C656 0.930 . S
H698 C657 0.930 . S
H699 C658 0.930 . S
H700 C662 0.929 . S
H701 C664 0.930 . S
H702 C670 0.929 . S
H703 C671 0.930 . S
Li704 N721 1.990 . S
Li704 O764 1.956 1_545 S
Li704 O765 1.970 . S
Li704 O766 1.961 . S
Li705 N729 1.990 . S
Li705 O764 1.970 . S
Li705 O765 1.956 1_565 S
Li705 O767 1.961 1_565 S
Li706 N751 1.990 . S
Li706 O764 1.961 1_545 S
Li706 O766 1.956 . S
Li706 O767 1.970 . S
Li707 N757 1.990 . S
Li707 O765 1.961 . S
Li707 O766 1.970 . S
Li707 O767 1.956 . S
C708 C710 1.348 . S
C708 C711 1.356 . S
C708 O764 1.325 . S
N709 C712 1.314 . S
N709 C713 1.279 . S
C710 C708 1.348 . S
C710 C712 1.353 . S
C710 H768 0.929 . S
C711 C708 1.356 . S
C711 C713 1.358 . S
C711 H769 0.930 . S
C712 N709 1.314 . S
C712 C710 1.353 . S
C712 H770 0.930 . S
C713 N709 1.279 . S
C713 C711 1.358 . S
C713 H771 0.930 . S
C714 C717 1.348 . S
C714 C718 1.356 . S
C714 O765 1.325 . S
C715 N716 1.279 . S
C715 C718 1.358 . S
C715 H772 0.930 . S
N716 C715 1.279 . S
N716 C719 1.320 . S
C717 C714 1.348 . S
C717 C719 1.353 . S
C717 H773 0.908 1_545 S
C718 C714 1.356 . S
C718 C715 1.358 . S
C718 H774 0.930 . S
C719 N716 1.320 . S
C719 C717 1.353 . S
C719 H775 0.923 1_545 S
C720 N721 1.314 . S
C720 C725 1.353 . S
C720 H726 0.930 . S
N721 Li704 1.990 . S
N721 C720 1.314 . S
N721 C723 1.279 1_545 S
C722 C723 1.362 1_545 S
C722 C724 1.378 . S
C722 H776 0.905 1_545 S
C723 N721 1.279 1_565 S
C723 C722 1.362 1_565 S
C723 H727 0.930 . S
C724 C722 1.378 . S
C724 C725 1.348 . S
C725 C720 1.353 . S
C725 C724 1.348 . S
C725 H777 0.929 . S
H726 C720 0.930 . S
H727 C723 0.930 . S
C728 N729 1.314 . S
C728 C730 1.353 . S
C728 H734 0.930 . S
N729 Li705 1.990 . S
N729 C728 1.314 . S
N729 C732 1.279 . S
C730 C728 1.353 . S
C730 C733 1.348 . S
C730 H778 0.929 . S
C731 C732 1.358 . S
C731 C733 1.356 . S
C731 H779 0.930 . S
C732 N729 1.279 . S
C732 C731 1.358 . S
C732 H735 0.930 . S
C733 C730 1.348 . S
C733 C731 1.356 . S
H734 C728 0.930 . S
H735 C732 0.930 . S
C736 C738 1.348 . S
C736 C739 1.356 . S
C736 O766 1.325 . S
N737 C740 1.314 . S
N737 C741 1.279 . S
C738 C736 1.348 . S
C738 C740 1.353 . S
C738 H780 0.929 . S
C739 C736 1.356 . S
C739 C741 1.358 . S
C739 H781 0.930 . S
C740 N737 1.314 . S
C740 C738 1.353 . S
C740 H782 0.930 . S
C741 N737 1.279 . S
C741 C739 1.358 . S
C741 H783 0.930 . S
C742 C743 1.356 . S
C742 C744 1.354 1_545 S
C742 O767 1.322 . S
C743 C742 1.356 . S
C743 C745 1.353 . S
C743 H784 0.929 . S
C744 C742 1.354 1_565 S
C744 C746 1.358 . S
C744 H785 0.930 . S
C745 C743 1.353 . S
C745 N747 1.314 1_545 S
C745 H786 0.930 . S
C746 C744 1.358 . S
C746 N747 1.279 . S
C746 H787 0.930 . S
N747 C745 1.314 1_565 S
N747 C746 1.279 . S
C748 C750 1.353 . S
C748 N751 1.314 1_565 S
C748 H754 0.930 . S
C749 N751 1.279 . S
C749 C752 1.358 . S
C749 H755 0.930 . S
C750 C748 1.353 . S
C750 C753 1.348 1_565 S
C750 H788 0.929 . S
N751 Li706 1.990 . S
N751 C748 1.314 1_545 S
N751 C749 1.279 . S
C752 C749 1.358 . S
C752 C753 1.356 . S
C752 H789 0.930 . S
C753 C750 1.348 1_545 S
C753 C752 1.356 . S
H754 C748 0.930 . S
H755 C749 0.930 . S
C756 N757 1.314 . S
C756 C758 1.353 . S
C756 H762 0.930 . S
N757 Li707 1.990 . S
N757 C756 1.314 . S
N757 C760 1.279 . S
C758 C756 1.353 . S
C758 C761 1.348 . S
C758 H790 0.929 . S
C759 C760 1.358 . S
C759 C761 1.356 . S
C759 H791 0.930 . S
C760 N757 1.279 . S
C760 C759 1.358 . S
C760 H763 0.930 . S
C761 C758 1.348 . S
C761 C759 1.356 . S
H762 C756 0.930 . S
H763 C760 0.930 . S
O764 Li704 1.956 1_565 S
O764 Li705 1.970 . S
O764 Li706 1.961 1_565 S
O764 C708 1.325 . S
O765 Li704 1.970 . S
O765 Li705 1.956 1_545 S
O765 Li707 1.961 . S
O765 C714 1.325 . S
O766 Li704 1.961 . S
O766 Li706 1.956 . S
O766 Li707 1.970 . S
O766 C736 1.325 . S
O767 Li705 1.961 1_545 S
O767 Li706 1.970 . S
O767 Li707 1.956 . S
O767 C742 1.322 . S
H768 C710 0.929 . S
H769 C711 0.930 . S
H770 C712 0.930 . S
H771 C713 0.930 . S
H772 C715 0.930 . S
H773 C717 0.908 1_565 S
H774 C718 0.930 . S
H775 C719 0.923 1_565 S
H776 C722 0.905 1_565 S
H777 C725 0.929 . S
H778 C730 0.929 . S
H779 C731 0.930 . S
H780 C738 0.929 . S
H781 C739 0.930 . S
H782 C740 0.930 . S
H783 C741 0.930 . S
H784 C743 0.929 . S
H785 C744 0.930 . S
H786 C745 0.930 . S
H787 C746 0.930 . S
H788 C750 0.929 . S
H789 C752 0.930 . S
H790 C758 0.929 . S
H791 C759 0.930 . S
Li792 N809 1.990 . S
Li792 O852 1.956 . S
Li792 O853 1.970 . S
Li792 O854 1.961 . S
Li793 N817 1.990 . S
Li793 O852 1.970 . S
Li793 O853 1.956 . S
Li793 O855 1.961 . S
Li794 N839 1.990 . S
Li794 O852 1.961 . S
Li794 O854 1.956 . S
Li794 O855 1.970 . S
Li795 N845 1.990 . S
Li795 O853 1.961 . S
Li795 O854 1.970 . S
Li795 O855 1.956 . S
C796 C798 1.348 . S
C796 C799 1.356 . S
C796 O852 1.325 . S
N797 C800 1.314 . S
N797 C801 1.279 . S
C798 C796 1.348 . S
C798 C800 1.353 . S
C798 H856 0.929 . S
C799 C796 1.356 . S
C799 C801 1.358 . S
C799 H857 0.930 . S
C800 N797 1.314 . S
C800 C798 1.353 . S
C800 H858 0.930 . S
C801 N797 1.279 . S
C801 C799 1.358 . S
C801 H859 0.930 . S
C802 C805 1.348 . S
C802 C806 1.356 . S
C802 O853 1.325 . S
C803 N804 1.279 . S
C803 C806 1.358 . S
C803 H860 0.930 . S
N804 C803 1.279 . S
N804 C807 1.314 . S
C805 C802 1.348 . S
C805 C807 1.353 . S
C805 H861 0.929 . S
C806 C802 1.356 . S
C806 C803 1.358 . S
C806 H862 0.930 . S
C807 N804 1.314 . S
C807 C805 1.353 . S
C807 H863 0.930 . S
C808 N809 1.314 . S
C808 C813 1.353 . S
C808 H814 0.930 . S
N809 Li792 1.990 . S
N809 C808 1.314 . S
N809 C811 1.279 . S
C810 C811 1.358 . S
C810 C812 1.356 . S
C810 H864 0.930 . S
C811 N809 1.279 . S
C811 C810 1.358 . S
C811 H815 0.930 . S
C812 C810 1.356 . S
C812 C813 1.348 . S
C813 C808 1.353 . S
C813 C812 1.348 . S
C813 H865 0.929 . S
H814 C808 0.930 . S
H815 C811 0.930 . S
C816 N817 1.314 . S
C816 C818 1.353 . S
C816 H822 0.930 . S
N817 Li793 1.990 . S
N817 C816 1.314 . S
N817 C820 1.279 . S
C818 C816 1.353 . S
C818 C821 1.348 . S
C818 H866 0.929 . S
C819 C820 1.358 . S
C819 C821 1.356 . S
C819 H867 0.930 . S
C820 N817 1.279 . S
C820 C819 1.358 . S
C820 H823 0.930 . S
C821 C818 1.348 . S
C821 C819 1.356 . S
H822 C816 0.930 . S
H823 C820 0.930 . S
C824 C826 1.348 . S
C824 C827 1.356 . S
C824 O854 1.325 . S
N825 C828 1.314 . S
N825 C829 1.279 . S
C826 C824 1.348 . S
C826 C828 1.353 . S
C826 H868 0.929 . S
C827 C824 1.356 . S
C827 C829 1.358 . S
C827 H869 0.930 . S
C828 N825 1.314 . S
C828 C826 1.353 . S
C828 H870 0.930 . S
C829 N825 1.279 . S
C829 C827 1.358 . S
C829 H871 0.930 . S
C830 C831 1.348 . S
C830 C832 1.356 . S
C830 O855 1.325 . S
C831 C830 1.348 . S
C831 C833 1.353 . S
C831 H872 0.929 . S
C832 C830 1.356 . S
C832 C834 1.358 . S
C832 H873 0.930 . S
C833 C831 1.353 . S
C833 N835 1.314 . S
C833 H874 0.930 . S
C834 C832 1.358 . S
C834 N835 1.279 . S
C834 H875 0.930 . S
N835 C833 1.314 . S
N835 C834 1.279 . S
C836 C838 1.353 . S
C836 N839 1.314 . S
C836 H842 0.930 . S
C837 N839 1.279 . S
C837 C840 1.358 . S
C837 H843 0.930 . S
C838 C836 1.353 . S
C838 C841 1.348 . S
C838 H876 0.929 . S
N839 Li794 1.990 . S
N839 C836 1.314 . S
N839 C837 1.279 . S
C840 C837 1.358 . S
C840 C841 1.356 . S
C840 H877 0.930 . S
C841 C838 1.348 . S
C841 C840 1.356 . S
H842 C836 0.930 . S
H843 C837 0.930 . S
C844 N845 1.314 . S
C844 C846 1.353 . S
C844 H850 0.930 . S
N845 Li795 1.990 . S
N845 C844 1.314 . S
N845 C848 1.279 . S
C846 C844 1.353 . S
C846 C849 1.348 . S
C846 H878 0.929 . S
C847 C848 1.358 . S
C847 C849 1.356 . S
C847 H879 0.930 . S
C848 N845 1.279 . S
C848 C847 1.358 . S
C848 H851 0.930 . S
C849 C846 1.348 . S
C849 C847 1.356 . S
H850 C844 0.930 . S
H851 C848 0.930 . S
O852 Li792 1.956 . S
O852 Li793 1.970 . S
O852 Li794 1.961 . S
O852 C796 1.325 . S
O853 Li792 1.970 . S
O853 Li793 1.956 . S
O853 Li795 1.961 . S
O853 C802 1.325 . S
O854 Li792 1.961 . S
O854 Li794 1.956 . S
O854 Li795 1.970 . S
O854 C824 1.325 . S
O855 Li793 1.961 . S
O855 Li794 1.970 . S
O855 Li795 1.956 . S
O855 C830 1.325 . S
H856 C798 0.929 . S
H857 C799 0.930 . S
H858 C800 0.930 . S
H859 C801 0.930 . S
H860 C803 0.930 . S
H861 C805 0.929 . S
H862 C806 0.930 . S
H863 C807 0.930 . S
H864 C810 0.930 . S
H865 C813 0.929 . S
H866 C818 0.929 . S
H867 C819 0.930 . S
H868 C826 0.929 . S
H869 C827 0.930 . S
H870 C828 0.930 . S
H871 C829 0.930 . S
H872 C831 0.929 . S
H873 C832 0.930 . S
H874 C833 0.930 . S
H875 C834 0.930 . S
H876 C838 0.929 . S
H877 C840 0.930 . S
H878 C846 0.929 . S
H879 C847 0.930 . S
Li880 N897 1.990 . S
Li880 O940 1.956 . S
Li880 O941 1.970 . S
Li880 O942 1.961 . S
Li881 N905 1.990 . S
Li881 O940 1.970 . S
Li881 O941 1.956 . S
Li881 O943 1.961 . S
Li882 N927 1.990 1_545 S
Li882 O940 1.961 . S
Li882 O942 1.956 . S
Li882 O943 1.970 . S
Li883 N933 1.990 . S
Li883 O941 1.961 . S
Li883 O942 1.970 . S
Li883 O943 1.956 . S
C884 C886 1.348 . S
C884 C887 1.356 . S
C884 O940 1.325 . S
N885 C888 1.314 . S
N885 C889 1.279 . S
C886 C884 1.348 . S
C886 C888 1.353 . S
C886 H944 0.929 . S
C887 C884 1.356 . S
C887 C889 1.358 . S
C887 H945 0.930 . S
C888 N885 1.314 . S
C888 C886 1.353 . S
C888 H946 0.930 . S
C889 N885 1.279 . S
C889 C887 1.358 . S
C889 H947 0.930 . S
C890 C893 1.348 . S
C890 C894 1.356 . S
C890 O941 1.325 . S
C891 N892 1.279 . S
C891 C894 1.358 . S
C891 H948 0.930 . S
N892 C891 1.279 . S
N892 C895 1.314 . S
C893 C890 1.348 . S
C893 C895 1.353 . S
C893 H949 0.929 . S
C894 C890 1.356 . S
C894 C891 1.358 . S
C894 H950 0.930 . S
C895 N892 1.314 . S
C895 C893 1.353 . S
C895 H951 0.930 . S
C896 N897 1.314 . S
C896 C901 1.353 . S
C896 H902 0.930 . S
N897 Li880 1.990 . S
N897 C896 1.314 . S
N897 C899 1.279 . S
C898 C899 1.358 . S
C898 C900 1.356 . S
C898 H952 0.930 . S
C899 N897 1.279 . S
C899 C898 1.358 . S
C899 H903 0.930 . S
C900 C898 1.356 . S
C900 C901 1.348 . S
C901 C896 1.353 . S
C901 C900 1.348 . S
C901 H953 0.929 . S
H902 C896 0.930 . S
H903 C899 0.930 . S
C904 N905 1.314 . S
C904 C906 1.353 . S
C904 H910 0.930 . S
N905 Li881 1.990 . S
N905 C904 1.314 . S
N905 C908 1.279 . S
C906 C904 1.353 . S
C906 C909 1.348 . S
C906 H954 0.929 . S
C907 C908 1.358 . S
C907 C909 1.356 . S
C907 H955 0.930 . S
C908 N905 1.279 . S
C908 C907 1.358 . S
C908 H911 0.930 . S
C909 C906 1.348 . S
C909 C907 1.356 . S
H910 C904 0.930 . S
H911 C908 0.930 . S
C912 C914 1.348 . S
C912 C915 1.356 . S
C912 O942 1.325 . S
N913 C916 1.314 . S
N913 C917 1.279 . S
C914 C912 1.348 . S
C914 C916 1.353 . S
C914 H956 0.929 . S
C915 C912 1.356 . S
C915 C917 1.358 . S
C915 H957 0.930 . S
C916 N913 1.314 . S
C916 C914 1.353 . S
C916 H958 0.930 . S
C917 N913 1.279 . S
C917 C915 1.358 . S
C917 H959 0.930 . S
C918 C919 1.348 . S
C918 C920 1.356 . S
C918 O943 1.325 1_565 S
C919 C918 1.348 . S
C919 C921 1.353 . S
C919 H960 0.929 . S
C920 C918 1.356 . S
C920 C922 1.358 . S
C920 H961 0.930 1_565 S
C921 C919 1.353 . S
C921 N923 1.314 . S
C921 H962 0.930 . S
C922 C920 1.358 . S
C922 N923 1.279 . S
C922 H963 0.930 . S
N923 C921 1.314 . S
N923 C922 1.279 . S
C924 C926 1.353 . S
C924 N927 1.314 . S
C924 H930 0.930 . S
C925 N927 1.279 . S
C925 C928 1.358 . S
C925 H931 0.930 . S
C926 C924 1.353 . S
C926 C929 1.348 . S
C926 H964 0.929 . S
N927 Li882 1.990 1_565 S
N927 C924 1.314 . S
N927 C925 1.279 . S
C928 C925 1.358 . S
C928 C929 1.356 . S
C928 H965 0.930 . S
C929 C926 1.348 . S
C929 C928 1.356 . S
H930 C924 0.930 . S
H931 C925 0.930 . S
C932 N933 1.314 . S
C932 C934 1.353 . S
C932 H938 0.930 . S
N933 Li883 1.990 . S
N933 C932 1.314 . S
N933 C936 1.279 . S
C934 C932 1.353 . S
C934 C937 1.348 . S
C934 H966 0.929 . S
C935 C936 1.358 . S
C935 C937 1.356 . S
C935 H967 0.930 1_545 S
C936 N933 1.279 . S
C936 C935 1.358 . S
C936 H939 0.927 1_545 S
C937 C934 1.348 . S
C937 C935 1.356 . S
H938 C932 0.930 . S
H939 C936 0.927 1_565 S
O940 Li880 1.956 . S
O940 Li881 1.970 . S
O940 Li882 1.961 . S
O940 C884 1.325 . S
O941 Li880 1.970 . S
O941 Li881 1.956 . S
O941 Li883 1.961 . S
O941 C890 1.325 . S
O942 Li880 1.961 . S
O942 Li882 1.956 . S
O942 Li883 1.970 . S
O942 C912 1.325 . S
O943 Li881 1.961 . S
O943 Li882 1.970 . S
O943 Li883 1.956 . S
O943 C918 1.325 1_545 S
H944 C886 0.929 . S
H945 C887 0.930 . S
H946 C888 0.930 . S
H947 C889 0.930 . S
H948 C891 0.930 . S
H949 C893 0.929 . S
H950 C894 0.930 . S
H951 C895 0.930 . S
H952 C898 0.930 . S
H953 C901 0.929 . S
H954 C906 0.929 . S
H955 C907 0.930 . S
H956 C914 0.929 . S
H957 C915 0.930 . S
H958 C916 0.930 . S
H959 C917 0.930 . S
H960 C919 0.929 . S
H961 C920 0.930 1_545 S
H962 C921 0.930 . S
H963 C922 0.930 . S
H964 C926 0.929 . S
H965 C928 0.930 . S
H966 C934 0.929 . S
H967 C935 0.930 1_565 S
Li968 N985 1.990 . S
Li968 O1028 1.979 . S
Li968 O1029 1.971 1_554 S
Li968 O1030 1.934 1_554 S
Li969 N993 1.990 . S
Li969 O1028 1.970 . S
Li969 O1029 1.956 1_554 S
Li969 O1031 1.996 . S
Li970 N1015 1.990 . S
Li970 O1028 1.961 . S
Li970 O1030 1.956 1_554 S
Li970 O1031 1.967 . S
Li971 N1021 1.990 . S
Li971 O1029 1.961 . S
Li971 O1030 1.970 . S
Li971 O1031 1.923 1_556 S
C972 C974 1.348 . S
C972 C975 1.356 . S
C972 O1028 1.325 . S
N973 C976 1.314 . S
N973 C977 1.279 . S
C974 C972 1.348 . S
C974 C976 1.353 . S
C974 H1032 0.929 . S
C975 C972 1.356 . S
C975 C977 1.358 . S
C975 H1033 0.930 . S
C976 N973 1.314 . S
C976 C974 1.353 . S
C976 H1034 0.930 . S
C977 N973 1.279 . S
C977 C975 1.358 . S
C977 H1035 0.930 . S
C978 C981 1.348 1_556 S
C978 C982 1.356 . S
C978 O1029 1.325 . S
C979 N980 1.279 . S
C979 C982 1.358 . S
C979 H1036 0.930 . S
N980 C979 1.279 . S
N980 C983 1.323 . S
C981 C978 1.348 1_554 S
C981 C983 1.357 1_554 S
C981 H1037 0.929 . S
C982 C978 1.356 . S
C982 C979 1.358 . S
C982 H1038 0.930 . S
C983 N980 1.323 . S
C983 C981 1.357 1_556 S
C983 H1039 0.918 1_556 S
C984 N985 1.272 1_556 S
C984 C989 1.353 . S
C984 H990 0.930 . S
N985 Li968 1.990 . S
N985 C984 1.272 1_554 S
N985 C987 1.323 . S
C986 C987 1.358 . S
C986 C988 1.343 1_554 S
C986 H1040 0.930 . S
C987 N985 1.323 . S
C987 C986 1.358 . S
C987 H991 0.930 . S
C988 C986 1.343 1_556 S
C988 C989 1.361 . S
C989 C984 1.353 . S
C989 C988 1.361 . S
C989 H1041 0.929 . S
H990 C984 0.930 . S
H991 C987 0.930 . S
C992 N993 1.314 . S
C992 C994 1.353 . S
C992 H998 0.930 . S
N993 Li969 1.990 . S
N993 C992 1.314 . S
N993 C996 1.279 . S
C994 C992 1.353 . S
C994 C997 1.348 . S
C994 H1042 0.929 . S
C995 C996 1.358 . S
C995 C997 1.356 . S
C995 H1043 0.930 . S
C996 N993 1.279 . S
C996 C995 1.358 . S
C996 H999 0.930 . S
C997 C994 1.348 . S
C997 C995 1.356 . S
H998 C992 0.930 . S
H999 C996 0.930 . S
C1000 C1002 1.348 . S
C1000 C1003 1.356 . S
C1000 O1030 1.325 . S
N1001 C1004 1.314 . S
N1001 C1005 1.279 . S
C1002 C1000 1.348 . S
C1002 C1004 1.353 . S
C1002 H1044 0.929 . S
C1003 C1000 1.356 . S
C1003 C1005 1.358 . S
C1003 H1045 0.930 . S
C1004 N1001 1.314 . S
C1004 C1002 1.353 . S
C1004 H1046 0.930 . S
C1005 N1001 1.279 . S
C1005 C1003 1.358 . S
C1005 H1047 0.930 . S
C1006 C1007 1.341 1_554 S
C1006 C1008 1.361 . S
C1006 O1031 1.324 . S
C1007 C1006 1.341 1_556 S
C1007 C1009 1.353 . S
C1007 H1048 0.929 . S
C1008 C1006 1.361 . S
C1008 C1010 1.358 . S
C1008 H1049 0.930 . S
C1009 C1007 1.353 . S
C1009 N1011 1.314 . S
C1009 H1050 0.930 . S
C1010 C1008 1.358 . S
C1010 N1011 1.279 1_554 S
C1010 H1051 0.930 . S
N1011 C1009 1.314 . S
N1011 C1010 1.279 1_556 S
C1012 C1014 1.353 . S
C1012 N1015 1.314 . S
C1012 H1018 0.930 . S
C1013 N1015 1.279 1_556 S
C1013 C1016 1.358 . S
C1013 H1019 0.930 . S
C1014 C1012 1.353 . S
C1014 C1017 1.348 . S
C1014 H1052 0.929 . S
N1015 Li970 1.990 . S
N1015 C1012 1.314 . S
N1015 C1013 1.279 1_554 S
C1016 C1013 1.358 . S
C1016 C1017 1.356 1_556 S
C1016 H1053 0.930 . S
C1017 C1014 1.348 . S
C1017 C1016 1.356 1_554 S
H1018 C1012 0.930 . S
H1019 C1013 0.930 . S
C1020 N1021 1.314 . S
C1020 C1022 1.353 . S
C1020 H1026 0.930 . S
N1021 Li971 1.990 . S
N1021 C1020 1.314 . S
N1021 C1024 1.279 . S
C1022 C1020 1.353 . S
C1022 C1025 1.348 . S
C1022 H1054 0.929 . S
C1023 C1024 1.358 . S
C1023 C1025 1.356 . S
C1023 H1055 0.930 . S
C1024 N1021 1.279 . S
C1024 C1023 1.358 . S
C1024 H1027 0.930 . S
C1025 C1022 1.348 . S
C1025 C1023 1.356 . S
H1026 C1020 0.930 . S
H1027 C1024 0.930 . S
O1028 Li968 1.979 . S
O1028 Li969 1.970 . S
O1028 Li970 1.961 . S
O1028 C972 1.325 . S
O1029 Li968 1.971 1_556 S
O1029 Li969 1.956 1_556 S
O1029 Li971 1.961 . S
O1029 C978 1.325 . S
O1030 Li968 1.934 1_556 S
O1030 Li970 1.956 1_556 S
O1030 Li971 1.970 . S
O1030 C1000 1.325 . S
O1031 Li969 1.996 . S
O1031 Li970 1.967 . S
O1031 Li971 1.923 1_554 S
O1031 C1006 1.324 . S
H1032 C974 0.929 . S
H1033 C975 0.930 . S
H1034 C976 0.930 . S
H1035 C977 0.930 . S
H1036 C979 0.930 . S
H1037 C981 0.929 . S
H1038 C982 0.930 . S
H1039 C983 0.918 1_554 S
H1040 C986 0.930 . S
H1041 C989 0.929 . S
H1042 C994 0.929 . S
H1043 C995 0.930 . S
H1044 C1002 0.929 . S
H1045 C1003 0.930 . S
H1046 C1004 0.930 . S
H1047 C1005 0.930 . S
H1048 C1007 0.929 . S
H1049 C1008 0.930 . S
H1050 C1009 0.930 . S
H1051 C1010 0.930 . S
H1052 C1014 0.929 . S
H1053 C1016 0.930 . S
H1054 C1022 0.929 . S
H1055 C1023 0.930 . S
Li1056 N1073 1.990 . S
Li1056 O1116 1.956 . S
Li1056 O1117 1.970 . S
Li1056 O1118 1.961 . S
Li1057 N1081 1.990 . S
Li1057 O1116 1.970 . S
Li1057 O1117 1.956 . S
Li1057 O1119 1.961 . S
Li1058 N1103 1.990 . S
Li1058 O1116 1.961 . S
Li1058 O1118 1.956 . S
Li1058 O1119 1.970 . S
Li1059 N1109 1.990 1_554 S
Li1059 O1117 1.961 . S
Li1059 O1118 1.970 . S
Li1059 O1119 1.956 . S
C1060 C1062 1.348 . S
C1060 C1063 1.356 . S
C1060 O1116 1.325 . S
N1061 C1064 1.314 . S
N1061 C1065 1.279 . S
C1062 C1060 1.348 . S
C1062 C1064 1.353 . S
C1062 H1120 0.929 . S
C1063 C1060 1.356 . S
C1063 C1065 1.358 . S
C1063 H1121 0.930 . S
C1064 N1061 1.314 . S
C1064 C1062 1.353 . S
C1064 H1122 0.930 . S
C1065 N1061 1.279 . S
C1065 C1063 1.358 . S
C1065 H1123 0.930 . S
C1066 C1069 1.348 . S
C1066 C1070 1.356 . S
C1066 O1117 1.325 . S
C1067 N1068 1.279 . S
C1067 C1070 1.358 . S
C1067 H1124 0.930 . S
N1068 C1067 1.279 . S
N1068 C1071 1.314 . S
C1069 C1066 1.348 . S
C1069 C1071 1.353 . S
C1069 H1125 0.929 . S
C1070 C1066 1.356 . S
C1070 C1067 1.358 . S
C1070 H1126 0.930 . S
C1071 N1068 1.314 . S
C1071 C1069 1.353 . S
C1071 H1127 0.930 . S
C1072 N1073 1.314 . S
C1072 C1077 1.353 . S
C1072 H1078 0.930 . S
N1073 Li1056 1.990 . S
N1073 C1072 1.314 . S
N1073 C1075 1.279 . S
C1074 C1075 1.358 . S
C1074 C1076 1.356 . S
C1074 H1128 0.930 . S
C1075 N1073 1.279 . S
C1075 C1074 1.358 . S
C1075 H1079 0.930 . S
C1076 C1074 1.356 . S
C1076 C1077 1.348 . S
C1077 C1072 1.353 . S
C1077 C1076 1.348 . S
C1077 H1129 0.929 . S
H1078 C1072 0.930 . S
H1079 C1075 0.930 . S
C1080 N1081 1.314 . S
C1080 C1082 1.353 . S
C1080 H1086 0.930 . S
N1081 Li1057 1.990 . S
N1081 C1080 1.314 . S
N1081 C1084 1.279 . S
C1082 C1080 1.353 . S
C1082 C1085 1.348 . S
C1082 H1130 0.929 . S
C1083 C1084 1.358 . S
C1083 C1085 1.356 . S
C1083 H1131 0.930 . S
C1084 N1081 1.279 . S
C1084 C1083 1.358 . S
C1084 H1087 0.930 . S
C1085 C1082 1.348 . S
C1085 C1083 1.356 . S
H1086 C1080 0.930 . S
H1087 C1084 0.930 . S
C1088 C1090 1.348 1_554 S
C1088 C1091 1.356 . S
C1088 O1118 1.325 . S
N1089 C1092 1.314 . S
N1089 C1093 1.279 . S
C1090 C1088 1.348 1_556 S
C1090 C1092 1.353 . S
C1090 H1132 0.929 . S
C1091 C1088 1.356 . S
C1091 C1093 1.358 1_554 S
C1091 H1133 0.930 . S
C1092 N1089 1.314 . S
C1092 C1090 1.353 . S
C1092 H1134 0.930 . S
C1093 N1089 1.279 . S
C1093 C1091 1.358 1_556 S
C1093 H1135 0.930 . S
C1094 C1095 1.348 . S
C1094 C1096 1.356 . S
C1094 O1119 1.325 . S
C1095 C1094 1.348 . S
C1095 C1097 1.353 . S
C1095 H1136 0.929 . S
C1096 C1094 1.356 . S
C1096 C1098 1.358 . S
C1096 H1137 0.930 . S
C1097 C1095 1.353 . S
C1097 N1099 1.314 . S
C1097 H1138 0.930 . S
C1098 C1096 1.358 . S
C1098 N1099 1.279 . S
C1098 H1139 0.930 . S
N1099 C1097 1.314 . S
N1099 C1098 1.279 . S
C1100 C1102 1.353 . S
C1100 N1103 1.314 . S
C1100 H1106 0.930 . S
C1101 N1103 1.279 . S
C1101 C1104 1.358 . S
C1101 H1107 0.930 . S
C1102 C1100 1.353 . S
C1102 C1105 1.348 . S
C1102 H1140 0.929 . S
N1103 Li1058 1.990 . S
N1103 C1100 1.314 . S
N1103 C1101 1.279 . S
C1104 C1101 1.358 . S
C1104 C1105 1.356 . S
C1104 H1141 0.930 . S
C1105 C1102 1.348 . S
C1105 C1104 1.356 . S
H1106 C1100 0.930 . S
H1107 C1101 0.930 . S
C1108 N1109 1.314 . S
C1108 C1110 1.353 . S
C1108 H1114 0.930 . S
N1109 Li1059 1.990 1_556 S
N1109 C1108 1.314 . S
N1109 C1112 1.279 . S
C1110 C1108 1.353 . S
C1110 C1113 1.348 . S
C1110 H1142 0.929 . S
C1111 C1112 1.358 . S
C1111 C1113 1.356 . S
C1111 H1143 0.930 . S
C1112 N1109 1.279 . S
C1112 C1111 1.358 . S
C1112 H1115 0.930 . S
C1113 C1110 1.348 . S
C1113 C1111 1.356 . S
H1114 C1108 0.930 . S
H1115 C1112 0.930 . S
O1116 Li1056 1.956 . S
O1116 Li1057 1.970 . S
O1116 Li1058 1.961 . S
O1116 C1060 1.325 . S
O1117 Li1056 1.970 . S
O1117 Li1057 1.956 . S
O1117 Li1059 1.961 . S
O1117 C1066 1.325 . S
O1118 Li1056 1.961 . S
O1118 Li1058 1.956 . S
O1118 Li1059 1.970 . S
O1118 C1088 1.325 . S
O1119 Li1057 1.961 . S
O1119 Li1058 1.970 . S
O1119 Li1059 1.956 . S
O1119 C1094 1.325 . S
H1120 C1062 0.929 . S
H1121 C1063 0.930 . S
H1122 C1064 0.930 . S
H1123 C1065 0.930 . S
H1124 C1067 0.930 . S
H1125 C1069 0.929 . S
H1126 C1070 0.930 . S
H1127 C1071 0.930 . S
H1128 C1074 0.930 . S
H1129 C1077 0.929 . S
H1130 C1082 0.929 . S
H1131 C1083 0.930 . S
H1132 C1090 0.929 . S
H1133 C1091 0.930 . S
H1134 C1092 0.930 . S
H1135 C1093 0.930 . S
H1136 C1095 0.929 . S
H1137 C1096 0.930 . S
H1138 C1097 0.930 . S
H1139 C1098 0.930 . S
H1140 C1102 0.929 . S
H1141 C1104 0.930 . S
H1142 C1110 0.929 . S
H1143 C1111 0.930 . S
Li1144 N1161 1.990 . S
Li1144 O1204 1.956 . S
Li1144 O1205 1.970 . S
Li1144 O1206 1.961 . S
Li1145 N1169 1.990 . S
Li1145 O1204 1.970 . S
Li1145 O1205 1.956 . S
Li1145 O1207 1.961 . S
Li1146 N1191 1.990 . S
Li1146 O1204 1.961 . S
Li1146 O1206 1.956 . S
Li1146 O1207 1.970 . S
Li1147 N1197 1.990 . S
Li1147 O1205 1.961 . S
Li1147 O1206 1.970 . S
Li1147 O1207 1.956 . S
C1148 C1150 1.348 . S
C1148 C1151 1.356 . S
C1148 O1204 1.325 . S
N1149 C1152 1.314 . S
N1149 C1153 1.279 . S
C1150 C1148 1.348 . S
C1150 C1152 1.353 . S
C1150 H1208 0.929 . S
C1151 C1148 1.356 . S
C1151 C1153 1.358 . S
C1151 H1209 0.930 . S
C1152 N1149 1.314 . S
C1152 C1150 1.353 . S
C1152 H1210 0.930 . S
C1153 N1149 1.279 . S
C1153 C1151 1.358 . S
C1153 H1211 0.930 . S
C1154 C1157 1.348 . S
C1154 C1158 1.356 . S
C1154 O1205 1.325 . S
C1155 N1156 1.279 . S
C1155 C1158 1.358 . S
C1155 H1212 0.930 . S
N1156 C1155 1.279 . S
N1156 C1159 1.314 . S
C1157 C1154 1.348 . S
C1157 C1159 1.353 . S
C1157 H1213 0.929 . S
C1158 C1154 1.356 . S
C1158 C1155 1.358 . S
C1158 H1214 0.930 . S
C1159 N1156 1.314 . S
C1159 C1157 1.353 . S
C1159 H1215 0.930 . S
C1160 N1161 1.314 . S
C1160 C1165 1.353 . S
C1160 H1166 0.930 . S
N1161 Li1144 1.990 . S
N1161 C1160 1.314 . S
N1161 C1163 1.279 . S
C1162 C1163 1.358 . S
C1162 C1164 1.356 . S
C1162 H1216 0.930 . S
C1163 N1161 1.279 . S
C1163 C1162 1.358 . S
C1163 H1167 0.930 . S
C1164 C1162 1.356 . S
C1164 C1165 1.348 . S
C1165 C1160 1.353 . S
C1165 C1164 1.348 . S
C1165 H1217 0.929 . S
H1166 C1160 0.930 . S
H1167 C1163 0.930 . S
C1168 N1169 1.314 . S
C1168 C1170 1.353 . S
C1168 H1174 0.930 . S
N1169 Li1145 1.990 . S
N1169 C1168 1.314 . S
N1169 C1172 1.279 . S
C1170 C1168 1.353 . S
C1170 C1173 1.348 . S
C1170 H1218 0.929 . S
C1171 C1172 1.358 . S
C1171 C1173 1.356 . S
C1171 H1219 0.930 . S
C1172 N1169 1.279 . S
C1172 C1171 1.358 . S
C1172 H1175 0.930 . S
C1173 C1170 1.348 . S
C1173 C1171 1.356 . S
H1174 C1168 0.930 . S
H1175 C1172 0.930 . S
C1176 C1178 1.348 . S
C1176 C1179 1.356 . S
C1176 O1206 1.325 . S
N1177 C1180 1.314 . S
N1177 C1181 1.279 . S
C1178 C1176 1.348 . S
C1178 C1180 1.353 . S
C1178 H1220 0.929 . S
C1179 C1176 1.356 . S
C1179 C1181 1.358 . S
C1179 H1221 0.930 . S
C1180 N1177 1.314 . S
C1180 C1178 1.353 . S
C1180 H1222 0.930 . S
C1181 N1177 1.279 . S
C1181 C1179 1.358 . S
C1181 H1223 0.930 . S
C1182 C1183 1.348 1_554 S
C1182 C1184 1.356 . S
C1182 O1207 1.325 . S
C1183 C1182 1.348 1_556 S
C1183 C1185 1.353 . S
C1183 H1224 0.929 . S
C1184 C1182 1.356 . S
C1184 C1186 1.358 1_554 S
C1184 H1225 0.930 . S
C1185 C1183 1.353 . S
C1185 N1187 1.314 . S
C1185 H1226 0.930 . S
C1186 C1184 1.358 1_556 S
C1186 N1187 1.279 . S
C1186 H1227 0.930 . S
N1187 C1185 1.314 . S
N1187 C1186 1.279 . S
C1188 C1190 1.353 . S
C1188 N1191 1.314 1_556 S
C1188 H1194 0.923 1_556 S
C1189 N1191 1.279 1_556 S
C1189 C1192 1.358 . S
C1189 H1195 0.930 1_556 S
C1190 C1188 1.353 . S
C1190 C1193 1.348 . S
C1190 H1228 0.929 . S
N1191 Li1146 1.990 . S
N1191 C1188 1.314 1_554 S
N1191 C1189 1.279 1_554 S
C1192 C1189 1.358 . S
C1192 C1193 1.356 . S
C1192 H1229 0.930 . S
C1193 C1190 1.348 . S
C1193 C1192 1.356 . S
H1194 C1188 0.923 1_554 S
H1195 C1189 0.930 1_554 S
C1196 N1197 1.314 . S
C1196 C1198 1.353 . S
C1196 H1202 0.930 . S
N1197 Li1147 1.990 . S
N1197 C1196 1.314 . S
N1197 C1200 1.279 . S
C1198 C1196 1.353 . S
C1198 C1201 1.348 . S
C1198 H1230 0.929 . S
C1199 C1200 1.358 . S
C1199 C1201 1.356 . S
C1199 H1231 0.930 . S
C1200 N1197 1.279 . S
C1200 C1199 1.358 . S
C1200 H1203 0.930 . S
C1201 C1198 1.348 . S
C1201 C1199 1.356 . S
H1202 C1196 0.930 . S
H1203 C1200 0.930 . S
O1204 Li1144 1.956 . S
O1204 Li1145 1.970 . S
O1204 Li1146 1.961 . S
O1204 C1148 1.325 . S
O1205 Li1144 1.970 . S
O1205 Li1145 1.956 . S
O1205 Li1147 1.961 . S
O1205 C1154 1.325 . S
O1206 Li1144 1.961 . S
O1206 Li1146 1.956 . S
O1206 Li1147 1.970 . S
O1206 C1176 1.325 . S
O1207 Li1145 1.961 . S
O1207 Li1146 1.970 . S
O1207 Li1147 1.956 . S
O1207 C1182 1.325 . S
H1208 C1150 0.929 . S
H1209 C1151 0.930 . S
H1210 C1152 0.930 . S
H1211 C1153 0.930 . S
H1212 C1155 0.930 . S
H1213 C1157 0.929 . S
H1214 C1158 0.930 . S
H1215 C1159 0.930 . S
H1216 C1162 0.930 . S
H1217 C1165 0.929 . S
H1218 C1170 0.929 . S
H1219 C1171 0.930 . S
H1220 C1178 0.929 . S
H1221 C1179 0.930 . S
H1222 C1180 0.930 . S
H1223 C1181 0.930 . S
H1224 C1183 0.929 . S
H1225 C1184 0.930 . S
H1226 C1185 0.930 . S
H1227 C1186 0.930 . S
H1228 C1190 0.929 . S
H1229 C1192 0.930 . S
H1230 C1198 0.929 . S
H1231 C1199 0.930 . S
Li1232 N1249 1.990 . S
Li1232 O1292 1.956 . S
Li1232 O1293 1.970 . S
Li1232 O1294 1.961 . S
Li1233 N1257 1.990 . S
Li1233 O1292 1.970 . S
Li1233 O1293 1.956 . S
Li1233 O1295 1.961 . S
Li1234 N1279 1.990 . S
Li1234 O1292 1.961 . S
Li1234 O1294 1.956 . S
Li1234 O1295 1.970 . S
Li1235 N1285 1.990 . S
Li1235 O1293 1.961 . S
Li1235 O1294 1.970 . S
Li1235 O1295 1.956 . S
C1236 C1238 1.348 . S
C1236 C1239 1.356 . S
C1236 O1292 1.325 . S
N1237 C1240 1.314 . S
N1237 C1241 1.279 . S
C1238 C1236 1.348 . S
C1238 C1240 1.353 . S
C1238 H1296 0.929 . S
C1239 C1236 1.356 . S
C1239 C1241 1.358 . S
C1239 H1297 0.930 . S
C1240 N1237 1.314 . S
C1240 C1238 1.353 . S
C1240 H1298 0.930 . S
C1241 N1237 1.279 . S
C1241 C1239 1.358 . S
C1241 H1299 0.930 . S
C1242 C1245 1.348 . S
C1242 C1246 1.356 . S
C1242 O1293 1.325 . S
C1243 N1244 1.279 . S
C1243 C1246 1.358 . S
C1243 H1300 0.930 . S
N1244 C1243 1.279 . S
N1244 C1247 1.314 . S
C1245 C1242 1.348 . S
C1245 C1247 1.353 . S
C1245 H1301 0.929 . S
C1246 C1242 1.356 . S
C1246 C1243 1.358 . S
C1246 H1302 0.930 . S
C1247 N1244 1.314 . S
C1247 C1245 1.353 . S
C1247 H1303 0.930 . S
C1248 N1249 1.314 . S
C1248 C1253 1.353 . S
C1248 H1254 0.930 . S
N1249 Li1232 1.990 . S
N1249 C1248 1.314 . S
N1249 C1251 1.279 . S
C1250 C1251 1.358 . S
C1250 C1252 1.356 . S
C1250 H1304 0.930 . S
C1251 N1249 1.279 . S
C1251 C1250 1.358 . S
C1251 H1255 0.930 . S
C1252 C1250 1.356 . S
C1252 C1253 1.348 . S
C1253 C1248 1.353 . S
C1253 C1252 1.348 . S
C1253 H1305 0.929 . S
H1254 C1248 0.930 . S
H1255 C1251 0.930 . S
C1256 N1257 1.314 . S
C1256 C1258 1.353 . S
C1256 H1262 0.930 . S
N1257 Li1233 1.990 . S
N1257 C1256 1.314 . S
N1257 C1260 1.279 . S
C1258 C1256 1.353 . S
C1258 C1261 1.348 . S
C1258 H1306 0.929 . S
C1259 C1260 1.358 . S
C1259 C1261 1.356 . S
C1259 H1307 0.930 . S
C1260 N1257 1.279 . S
C1260 C1259 1.358 . S
C1260 H1263 0.930 . S
C1261 C1258 1.348 . S
C1261 C1259 1.356 . S
H1262 C1256 0.930 . S
H1263 C1260 0.930 . S
C1264 C1266 1.348 . S
C1264 C1267 1.356 . S
C1264 O1294 1.325 . S
N1265 C1268 1.314 . S
N1265 C1269 1.279 . S
C1266 C1264 1.348 . S
C1266 C1268 1.353 . S
C1266 H1308 0.929 . S
C1267 C1264 1.356 . S
C1267 C1269 1.358 . S
C1267 H1309 0.930 . S
C1268 N1265 1.314 . S
C1268 C1266 1.353 . S
C1268 H1310 0.930 . S
C1269 N1265 1.279 . S
C1269 C1267 1.358 . S
C1269 H1311 0.930 . S
C1270 C1271 1.348 . S
C1270 C1272 1.356 . S
C1270 O1295 1.325 . S
C1271 C1270 1.348 . S
C1271 C1273 1.353 . S
C1271 H1312 0.929 . S
C1272 C1270 1.356 . S
C1272 C1274 1.358 . S
C1272 H1313 0.930 . S
C1273 C1271 1.353 . S
C1273 N1275 1.314 . S
C1273 H1314 0.930 . S
C1274 C1272 1.358 . S
C1274 N1275 1.279 . S
C1274 H1315 0.930 . S
N1275 C1273 1.314 . S
N1275 C1274 1.279 . S
C1276 C1278 1.353 . S
C1276 N1279 1.314 . S
C1276 H1282 0.930 . S
C1277 N1279 1.279 . S
C1277 C1280 1.358 . S
C1277 H1283 0.930 . S
C1278 C1276 1.353 . S
C1278 C1281 1.348 . S
C1278 H1316 0.929 . S
N1279 Li1234 1.990 . S
N1279 C1276 1.314 . S
N1279 C1277 1.279 . S
C1280 C1277 1.358 . S
C1280 C1281 1.356 . S
C1280 H1317 0.930 . S
C1281 C1278 1.348 . S
C1281 C1280 1.356 . S
H1282 C1276 0.930 . S
H1283 C1277 0.930 . S
C1284 N1285 1.314 . S
C1284 C1286 1.353 . S
C1284 H1290 0.930 . S
N1285 Li1235 1.990 . S
N1285 C1284 1.314 . S
N1285 C1288 1.279 . S
C1286 C1284 1.353 . S
C1286 C1289 1.348 . S
C1286 H1318 0.929 . S
C1287 C1288 1.358 . S
C1287 C1289 1.356 . S
C1287 H1319 0.930 . S
C1288 N1285 1.279 . S
C1288 C1287 1.358 . S
C1288 H1291 0.930 . S
C1289 C1286 1.348 . S
C1289 C1287 1.356 . S
H1290 C1284 0.930 . S
H1291 C1288 0.930 . S
O1292 Li1232 1.956 . S
O1292 Li1233 1.970 . S
O1292 Li1234 1.961 . S
O1292 C1236 1.325 . S
O1293 Li1232 1.970 . S
O1293 Li1233 1.956 . S
O1293 Li1235 1.961 . S
O1293 C1242 1.325 . S
O1294 Li1232 1.961 . S
O1294 Li1234 1.956 . S
O1294 Li1235 1.970 . S
O1294 C1264 1.325 . S
O1295 Li1233 1.961 . S
O1295 Li1234 1.970 . S
O1295 Li1235 1.956 . S
O1295 C1270 1.325 . S
H1296 C1238 0.929 . S
H1297 C1239 0.930 . S
H1298 C1240 0.930 . S
H1299 C1241 0.930 . S
H1300 C1243 0.930 . S
H1301 C1245 0.929 . S
H1302 C1246 0.930 . S
H1303 C1247 0.930 . S
H1304 C1250 0.930 . S
H1305 C1253 0.929 . S
H1306 C1258 0.929 . S
H1307 C1259 0.930 . S
H1308 C1266 0.929 . S
H1309 C1267 0.930 . S
H1310 C1268 0.930 . S
H1311 C1269 0.930 . S
H1312 C1271 0.929 . S
H1313 C1272 0.930 . S
H1314 C1273 0.930 . S
H1315 C1274 0.930 . S
H1316 C1278 0.929 . S
H1317 C1280 0.930 . S
H1318 C1286 0.929 . S
H1319 C1287 0.930 . S
Li1320 N1337 1.990 . S
Li1320 O1380 1.956 . S
Li1320 O1381 1.970 . S
Li1320 O1382 1.961 . S
Li1321 N1345 1.990 . S
Li1321 O1380 1.970 . S
Li1321 O1381 1.956 . S
Li1321 O1383 1.961 . S
Li1322 N1367 1.990 . S
Li1322 O1380 1.961 . S
Li1322 O1382 1.956 . S
Li1322 O1383 1.970 . S
Li1323 N1373 1.990 . S
Li1323 O1381 1.961 . S
Li1323 O1382 1.970 . S
Li1323 O1383 1.956 . S
C1324 C1326 1.348 . S
C1324 C1327 1.356 . S
C1324 O1380 1.325 . S
N1325 C1328 1.314 . S
N1325 C1329 1.279 . S
C1326 C1324 1.348 . S
C1326 C1328 1.353 . S
C1326 H1384 0.929 . S
C1327 C1324 1.356 . S
C1327 C1329 1.358 . S
C1327 H1385 0.930 . S
C1328 N1325 1.314 . S
C1328 C1326 1.353 . S
C1328 H1386 0.930 . S
C1329 N1325 1.279 . S
C1329 C1327 1.358 . S
C1329 H1387 0.930 . S
C1330 C1333 1.348 . S
C1330 C1334 1.356 . S
C1330 O1381 1.325 . S
C1331 N1332 1.279 . S
C1331 C1334 1.358 . S
C1331 H1388 0.930 . S
N1332 C1331 1.279 . S
N1332 C1335 1.314 . S
C1333 C1330 1.348 . S
C1333 C1335 1.353 . S
C1333 H1389 0.929 . S
C1334 C1330 1.356 . S
C1334 C1331 1.358 . S
C1334 H1390 0.930 . S
C1335 N1332 1.314 . S
C1335 C1333 1.353 . S
C1335 H1391 0.930 . S
C1336 N1337 1.314 . S
C1336 C1341 1.353 . S
C1336 H1342 0.930 . S
N1337 Li1320 1.990 . S
N1337 C1336 1.314 . S
N1337 C1339 1.279 . S
C1338 C1339 1.358 . S
C1338 C1340 1.356 . S
C1338 H1392 0.930 . S
C1339 N1337 1.279 . S
C1339 C1338 1.358 . S
C1339 H1343 0.930 . S
C1340 C1338 1.356 . S
C1340 C1341 1.348 . S
C1341 C1336 1.353 . S
C1341 C1340 1.348 . S
C1341 H1393 0.929 . S
H1342 C1336 0.930 . S
H1343 C1339 0.930 . S
C1344 N1345 1.314 . S
C1344 C1346 1.353 . S
C1344 H1350 0.930 . S
N1345 Li1321 1.990 . S
N1345 C1344 1.314 . S
N1345 C1348 1.279 . S
C1346 C1344 1.353 . S
C1346 C1349 1.348 . S
C1346 H1394 0.929 . S
C1347 C1348 1.358 . S
C1347 C1349 1.356 . S
C1347 H1395 0.930 . S
C1348 N1345 1.279 . S
C1348 C1347 1.358 . S
C1348 H1351 0.930 . S
C1349 C1346 1.348 . S
C1349 C1347 1.356 . S
H1350 C1344 0.930 . S
H1351 C1348 0.930 . S
C1352 C1354 1.348 . S
C1352 C1355 1.356 . S
C1352 O1382 1.325 . S
N1353 C1356 1.314 . S
N1353 C1357 1.279 . S
C1354 C1352 1.348 . S
C1354 C1356 1.353 . S
C1354 H1396 0.929 . S
C1355 C1352 1.356 . S
C1355 C1357 1.358 . S
C1355 H1397 0.930 . S
C1356 N1353 1.314 . S
C1356 C1354 1.353 . S
C1356 H1398 0.930 . S
C1357 N1353 1.279 . S
C1357 C1355 1.358 . S
C1357 H1399 0.930 . S
C1358 C1359 1.348 . S
C1358 C1360 1.356 . S
C1358 O1383 1.325 . S
C1359 C1358 1.348 . S
C1359 C1361 1.353 . S
C1359 H1400 0.929 . S
C1360 C1358 1.356 . S
C1360 C1362 1.358 . S
C1360 H1401 0.930 . S
C1361 C1359 1.353 . S
C1361 N1363 1.314 . S
C1361 H1402 0.930 . S
C1362 C1360 1.358 . S
C1362 N1363 1.279 . S
C1362 H1403 0.930 . S
N1363 C1361 1.314 . S
N1363 C1362 1.279 . S
C1364 C1366 1.353 . S
C1364 N1367 1.314 . S
C1364 H1370 0.930 . S
C1365 N1367 1.279 . S
C1365 C1368 1.358 . S
C1365 H1371 0.930 . S
C1366 C1364 1.353 . S
C1366 C1369 1.348 . S
C1366 H1404 0.929 . S
N1367 Li1322 1.990 . S
N1367 C1364 1.314 . S
N1367 C1365 1.279 . S
C1368 C1365 1.358 . S
C1368 C1369 1.356 . S
C1368 H1405 0.930 . S
C1369 C1366 1.348 . S
C1369 C1368 1.356 . S
H1370 C1364 0.930 . S
H1371 C1365 0.930 . S
C1372 N1373 1.314 . S
C1372 C1374 1.353 . S
C1372 H1378 0.930 . S
N1373 Li1323 1.990 . S
N1373 C1372 1.314 . S
N1373 C1376 1.279 . S
C1374 C1372 1.353 . S
C1374 C1377 1.348 . S
C1374 H1406 0.929 . S
C1375 C1376 1.358 . S
C1375 C1377 1.356 . S
C1375 H1407 0.930 . S
C1376 N1373 1.279 . S
C1376 C1375 1.358 . S
C1376 H1379 0.930 . S
C1377 C1374 1.348 . S
C1377 C1375 1.356 . S
H1378 C1372 0.930 . S
H1379 C1376 0.930 . S
O1380 Li1320 1.956 . S
O1380 Li1321 1.970 . S
O1380 Li1322 1.961 . S
O1380 C1324 1.325 . S
O1381 Li1320 1.970 . S
O1381 Li1321 1.956 . S
O1381 Li1323 1.961 . S
O1381 C1330 1.325 . S
O1382 Li1320 1.961 . S
O1382 Li1322 1.956 . S
O1382 Li1323 1.970 . S
O1382 C1352 1.325 . S
O1383 Li1321 1.961 . S
O1383 Li1322 1.970 . S
O1383 Li1323 1.956 . S
O1383 C1358 1.325 . S
H1384 C1326 0.929 . S
H1385 C1327 0.930 . S
H1386 C1328 0.930 . S
H1387 C1329 0.930 . S
H1388 C1331 0.930 . S
H1389 C1333 0.929 . S
H1390 C1334 0.930 . S
H1391 C1335 0.930 . S
H1392 C1338 0.930 . S
H1393 C1341 0.929 . S
H1394 C1346 0.929 . S
H1395 C1347 0.930 . S
H1396 C1354 0.929 . S
H1397 C1355 0.930 . S
H1398 C1356 0.930 . S
H1399 C1357 0.930 . S
H1400 C1359 0.929 . S
H1401 C1360 0.930 . S
H1402 C1361 0.930 . S
H1403 C1362 0.930 . S
H1404 C1366 0.929 . S
H1405 C1368 0.930 . S
H1406 C1374 0.929 . S
H1407 C1375 0.930 . S
Li1408 N1425 1.990 . S
Li1408 O1468 1.956 1_545 S
Li1408 O1469 1.970 . S
Li1408 O1470 1.961 . S
Li1409 N1433 1.990 . S
Li1409 O1468 1.970 . S
Li1409 O1469 1.956 1_565 S
Li1409 O1471 1.961 1_565 S
Li1410 N1455 1.990 . S
Li1410 O1468 1.961 1_545 S
Li1410 O1470 1.956 . S
Li1410 O1471 1.970 . S
Li1411 N1461 1.990 . S
Li1411 O1469 1.961 . S
Li1411 O1470 1.970 . S
Li1411 O1471 1.956 . S
C1412 C1414 1.348 . S
C1412 C1415 1.356 . S
C1412 O1468 1.325 . S
N1413 C1416 1.314 . S
N1413 C1417 1.279 . S
C1414 C1412 1.348 . S
C1414 C1416 1.353 . S
C1414 H1472 0.929 . S
C1415 C1412 1.356 . S
C1415 C1417 1.358 . S
C1415 H1473 0.930 . S
C1416 N1413 1.314 . S
C1416 C1414 1.353 . S
C1416 H1474 0.930 . S
C1417 N1413 1.279 . S
C1417 C1415 1.358 . S
C1417 H1475 0.930 . S
C1418 C1421 1.348 . S
C1418 C1422 1.356 . S
C1418 O1469 1.325 . S
C1419 N1420 1.279 . S
C1419 C1422 1.358 . S
C1419 H1476 0.930 . S
N1420 C1419 1.279 . S
N1420 C1423 1.314 . S
C1421 C1418 1.348 . S
C1421 C1423 1.353 . S
C1421 H1477 0.929 . S
C1422 C1418 1.356 . S
C1422 C1419 1.358 . S
C1422 H1478 0.930 . S
C1423 N1420 1.314 . S
C1423 C1421 1.353 . S
C1423 H1479 0.930 . S
C1424 N1425 1.314 . S
C1424 C1429 1.353 . S
C1424 H1430 0.930 . S
N1425 Li1408 1.990 . S
N1425 C1424 1.314 . S
N1425 C1427 1.279 . S
C1426 C1427 1.358 . S
C1426 C1428 1.356 . S
C1426 H1480 0.930 1_545 S
C1427 N1425 1.279 . S
C1427 C1426 1.358 . S
C1427 H1431 0.930 1_545 S
C1428 C1426 1.356 . S
C1428 C1429 1.348 . S
C1429 C1424 1.353 . S
C1429 C1428 1.348 . S
C1429 H1481 0.929 . S
H1430 C1424 0.930 . S
H1431 C1427 0.930 1_565 S
C1432 N1433 1.314 . S
C1432 C1434 1.353 . S
C1432 H1438 0.930 . S
N1433 Li1409 1.990 . S
N1433 C1432 1.314 . S
N1433 C1436 1.279 . S
C1434 C1432 1.353 . S
C1434 C1437 1.348 . S
C1434 H1482 0.929 . S
C1435 C1436 1.358 . S
C1435 C1437 1.356 . S
C1435 H1483 0.930 . S
C1436 N1433 1.279 . S
C1436 C1435 1.358 . S
C1436 H1439 0.930 . S
C1437 C1434 1.348 . S
C1437 C1435 1.356 . S
H1438 C1432 0.930 . S
H1439 C1436 0.930 . S
C1440 C1442 1.348 . S
C1440 C1443 1.356 . S
C1440 O1470 1.325 . S
N1441 C1444 1.314 . S
N1441 C1445 1.279 . S
C1442 C1440 1.348 . S
C1442 C1444 1.353 . S
C1442 H1484 0.929 . S
C1443 C1440 1.356 . S
C1443 C1445 1.358 . S
C1443 H1485 0.930 . S
C1444 N1441 1.314 . S
C1444 C1442 1.353 . S
C1444 H1486 0.930 . S
C1445 N1441 1.279 . S
C1445 C1443 1.358 . S
C1445 H1487 0.930 . S
C1446 C1447 1.348 . S
C1446 C1448 1.356 . S
C1446 O1471 1.325 . S
C1447 C1446 1.348 . S
C1447 C1449 1.353 . S
C1447 H1488 0.929 . S
C1448 C1446 1.356 . S
C1448 C1450 1.355 . S
C1448 H1489 0.926 1_545 S
C1449 C1447 1.353 . S
C1449 N1451 1.314 . S
C1449 H1490 0.930 . S
C1450 C1448 1.355 . S
C1450 N1451 1.289 . S
C1450 H1491 0.925 1_545 S
N1451 C1449 1.314 . S
N1451 C1450 1.289 . S
C1452 C1454 1.350 1_545 S
C1452 N1455 1.339 . S
C1452 H1458 0.904 1_545 S
C1453 N1455 1.279 . S
C1453 C1456 1.358 . S
C1453 H1459 0.930 . S
C1454 C1452 1.350 1_565 S
C1454 C1457 1.327 1_565 S
C1454 H1492 0.952 . S
N1455 Li1410 1.990 . S
N1455 C1452 1.339 . S
N1455 C1453 1.279 . S
C1456 C1453 1.358 . S
C1456 C1457 1.356 . S
C1456 H1493 0.930 . S
C1457 C1454 1.327 1_545 S
C1457 C1456 1.356 . S
H1458 C1452 0.904 1_565 S
H1459 C1453 0.930 . S
C1460 N1461 1.314 . S
C1460 C1462 1.353 . S
C1460 H1466 0.930 . S
N1461 Li1411 1.990 . S
N1461 C1460 1.314 . S
N1461 C1464 1.279 . S
C1462 C1460 1.353 . S
C1462 C1465 1.348 . S
C1462 H1494 0.929 . S
C1463 C1464 1.358 . S
C1463 C1465 1.356 . S
C1463 H1495 0.930 . S
C1464 N1461 1.279 . S
C1464 C1463 1.358 . S
C1464 H1467 0.930 . S
C1465 C1462 1.348 . S
C1465 C1463 1.356 . S
H1466 C1460 0.930 . S
H1467 C1464 0.930 . S
O1468 Li1408 1.956 1_565 S
O1468 Li1409 1.970 . S
O1468 Li1410 1.961 1_565 S
O1468 C1412 1.325 . S
O1469 Li1408 1.970 . S
O1469 Li1409 1.956 1_545 S
O1469 Li1411 1.961 . S
O1469 C1418 1.325 . S
O1470 Li1408 1.961 . S
O1470 Li1410 1.956 . S
O1470 Li1411 1.970 . S
O1470 C1440 1.325 . S
O1471 Li1409 1.961 1_545 S
O1471 Li1410 1.970 . S
O1471 Li1411 1.956 . S
O1471 C1446 1.325 . S
H1472 C1414 0.929 . S
H1473 C1415 0.930 . S
H1474 C1416 0.930 . S
H1475 C1417 0.930 . S
H1476 C1419 0.930 . S
H1477 C1421 0.929 . S
H1478 C1422 0.930 . S
H1479 C1423 0.930 . S
H1480 C1426 0.930 1_565 S
H1481 C1429 0.929 . S
H1482 C1434 0.929 . S
H1483 C1435 0.930 . S
H1484 C1442 0.929 . S
H1485 C1443 0.930 . S
H1486 C1444 0.930 . S
H1487 C1445 0.930 . S
H1488 C1447 0.929 . S
H1489 C1448 0.926 1_565 S
H1490 C1449 0.930 . S
H1491 C1450 0.925 1_565 S
H1492 C1454 0.952 . S
H1493 C1456 0.930 . S
H1494 C1462 0.929 . S
H1495 C1463 0.930 . S
Li1496 N1513 1.990 . S
Li1496 O1556 1.956 . S
Li1496 O1557 1.970 . S
Li1496 O1558 1.961 . S
Li1497 N1521 1.990 . S
Li1497 O1556 1.970 . S
Li1497 O1557 1.956 . S
Li1497 O1559 1.961 . S
Li1498 N1543 1.990 . S
Li1498 O1556 1.961 . S
Li1498 O1558 1.956 . S
Li1498 O1559 1.970 . S
Li1499 N1549 1.990 . S
Li1499 O1557 1.961 . S
Li1499 O1558 1.970 . S
Li1499 O1559 1.956 . S
C1500 C1502 1.348 . S
C1500 C1503 1.356 . S
C1500 O1556 1.325 . S
N1501 C1504 1.314 . S
N1501 C1505 1.279 . S
C1502 C1500 1.348 . S
C1502 C1504 1.353 . S
C1502 H1560 0.929 . S
C1503 C1500 1.356 . S
C1503 C1505 1.358 . S
C1503 H1561 0.930 . S
C1504 N1501 1.314 . S
C1504 C1502 1.353 . S
C1504 H1562 0.930 . S
C1505 N1501 1.279 . S
C1505 C1503 1.358 . S
C1505 H1563 0.930 . S
C1506 C1509 1.348 . S
C1506 C1510 1.356 . S
C1506 O1557 1.325 . S
C1507 N1508 1.279 . S
C1507 C1510 1.358 . S
C1507 H1564 0.930 . S
N1508 C1507 1.279 . S
N1508 C1511 1.314 . S
C1509 C1506 1.348 . S
C1509 C1511 1.353 . S
C1509 H1565 0.929 . S
C1510 C1506 1.356 . S
C1510 C1507 1.358 . S
C1510 H1566 0.930 . S
C1511 N1508 1.314 . S
C1511 C1509 1.353 . S
C1511 H1567 0.930 . S
C1512 N1513 1.314 . S
C1512 C1517 1.353 . S
C1512 H1518 0.930 . S
N1513 Li1496 1.990 . S
N1513 C1512 1.314 . S
N1513 C1515 1.279 . S
C1514 C1515 1.358 . S
C1514 C1516 1.356 . S
C1514 H1568 0.930 . S
C1515 N1513 1.279 . S
C1515 C1514 1.358 . S
C1515 H1519 0.930 . S
C1516 C1514 1.356 . S
C1516 C1517 1.348 . S
C1517 C1512 1.353 . S
C1517 C1516 1.348 . S
C1517 H1569 0.929 . S
H1518 C1512 0.930 . S
H1519 C1515 0.930 . S
C1520 N1521 1.314 . S
C1520 C1522 1.353 . S
C1520 H1526 0.930 . S
N1521 Li1497 1.990 . S
N1521 C1520 1.314 . S
N1521 C1524 1.279 . S
C1522 C1520 1.353 . S
C1522 C1525 1.348 . S
C1522 H1570 0.929 . S
C1523 C1524 1.358 . S
C1523 C1525 1.356 . S
C1523 H1571 0.930 . S
C1524 N1521 1.279 . S
C1524 C1523 1.358 . S
C1524 H1527 0.930 . S
C1525 C1522 1.348 . S
C1525 C1523 1.356 . S
H1526 C1520 0.930 . S
H1527 C1524 0.930 . S
C1528 C1530 1.348 . S
C1528 C1531 1.356 . S
C1528 O1558 1.325 . S
N1529 C1532 1.314 . S
N1529 C1533 1.279 . S
C1530 C1528 1.348 . S
C1530 C1532 1.353 . S
C1530 H1572 0.929 . S
C1531 C1528 1.356 . S
C1531 C1533 1.358 . S
C1531 H1573 0.930 . S
C1532 N1529 1.314 . S
C1532 C1530 1.353 . S
C1532 H1574 0.930 . S
C1533 N1529 1.279 . S
C1533 C1531 1.358 . S
C1533 H1575 0.930 . S
C1534 C1535 1.348 . S
C1534 C1536 1.356 . S
C1534 O1559 1.325 . S
C1535 C1534 1.348 . S
C1535 C1537 1.353 . S
C1535 H1576 0.929 . S
C1536 C1534 1.356 . S
C1536 C1538 1.358 . S
C1536 H1577 0.930 . S
C1537 C1535 1.353 . S
C1537 N1539 1.314 . S
C1537 H1578 0.930 . S
C1538 C1536 1.358 . S
C1538 N1539 1.279 . S
C1538 H1579 0.930 . S
N1539 C1537 1.314 . S
N1539 C1538 1.279 . S
C1540 C1542 1.353 . S
C1540 N1543 1.314 . S
C1540 H1546 0.930 . S
C1541 N1543 1.279 . S
C1541 C1544 1.358 . S
C1541 H1547 0.930 . S
C1542 C1540 1.353 . S
C1542 C1545 1.348 . S
C1542 H1580 0.929 . S
N1543 Li1498 1.990 . S
N1543 C1540 1.314 . S
N1543 C1541 1.279 . S
C1544 C1541 1.358 . S
C1544 C1545 1.356 . S
C1544 H1581 0.930 . S
C1545 C1542 1.348 . S
C1545 C1544 1.356 . S
H1546 C1540 0.930 . S
H1547 C1541 0.930 . S
C1548 N1549 1.314 . S
C1548 C1550 1.353 . S
C1548 H1554 0.930 . S
N1549 Li1499 1.990 . S
N1549 C1548 1.314 . S
N1549 C1552 1.279 . S
C1550 C1548 1.353 . S
C1550 C1553 1.348 . S
C1550 H1582 0.929 . S
C1551 C1552 1.358 . S
C1551 C1553 1.356 . S
C1551 H1583 0.930 . S
C1552 N1549 1.279 . S
C1552 C1551 1.358 . S
C1552 H1555 0.930 . S
C1553 C1550 1.348 . S
C1553 C1551 1.356 . S
H1554 C1548 0.930 . S
H1555 C1552 0.930 . S
O1556 Li1496 1.956 . S
O1556 Li1497 1.970 . S
O1556 Li1498 1.961 . S
O1556 C1500 1.325 . S
O1557 Li1496 1.970 . S
O1557 Li1497 1.956 . S
O1557 Li1499 1.961 . S
O1557 C1506 1.325 . S
O1558 Li1496 1.961 . S
O1558 Li1498 1.956 . S
O1558 Li1499 1.970 . S
O1558 C1528 1.325 . S
O1559 Li1497 1.961 . S
O1559 Li1498 1.970 . S
O1559 Li1499 1.956 . S
O1559 C1534 1.325 . S
H1560 C1502 0.929 . S
H1561 C1503 0.930 . S
H1562 C1504 0.930 . S
H1563 C1505 0.930 . S
H1564 C1507 0.930 . S
H1565 C1509 0.929 . S
H1566 C1510 0.930 . S
H1567 C1511 0.930 . S
H1568 C1514 0.930 . S
H1569 C1517 0.929 . S
H1570 C1522 0.929 . S
H1571 C1523 0.930 . S
H1572 C1530 0.929 . S
H1573 C1531 0.930 . S
H1574 C1532 0.930 . S
H1575 C1533 0.930 . S
H1576 C1535 0.929 . S
H1577 C1536 0.930 . S
H1578 C1537 0.930 . S
H1579 C1538 0.930 . S
H1580 C1542 0.929 . S
H1581 C1544 0.930 . S
H1582 C1550 0.929 . S
H1583 C1551 0.930 . S
Li1584 N1601 1.990 . S
Li1584 O1644 1.956 . S
Li1584 O1645 1.970 . S
Li1584 O1646 1.961 . S
Li1585 N1609 1.990 . S
Li1585 O1644 1.970 . S
Li1585 O1645 1.956 . S
Li1585 O1647 1.961 . S
Li1586 N1631 1.990 . S
Li1586 O1644 1.961 . S
Li1586 O1646 1.956 . S
Li1586 O1647 1.970 . S
Li1587 N1637 1.990 . S
Li1587 O1645 1.961 . S
Li1587 O1646 1.970 . S
Li1587 O1647 1.956 . S
C1588 C1590 1.348 . S
C1588 C1591 1.356 . S
C1588 O1644 1.325 . S
N1589 C1592 1.314 . S
N1589 C1593 1.279 . S
C1590 C1588 1.348 . S
C1590 C1592 1.353 . S
C1590 H1648 0.929 . S
C1591 C1588 1.356 . S
C1591 C1593 1.358 . S
C1591 H1649 0.930 . S
C1592 N1589 1.314 . S
C1592 C1590 1.353 . S
C1592 H1650 0.930 . S
C1593 N1589 1.279 . S
C1593 C1591 1.358 . S
C1593 H1651 0.930 . S
C1594 C1597 1.348 . S
C1594 C1598 1.356 . S
C1594 O1645 1.325 . S
C1595 N1596 1.279 . S
C1595 C1598 1.358 . S
C1595 H1652 0.930 . S
N1596 C1595 1.279 . S
N1596 C1599 1.314 . S
C1597 C1594 1.348 . S
C1597 C1599 1.353 . S
C1597 H1653 0.929 . S
C1598 C1594 1.356 . S
C1598 C1595 1.358 . S
C1598 H1654 0.930 . S
C1599 N1596 1.314 . S
C1599 C1597 1.353 . S
C1599 H1655 0.930 . S
C1600 N1601 1.314 . S
C1600 C1605 1.353 . S
C1600 H1606 0.930 . S
N1601 Li1584 1.990 . S
N1601 C1600 1.314 . S
N1601 C1603 1.279 . S
C1602 C1603 1.358 . S
C1602 C1604 1.356 . S
C1602 H1656 0.930 . S
C1603 N1601 1.279 . S
C1603 C1602 1.358 . S
C1603 H1607 0.930 . S
C1604 C1602 1.356 . S
C1604 C1605 1.348 . S
C1605 C1600 1.353 . S
C1605 C1604 1.348 . S
C1605 H1657 0.929 . S
H1606 C1600 0.930 . S
H1607 C1603 0.930 . S
C1608 N1609 1.314 . S
C1608 C1610 1.353 . S
C1608 H1614 0.930 . S
N1609 Li1585 1.990 . S
N1609 C1608 1.314 . S
N1609 C1612 1.279 . S
C1610 C1608 1.353 . S
C1610 C1613 1.348 . S
C1610 H1658 0.929 . S
C1611 C1612 1.358 . S
C1611 C1613 1.356 . S
C1611 H1659 0.930 . S
C1612 N1609 1.279 . S
C1612 C1611 1.358 . S
C1612 H1615 0.930 . S
C1613 C1610 1.348 . S
C1613 C1611 1.356 . S
H1614 C1608 0.930 . S
H1615 C1612 0.930 . S
C1616 C1618 1.348 . S
C1616 C1619 1.356 . S
C1616 O1646 1.325 . S
N1617 C1620 1.314 . S
N1617 C1621 1.279 . S
C1618 C1616 1.348 . S
C1618 C1620 1.353 . S
C1618 H1660 0.929 . S
C1619 C1616 1.356 . S
C1619 C1621 1.358 . S
C1619 H1661 0.930 . S
C1620 N1617 1.314 . S
C1620 C1618 1.353 . S
C1620 H1662 0.930 . S
C1621 N1617 1.279 . S
C1621 C1619 1.358 . S
C1621 H1663 0.930 . S
C1622 C1623 1.348 . S
C1622 C1624 1.356 . S
C1622 O1647 1.325 . S
C1623 C1622 1.348 . S
C1623 C1625 1.353 . S
C1623 H1664 0.929 . S
C1624 C1622 1.356 . S
C1624 C1626 1.358 . S
C1624 H1665 0.930 . S
C1625 C1623 1.353 . S
C1625 N1627 1.314 . S
C1625 H1666 0.930 . S
C1626 C1624 1.358 . S
C1626 N1627 1.279 . S
C1626 H1667 0.930 . S
N1627 C1625 1.314 . S
N1627 C1626 1.279 . S
C1628 C1630 1.353 . S
C1628 N1631 1.314 . S
C1628 H1634 0.930 . S
C1629 N1631 1.279 . S
C1629 C1632 1.358 . S
C1629 H1635 0.930 . S
C1630 C1628 1.353 . S
C1630 C1633 1.348 . S
C1630 H1668 0.929 . S
N1631 Li1586 1.990 . S
N1631 C1628 1.314 . S
N1631 C1629 1.279 . S
C1632 C1629 1.358 . S
C1632 C1633 1.356 . S
C1632 H1669 0.930 . S
C1633 C1630 1.348 . S
C1633 C1632 1.356 . S
H1634 C1628 0.930 . S
H1635 C1629 0.930 . S
C1636 N1637 1.314 . S
C1636 C1638 1.353 . S
C1636 H1642 0.930 . S
N1637 Li1587 1.990 . S
N1637 C1636 1.314 . S
N1637 C1640 1.279 . S
C1638 C1636 1.353 . S
C1638 C1641 1.348 . S
C1638 H1670 0.929 . S
C1639 C1640 1.358 . S
C1639 C1641 1.356 . S
C1639 H1671 0.930 . S
C1640 N1637 1.279 . S
C1640 C1639 1.358 . S
C1640 H1643 0.930 . S
C1641 C1638 1.348 . S
C1641 C1639 1.356 . S
H1642 C1636 0.930 . S
H1643 C1640 0.930 . S
O1644 Li1584 1.956 . S
O1644 Li1585 1.970 . S
O1644 Li1586 1.961 . S
O1644 C1588 1.325 . S
O1645 Li1584 1.970 . S
O1645 Li1585 1.956 . S
O1645 Li1587 1.961 . S
O1645 C1594 1.325 . S
O1646 Li1584 1.961 . S
O1646 Li1586 1.956 . S
O1646 Li1587 1.970 . S
O1646 C1616 1.325 . S
O1647 Li1585 1.961 . S
O1647 Li1586 1.970 . S
O1647 Li1587 1.956 . S
O1647 C1622 1.325 . S
H1648 C1590 0.929 . S
H1649 C1591 0.930 . S
H1650 C1592 0.930 . S
H1651 C1593 0.930 . S
H1652 C1595 0.930 . S
H1653 C1597 0.929 . S
H1654 C1598 0.930 . S
H1655 C1599 0.930 . S
H1656 C1602 0.930 . S
H1657 C1605 0.929 . S
H1658 C1610 0.929 . S
H1659 C1611 0.930 . S
H1660 C1618 0.929 . S
H1661 C1619 0.930 . S
H1662 C1620 0.930 . S
H1663 C1621 0.930 . S
H1664 C1623 0.929 . S
H1665 C1624 0.930 . S
H1666 C1625 0.930 . S
H1667 C1626 0.930 . S
H1668 C1630 0.929 . S
H1669 C1632 0.930 . S
H1670 C1638 0.929 . S
H1671 C1639 0.930 . S
Li1672 N1689 1.990 . S
Li1672 O1732 1.956 . S
Li1672 O1733 1.970 . S
Li1672 O1734 1.961 . S
Li1673 N1697 1.990 . S
Li1673 O1732 1.970 . S
Li1673 O1733 1.956 . S
Li1673 O1735 1.961 . S
Li1674 N1719 1.990 . S
Li1674 O1732 1.961 . S
Li1674 O1734 1.956 . S
Li1674 O1735 1.970 . S
Li1675 N1725 1.990 . S
Li1675 O1733 1.961 . S
Li1675 O1734 1.970 . S
Li1675 O1735 1.956 . S
C1676 C1678 1.348 . S
C1676 C1679 1.356 . S
C1676 O1732 1.325 . S
N1677 C1680 1.314 . S
N1677 C1681 1.279 . S
C1678 C1676 1.348 . S
C1678 C1680 1.353 . S
C1678 H1736 0.929 . S
C1679 C1676 1.356 . S
C1679 C1681 1.358 . S
C1679 H1737 0.930 . S
C1680 N1677 1.314 . S
C1680 C1678 1.353 . S
C1680 H1738 0.930 . S
C1681 N1677 1.279 . S
C1681 C1679 1.358 . S
C1681 H1739 0.930 . S
C1682 C1685 1.348 . S
C1682 C1686 1.356 . S
C1682 O1733 1.325 . S
C1683 N1684 1.279 . S
C1683 C1686 1.358 . S
C1683 H1740 0.930 . S
N1684 C1683 1.279 . S
N1684 C1687 1.314 . S
C1685 C1682 1.348 . S
C1685 C1687 1.353 . S
C1685 H1741 0.929 . S
C1686 C1682 1.356 . S
C1686 C1683 1.358 . S
C1686 H1742 0.930 . S
C1687 N1684 1.314 . S
C1687 C1685 1.353 . S
C1687 H1743 0.930 . S
C1688 N1689 1.314 . S
C1688 C1693 1.353 . S
C1688 H1694 0.930 . S
N1689 Li1672 1.990 . S
N1689 C1688 1.314 . S
N1689 C1691 1.279 . S
C1690 C1691 1.358 . S
C1690 C1692 1.356 . S
C1690 H1744 0.930 . S
C1691 N1689 1.279 . S
C1691 C1690 1.358 . S
C1691 H1695 0.930 . S
C1692 C1690 1.356 . S
C1692 C1693 1.348 . S
C1693 C1688 1.353 . S
C1693 C1692 1.348 . S
C1693 H1745 0.929 . S
H1694 C1688 0.930 . S
H1695 C1691 0.930 . S
C1696 N1697 1.314 . S
C1696 C1698 1.353 . S
C1696 H1702 0.930 . S
N1697 Li1673 1.990 . S
N1697 C1696 1.314 . S
N1697 C1700 1.279 . S
C1698 C1696 1.353 . S
C1698 C1701 1.348 . S
C1698 H1746 0.929 . S
C1699 C1700 1.358 . S
C1699 C1701 1.356 . S
C1699 H1747 0.930 . S
C1700 N1697 1.279 . S
C1700 C1699 1.358 . S
C1700 H1703 0.930 . S
C1701 C1698 1.348 . S
C1701 C1699 1.356 . S
H1702 C1696 0.930 . S
H1703 C1700 0.930 . S
C1704 C1706 1.348 1_545 S
C1704 C1707 1.356 . S
C1704 O1734 1.325 . S
N1705 C1708 1.314 . S
N1705 C1709 1.279 . S
C1706 C1704 1.348 1_565 S
C1706 C1708 1.353 . S
C1706 H1748 0.929 . S
C1707 C1704 1.356 . S
C1707 C1709 1.358 1_545 S
C1707 H1749 0.930 . S
C1708 N1705 1.314 . S
C1708 C1706 1.353 . S
C1708 H1750 0.930 . S
C1709 N1705 1.279 . S
C1709 C1707 1.358 1_565 S
C1709 H1751 0.930 . S
C1710 C1711 1.348 . S
C1710 C1712 1.356 . S
C1710 O1735 1.325 . S
C1711 C1710 1.348 . S
C1711 C1713 1.353 . S
C1711 H1752 0.929 . S
C1712 C1710 1.356 . S
C1712 C1714 1.358 . S
C1712 H1753 0.930 . S
C1713 C1711 1.353 . S
C1713 N1715 1.314 . S
C1713 H1754 0.930 . S
C1714 C1712 1.358 . S
C1714 N1715 1.279 . S
C1714 H1755 0.930 . S
N1715 C1713 1.314 . S
N1715 C1714 1.279 . S
C1716 C1718 1.353 . S
C1716 N1719 1.314 . S
C1716 H1722 0.930 . S
C1717 N1719 1.279 . S
C1717 C1720 1.358 . S
C1717 H1723 0.930 . S
C1718 C1716 1.353 . S
C1718 C1721 1.348 . S
C1718 H1756 0.929 . S
N1719 Li1674 1.990 . S
N1719 C1716 1.314 . S
N1719 C1717 1.279 . S
C1720 C1717 1.358 . S
C1720 C1721 1.356 . S
C1720 H1757 0.930 . S
C1721 C1718 1.348 . S
C1721 C1720 1.356 . S
H1722 C1716 0.930 . S
H1723 C1717 0.930 . S
C1724 N1725 1.314 1_565 S
C1724 C1726 1.353 . S
C1724 H1730 0.948 . S
N1725 Li1675 1.990 . S
N1725 C1724 1.314 1_545 S
N1725 C1728 1.279 1_545 S
C1726 C1724 1.353 . S
C1726 C1729 1.348 . S
C1726 H1758 0.929 . S
C1727 C1728 1.358 . S
C1727 C1729 1.356 . S
C1727 H1759 0.930 . S
C1728 N1725 1.279 1_565 S
C1728 C1727 1.358 . S
C1728 H1731 0.930 1_565 S
C1729 C1726 1.348 . S
C1729 C1727 1.356 . S
H1730 C1724 0.948 . S
H1731 C1728 0.930 1_545 S
O1732 Li1672 1.956 . S
O1732 Li1673 1.970 . S
O1732 Li1674 1.961 . S
O1732 C1676 1.325 . S
O1733 Li1672 1.970 . S
O1733 Li1673 1.956 . S
O1733 Li1675 1.961 . S
O1733 C1682 1.325 . S
O1734 Li1672 1.961 . S
O1734 Li1674 1.956 . S
O1734 Li1675 1.970 . S
O1734 C1704 1.325 . S
O1735 Li1673 1.961 . S
O1735 Li1674 1.970 . S
O1735 Li1675 1.956 . S
O1735 C1710 1.325 . S
H1736 C1678 0.929 . S
H1737 C1679 0.930 . S
H1738 C1680 0.930 . S
H1739 C1681 0.930 . S
H1740 C1683 0.930 . S
H1741 C1685 0.929 . S
H1742 C1686 0.930 . S
H1743 C1687 0.930 . S
H1744 C1690 0.930 . S
H1745 C1693 0.929 . S
H1746 C1698 0.929 . S
H1747 C1699 0.930 . S
H1748 C1706 0.929 . S
H1749 C1707 0.930 . S
H1750 C1708 0.930 . S
H1751 C1709 0.930 . S
H1752 C1711 0.929 . S
H1753 C1712 0.930 . S
H1754 C1713 0.930 . S
H1755 C1714 0.930 . S
H1756 C1718 0.929 . S
H1757 C1720 0.930 . S
H1758 C1726 0.929 . S
H1759 C1727 0.930 . S
Li1760 N1777 1.990 . S
Li1760 O1820 1.956 . S
Li1760 O1821 1.970 . S
Li1760 O1822 1.961 . S
Li1761 N1785 1.990 . S
Li1761 O1820 1.970 . S
Li1761 O1821 1.956 . S
Li1761 O1823 1.961 1_554 S
Li1762 N1807 1.990 . S
Li1762 O1820 1.961 1_556 S
Li1762 O1822 1.956 1_556 S
Li1762 O1823 1.970 . S
Li1763 N1813 1.990 . S
Li1763 O1821 1.961 . S
Li1763 O1822 1.970 . S
Li1763 O1823 1.956 1_554 S
C1764 C1766 1.348 . S
C1764 C1767 1.356 . S
C1764 O1820 1.325 . S
N1765 C1768 1.314 . S
N1765 C1769 1.279 . S
C1766 C1764 1.348 . S
C1766 C1768 1.353 . S
C1766 H1824 0.929 . S
C1767 C1764 1.356 . S
C1767 C1769 1.358 . S
C1767 H1825 0.930 . S
C1768 N1765 1.314 . S
C1768 C1766 1.353 . S
C1768 H1826 0.930 . S
C1769 N1765 1.279 . S
C1769 C1767 1.358 . S
C1769 H1827 0.930 . S
C1770 C1773 1.348 . S
C1770 C1774 1.356 . S
C1770 O1821 1.325 . S
C1771 N1772 1.279 . S
C1771 C1774 1.358 . S
C1771 H1828 0.930 . S
N1772 C1771 1.279 . S
N1772 C1775 1.314 . S
C1773 C1770 1.348 . S
C1773 C1775 1.353 . S
C1773 H1829 0.929 . S
C1774 C1770 1.356 . S
C1774 C1771 1.358 . S
C1774 H1830 0.930 . S
C1775 N1772 1.314 . S
C1775 C1773 1.353 . S
C1775 H1831 0.930 . S
C1776 N1777 1.314 . S
C1776 C1781 1.353 . S
C1776 H1782 0.930 . S
N1777 Li1760 1.990 . S
N1777 C1776 1.314 . S
N1777 C1779 1.279 . S
C1778 C1779 1.358 . S
C1778 C1780 1.356 . S
C1778 H1832 0.930 . S
C1779 N1777 1.279 . S
C1779 C1778 1.358 . S
C1779 H1783 0.930 . S
C1780 C1778 1.356 . S
C1780 C1781 1.348 . S
C1781 C1776 1.353 . S
C1781 C1780 1.348 . S
C1781 H1833 0.929 . S
H1782 C1776 0.930 . S
H1783 C1779 0.930 . S
C1784 N1785 1.314 1_556 S
C1784 C1786 1.353 . S
C1784 H1790 0.930 . S
N1785 Li1761 1.990 . S
N1785 C1784 1.314 1_554 S
N1785 C1788 1.279 . S
C1786 C1784 1.353 . S
C1786 C1789 1.348 1_556 S
C1786 H1834 0.929 . S
C1787 C1788 1.358 . S
C1787 C1789 1.356 . S
C1787 H1835 0.930 . S
C1788 N1785 1.279 . S
C1788 C1787 1.358 . S
C1788 H1791 0.930 . S
C1789 C1786 1.348 1_554 S
C1789 C1787 1.356 . S
H1790 C1784 0.930 . S
H1791 C1788 0.930 . S
C1792 C1794 1.348 . S
C1792 C1795 1.356 . S
C1792 O1822 1.325 . S
N1793 C1796 1.314 . S
N1793 C1797 1.279 . S
C1794 C1792 1.348 . S
C1794 C1796 1.353 . S
C1794 H1836 0.929 1_554 S
C1795 C1792 1.356 . S
C1795 C1797 1.358 . S
C1795 H1837 0.930 . S
C1796 N1793 1.314 . S
C1796 C1794 1.353 . S
C1796 H1838 0.930 1_554 S
C1797 N1793 1.279 . S
C1797 C1795 1.358 . S
C1797 H1839 0.930 . S
C1798 C1799 1.348 . S
C1798 C1800 1.356 . S
C1798 O1823 1.325 . S
C1799 C1798 1.348 . S
C1799 C1801 1.353 . S
C1799 H1840 0.929 . S
C1800 C1798 1.356 . S
C1800 C1802 1.358 . S
C1800 H1841 0.930 . S
C1801 C1799 1.353 . S
C1801 N1803 1.314 . S
C1801 H1842 0.930 . S
C1802 C1800 1.358 . S
C1802 N1803 1.279 . S
C1802 H1843 0.930 . S
N1803 C1801 1.314 . S
N1803 C1802 1.279 . S
C1804 C1806 1.353 . S
C1804 N1807 1.314 . S
C1804 H1810 0.930 . S
C1805 N1807 1.279 . S
C1805 C1808 1.358 . S
C1805 H1811 0.930 . S
C1806 C1804 1.353 . S
C1806 C1809 1.348 . S
C1806 H1844 0.929 . S
N1807 Li1762 1.990 . S
N1807 C1804 1.314 . S
N1807 C1805 1.279 . S
C1808 C1805 1.358 . S
C1808 C1809 1.356 . S
C1808 H1845 0.930 . S
C1809 C1806 1.348 . S
C1809 C1808 1.356 . S
H1810 C1804 0.930 . S
H1811 C1805 0.930 . S
C1812 N1813 1.314 . S
C1812 C1814 1.353 . S
C1812 H1818 0.930 . S
N1813 Li1763 1.990 . S
N1813 C1812 1.314 . S
N1813 C1816 1.279 1_554 S
C1814 C1812 1.353 . S
C1814 C1817 1.385 . S
C1814 H1846 0.929 . S
C1815 C1816 1.358 . S
C1815 C1817 1.317 1_556 S
C1815 H1847 0.930 . S
C1816 N1813 1.279 1_556 S
C1816 C1815 1.358 . S
C1816 H1819 0.930 . S
C1817 C1814 1.385 . S
C1817 C1815 1.317 1_554 S
H1818 C1812 0.930 . S
H1819 C1816 0.930 . S
O1820 Li1760 1.956 . S
O1820 Li1761 1.970 . S
O1820 Li1762 1.961 1_554 S
O1820 C1764 1.325 . S
O1821 Li1760 1.970 . S
O1821 Li1761 1.956 . S
O1821 Li1763 1.961 . S
O1821 C1770 1.325 . S
O1822 Li1760 1.961 . S
O1822 Li1762 1.956 1_554 S
O1822 Li1763 1.970 . S
O1822 C1792 1.325 . S
O1823 Li1761 1.961 1_556 S
O1823 Li1762 1.970 . S
O1823 Li1763 1.956 1_556 S
O1823 C1798 1.325 . S
H1824 C1766 0.929 . S
H1825 C1767 0.930 . S
H1826 C1768 0.930 . S
H1827 C1769 0.930 . S
H1828 C1771 0.930 . S
H1829 C1773 0.929 . S
H1830 C1774 0.930 . S
H1831 C1775 0.930 . S
H1832 C1778 0.930 . S
H1833 C1781 0.929 . S
H1834 C1786 0.929 . S
H1835 C1787 0.930 . S
H1836 C1794 0.929 1_556 S
H1837 C1795 0.930 . S
H1838 C1796 0.930 1_556 S
H1839 C1797 0.930 . S
H1840 C1799 0.929 . S
H1841 C1800 0.930 . S
H1842 C1801 0.930 . S
H1843 C1802 0.930 . S
H1844 C1806 0.929 . S
H1845 C1808 0.930 . S
H1846 C1814 0.929 . S
H1847 C1815 0.930 . S
Li1848 N1865 1.990 . S
Li1848 O1908 1.956 . S
Li1848 O1909 1.970 . S
Li1848 O1910 1.961 . S
Li1849 N1873 1.990 . S
Li1849 O1908 1.970 . S
Li1849 O1909 1.956 . S
Li1849 O1911 1.961 . S
Li1850 N1895 1.990 . S
Li1850 O1908 1.961 . S
Li1850 O1910 1.956 . S
Li1850 O1911 1.970 . S
Li1851 N1901 1.990 . S
Li1851 O1909 1.961 . S
Li1851 O1910 1.970 . S
Li1851 O1911 1.956 . S
C1852 C1854 1.348 . S
C1852 C1855 1.356 . S
C1852 O1908 1.325 . S
N1853 C1856 1.314 . S
N1853 C1857 1.279 . S
C1854 C1852 1.348 . S
C1854 C1856 1.353 . S
C1854 H1912 0.929 . S
C1855 C1852 1.356 . S
C1855 C1857 1.358 . S
C1855 H1913 0.930 . S
C1856 N1853 1.314 . S
C1856 C1854 1.353 . S
C1856 H1914 0.930 . S
C1857 N1853 1.279 . S
C1857 C1855 1.358 . S
C1857 H1915 0.930 . S
C1858 C1861 1.348 . S
C1858 C1862 1.356 . S
C1858 O1909 1.325 . S
C1859 N1860 1.279 . S
C1859 C1862 1.358 . S
C1859 H1916 0.930 . S
N1860 C1859 1.279 . S
N1860 C1863 1.314 . S
C1861 C1858 1.348 . S
C1861 C1863 1.353 . S
C1861 H1917 0.929 . S
C1862 C1858 1.356 . S
C1862 C1859 1.358 . S
C1862 H1918 0.930 . S
C1863 N1860 1.314 . S
C1863 C1861 1.353 . S
C1863 H1919 0.930 . S
C1864 N1865 1.314 . S
C1864 C1869 1.353 . S
C1864 H1870 0.930 . S
N1865 Li1848 1.990 . S
N1865 C1864 1.314 . S
N1865 C1867 1.279 . S
C1866 C1867 1.358 . S
C1866 C1868 1.356 . S
C1866 H1920 0.930 . S
C1867 N1865 1.279 . S
C1867 C1866 1.358 . S
C1867 H1871 0.930 . S
C1868 C1866 1.356 . S
C1868 C1869 1.348 . S
C1869 C1864 1.353 . S
C1869 C1868 1.348 . S
C1869 H1921 0.929 . S
H1870 C1864 0.930 . S
H1871 C1867 0.930 . S
C1872 N1873 1.314 . S
C1872 C1874 1.353 . S
C1872 H1878 0.930 . S
N1873 Li1849 1.990 . S
N1873 C1872 1.314 . S
N1873 C1876 1.279 . S
C1874 C1872 1.353 . S
C1874 C1877 1.348 . S
C1874 H1922 0.929 . S
C1875 C1876 1.358 . S
C1875 C1877 1.356 . S
C1875 H1923 0.930 . S
C1876 N1873 1.279 . S
C1876 C1875 1.358 . S
C1876 H1879 0.930 . S
C1877 C1874 1.348 . S
C1877 C1875 1.356 . S
H1878 C1872 0.930 . S
H1879 C1876 0.930 . S
C1880 C1882 1.348 . S
C1880 C1883 1.356 . S
C1880 O1910 1.325 . S
N1881 C1884 1.314 . S
N1881 C1885 1.279 . S
C1882 C1880 1.348 . S
C1882 C1884 1.353 . S
C1882 H1924 0.929 . S
C1883 C1880 1.356 . S
C1883 C1885 1.358 . S
C1883 H1925 0.930 . S
C1884 N1881 1.314 . S
C1884 C1882 1.353 . S
C1884 H1926 0.930 . S
C1885 N1881 1.279 . S
C1885 C1883 1.358 . S
C1885 H1927 0.930 . S
C1886 C1887 1.348 . S
C1886 C1888 1.356 . S
C1886 O1911 1.325 . S
C1887 C1886 1.348 . S
C1887 C1889 1.353 . S
C1887 H1928 0.929 . S
C1888 C1886 1.356 . S
C1888 C1890 1.358 . S
C1888 H1929 0.930 . S
C1889 C1887 1.353 . S
C1889 N1891 1.314 . S
C1889 H1930 0.930 . S
C1890 C1888 1.358 . S
C1890 N1891 1.279 . S
C1890 H1931 0.930 . S
N1891 C1889 1.314 . S
N1891 C1890 1.279 . S
C1892 C1894 1.353 . S
C1892 N1895 1.314 . S
C1892 H1898 0.930 . S
C1893 N1895 1.279 . S
C1893 C1896 1.358 . S
C1893 H1899 0.930 . S
C1894 C1892 1.353 . S
C1894 C1897 1.348 . S
C1894 H1932 0.929 . S
N1895 Li1850 1.990 . S
N1895 C1892 1.314 . S
N1895 C1893 1.279 . S
C1896 C1893 1.358 . S
C1896 C1897 1.356 . S
C1896 H1933 0.930 . S
C1897 C1894 1.348 . S
C1897 C1896 1.356 . S
H1898 C1892 0.930 . S
H1899 C1893 0.930 . S
C1900 N1901 1.314 . S
C1900 C1902 1.353 . S
C1900 H1906 0.930 . S
N1901 Li1851 1.990 . S
N1901 C1900 1.314 . S
N1901 C1904 1.279 . S
C1902 C1900 1.353 . S
C1902 C1905 1.348 . S
C1902 H1934 0.929 . S
C1903 C1904 1.358 . S
C1903 C1905 1.356 . S
C1903 H1935 0.930 . S
C1904 N1901 1.279 . S
C1904 C1903 1.358 . S
C1904 H1907 0.930 . S
C1905 C1902 1.348 . S
C1905 C1903 1.356 . S
H1906 C1900 0.930 . S
H1907 C1904 0.930 . S
O1908 Li1848 1.956 . S
O1908 Li1849 1.970 . S
O1908 Li1850 1.961 . S
O1908 C1852 1.325 . S
O1909 Li1848 1.970 . S
O1909 Li1849 1.956 . S
O1909 Li1851 1.961 . S
O1909 C1858 1.325 . S
O1910 Li1848 1.961 . S
O1910 Li1850 1.956 . S
O1910 Li1851 1.970 . S
O1910 C1880 1.325 . S
O1911 Li1849 1.961 . S
O1911 Li1850 1.970 . S
O1911 Li1851 1.956 . S
O1911 C1886 1.325 . S
H1912 C1854 0.929 . S
H1913 C1855 0.930 . S
H1914 C1856 0.930 . S
H1915 C1857 0.930 . S
H1916 C1859 0.930 . S
H1917 C1861 0.929 . S
H1918 C1862 0.930 . S
H1919 C1863 0.930 . S
H1920 C1866 0.930 . S
H1921 C1869 0.929 . S
H1922 C1874 0.929 . S
H1923 C1875 0.930 . S
H1924 C1882 0.929 . S
H1925 C1883 0.930 . S
H1926 C1884 0.930 . S
H1927 C1885 0.930 . S
H1928 C1887 0.929 . S
H1929 C1888 0.930 . S
H1930 C1889 0.930 . S
H1931 C1890 0.930 . S
H1932 C1894 0.929 . S
H1933 C1896 0.930 . S
H1934 C1902 0.929 . S
H1935 C1903 0.930 . S
Li1936 N1953 1.990 . S
Li1936 O1996 1.956 . S
Li1936 O1997 1.970 . S
Li1936 O1998 1.961 . S
Li1937 N1961 1.990 . S
Li1937 O1996 1.970 . S
Li1937 O1997 1.956 . S
Li1937 O1999 1.961 . S
Li1938 N1983 1.990 . S
Li1938 O1996 1.961 . S
Li1938 O1998 1.956 . S
Li1938 O1999 1.970 . S
Li1939 N1989 1.990 . S
Li1939 O1997 1.961 . S
Li1939 O1998 1.970 . S
Li1939 O1999 1.956 . S
C1940 C1942 1.348 . S
C1940 C1943 1.356 . S
C1940 O1996 1.325 . S
N1941 C1944 1.314 . S
N1941 C1945 1.279 . S
C1942 C1940 1.348 . S
C1942 C1944 1.353 . S
C1942 H2000 0.929 . S
C1943 C1940 1.356 . S
C1943 C1945 1.358 . S
C1943 H2001 0.930 . S
C1944 N1941 1.314 . S
C1944 C1942 1.353 . S
C1944 H2002 0.930 . S
C1945 N1941 1.279 . S
C1945 C1943 1.358 . S
C1945 H2003 0.930 . S
C1946 C1949 1.348 . S
C1946 C1950 1.356 . S
C1946 O1997 1.325 . S
C1947 N1948 1.279 . S
C1947 C1950 1.358 . S
C1947 H2004 0.930 . S
N1948 C1947 1.279 . S
N1948 C1951 1.314 . S
C1949 C1946 1.348 . S
C1949 C1951 1.353 . S
C1949 H2005 0.929 . S
C1950 C1946 1.356 . S
C1950 C1947 1.358 . S
C1950 H2006 0.930 . S
C1951 N1948 1.314 . S
C1951 C1949 1.353 . S
C1951 H2007 0.930 . S
C1952 N1953 1.314 . S
C1952 C1957 1.353 . S
C1952 H1958 0.930 . S
N1953 Li1936 1.990 . S
N1953 C1952 1.314 . S
N1953 C1955 1.279 . S
C1954 C1955 1.358 . S
C1954 C1956 1.356 . S
C1954 H2008 0.930 . S
C1955 N1953 1.279 . S
C1955 C1954 1.358 . S
C1955 H1959 0.930 . S
C1956 C1954 1.356 . S
C1956 C1957 1.348 . S
C1957 C1952 1.353 . S
C1957 C1956 1.348 . S
C1957 H2009 0.929 . S
H1958 C1952 0.930 . S
H1959 C1955 0.930 . S
C1960 N1961 1.314 . S
C1960 C1962 1.353 . S
C1960 H1966 0.930 . S
N1961 Li1937 1.990 . S
N1961 C1960 1.314 . S
N1961 C1964 1.279 . S
C1962 C1960 1.353 . S
C1962 C1965 1.348 . S
C1962 H2010 0.929 . S
C1963 C1964 1.358 . S
C1963 C1965 1.356 . S
C1963 H2011 0.930 . S
C1964 N1961 1.279 . S
C1964 C1963 1.358 . S
C1964 H1967 0.930 . S
C1965 C1962 1.348 . S
C1965 C1963 1.356 . S
H1966 C1960 0.930 . S
H1967 C1964 0.930 . S
C1968 C1970 1.348 . S
C1968 C1971 1.356 . S
C1968 O1998 1.325 . S
N1969 C1972 1.314 . S
N1969 C1973 1.279 . S
C1970 C1968 1.348 . S
C1970 C1972 1.353 . S
C1970 H2012 0.929 . S
C1971 C1968 1.356 . S
C1971 C1973 1.358 . S
C1971 H2013 0.930 . S
C1972 N1969 1.314 . S
C1972 C1970 1.353 . S
C1972 H2014 0.930 . S
C1973 N1969 1.279 . S
C1973 C1971 1.358 . S
C1973 H2015 0.930 . S
C1974 C1975 1.348 . S
C1974 C1976 1.356 . S
C1974 O1999 1.325 . S
C1975 C1974 1.348 . S
C1975 C1977 1.353 . S
C1975 H2016 0.929 . S
C1976 C1974 1.356 . S
C1976 C1978 1.358 . S
C1976 H2017 0.930 . S
C1977 C1975 1.353 . S
C1977 N1979 1.314 . S
C1977 H2018 0.930 . S
C1978 C1976 1.358 . S
C1978 N1979 1.279 . S
C1978 H2019 0.930 . S
N1979 C1977 1.314 . S
N1979 C1978 1.279 . S
C1980 C1982 1.353 . S
C1980 N1983 1.314 . S
C1980 H1986 0.930 . S
C1981 N1983 1.279 . S
C1981 C1984 1.358 . S
C1981 H1987 0.930 . S
C1982 C1980 1.353 . S
C1982 C1985 1.348 . S
C1982 H2020 0.929 . S
N1983 Li1938 1.990 . S
N1983 C1980 1.314 . S
N1983 C1981 1.279 . S
C1984 C1981 1.358 . S
C1984 C1985 1.356 . S
C1984 H2021 0.930 . S
C1985 C1982 1.348 . S
C1985 C1984 1.356 . S
H1986 C1980 0.930 . S
H1987 C1981 0.930 . S
C1988 N1989 1.314 . S
C1988 C1990 1.353 . S
C1988 H1994 0.930 . S
N1989 Li1939 1.990 . S
N1989 C1988 1.314 . S
N1989 C1992 1.279 . S
C1990 C1988 1.353 . S
C1990 C1993 1.348 . S
C1990 H2022 0.929 . S
C1991 C1992 1.358 . S
C1991 C1993 1.356 . S
C1991 H2023 0.930 . S
C1992 N1989 1.279 . S
C1992 C1991 1.358 . S
C1992 H1995 0.930 . S
C1993 C1990 1.348 . S
C1993 C1991 1.356 . S
H1994 C1988 0.930 . S
H1995 C1992 0.930 . S
O1996 Li1936 1.956 . S
O1996 Li1937 1.970 . S
O1996 Li1938 1.961 . S
O1996 C1940 1.325 . S
O1997 Li1936 1.970 . S
O1997 Li1937 1.956 . S
O1997 Li1939 1.961 . S
O1997 C1946 1.325 . S
O1998 Li1936 1.961 . S
O1998 Li1938 1.956 . S
O1998 Li1939 1.970 . S
O1998 C1968 1.325 . S
O1999 Li1937 1.961 . S
O1999 Li1938 1.970 . S
O1999 Li1939 1.956 . S
O1999 C1974 1.325 . S
H2000 C1942 0.929 . S
H2001 C1943 0.930 . S
H2002 C1944 0.930 . S
H2003 C1945 0.930 . S
H2004 C1947 0.930 . S
H2005 C1949 0.929 . S
H2006 C1950 0.930 . S
H2007 C1951 0.930 . S
H2008 C1954 0.930 . S
H2009 C1957 0.929 . S
H2010 C1962 0.929 . S
H2011 C1963 0.930 . S
H2012 C1970 0.929 . S
H2013 C1971 0.930 . S
H2014 C1972 0.930 . S
H2015 C1973 0.930 . S
H2016 C1975 0.929 . S
H2017 C1976 0.930 . S
H2018 C1977 0.930 . S
H2019 C1978 0.930 . S
H2020 C1982 0.929 . S
H2021 C1984 0.930 . S
H2022 C1990 0.929 . S
H2023 C1991 0.930 . S
Li2024 N2041 1.990 . S
Li2024 O2084 1.956 . S
Li2024 O2085 1.970 . S
Li2024 O2086 1.961 . S
Li2025 N2049 1.990 . S
Li2025 O2084 1.970 . S
Li2025 O2085 1.956 . S
Li2025 O2087 1.961 . S
Li2026 N2071 1.990 . S
Li2026 O2084 1.961 . S
Li2026 O2086 1.956 . S
Li2026 O2087 1.970 . S
Li2027 N2077 1.990 . S
Li2027 O2085 1.961 . S
Li2027 O2086 1.970 . S
Li2027 O2087 1.956 . S
C2028 C2030 1.348 . S
C2028 C2031 1.356 . S
C2028 O2084 1.325 . S
N2029 C2032 1.314 . S
N2029 C2033 1.279 . S
C2030 C2028 1.348 . S
C2030 C2032 1.353 . S
C2030 H2088 0.929 . S
C2031 C2028 1.356 . S
C2031 C2033 1.358 . S
C2031 H2089 0.930 . S
C2032 N2029 1.314 . S
C2032 C2030 1.353 . S
C2032 H2090 0.930 . S
C2033 N2029 1.279 . S
C2033 C2031 1.358 . S
C2033 H2091 0.930 . S
C2034 C2037 1.348 . S
C2034 C2038 1.356 . S
C2034 O2085 1.325 . S
C2035 N2036 1.279 . S
C2035 C2038 1.358 . S
C2035 H2092 0.930 . S
N2036 C2035 1.279 . S
N2036 C2039 1.314 . S
C2037 C2034 1.348 . S
C2037 C2039 1.353 . S
C2037 H2093 0.929 . S
C2038 C2034 1.356 . S
C2038 C2035 1.358 . S
C2038 H2094 0.930 . S
C2039 N2036 1.314 . S
C2039 C2037 1.353 . S
C2039 H2095 0.930 . S
C2040 N2041 1.314 . S
C2040 C2045 1.353 . S
C2040 H2046 0.930 . S
N2041 Li2024 1.990 . S
N2041 C2040 1.314 . S
N2041 C2043 1.279 . S
C2042 C2043 1.358 . S
C2042 C2044 1.356 . S
C2042 H2096 0.930 . S
C2043 N2041 1.279 . S
C2043 C2042 1.358 . S
C2043 H2047 0.930 . S
C2044 C2042 1.356 . S
C2044 C2045 1.348 . S
C2045 C2040 1.353 . S
C2045 C2044 1.348 . S
C2045 H2097 0.929 . S
H2046 C2040 0.930 . S
H2047 C2043 0.930 . S
C2048 N2049 1.314 . S
C2048 C2050 1.353 . S
C2048 H2054 0.930 . S
N2049 Li2025 1.990 . S
N2049 C2048 1.314 . S
N2049 C2052 1.279 . S
C2050 C2048 1.353 . S
C2050 C2053 1.348 . S
C2050 H2098 0.929 . S
C2051 C2052 1.358 . S
C2051 C2053 1.356 . S
C2051 H2099 0.930 . S
C2052 N2049 1.279 . S
C2052 C2051 1.358 . S
C2052 H2055 0.930 . S
C2053 C2050 1.348 . S
C2053 C2051 1.356 . S
H2054 C2048 0.930 . S
H2055 C2052 0.930 . S
C2056 C2058 1.348 . S
C2056 C2059 1.356 . S
C2056 O2086 1.325 . S
N2057 C2060 1.314 . S
N2057 C2061 1.279 . S
C2058 C2056 1.348 . S
C2058 C2060 1.353 . S
C2058 H2100 0.929 . S
C2059 C2056 1.356 . S
C2059 C2061 1.358 . S
C2059 H2101 0.930 . S
C2060 N2057 1.314 . S
C2060 C2058 1.353 . S
C2060 H2102 0.930 . S
C2061 N2057 1.279 . S
C2061 C2059 1.358 . S
C2061 H2103 0.930 . S
C2062 C2063 1.348 . S
C2062 C2064 1.356 . S
C2062 O2087 1.325 . S
C2063 C2062 1.348 . S
C2063 C2065 1.353 . S
C2063 H2104 0.929 . S
C2064 C2062 1.356 . S
C2064 C2066 1.358 . S
C2064 H2105 0.930 . S
C2065 C2063 1.353 . S
C2065 N2067 1.314 . S
C2065 H2106 0.930 . S
C2066 C2064 1.358 . S
C2066 N2067 1.279 . S
C2066 H2107 0.930 . S
N2067 C2065 1.314 . S
N2067 C2066 1.279 . S
C2068 C2070 1.353 . S
C2068 N2071 1.314 . S
C2068 H2074 0.930 . S
C2069 N2071 1.279 . S
C2069 C2072 1.358 . S
C2069 H2075 0.930 . S
C2070 C2068 1.353 . S
C2070 C2073 1.348 . S
C2070 H2108 0.929 . S
N2071 Li2026 1.990 . S
N2071 C2068 1.314 . S
N2071 C2069 1.279 . S
C2072 C2069 1.358 . S
C2072 C2073 1.356 . S
C2072 H2109 0.930 . S
C2073 C2070 1.348 . S
C2073 C2072 1.356 . S
H2074 C2068 0.930 . S
H2075 C2069 0.930 . S
C2076 N2077 1.314 . S
C2076 C2078 1.353 . S
C2076 H2082 0.930 . S
N2077 Li2027 1.990 . S
N2077 C2076 1.314 . S
N2077 C2080 1.279 . S
C2078 C2076 1.353 . S
C2078 C2081 1.348 . S
C2078 H2110 0.929 . S
C2079 C2080 1.358 . S
C2079 C2081 1.356 . S
C2079 H2111 0.930 . S
C2080 N2077 1.279 . S
C2080 C2079 1.358 . S
C2080 H2083 0.930 . S
C2081 C2078 1.348 . S
C2081 C2079 1.356 . S
H2082 C2076 0.930 . S
H2083 C2080 0.930 . S
O2084 Li2024 1.956 . S
O2084 Li2025 1.970 . S
O2084 Li2026 1.961 . S
O2084 C2028 1.325 . S
O2085 Li2024 1.970 . S
O2085 Li2025 1.956 . S
O2085 Li2027 1.961 . S
O2085 C2034 1.325 . S
O2086 Li2024 1.961 . S
O2086 Li2026 1.956 . S
O2086 Li2027 1.970 . S
O2086 C2056 1.325 . S
O2087 Li2025 1.961 . S
O2087 Li2026 1.970 . S
O2087 Li2027 1.956 . S
O2087 C2062 1.325 . S
H2088 C2030 0.929 . S
H2089 C2031 0.930 . S
H2090 C2032 0.930 . S
H2091 C2033 0.930 . S
H2092 C2035 0.930 . S
H2093 C2037 0.929 . S
H2094 C2038 0.930 . S
H2095 C2039 0.930 . S
H2096 C2042 0.930 . S
H2097 C2045 0.929 . S
H2098 C2050 0.929 . S
H2099 C2051 0.930 . S
H2100 C2058 0.929 . S
H2101 C2059 0.930 . S
H2102 C2060 0.930 . S
H2103 C2061 0.930 . S
H2104 C2063 0.929 . S
H2105 C2064 0.930 . S
H2106 C2065 0.930 . S
H2107 C2066 0.930 . S
H2108 C2070 0.929 . S
H2109 C2072 0.930 . S
H2110 C2078 0.929 . S
H2111 C2079 0.930 . S
Tb2112 N2141 2.617 . S
Tb2112 N2147 2.572 . S
Tb2112 O2156 2.465 . S
Tb2112 O2157 2.387 . S
Tb2112 O2159 2.428 . S
Tb2112 O2160 2.308 . S
Tb2112 O2164 2.345 1_545 S
Tb2112 O2167 2.393 . S
Tb2112 C2176 2.802 . S
C2113 N2114 1.379 . S
C2113 C2116 1.416 . S
C2113 C2120 1.424 1_556 S
N2114 C2113 1.379 . S
N2114 C2117 1.334 . S
N2114 Tb2123 2.617 1_566 S
C2115 C2117 1.390 . S
C2115 C2118 1.339 . S
C2115 H2135 0.930 . S
C2116 C2113 1.416 . S
C2116 C2118 1.416 . S
C2116 C2122 1.448 . S
C2117 N2114 1.334 . S
C2117 C2115 1.390 . S
C2117 H2128 0.930 . S
C2118 C2115 1.339 . S
C2118 C2116 1.416 . S
C2118 H2139 0.930 . S
C2119 C2120 1.413 . S
C2119 C2121 1.427 1_554 S
C2119 C2125 1.416 . S
C2120 C2113 1.424 1_554 S
C2120 C2119 1.413 . S
C2120 N2124 1.361 . S
C2121 C2119 1.427 1_556 S
C2121 C2122 1.328 . S
C2121 H2136 0.942 . S
C2122 C2116 1.448 . S
C2122 C2121 1.328 . S
C2122 H2137 0.930 . S
Tb2123 N2114 2.617 1_544 S
Tb2123 N2124 2.572 1_545 S
Tb2123 O2158 2.349 1_655 S
Tb2123 O2161 2.393 1_654 S
Tb2123 O2162 2.465 . S
Tb2123 O2163 2.387 1_645 S
Tb2123 O2165 2.428 1_554 S
Tb2123 O2166 2.308 1_655 S
Tb2123 C2187 2.802 . S
N2124 C2120 1.361 . S
N2124 Tb2123 2.572 1_565 S
N2124 C2126 1.340 . S
C2125 C2119 1.416 . S
C2125 C2127 1.332 . S
C2125 H2133 0.931 . S
C2126 N2124 1.340 . S
C2126 C2127 1.407 . S
C2126 H2132 0.930 . S
C2127 C2125 1.332 . S
C2127 C2126 1.407 . S
C2127 H2129 0.929 . S
H2128 C2117 0.930 . S
H2129 C2127 0.929 . S
H2130 C2145 0.930 . S
H2131 C2152 0.929 1_556 S
H2132 C2126 0.930 . S
H2133 C2125 0.931 . S
H2134 C2148 0.935 . S
H2135 C2115 0.930 . S
H2136 C2121 0.942 . S
H2137 C2122 0.930 . S
H2138 C2143 0.930 . S
H2139 C2118 0.930 . S
H2140 C2151 0.931 . S
N2141 Tb2112 2.617 . S
N2141 C2142 1.379 . S
N2141 C2145 1.334 . S
C2142 N2141 1.379 . S
C2142 C2144 1.416 . S
C2142 C2150 1.424 . S
C2143 H2138 0.930 . S
C2143 C2145 1.390 . S
C2143 C2146 1.339 . S
C2144 C2142 1.416 . S
C2144 C2146 1.416 . S
C2144 C2177 1.448 . S
C2145 H2130 0.930 . S
C2145 N2141 1.334 . S
C2145 C2143 1.390 . S
C2146 C2143 1.339 . S
C2146 C2144 1.416 . S
C2146 H2153 0.930 . S
N2147 Tb2112 2.572 . S
N2147 C2148 1.340 . S
N2147 C2150 1.361 . S
C2148 H2134 0.935 . S
C2148 N2147 1.340 . S
C2148 C2152 1.407 . S
C2149 C2150 1.413 . S
C2149 C2151 1.416 . S
C2149 C2178 1.427 . S
C2150 C2142 1.424 . S
C2150 N2147 1.361 . S
C2150 C2149 1.413 . S
C2151 H2140 0.931 . S
C2151 C2149 1.416 . S
C2151 C2152 1.332 . S
C2152 H2131 0.929 1_554 S
C2152 C2148 1.407 . S
C2152 C2151 1.332 . S
H2153 C2146 0.930 . S
H2154 C2177 0.930 . S
H2155 C2178 0.929 . S
O2156 Tb2112 2.465 . S
O2156 C2176 1.264 . S
O2157 Tb2112 2.387 . S
O2157 C2168 1.264 . S
O2158 Tb2123 2.349 1_455 S
O2158 C2168 1.243 . S
O2159 Tb2112 2.428 . S
O2159 C2176 1.256 . S
O2160 Tb2112 2.308 . S
O2160 C2175 1.266 1_554 S
O2161 Tb2123 2.393 1_456 S
O2161 C2175 1.248 . S
O2162 Tb2123 2.465 . S
O2162 C2187 1.264 . S
O2163 Tb2123 2.387 1_465 S
O2163 C2179 1.264 . S
O2164 Tb2112 2.345 1_565 S
O2164 C2179 1.245 . S
O2165 Tb2123 2.428 1_556 S
O2165 C2187 1.256 1_556 S
O2166 Tb2123 2.308 1_455 S
O2166 C2186 1.266 . S
O2167 Tb2112 2.393 . S
O2167 C2186 1.248 . S
C2168 O2157 1.264 . S
C2168 O2158 1.243 . S
C2169 C2172 1.399 . S
C2169 C2174 1.383 . S
C2169 C2176 1.496 . S
C2170 C2171 1.404 . S
C2170 C2174 1.359 1_565 S
C2171 C2170 1.404 . S
C2171 C2173 1.369 1_565 S
C2171 H2188 0.947 . S
C2172 C2169 1.399 . S
C2172 C2173 1.392 . S
C2172 H2189 0.929 . S
C2173 C2171 1.369 1_545 S
C2173 C2172 1.392 . S
C2173 H2190 0.929 . S
C2174 C2169 1.383 . S
C2174 C2170 1.359 1_545 S
C2174 H2191 0.931 . S
C2175 O2160 1.266 1_556 S
C2175 O2161 1.248 . S
C2176 Tb2112 2.802 . S
C2176 O2156 1.264 . S
C2176 O2159 1.256 . S
C2176 C2169 1.496 . S
C2177 C2144 1.448 . S
C2177 H2154 0.930 . S
C2177 C2178 1.328 . S
C2178 C2149 1.427 . S
C2178 H2155 0.929 . S
C2178 C2177 1.328 . S
C2179 O2163 1.264 . S
C2179 O2164 1.245 . S
C2180 C2183 1.399 . S
C2180 C2184 1.383 1_556 S
C2180 C2187 1.496 1_556 S
C2181 C2182 1.399 1_554 S
C2181 C2184 1.389 . S
C2182 C2181 1.399 1_556 S
C2182 C2185 1.380 . S
C2182 H2192 0.929 . S
C2183 C2180 1.399 . S
C2183 C2185 1.392 . S
C2183 H2193 0.929 . S
C2184 C2180 1.383 1_554 S
C2184 C2181 1.389 . S
C2184 H2194 0.931 . S
C2185 C2182 1.380 . S
C2185 C2183 1.392 . S
C2185 H2195 0.929 . S
C2186 O2166 1.266 . S
C2186 O2167 1.248 . S
C2187 Tb2123 2.802 . S
C2187 O2162 1.264 . S
C2187 O2165 1.256 1_554 S
C2187 C2180 1.496 1_554 S
H2188 C2171 0.947 . S
H2189 C2172 0.929 . S
H2190 C2173 0.929 . S
H2191 C2174 0.931 . S
H2192 C2182 0.929 . S
H2193 C2183 0.929 . S
H2194 C2184 0.931 . S
H2195 C2185 0.929 . S
Tb2196 N2225 2.617 . S
Tb2196 N2231 2.572 . S
Tb2196 O2240 2.465 . S
Tb2196 O2241 2.387 . S
Tb2196 O2243 2.428 . S
Tb2196 O2244 2.308 . S
Tb2196 O2248 2.349 . S
Tb2196 O2251 2.393 . S
Tb2196 C2260 2.802 . S
C2197 N2198 1.379 . S
C2197 C2200 1.416 . S
C2197 C2204 1.424 . S
N2198 C2197 1.379 . S
N2198 C2201 1.334 . S
N2198 Tb2207 2.617 . S
C2199 C2201 1.390 . S
C2199 C2202 1.339 . S
C2199 H2219 0.930 . S
C2200 C2197 1.416 . S
C2200 C2202 1.416 . S
C2200 C2206 1.448 . S
C2201 N2198 1.334 . S
C2201 C2199 1.390 . S
C2201 H2212 0.930 . S
C2202 C2199 1.339 . S
C2202 C2200 1.416 . S
C2202 H2223 0.930 . S
C2203 C2204 1.413 . S
C2203 C2205 1.427 . S
C2203 C2209 1.416 . S
C2204 C2197 1.424 . S
C2204 C2203 1.413 . S
C2204 N2208 1.361 . S
C2205 C2203 1.427 . S
C2205 C2206 1.328 . S
C2205 H2220 0.929 . S
C2206 C2200 1.448 . S
C2206 C2205 1.328 . S
C2206 H2221 0.930 . S
Tb2207 N2198 2.617 . S
Tb2207 N2208 2.572 . S
Tb2207 O2242 2.349 . S
Tb2207 O2245 2.393 . S
Tb2207 O2246 2.465 . S
Tb2207 O2247 2.387 . S
Tb2207 O2249 2.428 . S
Tb2207 O2250 2.308 . S
Tb2207 C2271 2.802 . S
N2208 C2204 1.361 . S
N2208 Tb2207 2.572 . S
N2208 C2210 1.340 . S
C2209 C2203 1.416 . S
C2209 C2211 1.332 . S
C2209 H2217 0.931 . S
C2210 N2208 1.340 . S
C2210 C2211 1.407 . S
C2210 H2216 0.930 . S
C2211 C2209 1.332 . S
C2211 C2210 1.407 . S
C2211 H2213 0.929 . S
H2212 C2201 0.930 . S
H2213 C2211 0.929 . S
H2214 C2229 0.930 . S
H2215 C2236 0.929 . S
H2216 C2210 0.930 . S
H2217 C2209 0.931 . S
H2218 C2232 0.930 . S
H2219 C2199 0.930 . S
H2220 C2205 0.929 . S
H2221 C2206 0.930 . S
H2222 C2227 0.930 . S
H2223 C2202 0.930 . S
H2224 C2235 0.931 . S
N2225 Tb2196 2.617 . S
N2225 C2226 1.379 . S
N2225 C2229 1.334 . S
C2226 N2225 1.379 . S
C2226 C2228 1.416 . S
C2226 C2234 1.424 . S
C2227 H2222 0.930 . S
C2227 C2229 1.390 . S
C2227 C2230 1.339 . S
C2228 C2226 1.416 . S
C2228 C2230 1.416 . S
C2228 C2261 1.448 . S
C2229 H2214 0.930 . S
C2229 N2225 1.334 . S
C2229 C2227 1.390 . S
C2230 C2227 1.339 . S
C2230 C2228 1.416 . S
C2230 H2237 0.930 . S
N2231 Tb2196 2.572 . S
N2231 C2232 1.340 . S
N2231 C2234 1.361 . S
C2232 H2218 0.930 . S
C2232 N2231 1.340 . S
C2232 C2236 1.407 . S
C2233 C2234 1.413 . S
C2233 C2235 1.416 . S
C2233 C2262 1.427 . S
C2234 C2226 1.424 . S
C2234 N2231 1.361 . S
C2234 C2233 1.413 . S
C2235 H2224 0.931 . S
C2235 C2233 1.416 . S
C2235 C2236 1.332 . S
C2236 H2215 0.929 . S
C2236 C2232 1.407 . S
C2236 C2235 1.332 . S
H2237 C2230 0.930 . S
H2238 C2261 0.930 . S
H2239 C2262 0.929 . S
O2240 Tb2196 2.465 . S
O2240 C2260 1.264 . S
O2241 Tb2196 2.387 . S
O2241 C2252 1.264 . S
O2242 Tb2207 2.349 . S
O2242 C2252 1.243 . S
O2243 Tb2196 2.428 . S
O2243 C2260 1.256 . S
O2244 Tb2196 2.308 . S
O2244 C2259 1.266 . S
O2245 Tb2207 2.393 . S
O2245 C2259 1.248 . S
O2246 Tb2207 2.465 . S
O2246 C2271 1.264 . S
O2247 Tb2207 2.387 . S
O2247 C2263 1.264 . S
O2248 Tb2196 2.349 . S
O2248 C2263 1.243 . S
O2249 Tb2207 2.428 . S
O2249 C2271 1.256 . S
O2250 Tb2207 2.308 . S
O2250 C2270 1.266 . S
O2251 Tb2196 2.393 . S
O2251 C2270 1.248 . S
C2252 O2241 1.264 . S
C2252 O2242 1.243 . S
C2253 C2256 1.399 . S
C2253 C2258 1.383 . S
C2253 C2260 1.496 . S
C2254 C2255 1.399 . S
C2254 C2258 1.389 . S
C2255 C2254 1.399 . S
C2255 C2257 1.380 . S
C2255 H2272 0.929 . S
C2256 C2253 1.399 . S
C2256 C2257 1.392 . S
C2256 H2273 0.929 . S
C2257 C2255 1.380 . S
C2257 C2256 1.392 . S
C2257 H2274 0.929 . S
C2258 C2253 1.383 . S
C2258 C2254 1.389 . S
C2258 H2275 0.931 . S
C2259 O2244 1.266 . S
C2259 O2245 1.248 . S
C2260 Tb2196 2.802 . S
C2260 O2240 1.264 . S
C2260 O2243 1.256 . S
C2260 C2253 1.496 . S
C2261 C2228 1.448 . S
C2261 H2238 0.930 . S
C2261 C2262 1.328 . S
C2262 C2233 1.427 . S
C2262 H2239 0.929 . S
C2262 C2261 1.328 . S
C2263 O2247 1.264 . S
C2263 O2248 1.243 . S
C2264 C2267 1.399 . S
C2264 C2268 1.383 . S
C2264 C2271 1.496 . S
C2265 C2266 1.399 . S
C2265 C2268 1.389 . S
C2266 C2265 1.399 . S
C2266 C2269 1.380 . S
C2266 H2276 0.929 . S
C2267 C2264 1.399 . S
C2267 C2269 1.392 . S
C2267 H2277 0.929 . S
C2268 C2264 1.383 . S
C2268 C2265 1.389 . S
C2268 H2278 0.931 . S
C2269 C2266 1.380 . S
C2269 C2267 1.392 . S
C2269 H2279 0.929 . S
C2270 O2250 1.266 . S
C2270 O2251 1.248 . S
C2271 Tb2207 2.802 . S
C2271 O2246 1.264 . S
C2271 O2249 1.256 . S
C2271 C2264 1.496 . S
H2272 C2255 0.929 . S
H2273 C2256 0.929 . S
H2274 C2257 0.929 . S
H2275 C2258 0.931 . S
H2276 C2266 0.929 . S
H2277 C2267 0.929 . S
H2278 C2268 0.931 . S
H2279 C2269 0.929 . S
Tb2280 N2309 2.617 1_545 S
Tb2280 N2315 2.572 1_545 S
Tb2280 O2324 2.465 . S
Tb2280 O2325 2.387 1_545 S
Tb2280 O2327 2.428 . S
Tb2280 O2328 2.308 . S
Tb2280 O2332 2.349 . S
Tb2280 O2335 2.393 . S
Tb2280 C2344 2.802 . S
C2281 N2282 1.379 . S
C2281 C2284 1.416 . S
C2281 C2288 1.424 . S
N2282 C2281 1.379 . S
N2282 C2285 1.334 . S
N2282 Tb2291 2.617 . S
C2283 C2285 1.390 . S
C2283 C2286 1.339 . S
C2283 H2303 0.930 . S
C2284 C2281 1.416 . S
C2284 C2286 1.416 . S
C2284 C2290 1.448 . S
C2285 N2282 1.334 . S
C2285 C2283 1.390 . S
C2285 H2296 0.930 . S
C2286 C2283 1.339 . S
C2286 C2284 1.416 . S
C2286 H2307 0.930 . S
C2287 C2288 1.413 . S
C2287 C2289 1.427 . S
C2287 C2293 1.416 . S
C2288 C2281 1.424 . S
C2288 C2287 1.413 . S
C2288 N2292 1.361 . S
C2289 C2287 1.427 . S
C2289 C2290 1.328 . S
C2289 H2304 0.929 . S
C2290 C2284 1.448 . S
C2290 C2289 1.328 . S
C2290 H2305 0.930 . S
Tb2291 N2282 2.617 . S
Tb2291 N2292 2.572 . S
Tb2291 O2326 2.349 1_545 S
Tb2291 O2329 2.393 . S
Tb2291 O2330 2.465 . S
Tb2291 O2331 2.387 . S
Tb2291 O2333 2.428 . S
Tb2291 O2334 2.308 . S
Tb2291 C2355 2.802 . S
N2292 C2288 1.361 . S
N2292 Tb2291 2.572 . S
N2292 C2294 1.340 . S
C2293 C2287 1.416 . S
C2293 C2295 1.332 . S
C2293 H2301 0.931 . S
C2294 N2292 1.340 . S
C2294 C2295 1.407 . S
C2294 H2300 0.930 . S
C2295 C2293 1.332 . S
C2295 C2294 1.407 . S
C2295 H2297 0.929 . S
H2296 C2285 0.930 . S
H2297 C2295 0.929 . S
H2298 C2313 0.970 . S
H2299 C2320 0.929 . S
H2300 C2294 0.930 . S
H2301 C2293 0.931 . S
H2302 C2316 0.930 . S
H2303 C2283 0.930 . S
H2304 C2289 0.929 . S
H2305 C2290 0.930 . S
H2306 C2311 0.930 . S
H2307 C2286 0.930 . S
H2308 C2319 0.931 . S
N2309 Tb2280 2.617 1_565 S
N2309 C2310 1.379 . S
N2309 C2313 1.338 1_565 S
C2310 N2309 1.379 . S
C2310 C2312 1.416 . S
C2310 C2318 1.424 . S
C2311 H2306 0.930 . S
C2311 C2313 1.350 1_565 S
C2311 C2314 1.339 . S
C2312 C2310 1.416 . S
C2312 C2314 1.416 . S
C2312 C2345 1.448 . S
C2313 H2298 0.970 . S
C2313 N2309 1.338 1_545 S
C2313 C2311 1.350 1_545 S
C2314 C2311 1.339 . S
C2314 C2312 1.416 . S
C2314 H2321 0.930 . S
N2315 Tb2280 2.572 1_565 S
N2315 C2316 1.340 . S
N2315 C2318 1.361 . S
C2316 H2302 0.930 . S
C2316 N2315 1.340 . S
C2316 C2320 1.407 . S
C2317 C2318 1.413 . S
C2317 C2319 1.416 . S
C2317 C2346 1.427 . S
C2318 C2310 1.424 . S
C2318 N2315 1.361 . S
C2318 C2317 1.413 . S
C2319 H2308 0.931 . S
C2319 C2317 1.416 . S
C2319 C2320 1.332 . S
C2320 H2299 0.929 . S
C2320 C2316 1.407 . S
C2320 C2319 1.332 . S
H2321 C2314 0.930 . S
H2322 C2345 0.930 . S
H2323 C2346 0.929 . S
O2324 Tb2280 2.465 . S
O2324 C2344 1.264 . S
O2325 Tb2280 2.387 1_565 S
O2325 C2336 1.264 . S
O2326 Tb2291 2.349 1_565 S
O2326 C2336 1.243 . S
O2327 Tb2280 2.428 . S
O2327 C2344 1.256 . S
O2328 Tb2280 2.308 . S
O2328 C2343 1.266 . S
O2329 Tb2291 2.393 . S
O2329 C2343 1.248 . S
O2330 Tb2291 2.465 . S
O2330 C2355 1.264 . S
O2331 Tb2291 2.387 . S
O2331 C2347 1.264 . S
O2332 Tb2280 2.349 . S
O2332 C2347 1.243 . S
O2333 Tb2291 2.428 . S
O2333 C2355 1.256 . S
O2334 Tb2291 2.308 . S
O2334 C2354 1.266 . S
O2335 Tb2280 2.393 . S
O2335 C2354 1.248 . S
C2336 O2325 1.264 . S
C2336 O2326 1.243 . S
C2337 C2340 1.399 . S
C2337 C2342 1.383 . S
C2337 C2344 1.496 . S
C2338 C2339 1.399 . S
C2338 C2342 1.389 . S
C2339 C2338 1.399 . S
C2339 C2341 1.380 . S
C2339 H2356 0.929 . S
C2340 C2337 1.399 . S
C2340 C2341 1.392 . S
C2340 H2357 0.929 . S
C2341 C2339 1.380 . S
C2341 C2340 1.392 . S
C2341 H2358 0.929 . S
C2342 C2337 1.383 . S
C2342 C2338 1.389 . S
C2342 H2359 0.931 . S
C2343 O2328 1.266 . S
C2343 O2329 1.248 . S
C2344 Tb2280 2.802 . S
C2344 O2324 1.264 . S
C2344 O2327 1.256 . S
C2344 C2337 1.496 . S
C2345 C2312 1.448 . S
C2345 H2322 0.930 . S
C2345 C2346 1.328 . S
C2346 C2317 1.427 . S
C2346 H2323 0.929 . S
C2346 C2345 1.328 . S
C2347 O2331 1.264 . S
C2347 O2332 1.243 . S
C2348 C2351 1.399 . S
C2348 C2352 1.383 . S
C2348 C2355 1.496 1_565 S
C2349 C2350 1.399 . S
C2349 C2352 1.389 . S
C2350 C2349 1.399 . S
C2350 C2353 1.380 . S
C2350 H2360 0.929 . S
C2351 C2348 1.399 . S
C2351 C2353 1.392 . S
C2351 H2361 0.929 . S
C2352 C2348 1.383 . S
C2352 C2349 1.389 . S
C2352 H2362 0.931 . S
C2353 C2350 1.380 . S
C2353 C2351 1.392 . S
C2353 H2363 0.929 . S
C2354 O2334 1.266 . S
C2354 O2335 1.248 . S
C2355 Tb2291 2.802 . S
C2355 O2330 1.264 . S
C2355 O2333 1.256 . S
C2355 C2348 1.496 1_545 S
H2356 C2339 0.929 . S
H2357 C2340 0.929 . S
H2358 C2341 0.929 . S
H2359 C2342 0.931 . S
H2360 C2350 0.929 . S
H2361 C2351 0.929 . S
H2362 C2352 0.931 . S
H2363 C2353 0.929 . S
Tb2364 N2393 2.617 . S
Tb2364 N2399 2.572 . S
Tb2364 O2408 2.465 . S
Tb2364 O2409 2.387 . S
Tb2364 O2411 2.428 . S
Tb2364 O2412 2.308 . S
Tb2364 O2416 2.349 . S
Tb2364 O2419 2.393 . S
Tb2364 C2428 2.802 . S
C2365 N2366 1.379 . S
C2365 C2368 1.416 . S
C2365 C2372 1.424 . S
N2366 C2365 1.379 . S
N2366 C2369 1.334 . S
N2366 Tb2375 2.617 . S
C2367 C2369 1.390 . S
C2367 C2370 1.339 . S
C2367 H2387 0.930 . S
C2368 C2365 1.416 . S
C2368 C2370 1.416 . S
C2368 C2374 1.448 . S
C2369 N2366 1.334 . S
C2369 C2367 1.390 . S
C2369 H2380 0.930 . S
C2370 C2367 1.339 . S
C2370 C2368 1.416 . S
C2370 H2391 0.930 . S
C2371 C2372 1.413 . S
C2371 C2373 1.427 . S
C2371 C2377 1.416 . S
C2372 C2365 1.424 . S
C2372 C2371 1.413 . S
C2372 N2376 1.361 . S
C2373 C2371 1.427 . S
C2373 C2374 1.328 . S
C2373 H2388 0.929 . S
C2374 C2368 1.448 . S
C2374 C2373 1.328 . S
C2374 H2389 0.930 . S
Tb2375 N2366 2.617 . S
Tb2375 N2376 2.572 . S
Tb2375 O2410 2.349 . S
Tb2375 O2413 2.393 . S
Tb2375 O2414 2.465 . S
Tb2375 O2415 2.387 . S
Tb2375 O2417 2.428 . S
Tb2375 O2418 2.308 . S
Tb2375 C2439 2.802 . S
N2376 C2372 1.361 . S
N2376 Tb2375 2.572 . S
N2376 C2378 1.340 . S
C2377 C2371 1.416 . S
C2377 C2379 1.332 . S
C2377 H2385 0.931 . S
C2378 N2376 1.340 . S
C2378 C2379 1.407 . S
C2378 H2384 0.930 . S
C2379 C2377 1.332 . S
C2379 C2378 1.407 . S
C2379 H2381 0.929 . S
H2380 C2369 0.930 . S
H2381 C2379 0.929 . S
H2382 C2397 0.930 . S
H2383 C2404 0.929 . S
H2384 C2378 0.930 . S
H2385 C2377 0.931 . S
H2386 C2400 0.930 . S
H2387 C2367 0.930 . S
H2388 C2373 0.929 . S
H2389 C2374 0.930 . S
H2390 C2395 0.930 . S
H2391 C2370 0.930 . S
H2392 C2403 0.931 . S
N2393 Tb2364 2.617 . S
N2393 C2394 1.379 . S
N2393 C2397 1.334 . S
C2394 N2393 1.379 . S
C2394 C2396 1.416 . S
C2394 C2402 1.424 . S
C2395 H2390 0.930 . S
C2395 C2397 1.390 . S
C2395 C2398 1.339 . S
C2396 C2394 1.416 . S
C2396 C2398 1.416 . S
C2396 C2429 1.448 . S
C2397 H2382 0.930 . S
C2397 N2393 1.334 . S
C2397 C2395 1.390 . S
C2398 C2395 1.339 . S
C2398 C2396 1.416 . S
C2398 H2405 0.930 . S
N2399 Tb2364 2.572 . S
N2399 C2400 1.340 . S
N2399 C2402 1.361 . S
C2400 H2386 0.930 . S
C2400 N2399 1.340 . S
C2400 C2404 1.407 . S
C2401 C2402 1.413 . S
C2401 C2403 1.416 . S
C2401 C2430 1.427 . S
C2402 C2394 1.424 . S
C2402 N2399 1.361 . S
C2402 C2401 1.413 . S
C2403 H2392 0.931 . S
C2403 C2401 1.416 . S
C2403 C2404 1.332 . S
C2404 H2383 0.929 . S
C2404 C2400 1.407 . S
C2404 C2403 1.332 . S
H2405 C2398 0.930 . S
H2406 C2429 0.930 . S
H2407 C2430 0.929 . S
O2408 Tb2364 2.465 . S
O2408 C2428 1.264 . S
O2409 Tb2364 2.387 . S
O2409 C2420 1.264 . S
O2410 Tb2375 2.349 . S
O2410 C2420 1.243 . S
O2411 Tb2364 2.428 . S
O2411 C2428 1.256 . S
O2412 Tb2364 2.308 . S
O2412 C2427 1.266 . S
O2413 Tb2375 2.393 . S
O2413 C2427 1.248 . S
O2414 Tb2375 2.465 . S
O2414 C2439 1.264 . S
O2415 Tb2375 2.387 . S
O2415 C2431 1.264 . S
O2416 Tb2364 2.349 . S
O2416 C2431 1.243 . S
O2417 Tb2375 2.428 . S
O2417 C2439 1.256 . S
O2418 Tb2375 2.308 . S
O2418 C2438 1.266 . S
O2419 Tb2364 2.393 . S
O2419 C2438 1.248 . S
C2420 O2409 1.264 . S
C2420 O2410 1.243 . S
C2421 C2424 1.399 . S
C2421 C2426 1.383 . S
C2421 C2428 1.496 . S
C2422 C2423 1.399 . S
C2422 C2426 1.389 . S
C2423 C2422 1.399 . S
C2423 C2425 1.380 . S
C2423 H2440 0.929 . S
C2424 C2421 1.399 . S
C2424 C2425 1.392 . S
C2424 H2441 0.929 . S
C2425 C2423 1.380 . S
C2425 C2424 1.392 . S
C2425 H2442 0.929 . S
C2426 C2421 1.383 . S
C2426 C2422 1.389 . S
C2426 H2443 0.931 . S
C2427 O2412 1.266 . S
C2427 O2413 1.248 . S
C2428 Tb2364 2.802 . S
C2428 O2408 1.264 . S
C2428 O2411 1.256 . S
C2428 C2421 1.496 . S
C2429 C2396 1.448 . S
C2429 H2406 0.930 . S
C2429 C2430 1.328 . S
C2430 C2401 1.427 . S
C2430 H2407 0.929 . S
C2430 C2429 1.328 . S
C2431 O2415 1.264 . S
C2431 O2416 1.243 . S
C2432 C2435 1.399 . S
C2432 C2436 1.383 . S
C2432 C2439 1.496 . S
C2433 C2434 1.399 . S
C2433 C2436 1.389 . S
C2434 C2433 1.399 . S
C2434 C2437 1.380 . S
C2434 H2444 0.929 . S
C2435 C2432 1.399 . S
C2435 C2437 1.392 . S
C2435 H2445 0.929 . S
C2436 C2432 1.383 . S
C2436 C2433 1.389 . S
C2436 H2446 0.931 . S
C2437 C2434 1.380 . S
C2437 C2435 1.392 . S
C2437 H2447 0.929 . S
C2438 O2418 1.266 . S
C2438 O2419 1.248 . S
C2439 Tb2375 2.802 . S
C2439 O2414 1.264 . S
C2439 O2417 1.256 . S
C2439 C2432 1.496 . S
H2440 C2423 0.929 . S
H2441 C2424 0.929 . S
H2442 C2425 0.929 . S
H2443 C2426 0.931 . S
H2444 C2434 0.929 . S
H2445 C2435 0.929 . S
H2446 C2436 0.931 . S
H2447 C2437 0.929 . S
Tb2448 N2477 2.617 . S
Tb2448 N2483 2.572 . S
Tb2448 O2492 2.465 . S
Tb2448 O2493 2.387 1_565 S
Tb2448 O2495 2.428 . S
Tb2448 O2496 2.308 1_565 S
Tb2448 O2500 2.349 1_565 S
Tb2448 O2503 2.393 1_565 S
Tb2448 C2512 2.802 . S
C2449 N2450 1.379 1_455 S
C2449 C2452 1.416 1_455 S
C2449 C2456 1.424 . S
N2450 C2449 1.379 1_655 S
N2450 C2453 1.334 . S
N2450 Tb2459 2.617 1_655 S
C2451 C2453 1.390 . S
C2451 C2454 1.339 . S
C2451 H2471 0.930 . S
C2452 C2449 1.416 1_655 S
C2452 C2454 1.416 . S
C2452 C2458 1.448 1_655 S
C2453 N2450 1.334 . S
C2453 C2451 1.390 . S
C2453 H2464 0.930 . S
C2454 C2451 1.339 . S
C2454 C2452 1.416 . S
C2454 H2475 0.930 . S
C2455 C2456 1.413 . S
C2455 C2457 1.427 . S
C2455 C2461 1.416 . S
C2456 C2449 1.424 . S
C2456 C2455 1.413 . S
C2456 N2460 1.361 . S
C2457 C2455 1.427 . S
C2457 C2458 1.328 . S
C2457 H2472 0.929 . S
C2458 C2452 1.448 1_455 S
C2458 C2457 1.328 . S
C2458 H2473 0.930 1_455 S
Tb2459 N2450 2.617 1_455 S
Tb2459 N2460 2.572 . S
Tb2459 O2494 2.349 . S
Tb2459 O2497 2.393 1_455 S
Tb2459 O2498 2.465 . S
Tb2459 O2499 2.387 . S
Tb2459 O2501 2.428 1_455 S
Tb2459 O2502 2.308 . S
Tb2459 C2523 2.802 . S
N2460 C2456 1.361 . S
N2460 Tb2459 2.572 . S
N2460 C2462 1.340 . S
C2461 C2455 1.416 . S
C2461 C2463 1.332 . S
C2461 H2469 0.931 . S
C2462 N2460 1.340 . S
C2462 C2463 1.407 . S
C2462 H2468 0.930 . S
C2463 C2461 1.332 . S
C2463 C2462 1.407 . S
C2463 H2465 0.929 . S
H2464 C2453 0.930 . S
H2465 C2463 0.929 . S
H2466 C2481 0.930 1_545 S
H2467 C2488 0.929 . S
H2468 C2462 0.930 . S
H2469 C2461 0.931 . S
H2470 C2484 0.927 1_655 S
H2471 C2451 0.930 . S
H2472 C2457 0.929 . S
H2473 C2458 0.930 1_655 S
H2474 C2479 0.930 . S
H2475 C2454 0.930 . S
H2476 C2487 0.931 . S
N2477 Tb2448 2.617 . S
N2477 C2478 1.379 . S
N2477 C2481 1.334 . S
C2478 N2477 1.379 . S
C2478 C2480 1.416 . S
C2478 C2486 1.424 . S
C2479 H2474 0.930 . S
C2479 C2481 1.390 . S
C2479 C2482 1.339 . S
C2480 C2478 1.416 . S
C2480 C2482 1.416 . S
C2480 C2513 1.448 . S
C2481 H2466 0.930 1_565 S
C2481 N2477 1.334 . S
C2481 C2479 1.390 . S
C2482 C2479 1.339 . S
C2482 C2480 1.416 . S
C2482 H2489 0.930 . S
N2483 Tb2448 2.572 . S
N2483 C2484 1.344 . S
N2483 C2486 1.361 . S
C2484 H2470 0.927 1_455 S
C2484 N2483 1.344 . S
C2484 C2488 1.406 1_455 S
C2485 C2486 1.413 . S
C2485 C2487 1.416 1_455 S
C2485 C2514 1.427 . S
C2486 C2478 1.424 . S
C2486 N2483 1.361 . S
C2486 C2485 1.413 . S
C2487 H2476 0.931 . S
C2487 C2485 1.416 1_655 S
C2487 C2488 1.332 . S
C2488 H2467 0.929 . S
C2488 C2484 1.406 1_655 S
C2488 C2487 1.332 . S
H2489 C2482 0.930 . S
H2490 C2513 0.930 . S
H2491 C2514 0.929 . S
O2492 Tb2448 2.465 . S
O2492 C2512 1.264 . S
O2493 Tb2448 2.387 1_545 S
O2493 C2504 1.264 . S
O2494 Tb2459 2.349 . S
O2494 C2504 1.243 . S
O2495 Tb2448 2.428 . S
O2495 C2512 1.256 . S
O2496 Tb2448 2.308 1_545 S
O2496 C2511 1.266 1_455 S
O2497 Tb2459 2.393 1_655 S
O2497 C2511 1.248 . S
O2498 Tb2459 2.465 . S
O2498 C2523 1.264 . S
O2499 Tb2459 2.387 . S
O2499 C2515 1.264 . S
O2500 Tb2448 2.349 1_545 S
O2500 C2515 1.243 . S
O2501 Tb2459 2.428 1_655 S
O2501 C2523 1.256 1_655 S
O2502 Tb2459 2.308 . S
O2502 C2522 1.266 . S
O2503 Tb2448 2.393 1_545 S
O2503 C2522 1.248 . S
C2504 O2493 1.264 . S
C2504 O2494 1.243 . S
C2505 C2508 1.399 . S
C2505 C2510 1.383 . S
C2505 C2512 1.496 . S
C2506 C2507 1.399 . S
C2506 C2510 1.389 . S
C2507 C2506 1.399 . S
C2507 C2509 1.380 . S
C2507 H2524 0.929 . S
C2508 C2505 1.399 . S
C2508 C2509 1.392 . S
C2508 H2525 0.929 . S
C2509 C2507 1.380 . S
C2509 C2508 1.392 . S
C2509 H2526 0.929 . S
C2510 C2505 1.383 . S
C2510 C2506 1.389 . S
C2510 H2527 0.931 . S
C2511 O2496 1.266 1_655 S
C2511 O2497 1.248 . S
C2512 Tb2448 2.802 . S
C2512 O2492 1.264 . S
C2512 O2495 1.256 . S
C2512 C2505 1.496 . S
C2513 C2480 1.448 . S
C2513 H2490 0.930 . S
C2513 C2514 1.328 . S
C2514 C2485 1.427 . S
C2514 H2491 0.929 . S
C2514 C2513 1.328 . S
C2515 O2499 1.264 . S
C2515 O2500 1.243 . S
C2516 C2519 1.399 1_455 S
C2516 C2520 1.383 . S
C2516 C2523 1.496 . S
C2517 C2518 1.399 1_455 S
C2517 C2520 1.389 . S
C2518 C2517 1.399 1_655 S
C2518 C2521 1.380 . S
C2518 H2528 0.929 . S
C2519 C2516 1.399 1_655 S
C2519 C2521 1.392 . S
C2519 H2529 0.929 . S
C2520 C2516 1.383 . S
C2520 C2517 1.389 . S
C2520 H2530 0.931 . S
C2521 C2518 1.380 . S
C2521 C2519 1.392 . S
C2521 H2531 0.929 . S
C2522 O2502 1.266 . S
C2522 O2503 1.248 . S
C2523 Tb2459 2.802 . S
C2523 O2498 1.264 . S
C2523 O2501 1.256 1_455 S
C2523 C2516 1.496 . S
H2524 C2507 0.929 . S
H2525 C2508 0.929 . S
H2526 C2509 0.929 . S
H2527 C2510 0.931 . S
H2528 C2518 0.929 . S
H2529 C2519 0.929 . S
H2530 C2520 0.931 . S
H2531 C2521 0.929 . S
Tb2532 N2561 2.617 . S
Tb2532 N2567 2.572 . S
Tb2532 O2576 2.465 . S
Tb2532 O2577 2.387 . S
Tb2532 O2579 2.428 . S
Tb2532 O2580 2.308 . S
Tb2532 O2584 2.349 . S
Tb2532 O2587 2.393 . S
Tb2532 C2596 2.802 . S
C2533 N2534 1.379 . S
C2533 C2536 1.416 . S
C2533 C2540 1.424 . S
N2534 C2533 1.379 . S
N2534 C2537 1.334 . S
N2534 Tb2543 2.617 . S
C2535 C2537 1.390 . S
C2535 C2538 1.339 . S
C2535 H2555 0.930 . S
C2536 C2533 1.416 . S
C2536 C2538 1.416 . S
C2536 C2542 1.448 . S
C2537 N2534 1.334 . S
C2537 C2535 1.390 . S
C2537 H2548 0.930 . S
C2538 C2535 1.339 . S
C2538 C2536 1.416 . S
C2538 H2559 0.930 . S
C2539 C2540 1.413 . S
C2539 C2541 1.427 . S
C2539 C2545 1.416 . S
C2540 C2533 1.424 . S
C2540 C2539 1.413 . S
C2540 N2544 1.361 . S
C2541 C2539 1.427 . S
C2541 C2542 1.328 . S
C2541 H2556 0.929 . S
C2542 C2536 1.448 . S
C2542 C2541 1.328 . S
C2542 H2557 0.930 . S
Tb2543 N2534 2.617 . S
Tb2543 N2544 2.572 . S
Tb2543 O2578 2.349 . S
Tb2543 O2581 2.393 . S
Tb2543 O2582 2.465 . S
Tb2543 O2583 2.387 . S
Tb2543 O2585 2.428 . S
Tb2543 O2586 2.308 . S
Tb2543 C2607 2.802 . S
N2544 C2540 1.361 . S
N2544 Tb2543 2.572 . S
N2544 C2546 1.340 . S
C2545 C2539 1.416 . S
C2545 C2547 1.332 . S
C2545 H2553 0.931 . S
C2546 N2544 1.340 . S
C2546 C2547 1.407 . S
C2546 H2552 0.930 . S
C2547 C2545 1.332 . S
C2547 C2546 1.407 . S
C2547 H2549 0.929 . S
H2548 C2537 0.930 . S
H2549 C2547 0.929 . S
H2550 C2565 0.930 . S
H2551 C2572 0.929 . S
H2552 C2546 0.930 . S
H2553 C2545 0.931 . S
H2554 C2568 0.930 . S
H2555 C2535 0.930 . S
H2556 C2541 0.929 . S
H2557 C2542 0.930 . S
H2558 C2563 0.930 . S
H2559 C2538 0.930 . S
H2560 C2571 0.931 . S
N2561 Tb2532 2.617 . S
N2561 C2562 1.379 . S
N2561 C2565 1.334 . S
C2562 N2561 1.379 . S
C2562 C2564 1.416 . S
C2562 C2570 1.424 . S
C2563 H2558 0.930 . S
C2563 C2565 1.390 . S
C2563 C2566 1.339 . S
C2564 C2562 1.416 . S
C2564 C2566 1.416 . S
C2564 C2597 1.448 . S
C2565 H2550 0.930 . S
C2565 N2561 1.334 . S
C2565 C2563 1.390 . S
C2566 C2563 1.339 . S
C2566 C2564 1.416 . S
C2566 H2573 0.930 . S
N2567 Tb2532 2.572 . S
N2567 C2568 1.340 . S
N2567 C2570 1.361 . S
C2568 H2554 0.930 . S
C2568 N2567 1.340 . S
C2568 C2572 1.407 . S
C2569 C2570 1.413 . S
C2569 C2571 1.416 . S
C2569 C2598 1.427 . S
C2570 C2562 1.424 . S
C2570 N2567 1.361 . S
C2570 C2569 1.413 . S
C2571 H2560 0.931 . S
C2571 C2569 1.416 . S
C2571 C2572 1.332 . S
C2572 H2551 0.929 . S
C2572 C2568 1.407 . S
C2572 C2571 1.332 . S
H2573 C2566 0.930 . S
H2574 C2597 0.930 . S
H2575 C2598 0.929 . S
O2576 Tb2532 2.465 . S
O2576 C2596 1.264 . S
O2577 Tb2532 2.387 . S
O2577 C2588 1.264 . S
O2578 Tb2543 2.349 . S
O2578 C2588 1.243 . S
O2579 Tb2532 2.428 . S
O2579 C2596 1.256 . S
O2580 Tb2532 2.308 . S
O2580 C2595 1.266 . S
O2581 Tb2543 2.393 . S
O2581 C2595 1.248 . S
O2582 Tb2543 2.465 . S
O2582 C2607 1.264 . S
O2583 Tb2543 2.387 . S
O2583 C2599 1.264 . S
O2584 Tb2532 2.349 . S
O2584 C2599 1.243 . S
O2585 Tb2543 2.428 . S
O2585 C2607 1.256 . S
O2586 Tb2543 2.308 . S
O2586 C2606 1.266 . S
O2587 Tb2532 2.393 . S
O2587 C2606 1.248 . S
C2588 O2577 1.264 . S
C2588 O2578 1.243 . S
C2589 C2592 1.399 . S
C2589 C2594 1.383 . S
C2589 C2596 1.496 . S
C2590 C2591 1.399 . S
C2590 C2594 1.389 . S
C2591 C2590 1.399 . S
C2591 C2593 1.380 . S
C2591 H2608 0.929 . S
C2592 C2589 1.399 . S
C2592 C2593 1.392 . S
C2592 H2609 0.929 . S
C2593 C2591 1.380 . S
C2593 C2592 1.392 . S
C2593 H2610 0.929 . S
C2594 C2589 1.383 . S
C2594 C2590 1.389 . S
C2594 H2611 0.931 . S
C2595 O2580 1.266 . S
C2595 O2581 1.248 . S
C2596 Tb2532 2.802 . S
C2596 O2576 1.264 . S
C2596 O2579 1.256 . S
C2596 C2589 1.496 . S
C2597 C2564 1.448 . S
C2597 H2574 0.930 . S
C2597 C2598 1.328 . S
C2598 C2569 1.427 . S
C2598 H2575 0.929 . S
C2598 C2597 1.328 . S
C2599 O2583 1.264 . S
C2599 O2584 1.243 . S
C2600 C2603 1.399 . S
C2600 C2604 1.383 . S
C2600 C2607 1.496 . S
C2601 C2602 1.399 . S
C2601 C2604 1.389 . S
C2602 C2601 1.399 . S
C2602 C2605 1.380 . S
C2602 H2612 0.929 . S
C2603 C2600 1.399 . S
C2603 C2605 1.392 . S
C2603 H2613 0.929 . S
C2604 C2600 1.383 . S
C2604 C2601 1.389 . S
C2604 H2614 0.931 . S
C2605 C2602 1.380 . S
C2605 C2603 1.392 . S
C2605 H2615 0.929 . S
C2606 O2586 1.266 . S
C2606 O2587 1.248 . S
C2607 Tb2543 2.802 . S
C2607 O2582 1.264 . S
C2607 O2585 1.256 . S
C2607 C2600 1.496 . S
H2608 C2591 0.929 . S
H2609 C2592 0.929 . S
H2610 C2593 0.929 . S
H2611 C2594 0.931 . S
H2612 C2602 0.929 . S
H2613 C2603 0.929 . S
H2614 C2604 0.931 . S
H2615 C2605 0.929 . S
Tb2616 N2645 2.617 . S
Tb2616 N2651 2.572 . S
Tb2616 O2660 2.465 . S
Tb2616 O2661 2.387 1_556 S
Tb2616 O2663 2.428 . S
Tb2616 O2664 2.311 . S
Tb2616 O2668 2.349 1_556 S
Tb2616 O2671 2.393 1_556 S
Tb2616 C2680 2.802 . S
C2617 N2618 1.379 . S
C2617 C2620 1.416 . S
C2617 C2624 1.424 1_565 S
N2618 C2617 1.379 . S
N2618 C2621 1.334 . S
N2618 Tb2627 2.617 1_565 S
C2619 C2621 1.390 . S
C2619 C2622 1.339 . S
C2619 H2639 0.930 . S
C2620 C2617 1.416 . S
C2620 C2622 1.416 . S
C2620 C2626 1.448 . S
C2621 N2618 1.334 . S
C2621 C2619 1.390 . S
C2621 H2632 0.930 . S
C2622 C2619 1.339 . S
C2622 C2620 1.416 . S
C2622 H2643 0.930 . S
C2623 C2624 1.413 . S
C2623 C2625 1.427 . S
C2623 C2629 1.416 . S
C2624 C2617 1.424 1_545 S
C2624 C2623 1.413 . S
C2624 N2628 1.361 . S
C2625 C2623 1.427 . S
C2625 C2626 1.328 1_545 S
C2625 H2640 0.929 . S
C2626 C2620 1.448 . S
C2626 C2625 1.328 1_565 S
C2626 H2641 0.930 . S
Tb2627 N2618 2.617 1_545 S
Tb2627 N2628 2.572 . S
Tb2627 O2662 2.349 . S
Tb2627 O2665 2.393 1_545 S
Tb2627 O2666 2.465 . S
Tb2627 O2667 2.387 . S
Tb2627 O2669 2.428 1_545 S
Tb2627 O2670 2.308 . S
Tb2627 C2691 2.802 1_545 S
N2628 C2624 1.361 . S
N2628 Tb2627 2.572 . S
N2628 C2630 1.340 . S
C2629 C2623 1.416 . S
C2629 C2631 1.332 . S
C2629 H2637 0.931 . S
C2630 N2628 1.340 . S
C2630 C2631 1.407 . S
C2630 H2636 0.930 . S
C2631 C2629 1.332 . S
C2631 C2630 1.407 . S
C2631 H2633 0.929 . S
H2632 C2621 0.930 . S
H2633 C2631 0.929 . S
H2634 C2649 0.930 1_554 S
H2635 C2656 0.929 . S
H2636 C2630 0.930 . S
H2637 C2629 0.931 . S
H2638 C2652 0.930 1_565 S
H2639 C2619 0.930 . S
H2640 C2625 0.929 . S
H2641 C2626 0.930 . S
H2642 C2647 0.930 . S
H2643 C2622 0.930 . S
H2644 C2655 0.931 1_565 S
N2645 Tb2616 2.617 . S
N2645 C2646 1.379 . S
N2645 C2649 1.334 . S
C2646 N2645 1.379 . S
C2646 C2648 1.416 . S
C2646 C2654 1.424 . S
C2647 H2642 0.930 . S
C2647 C2649 1.390 . S
C2647 C2650 1.339 . S
C2648 C2646 1.416 . S
C2648 C2650 1.416 . S
C2648 C2681 1.448 . S
C2649 H2634 0.930 1_556 S
C2649 N2645 1.334 . S
C2649 C2647 1.390 . S
C2650 C2647 1.339 . S
C2650 C2648 1.416 . S
C2650 H2657 0.930 . S
N2651 Tb2616 2.572 . S
N2651 C2652 1.340 . S
N2651 C2654 1.361 . S
C2652 H2638 0.930 1_545 S
C2652 N2651 1.340 . S
C2652 C2656 1.407 1_545 S
C2653 C2654 1.413 . S
C2653 C2655 1.416 . S
C2653 C2682 1.427 . S
C2654 C2646 1.424 . S
C2654 N2651 1.361 . S
C2654 C2653 1.413 . S
C2655 H2644 0.931 1_545 S
C2655 C2653 1.416 . S
C2655 C2656 1.332 1_545 S
C2656 H2635 0.929 . S
C2656 C2652 1.407 1_565 S
C2656 C2655 1.332 1_565 S
H2657 C2650 0.930 . S
H2658 C2681 0.930 . S
H2659 C2682 0.929 . S
O2660 Tb2616 2.465 . S
O2660 C2680 1.264 . S
O2661 Tb2616 2.387 1_554 S
O2661 C2672 1.264 . S
O2662 Tb2627 2.349 . S
O2662 C2672 1.243 . S
O2663 Tb2616 2.428 . S
O2663 C2680 1.256 . S
O2664 Tb2616 2.311 . S
O2664 C2679 1.260 1_546 S
O2665 Tb2627 2.393 1_565 S
O2665 C2679 1.248 . S
O2666 Tb2627 2.465 . S
O2666 C2691 1.262 1_545 S
O2667 Tb2627 2.387 . S
O2667 C2683 1.264 . S
O2668 Tb2616 2.349 1_554 S
O2668 C2683 1.243 . S
O2669 Tb2627 2.428 1_565 S
O2669 C2691 1.257 . S
O2670 Tb2627 2.308 . S
O2670 C2690 1.266 . S
O2671 Tb2616 2.393 1_554 S
O2671 C2690 1.248 . S
C2672 O2661 1.264 . S
C2672 O2662 1.243 . S
C2673 C2676 1.399 . S
C2673 C2678 1.383 . S
C2673 C2680 1.496 . S
C2674 C2675 1.399 . S
C2674 C2678 1.389 . S
C2675 C2674 1.399 . S
C2675 C2677 1.380 . S
C2675 H2692 0.929 . S
C2676 C2673 1.399 . S
C2676 C2677 1.392 . S
C2676 H2693 0.929 . S
C2677 C2675 1.380 . S
C2677 C2676 1.392 . S
C2677 H2694 0.929 . S
C2678 C2673 1.383 . S
C2678 C2674 1.389 . S
C2678 H2695 0.931 . S
C2679 O2664 1.260 1_564 S
C2679 O2665 1.248 . S
C2680 Tb2616 2.802 . S
C2680 O2660 1.264 . S
C2680 O2663 1.256 . S
C2680 C2673 1.496 . S
C2681 C2648 1.448 . S
C2681 H2658 0.930 . S
C2681 C2682 1.328 . S
C2682 C2653 1.427 . S
C2682 H2659 0.929 . S
C2682 C2681 1.328 . S
C2683 O2667 1.264 . S
C2683 O2668 1.243 . S
C2684 C2687 1.399 . S
C2684 C2688 1.383 1_565 S
C2684 C2691 1.496 . S
C2685 C2686 1.399 1_545 S
C2685 C2688 1.389 . S
C2686 C2685 1.399 1_565 S
C2686 C2689 1.380 . S
C2686 H2696 0.929 . S
C2687 C2684 1.399 . S
C2687 C2689 1.392 . S
C2687 H2697 0.929 . S
C2688 C2684 1.383 1_545 S
C2688 C2685 1.389 . S
C2688 H2698 0.931 . S
C2689 C2686 1.380 . S
C2689 C2687 1.392 . S
C2689 H2699 0.929 . S
C2690 O2670 1.266 . S
C2690 O2671 1.248 . S
C2691 Tb2627 2.802 1_565 S
C2691 O2666 1.262 1_565 S
C2691 O2669 1.257 . S
C2691 C2684 1.496 . S
H2692 C2675 0.929 . S
H2693 C2676 0.929 . S
H2694 C2677 0.929 . S
H2695 C2678 0.931 . S
H2696 C2686 0.929 . S
H2697 C2687 0.929 . S
H2698 C2688 0.931 . S
H2699 C2689 0.929 . S
Tb2700 N2729 2.617 . S
Tb2700 N2735 2.572 . S
Tb2700 O2744 2.465 . S
Tb2700 O2745 2.387 . S
Tb2700 O2747 2.428 . S
Tb2700 O2748 2.308 . S
Tb2700 O2752 2.349 . S
Tb2700 O2755 2.393 . S
Tb2700 C2764 2.802 . S
C2701 N2702 1.379 . S
C2701 C2704 1.416 . S
C2701 C2708 1.424 . S
N2702 C2701 1.379 . S
N2702 C2705 1.334 . S
N2702 Tb2711 2.617 . S
C2703 C2705 1.390 . S
C2703 C2706 1.339 . S
C2703 H2723 0.930 . S
C2704 C2701 1.416 . S
C2704 C2706 1.416 . S
C2704 C2710 1.448 . S
C2705 N2702 1.334 . S
C2705 C2703 1.390 . S
C2705 H2716 0.930 . S
C2706 C2703 1.339 . S
C2706 C2704 1.416 . S
C2706 H2727 0.930 . S
C2707 C2708 1.413 . S
C2707 C2709 1.427 . S
C2707 C2713 1.416 . S
C2708 C2701 1.424 . S
C2708 C2707 1.413 . S
C2708 N2712 1.361 . S
C2709 C2707 1.427 . S
C2709 C2710 1.328 . S
C2709 H2724 0.929 . S
C2710 C2704 1.448 . S
C2710 C2709 1.328 . S
C2710 H2725 0.930 . S
Tb2711 N2702 2.617 . S
Tb2711 N2712 2.572 . S
Tb2711 O2746 2.349 . S
Tb2711 O2749 2.393 . S
Tb2711 O2750 2.465 . S
Tb2711 O2751 2.387 . S
Tb2711 O2753 2.428 . S
Tb2711 O2754 2.308 . S
Tb2711 C2775 2.802 . S
N2712 C2708 1.361 . S
N2712 Tb2711 2.572 . S
N2712 C2714 1.340 . S
C2713 C2707 1.416 . S
C2713 C2715 1.332 . S
C2713 H2721 0.931 . S
C2714 N2712 1.340 . S
C2714 C2715 1.407 . S
C2714 H2720 0.930 . S
C2715 C2713 1.332 . S
C2715 C2714 1.407 . S
C2715 H2717 0.929 . S
H2716 C2705 0.930 . S
H2717 C2715 0.929 . S
H2718 C2733 0.930 . S
H2719 C2740 0.929 . S
H2720 C2714 0.930 . S
H2721 C2713 0.931 . S
H2722 C2736 0.930 . S
H2723 C2703 0.930 . S
H2724 C2709 0.929 . S
H2725 C2710 0.930 . S
H2726 C2731 0.930 . S
H2727 C2706 0.930 . S
H2728 C2739 0.931 . S
N2729 Tb2700 2.617 . S
N2729 C2730 1.379 . S
N2729 C2733 1.334 . S
C2730 N2729 1.379 . S
C2730 C2732 1.416 . S
C2730 C2738 1.424 . S
C2731 H2726 0.930 . S
C2731 C2733 1.390 . S
C2731 C2734 1.339 . S
C2732 C2730 1.416 . S
C2732 C2734 1.416 . S
C2732 C2765 1.448 . S
C2733 H2718 0.930 . S
C2733 N2729 1.334 . S
C2733 C2731 1.390 . S
C2734 C2731 1.339 . S
C2734 C2732 1.416 . S
C2734 H2741 0.930 . S
N2735 Tb2700 2.572 . S
N2735 C2736 1.340 . S
N2735 C2738 1.361 . S
C2736 H2722 0.930 . S
C2736 N2735 1.340 . S
C2736 C2740 1.407 . S
C2737 C2738 1.413 . S
C2737 C2739 1.416 . S
C2737 C2766 1.427 . S
C2738 C2730 1.424 . S
C2738 N2735 1.361 . S
C2738 C2737 1.413 . S
C2739 H2728 0.931 . S
C2739 C2737 1.416 . S
C2739 C2740 1.332 . S
C2740 H2719 0.929 . S
C2740 C2736 1.407 . S
C2740 C2739 1.332 . S
H2741 C2734 0.930 . S
H2742 C2765 0.930 . S
H2743 C2766 0.929 . S
O2744 Tb2700 2.465 . S
O2744 C2764 1.264 . S
O2745 Tb2700 2.387 . S
O2745 C2756 1.264 . S
O2746 Tb2711 2.349 . S
O2746 C2756 1.243 . S
O2747 Tb2700 2.428 . S
O2747 C2764 1.256 . S
O2748 Tb2700 2.308 . S
O2748 C2763 1.266 . S
O2749 Tb2711 2.393 . S
O2749 C2763 1.248 . S
O2750 Tb2711 2.465 . S
O2750 C2775 1.264 . S
O2751 Tb2711 2.387 . S
O2751 C2767 1.264 . S
O2752 Tb2700 2.349 . S
O2752 C2767 1.243 . S
O2753 Tb2711 2.428 . S
O2753 C2775 1.256 . S
O2754 Tb2711 2.308 . S
O2754 C2774 1.266 . S
O2755 Tb2700 2.393 . S
O2755 C2774 1.248 . S
C2756 O2745 1.264 . S
C2756 O2746 1.243 . S
C2757 C2760 1.399 . S
C2757 C2762 1.383 . S
C2757 C2764 1.496 . S
C2758 C2759 1.399 . S
C2758 C2762 1.389 . S
C2759 C2758 1.399 . S
C2759 C2761 1.380 . S
C2759 H2776 0.929 . S
C2760 C2757 1.399 . S
C2760 C2761 1.392 . S
C2760 H2777 0.929 . S
C2761 C2759 1.380 . S
C2761 C2760 1.392 . S
C2761 H2778 0.929 . S
C2762 C2757 1.383 . S
C2762 C2758 1.389 . S
C2762 H2779 0.931 . S
C2763 O2748 1.266 . S
C2763 O2749 1.248 . S
C2764 Tb2700 2.802 . S
C2764 O2744 1.264 . S
C2764 O2747 1.256 . S
C2764 C2757 1.496 . S
C2765 C2732 1.448 . S
C2765 H2742 0.930 . S
C2765 C2766 1.328 . S
C2766 C2737 1.427 . S
C2766 H2743 0.929 . S
C2766 C2765 1.328 . S
C2767 O2751 1.264 . S
C2767 O2752 1.243 . S
C2768 C2771 1.399 . S
C2768 C2772 1.383 . S
C2768 C2775 1.496 . S
C2769 C2770 1.399 . S
C2769 C2772 1.389 . S
C2770 C2769 1.399 . S
C2770 C2773 1.380 . S
C2770 H2780 0.929 . S
C2771 C2768 1.399 . S
C2771 C2773 1.392 . S
C2771 H2781 0.929 . S
C2772 C2768 1.383 . S
C2772 C2769 1.389 . S
C2772 H2782 0.931 . S
C2773 C2770 1.380 . S
C2773 C2771 1.392 . S
C2773 H2783 0.929 . S
C2774 O2754 1.266 . S
C2774 O2755 1.248 . S
C2775 Tb2711 2.802 . S
C2775 O2750 1.264 . S
C2775 O2753 1.256 . S
C2775 C2768 1.496 . S
H2776 C2759 0.929 . S
H2777 C2760 0.929 . S
H2778 C2761 0.929 . S
H2779 C2762 0.931 . S
H2780 C2770 0.929 . S
H2781 C2771 0.929 . S
H2782 C2772 0.931 . S
H2783 C2773 0.929 . S
Tb2784 N2813 2.617 1_554 S
Tb2784 N2819 2.572 1_554 S
Tb2784 O2828 2.465 . S
Tb2784 O2829 2.387 1_554 S
Tb2784 O2831 2.428 . S
Tb2784 O2832 2.308 . S
Tb2784 O2836 2.349 . S
Tb2784 O2839 2.393 . S
Tb2784 C2848 2.802 . S
C2785 N2786 1.379 . S
C2785 C2788 1.416 . S
C2785 C2792 1.424 . S
N2786 C2785 1.379 . S
N2786 C2789 1.334 . S
N2786 Tb2795 2.617 . S
C2787 C2789 1.390 . S
C2787 C2790 1.339 . S
C2787 H2807 0.930 . S
C2788 C2785 1.416 . S
C2788 C2790 1.416 . S
C2788 C2794 1.448 . S
C2789 N2786 1.334 . S
C2789 C2787 1.390 . S
C2789 H2800 0.930 . S
C2790 C2787 1.339 . S
C2790 C2788 1.416 . S
C2790 H2811 0.930 . S
C2791 C2792 1.413 . S
C2791 C2793 1.427 . S
C2791 C2797 1.416 . S
C2792 C2785 1.424 . S
C2792 C2791 1.413 . S
C2792 N2796 1.361 . S
C2793 C2791 1.427 . S
C2793 C2794 1.328 . S
C2793 H2808 0.929 . S
C2794 C2788 1.448 . S
C2794 C2793 1.328 . S
C2794 H2809 0.930 . S
Tb2795 N2786 2.617 . S
Tb2795 N2796 2.572 . S
Tb2795 O2830 2.349 1_554 S
Tb2795 O2833 2.393 . S
Tb2795 O2834 2.465 . S
Tb2795 O2835 2.387 . S
Tb2795 O2837 2.428 . S
Tb2795 O2838 2.308 . S
Tb2795 C2859 2.802 . S
N2796 C2792 1.361 . S
N2796 Tb2795 2.572 . S
N2796 C2798 1.340 . S
C2797 C2791 1.416 . S
C2797 C2799 1.332 . S
C2797 H2805 0.931 . S
C2798 N2796 1.340 . S
C2798 C2799 1.407 . S
C2798 H2804 0.930 . S
C2799 C2797 1.332 . S
C2799 C2798 1.407 . S
C2799 H2801 0.929 . S
H2800 C2789 0.930 . S
H2801 C2799 0.929 . S
H2802 C2817 0.930 1_554 S
H2803 C2824 0.929 . S
H2804 C2798 0.930 . S
H2805 C2797 0.931 . S
H2806 C2820 0.930 1_554 S
H2807 C2787 0.930 . S
H2808 C2793 0.929 . S
H2809 C2794 0.930 . S
H2810 C2815 0.930 . S
H2811 C2790 0.930 . S
H2812 C2823 0.931 . S
N2813 Tb2784 2.617 1_556 S
N2813 C2814 1.379 . S
N2813 C2817 1.334 . S
C2814 N2813 1.379 . S
C2814 C2816 1.416 . S
C2814 C2822 1.424 . S
C2815 H2810 0.930 . S
C2815 C2817 1.390 . S
C2815 C2818 1.339 . S
C2816 C2814 1.416 . S
C2816 C2818 1.416 . S
C2816 C2849 1.448 . S
C2817 H2802 0.930 1_556 S
C2817 N2813 1.334 . S
C2817 C2815 1.390 . S
C2818 C2815 1.339 . S
C2818 C2816 1.416 . S
C2818 H2825 0.930 . S
N2819 Tb2784 2.572 1_556 S
N2819 C2820 1.340 . S
N2819 C2822 1.361 . S
C2820 H2806 0.930 1_556 S
C2820 N2819 1.340 . S
C2820 C2824 1.407 . S
C2821 C2822 1.413 . S
C2821 C2823 1.416 . S
C2821 C2850 1.427 . S
C2822 C2814 1.424 . S
C2822 N2819 1.361 . S
C2822 C2821 1.413 . S
C2823 H2812 0.931 . S
C2823 C2821 1.416 . S
C2823 C2824 1.332 . S
C2824 H2803 0.929 . S
C2824 C2820 1.407 . S
C2824 C2823 1.332 . S
H2825 C2818 0.930 . S
H2826 C2849 0.930 . S
H2827 C2850 0.929 . S
O2828 Tb2784 2.465 . S
O2828 C2848 1.264 . S
O2829 Tb2784 2.387 1_556 S
O2829 C2840 1.264 . S
O2830 Tb2795 2.349 1_556 S
O2830 C2840 1.243 . S
O2831 Tb2784 2.428 . S
O2831 C2848 1.256 . S
O2832 Tb2784 2.308 . S
O2832 C2847 1.266 . S
O2833 Tb2795 2.393 . S
O2833 C2847 1.248 . S
O2834 Tb2795 2.465 . S
O2834 C2859 1.264 . S
O2835 Tb2795 2.387 . S
O2835 C2851 1.264 . S
O2836 Tb2784 2.349 . S
O2836 C2851 1.243 . S
O2837 Tb2795 2.428 . S
O2837 C2859 1.256 . S
O2838 Tb2795 2.308 . S
O2838 C2858 1.266 . S
O2839 Tb2784 2.393 . S
O2839 C2858 1.248 . S
C2840 O2829 1.264 . S
C2840 O2830 1.243 . S
C2841 C2844 1.399 . S
C2841 C2846 1.383 . S
C2841 C2848 1.496 . S
C2842 C2843 1.399 . S
C2842 C2846 1.389 . S
C2843 C2842 1.399 . S
C2843 C2845 1.380 . S
C2843 H2860 0.929 . S
C2844 C2841 1.399 . S
C2844 C2845 1.392 . S
C2844 H2861 0.929 . S
C2845 C2843 1.380 . S
C2845 C2844 1.392 . S
C2845 H2862 0.929 . S
C2846 C2841 1.383 . S
C2846 C2842 1.389 . S
C2846 H2863 0.931 . S
C2847 O2832 1.266 . S
C2847 O2833 1.248 . S
C2848 Tb2784 2.802 . S
C2848 O2828 1.264 . S
C2848 O2831 1.256 . S
C2848 C2841 1.496 . S
C2849 C2816 1.448 . S
C2849 H2826 0.930 . S
C2849 C2850 1.328 . S
C2850 C2821 1.427 . S
C2850 H2827 0.929 . S
C2850 C2849 1.328 . S
C2851 O2835 1.264 . S
C2851 O2836 1.243 . S
C2852 C2855 1.399 . S
C2852 C2856 1.383 . S
C2852 C2859 1.496 1_556 S
C2853 C2854 1.399 . S
C2853 C2856 1.389 . S
C2854 C2853 1.399 . S
C2854 C2857 1.380 . S
C2854 H2864 0.929 . S
C2855 C2852 1.399 . S
C2855 C2857 1.392 . S
C2855 H2865 0.929 . S
C2856 C2852 1.383 . S
C2856 C2853 1.389 . S
C2856 H2866 0.931 . S
C2857 C2854 1.380 . S
C2857 C2855 1.392 . S
C2857 H2867 0.929 . S
C2858 O2838 1.266 . S
C2858 O2839 1.248 . S
C2859 Tb2795 2.802 . S
C2859 O2834 1.264 . S
C2859 O2837 1.256 . S
C2859 C2852 1.496 1_554 S
H2860 C2843 0.929 . S
H2861 C2844 0.929 . S
H2862 C2845 0.929 . S
H2863 C2846 0.931 . S
H2864 C2854 0.929 . S
H2865 C2855 0.929 . S
H2866 C2856 0.931 . S
H2867 C2857 0.929 . S
Tb2868 N2897 2.617 . S
Tb2868 N2903 2.572 . S
Tb2868 O2912 2.465 . S
Tb2868 O2913 2.387 . S
Tb2868 O2915 2.428 . S
Tb2868 O2916 2.308 . S
Tb2868 O2920 2.349 . S
Tb2868 O2923 2.393 . S
Tb2868 C2932 2.802 . S
C2869 N2870 1.379 . S
C2869 C2872 1.416 . S
C2869 C2876 1.424 . S
N2870 C2869 1.379 . S
N2870 C2873 1.334 . S
N2870 Tb2879 2.617 . S
C2871 C2873 1.390 . S
C2871 C2874 1.339 . S
C2871 H2891 0.930 . S
C2872 C2869 1.416 . S
C2872 C2874 1.416 . S
C2872 C2878 1.448 . S
C2873 N2870 1.334 . S
C2873 C2871 1.390 . S
C2873 H2884 0.930 . S
C2874 C2871 1.339 . S
C2874 C2872 1.416 . S
C2874 H2895 0.930 . S
C2875 C2876 1.413 . S
C2875 C2877 1.427 . S
C2875 C2881 1.416 . S
C2876 C2869 1.424 . S
C2876 C2875 1.413 . S
C2876 N2880 1.361 . S
C2877 C2875 1.427 . S
C2877 C2878 1.328 . S
C2877 H2892 0.929 . S
C2878 C2872 1.448 . S
C2878 C2877 1.328 . S
C2878 H2893 0.930 . S
Tb2879 N2870 2.617 . S
Tb2879 N2880 2.572 . S
Tb2879 O2914 2.349 . S
Tb2879 O2917 2.393 . S
Tb2879 O2918 2.465 . S
Tb2879 O2919 2.387 . S
Tb2879 O2921 2.428 . S
Tb2879 O2922 2.308 . S
Tb2879 C2943 2.802 . S
N2880 C2876 1.361 . S
N2880 Tb2879 2.572 . S
N2880 C2882 1.340 . S
C2881 C2875 1.416 . S
C2881 C2883 1.332 . S
C2881 H2889 0.931 . S
C2882 N2880 1.340 . S
C2882 C2883 1.407 . S
C2882 H2888 0.930 . S
C2883 C2881 1.332 . S
C2883 C2882 1.407 . S
C2883 H2885 0.929 . S
H2884 C2873 0.930 . S
H2885 C2883 0.929 . S
H2886 C2901 0.930 . S
H2887 C2908 0.929 . S
H2888 C2882 0.930 . S
H2889 C2881 0.931 . S
H2890 C2904 0.930 . S
H2891 C2871 0.930 . S
H2892 C2877 0.929 . S
H2893 C2878 0.930 . S
H2894 C2899 0.930 . S
H2895 C2874 0.930 . S
H2896 C2907 0.931 . S
N2897 Tb2868 2.617 . S
N2897 C2898 1.379 . S
N2897 C2901 1.334 . S
C2898 N2897 1.379 . S
C2898 C2900 1.416 . S
C2898 C2906 1.424 . S
C2899 H2894 0.930 . S
C2899 C2901 1.390 . S
C2899 C2902 1.339 . S
C2900 C2898 1.416 . S
C2900 C2902 1.416 . S
C2900 C2933 1.448 . S
C2901 H2886 0.930 . S
C2901 N2897 1.334 . S
C2901 C2899 1.390 . S
C2902 C2899 1.339 . S
C2902 C2900 1.416 . S
C2902 H2909 0.930 . S
N2903 Tb2868 2.572 . S
N2903 C2904 1.340 . S
N2903 C2906 1.361 . S
C2904 H2890 0.930 . S
C2904 N2903 1.340 . S
C2904 C2908 1.407 . S
C2905 C2906 1.413 . S
C2905 C2907 1.416 . S
C2905 C2934 1.427 . S
C2906 C2898 1.424 . S
C2906 N2903 1.361 . S
C2906 C2905 1.413 . S
C2907 H2896 0.931 . S
C2907 C2905 1.416 . S
C2907 C2908 1.332 . S
C2908 H2887 0.929 . S
C2908 C2904 1.407 . S
C2908 C2907 1.332 . S
H2909 C2902 0.930 . S
H2910 C2933 0.930 . S
H2911 C2934 0.929 . S
O2912 Tb2868 2.465 . S
O2912 C2932 1.264 . S
O2913 Tb2868 2.387 . S
O2913 C2924 1.264 . S
O2914 Tb2879 2.349 . S
O2914 C2924 1.243 . S
O2915 Tb2868 2.428 . S
O2915 C2932 1.256 . S
O2916 Tb2868 2.308 . S
O2916 C2931 1.266 . S
O2917 Tb2879 2.393 . S
O2917 C2931 1.248 . S
O2918 Tb2879 2.465 . S
O2918 C2943 1.264 . S
O2919 Tb2879 2.387 . S
O2919 C2935 1.264 . S
O2920 Tb2868 2.349 . S
O2920 C2935 1.243 . S
O2921 Tb2879 2.428 . S
O2921 C2943 1.256 . S
O2922 Tb2879 2.308 . S
O2922 C2942 1.266 . S
O2923 Tb2868 2.393 . S
O2923 C2942 1.248 . S
C2924 O2913 1.264 . S
C2924 O2914 1.243 . S
C2925 C2928 1.399 . S
C2925 C2930 1.383 . S
C2925 C2932 1.496 . S
C2926 C2927 1.399 . S
C2926 C2930 1.389 . S
C2927 C2926 1.399 . S
C2927 C2929 1.380 . S
C2927 H2944 0.929 . S
C2928 C2925 1.399 . S
C2928 C2929 1.392 . S
C2928 H2945 0.929 . S
C2929 C2927 1.380 . S
C2929 C2928 1.392 . S
C2929 H2946 0.929 . S
C2930 C2925 1.383 . S
C2930 C2926 1.389 . S
C2930 H2947 0.931 . S
C2931 O2916 1.266 . S
C2931 O2917 1.248 . S
C2932 Tb2868 2.802 . S
C2932 O2912 1.264 . S
C2932 O2915 1.256 . S
C2932 C2925 1.496 . S
C2933 C2900 1.448 . S
C2933 H2910 0.930 . S
C2933 C2934 1.328 . S
C2934 C2905 1.427 . S
C2934 H2911 0.929 . S
C2934 C2933 1.328 . S
C2935 O2919 1.264 . S
C2935 O2920 1.243 . S
C2936 C2939 1.399 . S
C2936 C2940 1.383 . S
C2936 C2943 1.496 . S
C2937 C2938 1.399 . S
C2937 C2940 1.389 . S
C2938 C2937 1.399 . S
C2938 C2941 1.380 . S
C2938 H2948 0.929 . S
C2939 C2936 1.399 . S
C2939 C2941 1.392 . S
C2939 H2949 0.929 . S
C2940 C2936 1.383 . S
C2940 C2937 1.389 . S
C2940 H2950 0.931 . S
C2941 C2938 1.380 . S
C2941 C2939 1.392 . S
C2941 H2951 0.929 . S
C2942 O2922 1.266 . S
C2942 O2923 1.248 . S
C2943 Tb2879 2.802 . S
C2943 O2918 1.264 . S
C2943 O2921 1.256 . S
C2943 C2936 1.496 . S
H2944 C2927 0.929 . S
H2945 C2928 0.929 . S
H2946 C2929 0.929 . S
H2947 C2930 0.931 . S
H2948 C2938 0.929 . S
H2949 C2939 0.929 . S
H2950 C2940 0.931 . S
H2951 C2941 0.929 . S
Tb2952 N2981 2.617 1_455 S
Tb2952 N2987 2.572 1_455 S
Tb2952 O2996 2.465 . S
Tb2952 O2997 2.387 1_455 S
Tb2952 O2999 2.428 . S
Tb2952 O3000 2.308 . S
Tb2952 O3004 2.349 . S
Tb2952 O3007 2.393 . S
Tb2952 C3016 2.802 . S
C2953 N2954 1.379 . S
C2953 C2956 1.416 . S
C2953 C2960 1.424 . S
N2954 C2953 1.379 . S
N2954 C2957 1.334 . S
N2954 Tb2963 2.617 . S
C2955 C2957 1.390 . S
C2955 C2958 1.339 . S
C2955 H2975 0.930 . S
C2956 C2953 1.416 . S
C2956 C2958 1.416 . S
C2956 C2962 1.448 . S
C2957 N2954 1.334 . S
C2957 C2955 1.390 . S
C2957 H2968 0.930 . S
C2958 C2955 1.339 . S
C2958 C2956 1.416 . S
C2958 H2979 0.930 . S
C2959 C2960 1.413 . S
C2959 C2961 1.427 . S
C2959 C2965 1.416 . S
C2960 C2953 1.424 . S
C2960 C2959 1.413 . S
C2960 N2964 1.361 . S
C2961 C2959 1.427 . S
C2961 C2962 1.328 . S
C2961 H2976 0.929 . S
C2962 C2956 1.448 . S
C2962 C2961 1.328 . S
C2962 H2977 0.930 . S
Tb2963 N2954 2.617 . S
Tb2963 N2964 2.572 . S
Tb2963 O2998 2.349 1_455 S
Tb2963 O3001 2.393 . S
Tb2963 O3002 2.465 . S
Tb2963 O3003 2.387 . S
Tb2963 O3005 2.428 . S
Tb2963 O3006 2.308 . S
Tb2963 C3027 2.802 . S
N2964 C2960 1.361 . S
N2964 Tb2963 2.572 . S
N2964 C2966 1.340 . S
C2965 C2959 1.416 . S
C2965 C2967 1.332 . S
C2965 H2973 0.931 . S
C2966 N2964 1.340 . S
C2966 C2967 1.407 . S
C2966 H2972 0.930 . S
C2967 C2965 1.332 . S
C2967 C2966 1.407 . S
C2967 H2969 0.929 . S
H2968 C2957 0.930 . S
H2969 C2967 0.929 . S
H2970 C2985 0.917 1_455 S
H2971 C2992 0.929 . S
H2972 C2966 0.930 . S
H2973 C2965 0.931 . S
H2974 C2988 0.930 1_455 S
H2975 C2955 0.930 . S
H2976 C2961 0.929 . S
H2977 C2962 0.930 . S
H2978 C2983 0.930 . S
H2979 C2958 0.930 . S
H2980 C2991 0.931 . S
N2981 Tb2952 2.617 1_655 S
N2981 C2982 1.379 . S
N2981 C2985 1.331 . S
C2982 N2981 1.379 . S
C2982 C2984 1.416 . S
C2982 C2990 1.424 . S
C2983 H2978 0.930 . S
C2983 C2985 1.407 . S
C2983 C2986 1.339 . S
C2984 C2982 1.416 . S
C2984 C2986 1.416 . S
C2984 C3017 1.448 . S
C2985 H2970 0.917 1_655 S
C2985 N2981 1.331 . S
C2985 C2983 1.407 . S
C2986 C2983 1.339 . S
C2986 C2984 1.416 . S
C2986 H2993 0.930 . S
N2987 Tb2952 2.572 1_655 S
N2987 C2988 1.340 . S
N2987 C2990 1.361 . S
C2988 H2974 0.930 1_655 S
C2988 N2987 1.340 . S
C2988 C2992 1.407 . S
C2989 C2990 1.413 . S
C2989 C2991 1.416 . S
C2989 C3018 1.427 . S
C2990 C2982 1.424 . S
C2990 N2987 1.361 . S
C2990 C2989 1.413 . S
C2991 H2980 0.931 . S
C2991 C2989 1.416 . S
C2991 C2992 1.332 . S
C2992 H2971 0.929 . S
C2992 C2988 1.407 . S
C2992 C2991 1.332 . S
H2993 C2986 0.930 . S
H2994 C3017 0.930 . S
H2995 C3018 0.929 . S
O2996 Tb2952 2.465 . S
O2996 C3016 1.264 . S
O2997 Tb2952 2.387 1_655 S
O2997 C3008 1.264 . S
O2998 Tb2963 2.349 1_655 S
O2998 C3008 1.243 . S
O2999 Tb2952 2.428 . S
O2999 C3016 1.256 . S
O3000 Tb2952 2.308 . S
O3000 C3015 1.266 . S
O3001 Tb2963 2.393 . S
O3001 C3015 1.248 . S
O3002 Tb2963 2.465 . S
O3002 C3027 1.264 . S
O3003 Tb2963 2.387 . S
O3003 C3019 1.264 . S
O3004 Tb2952 2.349 . S
O3004 C3019 1.243 . S
O3005 Tb2963 2.428 . S
O3005 C3027 1.256 . S
O3006 Tb2963 2.308 . S
O3006 C3026 1.266 . S
O3007 Tb2952 2.393 . S
O3007 C3026 1.248 . S
C3008 O2997 1.264 . S
C3008 O2998 1.243 . S
C3009 C3012 1.399 . S
C3009 C3014 1.383 . S
C3009 C3016 1.496 . S
C3010 C3011 1.399 . S
C3010 C3014 1.389 . S
C3011 C3010 1.399 . S
C3011 C3013 1.380 . S
C3011 H3028 0.929 . S
C3012 C3009 1.399 . S
C3012 C3013 1.392 . S
C3012 H3029 0.929 . S
C3013 C3011 1.380 . S
C3013 C3012 1.392 . S
C3013 H3030 0.929 . S
C3014 C3009 1.383 . S
C3014 C3010 1.389 . S
C3014 H3031 0.931 . S
C3015 O3000 1.266 . S
C3015 O3001 1.248 . S
C3016 Tb2952 2.802 . S
C3016 O2996 1.264 . S
C3016 O2999 1.256 . S
C3016 C3009 1.496 . S
C3017 C2984 1.448 . S
C3017 H2994 0.930 . S
C3017 C3018 1.328 . S
C3018 C2989 1.427 . S
C3018 H2995 0.929 . S
C3018 C3017 1.328 . S
C3019 O3003 1.264 . S
C3019 O3004 1.243 . S
C3020 C3023 1.399 . S
C3020 C3024 1.383 . S
C3020 C3027 1.496 1_655 S
C3021 C3022 1.399 . S
C3021 C3024 1.389 . S
C3022 C3021 1.399 . S
C3022 C3025 1.380 . S
C3022 H3032 0.929 . S
C3023 C3020 1.399 . S
C3023 C3025 1.392 . S
C3023 H3033 0.929 . S
C3024 C3020 1.383 . S
C3024 C3021 1.389 . S
C3024 H3034 0.931 . S
C3025 C3022 1.380 . S
C3025 C3023 1.392 . S
C3025 H3035 0.929 . S
C3026 O3006 1.266 . S
C3026 O3007 1.248 . S
C3027 Tb2963 2.802 . S
C3027 O3002 1.264 . S
C3027 O3005 1.256 . S
C3027 C3020 1.496 1_455 S
H3028 C3011 0.929 . S
H3029 C3012 0.929 . S
H3030 C3013 0.929 . S
H3031 C3014 0.931 . S
H3032 C3022 0.929 . S
H3033 C3023 0.929 . S
H3034 C3024 0.931 . S
H3035 C3025 0.929 . S
Tb3036 N3065 2.617 . S
Tb3036 N3071 2.572 . S
Tb3036 O3080 2.465 . S
Tb3036 O3081 2.387 . S
Tb3036 O3083 2.428 . S
Tb3036 O3084 2.308 . S
Tb3036 O3088 2.349 . S
Tb3036 O3091 2.393 . S
Tb3036 C3100 2.802 . S
C3037 N3038 1.379 . S
C3037 C3040 1.416 . S
C3037 C3044 1.424 . S
N3038 C3037 1.379 . S
N3038 C3041 1.334 . S
N3038 Tb3047 2.617 . S
C3039 C3041 1.390 . S
C3039 C3042 1.339 . S
C3039 H3059 0.930 . S
C3040 C3037 1.416 . S
C3040 C3042 1.416 . S
C3040 C3046 1.448 . S
C3041 N3038 1.334 . S
C3041 C3039 1.390 . S
C3041 H3052 0.930 . S
C3042 C3039 1.339 . S
C3042 C3040 1.416 . S
C3042 H3063 0.930 . S
C3043 C3044 1.413 . S
C3043 C3045 1.427 . S
C3043 C3049 1.416 . S
C3044 C3037 1.424 . S
C3044 C3043 1.413 . S
C3044 N3048 1.361 . S
C3045 C3043 1.427 . S
C3045 C3046 1.328 . S
C3045 H3060 0.929 . S
C3046 C3040 1.448 . S
C3046 C3045 1.328 . S
C3046 H3061 0.930 . S
Tb3047 N3038 2.617 . S
Tb3047 N3048 2.572 . S
Tb3047 O3082 2.349 . S
Tb3047 O3085 2.393 . S
Tb3047 O3086 2.465 . S
Tb3047 O3087 2.387 . S
Tb3047 O3089 2.428 . S
Tb3047 O3090 2.308 . S
Tb3047 C3111 2.802 . S
N3048 C3044 1.361 . S
N3048 Tb3047 2.572 . S
N3048 C3050 1.340 . S
C3049 C3043 1.416 . S
C3049 C3051 1.332 . S
C3049 H3057 0.931 . S
C3050 N3048 1.340 . S
C3050 C3051 1.407 . S
C3050 H3056 0.930 . S
C3051 C3049 1.332 . S
C3051 C3050 1.407 . S
C3051 H3053 0.929 . S
H3052 C3041 0.930 . S
H3053 C3051 0.929 . S
H3054 C3069 0.930 . S
H3055 C3076 0.929 . S
H3056 C3050 0.930 . S
H3057 C3049 0.931 . S
H3058 C3072 0.930 . S
H3059 C3039 0.930 . S
H3060 C3045 0.929 . S
H3061 C3046 0.930 . S
H3062 C3067 0.930 . S
H3063 C3042 0.930 . S
H3064 C3075 0.931 . S
N3065 Tb3036 2.617 . S
N3065 C3066 1.379 . S
N3065 C3069 1.334 . S
C3066 N3065 1.379 . S
C3066 C3068 1.416 . S
C3066 C3074 1.424 . S
C3067 H3062 0.930 . S
C3067 C3069 1.390 . S
C3067 C3070 1.339 . S
C3068 C3066 1.416 . S
C3068 C3070 1.416 . S
C3068 C3101 1.448 . S
C3069 H3054 0.930 . S
C3069 N3065 1.334 . S
C3069 C3067 1.390 . S
C3070 C3067 1.339 . S
C3070 C3068 1.416 . S
C3070 H3077 0.930 . S
N3071 Tb3036 2.572 . S
N3071 C3072 1.340 . S
N3071 C3074 1.361 . S
C3072 H3058 0.930 . S
C3072 N3071 1.340 . S
C3072 C3076 1.407 . S
C3073 C3074 1.413 . S
C3073 C3075 1.416 . S
C3073 C3102 1.427 . S
C3074 C3066 1.424 . S
C3074 N3071 1.361 . S
C3074 C3073 1.413 . S
C3075 H3064 0.931 . S
C3075 C3073 1.416 . S
C3075 C3076 1.332 . S
C3076 H3055 0.929 . S
C3076 C3072 1.407 . S
C3076 C3075 1.332 . S
H3077 C3070 0.930 . S
H3078 C3101 0.930 . S
H3079 C3102 0.929 . S
O3080 Tb3036 2.465 . S
O3080 C3100 1.264 . S
O3081 Tb3036 2.387 . S
O3081 C3092 1.264 . S
O3082 Tb3047 2.349 . S
O3082 C3092 1.243 . S
O3083 Tb3036 2.428 . S
O3083 C3100 1.256 . S
O3084 Tb3036 2.308 . S
O3084 C3099 1.266 . S
O3085 Tb3047 2.393 . S
O3085 C3099 1.248 . S
O3086 Tb3047 2.465 . S
O3086 C3111 1.264 . S
O3087 Tb3047 2.387 . S
O3087 C3103 1.264 . S
O3088 Tb3036 2.349 . S
O3088 C3103 1.243 . S
O3089 Tb3047 2.428 . S
O3089 C3111 1.256 . S
O3090 Tb3047 2.308 . S
O3090 C3110 1.266 . S
O3091 Tb3036 2.393 . S
O3091 C3110 1.248 . S
C3092 O3081 1.264 . S
C3092 O3082 1.243 . S
C3093 C3096 1.399 . S
C3093 C3098 1.383 . S
C3093 C3100 1.496 . S
C3094 C3095 1.399 . S
C3094 C3098 1.389 . S
C3095 C3094 1.399 . S
C3095 C3097 1.380 . S
C3095 H3112 0.929 . S
C3096 C3093 1.399 . S
C3096 C3097 1.392 . S
C3096 H3113 0.929 . S
C3097 C3095 1.380 . S
C3097 C3096 1.392 . S
C3097 H3114 0.929 . S
C3098 C3093 1.383 . S
C3098 C3094 1.389 . S
C3098 H3115 0.931 . S
C3099 O3084 1.266 . S
C3099 O3085 1.248 . S
C3100 Tb3036 2.802 . S
C3100 O3080 1.264 . S
C3100 O3083 1.256 . S
C3100 C3093 1.496 . S
C3101 C3068 1.448 . S
C3101 H3078 0.930 . S
C3101 C3102 1.328 . S
C3102 C3073 1.427 . S
C3102 H3079 0.929 . S
C3102 C3101 1.328 . S
C3103 O3087 1.264 . S
C3103 O3088 1.243 . S
C3104 C3107 1.399 . S
C3104 C3108 1.383 . S
C3104 C3111 1.496 . S
C3105 C3106 1.399 . S
C3105 C3108 1.389 . S
C3106 C3105 1.399 . S
C3106 C3109 1.380 . S
C3106 H3116 0.929 . S
C3107 C3104 1.399 . S
C3107 C3109 1.392 . S
C3107 H3117 0.929 . S
C3108 C3104 1.383 . S
C3108 C3105 1.389 . S
C3108 H3118 0.931 . S
C3109 C3106 1.380 . S
C3109 C3107 1.392 . S
C3109 H3119 0.929 . S
C3110 O3090 1.266 . S
C3110 O3091 1.248 . S
C3111 Tb3047 2.802 . S
C3111 O3086 1.264 . S
C3111 O3089 1.256 . S
C3111 C3104 1.496 . S
H3112 C3095 0.929 . S
H3113 C3096 0.929 . S
H3114 C3097 0.929 . S
H3115 C3098 0.931 . S
H3116 C3106 0.929 . S
H3117 C3107 0.929 . S
H3118 C3108 0.931 . S
H3119 C3109 0.929 . S
Tb3120 N3149 2.617 . S
Tb3120 N3155 2.572 . S
Tb3120 O3164 2.465 . S
Tb3120 O3165 2.387 . S
Tb3120 O3167 2.428 . S
Tb3120 O3168 2.308 . S
Tb3120 O3172 2.349 . S
Tb3120 O3175 2.393 . S
Tb3120 C3184 2.802 . S
C3121 N3122 1.379 . S
C3121 C3124 1.416 . S
C3121 C3128 1.424 . S
N3122 C3121 1.379 . S
N3122 C3125 1.334 . S
N3122 Tb3131 2.617 . S
C3123 C3125 1.390 . S
C3123 C3126 1.339 . S
C3123 H3143 0.930 . S
C3124 C3121 1.416 . S
C3124 C3126 1.416 . S
C3124 C3130 1.448 . S
C3125 N3122 1.334 . S
C3125 C3123 1.390 . S
C3125 H3136 0.930 . S
C3126 C3123 1.339 . S
C3126 C3124 1.416 . S
C3126 H3147 0.930 . S
C3127 C3128 1.413 . S
C3127 C3129 1.427 . S
C3127 C3133 1.416 . S
C3128 C3121 1.424 . S
C3128 C3127 1.413 . S
C3128 N3132 1.361 . S
C3129 C3127 1.427 . S
C3129 C3130 1.328 . S
C3129 H3144 0.929 . S
C3130 C3124 1.448 . S
C3130 C3129 1.328 . S
C3130 H3145 0.930 . S
Tb3131 N3122 2.617 . S
Tb3131 N3132 2.572 . S
Tb3131 O3166 2.349 . S
Tb3131 O3169 2.393 . S
Tb3131 O3170 2.465 . S
Tb3131 O3171 2.387 . S
Tb3131 O3173 2.428 . S
Tb3131 O3174 2.308 . S
Tb3131 C3195 2.802 . S
N3132 C3128 1.361 . S
N3132 Tb3131 2.572 . S
N3132 C3134 1.340 . S
C3133 C3127 1.416 . S
C3133 C3135 1.332 . S
C3133 H3141 0.931 . S
C3134 N3132 1.340 . S
C3134 C3135 1.407 . S
C3134 H3140 0.930 . S
C3135 C3133 1.332 . S
C3135 C3134 1.407 . S
C3135 H3137 0.929 . S
H3136 C3125 0.930 . S
H3137 C3135 0.929 . S
H3138 C3153 0.930 . S
H3139 C3160 0.929 . S
H3140 C3134 0.930 . S
H3141 C3133 0.931 . S
H3142 C3156 0.930 . S
H3143 C3123 0.930 . S
H3144 C3129 0.929 . S
H3145 C3130 0.930 . S
H3146 C3151 0.930 . S
H3147 C3126 0.930 . S
H3148 C3159 0.931 . S
N3149 Tb3120 2.617 . S
N3149 C3150 1.379 . S
N3149 C3153 1.334 . S
C3150 N3149 1.379 . S
C3150 C3152 1.416 . S
C3150 C3158 1.424 . S
C3151 H3146 0.930 . S
C3151 C3153 1.390 . S
C3151 C3154 1.339 . S
C3152 C3150 1.416 . S
C3152 C3154 1.416 . S
C3152 C3185 1.448 . S
C3153 H3138 0.930 . S
C3153 N3149 1.334 . S
C3153 C3151 1.390 . S
C3154 C3151 1.339 . S
C3154 C3152 1.416 . S
C3154 H3161 0.930 . S
N3155 Tb3120 2.572 . S
N3155 C3156 1.340 . S
N3155 C3158 1.361 . S
C3156 H3142 0.930 . S
C3156 N3155 1.340 . S
C3156 C3160 1.407 . S
C3157 C3158 1.413 . S
C3157 C3159 1.416 . S
C3157 C3186 1.427 . S
C3158 C3150 1.424 . S
C3158 N3155 1.361 . S
C3158 C3157 1.413 . S
C3159 H3148 0.931 . S
C3159 C3157 1.416 . S
C3159 C3160 1.332 . S
C3160 H3139 0.929 . S
C3160 C3156 1.407 . S
C3160 C3159 1.332 . S
H3161 C3154 0.930 . S
H3162 C3185 0.930 . S
H3163 C3186 0.929 . S
O3164 Tb3120 2.465 . S
O3164 C3184 1.264 . S
O3165 Tb3120 2.387 . S
O3165 C3176 1.264 . S
O3166 Tb3131 2.349 . S
O3166 C3176 1.243 . S
O3167 Tb3120 2.428 . S
O3167 C3184 1.256 . S
O3168 Tb3120 2.308 . S
O3168 C3183 1.266 . S
O3169 Tb3131 2.393 . S
O3169 C3183 1.248 . S
O3170 Tb3131 2.465 . S
O3170 C3195 1.264 . S
O3171 Tb3131 2.387 . S
O3171 C3187 1.264 . S
O3172 Tb3120 2.349 . S
O3172 C3187 1.243 . S
O3173 Tb3131 2.428 . S
O3173 C3195 1.256 . S
O3174 Tb3131 2.308 . S
O3174 C3194 1.266 . S
O3175 Tb3120 2.393 . S
O3175 C3194 1.248 . S
C3176 O3165 1.264 . S
C3176 O3166 1.243 . S
C3177 C3180 1.399 . S
C3177 C3182 1.383 . S
C3177 C3184 1.496 . S
C3178 C3179 1.399 . S
C3178 C3182 1.389 . S
C3179 C3178 1.399 . S
C3179 C3181 1.380 . S
C3179 H3196 0.929 . S
C3180 C3177 1.399 . S
C3180 C3181 1.392 . S
C3180 H3197 0.929 . S
C3181 C3179 1.380 . S
C3181 C3180 1.392 . S
C3181 H3198 0.929 . S
C3182 C3177 1.383 . S
C3182 C3178 1.389 . S
C3182 H3199 0.931 . S
C3183 O3168 1.266 . S
C3183 O3169 1.248 . S
C3184 Tb3120 2.802 . S
C3184 O3164 1.264 . S
C3184 O3167 1.256 . S
C3184 C3177 1.496 . S
C3185 C3152 1.448 . S
C3185 H3162 0.930 . S
C3185 C3186 1.328 . S
C3186 C3157 1.427 . S
C3186 H3163 0.929 . S
C3186 C3185 1.328 . S
C3187 O3171 1.264 . S
C3187 O3172 1.243 . S
C3188 C3191 1.399 . S
C3188 C3192 1.383 . S
C3188 C3195 1.496 . S
C3189 C3190 1.399 . S
C3189 C3192 1.389 . S
C3190 C3189 1.399 . S
C3190 C3193 1.380 . S
C3190 H3200 0.929 . S
C3191 C3188 1.399 . S
C3191 C3193 1.392 . S
C3191 H3201 0.929 . S
C3192 C3188 1.383 . S
C3192 C3189 1.389 . S
C3192 H3202 0.931 . S
C3193 C3190 1.380 . S
C3193 C3191 1.392 . S
C3193 H3203 0.929 . S
C3194 O3174 1.266 . S
C3194 O3175 1.248 . S
C3195 Tb3131 2.802 . S
C3195 O3170 1.264 . S
C3195 O3173 1.256 . S
C3195 C3188 1.496 . S
H3196 C3179 0.929 . S
H3197 C3180 0.929 . S
H3198 C3181 0.929 . S
H3199 C3182 0.931 . S
H3200 C3190 0.929 . S
H3201 C3191 0.929 . S
H3202 C3192 0.931 . S
H3203 C3193 0.929 . S
Tb3204 N3233 2.617 . S
Tb3204 N3239 2.572 . S
Tb3204 O3248 2.465 . S
Tb3204 O3249 2.387 . S
Tb3204 O3251 2.428 . S
Tb3204 O3252 2.308 . S
Tb3204 O3256 2.349 . S
Tb3204 O3259 2.393 . S
Tb3204 C3268 2.802 . S
C3205 N3206 1.379 . S
C3205 C3208 1.416 . S
C3205 C3212 1.424 . S
N3206 C3205 1.379 . S
N3206 C3209 1.334 . S
N3206 Tb3215 2.617 . S
C3207 C3209 1.390 . S
C3207 C3210 1.339 . S
C3207 H3227 0.930 . S
C3208 C3205 1.416 . S
C3208 C3210 1.416 . S
C3208 C3214 1.448 . S
C3209 N3206 1.334 . S
C3209 C3207 1.390 . S
C3209 H3220 0.930 . S
C3210 C3207 1.339 . S
C3210 C3208 1.416 . S
C3210 H3231 0.930 . S
C3211 C3212 1.413 . S
C3211 C3213 1.427 . S
C3211 C3217 1.416 . S
C3212 C3205 1.424 . S
C3212 C3211 1.413 . S
C3212 N3216 1.361 . S
C3213 C3211 1.427 . S
C3213 C3214 1.328 . S
C3213 H3228 0.929 . S
C3214 C3208 1.448 . S
C3214 C3213 1.328 . S
C3214 H3229 0.930 . S
Tb3215 N3206 2.617 . S
Tb3215 N3216 2.572 . S
Tb3215 O3250 2.349 . S
Tb3215 O3253 2.393 . S
Tb3215 O3254 2.465 . S
Tb3215 O3255 2.387 . S
Tb3215 O3257 2.428 . S
Tb3215 O3258 2.308 . S
Tb3215 C3279 2.802 . S
N3216 C3212 1.361 . S
N3216 Tb3215 2.572 . S
N3216 C3218 1.340 . S
C3217 C3211 1.416 . S
C3217 C3219 1.332 . S
C3217 H3225 0.931 . S
C3218 N3216 1.340 . S
C3218 C3219 1.407 . S
C3218 H3224 0.930 . S
C3219 C3217 1.332 . S
C3219 C3218 1.407 . S
C3219 H3221 0.929 . S
H3220 C3209 0.930 . S
H3221 C3219 0.929 . S
H3222 C3237 0.930 . S
H3223 C3244 0.929 . S
H3224 C3218 0.930 . S
H3225 C3217 0.931 . S
H3226 C3240 0.930 . S
H3227 C3207 0.930 . S
H3228 C3213 0.929 . S
H3229 C3214 0.930 . S
H3230 C3235 0.930 . S
H3231 C3210 0.930 . S
H3232 C3243 0.931 . S
N3233 Tb3204 2.617 . S
N3233 C3234 1.379 . S
N3233 C3237 1.334 . S
C3234 N3233 1.379 . S
C3234 C3236 1.416 . S
C3234 C3242 1.424 . S
C3235 H3230 0.930 . S
C3235 C3237 1.390 . S
C3235 C3238 1.339 . S
C3236 C3234 1.416 . S
C3236 C3238 1.416 . S
C3236 C3269 1.448 . S
C3237 H3222 0.930 . S
C3237 N3233 1.334 . S
C3237 C3235 1.390 . S
C3238 C3235 1.339 . S
C3238 C3236 1.416 . S
C3238 H3245 0.930 . S
N3239 Tb3204 2.572 . S
N3239 C3240 1.340 . S
N3239 C3242 1.361 . S
C3240 H3226 0.930 . S
C3240 N3239 1.340 . S
C3240 C3244 1.407 . S
C3241 C3242 1.413 . S
C3241 C3243 1.416 . S
C3241 C3270 1.427 . S
C3242 C3234 1.424 . S
C3242 N3239 1.361 . S
C3242 C3241 1.413 . S
C3243 H3232 0.931 . S
C3243 C3241 1.416 . S
C3243 C3244 1.332 . S
C3244 H3223 0.929 . S
C3244 C3240 1.407 . S
C3244 C3243 1.332 . S
H3245 C3238 0.930 . S
H3246 C3269 0.930 . S
H3247 C3270 0.929 . S
O3248 Tb3204 2.465 . S
O3248 C3268 1.264 . S
O3249 Tb3204 2.387 . S
O3249 C3260 1.264 . S
O3250 Tb3215 2.349 . S
O3250 C3260 1.243 . S
O3251 Tb3204 2.428 . S
O3251 C3268 1.256 . S
O3252 Tb3204 2.308 . S
O3252 C3267 1.266 . S
O3253 Tb3215 2.393 . S
O3253 C3267 1.248 . S
O3254 Tb3215 2.465 . S
O3254 C3279 1.264 . S
O3255 Tb3215 2.387 . S
O3255 C3271 1.264 . S
O3256 Tb3204 2.349 . S
O3256 C3271 1.243 . S
O3257 Tb3215 2.428 . S
O3257 C3279 1.256 . S
O3258 Tb3215 2.308 . S
O3258 C3278 1.266 . S
O3259 Tb3204 2.393 . S
O3259 C3278 1.248 . S
C3260 O3249 1.264 . S
C3260 O3250 1.243 . S
C3261 C3264 1.399 . S
C3261 C3266 1.383 . S
C3261 C3268 1.496 . S
C3262 C3263 1.399 . S
C3262 C3266 1.389 . S
C3263 C3262 1.399 . S
C3263 C3265 1.380 . S
C3263 H3280 0.929 . S
C3264 C3261 1.399 . S
C3264 C3265 1.392 . S
C3264 H3281 0.929 . S
C3265 C3263 1.380 . S
C3265 C3264 1.392 . S
C3265 H3282 0.929 . S
C3266 C3261 1.383 . S
C3266 C3262 1.389 . S
C3266 H3283 0.931 . S
C3267 O3252 1.266 . S
C3267 O3253 1.248 . S
C3268 Tb3204 2.802 . S
C3268 O3248 1.264 . S
C3268 O3251 1.256 . S
C3268 C3261 1.496 . S
C3269 C3236 1.448 . S
C3269 H3246 0.930 . S
C3269 C3270 1.328 . S
C3270 C3241 1.427 . S
C3270 H3247 0.929 . S
C3270 C3269 1.328 . S
C3271 O3255 1.264 . S
C3271 O3256 1.243 . S
C3272 C3275 1.399 . S
C3272 C3276 1.383 . S
C3272 C3279 1.496 . S
C3273 C3274 1.399 . S
C3273 C3276 1.389 . S
C3274 C3273 1.399 . S
C3274 C3277 1.380 . S
C3274 H3284 0.929 . S
C3275 C3272 1.399 . S
C3275 C3277 1.392 . S
C3275 H3285 0.929 . S
C3276 C3272 1.383 . S
C3276 C3273 1.389 . S
C3276 H3286 0.931 . S
C3277 C3274 1.380 . S
C3277 C3275 1.392 . S
C3277 H3287 0.929 . S
C3278 O3258 1.266 . S
C3278 O3259 1.248 . S
C3279 Tb3215 2.802 . S
C3279 O3254 1.264 . S
C3279 O3257 1.256 . S
C3279 C3272 1.496 . S
H3280 C3263 0.929 . S
H3281 C3264 0.929 . S
H3282 C3265 0.929 . S
H3283 C3266 0.931 . S
H3284 C3274 0.929 . S
H3285 C3275 0.929 . S
H3286 C3276 0.931 . S
H3287 C3277 0.929 . S
Tb3288 N3317 2.617 . S
Tb3288 N3323 2.572 . S
Tb3288 O3332 2.465 . S
Tb3288 O3333 2.387 . S
Tb3288 O3335 2.428 . S
Tb3288 O3336 2.308 . S
Tb3288 O3340 2.349 . S
Tb3288 O3343 2.393 . S
Tb3288 C3352 2.802 . S
C3289 N3290 1.379 . S
C3289 C3292 1.416 . S
C3289 C3296 1.424 . S
N3290 C3289 1.379 . S
N3290 C3293 1.334 . S
N3290 Tb3299 2.617 . S
C3291 C3293 1.390 . S
C3291 C3294 1.339 . S
C3291 H3311 0.930 . S
C3292 C3289 1.416 . S
C3292 C3294 1.416 . S
C3292 C3298 1.448 . S
C3293 N3290 1.334 . S
C3293 C3291 1.390 . S
C3293 H3304 0.930 . S
C3294 C3291 1.339 . S
C3294 C3292 1.416 . S
C3294 H3315 0.930 . S
C3295 C3296 1.413 . S
C3295 C3297 1.427 . S
C3295 C3301 1.416 . S
C3296 C3289 1.424 . S
C3296 C3295 1.413 . S
C3296 N3300 1.361 . S
C3297 C3295 1.427 . S
C3297 C3298 1.328 . S
C3297 H3312 0.929 . S
C3298 C3292 1.448 . S
C3298 C3297 1.328 . S
C3298 H3313 0.930 . S
Tb3299 N3290 2.617 . S
Tb3299 N3300 2.572 . S
Tb3299 O3334 2.349 . S
Tb3299 O3337 2.393 . S
Tb3299 O3338 2.465 . S
Tb3299 O3339 2.387 . S
Tb3299 O3341 2.428 . S
Tb3299 O3342 2.308 . S
Tb3299 C3363 2.802 . S
N3300 C3296 1.361 . S
N3300 Tb3299 2.572 . S
N3300 C3302 1.340 . S
C3301 C3295 1.416 . S
C3301 C3303 1.332 . S
C3301 H3309 0.931 . S
C3302 N3300 1.340 . S
C3302 C3303 1.407 . S
C3302 H3308 0.930 . S
C3303 C3301 1.332 . S
C3303 C3302 1.407 . S
C3303 H3305 0.929 . S
H3304 C3293 0.930 . S
H3305 C3303 0.929 . S
H3306 C3321 0.930 . S
H3307 C3328 0.929 . S
H3308 C3302 0.930 . S
H3309 C3301 0.931 . S
H3310 C3324 0.930 . S
H3311 C3291 0.930 . S
H3312 C3297 0.929 . S
H3313 C3298 0.930 . S
H3314 C3319 0.930 . S
H3315 C3294 0.930 . S
H3316 C3327 0.931 . S
N3317 Tb3288 2.617 . S
N3317 C3318 1.379 . S
N3317 C3321 1.334 . S
C3318 N3317 1.379 . S
C3318 C3320 1.416 . S
C3318 C3326 1.424 . S
C3319 H3314 0.930 . S
C3319 C3321 1.390 . S
C3319 C3322 1.339 . S
C3320 C3318 1.416 . S
C3320 C3322 1.416 . S
C3320 C3353 1.448 . S
C3321 H3306 0.930 . S
C3321 N3317 1.334 . S
C3321 C3319 1.390 . S
C3322 C3319 1.339 . S
C3322 C3320 1.416 . S
C3322 H3329 0.930 . S
N3323 Tb3288 2.572 . S
N3323 C3324 1.340 . S
N3323 C3326 1.361 . S
C3324 H3310 0.930 . S
C3324 N3323 1.340 . S
C3324 C3328 1.407 . S
C3325 C3326 1.413 . S
C3325 C3327 1.416 . S
C3325 C3354 1.427 . S
C3326 C3318 1.424 . S
C3326 N3323 1.361 . S
C3326 C3325 1.413 . S
C3327 H3316 0.931 . S
C3327 C3325 1.416 . S
C3327 C3328 1.332 . S
C3328 H3307 0.929 . S
C3328 C3324 1.407 . S
C3328 C3327 1.332 . S
H3329 C3322 0.930 . S
H3330 C3353 0.930 . S
H3331 C3354 0.929 . S
O3332 Tb3288 2.465 . S
O3332 C3352 1.264 . S
O3333 Tb3288 2.387 . S
O3333 C3344 1.264 . S
O3334 Tb3299 2.349 . S
O3334 C3344 1.243 . S
O3335 Tb3288 2.428 . S
O3335 C3352 1.256 . S
O3336 Tb3288 2.308 . S
O3336 C3351 1.266 . S
O3337 Tb3299 2.393 . S
O3337 C3351 1.248 . S
O3338 Tb3299 2.465 . S
O3338 C3363 1.264 . S
O3339 Tb3299 2.387 . S
O3339 C3355 1.264 . S
O3340 Tb3288 2.349 . S
O3340 C3355 1.243 . S
O3341 Tb3299 2.428 . S
O3341 C3363 1.256 . S
O3342 Tb3299 2.308 . S
O3342 C3362 1.266 . S
O3343 Tb3288 2.393 . S
O3343 C3362 1.248 . S
C3344 O3333 1.264 . S
C3344 O3334 1.243 . S
C3345 C3348 1.399 . S
C3345 C3350 1.383 . S
C3345 C3352 1.496 . S
C3346 C3347 1.399 . S
C3346 C3350 1.389 . S
C3347 C3346 1.399 . S
C3347 C3349 1.380 . S
C3347 H3364 0.929 . S
C3348 C3345 1.399 . S
C3348 C3349 1.392 . S
C3348 H3365 0.929 . S
C3349 C3347 1.380 . S
C3349 C3348 1.392 . S
C3349 H3366 0.929 . S
C3350 C3345 1.383 . S
C3350 C3346 1.389 . S
C3350 H3367 0.931 . S
C3351 O3336 1.266 . S
C3351 O3337 1.248 . S
C3352 Tb3288 2.802 . S
C3352 O3332 1.264 . S
C3352 O3335 1.256 . S
C3352 C3345 1.496 . S
C3353 C3320 1.448 . S
C3353 H3330 0.930 . S
C3353 C3354 1.328 . S
C3354 C3325 1.427 . S
C3354 H3331 0.929 . S
C3354 C3353 1.328 . S
C3355 O3339 1.264 . S
C3355 O3340 1.243 . S
C3356 C3359 1.399 . S
C3356 C3360 1.383 . S
C3356 C3363 1.496 . S
C3357 C3358 1.399 . S
C3357 C3360 1.389 . S
C3358 C3357 1.399 . S
C3358 C3361 1.380 . S
C3358 H3368 0.929 . S
C3359 C3356 1.399 . S
C3359 C3361 1.392 . S
C3359 H3369 0.929 . S
C3360 C3356 1.383 . S
C3360 C3357 1.389 . S
C3360 H3370 0.931 . S
C3361 C3358 1.380 . S
C3361 C3359 1.392 . S
C3361 H3371 0.929 . S
C3362 O3342 1.266 . S
C3362 O3343 1.248 . S
C3363 Tb3299 2.802 . S
C3363 O3338 1.264 . S
C3363 O3341 1.256 . S
C3363 C3356 1.496 . S
H3364 C3347 0.929 . S
H3365 C3348 0.929 . S
H3366 C3349 0.929 . S
H3367 C3350 0.931 . S
H3368 C3358 0.929 . S
H3369 C3359 0.929 . S
H3370 C3360 0.931 . S
H3371 C3361 0.929 . S
Tb3372 N3401 2.622 . S
Tb3372 N3407 2.582 . S
Tb3372 O3416 2.478 . S
Tb3372 O3417 2.378 1_655 S
Tb3372 O3419 2.439 . S
Tb3372 O3420 2.305 1_655 S
Tb3372 O3424 2.344 1_655 S
Tb3372 O3427 2.382 1_655 S
Tb3372 C3436 2.816 . S
C3373 N3374 1.379 . S
C3373 C3376 1.416 . S
C3373 C3380 1.424 1_556 S
N3374 C3373 1.379 . S
N3374 C3377 1.334 . S
N3374 Tb3383 2.617 1_556 S
C3375 C3377 1.390 . S
C3375 C3378 1.339 . S
C3375 H3395 0.930 . S
C3376 C3373 1.416 . S
C3376 C3378 1.416 . S
C3376 C3382 1.448 . S
C3377 N3374 1.334 . S
C3377 C3375 1.390 . S
C3377 H3388 0.930 . S
C3378 C3375 1.339 . S
C3378 C3376 1.416 . S
C3378 H3399 0.930 . S
C3379 C3380 1.413 . S
C3379 C3381 1.427 . S
C3379 C3385 1.416 . S
C3380 C3373 1.424 1_554 S
C3380 C3379 1.413 . S
C3380 N3384 1.361 . S
C3381 C3379 1.427 . S
C3381 C3382 1.328 1_554 S
C3381 H3396 0.929 . S
C3382 C3376 1.448 . S
C3382 C3381 1.328 1_556 S
C3382 H3397 0.930 . S
Tb3383 N3374 2.617 1_554 S
Tb3383 N3384 2.572 . S
Tb3383 O3418 2.349 . S
Tb3383 O3421 2.393 1_554 S
Tb3383 O3422 2.465 . S
Tb3383 O3423 2.387 . S
Tb3383 O3425 2.428 1_554 S
Tb3383 O3426 2.308 . S
Tb3383 C3447 2.802 . S
N3384 C3380 1.361 . S
N3384 Tb3383 2.572 . S
N3384 C3386 1.340 . S
C3385 C3379 1.416 . S
C3385 C3387 1.332 . S
C3385 H3393 0.931 . S
C3386 N3384 1.340 . S
C3386 C3387 1.407 . S
C3386 H3392 0.930 . S
C3387 C3385 1.332 . S
C3387 C3386 1.407 . S
C3387 H3389 0.929 . S
H3388 C3377 0.930 . S
H3389 C3387 0.929 . S
H3390 C3405 0.930 1_455 S
H3391 C3412 0.929 . S
H3392 C3386 0.930 . S
H3393 C3385 0.931 . S
H3394 C3408 0.930 1_556 S
H3395 C3375 0.930 . S
H3396 C3381 0.929 . S
H3397 C3382 0.930 . S
H3398 C3403 0.930 . S
H3399 C3378 0.930 . S
H3400 C3411 0.931 . S
N3401 Tb3372 2.622 . S
N3401 C3402 1.379 . S
N3401 C3405 1.334 . S
C3402 N3401 1.379 . S
C3402 C3404 1.416 . S
C3402 C3410 1.424 . S
C3403 H3398 0.930 . S
C3403 C3405 1.390 . S
C3403 C3406 1.339 . S
C3404 C3402 1.416 . S
C3404 C3406 1.416 . S
C3404 C3437 1.448 . S
C3405 H3390 0.930 1_655 S
C3405 N3401 1.334 . S
C3405 C3403 1.390 . S
C3406 C3403 1.339 . S
C3406 C3404 1.416 . S
C3406 H3413 0.930 . S
N3407 Tb3372 2.582 . S
N3407 C3408 1.340 . S
N3407 C3410 1.361 . S
C3408 H3394 0.930 1_554 S
C3408 N3407 1.340 . S
C3408 C3412 1.407 1_554 S
C3409 C3410 1.413 . S
C3409 C3411 1.416 . S
C3409 C3438 1.427 . S
C3410 C3402 1.424 . S
C3410 N3407 1.361 . S
C3410 C3409 1.413 . S
C3411 H3400 0.931 . S
C3411 C3409 1.416 . S
C3411 C3412 1.332 1_554 S
C3412 H3391 0.929 . S
C3412 C3408 1.407 1_556 S
C3412 C3411 1.332 1_556 S
H3413 C3406 0.930 . S
H3414 C3437 0.930 . S
H3415 C3438 0.929 . S
O3416 Tb3372 2.478 . S
O3416 C3436 1.264 . S
O3417 Tb3372 2.378 1_455 S
O3417 C3428 1.264 . S
O3418 Tb3383 2.349 . S
O3418 C3428 1.243 . S
O3419 Tb3372 2.439 . S
O3419 C3436 1.256 . S
O3420 Tb3372 2.305 1_455 S
O3420 C3435 1.266 1_554 S
O3421 Tb3383 2.393 1_556 S
O3421 C3435 1.248 . S
O3422 Tb3383 2.465 . S
O3422 C3447 1.264 . S
O3423 Tb3383 2.387 . S
O3423 C3439 1.264 . S
O3424 Tb3372 2.344 1_455 S
O3424 C3439 1.243 . S
O3425 Tb3383 2.428 1_556 S
O3425 C3447 1.256 1_556 S
O3426 Tb3383 2.308 . S
O3426 C3446 1.266 . S
O3427 Tb3372 2.382 1_455 S
O3427 C3446 1.248 . S
C3428 O3417 1.264 . S
C3428 O3418 1.243 . S
C3429 C3432 1.399 . S
C3429 C3434 1.383 . S
C3429 C3436 1.496 . S
C3430 C3431 1.399 . S
C3430 C3434 1.389 . S
C3431 C3430 1.399 . S
C3431 C3433 1.380 . S
C3431 H3448 0.929 . S
C3432 C3429 1.399 . S
C3432 C3433 1.392 . S
C3432 H3449 0.929 . S
C3433 C3431 1.380 . S
C3433 C3432 1.392 . S
C3433 H3450 0.929 . S
C3434 C3429 1.383 . S
C3434 C3430 1.389 . S
C3434 H3451 0.931 . S
C3435 O3420 1.266 1_556 S
C3435 O3421 1.248 . S
C3436 Tb3372 2.816 . S
C3436 O3416 1.264 . S
C3436 O3419 1.256 . S
C3436 C3429 1.496 . S
C3437 C3404 1.448 . S
C3437 H3414 0.930 . S
C3437 C3438 1.328 . S
C3438 C3409 1.427 . S
C3438 H3415 0.929 . S
C3438 C3437 1.328 . S
C3439 O3423 1.264 . S
C3439 O3424 1.243 . S
C3440 C3443 1.399 . S
C3440 C3444 1.383 1_556 S
C3440 C3447 1.496 1_556 S
C3441 C3442 1.399 1_554 S
C3441 C3444 1.389 . S
C3442 C3441 1.399 1_556 S
C3442 C3445 1.380 . S
C3442 H3452 0.929 . S
C3443 C3440 1.399 . S
C3443 C3445 1.392 . S
C3443 H3453 0.929 . S
C3444 C3440 1.383 1_554 S
C3444 C3441 1.389 . S
C3444 H3454 0.931 . S
C3445 C3442 1.380 . S
C3445 C3443 1.392 . S
C3445 H3455 0.929 . S
C3446 O3426 1.266 . S
C3446 O3427 1.248 . S
C3447 Tb3383 2.802 . S
C3447 O3422 1.264 . S
C3447 O3425 1.256 1_554 S
C3447 C3440 1.496 1_554 S
H3448 C3431 0.929 . S
H3449 C3432 0.929 . S
H3450 C3433 0.929 . S
H3451 C3434 0.931 . S
H3452 C3442 0.929 . S
H3453 C3443 0.929 . S
H3454 C3444 0.931 . S
H3455 C3445 0.929 . S
H3456 C3462 0.930 . S
H3457 C3466 0.930 . S
H3458 C3471 0.929 . S
H3459 C3469 0.929 . S
H3460 C3464 0.929 1_655 S
H3461 C3470 0.929 . S
C3462 H3456 0.930 . S
C3462 C3463 1.370 . S
C3462 C3470 1.378 . S
C3463 C3462 1.370 . S
C3463 C3471 1.432 1_456 S
C3464 H3460 0.929 1_455 S
C3464 C3466 1.378 . S
C3464 C3468 1.350 . S
C3465 C3468 1.463 . S
C3465 C3470 1.350 1_554 S
C3465 N3473 1.427 1_455 S
C3466 H3457 0.930 . S
C3466 C3464 1.378 . S
C3466 C3467 1.367 . S
C3467 C3466 1.367 . S
C3467 C3469 1.433 1_554 S
C3468 C3464 1.350 . S
C3468 C3465 1.463 . S
C3468 N3472 1.427 1_554 S
C3469 H3459 0.929 . S
C3469 C3467 1.433 1_556 S
C3469 N3472 1.384 . S
C3470 H3461 0.929 . S
C3470 C3462 1.378 . S
C3470 C3465 1.350 1_556 S
C3471 H3458 0.929 . S
C3471 C3463 1.432 1_654 S
C3471 N3473 1.384 . S
N3472 C3468 1.427 1_556 S
N3472 C3469 1.384 . S
N3473 C3465 1.427 1_655 S
N3473 C3471 1.384 . S
H3474 C3480 0.930 . S
H3475 C3484 0.930 . S
H3476 C3489 0.929 . S
H3477 C3487 0.929 . S
H3478 C3482 0.929 . S
H3479 C3488 0.929 . S
C3480 H3474 0.930 . S
C3480 C3481 1.367 . S
C3480 C3488 1.378 . S
C3481 C3480 1.367 . S
C3481 C3489 1.433 . S
C3482 H3478 0.929 . S
C3482 C3484 1.378 . S
C3482 C3486 1.350 . S
C3483 C3486 1.463 . S
C3483 C3488 1.350 . S
C3483 N3491 1.427 . S
C3484 H3475 0.930 . S
C3484 C3482 1.378 . S
C3484 C3485 1.367 . S
C3485 C3484 1.367 . S
C3485 C3487 1.433 . S
C3486 C3482 1.350 . S
C3486 C3483 1.463 . S
C3486 N3490 1.427 . S
C3487 H3477 0.929 . S
C3487 C3485 1.433 . S
C3487 N3490 1.384 . S
C3488 H3479 0.929 . S
C3488 C3480 1.378 . S
C3488 C3483 1.350 . S
C3489 H3476 0.929 . S
C3489 C3481 1.433 . S
C3489 N3491 1.384 . S
N3490 C3486 1.427 . S
N3490 C3487 1.384 . S
N3491 C3483 1.427 . S
N3491 C3489 1.384 . S
H3492 C3498 0.930 . S
H3493 C3502 0.930 . S
H3494 C3507 0.929 . S
H3495 C3505 0.929 . S
H3496 C3500 0.929 . S
H3497 C3506 0.929 . S
C3498 H3492 0.930 . S
C3498 C3499 1.367 . S
C3498 C3506 1.378 . S
C3499 C3498 1.367 . S
C3499 C3507 1.433 . S
C3500 H3496 0.929 . S
C3500 C3502 1.378 . S
C3500 C3504 1.350 . S
C3501 C3504 1.463 . S
C3501 C3506 1.350 . S
C3501 N3509 1.427 . S
C3502 H3493 0.930 . S
C3502 C3500 1.378 . S
C3502 C3503 1.367 . S
C3503 C3502 1.367 . S
C3503 C3505 1.433 . S
C3504 C3500 1.350 . S
C3504 C3501 1.463 . S
C3504 N3508 1.427 . S
C3505 H3495 0.929 . S
C3505 C3503 1.433 . S
C3505 N3508 1.384 . S
C3506 H3497 0.929 . S
C3506 C3498 1.378 . S
C3506 C3501 1.350 . S
C3507 H3494 0.929 . S
C3507 C3499 1.433 . S
C3507 N3509 1.384 . S
N3508 C3504 1.427 . S
N3508 C3505 1.384 . S
N3509 C3501 1.427 . S
N3509 C3507 1.384 . S
H3510 C3516 0.930 . S
H3511 C3520 0.930 . S
H3512 C3525 0.929 . S
H3513 C3523 0.929 . S
H3514 C3518 0.929 . S
H3515 C3524 0.929 . S
C3516 H3510 0.930 . S
C3516 C3517 1.367 . S
C3516 C3524 1.378 . S
C3517 C3516 1.367 . S
C3517 C3525 1.433 . S
C3518 H3514 0.929 . S
C3518 C3520 1.378 . S
C3518 C3522 1.350 . S
C3519 C3522 1.463 . S
C3519 C3524 1.350 . S
C3519 N3527 1.427 . S
C3520 H3511 0.930 . S
C3520 C3518 1.378 . S
C3520 C3521 1.367 . S
C3521 C3520 1.367 . S
C3521 C3523 1.433 . S
C3522 C3518 1.350 . S
C3522 C3519 1.463 . S
C3522 N3526 1.427 . S
C3523 H3513 0.929 . S
C3523 C3521 1.433 . S
C3523 N3526 1.384 . S
C3524 H3515 0.929 . S
C3524 C3516 1.378 . S
C3524 C3519 1.350 . S
C3525 H3512 0.929 . S
C3525 C3517 1.433 . S
C3525 N3527 1.384 . S
N3526 C3522 1.427 . S
N3526 C3523 1.384 . S
N3527 C3519 1.427 . S
N3527 C3525 1.384 . S
H3528 C3534 0.930 . S
H3529 C3538 0.930 . S
H3530 C3543 0.929 . S
H3531 C3541 0.929 . S
H3532 C3536 0.929 . S
H3533 C3542 0.929 . S
C3534 H3528 0.930 . S
C3534 C3535 1.367 . S
C3534 C3542 1.378 . S
C3535 C3534 1.367 . S
C3535 C3543 1.433 . S
C3536 H3532 0.929 . S
C3536 C3538 1.378 . S
C3536 C3540 1.350 . S
C3537 C3540 1.463 . S
C3537 C3542 1.350 . S
C3537 N3545 1.427 . S
C3538 H3529 0.930 . S
C3538 C3536 1.378 . S
C3538 C3539 1.367 . S
C3539 C3538 1.367 . S
C3539 C3541 1.433 . S
C3540 C3536 1.350 . S
C3540 C3537 1.463 . S
C3540 N3544 1.427 . S
C3541 H3531 0.929 . S
C3541 C3539 1.433 . S
C3541 N3544 1.384 . S
C3542 H3533 0.929 . S
C3542 C3534 1.378 . S
C3542 C3537 1.350 . S
C3543 H3530 0.929 . S
C3543 C3535 1.433 . S
C3543 N3545 1.384 . S
N3544 C3540 1.427 . S
N3544 C3541 1.384 . S
N3545 C3537 1.427 . S
N3545 C3543 1.384 . S
H3546 C3552 0.930 . S
H3547 C3556 0.930 . S
H3548 C3561 0.929 . S
H3549 C3559 0.929 . S
H3550 C3554 0.929 . S
H3551 C3560 0.929 . S
C3552 H3546 0.930 . S
C3552 C3553 1.367 . S
C3552 C3560 1.378 . S
C3553 C3552 1.367 . S
C3553 C3561 1.433 . S
C3554 H3550 0.929 . S
C3554 C3556 1.378 . S
C3554 C3558 1.350 . S
C3555 C3558 1.463 . S
C3555 C3560 1.350 . S
C3555 N3563 1.427 . S
C3556 H3547 0.930 . S
C3556 C3554 1.378 . S
C3556 C3557 1.367 . S
C3557 C3556 1.367 . S
C3557 C3559 1.433 . S
C3558 C3554 1.350 . S
C3558 C3555 1.463 . S
C3558 N3562 1.427 . S
C3559 H3549 0.929 . S
C3559 C3557 1.433 . S
C3559 N3562 1.384 . S
C3560 H3551 0.929 . S
C3560 C3552 1.378 . S
C3560 C3555 1.350 . S
C3561 H3548 0.929 . S
C3561 C3553 1.433 . S
C3561 N3563 1.384 . S
N3562 C3558 1.427 . S
N3562 C3559 1.384 . S
N3563 C3555 1.427 . S
N3563 C3561 1.384 . S
H3564 C3570 0.930 . S
H3565 C3574 0.930 . S
H3566 C3579 0.929 . S
H3567 C3577 0.929 . S
H3568 C3572 0.929 . S
H3569 C3578 0.929 . S
C3570 H3564 0.930 . S
C3570 C3571 1.367 . S
C3570 C3578 1.378 . S
C3571 C3570 1.367 . S
C3571 C3579 1.433 . S
C3572 H3568 0.929 . S
C3572 C3574 1.378 . S
C3572 C3576 1.350 . S
C3573 C3576 1.463 . S
C3573 C3578 1.350 . S
C3573 N3581 1.427 . S
C3574 H3565 0.930 . S
C3574 C3572 1.378 . S
C3574 C3575 1.367 . S
C3575 C3574 1.367 . S
C3575 C3577 1.433 . S
C3576 C3572 1.350 . S
C3576 C3573 1.463 . S
C3576 N3580 1.427 . S
C3577 H3567 0.929 . S
C3577 C3575 1.433 . S
C3577 N3580 1.384 . S
C3578 H3569 0.929 . S
C3578 C3570 1.378 . S
C3578 C3573 1.350 . S
C3579 H3566 0.929 . S
C3579 C3571 1.433 . S
C3579 N3581 1.384 . S
N3580 C3576 1.427 . S
N3580 C3577 1.384 . S
N3581 C3573 1.427 . S
N3581 C3579 1.384 . S
H3582 C3588 0.930 . S
H3583 C3592 0.930 . S
H3584 C3597 0.929 . S
H3585 C3595 0.929 . S
H3586 C3590 0.929 . S
H3587 C3596 0.929 . S
C3588 H3582 0.930 . S
C3588 C3589 1.367 . S
C3588 C3596 1.378 . S
C3589 C3588 1.367 . S
C3589 C3597 1.433 . S
C3590 H3586 0.929 . S
C3590 C3592 1.378 . S
C3590 C3594 1.350 . S
C3591 C3594 1.463 . S
C3591 C3596 1.350 . S
C3591 N3599 1.427 . S
C3592 H3583 0.930 . S
C3592 C3590 1.378 . S
C3592 C3593 1.367 . S
C3593 C3592 1.367 . S
C3593 C3595 1.433 . S
C3594 C3590 1.350 . S
C3594 C3591 1.463 . S
C3594 N3598 1.427 . S
C3595 H3585 0.929 . S
C3595 C3593 1.433 . S
C3595 N3598 1.384 . S
C3596 H3587 0.929 . S
C3596 C3588 1.378 . S
C3596 C3591 1.350 . S
C3597 H3584 0.929 . S
C3597 C3589 1.433 . S
C3597 N3599 1.384 . S
N3598 C3594 1.427 . S
N3598 C3595 1.384 . S
N3599 C3591 1.427 . S
N3599 C3597 1.384 . S
H3600 C3606 0.930 . S
H3601 C3610 0.930 . S
H3602 C3615 0.929 1_455 S
H3603 C3613 0.929 . S
H3604 C3608 0.929 . S
H3605 C3614 0.929 . S
C3606 H3600 0.930 . S
C3606 C3607 1.367 . S
C3606 C3614 1.378 . S
C3607 C3606 1.367 . S
C3607 C3615 1.433 . S
C3608 H3604 0.929 . S
C3608 C3610 1.378 . S
C3608 C3612 1.350 1_455 S
C3609 C3612 1.463 . S
C3609 C3614 1.350 . S
C3609 N3617 1.397 1_655 S
C3610 H3601 0.930 . S
C3610 C3608 1.378 . S
C3610 C3611 1.367 . S
C3611 C3610 1.367 . S
C3611 C3613 1.433 1_455 S
C3612 C3608 1.350 1_655 S
C3612 C3609 1.463 . S
C3612 N3616 1.427 . S
C3613 H3603 0.929 . S
C3613 C3611 1.433 1_655 S
C3613 N3616 1.384 . S
C3614 H3605 0.929 . S
C3614 C3606 1.378 . S
C3614 C3609 1.350 . S
C3615 H3602 0.929 1_655 S
C3615 C3607 1.433 . S
C3615 N3617 1.364 1_655 S
N3616 C3612 1.427 . S
N3616 C3613 1.384 . S
N3617 C3609 1.397 1_455 S
N3617 C3615 1.364 1_455 S
H3618 C3624 0.930 . S
H3619 C3628 0.930 . S
H3620 C3633 0.929 . S
H3621 C3631 0.929 . S
H3622 C3626 0.929 . S
H3623 C3632 0.929 . S
C3624 H3618 0.930 . S
C3624 C3625 1.367 . S
C3624 C3632 1.378 . S
C3625 C3624 1.367 . S
C3625 C3633 1.433 . S
C3626 H3622 0.929 . S
C3626 C3628 1.378 . S
C3626 C3630 1.350 . S
C3627 C3630 1.463 . S
C3627 C3632 1.350 . S
C3627 N3635 1.427 . S
C3628 H3619 0.930 . S
C3628 C3626 1.378 . S
C3628 C3629 1.367 . S
C3629 C3628 1.367 . S
C3629 C3631 1.433 . S
C3630 C3626 1.350 . S
C3630 C3627 1.463 . S
C3630 N3634 1.427 . S
C3631 H3621 0.929 . S
C3631 C3629 1.433 . S
C3631 N3634 1.384 . S
C3632 H3623 0.929 . S
C3632 C3624 1.378 . S
C3632 C3627 1.350 . S
C3633 H3620 0.929 . S
C3633 C3625 1.433 . S
C3633 N3635 1.384 . S
N3634 C3630 1.427 . S
N3634 C3631 1.384 . S
N3635 C3627 1.427 . S
N3635 C3633 1.384 . S
H3636 C3642 0.930 . S
H3637 C3646 0.930 . S
H3638 C3651 0.929 . S
H3639 C3649 0.929 . S
H3640 C3644 0.929 . S
H3641 C3650 0.929 . S
C3642 H3636 0.930 . S
C3642 C3643 1.367 . S
C3642 C3650 1.378 . S
C3643 C3642 1.367 . S
C3643 C3651 1.433 . S
C3644 H3640 0.929 . S
C3644 C3646 1.378 . S
C3644 C3648 1.350 . S
C3645 C3648 1.463 . S
C3645 C3650 1.350 . S
C3645 N3653 1.427 . S
C3646 H3637 0.930 . S
C3646 C3644 1.378 . S
C3646 C3647 1.367 . S
C3647 C3646 1.367 . S
C3647 C3649 1.433 . S
C3648 C3644 1.350 . S
C3648 C3645 1.463 . S
C3648 N3652 1.427 . S
C3649 H3639 0.929 . S
C3649 C3647 1.433 . S
C3649 N3652 1.384 . S
C3650 H3641 0.929 . S
C3650 C3642 1.378 . S
C3650 C3645 1.350 . S
C3651 H3638 0.929 . S
C3651 C3643 1.433 . S
C3651 N3653 1.384 . S
N3652 C3648 1.427 . S
N3652 C3649 1.384 . S
N3653 C3645 1.427 . S
N3653 C3651 1.384 . S
H3654 C3660 0.930 . S
H3655 C3664 0.930 . S
H3656 C3669 0.929 . S
H3657 C3667 0.929 . S
H3658 C3662 0.929 . S
H3659 C3668 0.929 . S
C3660 H3654 0.930 . S
C3660 C3661 1.367 . S
C3660 C3668 1.378 . S
C3661 C3660 1.367 . S
C3661 C3669 1.433 . S
C3662 H3658 0.929 . S
C3662 C3664 1.378 . S
C3662 C3666 1.350 . S
C3663 C3666 1.463 . S
C3663 C3668 1.350 . S
C3663 N3671 1.427 . S
C3664 H3655 0.930 . S
C3664 C3662 1.378 . S
C3664 C3665 1.367 . S
C3665 C3664 1.367 . S
C3665 C3667 1.433 . S
C3666 C3662 1.350 . S
C3666 C3663 1.463 . S
C3666 N3670 1.427 . S
C3667 H3657 0.929 . S
C3667 C3665 1.433 . S
C3667 N3670 1.384 . S
C3668 H3659 0.929 . S
C3668 C3660 1.378 . S
C3668 C3663 1.350 . S
C3669 H3656 0.929 . S
C3669 C3661 1.433 . S
C3669 N3671 1.384 . S
N3670 C3666 1.427 . S
N3670 C3667 1.384 . S
N3671 C3663 1.427 . S
N3671 C3669 1.384 . S
H3672 C3678 0.930 . S
H3673 C3682 0.930 . S
H3674 C3687 0.929 . S
H3675 C3685 0.929 1_565 S
H3676 C3680 0.929 . S
H3677 C3686 0.943 1_455 S
C3678 H3672 0.930 . S
C3678 C3679 1.367 . S
C3678 C3686 1.378 . S
C3679 C3678 1.367 . S
C3679 C3687 1.433 . S
C3680 H3676 0.929 . S
C3680 C3682 1.378 . S
C3680 C3684 1.350 . S
C3681 C3684 1.463 . S
C3681 C3686 1.350 . S
C3681 N3689 1.427 . S
C3682 H3673 0.930 . S
C3682 C3680 1.378 . S
C3682 C3683 1.367 1_655 S
C3683 C3682 1.367 1_455 S
C3683 C3685 1.433 . S
C3684 C3680 1.350 . S
C3684 C3681 1.463 . S
C3684 N3688 1.427 1_655 S
C3685 H3675 0.929 1_545 S
C3685 C3683 1.433 . S
C3685 N3688 1.384 . S
C3686 H3677 0.943 1_655 S
C3686 C3678 1.378 . S
C3686 C3681 1.350 . S
C3687 H3674 0.929 . S
C3687 C3679 1.433 . S
C3687 N3689 1.384 . S
N3688 C3684 1.427 1_455 S
N3688 C3685 1.384 . S
N3689 C3681 1.427 . S
N3689 C3687 1.384 . S
H3690 C3696 0.930 . S
H3691 C3700 0.930 . S
H3692 C3705 0.929 . S
H3693 C3703 0.929 . S
H3694 C3698 0.929 . S
H3695 C3704 0.929 . S
C3696 H3690 0.930 . S
C3696 C3697 1.367 . S
C3696 C3704 1.378 . S
C3697 C3696 1.367 . S
C3697 C3705 1.433 . S
C3698 H3694 0.929 . S
C3698 C3700 1.378 . S
C3698 C3702 1.350 . S
C3699 C3702 1.463 . S
C3699 C3704 1.350 . S
C3699 N3707 1.427 . S
C3700 H3691 0.930 . S
C3700 C3698 1.378 . S
C3700 C3701 1.367 . S
C3701 C3700 1.367 . S
C3701 C3703 1.433 . S
C3702 C3698 1.350 . S
C3702 C3699 1.463 . S
C3702 N3706 1.427 . S
C3703 H3693 0.929 . S
C3703 C3701 1.433 . S
C3703 N3706 1.384 . S
C3704 H3695 0.929 . S
C3704 C3696 1.378 . S
C3704 C3699 1.350 . S
C3705 H3692 0.929 . S
C3705 C3697 1.433 . S
C3705 N3707 1.384 . S
N3706 C3702 1.427 . S
N3706 C3703 1.384 . S
N3707 C3699 1.427 . S
N3707 C3705 1.384 . S
H3708 C3714 0.930 . S
H3709 C3718 0.930 . S
H3710 C3723 0.929 . S
H3711 C3721 0.929 . S
H3712 C3716 0.929 . S
H3713 C3722 0.929 . S
C3714 H3708 0.930 . S
C3714 C3715 1.367 . S
C3714 C3722 1.378 . S
C3715 C3714 1.367 . S
C3715 C3723 1.433 . S
C3716 H3712 0.929 . S
C3716 C3718 1.378 . S
C3716 C3720 1.350 . S
C3717 C3720 1.463 . S
C3717 C3722 1.350 . S
C3717 N3725 1.427 . S
C3718 H3709 0.930 . S
C3718 C3716 1.378 . S
C3718 C3719 1.367 . S
C3719 C3718 1.367 . S
C3719 C3721 1.433 . S
C3720 C3716 1.350 . S
C3720 C3717 1.463 . S
C3720 N3724 1.427 . S
C3721 H3711 0.929 . S
C3721 C3719 1.433 . S
C3721 N3724 1.384 . S
C3722 H3713 0.929 . S
C3722 C3714 1.378 . S
C3722 C3717 1.350 . S
C3723 H3710 0.929 . S
C3723 C3715 1.433 . S
C3723 N3725 1.384 . S
N3724 C3720 1.427 . S
N3724 C3721 1.384 . S
N3725 C3717 1.427 . S
N3725 C3723 1.384 . S
H3726 C3732 0.930 . S
H3727 C3736 0.930 . S
H3728 C3741 0.929 . S
H3729 C3739 0.929 . S
H3730 C3734 0.929 . S
H3731 C3740 0.929 . S
C3732 H3726 0.930 . S
C3732 C3733 1.367 . S
C3732 C3740 1.378 . S
C3733 C3732 1.367 . S
C3733 C3741 1.433 . S
C3734 H3730 0.929 . S
C3734 C3736 1.378 . S
C3734 C3738 1.350 . S
C3735 C3738 1.463 . S
C3735 C3740 1.350 . S
C3735 N3743 1.427 . S
C3736 H3727 0.930 . S
C3736 C3734 1.378 . S
C3736 C3737 1.367 . S
C3737 C3736 1.367 . S
C3737 C3739 1.433 . S
C3738 C3734 1.350 . S
C3738 C3735 1.463 . S
C3738 N3742 1.427 . S
C3739 H3729 0.929 . S
C3739 C3737 1.433 . S
C3739 N3742 1.384 . S
C3740 H3731 0.929 . S
C3740 C3732 1.378 . S
C3740 C3735 1.350 . S
C3741 H3728 0.929 . S
C3741 C3733 1.433 . S
C3741 N3743 1.384 . S
N3742 C3738 1.427 . S
N3742 C3739 1.384 . S
N3743 C3735 1.427 . S
N3743 C3741 1.384 . S
H3744 C3750 0.930 . S
H3745 C3754 0.930 . S
H3746 C3759 0.929 . S
H3747 C3757 0.929 . S
H3748 C3752 0.929 . S
H3749 C3758 0.929 . S
C3750 H3744 0.930 . S
C3750 C3751 1.368 . S
C3750 C3758 1.378 . S
C3751 C3750 1.368 . S
C3751 C3759 1.431 1_556 S
C3752 H3748 0.929 . S
C3752 C3754 1.378 . S
C3752 C3756 1.350 1_545 S
C3753 C3756 1.463 . S
C3753 C3758 1.350 1_554 S
C3753 N3761 1.427 . S
C3754 H3745 0.930 . S
C3754 C3752 1.378 . S
C3754 C3755 1.367 1_545 S
C3755 C3754 1.367 1_565 S
C3755 C3757 1.433 . S
C3756 C3752 1.350 1_565 S
C3756 C3753 1.463 . S
C3756 N3760 1.427 . S
C3757 H3747 0.929 . S
C3757 C3755 1.433 . S
C3757 N3760 1.384 . S
C3758 H3749 0.929 . S
C3758 C3750 1.378 . S
C3758 C3753 1.350 1_556 S
C3759 H3746 0.929 . S
C3759 C3751 1.431 1_554 S
C3759 N3761 1.384 . S
N3760 C3756 1.427 . S
N3760 C3757 1.384 . S
N3761 C3753 1.427 . S
N3761 C3759 1.384 . S
H3762 C3768 0.930 . S
H3763 C3772 0.930 . S
H3764 C3777 0.929 . S
H3765 C3775 0.929 1_556 S
H3766 C3770 0.929 . S
H3767 C3776 0.929 . S
C3768 H3762 0.930 . S
C3768 C3769 1.367 1_556 S
C3768 C3776 1.378 . S
C3769 C3768 1.367 1_554 S
C3769 C3777 1.433 . S
C3770 H3766 0.929 . S
C3770 C3772 1.378 . S
C3770 C3774 1.350 . S
C3771 C3774 1.463 . S
C3771 C3776 1.350 1_554 S
C3771 N3779 1.427 . S
C3772 H3763 0.930 . S
C3772 C3770 1.378 . S
C3772 C3773 1.367 . S
C3773 C3772 1.367 . S
C3773 C3775 1.433 . S
C3774 C3770 1.350 . S
C3774 C3771 1.463 . S
C3774 N3778 1.434 . S
C3775 H3765 0.929 1_554 S
C3775 C3773 1.433 . S
C3775 N3778 1.390 . S
C3776 H3767 0.929 . S
C3776 C3768 1.378 . S
C3776 C3771 1.350 1_556 S
C3777 H3764 0.929 . S
C3777 C3769 1.433 . S
C3777 N3779 1.384 . S
N3778 C3774 1.434 . S
N3778 C3775 1.390 . S
N3779 C3771 1.427 . S
N3779 C3777 1.384 . S
H3780 C3786 0.930 . S
H3781 C3790 0.930 . S
H3782 C3795 0.929 . S
H3783 C3793 0.929 . S
H3784 C3788 0.929 . S
H3785 C3794 0.929 . S
C3786 H3780 0.930 . S
C3786 C3787 1.367 . S
C3786 C3794 1.378 . S
C3787 C3786 1.367 . S
C3787 C3795 1.433 . S
C3788 H3784 0.929 . S
C3788 C3790 1.378 . S
C3788 C3792 1.350 . S
C3789 C3792 1.463 . S
C3789 C3794 1.350 . S
C3789 N3797 1.427 . S
C3790 H3781 0.930 . S
C3790 C3788 1.378 . S
C3790 C3791 1.367 . S
C3791 C3790 1.367 . S
C3791 C3793 1.433 . S
C3792 C3788 1.350 . S
C3792 C3789 1.463 . S
C3792 N3796 1.427 . S
C3793 H3783 0.929 . S
C3793 C3791 1.433 . S
C3793 N3796 1.384 . S
C3794 H3785 0.929 . S
C3794 C3786 1.378 . S
C3794 C3789 1.350 . S
C3795 H3782 0.929 . S
C3795 C3787 1.433 . S
C3795 N3797 1.384 . S
N3796 C3792 1.427 . S
N3796 C3793 1.384 . S
N3797 C3789 1.427 . S
N3797 C3795 1.384 . S
H3798 C3804 0.930 . S
H3799 C3808 0.930 . S
H3800 C3813 0.929 . S
H3801 C3811 0.929 . S
H3802 C3806 0.929 . S
H3803 C3812 0.929 . S
C3804 H3798 0.930 . S
C3804 C3805 1.367 . S
C3804 C3812 1.378 . S
C3805 C3804 1.367 . S
C3805 C3813 1.433 . S
C3806 H3802 0.929 . S
C3806 C3808 1.378 . S
C3806 C3810 1.350 . S
C3807 C3810 1.463 . S
C3807 C3812 1.350 . S
C3807 N3815 1.427 . S
C3808 H3799 0.930 . S
C3808 C3806 1.378 . S
C3808 C3809 1.367 . S
C3809 C3808 1.367 . S
C3809 C3811 1.433 . S
C3810 C3806 1.350 . S
C3810 C3807 1.463 . S
C3810 N3814 1.427 . S
C3811 H3801 0.929 . S
C3811 C3809 1.433 . S
C3811 N3814 1.384 . S
C3812 H3803 0.929 . S
C3812 C3804 1.378 . S
C3812 C3807 1.350 . S
C3813 H3800 0.929 . S
C3813 C3805 1.433 . S
C3813 N3815 1.384 . S
N3814 C3810 1.427 . S
N3814 C3811 1.384 . S
N3815 C3807 1.427 . S
N3815 C3813 1.384 . S
H3816 C3822 0.930 . S
H3817 C3826 0.930 . S
H3818 C3831 0.929 . S
H3819 C3829 0.929 . S
H3820 C3824 0.929 . S
H3821 C3830 0.929 . S
C3822 H3816 0.930 . S
C3822 C3823 1.367 . S
C3822 C3830 1.378 . S
C3823 C3822 1.367 . S
C3823 C3831 1.433 . S
C3824 H3820 0.929 . S
C3824 C3826 1.378 . S
C3824 C3828 1.350 . S
C3825 C3828 1.463 . S
C3825 C3830 1.350 . S
C3825 N3833 1.427 . S
C3826 H3817 0.930 . S
C3826 C3824 1.378 . S
C3826 C3827 1.367 . S
C3827 C3826 1.367 . S
C3827 C3829 1.433 . S
C3828 C3824 1.350 . S
C3828 C3825 1.463 . S
C3828 N3832 1.427 . S
C3829 H3819 0.929 . S
C3829 C3827 1.433 . S
C3829 N3832 1.384 . S
C3830 H3821 0.929 . S
C3830 C3822 1.378 . S
C3830 C3825 1.350 . S
C3831 H3818 0.929 . S
C3831 C3823 1.433 . S
C3831 N3833 1.384 . S
N3832 C3828 1.427 . S
N3832 C3829 1.384 . S
N3833 C3825 1.427 . S
N3833 C3831 1.384 . S
H3834 C3840 0.930 . S
H3835 C3844 0.930 . S
H3836 C3849 0.929 . S
H3837 C3847 0.929 . S
H3838 C3842 0.929 . S
H3839 C3848 0.929 . S
C3840 H3834 0.930 . S
C3840 C3841 1.367 . S
C3840 C3848 1.378 . S
C3841 C3840 1.367 . S
C3841 C3849 1.433 . S
C3842 H3838 0.929 . S
C3842 C3844 1.378 . S
C3842 C3846 1.350 . S
C3843 C3846 1.463 . S
C3843 C3848 1.350 . S
C3843 N3851 1.427 . S
C3844 H3835 0.930 . S
C3844 C3842 1.378 . S
C3844 C3845 1.367 . S
C3845 C3844 1.367 . S
C3845 C3847 1.433 . S
C3846 C3842 1.350 . S
C3846 C3843 1.463 . S
C3846 N3850 1.427 . S
C3847 H3837 0.929 . S
C3847 C3845 1.433 . S
C3847 N3850 1.384 . S
C3848 H3839 0.929 . S
C3848 C3840 1.378 . S
C3848 C3843 1.350 . S
C3849 H3836 0.929 . S
C3849 C3841 1.433 . S
C3849 N3851 1.384 . S
N3850 C3846 1.427 . S
N3850 C3847 1.384 . S
N3851 C3843 1.427 . S
N3851 C3849 1.384 . S
H3852 C3858 0.930 . S
H3853 C3862 0.930 . S
H3854 C3867 0.929 . S
H3855 C3865 0.929 . S
H3856 C3860 0.929 . S
H3857 C3866 0.929 . S
C3858 H3852 0.930 . S
C3858 C3859 1.367 . S
C3858 C3866 1.378 . S
C3859 C3858 1.367 . S
C3859 C3867 1.433 . S
C3860 H3856 0.929 . S
C3860 C3862 1.378 . S
C3860 C3864 1.350 . S
C3861 C3864 1.463 . S
C3861 C3866 1.350 . S
C3861 N3869 1.427 . S
C3862 H3853 0.930 . S
C3862 C3860 1.378 . S
C3862 C3863 1.367 . S
C3863 C3862 1.367 . S
C3863 C3865 1.433 . S
C3864 C3860 1.350 . S
C3864 C3861 1.463 . S
C3864 N3868 1.427 . S
C3865 H3855 0.929 . S
C3865 C3863 1.433 . S
C3865 N3868 1.384 . S
C3866 H3857 0.929 . S
C3866 C3858 1.378 . S
C3866 C3861 1.350 . S
C3867 H3854 0.929 . S
C3867 C3859 1.433 . S
C3867 N3869 1.384 . S
N3868 C3864 1.427 . S
N3868 C3865 1.384 . S
N3869 C3861 1.427 . S
N3869 C3867 1.384 . S
H3870 C3876 0.930 . S
H3871 C3880 0.930 . S
H3872 C3885 0.929 . S
H3873 C3883 0.929 . S
H3874 C3878 0.929 . S
H3875 C3884 0.929 . S
C3876 H3870 0.930 . S
C3876 C3877 1.367 . S
C3876 C3884 1.378 . S
C3877 C3876 1.367 . S
C3877 C3885 1.433 . S
C3878 H3874 0.929 . S
C3878 C3880 1.378 . S
C3878 C3882 1.350 . S
C3879 C3882 1.463 . S
C3879 C3884 1.350 . S
C3879 N3887 1.427 . S
C3880 H3871 0.930 . S
C3880 C3878 1.378 . S
C3880 C3881 1.367 . S
C3881 C3880 1.367 . S
C3881 C3883 1.433 . S
C3882 C3878 1.350 . S
C3882 C3879 1.463 . S
C3882 N3886 1.427 . S
C3883 H3873 0.929 . S
C3883 C3881 1.433 . S
C3883 N3886 1.384 . S
C3884 H3875 0.929 . S
C3884 C3876 1.378 . S
C3884 C3879 1.350 . S
C3885 H3872 0.929 . S
C3885 C3877 1.433 . S
C3885 N3887 1.384 . S
N3886 C3882 1.427 . S
N3886 C3883 1.384 . S
N3887 C3879 1.427 . S
N3887 C3885 1.384 . S
H3888 C3894 0.930 . S
H3889 C3898 0.930 . S
H3890 C3903 0.929 . S
H3891 C3901 0.929 . S
H3892 C3896 0.929 . S
H3893 C3902 0.929 . S
C3894 H3888 0.930 . S
C3894 C3895 1.367 . S
C3894 C3902 1.378 . S
C3895 C3894 1.367 . S
C3895 C3903 1.433 . S
C3896 H3892 0.929 . S
C3896 C3898 1.378 . S
C3896 C3900 1.350 . S
C3897 C3900 1.463 . S
C3897 C3902 1.350 . S
C3897 N3905 1.427 . S
C3898 H3889 0.930 . S
C3898 C3896 1.378 . S
C3898 C3899 1.367 . S
C3899 C3898 1.367 . S
C3899 C3901 1.433 . S
C3900 C3896 1.350 . S
C3900 C3897 1.463 . S
C3900 N3904 1.427 . S
C3901 H3891 0.929 . S
C3901 C3899 1.433 . S
C3901 N3904 1.384 . S
C3902 H3893 0.929 . S
C3902 C3894 1.378 . S
C3902 C3897 1.350 . S
C3903 H3890 0.929 . S
C3903 C3895 1.433 . S
C3903 N3905 1.384 . S
N3904 C3900 1.427 . S
N3904 C3901 1.384 . S
N3905 C3897 1.427 . S
N3905 C3903 1.384 . S
H3906 C3912 0.930 . S
H3907 C3916 0.930 . S
H3908 C3921 0.929 . S
H3909 C3919 0.929 . S
H3910 C3914 0.929 . S
H3911 C3920 0.929 . S
C3912 H3906 0.930 . S
C3912 C3913 1.367 . S
C3912 C3920 1.378 . S
C3913 C3912 1.367 . S
C3913 C3921 1.433 . S
C3914 H3910 0.929 . S
C3914 C3916 1.378 . S
C3914 C3918 1.350 . S
C3915 C3918 1.463 . S
C3915 C3920 1.350 . S
C3915 N3923 1.427 . S
C3916 H3907 0.930 . S
C3916 C3914 1.378 . S
C3916 C3917 1.367 . S
C3917 C3916 1.367 . S
C3917 C3919 1.433 . S
C3918 C3914 1.350 . S
C3918 C3915 1.463 . S
C3918 N3922 1.427 . S
C3919 H3909 0.929 . S
C3919 C3917 1.433 . S
C3919 N3922 1.384 . S
C3920 H3911 0.929 . S
C3920 C3912 1.378 . S
C3920 C3915 1.350 . S
C3921 H3908 0.929 . S
C3921 C3913 1.433 . S
C3921 N3923 1.384 . S
N3922 C3918 1.427 . S
N3922 C3919 1.384 . S
N3923 C3915 1.427 . S
N3923 C3921 1.384 . S
H3924 C3930 0.930 . S
H3925 C3934 0.930 . S
H3926 C3939 0.929 . S
H3927 C3937 0.929 . S
H3928 C3932 0.929 . S
H3929 C3938 0.929 . S
C3930 H3924 0.930 . S
C3930 C3931 1.367 . S
C3930 C3938 1.378 . S
C3931 C3930 1.367 . S
C3931 C3939 1.433 . S
C3932 H3928 0.929 . S
C3932 C3934 1.378 . S
C3932 C3936 1.350 . S
C3933 C3936 1.463 . S
C3933 C3938 1.350 . S
C3933 N3941 1.427 . S
C3934 H3925 0.930 . S
C3934 C3932 1.378 . S
C3934 C3935 1.367 . S
C3935 C3934 1.367 . S
C3935 C3937 1.433 . S
C3936 C3932 1.350 . S
C3936 C3933 1.463 . S
C3936 N3940 1.427 . S
C3937 H3927 0.929 . S
C3937 C3935 1.433 . S
C3937 N3940 1.384 . S
C3938 H3929 0.929 . S
C3938 C3930 1.378 . S
C3938 C3933 1.350 . S
C3939 H3926 0.929 . S
C3939 C3931 1.433 . S
C3939 N3941 1.384 . S
N3940 C3936 1.427 . S
N3940 C3937 1.384 . S
N3941 C3933 1.427 . S
N3941 C3939 1.384 . S
H3942 C3948 0.930 . S
H3943 C3952 0.930 . S
H3944 C3957 0.929 . S
H3945 C3955 0.929 . S
H3946 C3950 0.929 . S
H3947 C3956 0.929 . S
C3948 H3942 0.930 . S
C3948 C3949 1.367 . S
C3948 C3956 1.378 . S
C3949 C3948 1.367 . S
C3949 C3957 1.433 . S
C3950 H3946 0.929 . S
C3950 C3952 1.378 . S
C3950 C3954 1.350 . S
C3951 C3954 1.463 . S
C3951 C3956 1.350 . S
C3951 N3959 1.427 . S
C3952 H3943 0.930 . S
C3952 C3950 1.378 . S
C3952 C3953 1.367 . S
C3953 C3952 1.367 . S
C3953 C3955 1.433 . S
C3954 C3950 1.350 . S
C3954 C3951 1.463 . S
C3954 N3958 1.427 . S
C3955 H3945 0.929 . S
C3955 C3953 1.433 . S
C3955 N3958 1.384 . S
C3956 H3947 0.929 . S
C3956 C3948 1.378 . S
C3956 C3951 1.350 . S
C3957 H3944 0.929 . S
C3957 C3949 1.433 . S
C3957 N3959 1.384 . S
N3958 C3954 1.427 . S
N3958 C3955 1.384 . S
N3959 C3951 1.427 . S
N3959 C3957 1.384 . S
H3960 C3966 0.930 . S
H3961 C3970 0.930 . S
H3962 C3975 0.929 . S
H3963 C3973 0.929 1_655 S
H3964 C3968 0.929 . S
H3965 C3974 0.973 . S
C3966 H3960 0.930 . S
C3966 C3967 1.367 . S
C3966 C3974 1.378 . S
C3967 C3966 1.367 . S
C3967 C3975 1.433 . S
C3968 H3964 0.929 . S
C3968 C3970 1.378 . S
C3968 C3972 1.350 . S
C3969 C3972 1.463 . S
C3969 C3974 1.350 . S
C3969 N3977 1.427 . S
C3970 H3961 0.930 . S
C3970 C3968 1.378 . S
C3970 C3971 1.367 . S
C3971 C3970 1.367 . S
C3971 C3973 1.433 . S
C3972 C3968 1.350 . S
C3972 C3969 1.463 . S
C3972 N3976 1.427 . S
C3973 H3963 0.929 1_455 S
C3973 C3971 1.433 . S
C3973 N3976 1.384 . S
C3974 H3965 0.973 . S
C3974 C3966 1.378 . S
C3974 C3969 1.350 . S
C3975 H3962 0.929 . S
C3975 C3967 1.433 . S
C3975 N3977 1.384 . S
N3976 C3972 1.427 . S
N3976 C3973 1.384 . S
N3977 C3969 1.427 . S
N3977 C3975 1.384 . S
H3978 C3984 0.930 . S
H3979 C3988 0.930 . S
H3980 C3993 0.929 . S
H3981 C3991 0.929 . S
H3982 C3986 0.929 . S
H3983 C3992 0.929 . S
C3984 H3978 0.930 . S
C3984 C3985 1.367 . S
C3984 C3992 1.378 . S
C3985 C3984 1.367 . S
C3985 C3993 1.433 . S
C3986 H3982 0.929 . S
C3986 C3988 1.378 . S
C3986 C3990 1.350 . S
C3987 C3990 1.463 . S
C3987 C3992 1.350 . S
C3987 N3995 1.427 . S
C3988 H3979 0.930 . S
C3988 C3986 1.378 . S
C3988 C3989 1.367 . S
C3989 C3988 1.367 . S
C3989 C3991 1.433 . S
C3990 C3986 1.350 . S
C3990 C3987 1.463 . S
C3990 N3994 1.427 . S
C3991 H3981 0.929 . S
C3991 C3989 1.433 . S
C3991 N3994 1.384 . S
C3992 H3983 0.929 . S
C3992 C3984 1.378 . S
C3992 C3987 1.350 . S
C3993 H3980 0.929 . S
C3993 C3985 1.433 . S
C3993 N3995 1.384 . S
N3994 C3990 1.427 . S
N3994 C3991 1.384 . S
N3995 C3987 1.427 . S
N3995 C3993 1.384 . S
H3996 C4002 0.930 . S
H3997 C4006 0.930 . S
H3998 C4011 0.929 . S
H3999 C4009 0.929 1_554 S
H4000 C4004 0.929 . S
H4001 C4010 0.929 . S
C4002 H3996 0.930 . S
C4002 C4003 1.367 . S
C4002 C4010 1.378 . S
C4003 C4002 1.367 . S
C4003 C4011 1.433 . S
C4004 H4000 0.929 . S
C4004 C4006 1.378 . S
C4004 C4008 1.350 . S
C4005 C4008 1.463 . S
C4005 C4010 1.350 . S
C4005 N4013 1.427 . S
C4006 H3997 0.930 . S
C4006 C4004 1.378 . S
C4006 C4007 1.367 . S
C4007 C4006 1.367 . S
C4007 C4009 1.433 . S
C4008 C4004 1.350 . S
C4008 C4005 1.463 . S
C4008 N4012 1.427 . S
C4009 H3999 0.929 1_556 S
C4009 C4007 1.433 . S
C4009 N4012 1.384 . S
C4010 H4001 0.929 . S
C4010 C4002 1.378 . S
C4010 C4005 1.350 . S
C4011 H3998 0.929 . S
C4011 C4003 1.433 . S
C4011 N4013 1.384 . S
N4012 C4008 1.427 . S
N4012 C4009 1.384 . S
N4013 C4005 1.427 . S
N4013 C4011 1.384 . S
H4014 C4020 0.930 . S
H4015 C4024 0.930 . S
H4016 C4029 0.929 . S
H4017 C4027 0.929 . S
H4018 C4022 0.929 . S
H4019 C4028 0.929 . S
C4020 H4014 0.930 . S
C4020 C4021 1.367 . S
C4020 C4028 1.378 . S
C4021 C4020 1.367 . S
C4021 C4029 1.433 . S
C4022 H4018 0.929 . S
C4022 C4024 1.378 . S
C4022 C4026 1.350 . S
C4023 C4026 1.463 . S
C4023 C4028 1.350 . S
C4023 N4031 1.427 . S
C4024 H4015 0.930 . S
C4024 C4022 1.378 . S
C4024 C4025 1.367 . S
C4025 C4024 1.367 . S
C4025 C4027 1.433 . S
C4026 C4022 1.350 . S
C4026 C4023 1.463 . S
C4026 N4030 1.427 . S
C4027 H4017 0.929 . S
C4027 C4025 1.433 . S
C4027 N4030 1.384 . S
C4028 H4019 0.929 . S
C4028 C4020 1.378 . S
C4028 C4023 1.350 . S
C4029 H4016 0.929 . S
C4029 C4021 1.433 . S
C4029 N4031 1.384 . S
N4030 C4026 1.427 . S
N4030 C4027 1.384 . S
N4031 C4023 1.427 . S
N4031 C4029 1.384 . S
H4032 C4038 0.930 . S
H4033 C4042 0.930 . S
H4034 C4047 0.929 . S
H4035 C4045 0.929 . S
H4036 C4040 0.929 . S
H4037 C4046 0.929 . S
C4038 H4032 0.930 . S
C4038 C4039 1.367 . S
C4038 C4046 1.378 . S
C4039 C4038 1.367 . S
C4039 C4047 1.433 . S
C4040 H4036 0.929 . S
C4040 C4042 1.378 . S
C4040 C4044 1.350 . S
C4041 C4044 1.463 . S
C4041 C4046 1.350 . S
C4041 N4049 1.427 . S
C4042 H4033 0.930 . S
C4042 C4040 1.378 . S
C4042 C4043 1.367 . S
C4043 C4042 1.367 . S
C4043 C4045 1.433 . S
C4044 C4040 1.350 . S
C4044 C4041 1.463 . S
C4044 N4048 1.427 . S
C4045 H4035 0.929 . S
C4045 C4043 1.433 . S
C4045 N4048 1.384 . S
C4046 H4037 0.929 . S
C4046 C4038 1.378 . S
C4046 C4041 1.350 . S
C4047 H4034 0.929 . S
C4047 C4039 1.433 . S
C4047 N4049 1.384 . S
N4048 C4044 1.427 . S
N4048 C4045 1.384 . S
N4049 C4041 1.427 . S
N4049 C4047 1.384 . S
H4050 C4056 0.930 . S
H4051 C4060 0.930 . S
H4052 C4065 0.929 . S
H4053 C4063 0.929 . S
H4054 C4058 0.929 . S
H4055 C4064 0.929 . S
C4056 H4050 0.930 . S
C4056 C4057 1.367 . S
C4056 C4064 1.378 . S
C4057 C4056 1.367 . S
C4057 C4065 1.433 . S
C4058 H4054 0.929 . S
C4058 C4060 1.378 . S
C4058 C4062 1.350 . S
C4059 C4062 1.463 . S
C4059 C4064 1.350 . S
C4059 N4067 1.427 . S
C4060 H4051 0.930 . S
C4060 C4058 1.378 . S
C4060 C4061 1.367 . S
C4061 C4060 1.367 . S
C4061 C4063 1.433 . S
C4062 C4058 1.350 . S
C4062 C4059 1.463 . S
C4062 N4066 1.427 . S
C4063 H4053 0.929 . S
C4063 C4061 1.433 . S
C4063 N4066 1.384 . S
C4064 H4055 0.929 . S
C4064 C4056 1.378 . S
C4064 C4059 1.350 . S
C4065 H4052 0.929 . S
C4065 C4057 1.433 . S
C4065 N4067 1.384 . S
N4066 C4062 1.427 . S
N4066 C4063 1.384 . S
N4067 C4059 1.427 . S
N4067 C4065 1.384 . S
H4068 C4074 0.930 . S
H4069 C4078 0.930 . S
H4070 C4083 0.929 . S
H4071 C4081 0.929 . S
H4072 C4076 0.929 . S
H4073 C4082 0.929 . S
C4074 H4068 0.930 . S
C4074 C4075 1.367 . S
C4074 C4082 1.378 . S
C4075 C4074 1.367 . S
C4075 C4083 1.433 . S
C4076 H4072 0.929 . S
C4076 C4078 1.378 . S
C4076 C4080 1.350 . S
C4077 C4080 1.463 . S
C4077 C4082 1.350 . S
C4077 N4085 1.427 . S
C4078 H4069 0.930 . S
C4078 C4076 1.378 . S
C4078 C4079 1.367 . S
C4079 C4078 1.367 . S
C4079 C4081 1.433 . S
C4080 C4076 1.350 . S
C4080 C4077 1.463 . S
C4080 N4084 1.427 . S
C4081 H4071 0.929 . S
C4081 C4079 1.433 . S
C4081 N4084 1.384 . S
C4082 H4073 0.929 . S
C4082 C4074 1.378 . S
C4082 C4077 1.350 . S
C4083 H4070 0.929 . S
C4083 C4075 1.433 . S
C4083 N4085 1.384 . S
N4084 C4080 1.427 . S
N4084 C4081 1.384 . S
N4085 C4077 1.427 . S
N4085 C4083 1.384 . S
H4086 C4092 0.930 . S
H4087 C4096 0.930 . S
H4088 C4101 0.929 . S
H4089 C4099 0.929 . S
H4090 C4094 0.929 . S
H4091 C4100 0.929 . S
C4092 H4086 0.930 . S
C4092 C4093 1.367 . S
C4092 C4100 1.378 . S
C4093 C4092 1.367 . S
C4093 C4101 1.433 . S
C4094 H4090 0.929 . S
C4094 C4096 1.378 . S
C4094 C4098 1.350 . S
C4095 C4098 1.463 . S
C4095 C4100 1.350 . S
C4095 N4103 1.427 . S
C4096 H4087 0.930 . S
C4096 C4094 1.378 . S
C4096 C4097 1.367 . S
C4097 C4096 1.367 . S
C4097 C4099 1.433 . S
C4098 C4094 1.350 . S
C4098 C4095 1.463 . S
C4098 N4102 1.427 . S
C4099 H4089 0.929 . S
C4099 C4097 1.433 . S
C4099 N4102 1.384 . S
C4100 H4091 0.929 . S
C4100 C4092 1.378 . S
C4100 C4095 1.350 . S
C4101 H4088 0.929 . S
C4101 C4093 1.433 . S
C4101 N4103 1.384 . S
N4102 C4098 1.427 . S
N4102 C4099 1.384 . S
N4103 C4095 1.427 . S
N4103 C4101 1.384 . S
H4104 C4110 0.930 1_565 S
H4105 C4114 0.930 . S
H4106 C4119 0.929 . S
H4107 C4117 0.929 1_565 S
H4108 C4112 0.929 . S
H4109 C4118 0.929 1_565 S
C4110 H4104 0.930 1_545 S
C4110 C4111 1.367 . S
C4110 C4118 1.378 . S
C4111 C4110 1.367 . S
C4111 C4119 1.433 . S
C4112 H4108 0.929 . S
C4112 C4114 1.378 . S
C4112 C4116 1.350 . S
C4113 C4116 1.463 . S
C4113 C4118 1.350 . S
C4113 N4121 1.427 . S
C4114 H4105 0.930 . S
C4114 C4112 1.378 . S
C4114 C4115 1.367 . S
C4115 C4114 1.367 . S
C4115 C4117 1.433 . S
C4116 C4112 1.350 . S
C4116 C4113 1.463 . S
C4116 N4120 1.427 . S
C4117 H4107 0.929 1_545 S
C4117 C4115 1.433 . S
C4117 N4120 1.384 . S
C4118 H4109 0.929 1_545 S
C4118 C4110 1.378 . S
C4118 C4113 1.350 . S
C4119 H4106 0.929 . S
C4119 C4111 1.433 . S
C4119 N4121 1.384 . S
N4120 C4116 1.427 . S
N4120 C4117 1.384 . S
N4121 C4113 1.427 . S
N4121 C4119 1.384 . S
H4122 C4128 0.930 . S
H4123 C4132 0.930 . S
H4124 C4137 0.929 . S
H4125 C4135 0.929 . S
H4126 C4130 0.929 . S
H4127 C4136 0.929 . S
C4128 H4122 0.930 . S
C4128 C4129 1.367 . S
C4128 C4136 1.378 . S
C4129 C4128 1.367 . S
C4129 C4137 1.433 . S
C4130 H4126 0.929 . S
C4130 C4132 1.378 . S
C4130 C4134 1.350 . S
C4131 C4134 1.463 . S
C4131 C4136 1.350 . S
C4131 N4139 1.427 . S
C4132 H4123 0.930 . S
C4132 C4130 1.378 . S
C4132 C4133 1.367 . S
C4133 C4132 1.367 . S
C4133 C4135 1.433 . S
C4134 C4130 1.350 . S
C4134 C4131 1.463 . S
C4134 N4138 1.427 . S
C4135 H4125 0.929 . S
C4135 C4133 1.433 . S
C4135 N4138 1.384 . S
C4136 H4127 0.929 . S
C4136 C4128 1.378 . S
C4136 C4131 1.350 . S
C4137 H4124 0.929 . S
C4137 C4129 1.433 . S
C4137 N4139 1.384 . S
N4138 C4134 1.427 . S
N4138 C4135 1.384 . S
N4139 C4131 1.427 . S
N4139 C4137 1.384 . S
H4140 C4146 0.930 . S
H4141 C4150 0.930 . S
H4142 C4155 0.929 . S
H4143 C4153 0.929 . S
H4144 C4148 0.929 . S
H4145 C4154 0.929 . S
C4146 H4140 0.930 . S
C4146 C4147 1.367 1_565 S
C4146 C4154 1.378 . S
C4147 C4146 1.367 1_545 S
C4147 C4155 1.433 . S
C4148 H4144 0.929 . S
C4148 C4150 1.378 . S
C4148 C4152 1.350 . S
C4149 C4152 1.463 . S
C4149 C4154 1.350 1_545 S
C4149 N4157 1.427 . S
C4150 H4141 0.930 . S
C4150 C4148 1.378 . S
C4150 C4151 1.367 . S
C4151 C4150 1.367 . S
C4151 C4153 1.433 1_545 S
C4152 C4148 1.350 . S
C4152 C4149 1.463 . S
C4152 N4156 1.427 1_545 S
C4153 H4143 0.929 . S
C4153 C4151 1.433 1_565 S
C4153 N4156 1.384 . S
C4154 H4145 0.929 . S
C4154 C4146 1.378 . S
C4154 C4149 1.350 1_565 S
C4155 H4142 0.929 . S
C4155 C4147 1.433 . S
C4155 N4157 1.384 . S
N4156 C4152 1.427 1_565 S
N4156 C4153 1.384 . S
N4157 C4149 1.427 . S
N4157 C4155 1.384 . S
H4158 C4164 0.930 . S
H4159 C4168 0.930 . S
H4160 C4173 0.929 . S
H4161 C4171 0.929 . S
H4162 C4166 0.929 . S
H4163 C4172 0.929 . S
C4164 H4158 0.930 . S
C4164 C4165 1.367 . S
C4164 C4172 1.378 . S
C4165 C4164 1.367 . S
C4165 C4173 1.433 . S
C4166 H4162 0.929 . S
C4166 C4168 1.378 . S
C4166 C4170 1.350 . S
C4167 C4170 1.463 . S
C4167 C4172 1.350 . S
C4167 N4175 1.427 . S
C4168 H4159 0.930 . S
C4168 C4166 1.378 . S
C4168 C4169 1.367 . S
C4169 C4168 1.367 . S
C4169 C4171 1.433 . S
C4170 C4166 1.350 . S
C4170 C4167 1.463 . S
C4170 N4174 1.427 . S
C4171 H4161 0.929 . S
C4171 C4169 1.433 . S
C4171 N4174 1.384 . S
C4172 H4163 0.929 . S
C4172 C4164 1.378 . S
C4172 C4167 1.350 . S
C4173 H4160 0.929 . S
C4173 C4165 1.433 . S
C4173 N4175 1.384 . S
N4174 C4170 1.427 . S
N4174 C4171 1.384 . S
N4175 C4167 1.427 . S
N4175 C4173 1.384 . S
H4176 C4182 0.930 . S
H4177 C4186 0.930 1_556 S
H4178 C4191 0.929 . S
H4179 C4189 0.929 . S
H4180 C4184 0.929 . S
H4181 C4190 0.929 . S
C4182 H4176 0.930 . S
C4182 C4183 1.367 . S
C4182 C4190 1.378 . S
C4183 C4182 1.367 . S
C4183 C4191 1.433 . S
C4184 H4180 0.929 . S
C4184 C4186 1.378 . S
C4184 C4188 1.350 . S
C4185 C4188 1.463 . S
C4185 C4190 1.350 . S
C4185 N4193 1.427 . S
C4186 H4177 0.930 1_554 S
C4186 C4184 1.378 . S
C4186 C4187 1.367 . S
C4187 C4186 1.367 . S
C4187 C4189 1.433 . S
C4188 C4184 1.350 . S
C4188 C4185 1.463 . S
C4188 N4192 1.427 . S
C4189 H4179 0.929 . S
C4189 C4187 1.433 . S
C4189 N4192 1.384 . S
C4190 H4181 0.929 . S
C4190 C4182 1.378 . S
C4190 C4185 1.350 . S
C4191 H4178 0.929 . S
C4191 C4183 1.433 . S
C4191 N4193 1.384 . S
N4192 C4188 1.427 . S
N4192 C4189 1.384 . S
N4193 C4185 1.427 . S
N4193 C4191 1.384 . S
H4194 C4200 0.930 . S
H4195 C4204 0.930 . S
H4196 C4209 0.929 . S
H4197 C4207 0.929 . S
H4198 C4202 0.929 . S
H4199 C4208 0.929 . S
C4200 H4194 0.930 . S
C4200 C4201 1.367 . S
C4200 C4208 1.378 . S
C4201 C4200 1.367 . S
C4201 C4209 1.433 . S
C4202 H4198 0.929 . S
C4202 C4204 1.378 . S
C4202 C4206 1.350 . S
C4203 C4206 1.463 . S
C4203 C4208 1.350 . S
C4203 N4211 1.427 . S
C4204 H4195 0.930 . S
C4204 C4202 1.378 . S
C4204 C4205 1.367 . S
C4205 C4204 1.367 . S
C4205 C4207 1.433 . S
C4206 C4202 1.350 . S
C4206 C4203 1.463 . S
C4206 N4210 1.427 . S
C4207 H4197 0.929 . S
C4207 C4205 1.433 . S
C4207 N4210 1.384 . S
C4208 H4199 0.929 . S
C4208 C4200 1.378 . S
C4208 C4203 1.350 . S
C4209 H4196 0.929 . S
C4209 C4201 1.433 . S
C4209 N4211 1.384 . S
N4210 C4206 1.427 . S
N4210 C4207 1.384 . S
N4211 C4203 1.427 . S
N4211 C4209 1.384 . S
H4212 C4218 0.930 . S
H4213 C4222 0.930 . S
H4214 C4227 0.929 . S
H4215 C4225 0.929 . S
H4216 C4220 0.929 . S
H4217 C4226 0.929 . S
C4218 H4212 0.930 . S
C4218 C4219 1.367 . S
C4218 C4226 1.378 . S
C4219 C4218 1.367 . S
C4219 C4227 1.433 . S
C4220 H4216 0.929 . S
C4220 C4222 1.378 . S
C4220 C4224 1.350 . S
C4221 C4224 1.463 . S
C4221 C4226 1.350 . S
C4221 N4229 1.427 . S
C4222 H4213 0.930 . S
C4222 C4220 1.378 . S
C4222 C4223 1.367 . S
C4223 C4222 1.367 . S
C4223 C4225 1.433 . S
C4224 C4220 1.350 . S
C4224 C4221 1.463 . S
C4224 N4228 1.427 . S
C4225 H4215 0.929 . S
C4225 C4223 1.433 . S
C4225 N4228 1.384 . S
C4226 H4217 0.929 . S
C4226 C4218 1.378 . S
C4226 C4221 1.350 . S
C4227 H4214 0.929 . S
C4227 C4219 1.433 . S
C4227 N4229 1.384 . S
N4228 C4224 1.427 . S
N4228 C4225 1.384 . S
N4229 C4221 1.427 . S
N4229 C4227 1.384 . S
H4230 C4236 0.930 . S
H4231 C4240 0.930 . S
H4232 C4245 0.929 . S
H4233 C4243 0.929 . S
H4234 C4238 0.929 . S
H4235 C4244 0.929 . S
C4236 H4230 0.930 . S
C4236 C4237 1.367 . S
C4236 C4244 1.378 . S
C4237 C4236 1.367 . S
C4237 C4245 1.433 . S
C4238 H4234 0.929 . S
C4238 C4240 1.378 . S
C4238 C4242 1.350 . S
C4239 C4242 1.463 . S
C4239 C4244 1.350 . S
C4239 N4247 1.427 . S
C4240 H4231 0.930 . S
C4240 C4238 1.378 . S
C4240 C4241 1.367 . S
C4241 C4240 1.367 . S
C4241 C4243 1.433 . S
C4242 C4238 1.350 . S
C4242 C4239 1.463 . S
C4242 N4246 1.427 . S
C4243 H4233 0.929 . S
C4243 C4241 1.433 . S
C4243 N4246 1.384 . S
C4244 H4235 0.929 . S
C4244 C4236 1.378 . S
C4244 C4239 1.350 . S
C4245 H4232 0.929 . S
C4245 C4237 1.433 . S
C4245 N4247 1.384 . S
N4246 C4242 1.427 . S
N4246 C4243 1.384 . S
N4247 C4239 1.427 . S
N4247 C4245 1.384 . S
H4248 C4254 0.930 . S
H4249 C4258 0.930 . S
H4250 C4263 0.929 . S
H4251 C4261 0.929 . S
H4252 C4256 0.929 . S
H4253 C4262 0.929 . S
C4254 H4248 0.930 . S
C4254 C4255 1.367 . S
C4254 C4262 1.378 . S
C4255 C4254 1.367 . S
C4255 C4263 1.433 . S
C4256 H4252 0.929 . S
C4256 C4258 1.378 . S
C4256 C4260 1.350 . S
C4257 C4260 1.463 . S
C4257 C4262 1.350 . S
C4257 N4265 1.427 . S
C4258 H4249 0.930 . S
C4258 C4256 1.378 . S
C4258 C4259 1.367 . S
C4259 C4258 1.367 . S
C4259 C4261 1.433 . S
C4260 C4256 1.350 . S
C4260 C4257 1.463 . S
C4260 N4264 1.427 . S
C4261 H4251 0.929 . S
C4261 C4259 1.433 . S
C4261 N4264 1.384 . S
C4262 H4253 0.929 . S
C4262 C4254 1.378 . S
C4262 C4257 1.350 . S
C4263 H4250 0.929 . S
C4263 C4255 1.433 . S
C4263 N4265 1.384 . S
N4264 C4260 1.427 . S
N4264 C4261 1.384 . S
N4265 C4257 1.427 . S
N4265 C4263 1.384 . S
H4266 C4272 0.930 . S
H4267 C4276 0.930 . S
H4268 C4281 0.929 . S
H4269 C4279 0.949 . S
H4270 C4274 0.929 . S
H4271 C4280 0.929 . S
C4272 H4266 0.930 . S
C4272 C4273 1.367 . S
C4272 C4280 1.378 . S
C4273 C4272 1.367 . S
C4273 C4281 1.433 . S
C4274 H4270 0.929 . S
C4274 C4276 1.378 . S
C4274 C4278 1.350 . S
C4275 C4278 1.463 . S
C4275 C4280 1.350 . S
C4275 N4283 1.427 . S
C4276 H4267 0.930 . S
C4276 C4274 1.378 . S
C4276 C4277 1.367 . S
C4277 C4276 1.367 . S
C4277 C4279 1.433 . S
C4278 C4274 1.350 . S
C4278 C4275 1.463 . S
C4278 N4282 1.427 . S
C4279 H4269 0.949 . S
C4279 C4277 1.433 . S
C4279 N4282 1.384 . S
C4280 H4271 0.929 . S
C4280 C4272 1.378 . S
C4280 C4275 1.350 . S
C4281 H4268 0.929 . S
C4281 C4273 1.433 . S
C4281 N4283 1.384 . S
N4282 C4278 1.427 . S
N4282 C4279 1.384 . S
N4283 C4275 1.427 . S
N4283 C4281 1.384 . S
H4284 C4290 0.930 . S
H4285 C4294 0.930 . S
H4286 C4299 0.929 . S
H4287 C4297 0.929 . S
H4288 C4292 0.929 . S
H4289 C4298 0.929 . S
C4290 H4284 0.930 . S
C4290 C4291 1.367 . S
C4290 C4298 1.378 . S
C4291 C4290 1.367 . S
C4291 C4299 1.433 . S
C4292 H4288 0.929 . S
C4292 C4294 1.378 . S
C4292 C4296 1.350 . S
C4293 C4296 1.463 . S
C4293 C4298 1.350 . S
C4293 N4301 1.427 . S
C4294 H4285 0.930 . S
C4294 C4292 1.378 . S
C4294 C4295 1.367 . S
C4295 C4294 1.367 . S
C4295 C4297 1.433 . S
C4296 C4292 1.350 . S
C4296 C4293 1.463 . S
C4296 N4300 1.427 . S
C4297 H4287 0.929 . S
C4297 C4295 1.433 . S
C4297 N4300 1.384 . S
C4298 H4289 0.929 . S
C4298 C4290 1.378 . S
C4298 C4293 1.350 . S
C4299 H4286 0.929 . S
C4299 C4291 1.433 . S
C4299 N4301 1.384 . S
N4300 C4296 1.427 . S
N4300 C4297 1.384 . S
N4301 C4293 1.427 . S
N4301 C4299 1.384 . S
H4302 C4308 0.930 . S
H4303 C4312 0.930 . S
H4304 C4317 0.929 . S
H4305 C4315 0.929 . S
H4306 C4310 0.929 . S
H4307 C4316 0.929 . S
C4308 H4302 0.930 . S
C4308 C4309 1.367 . S
C4308 C4316 1.378 . S
C4309 C4308 1.367 . S
C4309 C4317 1.433 . S
C4310 H4306 0.929 . S
C4310 C4312 1.378 . S
C4310 C4314 1.350 . S
C4311 C4314 1.463 . S
C4311 C4316 1.350 . S
C4311 N4319 1.427 . S
C4312 H4303 0.930 . S
C4312 C4310 1.378 . S
C4312 C4313 1.367 . S
C4313 C4312 1.367 . S
C4313 C4315 1.433 . S
C4314 C4310 1.350 . S
C4314 C4311 1.463 . S
C4314 N4318 1.427 . S
C4315 H4305 0.929 . S
C4315 C4313 1.433 . S
C4315 N4318 1.384 . S
C4316 H4307 0.929 . S
C4316 C4308 1.378 . S
C4316 C4311 1.350 . S
C4317 H4304 0.929 . S
C4317 C4309 1.433 . S
C4317 N4319 1.384 . S
N4318 C4314 1.427 . S
N4318 C4315 1.384 . S
N4319 C4311 1.427 . S
N4319 C4317 1.384 . S
H4320 C4326 0.930 . S
H4321 C4330 0.930 . S
H4322 C4335 0.929 . S
H4323 C4333 0.929 . S
H4324 C4328 0.929 . S
H4325 C4334 0.929 . S
C4326 H4320 0.930 . S
C4326 C4327 1.367 . S
C4326 C4334 1.378 . S
C4327 C4326 1.367 . S
C4327 C4335 1.433 . S
C4328 H4324 0.929 . S
C4328 C4330 1.378 . S
C4328 C4332 1.350 . S
C4329 C4332 1.463 . S
C4329 C4334 1.350 . S
C4329 N4337 1.427 . S
C4330 H4321 0.930 . S
C4330 C4328 1.378 . S
C4330 C4331 1.367 . S
C4331 C4330 1.367 . S
C4331 C4333 1.433 . S
C4332 C4328 1.350 . S
C4332 C4329 1.463 . S
C4332 N4336 1.427 . S
C4333 H4323 0.929 . S
C4333 C4331 1.433 . S
C4333 N4336 1.384 . S
C4334 H4325 0.929 . S
C4334 C4326 1.378 . S
C4334 C4329 1.350 . S
C4335 H4322 0.929 . S
C4335 C4327 1.433 . S
C4335 N4337 1.384 . S
N4336 C4332 1.427 . S
N4336 C4333 1.384 . S
N4337 C4329 1.427 . S
N4337 C4335 1.384 . S
H4338 C4344 0.930 . S
H4339 C4348 0.930 . S
H4340 C4353 0.929 . S
H4341 C4351 0.929 . S
H4342 C4346 0.929 . S
H4343 C4352 0.929 . S
C4344 H4338 0.930 . S
C4344 C4345 1.367 . S
C4344 C4352 1.378 . S
C4345 C4344 1.367 . S
C4345 C4353 1.433 . S
C4346 H4342 0.929 . S
C4346 C4348 1.378 . S
C4346 C4350 1.350 . S
C4347 C4350 1.463 . S
C4347 C4352 1.350 . S
C4347 N4355 1.427 . S
C4348 H4339 0.930 . S
C4348 C4346 1.378 . S
C4348 C4349 1.367 . S
C4349 C4348 1.367 . S
C4349 C4351 1.433 . S
C4350 C4346 1.350 . S
C4350 C4347 1.463 . S
C4350 N4354 1.427 . S
C4351 H4341 0.929 . S
C4351 C4349 1.433 . S
C4351 N4354 1.384 . S
C4352 H4343 0.929 . S
C4352 C4344 1.378 . S
C4352 C4347 1.350 . S
C4353 H4340 0.929 . S
C4353 C4345 1.433 . S
C4353 N4355 1.384 . S
N4354 C4350 1.427 . S
N4354 C4351 1.384 . S
N4355 C4347 1.427 . S
N4355 C4353 1.384 . S
H4356 C4362 0.930 . S
H4357 C4366 0.930 . S
H4358 C4371 0.929 . S
H4359 C4369 0.929 . S
H4360 C4364 0.929 . S
H4361 C4370 0.929 . S
C4362 H4356 0.930 . S
C4362 C4363 1.367 . S
C4362 C4370 1.378 . S
C4363 C4362 1.367 . S
C4363 C4371 1.433 1_554 S
C4364 H4360 0.929 . S
C4364 C4366 1.378 . S
C4364 C4368 1.350 1_556 S
C4365 C4368 1.463 . S
C4365 C4370 1.350 . S
C4365 N4373 1.427 1_554 S
C4366 H4357 0.930 . S
C4366 C4364 1.378 . S
C4366 C4367 1.367 1_556 S
C4367 C4366 1.367 1_554 S
C4367 C4369 1.433 . S
C4368 C4364 1.350 1_554 S
C4368 C4365 1.463 . S
C4368 N4372 1.427 . S
C4369 H4359 0.929 . S
C4369 C4367 1.433 . S
C4369 N4372 1.384 . S
C4370 H4361 0.929 . S
C4370 C4362 1.378 . S
C4370 C4365 1.350 . S
C4371 H4358 0.929 . S
C4371 C4363 1.433 1_556 S
C4371 N4373 1.384 . S
N4372 C4368 1.427 . S
N4372 C4369 1.384 . S
N4373 C4365 1.427 1_556 S
N4373 C4371 1.384 . S
H4374 C4380 0.930 . S
H4375 C4384 0.930 . S
H4376 C4389 0.929 . S
H4377 C4387 0.929 . S
H4378 C4382 0.929 . S
H4379 C4388 0.929 . S
C4380 H4374 0.930 . S
C4380 C4381 1.367 . S
C4380 C4388 1.378 . S
C4381 C4380 1.367 . S
C4381 C4389 1.433 . S
C4382 H4378 0.929 . S
C4382 C4384 1.378 . S
C4382 C4386 1.350 . S
C4383 C4386 1.463 . S
C4383 C4388 1.350 . S
C4383 N4391 1.427 . S
C4384 H4375 0.930 . S
C4384 C4382 1.378 . S
C4384 C4385 1.367 . S
C4385 C4384 1.367 . S
C4385 C4387 1.433 . S
C4386 C4382 1.350 . S
C4386 C4383 1.463 . S
C4386 N4390 1.427 . S
C4387 H4377 0.929 . S
C4387 C4385 1.433 . S
C4387 N4390 1.384 . S
C4388 H4379 0.929 . S
C4388 C4380 1.378 . S
C4388 C4383 1.350 . S
C4389 H4376 0.929 . S
C4389 C4381 1.433 . S
C4389 N4391 1.384 . S
N4390 C4386 1.427 . S
N4390 C4387 1.384 . S
N4391 C4383 1.427 . S
N4391 C4389 1.384 . S
H4392 C4398 0.930 . S
H4393 C4402 0.930 . S
H4394 C4407 0.929 . S
H4395 C4405 0.929 . S
H4396 C4400 0.929 . S
H4397 C4406 0.929 . S
C4398 H4392 0.930 . S
C4398 C4399 1.367 . S
C4398 C4406 1.378 . S
C4399 C4398 1.367 . S
C4399 C4407 1.433 . S
C4400 H4396 0.929 . S
C4400 C4402 1.378 . S
C4400 C4404 1.350 . S
C4401 C4404 1.463 . S
C4401 C4406 1.350 . S
C4401 N4409 1.427 . S
C4402 H4393 0.930 . S
C4402 C4400 1.378 . S
C4402 C4403 1.367 . S
C4403 C4402 1.367 . S
C4403 C4405 1.433 . S
C4404 C4400 1.350 . S
C4404 C4401 1.463 . S
C4404 N4408 1.427 . S
C4405 H4395 0.929 . S
C4405 C4403 1.433 . S
C4405 N4408 1.384 . S
C4406 H4397 0.929 . S
C4406 C4398 1.378 . S
C4406 C4401 1.350 . S
C4407 H4394 0.929 . S
C4407 C4399 1.433 . S
C4407 N4409 1.384 . S
N4408 C4404 1.427 . S
N4408 C4405 1.384 . S
N4409 C4401 1.427 . S
N4409 C4407 1.384 . S
H4410 C4416 0.930 . S
H4411 C4420 0.930 . S
H4412 C4425 0.929 . S
H4413 C4423 0.929 . S
H4414 C4418 0.929 . S
H4415 C4424 0.929 . S
C4416 H4410 0.930 . S
C4416 C4417 1.367 . S
C4416 C4424 1.378 . S
C4417 C4416 1.367 . S
C4417 C4425 1.433 . S
C4418 H4414 0.929 . S
C4418 C4420 1.378 . S
C4418 C4422 1.350 . S
C4419 C4422 1.463 . S
C4419 C4424 1.350 . S
C4419 N4427 1.427 . S
C4420 H4411 0.930 . S
C4420 C4418 1.378 . S
C4420 C4421 1.367 . S
C4421 C4420 1.367 . S
C4421 C4423 1.433 . S
C4422 C4418 1.350 . S
C4422 C4419 1.463 . S
C4422 N4426 1.427 . S
C4423 H4413 0.929 . S
C4423 C4421 1.433 . S
C4423 N4426 1.384 . S
C4424 H4415 0.929 . S
C4424 C4416 1.378 . S
C4424 C4419 1.350 . S
C4425 H4412 0.929 . S
C4425 C4417 1.433 . S
C4425 N4427 1.384 . S
N4426 C4422 1.427 . S
N4426 C4423 1.384 . S
N4427 C4419 1.427 . S
N4427 C4425 1.384 . S
H4428 C4434 0.930 . S
H4429 C4438 0.930 . S
H4430 C4443 0.929 . S
H4431 C4441 0.929 . S
H4432 C4436 0.929 . S
H4433 C4442 0.929 . S
C4434 H4428 0.930 . S
C4434 C4435 1.367 . S
C4434 C4442 1.378 . S
C4435 C4434 1.367 . S
C4435 C4443 1.433 1_455 S
C4436 H4432 0.929 . S
C4436 C4438 1.378 . S
C4436 C4440 1.350 . S
C4437 C4440 1.463 . S
C4437 C4442 1.350 . S
C4437 N4445 1.427 . S
C4438 H4429 0.930 . S
C4438 C4436 1.378 . S
C4438 C4439 1.367 . S
C4439 C4438 1.367 . S
C4439 C4441 1.433 . S
C4440 C4436 1.350 . S
C4440 C4437 1.463 . S
C4440 N4444 1.427 . S
C4441 H4431 0.929 . S
C4441 C4439 1.433 . S
C4441 N4444 1.384 . S
C4442 H4433 0.929 . S
C4442 C4434 1.378 . S
C4442 C4437 1.350 . S
C4443 H4430 0.929 . S
C4443 C4435 1.433 1_655 S
C4443 N4445 1.384 1_655 S
N4444 C4440 1.427 . S
N4444 C4441 1.384 . S
N4445 C4437 1.427 . S
N4445 C4443 1.384 1_455 S
H4446 C4452 0.930 . S
H4447 C4456 0.930 . S
H4448 C4461 0.929 . S
H4449 C4459 0.929 . S
H4450 C4454 0.929 . S
H4451 C4460 0.929 . S
C4452 H4446 0.930 . S
C4452 C4453 1.367 . S
C4452 C4460 1.378 . S
C4453 C4452 1.367 . S
C4453 C4461 1.433 . S
C4454 H4450 0.929 . S
C4454 C4456 1.378 . S
C4454 C4458 1.350 . S
C4455 C4458 1.463 . S
C4455 C4460 1.350 . S
C4455 N4463 1.427 . S
C4456 H4447 0.930 . S
C4456 C4454 1.378 . S
C4456 C4457 1.367 . S
C4457 C4456 1.367 . S
C4457 C4459 1.433 . S
C4458 C4454 1.350 . S
C4458 C4455 1.463 . S
C4458 N4462 1.427 . S
C4459 H4449 0.929 . S
C4459 C4457 1.433 . S
C4459 N4462 1.384 . S
C4460 H4451 0.929 . S
C4460 C4452 1.378 . S
C4460 C4455 1.350 . S
C4461 H4448 0.929 . S
C4461 C4453 1.433 . S
C4461 N4463 1.384 . S
N4462 C4458 1.427 . S
N4462 C4459 1.384 . S
N4463 C4455 1.427 . S
N4463 C4461 1.384 . S
H4464 C4470 0.930 . S
H4465 C4474 0.930 . S
H4466 C4479 0.929 . S
H4467 C4477 0.929 . S
H4468 C4472 0.929 . S
H4469 C4478 0.929 . S
C4470 H4464 0.930 . S
C4470 C4471 1.367 . S
C4470 C4478 1.378 . S
C4471 C4470 1.367 . S
C4471 C4479 1.433 . S
C4472 H4468 0.929 . S
C4472 C4474 1.378 . S
C4472 C4476 1.350 . S
C4473 C4476 1.463 . S
C4473 C4478 1.350 . S
C4473 N4481 1.427 . S
C4474 H4465 0.930 . S
C4474 C4472 1.378 . S
C4474 C4475 1.367 . S
C4475 C4474 1.367 . S
C4475 C4477 1.433 . S
C4476 C4472 1.350 . S
C4476 C4473 1.463 . S
C4476 N4480 1.427 . S
C4477 H4467 0.929 . S
C4477 C4475 1.433 . S
C4477 N4480 1.384 . S
C4478 H4469 0.929 . S
C4478 C4470 1.378 . S
C4478 C4473 1.350 . S
C4479 H4466 0.929 . S
C4479 C4471 1.433 . S
C4479 N4481 1.384 . S
N4480 C4476 1.427 . S
N4480 C4477 1.384 . S
N4481 C4473 1.427 . S
N4481 C4479 1.384 . S
H4482 C4488 0.930 . S
H4483 C4492 0.930 . S
H4484 C4497 0.929 . S
H4485 C4495 0.929 . S
H4486 C4490 0.929 . S
H4487 C4496 0.929 . S
C4488 H4482 0.930 . S
C4488 C4489 1.367 . S
C4488 C4496 1.378 . S
C4489 C4488 1.367 . S
C4489 C4497 1.433 . S
C4490 H4486 0.929 . S
C4490 C4492 1.378 . S
C4490 C4494 1.350 . S
C4491 C4494 1.463 . S
C4491 C4496 1.350 . S
C4491 N4499 1.427 . S
C4492 H4483 0.930 . S
C4492 C4490 1.378 . S
C4492 C4493 1.367 . S
C4493 C4492 1.367 . S
C4493 C4495 1.433 . S
C4494 C4490 1.350 . S
C4494 C4491 1.463 . S
C4494 N4498 1.427 . S
C4495 H4485 0.929 . S
C4495 C4493 1.433 . S
C4495 N4498 1.384 . S
C4496 H4487 0.929 . S
C4496 C4488 1.378 . S
C4496 C4491 1.350 . S
C4497 H4484 0.929 . S
C4497 C4489 1.433 . S
C4497 N4499 1.384 . S
N4498 C4494 1.427 . S
N4498 C4495 1.384 . S
N4499 C4491 1.427 . S
N4499 C4497 1.384 . S
H4500 C4506 0.930 . S
H4501 C4510 0.930 . S
H4502 C4515 0.929 . S
H4503 C4513 0.929 . S
H4504 C4508 0.929 . S
H4505 C4514 0.929 . S
C4506 H4500 0.930 . S
C4506 C4507 1.367 . S
C4506 C4514 1.378 . S
C4507 C4506 1.367 . S
C4507 C4515 1.433 . S
C4508 H4504 0.929 . S
C4508 C4510 1.378 . S
C4508 C4512 1.350 . S
C4509 C4512 1.463 . S
C4509 C4514 1.350 . S
C4509 N4517 1.427 . S
C4510 H4501 0.930 . S
C4510 C4508 1.378 . S
C4510 C4511 1.367 . S
C4511 C4510 1.367 . S
C4511 C4513 1.433 . S
C4512 C4508 1.350 . S
C4512 C4509 1.463 . S
C4512 N4516 1.427 . S
C4513 H4503 0.929 . S
C4513 C4511 1.433 . S
C4513 N4516 1.384 . S
C4514 H4505 0.929 . S
C4514 C4506 1.378 . S
C4514 C4509 1.350 . S
C4515 H4502 0.929 . S
C4515 C4507 1.433 . S
C4515 N4517 1.384 . S
N4516 C4512 1.427 . S
N4516 C4513 1.384 . S
N4517 C4509 1.427 . S
N4517 C4515 1.384 . S
H4518 C4524 0.930 . S
H4519 C4528 0.930 . S
H4520 C4533 0.929 . S
H4521 C4531 0.929 . S
H4522 C4526 0.929 . S
H4523 C4532 0.929 . S
C4524 H4518 0.930 . S
C4524 C4525 1.367 . S
C4524 C4532 1.378 . S
C4525 C4524 1.367 . S
C4525 C4533 1.433 . S
C4526 H4522 0.929 . S
C4526 C4528 1.378 . S
C4526 C4530 1.350 . S
C4527 C4530 1.463 . S
C4527 C4532 1.350 . S
C4527 N4535 1.427 . S
C4528 H4519 0.930 . S
C4528 C4526 1.378 . S
C4528 C4529 1.367 . S
C4529 C4528 1.367 . S
C4529 C4531 1.433 . S
C4530 C4526 1.350 . S
C4530 C4527 1.463 . S
C4530 N4534 1.427 . S
C4531 H4521 0.929 . S
C4531 C4529 1.433 . S
C4531 N4534 1.384 . S
C4532 H4523 0.929 . S
C4532 C4524 1.378 . S
C4532 C4527 1.350 . S
C4533 H4520 0.929 . S
C4533 C4525 1.433 . S
C4533 N4535 1.384 . S
N4534 C4530 1.427 . S
N4534 C4531 1.384 . S
N4535 C4527 1.427 . S
N4535 C4533 1.384 . S
H4536 C4542 0.930 . S
H4537 C4546 0.930 . S
H4538 C4551 0.929 . S
H4539 C4549 0.929 . S
H4540 C4544 0.929 . S
H4541 C4550 0.929 . S
C4542 H4536 0.930 . S
C4542 C4543 1.367 . S
C4542 C4550 1.378 . S
C4543 C4542 1.367 . S
C4543 C4551 1.433 . S
C4544 H4540 0.929 . S
C4544 C4546 1.378 . S
C4544 C4548 1.350 . S
C4545 C4548 1.463 . S
C4545 C4550 1.350 . S
C4545 N4553 1.427 . S
C4546 H4537 0.930 . S
C4546 C4544 1.378 . S
C4546 C4547 1.367 . S
C4547 C4546 1.367 . S
C4547 C4549 1.433 . S
C4548 C4544 1.350 . S
C4548 C4545 1.463 . S
C4548 N4552 1.427 . S
C4549 H4539 0.929 . S
C4549 C4547 1.433 . S
C4549 N4552 1.384 . S
C4550 H4541 0.929 . S
C4550 C4542 1.378 . S
C4550 C4545 1.350 . S
C4551 H4538 0.929 . S
C4551 C4543 1.433 . S
C4551 N4553 1.384 . S
N4552 C4548 1.427 . S
N4552 C4549 1.384 . S
N4553 C4545 1.427 . S
N4553 C4551 1.384 . S
H4554 C4560 0.930 . S
H4555 C4564 0.930 . S
H4556 C4569 0.929 . S
H4557 C4567 0.929 . S
H4558 C4562 0.929 . S
H4559 C4568 0.929 . S
C4560 H4554 0.930 . S
C4560 C4561 1.367 . S
C4560 C4568 1.378 . S
C4561 C4560 1.367 . S
C4561 C4569 1.433 . S
C4562 H4558 0.929 . S
C4562 C4564 1.378 . S
C4562 C4566 1.350 . S
C4563 C4566 1.463 . S
C4563 C4568 1.350 . S
C4563 N4571 1.427 . S
C4564 H4555 0.930 . S
C4564 C4562 1.378 . S
C4564 C4565 1.367 . S
C4565 C4564 1.367 . S
C4565 C4567 1.433 . S
C4566 C4562 1.350 . S
C4566 C4563 1.463 . S
C4566 N4570 1.427 . S
C4567 H4557 0.929 . S
C4567 C4565 1.433 . S
C4567 N4570 1.384 . S
C4568 H4559 0.929 . S
C4568 C4560 1.378 . S
C4568 C4563 1.350 . S
C4569 H4556 0.929 . S
C4569 C4561 1.433 . S
C4569 N4571 1.384 . S
N4570 C4566 1.427 . S
N4570 C4567 1.384 . S
N4571 C4563 1.427 . S
N4571 C4569 1.384 . S
H4572 C4578 0.930 . S
H4573 C4582 0.930 . S
H4574 C4587 0.929 . S
H4575 C4585 0.929 . S
H4576 C4580 0.929 . S
H4577 C4586 0.929 . S
C4578 H4572 0.930 . S
C4578 C4579 1.367 . S
C4578 C4586 1.378 . S
C4579 C4578 1.367 . S
C4579 C4587 1.433 . S
C4580 H4576 0.929 . S
C4580 C4582 1.378 . S
C4580 C4584 1.350 . S
C4581 C4584 1.463 . S
C4581 C4586 1.350 . S
C4581 N4589 1.427 . S
C4582 H4573 0.930 . S
C4582 C4580 1.378 . S
C4582 C4583 1.367 . S
C4583 C4582 1.367 . S
C4583 C4585 1.433 . S
C4584 C4580 1.350 . S
C4584 C4581 1.463 . S
C4584 N4588 1.427 . S
C4585 H4575 0.929 . S
C4585 C4583 1.433 . S
C4585 N4588 1.384 . S
C4586 H4577 0.929 . S
C4586 C4578 1.378 . S
C4586 C4581 1.350 . S
C4587 H4574 0.929 . S
C4587 C4579 1.433 . S
C4587 N4589 1.384 . S
N4588 C4584 1.427 . S
N4588 C4585 1.384 . S
N4589 C4581 1.427 . S
N4589 C4587 1.384 . S
H4590 C4596 0.930 . S
H4591 C4600 0.930 . S
H4592 C4605 0.929 . S
H4593 C4603 0.929 . S
H4594 C4598 0.929 . S
H4595 C4604 0.929 . S
C4596 H4590 0.930 . S
C4596 C4597 1.367 . S
C4596 C4604 1.378 . S
C4597 C4596 1.367 . S
C4597 C4605 1.433 . S
C4598 H4594 0.929 . S
C4598 C4600 1.378 . S
C4598 C4602 1.350 . S
C4599 C4602 1.463 . S
C4599 C4604 1.350 . S
C4599 N4607 1.427 . S
C4600 H4591 0.930 . S
C4600 C4598 1.378 . S
C4600 C4601 1.367 . S
C4601 C4600 1.367 . S
C4601 C4603 1.433 . S
C4602 C4598 1.350 . S
C4602 C4599 1.463 . S
C4602 N4606 1.427 . S
C4603 H4593 0.929 . S
C4603 C4601 1.433 . S
C4603 N4606 1.384 . S
C4604 H4595 0.929 . S
C4604 C4596 1.378 . S
C4604 C4599 1.350 . S
C4605 H4592 0.929 . S
C4605 C4597 1.433 . S
C4605 N4607 1.384 . S
N4606 C4602 1.427 . S
N4606 C4603 1.384 . S
N4607 C4599 1.427 . S
N4607 C4605 1.384 . S
H4608 C4614 0.930 . S
H4609 C4618 0.930 . S
H4610 C4623 0.929 . S
H4611 C4621 0.929 . S
H4612 C4616 0.929 . S
H4613 C4622 0.929 . S
C4614 H4608 0.930 . S
C4614 C4615 1.367 . S
C4614 C4622 1.378 . S
C4615 C4614 1.367 . S
C4615 C4623 1.433 . S
C4616 H4612 0.929 . S
C4616 C4618 1.378 . S
C4616 C4620 1.350 . S
C4617 C4620 1.463 . S
C4617 C4622 1.350 . S
C4617 N4625 1.427 . S
C4618 H4609 0.930 . S
C4618 C4616 1.378 . S
C4618 C4619 1.367 . S
C4619 C4618 1.367 . S
C4619 C4621 1.433 . S
C4620 C4616 1.350 . S
C4620 C4617 1.463 . S
C4620 N4624 1.427 . S
C4621 H4611 0.929 . S
C4621 C4619 1.433 . S
C4621 N4624 1.384 . S
C4622 H4613 0.929 . S
C4622 C4614 1.378 . S
C4622 C4617 1.350 . S
C4623 H4610 0.929 . S
C4623 C4615 1.433 . S
C4623 N4625 1.384 . S
N4624 C4620 1.427 . S
N4624 C4621 1.384 . S
N4625 C4617 1.427 . S
N4625 C4623 1.384 . S
H4626 C4632 0.930 . S
H4627 C4636 0.930 . S
H4628 C4641 0.929 . S
H4629 C4639 0.929 . S
H4630 C4634 0.929 . S
H4631 C4640 0.929 . S
C4632 H4626 0.930 . S
C4632 C4633 1.367 . S
C4632 C4640 1.378 . S
C4633 C4632 1.367 . S
C4633 C4641 1.433 . S
C4634 H4630 0.929 . S
C4634 C4636 1.378 . S
C4634 C4638 1.350 . S
C4635 C4638 1.463 . S
C4635 C4640 1.350 . S
C4635 N4643 1.427 . S
C4636 H4627 0.930 . S
C4636 C4634 1.378 . S
C4636 C4637 1.367 . S
C4637 C4636 1.367 . S
C4637 C4639 1.433 . S
C4638 C4634 1.350 . S
C4638 C4635 1.463 . S
C4638 N4642 1.427 . S
C4639 H4629 0.929 . S
C4639 C4637 1.433 . S
C4639 N4642 1.384 . S
C4640 H4631 0.929 . S
C4640 C4632 1.378 . S
C4640 C4635 1.350 . S
C4641 H4628 0.929 . S
C4641 C4633 1.433 . S
C4641 N4643 1.384 . S
N4642 C4638 1.427 . S
N4642 C4639 1.384 . S
N4643 C4635 1.427 . S
N4643 C4641 1.384 . S
H4644 C4650 0.930 . S
H4645 C4654 0.930 . S
H4646 C4659 0.929 . S
H4647 C4657 0.929 . S
H4648 C4652 0.929 . S
H4649 C4658 0.929 . S
C4650 H4644 0.930 . S
C4650 C4651 1.367 . S
C4650 C4658 1.378 . S
C4651 C4650 1.367 . S
C4651 C4659 1.433 . S
C4652 H4648 0.929 . S
C4652 C4654 1.378 . S
C4652 C4656 1.350 . S
C4653 C4656 1.463 . S
C4653 C4658 1.350 . S
C4653 N4661 1.427 . S
C4654 H4645 0.930 . S
C4654 C4652 1.378 . S
C4654 C4655 1.367 . S
C4655 C4654 1.367 . S
C4655 C4657 1.433 . S
C4656 C4652 1.350 . S
C4656 C4653 1.463 . S
C4656 N4660 1.427 . S
C4657 H4647 0.929 . S
C4657 C4655 1.433 . S
C4657 N4660 1.384 . S
C4658 H4649 0.929 . S
C4658 C4650 1.378 . S
C4658 C4653 1.350 . S
C4659 H4646 0.929 . S
C4659 C4651 1.433 . S
C4659 N4661 1.384 . S
N4660 C4656 1.427 . S
N4660 C4657 1.384 . S
N4661 C4653 1.427 . S
N4661 C4659 1.384 . S
H4662 C4668 0.930 . S
H4663 C4672 0.930 . S
H4664 C4677 0.935 . S
H4665 C4675 0.929 . S
H4666 C4670 0.929 . S
H4667 C4676 0.929 . S
C4668 H4662 0.930 . S
C4668 C4669 1.367 1_545 S
C4668 C4676 1.378 . S
C4669 C4668 1.367 1_565 S
C4669 C4677 1.433 . S
C4670 H4666 0.929 . S
C4670 C4672 1.378 . S
C4670 C4674 1.350 . S
C4671 C4674 1.463 . S
C4671 C4676 1.350 1_565 S
C4671 N4679 1.427 . S
C4672 H4663 0.930 . S
C4672 C4670 1.378 . S
C4672 C4673 1.367 1_565 S
C4673 C4672 1.367 1_545 S
C4673 C4675 1.433 . S
C4674 C4670 1.350 . S
C4674 C4671 1.463 . S
C4674 N4678 1.427 1_565 S
C4675 H4665 0.929 . S
C4675 C4673 1.433 . S
C4675 N4678 1.384 . S
C4676 H4667 0.929 . S
C4676 C4668 1.378 . S
C4676 C4671 1.350 1_545 S
C4677 H4664 0.935 . S
C4677 C4669 1.433 . S
C4677 N4679 1.384 . S
N4678 C4674 1.427 1_545 S
N4678 C4675 1.384 . S
N4679 C4671 1.427 . S
N4679 C4677 1.384 . S
H4680 C4686 0.930 . S
H4681 C4690 0.930 . S
H4682 C4695 0.929 . S
H4683 C4693 0.929 . S
H4684 C4688 0.929 . S
H4685 C4694 0.929 . S
C4686 H4680 0.930 . S
C4686 C4687 1.367 . S
C4686 C4694 1.378 . S
C4687 C4686 1.367 . S
C4687 C4695 1.433 . S
C4688 H4684 0.929 . S
C4688 C4690 1.378 . S
C4688 C4692 1.350 . S
C4689 C4692 1.463 . S
C4689 C4694 1.350 . S
C4689 N4697 1.427 . S
C4690 H4681 0.930 . S
C4690 C4688 1.378 . S
C4690 C4691 1.367 . S
C4691 C4690 1.367 . S
C4691 C4693 1.433 . S
C4692 C4688 1.350 . S
C4692 C4689 1.463 . S
C4692 N4696 1.427 . S
C4693 H4683 0.929 . S
C4693 C4691 1.433 . S
C4693 N4696 1.384 . S
C4694 H4685 0.929 . S
C4694 C4686 1.378 . S
C4694 C4689 1.350 . S
C4695 H4682 0.929 . S
C4695 C4687 1.433 . S
C4695 N4697 1.384 . S
N4696 C4692 1.427 . S
N4696 C4693 1.384 . S
N4697 C4689 1.427 . S
N4697 C4695 1.384 . S
H4698 C4704 0.930 . S
H4699 C4708 0.930 . S
H4700 C4713 0.929 . S
H4701 C4711 0.929 1_556 S
H4702 C4706 0.929 . S
H4703 C4712 0.929 . S
C4704 H4698 0.930 . S
C4704 C4705 1.367 1_556 S
C4704 C4712 1.378 . S
C4705 C4704 1.367 1_554 S
C4705 C4713 1.433 . S
C4706 H4702 0.929 . S
C4706 C4708 1.378 . S
C4706 C4710 1.350 . S
C4707 C4710 1.463 . S
C4707 C4712 1.350 1_554 S
C4707 N4715 1.427 . S
C4708 H4699 0.930 . S
C4708 C4706 1.378 . S
C4708 C4709 1.367 . S
C4709 C4708 1.367 . S
C4709 C4711 1.433 . S
C4710 C4706 1.350 . S
C4710 C4707 1.463 . S
C4710 N4714 1.427 . S
C4711 H4701 0.929 1_554 S
C4711 C4709 1.433 . S
C4711 N4714 1.384 . S
C4712 H4703 0.929 . S
C4712 C4704 1.378 . S
C4712 C4707 1.350 1_556 S
C4713 H4700 0.929 . S
C4713 C4705 1.433 . S
C4713 N4715 1.384 . S
N4714 C4710 1.427 . S
N4714 C4711 1.384 . S
N4715 C4707 1.427 . S
N4715 C4713 1.384 . S
H4716 C4722 0.930 . S
H4717 C4726 0.930 . S
H4718 C4731 0.929 . S
H4719 C4729 0.929 . S
H4720 C4724 0.929 . S
H4721 C4730 0.929 . S
C4722 H4716 0.930 . S
C4722 C4723 1.367 . S
C4722 C4730 1.378 . S
C4723 C4722 1.367 . S
C4723 C4731 1.433 . S
C4724 H4720 0.929 . S
C4724 C4726 1.378 . S
C4724 C4728 1.350 . S
C4725 C4728 1.463 . S
C4725 C4730 1.350 . S
C4725 N4733 1.427 . S
C4726 H4717 0.930 . S
C4726 C4724 1.378 . S
C4726 C4727 1.367 . S
C4727 C4726 1.367 . S
C4727 C4729 1.433 . S
C4728 C4724 1.350 . S
C4728 C4725 1.463 . S
C4728 N4732 1.427 . S
C4729 H4719 0.929 . S
C4729 C4727 1.433 . S
C4729 N4732 1.384 . S
C4730 H4721 0.929 . S
C4730 C4722 1.378 . S
C4730 C4725 1.350 . S
C4731 H4718 0.929 . S
C4731 C4723 1.433 . S
C4731 N4733 1.384 . S
N4732 C4728 1.427 . S
N4732 C4729 1.384 . S
N4733 C4725 1.427 . S
N4733 C4731 1.384 . S
H4734 C4740 0.930 . S
H4735 C4744 0.930 . S
H4736 C4749 0.929 . S
H4737 C4747 0.929 . S
H4738 C4742 0.929 . S
H4739 C4748 0.929 . S
C4740 H4734 0.930 . S
C4740 C4741 1.367 . S
C4740 C4748 1.378 . S
C4741 C4740 1.367 . S
C4741 C4749 1.433 . S
C4742 H4738 0.929 . S
C4742 C4744 1.378 . S
C4742 C4746 1.350 . S
C4743 C4746 1.463 . S
C4743 C4748 1.350 . S
C4743 N4751 1.427 . S
C4744 H4735 0.930 . S
C4744 C4742 1.378 . S
C4744 C4745 1.367 . S
C4745 C4744 1.367 . S
C4745 C4747 1.433 . S
C4746 C4742 1.350 . S
C4746 C4743 1.463 . S
C4746 N4750 1.427 . S
C4747 H4737 0.929 . S
C4747 C4745 1.433 . S
C4747 N4750 1.384 . S
C4748 H4739 0.929 . S
C4748 C4740 1.378 . S
C4748 C4743 1.350 . S
C4749 H4736 0.929 . S
C4749 C4741 1.433 . S
C4749 N4751 1.384 . S
N4750 C4746 1.427 . S
N4750 C4747 1.384 . S
N4751 C4743 1.427 . S
N4751 C4749 1.384 . S
H4752 C4758 0.930 . S
H4753 C4762 0.930 . S
H4754 C4767 0.929 . S
H4755 C4765 0.929 . S
H4756 C4760 0.929 . S
H4757 C4766 0.929 . S
C4758 H4752 0.930 . S
C4758 C4759 1.367 . S
C4758 C4766 1.378 . S
C4759 C4758 1.367 . S
C4759 C4767 1.433 . S
C4760 H4756 0.929 . S
C4760 C4762 1.378 . S
C4760 C4764 1.350 . S
C4761 C4764 1.463 . S
C4761 C4766 1.350 . S
C4761 N4769 1.427 . S
C4762 H4753 0.930 . S
C4762 C4760 1.378 . S
C4762 C4763 1.367 . S
C4763 C4762 1.367 . S
C4763 C4765 1.433 . S
C4764 C4760 1.350 . S
C4764 C4761 1.463 . S
C4764 N4768 1.427 . S
C4765 H4755 0.929 . S
C4765 C4763 1.433 . S
C4765 N4768 1.384 . S
C4766 H4757 0.929 . S
C4766 C4758 1.378 . S
C4766 C4761 1.350 . S
C4767 H4754 0.929 . S
C4767 C4759 1.433 . S
C4767 N4769 1.384 . S
N4768 C4764 1.427 . S
N4768 C4765 1.384 . S
N4769 C4761 1.427 . S
N4769 C4767 1.384 . S
H4770 C4776 0.930 . S
H4771 C4780 0.930 . S
H4772 C4785 0.929 . S
H4773 C4783 0.929 . S
H4774 C4778 0.929 . S
H4775 C4784 0.929 . S
C4776 H4770 0.930 . S
C4776 C4777 1.367 . S
C4776 C4784 1.378 . S
C4777 C4776 1.367 . S
C4777 C4785 1.433 . S
C4778 H4774 0.929 . S
C4778 C4780 1.378 . S
C4778 C4782 1.350 . S
C4779 C4782 1.463 . S
C4779 C4784 1.350 . S
C4779 N4787 1.427 . S
C4780 H4771 0.930 . S
C4780 C4778 1.378 . S
C4780 C4781 1.367 . S
C4781 C4780 1.367 . S
C4781 C4783 1.433 . S
C4782 C4778 1.350 . S
C4782 C4779 1.463 . S
C4782 N4786 1.427 . S
C4783 H4773 0.929 . S
C4783 C4781 1.433 . S
C4783 N4786 1.384 . S
C4784 H4775 0.929 . S
C4784 C4776 1.378 . S
C4784 C4779 1.350 . S
C4785 H4772 0.929 . S
C4785 C4777 1.433 . S
C4785 N4787 1.384 . S
N4786 C4782 1.427 . S
N4786 C4783 1.384 . S
N4787 C4779 1.427 . S
N4787 C4785 1.384 . S
H4788 C4794 0.930 . S
H4789 C4798 0.930 . S
H4790 C4803 0.929 . S
H4791 C4801 0.929 . S
H4792 C4796 0.929 . S
H4793 C4802 0.929 . S
C4794 H4788 0.930 . S
C4794 C4795 1.367 . S
C4794 C4802 1.378 . S
C4795 C4794 1.367 . S
C4795 C4803 1.433 . S
C4796 H4792 0.929 . S
C4796 C4798 1.378 . S
C4796 C4800 1.350 . S
C4797 C4800 1.463 . S
C4797 C4802 1.350 . S
C4797 N4805 1.427 . S
C4798 H4789 0.930 . S
C4798 C4796 1.378 . S
C4798 C4799 1.367 . S
C4799 C4798 1.367 . S
C4799 C4801 1.433 . S
C4800 C4796 1.350 . S
C4800 C4797 1.463 . S
C4800 N4804 1.427 . S
C4801 H4791 0.929 . S
C4801 C4799 1.433 . S
C4801 N4804 1.384 . S
C4802 H4793 0.929 . S
C4802 C4794 1.378 . S
C4802 C4797 1.350 . S
C4803 H4790 0.929 . S
C4803 C4795 1.433 . S
C4803 N4805 1.384 . S
N4804 C4800 1.427 . S
N4804 C4801 1.384 . S
N4805 C4797 1.427 . S
N4805 C4803 1.384 . S
H4806 C4812 0.930 . S
H4807 C4816 0.930 . S
H4808 C4821 0.929 . S
H4809 C4819 0.929 . S
H4810 C4814 0.929 . S
H4811 C4820 0.929 . S
C4812 H4806 0.930 . S
C4812 C4813 1.367 . S
C4812 C4820 1.378 . S
C4813 C4812 1.367 . S
C4813 C4821 1.433 . S
C4814 H4810 0.929 . S
C4814 C4816 1.378 . S
C4814 C4818 1.350 . S
C4815 C4818 1.463 . S
C4815 C4820 1.350 . S
C4815 N4823 1.427 . S
C4816 H4807 0.930 . S
C4816 C4814 1.378 . S
C4816 C4817 1.367 . S
C4817 C4816 1.367 . S
C4817 C4819 1.433 . S
C4818 C4814 1.350 . S
C4818 C4815 1.463 . S
C4818 N4822 1.427 . S
C4819 H4809 0.929 . S
C4819 C4817 1.433 . S
C4819 N4822 1.384 . S
C4820 H4811 0.929 . S
C4820 C4812 1.378 . S
C4820 C4815 1.350 . S
C4821 H4808 0.929 . S
C4821 C4813 1.433 . S
C4821 N4823 1.384 . S
N4822 C4818 1.427 . S
N4822 C4819 1.384 . S
N4823 C4815 1.427 . S
N4823 C4821 1.384 . S
H4824 C4830 0.930 . S
H4825 C4834 0.930 . S
H4826 C4839 0.929 . S
H4827 C4837 0.929 . S
H4828 C4832 0.929 . S
H4829 C4838 0.929 . S
C4830 H4824 0.930 . S
C4830 C4831 1.367 . S
C4830 C4838 1.378 . S
C4831 C4830 1.367 . S
C4831 C4839 1.433 . S
C4832 H4828 0.929 . S
C4832 C4834 1.378 . S
C4832 C4836 1.350 . S
C4833 C4836 1.463 . S
C4833 C4838 1.350 . S
C4833 N4841 1.427 . S
C4834 H4825 0.930 . S
C4834 C4832 1.378 . S
C4834 C4835 1.367 . S
C4835 C4834 1.367 . S
C4835 C4837 1.433 . S
C4836 C4832 1.350 . S
C4836 C4833 1.463 . S
C4836 N4840 1.427 . S
C4837 H4827 0.929 . S
C4837 C4835 1.433 . S
C4837 N4840 1.384 . S
C4838 H4829 0.929 . S
C4838 C4830 1.378 . S
C4838 C4833 1.350 . S
C4839 H4826 0.929 . S
C4839 C4831 1.433 . S
C4839 N4841 1.384 . S
N4840 C4836 1.427 . S
N4840 C4837 1.384 . S
N4841 C4833 1.427 . S
N4841 C4839 1.384 . S
H4842 C4848 0.930 . S
H4843 C4852 0.930 . S
H4844 C4857 0.929 . S
H4845 C4855 0.929 . S
H4846 C4850 0.929 . S
H4847 C4856 0.929 . S
C4848 H4842 0.930 . S
C4848 C4849 1.367 . S
C4848 C4856 1.378 . S
C4849 C4848 1.367 . S
C4849 C4857 1.433 . S
C4850 H4846 0.929 . S
C4850 C4852 1.378 . S
C4850 C4854 1.350 . S
C4851 C4854 1.463 . S
C4851 C4856 1.350 . S
C4851 N4859 1.427 . S
C4852 H4843 0.930 . S
C4852 C4850 1.378 . S
C4852 C4853 1.367 . S
C4853 C4852 1.367 . S
C4853 C4855 1.433 . S
C4854 C4850 1.350 . S
C4854 C4851 1.463 . S
C4854 N4858 1.427 . S
C4855 H4845 0.929 . S
C4855 C4853 1.433 . S
C4855 N4858 1.384 . S
C4856 H4847 0.929 . S
C4856 C4848 1.378 . S
C4856 C4851 1.350 . S
C4857 H4844 0.929 . S
C4857 C4849 1.433 . S
C4857 N4859 1.384 . S
N4858 C4854 1.427 . S
N4858 C4855 1.384 . S
N4859 C4851 1.427 . S
N4859 C4857 1.384 . S
H4860 C4866 0.930 . S
H4861 C4870 0.930 . S
H4862 C4875 0.929 . S
H4863 C4873 0.929 . S
H4864 C4868 0.929 . S
H4865 C4874 0.929 . S
C4866 H4860 0.930 . S
C4866 C4867 1.367 . S
C4866 C4874 1.378 . S
C4867 C4866 1.367 . S
C4867 C4875 1.433 . S
C4868 H4864 0.929 . S
C4868 C4870 1.378 . S
C4868 C4872 1.350 . S
C4869 C4872 1.463 . S
C4869 C4874 1.350 . S
C4869 N4877 1.427 . S
C4870 H4861 0.930 . S
C4870 C4868 1.378 . S
C4870 C4871 1.367 . S
C4871 C4870 1.367 . S
C4871 C4873 1.433 . S
C4872 C4868 1.350 . S
C4872 C4869 1.463 . S
C4872 N4876 1.427 . S
C4873 H4863 0.929 . S
C4873 C4871 1.433 . S
C4873 N4876 1.384 . S
C4874 H4865 0.929 . S
C4874 C4866 1.378 . S
C4874 C4869 1.350 . S
C4875 H4862 0.929 . S
C4875 C4867 1.433 . S
C4875 N4877 1.384 . S
N4876 C4872 1.427 . S
N4876 C4873 1.384 . S
N4877 C4869 1.427 . S
N4877 C4875 1.384 . S
H4878 C4884 0.930 . S
H4879 C4888 0.930 . S
H4880 C4893 0.929 . S
H4881 C4891 0.929 . S
H4882 C4886 0.929 . S
H4883 C4892 0.929 . S
C4884 H4878 0.930 . S
C4884 C4885 1.367 . S
C4884 C4892 1.378 . S
C4885 C4884 1.367 . S
C4885 C4893 1.433 . S
C4886 H4882 0.929 . S
C4886 C4888 1.378 . S
C4886 C4890 1.350 . S
C4887 C4890 1.463 . S
C4887 C4892 1.350 . S
C4887 N4895 1.427 . S
C4888 H4879 0.930 . S
C4888 C4886 1.378 . S
C4888 C4889 1.367 . S
C4889 C4888 1.367 . S
C4889 C4891 1.433 . S
C4890 C4886 1.350 . S
C4890 C4887 1.463 . S
C4890 N4894 1.427 . S
C4891 H4881 0.929 . S
C4891 C4889 1.433 . S
C4891 N4894 1.384 . S
C4892 H4883 0.929 . S
C4892 C4884 1.378 . S
C4892 C4887 1.350 . S
C4893 H4880 0.929 . S
C4893 C4885 1.433 . S
C4893 N4895 1.384 . S
N4894 C4890 1.427 . S
N4894 C4891 1.384 . S
N4895 C4887 1.427 . S
N4895 C4893 1.384 . S
H4896 C4902 0.930 . S
H4897 C4906 0.930 . S
H4898 C4911 0.929 . S
H4899 C4909 0.929 . S
H4900 C4904 0.929 . S
H4901 C4910 0.929 . S
C4902 H4896 0.930 . S
C4902 C4903 1.367 . S
C4902 C4910 1.378 . S
C4903 C4902 1.367 . S
C4903 C4911 1.433 . S
C4904 H4900 0.929 . S
C4904 C4906 1.378 . S
C4904 C4908 1.350 . S
C4905 C4908 1.463 . S
C4905 C4910 1.350 . S
C4905 N4913 1.427 . S
C4906 H4897 0.930 . S
C4906 C4904 1.378 . S
C4906 C4907 1.367 . S
C4907 C4906 1.367 . S
C4907 C4909 1.433 . S
C4908 C4904 1.350 . S
C4908 C4905 1.463 . S
C4908 N4912 1.427 . S
C4909 H4899 0.929 . S
C4909 C4907 1.433 . S
C4909 N4912 1.384 . S
C4910 H4901 0.929 . S
C4910 C4902 1.378 . S
C4910 C4905 1.350 . S
C4911 H4898 0.929 . S
C4911 C4903 1.433 . S
C4911 N4913 1.384 . S
N4912 C4908 1.427 . S
N4912 C4909 1.384 . S
N4913 C4905 1.427 . S
N4913 C4911 1.384 . S
H4914 C4920 0.930 . S
H4915 C4924 0.930 . S
H4916 C4929 0.929 . S
H4917 C4927 0.929 . S
H4918 C4922 0.929 . S
H4919 C4928 0.929 . S
C4920 H4914 0.930 . S
C4920 C4921 1.367 . S
C4920 C4928 1.378 . S
C4921 C4920 1.367 . S
C4921 C4929 1.433 . S
C4922 H4918 0.929 . S
C4922 C4924 1.378 . S
C4922 C4926 1.350 . S
C4923 C4926 1.463 . S
C4923 C4928 1.350 . S
C4923 N4931 1.427 . S
C4924 H4915 0.930 . S
C4924 C4922 1.378 . S
C4924 C4925 1.367 . S
C4925 C4924 1.367 . S
C4925 C4927 1.433 . S
C4926 C4922 1.350 . S
C4926 C4923 1.463 . S
C4926 N4930 1.427 . S
C4927 H4917 0.929 . S
C4927 C4925 1.433 . S
C4927 N4930 1.384 . S
C4928 H4919 0.929 . S
C4928 C4920 1.378 . S
C4928 C4923 1.350 . S
C4929 H4916 0.929 . S
C4929 C4921 1.433 . S
C4929 N4931 1.384 . S
N4930 C4926 1.427 . S
N4930 C4927 1.384 . S
N4931 C4923 1.427 . S
N4931 C4929 1.384 . S
H4932 C4938 0.930 . S
H4933 C4942 0.930 . S
H4934 C4947 0.929 . S
H4935 C4945 0.929 1_455 S
H4936 C4940 0.929 . S
H4937 C4946 0.929 . S
C4938 H4932 0.930 . S
C4938 C4939 1.367 . S
C4938 C4946 1.378 . S
C4939 C4938 1.367 . S
C4939 C4947 1.433 . S
C4940 H4936 0.929 . S
C4940 C4942 1.378 . S
C4940 C4944 1.350 . S
C4941 C4944 1.463 . S
C4941 C4946 1.350 . S
C4941 N4949 1.427 . S
C4942 H4933 0.930 . S
C4942 C4940 1.378 . S
C4942 C4943 1.367 . S
C4943 C4942 1.367 . S
C4943 C4945 1.433 . S
C4944 C4940 1.350 . S
C4944 C4941 1.463 . S
C4944 N4948 1.427 . S
C4945 H4935 0.929 1_655 S
C4945 C4943 1.433 . S
C4945 N4948 1.384 . S
C4946 H4937 0.929 . S
C4946 C4938 1.378 . S
C4946 C4941 1.350 . S
C4947 H4934 0.929 . S
C4947 C4939 1.433 . S
C4947 N4949 1.384 . S
N4948 C4944 1.427 . S
N4948 C4945 1.384 . S
N4949 C4941 1.427 . S
N4949 C4947 1.384 . S
H4950 C4956 0.930 . S
H4951 C4960 0.930 . S
H4952 C4965 0.929 . S
H4953 C4963 0.929 . S
H4954 C4958 0.929 . S
H4955 C4964 0.929 . S
C4956 H4950 0.930 . S
C4956 C4957 1.367 . S
C4956 C4964 1.378 . S
C4957 C4956 1.367 . S
C4957 C4965 1.433 . S
C4958 H4954 0.929 . S
C4958 C4960 1.378 . S
C4958 C4962 1.350 . S
C4959 C4962 1.463 . S
C4959 C4964 1.350 . S
C4959 N4967 1.427 . S
C4960 H4951 0.930 . S
C4960 C4958 1.378 . S
C4960 C4961 1.367 . S
C4961 C4960 1.367 . S
C4961 C4963 1.433 . S
C4962 C4958 1.350 . S
C4962 C4959 1.463 . S
C4962 N4966 1.427 . S
C4963 H4953 0.929 . S
C4963 C4961 1.433 . S
C4963 N4966 1.384 . S
C4964 H4955 0.929 . S
C4964 C4956 1.378 . S
C4964 C4959 1.350 . S
C4965 H4952 0.929 . S
C4965 C4957 1.433 . S
C4965 N4967 1.384 . S
N4966 C4962 1.427 . S
N4966 C4963 1.384 . S
N4967 C4959 1.427 . S
N4967 C4965 1.384 . S
H4968 C4974 0.930 . S
H4969 C4978 0.930 . S
H4970 C4983 0.929 . S
H4971 C4981 0.929 . S
H4972 C4976 0.929 . S
H4973 C4982 0.929 . S
C4974 H4968 0.930 . S
C4974 C4975 1.367 . S
C4974 C4982 1.378 . S
C4975 C4974 1.367 . S
C4975 C4983 1.433 . S
C4976 H4972 0.929 . S
C4976 C4978 1.378 . S
C4976 C4980 1.350 . S
C4977 C4980 1.463 . S
C4977 C4982 1.350 . S
C4977 N4985 1.427 . S
C4978 H4969 0.930 . S
C4978 C4976 1.378 . S
C4978 C4979 1.367 . S
C4979 C4978 1.367 . S
C4979 C4981 1.433 . S
C4980 C4976 1.350 . S
C4980 C4977 1.463 . S
C4980 N4984 1.427 . S
C4981 H4971 0.929 . S
C4981 C4979 1.433 . S
C4981 N4984 1.384 . S
C4982 H4973 0.929 . S
C4982 C4974 1.378 . S
C4982 C4977 1.350 . S
C4983 H4970 0.929 . S
C4983 C4975 1.433 . S
C4983 N4985 1.384 . S
N4984 C4980 1.427 . S
N4984 C4981 1.384 . S
N4985 C4977 1.427 . S
N4985 C4983 1.384 . S
H4986 C4992 0.930 . S
H4987 C4996 0.930 . S
H4988 C5001 0.929 . S
H4989 C4999 0.929 . S
H4990 C4994 0.929 . S
H4991 C5000 0.929 . S
C4992 H4986 0.930 . S
C4992 C4993 1.367 . S
C4992 C5000 1.378 . S
C4993 C4992 1.367 . S
C4993 C5001 1.433 . S
C4994 H4990 0.929 . S
C4994 C4996 1.378 . S
C4994 C4998 1.350 . S
C4995 C4998 1.463 . S
C4995 C5000 1.350 . S
C4995 N5003 1.427 . S
C4996 H4987 0.930 . S
C4996 C4994 1.378 . S
C4996 C4997 1.367 . S
C4997 C4996 1.367 . S
C4997 C4999 1.433 . S
C4998 C4994 1.350 . S
C4998 C4995 1.463 . S
C4998 N5002 1.427 . S
C4999 H4989 0.929 . S
C4999 C4997 1.433 . S
C4999 N5002 1.384 . S
C5000 H4991 0.929 . S
C5000 C4992 1.378 . S
C5000 C4995 1.350 . S
C5001 H4988 0.929 . S
C5001 C4993 1.433 . S
C5001 N5003 1.384 . S
N5002 C4998 1.427 . S
N5002 C4999 1.384 . S
N5003 C4995 1.427 . S
N5003 C5001 1.384 . S
H5004 C5010 0.930 . S
H5005 C5014 0.930 . S
H5006 C5019 0.929 . S
H5007 C5017 0.929 . S
H5008 C5012 0.929 . S
H5009 C5018 0.929 . S
C5010 H5004 0.930 . S
C5010 C5011 1.367 . S
C5010 C5018 1.378 . S
C5011 C5010 1.367 . S
C5011 C5019 1.433 . S
C5012 H5008 0.929 . S
C5012 C5014 1.378 . S
C5012 C5016 1.350 . S
C5013 C5016 1.463 . S
C5013 C5018 1.350 . S
C5013 N5021 1.427 . S
C5014 H5005 0.930 . S
C5014 C5012 1.378 . S
C5014 C5015 1.367 . S
C5015 C5014 1.367 . S
C5015 C5017 1.433 . S
C5016 C5012 1.350 . S
C5016 C5013 1.463 . S
C5016 N5020 1.427 . S
C5017 H5007 0.929 . S
C5017 C5015 1.433 . S
C5017 N5020 1.384 . S
C5018 H5009 0.929 . S
C5018 C5010 1.378 . S
C5018 C5013 1.350 . S
C5019 H5006 0.929 . S
C5019 C5011 1.433 . S
C5019 N5021 1.384 . S
N5020 C5016 1.427 . S
N5020 C5017 1.384 . S
N5021 C5013 1.427 . S
N5021 C5019 1.384 . S
H5022 C5028 0.930 . S
H5023 C5032 0.930 . S
H5024 C5037 0.929 . S
H5025 C5035 0.929 . S
H5026 C5030 0.929 . S
H5027 C5036 0.929 . S
C5028 H5022 0.930 . S
C5028 C5029 1.367 . S
C5028 C5036 1.378 . S
C5029 C5028 1.367 . S
C5029 C5037 1.433 . S
C5030 H5026 0.929 . S
C5030 C5032 1.378 . S
C5030 C5034 1.350 . S
C5031 C5034 1.463 . S
C5031 C5036 1.350 . S
C5031 N5039 1.427 . S
C5032 H5023 0.930 . S
C5032 C5030 1.378 . S
C5032 C5033 1.367 . S
C5033 C5032 1.367 . S
C5033 C5035 1.433 . S
C5034 C5030 1.350 . S
C5034 C5031 1.463 . S
C5034 N5038 1.427 . S
C5035 H5025 0.929 . S
C5035 C5033 1.433 . S
C5035 N5038 1.384 . S
C5036 H5027 0.929 . S
C5036 C5028 1.378 . S
C5036 C5031 1.350 . S
C5037 H5024 0.929 . S
C5037 C5029 1.433 . S
C5037 N5039 1.384 . S
N5038 C5034 1.427 . S
N5038 C5035 1.384 . S
N5039 C5031 1.427 . S
N5039 C5037 1.384 . S
H5040 C5046 0.930 . S
H5041 C5050 0.930 . S
H5042 C5055 0.929 . S
H5043 C5053 0.929 . S
H5044 C5048 0.929 . S
H5045 C5054 0.929 . S
C5046 H5040 0.930 . S
C5046 C5047 1.367 . S
C5046 C5054 1.378 . S
C5047 C5046 1.367 . S
C5047 C5055 1.433 . S
C5048 H5044 0.929 . S
C5048 C5050 1.378 . S
C5048 C5052 1.350 . S
C5049 C5052 1.463 . S
C5049 C5054 1.350 . S
C5049 N5057 1.427 . S
C5050 H5041 0.930 . S
C5050 C5048 1.378 . S
C5050 C5051 1.367 . S
C5051 C5050 1.367 . S
C5051 C5053 1.433 . S
C5052 C5048 1.350 . S
C5052 C5049 1.463 . S
C5052 N5056 1.427 . S
C5053 H5043 0.929 . S
C5053 C5051 1.433 . S
C5053 N5056 1.384 . S
C5054 H5045 0.929 . S
C5054 C5046 1.378 . S
C5054 C5049 1.350 . S
C5055 H5042 0.929 . S
C5055 C5047 1.433 . S
C5055 N5057 1.384 . S
N5056 C5052 1.427 . S
N5056 C5053 1.384 . S
N5057 C5049 1.427 . S
N5057 C5055 1.384 . S
H5058 C5064 0.930 . S
H5059 C5068 0.930 . S
H5060 C5073 0.929 . S
H5061 C5071 0.929 1_545 S
H5062 C5066 0.929 . S
H5063 C5072 0.929 . S
C5064 H5058 0.930 . S
C5064 C5065 1.367 . S
C5064 C5072 1.378 . S
C5065 C5064 1.367 . S
C5065 C5073 1.433 . S
C5066 H5062 0.929 . S
C5066 C5068 1.378 . S
C5066 C5070 1.350 . S
C5067 C5070 1.463 . S
C5067 C5072 1.350 . S
C5067 N5075 1.427 . S
C5068 H5059 0.930 . S
C5068 C5066 1.378 . S
C5068 C5069 1.367 . S
C5069 C5068 1.367 . S
C5069 C5071 1.433 . S
C5070 C5066 1.350 . S
C5070 C5067 1.463 . S
C5070 N5074 1.427 . S
C5071 H5061 0.929 1_565 S
C5071 C5069 1.433 . S
C5071 N5074 1.384 . S
C5072 H5063 0.929 . S
C5072 C5064 1.378 . S
C5072 C5067 1.350 . S
C5073 H5060 0.929 . S
C5073 C5065 1.433 . S
C5073 N5075 1.384 . S
N5074 C5070 1.427 . S
N5074 C5071 1.384 . S
N5075 C5067 1.427 . S
N5075 C5073 1.384 . S
H5076 C5082 0.930 . S
H5077 C5086 0.930 . S
H5078 C5091 0.929 . S
H5079 C5089 0.929 . S
H5080 C5084 0.929 . S
H5081 C5090 0.929 . S
C5082 H5076 0.930 . S
C5082 C5083 1.367 . S
C5082 C5090 1.378 . S
C5083 C5082 1.367 . S
C5083 C5091 1.433 . S
C5084 H5080 0.929 . S
C5084 C5086 1.378 . S
C5084 C5088 1.350 . S
C5085 C5088 1.463 . S
C5085 C5090 1.350 . S
C5085 N5093 1.427 . S
C5086 H5077 0.930 . S
C5086 C5084 1.378 . S
C5086 C5087 1.367 . S
C5087 C5086 1.367 . S
C5087 C5089 1.433 . S
C5088 C5084 1.350 . S
C5088 C5085 1.463 . S
C5088 N5092 1.427 . S
C5089 H5079 0.929 . S
C5089 C5087 1.433 . S
C5089 N5092 1.384 . S
C5090 H5081 0.929 . S
C5090 C5082 1.378 . S
C5090 C5085 1.350 . S
C5091 H5078 0.929 . S
C5091 C5083 1.433 . S
C5091 N5093 1.384 . S
N5092 C5088 1.427 . S
N5092 C5089 1.384 . S
N5093 C5085 1.427 . S
N5093 C5091 1.384 . S
H5094 C5100 0.930 . S
H5095 C5104 0.930 . S
H5096 C5109 0.929 . S
H5097 C5107 0.929 . S
H5098 C5102 0.929 . S
H5099 C5108 0.929 . S
C5100 H5094 0.930 . S
C5100 C5101 1.367 . S
C5100 C5108 1.378 . S
C5101 C5100 1.367 . S
C5101 C5109 1.433 . S
C5102 H5098 0.929 . S
C5102 C5104 1.378 . S
C5102 C5106 1.350 . S
C5103 C5106 1.463 . S
C5103 C5108 1.350 . S
C5103 N5111 1.427 . S
C5104 H5095 0.930 . S
C5104 C5102 1.378 . S
C5104 C5105 1.367 . S
C5105 C5104 1.367 . S
C5105 C5107 1.433 . S
C5106 C5102 1.350 . S
C5106 C5103 1.463 . S
C5106 N5110 1.427 . S
C5107 H5097 0.929 . S
C5107 C5105 1.433 . S
C5107 N5110 1.384 . S
C5108 H5099 0.929 . S
C5108 C5100 1.378 . S
C5108 C5103 1.350 . S
C5109 H5096 0.929 . S
C5109 C5101 1.433 . S
C5109 N5111 1.384 . S
N5110 C5106 1.427 . S
N5110 C5107 1.384 . S
N5111 C5103 1.427 . S
N5111 C5109 1.384 . S
H5112 C5118 0.930 . S
H5113 C5122 0.930 . S
H5114 C5127 0.929 . S
H5115 C5125 0.929 . S
H5116 C5120 0.929 . S
H5117 C5126 0.929 . S
C5118 H5112 0.930 . S
C5118 C5119 1.367 . S
C5118 C5126 1.378 . S
C5119 C5118 1.367 . S
C5119 C5127 1.433 . S
C5120 H5116 0.929 . S
C5120 C5122 1.378 . S
C5120 C5124 1.350 . S
C5121 C5124 1.463 . S
C5121 C5126 1.350 . S
C5121 N5129 1.427 . S
C5122 H5113 0.930 . S
C5122 C5120 1.378 . S
C5122 C5123 1.367 . S
C5123 C5122 1.367 . S
C5123 C5125 1.433 . S
C5124 C5120 1.350 . S
C5124 C5121 1.463 . S
C5124 N5128 1.427 . S
C5125 H5115 0.929 . S
C5125 C5123 1.433 . S
C5125 N5128 1.384 . S
C5126 H5117 0.929 . S
C5126 C5118 1.378 . S
C5126 C5121 1.350 . S
C5127 H5114 0.929 . S
C5127 C5119 1.433 . S
C5127 N5129 1.384 . S
N5128 C5124 1.427 . S
N5128 C5125 1.384 . S
N5129 C5121 1.427 . S
N5129 C5127 1.384 . S
H5130 C5136 0.930 . S
H5131 C5140 0.930 1_556 S
H5132 C5145 0.929 . S
H5133 C5143 0.929 . S
H5134 C5138 0.929 1_556 S
H5135 C5144 0.929 . S
C5136 H5130 0.930 . S
C5136 C5137 1.367 . S
C5136 C5144 1.378 . S
C5137 C5136 1.367 . S
C5137 C5145 1.433 . S
C5138 H5134 0.929 1_554 S
C5138 C5140 1.378 . S
C5138 C5142 1.350 . S
C5139 C5142 1.463 . S
C5139 C5144 1.350 . S
C5139 N5147 1.427 . S
C5140 H5131 0.930 1_554 S
C5140 C5138 1.378 . S
C5140 C5141 1.367 . S
C5141 C5140 1.367 . S
C5141 C5143 1.433 . S
C5142 C5138 1.350 . S
C5142 C5139 1.463 . S
C5142 N5146 1.427 . S
C5143 H5133 0.929 . S
C5143 C5141 1.433 . S
C5143 N5146 1.384 . S
C5144 H5135 0.929 . S
C5144 C5136 1.378 . S
C5144 C5139 1.350 . S
C5145 H5132 0.929 . S
C5145 C5137 1.433 . S
C5145 N5147 1.384 . S
N5146 C5142 1.427 . S
N5146 C5143 1.384 . S
N5147 C5139 1.427 . S
N5147 C5145 1.384 . S
H5148 C5154 0.930 . S
H5149 C5158 0.930 . S
H5150 C5163 0.929 . S
H5151 C5161 0.929 . S
H5152 C5156 0.929 . S
H5153 C5162 0.929 . S
C5154 H5148 0.930 . S
C5154 C5155 1.367 . S
C5154 C5162 1.378 . S
C5155 C5154 1.367 . S
C5155 C5163 1.433 . S
C5156 H5152 0.929 . S
C5156 C5158 1.378 . S
C5156 C5160 1.350 . S
C5157 C5160 1.463 . S
C5157 C5162 1.350 . S
C5157 N5165 1.427 . S
C5158 H5149 0.930 . S
C5158 C5156 1.378 . S
C5158 C5159 1.367 . S
C5159 C5158 1.367 . S
C5159 C5161 1.433 . S
C5160 C5156 1.350 . S
C5160 C5157 1.463 . S
C5160 N5164 1.427 . S
C5161 H5151 0.929 . S
C5161 C5159 1.433 . S
C5161 N5164 1.384 . S
C5162 H5153 0.929 . S
C5162 C5154 1.378 . S
C5162 C5157 1.350 . S
C5163 H5150 0.929 . S
C5163 C5155 1.433 . S
C5163 N5165 1.384 . S
N5164 C5160 1.427 . S
N5164 C5161 1.384 . S
N5165 C5157 1.427 . S
N5165 C5163 1.384 . S
H5166 C5172 0.930 . S
H5167 C5176 0.930 . S
H5168 C5181 0.929 . S
H5169 C5179 0.929 . S
H5170 C5174 0.929 . S
H5171 C5180 0.929 . S
C5172 H5166 0.930 . S
C5172 C5173 1.367 . S
C5172 C5180 1.378 . S
C5173 C5172 1.367 . S
C5173 C5181 1.433 . S
C5174 H5170 0.929 . S
C5174 C5176 1.378 . S
C5174 C5178 1.350 . S
C5175 C5178 1.463 . S
C5175 C5180 1.350 . S
C5175 N5183 1.427 . S
C5176 H5167 0.930 . S
C5176 C5174 1.378 . S
C5176 C5177 1.367 . S
C5177 C5176 1.367 . S
C5177 C5179 1.433 . S
C5178 C5174 1.350 . S
C5178 C5175 1.463 . S
C5178 N5182 1.427 . S
C5179 H5169 0.929 . S
C5179 C5177 1.433 . S
C5179 N5182 1.384 . S
C5180 H5171 0.929 . S
C5180 C5172 1.378 . S
C5180 C5175 1.350 . S
C5181 H5168 0.929 . S
C5181 C5173 1.433 . S
C5181 N5183 1.384 . S
N5182 C5178 1.427 . S
N5182 C5179 1.384 . S
N5183 C5175 1.427 . S
N5183 C5181 1.384 . S
C3463 C665 2.032 1_455 S
C3467 C2168 2.076 . S
C3481 C381 1.806 . S
C3485 C2270 1.804 . S
C3499 C460 1.877 . S
C3503 C2336 1.928 . S
C3521 C2422 1.415 . S
C3517 C585 1.535 . S
C3535 C108 1.536 . S
C3539 C2506 1.416 . S
C3557 C2588 1.928 . S
C3553 C196 1.880 . S
C3575 C2690 1.802 . S
C3571 C313 1.809 . S
C3589 C49 2.041 . S
C3593 C2756 2.080 . S
C3611 C2186 1.517 . S
C3607 C1457 1.561 . S
C3625 C1545 0.813 . S
C3629 C2254 0.782 . S
C3647 C2354 1.013 . S
C3643 C1721 1.033 . S
C3665 C2420 1.646 . S
C3661 C1113 1.631 . S
C3679 C1428 1.626 . S
C3683 C2504 1.642 . S
C3701 C2606 1.025 . S
C3697 C1516 1.031 . S
C3719 C2674 0.779 . S
C3715 C1692 0.813 . S
C3737 C2774 1.526 . S
C3733 C1085 1.567 . S
C3755 C2170 0.936 . S
C3751 C988 0.934 . S
C3769 C1817 1.665 . S
C3773 C2858 1.639 . S
C3791 C2926 1.274 . S
C3787 C2081 1.333 . S
C3809 C3008 0.821 . S
C3805 C1993 0.813 . S
C3823 C761 0.933 . S
C3827 C2758 0.933 . S
C3841 C821 1.333 . S
C3845 C2338 1.276 . S
C3859 C2053 1.655 . S
C3863 C3110 1.640 . S
C3881 C3176 0.824 . S
C3877 C1868 0.816 . S
C3899 C2179 2.074 . S
C3895 C372 2.041 . S
C3917 C3183 1.801 . S
C3913 C645 1.799 . S
C3931 C577 1.880 . S
C3935 C2347 1.925 . S
C3949 C497 1.532 . S
C3953 C3105 1.424 . S
C3971 C2517 1.426 . S
C3967 C57 1.533 . S
C3985 C293 1.883 . S
C3989 C2935 1.927 . S
C4007 C2679 1.802 1_556 S
C4003 C205 1.802 . S
C4025 C3271 2.071 . S
C4021 C145 2.033 . S
C4043 C2175 1.510 . S
C4039 C909 1.557 . S
C4061 C3189 0.783 . S
C4057 C1956 0.808 . S
C4075 C724 1.027 . S
C4079 C2343 1.022 . S
C4093 C1780 1.621 . S
C4097 C3103 1.639 . S
C4111 C937 1.626 . S
C4115 C2515 1.641 . S
C4133 C2931 1.018 . S
C4129 C1985 1.028 . S
C4147 C753 0.808 . S
C4151 C2685 0.807 . S
C4165 C1809 1.559 . S
C4169 C3267 1.510 . S
C4183 C1173 0.941 . S
C4187 C2181 0.906 . S
C4201 C1105 1.645 . S
C4205 C2847 1.637 . S
C4219 C1633 1.332 . S
C4223 C2601 1.273 . S
C4237 C1553 0.825 . S
C4241 C3019 0.827 . S
C4259 C3273 0.914 . S
C4255 C1729 0.942 . S
C4273 C1340 1.334 . S
C4277 C2349 1.264 . S
C4295 C2427 1.635 . S
C4291 C1604 1.645 . S
C4313 C2263 0.827 . S
C4309 C1252 0.824 . S
C4327 C489 2.043 . S
C4331 C3344 2.080 . S
C4349 C3194 1.803 . S
C4345 C557 1.810 . S
C4363 C636 1.888 1_554 S
C4367 C3428 1.933 . S
C4381 C409 1.536 . S
C4385 C3094 1.411 . S
C4399 C284 1.535 . S
C4403 C2842 1.410 . S
C4421 C2924 1.928 . S
C4417 C20 1.876 . S
C4439 C3026 1.808 . S
C4435 C137 1.806 . S
C4457 C3260 2.076 . S
C4453 C225 2.036 . S
C4475 C3362 1.527 . S
C4471 C1641 1.567 . S
C4489 C1193 0.814 . S
C4493 C3178 0.786 . S
C4511 C3446 1.015 . S
C4507 C1289 1.032 . S
C4529 C3092 1.640 . S
C4525 C1377 1.621 . S
C4547 C2840 1.644 . S
C4543 C1613 1.625 . S
C4561 C1164 1.032 . S
C4565 C2942 1.016 . S
C4583 C3010 0.790 . S
C4579 C1261 0.811 . S
C4597 C1349 1.560 . S
C4601 C3278 1.513 . S
C4619 C3346 0.921 . S
C4615 C1965 0.929 . S
C4633 C849 1.651 . S
C4637 C2522 1.635 . S
C4655 C2590 1.276 . S
C4651 C929 1.332 . S
C4673 C2672 0.833 . S
C4669 C1017 0.833 . S
C4691 C3262 0.911 . S
C4687 C1897 0.945 . S
C4705 C1789 1.337 . S
C4709 C3430 1.256 . S
C4727 C2438 1.640 . S
C4723 C900 1.655 . S
C4745 C2252 0.825 . S
C4741 C733 0.817 . S
C4759 C548 2.040 . S
C4763 C3355 2.073 . S
C4781 C2259 1.803 . S
C4777 C469 1.798 . S
C4795 C401 1.883 . S
C4799 C3439 1.928 . S
C4813 C673 1.533 . S
C4817 C2433 1.415 . S
C4831 C233 1.532 . S
C4835 C2853 1.410 . S
C4853 C2599 1.927 . S
C4849 C117 1.883 . S
C4867 C29 1.801 . S
C4871 C3015 1.804 . S
C4885 C321 2.033 . S
C4889 C2767 2.071 . S
C4907 C3351 1.522 . S
C4903 C2044 1.562 . S
C4921 C997 0.807 . S
C4925 C2265 0.785 . S
C4943 C3435 1.024 1_655 S
C4939 C1877 1.027 . S
C4957 C812 1.627 . S
C4961 C2431 1.640 . S
C4975 C2073 1.619 . S
C4979 C2851 1.635 . S
C4997 C2595 1.014 . S
C4993 C1025 1.033 . S
C5011 C1905 0.807 . S
C5015 C3021 0.797 . S
C5033 C2763 1.519 . S
C5029 C841 1.560 . S
C5051 C3357 0.905 . S
C5047 C1525 0.939 . S
C5069 C2511 1.639 1_565 S
C5065 C1369 1.647 . S
C5083 C1465 1.332 . S
C5087 C2937 1.271 . S
C5105 C2683 0.827 . S
C5101 C1201 0.825 . S
C5119 C1281 0.938 . S
C5123 C2769 0.905 . S
C5137 C1076 1.336 . S
C5141 C3441 1.254 . S
C5159 C3099 1.638 . S
C5155 C1437 1.646 . S
C5177 C3187 0.817 . S
C5173 C1701 0.815 . S
