# Generated by pormake.
# Topology pth, (4,4)-cn, num edge types: 1
# Building blocks:
#     Node 0, Type 0, BuildingBlock: CEKHIL_clean_sbu_0, # of connection points: 4
#     Node 1, Type 0, BuildingBlock: CEKHIL_clean_sbu_0, # of connection points: 4
#     Node 2, Type 0, BuildingBlock: CEKHIL_clean_sbu_0, # of connection points: 4
#     Node 3, Type 1, BuildingBlock: NAWXER_clean_sbu_0, # of connection points: 4
#     Node 4, Type 1, BuildingBlock: NAWXER_clean_sbu_0, # of connection points: 4
#     Node 5, Type 1, BuildingBlock: NAWXER_clean_sbu_0, # of connection points: 4
#     Edge 6, Type (0, 1), BuildingBlock: ZUJKAS_clean_linker_0, # of connection points: 2
#     Edge 7, Type (0, 1), BuildingBlock: ZUJKAS_clean_linker_0, # of connection points: 2
#     Edge 8, Type (0, 1), BuildingBlock: ZUJKAS_clean_linker_0, # of connection points: 2
#     Edge 9, Type (0, 1), BuildingBlock: ZUJKAS_clean_linker_0, # of connection points: 2
#     Edge 10, Type (0, 1), BuildingBlock: ZUJKAS_clean_linker_0, # of connection points: 2
#     Edge 11, Type (0, 1), BuildingBlock: ZUJKAS_clean_linker_0, # of connection points: 2
#     Edge 12, Type (0, 1), BuildingBlock: ZUJKAS_clean_linker_0, # of connection points: 2
#     Edge 13, Type (0, 1), BuildingBlock: ZUJKAS_clean_linker_0, # of connection points: 2
#     Edge 14, Type (0, 1), BuildingBlock: ZUJKAS_clean_linker_0, # of connection points: 2
#     Edge 15, Type (0, 1), BuildingBlock: ZUJKAS_clean_linker_0, # of connection points: 2
#     Edge 16, Type (0, 1), BuildingBlock: ZUJKAS_clean_linker_0, # of connection points: 2
#     Edge 17, Type (0, 1), BuildingBlock: ZUJKAS_clean_linker_0, # of connection points: 2
# Relax obj value: 0.003
# Max RMSD: 0.042
# Mean RMSD: 0.026
data_MOF--net-pth--node1-CEKHIL_clean_sbu_0--node2-NAWXER_clean_sbu_0--edge1-ZUJKAS_clean_linker_0
_symmetry_space_group_name_H-M    P1
_symmetry_Int_Tables_number       1
_symmetry_cell_setting            triclinic
loop_
_symmetry_equiv_pos_as_xyz
'x, y, z'
_cell_length_a     29.451224
_cell_length_b     29.543842
_cell_length_c     74.715352
_cell_angle_alpha  90.760128
_cell_angle_beta   90.03655
_cell_angle_gamma 120.29704
loop_
_atom_site_label
_atom_site_type_symbol
_atom_site_fract_x
_atom_site_fract_y
_atom_site_fract_z
_atom_type_partial_charge
Co0 Co 0.02976 0.04624 0.08648 0.0
O1 O 1.00115 0.99816 0.10583 0.0
O2 O 0.06254 0.00301 0.08759 0.0
C3 C 0.04187 0.11716 0.10235 0.0
O4 O 0.0697 0.0944 0.06561 0.0
Co5 Co 0.96467 0.09499 0.07314 0.0
O6 O 0.02881 0.13945 0.05914 0.0
C7 C 0.93164 0.98687 0.0625 0.0
C8 C 0.03249 0.9813 0.10137 0.0
C9 C 0.06645 0.13034 0.057 0.0
O10 O 0.97417 0.99298 0.06963 0.0
O11 O 0.91786 0.02153 0.06377 0.0
O12 O 0.07635 0.10214 0.103 0.0
O13 O 0.99884 0.08567 0.09378 0.0
Co14 Co 0.03038 0.05527 0.40543 0.0
O15 O 0.99721 0.07348 0.38711 0.0
O16 O 0.0626 0.13137 0.40427 0.0
C17 C 0.03942 0.9963 0.38864 0.0
O18 O 0.0754 0.04835 0.42505 0.0
Co19 Co 0.97023 0.94206 0.41937 0.0
O20 O 0.04103 0.96152 0.42847 0.0
C21 C 0.93962 0.01705 0.43231 0.0
C22 C 0.02955 0.12212 0.39119 0.0
C23 C 0.07773 0.00875 0.43111 0.0
O24 O 0.97848 0.05307 0.4236 0.0
O25 O 0.92739 0.96889 0.4316 0.0
O26 O 0.07327 0.04604 0.38763 0.0
O27 O 0.99828 0.98437 0.39819 0.0
Co28 Co 0.02691 0.03874 0.73875 0.0
O29 O 0.08103 0.07376 0.72142 0.0
O30 O 0.07173 0.00763 0.73764 0.0
C31 C 0.96004 0.02926 0.72126 0.0
O32 O 0.97294 0.99294 0.75759 0.0
Co33 Co 0.97171 0.09781 0.75241 0.0
O34 O 0.92112 0.02784 0.7619 0.0
C35 C 0.07751 0.13022 0.76589 0.0
C36 C 0.09783 0.04228 0.72543 0.0
C37 C 0.93148 0.99125 0.76414 0.0
O38 O 0.07439 0.09007 0.75779 0.0
O39 O 0.04215 0.14304 0.76435 0.0
O40 O 0.97663 0.99613 0.72011 0.0
O41 O 0.98822 0.07007 0.73135 0.0
C42 C 0.08004 0.63252 0.27058 0.0
C43 C 0.07889 0.51698 0.22239 0.0
O44 O 0.12065 0.63588 0.26325 0.0
Zn45 Zn 0.08326 0.57688 0.24642 0.0
O46 O 0.03422 0.5971 0.26522 0.0
Zn47 Zn 0.99797 0.53435 0.24626 0.0
O48 O 0.96087 0.47459 0.26219 0.0
O49 O 0.04731 0.51161 0.26384 0.0
O50 O 0.03331 0.50682 0.22759 0.0
O51 O 0.11979 0.55474 0.22972 0.0
O52 O 0.04778 0.60667 0.22894 0.0
O53 O 0.96132 0.55771 0.23023 0.0
C54 C 1.00151 0.47611 0.26881 0.0
C55 C 1.00213 0.5968 0.22382 0.0
C56 C 0.56851 0.00404 0.60103 0.0
C57 C 0.45508 0.01608 0.55502 0.0
O58 O 0.53115 0.96498 0.59272 0.0
Zn59 Zn 0.51051 0.00573 0.57772 0.0
O60 O 0.57932 0.0506 0.59725 0.0
Zn61 Zn 0.5542 0.09094 0.58009 0.0
O62 O 0.53074 0.12463 0.59772 0.0
O63 O 0.48282 0.03819 0.59748 0.0
O64 O 0.49115 0.06012 0.56141 0.0
O65 O 0.4518 0.97387 0.56048 0.0
O66 O 0.57717 0.04383 0.56106 0.0
O67 O 0.61619 0.12962 0.56473 0.0
C68 C 0.49283 0.08261 0.60401 0.0
C69 C 0.61432 0.08979 0.55715 0.0
C70 C 0.44956 0.50092 0.93593 0.0
C71 C 0.57319 0.61779 0.89056 0.0
O72 O 0.44701 0.53782 0.92823 0.0
Zn73 Zn 0.50859 0.56056 0.91294 0.0
O74 O 0.48558 0.4908 0.93152 0.0
Zn75 Zn 0.55003 0.51709 0.91358 0.0
O76 O 0.60914 0.53991 0.93042 0.0
O77 O 0.57047 0.58732 0.93218 0.0
O78 O 0.58154 0.58147 0.89577 0.0
O79 O 0.53459 0.62057 0.89698 0.0
O80 O 0.48064 0.49713 0.89452 0.0
O81 O 0.52547 0.45623 0.89715 0.0
C82 C 0.60563 0.57732 0.93769 0.0
C83 C 0.48895 0.46034 0.88958 0.0
H84 H 0.1308 0.1904 0.11965 0.0
H85 H 0.14215 0.26392 0.13842 0.0
H86 H 0.98309 0.22454 0.12629 0.0
H87 H 0.97129 0.15062 0.10746 0.0
H88 H 0.12786 0.35269 0.13069 0.0
H89 H 0.99109 0.21894 0.18201 0.0
H90 H 0.01944 0.19719 0.16493 0.0
H91 H 0.96547 0.20677 0.15952 0.0
C92 C 0.09832 0.19761 0.12084 0.0
C93 C 0.04993 0.16442 0.11222 0.0
C94 C 0.10497 0.23972 0.13154 0.0
C95 C 0.06328 0.24919 0.13392 0.0
C96 C 0.01554 0.2174 0.12479 0.0
H97 H 0.99967 0.44796 0.2006 0.0
H98 H 1.00082 0.38704 0.17869 0.0
C99 C 0.00891 0.17534 0.114 0.0
C100 C 0.06899 0.29074 0.14663 0.0
H101 H 0.02281 0.30942 0.18625 0.0
C102 C 0.10507 0.3434 0.14287 0.0
C103 C 0.03957 0.27829 0.16257 0.0
C104 C 1.00199 0.22225 0.16766 0.0
C105 C 0.11115 0.38418 0.1544 0.0
C106 C 0.08108 0.3717 0.17023 0.0
C107 C 0.04577 0.31892 0.17409 0.0
C108 C 0.08309 0.41247 0.18258 0.0
C109 C 0.1484 0.44022 0.1493 0.0
C110 C 0.12931 0.44771 0.19197 0.0
C111 C 0.12891 0.48316 0.20459 0.0
C112 C 0.08211 0.48337 0.20811 0.0
C113 C 0.03638 0.44872 0.19836 0.0
C114 C 0.03689 0.41376 0.18578 0.0
H115 H 0.15967 0.44346 0.13499 0.0
H116 H 0.13053 0.46497 0.15187 0.0
H117 H 0.18475 0.45607 0.15756 0.0
H118 H 0.16523 0.44679 0.18993 0.0
H119 H 0.16468 0.50916 0.21195 0.0
H120 H 0.86378 0.95644 0.45652 0.0
H121 H 0.81676 0.98318 0.47706 0.0
H122 H 0.89944 0.13953 0.45606 0.0
H123 H 0.94672 0.11326 0.43536 0.0
H124 H 0.86483 0.06715 0.50352 0.0
H125 H 0.74127 0.09728 0.45407 0.0
H126 H 0.77169 0.05881 0.44885 0.0
H127 H 0.81074 0.12899 0.44982 0.0
C128 C 0.87176 0.99641 0.45611 0.0
C129 C 0.90909 0.03259 0.44421 0.0
C130 C 0.84492 0.01169 0.46792 0.0
C131 C 0.85432 0.06322 0.468 0.0
C132 C 0.8911 0.09939 0.45607 0.0
H133 H 0.68968 0.17731 0.53929 0.0
H134 H 0.75485 0.18063 0.51776 0.0
C135 C 0.91823 0.08425 0.4443 0.0
C136 C 0.82658 0.07906 0.48102 0.0
H137 H 0.73033 0.11107 0.48449 0.0
C138 C 0.83587 0.07734 0.49935 0.0
C139 C 0.78916 0.09284 0.47555 0.0
C140 C 0.77713 0.0944 0.45602 0.0
C141 C 0.80752 0.08731 0.51236 0.0
C142 C 0.76832 0.09858 0.50692 0.0
C143 C 0.76064 0.10271 0.48861 0.0
C144 C 0.73015 0.09841 0.51991 0.0
C145 C 0.81866 0.08429 0.53189 0.0
C146 C 0.69462 0.0512 0.52802 0.0
C147 C 0.65757 0.04912 0.54006 0.0
C148 C 0.65499 0.09431 0.54438 0.0
C149 C 0.69077 0.14191 0.53629 0.0
C150 C 0.72785 0.14382 0.52399 0.0
H151 H 0.85857 0.08994 0.53395 0.0
H152 H 0.81516 0.11422 0.53996 0.0
H153 H 0.78955 0.04502 0.53693 0.0
H154 H 0.69531 0.01561 0.52492 0.0
H155 H 0.63092 0.01175 0.54603 0.0
H156 H 0.94604 0.91592 0.78051 0.0
H157 H 0.8861 0.8489 0.80151 0.0
H158 H 0.77348 0.89965 0.79423 0.0
H159 H 0.83233 0.96603 0.77352 0.0
H160 H 0.79859 0.89454 0.83044 0.0
H161 H 0.74429 0.71068 0.7924 0.0
H162 H 0.81342 0.75731 0.79475 0.0
H163 H 0.77257 0.77365 0.78176 0.0
C164 C 0.90819 0.91222 0.7832 0.0
C165 C 0.89433 0.94673 0.7754 0.0
C166 C 0.87395 0.87389 0.79518 0.0
C167 C 0.82526 0.86928 0.79942 0.0
C168 C 0.81088 0.90261 0.79123 0.0
H169 H 0.56518 0.69531 0.8731 0.0
H170 H 0.62605 0.75653 0.85096 0.0
C171 C 0.84479 0.94066 0.77936 0.0
C172 C 0.78991 0.83195 0.81304 0.0
H173 H 0.70955 0.70181 0.82143 0.0
C174 C 0.77914 0.85236 0.8285 0.0
C175 C 0.76468 0.77702 0.81047 0.0
C176 C 0.77383 0.75307 0.79391 0.0
C177 C 0.74406 0.81939 0.84152 0.0
C178 C 0.71797 0.76439 0.83882 0.0
C179 C 0.72922 0.74397 0.82344 0.0
C180 C 0.68023 0.72728 0.85206 0.0
C181 C 0.73619 0.84385 0.85822 0.0
C182 C 0.68961 0.68966 0.8597 0.0
C183 C 0.65476 0.65446 0.87214 0.0
C184 C 0.60947 0.65588 0.87728 0.0
C185 C 0.59982 0.69339 0.86955 0.0
C186 C 0.63476 0.72858 0.85697 0.0
H187 H 0.76909 0.88462 0.86046 0.0
H188 H 0.69941 0.84525 0.85681 0.0
H189 H 0.73268 0.82052 0.87021 0.0
H190 H 0.72428 0.68777 0.85614 0.0
H191 H 0.66364 0.6262 0.87778 0.0
H192 H 0.01543 0.96697 0.13677 0.0
H193 H 0.00817 0.89566 0.1548 0.0
H194 H 0.03925 0.82806 0.10816 0.0
H195 H 0.04932 0.90171 0.09014 0.0
H196 H 0.93948 0.7966 0.15298 0.0
H197 H 0.13677 0.81954 0.14297 0.0
H198 H 0.12112 0.8681 0.13576 0.0
H199 H 0.10025 0.80927 0.12262 0.0
C200 C 0.02154 0.93733 0.13039 0.0
C201 C 0.03325 0.93997 0.11208 0.0
C202 C 0.01709 0.89635 0.14071 0.0
C203 C 0.02334 0.85632 0.13295 0.0
C204 C 0.03541 0.85897 0.11461 0.0
H205 H 0.92301 0.57432 0.19935 0.0
H206 H 0.92386 0.63181 0.17569 0.0
C207 C 0.04106 0.90094 0.10429 0.0
C208 C 0.01556 0.81174 0.14426 0.0
H209 H 0.07662 0.74794 0.16011 0.0
C210 C 0.96947 0.78587 0.15449 0.0
C211 C 0.05463 0.79767 0.14631 0.0
C212 C 0.10617 0.82535 0.13647 0.0
C213 C 0.9623 0.74817 0.16719 0.0
C214 C 1.00142 0.73422 0.16927 0.0
C215 C 0.04652 0.75849 0.15851 0.0
C216 C 0.9991 0.69842 0.18358 0.0
C217 C 0.91419 0.72586 0.17888 0.0
C218 C 0.04122 0.71617 0.19574 0.0
C219 C 0.04121 0.68324 0.20893 0.0
C220 C 0.9988 0.63173 0.21049 0.0
C221 C 0.95593 0.61402 0.1986 0.0
C222 C 0.95637 0.64693 0.18511 0.0
H223 H 0.89534 0.7503 0.17873 0.0
H224 H 0.88491 0.6861 0.17384 0.0
H225 H 0.92422 0.72256 0.19294 0.0
H226 H 0.07449 0.7557 0.19498 0.0
H227 H 0.07476 0.69822 0.21793 0.0
H228 H 0.15293 0.0981 0.44902 0.0
H229 H 0.22358 0.10572 0.46877 0.0
H230 H 0.17511 0.94393 0.45762 0.0
H231 H 0.1059 0.93618 0.43795 0.0
H232 H 0.21035 0.04683 0.49952 0.0
H233 H 0.33293 0.01574 0.45041 0.0
H234 H 0.28419 0.03234 0.4438 0.0
H235 H 0.26494 0.96566 0.44892 0.0
C236 C 0.15799 0.06451 0.45058 0.0
C237 C 0.12356 0.01653 0.44194 0.0
C238 C 0.1982 0.06883 0.46189 0.0
C239 C 0.20507 0.02554 0.46448 0.0
C240 C 0.17138 0.97815 0.45557 0.0
H241 H 0.3778 0.93283 0.53535 0.0
H242 H 0.31695 0.9356 0.51338 0.0
C243 C 0.13136 0.97373 0.44442 0.0
C244 C 0.24477 0.02793 0.47734 0.0
H245 H 0.34558 0.00265 0.48123 0.0
C246 C 0.24039 0.0379 0.4955 0.0
C247 C 0.28372 0.01584 0.4721 0.0
C248 C 0.29213 0.00729 0.45272 0.0
C249 C 0.27278 0.03449 0.50859 0.0
C250 C 0.31087 0.02125 0.50338 0.0
C251 C 0.31586 0.0121 0.48521 0.0
C252 C 0.34738 0.01898 0.51654 0.0
C253 C 0.26518 0.04378 0.52798 0.0
C254 C 0.38489 0.06491 0.52536 0.0
C255 C 0.41958 0.0635 0.53775 0.0
C256 C 0.41767 0.01604 0.54166 0.0
C257 C 0.3802 0.96992 0.53271 0.0
C258 C 0.34552 0.97148 0.52015 0.0
H259 H 0.22689 0.04177 0.53019 0.0
H260 H 0.26729 0.01461 0.53664 0.0
H261 H 0.29701 0.08337 0.53225 0.0
H262 H 0.38751 0.10206 0.52259 0.0
H263 H 0.44788 0.0999 0.54433 0.0
H264 H 0.15028 0.10563 0.77798 0.0
H265 H 0.22286 0.15552 0.79905 0.0
H266 H 0.18241 0.27681 0.80188 0.0
H267 H 0.10885 0.2266 0.78122 0.0
H268 H 0.30981 0.25219 0.79784 0.0
H269 H 0.18461 0.24581 0.85409 0.0
H270 H 0.15771 0.20579 0.83413 0.0
H271 H 0.1738 0.27327 0.8344 0.0
C272 C 0.15672 0.14292 0.78308 0.0
C273 C 0.12322 0.16178 0.77802 0.0
C274 C 0.19833 0.17141 0.79513 0.0
C275 C 0.20746 0.21938 0.80238 0.0
C276 C 0.17524 0.23916 0.79689 0.0
H277 H 0.42429 0.47352 0.8672 0.0
H278 H 0.35961 0.4107 0.84617 0.0
C279 C 0.13332 0.21051 0.78497 0.0
C280 C 0.25068 0.24892 0.81562 0.0
H281 H 0.27664 0.30778 0.85697 0.0
C282 C 0.30253 0.26378 0.81087 0.0
C283 C 0.24114 0.26346 0.83273 0.0
C284 C 0.18624 0.24578 0.83923 0.0
C285 C 0.34524 0.29513 0.82239 0.0
C286 C 0.33574 0.31171 0.83908 0.0
C287 C 0.28382 0.29518 0.8441 0.0
C288 C 0.37895 0.35033 0.85086 0.0
C289 C 0.40038 0.31225 0.81638 0.0
C290 C 0.41217 0.33757 0.86034 0.0
C291 C 0.44973 0.3738 0.87254 0.0
C292 C 0.45415 0.42303 0.87547 0.0
C293 C 0.42179 0.43587 0.86546 0.0
C294 C 0.38468 0.39998 0.85337 0.0
H295 H 0.40154 0.30088 0.80223 0.0
H296 H 0.42573 0.35545 0.81789 0.0
H297 H 0.41726 0.29394 0.82497 0.0
H298 H 0.408 0.29917 0.8587 0.0
H299 H 0.4739 0.36268 0.88008 0.0
H300 H 0.89107 0.94239 0.70207 0.0
H301 H 0.81885 0.93122 0.6828 0.0
H302 H 0.852 0.08667 0.69746 0.0
H303 H 0.92454 0.09822 0.71686 0.0
H304 H 0.72663 0.9421 0.69071 0.0
H305 H 0.86433 0.08447 0.64145 0.0
H306 H 0.8851 0.05477 0.65809 0.0
H307 H 0.87434 0.10752 0.66431 0.0
C308 C 0.88279 0.97412 0.70131 0.0
C309 C 0.9138 0.02143 0.71085 0.0
C310 C 0.8414 0.96755 0.69033 0.0
C311 C 0.83053 0.00829 0.68856 0.0
C312 C 0.86022 0.05495 0.69852 0.0
H313 H 0.63511 0.07821 0.62473 0.0
H314 H 0.69455 0.07309 0.64603 0.0
C315 C 0.9015 0.06146 0.70962 0.0
C316 C 0.78976 0.00285 0.67566 0.0
H317 H 0.7737 0.05241 0.63673 0.0
C318 C 0.73675 0.96598 0.67885 0.0
C319 C 0.80333 0.03362 0.66012 0.0
C320 C 0.85986 0.07206 0.65562 0.0
C321 C 0.69664 0.96062 0.66722 0.0
C322 C 0.7102 0.99232 0.65189 0.0
C323 C 0.76338 0.02817 0.64851 0.0
C324 C 0.67011 0.99225 0.63982 0.0
C325 C 0.64008 0.92253 0.67173 0.0
C326 C 0.63581 0.94805 0.62933 0.0
C327 C 0.60119 0.95074 0.61701 0.0
C328 C 0.6009 0.99785 0.61493 0.0
C329 C 0.63448 0.04138 0.62581 0.0
C330 C 0.66859 0.03859 0.63806 0.0
H331 H 0.63577 0.9083 0.68566 0.0
H332 H 0.61558 0.94099 0.67 0.0
H333 H 0.62461 0.88813 0.66248 0.0
H334 H 0.63686 0.91205 0.6303 0.0
H335 H 0.57597 0.91665 0.60878 0.0
H336 H 0.95974 0.91862 0.04826 0.0
H337 H 0.90881 0.84504 0.02756 0.0
H338 H 0.77835 0.87225 0.03123 0.0
H339 H 0.82953 0.94688 0.05144 0.0
H340 H 0.81604 0.75347 0.02959 0.0
H341 H 0.8005 0.8779 0.97801 0.0
H342 H 0.84369 0.90524 0.99719 0.0
H343 H 0.77474 0.88356 0.99912 0.0
C344 C 0.92009 0.90882 0.04474 0.0
C345 C 0.89897 0.93914 0.05135 0.0
C346 C 0.89104 0.86671 0.03288 0.0
C347 C 0.84023 0.85388 0.02747 0.0
C348 C 0.81809 0.8824 0.03476 0.0
H349 H 0.58718 0.63496 0.96186 0.0
H350 H 0.64774 0.6983 0.98376 0.0
C351 C 0.8473 0.9249 0.04642 0.0
C352 C 0.81061 0.81137 0.01397 0.0
H353 H 0.74447 0.7855 0.97416 0.0
C354 C 0.80081 0.76051 0.01737 0.0
C355 C 0.79141 0.8207 0.99789 0.0
C356 C 0.80358 0.87491 0.99272 0.0
C357 C 0.77003 0.71831 1.00556 0.0
C358 C 0.74893 0.7274 0.98993 0.0
C359 C 0.76036 0.77854 0.98624 0.0
C360 C 0.71151 0.68431 0.97782 0.0
C361 C 0.75863 0.66406 0.01019 0.0
C362 C 0.72684 0.65436 0.96739 0.0
C363 C 0.69185 0.61747 0.95476 0.0
C364 C 0.64141 0.61068 0.95231 0.0
C365 C 0.62592 0.63956 0.96325 0.0
C366 C 0.66049 0.67583 0.97583 0.0
H367 H 0.77064 0.66217 0.02414 0.0
H368 H 0.71606 0.63522 0.0085 0.0
H369 H 0.78052 0.6523 1.00097 0.0
H370 H 0.76632 0.66078 0.96855 0.0
H371 H 0.70495 0.59601 0.94646 0.0
H372 H 0.1245 0.01394 0.36906 0.0
H373 H 0.13563 0.95094 0.35088 0.0
H374 H 0.98395 0.82684 0.36776 0.0
H375 H 0.97223 0.88999 0.38595 0.0
H376 H 0.13371 0.8565 0.35984 0.0
H377 H 0.97351 0.82269 0.31252 0.0
H378 H 1.00199 0.87699 0.3283 0.0
H379 H 0.95498 0.81234 0.33566 0.0
C380 C 0.09353 0.97319 0.36899 0.0
C381 C 0.04717 0.95698 0.37879 0.0
C382 C 0.10009 0.93724 0.35863 0.0
C383 C 0.06035 0.88443 0.35778 0.0
C384 C 0.01475 0.86766 0.36803 0.0
H385 H 0.0049 0.61619 0.2947 0.0
H386 H 0.00493 0.67784 0.3166 0.0
C387 C 0.00817 0.90367 0.37845 0.0
C388 C 0.066 0.84754 0.3456 0.0
H389 H 0.0126 0.77061 0.30827 0.0
C390 C 0.10731 0.83765 0.34854 0.0
C391 C 0.03184 0.82355 0.33079 0.0
C392 C 0.98833 0.83464 0.32646 0.0
C393 C 0.11441 0.80312 0.33733 0.0
C394 C 0.07984 0.7787 0.32262 0.0
C395 C 0.039 0.78923 0.31959 0.0
C396 C 0.08343 0.74035 0.31052 0.0
C397 C 0.1579 0.79202 0.34158 0.0
C398 C 0.1281 0.75459 0.29997 0.0
C399 C 0.12841 0.71896 0.28741 0.0
C400 C 0.08373 0.66896 0.28507 0.0
C401 C 0.03984 0.65457 0.29603 0.0
C402 C 0.03974 0.68977 0.3086 0.0
H403 H 0.17262 0.80375 0.35554 0.0
H404 H 0.14433 0.74973 0.33963 0.0
H405 H 0.19127 0.81458 0.33242 0.0
H406 H 0.16195 0.79376 0.301 0.0
H407 H 0.16262 0.73123 0.27907 0.0
H408 H 0.16903 0.12457 0.7062 0.0
H409 H 0.24117 0.13115 0.68833 0.0
H410 H 0.20475 0.97756 0.70526 0.0
H411 H 0.13164 0.97053 0.72339 0.0
H412 H 0.33148 0.12213 0.69814 0.0
H413 H 0.19614 0.96957 0.64919 0.0
H414 H 0.17394 1.00123 0.66485 0.0
H415 H 0.18739 0.95173 0.6724 0.0
C416 C 0.1764 0.09217 0.70627 0.0
C417 C 0.14426 0.04674 0.7161 0.0
C418 C 0.21787 0.09618 0.69607 0.0
C419 C 0.22799 0.05472 0.69531 0.0
C420 C 0.19718 0.00982 0.70555 0.0
H421 H 0.43029 1.00137 0.62535 0.0
H422 H 0.3702 0.99737 0.64838 0.0
C423 C 0.15566 0.00592 0.71594 0.0
C424 C 0.26933 0.05825 0.68309 0.0
H425 H 0.28671 0.00925 0.64372 0.0
C426 C 0.32188 0.09727 0.68629 0.0
C427 C 0.25652 0.02615 0.66756 0.0
C428 C 0.20046 0.98499 0.66311 0.0
C429 C 0.36213 0.10458 0.67447 0.0
C430 C 0.34924 0.0728 0.65882 0.0
C431 C 0.29663 0.03368 0.6557 0.0
C432 C 0.3895 0.07794 0.64569 0.0
C433 C 0.41813 0.14557 0.67902 0.0
C434 C 0.42113 0.12494 0.63655 0.0
C435 C 0.45626 0.12757 0.62332 0.0
C436 C 0.4596 0.08297 0.61887 0.0
C437 C 0.42848 0.03643 0.6283 0.0
C438 C 0.394 0.034 0.64152 0.0
H439 H 0.42304 0.15647 0.69347 0.0
H440 H 0.44567 0.1316 0.67549 0.0
H441 H 0.42922 0.18144 0.67128 0.0
H442 H 0.41763 0.15913 0.63927 0.0
H443 H 0.47945 0.16385 0.61623 0.0
H444 H 0.05483 0.1791 0.02834 0.0
H445 H 0.12253 0.24139 0.00854 0.0
H446 H 0.23941 0.22179 0.03657 0.0
H447 H 0.171 0.15796 0.05638 0.0
H448 H 0.20739 0.33508 0.01854 0.0
H449 H 0.27281 0.20961 0.98451 0.0
H450 H 0.2129 0.18256 0.99726 0.0
H451 H 0.2754 0.2099 0.00853 0.0
C452 C 0.09484 0.18748 0.03022 0.0
C453 C 0.10755 0.16361 0.04399 0.0
C454 C 0.13354 0.22323 0.01887 0.0
C455 C 0.18607 0.23627 0.02099 0.0
C456 C 0.19898 0.2117 0.03446 0.0
H457 H 0.46707 0.45188 0.96314 0.0
H458 H 0.40403 0.39141 0.9846 0.0
C459 C 0.15991 0.17528 0.0458 0.0
C460 C 0.22699 0.2775 0.00954 0.0
H461 H 0.31947 0.29984 0.97797 0.0
C462 C 0.23196 0.3274 0.00967 0.0
C463 C 0.25911 0.26754 0.99801 0.0
C464 C 0.25468 0.21442 0.99689 0.0
C465 C 0.26826 0.36765 0.99868 0.0
C466 C 0.29983 0.35749 0.98692 0.0
C467 C 0.29522 0.3077 0.98694 0.0
C468 C 0.33854 0.39785 0.97464 0.0
C469 C 0.27305 0.4209 1.00008 0.0
C470 C 0.32313 0.42253 0.96198 0.0
C471 C 0.35959 0.45812 0.94982 0.0
C472 C 0.41171 0.46858 0.94987 0.0
C473 C 0.42708 0.44441 0.9627 0.0
C474 C 0.39104 0.4097 0.97497 0.0
H475 H 0.25842 0.42661 0.01314 0.0
H476 H 0.31444 0.45281 0.99849 0.0
H477 H 0.24892 0.42434 0.98936 0.0
H478 H 0.2826 0.41316 0.96113 0.0
H479 H 0.34652 0.47566 0.93994 0.0
H480 H 0.05474 0.22184 0.40208 0.0
H481 H 0.04342 0.28563 0.38455 0.0
H482 H 0.99288 0.17967 0.33897 0.0
H483 H 1.00153 0.11568 0.35652 0.0
H484 H 0.08545 0.3385 0.35564 0.0
H485 H 0.87527 0.20806 0.34029 0.0
H486 H 0.90957 0.19118 0.35646 0.0
H487 H 0.91123 0.17735 0.33294 0.0
C488 C 0.04123 0.21245 0.38832 0.0
C489 C 0.02833 0.16362 0.38073 0.0
C490 C 0.03455 0.24871 0.37833 0.0
C491 C 0.01541 0.23676 0.36059 0.0
C492 C 0.00533 0.18903 0.35283 0.0
H493 H 0.07101 0.44333 0.27445 0.0
H494 H 0.07091 0.38737 0.29807 0.0
C495 C 0.0109 0.15265 0.36284 0.0
C496 C 0.00755 0.27432 0.34975 0.0
H497 H 0.92277 0.27983 0.31977 0.0
C498 C 0.04952 0.32587 0.34804 0.0
C499 C 0.96016 0.2587 0.34017 0.0
C500 C 0.91138 0.20597 0.34275 0.0
C501 C 0.04663 0.36093 0.3362 0.0
C502 C 1.0013 0.34342 0.32523 0.0
C503 C 0.95806 0.29305 0.32781 0.0
C504 C 0.99926 0.37557 0.31038 0.0
C505 C 0.09241 0.4164 0.33563 0.0
C506 C 0.95709 0.38492 0.30858 0.0
C507 C 0.95625 0.41593 0.29464 0.0
C508 C 0.99781 0.43835 0.28238 0.0
C509 C 0.03883 0.42732 0.28386 0.0
C510 C 0.03915 0.39576 0.29752 0.0
H511 H 0.11303 0.42877 0.34879 0.0
H512 H 0.12124 0.41853 0.32562 0.0
H513 H 0.07959 0.44452 0.33191 0.0
H514 H 0.92538 0.36914 0.31817 0.0
H515 H 0.92418 0.42383 0.29382 0.0
loop_
_geom_bond_atom_site_label_1
_geom_bond_atom_site_label_2
_geom_bond_distance
_geom_bond_site_symmetry_2
_ccdc_geom_bond_type
Co0 O1 2.216 1_445 S
Co0 O2 2.109 . S
Co0 O4 2.004 . S
Co0 O10 2.021 1_445 S
Co0 O12 2.137 . S
Co0 O13 2.244 1_455 S
O1 Co0 2.216 1_665 S
O1 C8 1.247 1_655 S
O2 Co0 2.109 . S
O2 C8 1.258 1_545 S
C3 O12 1.247 . S
C3 O13 1.272 1_455 S
O4 Co0 2.004 . S
O4 C9 1.259 . S
Co5 O6 2.061 1_655 S
Co5 O11 2.052 . S
Co5 O13 2.135 . S
O6 Co5 2.061 1_455 S
O6 C9 1.235 . S
C7 O10 1.238 . S
C7 O11 1.241 1_565 S
C8 O1 1.247 1_455 S
C8 O2 1.258 1_565 S
C9 O4 1.259 . S
C9 O6 1.235 . S
O10 Co0 2.021 1_665 S
O10 C7 1.238 . S
O11 Co5 2.052 . S
O11 C7 1.241 1_545 S
O12 Co0 2.137 . S
O12 C3 1.247 . S
O13 Co0 2.244 1_655 S
O13 C3 1.272 1_655 S
O13 Co5 2.135 . S
Co14 O15 2.216 . S
Co14 O16 2.091 . S
Co14 O18 2.004 . S
Co14 O24 2.021 . S
Co14 O26 2.137 . S
Co14 O27 2.244 1_545 S
O15 Co14 2.216 . S
O15 C22 1.247 . S
O16 Co14 2.091 . S
O16 C22 1.261 . S
C17 O26 1.247 1_565 S
C17 O27 1.272 . S
O18 Co14 2.004 . S
O18 C23 1.259 . S
Co19 O20 2.061 1_665 S
Co19 O25 2.052 . S
Co19 O27 2.135 1_655 S
O20 Co19 2.061 1_445 S
O20 C23 1.235 . S
C21 O24 1.238 1_655 S
C21 O25 1.241 1_545 S
C22 O15 1.247 . S
C22 O16 1.261 . S
C23 O18 1.259 . S
C23 O20 1.235 . S
O24 Co14 2.021 . S
O24 C21 1.238 1_455 S
O25 Co19 2.052 . S
O25 C21 1.241 1_565 S
O26 Co14 2.137 . S
O26 C17 1.247 1_545 S
O27 Co14 2.244 1_565 S
O27 C17 1.272 . S
O27 Co19 2.135 1_455 S
Co28 O29 2.216 . S
Co28 O30 2.091 1_545 S
Co28 O32 2.004 1_445 S
Co28 O38 2.021 . S
Co28 O40 2.137 1_445 S
Co28 O41 2.244 1_455 S
O29 Co28 2.216 . S
O29 C36 1.247 . S
O30 Co28 2.091 1_565 S
O30 C36 1.261 1_565 S
C31 O40 1.249 1_545 S
C31 O41 1.272 . S
O32 Co28 2.004 1_665 S
O32 C37 1.259 . S
Co33 O34 2.061 . S
Co33 O39 2.052 1_655 S
Co33 O41 2.135 . S
O34 Co33 2.061 . S
O34 C37 1.235 1_545 S
C35 O38 1.238 . S
C35 O39 1.241 . S
C36 O29 1.247 . S
C36 O30 1.261 1_545 S
C37 O32 1.259 . S
C37 O34 1.235 1_565 S
O38 Co28 2.021 . S
O38 C35 1.238 . S
O39 Co33 2.052 1_455 S
O39 C35 1.241 . S
O40 Co28 2.137 1_665 S
O40 C31 1.249 1_565 S
O41 Co28 2.244 1_655 S
O41 C31 1.272 . S
O41 Co33 2.135 . S
C42 O44 1.247 . S
C42 O46 1.258 1_455 S
C43 O50 1.247 1_455 S
C43 O51 1.258 . S
O44 C42 1.247 . S
O44 Zn45 2.028 . S
Zn45 O44 2.028 . S
Zn45 O49 2.035 . S
Zn45 O51 2.035 . S
Zn45 O52 2.028 . S
O46 C42 1.258 1_655 S
O46 Zn47 2.035 . S
Zn47 O46 2.035 . S
Zn47 O48 2.028 . S
Zn47 O50 2.028 . S
Zn47 O53 2.035 . S
O48 Zn47 2.028 . S
O48 C54 1.247 1_655 S
O49 Zn45 2.035 . S
O49 C54 1.258 . S
O50 C43 1.247 1_655 S
O50 Zn47 2.028 . S
O51 C43 1.258 . S
O51 Zn45 2.035 . S
O52 Zn45 2.028 . S
O52 C55 1.247 . S
O53 Zn47 2.035 . S
O53 C55 1.258 1_655 S
C54 O48 1.247 1_455 S
C54 O49 1.258 . S
C55 O52 1.247 . S
C55 O53 1.258 1_455 S
C56 O58 1.247 1_545 S
C56 O60 1.258 . S
C57 O64 1.247 . S
C57 O65 1.258 1_545 S
O58 C56 1.247 1_565 S
O58 Zn59 2.028 . S
Zn59 O58 2.028 . S
Zn59 O63 2.035 . S
Zn59 O65 2.035 . S
Zn59 O66 2.028 . S
O60 C56 1.258 . S
O60 Zn61 2.035 . S
Zn61 O60 2.035 . S
Zn61 O62 2.028 . S
Zn61 O64 2.028 . S
Zn61 O67 2.035 . S
O62 Zn61 2.028 . S
O62 C68 1.247 . S
O63 Zn59 2.035 . S
O63 C68 1.258 1_565 S
O64 C57 1.247 . S
O64 Zn61 2.028 . S
O65 C57 1.258 1_565 S
O65 Zn59 2.035 . S
O66 Zn59 2.028 . S
O66 C69 1.247 1_565 S
O67 Zn61 2.035 . S
O67 C69 1.258 . S
C68 O62 1.247 . S
C68 O63 1.258 1_545 S
C69 O66 1.247 1_545 S
C69 O67 1.258 . S
C70 O72 1.247 . S
C70 O74 1.258 . S
C71 O78 1.247 . S
C71 O79 1.258 . S
O72 C70 1.247 . S
O72 Zn73 2.028 . S
Zn73 O72 2.028 . S
Zn73 O77 2.035 . S
Zn73 O79 2.035 . S
Zn73 O80 2.028 . S
O74 C70 1.258 . S
O74 Zn75 2.035 . S
Zn75 O74 2.035 . S
Zn75 O76 2.028 . S
Zn75 O78 2.028 . S
Zn75 O81 2.035 . S
O76 Zn75 2.028 . S
O76 C82 1.247 . S
O77 Zn73 2.035 . S
O77 C82 1.258 . S
O78 C71 1.247 . S
O78 Zn75 2.028 . S
O79 C71 1.258 . S
O79 Zn73 2.035 . S
O80 Zn73 2.028 . S
O80 C83 1.247 . S
O81 Zn75 2.035 . S
O81 C83 1.258 . S
C82 O76 1.247 . S
C82 O77 1.258 . S
C83 O80 1.247 . S
C83 O81 1.258 . S
H84 C92 0.929 . S
H85 C94 0.930 . S
H86 C96 0.930 . S
H87 C99 0.929 . S
H88 C102 0.930 . S
H89 C104 0.960 . S
H90 C104 0.960 . S
H91 C104 0.960 . S
C92 H84 0.929 . S
C92 C93 1.377 . S
C92 C94 1.384 . S
C93 C92 1.377 . S
C93 C99 1.390 1_455 S
C94 H85 0.930 . S
C94 C92 1.384 . S
C94 C95 1.372 . S
C95 C94 1.372 . S
C95 C96 1.400 1_455 S
C95 C100 1.490 . S
C96 H86 0.930 . S
C96 C95 1.400 1_655 S
C96 C99 1.386 . S
H97 C113 0.930 . S
H98 C114 0.931 . S
C99 H87 0.929 . S
C99 C93 1.390 1_655 S
C99 C96 1.386 . S
C100 C95 1.490 . S
C100 C102 1.395 . S
C100 C103 1.403 1_455 S
H101 C107 0.922 1_655 S
C102 H88 0.930 . S
C102 C100 1.395 . S
C102 C105 1.403 . S
C103 C100 1.403 1_655 S
C103 C104 1.524 . S
C103 C107 1.408 1_655 S
C104 H89 0.960 . S
C104 H90 0.960 . S
C104 H91 0.960 . S
C104 C103 1.524 . S
C105 C102 1.403 . S
C105 C106 1.392 . S
C105 C109 1.495 . S
C106 C105 1.392 . S
C106 C107 1.385 . S
C106 C108 1.478 . S
C107 H101 0.922 1_455 S
C107 C103 1.408 1_455 S
C107 C106 1.385 . S
C108 C106 1.478 . S
C108 C110 1.381 . S
C108 C114 1.383 1_455 S
C109 C105 1.495 . S
C109 H115 0.959 . S
C109 H116 0.961 . S
C109 H117 0.960 . S
C110 C108 1.381 . S
C110 C111 1.394 . S
C110 H118 0.930 . S
C111 C110 1.394 . S
C111 C112 1.383 . S
C111 H119 0.929 . S
C112 C111 1.383 . S
C112 C113 1.377 1_455 S
C113 H97 0.930 . S
C113 C112 1.377 1_655 S
C113 C114 1.379 . S
C114 H98 0.931 . S
C114 C108 1.383 1_655 S
C114 C113 1.379 . S
H115 C109 0.959 . S
H116 C109 0.961 . S
H117 C109 0.960 . S
H118 C110 0.930 . S
H119 C111 0.929 . S
H120 C128 0.929 1_565 S
H121 C130 0.930 1_565 S
H122 C132 0.930 . S
H123 C135 0.929 . S
H124 C138 0.930 . S
H125 C140 0.960 . S
H126 C140 0.960 . S
H127 C140 0.960 1_545 S
C128 H120 0.929 1_545 S
C128 C129 1.377 . S
C128 C130 1.384 . S
C129 C128 1.377 . S
C129 C135 1.390 . S
C130 H121 0.930 1_545 S
C130 C128 1.384 . S
C130 C131 1.372 . S
C131 C130 1.372 . S
C131 C132 1.400 . S
C131 C136 1.490 . S
C132 H122 0.930 . S
C132 C131 1.400 . S
C132 C135 1.386 . S
H133 C149 0.930 . S
H134 C150 0.931 . S
C135 H123 0.929 . S
C135 C129 1.390 . S
C135 C132 1.386 . S
C136 C131 1.490 . S
C136 C138 1.395 . S
C136 C139 1.403 . S
H137 C143 0.930 . S
C138 H124 0.930 . S
C138 C136 1.395 . S
C138 C141 1.403 . S
C139 C136 1.403 . S
C139 C140 1.524 1_545 S
C139 C143 1.400 . S
C140 H125 0.960 . S
C140 H126 0.960 . S
C140 H127 0.960 1_565 S
C140 C139 1.524 1_565 S
C141 C138 1.403 . S
C141 C142 1.392 . S
C141 C145 1.495 . S
C142 C141 1.392 . S
C142 C143 1.385 . S
C142 C144 1.478 . S
C143 H137 0.930 . S
C143 C139 1.400 . S
C143 C142 1.385 . S
C144 C142 1.478 . S
C144 C146 1.381 . S
C144 C150 1.383 . S
C145 C141 1.495 . S
C145 H151 0.959 . S
C145 H152 0.961 . S
C145 H153 0.960 . S
C146 C144 1.381 . S
C146 C147 1.394 . S
C146 H154 0.930 1_545 S
C147 C146 1.394 . S
C147 C148 1.383 . S
C147 H155 0.929 1_545 S
C148 C147 1.383 . S
C148 C149 1.377 . S
C149 H133 0.930 . S
C149 C148 1.377 . S
C149 C150 1.379 . S
C150 H134 0.931 . S
C150 C144 1.383 . S
C150 C149 1.379 . S
H151 C145 0.959 . S
H152 C145 0.961 . S
H153 C145 0.960 . S
H154 C146 0.930 1_565 S
H155 C147 0.929 1_565 S
H156 C164 0.929 . S
H157 C166 0.930 . S
H158 C168 0.930 . S
H159 C171 0.929 . S
H160 C174 0.930 . S
H161 C176 0.960 . S
H162 C176 0.960 . S
H163 C176 0.960 . S
C164 H156 0.929 . S
C164 C165 1.377 . S
C164 C166 1.384 . S
C165 C164 1.377 . S
C165 C171 1.390 . S
C166 H157 0.930 . S
C166 C164 1.384 . S
C166 C167 1.372 . S
C167 C166 1.372 . S
C167 C168 1.400 . S
C167 C172 1.490 . S
C168 H158 0.930 . S
C168 C167 1.400 . S
C168 C171 1.386 . S
H169 C185 0.930 . S
H170 C186 0.931 . S
C171 H159 0.929 . S
C171 C165 1.390 . S
C171 C168 1.386 . S
C172 C167 1.490 . S
C172 C174 1.395 . S
C172 C175 1.403 . S
H173 C179 0.930 . S
C174 H160 0.930 . S
C174 C172 1.395 . S
C174 C177 1.403 . S
C175 C172 1.403 . S
C175 C176 1.524 . S
C175 C179 1.400 . S
C176 H161 0.960 . S
C176 H162 0.960 . S
C176 H163 0.960 . S
C176 C175 1.524 . S
C177 C174 1.403 . S
C177 C178 1.392 . S
C177 C181 1.495 . S
C178 C177 1.392 . S
C178 C179 1.385 . S
C178 C180 1.478 . S
C179 H173 0.930 . S
C179 C175 1.400 . S
C179 C178 1.385 . S
C180 C178 1.478 . S
C180 C182 1.381 . S
C180 C186 1.383 . S
C181 C177 1.495 . S
C181 H187 0.959 . S
C181 H188 0.961 . S
C181 H189 0.960 . S
C182 C180 1.381 . S
C182 C183 1.394 . S
C182 H190 0.930 . S
C183 C182 1.394 . S
C183 C184 1.383 . S
C183 H191 0.929 . S
C184 C183 1.383 . S
C184 C185 1.377 . S
C185 H169 0.930 . S
C185 C184 1.377 . S
C185 C186 1.379 . S
C186 H170 0.931 . S
C186 C180 1.383 . S
C186 C185 1.379 . S
H187 C181 0.959 . S
H188 C181 0.961 . S
H189 C181 0.960 . S
H190 C182 0.930 . S
H191 C183 0.929 . S
H192 C200 0.929 . S
H193 C202 0.930 . S
H194 C204 0.930 1_655 S
H195 C207 0.929 1_655 S
H196 C210 0.930 . S
H197 C212 0.960 . S
H198 C212 0.960 . S
H199 C212 0.960 . S
C200 H192 0.929 . S
C200 C201 1.377 . S
C200 C202 1.384 . S
C201 C200 1.377 . S
C201 C207 1.390 . S
C202 H193 0.930 . S
C202 C200 1.384 . S
C202 C203 1.372 . S
C203 C202 1.372 . S
C203 C204 1.400 . S
C203 C208 1.490 . S
C204 H194 0.930 1_455 S
C204 C203 1.400 . S
C204 C207 1.386 . S
H205 C221 0.930 . S
H206 C222 0.931 . S
C207 H195 0.929 1_455 S
C207 C201 1.390 . S
C207 C204 1.386 . S
C208 C203 1.490 . S
C208 C210 1.395 1_455 S
C208 C211 1.403 . S
H209 C215 0.930 . S
C210 H196 0.930 . S
C210 C208 1.395 1_655 S
C210 C213 1.403 . S
C211 C208 1.403 . S
C211 C212 1.524 . S
C211 C215 1.400 . S
C212 H197 0.960 . S
C212 H198 0.960 . S
C212 H199 0.960 . S
C212 C211 1.524 . S
C213 C210 1.403 . S
C213 C214 1.392 1_655 S
C213 C217 1.495 . S
C214 C213 1.392 1_455 S
C214 C215 1.385 . S
C214 C216 1.478 . S
C215 H209 0.930 . S
C215 C211 1.400 . S
C215 C214 1.385 . S
C216 C214 1.478 . S
C216 C218 1.381 . S
C216 C222 1.383 1_455 S
C217 C213 1.495 . S
C217 H223 0.959 . S
C217 H224 0.961 . S
C217 H225 0.960 . S
C218 C216 1.381 . S
C218 C219 1.394 . S
C218 H226 0.930 . S
C219 C218 1.394 . S
C219 C220 1.383 . S
C219 H227 0.929 . S
C220 C219 1.383 . S
C220 C221 1.377 1_455 S
C221 H205 0.930 . S
C221 C220 1.377 1_655 S
C221 C222 1.379 . S
C222 H206 0.931 . S
C222 C216 1.383 1_655 S
C222 C221 1.379 . S
H223 C217 0.959 . S
H224 C217 0.961 . S
H225 C217 0.960 . S
H226 C218 0.930 . S
H227 C219 0.929 . S
H228 C236 0.929 . S
H229 C238 0.930 . S
H230 C240 0.930 1_565 S
H231 C243 0.929 1_565 S
H232 C246 0.930 . S
H233 C248 0.960 . S
H234 C248 0.960 . S
H235 C248 0.960 . S
C236 H228 0.929 . S
C236 C237 1.377 . S
C236 C238 1.384 . S
C237 C236 1.377 . S
C237 C243 1.390 . S
C238 H229 0.930 . S
C238 C236 1.384 . S
C238 C239 1.372 . S
C239 C238 1.372 . S
C239 C240 1.400 . S
C239 C244 1.490 . S
C240 H230 0.930 1_545 S
C240 C239 1.400 . S
C240 C243 1.386 . S
H241 C257 0.930 . S
H242 C258 0.931 . S
C243 H231 0.929 1_545 S
C243 C237 1.390 . S
C243 C240 1.386 . S
C244 C239 1.490 . S
C244 C246 1.395 . S
C244 C247 1.403 . S
H245 C251 0.930 . S
C246 H232 0.930 . S
C246 C244 1.395 . S
C246 C249 1.403 . S
C247 C244 1.403 . S
C247 C248 1.524 . S
C247 C251 1.400 . S
C248 H233 0.960 . S
C248 H234 0.960 . S
C248 H235 0.960 . S
C248 C247 1.524 . S
C249 C246 1.403 . S
C249 C250 1.392 . S
C249 C253 1.495 . S
C250 C249 1.392 . S
C250 C251 1.385 . S
C250 C252 1.478 . S
C251 H245 0.930 . S
C251 C247 1.400 . S
C251 C250 1.385 . S
C252 C250 1.478 . S
C252 C254 1.381 . S
C252 C258 1.383 1_545 S
C253 C249 1.495 . S
C253 H259 0.959 . S
C253 H260 0.961 . S
C253 H261 0.960 . S
C254 C252 1.381 . S
C254 C255 1.394 . S
C254 H262 0.930 . S
C255 C254 1.394 . S
C255 C256 1.383 . S
C255 H263 0.929 . S
C256 C255 1.383 . S
C256 C257 1.377 1_545 S
C257 H241 0.930 . S
C257 C256 1.377 1_565 S
C257 C258 1.379 . S
C258 H242 0.931 . S
C258 C252 1.383 1_565 S
C258 C257 1.379 . S
H259 C253 0.959 . S
H260 C253 0.961 . S
H261 C253 0.960 . S
H262 C254 0.930 . S
H263 C255 0.929 . S
H264 C272 0.929 . S
H265 C274 0.930 . S
H266 C276 0.930 . S
H267 C279 0.929 . S
H268 C282 0.930 . S
H269 C284 0.960 . S
H270 C284 0.960 . S
H271 C284 0.960 . S
C272 H264 0.929 . S
C272 C273 1.377 . S
C272 C274 1.384 . S
C273 C272 1.377 . S
C273 C279 1.390 . S
C274 H265 0.930 . S
C274 C272 1.384 . S
C274 C275 1.372 . S
C275 C274 1.372 . S
C275 C276 1.400 . S
C275 C280 1.490 . S
C276 H266 0.930 . S
C276 C275 1.400 . S
C276 C279 1.386 . S
H277 C293 0.930 . S
H278 C294 0.931 . S
C279 H267 0.929 . S
C279 C273 1.390 . S
C279 C276 1.386 . S
C280 C275 1.490 . S
C280 C282 1.395 . S
C280 C283 1.403 . S
H281 C287 0.930 . S
C282 H268 0.930 . S
C282 C280 1.395 . S
C282 C285 1.403 . S
C283 C280 1.403 . S
C283 C284 1.524 . S
C283 C287 1.400 . S
C284 H269 0.960 . S
C284 H270 0.960 . S
C284 H271 0.960 . S
C284 C283 1.524 . S
C285 C282 1.403 . S
C285 C286 1.392 . S
C285 C289 1.495 . S
C286 C285 1.392 . S
C286 C287 1.385 . S
C286 C288 1.478 . S
C287 H281 0.930 . S
C287 C283 1.400 . S
C287 C286 1.385 . S
C288 C286 1.478 . S
C288 C290 1.381 . S
C288 C294 1.383 . S
C289 C285 1.495 . S
C289 H295 0.959 . S
C289 H296 0.961 . S
C289 H297 0.960 . S
C290 C288 1.381 . S
C290 C291 1.394 . S
C290 H298 0.930 . S
C291 C290 1.394 . S
C291 C292 1.383 . S
C291 H299 0.929 . S
C292 C291 1.383 . S
C292 C293 1.377 . S
C293 H277 0.930 . S
C293 C292 1.377 . S
C293 C294 1.379 . S
C294 H278 0.931 . S
C294 C288 1.383 . S
C294 C293 1.379 . S
H295 C289 0.959 . S
H296 C289 0.961 . S
H297 C289 0.960 . S
H298 C290 0.930 . S
H299 C291 0.929 . S
H300 C308 0.929 . S
H301 C310 0.930 . S
H302 C312 0.930 . S
H303 C315 0.929 . S
H304 C318 0.930 1_565 S
H305 C320 0.960 . S
H306 C320 0.960 . S
H307 C320 0.960 . S
C308 H300 0.929 . S
C308 C309 1.377 1_565 S
C308 C310 1.384 . S
C309 C308 1.377 1_545 S
C309 C315 1.390 . S
C310 H301 0.930 . S
C310 C308 1.384 . S
C310 C311 1.372 1_565 S
C311 C310 1.372 1_545 S
C311 C312 1.400 . S
C311 C316 1.490 . S
C312 H302 0.930 . S
C312 C311 1.400 . S
C312 C315 1.386 . S
H313 C329 0.930 . S
H314 C330 0.931 . S
C315 H303 0.929 . S
C315 C309 1.390 . S
C315 C312 1.386 . S
C316 C311 1.490 . S
C316 C318 1.395 . S
C316 C319 1.403 . S
H317 C323 0.930 . S
C318 H304 0.930 1_545 S
C318 C316 1.395 . S
C318 C321 1.403 . S
C319 C316 1.403 . S
C319 C320 1.524 . S
C319 C323 1.400 . S
C320 H305 0.960 . S
C320 H306 0.960 . S
C320 H307 0.960 . S
C320 C319 1.524 . S
C321 C318 1.403 . S
C321 C322 1.392 . S
C321 C325 1.495 1_545 S
C322 C321 1.392 . S
C322 C323 1.385 . S
C322 C324 1.478 . S
C323 H317 0.930 . S
C323 C319 1.400 . S
C323 C322 1.385 . S
C324 C322 1.478 . S
C324 C326 1.381 1_545 S
C324 C330 1.383 . S
C325 C321 1.495 1_565 S
C325 H331 0.959 . S
C325 H332 0.961 1_565 S
C325 H333 0.960 . S
C326 C324 1.381 1_565 S
C326 C327 1.394 . S
C326 H334 0.930 . S
C327 C326 1.394 . S
C327 C328 1.383 1_565 S
C327 H335 0.929 . S
C328 C327 1.383 1_545 S
C328 C329 1.377 . S
C329 H313 0.930 . S
C329 C328 1.377 . S
C329 C330 1.379 . S
C330 H314 0.931 . S
C330 C324 1.383 . S
C330 C329 1.379 . S
H331 C325 0.959 . S
H332 C325 0.961 1_545 S
H333 C325 0.960 . S
H334 C326 0.930 . S
H335 C327 0.929 . S
H336 C344 0.929 . S
H337 C346 0.930 1_556 S
H338 C348 0.930 . S
H339 C351 0.929 . S
H340 C354 0.930 . S
H341 C356 0.960 . S
H342 C356 0.960 . S
H343 C356 0.960 . S
C344 H336 0.929 . S
C344 C345 1.377 . S
C344 C346 1.384 . S
C345 C344 1.377 . S
C345 C351 1.390 . S
C346 H337 0.930 1_554 S
C346 C344 1.384 . S
C346 C347 1.372 . S
C347 C346 1.372 . S
C347 C348 1.400 . S
C347 C352 1.486 . S
C348 H338 0.930 . S
C348 C347 1.400 . S
C348 C351 1.386 . S
H349 C365 0.930 . S
H350 C366 0.931 . S
C351 H339 0.929 . S
C351 C345 1.390 . S
C351 C348 1.386 . S
C352 C347 1.486 . S
C352 C354 1.398 1_554 S
C352 C355 1.404 1_554 S
H353 C359 0.930 . S
C354 H340 0.930 . S
C354 C352 1.398 1_556 S
C354 C357 1.403 . S
C355 C352 1.404 1_556 S
C355 C356 1.524 1_556 S
C355 C359 1.400 . S
C356 H341 0.960 . S
C356 H342 0.960 . S
C356 H343 0.960 . S
C356 C355 1.524 1_554 S
C357 C354 1.403 . S
C357 C358 1.392 . S
C357 C361 1.495 . S
C358 C357 1.392 . S
C358 C359 1.385 . S
C358 C360 1.478 . S
C359 H353 0.930 . S
C359 C355 1.400 . S
C359 C358 1.385 . S
C360 C358 1.478 . S
C360 C362 1.381 . S
C360 C366 1.383 . S
C361 C357 1.495 . S
C361 H367 0.959 . S
C361 H368 0.961 . S
C361 H369 0.960 . S
C362 C360 1.381 . S
C362 C363 1.394 . S
C362 H370 0.930 . S
C363 C362 1.394 . S
C363 C364 1.383 . S
C363 H371 0.929 . S
C364 C363 1.383 . S
C364 C365 1.377 . S
C365 H349 0.930 . S
C365 C364 1.377 . S
C365 C366 1.379 . S
C366 H350 0.931 . S
C366 C360 1.383 . S
C366 C365 1.379 . S
H367 C361 0.959 . S
H368 C361 0.961 . S
H369 C361 0.960 . S
H370 C362 0.930 . S
H371 C363 0.929 . S
H372 C380 0.929 . S
H373 C382 0.930 . S
H374 C384 0.930 . S
H375 C387 0.929 . S
H376 C390 0.930 . S
H377 C392 0.960 . S
H378 C392 0.960 . S
H379 C392 0.960 . S
C380 H372 0.929 . S
C380 C381 1.377 . S
C380 C382 1.384 . S
C381 C380 1.377 . S
C381 C387 1.390 1_455 S
C382 H373 0.930 . S
C382 C380 1.384 . S
C382 C383 1.372 . S
C383 C382 1.372 . S
C383 C384 1.400 1_455 S
C383 C388 1.490 . S
C384 H374 0.930 . S
C384 C383 1.400 1_655 S
C384 C387 1.386 . S
H385 C401 0.930 . S
H386 C402 0.931 . S
C387 H375 0.929 . S
C387 C381 1.390 1_655 S
C387 C384 1.386 . S
C388 C383 1.490 . S
C388 C390 1.395 . S
C388 C391 1.403 1_455 S
H389 C395 0.930 . S
C390 H376 0.930 . S
C390 C388 1.395 . S
C390 C393 1.403 . S
C391 C388 1.403 1_655 S
C391 C392 1.524 . S
C391 C395 1.400 . S
C392 H377 0.960 . S
C392 H378 0.960 . S
C392 H379 0.960 . S
C392 C391 1.524 . S
C393 C390 1.403 . S
C393 C394 1.392 . S
C393 C397 1.495 . S
C394 C393 1.392 . S
C394 C395 1.385 1_455 S
C394 C396 1.478 . S
C395 H389 0.930 . S
C395 C391 1.400 . S
C395 C394 1.385 1_655 S
C396 C394 1.478 . S
C396 C398 1.381 . S
C396 C402 1.383 1_455 S
C397 C393 1.495 . S
C397 H403 0.959 . S
C397 H404 0.961 . S
C397 H405 0.960 . S
C398 C396 1.381 . S
C398 C399 1.394 . S
C398 H406 0.930 . S
C399 C398 1.394 . S
C399 C400 1.383 . S
C399 H407 0.929 . S
C400 C399 1.383 . S
C400 C401 1.377 1_455 S
C401 H385 0.930 . S
C401 C400 1.377 1_655 S
C401 C402 1.379 . S
C402 H386 0.931 . S
C402 C396 1.383 1_655 S
C402 C401 1.379 . S
H403 C397 0.959 . S
H404 C397 0.961 . S
H405 C397 0.960 . S
H406 C398 0.930 . S
H407 C399 0.929 . S
H408 C416 0.929 . S
H409 C418 0.930 . S
H410 C420 0.930 . S
H411 C423 0.929 . S
H412 C426 0.930 . S
H413 C428 0.960 . S
H414 C428 0.960 . S
H415 C428 0.960 . S
C416 H408 0.929 . S
C416 C417 1.377 . S
C416 C418 1.384 . S
C417 C416 1.377 . S
C417 C423 1.390 1_545 S
C418 H409 0.930 . S
C418 C416 1.384 . S
C418 C419 1.372 . S
C419 C418 1.372 . S
C419 C420 1.400 1_545 S
C419 C424 1.490 . S
C420 H410 0.930 . S
C420 C419 1.400 1_565 S
C420 C423 1.386 . S
H421 C437 0.930 . S
H422 C438 0.931 . S
C423 H411 0.929 . S
C423 C417 1.390 1_565 S
C423 C420 1.386 . S
C424 C419 1.490 . S
C424 C426 1.395 . S
C424 C427 1.403 . S
H425 C431 0.930 1_565 S
C426 H412 0.930 . S
C426 C424 1.395 . S
C426 C429 1.403 . S
C427 C424 1.403 . S
C427 C428 1.524 1_545 S
C427 C431 1.400 . S
C428 H413 0.960 . S
C428 H414 0.960 . S
C428 H415 0.960 . S
C428 C427 1.524 1_565 S
C429 C426 1.403 . S
C429 C430 1.392 . S
C429 C433 1.495 . S
C430 C429 1.392 . S
C430 C431 1.385 . S
C430 C432 1.478 . S
C431 H425 0.930 1_545 S
C431 C427 1.400 . S
C431 C430 1.385 . S
C432 C430 1.478 . S
C432 C434 1.381 . S
C432 C438 1.383 1_545 S
C433 C429 1.495 . S
C433 H439 0.959 . S
C433 H440 0.961 . S
C433 H441 0.960 . S
C434 C432 1.381 . S
C434 C435 1.394 . S
C434 H442 0.930 . S
C435 C434 1.394 . S
C435 C436 1.383 . S
C435 H443 0.929 . S
C436 C435 1.383 . S
C436 C437 1.377 1_545 S
C437 H421 0.930 . S
C437 C436 1.377 1_565 S
C437 C438 1.379 . S
C438 H422 0.931 . S
C438 C432 1.383 1_565 S
C438 C437 1.379 . S
H439 C433 0.959 . S
H440 C433 0.961 . S
H441 C433 0.960 . S
H442 C434 0.930 . S
H443 C435 0.929 . S
H444 C452 0.929 . S
H445 C454 0.930 1_556 S
H446 C456 0.930 . S
H447 C459 0.929 . S
H448 C462 0.930 . S
H449 C464 0.960 . S
H450 C464 0.960 . S
H451 C464 0.960 . S
C452 H444 0.929 . S
C452 C453 1.377 . S
C452 C454 1.384 . S
C453 C452 1.377 . S
C453 C459 1.390 . S
C454 H445 0.930 1_554 S
C454 C452 1.384 . S
C454 C455 1.372 . S
C455 C454 1.372 . S
C455 C456 1.400 . S
C455 C460 1.490 1_554 S
C456 H446 0.930 . S
C456 C455 1.400 . S
C456 C459 1.386 . S
H457 C473 0.930 . S
H458 C474 0.931 . S
C459 H447 0.929 . S
C459 C453 1.390 . S
C459 C456 1.386 . S
C460 C455 1.490 1_556 S
C460 C462 1.395 . S
C460 C463 1.403 . S
H461 C467 0.930 . S
C462 H448 0.930 . S
C462 C460 1.395 . S
C462 C465 1.403 . S
C463 C460 1.403 . S
C463 C464 1.524 1_556 S
C463 C467 1.400 . S
C464 H449 0.960 . S
C464 H450 0.960 . S
C464 H451 0.960 . S
C464 C463 1.524 1_554 S
C465 C462 1.403 . S
C465 C466 1.392 . S
C465 C469 1.495 . S
C466 C465 1.392 . S
C466 C467 1.385 . S
C466 C468 1.478 . S
C467 H461 0.930 . S
C467 C463 1.400 . S
C467 C466 1.385 . S
C468 C466 1.478 . S
C468 C470 1.381 . S
C468 C474 1.383 . S
C469 C465 1.495 . S
C469 H475 0.959 . S
C469 H476 0.961 . S
C469 H477 0.960 . S
C470 C468 1.381 . S
C470 C471 1.394 . S
C470 H478 0.930 . S
C471 C470 1.394 . S
C471 C472 1.383 . S
C471 H479 0.929 . S
C472 C471 1.383 . S
C472 C473 1.377 . S
C473 H457 0.930 . S
C473 C472 1.377 . S
C473 C474 1.379 . S
C474 H458 0.931 . S
C474 C468 1.383 . S
C474 C473 1.379 . S
H475 C469 0.959 . S
H476 C469 0.961 . S
H477 C469 0.960 . S
H478 C470 0.930 . S
H479 C471 0.929 . S
H480 C488 0.929 . S
H481 C490 0.930 . S
H482 C492 0.930 . S
H483 C495 0.929 . S
H484 C498 0.930 . S
H485 C500 0.960 . S
H486 C500 0.960 . S
H487 C500 0.960 . S
C488 H480 0.929 . S
C488 C489 1.377 . S
C488 C490 1.384 . S
C489 C488 1.377 . S
C489 C495 1.390 . S
C490 H481 0.930 . S
C490 C488 1.384 . S
C490 C491 1.372 . S
C491 C490 1.372 . S
C491 C492 1.400 . S
C491 C496 1.490 . S
C492 H482 0.930 . S
C492 C491 1.400 . S
C492 C495 1.386 . S
H493 C509 0.930 . S
H494 C510 0.931 . S
C495 H483 0.929 . S
C495 C489 1.390 . S
C495 C492 1.386 . S
C496 C491 1.490 . S
C496 C498 1.395 . S
C496 C499 1.403 1_455 S
H497 C503 0.929 1_655 S
C498 H484 0.930 . S
C498 C496 1.395 . S
C498 C501 1.403 . S
C499 C496 1.403 1_655 S
C499 C500 1.524 . S
C499 C503 1.401 1_655 S
C500 H485 0.960 . S
C500 H486 0.960 . S
C500 H487 0.960 . S
C500 C499 1.524 . S
C501 C498 1.403 . S
C501 C502 1.392 . S
C501 C505 1.495 . S
C502 C501 1.392 . S
C502 C503 1.386 . S
C502 C504 1.478 . S
C503 H497 0.929 1_455 S
C503 C499 1.401 1_455 S
C503 C502 1.386 . S
C504 C502 1.478 . S
C504 C506 1.381 . S
C504 C510 1.383 . S
C505 C501 1.495 . S
C505 H511 0.959 . S
C505 H512 0.961 . S
C505 H513 0.960 . S
C506 C504 1.381 . S
C506 C507 1.394 . S
C506 H514 0.930 . S
C507 C506 1.394 . S
C507 C508 1.383 . S
C507 H515 0.929 . S
C508 C507 1.383 . S
C508 C509 1.377 . S
C509 H493 0.930 . S
C509 C508 1.377 . S
C509 C510 1.379 . S
C510 H494 0.931 . S
C510 C504 1.383 . S
C510 C509 1.379 . S
H511 C505 0.959 . S
H512 C505 0.961 . S
H513 C505 0.960 . S
H514 C506 0.930 . S
H515 C507 0.929 . S
C112 C43 1.458 . S
C93 C3 1.460 . S
C129 C21 1.475 . S
C148 C69 1.501 . S
C165 C37 1.458 . S
C184 C71 1.476 . S
C201 C8 1.464 . S
C220 C55 1.465 . S
C256 C57 1.475 . S
C237 C23 1.458 . S
C273 C35 1.446 . S
C292 C83 1.468 . S
C328 C56 1.455 . S
C309 C31 1.457 . S
C345 C7 1.447 . S
C364 C82 1.469 . S
C400 C42 1.460 . S
C381 C17 1.461 . S
C436 C68 1.427 . S
C417 C36 1.433 . S
C472 C70 1.475 . S
C453 C9 1.457 . S
C489 C22 1.466 . S
C508 C54 1.459 . S
