# Generated by pormake.
# Topology pth, (4,4)-cn, num edge types: 1
# Building blocks:
#     Node 0, Type 0, BuildingBlock: KUFVIS_clean_sbu_0, # of connection points: 4
#     Node 1, Type 0, BuildingBlock: KUFVIS_clean_sbu_0, # of connection points: 4
#     Node 2, Type 0, BuildingBlock: KUFVIS_clean_sbu_0, # of connection points: 4
#     Node 3, Type 1, BuildingBlock: NAWXER_clean_sbu_0, # of connection points: 4
#     Node 4, Type 1, BuildingBlock: NAWXER_clean_sbu_0, # of connection points: 4
#     Node 5, Type 1, BuildingBlock: NAWXER_clean_sbu_0, # of connection points: 4
#     Edge 6, Type (0, 1), BuildingBlock: MIFKUJ_clean_linker_0, # of connection points: 2
#     Edge 7, Type (0, 1), BuildingBlock: MIFKUJ_clean_linker_0, # of connection points: 2
#     Edge 8, Type (0, 1), BuildingBlock: MIFKUJ_clean_linker_0, # of connection points: 2
#     Edge 9, Type (0, 1), BuildingBlock: MIFKUJ_clean_linker_0, # of connection points: 2
#     Edge 10, Type (0, 1), BuildingBlock: MIFKUJ_clean_linker_0, # of connection points: 2
#     Edge 11, Type (0, 1), BuildingBlock: MIFKUJ_clean_linker_0, # of connection points: 2
#     Edge 12, Type (0, 1), BuildingBlock: MIFKUJ_clean_linker_0, # of connection points: 2
#     Edge 13, Type (0, 1), BuildingBlock: MIFKUJ_clean_linker_0, # of connection points: 2
#     Edge 14, Type (0, 1), BuildingBlock: MIFKUJ_clean_linker_0, # of connection points: 2
#     Edge 15, Type (0, 1), BuildingBlock: MIFKUJ_clean_linker_0, # of connection points: 2
#     Edge 16, Type (0, 1), BuildingBlock: MIFKUJ_clean_linker_0, # of connection points: 2
#     Edge 17, Type (0, 1), BuildingBlock: MIFKUJ_clean_linker_0, # of connection points: 2
# Relax obj value: 0.009
# Max RMSD: 0.080
# Mean RMSD: 0.046
data_MOF--net-pth--node1-KUFVIS_clean_sbu_0--node2-NAWXER_clean_sbu_0--edge1-MIFKUJ_clean_linker_0
_symmetry_space_group_name_H-M    P1
_symmetry_Int_Tables_number       1
_symmetry_cell_setting            triclinic
loop_
_symmetry_equiv_pos_as_xyz
'x, y, z'
_cell_length_a     29.355131
_cell_length_b     29.474699
_cell_length_c     74.907824
_cell_angle_alpha  90.405361
_cell_angle_beta   91.714688
_cell_angle_gamma 120.18473
loop_
_atom_site_label
_atom_site_type_symbol
_atom_site_fract_x
_atom_site_fract_y
_atom_site_fract_z
_atom_type_partial_charge
Mn0 Mn 0.06238 0.10317 0.0725 0.0
Mn1 Mn 1.00848 0.16252 0.04871 0.0
C2 C 1.00253 0.05801 0.0491 0.0
C3 C 0.06004 0.05311 0.09691 0.0
C4 C 0.12069 0.18503 0.04431 0.0
O5 O 0.07876 0.16681 0.0883 0.0
O6 O 0.03395 0.19792 0.07262 0.0
C7 C 0.91577 0.1346 0.07043 0.0
N8 N 0.93628 0.13431 0.05439 0.0
C9 C 0.84993 0.08951 0.03993 0.0
C10 C 0.82791 0.08973 0.05626 0.0
C11 C 0.86098 0.11226 0.07158 0.0
C12 C 0.90483 0.11265 0.03957 0.0
H13 H 0.94104 0.15162 0.08225 0.0
C14 C 0.06157 0.1987 0.08634 0.0
O15 O 0.10364 0.08275 0.08891 0.0
O16 O 0.01855 0.05423 0.09116 0.0
N17 N 0.98179 0.13202 0.02537 0.0
C18 C 0.00896 0.13208 0.01093 0.0
C19 C 0.98148 0.10942 0.99464 0.0
C20 C 0.92648 0.08733 0.99334 0.0
C21 C 0.89945 0.08823 0.00833 0.0
C22 C 0.92898 0.11174 0.02417 0.0
H23 H 0.05123 0.14898 0.01184 0.0
O24 O 0.0347 0.04292 0.05493 0.0
O25 O 1.00583 0.09865 0.05729 0.0
O26 O 0.11897 0.151 0.05516 0.0
O27 O 0.08231 0.19331 0.04156 0.0
C28 C 0.84423 0.06564 0.00829 0.0
C29 C 0.81948 0.06622 0.02408 0.0
H30 H 0.78564 0.07223 0.05724 0.0
H31 H 0.84424 0.11227 0.08426 0.0
H32 H 1.00262 0.10882 0.98314 0.0
H33 H 0.90538 0.06946 0.9808 0.0
H34 H 0.82034 0.04694 0.99626 0.0
H35 H 0.77693 0.04798 0.02396 0.0
Mn36 Mn 0.03744 0.09381 0.40233 0.0
Mn37 Mn 0.1175 0.20642 0.42522 0.0
C38 C 0.09098 0.09379 0.42553 0.0
C39 C 0.02785 0.04141 0.37731 0.0
C40 C 0.99924 0.14106 0.43051 0.0
O41 O 0.03634 0.14958 0.38687 0.0
O42 O 0.09808 0.22325 0.40137 0.0
C43 C 0.2104 0.24636 0.40267 0.0
N44 N 0.18866 0.23122 0.41891 0.0
C45 C 0.27117 0.24743 0.43235 0.0
C46 C 0.29456 0.26359 0.4158 0.0
C47 C 0.26401 0.26297 0.40089 0.0
C48 C 0.21764 0.23147 0.43332 0.0
H49 H 0.18691 0.24554 0.39116 0.0
C50 C 0.06481 0.19943 0.3883 0.0
O51 O 0.98664 0.03592 0.38529 0.0
O52 O 0.07342 0.07731 0.38368 0.0
N53 N 0.1394 0.19631 0.44846 0.0
C54 C 0.11059 0.17857 0.46338 0.0
C55 C 0.13523 0.17644 0.47946 0.0
C56 C 0.18922 0.19281 0.48006 0.0
C57 C 0.21821 0.21161 0.4646 0.0
C58 C 0.19168 0.2135 0.44902 0.0
H59 H 0.06909 0.16595 0.46302 0.0
O60 O 0.05088 0.05013 0.41957 0.0
O61 O 0.09923 0.13589 0.41733 0.0
O62 O 0.98948 0.10233 0.42003 0.0
O63 O 0.04503 0.18189 0.43273 0.0
C64 C 0.27224 0.22803 0.46399 0.0
C65 C 0.29867 0.24578 0.44786 0.0
H66 H 0.33583 0.27619 0.41435 0.0
H67 H 0.28171 0.2751 0.38805 0.0
H68 H 0.1126 0.16203 0.49135 0.0
H69 H 0.20798 0.19071 0.49246 0.0
H70 H 0.29373 0.22671 0.47579 0.0
H71 H 0.34008 0.25779 0.44751 0.0
Mn72 Mn 0.05588 0.09676 0.7381 0.0
Mn73 Mn 0.98651 0.14348 0.75876 0.0
C74 C 0.0928 0.15169 0.76324 0.0
C75 C 0.11327 0.10352 0.71587 0.0
C76 C 0.96607 0.03236 0.763 0.0
O77 O 0.99662 0.08172 0.7197 0.0
O78 O 0.95872 0.12106 0.73386 0.0
C79 C 0.0185 0.23838 0.73746 0.0
N80 N 0.01372 0.21576 0.7536 0.0
C81 C 0.04563 0.29849 0.76919 0.0
C82 C 0.05064 0.32271 0.75274 0.0
C83 C 0.03723 0.29254 0.7368 0.0
C84 C 0.02695 0.24445 0.76899 0.0
H85 H 1.00806 0.21524 0.7252 0.0
C86 C 0.96275 0.09672 0.72034 0.0
O87 O 0.08138 0.05882 0.72287 0.0
O88 O 0.11074 0.14396 0.72143 0.0
N89 N 1.00819 0.16701 0.78299 0.0
C90 C 1.0031 0.13799 0.79767 0.0
C91 C 0.01432 0.16207 0.81471 0.0
C92 C 0.03044 0.2156 0.81647 0.0
C93 C 0.03616 0.24482 0.80118 0.0
C94 C 0.0234 0.21847 0.78458 0.0
H95 H 0.9897 0.09659 0.79641 0.0
O96 O 0.11047 0.12159 0.75796 0.0
O97 O 0.05466 0.14998 0.75332 0.0
O98 O 1.00349 0.03682 0.75353 0.0
O99 O 0.95578 0.06924 0.76523 0.0
C100 C 0.05391 0.29902 0.80176 0.0
C101 C 0.05903 0.32593 0.78576 0.0
H102 H 0.06506 0.36446 0.75218 0.0
H103 H 0.04118 0.31097 0.72405 0.0
H104 H 0.00979 0.13925 0.82645 0.0
H105 H 0.0379 0.23386 0.82963 0.0
H106 H 0.06428 0.32049 0.81443 0.0
H107 H 0.07344 0.36773 0.78636 0.0
C108 C 0.09414 0.69561 0.26024 0.0
C109 C 0.10277 0.57593 0.21641 0.0
O110 O 0.13597 0.69771 0.25499 0.0
Zn111 Zn 0.10132 0.63624 0.23895 0.0
O112 O 0.0489 0.65882 0.25447 0.0
Zn113 Zn 0.01651 0.5922 0.2366 0.0
O114 O 0.97862 0.53277 0.25227 0.0
O115 O 0.06484 0.57399 0.25714 0.0
O116 O 0.05579 0.56516 0.21967 0.0
O117 O 0.14178 0.61398 0.22481 0.0
O118 O 0.06621 0.66207 0.219 0.0
O119 O 0.97942 0.6126 0.21938 0.0
C120 C 0.0187 0.53737 0.26097 0.0
C121 C 0.02029 0.65077 0.21294 0.0
C122 C 0.56634 0.03659 0.59289 0.0
C123 C 0.45641 0.04863 0.54462 0.0
O124 O 0.52878 0.99835 0.58407 0.0
Zn125 Zn 0.50919 0.03986 0.56888 0.0
O126 O 0.57808 0.08369 0.58944 0.0
Zn127 Zn 0.55396 0.12412 0.57143 0.0
O128 O 0.53013 0.15993 0.58747 0.0
O129 O 0.47908 0.0738 0.58714 0.0
O130 O 0.49255 0.09314 0.5511 0.0
O131 O 0.45122 0.00653 0.5511 0.0
O132 O 0.57579 0.07719 0.55242 0.0
O133 O 0.61683 0.16283 0.55739 0.0
C134 C 0.48971 0.11924 0.59297 0.0
C135 C 0.61359 0.12327 0.54917 0.0
C136 C 0.53012 0.52385 0.93076 0.0
C137 C 0.6373 0.63347 0.88218 0.0
O138 O 0.51728 0.55697 0.92509 0.0
Zn139 Zn 0.5404 0.61676 0.90582 0.0
O140 O 0.56855 0.52239 0.92391 0.0
Zn141 Zn 0.58529 0.57744 0.90651 0.0
O142 O 0.61667 0.64728 0.92297 0.0
O143 O 0.56296 0.67922 0.92075 0.0
O144 O 0.64184 0.59735 0.88978 0.0
O145 O 0.60149 0.64316 0.88706 0.0
O146 O 0.47725 0.5893 0.8904 0.0
O147 O 0.51556 0.54132 0.88941 0.0
C148 C 0.605 0.68233 0.92725 0.0
C149 C 0.47786 0.54907 0.88446 0.0
H150 H 0.14021 0.23641 0.11274 0.0
H151 H 0.1613 0.30602 0.13513 0.0
H152 H 0.03021 0.32035 0.11467 0.0
H153 H 0.01025 0.25268 0.09205 0.0
H154 H 0.10996 0.4129 0.11989 0.0
H155 H 0.02936 0.25581 0.15486 0.0
H156 H 0.02052 0.17448 0.16717 0.0
H157 H 0.1754 0.26234 0.19207 0.0
H158 H 0.18539 0.34415 0.17971 0.0
H159 H 0.03287 0.51469 0.19003 0.0
H160 H 0.0413 0.45744 0.16843 0.0
H161 H 0.19644 0.50427 0.19056 0.0
H162 H 0.18856 0.56283 0.21232 0.0
H163 H 0.12384 0.39006 0.185 0.0
H164 H 0.19546 0.54984 0.15285 0.0
H165 H 0.19756 0.62898 0.14131 0.0
H166 H 0.05191 0.53269 0.11157 0.0
H167 H 0.04851 0.45295 0.12314 0.0
C168 C 0.11581 0.25432 0.11309 0.0
C169 C 0.07362 0.23901 0.10056 0.0
C170 C 0.12782 0.29404 0.12593 0.0
C171 C 0.09721 0.31843 0.12671 0.0
C172 C 0.05476 0.3026 0.11431 0.0
C173 C 0.04326 0.26364 0.10138 0.0
C174 C 0.10901 0.36087 0.14016 0.0
C175 C 0.11276 0.40764 0.13412 0.0
C176 C 0.11439 0.35505 0.15875 0.0
C177 C 0.10838 0.30595 0.16618 0.0
C178 C 0.06169 0.25771 0.16284 0.0
C179 C 0.05644 0.21155 0.16985 0.0
C180 C 0.09744 0.21322 0.18035 0.0
C181 C 0.14372 0.26109 0.18391 0.0
C182 C 0.14919 0.30736 0.17691 0.0
C183 C 0.06898 0.51314 0.19032 0.0
C184 C 0.1101 0.54337 0.2029 0.0
C185 C 0.07374 0.48042 0.17791 0.0
C186 C 0.11952 0.47673 0.17786 0.0
C187 C 0.1608 0.50667 0.1904 0.0
C188 C 0.15637 0.54024 0.20273 0.0
C189 C 0.12294 0.44085 0.16467 0.0
C190 C 0.12208 0.3955 0.17074 0.0
C191 C 0.11943 0.44752 0.14611 0.0
C192 C 0.12161 0.4954 0.13895 0.0
C193 C 0.16369 0.54553 0.14394 0.0
C194 C 0.16514 0.59051 0.13738 0.0
C195 C 0.12486 0.58587 0.12573 0.0
C196 C 0.0831 0.53622 0.12059 0.0
C197 C 0.08143 0.49112 0.12713 0.0
H198 H 0.12604 0.62074 0.12067 0.0
H199 H 0.0933 0.17744 0.18576 0.0
H200 H 1.00314 0.22069 0.45053 0.0
H201 H 0.93613 0.21826 0.46937 0.0
H202 H 0.83101 0.05604 0.45395 0.0
H203 H 0.89822 0.05814 0.43465 0.0
H204 H 0.77955 0.11228 0.45514 0.0
H205 H 0.89753 0.08687 0.49355 0.0
H206 H 0.98446 0.10743 0.50627 0.0
H207 H 0.01132 0.25616 0.52622 0.0
H208 H 0.92491 0.23692 0.51333 0.0
H209 H 0.60704 0.04752 0.52653 0.0
H210 H 0.67135 0.05367 0.50551 0.0
H211 H 0.7734 0.21673 0.5206 0.0
H212 H 0.70874 0.21088 0.54196 0.0
H213 H 0.8264 0.16111 0.51939 0.0
H214 H 0.70716 0.18533 0.48115 0.0
H215 H 0.62045 0.16434 0.46809 0.0
H216 H 0.59544 0.01643 0.448 0.0
H217 H 0.68173 0.03619 0.46116 0.0
C218 C 0.96581 0.18431 0.45102 0.0
C219 C 0.95642 0.13936 0.44113 0.0
C220 C 0.92749 0.18306 0.46188 0.0
C221 C 0.8789 0.13676 0.46334 0.0
C222 C 0.86842 0.09217 0.45308 0.0
C223 C 0.90689 0.0934 0.44208 0.0
C224 C 0.83987 0.13513 0.47592 0.0
C225 C 0.78951 0.12221 0.46923 0.0
C226 C 0.85332 0.14936 0.49425 0.0
C227 C 0.90491 0.16064 0.50232 0.0
C228 C 0.92211 0.12412 0.50054 0.0
C229 C 0.97129 0.13552 0.50779 0.0
C230 C 1.00344 0.18312 0.51701 0.0
C231 C 0.98639 0.21933 0.51906 0.0
C232 C 0.9373 0.20819 0.51179 0.0
C233 C 0.64301 0.08491 0.5254 0.0
C234 C 0.65267 0.1288 0.53596 0.0
C235 C 0.67969 0.08834 0.51327 0.0
C236 C 0.72696 0.13574 0.51133 0.0
C237 C 0.73702 0.17978 0.52184 0.0
C238 C 0.7 0.17646 0.53398 0.0
C239 C 0.7661 0.13838 0.49861 0.0
C240 C 0.81648 0.15134 0.50529 0.0
C241 C 0.75257 0.12398 0.4803 0.0
C242 C 0.70074 0.11206 0.47229 0.0
C243 C 0.683 0.14814 0.47407 0.0
C244 C 0.63395 0.1365 0.46663 0.0
C245 C 0.6024 0.08903 0.45726 0.0
C246 C 0.61991 0.05316 0.45527 0.0
C247 C 0.66891 0.06459 0.46271 0.0
H248 H 0.56444 0.08008 0.4515 0.0
H249 H 0.04153 0.19189 0.5226 0.0
H250 H 0.86857 0.99673 0.77601 0.0
H251 H 0.82011 0.92253 0.79525 0.0
H252 H 0.94255 0.88296 0.79206 0.0
H253 H 0.99126 0.95717 0.77232 0.0
H254 H 0.84345 0.79429 0.79214 0.0
H255 H 0.94226 0.94971 0.82776 0.0
H256 H 0.97673 0.04242 0.83652 0.0
H257 H 0.81967 0.00975 0.84604 0.0
H258 H 0.7841 0.91696 0.83705 0.0
H259 H 0.72755 0.6363 0.87091 0.0
H260 H 0.791 0.69805 0.84992 0.0
H261 H 0.6933 0.76743 0.84166 0.0
H262 H 0.63052 0.70679 0.86237 0.0
H263 H 0.79596 0.841 0.84968 0.0
H264 H 0.69855 0.68637 0.81033 0.0
H265 H 0.66665 0.59428 0.80128 0.0
H266 H 0.82628 0.62626 0.79997 0.0
H267 H 0.85908 0.71843 0.80924 0.0
C268 C 0.88511 0.97204 0.77921 0.0
C269 C 0.93416 0.98332 0.7728 0.0
C270 C 0.85733 0.9296 0.79025 0.0
C271 C 0.87827 0.8979 0.79543 0.0
C272 C 0.92584 0.90713 0.78831 0.0
C273 C 0.95359 0.94954 0.77705 0.0
C274 C 0.85144 0.85744 0.80909 0.0
C275 C 0.83386 0.80453 0.80487 0.0
C276 C 0.8392 0.8708 0.82576 0.0
C277 C 0.86048 0.92636 0.83163 0.0
C278 C 0.91502 0.96232 0.83164 0.0
C279 C 0.93477 0.01492 0.83664 0.0
C280 C 0.90041 0.03201 0.84179 0.0
C281 C 0.84624 0.99646 0.84204 0.0
C282 C 0.82626 0.94383 0.83701 0.0
C283 C 0.71942 0.66437 0.86445 0.0
C284 C 0.67406 0.66673 0.86842 0.0
C285 C 0.75567 0.6996 0.85247 0.0
C286 C 0.74698 0.73753 0.84429 0.0
C287 C 0.70109 0.73884 0.84792 0.0
C288 C 0.66509 0.7039 0.85977 0.0
C289 C 0.78588 0.77761 0.83242 0.0
C290 C 0.80617 0.83073 0.83708 0.0
C291 C 0.80102 0.76436 0.81632 0.0
C292 C 0.78122 0.70907 0.81068 0.0
C293 C 0.72681 0.67364 0.80826 0.0
C294 C 0.70858 0.62146 0.80306 0.0
C295 C 0.74441 0.60438 0.80011 0.0
C296 C 0.79856 0.6395 0.8023 0.0
C297 C 0.81699 0.69171 0.80751 0.0
H298 H 0.73022 0.56398 0.79608 0.0
H299 H 0.91577 0.07277 0.84562 0.0
H300 H 0.13216 0.02346 0.10589 0.0
H301 H 0.12039 0.95342 0.12596 0.0
H302 H 0.96747 0.928 0.13919 0.0
H303 H 0.97866 0.99762 0.119 0.0
H304 H 0.02903 0.92458 0.16921 0.0
H305 H 0.96867 0.84907 0.11005 0.0
H306 H 0.97623 0.84281 0.07754 0.0
H307 H 0.11019 0.82281 0.08649 0.0
H308 H 0.1039 0.82975 0.11907 0.0
H309 H 0.94064 0.67272 0.20706 0.0
H310 H 0.94203 0.73954 0.18724 0.0
H311 H 0.0932 0.77296 0.16862 0.0
H312 H 0.09233 0.7071 0.18842 0.0
H313 H 0.02614 0.76997 0.14118 0.0
H314 H 0.09161 0.84972 0.19922 0.0
H315 H 0.08932 0.85888 0.23187 0.0
H316 H 0.95137 0.8733 0.22539 0.0
H317 H 0.95232 0.86335 0.19266 0.0
C318 C 0.09638 1.00355 0.11328 0.0
C319 C 0.05623 0.0159 0.11079 0.0
C320 C 0.08962 0.9634 0.12468 0.0
C321 C 0.04282 0.93518 0.13392 0.0
C322 C 1.00383 0.94922 0.13216 0.0
C323 C 0.01027 0.98894 0.12059 0.0
C324 C 0.03344 0.88916 0.14456 0.0
C325 C 0.02751 0.89039 0.16306 0.0
C326 C 0.03245 0.84499 0.13657 0.0
C327 C 0.03612 0.84045 0.11699 0.0
C328 C 1.00001 0.84378 0.10508 0.0
C329 C 1.00401 0.84003 0.08664 0.0
C330 C 0.04375 0.83255 0.07995 0.0
C331 C 0.07947 0.82867 0.09169 0.0
C332 C 0.07568 0.83246 0.11014 0.0
C333 C 0.97362 0.69367 0.19848 0.0
C334 C 0.01643 0.68485 0.19931 0.0
C335 C 0.97455 0.73202 0.18727 0.0
C336 C 0.01797 0.7615 0.17658 0.0
C337 C 0.05937 0.75073 0.17676 0.0
C338 C 0.05884 0.71316 0.18811 0.0
C339 C 0.02198 0.80543 0.16584 0.0
C340 C 0.02701 0.80386 0.14732 0.0
C341 C 0.02262 0.84943 0.17385 0.0
C342 C 0.02166 0.85515 0.19351 0.0
C343 C 0.06043 0.85426 0.20476 0.0
C344 C 0.05944 0.85968 0.22328 0.0
C345 C 0.02016 0.86654 0.23069 0.0
C346 C 0.98172 0.86789 0.21962 0.0
C347 C 0.98246 0.86237 0.20108 0.0
H348 H 0.01976 0.87113 0.24502 0.0
H349 H 0.04679 0.82965 0.06567 0.0
H350 H 0.19254 0.12306 0.41946 0.0
H351 H 0.25373 0.11052 0.43913 0.0
H352 H 0.13549 0.04464 0.47886 0.0
H353 H 0.07383 0.05583 0.45899 0.0
H354 H 0.2442 0.1271 0.49125 0.0
H355 H 0.14691 0.96211 0.45845 0.0
H356 H 0.11187 0.9036 0.43173 0.0
H357 H 0.2692 0.96182 0.41418 0.0
H358 H 0.30518 0.0213 0.44067 0.0
H359 H 0.36001 0.96633 0.53286 0.0
H360 H 0.29699 0.97034 0.51151 0.0
H361 H 0.40917 0.13293 0.50233 0.0
H362 H 0.47159 0.12956 0.52367 0.0
H363 H 0.29826 0.99742 0.4756 0.0
H364 H 0.34091 0.20054 0.50141 0.0
H365 H 0.38062 0.25734 0.52835 0.0
H366 H 0.3332 0.12145 0.56031 0.0
H367 H 0.29116 0.06384 0.53375 0.0
C368 C 0.18011 0.10665 0.43252 0.0
C369 C 0.12936 0.0919 0.43807 0.0
C370 C 0.21475 0.09909 0.44363 0.0
C371 C 0.199 0.07671 0.46041 0.0
C372 C 0.14833 0.06217 0.46598 0.0
C373 C 0.11335 0.06871 0.45471 0.0
C374 C 0.23529 0.06811 0.47214 0.0
C375 C 0.25606 0.09881 0.48785 0.0
C376 C 0.25036 0.03091 0.46769 0.0
C377 C 0.22869 0.99651 0.45146 0.0
C378 C 0.174 0.96297 0.44877 0.0
C379 C 0.15399 0.92946 0.43371 0.0
C380 C 0.18832 0.92889 0.42131 0.0
C381 C 0.24269 0.96219 0.42383 0.0
C382 C 0.26291 0.99581 0.43886 0.0
C383 C 0.37142 1.00265 0.5261 0.0
C384 C 0.42042 0.04782 0.53017 0.0
C385 C 0.33548 1.00487 0.51388 0.0
C386 C 0.3481 0.05222 0.5056 0.0
C387 C 0.39827 0.09628 0.50882 0.0
C388 C 0.43387 0.09423 0.52105 0.0
C389 C 0.30789 0.05701 0.4946 0.0
C390 C 0.28642 0.02573 0.47902 0.0
C391 C 0.2922 0.09381 0.49915 0.0
C392 C 0.31347 0.12788 0.51551 0.0
C393 C 0.33826 0.18275 0.51423 0.0
C394 C 0.36114 0.21511 0.52945 0.0
C395 C 0.35958 0.19306 0.54602 0.0
C396 C 0.33436 0.13855 0.54747 0.0
C397 C 0.3108 0.10601 0.53235 0.0
H398 H 0.37793 0.21821 0.55774 0.0
H399 H 0.1728 0.90256 0.40974 0.0
H400 H 0.13594 0.13839 0.79381 0.0
H401 H 0.19672 0.20583 0.81518 0.0
H402 H 0.17584 0.32176 0.78684 0.0
H403 H 0.1226 0.25544 0.76385 0.0
H404 H 0.26682 0.36526 0.79428 0.0
H405 H 0.12904 0.2714 0.83768 0.0
H406 H 0.06401 0.19396 0.85403 0.0
H407 H 0.18427 0.15753 0.86864 0.0
H408 H 0.24972 0.23492 0.85265 0.0
H409 H 0.40294 0.55947 0.86486 0.0
H410 H 0.33221 0.49294 0.84503 0.0
H411 H 0.38445 0.38334 0.85749 0.0
H412 H 0.45502 0.44921 0.87706 0.0
H413 H 0.27591 0.34 0.85936 0.0
H414 H 0.41474 0.44186 0.8191 0.0
H415 H 0.47958 0.52332 0.8049 0.0
H416 H 0.35486 0.54791 0.78533 0.0
H417 H 0.28931 0.46691 0.79964 0.0
C418 C 0.14381 0.17822 0.79236 0.0
C419 C 0.12203 0.19116 0.7777 0.0
C420 C 0.178 0.2169 0.80483 0.0
C421 C 0.18987 0.26932 0.80334 0.0
C422 C 0.1674 0.28188 0.78866 0.0
C423 C 0.13549 0.24363 0.77571 0.0
C424 C 0.22968 0.31185 0.81581 0.0
C425 C 0.26742 0.35976 0.80857 0.0
C426 C 0.23296 0.30516 0.83449 0.0
C427 C 0.19362 0.258 0.84368 0.0
C428 C 0.14109 0.24623 0.84418 0.0
C429 C 0.10438 0.20267 0.85345 0.0
C430 C 0.11985 0.17051 0.86214 0.0
C431 C 0.17223 0.18225 0.8618 0.0
C432 C 0.20916 0.22608 0.85273 0.0
C433 C 0.39931 0.52121 0.86334 0.0
C434 C 0.43478 0.50975 0.87244 0.0
C435 C 0.35903 0.48333 0.85199 0.0
C436 C 0.35331 0.43331 0.84974 0.0
C437 C 0.38819 0.42167 0.85903 0.0
C438 C 0.42869 0.45954 0.87014 0.0
C439 C 0.31108 0.3927 0.83776 0.0
C440 C 0.27377 0.34531 0.84509 0.0
C441 C 0.30783 0.4001 0.81926 0.0
C442 C 0.3472 0.44867 0.81061 0.0
C443 C 0.40119 0.46489 0.8119 0.0
C444 C 0.43806 0.51092 0.80381 0.0
C445 C 0.42137 0.54086 0.79426 0.0
C446 C 0.36775 0.52473 0.79275 0.0
C447 C 0.33072 0.47876 0.80084 0.0
H448 H 0.44997 0.57648 0.788 0.0
H449 H 0.09133 0.13674 0.86925 0.0
H450 H 0.90623 0.1447 0.71278 0.0
H451 H 0.83583 0.1195 0.69025 0.0
H452 H 0.85993 0.99528 0.6709 0.0
H453 H 0.93182 0.02096 0.69352 0.0
H454 H 0.83891 0.0453 0.64332 0.0
H455 H 0.75925 0.96395 0.69714 0.0
H456 H 0.74391 0.95848 0.72943 0.0
H457 H 0.69266 0.07129 0.72522 0.0
H458 H 0.7085 0.07811 0.69295 0.0
H459 H 0.58938 0.95703 0.59463 0.0
H460 H 0.65285 0.95183 0.61557 0.0
H461 H 0.67972 0.09315 0.64275 0.0
H462 H 0.61761 0.09902 0.62187 0.0
H463 H 0.66804 0.01266 0.66598 0.0
H464 H 0.76245 0.10301 0.61322 0.0
H465 H 0.77854 0.1088 0.58096 0.0
H466 H 0.80031 0.97536 0.58336 0.0
H467 H 0.78352 0.96832 0.61561 0.0
C468 C 0.897 0.11216 0.70371 0.0
C469 C 0.92429 0.08438 0.70515 0.0
C470 C 0.85652 0.09771 0.69083 0.0
C471 C 0.84165 0.05466 0.67917 0.0
C472 C 0.87044 0.02834 0.67988 0.0
C473 C 0.91152 0.0431 0.69279 0.0
C474 C 0.79492 0.03701 0.66678 0.0
C475 C 0.80116 0.03689 0.64827 0.0
C476 C 0.74559 0.02612 0.67322 0.0
C477 C 0.73531 0.0217 0.69261 0.0
C478 C 0.74499 0.98782 0.70311 0.0
C479 C 0.73618 0.98446 0.72141 0.0
C480 C 0.71737 0.01455 0.72937 0.0
C481 C 0.70722 0.04799 0.71904 0.0
C482 C 0.71603 0.05156 0.70073 0.0
C483 C 0.60826 0.9864 0.60527 0.0
C484 C 0.59868 0.02848 0.60662 0.0
C485 C 0.64466 0.98358 0.61713 0.0
C486 C 0.67116 0.0223 0.63064 0.0
C487 C 0.65972 0.06287 0.63244 0.0
C488 C 0.62429 0.06622 0.62047 0.0
C489 C 0.71265 0.02274 0.64259 0.0
C490 C 0.70536 0.01966 0.66105 0.0
C491 C 0.76072 0.03028 0.63609 0.0
C492 C 0.77102 0.03469 0.61675 0.0
C493 C 0.77016 0.0746 0.60683 0.0
C494 C 0.77951 0.07817 0.58856 0.0
C495 C 0.79025 0.04236 0.5801 0.0
C496 C 0.79184 1.00299 0.58992 0.0
C497 C 0.78242 0.99919 0.60819 0.0
H498 H 0.7975 0.0452 0.56596 0.0
H499 H 0.71061 0.01192 0.74355 0.0
H500 H 0.89791 0.01813 0.05337 0.0
H501 H 0.82506 0.96041 0.03258 0.0
H502 H 0.93649 0.95821 0.99672 0.0
H503 H 0.00936 0.01822 0.01718 0.0
H504 H 0.86631 0.96645 0.97794 0.0
H505 H 0.85841 0.85417 0.02541 0.0
H506 H 0.85286 0.82633 0.05663 0.0
H507 H 0.70364 0.81902 0.06047 0.0
H508 H 0.70867 0.84749 0.02932 0.0
H509 H 0.71013 0.72115 0.93222 0.0
H510 H 0.77173 0.79196 0.95264 0.0
H511 H 0.64542 0.81363 0.97036 0.0
H512 H 0.58321 0.74312 0.94947 0.0
H513 H 0.71493 0.80077 0.99834 0.0
H514 H 0.72233 0.9035 0.94783 0.0
H515 H 0.73113 0.92582 0.91598 0.0
H516 H 0.88604 0.94463 0.91731 0.0
H517 H 0.87786 0.9216 0.94911 0.0
C518 C 0.90663 0.006 0.04086 0.0
C519 C 0.95901 0.02403 0.03644 0.0
C520 C 0.86504 0.97238 0.02911 0.0
C521 C 0.87509 0.95464 0.01305 0.0
C522 C 0.92763 0.97172 0.00891 0.0
C523 C 0.96921 0.00577 0.02059 0.0
C524 C 0.83111 0.91791 1.0006 0.0
C525 C 0.83344 0.93011 0.98243 0.0
C526 C 0.78744 0.87088 0.00643 0.0
C527 C 0.78419 0.85349 0.02512 0.0
C528 C 0.8246 0.84697 0.03296 0.0
C529 C 0.82152 0.83103 0.05063 0.0
C530 C 0.778 0.82106 0.06054 0.0
C531 C 0.73738 0.82685 0.05278 0.0
C532 C 0.7403 0.84285 0.03512 0.0
C533 C 0.69537 0.74107 0.94039 0.0
C534 C 0.64179 0.7265 0.9393 0.0
C535 C 0.73069 0.78164 0.95199 0.0
C536 C 0.71309 0.808 0.96294 0.0
C537 C 0.65965 0.79371 0.96195 0.0
C538 C 0.6243 0.75366 0.95001 0.0
C539 C 0.75087 0.8491 0.97579 0.0
C540 C 0.74743 0.83761 0.99399 0.0
C541 C 0.79408 0.89617 0.96994 0.0
C542 C 0.79927 0.91037 0.95083 0.0
C543 C 0.75809 0.91193 0.9413 0.0
C544 C 0.76301 0.92481 0.92326 0.0
C545 C 0.80906 0.93652 0.91462 0.0
C546 C 0.85037 0.93551 0.92402 0.0
C547 C 0.84563 0.92261 0.94206 0.0
H548 H 0.81279 0.94647 0.90065 0.0
H549 H 0.77568 0.80873 0.07422 0.0
H550 H 0.95016 0.9398 0.36898 0.0
H551 H 0.95696 0.87872 0.34812 0.0
H552 H 0.10644 1.00453 0.33141 0.0
H553 H 0.10039 0.06487 0.35228 0.0
H554 H 0.9709 0.8705 0.31204 0.0
H555 H 0.19418 0.96079 0.33111 0.0
H556 H 0.25524 0.01061 0.35647 0.0
H557 H 0.1265 0.94528 0.39202 0.0
H558 H 0.06516 0.89352 0.36707 0.0
H559 H 0.08281 0.77732 0.25043 0.0
H560 H 0.06898 0.83596 0.27002 0.0
H561 H 0.08984 0.76036 0.31617 0.0
H562 H 0.1053 0.7028 0.29646 0.0
H563 H 0.1333 0.86068 0.3232 0.0
H564 H 0.9671 0.72842 0.29872 0.0
H565 H 0.90162 0.67418 0.27499 0.0
H566 H 0.90643 0.8114 0.25378 0.0
H567 H 0.97282 0.86668 0.27716 0.0
C568 C 0.98375 0.95451 0.36052 0.0
C569 C 0.02507 0.00683 0.36241 0.0
C570 C 0.98766 0.91965 0.34864 0.0
C571 C 0.03281 0.93686 0.33851 0.0
C572 C 0.07179 0.99013 0.33935 0.0
C573 C 0.0682 0.02461 0.35127 0.0
C574 C 0.0421 0.89901 0.3283 0.0
C575 C 1.00635 0.86829 0.31444 0.0
C576 C 0.08765 0.89499 0.33182 0.0
C577 C 0.12493 0.92371 0.34714 0.0
C578 C 0.17901 0.95656 0.34437 0.0
C579 C 0.21371 0.98511 0.3587 0.0
C580 C 0.19479 0.98116 0.37585 0.0
C581 C 0.14121 0.94825 0.37875 0.0
C582 C 0.10648 0.91919 0.36453 0.0
C583 C 0.08587 0.77442 0.26479 0.0
C584 C 0.09601 0.73651 0.27205 0.0
C585 C 0.07728 0.80736 0.27596 0.0
C586 C 0.07731 0.80195 0.29459 0.0
C587 C 0.08954 0.76527 0.30186 0.0
C588 C 0.09865 0.73264 0.29065 0.0
C589 C 0.06305 0.83337 0.30643 0.0
C590 C 0.09781 0.86276 0.32072 0.0
C591 C 0.01589 0.83505 0.30357 0.0
C592 C 0.97543 0.80181 0.2896 0.0
C593 C 0.95454 0.74712 0.28891 0.0
C594 C 0.91724 0.71617 0.27552 0.0
C595 C 0.90002 0.73936 0.26284 0.0
C596 C 0.91988 0.79351 0.26359 0.0
C597 C 0.95736 0.82467 0.27691 0.0
H598 H 0.87118 0.71535 0.25247 0.0
H599 H 0.22164 1.0036 0.38689 0.0
H600 H 0.12303 0.02511 0.69998 0.0
H601 H 0.19047 0.0341 0.67962 0.0
H602 H 0.26106 0.20261 0.68235 0.0
H603 H 0.1928 0.19376 0.70235 0.0
H604 H 0.26047 0.17264 0.64932 0.0
H605 H 0.31571 0.13828 0.7056 0.0
H606 H 0.30699 0.09141 0.73356 0.0
H607 H 0.27426 0.95298 0.70351 0.0
H608 H 0.28206 0.9988 0.67535 0.0
H609 H 0.49402 0.20812 0.60718 0.0
H610 H 0.43358 0.21218 0.62826 0.0
H611 H 0.3437 0.043 0.62848 0.0
H612 H 0.4037 0.0386 0.60776 0.0
H613 H 0.36171 0.08233 0.66167 0.0
H614 H 0.28724 0.11266 0.60627 0.0
H615 H 0.28951 0.15846 0.57857 0.0
H616 H 0.36233 0.30583 0.60764 0.0
H617 H 0.35865 0.26051 0.63565 0.0
C618 C 0.15276 0.06408 0.69619 0.0
C619 C 0.15262 0.10871 0.70284 0.0
C620 C 0.19159 0.06922 0.68464 0.0
C621 C 0.23164 0.11913 0.67969 0.0
C622 C 0.23083 0.1637 0.68601 0.0
C623 C 0.19175 0.15856 0.69746 0.0
C624 C 0.27402 0.12467 0.66786 0.0
C625 C 0.28319 0.15359 0.65222 0.0
C626 C 0.30357 0.09954 0.67144 0.0
C627 C 0.29905 0.07188 0.68835 0.0
C628 C 0.30629 0.09773 0.70495 0.0
C629 C 0.30157 0.07137 0.72084 0.0
C630 C 0.28997 0.01922 0.72031 0.0
C631 C 0.2832 0.99336 0.70389 0.0
C632 C 0.28782 0.01953 0.68796 0.0
C633 C 0.46138 0.17183 0.61173 0.0
C634 C 0.45393 0.12306 0.60578 0.0
C635 C 0.4266 0.17419 0.62368 0.0
C636 C 0.38374 0.12784 0.62989 0.0
C637 C 0.37643 0.0793 0.62394 0.0
C638 C 0.4109 0.07691 0.61204 0.0
C639 C 0.34709 0.12915 0.64296 0.0
C640 C 0.33924 0.10172 0.65889 0.0
C641 C 0.31905 0.15589 0.63974 0.0
C642 C 0.3233 0.18341 0.62292 0.0
C643 C 0.30412 0.15489 0.60669 0.0
C644 C 0.30547 0.18071 0.59097 0.0
C645 C 0.32672 0.2351 0.59128 0.0
C646 C 0.34611 0.26374 0.60739 0.0
C647 C 0.34404 0.23798 0.62321 0.0
H648 H 0.32783 0.255 0.57907 0.0
H649 H 0.28633 0.99887 0.73263 0.0
H650 H 0.20581 0.17036 0.0408 0.0
H651 H 0.28185 0.21935 0.02203 0.0
H652 H 0.22019 0.31865 0.00557 0.0
H653 H 0.14421 0.26972 0.02383 0.0
H654 H 0.2503 0.28813 0.97757 0.0
H655 H 0.32558 0.35848 0.03687 0.0
H656 H 0.34989 0.35261 0.06822 0.0
H657 H 0.44347 0.28718 0.05096 0.0
H658 H 0.41916 0.29209 0.0195 0.0
H659 H 0.45088 0.52369 0.94859 0.0
H660 H 0.38956 0.45754 0.96831 0.0
H661 H 0.47198 0.37162 0.96389 0.0
H662 H 0.53431 0.43827 0.94375 0.0
H663 H 0.43641 0.38068 1.00052 0.0
H664 H 0.36984 0.32364 0.94055 0.0
H665 H 0.34777 0.33544 0.90955 0.0
H666 H 0.23799 0.37896 0.92842 0.0
H667 H 0.26009 0.36836 0.95956 0.0
C668 C 0.20865 0.20284 0.03326 0.0
C669 C 0.16868 0.21592 0.03384 0.0
C670 C 0.25222 0.23088 0.02255 0.0
C671 C 0.25692 0.27285 0.01238 0.0
C672 C 0.2174 0.28625 0.01317 0.0
C673 C 0.17391 0.25821 0.02371 0.0
C674 C 0.3021 0.30281 1.0006 0.0
C675 C 0.29093 0.30833 0.98264 0.0
C676 C 0.35541 0.3279 0.00697 0.0
C677 C 0.37003 0.32502 0.02586 0.0
C678 C 0.35099 0.34244 0.03977 0.0
C679 C 0.36483 0.33937 0.05756 0.0
C680 C 0.39806 0.31937 0.06159 0.0
C681 C 0.41764 0.30255 0.04783 0.0
C682 C 0.40386 0.30549 0.03002 0.0
C683 C 0.45661 0.49111 0.95186 0.0
C684 C 0.49734 0.48608 0.94439 0.0
C685 C 0.42139 0.4533 0.96318 0.0
C686 C 0.42585 0.40943 0.96738 0.0
C687 C 0.46789 0.40524 0.96075 0.0
C688 C 0.50336 0.44326 0.94925 0.0
C689 C 0.38409 0.36715 0.97781 0.0
C690 C 0.39582 0.35936 0.99542 0.0
C691 C 0.33114 0.34005 0.97118 0.0
C692 C 0.31686 0.34545 0.95242 0.0
C693 C 0.34123 0.33604 0.93811 0.0
C694 C 0.32869 0.34249 0.9205 0.0
C695 C 0.29155 0.358 0.91702 0.0
C696 C 0.26675 0.36694 0.93114 0.0
C697 C 0.27922 0.36065 0.94877 0.0
H698 H 0.28194 0.36302 0.90338 0.0
H699 H 0.40874 0.31703 0.07536 0.0
H700 H 0.98595 0.16641 0.36238 0.0
H701 H 0.97027 0.21987 0.34112 0.0
H702 H 0.11069 0.35834 0.36157 0.0
H703 H 0.12596 0.30533 0.38323 0.0
H704 H 0.03365 0.37847 0.35777 0.0
H705 H 0.10423 0.2968 0.32054 0.0
H706 H 0.10919 0.22282 0.30713 0.0
H707 H 0.95315 0.16028 0.28372 0.0
H708 H 0.94698 0.23356 0.2972 0.0
H709 H 0.09072 0.55429 0.28753 0.0
H710 H 0.08827 0.49256 0.30945 0.0
H711 H 0.9346 0.37499 0.28851 0.0
H712 H 0.93667 0.43726 0.26635 0.0
H713 H 1.0072 0.33888 0.29255 0.0
H714 H 0.94176 0.42746 0.32795 0.0
H715 H 0.94047 0.50398 0.34084 0.0
H716 H 0.0911 0.55611 0.36727 0.0
H717 H 0.09368 0.48029 0.35433 0.0
C718 C 0.01384 0.20818 0.36229 0.0
C719 C 0.05733 0.23148 0.37455 0.0
C720 C 1.00482 0.23874 0.35006 0.0
C721 C 0.03952 0.29317 0.34959 0.0
C722 C 0.08324 0.31646 0.36168 0.0
C723 C 0.09205 0.28602 0.37403 0.0
C724 C 0.02978 0.32613 0.33679 0.0
C725 C 0.0284 0.37003 0.3435 0.0
C726 C 0.02123 0.31435 0.31819 0.0
C727 C 0.02492 0.27034 0.31004 0.0
C728 C 0.07081 0.26704 0.31265 0.0
C729 C 0.07387 0.22528 0.30502 0.0
C730 C 0.03145 0.18679 0.29463 0.0
C731 C 0.98594 0.19007 0.2918 0.0
C732 C 0.98265 0.23172 0.29942 0.0
C733 C 0.05607 0.51548 0.28765 0.0
C734 C 0.01386 0.50063 0.27518 0.0
C735 C 0.05469 0.48028 0.30025 0.0
C736 C 0.01118 0.42927 0.30069 0.0
C737 C 0.96852 0.41427 0.28842 0.0
C738 C 0.9696 0.4499 0.27586 0.0
C739 C 0.01207 0.39155 0.31355 0.0
C740 C 0.01182 0.34683 0.30686 0.0
C741 C 0.01958 0.4028 0.33215 0.0
C742 C 0.01806 0.44833 0.34006 0.0
C743 C 0.9748 0.45544 0.3364 0.0
C744 C 0.97381 0.49866 0.34374 0.0
C745 C 0.01572 0.53494 0.35484 0.0
C746 C 0.05867 0.52799 0.35867 0.0
C747 C 0.05988 0.48485 0.35135 0.0
H748 H 0.01488 0.56838 0.36051 0.0
H749 H 0.0339 0.15449 0.28873 0.0
loop_
_geom_bond_atom_site_label_1
_geom_bond_atom_site_label_2
_geom_bond_distance
_geom_bond_site_symmetry_2
_ccdc_geom_bond_type
Mn0 O5 2.095 . S
Mn0 O15 2.162 . S
Mn0 O16 2.297 . S
Mn0 O24 2.385 . S
Mn0 O25 2.207 1_455 S
Mn0 O26 2.094 . S
Mn1 O6 2.121 . S
Mn1 N8 2.257 1_455 S
Mn1 N17 2.282 1_455 S
Mn1 O25 2.215 1_455 S
Mn1 O27 2.117 . S
C2 O24 1.234 1_655 S
C2 O25 1.283 . S
C3 O15 1.281 . S
C3 O16 1.236 . S
C4 O26 1.240 . S
C4 O27 1.264 . S
O5 Mn0 2.095 . S
O5 C14 1.250 . S
O6 Mn1 2.121 . S
O6 C14 1.258 . S
C7 N8 1.326 . S
C7 C11 1.460 . S
C7 H13 0.929 . S
N8 Mn1 2.257 1_655 S
N8 C7 1.326 . S
N8 C12 1.362 . S
C9 C10 1.258 . S
C9 C12 1.431 . S
C9 C29 1.449 . S
C10 C9 1.258 . S
C10 C11 1.477 . S
C10 H30 0.931 . S
C11 C7 1.460 . S
C11 C10 1.477 . S
C11 H31 0.930 . S
C12 N8 1.362 . S
C12 C9 1.431 . S
C12 C22 1.476 . S
H13 C7 0.929 . S
C14 O5 1.250 . S
C14 O6 1.258 . S
O15 Mn0 2.162 . S
O15 C3 1.281 . S
O16 Mn0 2.297 . S
O16 C3 1.236 . S
N17 Mn1 2.282 1_655 S
N17 C18 1.328 1_655 S
N17 C22 1.318 . S
C18 N17 1.328 1_455 S
C18 C19 1.457 1_454 S
C18 H23 0.929 . S
C19 C18 1.457 1_656 S
C19 C20 1.291 . S
C19 H32 0.931 1_655 S
C20 C19 1.291 . S
C20 C21 1.373 . S
C20 H33 0.929 . S
C21 C20 1.373 . S
C21 C22 1.396 1_556 S
C21 C28 1.403 . S
C22 C12 1.476 . S
C22 N17 1.318 . S
C22 C21 1.396 1_554 S
H23 C18 0.929 . S
O24 Mn0 2.385 . S
O24 C2 1.234 1_455 S
O25 Mn0 2.207 1_655 S
O25 Mn1 2.215 1_655 S
O25 C2 1.283 . S
O26 Mn0 2.094 . S
O26 C4 1.240 . S
O27 Mn1 2.117 . S
O27 C4 1.264 . S
C28 C21 1.403 . S
C28 C29 1.399 1_556 S
C28 H34 0.929 . S
C29 C9 1.449 . S
C29 C28 1.399 1_554 S
C29 H35 0.930 . S
H30 C10 0.931 . S
H31 C11 0.930 . S
H32 C19 0.931 1_455 S
H33 C20 0.929 . S
H34 C28 0.929 . S
H35 C29 0.930 . S
Mn36 O41 2.093 1_455 S
Mn36 O51 2.162 1_445 S
Mn36 O52 2.297 . S
Mn36 O60 2.385 . S
Mn36 O61 2.209 . S
Mn36 O62 2.094 1_455 S
Mn37 O42 2.121 . S
Mn37 N44 2.257 . S
Mn37 N53 2.282 . S
Mn37 O61 2.215 . S
Mn37 O63 2.117 1_455 S
C38 O60 1.234 . S
C38 O61 1.283 . S
C39 O51 1.281 1_445 S
C39 O52 1.236 . S
C40 O62 1.240 . S
C40 O63 1.264 . S
O41 Mn36 2.093 1_655 S
O41 C50 1.249 1_655 S
O42 Mn37 2.121 . S
O42 C50 1.258 . S
C43 N44 1.326 . S
C43 C47 1.460 . S
C43 H49 0.929 . S
N44 Mn37 2.257 . S
N44 C43 1.326 . S
N44 C48 1.362 . S
C45 C46 1.258 . S
C45 C48 1.431 . S
C45 C65 1.449 . S
C46 C45 1.258 . S
C46 C47 1.477 . S
C46 H66 0.931 . S
C47 C43 1.460 . S
C47 C46 1.477 . S
C47 H67 0.930 . S
C48 N44 1.362 . S
C48 C45 1.431 . S
C48 C58 1.476 . S
H49 C43 0.929 . S
C50 O41 1.249 1_455 S
C50 O42 1.258 . S
O51 Mn36 2.162 1_665 S
O51 C39 1.281 1_665 S
O52 Mn36 2.297 . S
O52 C39 1.236 . S
N53 Mn37 2.282 . S
N53 C54 1.328 . S
N53 C58 1.318 . S
C54 N53 1.328 . S
C54 C55 1.457 . S
C54 H59 0.929 . S
C55 C54 1.457 . S
C55 C56 1.291 . S
C55 H68 0.931 . S
C56 C55 1.291 . S
C56 C57 1.373 . S
C56 H69 0.929 . S
C57 C56 1.373 . S
C57 C58 1.396 . S
C57 C64 1.403 . S
C58 C48 1.476 . S
C58 N53 1.318 . S
C58 C57 1.396 . S
H59 C54 0.929 . S
O60 Mn36 2.385 . S
O60 C38 1.234 . S
O61 Mn36 2.209 . S
O61 Mn37 2.215 . S
O61 C38 1.283 . S
O62 Mn36 2.094 1_655 S
O62 C40 1.240 . S
O63 Mn37 2.117 1_655 S
O63 C40 1.264 . S
C64 C57 1.403 . S
C64 C65 1.399 . S
C64 H70 0.929 . S
C65 C45 1.449 . S
C65 C64 1.399 . S
C65 H71 0.930 . S
H66 C46 0.931 . S
H67 C47 0.930 . S
H68 C55 0.931 . S
H69 C56 0.929 . S
H70 C64 0.929 . S
H71 C65 0.930 . S
Mn72 O77 2.095 1_455 S
Mn72 O87 2.162 . S
Mn72 O88 2.297 . S
Mn72 O96 2.385 . S
Mn72 O97 2.209 . S
Mn72 O98 2.094 1_455 S
Mn73 O78 2.121 . S
Mn73 N80 2.257 1_655 S
Mn73 N89 2.282 1_655 S
Mn73 O97 2.215 1_655 S
Mn73 O99 2.117 . S
C74 O96 1.234 . S
C74 O97 1.283 . S
C75 O87 1.281 . S
C75 O88 1.236 . S
C76 O98 1.240 . S
C76 O99 1.264 . S
O77 Mn72 2.095 1_655 S
O77 C86 1.250 . S
O78 Mn73 2.121 . S
O78 C86 1.258 . S
C79 N80 1.326 . S
C79 C83 1.460 . S
C79 H85 0.929 1_455 S
N80 Mn73 2.257 1_455 S
N80 C79 1.326 . S
N80 C84 1.362 . S
C81 C82 1.258 . S
C81 C84 1.431 . S
C81 C101 1.449 . S
C82 C81 1.258 . S
C82 C83 1.477 . S
C82 H102 0.931 . S
C83 C79 1.460 . S
C83 C82 1.477 . S
C83 H103 0.930 . S
C84 N80 1.362 . S
C84 C81 1.431 . S
C84 C94 1.476 . S
H85 C79 0.929 1_655 S
C86 O77 1.250 . S
C86 O78 1.258 . S
O87 Mn72 2.162 . S
O87 C75 1.281 . S
O88 Mn72 2.297 . S
O88 C75 1.236 . S
N89 Mn73 2.282 1_455 S
N89 C90 1.328 . S
N89 C94 1.318 . S
C90 N89 1.328 . S
C90 C91 1.457 . S
C90 H95 0.929 . S
C91 C90 1.457 . S
C91 C92 1.291 . S
C91 H104 0.931 . S
C92 C91 1.291 . S
C92 C93 1.373 . S
C92 H105 0.929 . S
C93 C92 1.373 . S
C93 C94 1.396 . S
C93 C100 1.403 . S
C94 C84 1.476 . S
C94 N89 1.318 . S
C94 C93 1.396 . S
H95 C90 0.929 . S
O96 Mn72 2.385 . S
O96 C74 1.234 . S
O97 Mn72 2.209 . S
O97 Mn73 2.215 1_455 S
O97 C74 1.283 . S
O98 Mn72 2.094 1_655 S
O98 C76 1.240 . S
O99 Mn73 2.117 . S
O99 C76 1.264 . S
C100 C93 1.403 . S
C100 C101 1.399 . S
C100 H106 0.929 . S
C101 C81 1.449 . S
C101 C100 1.399 . S
C101 H107 0.930 . S
H102 C82 0.931 . S
H103 C83 0.930 . S
H104 C91 0.931 . S
H105 C92 0.929 . S
H106 C100 0.929 . S
H107 C101 0.930 . S
C108 O110 1.247 . S
C108 O112 1.258 1_455 S
C109 O116 1.241 1_455 S
C109 O117 1.258 . S
O110 C108 1.247 . S
O110 Zn111 2.028 . S
Zn111 O110 2.028 . S
Zn111 O115 2.035 . S
Zn111 O117 2.035 . S
Zn111 O118 2.028 . S
O112 C108 1.258 1_655 S
O112 Zn113 2.035 . S
Zn113 O112 2.035 . S
Zn113 O114 2.028 . S
Zn113 O116 2.031 . S
Zn113 O119 2.034 . S
O114 Zn113 2.028 . S
O114 C120 1.247 1_655 S
O115 Zn111 2.035 . S
O115 C120 1.258 . S
O116 C109 1.241 1_655 S
O116 Zn113 2.031 . S
O117 C109 1.258 . S
O117 Zn111 2.035 . S
O118 Zn111 2.028 . S
O118 C121 1.247 . S
O119 Zn113 2.034 . S
O119 C121 1.254 1_655 S
C120 O114 1.247 1_455 S
C120 O115 1.258 . S
C121 O118 1.247 . S
C121 O119 1.254 1_455 S
C122 O124 1.247 . S
C122 O126 1.258 . S
C123 O130 1.247 . S
C123 O131 1.258 . S
O124 C122 1.247 . S
O124 Zn125 2.028 . S
Zn125 O124 2.028 . S
Zn125 O129 2.035 . S
Zn125 O131 2.035 . S
Zn125 O132 2.028 . S
O126 C122 1.258 . S
O126 Zn127 2.035 . S
Zn127 O126 2.035 . S
Zn127 O128 2.028 . S
Zn127 O130 2.028 . S
Zn127 O133 2.035 . S
O128 Zn127 2.028 . S
O128 C134 1.247 . S
O129 Zn125 2.035 . S
O129 C134 1.258 . S
O130 C123 1.247 . S
O130 Zn127 2.028 . S
O131 C123 1.258 . S
O131 Zn125 2.035 . S
O132 Zn125 2.028 . S
O132 C135 1.247 . S
O133 Zn127 2.035 . S
O133 C135 1.258 . S
C134 O128 1.247 . S
C134 O129 1.258 . S
C135 O132 1.247 . S
C135 O133 1.258 . S
C136 O138 1.247 . S
C136 O140 1.258 . S
C137 O144 1.247 . S
C137 O145 1.258 . S
O138 C136 1.247 . S
O138 Zn139 2.028 . S
Zn139 O138 2.028 . S
Zn139 O143 2.035 . S
Zn139 O145 2.035 . S
Zn139 O146 2.028 . S
O140 C136 1.258 . S
O140 Zn141 2.035 . S
Zn141 O140 2.035 . S
Zn141 O142 2.028 . S
Zn141 O144 2.028 . S
Zn141 O147 2.035 . S
O142 Zn141 2.028 . S
O142 C148 1.247 . S
O143 Zn139 2.035 . S
O143 C148 1.258 . S
O144 C137 1.247 . S
O144 Zn141 2.028 . S
O145 C137 1.258 . S
O145 Zn139 2.035 . S
O146 Zn139 2.028 . S
O146 C149 1.247 . S
O147 Zn141 2.035 . S
O147 C149 1.258 . S
C148 O142 1.247 . S
C148 O143 1.258 . S
C149 O146 1.247 . S
C149 O147 1.258 . S
H150 C168 0.951 . S
H151 C170 0.951 . S
H152 C172 0.950 1_655 S
H153 C173 0.950 1_655 S
H154 C175 0.950 1_655 S
H155 C178 0.950 . S
H156 C179 0.950 . S
H157 C181 0.950 . S
H158 C182 0.950 . S
H159 C183 0.963 . S
H160 C185 0.949 . S
H161 C187 0.950 . S
H162 C188 0.950 . S
H163 C190 0.950 . S
H164 C193 0.950 . S
H165 C194 0.950 . S
H166 C196 0.950 . S
H167 C197 0.950 . S
C168 H150 0.951 . S
C168 C169 1.366 . S
C168 C170 1.388 . S
C169 C168 1.366 . S
C169 C173 1.385 . S
C170 H151 0.951 . S
C170 C168 1.388 . S
C170 C171 1.366 . S
C171 C170 1.366 . S
C171 C172 1.414 . S
C171 C174 1.499 . S
C172 H152 0.950 1_455 S
C172 C171 1.414 . S
C172 C173 1.374 . S
C173 H153 0.950 1_455 S
C173 C169 1.385 . S
C173 C172 1.374 . S
C174 C171 1.499 . S
C174 C175 1.373 . S
C174 C176 1.389 . S
C175 H154 0.950 1_455 S
C175 C174 1.373 . S
C175 C191 1.377 . S
C176 C174 1.389 . S
C176 C177 1.524 . S
C176 C190 1.377 . S
C177 C176 1.524 . S
C177 C178 1.397 . S
C177 C182 1.363 . S
C178 H155 0.950 . S
C178 C177 1.397 . S
C178 C179 1.334 . S
C179 H156 0.950 . S
C179 C178 1.334 . S
C179 C180 1.287 . S
C180 C179 1.287 . S
C180 C181 1.524 . S
C180 H199 0.913 . S
C181 H157 0.950 . S
C181 C180 1.524 . S
C181 C182 1.415 . S
C182 H158 0.950 . S
C182 C177 1.363 . S
C182 C181 1.415 . S
C183 H159 0.963 . S
C183 C184 1.359 1_655 S
C183 C185 1.381 . S
C184 C183 1.359 1_455 S
C184 C188 1.385 . S
C185 H160 0.949 . S
C185 C183 1.381 . S
C185 C186 1.368 1_655 S
C186 C185 1.368 1_455 S
C186 C187 1.414 . S
C186 C189 1.499 . S
C187 H161 0.950 . S
C187 C186 1.414 . S
C187 C188 1.374 . S
C188 H162 0.950 . S
C188 C184 1.385 . S
C188 C187 1.374 . S
C189 C186 1.499 . S
C189 C190 1.373 . S
C189 C191 1.389 . S
C190 H163 0.950 . S
C190 C176 1.377 . S
C190 C189 1.373 . S
C191 C175 1.377 . S
C191 C189 1.389 . S
C191 C192 1.524 1_455 S
C192 C191 1.524 1_655 S
C192 C193 1.397 1_655 S
C192 C197 1.363 . S
C193 H164 0.950 . S
C193 C192 1.397 1_455 S
C193 C194 1.334 1_455 S
C194 H165 0.950 . S
C194 C193 1.334 1_655 S
C194 C195 1.287 . S
C195 C194 1.287 . S
C195 C196 1.524 . S
C195 H198 0.999 . S
C196 H166 0.950 . S
C196 C195 1.524 . S
C196 C197 1.415 . S
C197 H167 0.950 . S
C197 C192 1.363 . S
C197 C196 1.415 . S
H198 C195 0.999 . S
H199 C180 0.913 . S
H200 C218 0.951 . S
H201 C220 0.951 . S
H202 C222 0.950 . S
H203 C223 0.950 . S
H204 C225 0.950 . S
H205 C228 0.950 1_565 S
H206 C229 0.950 . S
H207 C231 0.950 . S
H208 C232 0.950 . S
H209 C233 0.951 . S
H210 C235 0.951 . S
H211 C237 0.950 . S
H212 C238 0.950 . S
H213 C240 0.950 . S
H214 C243 0.950 . S
H215 C244 0.950 . S
H216 C246 0.950 . S
H217 C247 0.950 . S
C218 H200 0.951 . S
C218 C219 1.366 . S
C218 C220 1.388 . S
C219 C218 1.366 . S
C219 C223 1.385 . S
C220 H201 0.951 . S
C220 C218 1.388 . S
C220 C221 1.366 . S
C221 C220 1.366 . S
C221 C222 1.414 . S
C221 C224 1.499 . S
C222 H202 0.950 . S
C222 C221 1.414 . S
C222 C223 1.374 . S
C223 H203 0.950 . S
C223 C219 1.385 . S
C223 C222 1.374 . S
C224 C221 1.499 . S
C224 C225 1.373 . S
C224 C226 1.389 . S
C225 H204 0.950 . S
C225 C224 1.373 . S
C225 C241 1.377 . S
C226 C224 1.389 . S
C226 C227 1.524 . S
C226 C240 1.377 . S
C227 C226 1.524 . S
C227 C228 1.397 . S
C227 C232 1.363 . S
C228 H205 0.950 1_545 S
C228 C227 1.397 . S
C228 C229 1.334 1_545 S
C229 H206 0.950 . S
C229 C228 1.334 1_565 S
C229 C230 1.287 1_565 S
C230 C229 1.287 1_545 S
C230 C231 1.524 . S
C230 H249 0.913 1_545 S
C231 H207 0.950 . S
C231 C230 1.524 . S
C231 C232 1.415 . S
C232 H208 0.950 . S
C232 C227 1.363 . S
C232 C231 1.415 . S
C233 H209 0.951 . S
C233 C234 1.366 . S
C233 C235 1.388 . S
C234 C233 1.366 . S
C234 C238 1.385 . S
C235 H210 0.951 . S
C235 C233 1.388 . S
C235 C236 1.366 . S
C236 C235 1.366 . S
C236 C237 1.414 . S
C236 C239 1.499 . S
C237 H211 0.950 . S
C237 C236 1.414 . S
C237 C238 1.374 . S
C238 H212 0.950 . S
C238 C234 1.385 . S
C238 C237 1.374 . S
C239 C236 1.499 . S
C239 C240 1.373 . S
C239 C241 1.389 . S
C240 H213 0.950 . S
C240 C226 1.377 . S
C240 C239 1.373 . S
C241 C225 1.377 . S
C241 C239 1.389 . S
C241 C242 1.524 . S
C242 C241 1.524 . S
C242 C243 1.397 . S
C242 C247 1.363 . S
C243 H214 0.950 . S
C243 C242 1.397 . S
C243 C244 1.334 . S
C244 H215 0.950 . S
C244 C243 1.334 . S
C244 C245 1.287 . S
C245 C244 1.287 . S
C245 C246 1.524 . S
C245 H248 0.999 . S
C246 H216 0.950 . S
C246 C245 1.524 . S
C246 C247 1.415 . S
C247 H217 0.950 . S
C247 C242 1.363 . S
C247 C246 1.415 . S
H248 C245 0.999 . S
H249 C230 0.913 1_565 S
H250 C268 0.951 . S
H251 C270 0.951 . S
H252 C272 0.950 . S
H253 C273 0.950 1_545 S
H254 C275 0.950 . S
H255 C278 0.950 . S
H256 C279 0.950 . S
H257 C281 0.950 . S
H258 C282 0.950 . S
H259 C283 0.951 . S
H260 C285 0.951 . S
H261 C287 0.950 . S
H262 C288 0.950 . S
H263 C290 0.950 . S
H264 C293 0.950 . S
H265 C294 0.950 . S
H266 C296 0.950 . S
H267 C297 0.950 . S
C268 H250 0.951 . S
C268 C269 1.366 . S
C268 C270 1.388 . S
C269 C268 1.366 . S
C269 C273 1.385 . S
C270 H251 0.951 . S
C270 C268 1.388 . S
C270 C271 1.366 . S
C271 C270 1.366 . S
C271 C272 1.414 . S
C271 C274 1.499 . S
C272 H252 0.950 . S
C272 C271 1.414 . S
C272 C273 1.374 . S
C273 H253 0.950 1_565 S
C273 C269 1.385 . S
C273 C272 1.374 . S
C274 C271 1.499 . S
C274 C275 1.373 . S
C274 C276 1.389 . S
C275 H254 0.950 . S
C275 C274 1.373 . S
C275 C291 1.377 . S
C276 C274 1.389 . S
C276 C277 1.524 . S
C276 C290 1.377 . S
C277 C276 1.524 . S
C277 C278 1.397 . S
C277 C282 1.363 . S
C278 H255 0.950 . S
C278 C277 1.397 . S
C278 C279 1.334 . S
C279 H256 0.950 . S
C279 C278 1.334 . S
C279 C280 1.287 . S
C280 C279 1.287 . S
C280 C281 1.524 . S
C280 H299 0.913 . S
C281 H257 0.950 . S
C281 C280 1.524 . S
C281 C282 1.415 . S
C282 H258 0.950 . S
C282 C277 1.363 . S
C282 C281 1.415 . S
C283 H259 0.951 . S
C283 C284 1.366 . S
C283 C285 1.388 . S
C284 C283 1.366 . S
C284 C288 1.385 . S
C285 H260 0.951 . S
C285 C283 1.388 . S
C285 C286 1.366 . S
C286 C285 1.366 . S
C286 C287 1.414 . S
C286 C289 1.499 . S
C287 H261 0.950 . S
C287 C286 1.414 . S
C287 C288 1.374 . S
C288 H262 0.950 . S
C288 C284 1.385 . S
C288 C287 1.374 . S
C289 C286 1.499 . S
C289 C290 1.373 . S
C289 C291 1.389 . S
C290 H263 0.950 . S
C290 C276 1.377 . S
C290 C289 1.373 . S
C291 C275 1.377 . S
C291 C289 1.389 . S
C291 C292 1.524 . S
C292 C291 1.524 . S
C292 C293 1.397 . S
C292 C297 1.363 . S
C293 H264 0.950 . S
C293 C292 1.397 . S
C293 C294 1.334 . S
C294 H265 0.950 . S
C294 C293 1.334 . S
C294 C295 1.287 . S
C295 C294 1.287 . S
C295 C296 1.524 . S
C295 H298 0.999 . S
C296 H266 0.950 . S
C296 C295 1.524 . S
C296 C297 1.415 . S
C297 H267 0.950 . S
C297 C292 1.363 . S
C297 C296 1.415 . S
H298 C295 0.999 . S
H299 C280 0.913 . S
H300 C318 0.951 . S
H301 C320 0.951 . S
H302 C322 0.950 . S
H303 C323 0.950 . S
H304 C325 0.950 . S
H305 C328 0.950 . S
H306 C329 0.950 . S
H307 C331 0.950 . S
H308 C332 0.950 . S
H309 C333 0.957 . S
H310 C335 0.951 . S
H311 C337 0.950 . S
H312 C338 0.950 . S
H313 C340 0.950 . S
H314 C343 0.950 . S
H315 C344 0.950 . S
H316 C346 0.950 . S
H317 C347 0.950 . S
C318 H300 0.951 . S
C318 C319 1.366 . S
C318 C320 1.388 . S
C319 C318 1.366 . S
C319 C323 1.385 . S
C320 H301 0.951 . S
C320 C318 1.388 . S
C320 C321 1.366 . S
C321 C320 1.366 . S
C321 C322 1.414 . S
C321 C324 1.499 . S
C322 H302 0.950 . S
C322 C321 1.414 . S
C322 C323 1.374 . S
C323 H303 0.950 . S
C323 C319 1.385 . S
C323 C322 1.374 . S
C324 C321 1.499 . S
C324 C325 1.373 . S
C324 C326 1.389 . S
C325 H304 0.950 . S
C325 C324 1.373 . S
C325 C341 1.377 . S
C326 C324 1.389 . S
C326 C327 1.524 . S
C326 C340 1.377 . S
C327 C326 1.524 . S
C327 C328 1.397 1_455 S
C327 C332 1.363 . S
C328 H305 0.950 . S
C328 C327 1.397 1_655 S
C328 C329 1.334 . S
C329 H306 0.950 . S
C329 C328 1.334 . S
C329 C330 1.287 . S
C330 C329 1.287 . S
C330 C331 1.524 1_655 S
C330 H349 0.913 . S
C331 H307 0.950 . S
C331 C330 1.524 1_455 S
C331 C332 1.415 . S
C332 H308 0.950 . S
C332 C327 1.363 . S
C332 C331 1.415 . S
C333 H309 0.957 . S
C333 C334 1.366 . S
C333 C335 1.388 . S
C334 C333 1.366 . S
C334 C338 1.385 . S
C335 H310 0.951 . S
C335 C333 1.388 . S
C335 C336 1.366 . S
C336 C335 1.366 . S
C336 C337 1.414 . S
C336 C339 1.499 . S
C337 H311 0.950 . S
C337 C336 1.414 . S
C337 C338 1.374 . S
C338 H312 0.950 . S
C338 C334 1.385 . S
C338 C337 1.374 . S
C339 C336 1.499 . S
C339 C340 1.373 . S
C339 C341 1.389 . S
C340 H313 0.950 . S
C340 C326 1.377 . S
C340 C339 1.373 . S
C341 C325 1.377 . S
C341 C339 1.389 . S
C341 C342 1.524 . S
C342 C341 1.524 . S
C342 C343 1.397 . S
C342 C347 1.363 . S
C343 H314 0.950 . S
C343 C342 1.397 . S
C343 C344 1.334 . S
C344 H315 0.950 . S
C344 C343 1.334 . S
C344 C345 1.287 . S
C345 C344 1.287 . S
C345 C346 1.524 . S
C345 H348 0.999 . S
C346 H316 0.950 . S
C346 C345 1.524 . S
C346 C347 1.415 . S
C347 H317 0.950 . S
C347 C342 1.363 . S
C347 C346 1.415 . S
H348 C345 0.999 . S
H349 C330 0.913 . S
H350 C368 0.951 . S
H351 C370 0.951 . S
H352 C372 0.950 . S
H353 C373 0.950 . S
H354 C375 0.950 . S
H355 C378 0.950 . S
H356 C379 0.950 . S
H357 C381 0.950 . S
H358 C382 0.950 . S
H359 C383 0.951 . S
H360 C385 0.951 . S
H361 C387 0.950 . S
H362 C388 0.950 . S
H363 C390 0.950 . S
H364 C393 0.950 . S
H365 C394 0.950 . S
H366 C396 0.950 . S
H367 C397 0.950 . S
C368 H350 0.951 . S
C368 C369 1.366 . S
C368 C370 1.388 . S
C369 C368 1.366 . S
C369 C373 1.385 . S
C370 H351 0.951 . S
C370 C368 1.388 . S
C370 C371 1.366 . S
C371 C370 1.366 . S
C371 C372 1.414 . S
C371 C374 1.499 . S
C372 H352 0.950 . S
C372 C371 1.414 . S
C372 C373 1.374 . S
C373 H353 0.950 . S
C373 C369 1.385 . S
C373 C372 1.374 . S
C374 C371 1.499 . S
C374 C375 1.373 . S
C374 C376 1.389 . S
C375 H354 0.950 . S
C375 C374 1.373 . S
C375 C391 1.377 . S
C376 C374 1.389 . S
C376 C377 1.524 . S
C376 C390 1.377 . S
C377 C376 1.524 . S
C377 C378 1.397 1_545 S
C377 C382 1.363 . S
C378 H355 0.950 . S
C378 C377 1.397 1_565 S
C378 C379 1.334 . S
C379 H356 0.950 . S
C379 C378 1.334 . S
C379 C380 1.287 . S
C380 C379 1.287 . S
C380 C381 1.524 . S
C380 H399 0.913 . S
C381 H357 0.950 . S
C381 C380 1.524 . S
C381 C382 1.415 1_565 S
C382 H358 0.950 . S
C382 C377 1.363 . S
C382 C381 1.415 1_545 S
C383 H359 0.951 . S
C383 C384 1.366 . S
C383 C385 1.388 . S
C384 C383 1.366 . S
C384 C388 1.385 . S
C385 H360 0.951 . S
C385 C383 1.388 . S
C385 C386 1.366 . S
C386 C385 1.366 . S
C386 C387 1.414 . S
C386 C389 1.499 . S
C387 H361 0.950 . S
C387 C386 1.414 . S
C387 C388 1.374 . S
C388 H362 0.950 . S
C388 C384 1.385 . S
C388 C387 1.374 . S
C389 C386 1.499 . S
C389 C390 1.373 . S
C389 C391 1.389 . S
C390 H363 0.950 . S
C390 C376 1.377 . S
C390 C389 1.373 . S
C391 C375 1.377 . S
C391 C389 1.389 . S
C391 C392 1.524 . S
C392 C391 1.524 . S
C392 C393 1.397 . S
C392 C397 1.363 . S
C393 H364 0.950 . S
C393 C392 1.397 . S
C393 C394 1.334 . S
C394 H365 0.950 . S
C394 C393 1.334 . S
C394 C395 1.287 . S
C395 C394 1.287 . S
C395 C396 1.524 . S
C395 H398 0.999 . S
C396 H366 0.950 . S
C396 C395 1.524 . S
C396 C397 1.415 . S
C397 H367 0.950 . S
C397 C392 1.363 . S
C397 C396 1.415 . S
H398 C395 0.999 . S
H399 C380 0.913 . S
H400 C418 0.951 . S
H401 C420 0.951 . S
H402 C422 0.950 . S
H403 C423 0.950 . S
H404 C425 0.950 . S
H405 C428 0.950 . S
H406 C429 0.950 . S
H407 C431 0.950 . S
H408 C432 0.950 . S
H409 C433 0.951 . S
H410 C435 0.951 . S
H411 C437 0.950 . S
H412 C438 0.950 . S
H413 C440 0.950 . S
H414 C443 0.950 . S
H415 C444 0.950 . S
H416 C446 0.950 . S
H417 C447 0.950 . S
C418 H400 0.951 . S
C418 C419 1.366 . S
C418 C420 1.388 . S
C419 C418 1.366 . S
C419 C423 1.385 . S
C420 H401 0.951 . S
C420 C418 1.388 . S
C420 C421 1.366 . S
C421 C420 1.366 . S
C421 C422 1.414 . S
C421 C424 1.499 . S
C422 H402 0.950 . S
C422 C421 1.414 . S
C422 C423 1.374 . S
C423 H403 0.950 . S
C423 C419 1.385 . S
C423 C422 1.374 . S
C424 C421 1.499 . S
C424 C425 1.373 . S
C424 C426 1.389 . S
C425 H404 0.950 . S
C425 C424 1.373 . S
C425 C441 1.377 . S
C426 C424 1.389 . S
C426 C427 1.524 . S
C426 C440 1.377 . S
C427 C426 1.524 . S
C427 C428 1.397 . S
C427 C432 1.363 . S
C428 H405 0.950 . S
C428 C427 1.397 . S
C428 C429 1.334 . S
C429 H406 0.950 . S
C429 C428 1.334 . S
C429 C430 1.287 . S
C430 C429 1.287 . S
C430 C431 1.524 . S
C430 H449 0.913 . S
C431 H407 0.950 . S
C431 C430 1.524 . S
C431 C432 1.415 . S
C432 H408 0.950 . S
C432 C427 1.363 . S
C432 C431 1.415 . S
C433 H409 0.951 . S
C433 C434 1.366 . S
C433 C435 1.388 . S
C434 C433 1.366 . S
C434 C438 1.385 . S
C435 H410 0.951 . S
C435 C433 1.388 . S
C435 C436 1.366 . S
C436 C435 1.366 . S
C436 C437 1.414 . S
C436 C439 1.499 . S
C437 H411 0.950 . S
C437 C436 1.414 . S
C437 C438 1.374 . S
C438 H412 0.950 . S
C438 C434 1.385 . S
C438 C437 1.374 . S
C439 C436 1.499 . S
C439 C440 1.373 . S
C439 C441 1.389 . S
C440 H413 0.950 . S
C440 C426 1.377 . S
C440 C439 1.373 . S
C441 C425 1.377 . S
C441 C439 1.389 . S
C441 C442 1.524 . S
C442 C441 1.524 . S
C442 C443 1.397 . S
C442 C447 1.363 . S
C443 H414 0.950 . S
C443 C442 1.397 . S
C443 C444 1.334 . S
C444 H415 0.950 . S
C444 C443 1.334 . S
C444 C445 1.287 . S
C445 C444 1.287 . S
C445 C446 1.524 . S
C445 H448 0.999 . S
C446 H416 0.950 . S
C446 C445 1.524 . S
C446 C447 1.415 . S
C447 H417 0.950 . S
C447 C442 1.363 . S
C447 C446 1.415 . S
H448 C445 0.999 . S
H449 C430 0.913 . S
H450 C468 0.951 . S
H451 C470 0.951 . S
H452 C472 0.950 . S
H453 C473 0.950 . S
H454 C475 0.950 . S
H455 C478 0.950 . S
H456 C479 0.950 . S
H457 C481 0.950 . S
H458 C482 0.950 . S
H459 C483 0.951 . S
H460 C485 0.951 . S
H461 C487 0.950 . S
H462 C488 0.950 . S
H463 C490 0.950 . S
H464 C493 0.950 . S
H465 C494 0.950 . S
H466 C496 0.950 1_565 S
H467 C497 0.950 . S
C468 H450 0.951 . S
C468 C469 1.366 . S
C468 C470 1.388 . S
C469 C468 1.366 . S
C469 C473 1.385 . S
C470 H451 0.951 . S
C470 C468 1.388 . S
C470 C471 1.366 . S
C471 C470 1.366 . S
C471 C472 1.414 . S
C471 C474 1.499 . S
C472 H452 0.950 . S
C472 C471 1.414 . S
C472 C473 1.374 . S
C473 H453 0.950 . S
C473 C469 1.385 . S
C473 C472 1.374 . S
C474 C471 1.499 . S
C474 C475 1.373 . S
C474 C476 1.389 . S
C475 H454 0.950 . S
C475 C474 1.373 . S
C475 C491 1.377 . S
C476 C474 1.389 . S
C476 C477 1.524 . S
C476 C490 1.377 . S
C477 C476 1.524 . S
C477 C478 1.397 . S
C477 C482 1.363 . S
C478 H455 0.950 . S
C478 C477 1.397 . S
C478 C479 1.334 . S
C479 H456 0.950 . S
C479 C478 1.334 . S
C479 C480 1.287 . S
C480 C479 1.287 . S
C480 C481 1.524 . S
C480 H499 0.913 . S
C481 H457 0.950 . S
C481 C480 1.524 . S
C481 C482 1.415 . S
C482 H458 0.950 . S
C482 C477 1.363 . S
C482 C481 1.415 . S
C483 H459 0.951 . S
C483 C484 1.366 . S
C483 C485 1.388 . S
C484 C483 1.366 . S
C484 C488 1.385 . S
C485 H460 0.951 . S
C485 C483 1.388 . S
C485 C486 1.366 . S
C486 C485 1.366 . S
C486 C487 1.414 . S
C486 C489 1.499 . S
C487 H461 0.950 . S
C487 C486 1.414 . S
C487 C488 1.374 . S
C488 H462 0.950 . S
C488 C484 1.385 . S
C488 C487 1.374 . S
C489 C486 1.499 . S
C489 C490 1.373 . S
C489 C491 1.389 . S
C490 H463 0.950 . S
C490 C476 1.377 . S
C490 C489 1.373 . S
C491 C475 1.377 . S
C491 C489 1.389 . S
C491 C492 1.524 . S
C492 C491 1.524 . S
C492 C493 1.397 . S
C492 C497 1.363 . S
C493 H464 0.950 . S
C493 C492 1.397 . S
C493 C494 1.334 . S
C494 H465 0.950 . S
C494 C493 1.334 . S
C494 C495 1.287 . S
C495 C494 1.287 . S
C495 C496 1.524 . S
C495 H498 0.999 . S
C496 H466 0.950 1_545 S
C496 C495 1.524 . S
C496 C497 1.415 . S
C497 H467 0.950 . S
C497 C492 1.363 . S
C497 C496 1.415 . S
H498 C495 0.999 . S
H499 C480 0.913 . S
H500 C518 0.951 . S
H501 C520 0.951 . S
H502 C522 0.950 . S
H503 C523 0.950 . S
H504 C525 0.950 . S
H505 C528 0.950 . S
H506 C529 0.950 . S
H507 C531 0.950 . S
H508 C532 0.950 1_556 S
H509 C533 0.951 . S
H510 C535 0.951 . S
H511 C537 0.950 . S
H512 C538 0.950 . S
H513 C540 0.950 . S
H514 C543 0.950 . S
H515 C544 0.950 . S
H516 C546 0.950 . S
H517 C547 0.950 . S
C518 H500 0.951 . S
C518 C519 1.366 . S
C518 C520 1.388 1_545 S
C519 C518 1.366 . S
C519 C523 1.385 1_545 S
C520 H501 0.951 . S
C520 C518 1.388 1_565 S
C520 C521 1.366 . S
C521 C520 1.366 . S
C521 C522 1.414 . S
C521 C524 1.499 1_554 S
C522 H502 0.950 . S
C522 C521 1.414 . S
C522 C523 1.374 . S
C523 H503 0.950 . S
C523 C519 1.385 1_565 S
C523 C522 1.374 . S
C524 C521 1.499 1_556 S
C524 C525 1.373 . S
C524 C526 1.389 . S
C525 H504 0.950 . S
C525 C524 1.373 . S
C525 C541 1.377 . S
C526 C524 1.389 . S
C526 C527 1.524 1_556 S
C526 C540 1.377 . S
C527 C526 1.524 1_554 S
C527 C528 1.397 . S
C527 C532 1.363 . S
C528 H505 0.950 . S
C528 C527 1.397 . S
C528 C529 1.334 . S
C529 H506 0.950 . S
C529 C528 1.334 . S
C529 C530 1.287 . S
C530 C529 1.287 . S
C530 C531 1.524 . S
C530 H549 0.913 . S
C531 H507 0.950 . S
C531 C530 1.524 . S
C531 C532 1.415 . S
C532 H508 0.950 1_554 S
C532 C527 1.363 . S
C532 C531 1.415 . S
C533 H509 0.951 . S
C533 C534 1.366 . S
C533 C535 1.388 . S
C534 C533 1.366 . S
C534 C538 1.385 . S
C535 H510 0.951 . S
C535 C533 1.388 . S
C535 C536 1.366 . S
C536 C535 1.366 . S
C536 C537 1.414 . S
C536 C539 1.499 . S
C537 H511 0.950 . S
C537 C536 1.414 . S
C537 C538 1.374 . S
C538 H512 0.950 . S
C538 C534 1.385 . S
C538 C537 1.374 . S
C539 C536 1.499 . S
C539 C540 1.373 . S
C539 C541 1.389 . S
C540 H513 0.950 . S
C540 C526 1.377 . S
C540 C539 1.373 . S
C541 C525 1.377 . S
C541 C539 1.389 . S
C541 C542 1.524 . S
C542 C541 1.524 . S
C542 C543 1.397 . S
C542 C547 1.363 . S
C543 H514 0.950 . S
C543 C542 1.397 . S
C543 C544 1.334 . S
C544 H515 0.950 . S
C544 C543 1.334 . S
C544 C545 1.287 . S
C545 C544 1.287 . S
C545 C546 1.524 . S
C545 H548 0.999 . S
C546 H516 0.950 . S
C546 C545 1.524 . S
C546 C547 1.415 . S
C547 H517 0.950 . S
C547 C542 1.363 . S
C547 C546 1.415 . S
H548 C545 0.999 . S
H549 C530 0.913 . S
H550 C568 0.951 . S
H551 C570 0.951 . S
H552 C572 0.950 . S
H553 C573 0.950 1_545 S
H554 C575 0.950 . S
H555 C578 0.950 . S
H556 C579 0.950 . S
H557 C581 0.950 . S
H558 C582 0.950 . S
H559 C583 0.951 . S
H560 C585 0.951 . S
H561 C587 0.950 . S
H562 C588 0.950 . S
H563 C590 0.950 . S
H564 C593 0.950 . S
H565 C594 0.950 . S
H566 C596 0.950 . S
H567 C597 0.950 . S
C568 H550 0.951 . S
C568 C569 1.366 . S
C568 C570 1.388 . S
C569 C568 1.366 . S
C569 C573 1.385 . S
C570 H551 0.951 . S
C570 C568 1.388 . S
C570 C571 1.366 . S
C571 C570 1.366 . S
C571 C572 1.414 . S
C571 C574 1.499 . S
C572 H552 0.950 . S
C572 C571 1.414 . S
C572 C573 1.374 . S
C573 H553 0.950 1_565 S
C573 C569 1.385 . S
C573 C572 1.374 . S
C574 C571 1.499 . S
C574 C575 1.373 1_455 S
C574 C576 1.389 . S
C575 H554 0.950 . S
C575 C574 1.373 1_655 S
C575 C591 1.377 . S
C576 C574 1.389 . S
C576 C577 1.524 . S
C576 C590 1.377 . S
C577 C576 1.524 . S
C577 C578 1.397 . S
C577 C582 1.363 . S
C578 H555 0.950 . S
C578 C577 1.397 . S
C578 C579 1.334 . S
C579 H556 0.950 . S
C579 C578 1.334 . S
C579 C580 1.287 . S
C580 C579 1.287 . S
C580 C581 1.524 . S
C580 H599 0.913 . S
C581 H557 0.950 . S
C581 C580 1.524 . S
C581 C582 1.415 . S
C582 H558 0.950 . S
C582 C577 1.363 . S
C582 C581 1.415 . S
C583 H559 0.951 . S
C583 C584 1.366 . S
C583 C585 1.388 . S
C584 C583 1.366 . S
C584 C588 1.385 . S
C585 H560 0.951 . S
C585 C583 1.388 . S
C585 C586 1.366 . S
C586 C585 1.366 . S
C586 C587 1.414 . S
C586 C589 1.499 . S
C587 H561 0.950 . S
C587 C586 1.414 . S
C587 C588 1.374 . S
C588 H562 0.950 . S
C588 C584 1.385 . S
C588 C587 1.374 . S
C589 C586 1.499 . S
C589 C590 1.373 . S
C589 C591 1.389 1_455 S
C590 H563 0.950 . S
C590 C576 1.377 . S
C590 C589 1.373 . S
C591 C575 1.377 . S
C591 C589 1.389 1_655 S
C591 C592 1.524 . S
C592 C591 1.524 . S
C592 C593 1.397 . S
C592 C597 1.363 . S
C593 H564 0.950 . S
C593 C592 1.397 . S
C593 C594 1.334 . S
C594 H565 0.950 . S
C594 C593 1.334 . S
C594 C595 1.287 . S
C595 C594 1.287 . S
C595 C596 1.524 . S
C595 H598 0.999 . S
C596 H566 0.950 . S
C596 C595 1.524 . S
C596 C597 1.415 . S
C597 H567 0.950 . S
C597 C592 1.363 . S
C597 C596 1.415 . S
H598 C595 0.999 . S
H599 C580 0.913 . S
H600 C618 0.951 . S
H601 C620 0.951 . S
H602 C622 0.950 . S
H603 C623 0.950 . S
H604 C625 0.950 . S
H605 C628 0.950 . S
H606 C629 0.950 . S
H607 C631 0.950 . S
H608 C632 0.950 . S
H609 C633 0.951 . S
H610 C635 0.951 . S
H611 C637 0.950 . S
H612 C638 0.950 . S
H613 C640 0.950 . S
H614 C643 0.950 . S
H615 C644 0.950 . S
H616 C646 0.950 . S
H617 C647 0.950 . S
C618 H600 0.951 . S
C618 C619 1.366 . S
C618 C620 1.388 . S
C619 C618 1.366 . S
C619 C623 1.385 . S
C620 H601 0.951 . S
C620 C618 1.388 . S
C620 C621 1.366 . S
C621 C620 1.366 . S
C621 C622 1.414 . S
C621 C624 1.499 . S
C622 H602 0.950 . S
C622 C621 1.414 . S
C622 C623 1.374 . S
C623 H603 0.950 . S
C623 C619 1.385 . S
C623 C622 1.374 . S
C624 C621 1.499 . S
C624 C625 1.373 . S
C624 C626 1.389 . S
C625 H604 0.950 . S
C625 C624 1.373 . S
C625 C641 1.377 . S
C626 C624 1.389 . S
C626 C627 1.524 . S
C626 C640 1.377 . S
C627 C626 1.524 . S
C627 C628 1.397 . S
C627 C632 1.363 1_545 S
C628 H605 0.950 . S
C628 C627 1.397 . S
C628 C629 1.334 1_545 S
C629 H606 0.950 . S
C629 C628 1.334 1_565 S
C629 C630 1.287 . S
C630 C629 1.287 . S
C630 C631 1.524 . S
C630 H649 0.913 . S
C631 H607 0.950 . S
C631 C630 1.524 . S
C631 C632 1.415 . S
C632 H608 0.950 . S
C632 C627 1.363 1_565 S
C632 C631 1.415 . S
C633 H609 0.951 . S
C633 C634 1.366 . S
C633 C635 1.388 . S
C634 C633 1.366 . S
C634 C638 1.385 . S
C635 H610 0.951 . S
C635 C633 1.388 . S
C635 C636 1.366 . S
C636 C635 1.366 . S
C636 C637 1.414 . S
C636 C639 1.499 . S
C637 H611 0.950 . S
C637 C636 1.414 . S
C637 C638 1.374 . S
C638 H612 0.950 . S
C638 C634 1.385 . S
C638 C637 1.374 . S
C639 C636 1.499 . S
C639 C640 1.373 . S
C639 C641 1.389 . S
C640 H613 0.950 . S
C640 C626 1.377 . S
C640 C639 1.373 . S
C641 C625 1.377 . S
C641 C639 1.389 . S
C641 C642 1.524 . S
C642 C641 1.524 . S
C642 C643 1.397 . S
C642 C647 1.363 . S
C643 H614 0.950 . S
C643 C642 1.397 . S
C643 C644 1.334 . S
C644 H615 0.950 . S
C644 C643 1.334 . S
C644 C645 1.287 . S
C645 C644 1.287 . S
C645 C646 1.524 . S
C645 H648 0.999 . S
C646 H616 0.950 . S
C646 C645 1.524 . S
C646 C647 1.415 . S
C647 H617 0.950 . S
C647 C642 1.363 . S
C647 C646 1.415 . S
H648 C645 0.999 . S
H649 C630 0.913 . S
H650 C668 0.951 . S
H651 C670 0.951 1_556 S
H652 C672 0.950 . S
H653 C673 0.950 . S
H654 C675 0.919 1_554 S
H655 C678 0.950 . S
H656 C679 0.950 . S
H657 C681 0.950 . S
H658 C682 0.950 . S
H659 C683 0.951 . S
H660 C685 0.951 . S
H661 C687 0.950 . S
H662 C688 0.950 . S
H663 C690 0.950 . S
H664 C693 0.950 . S
H665 C694 0.950 . S
H666 C696 0.950 1_554 S
H667 C697 0.950 1_554 S
C668 H650 0.951 . S
C668 C669 1.366 . S
C668 C670 1.388 . S
C669 C668 1.366 . S
C669 C673 1.385 . S
C670 H651 0.951 1_554 S
C670 C668 1.388 . S
C670 C671 1.366 . S
C671 C670 1.366 . S
C671 C672 1.414 . S
C671 C674 1.499 1_554 S
C672 H652 0.950 . S
C672 C671 1.414 . S
C672 C673 1.374 . S
C673 H653 0.950 . S
C673 C669 1.385 . S
C673 C672 1.374 . S
C674 C671 1.499 1_556 S
C674 C675 1.373 . S
C674 C676 1.389 . S
C675 H654 0.919 1_556 S
C675 C674 1.373 . S
C675 C691 1.377 . S
C676 C674 1.389 . S
C676 C677 1.524 . S
C676 C690 1.377 . S
C677 C676 1.524 . S
C677 C678 1.397 1_556 S
C677 C682 1.363 . S
C678 H655 0.950 . S
C678 C677 1.397 1_554 S
C678 C679 1.334 . S
C679 H656 0.950 . S
C679 C678 1.334 . S
C679 C680 1.287 1_554 S
C680 C679 1.287 1_556 S
C680 C681 1.524 . S
C680 H699 0.913 . S
C681 H657 0.950 . S
C681 C680 1.524 . S
C681 C682 1.415 . S
C682 H658 0.950 . S
C682 C677 1.363 . S
C682 C681 1.415 . S
C683 H659 0.951 . S
C683 C684 1.366 . S
C683 C685 1.388 . S
C684 C683 1.366 . S
C684 C688 1.385 . S
C685 H660 0.951 . S
C685 C683 1.388 . S
C685 C686 1.366 . S
C686 C685 1.366 . S
C686 C687 1.414 . S
C686 C689 1.499 . S
C687 H661 0.950 . S
C687 C686 1.414 . S
C687 C688 1.374 . S
C688 H662 0.950 . S
C688 C684 1.385 . S
C688 C687 1.374 . S
C689 C686 1.499 . S
C689 C690 1.373 . S
C689 C691 1.389 . S
C690 H663 0.950 . S
C690 C676 1.377 . S
C690 C689 1.373 . S
C691 C675 1.377 . S
C691 C689 1.389 . S
C691 C692 1.524 . S
C692 C691 1.524 . S
C692 C693 1.397 . S
C692 C697 1.363 . S
C693 H664 0.950 . S
C693 C692 1.397 . S
C693 C694 1.334 . S
C694 H665 0.950 . S
C694 C693 1.334 . S
C694 C695 1.287 . S
C695 C694 1.287 . S
C695 C696 1.524 . S
C695 H698 0.999 . S
C696 H666 0.950 1_556 S
C696 C695 1.524 . S
C696 C697 1.415 . S
C697 H667 0.950 1_556 S
C697 C692 1.363 . S
C697 C696 1.415 . S
H698 C695 0.999 . S
H699 C680 0.913 . S
H700 C718 0.951 1_655 S
H701 C720 0.951 1_655 S
H702 C722 0.950 . S
H703 C723 0.950 . S
H704 C725 0.950 . S
H705 C728 0.950 . S
H706 C729 0.950 . S
H707 C731 0.950 . S
H708 C732 0.928 1_655 S
H709 C733 0.951 . S
H710 C735 0.951 . S
H711 C737 0.950 1_655 S
H712 C738 0.950 1_655 S
H713 C740 0.950 . S
H714 C743 0.950 . S
H715 C744 0.950 . S
H716 C746 0.950 . S
H717 C747 0.950 . S
C718 H700 0.951 1_455 S
C718 C719 1.366 . S
C718 C720 1.388 . S
C719 C718 1.366 . S
C719 C723 1.385 . S
C720 H701 0.951 1_455 S
C720 C718 1.388 . S
C720 C721 1.366 . S
C721 C720 1.366 . S
C721 C722 1.414 . S
C721 C724 1.499 . S
C722 H702 0.950 . S
C722 C721 1.414 . S
C722 C723 1.374 . S
C723 H703 0.950 . S
C723 C719 1.385 . S
C723 C722 1.374 . S
C724 C721 1.499 . S
C724 C725 1.373 . S
C724 C726 1.389 . S
C725 H704 0.950 . S
C725 C724 1.373 . S
C725 C741 1.377 . S
C726 C724 1.389 . S
C726 C727 1.524 . S
C726 C740 1.377 . S
C727 C726 1.524 . S
C727 C728 1.397 . S
C727 C732 1.363 . S
C728 H705 0.950 . S
C728 C727 1.397 . S
C728 C729 1.334 . S
C729 H706 0.950 . S
C729 C728 1.334 . S
C729 C730 1.287 . S
C730 C729 1.287 . S
C730 C731 1.524 . S
C730 H749 0.913 . S
C731 H707 0.950 . S
C731 C730 1.524 . S
C731 C732 1.415 . S
C732 H708 0.928 1_455 S
C732 C727 1.363 . S
C732 C731 1.415 . S
C733 H709 0.951 . S
C733 C734 1.366 . S
C733 C735 1.388 . S
C734 C733 1.366 . S
C734 C738 1.385 . S
C735 H710 0.951 . S
C735 C733 1.388 . S
C735 C736 1.366 . S
C736 C735 1.366 . S
C736 C737 1.414 . S
C736 C739 1.499 . S
C737 H711 0.950 1_455 S
C737 C736 1.414 . S
C737 C738 1.374 . S
C738 H712 0.950 1_455 S
C738 C734 1.385 . S
C738 C737 1.374 . S
C739 C736 1.499 . S
C739 C740 1.373 . S
C739 C741 1.389 . S
C740 H713 0.950 . S
C740 C726 1.377 . S
C740 C739 1.373 . S
C741 C725 1.377 . S
C741 C739 1.389 . S
C741 C742 1.524 . S
C742 C741 1.524 . S
C742 C743 1.397 1_455 S
C742 C747 1.363 . S
C743 H714 0.950 . S
C743 C742 1.397 1_655 S
C743 C744 1.334 . S
C744 H715 0.950 . S
C744 C743 1.334 . S
C744 C745 1.287 . S
C745 C744 1.287 . S
C745 C746 1.524 1_655 S
C745 H748 0.999 . S
C746 H716 0.950 . S
C746 C745 1.524 1_455 S
C746 C747 1.415 . S
C747 H717 0.950 . S
C747 C742 1.363 . S
C747 C746 1.415 . S
H748 C745 0.999 . S
H749 C730 0.913 . S
C184 C109 1.454 . S
C169 C14 1.415 . S
C219 C40 1.447 . S
C234 C135 1.462 . S
C269 C76 1.430 1_565 S
C284 C137 1.444 . S
C319 C3 1.422 1_565 S
C334 C121 1.422 . S
C384 C123 1.468 . S
C369 C38 1.452 . S
C419 C74 1.429 . S
C434 C149 1.445 . S
C484 C122 1.419 . S
C469 C86 1.383 . S
C519 C2 1.431 . S
C534 C148 1.447 . S
C584 C108 1.422 . S
C569 C39 1.422 1_565 S
C634 C134 1.429 . S
C619 C75 1.430 . S
C684 C136 1.446 . S
C669 C4 1.431 . S
C719 C50 1.416 . S
C734 C120 1.455 . S
