# Generated by pormake.
# Topology ssa, (4,4)-cn, num edge types: 1
# Building blocks:
#     Node 0, Type 0, BuildingBlock: NAWXER_clean_sbu_0, # of connection points: 4
#     Node 1, Type 0, BuildingBlock: NAWXER_clean_sbu_0, # of connection points: 4
#     Node 2, Type 0, BuildingBlock: NAWXER_clean_sbu_0, # of connection points: 4
#     Node 3, Type 0, BuildingBlock: NAWXER_clean_sbu_0, # of connection points: 4
#     Node 4, Type 0, BuildingBlock: NAWXER_clean_sbu_0, # of connection points: 4
#     Node 5, Type 0, BuildingBlock: NAWXER_clean_sbu_0, # of connection points: 4
#     Node 6, Type 1, BuildingBlock: NAWXER_clean_sbu_0, # of connection points: 4
#     Node 7, Type 1, BuildingBlock: NAWXER_clean_sbu_0, # of connection points: 4
#     Node 8, Type 1, BuildingBlock: NAWXER_clean_sbu_0, # of connection points: 4
#     Node 9, Type 1, BuildingBlock: NAWXER_clean_sbu_0, # of connection points: 4
#     Node 10, Type 1, BuildingBlock: NAWXER_clean_sbu_0, # of connection points: 4
#     Node 11, Type 1, BuildingBlock: NAWXER_clean_sbu_0, # of connection points: 4
#     Edge 12, Type (0, 1), BuildingBlock: TEMPAE_clean_linker_10, # of connection points: 2
#     Edge 13, Type (0, 1), BuildingBlock: TEMPAE_clean_linker_10, # of connection points: 2
#     Edge 14, Type (0, 1), BuildingBlock: TEMPAE_clean_linker_10, # of connection points: 2
#     Edge 15, Type (0, 1), BuildingBlock: TEMPAE_clean_linker_10, # of connection points: 2
#     Edge 16, Type (0, 1), BuildingBlock: TEMPAE_clean_linker_10, # of connection points: 2
#     Edge 17, Type (0, 1), BuildingBlock: TEMPAE_clean_linker_10, # of connection points: 2
#     Edge 18, Type (0, 1), BuildingBlock: TEMPAE_clean_linker_10, # of connection points: 2
#     Edge 19, Type (0, 1), BuildingBlock: TEMPAE_clean_linker_10, # of connection points: 2
#     Edge 20, Type (0, 1), BuildingBlock: TEMPAE_clean_linker_10, # of connection points: 2
#     Edge 21, Type (0, 1), BuildingBlock: TEMPAE_clean_linker_10, # of connection points: 2
#     Edge 22, Type (0, 1), BuildingBlock: TEMPAE_clean_linker_10, # of connection points: 2
#     Edge 23, Type (0, 1), BuildingBlock: TEMPAE_clean_linker_10, # of connection points: 2
#     Edge 24, Type (0, 1), BuildingBlock: TEMPAE_clean_linker_10, # of connection points: 2
#     Edge 25, Type (0, 1), BuildingBlock: TEMPAE_clean_linker_10, # of connection points: 2
#     Edge 26, Type (0, 1), BuildingBlock: TEMPAE_clean_linker_10, # of connection points: 2
#     Edge 27, Type (0, 1), BuildingBlock: TEMPAE_clean_linker_10, # of connection points: 2
#     Edge 28, Type (0, 1), BuildingBlock: TEMPAE_clean_linker_10, # of connection points: 2
#     Edge 29, Type (0, 1), BuildingBlock: TEMPAE_clean_linker_10, # of connection points: 2
#     Edge 30, Type (0, 1), BuildingBlock: TEMPAE_clean_linker_10, # of connection points: 2
#     Edge 31, Type (0, 1), BuildingBlock: TEMPAE_clean_linker_10, # of connection points: 2
#     Edge 32, Type (0, 1), BuildingBlock: TEMPAE_clean_linker_10, # of connection points: 2
#     Edge 33, Type (0, 1), BuildingBlock: TEMPAE_clean_linker_10, # of connection points: 2
#     Edge 34, Type (0, 1), BuildingBlock: TEMPAE_clean_linker_10, # of connection points: 2
#     Edge 35, Type (0, 1), BuildingBlock: TEMPAE_clean_linker_10, # of connection points: 2
# Relax obj value: 0.024
# Max RMSD: 0.040
# Mean RMSD: 0.033
data_MOF--net-ssa--node1-NAWXER_clean_sbu_0--node2-NAWXER_clean_sbu_0--edge1-TEMPAE_clean_linker_10
_symmetry_space_group_name_H-M    P1
_symmetry_Int_Tables_number       1
_symmetry_cell_setting            triclinic
loop_
_symmetry_equiv_pos_as_xyz
'x, y, z'
_cell_length_a     44.675075
_cell_length_b     44.642668
_cell_length_c     37.065843
_cell_angle_alpha  90.119103
_cell_angle_beta   89.785262
_cell_angle_gamma 119.97788
loop_
_atom_site_label
_atom_site_type_symbol
_atom_site_fract_x
_atom_site_fract_y
_atom_site_fract_z
_atom_type_partial_charge
C0 C 0.99963 0.58126 0.05337 0.0
C1 C 0.94968 0.47689 0.98017 0.0
O2 O 0.97123 0.55343 0.05886 0.0
Zn3 Zn 0.97696 0.52811 0.02001 0.0
O4 O 0.02006 0.5827 0.02808 0.0
Zn5 Zn 0.02071 0.54899 0.9861 0.0
O6 O 0.02565 0.57652 0.94418 0.0
O7 O 0.97698 0.55889 0.97479 0.0
O8 O 0.97978 0.49939 0.96871 0.0
O9 O 0.93885 0.4823 0.00978 0.0
O10 O 0.01869 0.52218 0.04064 0.0
O11 O 0.05947 0.54326 0.99921 0.0
C12 C 0.99713 0.57597 0.94855 0.0
C13 C 0.04897 0.52954 0.03 0.0
C14 C 0.47172 0.0454 0.5086 0.0
C15 C 0.52675 0.98773 0.44695 0.0
O16 O 0.46874 0.01884 0.52505 0.0
Zn17 Zn 0.48473 0.98124 0.51991 0.0
O18 O 0.48947 0.05572 0.47964 0.0
Zn19 Zn 0.50202 0.01955 0.47831 0.0
O20 O 0.45221 0.97461 0.47063 0.0
O21 O 0.43993 0.93965 0.51739 0.0
O22 O 0.52811 0.01586 0.43793 0.0
O23 O 0.51201 0.97318 0.47675 0.0
O24 O 0.51285 0.99056 0.56264 0.0
O25 O 0.53545 0.03396 0.52412 0.0
C26 C 0.43141 0.94647 0.48707 0.0
C27 C 0.53636 0.02108 0.55471 0.0
C28 C 0.49624 0.43785 0.98122 0.0
C29 C 0.54487 0.54633 0.05041 0.0
O30 O 0.49295 0.46194 0.96643 0.0
Zn31 Zn 0.50677 0.51453 0.97493 0.0
O32 O 0.51334 0.44399 0.01041 0.0
Zn33 Zn 0.52421 0.49214 0.01526 0.0
O34 O 0.47326 0.48419 0.02232 0.0
O35 O 0.46069 0.509 0.97796 0.0
O36 O 0.54737 0.51986 0.05794 0.0
O37 O 0.53112 0.54721 0.02041 0.0
O38 O 0.53678 0.53712 0.93372 0.0
O39 O 0.55946 0.51586 0.97141 0.0
C40 C 0.45186 0.49119 0.0069 0.0
C41 C 0.56115 0.53146 0.94182 0.0
C42 C 0.01719 0.48703 0.45001 0.0
C43 C 0.95382 0.38146 0.52324 0.0
O44 O 0.03099 0.48739 0.48033 0.0
Zn45 Zn 0.02309 0.45564 0.52584 0.0
O46 O 0.98849 0.46069 0.4413 0.0
Zn47 Zn 0.98276 0.43322 0.48478 0.0
O48 O 0.9744 0.46119 0.52604 0.0
O49 O 0.01699 0.48131 0.56547 0.0
O50 O 0.94363 0.38653 0.49295 0.0
O51 O 0.98228 0.40508 0.53662 0.0
O52 O 0.06302 0.44876 0.52118 0.0
O53 O 0.02436 0.42387 0.47799 0.0
C54 C 0.98822 0.47779 0.55515 0.0
C55 C 0.05309 0.43075 0.49238 0.0
C56 C 0.48757 0.92113 0.01624 0.0
C57 C 0.47304 0.01027 0.95562 0.0
O58 O 0.49814 0.94909 0.03435 0.0
Zn59 Zn 0.50032 0.99786 0.03086 0.0
O60 O 0.47407 0.91827 0.9853 0.0
Zn61 Zn 0.47751 0.96353 0.98609 0.0
O62 O 0.53238 0.99729 0.98346 0.0
O63 O 0.54985 0.02958 0.03258 0.0
O64 O 0.46248 0.9795 0.94497 0.0
O65 O 0.48637 0.01943 0.9871 0.0
O66 O 0.47111 0.99422 0.07157 0.0
O67 O 0.44238 0.95556 0.02944 0.0
C68 C 0.55679 0.02107 0.00219 0.0
C69 C 0.44325 0.96811 0.06082 0.0
C70 C 0.58742 0.55069 0.5056 0.0
C71 C 0.47562 0.49675 0.44478 0.0
O72 O 0.56277 0.54861 0.52526 0.0
Zn73 Zn 0.50797 0.5279 0.52254 0.0
O74 O 0.58086 0.53736 0.47419 0.0
Zn75 Zn 0.53142 0.51951 0.47617 0.0
O76 O 0.52975 0.56663 0.47759 0.0
O77 O 0.50482 0.56961 0.52805 0.0
O78 O 0.5031 0.49773 0.43375 0.0
O79 O 0.47419 0.50583 0.47729 0.0
O80 O 0.49112 0.49338 0.56046 0.0
O81 O 0.51609 0.48039 0.51663 0.0
C82 C 0.51891 0.58261 0.49778 0.0
C83 C 0.50164 0.47377 0.5478 0.0
C84 C 0.29743 0.49395 0.27531 0.0
C85 C 0.21062 0.50117 0.19954 0.0
O86 O 0.27356 0.4649 0.26319 0.0
Zn87 Zn 0.22836 0.44447 0.23062 0.0
O88 O 0.2971 0.52155 0.2674 0.0
Zn89 Zn 0.25482 0.49987 0.23836 0.0
O90 O 0.21625 0.47053 0.27755 0.0
O91 O 0.19349 0.41481 0.2655 0.0
O92 O 0.23631 0.5264 0.21496 0.0
O93 O 0.20547 0.47046 0.20393 0.0
O94 O 0.2411 0.42547 0.18976 0.0
O95 O 0.27152 0.48241 0.19354 0.0
C96 C 0.19517 0.43886 0.28542 0.0
C97 C 0.26492 0.45431 0.17761 0.0
C98 C 0.80874 0.23899 0.72727 0.0
C99 C 0.73909 0.17659 0.83237 0.0
O100 O 0.78657 0.24787 0.73638 0.0
Zn101 Zn 0.74724 0.23489 0.77601 0.0
O102 O 0.81134 0.21635 0.74562 0.0
Zn103 Zn 0.77552 0.20785 0.78073 0.0
O104 O 0.73064 0.18348 0.74727 0.0
O105 O 0.70569 0.21541 0.74628 0.0
O106 O 0.76395 0.17397 0.81894 0.0
O107 O 0.73112 0.198 0.81865 0.0
O108 O 0.76355 0.27836 0.80175 0.0
O109 O 0.7965 0.25523 0.81059 0.0
C110 C 0.70641 0.18851 0.73607 0.0
C111 C 0.78975 0.27955 0.81665 0.0
C112 C 0.54109 0.8175 0.28097 0.0
C113 C 0.54393 0.71904 0.22393 0.0
O114 O 0.56769 0.81639 0.27052 0.0
Zn115 Zn 0.54361 0.76887 0.25274 0.0
O116 O 0.51107 0.79092 0.27627 0.0
Zn117 Zn 0.48869 0.73925 0.25475 0.0
O118 O 0.46536 0.71123 0.29644 0.0
O119 O 0.52216 0.74114 0.30202 0.0
O120 O 0.51324 0.71303 0.23083 0.0
O121 O 0.56955 0.74805 0.23296 0.0
O122 O 0.5173 0.77211 0.20584 0.0
O123 O 0.46107 0.7404 0.21551 0.0
C124 C 0.49225 0.72056 0.31536 0.0
C125 C 0.48611 0.76004 0.19501 0.0
C126 C 0.84673 0.59853 0.77331 0.0
C127 C 0.77624 0.58447 0.66752 0.0
O128 O 0.82334 0.56723 0.76695 0.0
Zn129 Zn 0.78325 0.53827 0.72924 0.0
O130 O 0.84923 0.62277 0.75319 0.0
Zn131 Zn 0.81177 0.59302 0.72097 0.0
O132 O 0.7669 0.57497 0.75534 0.0
O133 O 0.74214 0.51821 0.75916 0.0
O134 O 0.80081 0.61265 0.67982 0.0
O135 O 0.76793 0.55601 0.68366 0.0
O136 O 0.79957 0.5091 0.70821 0.0
O137 O 0.83356 0.5645 0.69638 0.0
C138 C 0.74264 0.54607 0.76767 0.0
C139 C 0.82697 0.53313 0.69381 0.0
C140 C 0.26078 0.79434 0.22825 0.0
C141 C 0.17678 0.69446 0.29969 0.0
O142 O 0.23772 0.79914 0.24357 0.0
Zn143 Zn 0.19413 0.77184 0.27898 0.0
O144 O 0.26043 0.76599 0.23339 0.0
Zn145 Zn 0.22041 0.74405 0.26514 0.0
O146 O 0.1791 0.73608 0.23093 0.0
O147 O 0.15592 0.76702 0.24956 0.0
O148 O 0.20303 0.69717 0.28305 0.0
O149 O 0.17164 0.72027 0.30023 0.0
O150 O 0.208 0.80022 0.32227 0.0
O151 O 0.23812 0.77406 0.31277 0.0
C152 C 0.1563 0.74527 0.22756 0.0
C153 C 0.23172 0.7941 0.33194 0.0
C154 C 0.44812 0.25658 0.79888 0.0
C155 C 0.44156 0.18507 0.69503 0.0
O156 O 0.47715 0.26176 0.7867 0.0
Zn157 Zn 0.49802 0.24386 0.74661 0.0
O158 O 0.42009 0.23363 0.78446 0.0
Zn159 Zn 0.44154 0.21924 0.74705 0.0
O160 O 0.4621 0.19429 0.77856 0.0
O161 O 0.51903 0.22221 0.77552 0.0
O162 O 0.41551 0.18436 0.71007 0.0
O163 O 0.47201 0.20572 0.70671 0.0
O164 O 0.5241 0.28595 0.71732 0.0
O165 O 0.46762 0.2642 0.7147 0.0
C166 C 0.49098 0.19706 0.78769 0.0
C167 C 0.49811 0.28725 0.70511 0.0
C168 C 0.06342 0.51636 0.09114 0.0
C169 C 0.07241 0.52474 0.05471 0.0
C170 C 0.08615 0.51386 0.11546 0.0
C171 C 0.11862 0.51956 0.10309 0.0
C172 C 0.12779 0.52785 0.06633 0.0
C173 C 0.10467 0.53047 0.04264 0.0
C174 C 0.07539 0.5051 0.15444 0.0
C175 C 0.16201 0.53378 0.05196 0.0
C176 C 0.18993 0.53906 0.17143 0.0
C177 C 0.18703 0.50647 0.17552 0.0
C178 C 0.16775 0.54376 0.1481 0.0
C179 C 0.14227 0.51526 0.12823 0.0
C180 C 0.13925 0.48237 0.13232 0.0
C181 C 0.1615 0.47837 0.1559 0.0
C182 C 0.17159 0.5792 0.14468 0.0
C183 C 0.11259 0.45132 0.11159 0.0
H184 H 0.03873 0.51222 0.10088 0.0
H185 H 0.11194 0.53708 0.01461 0.0
H186 H 0.07431 0.48048 0.16167 0.0
H187 H 0.0948 0.52549 0.17229 0.0
H188 H 0.04973 0.50247 0.16003 0.0
H189 H 0.16554 0.54057 0.02284 0.0
H190 H 0.18354 0.55492 0.06723 0.0
H191 H 0.1639 0.51014 0.05581 0.0
H192 H 0.2095 0.56091 0.18644 0.0
H193 H 0.15899 0.45305 0.15867 0.0
H194 H 0.14689 0.57803 0.15184 0.0
H195 H 0.17759 0.58816 0.1163 0.0
H196 H 0.19233 0.59858 0.16228 0.0
H197 H 0.08629 0.44649 0.11812 0.0
H198 H 0.11367 0.42752 0.1177 0.0
H199 H 0.11657 0.45639 0.08217 0.0
C200 C 0.55763 0.0347 0.61851 0.0
C201 C 0.56244 0.04343 0.58177 0.0
C202 C 0.57998 0.05776 0.64475 0.0
C203 C 0.60803 0.09012 0.63395 0.0
C204 C 0.61348 0.09869 0.59684 0.0
C205 C 0.59057 0.07534 0.57127 0.0
C206 C 0.57325 0.04775 0.68407 0.0
C207 C 0.64338 0.13269 0.58415 0.0
C208 C 0.65097 0.16481 0.70082 0.0
C209 C 0.68036 0.16311 0.71072 0.0
C210 C 0.62676 0.14079 0.67638 0.0
C211 C 0.63231 0.11474 0.66127 0.0
C212 C 0.66181 0.11283 0.67136 0.0
C213 C 0.68531 0.13687 0.69598 0.0
C214 C 0.59541 0.14343 0.66648 0.0
C215 C 0.66889 0.08571 0.65566 0.0
H216 H 0.53576 0.01028 0.62692 0.0
H217 H 0.59449 0.08233 0.54295 0.0
H218 H 0.59609 0.04807 0.69614 0.0
H219 H 0.56905 0.06689 0.69906 0.0
H220 H 0.55034 0.02166 0.68805 0.0
H221 H 0.64426 0.13525 0.5543 0.0
H222 H 0.64142 0.15446 0.59607 0.0
H223 H 0.66814 0.13524 0.59342 0.0
H224 H 0.64686 0.18487 0.71216 0.0
H225 H 0.70795 0.1353 0.7033 0.0
H226 H 0.5715 0.1185 0.67193 0.0
H227 H 0.59585 0.1487 0.63719 0.0
H228 H 0.59409 0.16422 0.68166 0.0
H229 H 0.64678 0.05949 0.66111 0.0
H230 H 0.69268 0.08731 0.66685 0.0
H231 H 0.67176 0.08877 0.62593 0.0
C232 C 0.55228 0.60397 0.06718 0.0
C233 C 0.55362 0.57436 0.0773 0.0
C234 C 0.55473 0.62825 0.09287 0.0
C235 C 0.55872 0.62303 0.12981 0.0
C236 C 0.56209 0.59427 0.14004 0.0
C237 C 0.5595 0.57026 0.11367 0.0
C238 C 0.5511 0.65854 0.08062 0.0
C239 C 0.56663 0.58786 0.17906 0.0
C240 C 0.58153 0.70034 0.19117 0.0
C241 C 0.54874 0.69304 0.20329 0.0
C242 C 0.58548 0.67712 0.16853 0.0
C243 C 0.55596 0.6459 0.15762 0.0
C244 C 0.52301 0.6378 0.17099 0.0
C245 C 0.51983 0.66135 0.19361 0.0
C246 C 0.62108 0.68663 0.15512 0.0
C247 C 0.49078 0.60485 0.16016 0.0
H248 H 0.54798 0.60762 0.03917 0.0
H249 H 0.56054 0.5475 0.12184 0.0
H250 H 0.52659 0.65576 0.09126 0.0
H251 H 0.57252 0.68307 0.09145 0.0
H252 H 0.55099 0.6605 0.05075 0.0
H253 H 0.5733 0.56713 0.18212 0.0
H254 H 0.58716 0.61185 0.19179 0.0
H255 H 0.54228 0.58009 0.19404 0.0
H256 H 0.60406 0.72466 0.19852 0.0
H257 H 0.49437 0.65524 0.20291 0.0
H258 H 0.62294 0.69209 0.12576 0.0
H259 H 0.62586 0.66474 0.15902 0.0
H260 H 0.6417 0.70978 0.16908 0.0
H261 H 0.48637 0.60531 0.13077 0.0
H262 H 0.46745 0.60122 0.17478 0.0
H263 H 0.49396 0.58215 0.16545 0.0
C264 C 0.94113 0.49194 0.56101 0.0
C265 C 0.96872 0.49027 0.57697 0.0
C266 C 0.91936 0.49964 0.58137 0.0
C267 C 0.92515 0.50586 0.61881 0.0
C268 C 0.95354 0.50524 0.63505 0.0
C269 C 0.97511 0.49752 0.61388 0.0
C270 C 0.88967 0.5004 0.56284 0.0
C271 C 0.96056 0.51186 0.67491 0.0
C272 C 0.88291 0.55313 0.66113 0.0
C273 C 0.85223 0.52578 0.67542 0.0
C274 C 0.90742 0.54712 0.64383 0.0
C275 C 0.9012 0.5129 0.64058 0.0
C276 C 0.87063 0.4852 0.65551 0.0
C277 C 0.8465 0.49196 0.67275 0.0
C278 C 0.9396 0.57737 0.62822 0.0
C279 C 0.86305 0.44832 0.65255 0.0
H280 H 0.93609 0.48661 0.53244 0.0
H281 H 0.99621 0.49606 0.62645 0.0
H282 H 0.86479 0.4804 0.57468 0.0
H283 H 0.89143 0.52583 0.56716 0.0
H284 H 0.88916 0.4957 0.53334 0.0
H285 H 0.98445 0.51189 0.68315 0.0
H286 H 0.96305 0.5371 0.6823 0.0
H287 H 0.93847 0.49164 0.69052 0.0
H288 H 0.88781 0.57942 0.66324 0.0
H289 H 0.82305 0.4707 0.68393 0.0
H290 H 0.93941 0.57505 0.5984 0.0
H291 H 0.96296 0.57732 0.63816 0.0
H292 H 0.94174 0.60259 0.63518 0.0
H293 H 0.85968 0.4404 0.62378 0.0
H294 H 0.83935 0.42999 0.6676 0.0
H295 H 0.88513 0.44615 0.66301 0.0
C296 C 0.38274 0.92082 0.07297 0.0
C297 C 0.41392 0.94823 0.08605 0.0
C298 C 0.35709 0.89731 0.09656 0.0
C299 C 0.3627 0.90111 0.13427 0.0
C300 C 0.39335 0.9297 0.14774 0.0
C301 C 0.41854 0.95299 0.12349 0.0
C302 C 0.32463 0.8675 0.08101 0.0
C303 C 0.40035 0.93468 0.18775 0.0
C304 C 0.28499 0.85127 0.1962 0.0
C305 C 0.28731 0.82183 0.2047 0.0
C306 C 0.30947 0.8774 0.17367 0.0
C307 C 0.33719 0.87425 0.15937 0.0
C308 C 0.33996 0.84484 0.16819 0.0
C309 C 0.31494 0.81894 0.19058 0.0
C310 C 0.30541 0.90818 0.1648 0.0
C311 C 0.36921 0.84054 0.15368 0.0
H312 H 0.37884 0.91691 0.04411 0.0
H313 H 0.44261 0.97388 0.13391 0.0
H314 H 0.32394 0.84283 0.08702 0.0
H315 H 0.30143 0.86612 0.09367 0.0
H316 H 0.32299 0.86968 0.05132 0.0
H317 H 0.42408 0.95953 0.19402 0.0
H318 H 0.37817 0.93397 0.20211 0.0
H319 H 0.40342 0.9132 0.19852 0.0
H320 H 0.26376 0.85383 0.20689 0.0
H321 H 0.31707 0.79641 0.19704 0.0
H322 H 0.3021 0.90932 0.13527 0.0
H323 H 0.32906 0.93246 0.17255 0.0
H324 H 0.28288 0.90718 0.17875 0.0
H325 H 0.36731 0.83797 0.12388 0.0
H326 H 0.36898 0.81742 0.16504 0.0
H327 H 0.39443 0.86372 0.15999 0.0
C328 C 0.49143 0.44221 0.60665 0.0
C329 C 0.50077 0.44568 0.57006 0.0
C330 C 0.49333 0.41756 0.6286 0.0
C331 C 0.50461 0.39564 0.61361 0.0
C332 C 0.51392 0.39891 0.57669 0.0
C333 C 0.51196 0.42388 0.55542 0.0
C334 C 0.48313 0.41487 0.66786 0.0
C335 C 0.5257 0.37581 0.55955 0.0
C336 C 0.53222 0.34673 0.67742 0.0
C337 C 0.50164 0.31472 0.68002 0.0
C338 C 0.53379 0.37338 0.65567 0.0
C339 C 0.50423 0.36765 0.63589 0.0
C340 C 0.47374 0.33503 0.63768 0.0
C341 C 0.4728 0.30914 0.65972 0.0
C342 C 0.56675 0.4079 0.65449 0.0
C343 C 0.44177 0.32758 0.61674 0.0
H344 H 0.48311 0.45913 0.61834 0.0
H345 H 0.51942 0.42642 0.52724 0.0
H346 H 0.46052 0.38896 0.67332 0.0
H347 H 0.50457 0.41766 0.6852 0.0
H348 H 0.47643 0.43482 0.6758 0.0
H349 H 0.53315 0.3824 0.53079 0.0
H350 H 0.54814 0.37786 0.57445 0.0
H351 H 0.5047 0.34844 0.56115 0.0
H352 H 0.55452 0.35126 0.69312 0.0
H353 H 0.44913 0.28437 0.66122 0.0
H354 H 0.56188 0.4283 0.66527 0.0
H355 H 0.57566 0.41494 0.62619 0.0
H356 H 0.58776 0.40792 0.67043 0.0
H357 H 0.43241 0.34519 0.62574 0.0
H358 H 0.42049 0.30048 0.62019 0.0
H359 H 0.44798 0.33243 0.58758 0.0
C360 C 0.54549 0.97914 0.38541 0.0
C361 C 0.53814 0.96929 0.42177 0.0
C362 C 0.55059 0.95834 0.36028 0.0
C363 C 0.54833 0.92701 0.37177 0.0
C364 C 0.54302 0.9181 0.40881 0.0
C365 C 0.538 0.93927 0.43327 0.0
C366 C 0.55639 0.96892 0.3211 0.0
C367 C 0.5406 0.88507 0.42238 0.0
C368 C 0.51414 0.8494 0.30909 0.0
C369 C 0.54409 0.84799 0.30069 0.0
C370 C 0.51549 0.87577 0.33093 0.0
C371 C 0.5476 0.90158 0.34492 0.0
C372 C 0.57817 0.90122 0.33535 0.0
C373 C 0.57608 0.87443 0.31333 0.0
C374 C 0.48222 0.87515 0.34021 0.0
C375 C 0.61292 0.92831 0.34956 0.0
H376 H 0.54567 0.00225 0.37618 0.0
H377 H 0.53262 0.93149 0.46131 0.0
H378 H 0.57799 0.96633 0.30974 0.0
H379 H 0.53287 0.95154 0.30543 0.0
H380 H 0.56216 0.99597 0.31725 0.0
H381 H 0.53972 0.8835 0.45231 0.0
H382 H 0.51687 0.86253 0.4116 0.0
H383 H 0.56296 0.88291 0.41267 0.0
H384 H 0.4893 0.82932 0.29929 0.0
H385 H 0.59937 0.87363 0.30702 0.0
H386 H 0.4845 0.90051 0.33403 0.0
H387 H 0.47699 0.8705 0.36956 0.0
H388 H 0.45973 0.8547 0.32529 0.0
H389 H 0.61679 0.95458 0.34507 0.0
H390 H 0.63453 0.92668 0.33662 0.0
H391 H 0.61395 0.92495 0.37909 0.0
C392 C 0.61893 0.53804 0.92767 0.0
C393 C 0.58966 0.53921 0.91603 0.0
C394 C 0.64423 0.54087 0.90312 0.0
C395 C 0.64012 0.54462 0.86585 0.0
C396 C 0.61117 0.54687 0.85398 0.0
C397 C 0.58639 0.54434 0.87924 0.0
C398 C 0.67492 0.53886 0.91703 0.0
C399 C 0.60574 0.55068 0.81446 0.0
C400 C 0.71961 0.57666 0.8057 0.0
C401 C 0.71581 0.54559 0.79196 0.0
C402 C 0.695 0.57677 0.82936 0.0
C403 C 0.66562 0.54509 0.83934 0.0
C404 C 0.66129 0.51368 0.82509 0.0
C405 C 0.6865 0.51429 0.80174 0.0
C406 C 0.70079 0.61079 0.84419 0.0
C407 C 0.63018 0.47935 0.83482 0.0
H408 H 0.62177 0.5342 0.95605 0.0
H409 H 0.56375 0.545 0.86995 0.0
H410 H 0.67433 0.51541 0.90615 0.0
H411 H 0.69932 0.56155 0.90761 0.0
H412 H 0.67534 0.53791 0.94696 0.0
H413 H 0.58288 0.55376 0.80977 0.0
H414 H 0.6289 0.57338 0.80295 0.0
H415 H 0.60208 0.52752 0.79953 0.0
H416 H 0.74217 0.601 0.7984 0.0
H417 H 0.6832 0.49018 0.79114 0.0
H418 H 0.70317 0.61101 0.87399 0.0
H419 H 0.67828 0.61402 0.83805 0.0
H420 H 0.72444 0.63325 0.83299 0.0
H421 H 0.63001 0.47477 0.86424 0.0
H422 H 0.62982 0.45741 0.82023 0.0
H423 H 0.60608 0.47966 0.82849 0.0
C424 C 0.06512 0.54694 0.43859 0.0
C425 C 0.03676 0.51663 0.42515 0.0
C426 C 0.0867 0.57429 0.41575 0.0
C427 C 0.07988 0.57154 0.3783 0.0
C428 C 0.05092 0.54136 0.36446 0.0
C429 C 0.02961 0.51419 0.3881 0.0
C430 C 0.11707 0.60607 0.43177 0.0
C431 C 0.0428 0.53762 0.32468 0.0
C432 C 0.1204 0.65848 0.33129 0.0
C433 C 0.15128 0.66175 0.31764 0.0
C434 C 0.09613 0.6285 0.3494 0.0
C435 C 0.10282 0.60098 0.35426 0.0
C436 C 0.13335 0.60352 0.33952 0.0
C437 C 0.15722 0.63388 0.3213 0.0
C438 C 0.06393 0.6269 0.3646 0.0
C439 C 0.14141 0.5747 0.3442 0.0
H440 H 0.07084 0.54922 0.46719 0.0
H441 H 0.00795 0.49078 0.37747 0.0
H442 H 0.14148 0.61031 0.41925 0.0
H443 H 0.11485 0.62925 0.42597 0.0
H444 H 0.11892 0.60401 0.46145 0.0
H445 H 0.01898 0.5129 0.31826 0.0
H446 H 0.03953 0.55938 0.31526 0.0
H447 H 0.06469 0.53878 0.30926 0.0
H448 H 0.11523 0.67962 0.32824 0.0
H449 H 0.18084 0.63604 0.31061 0.0
H450 H 0.065 0.62725 0.39451 0.0
H451 H 0.04064 0.60244 0.35651 0.0
H452 H 0.06092 0.64895 0.35552 0.0
H453 H 0.14636 0.57243 0.3731 0.0
H454 H 0.1644 0.57916 0.32829 0.0
H455 H 0.11899 0.54962 0.33593 0.0
C456 C 0.46892 0.03055 0.89359 0.0
C457 C 0.47417 0.03689 0.93077 0.0
C458 C 0.47362 0.0569 0.86952 0.0
C459 C 0.48352 0.09032 0.88296 0.0
C460 C 0.48853 0.09677 0.92048 0.0
C461 C 0.48389 0.07006 0.94385 0.0
C462 C 0.46804 0.04902 0.82968 0.0
C463 C 0.49864 0.13187 0.93599 0.0
C464 C 0.51982 0.16792 0.81914 0.0
C465 C 0.49031 0.17049 0.81235 0.0
C466 C 0.51807 0.14175 0.84184 0.0
C467 C 0.48616 0.11787 0.85822 0.0
C468 C 0.45648 0.12058 0.8516 0.0
C469 C 0.4589 0.14668 0.82881 0.0
C470 C 0.55027 0.13956 0.84825 0.0
C471 C 0.42202 0.09594 0.86872 0.0
H472 H 0.46185 0.00517 0.88315 0.0
H473 H 0.48817 0.07533 0.9725 0.0
H474 H 0.4466 0.05267 0.82001 0.0
H475 H 0.49156 0.06724 0.81438 0.0
H476 H 0.46175 0.02216 0.82337 0.0
H477 H 0.5025 0.13295 0.96566 0.0
H478 H 0.52287 0.15199 0.92317 0.0
H479 H 0.47828 0.13847 0.93006 0.0
H480 H 0.54412 0.18608 0.80648 0.0
H481 H 0.4359 0.14841 0.82401 0.0
H482 H 0.54582 0.11377 0.8399 0.0
H483 H 0.55647 0.14241 0.87745 0.0
H484 H 0.57295 0.15975 0.83323 0.0
H485 H 0.41395 0.06895 0.86092 0.0
H486 H 0.40136 0.10151 0.86071 0.0
H487 H 0.42435 0.09752 0.89854 0.0
C488 C 0.42234 0.49924 0.43034 0.0
C489 C 0.44788 0.4916 0.41914 0.0
C490 C 0.39892 0.49997 0.40577 0.0
C491 C 0.40041 0.49218 0.36901 0.0
C492 C 0.42548 0.48357 0.35755 0.0
C493 C 0.44906 0.48356 0.38271 0.0
C494 C 0.37327 0.51024 0.41896 0.0
C495 C 0.4279 0.4752 0.31858 0.0
C496 C 0.31779 0.46358 0.31623 0.0
C497 C 0.32443 0.49419 0.29874 0.0
C498 C 0.34259 0.46245 0.33837 0.0
C499 C 0.37514 0.49259 0.34303 0.0
C500 C 0.38235 0.52346 0.32484 0.0
C501 C 0.3568 0.52396 0.30308 0.0
C502 C 0.33372 0.42905 0.35727 0.0
C503 C 0.41722 0.55582 0.32756 0.0
H504 H 0.42137 0.50601 0.45825 0.0
H505 H 0.46889 0.47801 0.37367 0.0
H506 H 0.37783 0.53406 0.4048 0.0
H507 H 0.34655 0.48961 0.41262 0.0
H508 H 0.37516 0.51517 0.44848 0.0
H509 H 0.44758 0.46726 0.31428 0.0
H510 H 0.4025 0.4541 0.30912 0.0
H511 H 0.43476 0.49821 0.30162 0.0
H512 H 0.29283 0.4404 0.31306 0.0
H513 H 0.36235 0.54749 0.28909 0.0
H514 H 0.33375 0.43264 0.38691 0.0
H515 H 0.35351 0.42168 0.35115 0.0
H516 H 0.30798 0.40741 0.34928 0.0
H517 H 0.42808 0.55919 0.35506 0.0
H518 H 0.41595 0.57927 0.32019 0.0
H519 H 0.43539 0.55369 0.30866 0.0
C520 C 0.89454 0.42071 0.97045 0.0
C521 C 0.92669 0.44659 0.95739 0.0
C522 C 0.87158 0.39327 0.9482 0.0
C523 C 0.8808 0.39179 0.9119 0.0
C524 C 0.9133 0.41769 0.89864 0.0
C525 C 0.93587 0.44463 0.92155 0.0
C526 C 0.83735 0.36595 0.96349 0.0
C527 C 0.92408 0.41717 0.86008 0.0
C528 C 0.83724 0.30576 0.8622 0.0
C529 C 0.81246 0.3083 0.84127 0.0
C530 C 0.85926 0.33249 0.88556 0.0
C531 C 0.85679 0.36282 0.88792 0.0
C532 C 0.83181 0.36561 0.86695 0.0
C533 C 0.80981 0.33824 0.84401 0.0
C534 C 0.88528 0.3283 0.90764 0.0
C535 C 0.82858 0.39768 0.86847 0.0
H536 H 0.88716 0.422 0.99804 0.0
H537 H 0.9605 0.4646 0.91106 0.0
H538 H 0.81586 0.36527 0.94793 0.0
H539 H 0.83498 0.34008 0.96092 0.0
H540 H 0.8342 0.37059 0.99235 0.0
H541 H 0.95007 0.43939 0.85383 0.0
H542 H 0.92438 0.39286 0.85474 0.0
H543 H 0.90508 0.41779 0.84135 0.0
H544 H 0.83942 0.28268 0.86051 0.0
H545 H 0.79082 0.34048 0.82792 0.0
H546 H 0.88149 0.33126 0.93675 0.0
H547 H 0.91185 0.34883 0.90046 0.0
H548 H 0.88332 0.30274 0.90341 0.0
H549 H 0.82318 0.4023 0.89654 0.0
H550 H 0.80772 0.39576 0.8507 0.0
H551 H 0.85335 0.42055 0.86018 0.0
C552 C 0.96633 0.60802 0.93581 0.0
C553 C 0.98587 0.59354 0.9231 0.0
C554 C 0.94925 0.61853 0.91179 0.0
C555 C 0.95092 0.61327 0.87437 0.0
C556 C 0.97332 0.60174 0.86132 0.0
C557 C 0.99091 0.5923 0.88599 0.0
C558 C 0.92661 0.63185 0.92672 0.0
C559 C 0.9757 0.59565 0.82161 0.0
C560 C 0.86656 0.5772 0.82436 0.0
C561 C 0.87211 0.60483 0.802 0.0
C562 C 0.89191 0.58004 0.84823 0.0
C563 C 0.92357 0.6116 0.85047 0.0
C564 C 0.92879 0.64032 0.82949 0.0
C565 C 0.90298 0.63653 0.80518 0.0
C566 C 0.88512 0.54869 0.87017 0.0
C567 C 0.96195 0.67455 0.83177 0.0
H568 H 0.96306 0.60961 0.96463 0.0
H569 H 0.00621 0.58123 0.87625 0.0
H570 H 0.92817 0.65296 0.90962 0.0
H571 H 0.89931 0.6106 0.92691 0.0
H572 H 0.93392 0.64153 0.95478 0.0
H573 H 0.99818 0.59227 0.81538 0.0
H574 H 0.95181 0.5719 0.81313 0.0
H575 H 0.97776 0.61744 0.80537 0.0
H576 H 0.84265 0.5527 0.82243 0.0
H577 H 0.90743 0.65798 0.78797 0.0
H578 H 0.88707 0.55479 0.89938 0.0
H579 H 0.90485 0.54127 0.8638 0.0
H580 H 0.85917 0.52603 0.86494 0.0
H581 H 0.96999 0.68153 0.86026 0.0
H582 H 0.95947 0.69572 0.81904 0.0
H583 H 0.98284 0.67257 0.81768 0.0
C584 C 0.371 0.8956 0.48935 0.0
C585 C 0.39804 0.92247 0.4699 0.0
C586 C 0.33945 0.873 0.47246 0.0
C587 C 0.33532 0.87714 0.43526 0.0
C588 C 0.3624 0.90454 0.41576 0.0
C589 C 0.39326 0.92692 0.43335 0.0
C590 C 0.31086 0.84435 0.49414 0.0
C591 C 0.3593 0.90959 0.3759 0.0
C592 C 0.27959 0.80356 0.37297 0.0
C593 C 0.25398 0.81154 0.36345 0.0
C594 C 0.30482 0.82323 0.39853 0.0
C595 C 0.30424 0.85136 0.41538 0.0
C596 C 0.27678 0.85775 0.40827 0.0
C597 C 0.25197 0.83781 0.38214 0.0
C598 C 0.33378 0.81566 0.40506 0.0
C599 C 0.27497 0.88712 0.42633 0.0
H600 H 0.37445 0.89228 0.5177 0.0
H601 H 0.41404 0.94758 0.41808 0.0
H602 H 0.28618 0.84414 0.48989 0.0
H603 H 0.30694 0.81899 0.48489 0.0
H604 H 0.31669 0.84695 0.52347 0.0
H605 H 0.38236 0.93291 0.36503 0.0
H606 H 0.35595 0.88668 0.36069 0.0
H607 H 0.33619 0.91206 0.37076 0.0
H608 H 0.28107 0.78293 0.35912 0.0
H609 H 0.23202 0.84386 0.37526 0.0
H610 H 0.3385 0.81532 0.43436 0.0
H611 H 0.35797 0.83642 0.39276 0.0
H612 H 0.32825 0.79053 0.39323 0.0
H613 H 0.28102 0.88829 0.45548 0.0
H614 H 0.2491 0.88465 0.42327 0.0
H615 H 0.29448 0.91197 0.41404 0.0
C616 C 0.49195 0.38022 0.96942 0.0
C617 C 0.48075 0.40393 0.9627 0.0
C618 C 0.48125 0.35104 0.94713 0.0
C619 C 0.45908 0.34576 0.91753 0.0
C620 C 0.44544 0.36801 0.91272 0.0
C621 C 0.45634 0.39669 0.93539 0.0
C622 C 0.49583 0.32747 0.95353 0.0
C623 C 0.42189 0.36358 0.88152 0.0
C624 C 0.4769 0.31261 0.83086 0.0
C625 C 0.44879 0.27884 0.82874 0.0
C626 C 0.48049 0.33428 0.85977 0.0
C627 C 0.45559 0.32177 0.8878 0.0
C628 C 0.42701 0.28763 0.88595 0.0
C629 C 0.42372 0.26656 0.8561 0.0
C630 C 0.51093 0.37076 0.86005 0.0
C631 C 0.40031 0.27334 0.91566 0.0
H632 H 0.51049 0.38543 0.99071 0.0
H633 H 0.44691 0.41446 0.93047 0.0
H634 H 0.4756 0.30001 0.94986 0.0
H635 H 0.5166 0.33332 0.93355 0.0
H636 H 0.50692 0.33085 0.98101 0.0
H637 H 0.40951 0.37969 0.88469 0.0
H638 H 0.43714 0.37126 0.85611 0.0
H639 H 0.40136 0.33616 0.87865 0.0
H640 H 0.49622 0.32226 0.8096 0.0
H641 H 0.40222 0.2403 0.85468 0.0
H642 H 0.52662 0.37504 0.88467 0.0
H643 H 0.50163 0.38961 0.86063 0.0
H644 H 0.52796 0.37637 0.83611 0.0
H645 H 0.41293 0.27398 0.9416 0.0
H646 H 0.37968 0.24632 0.91022 0.0
H647 H 0.38822 0.28965 0.91907 0.0
C648 C 0.1117 0.44067 0.47467 0.0
C649 C 0.07565 0.42145 0.47162 0.0
C650 C 0.13294 0.43854 0.44781 0.0
C651 C 0.1176 0.41717 0.41723 0.0
C652 C 0.08138 0.3951 0.41615 0.0
C653 C 0.06093 0.39722 0.44358 0.0
C654 C 0.17159 0.46154 0.45055 0.0
C655 C 0.06377 0.37215 0.38402 0.0
C656 C 0.16045 0.45295 0.32693 0.0
C657 C 0.17375 0.43136 0.31812 0.0
C658 C 0.14224 0.44852 0.35913 0.0
C659 C 0.13812 0.42246 0.38374 0.0
C660 C 0.15186 0.40075 0.37516 0.0
C661 C 0.16914 0.40513 0.34206 0.0
C662 C 0.1272 0.47167 0.36662 0.0
C663 C 0.14891 0.37347 0.40122 0.0
H664 H 0.12328 0.45924 0.49639 0.0
H665 H 0.03305 0.38175 0.44142 0.0
H666 H 0.18511 0.44785 0.44097 0.0
H667 H 0.17996 0.48462 0.4332 0.0
H668 H 0.17974 0.4705 0.47867 0.0
H669 H 0.03622 0.35309 0.38965 0.0
H670 H 0.06486 0.38842 0.36089 0.0
H671 H 0.07711 0.35795 0.37567 0.0
H672 H 0.16417 0.4733 0.30839 0.0
H673 H 0.1801 0.38892 0.33548 0.0
H674 H 0.13848 0.48671 0.39167 0.0
H675 H 0.09887 0.45575 0.37087 0.0
H676 H 0.13208 0.49011 0.34426 0.0
H677 H 0.16158 0.38582 0.42705 0.0
H678 H 0.161 0.35874 0.39053 0.0
H679 H 0.12137 0.35505 0.40741 0.0
C680 C 0.61631 0.0732 0.99917 0.0
C681 C 0.59159 0.04081 0.98568 0.0
C682 C 0.64589 0.09519 0.97882 0.0
C683 C 0.65051 0.08453 0.94421 0.0
C684 C 0.62733 0.0506 0.93214 0.0
C685 C 0.5983 0.02911 0.95311 0.0
C686 C 0.67054 0.13089 0.993 0.0
C687 C 0.63111 0.03812 0.8954 0.0
C688 C 0.68529 0.15058 0.86909 0.0
C689 C 0.71791 0.15429 0.86252 0.0
C690 C 0.66365 0.12866 0.89623 0.0
C691 C 0.67509 0.11032 0.91796 0.0
C692 C 0.70847 0.11478 0.91239 0.0
C693 C 0.72942 0.13647 0.88437 0.0
C694 C 0.628 0.12427 0.90074 0.0
C695 C 0.72173 0.09614 0.93551 0.0
H696 H 0.61152 0.08232 0.02448 0.0
H697 H 0.57967 0.00384 0.94275 0.0
H698 H 0.6977 0.13823 0.98692 0.0
H699 H 0.6653 0.14998 0.97957 0.0
H700 H 0.66766 0.13267 0.02259 0.0
H701 H 0.61395 0.00976 0.89219 0.0
H702 H 0.62439 0.05135 0.87429 0.0
H703 H 0.65817 0.04453 0.89055 0.0
H704 H 0.6761 0.16413 0.85226 0.0
H705 H 0.75473 0.13948 0.8796 0.0
H706 H 0.62432 0.13043 0.92883 0.0
H707 H 0.60807 0.09697 0.89551 0.0
H708 H 0.62344 0.14107 0.88215 0.0
H709 H 0.71771 0.09933 0.9645 0.0
H710 H 0.74963 0.10564 0.93077 0.0
H711 H 0.70707 0.06805 0.92951 0.0
C712 C 0.49754 0.6252 0.4966 0.0
C713 C 0.51857 0.61295 0.48235 0.0
C714 C 0.49141 0.64852 0.47688 0.0
C715 C 0.5059 0.65881 0.44191 0.0
C716 C 0.52904 0.64834 0.42871 0.0
C717 C 0.53559 0.6262 0.44941 0.0
C718 C 0.46796 0.66033 0.49287 0.0
C719 C 0.54501 0.65832 0.39146 0.0
C720 C 0.46461 0.67339 0.36105 0.0
C721 C 0.48991 0.7072 0.35218 0.0
C722 C 0.46697 0.65818 0.39324 0.0
C723 C 0.495 0.67751 0.41692 0.0
C724 C 0.51754 0.71308 0.41039 0.0
C725 C 0.51519 0.7274 0.37766 0.0
C726 C 0.44154 0.62051 0.40018 0.0
C727 C 0.54605 0.73517 0.43641 0.0
H728 H 0.48451 0.61532 0.5222 0.0
H729 H 0.55245 0.61744 0.4385 0.0
H730 H 0.47266 0.68516 0.48111 0.0
H731 H 0.44067 0.64037 0.48781 0.0
H732 H 0.47142 0.66339 0.52258 0.0
H733 H 0.56205 0.64747 0.38521 0.0
H734 H 0.52436 0.6489 0.37076 0.0
H735 H 0.56054 0.68685 0.38898 0.0
H736 H 0.44463 0.65798 0.34165 0.0
H737 H 0.53409 0.75401 0.37134 0.0
H738 H 0.43063 0.61711 0.42775 0.0
H739 H 0.45507 0.60538 0.39859 0.0
H740 H 0.4199 0.60976 0.38058 0.0
H741 H 0.53708 0.72816 0.46473 0.0
H742 H 0.55538 0.76312 0.43232 0.0
H743 H 0.56818 0.73079 0.43226 0.0
C744 C 0.47057 0.10027 0.52028 0.0
C745 C 0.45661 0.06473 0.52594 0.0
C746 C 0.46184 0.11984 0.54334 0.0
C747 C 0.43882 0.10337 0.57259 0.0
C748 C 0.42192 0.06697 0.57583 0.0
C749 C 0.43097 0.04812 0.55242 0.0
C750 C 0.47986 0.15854 0.53854 0.0
C751 C 0.39721 0.04823 0.60648 0.0
C752 C 0.46305 0.15192 0.66107 0.0
C753 C 0.43822 0.16217 0.66465 0.0
C754 C 0.46335 0.1329 0.63125 0.0
C755 C 0.43835 0.12413 0.60382 0.0
C756 C 0.41285 0.13404 0.60732 0.0
C757 C 0.4129 0.15281 0.638 0.0
C758 C 0.49062 0.12229 0.62917 0.0
C759 C 0.38614 0.1255 0.57836 0.0
H760 H 0.49016 0.1132 0.49965 0.0
H761 H 0.4195 0.02048 0.55645 0.0
H762 H 0.46179 0.16836 0.54362 0.0
H763 H 0.50121 0.17105 0.55834 0.0
H764 H 0.49096 0.16643 0.51101 0.0
H765 H 0.38177 0.01993 0.60155 0.0
H766 H 0.41213 0.05253 0.63172 0.0
H767 H 0.37929 0.05832 0.61087 0.0
H768 H 0.48253 0.15892 0.68178 0.0
H769 H 0.39396 0.16111 0.64055 0.0
H770 H 0.50668 0.13335 0.60461 0.0
H771 H 0.47815 0.09373 0.62721 0.0
H772 H 0.50796 0.13099 0.65301 0.0
H773 H 0.39915 0.13877 0.55292 0.0
H774 H 0.36709 0.13354 0.58592 0.0
H775 H 0.37211 0.09733 0.57274 0.0
C776 C 0.40956 0.45891 0.05566 0.0
C777 C 0.41786 0.47923 0.02435 0.0
C778 C 0.38001 0.45077 0.07591 0.0
C779 C 0.35778 0.46284 0.06439 0.0
C780 C 0.36439 0.48095 0.03128 0.0
C781 C 0.39458 0.48918 0.01167 0.0
C782 C 0.37426 0.43173 0.11122 0.0
C783 C 0.34074 0.49347 0.01775 0.0
C784 C 0.27647 0.42943 0.12172 0.0
C785 C 0.28688 0.45645 0.14668 0.0
C786 C 0.29841 0.43192 0.09308 0.0
C787 C 0.33167 0.46165 0.09016 0.0
C788 C 0.34186 0.4892 0.11491 0.0
C789 C 0.31925 0.48637 0.14254 0.0
C790 C 0.28644 0.40242 0.06664 0.0
C791 C 0.37738 0.52106 0.1134 0.0
H792 H 0.42701 0.4505 0.06544 0.0
H793 H 0.40054 0.50446 0.98725 0.0
H794 H 0.37879 0.4497 0.13397 0.0
H795 H 0.34722 0.4102 0.11337 0.0
H796 H 0.39184 0.42103 0.11441 0.0
H797 H 0.34549 0.50095 0.98883 0.0
H798 H 0.31327 0.47323 0.02132 0.0
H799 H 0.34506 0.51638 0.03363 0.0
H800 H 0.25132 0.40643 0.12459 0.0
H801 H 0.32758 0.50735 0.16179 0.0
H802 H 0.30048 0.38819 0.07157 0.0
H803 H 0.2923 0.41236 0.03857 0.0
H804 H 0.25828 0.38391 0.06906 0.0
H805 H 0.39737 0.51369 0.11826 0.0
H806 H 0.38066 0.54075 0.13378 0.0
H807 H 0.38229 0.53307 0.08628 0.0
C808 C 0.89652 0.33004 0.54024 0.0
C809 C 0.93216 0.3507 0.54586 0.0
C810 C 0.87524 0.3061 0.56662 0.0
C811 C 0.89004 0.30328 0.59933 0.0
C812 C 0.92631 0.32195 0.60361 0.0
C813 C 0.94688 0.3451 0.5767 0.0
C814 C 0.83672 0.28583 0.56065 0.0
C815 C 0.94326 0.32012 0.63811 0.0
C816 C 0.83906 0.28886 0.68569 0.0
C817 C 0.83029 0.25504 0.69498 0.0
C818 C 0.85808 0.30455 0.6544 0.0
C819 C 0.86787 0.28562 0.63122 0.0
C820 C 0.85857 0.25118 0.6401 0.0
C821 C 0.84026 0.2364 0.67226 0.0
C822 C 0.86824 0.34167 0.64654 0.0
C823 C 0.8678 0.22997 0.61556 0.0
H824 H 0.88497 0.33401 0.51638 0.0
H825 H 0.97452 0.36049 0.58101 0.0
H826 H 0.82582 0.25878 0.57012 0.0
H827 H 0.82418 0.29771 0.57645 0.0
H828 H 0.83004 0.28557 0.53177 0.0
H829 H 0.97182 0.33297 0.63547 0.0
H830 H 0.93705 0.33307 0.6601 0.0
H831 H 0.93327 0.2929 0.64637 0.0
H832 H 0.83137 0.30331 0.70327 0.0
H833 H 0.83296 0.21002 0.67915 0.0
H834 H 0.85793 0.34345 0.61995 0.0
H835 H 0.89681 0.35786 0.64517 0.0
H836 H 0.85855 0.3527 0.66735 0.0
H837 H 0.85791 0.22932 0.58798 0.0
H838 H 0.85706 0.203 0.62533 0.0
H839 H 0.89628 0.24207 0.61343 0.0
C840 C 0.47011 0.85809 0.02015 0.0
C841 C 0.48843 0.89187 0.03388 0.0
C842 C 0.46717 0.82998 0.04024 0.0
C843 C 0.48241 0.83598 0.0749 0.0
C844 C 0.5021 0.87019 0.08804 0.0
C845 C 0.50515 0.8976 0.06724 0.0
C846 C 0.44668 0.79392 0.02503 0.0
C847 C 0.51886 0.87792 0.12486 0.0
C848 C 0.45172 0.77614 0.15487 0.0
C849 C 0.48005 0.77128 0.15978 0.0
C850 C 0.45006 0.79424 0.12474 0.0
C851 C 0.4771 0.80711 0.09886 0.0
C852 C 0.50343 0.79843 0.10158 0.0
C853 C 0.50489 0.78104 0.13236 0.0
C854 C 0.42155 0.80297 0.12292 0.0
C855 C 0.532 0.81052 0.07391 0.0
H856 H 0.45715 0.85346 0.99437 0.0
H857 H 0.51974 0.92362 0.07794 0.0
H858 H 0.45987 0.77889 0.03028 0.0
H859 H 0.42103 0.78021 0.0384 0.0
H860 H 0.44259 0.79423 0.99552 0.0
H861 H 0.53324 0.90604 0.13098 0.0
H862 H 0.49885 0.8647 0.14602 0.0
H863 H 0.53711 0.86797 0.12663 0.0
H864 H 0.43235 0.76838 0.17595 0.0
H865 H 0.52645 0.77656 0.13577 0.0
H866 H 0.41214 0.80097 0.09491 0.0
H867 H 0.43174 0.83007 0.13197 0.0
H868 H 0.39937 0.78577 0.14053 0.0
H869 H 0.52174 0.80846 0.04624 0.0
H870 H 0.54556 0.79539 0.07533 0.0
H871 H 0.55121 0.83811 0.07886 0.0
C872 C 0.62826 0.58053 0.55603 0.0
C873 C 0.62236 0.56576 0.52149 0.0
C874 C 0.65845 0.58891 0.57501 0.0
C875 C 0.68367 0.58284 0.55889 0.0
C876 C 0.67948 0.57115 0.52271 0.0
C877 C 0.64866 0.56249 0.50442 0.0
C878 C 0.66174 0.60123 0.61358 0.0
C879 C 0.70631 0.56532 0.50428 0.0
C880 C 0.76397 0.61398 0.61658 0.0
C881 C 0.7554 0.58393 0.6363 0.0
C882 C 0.74203 0.61364 0.58923 0.0
C883 C 0.71064 0.58276 0.58214 0.0
C884 C 0.70275 0.55206 0.60085 0.0
C885 C 0.72533 0.55299 0.6274 0.0
C886 C 0.75168 0.64665 0.56919 0.0
C887 C 0.66936 0.51859 0.59447 0.0
H888 H 0.60838 0.58378 0.56924 0.0
H889 H 0.64452 0.55153 0.47754 0.0
H890 H 0.65883 0.58042 0.63209 0.0
H891 H 0.68764 0.62401 0.61832 0.0
H892 H 0.64185 0.60824 0.62072 0.0
H893 H 0.70294 0.56344 0.47452 0.0
H894 H 0.73276 0.58652 0.51067 0.0
H895 H 0.70405 0.54084 0.51417 0.0
H896 H 0.78735 0.6379 0.62302 0.0
H897 H 0.71853 0.52955 0.64227 0.0
H898 H 0.73613 0.65789 0.57964 0.0
H899 H 0.74597 0.64148 0.53999 0.0
H900 H 0.77946 0.66614 0.57251 0.0
H901 H 0.64715 0.52167 0.60274 0.0
H902 H 0.66809 0.49662 0.60981 0.0
H903 H 0.66628 0.5119 0.56538 0.0
C904 C 0.00127 0.60682 0.11373 0.0
C905 C 0.01095 0.61136 0.07731 0.0
C906 C 0.01912 0.63374 0.13854 0.0
C907 C 0.04686 0.66569 0.12629 0.0
C908 C 0.05306 0.67177 0.08886 0.0
C909 C 0.03526 0.64433 0.06476 0.0
C910 C 0.01138 0.62634 0.17822 0.0
C911 C 0.08164 0.70578 0.07457 0.0
C912 C 0.10268 0.73522 0.19466 0.0
C913 C 0.12901 0.7273 0.2002 0.0
C914 C 0.07557 0.71567 0.1704 0.0
C915 C 0.07492 0.68761 0.15175 0.0
C916 C 0.10166 0.67987 0.15711 0.0
C917 C 0.12837 0.69993 0.1809 0.0
C918 C 0.0479 0.72512 0.16461 0.0
C919 C 0.10199 0.64996 0.1381 0.0
H920 H 0.98208 0.58144 0.12339 0.0
H921 H 0.04206 0.64812 0.03635 0.0
H922 H 0.03024 0.61992 0.19016 0.0
H923 H 0.01391 0.64928 0.19265 0.0
H924 H 0.98498 0.60412 0.18282 0.0
H925 H 0.0779 0.70921 0.04557 0.0
H926 H 0.08322 0.7278 0.09006 0.0
H927 H 0.10673 0.70653 0.07744 0.0
H928 H 0.10309 0.7564 0.20943 0.0
H929 H 0.14848 0.69344 0.18493 0.0
H930 H 0.02182 0.70178 0.16559 0.0
H931 H 0.05111 0.73673 0.13744 0.0
H932 H 0.04918 0.74401 0.18497 0.0
H933 H 0.07788 0.62543 0.14421 0.0
H934 H 0.12428 0.64696 0.14618 0.0
H935 H 0.10322 0.65385 0.10847 0.0
loop_
_geom_bond_atom_site_label_1
_geom_bond_atom_site_label_2
_geom_bond_distance
_geom_bond_site_symmetry_2
_ccdc_geom_bond_type
C0 O2 1.258 . S
C0 O4 1.258 . S
C1 O8 1.252 . S
C1 O9 1.258 . S
O2 C0 1.258 . S
O2 Zn3 2.025 1_455 S
Zn3 O2 2.025 1_655 S
Zn3 O7 2.035 1_554 S
Zn3 O9 2.035 1_554 S
Zn3 O10 2.014 1_655 S
O4 C0 1.258 . S
O4 Zn5 2.035 1_554 S
Zn5 O4 2.035 1_556 S
Zn5 O6 2.021 1_455 S
Zn5 O8 2.027 1_455 S
Zn5 O11 2.035 1_556 S
O6 Zn5 2.021 1_655 S
O6 C12 1.254 . S
O7 Zn3 2.035 1_556 S
O7 C12 1.258 . S
O8 C1 1.252 . S
O8 Zn5 2.027 1_655 S
O9 C1 1.258 . S
O9 Zn3 2.035 1_556 S
O10 Zn3 2.014 1_455 S
O10 C13 1.263 . S
O11 Zn5 2.035 1_554 S
O11 C13 1.258 . S
C12 O6 1.254 . S
C12 O7 1.258 . S
C13 O10 1.263 . S
C13 O11 1.258 . S
C14 O16 1.263 . S
C14 O18 1.258 . S
C15 O22 1.254 . S
C15 O23 1.258 . S
O16 C14 1.263 . S
O16 Zn17 2.014 1_545 S
Zn17 O16 2.014 1_565 S
Zn17 O21 2.035 . S
Zn17 O23 2.035 . S
Zn17 O24 2.025 1_565 S
O18 C14 1.258 . S
O18 Zn19 2.035 . S
Zn19 O18 2.035 . S
Zn19 O20 2.027 1_545 S
Zn19 O22 2.021 1_545 S
Zn19 O25 2.035 . S
O20 Zn19 2.027 1_565 S
O20 C26 1.252 . S
O21 Zn17 2.035 . S
O21 C26 1.258 . S
O22 C15 1.254 . S
O22 Zn19 2.021 1_565 S
O23 C15 1.258 . S
O23 Zn17 2.035 . S
O24 Zn17 2.025 1_545 S
O24 C27 1.258 . S
O25 Zn19 2.035 . S
O25 C27 1.258 . S
C26 O20 1.252 . S
C26 O21 1.258 . S
C27 O24 1.258 . S
C27 O25 1.258 . S
C28 O30 1.247 . S
C28 O32 1.258 . S
C29 O36 1.247 . S
C29 O37 1.258 . S
O30 C28 1.247 . S
O30 Zn31 2.028 . S
Zn31 O30 2.028 . S
Zn31 O35 2.035 1_556 S
Zn31 O37 2.035 1_556 S
Zn31 O38 2.028 . S
O32 C28 1.258 . S
O32 Zn33 2.035 1_556 S
Zn33 O32 2.035 1_554 S
Zn33 O34 2.028 . S
Zn33 O36 2.028 . S
Zn33 O39 2.035 1_554 S
O34 Zn33 2.028 . S
O34 C40 1.247 . S
O35 Zn31 2.035 1_554 S
O35 C40 1.258 . S
O36 C29 1.247 . S
O36 Zn33 2.028 . S
O37 C29 1.258 . S
O37 Zn31 2.035 1_554 S
O38 Zn31 2.028 . S
O38 C41 1.247 . S
O39 Zn33 2.035 1_556 S
O39 C41 1.258 . S
C40 O34 1.247 . S
C40 O35 1.258 . S
C41 O38 1.247 . S
C41 O39 1.258 . S
C42 O44 1.247 . S
C42 O46 1.271 . S
C43 O50 1.247 . S
C43 O51 1.265 . S
O44 C42 1.247 . S
O44 Zn45 2.028 . S
Zn45 O44 2.028 . S
Zn45 O49 2.027 1_455 S
Zn45 O51 2.034 1_455 S
Zn45 O52 2.028 . S
O46 C42 1.271 . S
O46 Zn47 2.032 1_455 S
Zn47 O46 2.032 1_655 S
Zn47 O48 2.028 . S
Zn47 O50 2.028 . S
Zn47 O53 2.019 1_655 S
O48 Zn47 2.028 . S
O48 C54 1.247 . S
O49 Zn45 2.027 1_655 S
O49 C54 1.267 . S
O50 C43 1.247 . S
O50 Zn47 2.028 . S
O51 C43 1.265 . S
O51 Zn45 2.034 1_655 S
O52 Zn45 2.028 . S
O52 C55 1.247 . S
O53 Zn47 2.019 1_455 S
O53 C55 1.276 . S
C54 O48 1.247 . S
C54 O49 1.267 . S
C55 O52 1.247 . S
C55 O53 1.276 . S
C56 O58 1.254 . S
C56 O60 1.258 . S
C57 O64 1.263 . S
C57 O65 1.258 . S
O58 C56 1.254 . S
O58 Zn59 2.021 1_565 S
Zn59 O58 2.021 1_545 S
Zn59 O63 2.035 1_554 S
Zn59 O65 2.035 1_554 S
Zn59 O66 2.027 1_545 S
O60 C56 1.258 . S
O60 Zn61 2.035 1_554 S
Zn61 O60 2.035 1_556 S
Zn61 O62 2.025 1_565 S
Zn61 O64 2.014 1_565 S
Zn61 O67 2.035 1_556 S
O62 Zn61 2.025 1_545 S
O62 C68 1.258 . S
O63 Zn59 2.035 1_556 S
O63 C68 1.258 . S
O64 C57 1.263 . S
O64 Zn61 2.014 1_545 S
O65 C57 1.258 . S
O65 Zn59 2.035 1_556 S
O66 Zn59 2.027 1_565 S
O66 C69 1.252 . S
O67 Zn61 2.035 1_554 S
O67 C69 1.258 . S
C68 O62 1.258 . S
C68 O63 1.258 . S
C69 O66 1.252 . S
C69 O67 1.258 . S
C70 O72 1.247 . S
C70 O74 1.258 . S
C71 O78 1.247 . S
C71 O79 1.258 . S
O72 C70 1.247 . S
O72 Zn73 2.028 . S
Zn73 O72 2.028 . S
Zn73 O77 2.035 . S
Zn73 O79 2.035 . S
Zn73 O80 2.028 . S
O74 C70 1.258 . S
O74 Zn75 2.035 . S
Zn75 O74 2.035 . S
Zn75 O76 2.028 . S
Zn75 O78 2.028 . S
Zn75 O81 2.035 . S
O76 Zn75 2.028 . S
O76 C82 1.247 . S
O77 Zn73 2.035 . S
O77 C82 1.258 . S
O78 C71 1.247 . S
O78 Zn75 2.028 . S
O79 C71 1.258 . S
O79 Zn73 2.035 . S
O80 Zn73 2.028 . S
O80 C83 1.247 . S
O81 Zn75 2.035 . S
O81 C83 1.258 . S
C82 O76 1.247 . S
C82 O77 1.258 . S
C83 O80 1.247 . S
C83 O81 1.258 . S
C84 O86 1.247 . S
C84 O88 1.258 . S
C85 O92 1.247 . S
C85 O93 1.258 . S
O86 C84 1.247 . S
O86 Zn87 2.028 . S
Zn87 O86 2.028 . S
Zn87 O91 2.035 . S
Zn87 O93 2.035 . S
Zn87 O94 2.028 . S
O88 C84 1.258 . S
O88 Zn89 2.035 . S
Zn89 O88 2.035 . S
Zn89 O90 2.028 . S
Zn89 O92 2.028 . S
Zn89 O95 2.035 . S
O90 Zn89 2.028 . S
O90 C96 1.247 . S
O91 Zn87 2.035 . S
O91 C96 1.258 . S
O92 C85 1.247 . S
O92 Zn89 2.028 . S
O93 C85 1.258 . S
O93 Zn87 2.035 . S
O94 Zn87 2.028 . S
O94 C97 1.247 . S
O95 Zn89 2.035 . S
O95 C97 1.258 . S
C96 O90 1.247 . S
C96 O91 1.258 . S
C97 O94 1.247 . S
C97 O95 1.258 . S
C98 O100 1.247 . S
C98 O102 1.258 . S
C99 O106 1.247 . S
C99 O107 1.258 . S
O100 C98 1.247 . S
O100 Zn101 2.028 . S
Zn101 O100 2.028 . S
Zn101 O105 2.035 . S
Zn101 O107 2.035 . S
Zn101 O108 2.028 . S
O102 C98 1.258 . S
O102 Zn103 2.035 . S
Zn103 O102 2.035 . S
Zn103 O104 2.028 . S
Zn103 O106 2.028 . S
Zn103 O109 2.035 . S
O104 Zn103 2.028 . S
O104 C110 1.247 . S
O105 Zn101 2.035 . S
O105 C110 1.258 . S
O106 C99 1.247 . S
O106 Zn103 2.028 . S
O107 C99 1.258 . S
O107 Zn101 2.035 . S
O108 Zn101 2.028 . S
O108 C111 1.247 . S
O109 Zn103 2.035 . S
O109 C111 1.258 . S
C110 O104 1.247 . S
C110 O105 1.258 . S
C111 O108 1.247 . S
C111 O109 1.258 . S
C112 O114 1.247 . S
C112 O116 1.258 . S
C113 O120 1.247 . S
C113 O121 1.258 . S
O114 C112 1.247 . S
O114 Zn115 2.028 . S
Zn115 O114 2.028 . S
Zn115 O119 2.035 . S
Zn115 O121 2.035 . S
Zn115 O122 2.028 . S
O116 C112 1.258 . S
O116 Zn117 2.035 . S
Zn117 O116 2.035 . S
Zn117 O118 2.028 . S
Zn117 O120 2.028 . S
Zn117 O123 2.035 . S
O118 Zn117 2.028 . S
O118 C124 1.247 . S
O119 Zn115 2.035 . S
O119 C124 1.258 . S
O120 C113 1.247 . S
O120 Zn117 2.028 . S
O121 C113 1.258 . S
O121 Zn115 2.035 . S
O122 Zn115 2.028 . S
O122 C125 1.247 . S
O123 Zn117 2.035 . S
O123 C125 1.258 . S
C124 O118 1.247 . S
C124 O119 1.258 . S
C125 O122 1.247 . S
C125 O123 1.258 . S
C126 O128 1.247 . S
C126 O130 1.258 . S
C127 O134 1.247 . S
C127 O135 1.258 . S
O128 C126 1.247 . S
O128 Zn129 2.028 . S
Zn129 O128 2.028 . S
Zn129 O133 2.035 . S
Zn129 O135 2.035 . S
Zn129 O136 2.028 . S
O130 C126 1.258 . S
O130 Zn131 2.035 . S
Zn131 O130 2.035 . S
Zn131 O132 2.028 . S
Zn131 O134 2.028 . S
Zn131 O137 2.035 . S
O132 Zn131 2.028 . S
O132 C138 1.247 . S
O133 Zn129 2.035 . S
O133 C138 1.258 . S
O134 C127 1.247 . S
O134 Zn131 2.028 . S
O135 C127 1.258 . S
O135 Zn129 2.035 . S
O136 Zn129 2.028 . S
O136 C139 1.247 . S
O137 Zn131 2.035 . S
O137 C139 1.258 . S
C138 O132 1.247 . S
C138 O133 1.258 . S
C139 O136 1.247 . S
C139 O137 1.258 . S
C140 O142 1.247 . S
C140 O144 1.258 . S
C141 O148 1.247 . S
C141 O149 1.258 . S
O142 C140 1.247 . S
O142 Zn143 2.028 . S
Zn143 O142 2.028 . S
Zn143 O147 2.035 . S
Zn143 O149 2.035 . S
Zn143 O150 2.028 . S
O144 C140 1.258 . S
O144 Zn145 2.035 . S
Zn145 O144 2.035 . S
Zn145 O146 2.028 . S
Zn145 O148 2.028 . S
Zn145 O151 2.035 . S
O146 Zn145 2.028 . S
O146 C152 1.247 . S
O147 Zn143 2.035 . S
O147 C152 1.258 . S
O148 C141 1.247 . S
O148 Zn145 2.028 . S
O149 C141 1.258 . S
O149 Zn143 2.035 . S
O150 Zn143 2.028 . S
O150 C153 1.247 . S
O151 Zn145 2.035 . S
O151 C153 1.258 . S
C152 O146 1.247 . S
C152 O147 1.258 . S
C153 O150 1.247 . S
C153 O151 1.258 . S
C154 O156 1.247 . S
C154 O158 1.258 . S
C155 O162 1.247 . S
C155 O163 1.258 . S
O156 C154 1.247 . S
O156 Zn157 2.028 . S
Zn157 O156 2.028 . S
Zn157 O161 2.035 . S
Zn157 O163 2.035 . S
Zn157 O164 2.028 . S
O158 C154 1.258 . S
O158 Zn159 2.035 . S
Zn159 O158 2.035 . S
Zn159 O160 2.028 . S
Zn159 O162 2.028 . S
Zn159 O165 2.035 . S
O160 Zn159 2.028 . S
O160 C166 1.247 . S
O161 Zn157 2.035 . S
O161 C166 1.258 . S
O162 C155 1.247 . S
O162 Zn159 2.028 . S
O163 C155 1.258 . S
O163 Zn157 2.035 . S
O164 Zn157 2.028 . S
O164 C167 1.247 . S
O165 Zn159 2.035 . S
O165 C167 1.258 . S
C166 O160 1.247 . S
C166 O161 1.258 . S
C167 O164 1.247 . S
C167 O165 1.258 . S
C168 C169 1.391 . S
C168 C170 1.394 . S
C168 H184 0.931 . S
C169 C168 1.391 . S
C169 C173 1.376 . S
C170 C168 1.394 . S
C170 C171 1.369 . S
C170 C174 1.531 . S
C171 C170 1.369 . S
C171 C172 1.410 . S
C171 C179 1.503 . S
C172 C171 1.410 . S
C172 C173 1.392 . S
C172 C175 1.511 . S
C173 C169 1.376 . S
C173 C172 1.392 . S
C173 H185 0.929 . S
C174 C170 1.531 . S
C174 H186 0.960 . S
C174 H187 0.962 . S
C174 H188 0.960 . S
C175 C172 1.511 . S
C175 H189 0.961 . S
C175 H190 0.961 . S
C175 H191 0.961 . S
C176 C177 1.370 . S
C176 C178 1.363 . S
C176 H192 0.931 . S
C177 C176 1.370 . S
C177 C181 1.408 . S
C178 C176 1.363 . S
C178 C179 1.370 . S
C178 C182 1.524 . S
C179 C171 1.503 . S
C179 C178 1.370 . S
C179 C180 1.403 . S
C180 C179 1.403 . S
C180 C181 1.404 . S
C180 C183 1.539 . S
C181 C177 1.408 . S
C181 C180 1.404 . S
C181 H193 0.930 . S
C182 C178 1.524 . S
C182 H194 0.956 . S
C182 H195 0.961 . S
C182 H196 0.961 . S
C183 C180 1.539 . S
C183 H197 0.958 . S
C183 H198 0.961 . S
C183 H199 0.960 . S
H184 C168 0.931 . S
H185 C173 0.929 . S
H186 C174 0.960 . S
H187 C174 0.962 . S
H188 C174 0.960 . S
H189 C175 0.961 . S
H190 C175 0.961 . S
H191 C175 0.961 . S
H192 C176 0.931 . S
H193 C181 0.930 . S
H194 C182 0.956 . S
H195 C182 0.961 . S
H196 C182 0.961 . S
H197 C183 0.958 . S
H198 C183 0.961 . S
H199 C183 0.960 . S
C200 C201 1.391 . S
C200 C202 1.394 . S
C200 H216 0.931 . S
C201 C200 1.391 . S
C201 C205 1.376 . S
C202 C200 1.394 . S
C202 C203 1.369 . S
C202 C206 1.531 . S
C203 C202 1.369 . S
C203 C204 1.410 . S
C203 C211 1.503 . S
C204 C203 1.410 . S
C204 C205 1.392 . S
C204 C207 1.511 . S
C205 C201 1.376 . S
C205 C204 1.392 . S
C205 H217 0.929 . S
C206 C202 1.531 . S
C206 H218 0.960 . S
C206 H219 0.962 . S
C206 H220 0.960 . S
C207 C204 1.511 . S
C207 H221 0.961 . S
C207 H222 0.961 . S
C207 H223 0.961 . S
C208 C209 1.370 . S
C208 C210 1.363 . S
C208 H224 0.931 . S
C209 C208 1.370 . S
C209 C213 1.408 . S
C210 C208 1.363 . S
C210 C211 1.370 . S
C210 C214 1.524 . S
C211 C203 1.503 . S
C211 C210 1.370 . S
C211 C212 1.403 . S
C212 C211 1.403 . S
C212 C213 1.404 . S
C212 C215 1.539 . S
C213 C209 1.408 . S
C213 C212 1.404 . S
C213 H225 0.930 . S
C214 C210 1.524 . S
C214 H226 0.956 . S
C214 H227 0.961 . S
C214 H228 0.961 . S
C215 C212 1.539 . S
C215 H229 0.958 . S
C215 H230 0.961 . S
C215 H231 0.960 . S
H216 C200 0.931 . S
H217 C205 0.929 . S
H218 C206 0.960 . S
H219 C206 0.962 . S
H220 C206 0.960 . S
H221 C207 0.961 . S
H222 C207 0.961 . S
H223 C207 0.961 . S
H224 C208 0.931 . S
H225 C213 0.930 . S
H226 C214 0.956 . S
H227 C214 0.961 . S
H228 C214 0.961 . S
H229 C215 0.958 . S
H230 C215 0.961 . S
H231 C215 0.960 . S
C232 C233 1.391 . S
C232 C234 1.394 . S
C232 H248 0.931 . S
C233 C232 1.391 . S
C233 C237 1.376 . S
C234 C232 1.394 . S
C234 C235 1.369 . S
C234 C238 1.531 . S
C235 C234 1.369 . S
C235 C236 1.410 . S
C235 C243 1.503 . S
C236 C235 1.410 . S
C236 C237 1.392 . S
C236 C239 1.511 . S
C237 C233 1.376 . S
C237 C236 1.392 . S
C237 H249 0.929 . S
C238 C234 1.531 . S
C238 H250 0.960 . S
C238 H251 0.962 . S
C238 H252 0.960 . S
C239 C236 1.511 . S
C239 H253 0.961 . S
C239 H254 0.961 . S
C239 H255 0.961 . S
C240 C241 1.370 . S
C240 C242 1.363 . S
C240 H256 0.931 . S
C241 C240 1.370 . S
C241 C245 1.408 . S
C242 C240 1.363 . S
C242 C243 1.370 . S
C242 C246 1.524 . S
C243 C235 1.503 . S
C243 C242 1.370 . S
C243 C244 1.403 . S
C244 C243 1.403 . S
C244 C245 1.404 . S
C244 C247 1.539 . S
C245 C241 1.408 . S
C245 C244 1.404 . S
C245 H257 0.930 . S
C246 C242 1.524 . S
C246 H258 0.956 . S
C246 H259 0.961 . S
C246 H260 0.961 . S
C247 C244 1.539 . S
C247 H261 0.958 . S
C247 H262 0.961 . S
C247 H263 0.960 . S
H248 C232 0.931 . S
H249 C237 0.929 . S
H250 C238 0.960 . S
H251 C238 0.962 . S
H252 C238 0.960 . S
H253 C239 0.961 . S
H254 C239 0.961 . S
H255 C239 0.961 . S
H256 C240 0.931 . S
H257 C245 0.930 . S
H258 C246 0.956 . S
H259 C246 0.961 . S
H260 C246 0.961 . S
H261 C247 0.958 . S
H262 C247 0.961 . S
H263 C247 0.960 . S
C264 C265 1.391 . S
C264 C266 1.394 . S
C264 H280 0.931 . S
C265 C264 1.391 . S
C265 C269 1.376 . S
C266 C264 1.394 . S
C266 C267 1.369 . S
C266 C270 1.531 . S
C267 C266 1.369 . S
C267 C268 1.410 . S
C267 C275 1.503 . S
C268 C267 1.410 . S
C268 C269 1.392 . S
C268 C271 1.511 . S
C269 C265 1.376 . S
C269 C268 1.392 . S
C269 H281 0.929 . S
C270 C266 1.531 . S
C270 H282 0.960 . S
C270 H283 0.962 . S
C270 H284 0.960 . S
C271 C268 1.511 . S
C271 H285 0.961 . S
C271 H286 0.961 . S
C271 H287 0.961 . S
C272 C273 1.370 . S
C272 C274 1.363 . S
C272 H288 0.931 . S
C273 C272 1.370 . S
C273 C277 1.408 . S
C274 C272 1.363 . S
C274 C275 1.370 . S
C274 C278 1.524 . S
C275 C267 1.503 . S
C275 C274 1.370 . S
C275 C276 1.403 . S
C276 C275 1.403 . S
C276 C277 1.404 . S
C276 C279 1.539 . S
C277 C273 1.408 . S
C277 C276 1.404 . S
C277 H289 0.930 . S
C278 C274 1.524 . S
C278 H290 0.956 . S
C278 H291 0.961 . S
C278 H292 0.961 . S
C279 C276 1.539 . S
C279 H293 0.958 . S
C279 H294 0.961 . S
C279 H295 0.960 . S
H280 C264 0.931 . S
H281 C269 0.929 . S
H282 C270 0.960 . S
H283 C270 0.962 . S
H284 C270 0.960 . S
H285 C271 0.961 . S
H286 C271 0.961 . S
H287 C271 0.961 . S
H288 C272 0.931 . S
H289 C277 0.930 . S
H290 C278 0.956 . S
H291 C278 0.961 . S
H292 C278 0.961 . S
H293 C279 0.958 . S
H294 C279 0.961 . S
H295 C279 0.960 . S
C296 C297 1.391 . S
C296 C298 1.394 . S
C296 H312 0.931 . S
C297 C296 1.391 . S
C297 C301 1.376 . S
C298 C296 1.394 . S
C298 C299 1.369 . S
C298 C302 1.531 . S
C299 C298 1.369 . S
C299 C300 1.410 . S
C299 C307 1.503 . S
C300 C299 1.410 . S
C300 C301 1.392 . S
C300 C303 1.511 . S
C301 C297 1.376 . S
C301 C300 1.392 . S
C301 H313 0.929 . S
C302 C298 1.531 . S
C302 H314 0.960 . S
C302 H315 0.962 . S
C302 H316 0.960 . S
C303 C300 1.511 . S
C303 H317 0.961 . S
C303 H318 0.961 . S
C303 H319 0.961 . S
C304 C305 1.370 . S
C304 C306 1.363 . S
C304 H320 0.931 . S
C305 C304 1.370 . S
C305 C309 1.408 . S
C306 C304 1.363 . S
C306 C307 1.370 . S
C306 C310 1.524 . S
C307 C299 1.503 . S
C307 C306 1.370 . S
C307 C308 1.403 . S
C308 C307 1.403 . S
C308 C309 1.404 . S
C308 C311 1.539 . S
C309 C305 1.408 . S
C309 C308 1.404 . S
C309 H321 0.930 . S
C310 C306 1.524 . S
C310 H322 0.956 . S
C310 H323 0.961 . S
C310 H324 0.961 . S
C311 C308 1.539 . S
C311 H325 0.958 . S
C311 H326 0.961 . S
C311 H327 0.960 . S
H312 C296 0.931 . S
H313 C301 0.929 . S
H314 C302 0.960 . S
H315 C302 0.962 . S
H316 C302 0.960 . S
H317 C303 0.961 . S
H318 C303 0.961 . S
H319 C303 0.961 . S
H320 C304 0.931 . S
H321 C309 0.930 . S
H322 C310 0.956 . S
H323 C310 0.961 . S
H324 C310 0.961 . S
H325 C311 0.958 . S
H326 C311 0.961 . S
H327 C311 0.960 . S
C328 C329 1.391 . S
C328 C330 1.394 . S
C328 H344 0.931 . S
C329 C328 1.391 . S
C329 C333 1.376 . S
C330 C328 1.394 . S
C330 C331 1.369 . S
C330 C334 1.531 . S
C331 C330 1.369 . S
C331 C332 1.410 . S
C331 C339 1.503 . S
C332 C331 1.410 . S
C332 C333 1.392 . S
C332 C335 1.511 . S
C333 C329 1.376 . S
C333 C332 1.392 . S
C333 H345 0.929 . S
C334 C330 1.531 . S
C334 H346 0.960 . S
C334 H347 0.962 . S
C334 H348 0.960 . S
C335 C332 1.511 . S
C335 H349 0.961 . S
C335 H350 0.961 . S
C335 H351 0.961 . S
C336 C337 1.370 . S
C336 C338 1.363 . S
C336 H352 0.931 . S
C337 C336 1.370 . S
C337 C341 1.408 . S
C338 C336 1.363 . S
C338 C339 1.370 . S
C338 C342 1.524 . S
C339 C331 1.503 . S
C339 C338 1.370 . S
C339 C340 1.403 . S
C340 C339 1.403 . S
C340 C341 1.404 . S
C340 C343 1.539 . S
C341 C337 1.408 . S
C341 C340 1.404 . S
C341 H353 0.930 . S
C342 C338 1.524 . S
C342 H354 0.956 . S
C342 H355 0.961 . S
C342 H356 0.961 . S
C343 C340 1.539 . S
C343 H357 0.958 . S
C343 H358 0.961 . S
C343 H359 0.960 . S
H344 C328 0.931 . S
H345 C333 0.929 . S
H346 C334 0.960 . S
H347 C334 0.962 . S
H348 C334 0.960 . S
H349 C335 0.961 . S
H350 C335 0.961 . S
H351 C335 0.961 . S
H352 C336 0.931 . S
H353 C341 0.930 . S
H354 C342 0.956 . S
H355 C342 0.961 . S
H356 C342 0.961 . S
H357 C343 0.958 . S
H358 C343 0.961 . S
H359 C343 0.960 . S
C360 C361 1.391 . S
C360 C362 1.394 . S
C360 H376 0.931 . S
C361 C360 1.391 . S
C361 C365 1.376 . S
C362 C360 1.394 . S
C362 C363 1.369 . S
C362 C366 1.531 . S
C363 C362 1.369 . S
C363 C364 1.410 . S
C363 C371 1.503 . S
C364 C363 1.410 . S
C364 C365 1.392 . S
C364 C367 1.511 . S
C365 C361 1.376 . S
C365 C364 1.392 . S
C365 H377 0.929 . S
C366 C362 1.531 . S
C366 H378 0.960 . S
C366 H379 0.962 . S
C366 H380 0.960 . S
C367 C364 1.511 . S
C367 H381 0.961 . S
C367 H382 0.961 . S
C367 H383 0.961 . S
C368 C369 1.370 . S
C368 C370 1.363 . S
C368 H384 0.931 . S
C369 C368 1.370 . S
C369 C373 1.408 . S
C370 C368 1.363 . S
C370 C371 1.370 . S
C370 C374 1.524 . S
C371 C363 1.503 . S
C371 C370 1.370 . S
C371 C372 1.403 . S
C372 C371 1.403 . S
C372 C373 1.404 . S
C372 C375 1.539 . S
C373 C369 1.408 . S
C373 C372 1.404 . S
C373 H385 0.930 . S
C374 C370 1.524 . S
C374 H386 0.956 . S
C374 H387 0.961 . S
C374 H388 0.961 . S
C375 C372 1.539 . S
C375 H389 0.958 . S
C375 H390 0.961 . S
C375 H391 0.960 . S
H376 C360 0.931 . S
H377 C365 0.929 . S
H378 C366 0.960 . S
H379 C366 0.962 . S
H380 C366 0.960 . S
H381 C367 0.961 . S
H382 C367 0.961 . S
H383 C367 0.961 . S
H384 C368 0.931 . S
H385 C373 0.930 . S
H386 C374 0.956 . S
H387 C374 0.961 . S
H388 C374 0.961 . S
H389 C375 0.958 . S
H390 C375 0.961 . S
H391 C375 0.960 . S
C392 C393 1.391 . S
C392 C394 1.394 . S
C392 H408 0.931 . S
C393 C392 1.391 . S
C393 C397 1.376 . S
C394 C392 1.394 . S
C394 C395 1.369 . S
C394 C398 1.531 . S
C395 C394 1.369 . S
C395 C396 1.410 . S
C395 C403 1.503 . S
C396 C395 1.410 . S
C396 C397 1.392 . S
C396 C399 1.511 . S
C397 C393 1.376 . S
C397 C396 1.392 . S
C397 H409 0.929 . S
C398 C394 1.531 . S
C398 H410 0.960 . S
C398 H411 0.962 . S
C398 H412 0.960 . S
C399 C396 1.511 . S
C399 H413 0.961 . S
C399 H414 0.961 . S
C399 H415 0.961 . S
C400 C401 1.370 . S
C400 C402 1.363 . S
C400 H416 0.931 . S
C401 C400 1.370 . S
C401 C405 1.408 . S
C402 C400 1.363 . S
C402 C403 1.370 . S
C402 C406 1.524 . S
C403 C395 1.503 . S
C403 C402 1.370 . S
C403 C404 1.403 . S
C404 C403 1.403 . S
C404 C405 1.404 . S
C404 C407 1.539 . S
C405 C401 1.408 . S
C405 C404 1.404 . S
C405 H417 0.930 . S
C406 C402 1.524 . S
C406 H418 0.956 . S
C406 H419 0.961 . S
C406 H420 0.961 . S
C407 C404 1.539 . S
C407 H421 0.958 . S
C407 H422 0.961 . S
C407 H423 0.960 . S
H408 C392 0.931 . S
H409 C397 0.929 . S
H410 C398 0.960 . S
H411 C398 0.962 . S
H412 C398 0.960 . S
H413 C399 0.961 . S
H414 C399 0.961 . S
H415 C399 0.961 . S
H416 C400 0.931 . S
H417 C405 0.930 . S
H418 C406 0.956 . S
H419 C406 0.961 . S
H420 C406 0.961 . S
H421 C407 0.958 . S
H422 C407 0.961 . S
H423 C407 0.960 . S
C424 C425 1.391 . S
C424 C426 1.394 . S
C424 H440 0.931 . S
C425 C424 1.391 . S
C425 C429 1.376 . S
C426 C424 1.394 . S
C426 C427 1.369 . S
C426 C430 1.531 . S
C427 C426 1.369 . S
C427 C428 1.410 . S
C427 C435 1.503 . S
C428 C427 1.410 . S
C428 C429 1.392 . S
C428 C431 1.511 . S
C429 C425 1.376 . S
C429 C428 1.392 . S
C429 H441 0.929 . S
C430 C426 1.531 . S
C430 H442 0.960 . S
C430 H443 0.962 . S
C430 H444 0.960 . S
C431 C428 1.511 . S
C431 H445 0.961 . S
C431 H446 0.961 . S
C431 H447 0.961 . S
C432 C433 1.370 . S
C432 C434 1.363 . S
C432 H448 0.931 . S
C433 C432 1.370 . S
C433 C437 1.408 . S
C434 C432 1.363 . S
C434 C435 1.370 . S
C434 C438 1.524 . S
C435 C427 1.503 . S
C435 C434 1.370 . S
C435 C436 1.403 . S
C436 C435 1.403 . S
C436 C437 1.404 . S
C436 C439 1.539 . S
C437 C433 1.408 . S
C437 C436 1.404 . S
C437 H449 0.930 . S
C438 C434 1.524 . S
C438 H450 0.956 . S
C438 H451 0.961 . S
C438 H452 0.961 . S
C439 C436 1.539 . S
C439 H453 0.958 . S
C439 H454 0.961 . S
C439 H455 0.960 . S
H440 C424 0.931 . S
H441 C429 0.929 . S
H442 C430 0.960 . S
H443 C430 0.962 . S
H444 C430 0.960 . S
H445 C431 0.961 . S
H446 C431 0.961 . S
H447 C431 0.961 . S
H448 C432 0.931 . S
H449 C437 0.930 . S
H450 C438 0.956 . S
H451 C438 0.961 . S
H452 C438 0.961 . S
H453 C439 0.958 . S
H454 C439 0.961 . S
H455 C439 0.960 . S
C456 C457 1.391 . S
C456 C458 1.394 . S
C456 H472 0.931 . S
C457 C456 1.391 . S
C457 C461 1.376 . S
C458 C456 1.394 . S
C458 C459 1.369 . S
C458 C462 1.531 . S
C459 C458 1.369 . S
C459 C460 1.410 . S
C459 C467 1.503 . S
C460 C459 1.410 . S
C460 C461 1.392 . S
C460 C463 1.511 . S
C461 C457 1.376 . S
C461 C460 1.392 . S
C461 H473 0.929 . S
C462 C458 1.531 . S
C462 H474 0.960 . S
C462 H475 0.962 . S
C462 H476 0.960 . S
C463 C460 1.511 . S
C463 H477 0.961 . S
C463 H478 0.961 . S
C463 H479 0.961 . S
C464 C465 1.370 . S
C464 C466 1.363 . S
C464 H480 0.931 . S
C465 C464 1.370 . S
C465 C469 1.408 . S
C466 C464 1.363 . S
C466 C467 1.370 . S
C466 C470 1.524 . S
C467 C459 1.503 . S
C467 C466 1.370 . S
C467 C468 1.403 . S
C468 C467 1.403 . S
C468 C469 1.404 . S
C468 C471 1.539 . S
C469 C465 1.408 . S
C469 C468 1.404 . S
C469 H481 0.930 . S
C470 C466 1.524 . S
C470 H482 0.956 . S
C470 H483 0.961 . S
C470 H484 0.961 . S
C471 C468 1.539 . S
C471 H485 0.958 . S
C471 H486 0.961 . S
C471 H487 0.960 . S
H472 C456 0.931 . S
H473 C461 0.929 . S
H474 C462 0.960 . S
H475 C462 0.962 . S
H476 C462 0.960 . S
H477 C463 0.961 . S
H478 C463 0.961 . S
H479 C463 0.961 . S
H480 C464 0.931 . S
H481 C469 0.930 . S
H482 C470 0.956 . S
H483 C470 0.961 . S
H484 C470 0.961 . S
H485 C471 0.958 . S
H486 C471 0.961 . S
H487 C471 0.960 . S
C488 C489 1.391 . S
C488 C490 1.394 . S
C488 H504 0.931 . S
C489 C488 1.391 . S
C489 C493 1.376 . S
C490 C488 1.394 . S
C490 C491 1.369 . S
C490 C494 1.531 . S
C491 C490 1.369 . S
C491 C492 1.410 . S
C491 C499 1.503 . S
C492 C491 1.410 . S
C492 C493 1.392 . S
C492 C495 1.511 . S
C493 C489 1.376 . S
C493 C492 1.392 . S
C493 H505 0.929 . S
C494 C490 1.531 . S
C494 H506 0.960 . S
C494 H507 0.962 . S
C494 H508 0.960 . S
C495 C492 1.511 . S
C495 H509 0.961 . S
C495 H510 0.961 . S
C495 H511 0.961 . S
C496 C497 1.370 . S
C496 C498 1.363 . S
C496 H512 0.931 . S
C497 C496 1.370 . S
C497 C501 1.408 . S
C498 C496 1.363 . S
C498 C499 1.370 . S
C498 C502 1.524 . S
C499 C491 1.503 . S
C499 C498 1.370 . S
C499 C500 1.403 . S
C500 C499 1.403 . S
C500 C501 1.404 . S
C500 C503 1.539 . S
C501 C497 1.408 . S
C501 C500 1.404 . S
C501 H513 0.930 . S
C502 C498 1.524 . S
C502 H514 0.956 . S
C502 H515 0.961 . S
C502 H516 0.961 . S
C503 C500 1.539 . S
C503 H517 0.958 . S
C503 H518 0.961 . S
C503 H519 0.960 . S
H504 C488 0.931 . S
H505 C493 0.929 . S
H506 C494 0.960 . S
H507 C494 0.962 . S
H508 C494 0.960 . S
H509 C495 0.961 . S
H510 C495 0.961 . S
H511 C495 0.961 . S
H512 C496 0.931 . S
H513 C501 0.930 . S
H514 C502 0.956 . S
H515 C502 0.961 . S
H516 C502 0.961 . S
H517 C503 0.958 . S
H518 C503 0.961 . S
H519 C503 0.960 . S
C520 C521 1.391 . S
C520 C522 1.394 . S
C520 H536 0.931 . S
C521 C520 1.391 . S
C521 C525 1.376 . S
C522 C520 1.394 . S
C522 C523 1.369 . S
C522 C526 1.531 . S
C523 C522 1.369 . S
C523 C524 1.410 . S
C523 C531 1.503 . S
C524 C523 1.410 . S
C524 C525 1.392 . S
C524 C527 1.511 . S
C525 C521 1.376 . S
C525 C524 1.392 . S
C525 H537 0.929 . S
C526 C522 1.531 . S
C526 H538 0.960 . S
C526 H539 0.962 . S
C526 H540 0.960 . S
C527 C524 1.511 . S
C527 H541 0.961 . S
C527 H542 0.961 . S
C527 H543 0.961 . S
C528 C529 1.370 . S
C528 C530 1.363 . S
C528 H544 0.931 . S
C529 C528 1.370 . S
C529 C533 1.408 . S
C530 C528 1.363 . S
C530 C531 1.370 . S
C530 C534 1.524 . S
C531 C523 1.503 . S
C531 C530 1.370 . S
C531 C532 1.403 . S
C532 C531 1.403 . S
C532 C533 1.404 . S
C532 C535 1.539 . S
C533 C529 1.408 . S
C533 C532 1.404 . S
C533 H545 0.930 . S
C534 C530 1.524 . S
C534 H546 0.956 . S
C534 H547 0.961 . S
C534 H548 0.961 . S
C535 C532 1.539 . S
C535 H549 0.958 . S
C535 H550 0.961 . S
C535 H551 0.960 . S
H536 C520 0.931 . S
H537 C525 0.929 . S
H538 C526 0.960 . S
H539 C526 0.962 . S
H540 C526 0.960 . S
H541 C527 0.961 . S
H542 C527 0.961 . S
H543 C527 0.961 . S
H544 C528 0.931 . S
H545 C533 0.930 . S
H546 C534 0.956 . S
H547 C534 0.961 . S
H548 C534 0.961 . S
H549 C535 0.958 . S
H550 C535 0.961 . S
H551 C535 0.960 . S
C552 C553 1.391 . S
C552 C554 1.394 . S
C552 H568 0.931 . S
C553 C552 1.391 . S
C553 C557 1.376 . S
C554 C552 1.394 . S
C554 C555 1.369 . S
C554 C558 1.531 . S
C555 C554 1.369 . S
C555 C556 1.410 . S
C555 C563 1.503 . S
C556 C555 1.410 . S
C556 C557 1.392 . S
C556 C559 1.511 . S
C557 C553 1.376 . S
C557 C556 1.392 . S
C557 H569 0.929 . S
C558 C554 1.531 . S
C558 H570 0.960 . S
C558 H571 0.962 . S
C558 H572 0.960 . S
C559 C556 1.511 . S
C559 H573 0.961 . S
C559 H574 0.961 . S
C559 H575 0.961 . S
C560 C561 1.370 . S
C560 C562 1.363 . S
C560 H576 0.931 . S
C561 C560 1.370 . S
C561 C565 1.408 . S
C562 C560 1.363 . S
C562 C563 1.370 . S
C562 C566 1.524 . S
C563 C555 1.503 . S
C563 C562 1.370 . S
C563 C564 1.403 . S
C564 C563 1.403 . S
C564 C565 1.404 . S
C564 C567 1.539 . S
C565 C561 1.408 . S
C565 C564 1.404 . S
C565 H577 0.930 . S
C566 C562 1.524 . S
C566 H578 0.956 . S
C566 H579 0.961 . S
C566 H580 0.961 . S
C567 C564 1.539 . S
C567 H581 0.958 . S
C567 H582 0.961 . S
C567 H583 0.960 . S
H568 C552 0.931 . S
H569 C557 0.929 . S
H570 C558 0.960 . S
H571 C558 0.962 . S
H572 C558 0.960 . S
H573 C559 0.961 . S
H574 C559 0.961 . S
H575 C559 0.961 . S
H576 C560 0.931 . S
H577 C565 0.930 . S
H578 C566 0.956 . S
H579 C566 0.961 . S
H580 C566 0.961 . S
H581 C567 0.958 . S
H582 C567 0.961 . S
H583 C567 0.960 . S
C584 C585 1.391 . S
C584 C586 1.394 . S
C584 H600 0.931 . S
C585 C584 1.391 . S
C585 C589 1.376 . S
C586 C584 1.394 . S
C586 C587 1.369 . S
C586 C590 1.531 . S
C587 C586 1.369 . S
C587 C588 1.410 . S
C587 C595 1.503 . S
C588 C587 1.410 . S
C588 C589 1.392 . S
C588 C591 1.511 . S
C589 C585 1.376 . S
C589 C588 1.392 . S
C589 H601 0.929 . S
C590 C586 1.531 . S
C590 H602 0.960 . S
C590 H603 0.962 . S
C590 H604 0.960 . S
C591 C588 1.511 . S
C591 H605 0.961 . S
C591 H606 0.961 . S
C591 H607 0.961 . S
C592 C593 1.370 . S
C592 C594 1.363 . S
C592 H608 0.931 . S
C593 C592 1.370 . S
C593 C597 1.408 . S
C594 C592 1.363 . S
C594 C595 1.370 . S
C594 C598 1.524 . S
C595 C587 1.503 . S
C595 C594 1.370 . S
C595 C596 1.403 . S
C596 C595 1.403 . S
C596 C597 1.404 . S
C596 C599 1.539 . S
C597 C593 1.408 . S
C597 C596 1.404 . S
C597 H609 0.930 . S
C598 C594 1.524 . S
C598 H610 0.956 . S
C598 H611 0.961 . S
C598 H612 0.961 . S
C599 C596 1.539 . S
C599 H613 0.958 . S
C599 H614 0.961 . S
C599 H615 0.960 . S
H600 C584 0.931 . S
H601 C589 0.929 . S
H602 C590 0.960 . S
H603 C590 0.962 . S
H604 C590 0.960 . S
H605 C591 0.961 . S
H606 C591 0.961 . S
H607 C591 0.961 . S
H608 C592 0.931 . S
H609 C597 0.930 . S
H610 C598 0.956 . S
H611 C598 0.961 . S
H612 C598 0.961 . S
H613 C599 0.958 . S
H614 C599 0.961 . S
H615 C599 0.960 . S
C616 C617 1.391 . S
C616 C618 1.394 . S
C616 H632 0.931 . S
C617 C616 1.391 . S
C617 C621 1.376 . S
C618 C616 1.394 . S
C618 C619 1.369 . S
C618 C622 1.531 . S
C619 C618 1.369 . S
C619 C620 1.410 . S
C619 C627 1.503 . S
C620 C619 1.410 . S
C620 C621 1.392 . S
C620 C623 1.511 . S
C621 C617 1.376 . S
C621 C620 1.392 . S
C621 H633 0.929 . S
C622 C618 1.531 . S
C622 H634 0.960 . S
C622 H635 0.962 . S
C622 H636 0.960 . S
C623 C620 1.511 . S
C623 H637 0.961 . S
C623 H638 0.961 . S
C623 H639 0.961 . S
C624 C625 1.370 . S
C624 C626 1.363 . S
C624 H640 0.931 . S
C625 C624 1.370 . S
C625 C629 1.408 . S
C626 C624 1.363 . S
C626 C627 1.370 . S
C626 C630 1.524 . S
C627 C619 1.503 . S
C627 C626 1.370 . S
C627 C628 1.403 . S
C628 C627 1.403 . S
C628 C629 1.404 . S
C628 C631 1.539 . S
C629 C625 1.408 . S
C629 C628 1.404 . S
C629 H641 0.930 . S
C630 C626 1.524 . S
C630 H642 0.956 . S
C630 H643 0.961 . S
C630 H644 0.961 . S
C631 C628 1.539 . S
C631 H645 0.958 . S
C631 H646 0.961 . S
C631 H647 0.960 . S
H632 C616 0.931 . S
H633 C621 0.929 . S
H634 C622 0.960 . S
H635 C622 0.962 . S
H636 C622 0.960 . S
H637 C623 0.961 . S
H638 C623 0.961 . S
H639 C623 0.961 . S
H640 C624 0.931 . S
H641 C629 0.930 . S
H642 C630 0.956 . S
H643 C630 0.961 . S
H644 C630 0.961 . S
H645 C631 0.958 . S
H646 C631 0.961 . S
H647 C631 0.960 . S
C648 C649 1.391 . S
C648 C650 1.394 . S
C648 H664 0.931 . S
C649 C648 1.391 . S
C649 C653 1.376 . S
C650 C648 1.394 . S
C650 C651 1.369 . S
C650 C654 1.531 . S
C651 C650 1.369 . S
C651 C652 1.410 . S
C651 C659 1.503 . S
C652 C651 1.410 . S
C652 C653 1.392 . S
C652 C655 1.511 . S
C653 C649 1.376 . S
C653 C652 1.392 . S
C653 H665 0.929 . S
C654 C650 1.531 . S
C654 H666 0.960 . S
C654 H667 0.962 . S
C654 H668 0.960 . S
C655 C652 1.511 . S
C655 H669 0.961 . S
C655 H670 0.961 . S
C655 H671 0.961 . S
C656 C657 1.370 . S
C656 C658 1.363 . S
C656 H672 0.931 . S
C657 C656 1.370 . S
C657 C661 1.408 . S
C658 C656 1.363 . S
C658 C659 1.370 . S
C658 C662 1.524 . S
C659 C651 1.503 . S
C659 C658 1.370 . S
C659 C660 1.403 . S
C660 C659 1.403 . S
C660 C661 1.404 . S
C660 C663 1.539 . S
C661 C657 1.408 . S
C661 C660 1.404 . S
C661 H673 0.930 . S
C662 C658 1.524 . S
C662 H674 0.956 . S
C662 H675 0.961 . S
C662 H676 0.961 . S
C663 C660 1.539 . S
C663 H677 0.958 . S
C663 H678 0.961 . S
C663 H679 0.960 . S
H664 C648 0.931 . S
H665 C653 0.929 . S
H666 C654 0.960 . S
H667 C654 0.962 . S
H668 C654 0.960 . S
H669 C655 0.961 . S
H670 C655 0.961 . S
H671 C655 0.961 . S
H672 C656 0.931 . S
H673 C661 0.930 . S
H674 C662 0.956 . S
H675 C662 0.961 . S
H676 C662 0.961 . S
H677 C663 0.958 . S
H678 C663 0.961 . S
H679 C663 0.960 . S
C680 C681 1.391 . S
C680 C682 1.394 . S
C680 H696 0.931 . S
C681 C680 1.391 . S
C681 C685 1.376 . S
C682 C680 1.394 . S
C682 C683 1.369 . S
C682 C686 1.531 . S
C683 C682 1.369 . S
C683 C684 1.410 . S
C683 C691 1.503 . S
C684 C683 1.410 . S
C684 C685 1.392 . S
C684 C687 1.511 . S
C685 C681 1.376 . S
C685 C684 1.392 . S
C685 H697 0.929 . S
C686 C682 1.531 . S
C686 H698 0.960 . S
C686 H699 0.962 . S
C686 H700 0.960 . S
C687 C684 1.511 . S
C687 H701 0.961 1_545 S
C687 H702 0.961 . S
C687 H703 0.961 . S
C688 C689 1.370 . S
C688 C690 1.363 . S
C688 H704 0.931 . S
C689 C688 1.370 . S
C689 C693 1.408 . S
C690 C688 1.363 . S
C690 C691 1.370 . S
C690 C694 1.524 . S
C691 C683 1.503 . S
C691 C690 1.370 . S
C691 C692 1.403 . S
C692 C691 1.403 . S
C692 C693 1.404 . S
C692 C695 1.539 . S
C693 C689 1.408 . S
C693 C692 1.404 . S
C693 H705 0.930 . S
C694 C690 1.524 . S
C694 H706 0.956 . S
C694 H707 0.961 . S
C694 H708 0.961 . S
C695 C692 1.539 . S
C695 H709 0.958 . S
C695 H710 0.961 . S
C695 H711 0.960 . S
H696 C680 0.931 . S
H697 C685 0.929 . S
H698 C686 0.960 . S
H699 C686 0.962 . S
H700 C686 0.960 . S
H701 C687 0.961 1_565 S
H702 C687 0.961 . S
H703 C687 0.961 . S
H704 C688 0.931 . S
H705 C693 0.930 . S
H706 C694 0.956 . S
H707 C694 0.961 . S
H708 C694 0.961 . S
H709 C695 0.958 . S
H710 C695 0.961 . S
H711 C695 0.960 . S
C712 C713 1.391 . S
C712 C714 1.394 . S
C712 H728 0.931 . S
C713 C712 1.391 . S
C713 C717 1.376 . S
C714 C712 1.394 . S
C714 C715 1.369 . S
C714 C718 1.531 . S
C715 C714 1.369 . S
C715 C716 1.410 . S
C715 C723 1.503 . S
C716 C715 1.410 . S
C716 C717 1.392 . S
C716 C719 1.511 . S
C717 C713 1.376 . S
C717 C716 1.392 . S
C717 H729 0.929 . S
C718 C714 1.531 . S
C718 H730 0.960 . S
C718 H731 0.962 . S
C718 H732 0.960 . S
C719 C716 1.511 . S
C719 H733 0.961 . S
C719 H734 0.961 . S
C719 H735 0.961 . S
C720 C721 1.370 . S
C720 C722 1.363 . S
C720 H736 0.931 . S
C721 C720 1.370 . S
C721 C725 1.408 . S
C722 C720 1.363 . S
C722 C723 1.370 . S
C722 C726 1.524 . S
C723 C715 1.503 . S
C723 C722 1.370 . S
C723 C724 1.403 . S
C724 C723 1.403 . S
C724 C725 1.404 . S
C724 C727 1.539 . S
C725 C721 1.408 . S
C725 C724 1.404 . S
C725 H737 0.930 . S
C726 C722 1.524 . S
C726 H738 0.956 . S
C726 H739 0.961 . S
C726 H740 0.961 . S
C727 C724 1.539 . S
C727 H741 0.958 . S
C727 H742 0.961 . S
C727 H743 0.960 . S
H728 C712 0.931 . S
H729 C717 0.929 . S
H730 C718 0.960 . S
H731 C718 0.962 . S
H732 C718 0.960 . S
H733 C719 0.961 . S
H734 C719 0.961 . S
H735 C719 0.961 . S
H736 C720 0.931 . S
H737 C725 0.930 . S
H738 C726 0.956 . S
H739 C726 0.961 . S
H740 C726 0.961 . S
H741 C727 0.958 . S
H742 C727 0.961 . S
H743 C727 0.960 . S
C744 C745 1.391 . S
C744 C746 1.394 . S
C744 H760 0.931 . S
C745 C744 1.391 . S
C745 C749 1.376 . S
C746 C744 1.394 . S
C746 C747 1.369 . S
C746 C750 1.531 . S
C747 C746 1.369 . S
C747 C748 1.410 . S
C747 C755 1.503 . S
C748 C747 1.410 . S
C748 C749 1.392 . S
C748 C751 1.511 . S
C749 C745 1.376 . S
C749 C748 1.392 . S
C749 H761 0.929 . S
C750 C746 1.531 . S
C750 H762 0.960 . S
C750 H763 0.962 . S
C750 H764 0.960 . S
C751 C748 1.511 . S
C751 H765 0.961 . S
C751 H766 0.961 . S
C751 H767 0.961 . S
C752 C753 1.370 . S
C752 C754 1.363 . S
C752 H768 0.931 . S
C753 C752 1.370 . S
C753 C757 1.408 . S
C754 C752 1.363 . S
C754 C755 1.370 . S
C754 C758 1.524 . S
C755 C747 1.503 . S
C755 C754 1.370 . S
C755 C756 1.403 . S
C756 C755 1.403 . S
C756 C757 1.404 . S
C756 C759 1.539 . S
C757 C753 1.408 . S
C757 C756 1.404 . S
C757 H769 0.930 . S
C758 C754 1.524 . S
C758 H770 0.956 . S
C758 H771 0.961 . S
C758 H772 0.961 . S
C759 C756 1.539 . S
C759 H773 0.958 . S
C759 H774 0.961 . S
C759 H775 0.960 . S
H760 C744 0.931 . S
H761 C749 0.929 . S
H762 C750 0.960 . S
H763 C750 0.962 . S
H764 C750 0.960 . S
H765 C751 0.961 . S
H766 C751 0.961 . S
H767 C751 0.961 . S
H768 C752 0.931 . S
H769 C757 0.930 . S
H770 C758 0.956 . S
H771 C758 0.961 . S
H772 C758 0.961 . S
H773 C759 0.958 . S
H774 C759 0.961 . S
H775 C759 0.960 . S
C776 C777 1.391 . S
C776 C778 1.394 . S
C776 H792 0.931 . S
C777 C776 1.391 . S
C777 C781 1.376 . S
C778 C776 1.394 . S
C778 C779 1.369 . S
C778 C782 1.531 . S
C779 C778 1.369 . S
C779 C780 1.410 . S
C779 C787 1.503 . S
C780 C779 1.410 . S
C780 C781 1.392 . S
C780 C783 1.511 . S
C781 C777 1.376 . S
C781 C780 1.392 . S
C781 H793 0.929 . S
C782 C778 1.531 . S
C782 H794 0.960 . S
C782 H795 0.962 . S
C782 H796 0.960 . S
C783 C780 1.511 . S
C783 H797 0.961 . S
C783 H798 0.961 . S
C783 H799 0.961 . S
C784 C785 1.370 . S
C784 C786 1.363 . S
C784 H800 0.931 . S
C785 C784 1.370 . S
C785 C789 1.408 . S
C786 C784 1.363 . S
C786 C787 1.370 . S
C786 C790 1.524 . S
C787 C779 1.503 . S
C787 C786 1.370 . S
C787 C788 1.403 . S
C788 C787 1.403 . S
C788 C789 1.404 . S
C788 C791 1.539 . S
C789 C785 1.408 . S
C789 C788 1.404 . S
C789 H801 0.930 . S
C790 C786 1.524 . S
C790 H802 0.956 . S
C790 H803 0.961 . S
C790 H804 0.961 . S
C791 C788 1.539 . S
C791 H805 0.958 . S
C791 H806 0.961 . S
C791 H807 0.960 . S
H792 C776 0.931 . S
H793 C781 0.929 . S
H794 C782 0.960 . S
H795 C782 0.962 . S
H796 C782 0.960 . S
H797 C783 0.961 . S
H798 C783 0.961 . S
H799 C783 0.961 . S
H800 C784 0.931 . S
H801 C789 0.930 . S
H802 C790 0.956 . S
H803 C790 0.961 . S
H804 C790 0.961 . S
H805 C791 0.958 . S
H806 C791 0.961 . S
H807 C791 0.960 . S
C808 C809 1.391 . S
C808 C810 1.394 . S
C808 H824 0.931 . S
C809 C808 1.391 . S
C809 C813 1.376 . S
C810 C808 1.394 . S
C810 C811 1.369 . S
C810 C814 1.531 . S
C811 C810 1.369 . S
C811 C812 1.410 . S
C811 C819 1.503 . S
C812 C811 1.410 . S
C812 C813 1.392 . S
C812 C815 1.511 . S
C813 C809 1.376 . S
C813 C812 1.392 . S
C813 H825 0.929 . S
C814 C810 1.531 . S
C814 H826 0.960 . S
C814 H827 0.962 . S
C814 H828 0.960 . S
C815 C812 1.511 . S
C815 H829 0.961 . S
C815 H830 0.961 . S
C815 H831 0.961 . S
C816 C817 1.370 . S
C816 C818 1.363 . S
C816 H832 0.931 . S
C817 C816 1.370 . S
C817 C821 1.408 . S
C818 C816 1.363 . S
C818 C819 1.370 . S
C818 C822 1.524 . S
C819 C811 1.503 . S
C819 C818 1.370 . S
C819 C820 1.403 . S
C820 C819 1.403 . S
C820 C821 1.404 . S
C820 C823 1.539 . S
C821 C817 1.408 . S
C821 C820 1.404 . S
C821 H833 0.930 . S
C822 C818 1.524 . S
C822 H834 0.956 . S
C822 H835 0.961 . S
C822 H836 0.961 . S
C823 C820 1.539 . S
C823 H837 0.958 . S
C823 H838 0.961 . S
C823 H839 0.960 . S
H824 C808 0.931 . S
H825 C813 0.929 . S
H826 C814 0.960 . S
H827 C814 0.962 . S
H828 C814 0.960 . S
H829 C815 0.961 . S
H830 C815 0.961 . S
H831 C815 0.961 . S
H832 C816 0.931 . S
H833 C821 0.930 . S
H834 C822 0.956 . S
H835 C822 0.961 . S
H836 C822 0.961 . S
H837 C823 0.958 . S
H838 C823 0.961 . S
H839 C823 0.960 . S
C840 C841 1.391 . S
C840 C842 1.394 . S
C840 H856 0.931 . S
C841 C840 1.391 . S
C841 C845 1.376 . S
C842 C840 1.394 . S
C842 C843 1.369 . S
C842 C846 1.531 . S
C843 C842 1.369 . S
C843 C844 1.410 . S
C843 C851 1.503 . S
C844 C843 1.410 . S
C844 C845 1.392 . S
C844 C847 1.511 . S
C845 C841 1.376 . S
C845 C844 1.392 . S
C845 H857 0.929 . S
C846 C842 1.531 . S
C846 H858 0.960 . S
C846 H859 0.962 . S
C846 H860 0.960 . S
C847 C844 1.511 . S
C847 H861 0.930 1_565 S
C847 H862 0.961 . S
C847 H863 0.961 . S
C848 C849 1.370 . S
C848 C850 1.363 . S
C848 H864 0.931 . S
C849 C848 1.370 . S
C849 C853 1.408 . S
C850 C848 1.363 . S
C850 C851 1.370 . S
C850 C854 1.524 . S
C851 C843 1.503 . S
C851 C850 1.370 . S
C851 C852 1.403 . S
C852 C851 1.403 . S
C852 C853 1.404 . S
C852 C855 1.539 . S
C853 C849 1.408 . S
C853 C852 1.404 . S
C853 H865 0.930 . S
C854 C850 1.524 . S
C854 H866 0.956 . S
C854 H867 0.961 . S
C854 H868 0.961 . S
C855 C852 1.539 . S
C855 H869 0.958 . S
C855 H870 0.961 . S
C855 H871 0.960 . S
H856 C840 0.931 . S
H857 C845 0.929 . S
H858 C846 0.960 . S
H859 C846 0.962 . S
H860 C846 0.960 . S
H861 C847 0.930 1_545 S
H862 C847 0.961 . S
H863 C847 0.961 . S
H864 C848 0.931 . S
H865 C853 0.930 . S
H866 C854 0.956 . S
H867 C854 0.961 . S
H868 C854 0.961 . S
H869 C855 0.958 . S
H870 C855 0.961 . S
H871 C855 0.960 . S
C872 C873 1.391 . S
C872 C874 1.394 . S
C872 H888 0.931 . S
C873 C872 1.391 . S
C873 C877 1.376 . S
C874 C872 1.394 . S
C874 C875 1.369 . S
C874 C878 1.531 . S
C875 C874 1.369 . S
C875 C876 1.410 . S
C875 C883 1.503 . S
C876 C875 1.410 . S
C876 C877 1.392 . S
C876 C879 1.511 . S
C877 C873 1.376 . S
C877 C876 1.392 . S
C877 H889 0.929 . S
C878 C874 1.531 . S
C878 H890 0.960 . S
C878 H891 0.962 . S
C878 H892 0.960 . S
C879 C876 1.511 . S
C879 H893 0.961 . S
C879 H894 0.961 . S
C879 H895 0.961 . S
C880 C881 1.370 . S
C880 C882 1.363 . S
C880 H896 0.931 . S
C881 C880 1.370 . S
C881 C885 1.408 . S
C882 C880 1.363 . S
C882 C883 1.370 . S
C882 C886 1.524 . S
C883 C875 1.503 . S
C883 C882 1.370 . S
C883 C884 1.403 . S
C884 C883 1.403 . S
C884 C885 1.404 . S
C884 C887 1.539 . S
C885 C881 1.408 . S
C885 C884 1.404 . S
C885 H897 0.930 . S
C886 C882 1.524 . S
C886 H898 0.956 . S
C886 H899 0.961 . S
C886 H900 0.961 . S
C887 C884 1.539 . S
C887 H901 0.958 . S
C887 H902 0.961 . S
C887 H903 0.960 . S
H888 C872 0.931 . S
H889 C877 0.929 . S
H890 C878 0.960 . S
H891 C878 0.962 . S
H892 C878 0.960 . S
H893 C879 0.961 . S
H894 C879 0.961 . S
H895 C879 0.961 . S
H896 C880 0.931 . S
H897 C885 0.930 . S
H898 C886 0.956 . S
H899 C886 0.961 . S
H900 C886 0.961 . S
H901 C887 0.958 . S
H902 C887 0.961 . S
H903 C887 0.960 . S
C904 C905 1.391 . S
C904 C906 1.394 . S
C904 H920 0.931 . S
C905 C904 1.391 . S
C905 C909 1.376 . S
C906 C904 1.394 . S
C906 C907 1.369 . S
C906 C910 1.531 . S
C907 C906 1.369 . S
C907 C908 1.410 . S
C907 C915 1.503 . S
C908 C907 1.410 . S
C908 C909 1.392 . S
C908 C911 1.511 . S
C909 C905 1.376 . S
C909 C908 1.392 . S
C909 H921 0.929 . S
C910 C906 1.531 . S
C910 H922 0.960 . S
C910 H923 0.962 . S
C910 H924 0.960 . S
C911 C908 1.511 . S
C911 H925 0.961 . S
C911 H926 0.961 . S
C911 H927 0.961 . S
C912 C913 1.370 . S
C912 C914 1.363 . S
C912 H928 0.931 . S
C913 C912 1.370 . S
C913 C917 1.408 . S
C914 C912 1.363 . S
C914 C915 1.370 . S
C914 C918 1.524 . S
C915 C907 1.503 . S
C915 C914 1.370 . S
C915 C916 1.403 . S
C916 C915 1.403 . S
C916 C917 1.404 . S
C916 C919 1.539 . S
C917 C913 1.408 . S
C917 C916 1.404 . S
C917 H929 0.930 . S
C918 C914 1.524 . S
C918 H930 0.956 . S
C918 H931 0.961 . S
C918 H932 0.961 . S
C919 C916 1.539 . S
C919 H933 0.958 . S
C919 H934 0.961 . S
C919 H935 0.960 . S
H920 C904 0.931 . S
H921 C909 0.929 . S
H922 C910 0.960 . S
H923 C910 0.962 . S
H924 C910 0.960 . S
H925 C911 0.961 . S
H926 C911 0.961 . S
H927 C911 0.961 . S
H928 C912 0.931 . S
H929 C917 0.930 . S
H930 C918 0.956 . S
H931 C918 0.961 . S
H932 C918 0.961 . S
H933 C919 0.958 . S
H934 C919 0.961 . S
H935 C919 0.960 . S
C169 C13 1.642 . S
C177 C85 1.624 . S
C201 C27 1.648 . S
C209 C110 1.626 . S
C241 C113 1.612 . S
C233 C29 1.653 . S
C273 C139 1.622 . S
C265 C54 1.655 . S
C305 C140 1.620 . S
C297 C69 1.646 . S
C337 C167 1.617 . S
C329 C83 1.647 . S
C361 C15 1.644 . S
C369 C112 1.634 . S
C393 C41 1.652 . S
C401 C138 1.624 . S
C433 C141 1.612 . S
C425 C42 1.653 . S
C465 C166 1.627 . S
C457 C57 1.648 . S
C489 C71 1.651 . S
C497 C84 1.624 . S
C529 C111 1.612 . S
C521 C1 1.656 . S
C561 C126 1.628 . S
C553 C12 1.648 . S
C585 C26 1.641 . S
C593 C153 1.632 . S
C625 C154 1.628 . S
C617 C28 1.643 . S
C649 C55 1.640 . S
C657 C96 1.627 . S
C681 C68 1.642 . S
C689 C99 1.630 . S
C713 C82 1.641 . S
C721 C124 1.628 . S
C745 C14 1.640 . S
C753 C155 1.629 . S
C785 C97 1.615 . S
C777 C40 1.653 . S
C809 C43 1.641 . S
C817 C98 1.630 . S
C841 C56 1.643 . S
C849 C125 1.629 . S
C873 C70 1.654 . S
C881 C127 1.615 . S
C905 C0 1.655 . S
C913 C152 1.610 . S
