# Generated by pormake.
# Topology pth, (4,4)-cn, num edge types: 1
# Building blocks:
#     Node 0, Type 0, BuildingBlock: KUFVIS_clean_sbu_0, # of connection points: 4
#     Node 1, Type 0, BuildingBlock: KUFVIS_clean_sbu_0, # of connection points: 4
#     Node 2, Type 0, BuildingBlock: KUFVIS_clean_sbu_0, # of connection points: 4
#     Node 3, Type 1, BuildingBlock: NAWXER_clean_sbu_0, # of connection points: 4
#     Node 4, Type 1, BuildingBlock: NAWXER_clean_sbu_0, # of connection points: 4
#     Node 5, Type 1, BuildingBlock: NAWXER_clean_sbu_0, # of connection points: 4
#     Edge 6, Type (0, 1), BuildingBlock: EZIPEK_clean_linker_0, # of connection points: 2
#     Edge 7, Type (0, 1), BuildingBlock: EZIPEK_clean_linker_0, # of connection points: 2
#     Edge 8, Type (0, 1), BuildingBlock: EZIPEK_clean_linker_0, # of connection points: 2
#     Edge 9, Type (0, 1), BuildingBlock: EZIPEK_clean_linker_0, # of connection points: 2
#     Edge 10, Type (0, 1), BuildingBlock: EZIPEK_clean_linker_0, # of connection points: 2
#     Edge 11, Type (0, 1), BuildingBlock: EZIPEK_clean_linker_0, # of connection points: 2
#     Edge 12, Type (0, 1), BuildingBlock: EZIPEK_clean_linker_0, # of connection points: 2
#     Edge 13, Type (0, 1), BuildingBlock: EZIPEK_clean_linker_0, # of connection points: 2
#     Edge 14, Type (0, 1), BuildingBlock: EZIPEK_clean_linker_0, # of connection points: 2
#     Edge 15, Type (0, 1), BuildingBlock: EZIPEK_clean_linker_0, # of connection points: 2
#     Edge 16, Type (0, 1), BuildingBlock: EZIPEK_clean_linker_0, # of connection points: 2
#     Edge 17, Type (0, 1), BuildingBlock: EZIPEK_clean_linker_0, # of connection points: 2
# Relax obj value: 0.009
# Max RMSD: 0.080
# Mean RMSD: 0.046
data_MOF--net-pth--node1-KUFVIS_clean_sbu_0--node2-NAWXER_clean_sbu_0--edge1-EZIPEK_clean_linker_0
_symmetry_space_group_name_H-M    P1
_symmetry_Int_Tables_number       1
_symmetry_cell_setting            triclinic
loop_
_symmetry_equiv_pos_as_xyz
'x, y, z'
_cell_length_a     16.196217
_cell_length_b     16.323244
_cell_length_c     42.105611
_cell_angle_alpha  90.440434
_cell_angle_beta   92.437816
_cell_angle_gamma 120.15612
loop_
_atom_site_label
_atom_site_type_symbol
_atom_site_fract_x
_atom_site_fract_y
_atom_site_fract_z
_atom_type_partial_charge
Mn0 Mn 0.09393 0.12466 0.0586 0.0
Mn1 Mn 0.93226 0.17044 0.02182 0.0
C2 C 0.99482 0.02653 0.01652 0.0
C3 C 0.13738 0.05159 0.09797 0.0
C4 C 0.14505 0.28327 0.01137 0.0
O5 O 0.0838 0.21229 0.09057 0.0
O6 O 0.96954 0.23259 0.06532 0.0
C7 C 0.76872 0.06518 0.06267 0.0
N8 N 0.80648 0.07899 0.03361 0.0
C9 C 0.6563 0.95737 0.00943 0.0
C10 C 0.6166 0.94054 0.03927 0.0
C11 C 0.67309 0.9948 0.06601 0.0
C12 C 0.75262 0.02725 0.00771 0.0
H13 H 0.81092 0.10827 0.083 0.0
C14 C 0.0277 0.24591 0.08912 0.0
O15 O 0.2014 0.12598 0.08419 0.0
O16 O 0.04842 0.02177 0.08968 0.0
N17 N 0.88984 0.11455 0.97985 0.0
C18 C 0.9373 0.14306 0.95249 0.0
C19 C 0.88871 0.10094 0.92324 0.0
C20 C 0.79176 0.03035 0.9224 0.0
C21 C 0.74469 1.00136 0.9508 0.0
C22 C 0.79631 0.04714 0.97919 0.0
H23 H 1.0113 0.19862 0.95285 0.0
O24 O 0.07547 0.03102 0.02412 0.0
O25 O 0.97563 0.08146 0.03338 0.0
O26 O 0.16911 0.23653 0.02993 0.0
O27 O 0.0591 0.26598 1.00708 0.0
C28 C 0.64779 0.93066 0.95194 0.0
C29 C 0.60381 0.90815 0.98129 0.0
H30 H 0.54259 0.88689 0.04187 0.0
H31 H 0.64271 0.98313 0.08908 0.0
H32 H 0.92552 0.12374 0.90136 0.0
H33 H 0.75355 0.99991 0.89977 0.0
H34 H 0.60636 0.89348 0.93038 0.0
H35 H 0.52927 0.85371 0.9819 0.0
Mn36 Mn 0.04929 0.11613 0.38791 0.0
Mn37 Mn 0.15474 0.31803 0.43413 0.0
C38 C 0.15802 0.13693 0.4299 0.0
C39 C 0.03416 0.01729 0.34492 0.0
C40 C 0.94769 0.16086 0.43908 0.0
O41 O 0.0346 0.21114 0.35979 0.0
O42 O 0.11509 0.34248 0.39179 0.0
C43 C 0.32589 0.43122 0.39713 0.0
N44 N 0.28677 0.39298 0.42512 0.0
C45 C 0.44237 0.4614 0.452 0.0
C46 C 0.48421 0.50193 0.42353 0.0
C47 C 0.42569 0.48634 0.39594 0.0
C48 C 0.34251 0.40612 0.45165 0.0
H49 H 0.28143 0.41966 0.37582 0.0
C50 C 0.07253 0.30069 0.36528 0.0
O51 O 0.96103 1.00631 0.35957 0.0
O52 O 0.11721 0.08914 0.35403 0.0
N53 N 0.20032 0.30683 0.47567 0.0
C54 C 0.14893 0.26513 0.5015 0.0
C55 C 0.197 0.27463 0.53106 0.0
C56 C 0.29726 0.32861 0.53392 0.0
C57 C 0.34852 0.37287 0.50727 0.0
C58 C 0.29674 0.36135 0.47848 0.0
H59 H 0.07177 0.22497 0.49965 0.0
O60 O 0.0941 0.05254 0.41926 0.0
O61 O 0.1552 0.20646 0.41627 0.0
O62 O 0.94928 0.10681 0.41766 0.0
O63 O 1.01865 0.24359 0.44617 0.0
C64 C 0.44899 0.42913 0.5083 0.0
C65 C 0.49591 0.47308 0.48065 0.0
H66 H 0.56117 0.54475 0.42254 0.0
H67 H 0.45743 0.51697 0.37382 0.0
H68 H 0.15679 0.24125 0.55164 0.0
H69 H 0.33431 0.33722 0.55679 0.0
H70 H 0.49087 0.43884 0.53022 0.0
H71 H 0.57323 0.51547 0.48165 0.0
Mn72 Mn 0.0835 0.11546 0.72576 0.0
Mn73 Mn 0.05144 0.2769 0.76583 0.0
C74 C 0.19174 0.20773 0.76756 0.0
C75 C 0.15074 0.07359 0.68526 0.0
C76 C 0.93054 0.06392 0.77428 0.0
O77 O 0.98978 0.13253 0.69572 0.0
O78 O 0.98388 0.24841 0.72331 0.0
C79 C 0.15859 0.43969 0.72469 0.0
N80 N 0.14446 0.40135 0.75397 0.0
C81 C 0.26572 0.54946 0.77842 0.0
C82 C 0.28143 0.59071 0.74857 0.0
C83 C 0.22812 0.53533 0.72155 0.0
C84 C 0.19715 0.45322 0.77995 0.0
H85 H 0.11707 0.39764 0.7039 0.0
C86 C 0.9611 0.19234 0.69899 0.0
O87 O 0.07556 1.00988 0.69875 0.0
O88 O 0.18246 0.16148 0.69358 0.0
N89 N 0.11383 0.31374 0.80737 0.0
C90 C 0.0887 0.26397 0.83454 0.0
C91 C 0.13426 0.30947 0.86379 0.0
C92 C 0.20337 0.40633 0.86489 0.0
C93 C 0.22776 0.45635 0.83673 0.0
C94 C 0.18024 0.40714 0.80828 0.0
H95 H 0.03223 0.191 0.83405 0.0
O96 O 0.18372 0.12794 0.75836 0.0
O97 O 0.13507 0.23036 0.75216 0.0
O98 O 0.97528 0.03992 0.75559 0.0
O99 O 0.95287 0.14999 0.77998 0.0
C100 C 0.29534 0.55383 0.8359 0.0
C101 C 0.31505 0.60014 0.80673 0.0
H102 H 0.3343 0.66473 0.74612 0.0
H103 H 0.23998 0.56653 0.6984 0.0
H104 H 0.11432 0.27065 0.88553 0.0
H105 H 0.23579 0.44227 0.88755 0.0
H106 H 0.33256 0.59392 0.85757 0.0
H107 H 0.36761 0.67492 0.80638 0.0
C108 C 1.00321 0.73131 0.25635 0.0
C109 C 0.035 0.51629 0.18072 0.0
O110 O 0.08802 0.74645 0.25371 0.0
Zn111 Zn 0.16223 0.69296 0.22853 0.0
O112 O 0.93297 0.66298 0.24057 0.0
Zn113 Zn 1.00771 0.61849 0.2181 0.0
O114 O 0.05341 0.56183 0.25548 0.0
O115 O 0.21107 0.64603 0.26288 0.0
O116 O 0.95712 0.51502 0.18561 0.0
O117 O 0.11185 0.57718 0.19594 0.0
O118 O 0.24024 0.80217 0.20195 0.0
O119 O 0.08544 0.73648 0.19016 0.0
C120 C 0.13071 0.57654 0.27009 0.0
C121 C 0.17118 0.80102 0.18579 0.0
C122 C 0.70219 0.20654 0.60282 0.0
C123 C 0.46187 0.17463 0.51891 0.0
O124 O 0.64034 0.12185 0.59356 0.0
Zn125 Zn 0.52183 0.04901 0.56054 0.0
O126 O 0.69834 0.27666 0.59123 0.0
Zn127 Zn 0.58659 0.20337 0.56176 0.0
O128 O 0.47661 0.13618 0.59342 0.0
O129 O 0.41066 0.98148 0.58752 0.0
O130 O 0.52433 0.25328 0.53246 0.0
O131 O 0.46025 0.09875 0.52682 0.0
O132 O 0.57317 0.99269 0.5315 0.0
O133 O 0.64586 0.14903 0.52988 0.0
C134 C 0.41157 0.05317 0.60028 0.0
C135 C 0.63714 0.07041 0.52035 0.0
C136 C 0.42685 0.5608 0.92984 0.0
C137 C 0.64268 0.77695 0.8512 0.0
O138 O 0.4209 0.62815 0.91695 0.0
Zn139 Zn 0.53054 0.67137 0.89018 0.0
O140 O 0.49467 0.54617 0.92283 0.0
Zn141 Zn 0.61182 0.59994 0.89252 0.0
O142 O 0.71977 0.64432 0.92323 0.0
O143 O 0.64972 0.73071 0.92421 0.0
O144 O 0.66353 0.71521 0.86107 0.0
O145 O 0.56946 0.77687 0.86118 0.0
O146 O 0.47936 0.55146 0.85839 0.0
O147 O 0.57471 0.4918 0.8635 0.0
C148 C 0.71632 0.71531 0.93428 0.0
C149 C 0.50066 0.48868 0.85057 0.0
C150 C 0.9689 0.28025 0.13906 0.0
C151 C 0.03635 0.31172 0.11515 0.0
C152 C 0.10956 0.47531 0.13588 0.0
C153 C 0.03823 0.44533 0.1589 0.0
N154 N 0.91903 0.31678 0.18822 0.0
N155 N 0.18598 0.43205 0.09603 0.0
C156 C 0.97263 0.34692 0.16203 0.0
C157 C 0.1111 0.40712 0.11514 0.0
N158 N 0.90289 0.18599 0.14019 0.0
N159 N 0.17482 0.56918 0.13294 0.0
H160 H 0.18947 0.38459 0.08022 0.0
H161 H 0.24894 0.49745 0.09766 0.0
H162 H 0.18883 0.62167 0.14983 0.0
H163 H 0.21454 0.5963 0.11295 0.0
H164 H 0.8431 0.15872 0.1538 0.0
H165 H 0.90761 0.13458 0.12681 0.0
H166 H 0.8756 0.24593 0.19349 0.0
H167 H 0.92446 0.36263 0.20661 0.0
C168 C 0.83443 0.0537 0.47941 0.0
C169 C 0.8582 0.12502 0.45663 0.0
C170 C 0.71405 0.13016 0.4689 0.0
C171 C 0.70304 0.07481 0.496 0.0
N172 N 0.76226 0.99369 0.52939 0.0
N173 N 0.81769 0.22875 0.42845 0.0
C174 C 0.76511 0.03828 0.50179 0.0
C175 C 0.79695 0.16258 0.45102 0.0
N176 N 0.87561 0.99853 0.47918 0.0
N177 N 0.64358 0.14931 0.4598 0.0
H178 H 0.87258 0.24695 0.41311 0.0
H179 H 0.78322 0.26783 0.42582 0.0
H180 H 0.58027 0.1231 0.47164 0.0
H181 H 0.64311 0.18255 0.43884 0.0
H182 H 0.85541 0.94099 0.49381 0.0
H183 H 0.92009 1.00205 0.4615 0.0
H184 H 0.81379 0.97604 0.53629 0.0
H185 H 0.71367 0.98168 0.54671 0.0
C186 C 0.75793 0.93828 0.78119 0.0
C187 C 0.85495 0.98862 0.79302 0.0
C188 C 0.80887 0.90858 0.84351 0.0
C189 C 0.71244 0.85424 0.83147 0.0
N190 N 0.59626 0.80731 0.78744 0.0
N191 N 0.97518 1.00422 0.83206 0.0
C192 C 0.68685 0.86686 0.79994 0.0
C193 C 0.88094 0.96859 0.82321 0.0
N194 N 0.73431 0.95801 0.75187 0.0
N195 N 0.83148 0.90569 0.87492 0.0
H196 H 0.02955 0.04831 0.81763 0.0
H197 H 0.99911 0.98328 0.85205 0.0
H198 H 0.7805 0.86561 0.89103 0.0
H199 H 0.89842 0.95169 0.88579 0.0
H200 H 0.66435 0.93298 0.74314 0.0
H201 H 0.78579 1.0024 0.73647 0.0
H202 H 0.57481 0.80583 0.76369 0.0
H203 H 0.54328 0.75441 0.80048 0.0
C204 C 0.13161 0.89892 0.10898 0.0
C205 C 0.16363 0.99407 0.11872 0.0
C206 C 0.22083 0.96863 0.17075 0.0
C207 C 0.18483 0.87207 0.1615 0.0
N208 N 0.11811 0.74799 0.12067 0.0
N209 N 0.25425 0.12576 0.15587 0.0
C210 C 0.14428 0.83843 0.13018 0.0
C211 C 0.21419 0.03117 0.14856 0.0
N212 N 0.08696 0.86582 0.07951 0.0
N213 N 0.25447 0.99868 0.20146 0.0
H214 H 0.24588 0.17232 0.14111 0.0
H215 H 0.30089 0.15976 0.17553 0.0
H216 H 0.26098 0.95563 0.21832 0.0
H217 H 0.27063 0.06434 0.21103 0.0
H218 H 0.04835 0.79458 0.07239 0.0
H219 H 0.08635 0.90996 0.06188 0.0
H220 H 0.09963 0.72151 0.09733 0.0
H221 H 0.11927 0.69947 0.13613 0.0
C222 C 0.33414 0.2028 0.44448 0.0
C223 C 0.23708 0.1507 0.45282 0.0
C224 C 0.28669 0.10192 0.50134 0.0
C225 C 0.38502 0.1665 0.49586 0.0
N226 N 0.50226 0.27966 0.46172 0.0
N227 N 0.12357 0.06493 0.49208 0.0
C228 C 0.40867 0.21817 0.4674 0.0
C229 C 0.21434 0.10416 0.48198 0.0
N230 N 0.35501 0.23332 0.41415 0.0
N231 N 0.26029 0.03554 0.52424 0.0
H232 H 0.06971 0.0687 0.47909 0.0
H233 H 0.10519 0.04023 0.51493 0.0
H234 H 0.30683 0.02917 0.54031 0.0
H235 H 0.19029 0.97987 0.52569 0.0
H236 H 0.42324 0.26334 0.40562 0.0
H237 H 0.30279 0.22141 0.39648 0.0
H238 H 0.52352 0.32718 0.44333 0.0
H239 H 0.55925 0.28695 0.47635 0.0
C240 C 0.29916 0.25097 0.81784 0.0
C241 C 0.27746 0.27714 0.78781 0.0
C242 C 0.41627 0.43773 0.79657 0.0
C243 C 0.43539 0.41248 0.82705 0.0
N244 N 0.41165 0.28895 0.86303 0.0
N245 N 0.33582 0.38445 0.74438 0.0
C246 C 0.38229 0.31711 0.83648 0.0
C247 C 0.34206 0.36743 0.7759 0.0
N248 N 0.23862 0.1638 0.82919 0.0
N249 N 0.4694 0.52931 0.78736 0.0
H250 H 0.28581 0.33369 0.72806 0.0
H251 H 0.38591 0.44549 0.73361 0.0
H252 H 0.52975 0.58064 0.80053 0.0
H253 H 0.45168 0.55557 0.76736 0.0
H254 H 0.24096 0.14597 0.85277 0.0
H255 H 0.18287 0.11002 0.81536 0.0
H256 H 0.38305 0.21835 0.869 0.0
H257 H 0.46957 0.33503 0.87811 0.0
C258 C 0.81112 0.19583 0.6826 0.0
C259 C 0.89669 0.19869 0.67383 0.0
C260 C 0.85853 0.21582 0.61796 0.0
C261 C 0.7768 0.21894 0.6272 0.0
N262 N 0.68453 0.22966 0.66854 0.0
N263 N 1.01257 0.2342 0.63417 0.0
C264 C 0.75646 0.21501 0.65965 0.0
C265 C 0.92343 0.21489 0.64174 0.0
N266 N 0.77908 0.16999 0.71245 0.0
N267 N 0.87308 0.21167 0.58639 0.0
H268 H 0.06352 0.23786 0.651 0.0
H269 H 0.03939 0.2556 0.61181 0.0
H270 H 0.82983 0.21694 0.56838 0.0
H271 H 0.92428 0.19725 0.57807 0.0
H272 H 0.71188 0.15551 0.71897 0.0
H273 H 0.81548 0.15436 0.73011 0.0
H274 H 0.67236 0.23778 0.69214 0.0
H275 H 0.64242 0.24258 0.65221 0.0
C276 C 0.94647 0.93096 0.96507 0.0
C277 C 0.92212 0.94597 0.9957 0.0
C278 C 0.76447 0.80215 0.98735 0.0
C279 C 0.79102 0.78518 0.95737 0.0
N280 N 0.91635 0.82059 0.92143 0.0
N281 N 0.81797 0.88003 0.03939 0.0
C282 C 0.88517 0.84503 0.94756 0.0
C283 C 0.83388 0.8771 0.00787 0.0
N284 N 0.0259 1.00115 0.95191 0.0
N285 N 0.67283 0.74635 0.99631 0.0
H286 H 0.86761 0.93132 0.05564 0.0
H287 H 0.75905 0.82649 0.05014 0.0
H288 H 0.62203 0.68616 0.98318 0.0
H289 H 0.64589 0.76252 0.01592 0.0
H290 H 0.04211 0.99881 0.92837 0.0
H291 H 0.06979 0.06649 0.96348 0.0
H292 H 0.98753 0.85627 0.91539 0.0
H293 H 0.87312 0.7607 0.90697 0.0
C294 C 0.99314 0.85055 0.33185 0.0
C295 C 1.02249 0.9435 0.32136 0.0
C296 C 1.02324 0.8918 0.26653 0.0
C297 C 0.99185 0.79854 0.27701 0.0
N298 N 0.92917 0.68395 0.31781 0.0
N299 N 0.0502 0.04969 0.27853 0.0
C300 C 0.97066 0.7763 0.30912 0.0
C301 C 0.03322 0.96338 0.28859 0.0
N302 N 0.9916 0.83441 0.36372 0.0
N303 N 0.04541 0.91207 0.23553 0.0
H304 H 0.05903 0.10377 0.29414 0.0
H305 H 0.0492 0.06596 0.25472 0.0
H306 H 0.03271 0.86 0.21837 0.0
H307 H 0.07942 0.98038 0.22697 0.0
H308 H 0.98112 0.77123 0.37306 0.0
H309 H 1.00903 0.88701 0.38118 0.0
H310 H 0.90332 0.66111 0.34017 0.0
H311 H 0.91295 0.62846 0.30164 0.0
C312 C 0.25439 1.00432 0.67147 0.0
C313 C 0.20147 0.04869 0.66187 0.0
C314 C 0.2824 0.092 0.61206 0.0
C315 C 0.33375 0.04439 0.62059 0.0
N316 N 0.35704 0.94279 0.65682 0.0
N317 N 0.14261 0.10631 0.6196 0.0
C318 C 0.31492 0.99532 0.6496 0.0
C319 C 0.20825 0.08304 0.63101 0.0
N320 N 0.25143 0.97606 0.70208 0.0
N321 N 0.30646 0.1501 0.58678 0.0
H322 H 0.08666 0.09926 0.63294 0.0
H323 H 0.13702 0.12179 0.59591 0.0
H324 H 0.35935 0.16131 0.5715 0.0
H325 H 0.2785 0.19428 0.58248 0.0
H326 H 0.29696 0.95409 0.71185 0.0
H327 H 0.20721 0.98022 0.71852 0.0
H328 H 0.33784 0.89698 0.6757 0.0
H329 H 0.4073 0.94024 0.64286 0.0
C330 C 0.26091 0.3282 0.96807 0.0
C331 C 0.21933 0.35656 0.99163 0.0
C332 C 0.3195 0.52255 0.9765 0.0
C333 C 0.35171 0.49196 0.95053 0.0
N334 N 0.32935 0.36077 0.9169 0.0
N335 N 0.19911 0.48018 0.01535 0.0
C336 C 0.31588 0.39345 0.94505 0.0
C337 C 0.24507 0.45357 0.9948 0.0
N338 N 0.2488 0.23908 0.96742 0.0
N339 N 0.36321 0.61676 0.98487 0.0
H340 H 0.14709 0.43281 0.03001 0.0
H341 H 0.20774 0.54786 0.01617 0.0
H342 H 0.42004 0.66893 0.97288 0.0
H343 H 0.34947 0.64228 1.00555 0.0
H344 H 0.28666 0.21926 0.95282 0.0
H345 H 0.20891 0.18759 0.98343 0.0
H346 H 0.29494 0.28898 0.91032 0.0
H347 H 0.36361 0.40482 0.89831 0.0
C348 C 0.05065 0.43258 0.34418 0.0
C349 C 0.07956 0.36459 0.33907 0.0
C350 C 0.14376 0.43692 0.28819 0.0
C351 C 0.12292 0.50966 0.29497 0.0
N352 N 0.06978 0.58572 0.33136 0.0
N353 N 0.17305 0.31582 0.30921 0.0
C354 C 0.08009 0.50996 0.32356 0.0
C355 C 0.13097 0.37002 0.31178 0.0
N356 N 0.99287 0.42176 0.36839 0.0
N357 N 0.17343 0.43005 0.25888 0.0
H358 H 0.16855 0.26782 0.32616 0.0
H359 H 0.22006 0.32475 0.29165 0.0
H360 H 0.1862 0.4791 0.24128 0.0
H361 H 0.17831 0.37184 0.25123 0.0
H362 H 0.96077 0.46261 0.37143 0.0
H363 H 0.97 0.36596 0.38384 0.0
H364 H 0.0481 0.59524 0.35334 0.0
H365 H 0.09134 0.64386 0.31686 0.0
loop_
_geom_bond_atom_site_label_1
_geom_bond_atom_site_label_2
_geom_bond_distance
_geom_bond_site_symmetry_2
_ccdc_geom_bond_type
Mn0 O5 2.095 . S
Mn0 O15 2.162 . S
Mn0 O16 2.297 1_545 S
Mn0 O24 2.385 1_545 S
Mn0 O25 2.209 1_455 S
Mn0 O26 2.094 . S
Mn1 O6 2.121 . S
Mn1 N8 2.257 . S
Mn1 N17 2.282 1_554 S
Mn1 O25 2.215 . S
Mn1 O27 2.117 1_655 S
C2 O24 1.234 1_645 S
C2 O25 1.283 . S
C3 O15 1.281 1_565 S
C3 O16 1.236 . S
C4 O26 1.240 . S
C4 O27 1.264 . S
O5 Mn0 2.095 . S
O5 C14 1.250 . S
O6 Mn1 2.121 . S
O6 C14 1.258 1_655 S
C7 N8 1.326 . S
C7 C11 1.460 . S
C7 H13 0.929 . S
N8 Mn1 2.257 . S
N8 C7 1.326 . S
N8 C12 1.362 1_554 S
C9 C10 1.258 . S
C9 C12 1.431 . S
C9 C29 1.449 . S
C10 C9 1.258 . S
C10 C11 1.477 1_556 S
C10 H30 0.931 . S
C11 C7 1.460 . S
C11 C10 1.477 1_554 S
C11 H31 0.930 . S
C12 N8 1.362 1_556 S
C12 C9 1.431 . S
C12 C22 1.476 . S
H13 C7 0.929 . S
C14 O5 1.250 . S
C14 O6 1.258 1_455 S
O15 Mn0 2.162 . S
O15 C3 1.281 1_545 S
O16 Mn0 2.297 1_565 S
O16 C3 1.236 . S
N17 Mn1 2.282 1_556 S
N17 C18 1.328 . S
N17 C22 1.318 . S
C18 N17 1.328 . S
C18 C19 1.457 . S
C18 H23 0.929 1_655 S
C19 C18 1.457 . S
C19 C20 1.291 . S
C19 H32 0.931 . S
C20 C19 1.291 . S
C20 C21 1.373 . S
C20 H33 0.929 . S
C21 C20 1.373 . S
C21 C22 1.396 . S
C21 C28 1.403 . S
C22 C12 1.476 . S
C22 N17 1.318 . S
C22 C21 1.396 . S
H23 C18 0.929 1_455 S
O24 Mn0 2.385 1_565 S
O24 C2 1.234 1_465 S
O25 Mn0 2.209 1_655 S
O25 Mn1 2.215 . S
O25 C2 1.283 . S
O26 Mn0 2.094 . S
O26 C4 1.240 . S
O27 Mn1 2.117 1_455 S
O27 C4 1.264 . S
C28 C21 1.403 . S
C28 C29 1.399 . S
C28 H34 0.929 . S
C29 C9 1.449 . S
C29 C28 1.399 . S
C29 H35 0.930 . S
H30 C10 0.931 . S
H31 C11 0.930 . S
H32 C19 0.931 . S
H33 C20 0.929 . S
H34 C28 0.929 . S
H35 C29 0.930 . S
Mn36 O41 2.095 1_455 S
Mn36 O51 2.162 1_445 S
Mn36 O52 2.297 . S
Mn36 O60 2.385 . S
Mn36 O61 2.209 . S
Mn36 O62 2.094 1_455 S
Mn37 O42 2.121 . S
Mn37 N44 2.257 . S
Mn37 N53 2.282 . S
Mn37 O61 2.215 . S
Mn37 O63 2.117 1_455 S
C38 O60 1.234 . S
C38 O61 1.283 . S
C39 O51 1.281 1_455 S
C39 O52 1.236 1_565 S
C40 O62 1.240 . S
C40 O63 1.264 . S
O41 Mn36 2.095 1_655 S
O41 C50 1.250 1_655 S
O42 Mn37 2.121 . S
O42 C50 1.258 . S
C43 N44 1.326 . S
C43 C47 1.460 . S
C43 H49 0.929 . S
N44 Mn37 2.257 . S
N44 C43 1.326 . S
N44 C48 1.362 . S
C45 C46 1.258 . S
C45 C48 1.431 . S
C45 C65 1.449 . S
C46 C45 1.258 . S
C46 C47 1.477 . S
C46 H66 0.931 . S
C47 C43 1.460 . S
C47 C46 1.477 . S
C47 H67 0.930 . S
C48 N44 1.362 . S
C48 C45 1.431 . S
C48 C58 1.476 . S
H49 C43 0.929 . S
C50 O41 1.250 1_455 S
C50 O42 1.258 . S
O51 Mn36 2.162 1_665 S
O51 C39 1.281 1_655 S
O52 Mn36 2.297 . S
O52 C39 1.236 1_545 S
N53 Mn37 2.282 . S
N53 C54 1.328 . S
N53 C58 1.318 . S
C54 N53 1.328 . S
C54 C55 1.457 . S
C54 H59 0.929 . S
C55 C54 1.457 . S
C55 C56 1.291 . S
C55 H68 0.931 . S
C56 C55 1.291 . S
C56 C57 1.373 . S
C56 H69 0.929 . S
C57 C56 1.373 . S
C57 C58 1.396 . S
C57 C64 1.403 . S
C58 C48 1.476 . S
C58 N53 1.318 . S
C58 C57 1.396 . S
H59 C54 0.929 . S
O60 Mn36 2.385 . S
O60 C38 1.234 . S
O61 Mn36 2.209 . S
O61 Mn37 2.215 . S
O61 C38 1.283 . S
O62 Mn36 2.094 1_655 S
O62 C40 1.240 . S
O63 Mn37 2.117 1_655 S
O63 C40 1.264 . S
C64 C57 1.403 . S
C64 C65 1.399 . S
C64 H70 0.929 . S
C65 C45 1.449 . S
C65 C64 1.399 . S
C65 H71 0.930 . S
H66 C46 0.931 . S
H67 C47 0.930 . S
H68 C55 0.931 . S
H69 C56 0.929 . S
H70 C64 0.929 . S
H71 C65 0.930 . S
Mn72 O77 2.095 1_455 S
Mn72 O87 2.162 . S
Mn72 O88 2.297 . S
Mn72 O96 2.385 . S
Mn72 O97 2.209 . S
Mn72 O98 2.094 1_445 S
Mn73 O78 2.121 . S
Mn73 N80 2.257 . S
Mn73 N89 2.282 1_655 S
Mn73 O97 2.215 1_655 S
Mn73 O99 2.117 . S
C74 O96 1.234 . S
C74 O97 1.283 . S
C75 O87 1.281 . S
C75 O88 1.236 . S
C76 O98 1.240 . S
C76 O99 1.264 1_565 S
O77 Mn72 2.095 1_655 S
O77 C86 1.250 . S
O78 Mn73 2.121 . S
O78 C86 1.258 . S
C79 N80 1.326 . S
C79 C83 1.460 1_655 S
C79 H85 0.929 . S
N80 Mn73 2.257 . S
N80 C79 1.326 . S
N80 C84 1.362 1_655 S
C81 C82 1.258 . S
C81 C84 1.431 . S
C81 C101 1.449 . S
C82 C81 1.258 . S
C82 C83 1.477 . S
C82 H102 0.931 . S
C83 C79 1.460 1_455 S
C83 C82 1.477 . S
C83 H103 0.930 . S
C84 N80 1.362 1_455 S
C84 C81 1.431 . S
C84 C94 1.476 . S
H85 C79 0.929 . S
C86 O77 1.250 . S
C86 O78 1.258 . S
O87 Mn72 2.162 . S
O87 C75 1.281 . S
O88 Mn72 2.297 . S
O88 C75 1.236 . S
N89 Mn73 2.282 1_455 S
N89 C90 1.328 . S
N89 C94 1.318 . S
C90 N89 1.328 . S
C90 C91 1.457 . S
C90 H95 0.929 . S
C91 C90 1.457 . S
C91 C92 1.291 . S
C91 H104 0.931 . S
C92 C91 1.291 . S
C92 C93 1.373 . S
C92 H105 0.929 . S
C93 C92 1.373 . S
C93 C94 1.396 . S
C93 C100 1.403 . S
C94 C84 1.476 . S
C94 N89 1.318 . S
C94 C93 1.396 . S
H95 C90 0.929 . S
O96 Mn72 2.385 . S
O96 C74 1.234 . S
O97 Mn72 2.209 . S
O97 Mn73 2.215 1_455 S
O97 C74 1.283 . S
O98 Mn72 2.094 1_665 S
O98 C76 1.240 . S
O99 Mn73 2.117 . S
O99 C76 1.264 1_545 S
C100 C93 1.403 . S
C100 C101 1.399 . S
C100 H106 0.929 . S
C101 C81 1.449 . S
C101 C100 1.399 . S
C101 H107 0.930 . S
H102 C82 0.931 . S
H103 C83 0.930 . S
H104 C91 0.931 . S
H105 C92 0.929 . S
H106 C100 0.929 . S
H107 C101 0.930 . S
C108 O110 1.247 . S
C108 O112 1.258 1_455 S
C109 O116 1.247 1_455 S
C109 O117 1.258 . S
O110 C108 1.247 . S
O110 Zn111 2.028 . S
Zn111 O110 2.028 . S
Zn111 O115 2.035 . S
Zn111 O117 2.035 . S
Zn111 O118 2.028 . S
O112 C108 1.258 1_655 S
O112 Zn113 2.035 . S
Zn113 O112 2.035 . S
Zn113 O114 2.028 . S
Zn113 O116 2.028 . S
Zn113 O119 2.035 . S
O114 Zn113 2.028 . S
O114 C120 1.247 1_655 S
O115 Zn111 2.035 . S
O115 C120 1.258 . S
O116 C109 1.247 1_655 S
O116 Zn113 2.028 . S
O117 C109 1.258 . S
O117 Zn111 2.035 . S
O118 Zn111 2.028 . S
O118 C121 1.247 . S
O119 Zn113 2.035 . S
O119 C121 1.258 1_655 S
C120 O114 1.247 1_455 S
C120 O115 1.258 . S
C121 O118 1.247 . S
C121 O119 1.258 1_455 S
C122 O124 1.247 . S
C122 O126 1.258 . S
C123 O130 1.247 . S
C123 O131 1.258 . S
O124 C122 1.247 . S
O124 Zn125 2.028 . S
Zn125 O124 2.028 . S
Zn125 O129 2.035 . S
Zn125 O131 2.035 . S
Zn125 O132 2.028 . S
O126 C122 1.258 . S
O126 Zn127 2.035 . S
Zn127 O126 2.035 . S
Zn127 O128 2.028 . S
Zn127 O130 2.028 . S
Zn127 O133 2.035 . S
O128 Zn127 2.028 . S
O128 C134 1.247 . S
O129 Zn125 2.035 . S
O129 C134 1.258 . S
O130 C123 1.247 . S
O130 Zn127 2.028 . S
O131 C123 1.258 . S
O131 Zn125 2.035 . S
O132 Zn125 2.028 . S
O132 C135 1.247 . S
O133 Zn127 2.035 . S
O133 C135 1.258 . S
C134 O128 1.247 . S
C134 O129 1.258 . S
C135 O132 1.247 . S
C135 O133 1.258 . S
C136 O138 1.247 . S
C136 O140 1.258 . S
C137 O144 1.247 . S
C137 O145 1.258 . S
O138 C136 1.247 . S
O138 Zn139 2.028 . S
Zn139 O138 2.028 . S
Zn139 O143 2.035 . S
Zn139 O145 2.035 . S
Zn139 O146 2.028 . S
O140 C136 1.258 . S
O140 Zn141 2.035 . S
Zn141 O140 2.035 . S
Zn141 O142 2.028 . S
Zn141 O144 2.028 . S
Zn141 O147 2.035 . S
O142 Zn141 2.028 . S
O142 C148 1.247 . S
O143 Zn139 2.035 . S
O143 C148 1.258 . S
O144 C137 1.247 . S
O144 Zn141 2.028 . S
O145 C137 1.258 . S
O145 Zn139 2.035 . S
O146 Zn139 2.028 . S
O146 C149 1.247 . S
O147 Zn141 2.035 . S
O147 C149 1.258 . S
C148 O142 1.247 . S
C148 O143 1.258 . S
C149 O146 1.247 . S
C149 O147 1.258 . S
C150 C151 1.363 1_655 S
C150 C156 1.379 . S
C150 N158 1.356 . S
C151 C150 1.363 1_455 S
C151 C157 1.363 . S
C152 C153 1.363 . S
C152 C157 1.379 . S
C152 N159 1.356 . S
C153 C152 1.363 . S
C153 C156 1.363 1_455 S
N154 C156 1.356 . S
N154 H166 0.984 . S
N154 H167 0.985 . S
N155 C157 1.356 . S
N155 H160 0.984 . S
N155 H161 0.985 . S
C156 C150 1.379 . S
C156 C153 1.363 1_655 S
C156 N154 1.356 . S
C157 C151 1.363 . S
C157 C152 1.379 . S
C157 N155 1.356 . S
N158 C150 1.356 . S
N158 H164 0.984 . S
N158 H165 0.984 . S
N159 C152 1.356 . S
N159 H162 0.984 . S
N159 H163 0.985 . S
H160 N155 0.984 . S
H161 N155 0.985 . S
H162 N159 0.984 . S
H163 N159 0.985 . S
H164 N158 0.984 . S
H165 N158 0.984 . S
H166 N154 0.984 . S
H167 N154 0.985 . S
C168 C169 1.363 . S
C168 C174 1.379 . S
C168 N176 1.356 . S
C169 C168 1.363 . S
C169 C175 1.363 . S
C170 C171 1.363 . S
C170 C175 1.379 . S
C170 N177 1.356 . S
C171 C170 1.363 . S
C171 C174 1.363 . S
N172 C174 1.356 . S
N172 H184 0.984 . S
N172 H185 0.985 . S
N173 C175 1.356 . S
N173 H178 0.984 . S
N173 H179 0.985 . S
C174 C168 1.379 . S
C174 C171 1.363 . S
C174 N172 1.356 . S
C175 C169 1.363 . S
C175 C170 1.379 . S
C175 N173 1.356 . S
N176 C168 1.356 . S
N176 H182 0.984 . S
N176 H183 0.984 . S
N177 C170 1.356 . S
N177 H180 0.984 . S
N177 H181 0.985 . S
H178 N173 0.984 . S
H179 N173 0.985 . S
H180 N177 0.984 . S
H181 N177 0.985 . S
H182 N176 0.984 . S
H183 N176 0.984 . S
H184 N172 0.984 . S
H185 N172 0.985 . S
C186 C187 1.363 . S
C186 C192 1.379 . S
C186 N194 1.356 . S
C187 C186 1.363 . S
C187 C193 1.363 . S
C188 C189 1.363 . S
C188 C193 1.379 . S
C188 N195 1.356 . S
C189 C188 1.363 . S
C189 C192 1.363 . S
N190 C192 1.356 . S
N190 H202 0.984 . S
N190 H203 0.985 . S
N191 C193 1.356 1_545 S
N191 H196 0.984 . S
N191 H197 0.985 . S
C192 C186 1.379 . S
C192 C189 1.363 . S
C192 N190 1.356 . S
C193 C187 1.363 . S
C193 C188 1.379 . S
C193 N191 1.356 1_565 S
N194 C186 1.356 . S
N194 H200 0.984 . S
N194 H201 0.984 . S
N195 C188 1.356 . S
N195 H198 0.984 . S
N195 H199 0.985 . S
H196 N191 0.984 . S
H197 N191 0.985 . S
H198 N195 0.984 . S
H199 N195 0.985 . S
H200 N194 0.984 . S
H201 N194 0.984 . S
H202 N190 0.984 . S
H203 N190 0.985 . S
C204 C205 1.363 1_655 S
C204 C210 1.379 . S
C204 N212 1.356 . S
C205 C204 1.363 1_455 S
C205 C211 1.363 . S
C206 C207 1.363 . S
C206 C211 1.379 . S
C206 N213 1.356 . S
C207 C206 1.363 . S
C207 C210 1.363 1_455 S
N208 C210 1.356 . S
N208 H220 0.984 . S
N208 H221 0.985 . S
N209 C211 1.356 1_545 S
N209 H214 0.984 . S
N209 H215 0.985 . S
C210 C204 1.379 . S
C210 C207 1.363 1_655 S
C210 N208 1.356 . S
C211 C205 1.363 . S
C211 C206 1.379 . S
C211 N209 1.356 1_565 S
N212 C204 1.356 . S
N212 H218 0.984 . S
N212 H219 0.984 . S
N213 C206 1.356 . S
N213 H216 0.984 . S
N213 H217 0.985 . S
H214 N209 0.984 . S
H215 N209 0.985 . S
H216 N213 0.984 . S
H217 N213 0.985 . S
H218 N212 0.984 . S
H219 N212 0.984 . S
H220 N208 0.984 . S
H221 N208 0.985 . S
C222 C223 1.363 . S
C222 C228 1.379 . S
C222 N230 1.356 . S
C223 C222 1.363 . S
C223 C229 1.363 . S
C224 C225 1.363 . S
C224 C229 1.379 . S
C224 N231 1.356 . S
C225 C224 1.363 . S
C225 C228 1.363 . S
N226 C228 1.356 . S
N226 H238 0.984 . S
N226 H239 0.985 . S
N227 C229 1.356 . S
N227 H232 0.984 . S
N227 H233 0.985 1_545 S
C228 C222 1.379 . S
C228 C225 1.363 . S
C228 N226 1.356 . S
C229 C223 1.363 . S
C229 C224 1.379 . S
C229 N227 1.356 . S
N230 C222 1.356 . S
N230 H236 0.984 . S
N230 H237 0.984 . S
N231 C224 1.356 . S
N231 H234 0.984 . S
N231 H235 0.985 1_545 S
H232 N227 0.984 . S
H233 N227 0.985 1_565 S
H234 N231 0.984 . S
H235 N231 0.985 1_565 S
H236 N230 0.984 . S
H237 N230 0.984 . S
H238 N226 0.984 . S
H239 N226 0.985 . S
C240 C241 1.363 . S
C240 C246 1.379 . S
C240 N248 1.356 . S
C241 C240 1.363 . S
C241 C247 1.363 . S
C242 C243 1.363 . S
C242 C247 1.379 . S
C242 N249 1.356 . S
C243 C242 1.363 . S
C243 C246 1.363 . S
N244 C246 1.356 . S
N244 H256 0.984 . S
N244 H257 0.985 . S
N245 C247 1.356 . S
N245 H250 0.984 . S
N245 H251 0.985 . S
C246 C240 1.379 . S
C246 C243 1.363 . S
C246 N244 1.356 . S
C247 C241 1.363 . S
C247 C242 1.379 . S
C247 N245 1.356 . S
N248 C240 1.356 . S
N248 H254 0.984 . S
N248 H255 0.984 . S
N249 C242 1.356 . S
N249 H252 0.984 . S
N249 H253 0.985 . S
H250 N245 0.984 . S
H251 N245 0.985 . S
H252 N249 0.984 . S
H253 N249 0.985 . S
H254 N248 0.984 . S
H255 N248 0.984 . S
H256 N244 0.984 . S
H257 N244 0.985 . S
C258 C259 1.363 . S
C258 C264 1.379 . S
C258 N266 1.356 . S
C259 C258 1.363 . S
C259 C265 1.363 . S
C260 C261 1.363 . S
C260 C265 1.379 . S
C260 N267 1.356 . S
C261 C260 1.363 . S
C261 C264 1.363 . S
N262 C264 1.356 . S
N262 H274 0.984 1_545 S
N262 H275 0.985 . S
N263 C265 1.356 . S
N263 H268 0.984 1_655 S
N263 H269 0.985 1_655 S
C264 C258 1.379 . S
C264 C261 1.363 . S
C264 N262 1.356 . S
C265 C259 1.363 . S
C265 C260 1.379 . S
C265 N263 1.356 . S
N266 C258 1.356 . S
N266 H272 0.984 1_545 S
N266 H273 0.984 . S
N267 C260 1.356 . S
N267 H270 0.984 . S
N267 H271 0.985 . S
H268 N263 0.984 1_455 S
H269 N263 0.985 1_455 S
H270 N267 0.984 . S
H271 N267 0.985 . S
H272 N266 0.984 1_565 S
H273 N266 0.984 . S
H274 N262 0.984 1_565 S
H275 N262 0.985 . S
C276 C277 1.363 . S
C276 C282 1.379 . S
C276 N284 1.356 1_556 S
C277 C276 1.363 . S
C277 C283 1.363 . S
C278 C279 1.363 . S
C278 C283 1.379 . S
C278 N285 1.356 . S
C279 C278 1.363 . S
C279 C282 1.363 . S
N280 C282 1.356 . S
N280 H292 0.984 . S
N280 H293 0.985 . S
N281 C283 1.356 1_545 S
N281 H286 0.984 . S
N281 H287 0.985 . S
C282 C276 1.379 . S
C282 C279 1.363 . S
C282 N280 1.356 . S
C283 C277 1.363 . S
C283 C278 1.379 . S
C283 N281 1.356 1_565 S
N284 C276 1.356 1_554 S
N284 H290 0.984 . S
N284 H291 0.984 . S
N285 C278 1.356 . S
N285 H288 0.984 . S
N285 H289 0.985 . S
H286 N281 0.984 . S
H287 N281 0.985 . S
H288 N285 0.984 . S
H289 N285 0.985 . S
H290 N284 0.984 . S
H291 N284 0.984 . S
H292 N280 0.984 . S
H293 N280 0.985 . S
C294 C295 1.363 1_655 S
C294 C300 1.379 . S
C294 N302 1.356 . S
C295 C294 1.363 1_455 S
C295 C301 1.363 . S
C296 C297 1.363 . S
C296 C301 1.379 . S
C296 N303 1.356 . S
C297 C296 1.363 . S
C297 C300 1.363 1_455 S
N298 C300 1.356 . S
N298 H310 0.984 . S
N298 H311 0.985 . S
N299 C301 1.356 1_545 S
N299 H304 0.984 . S
N299 H305 0.985 . S
C300 C294 1.379 . S
C300 C297 1.363 1_655 S
C300 N298 1.356 . S
C301 C295 1.363 . S
C301 C296 1.379 . S
C301 N299 1.356 1_565 S
N302 C294 1.356 . S
N302 H308 0.984 . S
N302 H309 0.984 . S
N303 C296 1.356 . S
N303 H306 0.984 . S
N303 H307 0.985 . S
H304 N299 0.984 . S
H305 N299 0.985 . S
H306 N303 0.984 . S
H307 N303 0.985 . S
H308 N302 0.984 . S
H309 N302 0.984 . S
H310 N298 0.984 . S
H311 N298 0.985 . S
C312 C313 1.363 . S
C312 C318 1.379 . S
C312 N320 1.356 1_545 S
C313 C312 1.363 . S
C313 C319 1.363 . S
C314 C315 1.363 . S
C314 C319 1.379 . S
C314 N321 1.356 . S
C315 C314 1.363 . S
C315 C318 1.363 . S
N316 C318 1.356 . S
N316 H328 0.984 1_545 S
N316 H329 0.985 . S
N317 C319 1.356 . S
N317 H322 0.984 . S
N317 H323 0.985 . S
C318 C312 1.379 . S
C318 C315 1.363 . S
C318 N316 1.356 . S
C319 C313 1.363 . S
C319 C314 1.379 . S
C319 N317 1.356 . S
N320 C312 1.356 1_565 S
N320 H326 0.984 . S
N320 H327 0.984 1_565 S
N321 C314 1.356 . S
N321 H324 0.984 . S
N321 H325 0.985 . S
H322 N317 0.984 . S
H323 N317 0.985 . S
H324 N321 0.984 . S
H325 N321 0.985 . S
H326 N320 0.984 . S
H327 N320 0.984 1_545 S
H328 N316 0.984 1_565 S
H329 N316 0.985 . S
C330 C331 1.363 . S
C330 C336 1.379 . S
C330 N338 1.356 . S
C331 C330 1.363 . S
C331 C337 1.363 . S
C332 C333 1.363 . S
C332 C337 1.379 . S
C332 N339 1.356 . S
C333 C332 1.363 . S
C333 C336 1.363 . S
N334 C336 1.356 . S
N334 H346 0.984 . S
N334 H347 0.985 . S
N335 C337 1.356 1_554 S
N335 H340 0.984 . S
N335 H341 0.985 . S
C336 C330 1.379 . S
C336 C333 1.363 . S
C336 N334 1.356 . S
C337 C331 1.363 . S
C337 C332 1.379 . S
C337 N335 1.356 1_556 S
N338 C330 1.356 . S
N338 H344 0.984 . S
N338 H345 0.984 . S
N339 C332 1.356 . S
N339 H342 0.984 . S
N339 H343 0.985 . S
H340 N335 0.984 . S
H341 N335 0.985 . S
H342 N339 0.984 . S
H343 N339 0.985 . S
H344 N338 0.984 . S
H345 N338 0.984 . S
H346 N334 0.984 . S
H347 N334 0.985 . S
C348 C349 1.363 . S
C348 C354 1.379 . S
C348 N356 1.356 . S
C349 C348 1.363 . S
C349 C355 1.363 . S
C350 C351 1.363 . S
C350 C355 1.379 . S
C350 N357 1.356 . S
C351 C350 1.363 . S
C351 C354 1.363 . S
N352 C354 1.356 . S
N352 H364 0.984 . S
N352 H365 0.985 . S
N353 C355 1.356 . S
N353 H358 0.984 . S
N353 H359 0.985 . S
C354 C348 1.379 . S
C354 C351 1.363 . S
C354 N352 1.356 . S
C355 C349 1.363 . S
C355 C350 1.379 . S
C355 N353 1.356 . S
N356 C348 1.356 . S
N356 H362 0.984 . S
N356 H363 0.984 . S
N357 C350 1.356 . S
N357 H360 0.984 . S
N357 H361 0.985 . S
H358 N353 0.984 . S
H359 N353 0.985 . S
H360 N357 0.984 . S
H361 N357 0.985 . S
H362 N356 0.984 . S
H363 N356 0.984 . S
H364 N352 0.984 . S
H365 N352 0.985 . S
C153 C109 1.483 . S
C151 C14 1.447 . S
C169 C40 1.469 . S
C171 C135 1.488 . S
C187 C76 1.457 . S
C189 C137 1.474 . S
C205 C3 1.454 . S
C207 C121 1.455 . S
C225 C123 1.489 . S
C223 C38 1.471 . S
C241 C74 1.452 . S
C243 C149 1.471 . S
C261 C122 1.452 . S
C259 C86 1.417 . S
C277 C2 1.454 1_566 S
C279 C148 1.472 . S
C297 C108 1.456 . S
C295 C39 1.455 . S
C315 C134 1.465 . S
C313 C75 1.466 . S
C333 C136 1.477 . S
C331 C4 1.458 1_556 S
C349 C50 1.448 . S
C351 C120 1.484 . S
