# Generated by pormake.
# Topology rtl, (3,6)-cn, num edge types: 1
# Building blocks:
#     Node 0, Type 0, BuildingBlock: WUSLED_clean_sbu_0, # of connection points: 3
#     Node 1, Type 0, BuildingBlock: WUSLED_clean_sbu_0, # of connection points: 3
#     Node 2, Type 0, BuildingBlock: WUSLED_clean_sbu_0, # of connection points: 3
#     Node 3, Type 0, BuildingBlock: WUSLED_clean_sbu_0, # of connection points: 3
#     Node 4, Type 1, BuildingBlock: KUMBUR_clean_sbu_1, # of connection points: 6
#     Node 5, Type 1, BuildingBlock: KUMBUR_clean_sbu_1, # of connection points: 6
#     Edge 6, Type (0, 1), BuildingBlock: UVAHIK_clean_linker_0, # of connection points: 2
#     Edge 7, Type (0, 1), BuildingBlock: UVAHIK_clean_linker_0, # of connection points: 2
#     Edge 8, Type (0, 1), BuildingBlock: UVAHIK_clean_linker_0, # of connection points: 2
#     Edge 9, Type (0, 1), BuildingBlock: UVAHIK_clean_linker_0, # of connection points: 2
#     Edge 10, Type (0, 1), BuildingBlock: UVAHIK_clean_linker_0, # of connection points: 2
#     Edge 11, Type (0, 1), BuildingBlock: UVAHIK_clean_linker_0, # of connection points: 2
#     Edge 12, Type (0, 1), BuildingBlock: UVAHIK_clean_linker_0, # of connection points: 2
#     Edge 13, Type (0, 1), BuildingBlock: UVAHIK_clean_linker_0, # of connection points: 2
#     Edge 14, Type (0, 1), BuildingBlock: UVAHIK_clean_linker_0, # of connection points: 2
#     Edge 15, Type (0, 1), BuildingBlock: UVAHIK_clean_linker_0, # of connection points: 2
#     Edge 16, Type (0, 1), BuildingBlock: UVAHIK_clean_linker_0, # of connection points: 2
#     Edge 17, Type (0, 1), BuildingBlock: UVAHIK_clean_linker_0, # of connection points: 2
# Relax obj value: 0.016
# Max RMSD: 0.092
# Mean RMSD: 0.053
data_MOF--net-rtl--node1-WUSLED_clean_sbu_0--node2-KUMBUR_clean_sbu_1--edge1-UVAHIK_clean_linker_0
_symmetry_space_group_name_H-M    P1
_symmetry_Int_Tables_number       1
_symmetry_cell_setting            triclinic
loop_
_symmetry_equiv_pos_as_xyz
'x, y, z'
_cell_length_a     51.820712
_cell_length_b     52.252516
_cell_length_c     44.101023
_cell_angle_alpha  82.803251
_cell_angle_beta   99.384095
_cell_angle_gamma 90.639607
loop_
_atom_site_label
_atom_site_type_symbol
_atom_site_fract_x
_atom_site_fract_y
_atom_site_fract_z
_atom_type_partial_charge
C0 C 0.19641 0.84254 0.10599 0.0
C1 C 0.20202 0.86781 0.11278 0.0
C2 C 0.17417 0.86276 0.15274 0.0
C3 C 0.19103 0.87778 0.13588 0.0
C4 C 0.16857 0.83752 0.14581 0.0
C5 C 0.17964 0.82752 0.12285 0.0
U6 U 0.20491 0.83824 0.02171 0.0
O7 O 0.24003 0.83164 1.00161 0.0
O8 O 0.20777 0.804 0.99787 0.0
C9 C 0.2318 0.80926 0.99324 0.0
C10 C 0.20836 0.8312 0.08227 0.0
C11 C 0.25074 0.78747 1.00032 0.0
C12 C 0.29403 0.76952 0.02174 0.0
C13 C 0.27564 0.78957 0.01807 0.0
C14 C 0.26276 0.74466 0.99074 0.0
C15 C 0.28796 0.74695 1.00773 0.0
C16 C 0.24445 0.76471 0.98699 0.0
C17 C 0.16613 0.88345 0.95566 0.0
C18 C 0.16201 0.87658 0.90157 0.0
C19 C 0.14643 0.91653 0.91509 0.0
C20 C 0.15442 0.90783 0.9465 0.0
C21 C 0.14993 0.90093 0.89225 0.0
C22 C 0.17012 0.86795 0.93301 0.0
C23 C 0.17362 0.8743 0.98886 0.0
O24 O 0.19255 0.81795 0.06373 0.0
O25 O 0.22459 0.84576 0.06782 0.0
O26 O 0.19794 0.87866 1.00089 0.0
O27 O 0.16575 0.85099 0.99787 0.0
H28 H 0.21503 0.87989 0.10045 0.0
H29 H 0.19612 0.89715 0.14086 0.0
H30 H 0.15539 0.82548 0.15793 0.0
H31 H 0.17508 0.80795 0.11826 0.0
H32 H 0.3133 0.77207 0.03472 0.0
H33 H 0.28117 0.80691 0.02855 0.0
H34 H 0.25721 0.7274 0.98008 0.0
H35 H 0.22545 0.76262 0.97311 0.0
H36 H 0.16527 0.86424 0.88455 0.0
H37 H 0.13695 0.93524 0.90873 0.0
H38 H 0.15119 0.92003 0.96368 0.0
H39 H 0.17932 0.84912 0.93965 0.0
C40 C 0.67651 0.6846 0.68326 0.0
C41 C 0.66169 0.66241 0.67832 0.0
C42 C 0.65152 0.65897 0.73086 0.0
C43 C 0.64936 0.64968 0.70191 0.0
C44 C 0.66637 0.6813 0.73555 0.0
C45 C 0.67872 0.69394 0.712 0.0
U46 U 0.68948 0.69489 0.59971 0.0
O47 O 0.69381 0.73073 0.5688 0.0
O48 O 0.72611 0.70256 0.58121 0.0
C49 C 0.71808 0.72527 0.56659 0.0
C50 C 0.68973 0.69818 0.65878 0.0
C51 C 0.73698 0.74658 0.56869 0.0
C52 C 0.77354 0.76872 0.59601 0.0
C53 C 0.75463 0.74925 0.59586 0.0
C54 C 0.75701 0.78325 0.54209 0.0
C55 C 0.77509 0.78588 0.56901 0.0
C56 C 0.73821 0.76386 0.54199 0.0
C57 C 0.65396 0.65223 0.54149 0.0
C58 C 0.65074 0.66082 0.48545 0.0
C59 C 0.63874 0.61898 0.50913 0.0
C60 C 0.64486 0.6272 0.5384 0.0
C61 C 0.64153 0.63568 0.48226 0.0
C62 C 0.65701 0.66899 0.51484 0.0
C63 C 0.65987 0.6604 0.57267 0.0
O64 O 0.70683 0.6844 0.64863 0.0
O65 O 0.67451 0.71244 0.63638 0.0
O66 O 0.65143 0.68349 0.57543 0.0
O67 O 0.68372 0.65536 0.58754 0.0
H68 H 0.65964 0.65495 0.65621 0.0
H69 H 0.63785 0.63275 0.69732 0.0
H70 H 0.66878 0.68882 0.75762 0.0
H71 H 0.69011 0.71102 0.71627 0.0
H72 H 0.78693 0.77034 0.61725 0.0
H73 H 0.75402 0.73612 0.61678 0.0
H74 H 0.7578 0.79572 0.52073 0.0
H75 H 0.72491 0.76202 0.52071 0.0
H76 H 0.65336 0.67407 0.46526 0.0
H77 H 0.63137 0.59963 0.50752 0.0
H78 H 0.64233 0.614 0.55869 0.0
H79 H 0.66417 0.68838 0.51675 0.0
C80 C 0.829 0.16529 0.12244 0.0
C81 C 0.85185 0.15106 0.12261 0.0
C82 C 0.85509 0.1382 0.17823 0.0
C83 C 0.86483 0.13767 0.1503 0.0
C84 C 0.83197 0.15224 0.17771 0.0
C85 C 0.81909 0.16566 0.15008 0.0
U86 U 0.81656 0.18317 0.03423 0.0
O87 O 0.77959 0.19265 1.00263 0.0
O88 O 0.81048 0.22166 1.0072 0.0
C89 C 0.78602 0.21692 0.99616 0.0
C90 C 0.81555 0.1803 0.09392 0.0
C91 C 0.76678 0.23635 1.00004 0.0
C92 C 0.73419 0.25139 0.02786 0.0
C93 C 0.75229 0.23268 0.02449 0.0
C94 C 0.74523 0.27792 0.98279 0.0
C95 C 0.73038 0.27428 1.00702 0.0
C96 C 0.76318 0.25912 0.97932 0.0
C97 C 0.85571 0.14727 0.98459 0.0
C98 C 0.84528 0.14269 0.92968 0.0
C99 C 0.8886 0.13147 0.95789 0.0
C100 C 0.88115 0.1384 0.98483 0.0
C101 C 0.87068 0.13316 0.93004 0.0
C102 C 0.83785 0.14968 0.95674 0.0
C103 C 0.84823 0.15277 0.014 0.0
O104 O 0.83021 0.19663 0.07931 0.0
O105 O 0.79965 0.16729 0.07525 0.0
O106 O 0.82447 0.14616 0.01858 0.0
O107 O 0.85534 0.17525 0.02287 0.0
H108 H 0.85972 0.15048 0.1014 0.0
H109 H 0.88241 0.12682 0.14983 0.0
H110 H 0.82411 0.15335 0.19882 0.0
H111 H 0.8015 0.1766 0.15036 0.0
H112 H 0.72294 0.24772 0.04657 0.0
H113 H 0.75489 0.21531 0.04093 0.0
H114 H 0.74325 0.29546 0.96664 0.0
H115 H 0.77437 0.26243 0.9605 0.0
H116 H 0.83094 0.1441 0.90872 0.0
H117 H 0.90845 0.12475 0.95892 0.0
H118 H 0.89525 0.13651 1.00604 0.0
H119 H 0.81809 0.15655 0.95602 0.0
C120 C 0.34811 0.33608 0.36807 0.0
C121 C 0.37336 0.34602 0.3753 0.0
C122 C 0.37338 0.36187 0.32079 0.0
C123 C 0.38592 0.35868 0.35187 0.0
C124 C 0.34796 0.35211 0.31379 0.0
C125 C 0.33551 0.33932 0.33717 0.0
U126 U 0.33529 0.32302 0.45181 0.0
O127 O 0.29862 0.31515 0.47022 0.0
O128 O 0.33037 0.2863 0.48084 0.0
C129 C 0.30621 0.29188 0.4834 0.0
C130 C 0.33468 0.32212 0.39223 0.0
C131 C 0.2869 0.27085 0.48057 0.0
C132 C 0.24458 0.25414 0.45923 0.0
C133 C 0.26387 0.27319 0.45854 0.0
C134 C 0.2714 0.22985 0.50328 0.0
C135 C 0.24789 0.23248 0.48205 0.0
C136 C 0.2906 0.24881 0.50256 0.0
C137 C 0.37213 0.36207 0.51293 0.0
C138 C 0.36363 0.35864 0.56594 0.0
C139 C 0.39933 0.38491 0.55082 0.0
C140 C 0.39308 0.37845 0.52068 0.0
C141 C 0.38472 0.37508 0.57387 0.0
C142 C 0.35743 0.35213 0.53573 0.0
C143 C 0.36597 0.35562 0.481 0.0
O144 O 0.34941 0.30666 0.41388 0.0
O145 O 0.31805 0.33584 0.40322 0.0
O146 O 0.34218 0.36157 0.46649 0.0
O147 O 0.37379 0.33268 0.47678 0.0
H148 H 0.38341 0.34394 0.39904 0.0
H149 H 0.40534 0.36623 0.35815 0.0
H150 H 0.33782 0.35396 0.2901 0.0
H151 H 0.31604 0.3318 0.33108 0.0
H152 H 0.22667 0.25686 0.44264 0.0
H153 H 0.26042 0.29003 0.44135 0.0
H154 H 0.27485 0.21323 0.52079 0.0
H155 H 0.30814 0.24658 0.51983 0.0
H156 H 0.35214 0.35053 0.58317 0.0
H157 H 0.41542 0.39792 0.55594 0.0
H158 H 0.4046 0.38635 0.50336 0.0
H159 H 0.34122 0.33934 0.53015 0.0
Tb160 Tb 0.03257 0.98358 0.50763 0.0
C161 C 0.97285 0.08292 0.5002 0.0
N162 N 0.99459 0.07488 0.52073 0.0
C163 C 0.01441 0.11605 0.50963 0.0
C164 C 0.97161 0.10732 0.48228 0.0
C165 C 0.01442 0.09183 0.52723 0.0
C166 C 0.99315 0.12361 0.48655 0.0
C167 C 0.92745 0.0755 0.47965 0.0
C168 C 0.95107 0.06736 0.49889 0.0
C169 C 0.92648 0.09917 0.46046 0.0
C170 C 0.94856 0.11504 0.46173 0.0
Tb171 Tb 0.9929 0.03387 0.5461 0.0
N172 N 0.95299 0.04432 0.51714 0.0
C173 C 0.90549 0.05973 0.48067 0.0
C174 C 0.93136 0.02951 0.51959 0.0
C175 C 0.90736 0.03682 0.50109 0.0
H176 H 0.03015 0.08699 0.54631 0.0
H177 H 0.89037 0.02478 0.50253 0.0
H178 H 0.01039 0.92717 0.53327 0.0
H179 H 0.13188 0.01919 0.51484 0.0
H180 H 0.93279 0.01186 0.53542 0.0
H181 H 0.88693 0.06529 0.46626 0.0
H182 H 0.08565 0.0168 0.49135 0.0
H183 H 0.03058 0.12904 0.5143 0.0
H184 H 0.90863 0.10563 0.44511 0.0
H185 H 0.94733 0.13358 0.44747 0.0
H186 H 0.02652 0.88935 0.57108 0.0
H187 H 0.99302 0.14252 0.47324 0.0
H188 H 0.15037 0.98728 0.55914 0.0
N189 N 0.04599 0.94769 0.54127 0.0
C190 C 0.07131 0.94701 0.55537 0.0
C191 C 0.03926 0.90555 0.56705 0.0
C192 C 0.08137 0.92603 0.57715 0.0
C193 C 0.03016 0.92695 0.54574 0.0
C194 C 0.06487 0.90524 0.58318 0.0
N195 N 0.07676 0.98621 0.52471 0.0
C196 C 0.09291 1.00376 0.51184 0.0
C197 C 0.11377 0.96711 0.56056 0.0
C198 C 0.08712 0.96728 0.54725 0.0
C199 C 0.12978 0.98667 0.54955 0.0
C200 C 0.1194 1.00476 0.52462 0.0
H201 H 0.07184 0.88871 0.59975 0.0
H202 H 0.11564 0.91058 0.60884 0.0
H203 H 0.1441 0.94656 0.59422 0.0
O204 O 0.05433 0.96996 0.47628 0.0
O205 O 0.02919 0.9778 0.5571 0.0
O206 O 0.03062 0.01849 0.57108 0.0
O207 O 0.01389 0.96056 0.47496 0.0
O208 O 0.0423 0.02492 0.49996 0.0
O209 O 0.03457 0.04179 0.54381 0.0
O210 O 0.97723 0.02225 0.58678 0.0
O211 O 0.97831 0.02232 0.50007 0.0
O212 O 0.01499 0.01794 0.47859 0.0
O213 O 0.98429 0.06209 0.57322 0.0
O214 O 0.98052 0.99337 0.55239 0.0
O215 O 0.99166 0.97353 0.51153 0.0
C216 C 0.03662 0.99387 0.57734 0.0
C217 C 0.02937 0.96721 0.42706 0.0
C218 C 0.04172 0.96472 0.37619 0.0
C219 C 0.02081 0.98157 0.3627 0.0
C220 C 0.00863 0.98392 0.41292 0.0
C221 C 1.00447 0.99109 0.38097 0.0
C222 C 0.04586 0.95764 0.4086 0.0
C223 C 0.04713 0.0418 0.52004 0.0
C224 C 0.03405 0.95986 0.46099 0.0
C225 C 0.10756 0.92636 0.59171 0.0
C226 C 0.12374 0.94689 0.58345 0.0
C227 C 0.99061 0.02547 0.47617 0.0
C228 C 0.98923 0.0482 0.62661 0.0
C229 C 0.98484 0.05605 0.67904 0.0
C230 C 0.01208 0.0528 0.68781 0.0
C231 C 0.01635 0.0455 0.63576 0.0
C232 C 0.97352 0.05366 0.64822 0.0
C233 C 0.02767 0.04762 0.66626 0.0
C234 C 0.97759 0.97513 0.5338 0.0
C235 C 0.97724 0.0454 0.59459 0.0
H236 H 0.01675 0.98708 0.33787 0.0
H237 H 0.99551 0.99132 0.42652 0.0
H238 H 0.98839 1.00394 0.3703 0.0
H239 H 0.06201 0.94493 0.41953 0.0
H240 H 0.02142 0.05478 0.71122 0.0
H241 H 0.02874 0.04192 0.61925 0.0
H242 H 0.95254 0.05579 0.64111 0.0
H243 H 0.04863 0.04542 0.67317 0.0
Tb244 Tb 0.48532 0.49127 0.99453 0.0
C245 C 0.59018 0.54088 0.02965 0.0
N246 N 0.58018 0.52012 0.04545 0.0
C247 C 0.62074 0.49718 0.04937 0.0
C248 C 0.61534 0.5401 0.02155 0.0
C249 C 0.59585 0.49918 0.05734 0.0
C250 C 0.63031 0.51751 0.03076 0.0
C251 C 0.5862 0.5863 1.00974 0.0
C252 C 0.57594 0.56364 0.02387 0.0
C253 C 0.61062 0.58532 0.99998 0.0
C254 C 0.62515 0.56223 1.00582 0.0
Tb255 Tb 0.53828 0.5251 0.05465 0.0
N256 N 0.55218 0.56366 0.03301 0.0
C257 C 0.57179 0.60929 1.00643 0.0
C258 C 0.5387 0.58623 0.03153 0.0
C259 C 0.54813 0.60932 0.01783 0.0
H260 H 0.58943 0.48412 0.0734 0.0
H261 H 0.53713 0.62709 0.01601 0.0
H262 H 0.42948 0.51766 1.00083 0.0
H263 H 0.51552 0.39073 1.00952 0.0
H264 H 0.52046 0.58626 0.04041 0.0
H265 H 0.579 0.62716 0.99573 0.0
H266 H 0.51601 0.43635 0.98769 0.0
H267 H 0.6327 0.48016 0.05808 0.0
H268 H 0.61872 0.60243 0.98864 0.0
H269 H 0.64431 0.56192 0.99904 0.0
H270 H 0.38993 0.50482 0.02367 0.0
H271 H 0.64974 0.51608 0.025 0.0
H272 H 0.48169 0.37513 0.04086 0.0
N273 N 0.44794 0.48096 0.01414 0.0
C274 C 0.44557 0.45609 0.02642 0.0
C275 C 0.40554 0.49098 0.02481 0.0
C276 C 0.42357 0.44788 0.03987 0.0
C277 C 0.42792 0.49822 0.01198 0.0
C278 C 0.40351 0.46578 0.03923 0.0
N279 N 0.48529 0.4476 0.01017 0.0
C280 C 0.50224 0.4303 1.00297 0.0
C281 C 0.46339 0.41273 0.03675 0.0
C282 C 0.46526 0.43892 0.02498 0.0
C283 C 0.48238 0.39543 0.03219 0.0
C284 C 0.50156 0.40417 0.01462 0.0
H285 H 0.38623 0.46025 0.04929 0.0
H286 H 0.40563 0.41542 0.0639 0.0
H287 H 0.4405 0.38456 0.06107 0.0
O288 O 0.47078 0.47089 0.95699 0.0
O289 O 0.47929 0.49465 0.04218 0.0
O290 O 0.52009 0.48896 0.0708 0.0
O291 O 0.4629 0.51125 0.95477 0.0
O292 O 0.52647 0.47872 1.0007 0.0
O293 O 0.5438 0.4837 0.0514 0.0
O294 O 0.52639 0.54043 0.0922 0.0
O295 O 0.52859 0.54136 1.00544 0.0
O296 O 0.52111 0.50644 0.97876 0.0
O297 O 0.56655 0.53098 0.09317 0.0
O298 O 0.49824 0.54102 0.04637 0.0
O299 O 0.47812 0.53226 0.99736 0.0
C300 C 0.49473 0.4855 0.06775 0.0
C301 C 0.46977 0.49588 0.9085 0.0
C302 C 0.46836 0.48379 0.85639 0.0
C303 C 0.48688 0.50299 0.85084 0.0
C304 C 0.48811 0.51501 0.90222 0.0
C305 C 0.49661 0.51847 0.8736 0.0
C306 C 0.4598 0.48041 0.8854 0.0
C307 C 0.54344 0.47234 0.02623 0.0
C308 C 0.46156 0.49155 0.93928 0.0
C309 C 0.42222 0.42209 0.05307 0.0
C310 C 0.44212 0.40455 0.05155 0.0
C311 C 0.53079 0.52954 0.9814 0.0
C312 C 0.55118 0.52585 0.14078 0.0
C313 C 0.55832 0.52815 0.19658 0.0
C314 C 0.5536 0.50149 0.20156 0.0
C315 C 0.54701 0.49925 0.1464 0.0
C316 C 0.55702 0.54025 0.16591 0.0
C317 C 0.54802 0.4872 0.17662 0.0
C318 C 0.48029 0.54567 0.02122 0.0
C319 C 0.54958 0.53858 0.10881 0.0
H320 H 0.4936 0.50629 0.82868 0.0
H321 H 0.49588 0.52733 0.91942 0.0
H322 H 0.51075 0.53327 0.86901 0.0
H323 H 0.44578 0.46551 0.8902 0.0
H324 H 0.55475 0.49154 0.22482 0.0
H325 H 0.54315 0.48781 0.12741 0.0
H326 H 0.56033 0.5608 0.16156 0.0
H327 H 0.5447 0.46666 0.18075 0.0
C328 C 0.22085 0.20341 0.51406 0.0
C329 C 0.22661 0.21324 0.48474 0.0
C330 C 0.20095 0.18541 0.51694 0.0
C331 C 0.16188 0.13679 0.47594 0.0
H332 H 0.11627 0.14264 0.5363 0.0
C333 C 0.07249 0.07028 0.48559 0.0
C334 C 0.06725 0.06169 0.51544 0.0
C335 C 0.09145 0.08907 0.48118 0.0
C336 C 0.12901 0.1405 0.51959 0.0
H337 H 0.2158 0.21168 0.43542 0.0
H338 H 0.18083 0.18034 0.44043 0.0
H339 H 0.14992 0.17483 0.52959 0.0
H340 H 0.07798 0.0658 0.56413 0.0
H341 H 0.11125 0.09838 0.55658 0.0
H342 H 0.14112 0.10232 0.46614 0.0
C343 C 0.19193 0.18648 0.46123 0.0
C344 C 0.14831 0.15902 0.51569 0.0
C345 C 0.21181 0.20463 0.45833 0.0
C346 C 0.08142 0.07224 0.54081 0.0
C347 C 0.10042 0.09099 0.53643 0.0
C348 C 0.1426 0.1182 0.4799 0.0
C349 C 0.18622 0.17667 0.49059 0.0
C350 C 0.1651 0.15735 0.49394 0.0
C351 C 0.10569 0.0997 0.50654 0.0
C352 C 0.12597 0.11973 0.50189 0.0
H353 H 0.23157 0.20984 0.5349 0.0
H354 H 0.19731 0.1781 0.53993 0.0
H355 H 0.17466 0.1347 0.45926 0.0
H356 H 0.06172 0.06265 0.46555 0.0
H357 H 0.09466 0.09553 0.4578 0.0
C358 C 0.32562 0.71925 0.0374 0.0
C359 C 0.30802 0.72627 1.00982 0.0
C360 C 0.34464 0.70008 0.03901 0.0
C361 C 0.37992 0.66548 0.98932 0.0
H362 H 0.39586 0.61571 0.06287 0.0
C363 C 0.4431 0.57429 0.9929 0.0
C364 C 0.46127 0.567 0.01991 0.0
C365 C 0.42489 0.59407 0.9919 0.0
C366 C 0.39186 0.62963 0.04229 0.0
H367 H 0.297 0.71871 0.96216 0.0
H368 H 0.32957 0.68494 0.96523 0.0
H369 H 0.36322 0.6494 0.06088 0.0
H370 H 0.47452 0.57508 0.06703 0.0
H371 H 0.44292 0.60964 0.06512 0.0
H372 H 0.40843 0.6456 0.97066 0.0
C373 C 0.32891 0.69444 0.98556 0.0
C374 C 0.37314 0.64899 0.04115 0.0
C375 C 0.30995 0.7136 0.98393 0.0
C376 C 0.46083 0.58011 0.04582 0.0
C377 C 0.44258 0.59984 0.04483 0.0
C378 C 0.39858 0.64611 0.99043 0.0
C379 C 0.34656 0.68746 0.01308 0.0
C380 C 0.36685 0.66711 0.0146 0.0
C381 C 0.42434 0.60704 0.01788 0.0
C382 C 0.40473 0.62789 0.01689 0.0
H383 H 0.32458 0.72844 0.05786 0.0
H384 H 0.35805 0.69538 0.06051 0.0
H385 H 0.37595 0.67938 0.96871 0.0
H386 H 0.4428 0.56466 0.97249 0.0
H387 H 0.41093 0.59891 0.97088 0.0
C388 C 0.79028 0.83042 0.55117 0.0
C389 C 0.79582 0.80597 0.56832 0.0
C390 C 0.81004 0.84863 0.54852 0.0
C391 C 0.87638 0.86653 0.58413 0.0
H392 H 0.87826 0.90428 0.50299 0.0
C393 C 0.94452 0.95373 0.5643 0.0
C394 C 0.95721 0.95534 0.53823 0.0
C395 C 0.9253 0.93518 0.56852 0.0
C396 C 0.87812 0.8938 0.52576 0.0
H397 H 0.82671 0.78185 0.5966 0.0
H398 H 0.86113 0.81377 0.59227 0.0
H399 H 0.84396 0.87272 0.50981 0.0
H400 H 0.9595 0.9385 0.49619 0.0
H401 H 0.92593 0.90624 0.50356 0.0
H402 H 0.91068 0.88754 0.60001 0.0
C403 C 0.84138 0.81884 0.58097 0.0
C404 C 0.85828 0.8759 0.52976 0.0
C405 C 0.8216 0.80055 0.58352 0.0
C406 C 0.95017 0.93788 0.51653 0.0
C407 C 0.9308 0.91945 0.52065 0.0
C408 C 0.89612 0.88459 0.58018 0.0
C409 C 0.83591 0.84298 0.56307 0.0
C410 C 0.85712 0.86204 0.55899 0.0
C411 C 0.91811 0.91786 0.5467 0.0
C412 C 0.89725 0.89845 0.55093 0.0
H413 H 0.77059 0.83553 0.53968 0.0
H414 H 0.80502 0.86721 0.53507 0.0
H415 H 0.87598 0.85632 0.60699 0.0
H416 H 0.94942 0.96679 0.58156 0.0
H417 H 0.91574 0.93469 0.58867 0.0
C418 C 0.69582 0.30786 0.98405 0.0
C419 C 0.71091 0.29418 0.01037 0.0
C420 C 0.67764 0.32658 0.98705 0.0
C421 C 0.65943 0.36851 0.04262 0.0
H422 H 0.5944 0.37594 0.98453 0.0
C423 C 0.57417 0.43673 0.0536 0.0
C424 C 0.56291 0.45182 0.02607 0.0
C425 C 0.59226 0.41714 0.05295 0.0
C426 C 0.61255 0.37421 1.00081 0.0
H427 H 0.71867 0.2898 0.06062 0.0
H428 H 0.68636 0.32178 0.06587 0.0
H429 H 0.62551 0.34223 0.98121 0.0
H430 H 0.56193 0.45837 0.97636 0.0
H431 H 0.59309 0.42406 0.97519 0.0
H432 H 0.64611 0.40045 0.06236 0.0
C433 C 0.6889 0.31833 0.04282 0.0
C434 C 0.63047 0.35493 0.99886 0.0
C435 C 0.70722 0.29969 0.03981 0.0
C436 C 0.5701 0.44693 0.99794 0.0
C437 C 0.58791 0.42724 0.99725 0.0
C438 C 0.64136 0.3877 0.04472 0.0
C439 C 0.67384 0.33204 0.01647 0.0
C440 C 0.65431 0.35198 0.01949 0.0
C441 C 0.59915 0.41206 0.02471 0.0
C442 C 0.61786 0.39094 0.0236 0.0
H443 H 0.69781 0.30397 0.961 0.0
H444 H 0.66674 0.33696 0.96619 0.0
H445 H 0.67769 0.36707 0.05868 0.0
H446 H 0.5688 0.43987 0.07557 0.0
H447 H 0.60045 0.40562 0.07445 0.0
C448 C 0.1594 0.85743 0.20488 0.0
C449 C 0.16251 0.87328 0.17748 0.0
C450 C 0.14804 0.86713 0.22783 0.0
C451 C 0.13326 0.92781 0.25688 0.0
H452 H 0.08134 0.88675 0.29452 0.0
C453 C 0.06593 0.97018 0.33079 0.0
C454 C 0.0587 0.95436 0.35622 0.0
C455 C 0.0803 0.96015 0.3107 0.0
C456 C 0.0961 0.89833 0.28466 0.0
H457 H 0.15588 0.91189 0.15291 0.0
H458 H 0.13637 0.92884 0.19309 0.0
H459 H 0.103 0.86958 0.25622 0.0
H460 H 0.06154 0.91559 0.38076 0.0
H461 H 0.08722 0.89823 0.34618 0.0
H462 H 0.12641 0.95656 0.28529 0.0
C463 C 0.14297 0.90893 0.1969 0.0
C464 C 0.10849 0.88848 0.26261 0.0
C465 C 0.1542 0.89919 0.17385 0.0
C466 C 0.06689 0.92838 0.36154 0.0
C467 C 0.08134 0.91834 0.34145 0.0
C468 C 0.12097 0.93761 0.27904 0.0
C469 C 0.13963 0.89298 0.2241 0.0
C470 C 0.12707 0.90318 0.24827 0.0
C471 C 0.08797 0.93402 0.31554 0.0
C472 C 0.10206 0.92309 0.29306 0.0
H473 H 0.16601 0.83752 0.2088 0.0
H474 H 0.14612 0.85443 0.2487 0.0
H475 H 0.14778 0.93947 0.24663 0.0
H476 H 0.06031 0.99037 0.32621 0.0
H477 H 0.08479 0.97278 0.29088 0.0
C478 C 0.63832 0.61834 0.76171 0.0
C479 C 0.63849 0.64545 0.75613 0.0
C480 C 0.62653 0.60571 0.7858 0.0
C481 C 0.57837 0.61548 0.83724 0.0
H482 H 0.61258 0.55559 0.88807 0.0
C483 C 0.54277 0.5698 0.94956 0.0
C484 C 0.54324 0.54279 0.95584 0.0
C485 C 0.55442 0.58225 0.92528 0.0
C486 C 0.60258 0.5721 0.8739 0.0
H487 H 0.62581 0.68045 0.77134 0.0
H488 H 0.60563 0.6585 0.81352 0.0
H489 H 0.63253 0.57723 0.84549 0.0
H490 H 0.55579 0.50755 0.94121 0.0
H491 H 0.57569 0.52915 0.89847 0.0
H492 H 0.5484 0.61034 0.8656 0.0
C493 C 0.61448 0.64695 0.79915 0.0
C494 C 0.61404 0.58453 0.84943 0.0
C495 C 0.62634 0.65957 0.77514 0.0
C496 C 0.55528 0.52843 0.93705 0.0
C497 C 0.56687 0.54084 0.91271 0.0
C498 C 0.5669 0.60304 0.86168 0.0
C499 C 0.61448 0.61985 0.80489 0.0
C500 C 0.60212 0.60642 0.83079 0.0
C501 C 0.56662 0.56794 0.90648 0.0
C502 C 0.57885 0.58119 0.88039 0.0
H503 H 0.64768 0.60682 0.74776 0.0
H504 H 0.62668 0.58483 0.78929 0.0
H505 H 0.5684 0.63202 0.8231 0.0
H506 H 0.53312 0.58134 0.96318 0.0
H507 H 0.55402 0.60313 0.92141 0.0
C508 C 0.89659 0.12575 0.21521 0.0
C509 C 0.86918 0.12471 0.20795 0.0
C510 C 0.90971 0.11414 0.2438 0.0
C511 C 0.89891 0.09168 0.32366 0.0
H512 H 0.96519 0.05607 0.33003 0.0
C513 C 0.9495 0.03365 0.43769 0.0
C514 C 0.97663 0.03649 0.4455 0.0
C515 C 0.93634 0.04406 0.40861 0.0
C516 C 0.94682 0.06618 0.32867 0.0
H517 H 0.83418 0.1098 0.22469 0.0
H518 H 0.85704 0.08947 0.27445 0.0
H519 H 0.94232 0.07443 0.27928 0.0
H520 H 0.01145 0.05195 0.4289 0.0
H521 H 0.98854 0.07007 0.378 0.0
H522 H 0.90343 0.08347 0.37305 0.0
C523 C 0.86837 0.09972 0.2583 0.0
C524 C 0.93371 0.07671 0.29958 0.0
C525 C 0.85526 0.11135 0.22974 0.0
C526 C 0.99048 0.04952 0.42349 0.0
C527 C 0.97737 0.05981 0.39433 0.0
C528 C 0.912 0.08115 0.35273 0.0
C529 C 0.89575 0.10116 0.26581 0.0
C530 C 0.90959 0.08962 0.29671 0.0
C531 C 0.95012 0.05726 0.38657 0.0
C532 C 0.93613 0.06831 0.3556 0.0
H533 H 0.90788 0.13617 0.19913 0.0
H534 H 0.93077 0.11592 0.24895 0.0
H535 H 0.8806 0.10188 0.32238 0.0
H536 H 0.93848 0.02307 0.45392 0.0
H537 H 0.91541 0.04139 0.40321 0.0
C538 C 0.37188 0.38813 0.62257 0.0
C539 C 0.39151 0.38216 0.60592 0.0
C540 C 0.37843 0.39593 0.65211 0.0
C541 C 0.43337 0.39651 0.71797 0.0
H542 H 0.3961 0.45504 0.73656 0.0
C543 C 0.4752 0.45781 0.81416 0.0
C544 C 0.4581 0.46765 0.83165 0.0
C545 C 0.46557 0.44445 0.78922 0.0
C546 C 0.40644 0.43841 0.73199 0.0
H547 H 0.43344 0.37887 0.60787 0.0
H548 H 0.44485 0.39288 0.65891 0.0
H549 H 0.382 0.4372 0.68809 0.0
H550 H 0.41747 0.47057 0.83709 0.0
H551 H 0.40057 0.44704 0.79347 0.0
H552 H 0.45817 0.39811 0.76156 0.0
C553 C 0.42436 0.39138 0.64932 0.0
C554 C 0.39835 0.42816 0.70416 0.0
C555 C 0.41782 0.38364 0.61983 0.0
C556 C 0.43115 0.46313 0.82415 0.0
C557 C 0.42146 0.44987 0.79899 0.0
C558 C 0.44147 0.40678 0.74575 0.0
C559 C 0.40478 0.39784 0.66578 0.0
C560 C 0.41199 0.40735 0.69654 0.0
C561 C 0.43855 0.44063 0.781 0.0
C562 C 0.42839 0.42814 0.75288 0.0
H563 H 0.35142 0.38736 0.6125 0.0
H564 H 0.36284 0.40051 0.66422 0.0
H565 H 0.44401 0.38015 0.71318 0.0
H566 H 0.49609 0.46072 0.81955 0.0
H567 H 0.47929 0.43782 0.77574 0.0
C568 C 0.64133 0.60177 0.44652 0.0
C569 C 0.63456 0.62681 0.45114 0.0
C570 C 0.63353 0.59278 0.41791 0.0
C571 C 0.60858 0.61356 0.33464 0.0
H572 H 0.58444 0.54296 0.33678 0.0
C573 C 0.58595 0.56041 0.225 0.0
C574 C 0.56511 0.54289 0.22355 0.0
C575 C 0.5938 0.57236 0.25172 0.0
C576 C 0.59085 0.5628 0.33568 0.0
H577 H 0.61462 0.66218 0.429 0.0
H578 H 0.60083 0.64642 0.37904 0.0
H579 H 0.59959 0.56042 0.38501 0.0
H580 H 0.53521 0.5254 0.24831 0.0
H581 H 0.54863 0.54637 0.29459 0.0
H582 H 0.59928 0.61598 0.28514 0.0
C583 C 0.61247 0.63383 0.39748 0.0
C584 C 0.59993 0.57273 0.36341 0.0
C585 C 0.62036 0.64288 0.42614 0.0
C586 C 0.55167 0.5384 0.24891 0.0
C587 C 0.55942 0.55039 0.27549 0.0
C588 C 0.59947 0.6036 0.30679 0.0
C589 C 0.61865 0.60853 0.39313 0.0
C590 C 0.60899 0.5982 0.36332 0.0
C591 C 0.58093 0.56712 0.27754 0.0
C592 C 0.59045 0.57808 0.30697 0.0
H593 H 0.6527 0.58907 0.46507 0.0
H594 H 0.63918 0.5734 0.41523 0.0
H595 H 0.61558 0.6332 0.33366 0.0
H596 H 0.59684 0.56413 0.20596 0.0
H597 H 0.61056 0.58496 0.25253 0.0
C598 C 0.8942 0.10228 0.9044 0.0
C599 C 0.87849 0.12447 0.90184 0.0
C600 C 0.90232 0.09437 0.87832 0.0
C601 C 0.9127 0.11868 0.79883 0.0
H602 H 0.91934 0.04583 0.79214 0.0
C603 C 0.94942 0.08191 0.69438 0.0
C604 C 0.96858 0.06229 0.70207 0.0
C605 C 0.93551 0.08897 0.71681 0.0
C606 C 0.91771 0.06625 0.79373 0.0
H607 H 0.85875 0.15557 0.86949 0.0
H608 H 0.87253 0.14147 0.82376 0.0
H609 H 0.90014 0.05923 0.83462 0.0
H610 H 0.98742 0.03404 0.73903 0.0
H611 H 0.9633 0.04636 0.77809 0.0
H612 H 0.9305 0.12562 0.75801 0.0
C613 C 0.87885 0.13037 0.84613 0.0
C614 C 0.90674 0.07395 0.81813 0.0
C615 C 0.87071 0.13831 0.87232 0.0
C616 C 0.97297 0.0494 0.73243 0.0
C617 C 0.95895 0.0563 0.75475 0.0
C618 C 0.92358 0.11096 0.77432 0.0
C619 C 0.89488 0.10835 0.84883 0.0
C620 C 0.90451 0.10026 0.82134 0.0
C621 C 0.94027 0.07637 0.74734 0.0
C622 C 0.92663 0.08464 0.77179 0.0
H623 H 0.90024 0.0909 0.92666 0.0
H624 H 0.9149 0.07752 0.88143 0.0
H625 H 0.91158 0.13909 0.80071 0.0
H626 H 0.9457 0.09232 0.67124 0.0
H627 H 0.92109 0.10435 0.71029 0.0
C628 C 0.37292 0.39262 0.27186 0.0
C629 C 0.38673 0.37515 0.2957 0.0
C630 C 0.38528 0.40478 0.24803 0.0
C631 C 0.44171 0.39841 0.20775 0.0
H632 H 0.42805 0.47081 0.1783 0.0
C633 C 0.49747 0.45476 0.1168 0.0
C634 C 0.48317 0.473 0.09444 0.0
C635 C 0.48635 0.44294 0.14188 0.0
C636 C 0.43187 0.45049 0.18592 0.0
H637 H 0.42446 0.35674 0.31296 0.0
H638 H 0.44608 0.37808 0.27148 0.0
H639 H 0.40751 0.45014 0.22083 0.0
H640 H 0.44612 0.49338 0.08105 0.0
H641 H 0.42634 0.47218 0.12388 0.0
H642 H 0.46581 0.39865 0.17259 0.0
C643 C 0.42561 0.38228 0.27116 0.0
C644 C 0.42009 0.43864 0.21041 0.0
C645 C 0.41328 0.37024 0.29513 0.0
C646 C 0.45753 0.47917 0.09768 0.0
C647 C 0.44633 0.46724 0.12255 0.0
C648 C 0.4534 0.41024 0.18313 0.0
C649 C 0.41176 0.3997 0.24729 0.0
C650 C 0.42477 0.41242 0.22159 0.0
C651 C 0.46059 0.449 0.1451 0.0
C652 C 0.44857 0.43644 0.17177 0.0
H653 H 0.35252 0.39705 0.2717 0.0
H654 H 0.37394 0.4179 0.2299 0.0
H655 H 0.4455 0.37811 0.21549 0.0
H656 H 0.5172 0.44944 0.11479 0.0
H657 H 0.49808 0.42924 0.15891 0.0
C658 C 0.14394 0.93544 0.84638 0.0
C659 C 0.14038 0.90979 0.85893 0.0
C660 C 0.13407 0.94399 0.81535 0.0
C661 C 0.08327 0.92937 0.75135 0.0
H662 H 0.12335 0.9741 0.69986 0.0
C663 C 0.04596 0.95823 0.62119 0.0
C664 C 0.04985 0.98378 0.60878 0.0
C665 C 0.05808 0.94874 0.65109 0.0
C666 C 0.11177 0.96186 0.71401 0.0
H667 H 0.12371 0.87301 0.84861 0.0
H668 H 0.10665 0.88787 0.79442 0.0
H669 H 0.14261 0.95844 0.75315 0.0
H670 H 0.06983 0.01936 0.61771 0.0
H671 H 0.09024 1.00319 0.67041 0.0
H672 H 0.05228 0.93304 0.71255 0.0
C673 C 0.11697 0.90141 0.80865 0.0
C674 C 0.12285 0.95285 0.74455 0.0
C675 C 0.12698 0.89282 0.83961 0.0
C676 C 0.06625 0.99965 0.62682 0.0
C677 C 0.07822 0.99025 0.65687 0.0
C678 C 0.07216 0.93847 0.72091 0.0
C679 C 0.12024 0.92713 0.79619 0.0
C680 C 0.10872 0.93649 0.76357 0.0
C681 C 0.07419 0.96469 0.66946 0.0
C682 C 0.08625 0.95483 0.70181 0.0
H683 H 0.15439 0.94893 0.86057 0.0
H684 H 0.13676 0.96397 0.80654 0.0
H685 H 0.07169 0.91715 0.76554 0.0
H686 H 0.0332 0.94564 0.60797 0.0
H687 H 0.05482 0.92885 0.65979 0.0
loop_
_geom_bond_atom_site_label_1
_geom_bond_atom_site_label_2
_geom_bond_distance
_geom_bond_site_symmetry_2
_ccdc_geom_bond_type
C0 C1 1.264 . S
C0 C5 1.479 . S
C0 C10 1.465 . S
C1 C0 1.264 . S
C1 C3 1.339 . S
C1 H28 0.931 . S
C2 C3 1.395 . S
C2 C4 1.320 . S
C3 C1 1.339 . S
C3 C2 1.395 . S
C3 H29 0.929 . S
C4 C2 1.320 . S
C4 C5 1.405 . S
C4 H30 0.930 . S
C5 C0 1.479 . S
C5 C4 1.405 . S
C5 H31 0.931 . S
U6 O7 2.454 . S
U6 O8 2.458 . S
U6 C9 2.984 . S
U6 C10 2.847 . S
U6 C23 2.882 1_554 S
U6 O24 2.441 . S
U6 O25 2.420 . S
U6 O26 2.455 1_554 S
U6 O27 2.449 1_554 S
O7 U6 2.454 . S
O7 C9 1.353 . S
O8 U6 2.458 . S
O8 C9 1.286 . S
C9 U6 2.984 . S
C9 O7 1.353 . S
C9 O8 1.286 . S
C9 C11 1.363 . S
C10 C0 1.465 . S
C10 U6 2.847 . S
C10 O24 1.249 . S
C10 O25 1.202 . S
C11 C9 1.363 . S
C11 C13 1.408 . S
C11 C16 1.342 . S
C12 C13 1.310 . S
C12 C15 1.461 . S
C12 H32 0.932 . S
C13 C11 1.408 . S
C13 C12 1.310 . S
C13 H33 0.930 . S
C14 C15 1.474 . S
C14 C16 1.285 . S
C14 H34 0.929 1_554 S
C15 C12 1.461 . S
C15 C14 1.474 . S
C16 C11 1.342 . S
C16 C14 1.285 . S
C16 H35 0.930 1_554 S
C17 C20 1.424 . S
C17 C22 1.245 . S
C17 C23 1.428 . S
C18 C21 1.260 . S
C18 C22 1.477 . S
C18 H36 0.932 . S
C19 C20 1.384 . S
C19 C21 1.479 . S
C19 H37 0.929 . S
C20 C17 1.424 . S
C20 C19 1.384 . S
C20 H38 0.928 . S
C21 C18 1.260 . S
C21 C19 1.479 . S
C22 C17 1.245 . S
C22 C18 1.477 . S
C22 H39 0.932 . S
C23 U6 2.882 1_556 S
C23 C17 1.428 . S
C23 O26 1.301 . S
C23 O27 1.282 . S
O24 U6 2.441 . S
O24 C10 1.249 . S
O25 U6 2.420 . S
O25 C10 1.202 . S
O26 U6 2.455 1_556 S
O26 C23 1.301 . S
O27 U6 2.449 1_556 S
O27 C23 1.282 . S
H28 C1 0.931 . S
H29 C3 0.929 . S
H30 C4 0.930 . S
H31 C5 0.931 . S
H32 C12 0.932 . S
H33 C13 0.930 . S
H34 C14 0.929 1_556 S
H35 C16 0.930 1_556 S
H36 C18 0.932 . S
H37 C19 0.929 . S
H38 C20 0.928 . S
H39 C22 0.932 . S
C40 C41 1.264 . S
C40 C45 1.479 . S
C40 C50 1.465 . S
C41 C40 1.264 . S
C41 C43 1.339 . S
C41 H68 0.931 . S
C42 C43 1.395 . S
C42 C44 1.320 . S
C43 C41 1.339 . S
C43 C42 1.395 . S
C43 H69 0.929 . S
C44 C42 1.320 . S
C44 C45 1.405 . S
C44 H70 0.930 . S
C45 C40 1.479 . S
C45 C44 1.405 . S
C45 H71 0.931 . S
U46 O47 2.454 . S
U46 O48 2.458 . S
U46 C49 2.984 . S
U46 C50 2.847 . S
U46 C63 2.882 . S
U46 O64 2.441 . S
U46 O65 2.420 . S
U46 O66 2.455 . S
U46 O67 2.449 . S
O47 U46 2.454 . S
O47 C49 1.353 . S
O48 U46 2.458 . S
O48 C49 1.286 . S
C49 U46 2.984 . S
C49 O47 1.353 . S
C49 O48 1.286 . S
C49 C51 1.363 . S
C50 C40 1.465 . S
C50 U46 2.847 . S
C50 O64 1.249 . S
C50 O65 1.202 . S
C51 C49 1.363 . S
C51 C53 1.408 . S
C51 C56 1.342 . S
C52 C53 1.310 . S
C52 C55 1.461 . S
C52 H72 0.932 . S
C53 C51 1.408 . S
C53 C52 1.310 . S
C53 H73 0.930 . S
C54 C55 1.474 . S
C54 C56 1.285 . S
C54 H74 0.929 . S
C55 C52 1.461 . S
C55 C54 1.474 . S
C56 C51 1.342 . S
C56 C54 1.285 . S
C56 H75 0.930 . S
C57 C60 1.424 . S
C57 C62 1.245 . S
C57 C63 1.428 . S
C58 C61 1.260 . S
C58 C62 1.477 . S
C58 H76 0.932 . S
C59 C60 1.384 . S
C59 C61 1.479 . S
C59 H77 0.929 . S
C60 C57 1.424 . S
C60 C59 1.384 . S
C60 H78 0.928 . S
C61 C58 1.260 . S
C61 C59 1.479 . S
C62 C57 1.245 . S
C62 C58 1.477 . S
C62 H79 0.932 . S
C63 U46 2.882 . S
C63 C57 1.428 . S
C63 O66 1.301 . S
C63 O67 1.282 . S
O64 U46 2.441 . S
O64 C50 1.249 . S
O65 U46 2.420 . S
O65 C50 1.202 . S
O66 U46 2.455 . S
O66 C63 1.301 . S
O67 U46 2.449 . S
O67 C63 1.282 . S
H68 C41 0.931 . S
H69 C43 0.929 . S
H70 C44 0.930 . S
H71 C45 0.931 . S
H72 C52 0.932 . S
H73 C53 0.930 . S
H74 C54 0.929 . S
H75 C56 0.930 . S
H76 C58 0.932 . S
H77 C59 0.929 . S
H78 C60 0.928 . S
H79 C62 0.932 . S
C80 C81 1.264 . S
C80 C85 1.479 . S
C80 C90 1.465 . S
C81 C80 1.264 . S
C81 C83 1.339 . S
C81 H108 0.931 . S
C82 C83 1.395 . S
C82 C84 1.320 . S
C83 C81 1.339 . S
C83 C82 1.395 . S
C83 H109 0.929 . S
C84 C82 1.320 . S
C84 C85 1.405 . S
C84 H110 0.930 . S
C85 C80 1.479 . S
C85 C84 1.405 . S
C85 H111 0.931 . S
U86 O87 2.454 . S
U86 O88 2.458 1_554 S
U86 C89 2.984 . S
U86 C90 2.847 . S
U86 C103 2.882 1_554 S
U86 O104 2.441 . S
U86 O105 2.420 . S
U86 O106 2.455 1_554 S
U86 O107 2.449 1_554 S
O87 U86 2.454 . S
O87 C89 1.353 . S
O88 U86 2.458 1_556 S
O88 C89 1.286 1_556 S
C89 U86 2.984 . S
C89 O87 1.353 . S
C89 O88 1.286 1_554 S
C89 C91 1.363 . S
C90 C80 1.465 . S
C90 U86 2.847 . S
C90 O104 1.249 . S
C90 O105 1.202 . S
C91 C89 1.363 . S
C91 C93 1.408 . S
C91 C96 1.342 1_554 S
C92 C93 1.310 . S
C92 C95 1.461 1_554 S
C92 H112 0.932 . S
C93 C91 1.408 . S
C93 C92 1.310 . S
C93 H113 0.930 . S
C94 C95 1.474 . S
C94 C96 1.285 . S
C94 H114 0.929 . S
C95 C92 1.461 1_556 S
C95 C94 1.474 . S
C96 C91 1.342 1_556 S
C96 C94 1.285 . S
C96 H115 0.930 . S
C97 C100 1.424 . S
C97 C102 1.245 . S
C97 C103 1.428 . S
C98 C101 1.260 . S
C98 C102 1.477 . S
C98 H116 0.932 . S
C99 C100 1.384 . S
C99 C101 1.479 . S
C99 H117 0.929 . S
C100 C97 1.424 . S
C100 C99 1.384 . S
C100 H118 0.928 . S
C101 C98 1.260 . S
C101 C99 1.479 . S
C102 C97 1.245 . S
C102 C98 1.477 . S
C102 H119 0.932 . S
C103 U86 2.882 1_556 S
C103 C97 1.428 . S
C103 O106 1.301 . S
C103 O107 1.282 . S
O104 U86 2.441 . S
O104 C90 1.249 . S
O105 U86 2.420 . S
O105 C90 1.202 . S
O106 U86 2.455 1_556 S
O106 C103 1.301 . S
O107 U86 2.449 1_556 S
O107 C103 1.282 . S
H108 C81 0.931 . S
H109 C83 0.929 . S
H110 C84 0.930 . S
H111 C85 0.931 . S
H112 C92 0.932 . S
H113 C93 0.930 . S
H114 C94 0.929 . S
H115 C96 0.930 . S
H116 C98 0.932 . S
H117 C99 0.929 . S
H118 C100 0.928 . S
H119 C102 0.932 . S
C120 C121 1.264 . S
C120 C125 1.479 . S
C120 C130 1.465 . S
C121 C120 1.264 . S
C121 C123 1.339 . S
C121 H148 0.931 . S
C122 C123 1.395 . S
C122 C124 1.320 . S
C123 C121 1.339 . S
C123 C122 1.395 . S
C123 H149 0.929 . S
C124 C122 1.320 . S
C124 C125 1.405 . S
C124 H150 0.930 . S
C125 C120 1.479 . S
C125 C124 1.405 . S
C125 H151 0.931 . S
U126 O127 2.454 . S
U126 O128 2.458 . S
U126 C129 2.984 . S
U126 C130 2.847 . S
U126 C143 2.882 . S
U126 O144 2.441 . S
U126 O145 2.420 . S
U126 O146 2.455 . S
U126 O147 2.449 . S
O127 U126 2.454 . S
O127 C129 1.353 . S
O128 U126 2.458 . S
O128 C129 1.286 . S
C129 U126 2.984 . S
C129 O127 1.353 . S
C129 O128 1.286 . S
C129 C131 1.363 . S
C130 C120 1.465 . S
C130 U126 2.847 . S
C130 O144 1.249 . S
C130 O145 1.202 . S
C131 C129 1.363 . S
C131 C133 1.408 . S
C131 C136 1.342 . S
C132 C133 1.310 . S
C132 C135 1.461 . S
C132 H152 0.932 . S
C133 C131 1.408 . S
C133 C132 1.310 . S
C133 H153 0.930 . S
C134 C135 1.474 . S
C134 C136 1.285 . S
C134 H154 0.929 . S
C135 C132 1.461 . S
C135 C134 1.474 . S
C136 C131 1.342 . S
C136 C134 1.285 . S
C136 H155 0.930 . S
C137 C140 1.424 . S
C137 C142 1.245 . S
C137 C143 1.428 . S
C138 C141 1.260 . S
C138 C142 1.477 . S
C138 H156 0.932 . S
C139 C140 1.384 . S
C139 C141 1.479 . S
C139 H157 0.929 . S
C140 C137 1.424 . S
C140 C139 1.384 . S
C140 H158 0.928 . S
C141 C138 1.260 . S
C141 C139 1.479 . S
C142 C137 1.245 . S
C142 C138 1.477 . S
C142 H159 0.932 . S
C143 U126 2.882 . S
C143 C137 1.428 . S
C143 O146 1.301 . S
C143 O147 1.282 . S
O144 U126 2.441 . S
O144 C130 1.249 . S
O145 U126 2.420 . S
O145 C130 1.202 . S
O146 U126 2.455 . S
O146 C143 1.301 . S
O147 U126 2.449 . S
O147 C143 1.282 . S
H148 C121 0.931 . S
H149 C123 0.929 . S
H150 C124 0.930 . S
H151 C125 0.931 . S
H152 C132 0.932 . S
H153 C133 0.930 . S
H154 C134 0.929 . S
H155 C136 0.930 . S
H156 C138 0.932 . S
H157 C139 0.929 . S
H158 C140 0.928 . S
H159 C142 0.932 . S
Tb160 N189 2.617 . S
Tb160 N195 2.572 . S
Tb160 O204 2.465 . S
Tb160 O205 2.387 . S
Tb160 O207 2.428 . S
Tb160 O208 2.308 1_565 S
Tb160 O212 2.351 1_465 S
Tb160 O215 2.393 1_455 S
Tb160 C224 2.802 . S
C161 N162 1.379 . S
C161 C164 1.416 . S
C161 C168 1.424 . S
N162 C161 1.379 . S
N162 C165 1.334 1_655 S
N162 Tb171 2.617 . S
C163 C165 1.390 . S
C163 C166 1.339 1_455 S
C163 H183 0.930 . S
C164 C161 1.416 . S
C164 C166 1.416 . S
C164 C170 1.448 . S
C165 N162 1.334 1_455 S
C165 C163 1.390 . S
C165 H176 0.930 . S
C166 C163 1.339 1_655 S
C166 C164 1.416 . S
C166 H187 0.930 . S
C167 C168 1.413 . S
C167 C169 1.427 . S
C167 C173 1.416 . S
C168 C161 1.424 . S
C168 C167 1.413 . S
C168 N172 1.361 . S
C169 C167 1.427 . S
C169 C170 1.328 . S
C169 H184 0.929 . S
C170 C164 1.448 . S
C170 C169 1.328 . S
C170 H185 0.930 . S
Tb171 N162 2.617 . S
Tb171 N172 2.572 . S
Tb171 O206 2.349 1_655 S
Tb171 O209 2.393 1_655 S
Tb171 O210 2.465 . S
Tb171 O211 2.387 . S
Tb171 O213 2.428 . S
Tb171 O214 2.308 1_545 S
Tb171 C235 2.802 . S
N172 C168 1.361 . S
N172 Tb171 2.572 . S
N172 C174 1.340 . S
C173 C167 1.416 . S
C173 C175 1.332 . S
C173 H181 0.931 . S
C174 N172 1.340 . S
C174 C175 1.407 . S
C174 H180 0.930 . S
C175 C173 1.332 . S
C175 C174 1.407 . S
C175 H177 0.929 . S
H176 C165 0.930 . S
H177 C175 0.929 . S
H178 C193 0.930 1_655 S
H179 C200 0.929 . S
H180 C174 0.930 . S
H181 C173 0.931 . S
H182 C196 0.930 . S
H183 C163 0.930 . S
H184 C169 0.929 . S
H185 C170 0.930 . S
H186 C191 0.930 1_655 S
H187 C166 0.930 . S
H188 C199 0.931 . S
N189 Tb160 2.617 . S
N189 C190 1.379 . S
N189 C193 1.334 . S
C190 N189 1.379 . S
C190 C192 1.416 . S
C190 C198 1.424 . S
C191 H186 0.930 1_455 S
C191 C193 1.390 . S
C191 C194 1.339 . S
C192 C190 1.416 . S
C192 C194 1.416 . S
C192 C225 1.448 . S
C193 H178 0.930 1_455 S
C193 N189 1.334 . S
C193 C191 1.390 . S
C194 C191 1.339 . S
C194 C192 1.416 . S
C194 H201 0.930 . S
N195 Tb160 2.572 . S
N195 C196 1.340 . S
N195 C198 1.361 . S
C196 H182 0.930 . S
C196 N195 1.340 . S
C196 C200 1.407 . S
C197 C198 1.413 . S
C197 C199 1.416 . S
C197 C226 1.427 . S
C198 C190 1.424 . S
C198 N195 1.361 . S
C198 C197 1.413 . S
C199 H188 0.931 . S
C199 C197 1.416 . S
C199 C200 1.332 . S
C200 H179 0.929 . S
C200 C196 1.407 . S
C200 C199 1.332 . S
H201 C194 0.930 . S
H202 C225 0.930 . S
H203 C226 0.929 . S
O204 Tb160 2.465 . S
O204 C224 1.264 . S
O205 Tb160 2.387 . S
O205 C216 1.264 . S
O206 Tb171 2.349 1_455 S
O206 C216 1.243 1_545 S
O207 Tb160 2.428 . S
O207 C224 1.256 . S
O208 Tb160 2.308 1_545 S
O208 C223 1.266 . S
O209 Tb171 2.393 1_455 S
O209 C223 1.248 . S
O210 Tb171 2.465 . S
O210 C235 1.264 . S
O211 Tb171 2.387 . S
O211 C227 1.264 . S
O212 Tb160 2.351 1_645 S
O212 C227 1.240 . S
O213 Tb171 2.428 . S
O213 C235 1.256 . S
O214 Tb171 2.308 1_565 S
O214 C234 1.266 . S
O215 Tb160 2.393 1_655 S
O215 C234 1.248 . S
C216 O205 1.264 . S
C216 O206 1.243 1_565 S
C217 C220 1.399 . S
C217 C222 1.383 . S
C217 C224 1.496 . S
C218 C219 1.399 . S
C218 C222 1.389 . S
C219 C218 1.399 . S
C219 C221 1.380 . S
C219 H236 0.929 . S
C220 C217 1.399 . S
C220 C221 1.392 . S
C220 H237 0.929 . S
C221 C219 1.380 . S
C221 C220 1.392 . S
C221 H238 0.929 . S
C222 C217 1.383 . S
C222 C218 1.389 . S
C222 H239 0.931 . S
C223 O208 1.266 . S
C223 O209 1.248 . S
C224 Tb160 2.802 . S
C224 O204 1.264 . S
C224 O207 1.256 . S
C224 C217 1.496 . S
C225 C192 1.448 . S
C225 H202 0.930 . S
C225 C226 1.328 . S
C226 C197 1.427 . S
C226 H203 0.929 . S
C226 C225 1.328 . S
C227 O211 1.264 . S
C227 O212 1.240 . S
C228 C231 1.399 . S
C228 C232 1.383 . S
C228 C235 1.496 . S
C229 C230 1.399 . S
C229 C232 1.389 . S
C230 C229 1.399 . S
C230 C233 1.380 . S
C230 H240 0.929 . S
C231 C228 1.399 . S
C231 C233 1.392 . S
C231 H241 0.929 . S
C232 C228 1.383 . S
C232 C229 1.389 . S
C232 H242 0.931 . S
C233 C230 1.380 . S
C233 C231 1.392 . S
C233 H243 0.929 . S
C234 O214 1.266 . S
C234 O215 1.248 . S
C235 Tb171 2.802 . S
C235 O210 1.264 . S
C235 O213 1.256 . S
C235 C228 1.496 . S
H236 C219 0.929 . S
H237 C220 0.929 . S
H238 C221 0.929 . S
H239 C222 0.931 . S
H240 C230 0.929 . S
H241 C231 0.929 . S
H242 C232 0.931 . S
H243 C233 0.929 . S
Tb244 N273 2.617 . S
Tb244 N279 2.572 . S
Tb244 O288 2.465 . S
Tb244 O289 2.387 1_556 S
Tb244 O291 2.428 . S
Tb244 O292 2.308 1_556 S
Tb244 O296 2.349 . S
Tb244 O299 2.393 . S
Tb244 C308 2.802 . S
C245 N246 1.379 . S
C245 C248 1.416 . S
C245 C252 1.424 . S
N246 C245 1.379 . S
N246 C249 1.334 . S
N246 Tb255 2.617 . S
C247 C249 1.390 . S
C247 C250 1.339 . S
C247 H267 0.930 . S
C248 C245 1.416 . S
C248 C250 1.416 . S
C248 C254 1.448 . S
C249 N246 1.334 . S
C249 C247 1.390 . S
C249 H260 0.930 . S
C250 C247 1.339 . S
C250 C248 1.416 . S
C250 H271 0.930 . S
C251 C252 1.413 . S
C251 C253 1.427 . S
C251 C257 1.416 . S
C252 C245 1.424 . S
C252 C251 1.413 . S
C252 N256 1.361 . S
C253 C251 1.427 . S
C253 C254 1.328 . S
C253 H268 0.932 . S
C254 C248 1.448 . S
C254 C253 1.328 . S
C254 H269 0.930 . S
Tb255 N246 2.617 . S
Tb255 N256 2.572 . S
Tb255 O290 2.349 . S
Tb255 O293 2.393 . S
Tb255 O294 2.465 . S
Tb255 O295 2.387 1_554 S
Tb255 O297 2.428 . S
Tb255 O298 2.308 . S
Tb255 C319 2.802 . S
N256 C252 1.361 . S
N256 Tb255 2.572 . S
N256 C258 1.340 . S
C257 C251 1.416 . S
C257 C259 1.332 . S
C257 H265 0.930 1_554 S
C258 N256 1.340 . S
C258 C259 1.407 . S
C258 H264 0.930 . S
C259 C257 1.332 . S
C259 C258 1.407 . S
C259 H261 0.929 . S
H260 C249 0.930 . S
H261 C259 0.929 . S
H262 C277 0.930 . S
H263 C284 0.929 . S
H264 C258 0.930 . S
H265 C257 0.930 1_556 S
H266 C280 0.930 . S
H267 C247 0.930 . S
H268 C253 0.932 . S
H269 C254 0.930 . S
H270 C275 0.930 . S
H271 C250 0.930 . S
H272 C283 0.931 . S
N273 Tb244 2.617 . S
N273 C274 1.379 1_556 S
N273 C277 1.334 . S
C274 N273 1.379 1_554 S
C274 C276 1.416 . S
C274 C282 1.424 . S
C275 H270 0.930 . S
C275 C277 1.390 . S
C275 C278 1.339 1_556 S
C276 C274 1.416 . S
C276 C278 1.416 . S
C276 C309 1.448 . S
C277 H262 0.930 . S
C277 N273 1.334 . S
C277 C275 1.390 . S
C278 C275 1.339 1_554 S
C278 C276 1.416 . S
C278 H285 0.930 . S
N279 Tb244 2.572 . S
N279 C280 1.340 1_556 S
N279 C282 1.361 1_556 S
C280 H266 0.930 . S
C280 N279 1.340 1_554 S
C280 C284 1.407 . S
C281 C282 1.413 . S
C281 C283 1.416 . S
C281 C310 1.427 . S
C282 C274 1.424 . S
C282 N279 1.361 1_554 S
C282 C281 1.413 . S
C283 H272 0.931 . S
C283 C281 1.416 . S
C283 C284 1.332 . S
C284 H263 0.929 . S
C284 C280 1.407 . S
C284 C283 1.332 . S
H285 C278 0.930 . S
H286 C309 0.930 . S
H287 C310 0.929 . S
O288 Tb244 2.465 . S
O288 C308 1.264 . S
O289 Tb244 2.387 1_554 S
O289 C300 1.264 . S
O290 Tb255 2.349 . S
O290 C300 1.243 . S
O291 Tb244 2.428 . S
O291 C308 1.256 . S
O292 Tb244 2.308 1_554 S
O292 C307 1.266 . S
O293 Tb255 2.393 . S
O293 C307 1.248 . S
O294 Tb255 2.465 . S
O294 C319 1.264 . S
O295 Tb255 2.387 1_556 S
O295 C311 1.264 . S
O296 Tb244 2.349 . S
O296 C311 1.243 . S
O297 Tb255 2.428 . S
O297 C319 1.256 . S
O298 Tb255 2.308 . S
O298 C318 1.266 . S
O299 Tb244 2.393 . S
O299 C318 1.248 1_556 S
C300 O289 1.264 . S
C300 O290 1.243 . S
C301 C304 1.399 . S
C301 C306 1.383 . S
C301 C308 1.496 . S
C302 C303 1.399 . S
C302 C306 1.389 . S
C303 C302 1.399 . S
C303 C305 1.380 . S
C303 H320 0.929 . S
C304 C301 1.399 . S
C304 C305 1.392 . S
C304 H321 0.929 . S
C305 C303 1.380 . S
C305 C304 1.392 . S
C305 H322 0.929 . S
C306 C301 1.383 . S
C306 C302 1.389 . S
C306 H323 0.931 . S
C307 O292 1.266 . S
C307 O293 1.248 . S
C308 Tb244 2.802 . S
C308 O288 1.264 . S
C308 O291 1.256 . S
C308 C301 1.496 . S
C309 C276 1.448 . S
C309 H286 0.930 . S
C309 C310 1.328 . S
C310 C281 1.427 . S
C310 H287 0.929 . S
C310 C309 1.328 . S
C311 O295 1.264 . S
C311 O296 1.243 . S
C312 C315 1.399 . S
C312 C316 1.383 . S
C312 C319 1.496 . S
C313 C314 1.399 . S
C313 C316 1.389 . S
C314 C313 1.399 . S
C314 C317 1.380 . S
C314 H324 0.929 . S
C315 C312 1.399 . S
C315 C317 1.392 . S
C315 H325 0.929 . S
C316 C312 1.383 . S
C316 C313 1.389 . S
C316 H326 0.931 . S
C317 C314 1.380 . S
C317 C315 1.392 . S
C317 H327 0.929 . S
C318 O298 1.266 . S
C318 O299 1.248 1_554 S
C319 Tb255 2.802 . S
C319 O294 1.264 . S
C319 O297 1.256 . S
C319 C312 1.496 . S
H320 C303 0.929 . S
H321 C304 0.929 . S
H322 C305 0.929 . S
H323 C306 0.931 . S
H324 C314 0.929 . S
H325 C315 0.929 . S
H326 C316 0.931 . S
H327 C317 0.929 . S
C328 C329 1.349 . S
C328 C330 1.327 . S
C328 H353 0.950 . S
C329 C328 1.349 . S
C329 C345 1.349 . S
C330 C328 1.327 . S
C330 C349 1.429 . S
C330 H354 0.950 . S
C331 C348 1.574 . S
C331 C350 1.368 . S
C331 H355 0.949 . S
H332 C336 0.949 . S
C333 C334 1.349 . S
C333 C335 1.327 . S
C333 H356 0.950 . S
C334 C333 1.349 . S
C334 C346 1.349 . S
C335 C333 1.327 . S
C335 C351 1.429 . S
C335 H357 0.950 . S
C336 H332 0.949 . S
C336 C344 1.574 . S
C336 C352 1.368 . S
H337 C345 0.950 . S
H338 C343 0.950 . S
H339 C344 0.949 . S
H340 C346 0.950 . S
H341 C347 0.950 . S
H342 C348 0.949 . S
C343 H338 0.950 . S
C343 C345 1.327 . S
C343 C349 1.429 . S
C344 C336 1.574 . S
C344 H339 0.949 . S
C344 C350 1.368 . S
C345 C329 1.349 . S
C345 H337 0.950 . S
C345 C343 1.327 . S
C346 C334 1.349 . S
C346 H340 0.950 . S
C346 C347 1.327 . S
C347 H341 0.950 . S
C347 C346 1.327 . S
C347 C351 1.429 . S
C348 C331 1.574 . S
C348 H342 0.949 . S
C348 C352 1.368 . S
C349 C330 1.429 . S
C349 C343 1.429 . S
C349 C350 1.523 . S
C350 C331 1.368 . S
C350 C344 1.368 . S
C350 C349 1.523 . S
C351 C335 1.429 . S
C351 C347 1.429 . S
C351 C352 1.523 . S
C352 C336 1.368 . S
C352 C348 1.368 . S
C352 C351 1.523 . S
H353 C328 0.950 . S
H354 C330 0.950 . S
H355 C331 0.949 . S
H356 C333 0.950 . S
H357 C335 0.950 . S
C358 C359 1.349 . S
C358 C360 1.327 . S
C358 H383 0.950 . S
C359 C358 1.349 . S
C359 C375 1.349 . S
C360 C358 1.327 . S
C360 C379 1.429 . S
C360 H384 0.950 . S
C361 C378 1.574 . S
C361 C380 1.368 . S
C361 H385 0.949 1_554 S
H362 C366 0.949 . S
C363 C364 1.349 . S
C363 C365 1.327 . S
C363 H386 0.950 1_554 S
C364 C363 1.349 . S
C364 C376 1.349 . S
C365 C363 1.327 . S
C365 C381 1.429 . S
C365 H387 0.950 1_554 S
C366 H362 0.949 . S
C366 C374 1.574 . S
C366 C382 1.368 . S
H367 C375 0.951 . S
H368 C373 0.950 1_556 S
H369 C374 0.949 . S
H370 C376 0.950 . S
H371 C377 0.950 . S
H372 C378 0.949 1_556 S
C373 H368 0.950 1_554 S
C373 C375 1.327 . S
C373 C379 1.429 . S
C374 C366 1.574 . S
C374 H369 0.949 . S
C374 C380 1.368 . S
C375 C359 1.349 . S
C375 H367 0.951 . S
C375 C373 1.327 . S
C376 C364 1.349 . S
C376 H370 0.950 . S
C376 C377 1.327 . S
C377 H371 0.950 . S
C377 C376 1.327 . S
C377 C381 1.429 . S
C378 C361 1.574 . S
C378 H372 0.949 1_554 S
C378 C382 1.368 . S
C379 C360 1.429 . S
C379 C373 1.429 . S
C379 C380 1.523 . S
C380 C361 1.368 . S
C380 C374 1.368 . S
C380 C379 1.523 . S
C381 C365 1.429 . S
C381 C377 1.429 . S
C381 C382 1.523 . S
C382 C366 1.368 . S
C382 C378 1.368 . S
C382 C381 1.523 . S
H383 C358 0.950 . S
H384 C360 0.950 . S
H385 C361 0.949 1_556 S
H386 C363 0.950 1_556 S
H387 C365 0.950 1_556 S
C388 C389 1.349 . S
C388 C390 1.327 . S
C388 H413 0.950 . S
C389 C388 1.349 . S
C389 C405 1.349 . S
C390 C388 1.327 . S
C390 C409 1.429 . S
C390 H414 0.950 . S
C391 C408 1.574 . S
C391 C410 1.368 . S
C391 H415 0.949 . S
H392 C396 0.949 . S
C393 C394 1.349 . S
C393 C395 1.327 . S
C393 H416 0.950 . S
C394 C393 1.349 . S
C394 C406 1.349 . S
C395 C393 1.327 . S
C395 C411 1.429 . S
C395 H417 0.950 . S
C396 H392 0.949 . S
C396 C404 1.574 . S
C396 C412 1.368 . S
H397 C405 0.950 . S
H398 C403 0.950 . S
H399 C404 0.949 . S
H400 C406 0.950 . S
H401 C407 0.950 . S
H402 C408 0.949 . S
C403 H398 0.950 . S
C403 C405 1.327 . S
C403 C409 1.429 . S
C404 C396 1.574 . S
C404 H399 0.949 . S
C404 C410 1.368 . S
C405 C389 1.349 . S
C405 H397 0.950 . S
C405 C403 1.327 . S
C406 C394 1.349 . S
C406 H400 0.950 . S
C406 C407 1.327 . S
C407 H401 0.950 . S
C407 C406 1.327 . S
C407 C411 1.429 . S
C408 C391 1.574 . S
C408 H402 0.949 . S
C408 C412 1.368 . S
C409 C390 1.429 . S
C409 C403 1.429 . S
C409 C410 1.523 . S
C410 C391 1.368 . S
C410 C404 1.368 . S
C410 C409 1.523 . S
C411 C395 1.429 . S
C411 C407 1.429 . S
C411 C412 1.523 . S
C412 C396 1.368 . S
C412 C408 1.368 . S
C412 C411 1.523 . S
H413 C388 0.950 . S
H414 C390 0.950 . S
H415 C391 0.949 . S
H416 C393 0.950 . S
H417 C395 0.950 . S
C418 C419 1.349 . S
C418 C420 1.327 . S
C418 H443 0.950 . S
C419 C418 1.349 . S
C419 C435 1.349 1_556 S
C420 C418 1.327 . S
C420 C439 1.435 . S
C420 H444 0.950 . S
C421 C438 1.574 . S
C421 C440 1.368 . S
C421 H445 0.949 . S
H422 C426 0.949 . S
C423 C424 1.349 . S
C423 C425 1.327 . S
C423 H446 0.950 . S
C424 C423 1.349 . S
C424 C436 1.349 1_554 S
C425 C423 1.327 . S
C425 C441 1.429 . S
C425 H447 0.950 . S
C426 H422 0.949 . S
C426 C434 1.574 . S
C426 C442 1.368 1_556 S
H427 C435 0.950 . S
H428 C433 0.950 . S
H429 C434 0.949 . S
H430 C436 0.950 . S
H431 C437 0.950 . S
H432 C438 0.949 . S
C433 H428 0.950 . S
C433 C435 1.327 . S
C433 C439 1.424 1_554 S
C434 C426 1.574 . S
C434 H429 0.949 . S
C434 C440 1.368 1_556 S
C435 C419 1.349 1_554 S
C435 H427 0.950 . S
C435 C433 1.327 . S
C436 C424 1.349 1_556 S
C436 H430 0.950 . S
C436 C437 1.327 . S
C437 H431 0.950 . S
C437 C436 1.327 . S
C437 C441 1.429 1_556 S
C438 C421 1.574 . S
C438 H432 0.949 . S
C438 C442 1.368 . S
C439 C420 1.435 . S
C439 C433 1.424 1_556 S
C439 C440 1.521 1_556 S
C440 C421 1.368 . S
C440 C434 1.368 1_554 S
C440 C439 1.521 1_554 S
C441 C425 1.429 . S
C441 C437 1.429 1_554 S
C441 C442 1.523 . S
C442 C426 1.368 1_554 S
C442 C438 1.368 . S
C442 C441 1.523 . S
H443 C418 0.950 . S
H444 C420 0.950 . S
H445 C421 0.949 . S
H446 C423 0.950 . S
H447 C425 0.950 . S
C448 C449 1.349 . S
C448 C450 1.327 . S
C448 H473 0.950 . S
C449 C448 1.349 . S
C449 C465 1.349 . S
C450 C448 1.327 . S
C450 C469 1.429 . S
C450 H474 0.950 . S
C451 C468 1.574 . S
C451 C470 1.368 . S
C451 H475 0.949 . S
H452 C456 0.949 . S
C453 C454 1.349 . S
C453 C455 1.327 . S
C453 H476 0.950 . S
C454 C453 1.349 . S
C454 C466 1.349 . S
C455 C453 1.327 . S
C455 C471 1.429 . S
C455 H477 0.950 . S
C456 H452 0.949 . S
C456 C464 1.574 . S
C456 C472 1.368 . S
H457 C465 0.950 . S
H458 C463 0.950 . S
H459 C464 0.949 . S
H460 C466 0.950 . S
H461 C467 0.950 . S
H462 C468 0.949 . S
C463 H458 0.950 . S
C463 C465 1.327 . S
C463 C469 1.429 . S
C464 C456 1.574 . S
C464 H459 0.949 . S
C464 C470 1.368 . S
C465 C449 1.349 . S
C465 H457 0.950 . S
C465 C463 1.327 . S
C466 C454 1.349 . S
C466 H460 0.950 . S
C466 C467 1.327 . S
C467 H461 0.950 . S
C467 C466 1.327 . S
C467 C471 1.429 . S
C468 C451 1.574 . S
C468 H462 0.949 . S
C468 C472 1.368 . S
C469 C450 1.429 . S
C469 C463 1.429 . S
C469 C470 1.523 . S
C470 C451 1.368 . S
C470 C464 1.368 . S
C470 C469 1.523 . S
C471 C455 1.429 . S
C471 C467 1.429 . S
C471 C472 1.523 . S
C472 C456 1.368 . S
C472 C468 1.368 . S
C472 C471 1.523 . S
H473 C448 0.950 . S
H474 C450 0.950 . S
H475 C451 0.949 . S
H476 C453 0.950 . S
H477 C455 0.950 . S
C478 C479 1.349 . S
C478 C480 1.327 . S
C478 H503 0.950 . S
C479 C478 1.349 . S
C479 C495 1.349 . S
C480 C478 1.327 . S
C480 C499 1.429 . S
C480 H504 0.950 . S
C481 C498 1.574 . S
C481 C500 1.368 . S
C481 H505 0.949 . S
H482 C486 0.949 . S
C483 C484 1.349 . S
C483 C485 1.327 . S
C483 H506 0.950 . S
C484 C483 1.349 . S
C484 C496 1.349 . S
C485 C483 1.327 . S
C485 C501 1.429 . S
C485 H507 0.950 . S
C486 H482 0.949 . S
C486 C494 1.574 . S
C486 C502 1.368 . S
H487 C495 0.950 . S
H488 C493 0.950 . S
H489 C494 0.949 . S
H490 C496 0.950 . S
H491 C497 0.950 . S
H492 C498 0.949 . S
C493 H488 0.950 . S
C493 C495 1.327 . S
C493 C499 1.429 . S
C494 C486 1.574 . S
C494 H489 0.949 . S
C494 C500 1.368 . S
C495 C479 1.349 . S
C495 H487 0.950 . S
C495 C493 1.327 . S
C496 C484 1.349 . S
C496 H490 0.950 . S
C496 C497 1.327 . S
C497 H491 0.950 . S
C497 C496 1.327 . S
C497 C501 1.429 . S
C498 C481 1.574 . S
C498 H492 0.949 . S
C498 C502 1.368 . S
C499 C480 1.429 . S
C499 C493 1.429 . S
C499 C500 1.523 . S
C500 C481 1.368 . S
C500 C494 1.368 . S
C500 C499 1.523 . S
C501 C485 1.429 . S
C501 C497 1.429 . S
C501 C502 1.523 . S
C502 C486 1.368 . S
C502 C498 1.368 . S
C502 C501 1.523 . S
H503 C478 0.950 . S
H504 C480 0.950 . S
H505 C481 0.949 . S
H506 C483 0.950 . S
H507 C485 0.950 . S
C508 C509 1.349 . S
C508 C510 1.327 . S
C508 H533 0.950 . S
C509 C508 1.349 . S
C509 C525 1.349 . S
C510 C508 1.327 . S
C510 C529 1.429 . S
C510 H534 0.950 . S
C511 C528 1.574 . S
C511 C530 1.368 . S
C511 H535 0.949 . S
H512 C516 0.949 . S
C513 C514 1.349 . S
C513 C515 1.327 . S
C513 H536 0.950 . S
C514 C513 1.349 . S
C514 C526 1.349 . S
C515 C513 1.327 . S
C515 C531 1.429 . S
C515 H537 0.950 . S
C516 H512 0.949 . S
C516 C524 1.574 . S
C516 C532 1.368 . S
H517 C525 0.950 . S
H518 C523 0.950 . S
H519 C524 0.949 . S
H520 C526 0.950 . S
H521 C527 0.950 . S
H522 C528 0.949 . S
C523 H518 0.950 . S
C523 C525 1.327 . S
C523 C529 1.429 . S
C524 C516 1.574 . S
C524 H519 0.949 . S
C524 C530 1.368 . S
C525 C509 1.349 . S
C525 H517 0.950 . S
C525 C523 1.327 . S
C526 C514 1.349 . S
C526 H520 0.950 . S
C526 C527 1.327 . S
C527 H521 0.950 . S
C527 C526 1.327 . S
C527 C531 1.429 . S
C528 C511 1.574 . S
C528 H522 0.949 . S
C528 C532 1.368 . S
C529 C510 1.429 . S
C529 C523 1.429 . S
C529 C530 1.523 . S
C530 C511 1.368 . S
C530 C524 1.368 . S
C530 C529 1.523 . S
C531 C515 1.429 . S
C531 C527 1.429 . S
C531 C532 1.523 . S
C532 C516 1.368 . S
C532 C528 1.368 . S
C532 C531 1.523 . S
H533 C508 0.950 . S
H534 C510 0.950 . S
H535 C511 0.949 . S
H536 C513 0.950 . S
H537 C515 0.950 . S
C538 C539 1.349 . S
C538 C540 1.327 . S
C538 H563 0.950 . S
C539 C538 1.349 . S
C539 C555 1.349 . S
C540 C538 1.327 . S
C540 C559 1.429 . S
C540 H564 0.950 . S
C541 C558 1.574 . S
C541 C560 1.368 . S
C541 H565 0.949 . S
H542 C546 0.949 . S
C543 C544 1.349 . S
C543 C545 1.327 . S
C543 H566 0.950 . S
C544 C543 1.349 . S
C544 C556 1.349 . S
C545 C543 1.327 . S
C545 C561 1.429 . S
C545 H567 0.950 . S
C546 H542 0.949 . S
C546 C554 1.574 . S
C546 C562 1.368 . S
H547 C555 0.950 . S
H548 C553 0.950 . S
H549 C554 0.949 . S
H550 C556 0.950 . S
H551 C557 0.950 . S
H552 C558 0.949 . S
C553 H548 0.950 . S
C553 C555 1.327 . S
C553 C559 1.429 . S
C554 C546 1.574 . S
C554 H549 0.949 . S
C554 C560 1.368 . S
C555 C539 1.349 . S
C555 H547 0.950 . S
C555 C553 1.327 . S
C556 C544 1.349 . S
C556 H550 0.950 . S
C556 C557 1.327 . S
C557 H551 0.950 . S
C557 C556 1.327 . S
C557 C561 1.429 . S
C558 C541 1.574 . S
C558 H552 0.949 . S
C558 C562 1.368 . S
C559 C540 1.429 . S
C559 C553 1.429 . S
C559 C560 1.523 . S
C560 C541 1.368 . S
C560 C554 1.368 . S
C560 C559 1.523 . S
C561 C545 1.429 . S
C561 C557 1.429 . S
C561 C562 1.523 . S
C562 C546 1.368 . S
C562 C558 1.368 . S
C562 C561 1.523 . S
H563 C538 0.950 . S
H564 C540 0.950 . S
H565 C541 0.949 . S
H566 C543 0.950 . S
H567 C545 0.950 . S
C568 C569 1.349 . S
C568 C570 1.327 . S
C568 H593 0.950 . S
C569 C568 1.349 . S
C569 C585 1.349 . S
C570 C568 1.327 . S
C570 C589 1.429 . S
C570 H594 0.950 . S
C571 C588 1.574 . S
C571 C590 1.368 . S
C571 H595 0.949 . S
H572 C576 0.949 . S
C573 C574 1.349 . S
C573 C575 1.327 . S
C573 H596 0.950 . S
C574 C573 1.349 . S
C574 C586 1.349 . S
C575 C573 1.327 . S
C575 C591 1.429 . S
C575 H597 0.950 . S
C576 H572 0.949 . S
C576 C584 1.574 . S
C576 C592 1.368 . S
H577 C585 0.950 . S
H578 C583 0.950 . S
H579 C584 0.949 . S
H580 C586 0.950 . S
H581 C587 0.950 . S
H582 C588 0.949 . S
C583 H578 0.950 . S
C583 C585 1.327 . S
C583 C589 1.429 . S
C584 C576 1.574 . S
C584 H579 0.949 . S
C584 C590 1.368 . S
C585 C569 1.349 . S
C585 H577 0.950 . S
C585 C583 1.327 . S
C586 C574 1.349 . S
C586 H580 0.950 . S
C586 C587 1.327 . S
C587 H581 0.950 . S
C587 C586 1.327 . S
C587 C591 1.429 . S
C588 C571 1.574 . S
C588 H582 0.949 . S
C588 C592 1.368 . S
C589 C570 1.429 . S
C589 C583 1.429 . S
C589 C590 1.523 . S
C590 C571 1.368 . S
C590 C584 1.368 . S
C590 C589 1.523 . S
C591 C575 1.429 . S
C591 C587 1.429 . S
C591 C592 1.523 . S
C592 C576 1.368 . S
C592 C588 1.368 . S
C592 C591 1.523 . S
H593 C568 0.950 . S
H594 C570 0.950 . S
H595 C571 0.949 . S
H596 C573 0.950 . S
H597 C575 0.950 . S
C598 C599 1.349 . S
C598 C600 1.327 . S
C598 H623 0.950 . S
C599 C598 1.349 . S
C599 C615 1.349 . S
C600 C598 1.327 . S
C600 C619 1.429 . S
C600 H624 0.950 . S
C601 C618 1.574 . S
C601 C620 1.368 . S
C601 H625 0.949 . S
H602 C606 0.949 . S
C603 C604 1.349 . S
C603 C605 1.327 . S
C603 H626 0.950 . S
C604 C603 1.349 . S
C604 C616 1.349 . S
C605 C603 1.327 . S
C605 C621 1.429 . S
C605 H627 0.950 . S
C606 H602 0.949 . S
C606 C614 1.574 . S
C606 C622 1.368 . S
H607 C615 0.950 . S
H608 C613 0.950 . S
H609 C614 0.949 . S
H610 C616 0.950 . S
H611 C617 0.950 . S
H612 C618 0.949 . S
C613 H608 0.950 . S
C613 C615 1.327 . S
C613 C619 1.429 . S
C614 C606 1.574 . S
C614 H609 0.949 . S
C614 C620 1.368 . S
C615 C599 1.349 . S
C615 H607 0.950 . S
C615 C613 1.327 . S
C616 C604 1.349 . S
C616 H610 0.950 . S
C616 C617 1.327 . S
C617 H611 0.950 . S
C617 C616 1.327 . S
C617 C621 1.429 . S
C618 C601 1.574 . S
C618 H612 0.949 . S
C618 C622 1.368 . S
C619 C600 1.429 . S
C619 C613 1.429 . S
C619 C620 1.523 . S
C620 C601 1.368 . S
C620 C614 1.368 . S
C620 C619 1.523 . S
C621 C605 1.429 . S
C621 C617 1.429 . S
C621 C622 1.523 . S
C622 C606 1.368 . S
C622 C618 1.368 . S
C622 C621 1.523 . S
H623 C598 0.950 . S
H624 C600 0.950 . S
H625 C601 0.949 . S
H626 C603 0.950 . S
H627 C605 0.950 . S
C628 C629 1.349 . S
C628 C630 1.327 . S
C628 H653 0.950 . S
C629 C628 1.349 . S
C629 C645 1.349 . S
C630 C628 1.327 . S
C630 C649 1.429 . S
C630 H654 0.950 . S
C631 C648 1.574 . S
C631 C650 1.368 . S
C631 H655 0.949 . S
H632 C636 0.949 . S
C633 C634 1.349 . S
C633 C635 1.327 . S
C633 H656 0.950 . S
C634 C633 1.349 . S
C634 C646 1.349 . S
C635 C633 1.327 . S
C635 C651 1.429 . S
C635 H657 0.950 . S
C636 H632 0.949 . S
C636 C644 1.574 . S
C636 C652 1.368 . S
H637 C645 0.950 . S
H638 C643 0.950 . S
H639 C644 0.949 . S
H640 C646 0.950 . S
H641 C647 0.950 . S
H642 C648 0.949 . S
C643 H638 0.950 . S
C643 C645 1.327 . S
C643 C649 1.429 . S
C644 C636 1.574 . S
C644 H639 0.949 . S
C644 C650 1.368 . S
C645 C629 1.349 . S
C645 H637 0.950 . S
C645 C643 1.327 . S
C646 C634 1.349 . S
C646 H640 0.950 . S
C646 C647 1.327 . S
C647 H641 0.950 . S
C647 C646 1.327 . S
C647 C651 1.429 . S
C648 C631 1.574 . S
C648 H642 0.949 . S
C648 C652 1.368 . S
C649 C630 1.429 . S
C649 C643 1.429 . S
C649 C650 1.523 . S
C650 C631 1.368 . S
C650 C644 1.368 . S
C650 C649 1.523 . S
C651 C635 1.429 . S
C651 C647 1.429 . S
C651 C652 1.523 . S
C652 C636 1.368 . S
C652 C648 1.368 . S
C652 C651 1.523 . S
H653 C628 0.950 . S
H654 C630 0.950 . S
H655 C631 0.949 . S
H656 C633 0.950 . S
H657 C635 0.950 . S
C658 C659 1.349 . S
C658 C660 1.327 . S
C658 H683 0.950 . S
C659 C658 1.349 . S
C659 C675 1.349 . S
C660 C658 1.327 . S
C660 C679 1.429 . S
C660 H684 0.950 . S
C661 C678 1.574 . S
C661 C680 1.368 . S
C661 H685 0.949 . S
H662 C666 0.949 . S
C663 C664 1.349 . S
C663 C665 1.327 . S
C663 H686 0.950 . S
C664 C663 1.349 . S
C664 C676 1.349 . S
C665 C663 1.327 . S
C665 C681 1.429 . S
C665 H687 0.950 . S
C666 H662 0.949 . S
C666 C674 1.574 . S
C666 C682 1.368 . S
H667 C675 0.950 . S
H668 C673 0.950 . S
H669 C674 0.949 . S
H670 C676 0.950 1_545 S
H671 C677 0.950 1_545 S
H672 C678 0.949 . S
C673 H668 0.950 . S
C673 C675 1.327 . S
C673 C679 1.429 . S
C674 C666 1.574 . S
C674 H669 0.949 . S
C674 C680 1.368 . S
C675 C659 1.349 . S
C675 H667 0.950 . S
C675 C673 1.327 . S
C676 C664 1.349 . S
C676 H670 0.950 1_565 S
C676 C677 1.327 . S
C677 H671 0.950 1_565 S
C677 C676 1.327 . S
C677 C681 1.429 . S
C678 C661 1.574 . S
C678 H672 0.949 . S
C678 C682 1.368 . S
C679 C660 1.429 . S
C679 C673 1.429 . S
C679 C680 1.523 . S
C680 C661 1.368 . S
C680 C674 1.368 . S
C680 C679 1.523 . S
C681 C665 1.429 . S
C681 C677 1.429 . S
C681 C682 1.523 . S
C682 C666 1.368 . S
C682 C678 1.368 . S
C682 C681 1.523 . S
H683 C658 0.950 . S
H684 C660 0.950 . S
H685 C661 0.949 . S
H686 C663 0.950 . S
H687 C665 0.950 . S
C334 C223 1.648 . S
C329 C135 1.650 . S
C359 C15 1.638 . S
C364 C318 1.632 . S
C389 C55 1.647 . S
C394 C234 1.640 . S
C419 C95 1.648 . S
C424 C307 1.645 . S
C454 C218 1.418 . S
C449 C2 1.562 . S
C484 C311 1.612 . S
C479 C42 1.612 . S
C509 C82 1.598 . S
C514 C227 1.607 . S
C539 C141 1.521 . S
C544 C302 1.406 . S
C574 C313 1.426 . S
C569 C61 1.567 . S
C604 C229 1.447 . S
C599 C101 1.593 . S
C634 C300 1.642 . S
C629 C122 1.608 . S
C659 C21 1.641 . S
C664 C216 1.640 . S
