# Generated by pormake.
# Topology iac, (4,6)-cn, num edge types: 1
# Building blocks:
#     Node 0, Type 0, BuildingBlock: NAHDIM_clean_sbu_0, # of connection points: 4
#     Node 1, Type 0, BuildingBlock: NAHDIM_clean_sbu_0, # of connection points: 4
#     Node 2, Type 0, BuildingBlock: NAHDIM_clean_sbu_0, # of connection points: 4
#     Node 3, Type 0, BuildingBlock: NAHDIM_clean_sbu_0, # of connection points: 4
#     Node 4, Type 0, BuildingBlock: NAHDIM_clean_sbu_0, # of connection points: 4
#     Node 5, Type 0, BuildingBlock: NAHDIM_clean_sbu_0, # of connection points: 4
#     Node 6, Type 0, BuildingBlock: NAHDIM_clean_sbu_0, # of connection points: 4
#     Node 7, Type 0, BuildingBlock: NAHDIM_clean_sbu_0, # of connection points: 4
#     Node 8, Type 0, BuildingBlock: NAHDIM_clean_sbu_0, # of connection points: 4
#     Node 9, Type 0, BuildingBlock: NAHDIM_clean_sbu_0, # of connection points: 4
#     Node 10, Type 0, BuildingBlock: NAHDIM_clean_sbu_0, # of connection points: 4
#     Node 11, Type 0, BuildingBlock: NAHDIM_clean_sbu_0, # of connection points: 4
#     Node 12, Type 0, BuildingBlock: NAHDIM_clean_sbu_0, # of connection points: 4
#     Node 13, Type 0, BuildingBlock: NAHDIM_clean_sbu_0, # of connection points: 4
#     Node 14, Type 0, BuildingBlock: NAHDIM_clean_sbu_0, # of connection points: 4
#     Node 15, Type 0, BuildingBlock: NAHDIM_clean_sbu_0, # of connection points: 4
#     Node 16, Type 0, BuildingBlock: NAHDIM_clean_sbu_0, # of connection points: 4
#     Node 17, Type 0, BuildingBlock: NAHDIM_clean_sbu_0, # of connection points: 4
#     Node 18, Type 0, BuildingBlock: NAHDIM_clean_sbu_0, # of connection points: 4
#     Node 19, Type 0, BuildingBlock: NAHDIM_clean_sbu_0, # of connection points: 4
#     Node 20, Type 0, BuildingBlock: NAHDIM_clean_sbu_0, # of connection points: 4
#     Node 21, Type 0, BuildingBlock: NAHDIM_clean_sbu_0, # of connection points: 4
#     Node 22, Type 0, BuildingBlock: NAHDIM_clean_sbu_0, # of connection points: 4
#     Node 23, Type 0, BuildingBlock: NAHDIM_clean_sbu_0, # of connection points: 4
#     Node 24, Type 1, BuildingBlock: CIFDUS_clean_sbu_1, # of connection points: 6
#     Node 25, Type 1, BuildingBlock: CIFDUS_clean_sbu_1, # of connection points: 6
#     Node 26, Type 1, BuildingBlock: CIFDUS_clean_sbu_1, # of connection points: 6
#     Node 27, Type 1, BuildingBlock: CIFDUS_clean_sbu_1, # of connection points: 6
#     Node 28, Type 1, BuildingBlock: CIFDUS_clean_sbu_1, # of connection points: 6
#     Node 29, Type 1, BuildingBlock: CIFDUS_clean_sbu_1, # of connection points: 6
#     Node 30, Type 1, BuildingBlock: CIFDUS_clean_sbu_1, # of connection points: 6
#     Node 31, Type 1, BuildingBlock: CIFDUS_clean_sbu_1, # of connection points: 6
#     Node 32, Type 1, BuildingBlock: CIFDUS_clean_sbu_1, # of connection points: 6
#     Node 33, Type 1, BuildingBlock: CIFDUS_clean_sbu_1, # of connection points: 6
#     Node 34, Type 1, BuildingBlock: CIFDUS_clean_sbu_1, # of connection points: 6
#     Node 35, Type 1, BuildingBlock: CIFDUS_clean_sbu_1, # of connection points: 6
#     Node 36, Type 1, BuildingBlock: CIFDUS_clean_sbu_1, # of connection points: 6
#     Node 37, Type 1, BuildingBlock: CIFDUS_clean_sbu_1, # of connection points: 6
#     Node 38, Type 1, BuildingBlock: CIFDUS_clean_sbu_1, # of connection points: 6
#     Node 39, Type 1, BuildingBlock: CIFDUS_clean_sbu_1, # of connection points: 6
#     Edge 40, Type (0, 1), None
#     Edge 41, Type (0, 1), None
#     Edge 42, Type (0, 1), None
#     Edge 43, Type (0, 1), None
#     Edge 44, Type (0, 1), None
#     Edge 45, Type (0, 1), None
#     Edge 46, Type (0, 1), None
#     Edge 47, Type (0, 1), None
#     Edge 48, Type (0, 1), None
#     Edge 49, Type (0, 1), None
#     Edge 50, Type (0, 1), None
#     Edge 51, Type (0, 1), None
#     Edge 52, Type (0, 1), None
#     Edge 53, Type (0, 1), None
#     Edge 54, Type (0, 1), None
#     Edge 55, Type (0, 1), None
#     Edge 56, Type (0, 1), None
#     Edge 57, Type (0, 1), None
#     Edge 58, Type (0, 1), None
#     Edge 59, Type (0, 1), None
#     Edge 60, Type (0, 1), None
#     Edge 61, Type (0, 1), None
#     Edge 62, Type (0, 1), None
#     Edge 63, Type (0, 1), None
#     Edge 64, Type (0, 1), None
#     Edge 65, Type (0, 1), None
#     Edge 66, Type (0, 1), None
#     Edge 67, Type (0, 1), None
#     Edge 68, Type (0, 1), None
#     Edge 69, Type (0, 1), None
#     Edge 70, Type (0, 1), None
#     Edge 71, Type (0, 1), None
#     Edge 72, Type (0, 1), None
#     Edge 73, Type (0, 1), None
#     Edge 74, Type (0, 1), None
#     Edge 75, Type (0, 1), None
#     Edge 76, Type (0, 1), None
#     Edge 77, Type (0, 1), None
#     Edge 78, Type (0, 1), None
#     Edge 79, Type (0, 1), None
#     Edge 80, Type (0, 1), None
#     Edge 81, Type (0, 1), None
#     Edge 82, Type (0, 1), None
#     Edge 83, Type (0, 1), None
#     Edge 84, Type (0, 1), None
#     Edge 85, Type (0, 1), None
#     Edge 86, Type (0, 1), None
#     Edge 87, Type (0, 1), None
#     Edge 88, Type (0, 1), None
#     Edge 89, Type (0, 1), None
#     Edge 90, Type (0, 1), None
#     Edge 91, Type (0, 1), None
#     Edge 92, Type (0, 1), None
#     Edge 93, Type (0, 1), None
#     Edge 94, Type (0, 1), None
#     Edge 95, Type (0, 1), None
#     Edge 96, Type (0, 1), None
#     Edge 97, Type (0, 1), None
#     Edge 98, Type (0, 1), None
#     Edge 99, Type (0, 1), None
#     Edge 100, Type (0, 1), None
#     Edge 101, Type (0, 1), None
#     Edge 102, Type (0, 1), None
#     Edge 103, Type (0, 1), None
#     Edge 104, Type (0, 1), None
#     Edge 105, Type (0, 1), None
#     Edge 106, Type (0, 1), None
#     Edge 107, Type (0, 1), None
#     Edge 108, Type (0, 1), None
#     Edge 109, Type (0, 1), None
#     Edge 110, Type (0, 1), None
#     Edge 111, Type (0, 1), None
#     Edge 112, Type (0, 1), None
#     Edge 113, Type (0, 1), None
#     Edge 114, Type (0, 1), None
#     Edge 115, Type (0, 1), None
#     Edge 116, Type (0, 1), None
#     Edge 117, Type (0, 1), None
#     Edge 118, Type (0, 1), None
#     Edge 119, Type (0, 1), None
#     Edge 120, Type (0, 1), None
#     Edge 121, Type (0, 1), None
#     Edge 122, Type (0, 1), None
#     Edge 123, Type (0, 1), None
#     Edge 124, Type (0, 1), None
#     Edge 125, Type (0, 1), None
#     Edge 126, Type (0, 1), None
#     Edge 127, Type (0, 1), None
#     Edge 128, Type (0, 1), None
#     Edge 129, Type (0, 1), None
#     Edge 130, Type (0, 1), None
#     Edge 131, Type (0, 1), None
#     Edge 132, Type (0, 1), None
#     Edge 133, Type (0, 1), None
#     Edge 134, Type (0, 1), None
#     Edge 135, Type (0, 1), None
# Relax obj value: 0.114
# Max RMSD: 0.172
# Mean RMSD: 0.131
data_MOF--net-iac--node1-NAHDIM_clean_sbu_0--node2-CIFDUS_clean_sbu_1--edge1-none
_symmetry_space_group_name_H-M    P1
_symmetry_Int_Tables_number       1
_symmetry_cell_setting            triclinic
loop_
_symmetry_equiv_pos_as_xyz
'x, y, z'
_cell_length_a     25.853227
_cell_length_b     24.82008
_cell_length_c     24.246231
_cell_angle_alpha  88.215784
_cell_angle_beta   90.865409
_cell_angle_gamma 89.151143
loop_
_atom_site_label
_atom_site_type_symbol
_atom_site_fract_x
_atom_site_fract_y
_atom_site_fract_z
_atom_type_partial_charge
C0 C 0.90292 0.2419 0.20026 0.0
O1 O 0.87659 0.27907 0.17167 0.0
O2 O 0.97211 0.20315 0.06246 0.0
Zn3 Zn 0.98675 0.2591 0.12054 0.0
O4 O 0.95202 0.32986 0.09501 0.0
C5 C 0.08488 0.26154 0.18741 0.0
O6 O 0.0613 0.23589 0.22772 0.0
O7 O 0.94922 0.23028 0.18734 0.0
C8 C 0.95655 0.37292 0.06542 0.0
O9 O 0.91812 0.40798 0.06518 0.0
C10 C 0.98661 0.15438 0.05612 0.0
O11 O 0.02337 0.13253 0.08776 0.0
O12 O 0.06151 0.27168 0.14137 0.0
C13 C 0.11145 0.71123 0.3396 0.0
O14 O 0.0942 0.67698 0.37678 0.0
O15 O 0.9951 0.6906 0.39197 0.0
Zn16 Zn 0.01486 0.76469 0.36429 0.0
O17 O 0.0173 0.81445 0.42887 0.0
C18 C 0.91716 0.80154 0.31965 0.0
O19 O 0.90599 0.79968 0.37235 0.0
O20 O 0.0857 0.75454 0.32842 0.0
C21 C 0.00309 0.86359 0.42394 0.0
O22 O 0.98858 0.8836 0.37527 0.0
C23 C 0.9941 0.6701 0.44075 0.0
O24 O 0.99781 0.701 0.48354 0.0
O25 O 0.96295 0.78999 0.30545 0.0
C26 C 0.40293 0.7419 0.70026 0.0
O27 O 0.3766 0.77907 0.67167 0.0
O28 O 0.47211 0.70315 0.56246 0.0
Zn29 Zn 0.48675 0.7591 0.62054 0.0
O30 O 0.45203 0.82985 0.59501 0.0
C31 C 0.58488 0.76154 0.68741 0.0
O32 O 0.5613 0.73589 0.72772 0.0
O33 O 0.44923 0.73028 0.68734 0.0
C34 C 0.45655 0.87292 0.56542 0.0
O35 O 0.41812 0.90798 0.56518 0.0
C36 C 0.48661 0.65438 0.55612 0.0
O37 O 0.52337 0.63253 0.58776 0.0
O38 O 0.56151 0.77168 0.64137 0.0
C39 C 0.61146 0.21124 0.83962 0.0
O40 O 0.59421 0.17701 0.87682 0.0
O41 O 0.4951 0.1906 0.89196 0.0
Zn42 Zn 0.51486 0.2647 0.86429 0.0
O43 O 0.5173 0.31446 0.92887 0.0
C44 C 0.41716 0.30154 0.81965 0.0
O45 O 0.40599 0.29969 0.87235 0.0
O46 O 0.5857 0.25454 0.82842 0.0
C47 C 0.50309 0.3636 0.92394 0.0
O48 O 0.48858 0.3836 0.87527 0.0
C49 C 0.4941 0.1701 0.94075 0.0
O50 O 0.49781 0.201 0.98354 0.0
O51 O 0.46295 0.28999 0.80545 0.0
C52 C 0.16738 0.88318 0.25058 0.0
O53 O 0.11802 0.87894 0.23833 0.0
O54 O 0.12141 0.99492 0.18073 0.0
Zn55 Zn 0.14258 0.99682 0.26089 0.0
O56 O 0.07936 0.01661 0.3039 0.0
C57 C 0.19817 0.10455 0.26706 0.0
O58 O 0.16858 0.12687 0.22799 0.0
O59 O 0.18152 0.92524 0.27507 0.0
C60 C 0.07691 0.01767 0.35604 0.0
O61 O 0.11384 0.99463 0.38652 0.0
C62 C 0.07502 0.99429 0.16222 0.0
O63 O 0.03603 0.00223 0.19519 0.0
O64 O 0.19332 0.05501 0.28099 0.0
C65 C 0.18354 0.96419 0.52169 0.0
O66 O 0.21708 0.9601 0.56289 0.0
O67 O 0.24627 0.84483 0.54911 0.0
Zn68 Zn 0.25766 0.89151 0.47943 0.0
O69 O 0.25973 0.84647 0.41271 0.0
C70 C 0.32773 0.97843 0.45851 0.0
O71 O 0.28777 -0.00015 0.43136 0.0
O72 O 0.19469 0.94174 0.47679 0.0
C73 C 0.29587 0.81179 0.40815 0.0
O74 O 0.33114 0.80578 0.44745 0.0
C75 C 0.26126 0.80171 0.57502 0.0
O76 O 0.2992 0.77211 0.55623 0.0
O77 O 0.32353 0.93289 0.4833 0.0
C78 C 0.34438 0.11599 0.72245 0.0
O79 O 0.38964 0.10364 0.70262 0.0
O80 O 0.37732 -0.00085 0.6799 0.0
Zn81 Zn 0.35034 0.00597 0.7555 0.0
O82 O 0.4094 0.99452 0.80874 0.0
C83 C 0.30747 0.90357 0.77715 0.0
O84 O 0.35662 0.8903 0.78336 0.0
O85 O 0.32116 0.08197 0.75334 0.0
C86 C 0.40797 0.97507 0.85768 0.0
O87 O 0.36339 0.96291 0.87976 0.0
C88 C 0.42475 0.00362 0.66809 0.0
O89 O 0.46037 0.00222 0.70727 0.0
O90 O 0.29469 0.9524 0.76686 0.0
C91 C 0.35368 0.0483 0.02048 0.0
O92 O 0.37443 0.06832 0.97543 0.0
O93 O 0.25347 0.17797 0.03986 0.0
Zn94 Zn 0.26356 0.11505 0.98937 0.0
O95 O 0.30555 0.1379 0.92434 0.0
C96 C 0.15066 0.08576 0.96239 0.0
O97 O 0.13388 0.13563 0.96662 0.0
O98 O 0.30758 0.06092 0.03252 0.0
C99 C 0.29863 0.17268 0.88548 0.0
O100 O 0.33588 0.17982 0.85002 0.0
C101 C 0.27093 0.17618 0.08943 0.0
O102 O 0.29268 0.13174 0.10999 0.0
O103 O 0.19862 0.07453 0.96914 0.0
C104 C 0.68354 0.46419 0.02169 0.0
O105 O 0.71708 0.46011 0.06289 0.0
O106 O 0.74627 0.34484 0.04911 0.0
Zn107 Zn 0.75767 0.39152 0.97943 0.0
O108 O 0.75974 0.34648 0.91271 0.0
C109 C 0.82773 0.47844 0.95851 0.0
O110 O 0.78777 0.49986 0.93137 0.0
O111 O 0.69469 0.44175 0.97679 0.0
C112 C 0.79587 0.31179 0.90814 0.0
O113 O 0.83114 0.30579 0.94745 0.0
C114 C 0.76126 0.30171 0.07501 0.0
O115 O 0.7992 0.27211 0.05622 0.0
O116 O 0.82353 0.4329 0.9833 0.0
C117 C 0.84438 0.61599 0.22245 0.0
O118 O 0.88964 0.60364 0.20263 0.0
O119 O 0.87732 0.49915 0.1799 0.0
Zn120 Zn 0.85034 0.50597 0.2555 0.0
O121 O 0.9094 0.49451 0.30874 0.0
C122 C 0.80746 0.40356 0.27715 0.0
O123 O 0.85662 0.39029 0.28336 0.0
O124 O 0.82116 0.58196 0.25334 0.0
C125 C 0.90796 0.47507 0.35768 0.0
O126 O 0.86339 0.4629 0.37977 0.0
C127 C 0.92475 0.50362 0.1681 0.0
O128 O 0.96037 0.50222 0.20728 0.0
O129 O 0.79469 0.4524 0.26687 0.0
C130 C 0.85367 0.5483 0.52049 0.0
O131 O 0.87443 0.56832 0.47544 0.0
O132 O 0.75347 0.67797 0.53986 0.0
Zn133 Zn 0.76356 0.61504 0.48937 0.0
O134 O 0.80555 0.6379 0.42434 0.0
C135 C 0.65066 0.58576 0.46239 0.0
O136 O 0.63388 0.63563 0.46661 0.0
O137 O 0.80758 0.56092 0.53252 0.0
C138 C 0.79863 0.67268 0.38548 0.0
O139 O 0.83588 0.67981 0.35002 0.0
C140 C 0.77093 0.67618 0.58943 0.0
O141 O 0.79269 0.63174 0.60998 0.0
O142 O 0.69862 0.57452 0.46914 0.0
C143 C 0.66738 0.38318 0.75058 0.0
O144 O 0.61801 0.37894 0.73833 0.0
O145 O 0.62141 0.49492 0.68073 0.0
Zn146 Zn 0.64258 0.49682 0.76088 0.0
O147 O 0.57936 0.51662 0.80389 0.0
C148 C 0.69818 0.60455 0.76706 0.0
O149 O 0.66859 0.62687 0.72798 0.0
O150 O 0.68152 0.42524 0.77507 0.0
C151 C 0.57691 0.51767 0.85604 0.0
O152 O 0.61384 0.49463 0.88651 0.0
C153 C 0.57502 0.49429 0.66221 0.0
O154 O 0.53603 0.50223 0.69519 0.0
O155 O 0.69332 0.55501 0.78098 0.0
C156 C 0.10757 0.74101 0.80144 0.0
O157 O 0.13307 0.71336 0.84033 0.0
O158 O 0.02026 0.66845 0.91494 0.0
Zn159 Zn 0.01471 0.74164 0.87373 0.0
O160 O 0.0355 0.80317 0.92383 0.0
C161 C 0.91515 0.75018 0.80467 0.0
O162 O 0.93999 0.76558 0.76021 0.0
O163 O 0.05953 0.75125 0.8067 0.0
C164 C 0.01789 0.84966 0.93573 0.0
O165 O 0.97349 0.86753 0.9149 0.0
C166 C 0.01755 0.66817 0.9673 0.0
O167 O 0.03219 0.71155 0.99247 0.0
O168 O 0.93908 0.7432 0.85075 0.0
C169 C 0.89968 0.27593 0.66066 0.0
O170 O 0.91374 0.29329 0.61173 0.0
O171 O 0.0142 0.18202 0.60832 0.0
Zn172 Zn 0.00545 0.2423 0.66277 0.0
O173 O 0.01507 0.31711 0.62955 0.0
C174 C 0.10321 0.22188 0.71479 0.0
O175 O 0.11483 0.21388 0.66322 0.0
O176 O 0.93119 0.24716 0.69047 0.0
C177 C 0.00797 0.33636 0.58072 0.0
O178 O 0.00063 0.30416 0.5395 0.0
C179 C 0.04525 0.18196 0.56804 0.0
O180 O 0.07409 0.22408 0.55782 0.0
O181 O 0.05661 0.23281 0.72673 0.0
C182 C 0.60757 0.24102 0.30143 0.0
O183 O 0.63306 0.21335 0.34032 0.0
O184 O 0.52026 0.16844 0.41493 0.0
Zn185 Zn 0.51471 0.24164 0.37373 0.0
O186 O 0.5355 0.30317 0.42382 0.0
C187 C 0.41515 0.25018 0.30467 0.0
O188 O 0.43999 0.26557 0.26021 0.0
O189 O 0.55953 0.25125 0.30669 0.0
C190 C 0.51789 0.34966 0.43573 0.0
O191 O 0.47349 0.36753 0.41489 0.0
C192 C 0.51755 0.16816 0.46729 0.0
O193 O 0.53219 0.21155 0.49247 0.0
O194 O 0.43908 0.2432 0.35075 0.0
C195 C 0.39968 0.77593 0.16066 0.0
O196 O 0.41375 0.7933 0.11173 0.0
O197 O 0.5142 0.68203 0.10832 0.0
Zn198 Zn 0.50545 0.7423 0.16277 0.0
O199 O 0.51507 0.81711 0.12955 0.0
C200 C 0.60321 0.72188 0.21479 0.0
O201 O 0.61483 0.71387 0.16322 0.0
O202 O 0.43119 0.74717 0.19046 0.0
C203 C 0.50797 0.83636 0.08071 0.0
O204 O 0.50063 0.80416 0.0395 0.0
C205 C 0.54525 0.68196 0.06804 0.0
O206 O 0.5741 0.72408 0.05782 0.0
O207 O 0.55662 0.73281 0.22673 0.0
C208 C 0.84448 0.11984 0.73652 0.0
O209 O 0.89357 0.12412 0.75004 0.0
O210 O 0.92849 0.98644 0.6875 0.0
Zn211 Zn 0.86559 0.00888 0.72804 0.0
O212 O 0.88452 0.01317 0.80827 0.0
C213 C 0.80412 0.9056 0.72672 0.0
O214 O 0.83122 0.88368 0.76801 0.0
O215 O 0.83202 0.08065 0.70696 0.0
C216 C 0.9305 0.01185 0.8279 0.0
O217 O 0.96974 0.00061 0.79631 0.0
C218 C 0.94823 0.00382 0.64305 0.0
O219 O 0.92844 0.04643 0.61666 0.0
O220 O 0.81267 0.95352 0.70967 0.0
C221 C 0.85957 0.09095 0.4941 0.0
O222 O 0.84345 0.1412 0.48859 0.0
O223 O 0.74794 0.13999 0.58208 0.0
Zn224 Zn 0.75465 0.08872 0.51768 0.0
O225 O 0.7496 0.12766 0.4421 0.0
C226 C 0.65518 0.03924 0.5421 0.0
O227 O 0.64717 0.08426 0.56772 0.0
O228 O 0.82868 0.05603 0.51394 0.0
C229 C 0.75195 0.17628 0.42377 0.0
O230 O 0.75217 0.21632 0.45784 0.0
C231 C 0.71506 0.1787 0.5834 0.0
O232 O 0.68335 0.1878 0.54122 0.0
O233 O 0.69879 0.03081 0.51987 0.0
C234 C 0.69235 0.91445 0.31357 0.0
O235 O 0.67546 0.94087 0.35593 0.0
O236 O 0.59983 0.9959 0.18214 0.0
Zn237 Zn 0.63715 0.99665 0.25366 0.0
O238 O 0.58895 0.98401 0.31571 0.0
C239 C 0.70975 0.07195 0.22085 0.0
O240 O 0.72136 0.03293 0.18763 0.0
O241 O 0.68528 0.93377 0.26463 0.0
C242 C 0.54679 0.00029 0.33545 0.0
O243 O 0.52156 0.04157 0.31227 0.0
C244 C 0.57438 0.03816 0.16754 0.0
O245 O 0.57389 0.07946 0.20007 0.0
O246 O 0.67465 0.06515 0.25628 0.0
C247 C 0.63995 0.95061 0.99409 0.0
O248 O 0.62223 0.93007 0.04049 0.0
O249 O 0.70675 0.86461 0.08904 0.0
Zn250 Zn 0.7378 0.88833 0.01614 0.0
O251 O 0.7441 0.82727 0.96181 0.0
C252 C 0.8518 0.9209 0.03012 0.0
O253 O 0.8684 0.87072 0.0287 0.0
O254 O 0.68577 0.9397 0.97925 0.0
C255 C 0.72996 0.83324 0.91114 0.0
O256 O 0.71355 0.88057 0.89193 0.0
C257 C 0.71831 0.83959 0.13427 0.0
O258 O 0.68251 0.83557 0.17187 0.0
O259 O 0.8035 0.93177 0.02597 0.0
C260 C 0.35957 0.59095 0.9941 0.0
O261 O 0.34345 0.64121 0.9886 0.0
O262 O 0.24794 0.63999 0.08208 0.0
Zn263 Zn 0.25465 0.58872 0.01768 0.0
O264 O 0.2496 0.62766 0.9421 0.0
C265 C 0.15518 0.53924 0.0421 0.0
O266 O 0.14718 0.58426 0.06773 0.0
O267 O 0.32868 0.55603 0.01393 0.0
C268 C 0.25196 0.67629 0.92378 0.0
O269 O 0.25219 0.71632 0.95785 0.0
C270 C 0.21507 0.6787 0.0834 0.0
O271 O 0.18336 0.68781 0.04122 0.0
O272 O 0.1988 0.53081 0.01987 0.0
C273 C 0.19235 0.41445 0.81357 0.0
O274 O 0.17546 0.44087 0.85593 0.0
O275 O 0.09984 0.49591 0.68214 0.0
Zn276 Zn 0.13715 0.49665 0.75366 0.0
O277 O 0.08895 0.48401 0.81571 0.0
C278 C 0.20976 0.57195 0.72086 0.0
O279 O 0.22137 0.53292 0.68765 0.0
O280 O 0.18528 0.43377 0.76463 0.0
C281 C 0.0468 0.5003 0.83546 0.0
O282 O 0.02157 0.54159 0.81228 0.0
C283 C 0.07438 0.53817 0.66754 0.0
O284 O 0.07388 0.57947 0.70007 0.0
O285 O 0.17465 0.56516 0.75628 0.0
C286 C 0.13995 0.45062 0.49409 0.0
O287 O 0.12223 0.43007 0.54049 0.0
O288 O 0.20675 0.36462 0.58904 0.0
Zn289 Zn 0.2378 0.38833 0.51614 0.0
O290 O 0.2441 0.32727 0.46181 0.0
C291 C 0.3518 0.4209 0.53011 0.0
O292 O 0.36839 0.37072 0.5287 0.0
O293 O 0.18577 0.4397 0.47925 0.0
C294 C 0.22996 0.33324 0.41114 0.0
O295 O 0.21355 0.38058 0.39193 0.0
C296 C 0.21831 0.33959 0.63427 0.0
O297 O 0.18251 0.33557 0.67187 0.0
O298 O 0.3035 0.43177 0.52597 0.0
C299 C 0.34448 0.61984 0.23652 0.0
O300 O 0.39357 0.62412 0.25004 0.0
O301 O 0.42849 0.48644 0.18749 0.0
Zn302 Zn 0.36559 0.50888 0.22804 0.0
O303 O 0.38452 0.51317 0.30826 0.0
C304 C 0.30412 0.4056 0.22672 0.0
O305 O 0.33122 0.38368 0.26801 0.0
O306 O 0.33202 0.58065 0.20695 0.0
C307 C 0.4305 0.51185 0.3279 0.0
O308 O 0.46974 0.5006 0.29631 0.0
C309 C 0.44823 0.50382 0.14304 0.0
O310 O 0.42844 0.54643 0.11666 0.0
O311 O 0.31267 0.45352 0.20967 0.0
O312 O 0.06649 0.04971 0.97618 0.0
Mn313 Mn 0.00165 0.0026 0.99549 0.0
O314 O 0.13474 0.9934 0.96878 0.0
Mn315 Mn 0.10461 0.93751 0.00805 0.0
O316 O 0.93636 0.95602 0.01494 0.0
O317 O 0.96282 0.07196 0.00808 0.0
Mn318 Mn 0.89929 0.06912 0.98107 0.0
O319 O 0.97752 0.0041 0.91279 0.0
O320 O 0.868 0.01303 0.01907 0.0
O321 O 0.02616 0.00101 0.07819 0.0
O322 O 0.10023 0.95138 0.08251 0.0
O323 O 0.9062 0.13704 0.00958 0.0
O324 O 0.90496 0.05595 0.90669 0.0
C325 C 0.052 0.8849 0.96731 0.0
C326 C 0.11447 0.04051 0.96584 0.0
C327 C 0.8881 0.96586 0.02371 0.0
C328 C 0.95249 0.12043 0.02312 0.0
C329 C 0.93883 0.02527 0.88558 0.0
C330 C 0.066 0.98104 0.10448 0.0
O331 O 0.04065 0.93317 0.9825 0.0
O332 O 0.09882 0.86941 0.97997 0.0
O333 O 0.32699 0.7566 0.21527 0.0
Mn334 Mn 0.25382 0.74585 0.24699 0.0
O335 O 0.31956 0.82029 0.14723 0.0
Mn336 Mn 0.24762 0.82526 0.14534 0.0
O337 O 0.18129 0.73421 0.28117 0.0
O338 O 0.27974 0.67649 0.27926 0.0
Mn339 Mn 0.26424 0.66417 0.34832 0.0
O340 O 0.27411 0.78522 0.31846 0.0
O341 O 0.19223 0.66782 0.34682 0.0
O342 O 0.23408 0.70562 0.17486 0.0
O343 O 0.21812 0.76902 0.10783 0.0
O344 O 0.30624 0.60679 0.32587 0.0
O345 O 0.29351 0.72152 0.38447 0.0
C346 C 0.20341 0.86177 0.20999 0.0
C347 C 0.34611 0.78592 0.1766 0.0
C348 C 0.16429 0.70315 0.32007 0.0
C349 C 0.30796 0.63383 0.27958 0.0
C350 C 0.28998 0.77056 0.36719 0.0
C351 C 0.22077 0.71996 0.12508 0.0
O352 O 0.22798 0.81628 0.21423 0.0
O353 O 0.20882 0.88613 0.16257 0.0
O354 O 0.41594 0.98676 0.48281 0.0
Mn355 Mn 0.49103 0.00915 0.50465 0.0
O356 O 0.36565 0.06119 0.47658 0.0
Mn357 Mn 0.40824 0.09709 0.52461 0.0
O358 O 0.56597 0.02967 0.5262 0.0
O359 O 0.51051 0.93237 0.51083 0.0
Mn360 Mn 0.56888 0.91281 0.48164 0.0
O361 O 0.51085 0.01251 0.42263 0.0
O362 O 0.61815 0.95689 0.51497 0.0
O363 O 0.47195 0.00408 0.58641 0.0
O364 O 0.40804 0.0658 0.59547 0.0
O365 O 0.53884 0.8523 0.51969 0.0
O366 O 0.5563 0.93551 0.40796 0.0
C367 C 0.47422 0.13907 0.4921 0.0
C368 C 0.37295 0.011 0.47026 0.0
C369 C 0.61051 0.0059 0.52841 0.0
C370 C 0.50251 0.88575 0.53203 0.0
C371 C 0.53493 0.98038 0.39119 0.0
C372 C 0.43645 0.02645 0.61395 0.0
O373 O 0.47157 0.08761 0.50003 0.0
O374 O 0.43337 0.16506 0.50723 0.0
O375 O 0.33123 0.28432 0.79693 0.0
Mn376 Mn 0.2608 0.2624 0.76455 0.0
O377 O 0.38527 0.30455 0.72721 0.0
Mn378 Mn 0.34423 0.27599 0.67103 0.0
O379 O 0.18993 0.23976 0.73401 0.0
O380 O 0.2409 0.23538 0.83746 0.0
Mn381 Mn 0.18069 0.25531 0.8621 0.0
O382 O 0.23082 0.33691 0.78067 0.0
O383 O 0.13517 0.23312 0.80605 0.0
O384 O 0.29169 0.18813 0.74811 0.0
O385 O 0.34668 0.20069 0.67704 0.0
O386 O 0.2138 0.20626 0.91427 0.0
O387 O 0.18835 0.33041 0.86131 0.0
C388 C 0.26973 0.31542 0.64636 0.0
C389 C 0.375 0.29972 0.7787 0.0
C390 C 0.14531 0.23048 0.7545 0.0
C391 C 0.25083 0.20506 0.87931 0.0
C392 C 0.20681 0.35779 0.8206 0.0
C393 C 0.32516 0.17107 0.7142 0.0
O394 O 0.28093 0.29002 0.69137 0.0
O395 O 0.30856 0.31658 0.61364 0.0
O396 O 0.00493 0.95039 0.45962 0.0
Mn397 Mn 0.01885 0.02003 0.50147 0.0
O398 O 0.02276 0.87956 0.51775 0.0
Mn399 Mn 0.04429 0.91914 0.5784 0.0
O400 O 0.03236 0.09176 0.54216 0.0
O401 O 0.02755 0.05694 0.42972 0.0
Mn402 Mn -6e-05 0.12124 0.42192 0.0
O403 O 0.93966 0.04062 0.50068 0.0
O404 O 0.03518 0.15822 0.4761 0.0
O405 O 0.09849 -4e-05 0.50274 0.0
O406 O 0.11242 0.94044 0.57393 0.0
O407 O 0.02896 0.10235 0.35405 0.0
O408 O 0.93084 0.1115 0.44001 0.0
C409 C 0.98926 0.97115 0.61928 0.0
C410 C 0.00944 0.89966 0.47028 0.0
C411 C 0.03957 0.14112 0.52629 0.0
C412 C 0.04258 0.05804 0.37998 0.0
C413 C 0.91255 0.07841 0.47606 0.0
C414 C 0.12872 0.97101 0.53486 0.0
O415 O 0.00989 0.98073 0.57257 0.0
O416 O 0.00508 0.92602 0.64217 0.0
O417 O 0.28625 0.81268 0.76846 0.0
Mn418 Mn 0.25618 0.73856 0.74989 0.0
O419 O 0.2245 0.87622 0.75071 0.0
Mn420 Mn 0.17965 0.83159 0.71352 0.0
O421 O 0.22655 0.66355 0.73207 0.0
O422 O 0.32846 0.70868 0.75095 0.0
Mn423 Mn 0.33393 0.64489 0.78379 0.0
O424 O 0.24871 0.71864 0.83403 0.0
O425 O 0.29172 0.6022 0.74179 0.0
O426 O 0.26401 0.75904 0.66524 0.0
O427 O 0.20032 0.81924 0.64235 0.0
O428 O 0.39975 0.66293 0.75997 0.0
O429 O 0.30916 0.65391 0.85445 0.0
C430 C 0.13545 0.7741 0.76076 0.0
C431 C 0.26975 0.86164 0.76754 0.0
C432 C 0.24536 0.61562 0.72844 0.0
C433 C 0.37679 0.70582 0.73946 0.0
C434 C 0.27135 0.68442 0.86766 0.0
C435 C 0.23974 0.79077 0.63012 0.0
O436 O 0.1838 0.7689 0.7494 0.0
O437 O 0.11383 0.81711 0.73875 0.0
O438 O 0.4491 0.98442 0.94378 0.0
Mn439 Mn 0.49623 0.00199 0.01065 0.0
O440 O 0.49742 0.98489 0.86732 0.0
Mn441 Mn 0.55183 0.02185 0.8981 0.0
O442 O 0.54182 0.01969 0.07922 0.0
O443 O 0.43323 0.00689 0.05489 0.0
Mn444 Mn 0.43822 0.98088 0.12234 0.0
O445 O 0.50375 0.9208 0.03252 0.0
O446 O 0.48777 0.02515 0.15137 0.0
O447 O 0.48969 0.08416 0.98822 0.0
O448 O 0.53371 0.0931 0.90841 0.0
O449 O 0.3694 0.00435 0.10967 0.0
O450 O 0.46273 0.91051 0.11397 0.0
C451 C 0.60576 0.98124 0.95556 0.0
C452 C 0.45459 0.97841 0.89193 0.0
C453 C 0.5318 0.03145 0.12929 0.0
C454 C 0.38561 0.01837 0.06127 0.0
C455 C 0.49074 0.89263 0.07519 0.0
C456 C 0.50597 0.11228 0.94657 0.0
O457 O 0.55912 0.99531 0.96558 0.0
O458 O 0.61943 0.99421 0.9059 0.0
O459 O 0.32943 0.25859 0.26598 0.0
Mn460 Mn 0.24939 0.25613 0.24857 0.0
O461 O 0.3456 0.20119 0.33856 0.0
Mn462 Mn 0.27753 0.18695 0.35532 0.0
O463 O 0.1693 0.25398 0.22981 0.0
O464 O 0.25521 0.32519 0.20496 0.0
Mn465 Mn 0.22262 0.32423 0.14067 0.0
O466 O 0.26301 0.21232 0.17795 0.0
O467 O 0.15443 0.31199 0.15717 0.0
O468 O 0.23617 0.29958 0.3204 0.0
O469 O 0.24792 0.24234 0.39414 0.0
O470 O 0.25254 0.39155 0.14538 0.0
O471 O 0.2513 0.26754 0.10288 0.0
C472 C 0.23117 0.13748 0.30216 0.0
C473 C 0.36031 0.23547 0.30198 0.0
C474 C 0.1391 0.27753 0.19317 0.0
C475 C 0.26945 0.3735 0.19305 0.0
C476 C 0.26227 0.2216 0.12542 0.0
C477 C 0.23715 0.28894 0.37295 0.0
O478 O 0.24395 0.18656 0.29157 0.0
O479 O 0.24894 0.1189 0.34927 0.0
O480 O 0.50494 0.45039 0.95962 0.0
Mn481 Mn 0.51885 0.52003 0.00146 0.0
O482 O 0.52277 0.37957 0.01775 0.0
Mn483 Mn 0.54429 0.41914 0.07839 0.0
O484 O 0.53236 0.59176 0.04216 0.0
O485 O 0.52755 0.55695 0.92972 0.0
Mn486 Mn 0.49994 0.62124 0.92192 0.0
O487 O 0.43966 0.54062 0.00068 0.0
O488 O 0.53518 0.65822 0.9761 0.0
O489 O 0.59849 0.49997 0.00274 0.0
O490 O 0.61242 0.44045 0.07392 0.0
O491 O 0.52896 0.60235 0.85405 0.0
O492 O 0.43084 0.6115 0.94001 0.0
C493 C 0.48927 0.47115 0.11928 0.0
C494 C 0.50945 0.39966 0.97028 0.0
C495 C 0.53957 0.64112 0.02629 0.0
C496 C 0.54258 0.55805 0.87998 0.0
C497 C 0.41256 0.57841 0.97606 0.0
C498 C 0.62872 0.47101 0.03485 0.0
O499 O 0.50989 0.48073 0.07257 0.0
O500 O 0.50508 0.42602 0.14216 0.0
O501 O 0.78624 0.31268 0.26846 0.0
Mn502 Mn 0.75617 0.23856 0.24988 0.0
O503 O 0.72449 0.37622 0.25071 0.0
Mn504 Mn 0.67965 0.3316 0.21351 0.0
O505 O 0.72655 0.16355 0.23206 0.0
O506 O 0.82845 0.20868 0.25095 0.0
Mn507 Mn 0.83392 0.14488 0.28379 0.0
O508 O 0.7487 0.21864 0.33403 0.0
O509 O 0.79171 0.1022 0.24178 0.0
O510 O 0.764 0.25904 0.16524 0.0
O511 O 0.70032 0.31924 0.14235 0.0
O512 O 0.89974 0.16293 0.25996 0.0
O513 O 0.80915 0.1539 0.35444 0.0
C514 C 0.63544 0.2741 0.26075 0.0
C515 C 0.76975 0.36164 0.26754 0.0
C516 C 0.74535 0.11562 0.22843 0.0
C517 C 0.87679 0.20582 0.23946 0.0
C518 C 0.77134 0.18441 0.36766 0.0
C519 C 0.73974 0.29078 0.13011 0.0
O520 O 0.68379 0.2689 0.24939 0.0
O521 O 0.61383 0.31711 0.23874 0.0
O522 O 0.94909 0.48442 0.44378 0.0
Mn523 Mn 0.99623 0.50199 0.51065 0.0
O524 O 0.99742 0.48489 0.36733 0.0
Mn525 Mn 0.05182 0.52184 0.39811 0.0
O526 O 0.04182 0.51969 0.57923 0.0
O527 O 0.93323 0.50689 0.5549 0.0
Mn528 Mn 0.93822 0.48087 0.62234 0.0
O529 O 0.00375 0.4208 0.53252 0.0
O530 O 0.98777 0.52515 0.65137 0.0
O531 O 0.98969 0.58415 0.48822 0.0
O532 O 0.0337 0.59309 0.40841 0.0
O533 O 0.8694 0.50435 0.60967 0.0
O534 O 0.96273 0.41051 0.61398 0.0
C535 C 0.10576 0.48124 0.45556 0.0
C536 C 0.95459 0.4784 0.39193 0.0
C537 C 0.03179 0.53145 0.62929 0.0
C538 C 0.88561 0.51837 0.56128 0.0
C539 C 0.99074 0.39263 0.57519 0.0
C540 C 0.00597 0.61227 0.44658 0.0
O541 O 0.05912 0.49531 0.46558 0.0
O542 O 0.11943 0.49421 0.4059 0.0
O543 O 0.83123 0.78432 0.29693 0.0
Mn544 Mn 0.7608 0.7624 0.26455 0.0
O545 O 0.88527 0.80455 0.22721 0.0
Mn546 Mn 0.84423 0.77598 0.17103 0.0
O547 O 0.68993 0.73976 0.23401 0.0
O548 O 0.7409 0.73537 0.33747 0.0
Mn549 Mn 0.68069 0.75531 0.3621 0.0
O550 O 0.73082 0.83691 0.28067 0.0
O551 O 0.63517 0.73312 0.30605 0.0
O552 O 0.79169 0.68812 0.24811 0.0
O553 O 0.84668 0.70069 0.17704 0.0
O554 O 0.7138 0.70626 0.41427 0.0
O555 O 0.68835 0.8304 0.36131 0.0
C556 C 0.76973 0.81542 0.14636 0.0
C557 C 0.875 0.79971 0.2787 0.0
C558 C 0.64531 0.73047 0.2545 0.0
C559 C 0.75083 0.70506 0.37931 0.0
C560 C 0.70681 0.85779 0.3206 0.0
C561 C 0.82516 0.67107 0.21421 0.0
O562 O 0.78093 0.79002 0.19137 0.0
O563 O 0.80856 0.81657 0.11364 0.0
O564 O 0.82699 0.2566 0.71527 0.0
Mn565 Mn 0.75382 0.24585 0.74699 0.0
O566 O 0.81956 0.32029 0.64723 0.0
Mn567 Mn 0.74762 0.32526 0.64534 0.0
O568 O 0.68129 0.23421 0.78117 0.0
O569 O 0.77974 0.1765 0.77927 0.0
Mn570 Mn 0.76425 0.16418 0.84833 0.0
O571 O 0.77411 0.28523 0.81846 0.0
O572 O 0.69223 0.16782 0.84684 0.0
O573 O 0.73408 0.20562 0.67486 0.0
O574 O 0.71812 0.26901 0.60783 0.0
O575 O 0.80624 0.1068 0.82588 0.0
O576 O 0.79352 0.22153 0.88447 0.0
C577 C 0.70341 0.36176 0.70999 0.0
C578 C 0.84611 0.28592 0.6766 0.0
C579 C 0.6643 0.20316 0.82008 0.0
C580 C 0.80796 0.13383 0.77959 0.0
C581 C 0.78998 0.27057 0.86719 0.0
C582 C 0.72076 0.21996 0.62508 0.0
O583 O 0.72798 0.31628 0.71423 0.0
O584 O 0.70882 0.38613 0.66257 0.0
O585 O 0.82943 0.75859 0.76598 0.0
Mn586 Mn 0.74939 0.75613 0.74857 0.0
O587 O 0.84561 0.70118 0.83855 0.0
Mn588 Mn 0.77753 0.68695 0.85532 0.0
O589 O 0.6693 0.75397 0.72981 0.0
O590 O 0.75521 0.82519 0.70496 0.0
Mn591 Mn 0.72262 0.82423 0.64067 0.0
O592 O 0.76301 0.71232 0.67795 0.0
O593 O 0.65444 0.81199 0.65716 0.0
O594 O 0.73618 0.79958 0.8204 0.0
O595 O 0.74792 0.74234 0.89414 0.0
O596 O 0.75255 0.89155 0.64538 0.0
O597 O 0.7513 0.76754 0.60288 0.0
C598 C 0.73117 0.63748 0.80216 0.0
C599 C 0.86031 0.73547 0.80198 0.0
C600 C 0.63911 0.77753 0.69317 0.0
C601 C 0.76945 0.8735 0.69305 0.0
C602 C 0.76227 0.7216 0.62542 0.0
C603 C 0.73715 0.78893 0.87294 0.0
O604 O 0.74396 0.68656 0.79157 0.0
O605 O 0.74895 0.6189 0.84927 0.0
O606 O 0.56649 0.54971 0.47618 0.0
Mn607 Mn 0.50165 0.5026 0.49548 0.0
O608 O 0.63474 0.4934 0.46878 0.0
Mn609 Mn 0.60461 0.43751 0.50804 0.0
O610 O 0.43636 0.45602 0.51494 0.0
O611 O 0.46282 0.57196 0.50807 0.0
Mn612 Mn 0.39929 0.56912 0.48106 0.0
O613 O 0.47752 0.5041 0.41278 0.0
O614 O 0.368 0.51303 0.51907 0.0
O615 O 0.52616 0.50101 0.57819 0.0
O616 O 0.60023 0.45138 0.5825 0.0
O617 O 0.4062 0.63704 0.50958 0.0
O618 O 0.40496 0.55595 0.40668 0.0
C619 C 0.552 0.3849 0.46731 0.0
C620 C 0.61447 0.54051 0.46583 0.0
C621 C 0.3881 0.46586 0.52371 0.0
C622 C 0.45249 0.62043 0.52311 0.0
C623 C 0.43883 0.52527 0.38558 0.0
C624 C 0.566 0.48104 0.60448 0.0
O625 O 0.54065 0.43317 0.48249 0.0
O626 O 0.59882 0.36941 0.47997 0.0
O627 O 0.91595 0.48676 0.98281 0.0
Mn628 Mn 0.99104 0.50915 0.00466 0.0
O629 O 0.86566 0.5612 0.97659 0.0
Mn630 Mn 0.90825 0.5971 0.02462 0.0
O631 O 0.06597 0.52968 0.0262 0.0
O632 O 0.01051 0.43237 0.01084 0.0
Mn633 Mn 0.06888 0.41282 0.98164 0.0
O634 O 0.01086 0.51252 0.92264 0.0
O635 O 0.11815 0.45689 0.01497 0.0
O636 O 0.97195 0.50408 0.08642 0.0
O637 O 0.90804 0.5658 0.09548 0.0
O638 O 0.03884 0.35231 0.01969 0.0
O639 O 0.0563 0.43552 0.90796 0.0
C640 C 0.97423 0.63907 0.99211 0.0
C641 C 0.87295 0.51101 0.97027 0.0
C642 C 0.11052 0.5059 0.02841 0.0
C643 C 0.00251 0.38575 0.03203 0.0
C644 C 0.03493 0.48039 0.89119 0.0
C645 C 0.93645 0.52645 0.11396 0.0
O646 O 0.97157 0.58761 4e-05 0.0
O647 O 0.93338 0.66507 0.00724 0.0
loop_
_geom_bond_atom_site_label_1
_geom_bond_atom_site_label_2
_geom_bond_distance
_geom_bond_site_symmetry_2
_ccdc_geom_bond_type
C0 O1 1.160 . S
C0 O7 1.185 . S
O1 C0 1.160 . S
O2 Zn3 1.899 . S
O2 C10 1.284 1_655 S
Zn3 O2 1.899 . S
Zn3 O4 2.032 . S
Zn3 O7 2.086 . S
Zn3 O12 1.977 1_655 S
O4 Zn3 2.032 . S
O4 C8 1.278 1_655 S
C5 O6 1.203 . S
C5 O12 1.267 . S
O6 C5 1.203 . S
O7 C0 1.185 . S
O7 Zn3 2.086 . S
C8 O4 1.278 1_455 S
C8 O9 1.211 . S
O9 C8 1.211 . S
C10 O2 1.284 1_455 S
C10 O11 1.273 . S
O11 C10 1.273 . S
O12 Zn3 1.977 1_455 S
O12 C5 1.267 . S
C13 O14 1.160 . S
C13 O20 1.185 . S
O14 C13 1.160 . S
O15 Zn16 1.899 . S
O15 C23 1.284 1_455 S
Zn16 O15 1.899 . S
Zn16 O17 2.032 . S
Zn16 O20 2.086 . S
Zn16 O25 1.977 1_455 S
O17 Zn16 2.032 . S
O17 C21 1.278 1_455 S
C18 O19 1.203 . S
C18 O25 1.267 . S
O19 C18 1.203 . S
O20 C13 1.185 . S
O20 Zn16 2.086 . S
C21 O17 1.278 1_655 S
C21 O22 1.211 . S
O22 C21 1.211 . S
C23 O15 1.284 1_655 S
C23 O24 1.273 . S
O24 C23 1.273 . S
O25 Zn16 1.977 1_655 S
O25 C18 1.267 . S
C26 O27 1.160 . S
C26 O33 1.185 . S
O27 C26 1.160 . S
O28 Zn29 1.899 . S
O28 C36 1.284 . S
Zn29 O28 1.899 . S
Zn29 O30 2.032 . S
Zn29 O33 2.086 . S
Zn29 O38 1.977 . S
O30 Zn29 2.032 . S
O30 C34 1.278 . S
C31 O32 1.203 . S
C31 O38 1.267 . S
O32 C31 1.203 . S
O33 C26 1.185 . S
O33 Zn29 2.086 . S
C34 O30 1.278 . S
C34 O35 1.211 . S
O35 C34 1.211 . S
C36 O28 1.284 . S
C36 O37 1.273 . S
O37 C36 1.273 . S
O38 Zn29 1.977 . S
O38 C31 1.267 . S
C39 O40 1.160 . S
C39 O46 1.185 . S
O40 C39 1.160 . S
O41 Zn42 1.899 . S
O41 C49 1.284 . S
Zn42 O41 1.899 . S
Zn42 O43 2.032 . S
Zn42 O46 2.086 . S
Zn42 O51 1.977 . S
O43 Zn42 2.032 . S
O43 C47 1.278 . S
C44 O45 1.203 . S
C44 O51 1.267 . S
O45 C44 1.203 . S
O46 C39 1.185 . S
O46 Zn42 2.086 . S
C47 O43 1.278 . S
C47 O48 1.211 . S
O48 C47 1.211 . S
C49 O41 1.284 . S
C49 O50 1.273 . S
O50 C49 1.273 . S
O51 Zn42 1.977 . S
O51 C44 1.267 . S
C52 O53 1.160 . S
C52 O59 1.185 . S
O53 C52 1.160 . S
O54 Zn55 1.899 1_565 S
O54 C62 1.281 1_565 S
Zn55 O54 1.899 1_545 S
Zn55 O56 2.032 1_545 S
Zn55 O59 2.086 1_545 S
Zn55 O64 1.977 . S
O56 Zn55 2.032 1_565 S
O56 C60 1.278 1_565 S
C57 O58 1.203 . S
C57 O64 1.267 . S
O58 C57 1.203 . S
O59 C52 1.185 . S
O59 Zn55 2.086 1_565 S
C60 O56 1.278 1_545 S
C60 O61 1.211 . S
O61 C60 1.211 . S
C62 O54 1.281 1_545 S
C62 O63 1.273 . S
O63 C62 1.273 . S
O64 Zn55 1.977 . S
O64 C57 1.267 . S
C65 O66 1.160 . S
C65 O72 1.185 . S
O66 C65 1.160 . S
O67 Zn68 1.899 . S
O67 C75 1.284 . S
Zn68 O67 1.899 . S
Zn68 O69 2.032 . S
Zn68 O72 2.086 . S
Zn68 O77 1.977 . S
O69 Zn68 2.032 . S
O69 C73 1.278 . S
C70 O71 1.203 . S
C70 O77 1.267 . S
O71 C70 1.203 . S
O72 C65 1.185 . S
O72 Zn68 2.086 . S
C73 O69 1.278 . S
C73 O74 1.211 . S
O74 C73 1.211 . S
C75 O67 1.284 . S
C75 O76 1.273 . S
O76 C75 1.273 . S
O77 Zn68 1.977 . S
O77 C70 1.267 . S
C78 O79 1.160 . S
C78 O85 1.185 . S
O79 C78 1.160 . S
O80 Zn81 1.899 . S
O80 C88 1.287 . S
Zn81 O80 1.899 . S
Zn81 O82 2.032 . S
Zn81 O85 2.086 . S
Zn81 O90 1.977 1_545 S
O82 Zn81 2.032 . S
O82 C86 1.278 1_545 S
C83 O84 1.203 . S
C83 O90 1.267 . S
O84 C83 1.203 . S
O85 C78 1.185 . S
O85 Zn81 2.086 . S
C86 O82 1.278 1_565 S
C86 O87 1.211 . S
O87 C86 1.211 . S
C88 O80 1.287 . S
C88 O89 1.269 1_545 S
O89 C88 1.269 1_565 S
O90 Zn81 1.977 1_565 S
O90 C83 1.267 . S
C91 O92 1.160 . S
C91 O98 1.184 1_554 S
O92 C91 1.160 . S
O93 Zn94 1.899 . S
O93 C101 1.284 . S
Zn94 O93 1.899 . S
Zn94 O95 2.032 1_554 S
Zn94 O98 2.085 1_554 S
Zn94 O103 1.977 1_554 S
O95 Zn94 2.032 1_556 S
O95 C99 1.278 . S
C96 O97 1.203 . S
C96 O103 1.267 1_554 S
O97 C96 1.203 . S
O98 C91 1.184 1_556 S
O98 Zn94 2.085 1_556 S
C99 O95 1.278 . S
C99 O100 1.211 . S
O100 C99 1.211 . S
C101 O93 1.284 . S
C101 O102 1.273 . S
O102 C101 1.273 . S
O103 Zn94 1.977 1_556 S
O103 C96 1.267 1_556 S
C104 O105 1.160 . S
C104 O111 1.185 1_554 S
O105 C104 1.160 . S
O106 Zn107 1.899 . S
O106 C114 1.284 . S
Zn107 O106 1.899 . S
Zn107 O108 2.032 1_554 S
Zn107 O111 2.086 1_554 S
Zn107 O116 1.977 1_554 S
O108 Zn107 2.032 1_556 S
O108 C112 1.278 . S
C109 O110 1.203 . S
C109 O116 1.267 1_554 S
O110 C109 1.203 . S
O111 C104 1.185 1_556 S
O111 Zn107 2.086 1_556 S
C112 O108 1.278 . S
C112 O113 1.211 . S
O113 C112 1.211 . S
C114 O106 1.284 . S
C114 O115 1.273 . S
O115 C114 1.273 . S
O116 Zn107 1.977 1_556 S
O116 C109 1.267 1_556 S
C117 O118 1.160 . S
C117 O124 1.185 . S
O118 C117 1.160 . S
O119 Zn120 1.899 . S
O119 C127 1.284 . S
Zn120 O119 1.899 . S
Zn120 O121 2.032 . S
Zn120 O124 2.086 . S
Zn120 O129 1.977 . S
O121 Zn120 2.032 . S
O121 C125 1.278 . S
C122 O123 1.203 . S
C122 O129 1.267 . S
O123 C122 1.203 . S
O124 C117 1.185 . S
O124 Zn120 2.086 . S
C125 O121 1.278 . S
C125 O126 1.211 . S
O126 C125 1.211 . S
C127 O119 1.284 . S
C127 O128 1.273 . S
O128 C127 1.273 . S
O129 Zn120 1.977 . S
O129 C122 1.267 . S
C130 O131 1.160 . S
C130 O137 1.185 . S
O131 C130 1.160 . S
O132 Zn133 1.899 . S
O132 C140 1.284 . S
Zn133 O132 1.899 . S
Zn133 O134 2.032 . S
Zn133 O137 2.086 . S
Zn133 O142 1.977 . S
O134 Zn133 2.032 . S
O134 C138 1.278 . S
C135 O136 1.203 . S
C135 O142 1.267 . S
O136 C135 1.203 . S
O137 C130 1.185 . S
O137 Zn133 2.086 . S
C138 O134 1.278 . S
C138 O139 1.211 . S
O139 C138 1.211 . S
C140 O132 1.284 . S
C140 O141 1.273 . S
O141 C140 1.273 . S
O142 Zn133 1.977 . S
O142 C135 1.267 . S
C143 O144 1.160 . S
C143 O150 1.185 . S
O144 C143 1.160 . S
O145 Zn146 1.899 . S
O145 C153 1.284 . S
Zn146 O145 1.899 . S
Zn146 O147 2.032 . S
Zn146 O150 2.086 . S
Zn146 O155 1.977 . S
O147 Zn146 2.032 . S
O147 C151 1.278 . S
C148 O149 1.203 . S
C148 O155 1.267 . S
O149 C148 1.203 . S
O150 C143 1.185 . S
O150 Zn146 2.086 . S
C151 O147 1.278 . S
C151 O152 1.211 . S
O152 C151 1.211 . S
C153 O145 1.284 . S
C153 O154 1.273 . S
O154 C153 1.273 . S
O155 Zn146 1.977 . S
O155 C148 1.267 . S
C156 O157 1.160 . S
C156 O163 1.185 . S
O157 C156 1.160 . S
O158 Zn159 1.899 . S
O158 C166 1.284 . S
Zn159 O158 1.899 . S
Zn159 O160 2.032 . S
Zn159 O163 2.086 . S
Zn159 O168 1.977 1_455 S
O160 Zn159 2.032 . S
O160 C164 1.278 1_455 S
C161 O162 1.203 . S
C161 O168 1.267 . S
O162 C161 1.203 . S
O163 C156 1.185 . S
O163 Zn159 2.086 . S
C164 O160 1.278 1_655 S
C164 O165 1.211 . S
O165 C164 1.211 . S
C166 O158 1.284 . S
C166 O167 1.273 1_455 S
O167 C166 1.273 1_655 S
O168 Zn159 1.977 1_655 S
O168 C161 1.267 . S
C169 O170 1.160 . S
C169 O176 1.185 . S
O170 C169 1.160 . S
O171 Zn172 1.899 1_655 S
O171 C179 1.284 1_655 S
Zn172 O171 1.899 1_455 S
Zn172 O173 2.025 1_455 S
Zn172 O176 2.070 1_455 S
Zn172 O181 1.995 . S
O173 Zn172 2.025 1_655 S
O173 C177 1.278 1_655 S
C174 O175 1.203 . S
C174 O181 1.267 . S
O175 C174 1.203 . S
O176 C169 1.185 . S
O176 Zn172 2.070 1_655 S
C177 O173 1.278 1_455 S
C177 O178 1.211 . S
O178 C177 1.211 . S
C179 O171 1.284 1_455 S
C179 O180 1.273 . S
O180 C179 1.273 . S
O181 Zn172 1.995 . S
O181 C174 1.267 . S
C182 O183 1.160 . S
C182 O189 1.185 . S
O183 C182 1.160 . S
O184 Zn185 1.899 . S
O184 C192 1.284 . S
Zn185 O184 1.899 . S
Zn185 O186 2.032 . S
Zn185 O189 2.086 . S
Zn185 O194 1.977 . S
O186 Zn185 2.032 . S
O186 C190 1.278 . S
C187 O188 1.203 . S
C187 O194 1.267 . S
O188 C187 1.203 . S
O189 C182 1.185 . S
O189 Zn185 2.086 . S
C190 O186 1.278 . S
C190 O191 1.211 . S
O191 C190 1.211 . S
C192 O184 1.284 . S
C192 O193 1.273 . S
O193 C192 1.273 . S
O194 Zn185 1.977 . S
O194 C187 1.267 . S
C195 O196 1.160 . S
C195 O202 1.185 . S
O196 C195 1.160 . S
O197 Zn198 1.899 . S
O197 C205 1.284 . S
Zn198 O197 1.899 . S
Zn198 O199 2.032 . S
Zn198 O202 2.086 . S
Zn198 O207 1.977 . S
O199 Zn198 2.032 . S
O199 C203 1.278 . S
C200 O201 1.203 . S
C200 O207 1.267 . S
O201 C200 1.203 . S
O202 C195 1.185 . S
O202 Zn198 2.086 . S
C203 O199 1.278 . S
C203 O204 1.211 . S
O204 C203 1.211 . S
C205 O197 1.284 . S
C205 O206 1.273 . S
O206 C205 1.273 . S
O207 Zn198 1.977 . S
O207 C200 1.267 . S
C208 O209 1.160 . S
C208 O215 1.185 . S
O209 C208 1.160 . S
O210 Zn211 1.899 . S
O210 C218 1.284 1_545 S
Zn211 O210 1.899 . S
Zn211 O212 2.032 . S
Zn211 O215 2.086 . S
Zn211 O220 1.977 1_545 S
O212 Zn211 2.032 . S
O212 C216 1.278 1_545 S
C213 O214 1.203 . S
C213 O220 1.267 . S
O214 C213 1.203 . S
O215 C208 1.185 . S
O215 Zn211 2.086 . S
C216 O212 1.278 1_565 S
C216 O217 1.211 . S
O217 C216 1.211 . S
C218 O210 1.284 1_565 S
C218 O219 1.273 . S
O219 C218 1.273 . S
O220 Zn211 1.977 1_565 S
O220 C213 1.267 . S
C221 O222 1.160 . S
C221 O228 1.185 . S
O222 C221 1.160 . S
O223 Zn224 1.899 . S
O223 C231 1.284 . S
Zn224 O223 1.899 . S
Zn224 O225 2.032 . S
Zn224 O228 2.086 . S
Zn224 O233 1.977 . S
O225 Zn224 2.032 . S
O225 C229 1.278 . S
C226 O227 1.203 . S
C226 O233 1.267 . S
O227 C226 1.203 . S
O228 C221 1.185 . S
O228 Zn224 2.086 . S
C229 O225 1.278 . S
C229 O230 1.211 . S
O230 C229 1.211 . S
C231 O223 1.284 . S
C231 O232 1.273 . S
O232 C231 1.273 . S
O233 Zn224 1.977 . S
O233 C226 1.267 . S
C234 O235 1.160 . S
C234 O241 1.185 . S
O235 C234 1.160 . S
O236 Zn237 1.899 1_565 S
O236 C244 1.284 1_565 S
Zn237 O236 1.899 1_545 S
Zn237 O238 2.032 1_545 S
Zn237 O241 2.086 1_545 S
Zn237 O246 1.977 . S
O238 Zn237 2.032 1_565 S
O238 C242 1.278 1_565 S
C239 O240 1.203 . S
C239 O246 1.267 . S
O240 C239 1.203 . S
O241 C234 1.185 . S
O241 Zn237 2.086 1_565 S
C242 O238 1.278 1_545 S
C242 O243 1.211 . S
O243 C242 1.211 . S
C244 O236 1.284 1_545 S
C244 O245 1.273 . S
O245 C244 1.273 . S
O246 Zn237 1.977 . S
O246 C239 1.267 . S
C247 O248 1.160 . S
C247 O254 1.185 . S
O248 C247 1.160 . S
O249 Zn250 1.899 . S
O249 C257 1.284 . S
Zn250 O249 1.899 . S
Zn250 O251 2.032 1_554 S
Zn250 O254 2.086 . S
Zn250 O259 1.977 . S
O251 Zn250 2.032 1_556 S
O251 C255 1.278 . S
C252 O253 1.203 . S
C252 O259 1.267 . S
O253 C252 1.203 . S
O254 C247 1.185 . S
O254 Zn250 2.086 . S
C255 O251 1.278 . S
C255 O256 1.211 . S
O256 C255 1.211 . S
C257 O249 1.284 . S
C257 O258 1.273 . S
O258 C257 1.273 . S
O259 Zn250 1.977 . S
O259 C252 1.267 . S
C260 O261 1.160 . S
C260 O267 1.185 1_554 S
O261 C260 1.160 . S
O262 Zn263 1.899 . S
O262 C270 1.284 . S
Zn263 O262 1.899 . S
Zn263 O264 2.032 1_554 S
Zn263 O267 2.086 1_554 S
Zn263 O272 1.977 1_554 S
O264 Zn263 2.032 1_556 S
O264 C268 1.278 . S
C265 O266 1.203 . S
C265 O272 1.267 1_554 S
O266 C265 1.203 . S
O267 C260 1.185 1_556 S
O267 Zn263 2.086 1_556 S
C268 O264 1.278 . S
C268 O269 1.211 . S
O269 C268 1.211 . S
C270 O262 1.284 . S
C270 O271 1.273 . S
O271 C270 1.273 . S
O272 Zn263 1.977 1_556 S
O272 C265 1.267 1_556 S
C273 O274 1.160 . S
C273 O280 1.185 . S
O274 C273 1.160 . S
O275 Zn276 1.899 . S
O275 C283 1.284 . S
Zn276 O275 1.899 . S
Zn276 O277 2.032 . S
Zn276 O280 2.086 . S
Zn276 O285 1.977 . S
O277 Zn276 2.032 . S
O277 C281 1.278 . S
C278 O279 1.203 . S
C278 O285 1.267 . S
O279 C278 1.203 . S
O280 C273 1.185 . S
O280 Zn276 2.086 . S
C281 O277 1.278 . S
C281 O282 1.211 . S
O282 C281 1.211 . S
C283 O275 1.284 . S
C283 O284 1.273 . S
O284 C283 1.273 . S
O285 Zn276 1.977 . S
O285 C278 1.267 . S
C286 O287 1.160 . S
C286 O293 1.185 . S
O287 C286 1.160 . S
O288 Zn289 1.899 . S
O288 C296 1.284 . S
Zn289 O288 1.899 . S
Zn289 O290 2.032 . S
Zn289 O293 2.086 . S
Zn289 O298 1.977 . S
O290 Zn289 2.032 . S
O290 C294 1.278 . S
C291 O292 1.203 . S
C291 O298 1.267 . S
O292 C291 1.203 . S
O293 C286 1.185 . S
O293 Zn289 2.086 . S
C294 O290 1.278 . S
C294 O295 1.211 . S
O295 C294 1.211 . S
C296 O288 1.284 . S
C296 O297 1.273 . S
O297 C296 1.273 . S
O298 Zn289 1.977 . S
O298 C291 1.267 . S
C299 O300 1.160 . S
C299 O306 1.185 . S
O300 C299 1.160 . S
O301 Zn302 1.899 . S
O301 C309 1.284 . S
Zn302 O301 1.899 . S
Zn302 O303 2.032 . S
Zn302 O306 2.086 . S
Zn302 O311 1.977 . S
O303 Zn302 2.032 . S
O303 C307 1.278 . S
C304 O305 1.203 . S
C304 O311 1.267 . S
O305 C304 1.203 . S
O306 C299 1.185 . S
O306 Zn302 2.086 . S
C307 O303 1.278 . S
C307 O308 1.211 . S
O308 C307 1.211 . S
C309 O301 1.284 . S
C309 O310 1.273 . S
O310 C309 1.273 . S
O311 Zn302 1.977 . S
O311 C304 1.267 . S
O312 Mn313 2.163 1_556 S
O312 C326 1.244 . S
Mn313 O312 2.163 1_554 S
Mn313 O316 2.160 1_445 S
Mn313 O317 2.221 1_455 S
Mn313 O319 2.163 1_454 S
Mn313 O321 2.160 1_545 S
Mn313 O331 2.221 1_544 S
O314 Mn315 2.087 1_556 S
O314 C326 1.256 1_565 S
Mn315 O314 2.087 1_554 S
Mn315 O322 2.089 . S
Mn315 O331 2.290 1_554 S
Mn315 O332 2.251 1_554 S
O316 Mn313 2.160 1_665 S
O316 C327 1.239 . S
O317 Mn313 2.221 1_655 S
O317 Mn318 2.290 1_554 S
O317 C328 1.278 . S
Mn318 O317 2.290 1_556 S
Mn318 O320 2.089 1_556 S
Mn318 O323 2.251 1_556 S
Mn318 O324 2.087 . S
O319 Mn313 2.163 1_656 S
O319 C329 1.244 . S
O320 Mn318 2.089 1_554 S
O320 C327 1.256 1_545 S
O321 Mn313 2.160 1_565 S
O321 C330 1.239 . S
O322 Mn315 2.089 . S
O322 C330 1.256 . S
O323 Mn318 2.251 1_554 S
O323 C328 1.241 . S
O324 Mn318 2.087 . S
O324 C329 1.256 . S
C325 O331 1.278 . S
C325 O332 1.241 . S
C326 O312 1.244 . S
C326 O314 1.256 1_545 S
C327 O316 1.239 . S
C327 O320 1.256 1_565 S
C328 O317 1.278 . S
C328 O323 1.241 . S
C329 O319 1.244 . S
C329 O324 1.256 . S
C330 O321 1.239 . S
C330 O322 1.256 . S
O331 Mn313 2.221 1_566 S
O331 Mn315 2.290 1_556 S
O331 C325 1.278 . S
O332 Mn315 2.251 1_556 S
O332 C325 1.241 . S
O333 Mn334 2.163 . S
O333 C347 1.244 . S
Mn334 O333 2.163 . S
Mn334 O337 2.160 . S
Mn334 O338 2.221 . S
Mn334 O340 2.163 . S
Mn334 O342 2.160 . S
Mn334 O352 2.221 . S
O335 Mn336 2.087 . S
O335 C347 1.256 . S
Mn336 O335 2.087 . S
Mn336 O343 2.089 . S
Mn336 O352 2.290 . S
Mn336 O353 2.251 . S
O337 Mn334 2.160 . S
O337 C348 1.239 . S
O338 Mn334 2.221 . S
O338 Mn339 2.290 . S
O338 C349 1.278 . S
Mn339 O338 2.290 . S
Mn339 O341 2.089 . S
Mn339 O344 2.251 . S
Mn339 O345 2.087 . S
O340 Mn334 2.163 . S
O340 C350 1.244 . S
O341 Mn339 2.089 . S
O341 C348 1.256 . S
O342 Mn334 2.160 . S
O342 C351 1.239 . S
O343 Mn336 2.089 . S
O343 C351 1.256 . S
O344 Mn339 2.251 . S
O344 C349 1.241 . S
O345 Mn339 2.087 . S
O345 C350 1.256 . S
C346 O352 1.278 . S
C346 O353 1.241 . S
C347 O333 1.244 . S
C347 O335 1.256 . S
C348 O337 1.239 . S
C348 O341 1.256 . S
C349 O338 1.278 . S
C349 O344 1.241 . S
C350 O340 1.244 . S
C350 O345 1.256 . S
C351 O342 1.239 . S
C351 O343 1.256 . S
O352 Mn334 2.221 . S
O352 Mn336 2.290 . S
O352 C346 1.278 . S
O353 Mn336 2.251 . S
O353 C346 1.241 . S
O354 Mn355 2.163 1_565 S
O354 C368 1.244 . S
Mn355 O354 2.163 1_545 S
Mn355 O358 2.160 . S
Mn355 O359 2.221 1_545 S
Mn355 O361 2.163 . S
Mn355 O363 2.160 . S
Mn355 O373 2.221 . S
O356 Mn357 2.087 . S
O356 C368 1.256 1_545 S
Mn357 O356 2.087 . S
Mn357 O364 2.089 . S
Mn357 O373 2.290 . S
Mn357 O374 2.251 . S
O358 Mn355 2.160 . S
O358 C369 1.239 . S
O359 Mn355 2.221 1_565 S
O359 Mn360 2.290 . S
O359 C370 1.278 . S
Mn360 O359 2.290 . S
Mn360 O362 2.089 1_565 S
Mn360 O365 2.251 . S
Mn360 O366 2.087 . S
O361 Mn355 2.163 . S
O361 C371 1.244 1_545 S
O362 Mn360 2.089 1_545 S
O362 C369 1.256 . S
O363 Mn355 2.160 . S
O363 C372 1.239 . S
O364 Mn357 2.089 . S
O364 C372 1.256 . S
O365 Mn360 2.251 . S
O365 C370 1.241 . S
O366 Mn360 2.087 . S
O366 C371 1.256 . S
C367 O373 1.278 . S
C367 O374 1.241 . S
C368 O354 1.244 . S
C368 O356 1.256 1_565 S
C369 O358 1.239 . S
C369 O362 1.256 . S
C370 O359 1.278 . S
C370 O365 1.241 . S
C371 O361 1.244 1_565 S
C371 O366 1.256 . S
C372 O363 1.239 . S
C372 O364 1.256 . S
O373 Mn355 2.221 . S
O373 Mn357 2.290 . S
O373 C367 1.278 . S
O374 Mn357 2.251 . S
O374 C367 1.241 . S
O375 Mn376 2.163 . S
O375 C389 1.244 . S
Mn376 O375 2.163 . S
Mn376 O379 2.160 . S
Mn376 O380 2.221 . S
Mn376 O382 2.163 . S
Mn376 O384 2.160 . S
Mn376 O394 2.221 . S
O377 Mn378 2.087 . S
O377 C389 1.256 . S
Mn378 O377 2.087 . S
Mn378 O385 2.089 . S
Mn378 O394 2.290 . S
Mn378 O395 2.251 . S
O379 Mn376 2.160 . S
O379 C390 1.239 . S
O380 Mn376 2.221 . S
O380 Mn381 2.290 . S
O380 C391 1.278 . S
Mn381 O380 2.290 . S
Mn381 O383 2.089 . S
Mn381 O386 2.251 . S
Mn381 O387 2.087 . S
O382 Mn376 2.163 . S
O382 C392 1.244 . S
O383 Mn381 2.089 . S
O383 C390 1.256 . S
O384 Mn376 2.160 . S
O384 C393 1.239 . S
O385 Mn378 2.089 . S
O385 C393 1.256 . S
O386 Mn381 2.251 . S
O386 C391 1.241 . S
O387 Mn381 2.087 . S
O387 C392 1.256 . S
C388 O394 1.278 . S
C388 O395 1.241 . S
C389 O375 1.244 . S
C389 O377 1.256 . S
C390 O379 1.239 . S
C390 O383 1.256 . S
C391 O380 1.278 . S
C391 O386 1.241 . S
C392 O382 1.244 . S
C392 O387 1.256 . S
C393 O384 1.239 . S
C393 O385 1.256 . S
O394 Mn376 2.221 . S
O394 Mn378 2.290 . S
O394 C388 1.278 . S
O395 Mn378 2.251 . S
O395 C388 1.241 . S
O396 Mn397 2.161 1_665 S
O396 C410 1.245 . S
Mn397 O396 2.161 1_445 S
Mn397 O400 2.160 . S
Mn397 O401 2.221 . S
Mn397 O403 2.163 1_455 S
Mn397 O405 2.160 1_545 S
Mn397 O415 2.221 1_445 S
O398 Mn399 2.087 1_655 S
O398 C410 1.256 . S
Mn399 O398 2.087 1_455 S
Mn399 O406 2.089 . S
Mn399 O415 2.290 1_455 S
Mn399 O416 2.251 1_455 S
O400 Mn397 2.160 . S
O400 C411 1.239 . S
O401 Mn397 2.221 . S
O401 Mn402 2.290 1_455 S
O401 C412 1.278 . S
Mn402 O401 2.290 1_655 S
Mn402 O404 2.089 1_655 S
Mn402 O407 2.251 1_655 S
Mn402 O408 2.087 . S
O403 Mn397 2.163 1_655 S
O403 C413 1.244 . S
O404 Mn402 2.089 1_455 S
O404 C411 1.256 . S
O405 Mn397 2.160 1_565 S
O405 C414 1.239 . S
O406 Mn399 2.089 . S
O406 C414 1.256 . S
O407 Mn402 2.251 1_455 S
O407 C412 1.241 . S
O408 Mn402 2.087 . S
O408 C413 1.256 . S
C409 O415 1.278 . S
C409 O416 1.241 . S
C410 O396 1.245 . S
C410 O398 1.256 . S
C411 O400 1.239 . S
C411 O404 1.256 . S
C412 O401 1.278 . S
C412 O407 1.241 . S
C413 O403 1.244 . S
C413 O408 1.256 . S
C414 O405 1.239 . S
C414 O406 1.256 . S
O415 Mn397 2.221 1_665 S
O415 Mn399 2.290 1_655 S
O415 C409 1.278 . S
O416 Mn399 2.251 1_655 S
O416 C409 1.241 . S
O417 Mn418 2.163 . S
O417 C431 1.244 . S
Mn418 O417 2.163 . S
Mn418 O421 2.160 . S
Mn418 O422 2.221 . S
Mn418 O424 2.163 . S
Mn418 O426 2.160 . S
Mn418 O436 2.221 . S
O419 Mn420 2.087 . S
O419 C431 1.256 . S
Mn420 O419 2.087 . S
Mn420 O427 2.089 . S
Mn420 O436 2.290 . S
Mn420 O437 2.251 . S
O421 Mn418 2.160 . S
O421 C432 1.239 . S
O422 Mn418 2.221 . S
O422 Mn423 2.290 . S
O422 C433 1.278 . S
Mn423 O422 2.290 . S
Mn423 O425 2.089 . S
Mn423 O428 2.251 . S
Mn423 O429 2.087 . S
O424 Mn418 2.163 . S
O424 C434 1.244 . S
O425 Mn423 2.089 . S
O425 C432 1.256 . S
O426 Mn418 2.160 . S
O426 C435 1.239 . S
O427 Mn420 2.089 . S
O427 C435 1.256 . S
O428 Mn423 2.251 . S
O428 C433 1.241 . S
O429 Mn423 2.087 . S
O429 C434 1.256 . S
C430 O436 1.278 . S
C430 O437 1.241 . S
C431 O417 1.244 . S
C431 O419 1.256 . S
C432 O421 1.239 . S
C432 O425 1.256 . S
C433 O422 1.278 . S
C433 O428 1.241 . S
C434 O424 1.244 . S
C434 O429 1.256 . S
C435 O426 1.239 . S
C435 O427 1.256 . S
O436 Mn418 2.221 . S
O436 Mn420 2.290 . S
O436 C430 1.278 . S
O437 Mn420 2.251 . S
O437 C430 1.241 . S
O438 Mn439 2.163 1_566 S
O438 C452 1.244 . S
Mn439 O438 2.163 1_544 S
Mn439 O442 2.160 . S
Mn439 O443 2.221 . S
Mn439 O445 2.163 1_545 S
Mn439 O447 2.160 1_554 S
Mn439 O457 2.221 1_544 S
O440 Mn441 2.087 1_565 S
O440 C452 1.256 . S
Mn441 O440 2.087 1_545 S
Mn441 O448 2.089 . S
Mn441 O457 2.290 1_545 S
Mn441 O458 2.251 1_545 S
O442 Mn439 2.160 . S
O442 C453 1.239 . S
O443 Mn439 2.221 . S
O443 Mn444 2.290 1_545 S
O443 C454 1.278 . S
Mn444 O443 2.290 1_565 S
Mn444 O446 2.089 . S
Mn444 O449 2.251 . S
Mn444 O450 2.087 . S
O445 Mn439 2.163 1_565 S
O445 C455 1.244 . S
O446 Mn444 2.089 . S
O446 C453 1.256 1_565 S
O447 Mn439 2.160 1_556 S
O447 C456 1.239 . S
O448 Mn441 2.089 . S
O448 C456 1.256 . S
O449 Mn444 2.251 . S
O449 C454 1.242 1_565 S
O450 Mn444 2.087 . S
O450 C455 1.256 . S
C451 O457 1.278 . S
C451 O458 1.241 . S
C452 O438 1.244 . S
C452 O440 1.256 . S
C453 O442 1.239 . S
C453 O446 1.256 1_545 S
C454 O443 1.278 . S
C454 O449 1.242 1_545 S
C455 O445 1.244 . S
C455 O450 1.256 . S
C456 O447 1.239 . S
C456 O448 1.256 . S
O457 Mn439 2.221 1_566 S
O457 Mn441 2.290 1_565 S
O457 C451 1.278 . S
O458 Mn441 2.251 1_565 S
O458 C451 1.241 . S
O459 Mn460 2.163 . S
O459 C473 1.244 . S
Mn460 O459 2.163 . S
Mn460 O463 2.160 . S
Mn460 O464 2.221 . S
Mn460 O466 2.163 . S
Mn460 O468 2.160 . S
Mn460 O478 2.221 . S
O461 Mn462 2.087 . S
O461 C473 1.256 . S
Mn462 O461 2.087 . S
Mn462 O469 2.089 . S
Mn462 O478 2.290 . S
Mn462 O479 2.251 . S
O463 Mn460 2.160 . S
O463 C474 1.239 . S
O464 Mn460 2.221 . S
O464 Mn465 2.290 . S
O464 C475 1.278 . S
Mn465 O464 2.290 . S
Mn465 O467 2.089 . S
Mn465 O470 2.251 . S
Mn465 O471 2.087 . S
O466 Mn460 2.163 . S
O466 C476 1.244 . S
O467 Mn465 2.089 . S
O467 C474 1.256 . S
O468 Mn460 2.160 . S
O468 C477 1.239 . S
O469 Mn462 2.089 . S
O469 C477 1.256 . S
O470 Mn465 2.251 . S
O470 C475 1.241 . S
O471 Mn465 2.087 . S
O471 C476 1.256 . S
C472 O478 1.278 . S
C472 O479 1.241 . S
C473 O459 1.244 . S
C473 O461 1.256 . S
C474 O463 1.239 . S
C474 O467 1.256 . S
C475 O464 1.278 . S
C475 O470 1.241 . S
C476 O466 1.244 . S
C476 O471 1.256 . S
C477 O468 1.239 . S
C477 O469 1.256 . S
O478 Mn460 2.221 . S
O478 Mn462 2.290 . S
O478 C472 1.278 . S
O479 Mn462 2.251 . S
O479 C472 1.241 . S
O480 Mn481 2.163 1_556 S
O480 C494 1.244 . S
Mn481 O480 2.163 1_554 S
Mn481 O484 2.160 . S
Mn481 O485 2.221 1_554 S
Mn481 O487 2.164 . S
Mn481 O489 2.160 . S
Mn481 O499 2.221 . S
O482 Mn483 2.087 . S
O482 C494 1.256 1_554 S
Mn483 O482 2.087 . S
Mn483 O490 2.089 . S
Mn483 O499 2.290 . S
Mn483 O500 2.251 . S
O484 Mn481 2.160 . S
O484 C495 1.239 . S
O485 Mn481 2.221 1_556 S
O485 Mn486 2.290 . S
O485 C496 1.278 . S
Mn486 O485 2.290 . S
Mn486 O488 2.089 . S
Mn486 O491 2.251 . S
Mn486 O492 2.087 . S
O487 Mn481 2.164 . S
O487 C497 1.233 1_554 S
O488 Mn486 2.089 . S
O488 C495 1.256 1_556 S
O489 Mn481 2.160 . S
O489 C498 1.239 . S
O490 Mn483 2.089 . S
O490 C498 1.256 . S
O491 Mn486 2.251 . S
O491 C496 1.241 . S
O492 Mn486 2.087 . S
O492 C497 1.256 . S
C493 O499 1.278 . S
C493 O500 1.241 . S
C494 O480 1.244 . S
C494 O482 1.256 1_556 S
C495 O484 1.239 . S
C495 O488 1.256 1_554 S
C496 O485 1.278 . S
C496 O491 1.241 . S
C497 O487 1.233 1_556 S
C497 O492 1.256 . S
C498 O489 1.239 . S
C498 O490 1.256 . S
O499 Mn481 2.221 . S
O499 Mn483 2.290 . S
O499 C493 1.278 . S
O500 Mn483 2.251 . S
O500 C493 1.241 . S
O501 Mn502 2.163 . S
O501 C515 1.244 . S
Mn502 O501 2.163 . S
Mn502 O505 2.160 . S
Mn502 O506 2.221 . S
Mn502 O508 2.163 . S
Mn502 O510 2.160 . S
Mn502 O520 2.221 . S
O503 Mn504 2.087 . S
O503 C515 1.256 . S
Mn504 O503 2.087 . S
Mn504 O511 2.089 . S
Mn504 O520 2.290 . S
Mn504 O521 2.251 . S
O505 Mn502 2.160 . S
O505 C516 1.239 . S
O506 Mn502 2.221 . S
O506 Mn507 2.290 . S
O506 C517 1.278 . S
Mn507 O506 2.290 . S
Mn507 O509 2.089 . S
Mn507 O512 2.251 . S
Mn507 O513 2.087 . S
O508 Mn502 2.163 . S
O508 C518 1.244 . S
O509 Mn507 2.089 . S
O509 C516 1.256 . S
O510 Mn502 2.160 . S
O510 C519 1.239 . S
O511 Mn504 2.089 . S
O511 C519 1.256 . S
O512 Mn507 2.251 . S
O512 C517 1.241 . S
O513 Mn507 2.087 . S
O513 C518 1.256 . S
C514 O520 1.278 . S
C514 O521 1.241 . S
C515 O501 1.244 . S
C515 O503 1.256 . S
C516 O505 1.239 . S
C516 O509 1.256 . S
C517 O506 1.278 . S
C517 O512 1.241 . S
C518 O508 1.244 . S
C518 O513 1.256 . S
C519 O510 1.239 . S
C519 O511 1.256 . S
O520 Mn502 2.221 . S
O520 Mn504 2.290 . S
O520 C514 1.278 . S
O521 Mn504 2.251 . S
O521 C514 1.241 . S
O522 Mn523 2.163 1_655 S
O522 C536 1.244 . S
Mn523 O522 2.163 1_455 S
Mn523 O526 2.160 . S
Mn523 O527 2.221 1_455 S
Mn523 O529 2.163 . S
Mn523 O531 2.160 . S
Mn523 O541 2.221 . S
O524 Mn525 2.087 . S
O524 C536 1.256 1_455 S
Mn525 O524 2.087 . S
Mn525 O532 2.089 . S
Mn525 O541 2.290 . S
Mn525 O542 2.251 . S
O526 Mn523 2.160 . S
O526 C537 1.239 . S
O527 Mn523 2.221 1_655 S
O527 Mn528 2.290 . S
O527 C538 1.278 . S
Mn528 O527 2.290 . S
Mn528 O530 2.089 . S
Mn528 O533 2.251 . S
Mn528 O534 2.087 . S
O529 Mn523 2.163 . S
O529 C539 1.244 1_455 S
O530 Mn528 2.089 . S
O530 C537 1.256 1_655 S
O531 Mn523 2.160 . S
O531 C540 1.239 . S
O532 Mn525 2.089 . S
O532 C540 1.256 . S
O533 Mn528 2.251 . S
O533 C538 1.241 . S
O534 Mn528 2.087 . S
O534 C539 1.256 . S
C535 O541 1.278 . S
C535 O542 1.241 . S
C536 O522 1.244 . S
C536 O524 1.256 1_655 S
C537 O526 1.239 . S
C537 O530 1.256 1_455 S
C538 O527 1.278 . S
C538 O533 1.241 . S
C539 O529 1.244 1_655 S
C539 O534 1.256 . S
C540 O531 1.239 . S
C540 O532 1.256 . S
O541 Mn523 2.221 . S
O541 Mn525 2.290 . S
O541 C535 1.278 . S
O542 Mn525 2.251 . S
O542 C535 1.241 . S
O543 Mn544 2.163 . S
O543 C557 1.244 . S
Mn544 O543 2.163 . S
Mn544 O547 2.160 . S
Mn544 O548 2.221 . S
Mn544 O550 2.163 . S
Mn544 O552 2.160 . S
Mn544 O562 2.221 . S
O545 Mn546 2.087 . S
O545 C557 1.256 . S
Mn546 O545 2.087 . S
Mn546 O553 2.089 . S
Mn546 O562 2.290 . S
Mn546 O563 2.251 . S
O547 Mn544 2.160 . S
O547 C558 1.239 . S
O548 Mn544 2.221 . S
O548 Mn549 2.290 . S
O548 C559 1.278 . S
Mn549 O548 2.290 . S
Mn549 O551 2.089 . S
Mn549 O554 2.251 . S
Mn549 O555 2.087 . S
O550 Mn544 2.163 . S
O550 C560 1.244 . S
O551 Mn549 2.089 . S
O551 C558 1.256 . S
O552 Mn544 2.160 . S
O552 C561 1.239 . S
O553 Mn546 2.089 . S
O553 C561 1.256 . S
O554 Mn549 2.251 . S
O554 C559 1.241 . S
O555 Mn549 2.087 . S
O555 C560 1.256 . S
C556 O562 1.278 . S
C556 O563 1.241 . S
C557 O543 1.244 . S
C557 O545 1.256 . S
C558 O547 1.239 . S
C558 O551 1.256 . S
C559 O548 1.278 . S
C559 O554 1.241 . S
C560 O550 1.244 . S
C560 O555 1.256 . S
C561 O552 1.239 . S
C561 O553 1.256 . S
O562 Mn544 2.221 . S
O562 Mn546 2.290 . S
O562 C556 1.278 . S
O563 Mn546 2.251 . S
O563 C556 1.241 . S
O564 Mn565 2.163 . S
O564 C578 1.244 . S
Mn565 O564 2.163 . S
Mn565 O568 2.160 . S
Mn565 O569 2.221 . S
Mn565 O571 2.163 . S
Mn565 O573 2.160 . S
Mn565 O583 2.221 . S
O566 Mn567 2.087 . S
O566 C578 1.256 . S
Mn567 O566 2.087 . S
Mn567 O574 2.089 . S
Mn567 O583 2.290 . S
Mn567 O584 2.251 . S
O568 Mn565 2.160 . S
O568 C579 1.239 . S
O569 Mn565 2.221 . S
O569 Mn570 2.290 . S
O569 C580 1.278 . S
Mn570 O569 2.290 . S
Mn570 O572 2.089 . S
Mn570 O575 2.251 . S
Mn570 O576 2.087 . S
O571 Mn565 2.163 . S
O571 C581 1.244 . S
O572 Mn570 2.089 . S
O572 C579 1.256 . S
O573 Mn565 2.160 . S
O573 C582 1.239 . S
O574 Mn567 2.089 . S
O574 C582 1.256 . S
O575 Mn570 2.251 . S
O575 C580 1.241 . S
O576 Mn570 2.087 . S
O576 C581 1.256 . S
C577 O583 1.278 . S
C577 O584 1.241 . S
C578 O564 1.244 . S
C578 O566 1.256 . S
C579 O568 1.239 . S
C579 O572 1.256 . S
C580 O569 1.278 . S
C580 O575 1.241 . S
C581 O571 1.244 . S
C581 O576 1.256 . S
C582 O573 1.239 . S
C582 O574 1.256 . S
O583 Mn565 2.221 . S
O583 Mn567 2.290 . S
O583 C577 1.278 . S
O584 Mn567 2.251 . S
O584 C577 1.241 . S
O585 Mn586 2.163 . S
O585 C599 1.244 . S
Mn586 O585 2.163 . S
Mn586 O589 2.160 . S
Mn586 O590 2.221 . S
Mn586 O592 2.163 . S
Mn586 O594 2.160 . S
Mn586 O604 2.221 . S
O587 Mn588 2.087 . S
O587 C599 1.256 . S
Mn588 O587 2.087 . S
Mn588 O595 2.089 . S
Mn588 O604 2.290 . S
Mn588 O605 2.251 . S
O589 Mn586 2.160 . S
O589 C600 1.239 . S
O590 Mn586 2.221 . S
O590 Mn591 2.290 . S
O590 C601 1.278 . S
Mn591 O590 2.290 . S
Mn591 O593 2.089 . S
Mn591 O596 2.251 . S
Mn591 O597 2.087 . S
O592 Mn586 2.163 . S
O592 C602 1.244 . S
O593 Mn591 2.089 . S
O593 C600 1.256 . S
O594 Mn586 2.160 . S
O594 C603 1.239 . S
O595 Mn588 2.089 . S
O595 C603 1.256 . S
O596 Mn591 2.251 . S
O596 C601 1.241 . S
O597 Mn591 2.087 . S
O597 C602 1.256 . S
C598 O604 1.278 . S
C598 O605 1.241 . S
C599 O585 1.244 . S
C599 O587 1.256 . S
C600 O589 1.239 . S
C600 O593 1.256 . S
C601 O590 1.278 . S
C601 O596 1.241 . S
C602 O592 1.244 . S
C602 O597 1.256 . S
C603 O594 1.239 . S
C603 O595 1.256 . S
O604 Mn586 2.221 . S
O604 Mn588 2.290 . S
O604 C598 1.278 . S
O605 Mn588 2.251 . S
O605 C598 1.241 . S
O606 Mn607 2.163 . S
O606 C620 1.244 . S
Mn607 O606 2.163 . S
Mn607 O610 2.160 . S
Mn607 O611 2.221 . S
Mn607 O613 2.163 . S
Mn607 O615 2.160 . S
Mn607 O625 2.221 . S
O608 Mn609 2.087 . S
O608 C620 1.256 . S
Mn609 O608 2.087 . S
Mn609 O616 2.089 . S
Mn609 O625 2.290 . S
Mn609 O626 2.251 . S
O610 Mn607 2.160 . S
O610 C621 1.239 . S
O611 Mn607 2.221 . S
O611 Mn612 2.290 . S
O611 C622 1.278 . S
Mn612 O611 2.290 . S
Mn612 O614 2.089 . S
Mn612 O617 2.251 . S
Mn612 O618 2.087 . S
O613 Mn607 2.163 . S
O613 C623 1.244 . S
O614 Mn612 2.089 . S
O614 C621 1.256 . S
O615 Mn607 2.160 . S
O615 C624 1.239 . S
O616 Mn609 2.089 . S
O616 C624 1.256 . S
O617 Mn612 2.251 . S
O617 C622 1.241 . S
O618 Mn612 2.087 . S
O618 C623 1.256 . S
C619 O625 1.278 . S
C619 O626 1.241 . S
C620 O606 1.244 . S
C620 O608 1.256 . S
C621 O610 1.239 . S
C621 O614 1.256 . S
C622 O611 1.278 . S
C622 O617 1.241 . S
C623 O613 1.244 . S
C623 O618 1.256 . S
C624 O615 1.239 . S
C624 O616 1.256 . S
O625 Mn607 2.221 . S
O625 Mn609 2.290 . S
O625 C619 1.278 . S
O626 Mn609 2.251 . S
O626 C619 1.241 . S
O627 Mn628 2.163 1_656 S
O627 C641 1.244 . S
Mn628 O627 2.163 1_454 S
Mn628 O631 2.160 . S
Mn628 O632 2.221 . S
Mn628 O634 2.163 1_554 S
Mn628 O636 2.160 1_455 S
Mn628 O646 2.221 1_454 S
O629 Mn630 2.087 1_556 S
O629 C641 1.256 . S
Mn630 O629 2.087 1_554 S
Mn630 O637 2.089 . S
Mn630 O646 2.290 1_554 S
Mn630 O647 2.251 1_554 S
O631 Mn628 2.160 . S
O631 C642 1.239 . S
O632 Mn628 2.221 . S
O632 Mn633 2.290 1_554 S
O632 C643 1.278 . S
Mn633 O632 2.290 1_556 S
Mn633 O635 2.089 . S
Mn633 O638 2.251 1_556 S
Mn633 O639 2.087 . S
O634 Mn628 2.163 1_556 S
O634 C644 1.244 . S
O635 Mn633 2.089 . S
O635 C642 1.254 1_556 S
O636 Mn628 2.160 1_655 S
O636 C645 1.239 . S
O637 Mn630 2.089 . S
O637 C645 1.256 . S
O638 Mn633 2.251 1_554 S
O638 C643 1.241 . S
O639 Mn633 2.087 . S
O639 C644 1.256 . S
C640 O646 1.278 . S
C640 O647 1.241 . S
C641 O627 1.244 . S
C641 O629 1.256 . S
C642 O631 1.239 . S
C642 O635 1.254 1_554 S
C643 O632 1.278 . S
C643 O638 1.241 . S
C644 O634 1.244 . S
C644 O639 1.256 . S
C645 O636 1.239 . S
C645 O637 1.256 . S
O646 Mn628 2.221 1_656 S
O646 Mn630 2.290 1_556 S
O646 C640 1.278 . S
O647 Mn630 2.251 1_556 S
O647 C640 1.241 . S
C328 C10 1.483 1_655 S
C13 C348 1.186 . S
C34 C370 1.314 . S
C389 C44 1.373 . S
C21 C410 1.234 . S
C433 C26 1.459 . S
C456 C49 1.579 . S
C5 C474 1.398 . S
C62 C330 1.445 1_545 S
C73 C350 1.217 . S
C372 C88 1.451 . S
C391 C99 1.354 . S
C60 C412 1.478 . S
C435 C75 1.460 . S
C452 C86 1.179 . S
C476 C101 1.322 . S
C326 C96 1.398 1_556 S
C498 C104 1.154 . S
C122 C515 1.368 . S
C538 C130 1.408 . S
C57 C472 1.597 . S
C368 C70 1.395 . S
C117 C561 1.008 . S
C577 C143 1.398 . S
C164 C325 1.786 1_655 S
C578 C169 1.410 . S
C192 C367 1.743 . S
C200 C558 1.328 . S
C411 C179 1.281 . S
C514 C182 1.684 . S
C455 C203 1.672 . S
C599 C161 1.434 . S
C329 C216 1.627 1_545 S
C231 C582 1.208 . S
C371 C242 1.445 1_565 S
C257 C556 1.644 . S
C218 C409 1.625 . S
C229 C518 1.473 . S
C453 C244 1.180 . S
C255 C603 1.295 . S
C252 C327 1.242 . S
C260 C497 1.447 1_554 S
C278 C432 1.296 . S
C286 C535 1.812 . S
C601 C213 1.419 . S
C369 C226 1.271 . S
C392 C273 1.347 . S
C349 C299 1.810 . S
C36 C622 1.483 . S
C579 C39 1.186 . S
C643 C8 1.314 . S
C18 C557 1.373 . S
C47 C494 1.235 . S
C517 C0 1.459 . S
C540 C23 1.579 1_455 S
C600 C31 1.398 . S
C624 C153 1.445 . S
C112 C581 1.217 . S
C127 C645 1.445 . S
C559 C138 1.354 . S
C496 C151 1.478 . S
C114 C519 1.460 . S
C536 C125 1.179 . S
C140 C602 1.322 . S
C620 C135 1.398 . S
C414 C65 1.154 . S
C431 C83 1.368 . S
C91 C454 1.408 . S
C598 C148 1.597 . S
C109 C641 1.395 1_554 S
C393 C78 1.008 . S
C346 C52 1.398 . S
C190 C619 1.786 . S
C347 C195 1.410 . S
C640 C166 1.743 1_655 S
C174 C390 1.328 . S
C205 C495 1.281 . S
C156 C430 1.684 . S
C177 C539 1.672 1_455 S
C187 C473 1.434 . S
C623 C307 1.627 . S
C270 C351 1.208 . S
C644 C281 1.445 . S
C296 C388 1.644 . S
C309 C493 1.625 . S
C434 C268 1.473 . S
C283 C537 1.180 . S
C477 C294 1.295 . S
C621 C291 1.242 . S
C413 C221 1.447 . S
C239 C516 1.296 . S
C451 C247 1.812 1_556 S
C475 C304 1.419 . S
C265 C642 1.271 . S
C560 C234 1.347 . S
C580 C208 1.810 . S
