# Generated by pormake.
# Topology ibd, (4,6)-cn, num edge types: 1
# Building blocks:
#     Node 0, Type 0, BuildingBlock: GALJAG_clean_sbu_0, # of connection points: 4
#     Node 1, Type 0, BuildingBlock: GALJAG_clean_sbu_0, # of connection points: 4
#     Node 2, Type 0, BuildingBlock: GALJAG_clean_sbu_0, # of connection points: 4
#     Node 3, Type 0, BuildingBlock: GALJAG_clean_sbu_0, # of connection points: 4
#     Node 4, Type 0, BuildingBlock: GALJAG_clean_sbu_0, # of connection points: 4
#     Node 5, Type 0, BuildingBlock: GALJAG_clean_sbu_0, # of connection points: 4
#     Node 6, Type 0, BuildingBlock: GALJAG_clean_sbu_0, # of connection points: 4
#     Node 7, Type 0, BuildingBlock: GALJAG_clean_sbu_0, # of connection points: 4
#     Node 8, Type 0, BuildingBlock: GALJAG_clean_sbu_0, # of connection points: 4
#     Node 9, Type 0, BuildingBlock: GALJAG_clean_sbu_0, # of connection points: 4
#     Node 10, Type 0, BuildingBlock: GALJAG_clean_sbu_0, # of connection points: 4
#     Node 11, Type 0, BuildingBlock: GALJAG_clean_sbu_0, # of connection points: 4
#     Node 12, Type 0, BuildingBlock: GALJAG_clean_sbu_0, # of connection points: 4
#     Node 13, Type 0, BuildingBlock: GALJAG_clean_sbu_0, # of connection points: 4
#     Node 14, Type 0, BuildingBlock: GALJAG_clean_sbu_0, # of connection points: 4
#     Node 15, Type 0, BuildingBlock: GALJAG_clean_sbu_0, # of connection points: 4
#     Node 16, Type 0, BuildingBlock: GALJAG_clean_sbu_0, # of connection points: 4
#     Node 17, Type 0, BuildingBlock: GALJAG_clean_sbu_0, # of connection points: 4
#     Node 18, Type 0, BuildingBlock: GALJAG_clean_sbu_0, # of connection points: 4
#     Node 19, Type 0, BuildingBlock: GALJAG_clean_sbu_0, # of connection points: 4
#     Node 20, Type 0, BuildingBlock: GALJAG_clean_sbu_0, # of connection points: 4
#     Node 21, Type 0, BuildingBlock: GALJAG_clean_sbu_0, # of connection points: 4
#     Node 22, Type 0, BuildingBlock: GALJAG_clean_sbu_0, # of connection points: 4
#     Node 23, Type 0, BuildingBlock: GALJAG_clean_sbu_0, # of connection points: 4
#     Node 24, Type 1, BuildingBlock: LEVNOQ01_clean_sbu_1, # of connection points: 6
#     Node 25, Type 1, BuildingBlock: LEVNOQ01_clean_sbu_1, # of connection points: 6
#     Node 26, Type 1, BuildingBlock: LEVNOQ01_clean_sbu_1, # of connection points: 6
#     Node 27, Type 1, BuildingBlock: LEVNOQ01_clean_sbu_1, # of connection points: 6
#     Node 28, Type 1, BuildingBlock: LEVNOQ01_clean_sbu_1, # of connection points: 6
#     Node 29, Type 1, BuildingBlock: LEVNOQ01_clean_sbu_1, # of connection points: 6
#     Node 30, Type 1, BuildingBlock: LEVNOQ01_clean_sbu_1, # of connection points: 6
#     Node 31, Type 1, BuildingBlock: LEVNOQ01_clean_sbu_1, # of connection points: 6
#     Node 32, Type 1, BuildingBlock: LEVNOQ01_clean_sbu_1, # of connection points: 6
#     Node 33, Type 1, BuildingBlock: LEVNOQ01_clean_sbu_1, # of connection points: 6
#     Node 34, Type 1, BuildingBlock: LEVNOQ01_clean_sbu_1, # of connection points: 6
#     Node 35, Type 1, BuildingBlock: LEVNOQ01_clean_sbu_1, # of connection points: 6
#     Node 36, Type 1, BuildingBlock: LEVNOQ01_clean_sbu_1, # of connection points: 6
#     Node 37, Type 1, BuildingBlock: LEVNOQ01_clean_sbu_1, # of connection points: 6
#     Node 38, Type 1, BuildingBlock: LEVNOQ01_clean_sbu_1, # of connection points: 6
#     Node 39, Type 1, BuildingBlock: LEVNOQ01_clean_sbu_1, # of connection points: 6
#     Edge 40, Type (0, 1), BuildingBlock: UVAHIK_clean_linker_0, # of connection points: 2
#     Edge 41, Type (0, 1), BuildingBlock: UVAHIK_clean_linker_0, # of connection points: 2
#     Edge 42, Type (0, 1), BuildingBlock: UVAHIK_clean_linker_0, # of connection points: 2
#     Edge 43, Type (0, 1), BuildingBlock: UVAHIK_clean_linker_0, # of connection points: 2
#     Edge 44, Type (0, 1), BuildingBlock: UVAHIK_clean_linker_0, # of connection points: 2
#     Edge 45, Type (0, 1), BuildingBlock: UVAHIK_clean_linker_0, # of connection points: 2
#     Edge 46, Type (0, 1), BuildingBlock: UVAHIK_clean_linker_0, # of connection points: 2
#     Edge 47, Type (0, 1), BuildingBlock: UVAHIK_clean_linker_0, # of connection points: 2
#     Edge 48, Type (0, 1), BuildingBlock: UVAHIK_clean_linker_0, # of connection points: 2
#     Edge 49, Type (0, 1), BuildingBlock: UVAHIK_clean_linker_0, # of connection points: 2
#     Edge 50, Type (0, 1), BuildingBlock: UVAHIK_clean_linker_0, # of connection points: 2
#     Edge 51, Type (0, 1), BuildingBlock: UVAHIK_clean_linker_0, # of connection points: 2
#     Edge 52, Type (0, 1), BuildingBlock: UVAHIK_clean_linker_0, # of connection points: 2
#     Edge 53, Type (0, 1), BuildingBlock: UVAHIK_clean_linker_0, # of connection points: 2
#     Edge 54, Type (0, 1), BuildingBlock: UVAHIK_clean_linker_0, # of connection points: 2
#     Edge 55, Type (0, 1), BuildingBlock: UVAHIK_clean_linker_0, # of connection points: 2
#     Edge 56, Type (0, 1), BuildingBlock: UVAHIK_clean_linker_0, # of connection points: 2
#     Edge 57, Type (0, 1), BuildingBlock: UVAHIK_clean_linker_0, # of connection points: 2
#     Edge 58, Type (0, 1), BuildingBlock: UVAHIK_clean_linker_0, # of connection points: 2
#     Edge 59, Type (0, 1), BuildingBlock: UVAHIK_clean_linker_0, # of connection points: 2
#     Edge 60, Type (0, 1), BuildingBlock: UVAHIK_clean_linker_0, # of connection points: 2
#     Edge 61, Type (0, 1), BuildingBlock: UVAHIK_clean_linker_0, # of connection points: 2
#     Edge 62, Type (0, 1), BuildingBlock: UVAHIK_clean_linker_0, # of connection points: 2
#     Edge 63, Type (0, 1), BuildingBlock: UVAHIK_clean_linker_0, # of connection points: 2
#     Edge 64, Type (0, 1), BuildingBlock: UVAHIK_clean_linker_0, # of connection points: 2
#     Edge 65, Type (0, 1), BuildingBlock: UVAHIK_clean_linker_0, # of connection points: 2
#     Edge 66, Type (0, 1), BuildingBlock: UVAHIK_clean_linker_0, # of connection points: 2
#     Edge 67, Type (0, 1), BuildingBlock: UVAHIK_clean_linker_0, # of connection points: 2
#     Edge 68, Type (0, 1), BuildingBlock: UVAHIK_clean_linker_0, # of connection points: 2
#     Edge 69, Type (0, 1), BuildingBlock: UVAHIK_clean_linker_0, # of connection points: 2
#     Edge 70, Type (0, 1), BuildingBlock: UVAHIK_clean_linker_0, # of connection points: 2
#     Edge 71, Type (0, 1), BuildingBlock: UVAHIK_clean_linker_0, # of connection points: 2
#     Edge 72, Type (0, 1), BuildingBlock: UVAHIK_clean_linker_0, # of connection points: 2
#     Edge 73, Type (0, 1), BuildingBlock: UVAHIK_clean_linker_0, # of connection points: 2
#     Edge 74, Type (0, 1), BuildingBlock: UVAHIK_clean_linker_0, # of connection points: 2
#     Edge 75, Type (0, 1), BuildingBlock: UVAHIK_clean_linker_0, # of connection points: 2
#     Edge 76, Type (0, 1), BuildingBlock: UVAHIK_clean_linker_0, # of connection points: 2
#     Edge 77, Type (0, 1), BuildingBlock: UVAHIK_clean_linker_0, # of connection points: 2
#     Edge 78, Type (0, 1), BuildingBlock: UVAHIK_clean_linker_0, # of connection points: 2
#     Edge 79, Type (0, 1), BuildingBlock: UVAHIK_clean_linker_0, # of connection points: 2
#     Edge 80, Type (0, 1), BuildingBlock: UVAHIK_clean_linker_0, # of connection points: 2
#     Edge 81, Type (0, 1), BuildingBlock: UVAHIK_clean_linker_0, # of connection points: 2
#     Edge 82, Type (0, 1), BuildingBlock: UVAHIK_clean_linker_0, # of connection points: 2
#     Edge 83, Type (0, 1), BuildingBlock: UVAHIK_clean_linker_0, # of connection points: 2
#     Edge 84, Type (0, 1), BuildingBlock: UVAHIK_clean_linker_0, # of connection points: 2
#     Edge 85, Type (0, 1), BuildingBlock: UVAHIK_clean_linker_0, # of connection points: 2
#     Edge 86, Type (0, 1), BuildingBlock: UVAHIK_clean_linker_0, # of connection points: 2
#     Edge 87, Type (0, 1), BuildingBlock: UVAHIK_clean_linker_0, # of connection points: 2
#     Edge 88, Type (0, 1), BuildingBlock: UVAHIK_clean_linker_0, # of connection points: 2
#     Edge 89, Type (0, 1), BuildingBlock: UVAHIK_clean_linker_0, # of connection points: 2
#     Edge 90, Type (0, 1), BuildingBlock: UVAHIK_clean_linker_0, # of connection points: 2
#     Edge 91, Type (0, 1), BuildingBlock: UVAHIK_clean_linker_0, # of connection points: 2
#     Edge 92, Type (0, 1), BuildingBlock: UVAHIK_clean_linker_0, # of connection points: 2
#     Edge 93, Type (0, 1), BuildingBlock: UVAHIK_clean_linker_0, # of connection points: 2
#     Edge 94, Type (0, 1), BuildingBlock: UVAHIK_clean_linker_0, # of connection points: 2
#     Edge 95, Type (0, 1), BuildingBlock: UVAHIK_clean_linker_0, # of connection points: 2
#     Edge 96, Type (0, 1), BuildingBlock: UVAHIK_clean_linker_0, # of connection points: 2
#     Edge 97, Type (0, 1), BuildingBlock: UVAHIK_clean_linker_0, # of connection points: 2
#     Edge 98, Type (0, 1), BuildingBlock: UVAHIK_clean_linker_0, # of connection points: 2
#     Edge 99, Type (0, 1), BuildingBlock: UVAHIK_clean_linker_0, # of connection points: 2
#     Edge 100, Type (0, 1), BuildingBlock: UVAHIK_clean_linker_0, # of connection points: 2
#     Edge 101, Type (0, 1), BuildingBlock: UVAHIK_clean_linker_0, # of connection points: 2
#     Edge 102, Type (0, 1), BuildingBlock: UVAHIK_clean_linker_0, # of connection points: 2
#     Edge 103, Type (0, 1), BuildingBlock: UVAHIK_clean_linker_0, # of connection points: 2
#     Edge 104, Type (0, 1), BuildingBlock: UVAHIK_clean_linker_0, # of connection points: 2
#     Edge 105, Type (0, 1), BuildingBlock: UVAHIK_clean_linker_0, # of connection points: 2
#     Edge 106, Type (0, 1), BuildingBlock: UVAHIK_clean_linker_0, # of connection points: 2
#     Edge 107, Type (0, 1), BuildingBlock: UVAHIK_clean_linker_0, # of connection points: 2
#     Edge 108, Type (0, 1), BuildingBlock: UVAHIK_clean_linker_0, # of connection points: 2
#     Edge 109, Type (0, 1), BuildingBlock: UVAHIK_clean_linker_0, # of connection points: 2
#     Edge 110, Type (0, 1), BuildingBlock: UVAHIK_clean_linker_0, # of connection points: 2
#     Edge 111, Type (0, 1), BuildingBlock: UVAHIK_clean_linker_0, # of connection points: 2
#     Edge 112, Type (0, 1), BuildingBlock: UVAHIK_clean_linker_0, # of connection points: 2
#     Edge 113, Type (0, 1), BuildingBlock: UVAHIK_clean_linker_0, # of connection points: 2
#     Edge 114, Type (0, 1), BuildingBlock: UVAHIK_clean_linker_0, # of connection points: 2
#     Edge 115, Type (0, 1), BuildingBlock: UVAHIK_clean_linker_0, # of connection points: 2
#     Edge 116, Type (0, 1), BuildingBlock: UVAHIK_clean_linker_0, # of connection points: 2
#     Edge 117, Type (0, 1), BuildingBlock: UVAHIK_clean_linker_0, # of connection points: 2
#     Edge 118, Type (0, 1), BuildingBlock: UVAHIK_clean_linker_0, # of connection points: 2
#     Edge 119, Type (0, 1), BuildingBlock: UVAHIK_clean_linker_0, # of connection points: 2
#     Edge 120, Type (0, 1), BuildingBlock: UVAHIK_clean_linker_0, # of connection points: 2
#     Edge 121, Type (0, 1), BuildingBlock: UVAHIK_clean_linker_0, # of connection points: 2
#     Edge 122, Type (0, 1), BuildingBlock: UVAHIK_clean_linker_0, # of connection points: 2
#     Edge 123, Type (0, 1), BuildingBlock: UVAHIK_clean_linker_0, # of connection points: 2
#     Edge 124, Type (0, 1), BuildingBlock: UVAHIK_clean_linker_0, # of connection points: 2
#     Edge 125, Type (0, 1), BuildingBlock: UVAHIK_clean_linker_0, # of connection points: 2
#     Edge 126, Type (0, 1), BuildingBlock: UVAHIK_clean_linker_0, # of connection points: 2
#     Edge 127, Type (0, 1), BuildingBlock: UVAHIK_clean_linker_0, # of connection points: 2
#     Edge 128, Type (0, 1), BuildingBlock: UVAHIK_clean_linker_0, # of connection points: 2
#     Edge 129, Type (0, 1), BuildingBlock: UVAHIK_clean_linker_0, # of connection points: 2
#     Edge 130, Type (0, 1), BuildingBlock: UVAHIK_clean_linker_0, # of connection points: 2
#     Edge 131, Type (0, 1), BuildingBlock: UVAHIK_clean_linker_0, # of connection points: 2
#     Edge 132, Type (0, 1), BuildingBlock: UVAHIK_clean_linker_0, # of connection points: 2
#     Edge 133, Type (0, 1), BuildingBlock: UVAHIK_clean_linker_0, # of connection points: 2
#     Edge 134, Type (0, 1), BuildingBlock: UVAHIK_clean_linker_0, # of connection points: 2
#     Edge 135, Type (0, 1), BuildingBlock: UVAHIK_clean_linker_0, # of connection points: 2
# Relax obj value: 0.256
# Max RMSD: 0.296
# Mean RMSD: 0.235
data_MOF--net-ibd--node1-GALJAG_clean_sbu_0--node2-LEVNOQ01_clean_sbu_1--edge1-UVAHIK_clean_linker_0
_symmetry_space_group_name_H-M    P1
_symmetry_Int_Tables_number       1
_symmetry_cell_setting            triclinic
loop_
_symmetry_equiv_pos_as_xyz
'x, y, z'
_cell_length_a     61.811262
_cell_length_b     62.556646
_cell_length_c     63.890313
_cell_angle_alpha  91.176928
_cell_angle_beta   88.939557
_cell_angle_gamma 93.520179
loop_
_atom_site_label
_atom_site_type_symbol
_atom_site_fract_x
_atom_site_fract_y
_atom_site_fract_z
_atom_type_partial_charge
In0 In 0.03489 0.31838 0.36677 0.0
O1 O 0.06313 0.30902 0.34609 0.0
O2 O 0.03588 0.28673 0.34896 0.0
C3 C 0.05997 0.34507 0.39039 0.0
C4 C 0.01473 0.33782 0.33629 0.0
C5 C 0.01344 0.2983 0.39861 0.0
O6 O 0.06689 0.32849 0.38163 0.0
O7 O 0.04055 0.34855 0.38649 0.0
O8 O 0.00531 0.31303 0.38868 0.0
O9 O 0.03199 0.29361 0.39218 0.0
C10 C 0.05416 0.2912 0.34052 0.0
O11 O 0.00726 0.32057 0.34428 0.0
O12 O 0.03166 0.34604 0.34465 0.0
In13 In 0.00549 0.75211 0.64164 0.0
O14 O -0.00268 0.78273 0.65948 0.0
O15 O 0.9883 0.75238 0.67287 0.0
C16 C 0.02968 0.76747 0.60918 0.0
C17 C 0.03283 0.73315 0.66621 0.0
C18 C 0.97007 0.73748 0.62096 0.0
O19 O 0.02149 0.77952 0.62292 0.0
O20 O 0.02615 0.74766 0.61217 0.0
O21 O 0.98471 0.72532 0.62586 0.0
O22 O 0.97308 0.75666 0.6272 0.0
C23 C 0.98913 0.77249 0.67488 0.0
O24 O 0.01651 0.72289 0.65843 0.0
O25 O 0.03622 0.75205 0.65984 0.0
In26 In 0.52962 0.82151 0.86942 0.0
O27 O 0.55713 0.81137 0.84832 0.0
O28 O 0.52924 0.7899 0.85141 0.0
C29 C 0.55696 0.84806 0.89076 0.0
C30 C 0.50858 0.84092 0.8395 0.0
C31 C 0.50967 0.80183 0.90233 0.0
O32 O 0.56284 0.83122 0.88169 0.0
O33 O 0.53723 0.85168 0.88867 0.0
O34 O 0.50205 0.8178 0.89394 0.0
O35 O 0.52695 0.79584 0.89396 0.0
C36 C 0.54755 0.79383 0.8428 0.0
O37 O 0.501 0.82399 0.84803 0.0
O38 O 0.526 0.84882 0.84712 0.0
In39 In 0.5175 0.2814 0.14195 0.0
O40 O 0.53155 0.25306 0.15716 0.0
O41 O 0.54473 0.28445 0.16502 0.0
C42 C 0.48724 0.26318 0.11669 0.0
C43 C 0.49386 0.29823 0.17281 0.0
C44 C 0.54503 0.29894 0.11339 0.0
O45 O 0.50086 0.25241 0.12569 0.0
O46 O 0.48879 0.28304 0.12073 0.0
O47 O 0.5325 0.31009 0.12432 0.0
O48 O 0.54358 0.27916 0.117 0.0
C49 C 0.54479 0.26459 0.16804 0.0
O50 O 0.50562 0.3098 0.16058 0.0
O51 O 0.49341 0.27839 0.16877 0.0
In52 In 0.98425 0.77222 0.12092 0.0
O53 O 0.95638 0.77843 0.0993 0.0
O54 O 0.98373 0.80071 0.09972 0.0
C55 C 0.96137 0.74478 0.14563 0.0
C56 C 0.0077 0.75079 0.09285 0.0
C57 C 0.00462 0.79469 0.15209 0.0
O58 O 0.95479 0.76291 0.1414 0.0
O59 O 0.97897 0.7404 0.13676 0.0
O60 O 0.01305 0.77965 0.14204 0.0
O61 O 0.9861 0.79897 0.14593 0.0
C62 C 0.96585 0.79493 0.09154 0.0
O63 O 0.01554 0.76709 0.10273 0.0
O64 O 0.98843 0.74495 0.09784 0.0
In65 In 0.55298 0.79696 0.39298 0.0
O66 O 0.56895 0.77062 0.41002 0.0
O67 O 0.57552 0.80312 0.42007 0.0
C68 C 0.52868 0.77953 0.36177 0.0
C69 C 0.52265 0.81109 0.41914 0.0
C70 C 0.58236 0.81622 0.36743 0.0
O71 O 0.53927 0.76807 0.37356 0.0
O72 O 0.52976 0.79924 0.36644 0.0
O73 O 0.56897 0.82665 0.37809 0.0
O74 O 0.58156 0.79635 0.37071 0.0
C75 C 0.57853 0.78361 0.42278 0.0
O76 O 0.53527 0.82368 0.4087 0.0
O77 O 0.5249 0.79137 0.41576 0.0
In78 In 0.51769 0.28492 0.61668 0.0
O79 O 0.54735 0.28148 0.59532 0.0
O80 O 0.52196 0.25692 0.59455 0.0
C81 C 0.53596 0.31232 0.64502 0.0
C82 C 0.49453 0.30483 0.58886 0.0
C83 C 0.49952 0.25843 0.64547 0.0
O84 O 0.54608 0.29741 0.63648 0.0
O85 O 0.51705 0.31401 0.63841 0.0
O86 O 0.48926 0.27275 0.63707 0.0
O87 O 0.51864 0.25685 0.63858 0.0
C88 C 0.53986 0.26416 0.58699 0.0
O89 O 0.48731 0.28784 0.59756 0.0
O90 O 0.5128 0.3122 0.59508 0.0
In91 In 0.04856 0.29315 0.8936 0.0
O92 O 0.06143 0.26608 0.91235 0.0
O93 O 0.07272 0.29826 0.91952 0.0
C94 C 0.02452 0.27588 0.86205 0.0
C95 C 0.01942 0.30966 0.91972 0.0
C96 C 0.0783 0.31188 0.86799 0.0
O97 O 0.03561 0.26449 0.87343 0.0
O98 O 0.02479 0.29541 0.86742 0.0
O99 O 0.06515 0.32251 0.87871 0.0
O100 O 0.07712 0.29199 0.87119 0.0
C101 C 0.07304 0.27871 0.92386 0.0
O102 O 0.03285 0.32124 0.90911 0.0
O103 O 0.02009 0.28974 0.91638 0.0
In104 In 0.38336 -0.00431 0.24393 0.0
O105 O 0.36296 0.96568 0.25297 0.0
O106 O 0.36244 -0.0067 0.27308 0.0
C107 C 0.41284 0.97961 0.21786 0.0
C108 C 0.35288 0.01485 0.22261 0.0
C109 C 0.4147 0.01468 0.26791 0.0
O110 O 0.40306 0.96831 0.23164 0.0
O111 O 0.40607 -0.00192 0.21604 0.0
O112 O 0.40483 0.02486 0.25451 0.0
O113 O 0.40782 -0.00459 0.26999 0.0
C114 C 0.35525 0.97432 0.26931 0.0
O115 O 0.36453 0.02473 0.23619 0.0
O116 O 0.3572 -0.0044 0.21926 0.0
In117 In 0.25143 0.1498 0.51097 0.0
O118 O 0.22394 0.17249 0.51293 0.0
O119 O 0.24441 0.17078 0.53917 0.0
C120 C 0.23058 0.12061 0.48618 0.0
C121 C 0.27844 0.17879 0.49193 0.0
C122 C 0.26943 0.12043 0.53406 0.0
O123 O 0.22164 0.12881 0.50211 0.0
O124 O 0.24958 0.1281 0.48216 0.0
O125 O 0.27923 0.12966 0.51893 0.0
O126 O 0.25082 0.12677 0.53823 0.0
C127 C 0.22909 0.17977 0.53085 0.0
O128 O 0.28173 0.17231 0.5101 0.0
O129 O 0.26208 0.16988 0.48305 0.0
In130 In 0.14365 0.06392 0.73753 0.0
O131 O 0.12428 0.03504 0.75068 0.0
O132 O 0.11514 0.06606 0.76032 0.0
C133 C 0.17048 0.04308 0.712 0.0
C134 C 0.11725 0.08255 0.71202 0.0
C135 C 0.17342 0.08104 0.76394 0.0
O136 O 0.15738 0.03348 0.72456 0.0
O137 O 0.16969 0.06318 0.71206 0.0
O138 O 0.16707 0.09117 0.74853 0.0
O139 O 0.16395 0.06284 0.76647 0.0
C140 C 0.11131 0.04604 0.7612 0.0
O141 O 0.12708 0.09298 0.72651 0.0
O142 O 0.12202 0.06332 0.70977 0.0
In143 In 0.29698 0.90976 0.01165 0.0
O144 O 0.26987 0.92515 0.02981 0.0
O145 O 0.30248 0.93606 0.03624 0.0
C146 C 0.27387 0.8791 0.99029 0.0
C147 C 0.3112 0.93962 0.9845 0.0
C148 C 0.31937 0.88223 0.03273 0.0
O149 O 0.26574 0.88942 0.00539 0.0
O150 O 0.29314 0.88509 0.98542 0.0
O151 O 0.32695 0.891 0.01632 0.0
O152 O 0.30129 0.88844 0.03896 0.0
C153 C 0.28257 0.93798 0.03996 0.0
O154 O 0.32381 0.93072 -0.0035 0.0
O155 O 0.29165 0.93251 0.98544 0.0
In156 In 0.28732 0.41871 0.00221 0.0
O157 O 0.30418 0.39809 0.97757 0.0
O158 O 0.31382 0.39673 0.00933 0.0
C159 C 0.2641 0.44586 0.98115 0.0
C160 C 0.25797 0.38994 0.01869 0.0
C161 C 0.31075 0.45127 0.02046 0.0
O162 O 0.27837 0.43514 0.97204 0.0
O163 O 0.26076 0.44162 0.0002 0.0
O164 O 0.29661 0.43987 0.03044 0.0
O165 O 0.31397 0.44529 0.00173 0.0
C166 C 0.31586 0.38965 0.99081 0.0
O167 O 0.27026 0.40214 0.0299 0.0
O168 O 0.25989 0.39294 -0.00076 0.0
In169 In 0.75221 0.1659 -0.00476 0.0
O170 O 0.74266 0.14507 0.02313 0.0
O171 O 0.72993 0.136 -0.00679 0.0
C172 C 0.777 0.19933 0.00957 0.0
C173 C 0.78165 0.14355 0.97466 0.0
C174 C 0.7198 0.18945 0.98444 0.0
O175 O 0.76851 0.18529 0.02171 0.0
O176 O 0.77347 0.196 0.99035 0.0
O177 O 0.73172 0.18061 0.9709 0.0
O178 O 0.72366 0.18543 0.00324 0.0
C179 C 0.73138 0.13154 0.01228 0.0
O180 O 0.7666 0.15199 0.96519 0.0
O181 O 0.7822 0.14732 -0.00588 0.0
In182 In 0.15442 0.551 0.25868 0.0
O183 O 0.1714 0.54323 0.28892 0.0
O184 O 0.18124 0.52843 0.26027 0.0
C185 C 0.12331 0.57657 0.2718 0.0
C186 C 0.18416 0.5775 0.24011 0.0
C187 C 0.12863 0.51883 0.24284 0.0
O188 O 0.13433 0.56644 0.28433 0.0
O189 O 0.1283 0.57406 0.2527 0.0
O190 O 0.13901 0.53232 0.23141 0.0
O191 O 0.1317 0.52136 0.26223 0.0
C192 C 0.18431 0.53114 0.27961 0.0
O193 O 0.17489 0.56179 0.2304 0.0
O194 O 0.17736 0.58045 0.25861 0.0
In195 In 0.78943 0.91585 0.49475 0.0
O196 O 0.8032 0.89903 0.46626 0.0
O197 O 0.81662 0.89314 0.49591 0.0
C198 C 0.75715 0.93629 0.47916 0.0
C199 C 0.76278 0.88658 0.51312 0.0
C200 C 0.81201 0.95057 0.50993 0.0
O201 O 0.77151 0.92842 0.46745 0.0
O202 O 0.75946 0.93405 0.49854 0.0
O203 O 0.80368 0.9361 0.52161 0.0
O204 O 0.81019 0.94675 0.49053 0.0
C205 C 0.81593 0.88845 0.47661 0.0
O206 O 0.77586 0.89867 0.52367 0.0
O207 O 0.76368 0.88912 0.49362 0.0
In208 In 0.8936 0.01031 0.26576 0.0
O209 O 0.91258 -0.00519 0.29135 0.0
O210 O 0.91375 0.98213 0.26017 0.0
C211 C 0.86268 0.03252 0.28505 0.0
C212 C 0.92476 0.03699 0.24891 0.0
C213 C 0.86488 0.98411 0.24582 0.0
O214 O 0.87536 0.02168 0.29528 0.0
O215 O 0.86669 0.03319 0.26564 0.0
O216 O 0.87558 -0.00082 0.23665 0.0
O217 O 0.8691 0.98209 0.26492 0.0
C218 C 0.92008 0.98113 0.27871 0.0
O219 O 0.91263 0.02435 0.23806 0.0
O220 O 0.92027 0.03721 0.26827 0.0
In221 In 0.25029 0.66626 0.49462 0.0
O222 O 0.26767 0.6512 0.46693 0.0
O223 O 0.27991 0.64733 0.49752 0.0
C224 C 0.21919 0.68699 0.47695 0.0
C225 C 0.22842 0.63308 0.51258 0.0
C226 C 0.27241 0.70117 0.50988 0.0
O227 O 0.2343 0.67908 0.46631 0.0
O228 O 0.21932 0.68346 0.49633 0.0
O229 O 0.2618 0.68818 0.52167 0.0
O230 O 0.27217 0.69619 0.49067 0.0
C231 C 0.28145 0.643 0.4782 0.0
O232 O 0.23897 0.64735 0.5232 0.0
O233 O 0.22823 0.63619 0.49313 0.0
In234 In 0.40031 0.51373 0.76944 0.0
O235 O 0.41768 0.49682 0.79494 0.0
O236 O 0.42074 0.48573 0.7633 0.0
C237 C 0.37521 0.54161 0.78865 0.0
C238 C 0.43178 0.53995 0.75339 0.0
C239 C 0.36738 0.49124 0.75136 0.0
O240 O 0.38417 0.52746 0.79876 0.0
O241 O 0.37958 0.54187 0.76929 0.0
O242 O 0.38041 0.50362 0.74114 0.0
O243 O 0.37158 0.48962 0.77051 0.0
C244 C 0.42614 0.48396 0.78209 0.0
O245 O 0.41969 0.52777 0.74198 0.0
O246 O 0.42769 0.53908 0.77278 0.0
In247 In 0.65631 0.05752 0.76907 0.0
O248 O 0.67662 0.04853 0.79703 0.0
O249 O 0.6769 0.02925 0.7692 0.0
C250 C 0.62731 0.08492 0.78296 0.0
C251 C 0.68752 0.08106 0.74916 0.0
C252 C 0.62727 0.02955 0.75137 0.0
O253 O 0.63509 0.07163 0.795 0.0
O254 O 0.63514 0.085 0.76461 0.0
O255 O 0.64046 0.04137 0.74075 0.0
O256 O 0.62912 0.03151 0.771 0.0
C257 C 0.68445 0.03294 0.78718 0.0
O258 O 0.67452 0.06804 0.73963 0.0
O259 O 0.68394 0.08301 0.76861 0.0
In260 In 0.76328 0.65304 0.00919 0.0
O261 O 0.73506 0.67442 0.01364 0.0
O262 O 0.76015 0.67679 0.03609 0.0
C263 C 0.74104 0.62447 0.98508 0.0
C264 C 0.7887 0.68062 0.98677 0.0
C265 C 0.78003 0.62339 0.03296 0.0
O266 O 0.73271 0.63312 0.00108 0.0
O267 O 0.76031 0.631 0.98082 0.0
O268 O 0.79019 0.63183 0.01761 0.0
O269 O 0.76183 0.63073 0.037 0.0
C270 C 0.74275 0.6838 0.02977 0.0
O271 O 0.79458 0.67356 0.00401 0.0
O272 O 0.77053 0.67297 0.98056 0.0
In273 In 0.88537 0.5202 0.74162 0.0
O274 O 0.86632 0.4914 0.75505 0.0
O275 O 0.86342 0.52198 0.76996 0.0
C276 C 0.91638 0.50211 0.71884 0.0
C277 C 0.85566 0.53525 0.7165 0.0
C278 C 0.91257 0.54073 0.76829 0.0
O279 O 0.90285 0.4913 0.72998 0.0
O280 O 0.91316 0.52179 0.71798 0.0
O281 O 0.90271 0.55068 0.75469 0.0
O282 O 0.90825 0.52076 0.7685 0.0
C283 C 0.85774 0.50226 0.76954 0.0
O284 O 0.86906 0.54748 0.72643 0.0
O285 O 0.85803 0.51553 0.71842 0.0
In286 In 0.75797 0.40755 0.51604 0.0
O287 O 0.72698 0.42326 0.52393 0.0
O288 O 0.75013 0.42205 0.54801 0.0
C289 C 0.73738 0.38018 0.48955 0.0
C290 C 0.77638 0.44231 0.49709 0.0
C291 C 0.78321 0.37903 0.53251 0.0
O292 O 0.72881 0.3863 0.50655 0.0
O293 O 0.75619 0.38839 0.4857 0.0
O294 O 0.79084 0.3941 0.52124 0.0
O295 O 0.76312 0.37899 0.53619 0.0
C296 C 0.73213 0.42834 0.54245 0.0
O297 O 0.78137 0.43713 0.51528 0.0
O298 O 0.7627 0.42954 0.48823 0.0
In299 In 0.64055 0.55566 0.23462 0.0
O300 O 0.61654 0.52739 0.24244 0.0
O301 O 0.61392 0.55673 0.2594 0.0
C302 C 0.66819 0.53978 0.2063 0.0
C303 C 0.61758 0.58079 0.21151 0.0
C304 C 0.67052 0.56565 0.26349 0.0
O305 O 0.65456 0.52788 0.2164 0.0
O306 O 0.66728 0.55959 0.21007 0.0
O307 O 0.66125 0.57982 0.25379 0.0
O308 O 0.664 0.54659 0.25915 0.0
C309 C 0.60637 0.53781 0.2562 0.0
O310 O 0.62842 0.58808 0.22694 0.0
O311 O 0.61931 0.56115 0.20734 0.0
O312 O 0.14347 0.10979 0.09079 0.0
Mg313 Mg 0.11551 0.12491 0.10233 0.0
O314 O 0.16794 0.12756 0.1109 0.0
Mg315 Mg 0.15289 0.1545 0.13042 0.0
O316 O 0.12609 0.15576 0.10742 0.0
O317 O 0.09958 0.14813 0.08562 0.0
O318 O 0.13747 0.18114 0.15024 0.0
O319 O 0.17205 0.18062 0.11052 0.0
Mg320 Mg 0.19056 0.18362 0.15629 0.0
O321 O 0.18048 0.15228 0.15296 0.0
O322 O 0.16343 0.1994 0.16809 0.0
O323 O 0.20167 0.19422 0.12643 0.0
O324 O 0.20732 0.16234 0.17394 0.0
C325 C 0.11537 0.11697 0.14938 0.0
C326 C 0.16278 0.11298 0.09727 0.0
C327 C 0.11301 0.16228 0.09388 0.0
C328 C 0.14367 0.19607 0.16312 0.0
C329 C 0.1895 0.19272 0.11061 0.0
C330 C 0.19542 0.14706 0.16538 0.0
O331 O 0.10563 0.11395 0.13213 0.0
O332 O 0.13226 0.12976 0.1512 0.0
O333 O 0.12636 0.84403 0.3411 0.0
Mg334 Mg 0.15637 0.85962 0.34935 0.0
O335 O 0.10517 0.86834 0.35512 0.0
Mg336 Mg 0.12439 0.88969 0.38038 0.0
O337 O 0.15172 0.86836 0.37937 0.0
O338 O 0.17836 0.84817 0.37106 0.0
O339 O 0.14338 0.91049 0.40508 0.0
O340 O 0.10712 0.86926 0.40696 0.0
Mg341 Mg 0.08992 0.91619 0.41179 0.0
O342 O 0.09867 0.91285 0.38146 0.0
O343 O 0.11971 0.9267 0.42588 0.0
O344 O 0.07851 0.88496 0.42067 0.0
O345 O 0.0743 0.93541 0.39034 0.0
C346 C 0.15485 0.90754 0.3391 0.0
C347 C 0.10795 0.85196 0.34316 0.0
C348 C 0.16775 0.85813 0.38536 0.0
C349 C 0.13906 0.92265 0.42073 0.0
C350 C 0.09026 0.86903 0.41894 0.0
C351 C 0.08567 0.92672 0.37576 0.0
O352 O 0.16218 0.8894 0.33465 0.0
O353 O 0.14187 0.91037 0.35459 0.0
O354 O 0.43306 0.97182 0.6333 0.0
Mg355 Mg 0.4232 0.95946 0.60362 0.0
O356 O 0.42321 0.94105 0.64863 0.0
Mg357 Mg 0.39629 0.92114 0.6304 0.0
O358 O 0.3925 0.94681 0.60716 0.0
O359 O 0.39992 0.97306 0.58533 0.0
O360 O 0.37021 0.90006 0.61209 0.0
O361 O 0.37012 0.93651 0.65135 0.0
Mg362 Mg 0.36895 0.88599 0.66208 0.0
O363 O 0.3995 0.89502 0.65292 0.0
O364 O 0.35385 0.87636 0.63378 0.0
O365 O 0.35676 0.91415 0.67571 0.0
O366 O 0.39379 0.86899 0.67519 0.0
C367 C 0.43747 0.91332 0.59663 0.0
C368 C 0.43378 0.95926 0.64859 0.0
C369 C 0.38572 0.95988 0.59387 0.0
C370 C 0.35643 0.8844 0.61571 0.0
C371 C 0.35803 0.93253 0.66744 0.0
C372 C 0.40735 0.88127 0.66478 0.0
O373 O 0.44041 0.93311 0.59245 0.0
O374 O 0.42255 0.9064 0.60934 0.0
O375 O 0.45228 0.1734 0.91106 0.0
Mg376 Mg 0.43445 0.14507 0.90359 0.0
O377 O 0.42268 0.19063 0.90663 0.0
Mg378 Mg 0.40172 0.17169 0.88087 0.0
O379 O 0.42571 0.14575 0.87331 0.0
O380 O 0.44877 0.12283 0.88506 0.0
O381 O 0.3807 0.1529 0.85612 0.0
O382 O 0.42025 0.19252 0.85537 0.0
Mg383 Mg 0.3709 0.20273 0.85677 0.0
O384 O 0.37587 0.19577 0.88723 0.0
O385 O 0.35982 0.17494 0.84016 0.0
O386 O 0.39966 0.21797 0.8449 0.0
O387 O 0.35132 0.21812 0.8781 0.0
C388 C 0.38886 0.13908 0.92088 0.0
C389 C 0.44147 0.18966 0.91452 0.0
C390 C 0.43929 0.13106 0.86958 0.0
C391 C 0.36657 0.15641 0.84253 0.0
C392 C 0.41769 0.2093 0.84477 0.0
C393 C 0.36158 0.20921 0.89266 0.0
O394 O 0.40851 0.13526 0.92353 0.0
O395 O 0.38339 0.15086 0.90603 0.0
O396 O 0.63625 0.35973 0.83463 0.0
Mg397 Mg 0.6672 0.37286 0.84362 0.0
O398 O 0.61484 0.38053 0.85365 0.0
Mg399 Mg 0.63559 0.39981 0.87859 0.0
O400 O 0.66185 0.37742 0.87431 0.0
O401 O 0.68688 0.3561 0.86415 0.0
O402 O 0.65598 0.41817 0.90363 0.0
O403 O 0.62028 0.3784 0.90471 0.0
Mg404 Mg 0.60222 0.42354 0.91307 0.0
O405 O 0.61062 0.42347 0.88268 0.0
O406 O 0.63277 0.43109 0.92725 0.0
O407 O 0.59014 0.39154 0.91776 0.0
O408 O 0.58701 0.44567 0.89418 0.0
C409 C 0.66458 0.42146 0.83813 0.0
C410 C 0.61756 0.36597 0.83962 0.0
C411 C 0.67542 0.36378 0.87919 0.0
C412 C 0.65202 0.42795 0.9209 0.0
C413 C 0.60315 0.37662 0.91617 0.0
C414 C 0.59796 0.43823 0.87863 0.0
O415 O 0.67342 0.40436 0.83252 0.0
O416 O 0.6513 0.42218 0.8536 0.0
O417 O 0.93567 0.47424 0.12931 0.0
Mg418 Mg 0.92699 0.46012 0.10003 0.0
O419 O 0.92353 0.44694 0.14901 0.0
Mg420 Mg 0.89995 0.42368 0.12991 0.0
O421 O 0.89657 0.44745 0.10486 0.0
O422 O 0.903 0.47169 0.08084 0.0
O423 O 0.87705 0.40026 0.11088 0.0
O424 O 0.87102 0.43805 0.14794 0.0
Mg425 Mg 0.87213 0.38835 0.1613 0.0
O426 O 0.90277 0.39897 0.15373 0.0
O427 O 0.85973 0.37672 0.13218 0.0
O428 O 0.85689 0.41609 0.17235 0.0
O429 O 0.89739 0.37331 0.17632 0.0
C430 C 0.94307 0.41463 0.09825 0.0
C431 C 0.93425 0.46496 0.14685 0.0
C432 C 0.88916 0.45933 0.09085 0.0
C433 C 0.86374 0.38417 0.11405 0.0
C434 C 0.8577 0.43397 0.16311 0.0
C435 C 0.91086 0.38568 0.16589 0.0
O436 O 0.94501 0.43356 0.09128 0.0
O437 O 0.92844 0.40898 0.11176 0.0
O438 O 0.93959 0.65441 0.42539 0.0
Mg439 Mg 0.92551 0.62579 0.41185 0.0
O440 O 0.91905 0.67756 0.41028 0.0
Mg441 Mg 0.89946 0.66047 0.38328 0.0
O442 O 0.92199 0.63384 0.38185 0.0
O443 O 0.94267 0.60785 0.38946 0.0
O444 O 0.87936 0.64349 0.35697 0.0
O445 O 0.92273 0.67728 0.35882 0.0
Mg446 Mg 0.87829 0.69543 0.35466 0.0
O447 O 0.87597 0.68681 0.38512 0.0
O448 O 0.8665 0.6683 0.3369 0.0
O449 O 0.91025 0.70766 0.34853 0.0
O450 O 0.85696 0.71253 0.37283 0.0
C451 C 0.87653 0.62685 0.41953 0.0
C452 C 0.93349 0.67333 0.42344 0.0
C453 C 0.93565 0.62032 0.37566 0.0
C454 C 0.86845 0.64879 0.3413 0.0
C455 C 0.92524 0.69474 0.34883 0.0
C456 C 0.86228 0.70131 0.38842 0.0
O457 O 0.89378 0.61758 0.42311 0.0
O458 O 0.87608 0.64214 0.40663 0.0
O459 O 0.83836 0.87593 0.88344 0.0
Mg460 Mg 0.85353 0.87965 0.85388 0.0
O461 O 0.86714 0.8884 0.90128 0.0
Mg462 Mg 0.88968 0.91082 0.87984 0.0
O463 O 0.86555 0.91027 0.85405 0.0
O464 O 0.84108 0.8989 0.83107 0.0
O465 O 0.9125 0.93336 0.85944 0.0
O466 O 0.87262 0.94006 0.89451 0.0
Mg467 Mg 0.92021 0.94284 0.91058 0.0
O468 O 0.9152 0.91121 0.90425 0.0
O469 O 0.93058 0.95592 0.88145 0.0
O470 O 0.8904 0.95311 0.92238 0.0
O471 O 0.93957 0.92279 0.92711 0.0
C472 C 0.90011 0.86498 0.85388 0.0
C473 C 0.84841 0.87846 0.90056 0.0
C474 C 0.85293 0.9145 0.83912 0.0
C475 C 0.92591 0.94938 0.863 0.0
C476 C 0.87391 0.95225 0.9108 0.0
C477 C 0.92967 0.90688 0.91744 0.0
O478 O 0.8806 0.86116 0.8483 0.0
O479 O 0.90605 0.88175 0.86458 0.0
O480 O 0.91295 0.22289 0.67101 0.0
Mg481 Mg 0.88181 0.21001 0.66273 0.0
O482 O 0.93215 0.19891 0.65353 0.0
Mg483 Mg 0.91025 0.18077 0.62772 0.0
O484 O 0.88514 0.20426 0.63184 0.0
O485 O 0.86105 0.2262 0.64322 0.0
O486 O 0.88852 0.16165 0.60325 0.0
O487 O 0.92738 0.20145 0.601 0.0
Mg488 Mg 0.9411 0.15123 0.59357 0.0
O489 O 0.93386 0.15685 0.6235 0.0
O490 O 0.9097 0.14282 0.58188 0.0
O491 O 0.95271 0.18243 0.58496 0.0
O492 O 0.95533 0.13142 0.61603 0.0
C493 C 0.88102 0.16129 0.66916 0.0
C494 C 0.93074 0.21435 0.66698 0.0
C495 C 0.8708 0.21734 0.62764 0.0
C496 C 0.89111 0.14861 0.58779 0.0
C497 C 0.94329 0.19982 0.58794 0.0
C498 C 0.94491 0.14196 0.62999 0.0
O499 O 0.87426 0.17925 0.67517 0.0
O500 O 0.8934 0.15936 0.65309 0.0
O501 O 0.68414 0.1882 0.36664 0.0
Mg502 Mg 0.66858 0.17547 0.33963 0.0
O503 O 0.66154 0.17317 0.3905 0.0
Mg504 Mg 0.64001 0.14572 0.37463 0.0
O505 O 0.66321 0.14446 0.34705 0.0
O506 O 0.68435 0.15355 0.32016 0.0
O507 O 0.61837 0.11805 0.35912 0.0
O508 O 0.6616 0.12212 0.39032 0.0
Mg509 Mg 0.61522 0.1164 0.41094 0.0
O510 O 0.6161 0.14701 0.40149 0.0
O511 O 0.6038 0.09786 0.38474 0.0
O512 O 0.64687 0.11223 0.42088 0.0
O513 O 0.59476 0.1361 0.4277 0.0
C514 C 0.62058 0.184 0.34517 0.0
C515 C 0.67769 0.18598 0.38553 0.0
C516 C 0.67711 0.13904 0.33295 0.0
C517 C 0.6065 0.10184 0.36538 0.0
C518 C 0.66283 0.11351 0.40813 0.0
C519 C 0.60216 0.15142 0.41589 0.0
O520 O 0.63815 0.18798 0.33498 0.0
O521 O 0.61865 0.16969 0.35908 0.0
O522 O 0.59219 0.90172 0.08921 0.0
Mg523 Mg 0.60662 0.93234 0.09684 0.0
O524 O 0.61858 0.88269 0.10102 0.0
Mg525 Mg 0.63796 0.90273 0.1262 0.0
O526 O 0.61493 0.92819 0.12648 0.0
O527 O 0.59257 0.95278 0.11958 0.0
O528 O 0.65692 0.92174 0.15169 0.0
O529 O 0.61607 0.88626 0.15216 0.0
Mg530 Mg 0.65805 0.86912 0.15482 0.0
O531 O 0.66344 0.87831 0.12494 0.0
O532 O 0.66491 0.89675 0.17412 0.0
O533 O 0.62682 0.85389 0.15653 0.0
O534 O 0.68275 0.85397 0.13945 0.0
C535 C 0.65576 0.93372 0.086 0.0
C536 C 0.60128 0.88411 0.09059 0.0
C537 C 0.60258 0.94251 0.13329 0.0
C538 C 0.66452 0.9163 0.16911 0.0
C539 C 0.61292 0.86761 0.1598 0.0
C540 C 0.67814 0.8646 0.12321 0.0
O541 O 0.63704 0.93975 0.08187 0.0
O542 O 0.65893 0.92112 0.10101 0.0
O543 O 0.42236 0.72825 0.16648 0.0
Mg544 Mg 0.38977 0.71689 0.16191 0.0
O545 O 0.43706 0.69809 0.15555 0.0
Mg546 Mg 0.41404 0.68011 0.13044 0.0
O547 O 0.39184 0.70564 0.13266 0.0
O548 O 0.36721 0.72805 0.14012 0.0
O549 O 0.39103 0.66227 0.10621 0.0
O550 O 0.43391 0.69799 0.10335 0.0
Mg551 Mg 0.44232 0.64742 0.09815 0.0
O552 O 0.43437 0.65266 0.12814 0.0
O553 O 0.41134 0.64295 0.08452 0.0
O554 O 0.45872 0.67684 0.09004 0.0
O555 O 0.45241 0.62474 0.11997 0.0
C556 C 0.38416 0.66867 0.17374 0.0
C557 C 0.43813 0.71608 0.16574 0.0
C558 C 0.37572 0.71544 0.12657 0.0
C559 C 0.39312 0.64977 0.09025 0.0
C560 C 0.45042 0.69496 0.09141 0.0
C561 C 0.44284 0.6358 0.13417 0.0
O562 O 0.38128 0.68822 0.1784 0.0
O563 O 0.39454 0.66307 0.1572 0.0
O564 O 0.10219 0.60578 0.88588 0.0
Mg565 Mg 0.11111 0.621 0.91443 0.0
O566 O 0.11732 0.63162 0.86592 0.0
Mg567 Mg 0.14324 0.65255 0.88459 0.0
O568 O 0.14314 0.62882 0.91088 0.0
O569 O 0.13102 0.60648 0.93536 0.0
O570 O 0.16875 0.67413 0.9031 0.0
O571 O 0.1703 0.63358 0.86816 0.0
Mg572 Mg 0.17507 0.68182 0.85176 0.0
O573 O 0.14338 0.67633 0.85887 0.0
O574 O 0.18922 0.69309 0.88009 0.0
O575 O 0.18483 0.65173 0.84113 0.0
O576 O 0.15384 0.69938 0.83459 0.0
C577 C 0.1004 0.66811 0.91329 0.0
C578 C 0.105 0.61461 0.86824 0.0
C579 C 0.14721 0.61554 0.92525 0.0
C580 C 0.18433 0.68783 0.89878 0.0
C581 C 0.18259 0.63485 0.85186 0.0
C582 C 0.13829 0.68923 0.84464 0.0
O583 O 0.09572 0.64968 0.9207 0.0
O584 O 0.11659 0.67182 0.90093 0.0
O585 O 0.09315 0.40838 0.59249 0.0
Mg586 Mg 0.10972 0.43753 0.60099 0.0
O587 O 0.11834 0.38776 0.60393 0.0
Mg588 Mg 0.13901 0.4065 0.62929 0.0
O589 O 0.1167 0.43356 0.63126 0.0
O590 O 0.0958 0.45899 0.62208 0.0
O591 O 0.15918 0.42436 0.65485 0.0
O592 O 0.117 0.38966 0.65517 0.0
Mg593 Mg 0.1592 0.37226 0.65637 0.0
O594 O 0.16371 0.38088 0.62614 0.0
O595 O 0.16812 0.39887 0.67622 0.0
O596 O 0.12806 0.35737 0.65966 0.0
O597 O 0.18257 0.35601 0.64063 0.0
C598 C 0.15803 0.43736 0.58939 0.0
C599 C 0.10121 0.39025 0.59354 0.0
C600 C 0.10424 0.44851 0.6367 0.0
C601 C 0.16762 0.41853 0.67173 0.0
C602 C 0.114 0.37096 0.66275 0.0
C603 C 0.17769 0.36639 0.6243 0.0
O604 O 0.13967 0.44424 0.58538 0.0
O605 O 0.16059 0.42458 0.60435 0.0
O606 O 0.64581 0.62205 0.59122 0.0
Mg607 Mg 0.61554 0.63066 0.6038 0.0
O608 O 0.66735 0.63863 0.61508 0.0
Mg609 Mg 0.64857 0.66381 0.63393 0.0
O610 O 0.62234 0.66167 0.61055 0.0
O611 O 0.59708 0.65267 0.58792 0.0
O612 O 0.62924 0.68877 0.65226 0.0
O613 O 0.6655 0.69017 0.61413 0.0
Mg614 Mg 0.68189 0.6982 0.66103 0.0
O615 O 0.67501 0.66632 0.65786 0.0
O616 O 0.65212 0.7109 0.67016 0.0
O617 O 0.69283 0.70766 0.63077 0.0
O618 O 0.69964 0.67878 0.68017 0.0
C619 C 0.61647 0.62212 0.65131 0.0
C620 C 0.66434 0.62598 0.59925 0.0
C621 C 0.60913 0.66753 0.59688 0.0
C622 C 0.63304 0.70491 0.66449 0.0
C623 C 0.68181 0.70362 0.61442 0.0
C624 C 0.68973 0.66256 0.67105 0.0
O625 O 0.60812 0.61752 0.63359 0.0
O626 O 0.63077 0.63754 0.65388 0.0
O627 O 0.3444 0.36822 0.37626 0.0
Mg628 Mg 0.36077 0.37933 0.34904 0.0
O629 O 0.36527 0.38546 0.40011 0.0
Mg630 Mg 0.38683 0.4127 0.38336 0.0
O631 O 0.36552 0.41093 0.35516 0.0
O632 O 0.34622 0.39951 0.3281 0.0
O633 O 0.40853 0.43919 0.36683 0.0
O634 O 0.36449 0.4378 0.39826 0.0
Mg635 Mg 0.4115 0.44633 0.41818 0.0
O636 O 0.40926 0.41493 0.41026 0.0
O637 O 0.4243 0.46137 0.39058 0.0
O638 O 0.37948 0.45279 0.42689 0.0
O639 O 0.4305 0.42672 0.43571 0.0
C640 C 0.40893 0.37298 0.35512 0.0
C641 C 0.34993 0.37161 0.39518 0.0
C642 C 0.35328 0.41524 0.33993 0.0
C643 C 0.42108 0.45552 0.37163 0.0
C644 C 0.36348 0.44953 0.41483 0.0
C645 C 0.42284 0.41088 0.42435 0.0
O646 O 0.39187 0.36752 0.34506 0.0
O647 O 0.40961 0.38825 0.36868 0.0
C648 C 0.08129 0.28591 0.31196 0.0
C649 C 0.06252 0.27848 0.32289 0.0
C650 C 0.08672 0.27661 0.29272 0.0
C651 C 0.07748 0.22957 0.25826 0.0
H652 H 0.09347 0.27026 0.21474 0.0
C653 C 0.10661 0.19987 0.17847 0.0
C654 C 0.12758 0.20875 0.17412 0.0
C655 C 0.09332 0.20985 0.19315 0.0
C656 C 0.08885 0.25873 0.22669 0.0
H657 H 0.03566 0.25446 0.32325 0.0
H658 H 0.04529 0.23809 0.28962 0.0
H659 H 0.08284 0.28327 0.24947 0.0
H660 H 0.15014 0.23616 0.1795 0.0
H661 H 0.12712 0.25349 0.20496 0.0
H662 H 0.08432 0.20505 0.23576 0.0
C663 C 0.05566 0.25121 0.29583 0.0
C664 C 0.08297 0.26615 0.24658 0.0
C665 C 0.05018 0.26056 0.31507 0.0
C666 C 0.13415 0.22881 0.18286 0.0
C667 C 0.12086 0.23884 0.19731 0.0
C668 C 0.08342 0.22214 0.23836 0.0
C669 C 0.0735 0.25969 0.28415 0.0
C670 C 0.07788 0.25165 0.2627 0.0
C671 C 0.10079 0.22892 0.2034 0.0
C672 C 0.08982 0.23667 0.22258 0.0
H673 H 0.0912 0.29959 0.31772 0.0
H674 H 0.10092 0.28306 0.28425 0.0
H675 H 0.07359 0.21807 0.27042 0.0
H676 H 0.10112 0.18446 0.17179 0.0
H677 H 0.07777 0.20204 0.19738 0.0
C678 C 0.04286 0.79806 0.58686 0.0
C679 C 0.04072 0.77589 0.59009 0.0
C680 C 0.0506 0.80599 0.56769 0.0
C681 C 0.04804 0.81408 0.52101 0.0
H682 H 0.10033 0.79844 0.4915 0.0
C683 C 0.06597 0.84191 0.43734 0.0
C684 C 0.08662 0.85209 0.43442 0.0
C685 C 0.06144 0.82929 0.45489 0.0
C686 C 0.08563 0.80283 0.49955 0.0
H687 H 0.04617 0.74468 0.57623 0.0
H688 H 0.05991 0.75867 0.5427 0.0
H689 H 0.09163 0.78388 0.52628 0.0
H690 H 0.11836 0.85784 0.44777 0.0
H691 H 0.11082 0.8353 0.47802 0.0
H692 H 0.04197 0.83308 0.49459 0.0
C693 C 0.05553 0.76983 0.55503 0.0
C694 C 0.08066 0.7945 0.51937 0.0
C695 C 0.04762 0.76185 0.57418 0.0
C696 C 0.10279 0.84905 0.44899 0.0
C697 C 0.09833 0.8364 0.46649 0.0
C698 C 0.05282 0.82214 0.50116 0.0
C699 C 0.0565 0.79194 0.55144 0.0
C700 C 0.06194 0.80029 0.53035 0.0
C701 C 0.07743 0.8269 0.46994 0.0
C702 C 0.07172 0.81674 0.49025 0.0
H703 H 0.03784 0.80927 0.59888 0.0
H704 H 0.05148 0.82314 0.56538 0.0
H705 H 0.03338 0.8186 0.52907 0.0
H706 H 0.05314 0.84443 0.4265 0.0
H707 H 0.04521 0.82206 0.45711 0.0
C708 C 0.50879 0.86759 0.81092 0.0
C709 C 0.50017 0.84845 0.81977 0.0
C710 C 0.50339 0.87287 0.7906 0.0
C711 C 0.46302 0.85872 0.7498 0.0
H712 H 0.50629 0.88462 0.71169 0.0
C713 C 0.44016 0.86138 0.66907 0.0
C714 C 0.43049 0.88105 0.66889 0.0
C715 C 0.45807 0.85902 0.68158 0.0
C716 C 0.49426 0.87718 0.72222 0.0
H717 H 0.47901 0.81999 0.81454 0.0
H718 H 0.47003 0.8288 0.77915 0.0
H719 H 0.51609 0.87735 0.74795 0.0
H720 H 0.43304 0.91414 0.67931 0.0
H721 H 0.46431 0.91004 0.70123 0.0
H722 H 0.44136 0.8582 0.72421 0.0
C723 C 0.48051 0.84009 0.78791 0.0
C724 C 0.49968 0.87328 0.74296 0.0
C725 C 0.48564 0.835 0.80825 0.0
C726 C 0.44068 0.89901 0.6788 0.0
C727 C 0.45859 0.89666 0.69134 0.0
C728 C 0.45781 0.86221 0.7292 0.0
C729 C 0.48945 0.85898 0.77875 0.0
C730 C 0.48406 0.86391 0.75693 0.0
C731 C 0.46599 0.87622 0.69429 0.0
C732 C 0.47334 0.87134 0.71526 0.0
H733 H 0.52012 0.87819 0.8195 0.0
H734 H 0.51024 0.88771 0.78414 0.0
H735 H 0.4504 0.85212 0.7602 0.0
H736 H 0.43235 0.8473 0.66161 0.0
H737 H 0.46349 0.84309 0.68378 0.0
C738 C 0.47577 0.23302 0.0926 0.0
C739 C 0.47324 0.25402 0.09998 0.0
C740 C 0.46769 0.22644 0.07313 0.0
C741 C 0.43566 0.23711 0.02775 0.0
H742 H 0.48923 0.22881 -0.00316 0.0
C743 C 0.43675 0.22184 0.93817 0.0
C744 C 0.44829 0.20396 0.93222 0.0
C745 C 0.43932 0.23118 0.95818 0.0
C746 C 0.47408 0.23091 0.00519 0.0
H747 H 0.45759 0.28346 0.09449 0.0
H748 H 0.44345 0.27182 0.06038 0.0
H749 H 0.49003 0.23447 0.0345 0.0
H750 H 0.47364 0.18369 0.94163 0.0
H751 H 0.4778 0.19945 0.97592 0.0
H752 H 0.41957 0.23266 -0.00161 0.0
C753 C 0.45183 0.26062 0.06954 0.0
C754 C 0.47455 0.23406 0.02676 0.0
C755 C 0.46005 0.26729 0.08897 0.0
C756 C 0.46419 0.19725 0.94566 0.0
C757 C 0.46665 0.20639 0.96549 0.0
C758 C 0.4351 0.23348 0.00605 0.0
C759 C 0.45683 0.24069 0.06097 0.0
C760 C 0.45537 0.23684 0.03824 0.0
C761 C 0.45368 0.2229 0.97233 0.0
C762 C 0.45432 0.22996 -0.00539 0.0
H763 H 0.4856 0.22235 0.10092 0.0
H764 H 0.47151 0.21089 0.0668 0.0
H765 H 0.42074 0.23958 0.03638 0.0
H766 H 0.42519 0.22804 0.92775 0.0
H767 H 0.42964 0.24439 0.96279 0.0
C768 C 0.0341 0.7974 0.17831 0.0
C769 C 0.01452 0.80457 0.17113 0.0
C770 C 0.04183 0.80395 0.19795 0.0
C771 C 0.0399 0.8433 0.24071 0.0
H772 H 0.05181 0.79513 0.27508 0.0
C773 C 0.07257 0.85556 0.32483 0.0
C774 C 0.09079 0.84385 0.32855 0.0
C775 C 0.05957 0.8506 0.30741 0.0
C776 C 0.04867 0.80879 0.26571 0.0
H777 H 0.98847 0.82541 0.17822 0.0
H778 H 0.00227 0.83712 0.21261 0.0
H779 H 0.03848 0.78873 0.23977 0.0
H780 H 0.10812 0.81627 0.31814 0.0
H781 H 0.08577 0.80774 0.28822 0.0
H782 H 0.05103 0.86343 0.26638 0.0
C783 C 0.01145 0.82628 0.20304 0.0
C784 C 0.04105 0.80511 0.24548 0.0
C785 C 0.00358 0.81956 0.1834 0.0
C786 C 0.09442 0.82587 0.31568 0.0
C787 C 0.08146 0.82087 0.29846 0.0
C788 C 0.04785 0.84704 0.26096 0.0
C789 C 0.03025 0.81793 0.21075 0.0
C790 C 0.03701 0.82229 0.23263 0.0
C791 C 0.06432 0.83359 0.29365 0.0
C792 C 0.0528 0.8298 0.27352 0.0
H793 H 0.04302 0.786 0.16916 0.0
H794 H 0.05658 0.79758 0.20341 0.0
H795 H 0.03684 0.85682 0.23109 0.0
H796 H 0.06897 0.86917 0.3347 0.0
H797 H 0.04619 0.86045 0.3044 0.0
C798 C 0.49846 0.80428 0.45027 0.0
C799 C 0.50855 0.81879 0.43612 0.0
C800 C 0.4884 0.81174 0.4685 0.0
C801 C 0.46852 0.86039 0.49436 0.0
H802 H 0.48608 0.8345 0.54563 0.0
C803 C 0.46685 0.9059 0.57092 0.0
C804 C 0.44989 0.89805 0.58416 0.0
C805 C 0.47477 0.89296 0.55496 0.0
C806 C 0.48095 0.84166 0.53139 0.0
H807 H 0.51477 0.85239 0.42909 0.0
H808 H 0.4973 0.86543 0.46086 0.0
H809 H 0.49541 0.81824 0.51162 0.0
H810 H 0.43004 0.86968 0.59292 0.0
H811 H 0.44426 0.8469 0.56485 0.0
H812 H 0.45493 0.8843 0.51412 0.0
C813 C 0.49708 0.8483 0.45794 0.0
C814 C 0.4861 0.83236 0.51199 0.0
C815 C 0.50717 0.84085 0.43977 0.0
C816 C 0.44291 0.87624 0.58278 0.0
C817 C 0.45102 0.8632 0.56679 0.0
C818 C 0.4636 0.86975 0.51367 0.0
C819 C 0.48817 0.83383 0.47279 0.0
C820 C 0.48029 0.84191 0.49329 0.0
C821 C 0.4661 0.87191 0.55218 0.0
C822 C 0.47015 0.86068 0.53223 0.0
H823 H 0.49921 0.78716 0.44777 0.0
H824 H 0.48136 0.80024 0.47952 0.0
H825 H 0.46351 0.86789 0.48026 0.0
H826 H 0.47293 0.9225 0.57186 0.0
H827 H 0.48664 0.89982 0.54391 0.0
C828 C 0.47226 0.25356 0.67438 0.0
C829 C 0.49138 0.24734 0.66444 0.0
C830 C 0.46725 0.24731 0.6948 0.0
C831 C 0.47517 0.21128 0.73683 0.0
H832 H 0.47216 0.26217 0.77233 0.0
C833 C 0.45217 0.20472 0.82413 0.0
C834 C 0.43444 0.21694 0.82937 0.0
C835 C 0.46428 0.20878 0.80575 0.0
C836 C 0.47298 0.2478 0.76267 0.0
H837 H 0.51905 0.22789 0.66714 0.0
H838 H 0.50991 0.21659 0.70289 0.0
H839 H 0.48018 0.2658 0.73503 0.0
H840 H 0.41756 0.24495 0.82112 0.0
H841 H 0.43854 0.25208 0.78952 0.0
H842 H 0.46677 0.19326 0.76426 0.0
C843 C 0.49909 0.22656 0.69491 0.0
C844 C 0.47751 0.2499 0.74135 0.0
C845 C 0.50427 0.23303 0.67451 0.0
C846 C 0.43081 0.23489 0.81735 0.0
C847 C 0.44298 0.23908 0.7992 0.0
C848 C 0.47032 0.20916 0.7582 0.0
C849 C 0.48111 0.23451 0.70548 0.0
C850 C 0.47806 0.2317 0.7282 0.0
C851 C 0.45915 0.22547 0.79266 0.0
C852 C 0.46855 0.22745 0.77121 0.0
H853 H 0.46193 0.26445 0.66696 0.0
H854 H 0.45312 0.25335 0.70265 0.0
H855 H 0.47568 0.19706 0.72691 0.0
H856 H 0.45593 0.19132 0.83352 0.0
H857 H 0.47704 0.19836 0.80137 0.0
C858 C 0.08587 0.24976 0.94604 0.0
C859 C 0.08461 0.27163 0.94221 0.0
C860 C 0.09503 0.24316 0.96445 0.0
C861 C 0.10202 0.25927 0.0187 0.0
H862 H 0.13747 0.2103 0.01892 0.0
C863 C 0.0974 0.19528 0.08145 0.0
C864 C 0.11563 0.18365 0.08488 0.0
C865 C 0.09876 0.21241 0.06768 0.0
C866 C 0.12801 0.22431 0.0193 0.0
H867 H 0.09244 0.3038 0.95434 0.0
H868 H 0.10817 0.29216 0.98672 0.0
H869 H 0.13104 0.22753 0.9861 0.0
H870 H 0.14953 0.18081 0.07718 0.0
H871 H 0.1521 0.21084 0.05341 0.0
H872 H 0.09819 0.25538 0.05187 0.0
C873 C 0.10214 0.2802 0.97542 0.0
C874 C 0.12415 0.23401 0.00042 0.0
C875 C 0.09322 0.2868 0.95687 0.0
C876 C 0.13549 0.19009 0.0754 0.0
C877 C 0.13684 0.20706 0.06152 0.0
C878 C 0.10579 0.24946 0.03766 0.0
C879 C 0.10291 0.25831 0.97947 0.0
C880 C 0.11043 0.25101 -0.00018 0.0
C881 C 0.11828 0.21779 0.0568 0.0
C882 C 0.11817 0.23136 0.03802 0.0
H883 H 0.07934 0.23774 0.93504 0.0
H884 H 0.09518 0.22616 0.96732 0.0
H885 H 0.09139 0.27241 0.01865 0.0
H886 H 0.0818 0.19025 0.08833 0.0
H887 H 0.08407 0.22013 0.06419 0.0
C888 C 0.33197 0.04663 0.21469 0.0
C889 C 0.33464 0.02457 0.21247 0.0
C890 C 0.3141 0.05564 0.20605 0.0
C891 C 0.258 0.04446 0.19301 0.0
H892 H 0.26577 0.09591 0.16015 0.0
C893 C 0.20527 0.11154 0.15124 0.0
C894 C 0.20072 0.12477 0.16856 0.0
C895 C 0.21745 0.09361 0.15369 0.0
C896 C 0.26337 0.08132 0.16897 0.0
H897 H 0.32067 -0.00539 0.19953 0.0
H898 H 0.28911 0.0104 0.1848 0.0
H899 H 0.29745 0.07697 0.16992 0.0
H900 H 0.20315 0.12864 0.20219 0.0
H901 H 0.22349 0.09677 0.20663 0.0
H902 H 0.22396 0.04994 0.19338 0.0
C903 C 0.30101 0.02067 0.19304 0.0
C904 C 0.28146 0.07062 0.1747 0.0
C905 C 0.3191 0.0117 0.20138 0.0
C906 C 0.20634 0.11855 0.18863 0.0
C907 C 0.21794 0.10035 0.19117 0.0
C908 C 0.23989 0.05551 0.18768 0.0
C909 C 0.29836 0.04272 0.19532 0.0
C910 C 0.27899 0.05236 0.18712 0.0
C911 C 0.22459 0.08845 0.17361 0.0
C912 C 0.24253 0.07419 0.17588 0.0
H913 H 0.3436 0.05693 0.22325 0.0
H914 H 0.31229 0.07266 0.20821 0.0
H915 H 0.25572 0.03045 0.20268 0.0
H916 H 0.2014 0.11628 0.13564 0.0
H917 H 0.22259 0.08472 0.13994 0.0
C918 C 0.20149 0.09153 0.48277 0.0
C919 C 0.2212 0.10121 0.47552 0.0
C920 C 0.19475 0.07096 0.47587 0.0
C921 C 0.21727 0.02168 0.45483 0.0
H922 H 0.15651 0.00398 0.44852 0.0
C923 C 0.17541 0.94231 0.42016 0.0
C924 C 0.15668 0.93516 0.4314 0.0
C925 C 0.18802 0.96017 0.42744 0.0
C926 C 0.17354 0.00871 0.45045 0.0
H927 H 0.24859 0.09772 0.45426 0.0
H928 H 0.2365 0.06188 0.44179 0.0
H929 H 0.16711 0.04171 0.45399 0.0
H930 H 0.13858 0.93837 0.46058 0.0
H931 H 0.16058 0.96945 0.4732 0.0
H932 H 0.22346 0.98837 0.45064 0.0
C933 C 0.22656 0.06998 0.45321 0.0
C934 C 0.1796 0.03029 0.45354 0.0
C935 C 0.23333 0.09057 0.46017 0.0
C936 C 0.15267 0.94391 0.45141 0.0
C937 C 0.16525 0.96163 0.45866 0.0
C938 C 0.21116 -2e-05 0.45143 0.0
C939 C 0.20753 0.05972 0.46148 0.0
C940 C 0.20148 0.03701 0.45613 0.0
C941 C 0.18197 0.97079 0.44599 0.0
C942 C 0.18919 -0.00662 0.44964 0.0
H943 H 0.19183 0.09934 0.49464 0.0
H944 H 0.18007 0.06348 0.48267 0.0
H945 H 0.23425 0.02635 0.45699 0.0
H946 H 0.17895 0.9357 0.40475 0.0
H947 H 0.20096 0.96697 0.41751 0.0
C948 C 0.20376 0.04381 0.6892 0.0
C949 C 0.18758 0.03203 0.7006 0.0
C950 C 0.22263 0.03424 0.68265 0.0
C951 C 0.25642 -0.00337 0.70386 0.0
H952 H 0.28725 -0.0058 0.65055 0.0
C953 C 0.32583 0.94223 0.6888 0.0
C954 C 0.34269 0.94842 0.67474 0.0
C955 C 0.30859 0.95521 0.69233 0.0
C956 C 0.27901 -0.00481 0.66562 0.0
H957 H 0.17722 0.00055 0.71197 0.0
H958 H 0.21029 0.98395 0.70071 0.0
H959 H 0.25192 0.01009 0.65274 0.0
H960 H 0.35606 0.97433 0.65547 0.0
H961 H 0.3256 -0.00301 0.66144 0.0
H962 H 0.28329 0.98211 0.71696 0.0
C963 C 0.20845 0.00058 0.69708 0.0
C964 C 0.25877 0.00406 0.66678 0.0
C965 C 0.18957 0.01007 0.70349 0.0
C966 C 0.3429 0.96878 0.66578 0.0
C967 C 0.3255 0.98176 0.66921 0.0
C968 C 0.27665 0.98807 0.70278 0.0
C969 C 0.22551 0.01286 0.68754 0.0
C970 C 0.24715 0.00432 0.68584 0.0
C971 C 0.30785 0.97475 0.68201 0.0
C972 C 0.28795 0.98676 0.68358 0.0
H973 H 0.20251 0.06074 0.68658 0.0
H974 H 0.23561 0.04394 0.67524 0.0
H975 H 0.24793 -0.0028 0.71884 0.0
H976 H 0.3252 0.92675 0.69617 0.0
H977 H 0.29522 0.94927 0.70224 0.0
C978 C 0.33765 0.97049 0.97837 0.0
C979 C 0.31773 0.9596 0.97373 0.0
C980 C 0.3416 0.99181 0.97277 0.0
C981 C 0.32657 0.03436 0.93931 0.0
H982 H 0.3425 0.07136 0.98678 0.0
C983 C 0.35174 0.12135 0.925 0.0
C984 C 0.37232 0.12665 0.93322 0.0
C985 C 0.33903 0.10401 0.93297 0.0
C986 C 0.33803 0.06129 0.97337 0.0
H987 H 0.28722 0.96164 0.95785 0.0
H988 H 0.29447 -0.00113 0.94756 0.0
H989 H 0.33512 0.03305 0.99182 0.0
H990 H 0.39425 0.12046 0.9582 0.0
H991 H 0.37261 0.09023 0.97168 0.0
H992 H 0.33075 0.06217 0.92055 0.0
C993 C 0.30676 0.99099 0.95586 0.0
C994 C 0.3339 0.03938 0.97626 0.0
C995 C 0.30268 0.96972 0.96169 0.0
C996 C 0.37863 0.1164 0.95127 0.0
C997 C 0.36605 0.09909 0.95913 0.0
C998 C 0.33104 0.05624 0.93633 0.0
C999 C 0.32583 0.00242 0.96219 0.0
C1000 C 0.32869 0.02571 0.95916 0.0
C1001 C 0.3468 0.09183 0.94919 0.0
C1002 C 0.33742 0.06987 0.95324 0.0
H1003 H 0.34959 0.96306 0.98754 0.0
H1004 H 0.35662 0.00027 0.97742 0.0
H1005 H 0.32247 0.02407 0.92594 0.0
H1006 H 0.34633 0.12921 0.91126 0.0
H1007 H 0.32393 0.09918 0.9254 0.0
C1008 C 0.32237 0.9494 0.27072 0.0
C1009 C 0.3361 0.96506 0.28059 0.0
C1010 C 0.30107 0.94569 0.27797 0.0
C1011 C 0.26238 0.95497 0.32095 0.0
H1012 H 0.22185 0.96013 0.2759 0.0
C1013 C 0.17389 0.94351 0.34012 0.0
C1014 C 0.16533 0.92596 0.32827 0.0
C1015 C 0.19219 0.95545 0.33272 0.0
C1016 C 0.23296 0.95881 0.28865 0.0
H1017 H 0.33959 0.98688 0.30728 0.0
H1018 H 0.30248 0.98009 0.32015 0.0
H1019 H 0.26072 0.96158 0.26817 0.0
H1020 H 0.16612 0.90964 0.29809 0.0
H1021 H 0.19779 0.93029 0.28516 0.0
H1022 H 0.23479 0.95127 0.34135 0.0
C1023 C 0.30795 0.97107 0.30661 0.0
C1024 C 0.25516 0.95938 0.28421 0.0
C1025 C 0.32916 0.97494 0.29925 0.0
C1026 C 0.17271 0.92297 0.30758 0.0
C1027 C 0.19091 0.93487 0.30018 0.0
C1028 C 0.24018 0.95421 0.32539 0.0
C1029 C 0.29342 0.95737 0.29531 0.0
C1030 C 0.27 0.95699 0.30025 0.0
C1031 C 0.20192 0.94992 0.31343 0.0
C1032 C 0.22518 0.95564 0.30922 0.0
H1033 H 0.32741 0.94142 0.2564 0.0
H1034 H 0.29024 0.9346 0.26935 0.0
H1035 H 0.27354 0.9532 0.33359 0.0
H1036 H 0.16834 0.94621 0.35609 0.0
H1037 H 0.20001 0.96744 0.34299 0.0
C1038 C 0.29761 0.094 0.53694 0.0
C1039 C 0.27811 0.10197 0.54433 0.0
C1040 C 0.3048 0.07515 0.5448 0.0
C1041 C 0.28607 0.02518 0.57035 0.0
H1042 H 0.34773 0.02126 0.57818 0.0
C1043 C 0.34781 0.96509 0.60507 0.0
C1044 C 0.36277 0.96111 0.58892 0.0
C1045 C 0.32963 0.97651 0.60094 0.0
C1046 C 0.33044 0.02221 0.57616 0.0
H1047 H 0.25109 0.09681 0.56615 0.0
H1048 H 0.26398 0.06383 0.58026 0.0
H1049 H 0.33389 0.05563 0.57007 0.0
H1050 H 0.3686 0.96159 0.55544 0.0
H1051 H 0.33653 0.98074 0.5481 0.0
H1052 H 0.28306 0.99129 0.57627 0.0
C1053 C 0.27346 0.07207 0.56813 0.0
C1054 C 0.32253 0.04181 0.57143 0.0
C1055 C 0.26621 0.09101 0.56019 0.0
C1056 C 0.35733 0.96478 0.56816 0.0
C1057 C 0.33893 0.97562 0.56395 0.0
C1058 C 0.29408 0.00538 0.57515 0.0
C1059 C 0.29274 0.06386 0.56035 0.0
C1060 C 0.30036 0.04345 0.56794 0.0
C1061 C 0.32621 0.98332 0.58054 0.0
C1062 C 0.31639 0.00382 0.57762 0.0
H1063 H 0.30704 0.10198 0.5246 0.0
H1064 H 0.31956 0.06908 0.53825 0.0
H1065 H 0.26889 0.02601 0.56768 0.0
H1066 H 0.3517 0.96209 0.62111 0.0
H1067 H 0.32003 0.98237 0.61396 0.0
C1068 C 0.1995 0.07562 0.79225 0.0
C1069 C 0.19316 0.08775 0.7754 0.0
C1070 C 0.22052 0.07841 0.79986 0.0
C1071 C 0.27483 0.09472 0.78093 0.0
H1072 H 0.28982 0.10122 0.83942 0.0
C1073 C 0.34806 0.14242 0.81069 0.0
C1074 C 0.35592 0.13858 0.83062 0.0
C1075 C 0.33227 0.12843 0.80184 0.0
C1076 C 0.286 0.0987 0.82305 0.0
H1077 H 0.20305 0.11355 0.75448 0.0
H1078 H 0.23977 0.11852 0.76788 0.0
H1079 H 0.25195 0.095 0.82992 0.0
H1080 H 0.35592 0.11585 0.85574 0.0
H1081 H 0.32792 0.09131 0.84031 0.0
H1082 H 0.30879 0.09918 0.77398 0.0
C1083 C 0.22862 0.10656 0.77487 0.0
C1084 C 0.26427 0.09541 0.81763 0.0
C1085 C 0.20756 0.10391 0.76741 0.0
C1086 C 0.34989 0.11918 0.8404 0.0
C1087 C 0.33383 0.10523 0.83164 0.0
C1088 C 0.29656 0.09787 0.78633 0.0
C1089 C 0.2355 0.09326 0.79058 0.0
C1090 C 0.25849 0.09427 0.79651 0.0
C1091 C 0.3239 0.11051 0.81295 0.0
C1092 C 0.30228 0.10082 0.80741 0.0
H1093 H 0.18863 0.06313 0.79878 0.0
H1094 H 0.2254 0.06813 0.81214 0.0
H1095 H 0.27075 0.09328 0.76452 0.0
H1096 H 0.35278 0.15716 0.80273 0.0
H1097 H 0.32504 0.13298 0.78741 0.0
C1098 C 0.28859 0.97346 0.05814 0.0
C1099 C 0.2747 0.95549 0.05321 0.0
C1100 C 0.28032 0.99165 0.06759 0.0
C1101 C 0.23202 0.01197 0.09467 0.0
H1102 H 0.24483 0.06305 0.06209 0.0
C1103 C 0.17167 0.07605 0.08685 0.0
C1104 C 0.17881 0.09735 0.09138 0.0
C1105 C 0.18649 0.06023 0.08486 0.0
C1106 C 0.24143 0.04904 0.07158 0.0
H1107 H 0.24175 0.94174 0.05563 0.0
H1108 H 0.22733 0.97334 0.07232 0.0
H1109 H 0.26601 0.03166 0.05601 0.0
H1110 H 0.20706 0.1191 0.09602 0.0
H1111 H 0.23322 0.09124 0.09185 0.0
H1112 H 0.2067 0.02899 0.10943 0.0
C1113 C 0.24456 0.97348 0.06886 0.0
C1114 C 0.25356 0.03112 0.06819 0.0
C1115 C 0.25276 0.95543 0.05918 0.0
C1116 C 0.20117 0.10275 0.09265 0.0
C1117 C 0.21608 0.08689 0.09031 0.0
C1118 C 0.21987 0.02981 0.09798 0.0
C1119 C 0.25811 0.99201 0.07253 0.0
C1120 C 0.24844 0.01217 0.07919 0.0
C1121 C 0.20875 0.06543 0.08701 0.0
C1122 C 0.22398 0.04818 0.08593 0.0
H1123 H 0.30561 0.97391 0.05371 0.0
H1124 H 0.29113 0.00567 0.0704 0.0
H1125 H 0.22799 -0.00231 0.1036 0.0
H1126 H 0.15454 0.07138 0.08588 0.0
H1127 H 0.18051 0.04381 0.08192 0.0
C1128 C 0.23322 0.35707 0.01395 0.0
C1129 C 0.24474 0.3716 0.02735 0.0
C1130 C 0.22401 0.33769 0.02154 0.0
C1131 C 0.20012 0.29989 0.04408 0.0
H1132 H 0.23967 0.27166 0.07926 0.0
C1133 C 0.17712 0.22372 0.09172 0.0
C1134 C 0.19312 0.20912 0.09457 0.0
C1135 C 0.18179 0.24239 0.08044 0.0
C1136 C 0.22854 0.27916 0.06922 0.0
H1137 H 0.25419 0.37802 0.05948 0.0
H1138 H 0.23801 0.34431 0.07275 0.0
H1139 H 0.24942 0.30755 0.0671 0.0
H1140 H 0.22634 0.20216 0.08764 0.0
H1141 H 0.23453 0.23461 0.06742 0.0
H1142 H 0.17927 0.27125 0.04622 0.0
C1143 C 0.23644 0.3477 0.0563 0.0
C1144 C 0.23396 0.29992 0.06256 0.0
C1145 C 0.24558 0.36707 0.04874 0.0
C1146 C 0.21367 0.21305 0.08532 0.0
C1147 C 0.21835 0.2317 0.07395 0.0
C1148 C 0.19461 0.27907 0.05088 0.0
C1149 C 0.22623 0.33247 0.04265 0.0
C1150 C 0.21981 0.31058 0.05 0.0
C1151 C 0.20269 0.24694 0.07204 0.0
C1152 C 0.2088 0.26847 0.06353 0.0
H1153 H 0.23222 0.36017 -0.00261 0.0
H1154 H 0.21626 0.3263 0.01063 0.0
H1155 H 0.18889 0.30771 0.03441 0.0
H1156 H 0.16144 0.22145 0.09947 0.0
H1157 H 0.16945 0.25389 0.07955 0.0
C1158 C 0.6972 0.21967 -0.00522 0.0
C1159 C 0.7052 0.20611 0.97901 0.0
C1160 C 0.6874 0.23831 0.98953 0.0
C1161 C 0.66352 0.26611 0.94638 0.0
H1162 H 0.69504 0.31725 0.96789 0.0
C1163 C 0.6545 0.34389 0.90619 0.0
C1164 C 0.67439 0.35351 0.89952 0.0
C1165 C 0.65355 0.32948 0.92249 0.0
C1166 C 0.68591 0.30315 0.96197 0.0
H1167 H 0.70775 0.20038 0.94551 0.0
H1168 H 0.69031 0.23271 0.93633 0.0
H1169 H 0.70035 0.28251 0.98335 0.0
H1170 H 0.70893 0.35629 0.9047 0.0
H1171 H 0.70748 0.33068 0.93325 0.0
H1172 H 0.65021 0.28613 0.92408 0.0
C1173 C 0.6917 0.22902 0.95273 0.0
C1174 C 0.68878 0.28334 0.97091 0.0
C1175 C 0.70173 0.21055 0.95796 0.0
C1176 C 0.69334 0.34934 0.91 0.0
C1177 C 0.69244 0.3348 0.92637 0.0
C1178 C 0.66057 0.28582 0.93754 0.0
C1179 C 0.68514 0.2434 0.96846 0.0
C1180 C 0.67827 0.26458 0.96256 0.0
C1181 C 0.67261 0.32402 0.93211 0.0
C1182 C 0.67236 0.30442 0.94469 0.0
H1183 H 0.69966 0.2166 0.01117 0.0
H1184 H 0.68233 0.24912 0.00189 0.0
H1185 H 0.65516 0.25187 0.93979 0.0
H1186 H 0.63993 0.34587 0.8975 0.0
H1187 H 0.63806 0.32144 0.92653 0.0
C1188 C 0.10645 0.50409 0.21319 0.0
C1189 C 0.11129 0.50397 0.23456 0.0
C1190 C 0.08648 0.49541 0.20626 0.0
C1191 C 0.03647 0.46466 0.21375 0.0
H1192 H 0.00954 0.51701 0.20017 0.0
C1193 C 0.94922 0.46321 0.18307 0.0
C1194 C 0.94882 0.47331 0.16364 0.0
C1195 C 0.96709 0.46681 0.1961 0.0
C1196 C 0.01677 0.50226 0.20395 0.0
H1197 H 0.10059 0.49198 0.26491 0.0
H1198 H 0.06553 0.47682 0.25264 0.0
H1199 H 0.04692 0.51876 0.21178 0.0
H1200 H 0.96512 0.49777 0.14429 0.0
H1201 H -0.00435 0.50433 0.16694 0.0
H1202 H 0.00655 0.44803 0.20486 0.0
C1203 C 0.07713 0.48376 0.2414 0.0
C1204 C 0.03813 0.50327 0.21051 0.0
C1205 C 0.09712 0.49253 0.24838 0.0
C1206 C 0.96504 0.48929 0.15891 0.0
C1207 C 0.98264 0.49311 0.17198 0.0
C1208 C 0.01502 0.4636 0.20688 0.0
C1209 C 0.07125 0.48635 0.22058 0.0
C1210 C 0.04827 0.48449 0.21492 0.0
C1211 C 0.9844 0.48116 0.19017 0.0
C1212 C 0.0052 0.48239 0.20137 0.0
H1213 H 0.11722 0.5125 0.20213 0.0
H1214 H 0.08219 0.49741 0.19008 0.0
H1215 H 0.04406 0.45005 0.21732 0.0
H1216 H 0.93629 0.45178 0.18772 0.0
H1217 H 0.96775 0.45785 0.21038 0.0
C1218 C 0.81473 0.8584 0.45072 0.0
C1219 C 0.82458 0.86859 0.46816 0.0
C1220 C 0.81841 0.83714 0.44577 0.0
C1221 C 0.83745 0.78808 0.46983 0.0
H1222 H 0.83366 0.76705 0.4125 0.0
C1223 C 0.86727 0.713 0.42523 0.0
C1224 C 0.85321 0.70611 0.4092 0.0
C1225 C 0.86067 0.72803 0.44016 0.0
C1226 C 0.83441 0.77267 0.42865 0.0
H1227 H 0.84734 0.86526 0.49307 0.0
H1228 H 0.855 0.82842 0.48355 0.0
H1229 H 0.83212 0.80499 0.41977 0.0
H1230 H 0.82012 0.70518 0.39863 0.0
H1231 H 0.80834 0.7308 0.42502 0.0
H1232 H 0.8412 0.75533 0.47818 0.0
C1233 C 0.8436 0.8365 0.47431 0.0
C1234 C 0.83353 0.79445 0.43284 0.0
C1235 C 0.83952 0.85771 0.47955 0.0
C1236 C 0.83131 0.71065 0.41074 0.0
C1237 C 0.82457 0.72526 0.42587 0.0
C1238 C 0.83884 0.76614 0.46551 0.0
C1239 C 0.83249 0.82572 0.4578 0.0
C1240 C 0.83478 0.8025 0.45349 0.0
C1241 C 0.83987 0.73576 0.43909 0.0
C1242 C 0.837 0.75832 0.44488 0.0
H1243 H 0.8029 0.86629 0.4418 0.0
H1244 H 0.80927 0.82941 0.43313 0.0
H1245 H 0.8382 0.79365 0.48597 0.0
H1246 H 0.88408 0.70934 0.42432 0.0
H1247 H 0.8727 0.73581 0.45035 0.0
C1248 C 0.95267 0.04122 0.2205 0.0
C1249 C 0.94464 0.04788 0.2401 0.0
C1250 C 0.97304 0.04894 0.21328 0.0
C1251 C 0.0251 0.07546 0.23174 0.0
H1252 H 0.03571 0.08091 0.17206 0.0
C1253 C 0.09833 0.11829 0.18505 0.0
C1254 C 0.10522 0.10622 0.16766 0.0
C1255 C 0.08167 0.10985 0.19824 0.0
C1256 C 0.033 0.0793 0.18877 0.0
H1257 H 0.95117 0.06857 0.26713 0.0
H1258 H 0.9864 0.08301 0.25403 0.0
H1259 H -0.00068 0.07127 0.18488 0.0
H1260 H 0.10244 0.07523 0.15191 0.0
H1261 H 0.07365 0.06051 0.17499 0.0
H1262 H 0.05904 0.08454 0.23529 0.0
C1263 C 0.9773 0.0712 0.24455 0.0
C1264 C 0.01214 0.07368 0.19616 0.0
C1265 C 0.957 0.06315 0.25196 0.0
C1266 C 0.0973 0.08483 0.1652 0.0
C1267 C 0.0808 0.07644 0.17833 0.0
C1268 C 0.04603 0.08153 0.22428 0.0
C1269 C 0.98577 0.0639 0.22526 0.0
C1270 C 0.00789 0.07133 0.21772 0.0
C1271 C 0.07192 0.08935 0.19409 0.0
C1272 C 0.05014 0.08314 0.2027 0.0
H1273 H 0.94365 0.02925 0.21111 0.0
H1274 H 0.97906 0.04254 0.19857 0.0
H1275 H 0.02256 0.07358 0.24842 0.0
H1276 H 0.10407 0.1349 0.18709 0.0
H1277 H 0.075 0.12008 0.21031 0.0
C1278 C 0.28474 0.7257 0.53918 0.0
C1279 C 0.28333 0.72129 0.51763 0.0
C1280 C 0.29407 0.74529 0.54639 0.0
C1281 C 0.3043 0.80105 0.5314 0.0
H1282 H 0.34202 0.80347 0.57933 0.0
C1283 C 0.35471 0.87148 0.57843 0.0
C1284 C 0.34486 0.87319 0.59836 0.0
C1285 C 0.34685 0.85577 0.56409 0.0
C1286 C 0.33168 0.80294 0.56579 0.0
H1287 H 0.29075 0.73372 0.48667 0.0
H1288 H 0.30696 0.76804 0.49934 0.0
H1289 H 0.33062 0.76875 0.56362 0.0
H1290 H 0.31767 0.86186 0.61797 0.0
H1291 H 0.30405 0.83462 0.59291 0.0
H1292 H 0.30499 0.83543 0.53421 0.0
C1293 C 0.30082 0.75637 0.51061 0.0
C1294 C 0.32505 0.78316 0.55692 0.0
C1295 C 0.29166 0.73669 0.5034 0.0
C1296 C 0.3257 0.86072 0.6028 0.0
C1297 C 0.31786 0.8452 0.5885 0.0
C1298 C 0.31094 0.82093 0.54036 0.0
C1299 C 0.30201 0.76088 0.53217 0.0
C1300 C 0.31089 0.78198 0.53996 0.0
C1301 C 0.32898 0.84198 0.56953 0.0
C1302 C 0.32433 0.82186 0.55783 0.0
H1303 H 0.27841 0.71413 0.55047 0.0
H1304 H 0.29458 0.74846 0.56311 0.0
H1305 H 0.29326 0.80055 0.51841 0.0
H1306 H 0.36952 0.88087 0.57466 0.0
H1307 H 0.35566 0.85333 0.54951 0.0
C1308 C 0.09925 0.59013 0.30017 0.0
C1309 C 0.10451 0.58847 0.27877 0.0
C1310 C 0.07951 0.59789 0.30668 0.0
C1311 C 0.03186 0.62622 0.29311 0.0
H1312 H 0.00213 0.5836 0.32837 0.0
C1313 C 0.94698 0.60318 0.34234 0.0
C1314 C 0.94654 0.62153 0.35521 0.0
C1315 C 0.96298 0.60175 0.32676 0.0
C1316 C 0.00998 0.59549 0.31821 0.0
H1317 H 0.09417 0.59541 0.24748 0.0
H1318 H 0.05947 0.60896 0.259 0.0
H1319 H 0.03839 0.57789 0.31519 0.0
H1320 H 0.96138 0.65317 0.36148 0.0
H1321 H 0.98955 0.65066 0.3344 0.0
H1322 H 0.00338 0.64416 0.29689 0.0
C1323 C 0.07065 0.6042 0.27064 0.0
C1324 C 0.0309 0.59237 0.31096 0.0
C1325 C 0.09044 0.59636 0.26409 0.0
C1326 C 0.96119 0.63906 0.35133 0.0
C1327 C 0.9773 0.6376 0.33585 0.0
C1328 C 0.01085 0.62953 0.30068 0.0
C1329 C 0.06468 0.60417 0.29193 0.0
C1330 C 0.04219 0.60781 0.29867 0.0
C1331 C 0.97907 0.61846 0.32426 0.0
C1332 C -0.00018 0.61422 0.31346 0.0
H1333 H 0.10989 0.58445 0.31185 0.0
H1334 H 0.07536 0.59805 0.32324 0.0
H1335 H 0.04025 0.63828 0.28352 0.0
H1336 H 0.93602 0.58936 0.34539 0.0
H1337 H 0.9639 0.58687 0.3179 0.0
C1338 C 0.45515 0.45987 0.77169 0.0
C1339 C 0.44391 0.47065 0.78765 0.0
C1340 C 0.47512 0.45171 0.77563 0.0
C1341 C 0.51189 0.43547 0.81471 0.0
H1342 H 0.55717 0.4708 0.78681 0.0
C1343 C 0.58418 0.46434 0.85431 0.0
C1344 C 0.59433 0.44519 0.85723 0.0
C1345 C 0.57255 0.467 0.83618 0.0
C1346 C 0.54474 0.46036 0.79413 0.0
H1347 H 0.44357 0.47944 0.82065 0.0
H1348 H 0.47835 0.46456 0.82766 0.0
H1349 H 0.5193 0.47211 0.77602 0.0
H1350 H 0.60457 0.41627 0.84199 0.0
H1351 H 0.58267 0.42006 0.81095 0.0
H1352 H 0.53708 0.42439 0.83341 0.0
C1353 C 0.47176 0.46277 0.81208 0.0
C1354 C 0.52319 0.46114 0.7881 0.0
C1355 C 0.45192 0.47126 0.80808 0.0
C1356 C 0.59612 0.4307 0.84035 0.0
C1357 C 0.58387 0.433 0.82248 0.0
C1358 C 0.53342 0.43423 0.82031 0.0
C1359 C 0.48386 0.45379 0.79566 0.0
C1360 C 0.5066 0.44933 0.79895 0.0
C1361 C 0.57059 0.45028 0.82126 0.0
C1362 C 0.54983 0.44724 0.81058 0.0
H1363 H 0.44927 0.45901 0.75582 0.0
H1364 H 0.4842 0.44469 0.76285 0.0
H1365 H 0.49929 0.4264 0.82334 0.0
H1366 H 0.58316 0.4761 0.86692 0.0
H1367 H 0.56249 0.48054 0.8354 0.0
C1368 C 0.97437 0.80297 0.69543 0.0
C1369 C 0.98314 0.78282 0.69477 0.0
C1370 C 0.96844 0.81215 0.71469 0.0
C1371 C 0.9788 0.81306 0.77053 0.0
H1372 H 0.91801 0.8237 0.77828 0.0
C1373 C 0.93684 0.86022 0.83835 0.0
C1374 C 0.91637 0.85128 0.84453 0.0
C1375 C 0.94895 0.84991 0.8229 0.0
C1376 C 0.93502 0.8207 0.77633 0.0
H1377 H -0.00645 0.75681 0.71334 0.0
H1378 H 0.98379 0.77317 0.74694 0.0
H1379 H 0.93134 0.81212 0.74393 0.0
H1380 H 0.89414 0.82316 0.84224 0.0
H1381 H 0.9153 0.80524 0.81537 0.0
H1382 H 0.98242 0.82197 0.803 0.0
C1383 C 0.9812 0.78168 0.73268 0.0
C1384 C 0.94264 0.81437 0.75667 0.0
C1385 C 0.98656 0.77229 0.71351 0.0
C1386 C 0.90968 0.83058 0.83739 0.0
C1387 C 0.92172 0.82035 0.82201 0.0
C1388 C 0.97122 0.81983 0.79018 0.0
C1389 C 0.97189 0.80154 0.73341 0.0
C1390 C 0.96451 0.81028 0.75369 0.0
C1391 C 0.94066 0.83062 0.81369 0.0
C1392 C 0.9492 0.82333 0.79326 0.0
H1393 H 0.97164 0.81131 0.68112 0.0
H1394 H 0.96115 0.82747 0.71499 0.0
H1395 H -0.00424 0.80993 0.76846 0.0
H1396 H 0.94241 0.87612 0.84371 0.0
H1397 H 0.96363 0.85802 0.81675 0.0
C1398 C 0.01401 0.27344 0.42849 0.0
C1399 C 0.00285 0.28809 0.41709 0.0
C1400 C 0.00499 0.26479 0.44683 0.0
C1401 C 0.96496 0.27518 0.48885 0.0
H1402 H 0.9773 0.2176 0.50426 0.0
C1403 C 0.93286 0.22693 0.56254 0.0
C1404 C 0.94915 0.21703 0.57312 0.0
C1405 C 0.93785 0.2383 0.54425 0.0
C1406 C 0.97381 0.23375 0.50016 0.0
H1407 H 0.97317 0.30468 0.41556 0.0
H1408 H 0.95709 0.28914 0.44756 0.0
H1409 H 0.98718 0.23012 0.46935 0.0
H1410 H 0.98354 0.21225 0.5737 0.0
H1411 H -0.00776 0.23194 0.54171 0.0
H1412 H 0.95117 0.2784 0.51983 0.0
C1413 C 0.97304 0.28469 0.44249 0.0
C1414 C 0.9795 0.24095 0.48019 0.0
C1415 C 0.98217 0.29347 0.42411 0.0
C1416 C 0.97071 0.21989 0.56593 0.0
C1417 C 0.97566 0.231 0.54759 0.0
C1418 C 0.95895 0.26781 0.50881 0.0
C1419 C 0.98448 0.27041 0.45419 0.0
C1420 C 0.97574 0.26196 0.47446 0.0
C1421 C 0.95916 0.23955 0.53617 0.0
C1422 C 0.96391 0.24724 0.51477 0.0
H1423 H 0.03002 0.26903 0.42355 0.0
H1424 H 0.01448 0.25417 0.45558 0.0
H1425 H 0.96191 0.29149 0.48501 0.0
H1426 H 0.91606 0.22412 0.56718 0.0
H1427 H 0.92484 0.24459 0.53557 0.0
C1428 C 0.55317 0.23431 0.19044 0.0
C1429 C 0.55613 0.2561 0.18576 0.0
C1430 C 0.55883 0.22716 0.20998 0.0
C1431 C 0.56368 0.24797 0.26382 0.0
H1432 H 0.58431 0.19193 0.27391 0.0
C1433 C 0.60435 0.2173 0.33575 0.0
C1434 C 0.60176 0.19517 0.33891 0.0
C1435 C 0.59164 0.22677 0.32121 0.0
C1436 C 0.57799 0.20741 0.2713 0.0
H1437 H 0.56956 0.28711 0.19672 0.0
H1438 H 0.57989 0.27448 0.23076 0.0
H1439 H 0.58236 0.20413 0.23822 0.0
H1440 H 0.5818 0.16621 0.33265 0.0
H1441 H 0.55971 0.1827 0.30684 0.0
H1442 H 0.56047 0.2515 0.29722 0.0
C1443 C 0.57254 0.26308 0.21962 0.0
C1444 C 0.5771 0.21448 0.25088 0.0
C1445 C 0.56685 0.27024 0.20006 0.0
C1446 C 0.58405 0.18331 0.33027 0.0
C1447 C 0.5715 0.19272 0.31549 0.0
C1448 C 0.56484 0.24096 0.28436 0.0
C1449 C 0.56763 0.24168 0.22509 0.0
C1450 C 0.5699 0.2348 0.24689 0.0
C1451 C 0.57662 0.21398 0.30956 0.0
C1452 C 0.5719 0.22057 0.28822 0.0
H1453 H 0.5451 0.22305 0.17962 0.0
H1454 H 0.55492 0.21054 0.21368 0.0
H1455 H 0.55773 0.2636 0.26119 0.0
H1456 H 0.61786 0.22669 0.34255 0.0
H1457 H 0.59574 0.24324 0.31704 0.0
C1458 C 0.56103 0.87394 0.92046 0.0
C1459 C 0.57047 0.85943 0.90657 0.0
C1460 C 0.56987 0.87793 0.94012 0.0
C1461 C 0.59589 0.84427 0.97593 0.0
H1462 H 0.58524 0.89081 0.01492 0.0
C1463 C 0.61037 0.85518 0.06549 0.0
C1464 C 0.59448 0.86703 0.07552 0.0
C1465 C 0.60775 0.84855 0.04466 0.0
C1466 C 0.58808 0.87765 0.00412 0.0
H1467 H 0.59876 0.84129 0.90029 0.0
H1468 H 0.61445 0.8486 0.93461 0.0
H1469 H 0.58679 0.8976 0.9775 0.0
H1470 H 0.56127 0.87614 0.07403 0.0
H1471 H 0.55665 0.86443 0.03775 0.0
H1472 H 0.59728 0.82443 0.00287 0.0
C1473 C 0.59977 0.85614 0.9307 0.0
C1474 C 0.58921 0.8816 0.98279 0.0
C1475 C 0.59086 0.85207 0.91104 0.0
C1476 C 0.57407 0.86767 0.06633 0.0
C1477 C 0.57142 0.86102 0.04558 0.0
C1478 C 0.59505 0.8404 -0.00262 0.0
C1479 C 0.58833 0.86756 0.94597 0.0
C1480 C 0.59242 0.86481 0.96842 0.0
C1481 C 0.58908 0.85351 0.03414 0.0
C1482 C 0.59038 0.85692 0.01149 0.0
H1483 H 0.54551 0.8802 0.91719 0.0
H1484 H 0.56076 0.88705 0.95144 0.0
H1485 H 0.59806 0.83089 0.96524 0.0
H1486 H 0.626 0.85393 0.07244 0.0
H1487 H 0.62142 0.84238 0.03613 0.0
C1488 C 0.01493 0.24636 0.83593 0.0
C1489 C 0.01427 0.26791 0.8424 0.0
C1490 C 0.00763 0.23968 0.81607 0.0
C1491 C -3e-05 0.26084 0.76354 0.0
H1492 H 0.96388 0.20879 0.75421 0.0
C1493 C 0.95258 0.24178 0.68762 0.0
C1494 C 0.94863 0.22026 0.68136 0.0
C1495 C 0.96424 0.2471 0.70575 0.0
C1496 C 0.97434 0.22315 0.75644 0.0
H1497 H 0.00464 0.29919 0.83343 0.0
H1498 H -0.00804 0.28755 0.79894 0.0
H1499 H 0.97534 0.21873 0.78959 0.0
H1500 H 0.95405 0.1876 0.68899 0.0
H1501 H 0.97539 0.19673 0.71993 0.0
H1502 H -0.00113 0.26538 0.73044 0.0
C1503 C -0.00165 0.27585 0.80907 0.0
C1504 C 0.9808 0.22889 0.77677 0.0
C1505 C 0.00544 0.28246 0.82892 0.0
C1506 C 0.95774 0.20428 0.69281 0.0
C1507 C 0.96942 0.20956 0.71093 0.0
C1508 C -0.00639 0.25505 0.7432 0.0
C1509 C -0.00026 0.25449 0.80224 0.0
C1510 C -0.00653 0.24792 0.78058 0.0
C1511 C 0.97201 0.23096 0.71812 0.0
C1512 C 0.98054 0.23623 0.7394 0.0
H1513 H 0.02167 0.23479 0.84596 0.0
H1514 H 0.00889 0.2231 0.81125 0.0
H1515 H 0.01005 0.27543 0.76593 0.0
H1516 H 0.94535 0.25438 0.67928 0.0
H1517 H 0.96575 0.26373 0.71084 0.0
C1518 C 0.5385 0.23698 0.55818 0.0
C1519 C 0.54944 0.25464 0.56798 0.0
C1520 C 0.54549 0.22955 0.5387 0.0
C1521 C 0.57689 0.2458 0.49148 0.0
H1522 H 0.5719 0.1846 0.48021 0.0
C1523 C 0.61022 0.18967 0.42478 0.0
C1524 C 0.59493 0.173 0.41973 0.0
C1525 C 0.60428 0.20644 0.43811 0.0
C1526 C 0.57317 0.20177 0.4831 0.0
H1527 H 0.5767 0.27802 0.56546 0.0
H1528 H 0.58942 0.26451 0.53139 0.0
H1529 H 0.56487 0.19806 0.51535 0.0
H1530 H 0.56091 0.1626 0.42062 0.0
H1531 H 0.55033 0.1922 0.44315 0.0
H1532 H 0.58593 0.24905 0.45888 0.0
C1533 C 0.57514 0.25675 0.53868 0.0
C1534 C 0.56917 0.20947 0.50322 0.0
C1535 C 0.56802 0.26431 0.55824 0.0
C1536 C 0.57299 0.17524 0.42462 0.0
C1537 C 0.56696 0.19217 0.43746 0.0
C1538 C 0.58122 0.23797 0.47119 0.0
C1539 C 0.56377 0.23944 0.52862 0.0
C1540 C 0.57045 0.23157 0.50759 0.0
C1541 C 0.58292 0.20659 0.44592 0.0
C1542 C 0.57882 0.2159 0.46685 0.0
H1543 H 0.52402 0.22931 0.56519 0.0
H1544 H 0.53613 0.21641 0.53126 0.0
H1545 H 0.57797 0.26294 0.4944 0.0
H1546 H 0.62712 0.18815 0.42089 0.0
H1547 H 0.61684 0.21746 0.4444 0.0
C1548 C 0.60156 0.8112 0.33348 0.0
C1549 C 0.59359 0.82523 0.34884 0.0
C1550 C 0.60461 0.81791 0.31294 0.0
C1551 C 0.60856 0.86177 0.27673 0.0
H1552 H 0.56682 0.82683 0.24412 0.0
C1553 C 0.59662 0.88215 0.19239 0.0
C1554 C 0.59894 0.86469 0.17854 0.0
C1555 C 0.59132 0.87878 0.21338 0.0
C1556 C 0.57858 0.83667 0.25296 0.0
H1557 H 0.58598 0.85804 0.3557 0.0
H1558 H 0.59202 0.86995 0.31974 0.0
H1559 H 0.57292 0.81816 0.28053 0.0
H1560 H 0.59499 0.83017 0.17513 0.0
H1561 H 0.5864 0.82414 0.21189 0.0
H1562 H 0.61498 0.87982 0.24911 0.0
C1563 C 0.59527 0.85367 0.32354 0.0
C1564 C 0.58215 0.83165 0.27371 0.0
C1565 C 0.59186 0.84686 0.34407 0.0
C1566 C 0.59332 0.84392 0.1855 0.0
C1567 C 0.58838 0.84049 0.20661 0.0
C1568 C 0.60526 0.86663 0.25587 0.0
C1569 C 0.60023 0.83883 0.30768 0.0
C1570 C 0.59728 0.84405 0.28564 0.0
C1571 C 0.58879 0.85786 0.22098 0.0
C1572 C 0.5903 0.85406 0.24371 0.0
H1573 H 0.60329 0.79447 0.33677 0.0
H1574 H 0.6088 0.80636 0.3009 0.0
H1575 H 0.62023 0.87155 0.28577 0.0
H1576 H 0.60152 0.89826 0.18778 0.0
H1577 H 0.59116 0.89251 0.22398 0.0
C1578 C 0.94045 0.79577 0.06147 0.0
C1579 C 0.95865 0.80459 0.07221 0.0
C1580 C 0.9357 0.80303 0.04158 0.0
C1581 C 0.94752 0.84888 0.00703 0.0
H1582 H 0.93349 0.80897 0.96118 0.0
C1583 C 0.95542 0.88122 0.92922 0.0
C1584 C 0.93456 0.88492 0.92244 0.0
C1585 C 0.95847 0.86413 0.94221 0.0
C1586 C 0.93737 0.82015 0.97393 0.0
H1587 H 0.9859 0.82809 0.07079 0.0
H1588 H 0.97778 0.84059 0.03633 0.0
H1589 H 0.93699 0.79553 -0.00307 0.0
H1590 H 0.90175 0.87155 0.91973 0.0
H1591 H 0.90654 0.84237 0.94415 0.0
H1592 H 0.9484 0.87338 0.98431 0.0
C1593 C 0.96695 0.82831 0.04324 0.0
C1594 C 0.9392 0.81258 -0.00568 0.0
C1595 C 0.97162 0.82115 0.06303 0.0
C1596 C 0.91768 0.86926 0.92562 0.0
C1597 C 0.92053 0.85246 0.93928 0.0
C1598 C 0.94591 0.85632 0.98686 0.0
C1599 C 0.94905 0.81925 0.0322 0.0
C1600 C 0.94475 0.82691 0.01097 0.0
C1601 C 0.94056 0.85105 0.94902 0.0
C1602 C 0.94131 0.84204 0.97008 0.0
H1603 H 0.93025 0.78286 0.06815 0.0
H1604 H 0.92168 0.79592 0.03353 0.0
H1605 H 0.95122 0.86038 0.01956 0.0
H1606 H 0.96885 0.89283 0.92642 0.0
H1607 H 0.97415 0.86304 0.94929 0.0
C1608 C 0.71319 0.00765 0.78029 0.0
C1609 C 0.7034 0.02196 0.79419 0.0
C1610 C 0.73297 -0.00042 0.78491 0.0
C1611 C 0.7811 0.00933 0.81856 0.0
H1612 H 0.79187 0.95169 0.79944 0.0
C1613 C 0.842 0.95076 0.84792 0.0
C1614 C 0.84964 0.93637 0.83286 0.0
C1615 C 0.82998 0.9677 0.84182 0.0
C1616 C 0.7893 0.968 0.80448 0.0
H1617 H 0.70621 0.03836 0.82431 0.0
H1618 H 0.74053 0.02327 0.83299 0.0
H1619 H 0.75688 0.96553 0.79375 0.0
H1620 H 0.85353 0.92962 0.79972 0.0
H1621 H 0.83271 0.95935 0.78895 0.0
H1622 H 0.81347 0.01083 0.8306 0.0
C1623 C 0.73317 0.01891 0.81814 0.0
C1624 C 0.76916 0.97595 0.80127 0.0
C1625 C 0.71339 0.02731 0.81332 0.0
C1626 C 0.84778 0.94066 0.81156 0.0
C1627 C 0.83588 0.95762 0.80543 0.0
C1628 C 0.80127 0.00112 0.82216 0.0
C1629 C 0.74336 0.00521 0.80379 0.0
C1630 C 0.76477 -0.00324 0.80812 0.0
C1631 C 0.8254 0.9701 0.82059 0.0
C1632 C 0.80553 0.98042 0.81499 0.0
H1633 H 0.70604 0.00332 0.76532 0.0
H1634 H 0.74041 0.98943 0.77326 0.0
H1635 H 0.77837 0.02551 0.82384 0.0
H1636 H 0.84269 0.94717 0.86439 0.0
H1637 H 0.82197 0.97702 0.85381 0.0
C1638 C 0.82677 0.98822 0.50457 0.0
C1639 C 0.81999 0.97173 0.51825 0.0
C1640 C 0.83102 0.00913 0.51221 0.0
C1641 C 0.84162 0.04069 0.56121 0.0
H1642 H 0.82508 0.08796 0.52779 0.0
C1643 C 0.857 0.12591 0.59166 0.0
C1644 C 0.87232 0.13664 0.57851 0.0
C1645 C 0.8446 0.10805 0.58405 0.0
C1646 C 0.82955 0.07487 0.53735 0.0
H1647 H 0.81303 0.96403 0.5507 0.0
H1648 H 0.82016 0.00041 0.56401 0.0
H1649 H 0.81756 0.05109 0.51519 0.0
H1650 H 0.88481 0.13912 0.54672 0.0
H1651 H 0.86263 0.10847 0.53326 0.0
H1652 H 0.85367 0.06445 0.58328 0.0
C1653 C 0.82246 -0.00272 0.54741 0.0
C1654 C 0.82552 0.05378 0.53005 0.0
C1655 C 0.81835 0.97638 0.53979 0.0
C1656 C 0.87303 0.13109 0.55711 0.0
C1657 C 0.86035 0.11353 0.54943 0.0
C1658 C 0.84534 0.06171 0.56861 0.0
C1659 C 0.82847 0.01401 0.53368 0.0
C1660 C 0.83186 0.03643 0.54175 0.0
C1661 C 0.84711 0.10105 0.56313 0.0
C1662 C 0.83966 0.07901 0.55662 0.0
H1663 H 0.82816 0.98512 0.48787 0.0
H1664 H 0.83611 0.02149 0.50124 0.0
H1665 H 0.84706 0.02783 0.57049 0.0
H1666 H 0.85632 0.12977 0.60826 0.0
H1667 H 0.83434 0.09875 0.59487 0.0
C1668 C 0.84034 0.04472 0.31592 0.0
C1669 C 0.84283 0.04119 0.29424 0.0
C1670 C 0.82073 0.05158 0.3243 0.0
C1671 C 0.76254 0.05145 0.31287 0.0
H1672 H 0.76215 0.1032 0.34721 0.0
C1673 C 0.69244 0.10726 0.31582 0.0
C1674 C 0.6886 0.11929 0.3341 0.0
C1675 C 0.70881 0.0928 0.31514 0.0
C1676 C 0.7619 0.08841 0.33809 0.0
H1677 H 0.82673 0.0418 0.26439 0.0
H1678 H 0.79263 0.05334 0.27898 0.0
H1679 H 0.79656 0.08793 0.33813 0.0
H1680 H 0.69836 0.12552 0.36609 0.0
H1681 H 0.72685 0.10009 0.36508 0.0
H1682 H 0.72796 0.05225 0.31225 0.0
C1683 C 0.80577 0.05095 0.28951 0.0
C1684 C 0.78165 0.07972 0.33284 0.0
C1685 C 0.8254 0.04459 0.28114 0.0
C1686 C 0.70056 0.11586 0.35203 0.0
C1687 C 0.71712 0.1016 0.35131 0.0
C1688 C 0.74279 0.06005 0.3182 0.0
C1689 C 0.80316 0.05443 0.31116 0.0
C1690 C 0.78221 0.06158 0.31959 0.0
C1691 C 0.72197 0.0905 0.33262 0.0
C1692 C 0.74229 0.07903 0.3303 0.0
H1693 H 0.85351 0.04215 0.32636 0.0
H1694 H 0.81915 0.05425 0.34104 0.0
H1695 H 0.7625 0.03722 0.30291 0.0
H1696 H 0.68375 0.1101 0.30166 0.0
H1697 H 0.71225 0.08473 0.30041 0.0
C1698 C 0.71411 0.09485 0.00667 0.0
C1699 C 0.72311 0.11067 0.02042 0.0
C1700 C 0.70951 0.07397 0.01346 0.0
C1701 C 0.70198 0.04119 0.06081 0.0
H1702 H 0.71768 -0.00501 0.02309 0.0
C1703 C 0.69021 0.95592 0.08773 0.0
C1704 C 0.67421 0.94516 0.0755 0.0
C1705 C 0.70202 0.97384 0.07984 0.0
C1706 C 0.71344 0.00778 0.03381 0.0
H1707 H 0.73317 0.11743 0.0523 0.0
H1708 H 0.72514 0.08097 0.0642 0.0
H1709 H 0.72373 0.0322 0.01219 0.0
H1710 H 0.6602 0.94232 0.04469 0.0
H1711 H 0.68135 0.97313 0.03066 0.0
H1712 H 0.69151 0.01681 0.08232 0.0
C1713 C 0.72166 0.08465 0.04817 0.0
C1714 C 0.71662 0.02903 0.02752 0.0
C1715 C 0.7263 0.10553 0.04136 0.0
C1716 C 0.67246 0.95047 0.05438 0.0
C1717 C 0.68454 0.96812 0.04638 0.0
C1718 C 0.69901 0.02001 0.06715 0.0
C1719 C 0.71378 0.06851 0.03414 0.0
C1720 C 0.71069 0.04596 0.04088 0.0
C1721 C 0.6982 0.98084 0.05955 0.0
C1722 C 0.70453 0.0031 0.05366 0.0
H1723 H 0.71138 0.09837 0.99043 0.0
H1724 H 0.70296 0.06203 0.0024 0.0
H1725 H 0.69691 0.0538 0.07133 0.0
H1726 H 0.69175 0.95216 0.1041 0.0
H1727 H 0.7127 0.98329 0.09018 0.0
C1728 C 0.71263 0.0844 0.71833 0.0
C1729 C 0.70761 0.09002 0.73917 0.0
C1730 C 0.73355 0.08859 0.71026 0.0
C1731 C 0.78955 0.0965 0.72867 0.0
H1732 H 0.8022 0.11541 0.67215 0.0
C1733 C 0.86549 0.14341 0.70064 0.0
C1734 C 0.87128 0.14214 0.67934 0.0
C1735 C 0.84912 0.12953 0.70876 0.0
C1736 C 0.79894 0.10951 0.68778 0.0
H1737 H 0.71983 0.10613 0.76732 0.0
H1738 H 0.75624 0.11393 0.75305 0.0
H1739 H 0.7647 0.11007 0.684 0.0
H1740 H 0.86724 0.1235 0.65058 0.0
H1741 H 0.83828 0.0993 0.66473 0.0
H1742 H 0.82393 0.09702 0.7327 0.0
C1743 C 0.74423 0.10566 0.74318 0.0
C1744 C 0.77744 0.10666 0.69463 0.0
C1745 C 0.72332 0.10144 0.75126 0.0
C1746 C 0.86288 0.12485 0.66703 0.0
C1747 C 0.84624 0.11111 0.67509 0.0
C1748 C 0.81109 0.09946 0.72185 0.0
C1749 C 0.74976 0.09852 0.72289 0.0
C1750 C 0.77253 0.10059 0.71528 0.0
C1751 C 0.83819 0.11442 0.69555 0.0
C1752 C 0.81598 0.10644 0.70147 0.0
H1753 H 0.70079 0.07564 0.70864 0.0
H1754 H 0.73728 0.08299 0.69453 0.0
H1755 H 0.78623 0.09128 0.74453 0.0
H1756 H 0.87202 0.1565 0.71046 0.0
H1757 H 0.84336 0.13239 0.72462 0.0
C1758 C 0.72959 0.96294 0.48513 0.0
C1759 C 0.74071 0.94969 0.47116 0.0
C1760 C 0.71876 0.97992 0.47755 0.0
C1761 C 0.70021 0.00667 0.43165 0.0
H1762 H 0.7321 0.05675 0.4551 0.0
C1763 C 0.68857 0.08667 0.3974 0.0
C1764 C 0.68129 0.10105 0.41266 0.0
C1765 C 0.7002 0.06949 0.40328 0.0
C1766 C 0.72309 0.04292 0.44845 0.0
H1767 H 0.74639 0.94135 0.43851 0.0
H1768 H 0.72716 0.97105 0.42522 0.0
H1769 H 0.73675 0.02151 0.46945 0.0
H1770 H 0.6825 0.11075 0.44535 0.0
H1771 H 0.70242 0.08049 0.45582 0.0
H1772 H 0.68613 0.02801 0.41097 0.0
C1773 C 0.72721 0.96856 0.44195 0.0
C1774 C 0.72553 0.02288 0.45678 0.0
C1775 C 0.73831 0.95172 0.44953 0.0
C1776 C 0.68795 0.09967 0.4334 0.0
C1777 C 0.69943 0.08241 0.43933 0.0
C1778 C 0.69758 0.02676 0.42345 0.0
C1779 C 0.71872 0.98353 0.45599 0.0
C1780 C 0.71409 0.00467 0.44844 0.0
C1781 C 0.7042 0.06639 0.42453 0.0
C1782 C 0.70905 0.04505 0.43175 0.0
H1783 H 0.73086 0.96141 0.50191 0.0
H1784 H 0.71196 0.99121 0.48856 0.0
H1785 H 0.69136 -0.00726 0.425 0.0
H1786 H 0.68313 0.08717 0.38143 0.0
H1787 H 0.70415 0.05755 0.39153 0.0
C1788 C 0.84013 0.97737 0.21587 0.0
C1789 C 0.84636 0.97221 0.23606 0.0
C1790 C 0.81967 0.9705 0.20872 0.0
C1791 C 0.76597 0.95916 0.23149 0.0
H1792 H 0.74998 0.94586 0.17412 0.0
C1793 C 0.68271 0.92698 0.20227 0.0
C1794 C 0.67744 0.93206 0.18174 0.0
C1795 C 0.70151 0.93618 0.21125 0.0
C1796 C 0.75425 0.95002 0.19013 0.0
H1797 H 0.83747 0.95361 0.26354 0.0
H1798 H 0.80175 0.94139 0.25089 0.0
H1799 H 0.78807 0.94772 0.18349 0.0
H1800 H 0.68522 0.95346 0.15602 0.0
H1801 H 0.71808 0.96959 0.17179 0.0
H1802 H 0.73201 0.961 0.23813 0.0
C1803 C 0.8124 0.95126 0.24088 0.0
C1804 C 0.77601 0.95083 0.19551 0.0
C1805 C 0.83287 0.95813 0.24804 0.0
C1806 C 0.68911 0.94903 0.17176 0.0
C1807 C 0.708 0.95812 0.18068 0.0
C1808 C 0.74416 0.95822 0.22611 0.0
C1809 C 0.80521 0.95836 0.22165 0.0
C1810 C 0.78209 0.95549 0.21622 0.0
C1811 C 0.71515 0.95051 0.19973 0.0
C1812 C 0.73815 0.95379 0.20535 0.0
H1813 H 0.85037 0.98799 0.20622 0.0
H1814 H 0.81461 0.97613 0.19376 0.0
H1815 H 0.77023 0.96321 0.24751 0.0
H1816 H 0.67367 0.91422 0.21046 0.0
H1817 H 0.70654 0.93022 0.22609 0.0
C1818 C 0.79354 0.12256 0.94321 0.0
C1819 C 0.79489 0.12726 0.96476 0.0
C1820 C 0.80206 0.10394 0.93489 0.0
C1821 C 0.8074 0.05019 0.95077 0.0
H1822 H 0.84814 0.04334 0.90466 0.0
C1823 C 0.85177 0.97361 0.93528 0.0
C1824 C 0.85784 0.96825 0.91468 0.0
C1825 C 0.84061 0.99197 0.93944 0.0
C1826 C 0.83633 0.04494 0.91724 0.0
H1827 H 0.80785 0.11733 -0.00585 0.0
H1828 H 0.82225 0.08472 0.97964 0.0
H1829 H 0.83819 0.07924 0.91537 0.0
H1830 H 0.85682 0.97752 0.8823 0.0
H1831 H 0.83641 0.00905 0.88936 0.0
H1832 H 0.80535 0.01605 0.95274 0.0
C1833 C 0.81456 0.09534 0.96927 0.0
C1834 C 0.83085 0.06549 0.92344 0.0
C1835 C 0.80641 0.11405 0.9775 0.0
C1836 C 0.85153 0.98082 0.89819 0.0
C1837 C 0.84032 -0.00083 0.90232 0.0
C1838 C 0.81265 0.02967 0.94444 0.0
C1839 C 0.81169 0.08976 0.9481 0.0
C1840 C 0.81672 0.06822 0.94054 0.0
C1841 C 0.83549 0.00538 0.92306 0.0
C1842 C 0.82753 0.02683 0.9279 0.0
H1843 H 0.78487 0.13258 0.93305 0.0
H1844 H 0.79985 0.09993 0.91846 0.0
H1845 H 0.79613 0.052 0.96379 0.0
H1846 H 0.85668 0.96422 0.94824 0.0
H1847 H 0.83731 -0.00363 0.95562 0.0
C1848 C 0.81879 0.70916 0.98535 0.0
C1849 C 0.80016 0.69898 0.97648 0.0
C1850 C 0.82685 0.72911 0.97818 0.0
C1851 C 0.8213 0.7682 0.93577 0.0
H1852 H 0.83358 0.81073 0.97977 0.0
C1853 C 0.81938 0.85477 0.91688 0.0
C1854 C 0.84 0.86546 0.91837 0.0
C1855 C 0.81448 0.83618 0.92804 0.0
C1856 C 0.83024 0.79896 0.9674 0.0
H1857 H 0.77634 0.70076 0.95217 0.0
H1858 H 0.79004 0.73548 0.93995 0.0
H1859 H 0.82812 0.77281 0.98859 0.0
H1860 H 0.86946 0.86801 0.93634 0.0
H1861 H 0.86113 0.835 0.9555 0.0
H1862 H 0.82266 0.79434 0.91472 0.0
C1863 C 0.79866 0.72817 0.95227 0.0
C1864 C 0.82735 0.77726 0.97234 0.0
C1865 C 0.79071 0.70826 0.95934 0.0
C1866 C 0.85396 0.85948 0.93406 0.0
C1867 C 0.8491 0.8407 0.94519 0.0
C1868 C 0.82388 0.78979 0.93092 0.0
C1869 C 0.81637 0.73917 0.96207 0.0
C1870 C 0.82242 0.7617 0.9566 0.0
C1871 C 0.83003 0.82813 0.94098 0.0
C1872 C 0.82791 0.80538 0.94672 0.0
H1873 H 0.82648 0.70225 -0.0015 0.0
H1874 H 0.84081 0.73698 0.98573 0.0
H1875 H 0.81804 0.75662 0.92321 0.0
H1876 H 0.80786 0.85944 0.9055 0.0
H1877 H 0.79934 0.82705 0.92509 0.0
C1878 C 0.3464 0.8541 0.03203 0.0
C1879 C 0.32832 0.86316 0.04145 0.0
C1880 C 0.35173 0.83351 0.0373 0.0
C1881 C 0.33985 0.79155 0.07667 0.0
H1882 H 0.35621 0.7524 0.03196 0.0
C1883 C 0.34529 0.71362 0.10217 0.0
C1884 C 0.36767 0.71364 0.10521 0.0
C1885 C 0.33759 0.72324 0.08455 0.0
C1886 C 0.35131 0.76318 0.04441 0.0
H1887 H 0.30249 0.85853 0.06468 0.0
H1888 H 0.31133 0.82278 0.07345 0.0
H1889 H 0.35108 0.7901 0.02419 0.0
H1890 H 0.39923 0.71846 0.09059 0.0
H1891 H 0.38603 0.737 0.06062 0.0
H1892 H 0.33994 0.76501 0.09687 0.0
C1893 C 0.32167 0.83141 0.06222 0.0
C1894 C 0.34875 0.78475 0.04012 0.0
C1895 C 0.31655 0.85197 0.05716 0.0
C1896 C 0.38196 0.71896 0.08862 0.0
C1897 C 0.37432 0.72932 0.07132 0.0
C1898 C 0.34197 0.77015 0.08081 0.0
C1899 C 0.33896 0.82171 0.05197 0.0
C1900 C 0.34293 0.79912 0.05627 0.0
C1901 C 0.35241 0.73399 0.07087 0.0
C1902 C 0.34757 0.75571 0.06476 0.0
H1903 H 0.35579 0.86247 0.01991 0.0
H1904 H 0.36547 0.82665 0.02952 0.0
H1905 H 0.33602 0.80222 0.0896 0.0
H1906 H 0.33396 0.709 0.11466 0.0
H1907 H 0.3205 0.72612 0.08407 0.0
C1908 C 0.94128 0.53825 0.79458 0.0
C1909 C 0.92974 0.55093 0.78136 0.0
C1910 C 0.96 0.54667 0.8042 0.0
C1911 C 0.00339 0.58823 0.79569 0.0
H1912 H 0.02237 0.56972 0.84953 0.0
C1913 C 0.07923 0.62176 0.84036 0.0
C1914 C 0.09053 0.60695 0.8514 0.0
C1915 C 0.06099 0.61496 0.82893 0.0
C1916 C 0.01735 0.57476 0.83433 0.0
H1917 H 0.92754 0.58281 0.76925 0.0
H1918 H 0.9602 0.5978 0.78655 0.0
H1919 H 0.98552 0.56006 0.83852 0.0
H1920 H 0.09283 0.57337 0.85801 0.0
H1921 H 0.06085 0.56139 0.83797 0.0
H1922 H 0.03528 0.60333 0.79185 0.0
C1923 C 0.95507 0.58115 0.78894 0.0
C1924 C -0.00376 0.56935 0.82808 0.0
C1925 C 0.93632 0.57265 0.77919 0.0
C1926 C 0.08438 0.58505 0.84953 0.0
C1927 C 0.06607 0.57824 0.83821 0.0
C1928 C 0.02449 0.59385 0.80207 0.0
C1929 C 0.9675 0.56802 0.80094 0.0
C1930 C 0.9891 0.57577 0.80857 0.0
C1931 C 0.05367 0.59328 0.82869 0.0
C1932 C 0.03171 0.58689 0.82131 0.0
H1933 H 0.9365 0.52146 0.79665 0.0
H1934 H 0.96924 0.53606 0.81322 0.0
H1935 H -0.00151 0.59313 0.78042 0.0
H1936 H 0.08306 0.63874 0.84236 0.0
H1937 H 0.05157 0.62688 0.82189 0.0
C1938 C 0.20472 0.21023 0.52949 0.0
C1939 C 0.22109 0.19987 0.53949 0.0
C1940 C 0.20017 0.23117 0.53542 0.0
C1941 C 0.21061 0.272 0.57772 0.0
H1942 H 0.19864 0.31263 0.53492 0.0
C1943 C 0.20916 0.35551 0.60339 0.0
C1944 C 0.18737 0.36049 0.60407 0.0
C1945 C 0.21623 0.34077 0.58856 0.0
C1946 C 0.20218 0.3014 0.54689 0.0
H1947 H 0.245 0.20292 0.56396 0.0
H1948 H 0.23765 0.23927 0.57382 0.0
H1949 H 0.20289 0.27489 0.52514 0.0
H1950 H 0.15696 0.35738 0.58803 0.0
H1951 H 0.16899 0.33083 0.56236 0.0
H1952 H 0.21027 0.29831 0.59938 0.0
C1953 C 0.22787 0.23131 0.56176 0.0
C1954 C 0.20432 0.2798 0.54142 0.0
C1955 C 0.23214 0.21039 0.55608 0.0
C1956 C 0.17375 0.35354 0.58769 0.0
C1957 C 0.18069 0.33841 0.57302 0.0
C1958 C 0.20893 0.29346 0.58305 0.0
C1959 C 0.21208 0.24213 0.55131 0.0
C1960 C 0.20866 0.26488 0.55683 0.0
C1961 C 0.20137 0.33055 0.57469 0.0
C1962 C 0.20484 0.30838 0.56773 0.0
H1963 H 0.19595 0.20245 0.51663 0.0
H1964 H 0.1876 0.23885 0.52735 0.0
H1965 H 0.21327 0.26096 0.59012 0.0
H1966 H 0.22 0.36097 0.61581 0.0
H1967 H 0.23239 0.33516 0.58985 0.0
C1968 C 0.07611 0.04921 0.78061 0.0
C1969 C 0.09207 0.03631 0.77218 0.0
C1970 C 0.05689 0.03988 0.78913 0.0
C1971 C 0.03201 0.98866 0.80913 0.0
H1972 H 0.97798 0.01397 0.79698 0.0
C1973 C 0.95024 0.94684 0.8318 0.0
C1974 C 0.93852 0.95948 0.84579 0.0
C1975 C 0.96721 0.95627 0.81972 0.0
C1976 C -0.00703 0.00674 0.80039 0.0
H1977 H 0.10077 0.00361 0.76665 0.0
H1978 H 0.06725 0.98733 0.78137 0.0
H1979 H 0.01226 0.03062 0.78378 0.0
H1980 H 0.93376 0.9918 0.85693 0.0
H1981 H 0.96283 0.00839 0.83519 0.0
H1982 H 0.01266 0.96473 0.82561 0.0
C1983 C 0.06956 0.00463 0.78156 0.0
C1984 C 0.0126 0.01635 0.79304 0.0
C1985 C 0.08875 0.01395 0.77303 0.0
C1986 C 0.94257 0.98181 0.84612 0.0
C1987 C 0.95918 0.99127 0.83373 0.0
C1988 C 0.01239 0.97894 0.81624 0.0
C1989 C 0.05325 0.01747 0.78942 0.0
C1990 C 0.03237 0.00745 0.7974 0.0
C1991 C 0.97229 0.97846 0.8212 0.0
C1992 C -0.00728 0.98791 0.81198 0.0
H1993 H 0.07824 0.06651 0.78017 0.0
H1994 H 0.04483 0.05024 0.79539 0.0
H1995 H 0.04693 0.98161 0.81312 0.0
H1996 H 0.94754 0.92956 0.83153 0.0
H1997 H 0.97706 0.94611 0.81005 0.0
C1998 C 0.70856 0.35123 0.48382 0.0
C1999 C 0.7276 0.36248 0.47683 0.0
C2000 C 0.70172 0.33184 0.47422 0.0
C2001 C 0.70933 0.29744 0.42766 0.0
H2002 H 0.69966 0.2506 0.46636 0.0
C2003 C 0.70682 0.21293 0.39615 0.0
C2004 C 0.68773 0.20071 0.40137 0.0
C2005 C 0.71314 0.23104 0.40801 0.0
C2006 C 0.70222 0.26355 0.45542 0.0
H2007 H 0.75341 0.3634 0.45334 0.0
H2008 H 0.74145 0.32959 0.43654 0.0
H2009 H 0.70462 0.28743 0.47989 0.0
H2010 H 0.66267 0.19552 0.42518 0.0
H2011 H 0.6731 0.22785 0.44548 0.0
H2012 H 0.707 0.27378 0.4032 0.0
C2013 C 0.73185 0.33565 0.44945 0.0
C2014 C 0.70488 0.28458 0.46311 0.0
C2015 C 0.73873 0.35497 0.45909 0.0
C2016 C 0.67685 0.20519 0.42029 0.0
C2017 C 0.68299 0.22357 0.43205 0.0
C2018 C 0.70668 0.2765 0.42 0.0
C2019 C 0.71375 0.32356 0.45742 0.0
C2020 C 0.70871 0.30165 0.44927 0.0
C2021 C 0.70037 0.23732 0.42517 0.0
C2022 C 0.70343 0.25933 0.4338 0.0
H2023 H 0.69959 0.3568 0.49738 0.0
H2024 H 0.68749 0.32296 0.48037 0.0
H2025 H 0.71197 0.31035 0.41667 0.0
H2026 H 0.71607 0.20941 0.38206 0.0
H2027 H 0.72715 0.24096 0.40288 0.0
C2028 C 0.94013 0.47164 0.71349 0.0
C2029 C 0.93688 0.49352 0.71158 0.0
C2030 C 0.96089 0.46422 0.71115 0.0
C2031 C 0.01821 0.48315 0.71527 0.0
H2032 H 0.02906 0.43339 0.6805 0.0
C2033 C 0.09279 0.47224 0.66567 0.0
C2034 C 0.09672 0.45158 0.65829 0.0
C2035 C 0.07752 0.47504 0.68167 0.0
C2036 C 0.02636 0.4469 0.69089 0.0
H2037 H 0.95246 0.52463 0.70451 0.0
H2038 H 0.98865 0.51161 0.70014 0.0
H2039 H -0.00788 0.44302 0.68678 0.0
H2040 H 0.08969 0.41781 0.66284 0.0
H2041 H 0.06394 0.42249 0.69156 0.0
H2042 H 0.05266 0.48762 0.71845 0.0
C2043 C 0.97525 0.50028 0.7039 0.0
C2044 C 0.00512 0.45252 0.69429 0.0
C2045 C 0.95449 0.50766 0.70606 0.0
C2046 C 0.08755 0.43381 0.66889 0.0
C2047 C 0.07243 0.43656 0.68503 0.0
C2048 C 0.03953 0.47751 0.7119 0.0
C2049 C 0.97872 0.47861 0.70702 0.0
C2050 C 0.00092 0.47113 0.70584 0.0
C2051 C 0.06587 0.45714 0.69019 0.0
C2052 C 0.04386 0.45979 0.69899 0.0
H2053 H 0.92681 0.46041 0.71775 0.0
H2054 H 0.96311 0.44739 0.71344 0.0
H2055 H 0.01531 0.49733 0.72468 0.0
H2056 H 0.09969 0.48617 0.65756 0.0
H2057 H 0.07294 0.49115 0.68532 0.0
C2058 C 0.5873 0.58233 0.18696 0.0
C2059 C 0.60038 0.59255 0.20232 0.0
C2060 C 0.56699 0.58957 0.18303 0.0
C2061 C 0.52449 0.61706 0.21149 0.0
H2062 H 0.49561 0.609 0.1584 0.0
C2063 C 0.45071 0.6458 0.1707 0.0
C2064 C 0.44355 0.63003 0.15619 0.0
C2065 C 0.46307 0.64017 0.18755 0.0
C2066 C 0.50342 0.61092 0.17344 0.0
H2067 H 0.60399 0.62002 0.2235 0.0
H2068 H 0.56856 0.63316 0.2161 0.0
H2069 H 0.5344 0.60604 0.1597 0.0
H2070 H 0.43799 0.59593 0.15053 0.0
H2071 H 0.45923 0.58608 0.18013 0.0
H2072 H 0.49309 0.62301 0.22481 0.0
C2073 C 0.57367 0.61904 0.20776 0.0
C2074 C 0.52566 0.60941 0.17413 0.0
C2075 C 0.59404 0.61169 0.21177 0.0
C2076 C 0.44401 0.60839 0.16133 0.0
C2077 C 0.45591 0.60276 0.17847 0.0
C2078 C 0.50206 0.61895 0.2107 0.0
C2079 C 0.55952 0.60734 0.19421 0.0
C2080 C 0.53642 0.61202 0.19319 0.0
C2081 C 0.46829 0.6188 0.18936 0.0
C2082 C 0.49139 0.61534 0.19172 0.0
H2083 H 0.5919 0.56764 0.17927 0.0
H2084 H 0.55655 0.58016 0.17246 0.0
H2085 H 0.53235 0.61897 0.22647 0.0
H2086 H 0.45018 0.66246 0.16691 0.0
H2087 H 0.47206 0.65277 0.19618 0.0
C2088 C 0.54308 0.76247 0.81827 0.0
C2089 C 0.55526 0.78096 0.82501 0.0
C2090 C 0.54747 0.75305 0.79879 0.0
C2091 C 0.56824 0.769 0.74767 0.0
H2092 H 0.57537 0.70871 0.73647 0.0
C2093 C 0.61861 0.73724 0.68115 0.0
C2094 C 0.61499 0.71597 0.67411 0.0
C2095 C 0.60432 0.74608 0.69545 0.0
C2096 C 0.57271 0.7255 0.73918 0.0
H2097 H 0.58275 0.80295 0.8177 0.0
H2098 H 0.5904 0.78644 0.78368 0.0
H2099 H 0.56683 0.72088 0.77198 0.0
H2100 H 0.59223 0.68819 0.67401 0.0
H2101 H 0.56707 0.70372 0.69924 0.0
H2102 H 0.57464 0.77379 0.71504 0.0
C2103 C 0.57722 0.77954 0.79327 0.0
C2104 C 0.5681 0.73245 0.75956 0.0
C2105 C 0.57297 0.78883 0.81279 0.0
C2106 C 0.59548 0.70457 0.67946 0.0
C2107 C 0.58117 0.7134 0.69396 0.0
C2108 C 0.57265 0.76204 0.72726 0.0
C2109 C 0.56396 0.76212 0.7858 0.0
C2110 C 0.56663 0.75434 0.76405 0.0
C2111 C 0.58622 0.73372 0.70305 0.0
C2112 C 0.57578 0.74033 0.72296 0.0
H2113 H 0.52942 0.756 0.8275 0.0
H2114 H 0.53719 0.73947 0.7934 0.0
H2115 H 0.56662 0.78593 0.75074 0.0
H2116 H 0.63337 0.74649 0.67687 0.0
H2117 H 0.60872 0.7618 0.70206 0.0
C2118 C 0.55834 0.32948 0.09109 0.0
C2119 C 0.55874 0.30781 0.09621 0.0
C2120 C 0.56825 0.33688 0.0726 0.0
C2121 C 0.56997 0.34038 0.02581 0.0
H2122 H 0.62182 0.32049 -0.00147 0.0
C2123 C 0.58183 0.35089 0.93862 0.0
C2124 C 0.60187 0.36085 0.93279 0.0
C2125 C 0.57923 0.34137 0.95812 0.0
C2126 C 0.60731 0.32615 0.00599 0.0
H2127 H 0.57152 0.27735 0.0872 0.0
H2128 H 0.58838 0.29014 0.05477 0.0
H2129 H 0.61486 0.31336 0.03569 0.0
H2130 H 0.63508 0.36812 0.9421 0.0
H2131 H 0.63059 0.35149 0.97612 0.0
H2132 H 0.56244 0.35338 -0.00355 0.0
C2133 C 0.58058 0.30148 0.06499 0.0
C2134 C 0.60333 0.32209 0.02721 0.0
C2135 C 0.57074 0.29411 0.08349 0.0
C2136 C 0.61964 0.3599 0.94604 0.0
C2137 C 0.61702 0.35052 0.96558 0.0
C2138 C 0.57391 0.3444 0.00473 0.0
C2139 C 0.57861 0.3227 0.05891 0.0
C2140 C 0.5845 0.32901 0.03725 0.0
C2141 C 0.59651 0.34213 0.97221 0.0
C2142 C 0.59243 0.33707 -0.0055 0.0
H2143 H 0.54946 0.34046 0.1008 0.0
H2144 H 0.5669 0.35346 0.0685 0.0
H2145 H 0.55514 0.34564 0.03297 0.0
H2146 H 0.56789 0.3517 0.92869 0.0
H2147 H 0.56334 0.3346 0.96271 0.0
C2148 C 0.01338 0.36592 0.30911 0.0
C2149 C 0.00668 0.34553 0.31649 0.0
C2150 C 0.00789 0.37193 0.289 0.0
C2151 C 0.96975 0.35595 0.24663 0.0
H2152 H 0.00928 0.39053 0.21133 0.0
C2153 C 0.94294 0.36442 0.16839 0.0
C2154 C 0.9342 0.38455 0.16871 0.0
C2155 C 0.96131 0.36124 0.17997 0.0
C2156 C -0.00168 0.38066 0.22104 0.0
H2157 H 0.98925 0.31537 0.30873 0.0
H2158 H 0.9804 0.32537 0.2737 0.0
H2159 H 0.01997 0.38185 0.24699 0.0
H2160 H 0.93941 0.41769 0.17782 0.0
H2161 H 0.97088 0.41209 0.19927 0.0
H2162 H 0.94825 0.35447 0.22097 0.0
C2163 C 0.98919 0.33714 0.28348 0.0
C2164 C 0.00423 0.37592 0.24146 0.0
C2165 C -0.00574 0.33136 0.30361 0.0
C2166 C 0.94599 0.40214 0.17764 0.0
C2167 C 0.96407 0.3989 0.18975 0.0
C2168 C 0.96413 0.36026 0.22633 0.0
C2169 C -0.0041 0.35749 0.27588 0.0
C2170 C 0.98997 0.36338 0.25443 0.0
C2171 C 0.97035 0.37799 0.19264 0.0
C2172 C 0.97834 0.37248 0.21329 0.0
H2173 H 0.0231 0.37709 0.31876 0.0
H2174 H 0.01303 0.38782 0.28377 0.0
H2175 H 0.95801 0.34695 0.2563 0.0
H2176 H 0.93416 0.35067 0.16132 0.0
H2177 H 0.96613 0.34502 0.18178 0.0
C2178 C 0.95354 0.71095 0.59551 0.0
C2179 C 0.95353 0.73118 0.60536 0.0
C2180 C 0.94334 0.70738 0.57637 0.0
C2181 C 0.93711 0.73926 0.53108 0.0
H2182 H 0.91766 0.68433 0.5068 0.0
C2183 C 0.92898 0.70827 0.44246 0.0
C2184 C 0.93988 0.68927 0.43994 0.0
C2185 C 0.92806 0.71853 0.46211 0.0
C2186 C 0.92282 0.69986 0.51342 0.0
H2187 H 0.94009 0.76241 0.60479 0.0
H2188 H 0.92233 0.75613 0.57126 0.0
H2189 H 0.91432 0.69025 0.54458 0.0
H2190 H 0.96254 0.6691 0.45446 0.0
H2191 H 0.96121 0.68718 0.48838 0.0
H2192 H 0.94661 0.74833 0.4998 0.0
C2193 C 0.93059 0.74323 0.57808 0.0
C2194 C 0.92087 0.70324 0.53495 0.0
C2195 C 0.9407 0.74677 0.59729 0.0
C2196 C 0.95324 0.68318 0.45608 0.0
C2197 C 0.95247 0.69347 0.47554 0.0
C2198 C 0.93897 0.73587 0.50944 0.0
C2199 C 0.93302 0.724 0.56685 0.0
C2200 C 0.92897 0.7226 0.54411 0.0
C2201 C 0.93862 0.71012 0.47903 0.0
C2202 C 0.93274 0.7158 0.50071 0.0
H2203 H 0.96309 0.69856 0.60153 0.0
H2204 H 0.94548 0.69233 0.56812 0.0
H2205 H 0.94368 0.7543 0.53771 0.0
H2206 H 0.91965 0.71407 0.42988 0.0
H2207 H 0.91771 0.73176 0.46446 0.0
C2208 C 0.53107 0.33909 0.674 0.0
C2209 C 0.54376 0.32384 0.66404 0.0
C2210 C 0.53541 0.34595 0.69454 0.0
C2211 C 0.55335 0.32316 0.7412 0.0
H2212 H 0.56666 0.38015 0.76421 0.0
C2213 C 0.60127 0.33892 0.81475 0.0
C2214 C 0.59934 0.35792 0.82651 0.0
C2215 C 0.58796 0.33424 0.79776 0.0
C2216 C 0.56231 0.3642 0.75816 0.0
H2217 H 0.57213 0.30541 0.6669 0.0
H2218 H 0.5795 0.31724 0.70284 0.0
H2219 H 0.55867 0.37545 0.72694 0.0
H2220 H 0.57994 0.3853 0.83169 0.0
H2221 H 0.55669 0.37726 0.8016 0.0
H2222 H 0.55713 0.31171 0.77211 0.0
C2223 C 0.56613 0.32369 0.6948 0.0
C2224 C 0.55801 0.36155 0.73681 0.0
C2225 C 0.56198 0.31704 0.67423 0.0
C2226 C 0.5821 0.37082 0.82256 0.0
C2227 C 0.56886 0.36625 0.8053 0.0
C2228 C 0.55732 0.3258 0.76251 0.0
C2229 C 0.55234 0.33747 0.70535 0.0
C2230 C 0.55435 0.34093 0.72811 0.0
C2231 C 0.57243 0.34847 0.79213 0.0
C2232 C 0.56275 0.34625 0.77107 0.0
H2233 H 0.51698 0.34468 0.66644 0.0
H2234 H 0.52469 0.35671 0.70243 0.0
H2235 H 0.55007 0.30713 0.73481 0.0
H2236 H 0.61417 0.32846 0.81769 0.0
H2237 H 0.59123 0.3204 0.788 0.0
C2238 C -0.00548 0.30483 0.9507 0.0
C2239 C 0.00651 0.31854 0.93705 0.0
C2240 C 0.98586 0.31285 0.96941 0.0
C2241 C 0.97437 0.36335 -0.00223 0.0
H2242 H 0.98548 0.33138 0.04753 0.0
C2243 C 0.97434 0.40496 0.07587 0.0
C2244 C 0.95581 0.39833 0.08765 0.0
C2245 C 0.9822 0.39166 0.06015 0.0
C2246 C 0.98226 0.34033 0.03371 0.0
H2247 H 0.0176 0.35151 0.93147 0.0
H2248 H 0.00274 0.36547 0.96403 0.0
H2249 H -0.00735 0.31569 0.01274 0.0
H2250 H 0.93303 0.37149 0.0945 0.0
H2251 H 0.94697 0.34813 0.06683 0.0
H2252 H 0.96478 0.38825 0.0187 0.0
C2253 C -0.00016 0.34857 0.96037 0.0
C2254 C 0.98612 0.33136 0.01384 0.0
C2255 C 0.00844 0.34057 0.9417 0.0
C2256 C 0.94722 0.37707 0.08551 0.0
C2257 C 0.95516 0.3637 0.06971 0.0
C2258 C 0.97081 0.37236 0.01751 0.0
C2259 C 0.98902 0.33471 0.97472 0.0
C2260 C 0.98255 0.34297 -0.00433 0.0
C2261 C 0.97174 0.37152 0.05612 0.0
C2262 C 0.97509 0.36109 0.03558 0.0
H2263 H -0.00731 0.28776 0.94744 0.0
H2264 H 0.97723 0.30186 0.97997 0.0
H2265 H 0.97101 0.37251 0.98412 0.0
H2266 H 0.98156 0.42112 0.07751 0.0
H2267 H -0.00476 0.39782 0.04996 0.0
C2268 C 0.96061 0.7121 0.16712 0.0
C2269 C 0.95224 0.73193 0.16301 0.0
C2270 C 0.95773 0.70316 0.18686 0.0
C2271 C 0.9311 0.71042 0.23906 0.0
H2272 H 0.98699 0.69588 0.25976 0.0
C2273 C 0.94812 0.71714 0.32444 0.0
C2274 C 0.94182 0.69677 0.33209 0.0
C2275 C 0.95526 0.71928 0.3037 0.0
C2276 C 0.97139 0.69992 0.25406 0.0
H2277 H 0.9319 0.75651 0.17513 0.0
H2278 H 0.92715 0.74121 0.20959 0.0
H2279 H 0.98243 0.70087 0.22218 0.0
H2280 H 0.94012 0.66275 0.32478 0.0
H2281 H 0.95377 0.66649 0.28915 0.0
H2282 H 0.92044 0.71034 0.27111 0.0
C2283 C 0.93595 0.73245 0.19775 0.0
C2284 C 0.96859 0.70246 0.23261 0.0
C2285 C 0.93868 0.74129 0.17796 0.0
C2286 C 0.94578 0.67853 0.31974 0.0
C2287 C 0.95326 0.68068 0.29914 0.0
C2288 C 0.934 0.70816 0.26043 0.0
C2289 C 0.94655 0.71399 0.20276 0.0
C2290 C 0.94849 0.70808 0.22494 0.0
C2291 C 0.95643 0.70108 0.29065 0.0
C2292 C 0.95421 0.70329 0.26803 0.0
H2293 H 0.97082 0.70437 0.15567 0.0
H2294 H 0.96548 0.68853 0.19008 0.0
H2295 H 0.91537 0.71441 0.23366 0.0
H2296 H 0.94507 0.73143 0.33361 0.0
H2297 H 0.95755 0.73517 0.29725 0.0
C2298 C 0.59635 0.75541 0.44201 0.0
C2299 C 0.59016 0.77653 0.44105 0.0
C2300 C 0.60385 0.74769 0.46069 0.0
C2301 C 0.62059 0.76119 0.51505 0.0
H2302 H 0.58649 0.70854 0.52687 0.0
C2303 C 0.59177 0.69968 0.58508 0.0
C2304 C 0.61067 0.68901 0.58821 0.0
C2305 C 0.59188 0.71622 0.57075 0.0
C2306 C 0.59594 0.72335 0.52384 0.0
H2307 H 0.58853 0.8067 0.45823 0.0
H2308 H 0.601 0.79296 0.49109 0.0
H2309 H 0.58446 0.72442 0.4927 0.0
H2310 H 0.64454 0.68741 0.57955 0.0
H2311 H 0.64475 0.71634 0.5545 0.0
H2312 H 0.63227 0.75953 0.54652 0.0
C2313 C 0.60041 0.78248 0.47737 0.0
C2314 C 0.59509 0.73226 0.50418 0.0
C2315 C 0.59315 0.79029 0.45858 0.0
C2316 C 0.63005 0.6961 0.5781 0.0
C2317 C 0.63014 0.71255 0.56367 0.0
C2318 C 0.62173 0.75198 0.5348 0.0
C2319 C 0.60493 0.76086 0.4788 0.0
C2320 C 0.60736 0.75124 0.49952 0.0
C2321 C 0.61084 0.72199 0.5592 0.0
C2322 C 0.60918 0.73311 0.53929 0.0
H2323 H 0.59453 0.7446 0.4286 0.0
H2324 H 0.60767 0.73104 0.4613 0.0
H2325 H 0.63015 0.77589 0.51185 0.0
H2326 H 0.57657 0.6941 0.59243 0.0
H2327 H 0.57675 0.72317 0.56727 0.0
C2328 C 0.81875 0.52939 0.70143 0.0
C2329 C 0.83693 0.54328 0.70587 0.0
C2330 C 0.79969 0.5375 0.69434 0.0
C2331 C 0.77808 0.58352 0.66941 0.0
H2332 H 0.72662 0.5728 0.7043 0.0
C2333 C 0.70406 0.62985 0.65569 0.0
C2334 C 0.69751 0.64116 0.67355 0.0
C2335 C 0.7168 0.61237 0.65749 0.0
C2336 C 0.74079 0.57572 0.6943 0.0
H2337 H 0.84984 0.57626 0.70548 0.0
H2338 H 0.81674 0.59036 0.69256 0.0
H2339 H 0.75895 0.55298 0.71013 0.0
H2340 H 0.6981 0.64288 0.70739 0.0
H2341 H 0.72026 0.61201 0.71069 0.0
H2342 H 0.76056 0.60684 0.65416 0.0
C2343 C 0.81719 0.57325 0.6947 0.0
C2344 C 0.75919 0.56432 0.69753 0.0
C2345 C 0.8361 0.56522 0.70212 0.0
C2346 C 0.7027 0.63404 0.69341 0.0
C2347 C 0.7153 0.61638 0.69526 0.0
C2348 C 0.7597 0.59469 0.66604 0.0
C2349 C 0.7987 0.55954 0.6912 0.0
C2350 C 0.77818 0.56866 0.68552 0.0
C2351 C 0.72326 0.60599 0.67723 0.0
C2352 C 0.74108 0.59136 0.67881 0.0
H2353 H 0.81893 0.5124 0.70431 0.0
H2354 H 0.78564 0.52664 0.69165 0.0
H2355 H 0.79251 0.58704 0.65991 0.0
H2356 H 0.70103 0.63577 0.64028 0.0
H2357 H 0.72283 0.60472 0.64338 0.0
C2358 C 0.74178 0.59488 0.95854 0.0
C2359 C 0.73075 0.60542 0.97473 0.0
C2360 C 0.73482 0.57417 0.95225 0.0
C2361 C 0.68969 0.53281 0.95741 0.0
H2362 H 0.73565 0.49329 0.95187 0.0
C2363 C 0.66609 0.44621 0.95306 0.0
C2364 C 0.66985 0.43915 0.93238 0.0
C2365 C 0.67855 0.46352 0.96132 0.0
C2366 C 0.72277 0.50422 0.95354 0.0
H2367 H 0.70275 0.60353 -0.00428 0.0
H2368 H 0.69075 0.56737 0.98499 0.0
H2369 H 0.74485 0.5317 0.95696 0.0
H2370 H 0.69193 0.44168 0.90563 0.0
H2371 H 0.71367 0.47214 0.92013 0.0
H2372 H 0.66764 0.50539 0.95432 0.0
C2373 C 0.70472 0.57499 0.97706 0.0
C2374 C 0.72794 0.52615 0.95614 0.0
C2375 C 0.7116 0.59572 0.98325 0.0
C2376 C 0.6885 0.44708 0.9215 0.0
C2377 C 0.70099 0.46447 0.9298 0.0
C2378 C 0.68456 0.51096 0.95515 0.0
C2379 C 0.71677 0.5637 0.96211 0.0
C2380 C 0.71141 0.54065 0.9581 0.0
C2381 C 0.69486 0.47382 0.94899 0.0
C2382 C 0.70103 0.49651 0.95329 0.0
H2383 H 0.75649 0.60214 0.95156 0.0
H2384 H 0.74405 0.56605 0.94026 0.0
H2385 H 0.67662 0.54357 0.95849 0.0
H2386 H 0.65213 0.43993 0.96199 0.0
H2387 H 0.67388 0.47032 0.97636 0.0
C2388 C 0.7023 0.54517 0.185 0.0
C2389 C 0.68581 0.53121 0.19338 0.0
C2390 C 0.72115 0.53712 0.17638 0.0
C2391 C 0.74645 0.48688 0.1598 0.0
H2392 H 0.79813 0.51423 0.18472 0.0
C2393 C 0.82032 0.4405 0.17562 0.0
C2394 C 0.84042 0.44875 0.16772 0.0
C2395 C 0.80244 0.453 0.1761 0.0
C2396 C 0.7839 0.50664 0.17738 0.0
H2397 H 0.67526 0.4979 0.19771 0.0
H2398 H 0.70811 0.48384 0.18284 0.0
H2399 H 0.76385 0.53165 0.18757 0.0
H2400 H 0.85809 0.47721 0.1561 0.0
H2401 H 0.8266 0.49933 0.15727 0.0
H2402 H 0.76634 0.46137 0.15059 0.0
C2403 C 0.70656 0.50099 0.18283 0.0
C2404 C 0.76429 0.51662 0.17889 0.0
C2405 C 0.68774 0.50903 0.19147 0.0
C2406 C 0.84267 0.47034 0.16188 0.0
C2407 C 0.82474 0.48298 0.16259 0.0
C2408 C 0.76599 0.47687 0.15843 0.0
C2409 C 0.72381 0.51497 0.17593 0.0
C2410 C 0.7452 0.50648 0.17073 0.0
C2411 C 0.80432 0.4741 0.16898 0.0
C2412 C 0.78468 0.48632 0.16783 0.0
H2413 H 0.70115 0.56236 0.18607 0.0
H2414 H 0.734 0.54826 0.17085 0.0
H2415 H 0.73214 0.47888 0.15298 0.0
H2416 H 0.81802 0.42397 0.18034 0.0
H2417 H 0.78695 0.44598 0.18159 0.0
C2418 C 0.79686 0.47789 0.49942 0.0
C2419 C 0.78414 0.46278 0.48775 0.0
C2420 C 0.80208 0.49825 0.49155 0.0
C2421 C 0.80639 0.52887 0.44304 0.0
H2422 H 0.80461 0.57758 0.4815 0.0
C2423 C 0.83898 0.61071 0.41637 0.0
C2424 C 0.85639 0.61769 0.42907 0.0
C2425 C 0.82331 0.59549 0.42381 0.0
C2426 C 0.80494 0.56416 0.47054 0.0
H2427 H 0.76761 0.45674 0.45837 0.0
H2428 H 0.77681 0.49231 0.44458 0.0
H2429 H 0.79264 0.54187 0.49346 0.0
H2430 H 0.86985 0.61668 0.46003 0.0
H2431 H 0.84238 0.59064 0.4732 0.0
H2432 H 0.81948 0.55097 0.42037 0.0
C2433 C 0.78269 0.48845 0.45982 0.0
C2434 C 0.79831 0.54371 0.47741 0.0
C2435 C 0.77743 0.46811 0.46773 0.0
C2436 C 0.85652 0.61141 0.45 0.0
C2437 C 0.84074 0.59654 0.45753 0.0
C2438 C 0.813 0.54932 0.43616 0.0
C2439 C 0.7947 0.50387 0.47184 0.0
C2440 C 0.79959 0.52578 0.46391 0.0
C2441 C 0.8248 0.58742 0.4441 0.0
C2442 C 0.81297 0.56707 0.45002 0.0
H2443 H 0.80234 0.4742 0.51487 0.0
H2444 H 0.81181 0.50963 0.50096 0.0
H2445 H 0.80768 0.51537 0.4323 0.0
H2446 H 0.83866 0.61532 0.40013 0.0
H2447 H 0.81102 0.58889 0.41324 0.0
C2448 C 0.82843 0.47441 0.77669 0.0
C2449 C 0.83974 0.49359 0.78265 0.0
C2450 C 0.80804 0.46912 0.78539 0.0
C2451 C 0.76233 0.49721 0.8072 0.0
H2452 H 0.73693 0.43939 0.81267 0.0
C2453 C 0.68089 0.45837 0.84149 0.0
C2454 C 0.67306 0.44135 0.82852 0.0
C2455 C 0.69815 0.47198 0.83448 0.0
C2456 C 0.74388 0.45562 0.81101 0.0
H2457 H 0.84024 0.52088 0.80417 0.0
H2458 H 0.80479 0.51127 0.81987 0.0
H2459 H 0.77599 0.44511 0.80807 0.0
H2460 H 0.67326 0.42792 0.79702 0.0
H2461 H 0.70318 0.45185 0.78475 0.0
H2462 H 0.72984 0.5075 0.81069 0.0
C2463 C 0.81124 0.50079 0.80791 0.0
C2464 C 0.76618 0.45889 0.80847 0.0
C2465 C 0.83156 0.50617 0.79907 0.0
C2466 C 0.67942 0.44076 0.80734 0.0
C2467 C 0.69644 0.45448 0.8003 0.0
C2468 C 0.7399 0.49391 0.81005 0.0
C2469 C 0.79883 0.48284 0.80035 0.0
C2470 C 0.77561 0.47966 0.80608 0.0
C2471 C 0.70723 0.46859 0.81451 0.0
C2472 C 0.7306 0.47304 0.81144 0.0
H2473 H 0.83447 0.46439 0.76412 0.0
H2474 H 0.79889 0.45516 0.7792 0.0
H2475 H 0.76913 0.51341 0.80513 0.0
H2476 H 0.67605 0.45917 0.85786 0.0
H2477 H 0.70628 0.48289 0.8456 0.0
C2478 C 0.77488 0.59426 0.05924 0.0
C2479 C 0.78767 0.60464 0.04361 0.0
C2480 C 0.78098 0.575 0.06745 0.0
C2481 C 0.82816 0.54279 0.07293 0.0
H2482 H 0.78695 0.49335 0.07464 0.0
C2483 C 0.85881 0.46392 0.0671 0.0
C2484 C 0.86592 0.46097 0.08749 0.0
C2485 C 0.84039 0.47515 0.06392 0.0
C2486 C 0.79842 0.50714 0.07446 0.0
H2487 H 0.81703 0.6033 0.02464 0.0
H2488 H 0.82766 0.56987 0.03893 0.0
H2489 H 0.77455 0.52875 0.06578 0.0
H2490 H 0.85792 0.46419 0.12032 0.0
H2491 H 0.82615 0.48469 0.11487 0.0
H2492 H 0.85209 0.52129 0.08095 0.0
C2493 C 0.81303 0.57663 0.04499 0.0
C2494 C 0.79142 0.52732 0.06948 0.0
C2495 C 0.80694 0.59578 0.03678 0.0
C2496 C 0.85256 0.46622 0.10455 0.0
C2497 C 0.83436 0.47789 0.10141 0.0
C2498 C 0.83505 0.52285 0.07799 0.0
C2499 C 0.80001 0.56592 0.06024 0.0
C2500 C 0.80641 0.54518 0.06814 0.0
C2501 C 0.82936 0.48393 0.08113 0.0
C2502 C 0.82038 0.50486 0.07835 0.0
H2503 H 0.75991 0.60074 0.06475 0.0
H2504 H 0.77079 0.56717 0.07934 0.0
H2505 H 0.84 0.55628 0.0723 0.0
H2506 H 0.86887 0.45986 0.05371 0.0
H2507 H 0.83681 0.47974 0.04815 0.0
C2508 C 0.69549 0.59198 0.28242 0.0
C2509 C 0.6897 0.57072 0.27636 0.0
C2510 C 0.7156 0.59716 0.29144 0.0
C2511 C 0.76997 0.58249 0.28692 0.0
H2512 H 0.78082 0.613 0.3395 0.0
C2513 C 0.84553 0.63685 0.31108 0.0
C2514 C 0.8541 0.63253 0.33067 0.0
C2515 C 0.82727 0.62493 0.3038 0.0
C2516 C 0.77795 0.60428 0.32488 0.0
H2517 H 0.69974 0.53807 0.27591 0.0
H2518 H 0.73512 0.54732 0.29117 0.0
H2519 H 0.74349 0.60174 0.33001 0.0
H2520 H 0.85155 0.61123 0.35712 0.0
H2521 H 0.81928 0.59078 0.34451 0.0
H2522 H 0.80434 0.58611 0.28127 0.0
C2523 C 0.72403 0.55984 0.28906 0.0
C2524 C 0.75671 0.59799 0.31946 0.0
C2525 C 0.7038 0.55459 0.28045 0.0
C2526 C 0.84535 0.61487 0.34193 0.0
C2527 C 0.82684 0.60326 0.33484 0.0
C2528 C 0.79118 0.58922 0.29212 0.0
C2529 C 0.73024 0.5812 0.29413 0.0
C2530 C 0.75261 0.58706 0.30045 0.0
C2531 C 0.81723 0.6088 0.31616 0.0
C2532 C 0.79526 0.60012 0.31115 0.0
H2533 H 0.68487 0.60468 0.27945 0.0
H2534 H 0.72018 0.61376 0.29526 0.0
H2535 H 0.76703 0.57426 0.27206 0.0
H2536 H 0.852 0.65036 0.30209 0.0
H2537 H 0.82002 0.62944 0.28935 0.0
C2538 C 0.72969 0.45354 0.57289 0.0
C2539 C 0.72085 0.44475 0.55432 0.0
C2540 C 0.72395 0.47364 0.58011 0.0
C2541 C 0.68806 0.51786 0.5694 0.0
H2542 H 0.73923 0.55371 0.58424 0.0
C2543 C 0.68379 0.60678 0.57103 0.0
C2544 C 0.68155 0.61234 0.59232 0.0
C2545 C 0.69432 0.58846 0.56512 0.0
C2546 C 0.72499 0.5438 0.57982 0.0
H2547 H 0.69683 0.44831 0.53052 0.0
H2548 H 0.68732 0.48337 0.5426 0.0
H2549 H 0.74175 0.51498 0.58003 0.0
H2550 H 0.68899 0.6038 0.62376 0.0
H2551 H 0.70879 0.57288 0.6135 0.0
H2552 H 0.67155 0.54684 0.56862 0.0
C2553 C 0.69864 0.47507 0.55174 0.0
C2554 C 0.72622 0.52165 0.57786 0.0
C2555 C 0.70414 0.4549 0.54472 0.0
C2556 C 0.69188 0.60077 0.60732 0.0
C2557 C 0.70284 0.58279 0.60141 0.0
C2558 C 0.687 0.53996 0.57087 0.0
C2559 C 0.70947 0.4852 0.56873 0.0
C2560 C 0.70772 0.50843 0.57267 0.0
C2561 C 0.70278 0.57577 0.58048 0.0
C2562 C 0.70542 0.55303 0.57607 0.0
H2563 H 0.74234 0.44579 0.58081 0.0
H2564 H 0.73193 0.48071 0.59376 0.0
H2565 H 0.67343 0.50818 0.56577 0.0
H2566 H 0.67566 0.61539 0.55924 0.0
H2567 H 0.694 0.58308 0.5489 0.0
C2568 C 0.74723 0.8673 0.54418 0.0
C2569 C 0.74805 0.87003 0.52247 0.0
C2570 C 0.73526 0.84984 0.5526 0.0
C2571 C 0.7291 0.80298 0.5607 0.0
H2572 H 0.67385 0.77646 0.54306 0.0
C2573 C 0.70545 0.71939 0.58636 0.0
C2574 C 0.6854 0.71789 0.59687 0.0
C2575 C 0.71032 0.73625 0.57283 0.0
C2576 C 0.68933 0.78372 0.548 0.0
H2577 H 0.73559 0.85797 0.49264 0.0
H2578 H 0.71519 0.82718 0.50733 0.0
H2579 H 0.68556 0.81237 0.53089 0.0
H2580 H 0.65436 0.73172 0.60127 0.0
H2581 H 0.66298 0.76152 0.57793 0.0
H2582 H 0.73292 0.77484 0.57804 0.0
C2583 C 0.72358 0.83853 0.51786 0.0
C2584 C 0.69597 0.80418 0.54112 0.0
C2585 C 0.73546 0.85603 0.50946 0.0
C2586 C 0.66979 0.73253 0.59288 0.0
C2587 C 0.6747 0.7495 0.57952 0.0
C2588 C 0.72255 0.78265 0.56747 0.0
C2589 C 0.72411 0.83484 0.53939 0.0
C2590 C 0.7159 0.81398 0.54754 0.0
C2591 C 0.69539 0.75205 0.5702 0.0
C2592 C 0.70267 0.77278 0.56117 0.0
H2593 H 0.75649 0.87813 0.55456 0.0
H2594 H 0.73553 0.8475 0.56935 0.0
H2595 H 0.74475 0.80994 0.56554 0.0
H2596 H 0.71765 0.70819 0.58942 0.0
H2597 H 0.72629 0.73776 0.56554 0.0
C2598 C 0.21184 0.71278 0.44946 0.0
C2599 C 0.20579 0.70324 0.46852 0.0
C2600 C 0.20401 0.73238 0.44444 0.0
C2601 C 0.18579 0.7802 0.47162 0.0
H2602 H 0.17861 0.79869 0.41482 0.0
C2603 C 0.15577 0.84992 0.4214 0.0
C2604 C 0.17273 0.85569 0.40745 0.0
C2605 C 0.15975 0.83786 0.43886 0.0
C2606 C 0.18065 0.79365 0.43076 0.0
H2607 H 0.18479 0.70506 0.49599 0.0
H2608 H 0.17051 0.73913 0.48682 0.0
H2609 H 0.18103 0.76081 0.42138 0.0
H2610 H 0.20754 0.8575 0.40265 0.0
H2611 H 0.21443 0.836 0.43295 0.0
H2612 H 0.18507 0.81353 0.48072 0.0
C2613 C 0.18193 0.73187 0.47621 0.0
C2614 C 0.182 0.77204 0.43451 0.0
C2615 C 0.18991 0.7123 0.48131 0.0
C2616 C 0.19416 0.8529 0.41314 0.0
C2617 C 0.19814 0.84089 0.43066 0.0
C2618 C 0.18422 0.80201 0.46783 0.0
C2619 C 0.18978 0.74258 0.45827 0.0
C2620 C 0.18507 0.7651 0.45489 0.0
C2621 C 0.18063 0.83123 0.44199 0.0
C2622 C 0.18212 0.80875 0.44729 0.0
H2623 H 0.22405 0.70613 0.43931 0.0
H2624 H 0.21044 0.74024 0.43051 0.0
H2625 H 0.18838 0.77529 0.48749 0.0
H2626 H 0.13922 0.85148 0.41703 0.0
H2627 H 0.14607 0.83037 0.44737 0.0
C2628 C 0.5929 0.00656 0.75407 0.0
C2629 C 0.6095 0.01636 0.74162 0.0
C2630 C 0.57427 -0.00287 0.74484 0.0
C2631 C 0.53909 0.97197 0.71957 0.0
H2632 H 0.51518 0.00932 0.67934 0.0
C2633 C 0.46572 0.94822 0.6674 0.0
C2634 C 0.45088 0.96382 0.66397 0.0
C2635 C 0.4843 0.95319 0.67898 0.0
C2636 C 0.52154 -0.00117 0.6907 0.0
H2637 H 0.62048 0.02251 0.70976 0.0
H2638 H 0.58796 0.00594 0.69363 0.0
H2639 H 0.55049 0.01895 0.69426 0.0
H2640 H 0.44366 -0.00315 0.66974 0.0
H2641 H 0.47628 0.00569 0.69025 0.0
H2642 H 0.50997 0.95188 0.71597 0.0
C2643 C 0.58919 0.00589 0.71052 0.0
C2644 C 0.5419 0.00416 0.69898 0.0
C2645 C 0.60782 0.01529 0.71974 0.0
C2646 C 0.45473 0.98448 0.67254 0.0
C2647 C 0.4734 0.98952 0.6841 0.0
C2648 C 0.51874 0.96652 0.71112 0.0
C2649 C 0.57194 -0.0026 0.72302 0.0
C2650 C 0.55087 0.99083 0.71352 0.0
C2651 C 0.48859 0.97403 0.68703 0.0
C2652 C 0.50973 0.97999 0.6967 0.0
H2653 H 0.59381 0.00711 0.77099 0.0
H2654 H 0.56118 0.99075 0.75484 0.0
H2655 H 0.54567 0.96141 0.73073 0.0
H2656 H 0.46374 0.9326 0.65986 0.0
H2657 H 0.49592 0.94108 0.68056 0.0
C2658 C 0.3361 0.35874 0.00222 0.0
C2659 C 0.32847 0.37082 0.98586 0.0
C2660 C 0.34461 0.3389 -0.00195 0.0
C2661 C 0.36804 0.3044 0.95821 0.0
H2662 H 0.33171 0.25772 0.98174 0.0
C2663 C 0.37629 0.21995 0.92747 0.0
C2664 C 0.35837 0.21649 0.91447 0.0
C2665 C 0.37565 0.23483 0.94409 0.0
C2666 C 0.34237 0.27056 0.97556 0.0
H2667 H 0.32512 0.37229 0.95222 0.0
H2668 H 0.34062 0.33776 0.94489 0.0
H2669 H 0.3271 0.29465 -0.0061 0.0
H2670 H 0.32448 0.22234 0.91078 0.0
H2671 H 0.32295 0.24735 0.94044 0.0
H2672 H 0.38269 0.28047 0.93925 0.0
C2673 C 0.33977 0.34364 0.96094 0.0
C2674 C 0.33972 0.29163 0.98242 0.0
C2675 C 0.33087 0.36334 0.96512 0.0
C2676 C 0.33866 0.22506 0.92043 0.0
C2677 C 0.33777 0.23933 0.93743 0.0
C2678 C 0.37106 0.28332 0.95174 0.0
C2679 C 0.34608 0.33099 0.97743 0.0
C2680 C 0.35194 0.30875 0.97317 0.0
C2681 C 0.35671 0.24556 0.94832 0.0
C2682 C 0.35767 0.26632 0.95976 0.0
H2683 H 0.33447 0.36408 0.01837 0.0
H2684 H 0.34943 0.32942 0.01098 0.0
H2685 H 0.37762 0.31736 0.95089 0.0
H2686 H 0.39138 0.21305 0.92333 0.0
H2687 H 0.39036 0.23929 0.95246 0.0
C2688 C 0.46332 0.56623 0.75834 0.0
C2689 C 0.45063 0.55267 0.745 0.0
C2690 C 0.48284 0.57603 0.75109 0.0
C2691 C 0.51474 0.58815 0.70278 0.0
H2692 H 0.56464 0.58327 0.73811 0.0
C2693 C 0.59699 0.59037 0.66676 0.0
C2694 C 0.60679 0.61104 0.66956 0.0
C2695 C 0.58124 0.5826 0.68095 0.0
C2696 C 0.55076 0.58481 0.72826 0.0
H2697 H 0.4477 0.53954 0.71345 0.0
H2698 H 0.48185 0.55632 0.70086 0.0
H2699 H 0.52807 0.57351 0.75187 0.0
H2700 H 0.61039 0.6385 0.69075 0.0
H2701 H 0.58246 0.62482 0.7156 0.0
H2702 H 0.53747 0.59858 0.67896 0.0
C2703 C 0.47671 0.55963 0.71684 0.0
C2704 C 0.52989 0.57943 0.73608 0.0
C2705 C 0.45717 0.54993 0.72405 0.0
C2706 C 0.60296 0.62254 0.68825 0.0
C2707 C 0.58704 0.61475 0.70245 0.0
C2708 C 0.53549 0.59328 0.69497 0.0
C2709 C 0.48997 0.57239 0.73041 0.0
C2710 C 0.51173 0.58062 0.72322 0.0
C2711 C 0.57519 0.59541 0.69805 0.0
C2712 C 0.5536 0.59122 0.70749 0.0
H2713 H 0.4585 0.56876 0.77454 0.0
H2714 H 0.49254 0.5861 0.76177 0.0
H2715 H 0.50107 0.58966 0.69265 0.0
H2716 H 0.59997 0.58109 0.65261 0.0
H2717 H 0.57226 0.56757 0.67742 0.0
C2718 C 0.79394 0.22169 0.03836 0.0
C2719 C 0.78842 0.21921 0.01724 0.0
C2720 C 0.8027 0.24135 0.04599 0.0
C2721 C 0.82788 0.29408 0.03028 0.0
H2722 H 0.80577 0.31132 0.08479 0.0
C2723 C 0.83149 0.36792 0.09617 0.0
C2724 C 0.85394 0.37242 0.09626 0.0
C2725 C 0.82245 0.35243 0.08242 0.0
C2726 C 0.81183 0.30704 0.06936 0.0
H2727 H 0.7883 0.23502 0.98733 0.0
H2728 H 0.80311 0.26949 0.00076 0.0
H2729 H 0.79304 0.2773 0.06947 0.0
H2730 H 0.88461 0.36555 0.08155 0.0
H2731 H 0.86902 0.33766 0.05806 0.0
H2732 H 0.84643 0.32417 0.03012 0.0
C2733 C 0.80105 0.25621 0.01137 0.0
C2734 C 0.80484 0.28726 0.06077 0.0
C2735 C 0.7925 0.23648 0.00371 0.0
C2736 C 0.86717 0.36239 0.08149 0.0
C2737 C 0.8582 0.34646 0.06804 0.0
C2738 C 0.83482 0.31403 0.03886 0.0
C2739 C 0.80584 0.25898 0.03269 0.0
C2740 C 0.81303 0.28037 0.0413 0.0
C2741 C 0.83584 0.34064 0.06906 0.0
C2742 C 0.82703 0.32063 0.05862 0.0
H2743 H 0.79113 0.20857 0.04908 0.0
H2744 H 0.80671 0.24284 0.06241 0.0
H2745 H 0.83451 0.2892 0.01524 0.0
H2746 H 0.82107 0.37563 0.10747 0.0
H2747 H 0.80509 0.3488 0.08314 0.0
C2748 C 0.59734 0.10707 0.77261 0.0
C2749 C 0.60797 0.09668 0.78843 0.0
C2750 C 0.57672 0.11438 0.77626 0.0
C2751 C 0.5377 0.13055 0.81531 0.0
H2752 H 0.49344 0.09936 0.7824 0.0
C2753 C 0.45532 0.10553 0.84459 0.0
C2754 C 0.44632 0.12537 0.84821 0.0
C2755 C 0.47068 0.10325 0.82859 0.0
C2756 C 0.50568 0.1086 0.79123 0.0
H2757 H 0.60612 0.08727 0.82091 0.0
H2758 H 0.57018 0.10079 0.82749 0.0
H2759 H 0.532 0.09547 0.77392 0.0
H2760 H 0.44271 0.15674 0.83582 0.0
H2761 H 0.47092 0.15338 0.80861 0.0
H2762 H 0.5115 0.14317 0.833 0.0
C2763 C 0.5778 0.10291 0.8122 0.0
C2764 C 0.52762 0.10633 0.78651 0.0
C2765 C 0.59831 0.09522 0.80845 0.0
C2766 C 0.44999 0.14159 0.83353 0.0
C2767 C 0.46596 0.1396 0.81794 0.0
C2768 C 0.51585 0.13325 0.81965 0.0
C2769 C 0.5666 0.11186 0.7959 0.0
C2770 C 0.54373 0.1168 0.79894 0.0
C2771 C 0.47742 0.12092 0.81645 0.0
C2772 C 0.49972 0.12188 0.808 0.0
H2773 H 0.60439 0.10849 0.75702 0.0
H2774 H 0.56839 0.1214 0.76356 0.0
H2775 H 0.54988 0.13868 0.8251 0.0
H2776 H 0.45241 0.09265 0.85556 0.0
H2777 H 0.47934 0.08871 0.82765 0.0
C2778 C 0.94614 0.95402 0.26821 0.0
C2779 C 0.93711 0.96684 0.28407 0.0
C2780 C 0.96507 0.94373 0.2717 0.0
C2781 C 0.00096 0.9236 0.30882 0.0
H2782 H 0.04879 0.95651 0.28212 0.0
C2783 C 0.0736 0.95108 0.34887 0.0
C2784 C 0.08246 0.93173 0.35373 0.0
C2785 C 0.06263 0.95279 0.3302 0.0
C2786 C 0.03563 0.94663 0.289 0.0
H2787 H 0.93959 0.97739 0.31651 0.0
H2788 H 0.9726 0.95883 0.32275 0.0
H2789 H 0.01143 0.96124 0.2715 0.0
H2790 H 0.09095 0.90093 0.34145 0.0
H2791 H 0.06989 0.90302 0.30957 0.0
H2792 H 0.02495 0.9098 0.32707 0.0
C2793 C 0.96504 0.95705 0.30759 0.0
C2794 C 0.01436 0.94941 0.28311 0.0
C2795 C 0.94625 0.96767 0.30403 0.0
C2796 C 0.08348 0.91559 0.33827 0.0
C2797 C 0.07173 0.91691 0.31993 0.0
C2798 C 0.02222 0.92034 0.31424 0.0
C2799 C 0.97494 0.94571 0.2912 0.0
C2800 C -0.00307 0.93868 0.29373 0.0
C2801 C 0.05987 0.9349 0.31669 0.0
C2802 C 0.03958 0.93261 0.3051 0.0
H2803 H 0.93933 0.95291 0.2527 0.0
H2804 H 0.97251 0.935 0.25893 0.0
H2805 H 0.98768 0.91532 0.31723 0.0
H2806 H 0.07316 0.96403 0.36037 0.0
H2807 H 0.05365 0.96688 0.3279 0.0
C2808 C 0.48803 0.32836 0.19792 0.0
C2809 C 0.48436 0.30667 0.19231 0.0
C2810 C 0.48298 0.33551 0.21813 0.0
C2811 C 0.47625 0.31503 0.27163 0.0
H2812 H 0.45308 0.37026 0.28339 0.0
C2813 C 0.42794 0.34131 0.3433 0.0
C2814 C 0.42885 0.36328 0.34828 0.0
C2815 C 0.44229 0.33334 0.32845 0.0
C2816 C 0.46015 0.35504 0.28037 0.0
H2817 H 0.47097 0.27574 0.20276 0.0
H2818 H 0.4617 0.28835 0.23794 0.0
H2819 H 0.45865 0.35868 0.24729 0.0
H2820 H 0.4473 0.39356 0.34462 0.0
H2821 H 0.47227 0.37969 0.31829 0.0
H2822 H 0.47649 0.31104 0.30491 0.0
C2823 C 0.46907 0.29969 0.22694 0.0
C2824 C 0.46315 0.34833 0.25968 0.0
C2825 C 0.47414 0.29254 0.20674 0.0
C2826 C 0.44633 0.37654 0.3409 0.0
C2827 C 0.46051 0.36864 0.32578 0.0
C2828 C 0.47303 0.32168 0.2924 0.0
C2829 C 0.47413 0.32109 0.23304 0.0
C2830 C 0.47104 0.32819 0.25507 0.0
C2831 C 0.45736 0.34742 0.31825 0.0
C2832 C 0.46481 0.3417 0.29692 0.0
H2833 H 0.49583 0.3396 0.18707 0.0
H2834 H 0.48704 0.35211 0.22234 0.0
H2835 H 0.48273 0.29956 0.26855 0.0
H2836 H 0.41462 0.33082 0.34904 0.0
H2837 H 0.43962 0.31688 0.32304 0.0
C2838 C 0.50879 0.773 0.92866 0.0
C2839 C 0.49993 0.7914 0.92109 0.0
C2840 C 0.50088 0.76376 0.94715 0.0
C2841 C 0.47339 0.77662 -0.00332 0.0
H2842 H 0.47007 0.71488 0.00203 0.0
C2843 C 0.44616 0.7292 0.07211 0.0
C2844 C 0.4581 0.71129 0.07598 0.0
C2845 C 0.45028 0.74116 0.05398 0.0
C2846 C 0.47105 0.73217 0.00081 0.0
H2847 H 0.4754 0.81429 0.92665 0.0
H2848 H 0.46145 0.79801 0.9592 0.0
H2849 H 0.47691 0.73045 0.96778 0.0
H2850 H 0.48568 0.6938 0.06528 0.0
H2851 H 0.49295 0.71472 0.03415 0.0
H2852 H 0.46765 0.77815 0.02994 0.0
C2853 C 0.47467 0.79088 0.95082 0.0
C2854 C 0.47491 0.74108 0.98119 0.0
C2855 C 0.48257 0.80011 0.93216 0.0
C2856 C 0.47574 0.70711 0.0626 0.0
C2857 C 0.47985 0.71901 0.04462 0.0
C2858 C 0.4694 0.76765 0.01641 0.0
C2859 C 0.4839 0.7727 0.95859 0.0
C2860 C 0.47674 0.76341 0.97896 0.0
C2861 C 0.46652 0.73546 0.0396 0.0
C2862 C 0.46882 0.74534 0.01871 0.0
H2863 H 0.52218 0.7659 0.92049 0.0
H2864 H 0.50856 0.74994 0.95282 0.0
H2865 H 0.47479 0.79389 -0.00453 0.0
H2866 H 0.43291 0.73329 0.08239 0.0
H2867 H 0.43997 0.75401 0.05063 0.0
C2868 C 0.05509 0.7414 0.69748 0.0
C2869 C 0.0435 0.72606 0.68507 0.0
C2870 C 0.06134 0.73652 0.71753 0.0
C2871 C 0.05022 0.69716 0.76004 0.0
H2872 H 0.10272 0.72568 0.7819 0.0
C2873 C 0.10624 0.67374 0.82639 0.0
C2874 C 0.11605 0.6909 0.83785 0.0
C2875 C 0.08997 0.67734 0.81223 0.0
C2876 C 0.08776 0.71792 0.77617 0.0
H2877 H 0.03033 0.69318 0.68347 0.0
H2878 H 0.04271 0.68406 0.71817 0.0
H2879 H 0.09268 0.73189 0.74632 0.0
H2880 H 0.11538 0.72467 0.84551 0.0
H2881 H 0.08689 0.73106 0.82076 0.0
H2882 H 0.04663 0.68189 0.78993 0.0
C2883 C 0.04611 0.7002 0.7127 0.0
C2884 C 0.08196 0.72145 0.75569 0.0
C2885 C 0.03935 0.70528 0.69269 0.0
C2886 C 0.10776 0.71119 0.83694 0.0
C2887 C 0.09152 0.71482 0.82281 0.0
C2888 C 0.05639 0.69318 0.78055 0.0
C2889 C 0.05678 0.71593 0.72556 0.0
C2890 C 0.06305 0.71128 0.74732 0.0
C2891 C 0.08377 0.69825 0.80922 0.0
C2892 C 0.07515 0.70371 0.78876 0.0
H2893 H 0.05824 0.75768 0.69224 0.0
H2894 H 0.06905 0.74927 0.72698 0.0
H2895 H 0.03539 0.68923 0.75425 0.0
H2896 H 0.113 0.65816 0.82642 0.0
H2897 H 0.08437 0.66436 0.80181 0.0
C2898 C 0.06057 0.3706 0.42056 0.0
C2899 C 0.07142 0.3559 0.40795 0.0
C2900 C 0.06646 0.374 0.44135 0.0
C2901 C 0.10418 0.36297 0.48274 0.0
H2902 H 0.05134 0.34528 0.51323 0.0
C2903 C 0.10723 0.35884 0.57009 0.0
C2904 C 0.09306 0.37349 0.57867 0.0
C2905 C 0.10358 0.35003 0.55013 0.0
C2906 C 0.06623 0.35013 0.50494 0.0
H2907 H 0.09939 0.3366 0.40563 0.0
H2908 H 0.10973 0.34271 0.44199 0.0
H2909 H 0.05033 0.35029 0.47556 0.0
H2910 H 0.06159 0.38652 0.57559 0.0
H2911 H 0.05519 0.37136 0.54101 0.0
H2912 H 0.11997 0.36365 0.5122 0.0
C2913 C 0.09642 0.35115 0.43601 0.0
C2914 C 0.06561 0.35326 0.48347 0.0
C2915 C 0.09049 0.34766 0.41522 0.0
C2916 C 0.07315 0.37581 0.56899 0.0
C2917 C 0.06945 0.36699 0.54913 0.0
C2918 C 0.10477 0.36008 0.50432 0.0
C2919 C 0.08335 0.36292 0.44955 0.0
C2920 C 0.08447 0.36015 0.4723 0.0
C2921 C 0.08555 0.35563 0.53882 0.0
C2922 C 0.08569 0.35405 0.5157 0.0
H2923 H 0.0461 0.37756 0.41518 0.0
H2924 H 0.05654 0.38365 0.45149 0.0
H2925 H 0.11894 0.36802 0.47434 0.0
H2926 H 0.12232 0.35619 0.57756 0.0
H2927 H 0.11587 0.34063 0.5428 0.0
C2928 C 0.51718 0.7494 0.33696 0.0
C2929 C 0.51801 0.7713 0.34243 0.0
C2930 C 0.50962 0.74233 0.31731 0.0
C2931 C 0.50556 0.76167 0.26386 0.0
H2932 H 0.46557 0.71229 0.25502 0.0
C2933 C 0.46111 0.74279 0.18628 0.0
C2934 C 0.45562 0.72127 0.18085 0.0
C2935 C 0.47207 0.74809 0.2048 0.0
C2936 C 0.47711 0.72586 0.25716 0.0
H2937 H 0.51055 0.80281 0.33204 0.0
H2938 H 0.49757 0.79048 0.29787 0.0
H2939 H 0.47607 0.72292 0.29057 0.0
H2940 H 0.45848 0.68857 0.19013 0.0
H2941 H 0.47826 0.69761 0.22192 0.0
H2942 H 0.5066 0.76472 0.23053 0.0
C2943 C 0.50295 0.77881 0.30862 0.0
C2944 C 0.483 0.732 0.27755 0.0
C2945 C 0.51025 0.78583 0.32827 0.0
C2946 C 0.46292 0.70517 0.19346 0.0
C2947 C 0.47384 0.71044 0.21201 0.0
C2948 C 0.49979 0.75547 0.24347 0.0
C2949 C 0.50302 0.75708 0.30273 0.0
C2950 C 0.49711 0.7501 0.28112 0.0
C2951 C 0.47767 0.73196 0.21837 0.0
C2952 C 0.48535 0.73759 0.23986 0.0
H2953 H 0.52299 0.73785 0.34758 0.0
H2954 H 0.50978 0.72546 0.31319 0.0
H2955 H 0.51676 0.7755 0.26613 0.0
H2956 H 0.45556 0.75557 0.17694 0.0
H2957 H 0.47471 0.76485 0.20918 0.0
C2958 C 0.03903 0.75009 0.06771 0.0
C2959 C 0.01876 0.74135 0.07465 0.0
C2960 C 0.0475 0.74392 0.04826 0.0
C2961 C 0.0412 0.70313 0.00575 0.0
H2962 H 0.06595 0.74883 0.97086 0.0
C2963 C 0.06539 0.68195 0.92415 0.0
C2964 C 0.08785 0.68565 0.9214 0.0
C2965 C 0.05431 0.69377 0.93909 0.0
C2966 C 0.05895 0.736 0.98043 0.0
H2967 H -0.00786 0.71829 0.06749 0.0
H2968 H 0.00674 0.70771 0.03357 0.0
H2969 H 0.0538 0.75701 0.00669 0.0
H2970 H 0.11588 0.7064 0.92947 0.0
H2971 H 0.09658 0.72691 0.95603 0.0
H2972 H 0.04636 0.68211 0.97972 0.0
C2973 C 0.01619 0.71925 0.04306 0.0
C2974 C 0.05224 0.74058 0.00097 0.0
C2975 C 0.00779 0.72534 0.0625 0.0
C2976 C 0.09853 0.70332 0.93143 0.0
C2977 C 0.08747 0.71502 0.94664 0.0
C2978 C 0.04769 0.69861 0.98526 0.0
C2979 C 0.03581 0.72895 0.03545 0.0
C2980 C 0.04341 0.72414 0.01386 0.0
C2981 C 0.06571 0.70912 0.95167 0.0
C2982 C 0.05667 0.71496 0.97241 0.0
H2983 H 0.0479 0.76235 0.07687 0.0
H2984 H 0.06293 0.75125 0.04302 0.0
H2985 H 0.0348 0.69006 0.01536 0.0
H2986 H 0.05684 0.66851 0.9163 0.0
H2987 H 0.03738 0.68934 0.94234 0.0
C2988 C 0.09714 0.30695 0.8338 0.0
C2989 C 0.08978 0.3209 0.84952 0.0
C2990 C 0.10062 0.31417 0.81347 0.0
C2991 C 0.10654 0.35969 0.77893 0.0
H2992 H 0.06538 0.3266 0.74407 0.0
C2993 C 0.09693 0.38427 0.69547 0.0
C2994 C 0.09934 0.36744 0.68091 0.0
C2995 C 0.091 0.37994 0.71616 0.0
C2996 C 0.077 0.33594 0.75354 0.0
H2997 H 0.08359 0.3539 0.85726 0.0
H2998 H 0.09034 0.36665 0.8217 0.0
H2999 H 0.07058 0.31614 0.78013 0.0
H3000 H 0.09494 0.33314 0.67584 0.0
H3001 H 0.08531 0.32542 0.71206 0.0
H3002 H 0.11368 0.37903 0.7523 0.0
C3003 C 0.09282 0.35007 0.82502 0.0
C3004 C 0.08006 0.32989 0.77409 0.0
C3005 C 0.089 0.34279 0.84533 0.0
C3006 C 0.09319 0.34641 0.68679 0.0
C3007 C 0.08766 0.34202 0.7076 0.0
C3008 C 0.10373 0.36558 0.75826 0.0
C3009 C 0.09725 0.33549 0.80877 0.0
C3010 C 0.09496 0.34163 0.78686 0.0
C3011 C 0.08799 0.35867 0.72275 0.0
C3012 C 0.08898 0.35372 0.74529 0.0
H3013 H 0.09812 0.29002 0.83665 0.0
H3014 H 0.10443 0.30278 0.80114 0.0
H3015 H 0.11804 0.36898 0.78858 0.0
H3016 H 0.10226 0.40053 0.69173 0.0
H3017 H 0.09077 0.39317 0.72736 0.0
C3018 C 0.49433 0.33136 0.56054 0.0
C3019 C 0.4841 0.31377 0.57075 0.0
C3020 C 0.48652 0.33808 0.54165 0.0
C3021 C 0.45389 0.31941 0.49638 0.0
H3022 H 0.45663 0.38019 0.48523 0.0
C3023 C 0.41515 0.37326 0.4345 0.0
C3024 C 0.43011 0.38945 0.42767 0.0
C3025 C 0.42211 0.35683 0.44678 0.0
C3026 C 0.456 0.36314 0.48809 0.0
H3027 H 0.4572 0.28984 0.56969 0.0
H3028 H 0.44308 0.30206 0.53673 0.0
H3029 H 0.46578 0.36829 0.51965 0.0
H3030 H 0.4641 0.39948 0.42457 0.0
H3031 H 0.47636 0.37059 0.44553 0.0
H3032 H 0.44328 0.31469 0.46457 0.0
C3033 C 0.45745 0.31031 0.54318 0.0
C3034 C 0.46122 0.35632 0.50778 0.0
C3035 C 0.46536 0.3035 0.56213 0.0
C3036 C 0.45233 0.38714 0.42992 0.0
C3037 C 0.45932 0.37059 0.4418 0.0
C3038 C 0.44834 0.32634 0.47656 0.0
C3039 C 0.46816 0.32748 0.53261 0.0
C3040 C 0.46065 0.3344 0.51209 0.0
C3041 C 0.44407 0.35664 0.45193 0.0
C3042 C 0.44983 0.34826 0.47227 0.0
H3043 H 0.50888 0.33951 0.56673 0.0
H3044 H 0.49534 0.35118 0.53379 0.0
H3045 H 0.4534 0.30239 0.49925 0.0
H3046 H 0.39801 0.37495 0.43282 0.0
H3047 H 0.41009 0.34622 0.45448 0.0
C3048 C 0.21888 0.51298 0.27721 0.0
C3049 C 0.20324 0.52281 0.28968 0.0
C3050 C 0.23803 0.50702 0.2859 0.0
C3051 C 0.26156 0.49043 0.33354 0.0
H3052 H 0.31576 0.50233 0.30311 0.0
C3053 C 0.33568 0.44674 0.35473 0.0
C3054 C 0.34496 0.43646 0.33742 0.0
C3055 C 0.32237 0.46365 0.35191 0.0
C3056 C 0.3008 0.49896 0.31184 0.0
H3057 H 0.19503 0.53355 0.32115 0.0
H3058 H 0.22856 0.52241 0.33659 0.0
H3059 H 0.2831 0.51908 0.29253 0.0
H3060 H 0.34878 0.43623 0.3037 0.0
H3061 H 0.32557 0.46575 0.29861 0.0
H3062 H 0.27869 0.46926 0.35199 0.0
C3063 C 0.22598 0.51971 0.32 0.0
C3064 C 0.28215 0.50855 0.30581 0.0
C3065 C 0.20683 0.52598 0.31121 0.0
C3066 C 0.342 0.44419 0.31731 0.0
C3067 C 0.32876 0.46116 0.31446 0.0
C3068 C 0.28016 0.48071 0.33948 0.0
C3069 C 0.24189 0.51054 0.30729 0.0
C3070 C 0.26222 0.50374 0.31614 0.0
C3071 C 0.318 0.47041 0.33168 0.0
C3072 C 0.29981 0.48426 0.32821 0.0
H3073 H 0.2166 0.51031 0.26057 0.0
H3074 H 0.24981 0.49952 0.27587 0.0
H3075 H 0.24637 0.48638 0.34167 0.0
H3076 H 0.33697 0.44045 0.37024 0.0
H3077 H 0.31437 0.47048 0.36547 0.0
C3078 C 0.31418 0.47911 0.04897 0.0
C3079 C 0.3199 0.47203 0.02875 0.0
C3080 C 0.31934 0.50025 0.05543 0.0
C3081 C 0.3309 0.5539 0.03348 0.0
H3082 H 0.34949 0.56899 0.08974 0.0
C3083 C 0.37564 0.63274 0.0591 0.0
C3084 C 0.37397 0.63922 0.08022 0.0
C3085 C 0.36296 0.61515 0.05154 0.0
C3086 C 0.34376 0.5651 0.07412 0.0
H3087 H 0.33666 0.48111 -0.00016 0.0
H3088 H 0.34598 0.51793 0.01124 0.0
H3089 H 0.34293 0.53149 0.07975 0.0
H3090 H 0.35556 0.63471 0.10912 0.0
H3091 H 0.33315 0.60401 0.09585 0.0
H3092 H 0.33252 0.58762 0.02771 0.0
C3093 C 0.33708 0.50729 0.02195 0.0
C3094 C 0.34018 0.54357 0.06835 0.0
C3095 C 0.33197 0.48612 0.01552 0.0
C3096 C 0.35718 0.62999 0.09278 0.0
C3097 C 0.34458 0.61224 0.08526 0.0
C3098 C 0.33457 0.57549 0.03924 0.0
C3099 C 0.33029 0.51474 0.04176 0.0
C3100 C 0.33392 0.53769 0.04791 0.0
C3101 C 0.34851 0.60374 0.06506 0.0
C3102 C 0.34123 0.58131 0.05959 0.0
H3103 H 0.30486 0.4686 0.0595 0.0
H3104 H 0.31386 0.50547 0.07078 0.0
H3105 H 0.32569 0.5499 0.01771 0.0
H3106 H 0.38841 0.63976 0.04909 0.0
H3107 H 0.36629 0.60914 0.03587 0.0
C3108 C 0.35329 0.55421 0.81928 0.0
C3109 C 0.35841 0.55477 0.79781 0.0
C3110 C 0.33476 0.56361 0.82704 0.0
C3111 C 0.29073 0.59828 0.81209 0.0
H3112 H 0.25616 0.56306 0.85105 0.0
C3113 C 0.20205 0.61258 0.82613 0.0
C3114 C 0.19755 0.6181 0.84707 0.0
C3115 C 0.2206 0.60188 0.82095 0.0
C3116 C 0.2657 0.57296 0.84015 0.0
H3117 H 0.3492 0.56685 0.76785 0.0
H3118 H 0.31676 0.58248 0.78111 0.0
H3119 H 0.29288 0.55355 0.84153 0.0
H3120 H 0.20826 0.61635 0.87898 0.0
H3121 H 0.24021 0.59682 0.87006 0.0
H3122 H 0.26327 0.61726 0.81025 0.0
C3123 C 0.32702 0.57521 0.79216 0.0
C3124 C 0.28679 0.56774 0.8349 0.0
C3125 C 0.34562 0.5661 0.78449 0.0
C3126 C 0.21084 0.61133 0.86288 0.0
C3127 C 0.2293 0.60047 0.85773 0.0
C3128 C 0.26959 0.60325 0.81707 0.0
C3129 C 0.32098 0.57348 0.81339 0.0
C3130 C 0.29948 0.58025 0.82065 0.0
C3131 C 0.23485 0.59667 0.83665 0.0
C3132 C 0.25685 0.59053 0.83097 0.0
H3133 H 0.36307 0.54578 0.8299 0.0
H3134 H 0.33084 0.56251 0.84359 0.0
H3135 H 0.30018 0.60853 0.80143 0.0
H3136 H 0.19207 0.61785 0.8137 0.0
H3137 H 0.22453 0.59889 0.80459 0.0
C3138 C 0.22415 0.60805 0.54244 0.0
C3139 C 0.22005 0.61265 0.52154 0.0
C3140 C 0.22027 0.58726 0.54974 0.0
C3141 C 0.21642 0.53153 0.5296 0.0
H3142 H 0.19487 0.51876 0.58557 0.0
C3143 C 0.17516 0.45274 0.55745 0.0
C3144 C 0.17685 0.44782 0.57866 0.0
C3145 C 0.18733 0.47017 0.54919 0.0
C3146 C 0.20145 0.52212 0.57007 0.0
H3147 H 0.20697 0.59966 0.49233 0.0
H3148 H 0.19971 0.56349 0.50521 0.0
H3149 H 0.19821 0.55574 0.57436 0.0
H3150 H 0.1946 0.45496 0.6071 0.0
H3151 H 0.21582 0.48567 0.59271 0.0
H3152 H 0.21861 0.49765 0.52509 0.0
C3153 C 0.20657 0.57575 0.51578 0.0
C3154 C 0.20319 0.5433 0.56359 0.0
C3155 C 0.2105 0.59651 0.50849 0.0
C3156 C 0.19309 0.45848 0.59068 0.0
C3157 C 0.20505 0.47616 0.58251 0.0
C3158 C 0.2145 0.51029 0.53604 0.0
C3159 C 0.21215 0.57074 0.53626 0.0
C3160 C 0.21046 0.54824 0.54322 0.0
C3161 C 0.20105 0.48302 0.5622 0.0
C3162 C 0.20682 0.50539 0.55628 0.0
H3163 H 0.23145 0.62021 0.55286 0.0
H3164 H 0.22469 0.58395 0.56561 0.0
H3165 H 0.22251 0.53487 0.51393 0.0
H3166 H 0.16274 0.44461 0.54793 0.0
H3167 H 0.184 0.47503 0.53346 0.0
C3168 C 0.21463 0.60493 0.24465 0.0
C3169 C 0.20415 0.58881 0.23223 0.0
C3170 C 0.2358 0.61241 0.23981 0.0
C3171 C 0.28477 0.59471 0.21294 0.0
H3172 H 0.30469 0.65444 0.2187 0.0
C3173 C 0.36282 0.63375 0.17632 0.0
C3174 C 0.37189 0.65237 0.18618 0.0
C3175 C 0.34513 0.62237 0.1856 0.0
C3176 C 0.29952 0.63761 0.21749 0.0
H3177 H 0.20692 0.56894 0.20421 0.0
H3178 H 0.24385 0.58239 0.19548 0.0
H3179 H 0.26674 0.64397 0.22528 0.0
H3180 H 0.37227 0.67161 0.2148 0.0
H3181 H 0.34177 0.65143 0.23119 0.0
H3182 H 0.3176 0.58853 0.20459 0.0
C3183 C 0.23586 0.58883 0.20924 0.0
C3184 C 0.27771 0.63166 0.2211 0.0
C3185 C 0.21464 0.58136 0.21407 0.0
C3186 C 0.3652 0.65756 0.20669 0.0
C3187 C 0.34769 0.6461 0.21602 0.0
C3188 C 0.30664 0.60069 0.20926 0.0
C3189 C 0.24686 0.60392 0.22244 0.0
C3190 C 0.27006 0.61019 0.21866 0.0
C3191 C 0.33653 0.6294 0.20489 0.0
C3192 C 0.31418 0.62224 0.21134 0.0
H3193 H 0.20692 0.61097 0.25875 0.0
H3194 H 0.24385 0.62404 0.25028 0.0
H3195 H 0.27939 0.57796 0.21136 0.0
H3196 H 0.36777 0.62933 0.16054 0.0
H3197 H 0.33694 0.60946 0.17671 0.0
C3198 C 0.25813 0.46913 0.95039 0.0
C3199 C 0.2545 0.46432 0.9716 0.0
C3200 C 0.25128 0.48826 0.94239 0.0
C3201 C 0.23911 0.54269 0.95942 0.0
H3202 H 0.20196 0.54291 0.91127 0.0
C3203 C 0.17566 0.60358 0.94836 0.0
C3204 C 0.16889 0.60792 0.92816 0.0
C3205 C 0.19255 0.59016 0.95117 0.0
C3206 C 0.21283 0.54334 0.92439 0.0
H3207 H 0.24037 0.47545 0.00091 0.0
H3208 H 0.22868 0.50864 0.98703 0.0
H3209 H 0.21811 0.50992 0.92061 0.0
H3210 H 0.17474 0.60255 0.89513 0.0
H3211 H 0.20475 0.57952 0.89986 0.0
H3212 H 0.23333 0.57591 0.96365 0.0
C3213 C 0.23692 0.49779 0.97662 0.0
C3214 C 0.22196 0.52436 0.92978 0.0
C3215 C 0.2434 0.47864 0.98449 0.0
C3216 C 0.18027 0.60003 0.9108 0.0
C3217 C 0.19712 0.5865 0.91356 0.0
C3218 C 0.23012 0.56171 0.95396 0.0
C3219 C 0.2411 0.50298 0.95561 0.0
C3220 C 0.2345 0.52369 0.94779 0.0
C3221 C 0.20272 0.58058 0.93378 0.0
C3222 C 0.21619 0.56205 0.93685 0.0
H3223 H 0.26667 0.45839 0.94012 0.0
H3224 H 0.25453 0.49185 0.92608 0.0
H3225 H 0.24908 0.54267 0.97318 0.0
H3226 H 0.16683 0.60927 0.96198 0.0
H3227 H 0.19626 0.58583 0.96697 0.0
C3228 C 0.33241 0.46949 0.75488 0.0
C3229 C 0.347 0.48208 0.74249 0.0
C3230 C 0.31144 0.4642 0.748 0.0
C3231 C 0.27672 0.46339 0.70135 0.0
H3232 H 0.23042 0.4681 0.74277 0.0
C3233 C 0.19027 0.45262 0.67543 0.0
C3234 C 0.18041 0.43422 0.68463 0.0
C3235 C 0.20804 0.4634 0.68492 0.0
C3236 C 0.24323 0.46694 0.73107 0.0
H3237 H 0.35169 0.49783 0.7127 0.0
H3238 H 0.31508 0.48889 0.70079 0.0
H3239 H 0.26818 0.47403 0.75336 0.0
H3240 H 0.17884 0.41479 0.71242 0.0
H3241 H 0.20976 0.43372 0.72901 0.0
H3242 H 0.25183 0.45625 0.67911 0.0
C3243 C 0.31977 0.48296 0.71575 0.0
C3244 C 0.26481 0.47003 0.73712 0.0
C3245 C 0.34076 0.48812 0.72257 0.0
C3246 C 0.18647 0.4287 0.70482 0.0
C3247 C 0.20409 0.43961 0.71438 0.0
C3248 C 0.25521 0.46056 0.69529 0.0
C3249 C 0.30469 0.4715 0.72866 0.0
C3250 C 0.28179 0.46808 0.72234 0.0
C3251 C 0.2159 0.45605 0.70379 0.0
C3252 C 0.23829 0.46216 0.7101 0.0
H3253 H 0.33689 0.46447 0.77025 0.0
H3254 H 0.30037 0.45485 0.75805 0.0
H3255 H 0.28938 0.46142 0.68965 0.0
H3256 H 0.18577 0.45737 0.65997 0.0
H3257 H 0.21675 0.47632 0.67667 0.0
C3258 C 0.30304 0.61168 0.48413 0.0
C3259 C 0.2952 0.62626 0.47015 0.0
C3260 C 0.31095 0.59255 0.47666 0.0
C3261 C 0.30366 0.55624 0.43098 0.0
H3262 H 0.34481 0.5237 0.45999 0.0
C3263 C 0.34169 0.47831 0.40266 0.0
C3264 C 0.34556 0.46348 0.4181 0.0
C3265 C 0.33124 0.49686 0.4079 0.0
C3266 C 0.33302 0.53254 0.45196 0.0
H3267 H 0.2919 0.63374 0.43746 0.0
H3268 H 0.3068 0.6007 0.42427 0.0
H3269 H 0.34054 0.56087 0.47021 0.0
H3270 H 0.34002 0.4551 0.45053 0.0
H3271 H 0.32161 0.4876 0.45978 0.0
H3272 H 0.29687 0.52787 0.4122 0.0
C3273 C 0.30585 0.60354 0.44103 0.0
C3274 C 0.33066 0.55385 0.45773 0.0
C3275 C 0.29755 0.62254 0.44854 0.0
C3276 C 0.33697 0.4663 0.43836 0.0
C3277 C 0.32662 0.48489 0.44365 0.0
C3278 C 0.3063 0.53496 0.42498 0.0
C3279 C 0.31153 0.58785 0.45505 0.0
C3280 C 0.31577 0.56591 0.44748 0.0
C3281 C 0.32493 0.50087 0.42875 0.0
C3282 C 0.32079 0.52289 0.43563 0.0
H3283 H 0.30144 0.61417 0.5009 0.0
H3284 H 0.31509 0.58088 0.48796 0.0
H3285 H 0.29173 0.56491 0.42299 0.0
H3286 H 0.34903 0.4769 0.38723 0.0
H3287 H 0.33027 0.50904 0.3962 0.0
C3288 C 0.30549 0.20999 0.49517 0.0
C3289 C 0.29089 0.19728 0.48287 0.0
C3290 C 0.31467 0.22939 0.48765 0.0
C3291 C 0.32398 0.26031 0.43929 0.0
H3292 H 0.31923 0.31036 0.47569 0.0
C3293 C 0.32303 0.3421 0.40481 0.0
C3294 C 0.34014 0.35665 0.41087 0.0
C3295 C 0.31754 0.32409 0.4166 0.0
C3296 C 0.32086 0.29647 0.4655 0.0
H3297 H 0.27528 0.19427 0.45277 0.0
H3298 H 0.29128 0.22795 0.43963 0.0
H3299 H 0.31107 0.27443 0.48964 0.0
H3300 H 0.36231 0.36552 0.43588 0.0
H3301 H 0.35283 0.33356 0.45656 0.0
H3302 H 0.33296 0.28226 0.415 0.0
C3303 C 0.29574 0.223 0.45503 0.0
C3304 C 0.31632 0.27595 0.47345 0.0
C3305 C 0.2865 0.20372 0.46257 0.0
C3306 C 0.34968 0.3542 0.43042 0.0
C3307 C 0.34415 0.33603 0.44232 0.0
C3308 C 0.32834 0.28071 0.43137 0.0
C3309 C 0.30954 0.23627 0.46765 0.0
C3310 C 0.31731 0.25772 0.46024 0.0
C3311 C 0.32888 0.32031 0.43481 0.0
C3312 C 0.32626 0.29896 0.44424 0.0
H3313 H 0.30913 0.2054 0.51091 0.0
H3314 H 0.32543 0.23919 0.49761 0.0
H3315 H 0.32533 0.24656 0.42886 0.0
H3316 H 0.3148 0.34377 0.39015 0.0
H3317 H 0.30525 0.31245 0.41084 0.0
C3318 C 0.81884 0.36309 0.53705 0.0
C3319 C 0.79612 0.36127 0.53857 0.0
C3320 C 0.83086 0.34537 0.54065 0.0
C3321 C 0.8257 0.28637 0.54102 0.0
H3322 H 0.87283 0.29168 0.58028 0.0
C3323 C 0.84598 0.22428 0.59911 0.0
C3324 C 0.86717 0.22418 0.60641 0.0
C3325 C 0.84143 0.2372 0.58242 0.0
C3326 C 0.86019 0.28996 0.56874 0.0
H3327 H 0.7681 0.33979 0.54539 0.0
H3328 H 0.78905 0.30891 0.5517 0.0
H3329 H 0.85628 0.32368 0.56908 0.0
H3330 H 0.90048 0.2358 0.6015 0.0
H3331 H 0.89257 0.25864 0.57234 0.0
H3332 H 0.82878 0.25246 0.54177 0.0
C3333 C 0.79758 0.3239 0.5475 0.0
C3334 C 0.85062 0.30831 0.56244 0.0
C3335 C 0.78562 0.34164 0.54418 0.0
C3336 C 0.88409 0.23541 0.59571 0.0
C3337 C 0.87953 0.24858 0.5792 0.0
C3338 C 0.83526 0.26798 0.54734 0.0
C3339 C 0.82028 0.32552 0.54549 0.0
C3340 C 0.83274 0.30659 0.5492 0.0
C3341 C 0.85798 0.25055 0.5733 0.0
C3342 C 0.85202 0.26957 0.56191 0.0
H3343 H 0.82728 0.3781 0.53278 0.0
H3344 H 0.84836 0.34705 0.53918 0.0
H3345 H 0.81219 0.2847 0.53042 0.0
H3346 H 0.83273 0.2158 0.60739 0.0
H3347 H 0.82464 0.23847 0.57831 0.0
C3348 C 0.44446 0.04333 0.2724 0.0
C3349 C 0.43441 0.02362 0.27848 0.0
C3350 C 0.4645 0.05051 0.28062 0.0
C3351 C 0.50068 0.04387 0.32485 0.0
H3352 H 0.5456 0.06726 0.28714 0.0
C3353 C 0.58458 0.06838 0.35603 0.0
C3354 C 0.59292 0.08892 0.35045 0.0
C3355 C 0.56751 0.05817 0.34498 0.0
C3356 C 0.5332 0.06087 0.29788 0.0
H3357 H 0.4372 -0.00378 0.29829 0.0
H3358 H 0.47201 0.00887 0.31281 0.0
H3359 H 0.51023 0.05499 0.27338 0.0
H3360 H 0.5912 0.1141 0.32786 0.0
H3361 H 0.56114 0.0964 0.30868 0.0
H3362 H 0.52328 0.0501 0.34942 0.0
C3363 C 0.46442 0.01878 0.30171 0.0
C3364 C 0.51293 0.0539 0.29001 0.0
C3365 C 0.44448 0.01154 0.29339 0.0
C3366 C 0.58514 0.09824 0.33248 0.0
C3367 C 0.56787 0.08808 0.3215 0.0
C3368 C 0.52086 0.0509 0.33271 0.0
C3369 C 0.47481 0.0382 0.29519 0.0
C3370 C 0.49641 0.04543 0.30344 0.0
C3371 C 0.55824 0.06836 0.32823 0.0
C3372 C 0.53736 0.05957 0.31936 0.0
H3373 H 0.43715 0.05293 0.26086 0.0
H3374 H 0.47197 0.06568 0.27553 0.0
H3375 H 0.48821 0.03767 0.33564 0.0
H3376 H 0.59047 0.06067 0.36966 0.0
H3377 H 0.56091 0.0427 0.35019 0.0
C3378 C 0.74573 0.71529 0.05401 0.0
C3379 C 0.7342 0.7036 0.03845 0.0
C3380 C 0.74013 0.73582 0.05977 0.0
C3381 C 0.71201 0.78172 0.04043 0.0
H3382 H 0.71764 0.80074 0.09827 0.0
C3383 C 0.67621 0.85247 0.08635 0.0
C3384 C 0.68888 0.85993 0.10323 0.0
C3385 C 0.68467 0.83835 0.07155 0.0
C3386 C 0.71644 0.7958 0.08195 0.0
H3387 H 0.70702 0.70364 0.01746 0.0
H3388 H 0.69669 0.73944 0.02812 0.0
H3389 H 0.72335 0.76385 0.08895 0.0
H3390 H 0.72117 0.86257 0.11585 0.0
H3391 H 0.73627 0.83863 0.08959 0.0
H3392 H 0.70391 0.81388 0.03394 0.0
C3393 C 0.71047 0.73292 0.0354 0.0
C3394 C 0.7196 0.7746 0.07663 0.0
C3395 C 0.7162 0.71236 0.02951 0.0
C3396 C 0.71109 0.85667 0.10303 0.0
C3397 C 0.71969 0.84301 0.08801 0.0
C3398 C 0.70849 0.80306 0.04588 0.0
C3399 C 0.72268 0.74502 0.05028 0.0
C3400 C 0.71774 0.76733 0.05581 0.0
C3401 C 0.70591 0.83201 0.07364 0.0
C3402 C 0.71106 0.81028 0.06666 0.0
H3403 H 0.75975 0.709 0.06109 0.0
H3404 H 0.75004 0.74476 0.07113 0.0
H3405 H 0.71058 0.77659 0.0242 0.0
H3406 H 0.65909 0.85498 0.08638 0.0
H3407 H 0.67378 0.83019 0.06049 0.0
C3408 C 0.57828 0.50804 0.26321 0.0
C3409 C 0.5864 0.52919 0.26692 0.0
C3410 C 0.5588 0.50041 0.27269 0.0
C3411 C 0.50876 0.51906 0.29847 0.0
H3412 H 0.50357 0.46144 0.32 0.0
C3413 C 0.44386 0.48706 0.35867 0.0
C3414 C 0.43467 0.4662 0.3552 0.0
C3415 C 0.46011 0.49562 0.34524 0.0
C3416 C 0.50468 0.47746 0.31377 0.0
H3417 H 0.58059 0.55893 0.28357 0.0
H3418 H 0.54691 0.54556 0.30033 0.0
H3419 H 0.5372 0.47432 0.30268 0.0
H3420 H 0.43439 0.4384 0.33434 0.0
H3421 H 0.46308 0.45327 0.31107 0.0
H3422 H 0.47641 0.52232 0.31038 0.0
C3423 C 0.55533 0.53491 0.28987 0.0
C3424 C 0.52394 0.48485 0.30384 0.0
C3425 C 0.57477 0.54251 0.28042 0.0
C3426 C 0.4411 0.45456 0.33735 0.0
C3427 C 0.45763 0.46297 0.32414 0.0
C3428 C 0.48956 0.51171 0.30862 0.0
C3429 C 0.54703 0.5138 0.28605 0.0
C3430 C 0.52627 0.50577 0.29613 0.0
C3431 C 0.4677 0.48332 0.32832 0.0
C3432 C 0.48737 0.49085 0.31638 0.0
H3433 H 0.58684 0.49744 0.25281 0.0
H3434 H 0.55278 0.48412 0.26924 0.0
H3435 H 0.50987 0.53514 0.29243 0.0
H3436 H 0.43916 0.49642 0.37228 0.0
H3437 H 0.46764 0.51133 0.34883 0.0
C3438 C 0.2428 0.85151 0.98859 0.0
C3439 C 0.26296 0.85974 0.9808 0.0
C3440 C 0.23401 0.83159 0.98147 0.0
C3441 C 0.23856 0.79157 0.93845 0.0
H3442 H 0.21341 0.75138 0.97895 0.0
C3443 C 0.21771 0.70656 0.91233 0.0
C3444 C 0.1958 0.70004 0.91553 0.0
C3445 C 0.22715 0.7236 0.92398 0.0
C3446 C 0.22038 0.76248 0.96752 0.0
H3447 H 0.28939 0.85396 0.95902 0.0
H3448 H 0.27423 0.81933 0.94676 0.0
H3449 H 0.22605 0.78756 0.9905 0.0
H3450 H 0.16719 0.70439 0.93486 0.0
H3451 H 0.18371 0.73454 0.95523 0.0
H3452 H 0.23304 0.76669 0.91551 0.0
C3453 C 0.26505 0.82824 0.95819 0.0
C3454 C 0.22746 0.7832 0.97406 0.0
C3455 C 0.27377 0.84809 0.96525 0.0
C3456 C 0.18416 0.70914 0.93218 0.0
C3457 C 0.19359 0.72642 0.94377 0.0
C3458 C 0.23166 0.77093 0.93199 0.0
C3459 C 0.24523 0.81959 0.96644 0.0
C3460 C 0.23673 0.79792 0.95958 0.0
C3461 C 0.21474 0.73457 0.93884 0.0
C3462 C 0.22266 0.75611 0.94644 0.0
H3463 H 0.23412 0.86016 0.00061 0.0
H3464 H 0.21855 0.8255 0.98787 0.0
H3465 H 0.24519 0.80263 0.92683 0.0
H3466 H 0.22706 0.69957 0.89971 0.0
H3467 H 0.24367 0.72922 0.92026 0.0
C3468 C 0.44824 0.99107 0.20179 0.0
C3469 C 0.43414 0.97438 0.2092 0.0
C3470 C 0.4702 0.98813 0.19893 0.0
C3471 C 0.51285 0.95184 0.21379 0.0
H3472 H 0.54525 0.9831 0.17056 0.0
C3473 C 0.58422 0.92822 0.16462 0.0
C3474 C 0.59689 0.94488 0.15539 0.0
C3475 C 0.57024 0.9326 0.1813 0.0
C3476 C 0.53664 0.97474 0.18319 0.0
H3477 H 0.43153 0.94097 0.21772 0.0
H3478 H 0.46984 0.93524 0.21106 0.0
H3479 H 0.50709 0.9876 0.17487 0.0
H3480 H 0.60766 0.97835 0.15774 0.0
H3481 H 0.58321 0.98614 0.18704 0.0
H3482 H 0.5426 0.93741 0.22043 0.0
C3483 C 0.46411 0.95099 0.20861 0.0
C3484 C 0.51458 0.97723 0.18559 0.0
C3485 C 0.4421 0.95412 0.21202 0.0
C3486 C 0.59797 0.9653 0.16481 0.0
C3487 C 0.58407 0.96969 0.18158 0.0
C3488 C 0.53501 0.94895 0.211 0.0
C3489 C 0.47857 0.96819 0.20273 0.0
C3490 C 0.50227 0.96566 0.20074 0.0
C3491 C 0.56854 0.95384 0.18836 0.0
C3492 C 0.547 0.96022 0.19547 0.0
H3493 H 0.44266 0.00695 0.19967 0.0
H3494 H 0.48072 0.00189 0.19468 0.0
H3495 H 0.504 0.94301 0.22593 0.0
H3496 H 0.58286 0.91247 0.1572 0.0
H3497 H 0.55851 0.92006 0.18625 0.0
C3498 C 0.09136 0.11086 0.70684 0.0
C3499 C 0.09764 0.09 0.70272 0.0
C3500 C 0.06996 0.11582 0.70374 0.0
C3501 C 0.01811 0.09429 0.68067 0.0
H3502 H -0.00632 0.13423 0.7205 0.0
C3503 C 0.94122 0.11743 0.65974 0.0
C3504 C 0.94702 0.13784 0.65212 0.0
C3505 C 0.9512 0.11045 0.67754 0.0
C3506 C 0.00018 0.12257 0.70972 0.0
H3507 H 0.08728 0.05859 0.69021 0.0
H3508 H 0.05013 0.06681 0.68569 0.0
H3509 H 0.03131 0.12491 0.72392 0.0
H3510 H 0.96463 0.1681 0.65816 0.0
H3511 H 0.98261 0.15586 0.68876 0.0
H3512 H 0.98743 0.09207 0.66624 0.0
C3513 C 0.06145 0.07957 0.69103 0.0
C3514 C 0.02182 0.11762 0.7113 0.0
C3515 C 0.08286 0.07481 0.69361 0.0
C3516 C 0.95996 0.15233 0.66406 0.0
C3517 C 0.97013 0.1453 0.68168 0.0
C3518 C -0.0035 0.09878 0.67943 0.0
C3519 C 0.05453 0.09987 0.69684 0.0
C3520 C 0.03121 0.10402 0.69629 0.0
C3521 C 0.96781 0.12355 0.68685 0.0
C3522 C 0.98752 0.11361 0.69339 0.0
H3523 H 0.10259 0.12292 0.71365 0.0
H3524 H 0.06537 0.13189 0.70752 0.0
H3525 H 0.02473 0.08402 0.66864 0.0
H3526 H 0.931 0.10615 0.65069 0.0
H3527 H 0.9488 0.09374 0.68162 0.0
loop_
_geom_bond_atom_site_label_1
_geom_bond_atom_site_label_2
_geom_bond_distance
_geom_bond_site_symmetry_2
_ccdc_geom_bond_type
In0 O1 2.294 . S
In0 O2 2.326 . S
In0 O6 2.266 . S
In0 O7 2.326 . S
In0 O8 2.266 . S
In0 O9 2.326 . S
In0 O11 2.294 . S
In0 O12 2.326 . S
O1 In0 2.294 . S
O1 C10 1.240 . S
O2 In0 2.326 . S
O2 C10 1.252 . S
C3 O6 1.252 . S
C3 O7 1.260 . S
C4 O11 1.240 . S
C4 O12 1.252 . S
C5 O8 1.252 . S
C5 O9 1.260 . S
O6 In0 2.266 . S
O6 C3 1.252 . S
O7 In0 2.326 . S
O7 C3 1.260 . S
O8 In0 2.266 . S
O8 C5 1.252 . S
O9 In0 2.326 . S
O9 C5 1.260 . S
C10 O1 1.240 . S
C10 O2 1.252 . S
O11 In0 2.294 . S
O11 C4 1.240 . S
O12 In0 2.326 . S
O12 C4 1.252 . S
In13 O14 2.294 1_455 S
In13 O15 2.326 1_455 S
In13 O19 2.266 . S
In13 O20 2.326 . S
In13 O21 2.266 1_455 S
In13 O22 2.326 1_455 S
In13 O24 2.294 . S
In13 O25 2.326 . S
O14 In13 2.294 1_655 S
O14 C23 1.240 . S
O15 In13 2.326 1_655 S
O15 C23 1.252 . S
C16 O19 1.252 . S
C16 O20 1.260 . S
C17 O24 1.240 . S
C17 O25 1.252 . S
C18 O21 1.252 . S
C18 O22 1.260 . S
O19 In13 2.266 . S
O19 C16 1.252 . S
O20 In13 2.326 . S
O20 C16 1.260 . S
O21 In13 2.266 1_655 S
O21 C18 1.252 . S
O22 In13 2.326 1_655 S
O22 C18 1.260 . S
C23 O14 1.240 . S
C23 O15 1.252 . S
O24 In13 2.294 . S
O24 C17 1.240 . S
O25 In13 2.326 . S
O25 C17 1.252 . S
In26 O27 2.294 . S
In26 O28 2.326 . S
In26 O32 2.266 . S
In26 O33 2.326 . S
In26 O34 2.266 . S
In26 O35 2.326 . S
In26 O37 2.294 . S
In26 O38 2.326 . S
O27 In26 2.294 . S
O27 C36 1.240 . S
O28 In26 2.326 . S
O28 C36 1.252 . S
C29 O32 1.252 . S
C29 O33 1.260 . S
C30 O37 1.240 . S
C30 O38 1.252 . S
C31 O34 1.252 . S
C31 O35 1.260 . S
O32 In26 2.266 . S
O32 C29 1.252 . S
O33 In26 2.326 . S
O33 C29 1.260 . S
O34 In26 2.266 . S
O34 C31 1.252 . S
O35 In26 2.326 . S
O35 C31 1.260 . S
C36 O27 1.240 . S
C36 O28 1.252 . S
O37 In26 2.294 . S
O37 C30 1.240 . S
O38 In26 2.326 . S
O38 C30 1.252 . S
In39 O40 2.294 . S
In39 O41 2.326 . S
In39 O45 2.266 . S
In39 O46 2.326 . S
In39 O47 2.266 . S
In39 O48 2.326 . S
In39 O50 2.294 . S
In39 O51 2.326 . S
O40 In39 2.294 . S
O40 C49 1.240 . S
O41 In39 2.326 . S
O41 C49 1.252 . S
C42 O45 1.252 . S
C42 O46 1.260 . S
C43 O50 1.240 . S
C43 O51 1.252 . S
C44 O47 1.252 . S
C44 O48 1.260 . S
O45 In39 2.266 . S
O45 C42 1.252 . S
O46 In39 2.326 . S
O46 C42 1.260 . S
O47 In39 2.266 . S
O47 C44 1.252 . S
O48 In39 2.326 . S
O48 C44 1.260 . S
C49 O40 1.240 . S
C49 O41 1.252 . S
O50 In39 2.294 . S
O50 C43 1.240 . S
O51 In39 2.326 . S
O51 C43 1.252 . S
In52 O53 2.294 1_455 S
In52 O54 2.326 . S
In52 O58 2.266 1_455 S
In52 O59 2.326 . S
In52 O60 2.266 . S
In52 O61 2.326 1_455 S
In52 O63 2.294 . S
In52 O64 2.326 1_455 S
O53 In52 2.294 1_655 S
O53 C62 1.240 . S
O54 In52 2.326 . S
O54 C62 1.252 1_455 S
C55 O58 1.252 . S
C55 O59 1.260 1_655 S
C56 O63 1.240 . S
C56 O64 1.252 1_455 S
C57 O60 1.252 . S
C57 O61 1.260 1_455 S
O58 In52 2.266 1_655 S
O58 C55 1.252 . S
O59 In52 2.326 . S
O59 C55 1.260 1_455 S
O60 In52 2.266 . S
O60 C57 1.252 . S
O61 In52 2.326 1_655 S
O61 C57 1.260 1_655 S
C62 O53 1.240 . S
C62 O54 1.252 1_655 S
O63 In52 2.294 . S
O63 C56 1.240 . S
O64 In52 2.326 1_655 S
O64 C56 1.252 1_655 S
In65 O66 2.294 . S
In65 O67 2.326 . S
In65 O71 2.266 . S
In65 O72 2.326 . S
In65 O73 2.266 . S
In65 O74 2.326 . S
In65 O76 2.294 . S
In65 O77 2.326 . S
O66 In65 2.294 . S
O66 C75 1.240 . S
O67 In65 2.326 . S
O67 C75 1.252 . S
C68 O71 1.252 . S
C68 O72 1.260 . S
C69 O76 1.240 . S
C69 O77 1.252 . S
C70 O73 1.252 . S
C70 O74 1.260 . S
O71 In65 2.266 . S
O71 C68 1.252 . S
O72 In65 2.326 . S
O72 C68 1.260 . S
O73 In65 2.266 . S
O73 C70 1.252 . S
O74 In65 2.326 . S
O74 C70 1.260 . S
C75 O66 1.240 . S
C75 O67 1.252 . S
O76 In65 2.294 . S
O76 C69 1.240 . S
O77 In65 2.326 . S
O77 C69 1.252 . S
In78 O79 2.294 . S
In78 O80 2.326 . S
In78 O84 2.266 . S
In78 O85 2.326 . S
In78 O86 2.266 . S
In78 O87 2.326 . S
In78 O89 2.294 . S
In78 O90 2.326 . S
O79 In78 2.294 . S
O79 C88 1.240 . S
O80 In78 2.326 . S
O80 C88 1.252 . S
C81 O84 1.252 . S
C81 O85 1.260 . S
C82 O89 1.240 . S
C82 O90 1.252 . S
C83 O86 1.252 . S
C83 O87 1.260 . S
O84 In78 2.266 . S
O84 C81 1.252 . S
O85 In78 2.326 . S
O85 C81 1.260 . S
O86 In78 2.266 . S
O86 C83 1.252 . S
O87 In78 2.326 . S
O87 C83 1.260 . S
C88 O79 1.240 . S
C88 O80 1.252 . S
O89 In78 2.294 . S
O89 C82 1.240 . S
O90 In78 2.326 . S
O90 C82 1.252 . S
In91 O92 2.294 . S
In91 O93 2.326 . S
In91 O97 2.266 . S
In91 O98 2.326 . S
In91 O99 2.266 . S
In91 O100 2.326 . S
In91 O102 2.294 . S
In91 O103 2.326 . S
O92 In91 2.294 . S
O92 C101 1.240 . S
O93 In91 2.326 . S
O93 C101 1.252 . S
C94 O97 1.252 . S
C94 O98 1.260 . S
C95 O102 1.240 . S
C95 O103 1.252 . S
C96 O99 1.252 . S
C96 O100 1.260 . S
O97 In91 2.266 . S
O97 C94 1.252 . S
O98 In91 2.326 . S
O98 C94 1.260 . S
O99 In91 2.266 . S
O99 C96 1.252 . S
O100 In91 2.326 . S
O100 C96 1.260 . S
C101 O92 1.240 . S
C101 O93 1.252 . S
O102 In91 2.294 . S
O102 C95 1.240 . S
O103 In91 2.326 . S
O103 C95 1.252 . S
In104 O105 2.294 1_545 S
In104 O106 2.326 . S
In104 O110 2.266 1_545 S
In104 O111 2.326 . S
In104 O112 2.266 . S
In104 O113 2.326 1_545 S
In104 O115 2.294 . S
In104 O116 2.326 1_545 S
O105 In104 2.294 1_565 S
O105 C114 1.240 . S
O106 In104 2.326 . S
O106 C114 1.252 1_545 S
C107 O110 1.252 . S
C107 O111 1.260 1_565 S
C108 O115 1.240 . S
C108 O116 1.252 1_545 S
C109 O112 1.252 . S
C109 O113 1.260 1_545 S
O110 In104 2.266 1_565 S
O110 C107 1.252 . S
O111 In104 2.326 . S
O111 C107 1.260 1_545 S
O112 In104 2.266 . S
O112 C109 1.252 . S
O113 In104 2.326 1_565 S
O113 C109 1.260 1_565 S
C114 O105 1.240 . S
C114 O106 1.252 1_565 S
O115 In104 2.294 . S
O115 C108 1.240 . S
O116 In104 2.326 1_565 S
O116 C108 1.252 1_565 S
In117 O118 2.294 . S
In117 O119 2.326 . S
In117 O123 2.266 . S
In117 O124 2.326 . S
In117 O125 2.266 . S
In117 O126 2.326 . S
In117 O128 2.294 . S
In117 O129 2.326 . S
O118 In117 2.294 . S
O118 C127 1.240 . S
O119 In117 2.326 . S
O119 C127 1.252 . S
C120 O123 1.252 . S
C120 O124 1.260 . S
C121 O128 1.240 . S
C121 O129 1.252 . S
C122 O125 1.252 . S
C122 O126 1.260 . S
O123 In117 2.266 . S
O123 C120 1.252 . S
O124 In117 2.326 . S
O124 C120 1.260 . S
O125 In117 2.266 . S
O125 C122 1.252 . S
O126 In117 2.326 . S
O126 C122 1.260 . S
C127 O118 1.240 . S
C127 O119 1.252 . S
O128 In117 2.294 . S
O128 C121 1.240 . S
O129 In117 2.326 . S
O129 C121 1.252 . S
In130 O131 2.294 . S
In130 O132 2.326 . S
In130 O136 2.266 . S
In130 O137 2.326 . S
In130 O138 2.266 . S
In130 O139 2.326 . S
In130 O141 2.294 . S
In130 O142 2.326 . S
O131 In130 2.294 . S
O131 C140 1.240 . S
O132 In130 2.326 . S
O132 C140 1.252 . S
C133 O136 1.252 . S
C133 O137 1.260 . S
C134 O141 1.240 . S
C134 O142 1.252 . S
C135 O138 1.252 . S
C135 O139 1.260 . S
O136 In130 2.266 . S
O136 C133 1.252 . S
O137 In130 2.326 . S
O137 C133 1.260 . S
O138 In130 2.266 . S
O138 C135 1.252 . S
O139 In130 2.326 . S
O139 C135 1.260 . S
C140 O131 1.240 . S
C140 O132 1.252 . S
O141 In130 2.294 . S
O141 C134 1.240 . S
O142 In130 2.326 . S
O142 C134 1.252 . S
In143 O144 2.294 . S
In143 O145 2.326 . S
In143 O149 2.266 . S
In143 O150 2.352 . S
In143 O151 2.266 . S
In143 O152 2.326 . S
In143 O154 2.294 . S
In143 O155 2.326 . S
O144 In143 2.294 . S
O144 C153 1.240 . S
O145 In143 2.326 . S
O145 C153 1.252 . S
C146 O149 1.252 . S
C146 O150 1.261 . S
C147 O154 1.244 . S
C147 O155 1.253 . S
C148 O151 1.252 . S
C148 O152 1.260 . S
O149 In143 2.266 . S
O149 C146 1.252 . S
O150 In143 2.352 . S
O150 C146 1.261 . S
O151 In143 2.266 . S
O151 C148 1.252 . S
O152 In143 2.326 . S
O152 C148 1.260 . S
C153 O144 1.240 . S
C153 O145 1.252 . S
O154 In143 2.294 . S
O154 C147 1.244 . S
O155 In143 2.326 . S
O155 C147 1.253 . S
In156 O157 2.294 1_554 S
In156 O158 2.326 . S
In156 O162 2.266 1_554 S
In156 O163 2.326 . S
In156 O164 2.266 . S
In156 O165 2.326 . S
In156 O167 2.294 . S
In156 O168 2.326 . S
O157 In156 2.294 1_556 S
O157 C166 1.240 . S
O158 In156 2.326 . S
O158 C166 1.252 1_554 S
C159 O162 1.252 . S
C159 O163 1.260 1_556 S
C160 O167 1.240 . S
C160 O168 1.252 . S
C161 O164 1.252 . S
C161 O165 1.260 . S
O162 In156 2.266 1_556 S
O162 C159 1.252 . S
O163 In156 2.326 . S
O163 C159 1.260 1_554 S
O164 In156 2.266 . S
O164 C161 1.252 . S
O165 In156 2.326 . S
O165 C161 1.260 . S
C166 O157 1.240 . S
C166 O158 1.252 1_556 S
O167 In156 2.294 . S
O167 C160 1.240 . S
O168 In156 2.326 . S
O168 C160 1.252 . S
In169 O170 2.311 . S
In169 O171 2.324 1_554 S
In169 O175 2.283 . S
In169 O176 2.322 1_554 S
In169 O177 2.249 1_554 S
In169 O178 2.328 . S
In169 O180 2.277 1_554 S
In169 O181 2.329 . S
O170 In169 2.311 . S
O170 C179 1.240 . S
O171 In169 2.324 1_556 S
O171 C179 1.252 1_556 S
C172 O175 1.252 . S
C172 O176 1.260 1_554 S
C173 O180 1.240 . S
C173 O181 1.252 1_556 S
C174 O177 1.252 . S
C174 O178 1.260 1_556 S
O175 In169 2.283 . S
O175 C172 1.252 . S
O176 In169 2.322 1_556 S
O176 C172 1.260 1_556 S
O177 In169 2.249 1_556 S
O177 C174 1.252 . S
O178 In169 2.328 . S
O178 C174 1.260 1_554 S
C179 O170 1.240 . S
C179 O171 1.252 1_554 S
O180 In169 2.277 1_556 S
O180 C173 1.240 . S
O181 In169 2.329 . S
O181 C173 1.252 1_554 S
In182 O183 2.294 . S
In182 O184 2.326 . S
In182 O188 2.266 . S
In182 O189 2.326 . S
In182 O190 2.266 . S
In182 O191 2.326 . S
In182 O193 2.294 . S
In182 O194 2.326 . S
O183 In182 2.294 . S
O183 C192 1.240 . S
O184 In182 2.326 . S
O184 C192 1.252 . S
C185 O188 1.252 . S
C185 O189 1.260 . S
C186 O193 1.240 . S
C186 O194 1.252 . S
C187 O190 1.252 . S
C187 O191 1.260 . S
O188 In182 2.266 . S
O188 C185 1.252 . S
O189 In182 2.326 . S
O189 C185 1.260 . S
O190 In182 2.266 . S
O190 C187 1.252 . S
O191 In182 2.326 . S
O191 C187 1.260 . S
C192 O183 1.240 . S
C192 O184 1.252 . S
O193 In182 2.294 . S
O193 C186 1.240 . S
O194 In182 2.326 . S
O194 C186 1.252 . S
In195 O196 2.294 . S
In195 O197 2.326 . S
In195 O201 2.266 . S
In195 O202 2.326 . S
In195 O203 2.266 . S
In195 O204 2.326 . S
In195 O206 2.294 . S
In195 O207 2.326 . S
O196 In195 2.294 . S
O196 C205 1.240 . S
O197 In195 2.326 . S
O197 C205 1.252 . S
C198 O201 1.252 . S
C198 O202 1.260 . S
C199 O206 1.240 . S
C199 O207 1.252 . S
C200 O203 1.252 . S
C200 O204 1.260 . S
O201 In195 2.266 . S
O201 C198 1.252 . S
O202 In195 2.326 . S
O202 C198 1.260 . S
O203 In195 2.266 . S
O203 C200 1.252 . S
O204 In195 2.326 . S
O204 C200 1.260 . S
C205 O196 1.240 . S
C205 O197 1.252 . S
O206 In195 2.294 . S
O206 C199 1.240 . S
O207 In195 2.326 . S
O207 C199 1.252 . S
In208 O209 2.294 1_545 S
In208 O210 2.326 1_545 S
In208 O214 2.266 . S
In208 O215 2.326 . S
In208 O216 2.266 1_545 S
In208 O217 2.326 1_545 S
In208 O219 2.294 . S
In208 O220 2.326 . S
O209 In208 2.294 1_565 S
O209 C218 1.240 . S
O210 In208 2.326 1_565 S
O210 C218 1.252 . S
C211 O214 1.252 . S
C211 O215 1.260 . S
C212 O219 1.240 . S
C212 O220 1.252 . S
C213 O216 1.252 . S
C213 O217 1.260 . S
O214 In208 2.266 . S
O214 C211 1.252 . S
O215 In208 2.326 . S
O215 C211 1.260 . S
O216 In208 2.266 1_565 S
O216 C213 1.252 . S
O217 In208 2.326 1_565 S
O217 C213 1.260 . S
C218 O209 1.240 . S
C218 O210 1.252 . S
O219 In208 2.294 . S
O219 C212 1.240 . S
O220 In208 2.326 . S
O220 C212 1.252 . S
In221 O222 2.294 . S
In221 O223 2.326 . S
In221 O227 2.266 . S
In221 O228 2.326 . S
In221 O229 2.266 . S
In221 O230 2.326 . S
In221 O232 2.294 . S
In221 O233 2.326 . S
O222 In221 2.294 . S
O222 C231 1.240 . S
O223 In221 2.326 . S
O223 C231 1.252 . S
C224 O227 1.252 . S
C224 O228 1.260 . S
C225 O232 1.240 . S
C225 O233 1.252 . S
C226 O229 1.252 . S
C226 O230 1.260 . S
O227 In221 2.266 . S
O227 C224 1.252 . S
O228 In221 2.326 . S
O228 C224 1.260 . S
O229 In221 2.266 . S
O229 C226 1.252 . S
O230 In221 2.326 . S
O230 C226 1.260 . S
C231 O222 1.240 . S
C231 O223 1.252 . S
O232 In221 2.294 . S
O232 C225 1.240 . S
O233 In221 2.326 . S
O233 C225 1.252 . S
In234 O235 2.294 . S
In234 O236 2.326 . S
In234 O240 2.266 . S
In234 O241 2.326 . S
In234 O242 2.266 . S
In234 O243 2.326 . S
In234 O245 2.294 . S
In234 O246 2.326 . S
O235 In234 2.294 . S
O235 C244 1.240 . S
O236 In234 2.326 . S
O236 C244 1.252 . S
C237 O240 1.252 . S
C237 O241 1.260 . S
C238 O245 1.240 . S
C238 O246 1.252 . S
C239 O242 1.252 . S
C239 O243 1.260 . S
O240 In234 2.266 . S
O240 C237 1.252 . S
O241 In234 2.326 . S
O241 C237 1.260 . S
O242 In234 2.266 . S
O242 C239 1.252 . S
O243 In234 2.326 . S
O243 C239 1.260 . S
C244 O235 1.240 . S
C244 O236 1.252 . S
O245 In234 2.294 . S
O245 C238 1.240 . S
O246 In234 2.326 . S
O246 C238 1.252 . S
In247 O248 2.294 . S
In247 O249 2.326 . S
In247 O253 2.266 . S
In247 O254 2.326 . S
In247 O255 2.266 . S
In247 O256 2.326 . S
In247 O258 2.294 . S
In247 O259 2.326 . S
O248 In247 2.294 . S
O248 C257 1.240 . S
O249 In247 2.326 . S
O249 C257 1.252 . S
C250 O253 1.252 . S
C250 O254 1.260 . S
C251 O258 1.240 . S
C251 O259 1.252 . S
C252 O255 1.252 . S
C252 O256 1.260 . S
O253 In247 2.266 . S
O253 C250 1.252 . S
O254 In247 2.326 . S
O254 C250 1.260 . S
O255 In247 2.266 . S
O255 C252 1.252 . S
O256 In247 2.326 . S
O256 C252 1.260 . S
C257 O248 1.240 . S
C257 O249 1.252 . S
O258 In247 2.294 . S
O258 C251 1.240 . S
O259 In247 2.326 . S
O259 C251 1.252 . S
In260 O261 2.294 . S
In260 O262 2.326 . S
In260 O266 2.266 . S
In260 O267 2.326 1_554 S
In260 O268 2.266 . S
In260 O269 2.326 . S
In260 O271 2.305 . S
In260 O272 2.326 1_554 S
O261 In260 2.294 . S
O261 C270 1.240 . S
O262 In260 2.326 . S
O262 C270 1.252 . S
C263 O266 1.252 1_556 S
C263 O267 1.260 . S
C264 O271 1.224 1_556 S
C264 O272 1.252 . S
C265 O268 1.252 . S
C265 O269 1.260 . S
O266 In260 2.266 . S
O266 C263 1.252 1_554 S
O267 In260 2.326 1_556 S
O267 C263 1.260 . S
O268 In260 2.266 . S
O268 C265 1.252 . S
O269 In260 2.326 . S
O269 C265 1.260 . S
C270 O261 1.240 . S
C270 O262 1.252 . S
O271 In260 2.305 . S
O271 C264 1.224 1_554 S
O272 In260 2.326 1_556 S
O272 C264 1.252 . S
In273 O274 2.294 . S
In273 O275 2.326 . S
In273 O279 2.266 . S
In273 O280 2.326 . S
In273 O281 2.266 . S
In273 O282 2.326 . S
In273 O284 2.294 . S
In273 O285 2.326 . S
O274 In273 2.294 . S
O274 C283 1.240 . S
O275 In273 2.326 . S
O275 C283 1.252 . S
C276 O279 1.252 . S
C276 O280 1.260 . S
C277 O284 1.240 . S
C277 O285 1.252 . S
C278 O281 1.252 . S
C278 O282 1.260 . S
O279 In273 2.266 . S
O279 C276 1.252 . S
O280 In273 2.326 . S
O280 C276 1.260 . S
O281 In273 2.266 . S
O281 C278 1.252 . S
O282 In273 2.326 . S
O282 C278 1.260 . S
C283 O274 1.240 . S
C283 O275 1.252 . S
O284 In273 2.294 . S
O284 C277 1.240 . S
O285 In273 2.326 . S
O285 C277 1.252 . S
In286 O287 2.294 . S
In286 O288 2.326 . S
In286 O292 2.266 . S
In286 O293 2.326 . S
In286 O294 2.266 . S
In286 O295 2.326 . S
In286 O297 2.294 . S
In286 O298 2.326 . S
O287 In286 2.294 . S
O287 C296 1.240 . S
O288 In286 2.326 . S
O288 C296 1.252 . S
C289 O292 1.252 . S
C289 O293 1.260 . S
C290 O297 1.240 . S
C290 O298 1.252 . S
C291 O294 1.252 . S
C291 O295 1.260 . S
O292 In286 2.266 . S
O292 C289 1.252 . S
O293 In286 2.326 . S
O293 C289 1.260 . S
O294 In286 2.266 . S
O294 C291 1.252 . S
O295 In286 2.326 . S
O295 C291 1.260 . S
C296 O287 1.240 . S
C296 O288 1.252 . S
O297 In286 2.294 . S
O297 C290 1.240 . S
O298 In286 2.326 . S
O298 C290 1.252 . S
In299 O300 2.294 . S
In299 O301 2.326 . S
In299 O305 2.266 . S
In299 O306 2.326 . S
In299 O307 2.266 . S
In299 O308 2.326 . S
In299 O310 2.294 . S
In299 O311 2.326 . S
O300 In299 2.294 . S
O300 C309 1.240 . S
O301 In299 2.326 . S
O301 C309 1.252 . S
C302 O305 1.252 . S
C302 O306 1.260 . S
C303 O310 1.240 . S
C303 O311 1.252 . S
C304 O307 1.252 . S
C304 O308 1.260 . S
O305 In299 2.266 . S
O305 C302 1.252 . S
O306 In299 2.326 . S
O306 C302 1.260 . S
O307 In299 2.266 . S
O307 C304 1.252 . S
O308 In299 2.326 . S
O308 C304 1.260 . S
C309 O300 1.240 . S
C309 O301 1.252 . S
O310 In299 2.294 . S
O310 C303 1.240 . S
O311 In299 2.326 . S
O311 C303 1.252 . S
O312 Mg313 1.990 . S
O312 C326 1.253 . S
Mg313 O312 1.990 . S
Mg313 O316 2.180 . S
Mg313 O317 2.117 . S
Mg313 O331 2.030 . S
O314 Mg315 2.072 . S
O314 C326 1.260 . S
Mg315 O314 2.072 . S
Mg315 O316 2.099 . S
Mg315 O318 2.079 . S
Mg315 O319 2.072 . S
Mg315 O321 2.099 . S
Mg315 O332 2.079 . S
O316 Mg313 2.180 . S
O316 Mg315 2.099 . S
O316 C327 1.279 . S
O317 Mg313 2.117 . S
O317 C327 1.250 . S
O318 Mg315 2.079 . S
O318 C328 1.264 . S
O319 Mg315 2.072 . S
O319 C329 1.260 . S
Mg320 O321 2.180 . S
Mg320 O322 2.030 . S
Mg320 O323 1.990 . S
Mg320 O324 2.117 . S
O321 Mg315 2.099 . S
O321 Mg320 2.180 . S
O321 C330 1.279 . S
O322 Mg320 2.030 . S
O322 C328 1.248 . S
O323 Mg320 1.990 . S
O323 C329 1.253 . S
O324 Mg320 2.117 . S
O324 C330 1.250 . S
C325 O331 1.248 . S
C325 O332 1.264 . S
C326 O312 1.253 . S
C326 O314 1.260 . S
C327 O316 1.279 . S
C327 O317 1.250 . S
C328 O318 1.264 . S
C328 O322 1.248 . S
C329 O319 1.260 . S
C329 O323 1.253 . S
C330 O321 1.279 . S
C330 O324 1.250 . S
O331 Mg313 2.030 . S
O331 C325 1.248 . S
O332 Mg315 2.079 . S
O332 C325 1.264 . S
O333 Mg334 1.990 . S
O333 C347 1.253 . S
Mg334 O333 1.990 . S
Mg334 O337 2.180 . S
Mg334 O338 2.117 . S
Mg334 O352 2.030 . S
O335 Mg336 2.072 . S
O335 C347 1.260 . S
Mg336 O335 2.072 . S
Mg336 O337 2.099 . S
Mg336 O339 2.079 . S
Mg336 O340 2.072 . S
Mg336 O342 2.099 . S
Mg336 O353 2.079 . S
O337 Mg334 2.180 . S
O337 Mg336 2.099 . S
O337 C348 1.279 . S
O338 Mg334 2.117 . S
O338 C348 1.250 . S
O339 Mg336 2.079 . S
O339 C349 1.264 . S
O340 Mg336 2.072 . S
O340 C350 1.260 . S
Mg341 O342 2.180 . S
Mg341 O343 2.030 . S
Mg341 O344 1.990 . S
Mg341 O345 2.117 . S
O342 Mg336 2.099 . S
O342 Mg341 2.180 . S
O342 C351 1.279 . S
O343 Mg341 2.030 . S
O343 C349 1.248 . S
O344 Mg341 1.990 . S
O344 C350 1.253 . S
O345 Mg341 2.117 . S
O345 C351 1.250 . S
C346 O352 1.248 . S
C346 O353 1.264 . S
C347 O333 1.253 . S
C347 O335 1.260 . S
C348 O337 1.279 . S
C348 O338 1.250 . S
C349 O339 1.264 . S
C349 O343 1.248 . S
C350 O340 1.260 . S
C350 O344 1.253 . S
C351 O342 1.279 . S
C351 O345 1.250 . S
O352 Mg334 2.030 . S
O352 C346 1.248 . S
O353 Mg336 2.079 . S
O353 C346 1.264 . S
O354 Mg355 1.990 . S
O354 C368 1.253 . S
Mg355 O354 1.990 . S
Mg355 O358 2.180 . S
Mg355 O359 2.117 . S
Mg355 O373 2.030 . S
O356 Mg357 2.072 . S
O356 C368 1.260 . S
Mg357 O356 2.072 . S
Mg357 O358 2.099 . S
Mg357 O360 2.079 . S
Mg357 O361 2.072 . S
Mg357 O363 2.099 . S
Mg357 O374 2.079 . S
O358 Mg355 2.180 . S
O358 Mg357 2.099 . S
O358 C369 1.279 . S
O359 Mg355 2.117 . S
O359 C369 1.250 . S
O360 Mg357 2.079 . S
O360 C370 1.264 . S
O361 Mg357 2.072 . S
O361 C371 1.260 . S
Mg362 O363 2.180 . S
Mg362 O364 2.030 . S
Mg362 O365 1.990 . S
Mg362 O366 2.117 . S
O363 Mg357 2.099 . S
O363 Mg362 2.180 . S
O363 C372 1.279 . S
O364 Mg362 2.030 . S
O364 C370 1.248 . S
O365 Mg362 1.990 . S
O365 C371 1.253 . S
O366 Mg362 2.117 . S
O366 C372 1.250 . S
C367 O373 1.248 . S
C367 O374 1.264 . S
C368 O354 1.253 . S
C368 O356 1.260 . S
C369 O358 1.279 . S
C369 O359 1.250 . S
C370 O360 1.264 . S
C370 O364 1.248 . S
C371 O361 1.260 . S
C371 O365 1.253 . S
C372 O363 1.279 . S
C372 O366 1.250 . S
O373 Mg355 2.030 . S
O373 C367 1.248 . S
O374 Mg357 2.079 . S
O374 C367 1.264 . S
O375 Mg376 1.990 . S
O375 C389 1.253 . S
Mg376 O375 1.990 . S
Mg376 O379 2.180 . S
Mg376 O380 2.117 . S
Mg376 O394 2.030 . S
O377 Mg378 2.072 . S
O377 C389 1.260 . S
Mg378 O377 2.072 . S
Mg378 O379 2.099 . S
Mg378 O381 2.079 . S
Mg378 O382 2.072 . S
Mg378 O384 2.099 . S
Mg378 O395 2.079 . S
O379 Mg376 2.180 . S
O379 Mg378 2.099 . S
O379 C390 1.279 . S
O380 Mg376 2.117 . S
O380 C390 1.250 . S
O381 Mg378 2.079 . S
O381 C391 1.264 . S
O382 Mg378 2.072 . S
O382 C392 1.260 . S
Mg383 O384 2.180 . S
Mg383 O385 2.030 . S
Mg383 O386 1.990 . S
Mg383 O387 2.117 . S
O384 Mg378 2.099 . S
O384 Mg383 2.180 . S
O384 C393 1.279 . S
O385 Mg383 2.030 . S
O385 C391 1.248 . S
O386 Mg383 1.990 . S
O386 C392 1.253 . S
O387 Mg383 2.117 . S
O387 C393 1.250 . S
C388 O394 1.248 . S
C388 O395 1.264 . S
C389 O375 1.253 . S
C389 O377 1.260 . S
C390 O379 1.279 . S
C390 O380 1.250 . S
C391 O381 1.264 . S
C391 O385 1.248 . S
C392 O382 1.260 . S
C392 O386 1.253 . S
C393 O384 1.279 . S
C393 O387 1.250 . S
O394 Mg376 2.030 . S
O394 C388 1.248 . S
O395 Mg378 2.079 . S
O395 C388 1.264 . S
O396 Mg397 1.990 . S
O396 C410 1.253 . S
Mg397 O396 1.990 . S
Mg397 O400 2.180 . S
Mg397 O401 2.117 . S
Mg397 O415 2.030 . S
O398 Mg399 2.072 . S
O398 C410 1.260 . S
Mg399 O398 2.072 . S
Mg399 O400 2.099 . S
Mg399 O402 2.079 . S
Mg399 O403 2.072 . S
Mg399 O405 2.099 . S
Mg399 O416 2.079 . S
O400 Mg397 2.180 . S
O400 Mg399 2.099 . S
O400 C411 1.279 . S
O401 Mg397 2.117 . S
O401 C411 1.250 . S
O402 Mg399 2.079 . S
O402 C412 1.264 . S
O403 Mg399 2.072 . S
O403 C413 1.260 . S
Mg404 O405 2.180 . S
Mg404 O406 2.030 . S
Mg404 O407 1.990 . S
Mg404 O408 2.117 . S
O405 Mg399 2.099 . S
O405 Mg404 2.180 . S
O405 C414 1.279 . S
O406 Mg404 2.030 . S
O406 C412 1.248 . S
O407 Mg404 1.990 . S
O407 C413 1.253 . S
O408 Mg404 2.117 . S
O408 C414 1.250 . S
C409 O415 1.248 . S
C409 O416 1.264 . S
C410 O396 1.253 . S
C410 O398 1.260 . S
C411 O400 1.279 . S
C411 O401 1.250 . S
C412 O402 1.264 . S
C412 O406 1.248 . S
C413 O403 1.260 . S
C413 O407 1.253 . S
C414 O405 1.279 . S
C414 O408 1.250 . S
O415 Mg397 2.030 . S
O415 C409 1.248 . S
O416 Mg399 2.079 . S
O416 C409 1.264 . S
O417 Mg418 1.990 . S
O417 C431 1.253 . S
Mg418 O417 1.990 . S
Mg418 O421 2.180 . S
Mg418 O422 2.117 . S
Mg418 O436 2.030 . S
O419 Mg420 2.072 . S
O419 C431 1.260 . S
Mg420 O419 2.072 . S
Mg420 O421 2.099 . S
Mg420 O423 2.079 . S
Mg420 O424 2.072 . S
Mg420 O426 2.099 . S
Mg420 O437 2.079 . S
O421 Mg418 2.180 . S
O421 Mg420 2.099 . S
O421 C432 1.279 . S
O422 Mg418 2.117 . S
O422 C432 1.250 . S
O423 Mg420 2.079 . S
O423 C433 1.264 . S
O424 Mg420 2.072 . S
O424 C434 1.260 . S
Mg425 O426 2.180 . S
Mg425 O427 2.030 . S
Mg425 O428 1.990 . S
Mg425 O429 2.117 . S
O426 Mg420 2.099 . S
O426 Mg425 2.180 . S
O426 C435 1.279 . S
O427 Mg425 2.030 . S
O427 C433 1.248 . S
O428 Mg425 1.990 . S
O428 C434 1.253 . S
O429 Mg425 2.117 . S
O429 C435 1.250 . S
C430 O436 1.248 . S
C430 O437 1.264 . S
C431 O417 1.253 . S
C431 O419 1.260 . S
C432 O421 1.279 . S
C432 O422 1.250 . S
C433 O423 1.264 . S
C433 O427 1.248 . S
C434 O424 1.260 . S
C434 O428 1.253 . S
C435 O426 1.279 . S
C435 O429 1.250 . S
O436 Mg418 2.030 . S
O436 C430 1.248 . S
O437 Mg420 2.079 . S
O437 C430 1.264 . S
O438 Mg439 1.990 . S
O438 C452 1.253 . S
Mg439 O438 1.990 . S
Mg439 O442 2.180 . S
Mg439 O443 2.117 . S
Mg439 O457 2.030 . S
O440 Mg441 2.072 . S
O440 C452 1.260 . S
Mg441 O440 2.072 . S
Mg441 O442 2.099 . S
Mg441 O444 2.079 . S
Mg441 O445 2.072 . S
Mg441 O447 2.099 . S
Mg441 O458 2.079 . S
O442 Mg439 2.180 . S
O442 Mg441 2.099 . S
O442 C453 1.279 . S
O443 Mg439 2.117 . S
O443 C453 1.250 . S
O444 Mg441 2.079 . S
O444 C454 1.264 . S
O445 Mg441 2.072 . S
O445 C455 1.260 . S
Mg446 O447 2.180 . S
Mg446 O448 2.030 . S
Mg446 O449 1.990 . S
Mg446 O450 2.117 . S
O447 Mg441 2.099 . S
O447 Mg446 2.180 . S
O447 C456 1.279 . S
O448 Mg446 2.030 . S
O448 C454 1.248 . S
O449 Mg446 1.990 . S
O449 C455 1.253 . S
O450 Mg446 2.117 . S
O450 C456 1.250 . S
C451 O457 1.248 . S
C451 O458 1.264 . S
C452 O438 1.253 . S
C452 O440 1.260 . S
C453 O442 1.279 . S
C453 O443 1.250 . S
C454 O444 1.264 . S
C454 O448 1.248 . S
C455 O445 1.260 . S
C455 O449 1.253 . S
C456 O447 1.279 . S
C456 O450 1.250 . S
O457 Mg439 2.030 . S
O457 C451 1.248 . S
O458 Mg441 2.079 . S
O458 C451 1.264 . S
O459 Mg460 1.990 . S
O459 C473 1.253 . S
Mg460 O459 1.990 . S
Mg460 O463 2.180 . S
Mg460 O464 2.117 . S
Mg460 O478 2.030 . S
O461 Mg462 2.072 . S
O461 C473 1.260 . S
Mg462 O461 2.072 . S
Mg462 O463 2.099 . S
Mg462 O465 2.079 . S
Mg462 O466 2.072 . S
Mg462 O468 2.099 . S
Mg462 O479 2.079 . S
O463 Mg460 2.180 . S
O463 Mg462 2.099 . S
O463 C474 1.279 . S
O464 Mg460 2.117 . S
O464 C474 1.250 . S
O465 Mg462 2.079 . S
O465 C475 1.264 . S
O466 Mg462 2.072 . S
O466 C476 1.260 . S
Mg467 O468 2.180 . S
Mg467 O469 2.030 . S
Mg467 O470 1.990 . S
Mg467 O471 2.117 . S
O468 Mg462 2.099 . S
O468 Mg467 2.180 . S
O468 C477 1.279 . S
O469 Mg467 2.030 . S
O469 C475 1.248 . S
O470 Mg467 1.990 . S
O470 C476 1.253 . S
O471 Mg467 2.117 . S
O471 C477 1.250 . S
C472 O478 1.248 . S
C472 O479 1.264 . S
C473 O459 1.253 . S
C473 O461 1.260 . S
C474 O463 1.279 . S
C474 O464 1.250 . S
C475 O465 1.264 . S
C475 O469 1.248 . S
C476 O466 1.260 . S
C476 O470 1.253 . S
C477 O468 1.279 . S
C477 O471 1.250 . S
O478 Mg460 2.030 . S
O478 C472 1.248 . S
O479 Mg462 2.079 . S
O479 C472 1.264 . S
O480 Mg481 1.990 . S
O480 C494 1.253 . S
Mg481 O480 1.990 . S
Mg481 O484 2.180 . S
Mg481 O485 2.117 . S
Mg481 O499 2.030 . S
O482 Mg483 2.072 . S
O482 C494 1.260 . S
Mg483 O482 2.072 . S
Mg483 O484 2.099 . S
Mg483 O486 2.079 . S
Mg483 O487 2.072 . S
Mg483 O489 2.099 . S
Mg483 O500 2.079 . S
O484 Mg481 2.180 . S
O484 Mg483 2.099 . S
O484 C495 1.279 . S
O485 Mg481 2.117 . S
O485 C495 1.250 . S
O486 Mg483 2.079 . S
O486 C496 1.264 . S
O487 Mg483 2.072 . S
O487 C497 1.260 . S
Mg488 O489 2.180 . S
Mg488 O490 2.030 . S
Mg488 O491 1.990 . S
Mg488 O492 2.117 . S
O489 Mg483 2.099 . S
O489 Mg488 2.180 . S
O489 C498 1.279 . S
O490 Mg488 2.030 . S
O490 C496 1.248 . S
O491 Mg488 1.990 . S
O491 C497 1.253 . S
O492 Mg488 2.117 . S
O492 C498 1.250 . S
C493 O499 1.248 . S
C493 O500 1.264 . S
C494 O480 1.253 . S
C494 O482 1.260 . S
C495 O484 1.279 . S
C495 O485 1.250 . S
C496 O486 1.264 . S
C496 O490 1.248 . S
C497 O487 1.260 . S
C497 O491 1.253 . S
C498 O489 1.279 . S
C498 O492 1.250 . S
O499 Mg481 2.030 . S
O499 C493 1.248 . S
O500 Mg483 2.079 . S
O500 C493 1.264 . S
O501 Mg502 1.990 . S
O501 C515 1.253 . S
Mg502 O501 1.990 . S
Mg502 O505 2.180 . S
Mg502 O506 2.117 . S
Mg502 O520 2.030 . S
O503 Mg504 2.072 . S
O503 C515 1.260 . S
Mg504 O503 2.072 . S
Mg504 O505 2.099 . S
Mg504 O507 2.079 . S
Mg504 O508 2.072 . S
Mg504 O510 2.099 . S
Mg504 O521 2.079 . S
O505 Mg502 2.180 . S
O505 Mg504 2.099 . S
O505 C516 1.279 . S
O506 Mg502 2.117 . S
O506 C516 1.250 . S
O507 Mg504 2.079 . S
O507 C517 1.264 . S
O508 Mg504 2.072 . S
O508 C518 1.260 . S
Mg509 O510 2.180 . S
Mg509 O511 2.030 . S
Mg509 O512 1.990 . S
Mg509 O513 2.117 . S
O510 Mg504 2.099 . S
O510 Mg509 2.180 . S
O510 C519 1.279 . S
O511 Mg509 2.030 . S
O511 C517 1.248 . S
O512 Mg509 1.990 . S
O512 C518 1.253 . S
O513 Mg509 2.117 . S
O513 C519 1.250 . S
C514 O520 1.248 . S
C514 O521 1.264 . S
C515 O501 1.253 . S
C515 O503 1.260 . S
C516 O505 1.279 . S
C516 O506 1.250 . S
C517 O507 1.264 . S
C517 O511 1.248 . S
C518 O508 1.260 . S
C518 O512 1.253 . S
C519 O510 1.279 . S
C519 O513 1.250 . S
O520 Mg502 2.030 . S
O520 C514 1.248 . S
O521 Mg504 2.079 . S
O521 C514 1.264 . S
O522 Mg523 1.990 . S
O522 C536 1.253 . S
Mg523 O522 1.990 . S
Mg523 O526 2.180 . S
Mg523 O527 2.117 . S
Mg523 O541 2.030 . S
O524 Mg525 2.072 . S
O524 C536 1.260 . S
Mg525 O524 2.072 . S
Mg525 O526 2.099 . S
Mg525 O528 2.079 . S
Mg525 O529 2.072 . S
Mg525 O531 2.099 . S
Mg525 O542 2.079 . S
O526 Mg523 2.180 . S
O526 Mg525 2.099 . S
O526 C537 1.279 . S
O527 Mg523 2.117 . S
O527 C537 1.250 . S
O528 Mg525 2.079 . S
O528 C538 1.264 . S
O529 Mg525 2.072 . S
O529 C539 1.260 . S
Mg530 O531 2.180 . S
Mg530 O532 2.030 . S
Mg530 O533 1.990 . S
Mg530 O534 2.117 . S
O531 Mg525 2.099 . S
O531 Mg530 2.180 . S
O531 C540 1.279 . S
O532 Mg530 2.030 . S
O532 C538 1.248 . S
O533 Mg530 1.990 . S
O533 C539 1.253 . S
O534 Mg530 2.117 . S
O534 C540 1.250 . S
C535 O541 1.248 . S
C535 O542 1.264 . S
C536 O522 1.253 . S
C536 O524 1.260 . S
C537 O526 1.279 . S
C537 O527 1.250 . S
C538 O528 1.264 . S
C538 O532 1.248 . S
C539 O529 1.260 . S
C539 O533 1.253 . S
C540 O531 1.279 . S
C540 O534 1.250 . S
O541 Mg523 2.030 . S
O541 C535 1.248 . S
O542 Mg525 2.079 . S
O542 C535 1.264 . S
O543 Mg544 1.990 . S
O543 C557 1.253 . S
Mg544 O543 1.990 . S
Mg544 O547 2.180 . S
Mg544 O548 2.117 . S
Mg544 O562 2.030 . S
O545 Mg546 2.072 . S
O545 C557 1.260 . S
Mg546 O545 2.072 . S
Mg546 O547 2.099 . S
Mg546 O549 2.079 . S
Mg546 O550 2.072 . S
Mg546 O552 2.099 . S
Mg546 O563 2.079 . S
O547 Mg544 2.180 . S
O547 Mg546 2.099 . S
O547 C558 1.279 . S
O548 Mg544 2.117 . S
O548 C558 1.250 . S
O549 Mg546 2.079 . S
O549 C559 1.264 . S
O550 Mg546 2.072 . S
O550 C560 1.260 . S
Mg551 O552 2.180 . S
Mg551 O553 2.030 . S
Mg551 O554 1.990 . S
Mg551 O555 2.117 . S
O552 Mg546 2.099 . S
O552 Mg551 2.180 . S
O552 C561 1.279 . S
O553 Mg551 2.030 . S
O553 C559 1.248 . S
O554 Mg551 1.990 . S
O554 C560 1.253 . S
O555 Mg551 2.117 . S
O555 C561 1.250 . S
C556 O562 1.248 . S
C556 O563 1.264 . S
C557 O543 1.253 . S
C557 O545 1.260 . S
C558 O547 1.279 . S
C558 O548 1.250 . S
C559 O549 1.264 . S
C559 O553 1.248 . S
C560 O550 1.260 . S
C560 O554 1.253 . S
C561 O552 1.279 . S
C561 O555 1.250 . S
O562 Mg544 2.030 . S
O562 C556 1.248 . S
O563 Mg546 2.079 . S
O563 C556 1.264 . S
O564 Mg565 1.990 . S
O564 C578 1.253 . S
Mg565 O564 1.990 . S
Mg565 O568 2.180 . S
Mg565 O569 2.117 . S
Mg565 O583 2.030 . S
O566 Mg567 2.072 . S
O566 C578 1.260 . S
Mg567 O566 2.072 . S
Mg567 O568 2.099 . S
Mg567 O570 2.079 . S
Mg567 O571 2.072 . S
Mg567 O573 2.099 . S
Mg567 O584 2.079 . S
O568 Mg565 2.180 . S
O568 Mg567 2.099 . S
O568 C579 1.279 . S
O569 Mg565 2.117 . S
O569 C579 1.250 . S
O570 Mg567 2.079 . S
O570 C580 1.264 . S
O571 Mg567 2.072 . S
O571 C581 1.260 . S
Mg572 O573 2.180 . S
Mg572 O574 2.030 . S
Mg572 O575 1.990 . S
Mg572 O576 2.117 . S
O573 Mg567 2.099 . S
O573 Mg572 2.180 . S
O573 C582 1.279 . S
O574 Mg572 2.030 . S
O574 C580 1.248 . S
O575 Mg572 1.990 . S
O575 C581 1.253 . S
O576 Mg572 2.117 . S
O576 C582 1.250 . S
C577 O583 1.248 . S
C577 O584 1.264 . S
C578 O564 1.253 . S
C578 O566 1.260 . S
C579 O568 1.279 . S
C579 O569 1.250 . S
C580 O570 1.264 . S
C580 O574 1.248 . S
C581 O571 1.260 . S
C581 O575 1.253 . S
C582 O573 1.279 . S
C582 O576 1.250 . S
O583 Mg565 2.030 . S
O583 C577 1.248 . S
O584 Mg567 2.079 . S
O584 C577 1.264 . S
O585 Mg586 1.990 . S
O585 C599 1.253 . S
Mg586 O585 1.990 . S
Mg586 O589 2.180 . S
Mg586 O590 2.117 . S
Mg586 O604 2.030 . S
O587 Mg588 2.072 . S
O587 C599 1.260 . S
Mg588 O587 2.072 . S
Mg588 O589 2.099 . S
Mg588 O591 2.079 . S
Mg588 O592 2.072 . S
Mg588 O594 2.099 . S
Mg588 O605 2.079 . S
O589 Mg586 2.180 . S
O589 Mg588 2.099 . S
O589 C600 1.279 . S
O590 Mg586 2.117 . S
O590 C600 1.250 . S
O591 Mg588 2.079 . S
O591 C601 1.264 . S
O592 Mg588 2.072 . S
O592 C602 1.260 . S
Mg593 O594 2.180 . S
Mg593 O595 2.030 . S
Mg593 O596 1.990 . S
Mg593 O597 2.117 . S
O594 Mg588 2.099 . S
O594 Mg593 2.180 . S
O594 C603 1.279 . S
O595 Mg593 2.030 . S
O595 C601 1.248 . S
O596 Mg593 1.990 . S
O596 C602 1.253 . S
O597 Mg593 2.117 . S
O597 C603 1.250 . S
C598 O604 1.248 . S
C598 O605 1.264 . S
C599 O585 1.253 . S
C599 O587 1.260 . S
C600 O589 1.279 . S
C600 O590 1.250 . S
C601 O591 1.264 . S
C601 O595 1.248 . S
C602 O592 1.260 . S
C602 O596 1.253 . S
C603 O594 1.279 . S
C603 O597 1.250 . S
O604 Mg586 2.030 . S
O604 C598 1.248 . S
O605 Mg588 2.079 . S
O605 C598 1.264 . S
O606 Mg607 1.990 . S
O606 C620 1.253 . S
Mg607 O606 1.990 . S
Mg607 O610 2.180 . S
Mg607 O611 2.117 . S
Mg607 O625 2.030 . S
O608 Mg609 2.072 . S
O608 C620 1.260 . S
Mg609 O608 2.072 . S
Mg609 O610 2.099 . S
Mg609 O612 2.079 . S
Mg609 O613 2.072 . S
Mg609 O615 2.099 . S
Mg609 O626 2.079 . S
O610 Mg607 2.180 . S
O610 Mg609 2.099 . S
O610 C621 1.279 . S
O611 Mg607 2.117 . S
O611 C621 1.250 . S
O612 Mg609 2.079 . S
O612 C622 1.264 . S
O613 Mg609 2.072 . S
O613 C623 1.260 . S
Mg614 O615 2.180 . S
Mg614 O616 2.030 . S
Mg614 O617 1.990 . S
Mg614 O618 2.117 . S
O615 Mg609 2.099 . S
O615 Mg614 2.180 . S
O615 C624 1.279 . S
O616 Mg614 2.030 . S
O616 C622 1.248 . S
O617 Mg614 1.990 . S
O617 C623 1.253 . S
O618 Mg614 2.117 . S
O618 C624 1.250 . S
C619 O625 1.248 . S
C619 O626 1.264 . S
C620 O606 1.253 . S
C620 O608 1.260 . S
C621 O610 1.279 . S
C621 O611 1.250 . S
C622 O612 1.264 . S
C622 O616 1.248 . S
C623 O613 1.260 . S
C623 O617 1.253 . S
C624 O615 1.279 . S
C624 O618 1.250 . S
O625 Mg607 2.030 . S
O625 C619 1.248 . S
O626 Mg609 2.079 . S
O626 C619 1.264 . S
O627 Mg628 1.990 . S
O627 C641 1.253 . S
Mg628 O627 1.990 . S
Mg628 O631 2.180 . S
Mg628 O632 2.117 . S
Mg628 O646 2.030 . S
O629 Mg630 2.072 . S
O629 C641 1.260 . S
Mg630 O629 2.072 . S
Mg630 O631 2.099 . S
Mg630 O633 2.079 . S
Mg630 O634 2.072 . S
Mg630 O636 2.099 . S
Mg630 O647 2.079 . S
O631 Mg628 2.180 . S
O631 Mg630 2.099 . S
O631 C642 1.279 . S
O632 Mg628 2.117 . S
O632 C642 1.250 . S
O633 Mg630 2.079 . S
O633 C643 1.264 . S
O634 Mg630 2.072 . S
O634 C644 1.260 . S
Mg635 O636 2.180 . S
Mg635 O637 2.030 . S
Mg635 O638 1.990 . S
Mg635 O639 2.117 . S
O636 Mg630 2.099 . S
O636 Mg635 2.180 . S
O636 C645 1.279 . S
O637 Mg635 2.030 . S
O637 C643 1.248 . S
O638 Mg635 1.990 . S
O638 C644 1.253 . S
O639 Mg635 2.117 . S
O639 C645 1.250 . S
C640 O646 1.248 . S
C640 O647 1.264 . S
C641 O627 1.253 . S
C641 O629 1.260 . S
C642 O631 1.279 . S
C642 O632 1.250 . S
C643 O633 1.264 . S
C643 O637 1.248 . S
C644 O634 1.260 . S
C644 O638 1.253 . S
C645 O636 1.279 . S
C645 O639 1.250 . S
O646 Mg628 2.030 . S
O646 C640 1.248 . S
O647 Mg630 2.079 . S
O647 C640 1.264 . S
C648 C649 1.349 . S
C648 C650 1.327 . S
C648 H673 0.950 . S
C649 C648 1.349 . S
C649 C665 1.349 . S
C650 C648 1.327 . S
C650 C669 1.429 . S
C650 H674 0.950 . S
C651 C668 1.574 . S
C651 C670 1.368 . S
C651 H675 0.949 . S
H652 C656 0.949 . S
C653 C654 1.349 . S
C653 C655 1.327 . S
C653 H676 0.950 . S
C654 C653 1.349 . S
C654 C666 1.349 . S
C655 C653 1.327 . S
C655 C671 1.429 . S
C655 H677 0.950 . S
C656 H652 0.949 . S
C656 C664 1.574 . S
C656 C672 1.368 . S
H657 C665 0.950 . S
H658 C663 0.950 . S
H659 C664 0.949 . S
H660 C666 0.950 . S
H661 C667 0.950 . S
H662 C668 0.949 . S
C663 H658 0.950 . S
C663 C665 1.327 . S
C663 C669 1.429 . S
C664 C656 1.574 . S
C664 H659 0.949 . S
C664 C670 1.368 . S
C665 C649 1.349 . S
C665 H657 0.950 . S
C665 C663 1.327 . S
C666 C654 1.349 . S
C666 H660 0.950 . S
C666 C667 1.327 . S
C667 H661 0.950 . S
C667 C666 1.327 . S
C667 C671 1.429 . S
C668 C651 1.574 . S
C668 H662 0.949 . S
C668 C672 1.368 . S
C669 C650 1.429 . S
C669 C663 1.429 . S
C669 C670 1.523 . S
C670 C651 1.368 . S
C670 C664 1.368 . S
C670 C669 1.523 . S
C671 C655 1.429 . S
C671 C667 1.429 . S
C671 C672 1.523 . S
C672 C656 1.368 . S
C672 C668 1.368 . S
C672 C671 1.523 . S
H673 C648 0.950 . S
H674 C650 0.950 . S
H675 C651 0.949 . S
H676 C653 0.950 . S
H677 C655 0.950 . S
C678 C679 1.349 . S
C678 C680 1.327 . S
C678 H703 0.950 . S
C679 C678 1.349 . S
C679 C695 1.349 . S
C680 C678 1.327 . S
C680 C699 1.429 . S
C680 H704 0.950 . S
C681 C698 1.574 . S
C681 C700 1.368 . S
C681 H705 0.949 . S
H682 C686 0.949 . S
C683 C684 1.349 . S
C683 C685 1.327 . S
C683 H706 0.950 . S
C684 C683 1.349 . S
C684 C696 1.349 . S
C685 C683 1.327 . S
C685 C701 1.429 . S
C685 H707 0.950 . S
C686 H682 0.949 . S
C686 C694 1.574 . S
C686 C702 1.368 . S
H687 C695 0.950 . S
H688 C693 0.950 . S
H689 C694 0.949 . S
H690 C696 0.950 . S
H691 C697 0.950 . S
H692 C698 0.949 . S
C693 H688 0.950 . S
C693 C695 1.327 . S
C693 C699 1.429 . S
C694 C686 1.574 . S
C694 H689 0.949 . S
C694 C700 1.368 . S
C695 C679 1.349 . S
C695 H687 0.950 . S
C695 C693 1.327 . S
C696 C684 1.349 . S
C696 H690 0.950 . S
C696 C697 1.327 . S
C697 H691 0.950 . S
C697 C696 1.327 . S
C697 C701 1.429 . S
C698 C681 1.574 . S
C698 H692 0.949 . S
C698 C702 1.368 . S
C699 C680 1.429 . S
C699 C693 1.429 . S
C699 C700 1.523 . S
C700 C681 1.368 . S
C700 C694 1.368 . S
C700 C699 1.523 . S
C701 C685 1.429 . S
C701 C697 1.429 . S
C701 C702 1.523 . S
C702 C686 1.368 . S
C702 C698 1.368 . S
C702 C701 1.523 . S
H703 C678 0.950 . S
H704 C680 0.950 . S
H705 C681 0.949 . S
H706 C683 0.950 . S
H707 C685 0.950 . S
C708 C709 1.349 . S
C708 C710 1.327 . S
C708 H733 0.950 . S
C709 C708 1.349 . S
C709 C725 1.349 . S
C710 C708 1.327 . S
C710 C729 1.429 . S
C710 H734 0.950 . S
C711 C728 1.574 . S
C711 C730 1.368 . S
C711 H735 0.949 . S
H712 C716 0.949 . S
C713 C714 1.349 . S
C713 C715 1.327 . S
C713 H736 0.950 . S
C714 C713 1.349 . S
C714 C726 1.349 . S
C715 C713 1.327 . S
C715 C731 1.429 . S
C715 H737 0.950 . S
C716 H712 0.949 . S
C716 C724 1.574 . S
C716 C732 1.368 . S
H717 C725 0.950 . S
H718 C723 0.950 . S
H719 C724 0.949 . S
H720 C726 0.950 . S
H721 C727 0.950 . S
H722 C728 0.949 . S
C723 H718 0.950 . S
C723 C725 1.327 . S
C723 C729 1.429 . S
C724 C716 1.574 . S
C724 H719 0.949 . S
C724 C730 1.368 . S
C725 C709 1.349 . S
C725 H717 0.950 . S
C725 C723 1.327 . S
C726 C714 1.349 . S
C726 H720 0.950 . S
C726 C727 1.327 . S
C727 H721 0.950 . S
C727 C726 1.327 . S
C727 C731 1.429 . S
C728 C711 1.574 . S
C728 H722 0.949 . S
C728 C732 1.368 . S
C729 C710 1.429 . S
C729 C723 1.429 . S
C729 C730 1.523 . S
C730 C711 1.368 . S
C730 C724 1.368 . S
C730 C729 1.523 . S
C731 C715 1.429 . S
C731 C727 1.429 . S
C731 C732 1.523 . S
C732 C716 1.368 . S
C732 C728 1.368 . S
C732 C731 1.523 . S
H733 C708 0.950 . S
H734 C710 0.950 . S
H735 C711 0.949 . S
H736 C713 0.950 . S
H737 C715 0.950 . S
C738 C739 1.349 . S
C738 C740 1.327 . S
C738 H763 0.950 . S
C739 C738 1.349 . S
C739 C755 1.349 . S
C740 C738 1.327 . S
C740 C759 1.429 . S
C740 H764 0.950 . S
C741 C758 1.574 . S
C741 C760 1.368 . S
C741 H765 0.949 . S
H742 C746 0.949 . S
C743 C744 1.349 . S
C743 C745 1.327 . S
C743 H766 0.950 . S
C744 C743 1.349 . S
C744 C756 1.349 . S
C745 C743 1.327 . S
C745 C761 1.429 . S
C745 H767 0.950 . S
C746 H742 0.949 . S
C746 C754 1.574 . S
C746 C762 1.368 . S
H747 C755 0.950 . S
H748 C753 0.950 . S
H749 C754 0.949 . S
H750 C756 0.950 . S
H751 C757 0.950 . S
H752 C758 0.949 . S
C753 H748 0.950 . S
C753 C755 1.327 . S
C753 C759 1.429 . S
C754 C746 1.574 . S
C754 H749 0.949 . S
C754 C760 1.368 . S
C755 C739 1.349 . S
C755 H747 0.950 . S
C755 C753 1.327 . S
C756 C744 1.349 . S
C756 H750 0.950 . S
C756 C757 1.327 . S
C757 H751 0.950 . S
C757 C756 1.327 . S
C757 C761 1.429 . S
C758 C741 1.574 . S
C758 H752 0.949 . S
C758 C762 1.368 . S
C759 C740 1.429 . S
C759 C753 1.429 . S
C759 C760 1.523 . S
C760 C741 1.368 . S
C760 C754 1.368 . S
C760 C759 1.523 . S
C761 C745 1.429 . S
C761 C757 1.429 . S
C761 C762 1.523 1_556 S
C762 C746 1.368 . S
C762 C758 1.368 . S
C762 C761 1.523 1_554 S
H763 C738 0.950 . S
H764 C740 0.950 . S
H765 C741 0.949 . S
H766 C743 0.950 . S
H767 C745 0.950 . S
C768 C769 1.349 . S
C768 C770 1.327 . S
C768 H793 0.950 . S
C769 C768 1.349 . S
C769 C785 1.349 . S
C770 C768 1.327 . S
C770 C789 1.429 . S
C770 H794 0.950 . S
C771 C788 1.574 . S
C771 C790 1.368 . S
C771 H795 0.949 . S
H772 C776 0.949 . S
C773 C774 1.349 . S
C773 C775 1.327 . S
C773 H796 0.950 . S
C774 C773 1.349 . S
C774 C786 1.349 . S
C775 C773 1.327 . S
C775 C791 1.429 . S
C775 H797 0.950 . S
C776 H772 0.949 . S
C776 C784 1.574 . S
C776 C792 1.368 . S
H777 C785 0.950 . S
H778 C783 0.950 . S
H779 C784 0.949 . S
H780 C786 0.950 . S
H781 C787 0.950 . S
H782 C788 0.949 . S
C783 H778 0.950 . S
C783 C785 1.327 . S
C783 C789 1.429 . S
C784 C776 1.574 . S
C784 H779 0.949 . S
C784 C790 1.368 . S
C785 C769 1.349 . S
C785 H777 0.950 . S
C785 C783 1.327 . S
C786 C774 1.349 . S
C786 H780 0.950 . S
C786 C787 1.327 . S
C787 H781 0.950 . S
C787 C786 1.327 . S
C787 C791 1.429 . S
C788 C771 1.574 . S
C788 H782 0.949 . S
C788 C792 1.368 . S
C789 C770 1.429 . S
C789 C783 1.429 . S
C789 C790 1.523 . S
C790 C771 1.368 . S
C790 C784 1.368 . S
C790 C789 1.523 . S
C791 C775 1.429 . S
C791 C787 1.429 . S
C791 C792 1.523 . S
C792 C776 1.368 . S
C792 C788 1.368 . S
C792 C791 1.523 . S
H793 C768 0.950 . S
H794 C770 0.950 . S
H795 C771 0.949 . S
H796 C773 0.950 . S
H797 C775 0.950 . S
C798 C799 1.349 . S
C798 C800 1.327 . S
C798 H823 0.950 . S
C799 C798 1.349 . S
C799 C815 1.349 . S
C800 C798 1.327 . S
C800 C819 1.429 . S
C800 H824 0.950 . S
C801 C818 1.574 . S
C801 C820 1.368 . S
C801 H825 0.949 . S
H802 C806 0.949 . S
C803 C804 1.349 . S
C803 C805 1.327 . S
C803 H826 0.950 . S
C804 C803 1.349 . S
C804 C816 1.349 . S
C805 C803 1.327 . S
C805 C821 1.429 . S
C805 H827 0.950 . S
C806 H802 0.949 . S
C806 C814 1.574 . S
C806 C822 1.368 . S
H807 C815 0.950 . S
H808 C813 0.950 . S
H809 C814 0.949 . S
H810 C816 0.950 . S
H811 C817 0.950 . S
H812 C818 0.949 . S
C813 H808 0.950 . S
C813 C815 1.327 . S
C813 C819 1.429 . S
C814 C806 1.574 . S
C814 H809 0.949 . S
C814 C820 1.368 . S
C815 C799 1.349 . S
C815 H807 0.950 . S
C815 C813 1.327 . S
C816 C804 1.349 . S
C816 H810 0.950 . S
C816 C817 1.327 . S
C817 H811 0.950 . S
C817 C816 1.327 . S
C817 C821 1.429 . S
C818 C801 1.574 . S
C818 H812 0.949 . S
C818 C822 1.368 . S
C819 C800 1.429 . S
C819 C813 1.429 . S
C819 C820 1.523 . S
C820 C801 1.368 . S
C820 C814 1.368 . S
C820 C819 1.523 . S
C821 C805 1.429 . S
C821 C817 1.429 . S
C821 C822 1.523 . S
C822 C806 1.368 . S
C822 C818 1.368 . S
C822 C821 1.523 . S
H823 C798 0.950 . S
H824 C800 0.950 . S
H825 C801 0.949 . S
H826 C803 0.950 . S
H827 C805 0.950 . S
C828 C829 1.349 . S
C828 C830 1.327 . S
C828 H853 0.950 . S
C829 C828 1.349 . S
C829 C845 1.349 . S
C830 C828 1.327 . S
C830 C849 1.429 . S
C830 H854 0.950 . S
C831 C848 1.574 . S
C831 C850 1.368 . S
C831 H855 0.949 . S
H832 C836 0.949 . S
C833 C834 1.349 . S
C833 C835 1.327 . S
C833 H856 0.950 . S
C834 C833 1.349 . S
C834 C846 1.349 . S
C835 C833 1.327 . S
C835 C851 1.429 . S
C835 H857 0.950 . S
C836 H832 0.949 . S
C836 C844 1.574 . S
C836 C852 1.368 . S
H837 C845 0.950 . S
H838 C843 0.950 . S
H839 C844 0.949 . S
H840 C846 0.950 . S
H841 C847 0.950 . S
H842 C848 0.949 . S
C843 H838 0.950 . S
C843 C845 1.327 . S
C843 C849 1.429 . S
C844 C836 1.574 . S
C844 H839 0.949 . S
C844 C850 1.368 . S
C845 C829 1.349 . S
C845 H837 0.950 . S
C845 C843 1.327 . S
C846 C834 1.349 . S
C846 H840 0.950 . S
C846 C847 1.327 . S
C847 H841 0.950 . S
C847 C846 1.327 . S
C847 C851 1.429 . S
C848 C831 1.574 . S
C848 H842 0.949 . S
C848 C852 1.368 . S
C849 C830 1.429 . S
C849 C843 1.429 . S
C849 C850 1.523 . S
C850 C831 1.368 . S
C850 C844 1.368 . S
C850 C849 1.523 . S
C851 C835 1.429 . S
C851 C847 1.429 . S
C851 C852 1.523 . S
C852 C836 1.368 . S
C852 C848 1.368 . S
C852 C851 1.523 . S
H853 C828 0.950 . S
H854 C830 0.950 . S
H855 C831 0.949 . S
H856 C833 0.950 . S
H857 C835 0.950 . S
C858 C859 1.349 . S
C858 C860 1.327 . S
C858 H883 0.950 . S
C859 C858 1.349 . S
C859 C875 1.349 . S
C860 C858 1.327 . S
C860 C879 1.429 . S
C860 H884 0.950 . S
C861 C878 1.574 . S
C861 C880 1.368 . S
C861 H885 0.949 . S
H862 C866 0.949 . S
C863 C864 1.349 . S
C863 C865 1.327 . S
C863 H886 0.950 . S
C864 C863 1.349 . S
C864 C876 1.349 . S
C865 C863 1.327 . S
C865 C881 1.429 . S
C865 H887 0.950 . S
C866 H862 0.949 . S
C866 C874 1.574 1_554 S
C866 C882 1.368 . S
H867 C875 0.950 . S
H868 C873 0.950 . S
H869 C874 0.949 . S
H870 C876 0.950 . S
H871 C877 0.950 . S
H872 C878 0.949 . S
C873 H868 0.950 . S
C873 C875 1.327 . S
C873 C879 1.429 . S
C874 C866 1.574 1_556 S
C874 H869 0.949 . S
C874 C880 1.368 1_556 S
C875 C859 1.349 . S
C875 H867 0.950 . S
C875 C873 1.327 . S
C876 C864 1.349 . S
C876 H870 0.950 . S
C876 C877 1.327 . S
C877 H871 0.950 . S
C877 C876 1.327 . S
C877 C881 1.429 . S
C878 C861 1.574 . S
C878 H872 0.949 . S
C878 C882 1.368 . S
C879 C860 1.429 . S
C879 C873 1.429 . S
C879 C880 1.523 1_556 S
C880 C861 1.368 . S
C880 C874 1.368 1_554 S
C880 C879 1.523 1_554 S
C881 C865 1.429 . S
C881 C877 1.429 . S
C881 C882 1.523 . S
C882 C866 1.368 . S
C882 C878 1.368 . S
C882 C881 1.523 . S
H883 C858 0.950 . S
H884 C860 0.950 . S
H885 C861 0.949 . S
H886 C863 0.950 . S
H887 C865 0.950 . S
C888 C889 1.349 . S
C888 C890 1.327 . S
C888 H913 0.950 . S
C889 C888 1.349 . S
C889 C905 1.349 . S
C890 C888 1.327 . S
C890 C909 1.429 . S
C890 H914 0.950 . S
C891 C908 1.574 . S
C891 C910 1.368 . S
C891 H915 0.949 . S
H892 C896 0.949 . S
C893 C894 1.349 . S
C893 C895 1.327 . S
C893 H916 0.950 . S
C894 C893 1.349 . S
C894 C906 1.349 . S
C895 C893 1.327 . S
C895 C911 1.429 . S
C895 H917 0.950 . S
C896 H892 0.949 . S
C896 C904 1.574 . S
C896 C912 1.368 . S
H897 C905 0.950 . S
H898 C903 0.950 . S
H899 C904 0.949 . S
H900 C906 0.950 . S
H901 C907 0.950 . S
H902 C908 0.949 . S
C903 H898 0.950 . S
C903 C905 1.327 . S
C903 C909 1.429 . S
C904 C896 1.574 . S
C904 H899 0.949 . S
C904 C910 1.368 . S
C905 C889 1.349 . S
C905 H897 0.950 . S
C905 C903 1.327 . S
C906 C894 1.349 . S
C906 H900 0.950 . S
C906 C907 1.327 . S
C907 H901 0.950 . S
C907 C906 1.327 . S
C907 C911 1.429 . S
C908 C891 1.574 . S
C908 H902 0.949 . S
C908 C912 1.368 . S
C909 C890 1.429 . S
C909 C903 1.429 . S
C909 C910 1.523 . S
C910 C891 1.368 . S
C910 C904 1.368 . S
C910 C909 1.523 . S
C911 C895 1.429 . S
C911 C907 1.429 . S
C911 C912 1.523 . S
C912 C896 1.368 . S
C912 C908 1.368 . S
C912 C911 1.523 . S
H913 C888 0.950 . S
H914 C890 0.950 . S
H915 C891 0.949 . S
H916 C893 0.950 . S
H917 C895 0.950 . S
C918 C919 1.349 . S
C918 C920 1.327 . S
C918 H943 0.950 . S
C919 C918 1.349 . S
C919 C935 1.349 . S
C920 C918 1.327 . S
C920 C939 1.429 . S
C920 H944 0.950 . S
C921 C938 1.574 . S
C921 C940 1.368 . S
C921 H945 0.949 . S
H922 C926 0.949 . S
C923 C924 1.349 . S
C923 C925 1.327 . S
C923 H946 0.950 . S
C924 C923 1.349 . S
C924 C936 1.349 . S
C925 C923 1.327 . S
C925 C941 1.429 . S
C925 H947 0.950 . S
C926 H922 0.949 . S
C926 C934 1.574 . S
C926 C942 1.368 . S
H927 C935 0.950 . S
H928 C933 0.950 . S
H929 C934 0.949 . S
H930 C936 0.950 . S
H931 C937 0.950 . S
H932 C938 0.914 1_565 S
C933 H928 0.950 . S
C933 C935 1.327 . S
C933 C939 1.429 . S
C934 C926 1.574 . S
C934 H929 0.949 . S
C934 C940 1.368 . S
C935 C919 1.349 . S
C935 H927 0.950 . S
C935 C933 1.327 . S
C936 C924 1.349 . S
C936 H930 0.950 . S
C936 C937 1.327 . S
C937 H931 0.950 . S
C937 C936 1.327 . S
C937 C941 1.429 . S
C938 C921 1.574 . S
C938 H932 0.914 1_545 S
C938 C942 1.368 . S
C939 C920 1.429 . S
C939 C933 1.429 . S
C939 C940 1.523 . S
C940 C921 1.368 . S
C940 C934 1.368 . S
C940 C939 1.523 . S
C941 C925 1.429 . S
C941 C937 1.429 . S
C941 C942 1.523 1_565 S
C942 C926 1.368 . S
C942 C938 1.368 . S
C942 C941 1.523 1_545 S
H943 C918 0.950 . S
H944 C920 0.950 . S
H945 C921 0.949 . S
H946 C923 0.950 . S
H947 C925 0.950 . S
C948 C949 1.349 . S
C948 C950 1.327 . S
C948 H973 0.950 . S
C949 C948 1.349 . S
C949 C965 1.349 . S
C950 C948 1.327 . S
C950 C969 1.429 . S
C950 H974 0.950 . S
C951 C968 1.574 . S
C951 C970 1.368 1_565 S
C951 H975 0.949 . S
H952 C956 0.949 . S
C953 C954 1.349 . S
C953 C955 1.327 . S
C953 H976 0.950 . S
C954 C953 1.349 . S
C954 C966 1.349 . S
C955 C953 1.327 . S
C955 C971 1.429 . S
C955 H977 0.950 . S
C956 H952 0.949 . S
C956 C964 1.574 . S
C956 C972 1.368 1_545 S
H957 C965 0.950 . S
H958 C963 0.950 1_565 S
H959 C964 0.949 . S
H960 C966 0.950 . S
H961 C967 0.950 . S
H962 C968 0.949 . S
C963 H958 0.950 1_545 S
C963 C965 1.327 . S
C963 C969 1.429 . S
C964 C956 1.574 . S
C964 H959 0.949 . S
C964 C970 1.368 . S
C965 C949 1.349 . S
C965 H957 0.950 . S
C965 C963 1.327 . S
C966 C954 1.349 . S
C966 H960 0.950 . S
C966 C967 1.327 . S
C967 H961 0.950 . S
C967 C966 1.327 . S
C967 C971 1.429 . S
C968 C951 1.574 . S
C968 H962 0.949 . S
C968 C972 1.368 . S
C969 C950 1.429 . S
C969 C963 1.429 . S
C969 C970 1.523 . S
C970 C951 1.368 1_545 S
C970 C964 1.368 . S
C970 C969 1.523 . S
C971 C955 1.429 . S
C971 C967 1.429 . S
C971 C972 1.523 . S
C972 C956 1.368 1_565 S
C972 C968 1.368 . S
C972 C971 1.523 . S
H973 C948 0.950 . S
H974 C950 0.950 . S
H975 C951 0.949 . S
H976 C953 0.950 . S
H977 C955 0.950 . S
C978 C979 1.349 1_554 S
C978 C980 1.327 1_554 S
C978 H1003 0.950 . S
C979 C978 1.349 1_556 S
C979 C995 1.349 . S
C980 C978 1.327 1_556 S
C980 C999 1.429 1_565 S
C980 H1004 0.950 1_566 S
C981 C998 1.574 . S
C981 C1000 1.368 . S
C981 H1005 0.949 . S
H982 C986 0.949 . S
C983 C984 1.349 . S
C983 C985 1.327 . S
C983 H1006 0.950 . S
C984 C983 1.349 . S
C984 C996 1.349 . S
C985 C983 1.327 . S
C985 C1001 1.429 . S
C985 H1007 0.950 . S
C986 H982 0.949 . S
C986 C994 1.574 . S
C986 C1002 1.368 . S
H987 C995 0.950 . S
H988 C993 0.950 . S
H989 C994 0.949 . S
H990 C996 0.950 . S
H991 C997 0.950 . S
H992 C998 0.949 . S
C993 H988 0.950 . S
C993 C995 1.327 . S
C993 C999 1.429 1_565 S
C994 C986 1.574 . S
C994 H989 0.949 . S
C994 C1000 1.368 . S
C995 C979 1.349 . S
C995 H987 0.950 . S
C995 C993 1.327 . S
C996 C984 1.349 . S
C996 H990 0.950 . S
C996 C997 1.327 . S
C997 H991 0.950 . S
C997 C996 1.327 . S
C997 C1001 1.429 . S
C998 C981 1.574 . S
C998 H992 0.949 . S
C998 C1002 1.368 . S
C999 C980 1.429 1_545 S
C999 C993 1.429 1_545 S
C999 C1000 1.523 . S
C1000 C981 1.368 . S
C1000 C994 1.368 . S
C1000 C999 1.523 . S
C1001 C985 1.429 . S
C1001 C997 1.429 . S
C1001 C1002 1.523 . S
C1002 C986 1.368 . S
C1002 C998 1.368 . S
C1002 C1001 1.523 . S
H1003 C978 0.950 . S
H1004 C980 0.950 1_544 S
H1005 C981 0.949 . S
H1006 C983 0.950 . S
H1007 C985 0.950 . S
C1008 C1009 1.349 . S
C1008 C1010 1.327 . S
C1008 H1033 0.950 . S
C1009 C1008 1.349 . S
C1009 C1025 1.349 . S
C1010 C1008 1.327 . S
C1010 C1029 1.429 . S
C1010 H1034 0.950 . S
C1011 C1028 1.574 . S
C1011 C1030 1.368 . S
C1011 H1035 0.949 . S
H1012 C1016 0.949 . S
C1013 C1014 1.349 . S
C1013 C1015 1.327 . S
C1013 H1036 0.950 . S
C1014 C1013 1.349 . S
C1014 C1026 1.349 . S
C1015 C1013 1.327 . S
C1015 C1031 1.429 . S
C1015 H1037 0.950 . S
C1016 H1012 0.949 . S
C1016 C1024 1.574 . S
C1016 C1032 1.368 . S
H1017 C1025 0.950 . S
H1018 C1023 0.950 . S
H1019 C1024 0.949 . S
H1020 C1026 0.950 . S
H1021 C1027 0.950 . S
H1022 C1028 0.949 . S
C1023 H1018 0.950 . S
C1023 C1025 1.327 . S
C1023 C1029 1.429 . S
C1024 C1016 1.574 . S
C1024 H1019 0.949 . S
C1024 C1030 1.368 . S
C1025 C1009 1.349 . S
C1025 H1017 0.950 . S
C1025 C1023 1.327 . S
C1026 C1014 1.349 . S
C1026 H1020 0.950 . S
C1026 C1027 1.327 . S
C1027 H1021 0.950 . S
C1027 C1026 1.327 . S
C1027 C1031 1.429 . S
C1028 C1011 1.574 . S
C1028 H1022 0.949 . S
C1028 C1032 1.368 . S
C1029 C1010 1.429 . S
C1029 C1023 1.429 . S
C1029 C1030 1.523 . S
C1030 C1011 1.368 . S
C1030 C1024 1.368 . S
C1030 C1029 1.523 . S
C1031 C1015 1.429 . S
C1031 C1027 1.429 . S
C1031 C1032 1.523 . S
C1032 C1016 1.368 . S
C1032 C1028 1.368 . S
C1032 C1031 1.523 . S
H1033 C1008 0.950 . S
H1034 C1010 0.950 . S
H1035 C1011 0.949 . S
H1036 C1013 0.950 . S
H1037 C1015 0.950 . S
C1038 C1039 1.349 . S
C1038 C1040 1.327 . S
C1038 H1063 0.950 . S
C1039 C1038 1.349 . S
C1039 C1055 1.349 . S
C1040 C1038 1.327 . S
C1040 C1059 1.429 . S
C1040 H1064 0.950 . S
C1041 C1058 1.574 . S
C1041 C1060 1.368 . S
C1041 H1065 0.949 . S
H1042 C1046 0.949 . S
C1043 C1044 1.349 . S
C1043 C1045 1.327 . S
C1043 H1066 0.950 . S
C1044 C1043 1.349 . S
C1044 C1056 1.349 . S
C1045 C1043 1.327 . S
C1045 C1061 1.429 1_565 S
C1045 H1067 0.950 1_565 S
C1046 H1042 0.949 . S
C1046 C1054 1.574 . S
C1046 C1062 1.368 . S
H1047 C1055 0.950 . S
H1048 C1053 0.950 . S
H1049 C1054 0.949 . S
H1050 C1056 0.950 . S
H1051 C1057 0.950 1_545 S
H1052 C1058 0.949 . S
C1053 H1048 0.950 . S
C1053 C1055 1.327 . S
C1053 C1059 1.429 . S
C1054 C1046 1.574 . S
C1054 H1049 0.949 . S
C1054 C1060 1.368 . S
C1055 C1039 1.349 . S
C1055 H1047 0.950 . S
C1055 C1053 1.327 . S
C1056 C1044 1.349 . S
C1056 H1050 0.950 . S
C1056 C1057 1.327 . S
C1057 H1051 0.950 1_565 S
C1057 C1056 1.327 . S
C1057 C1061 1.429 1_565 S
C1058 C1041 1.574 . S
C1058 H1052 0.949 . S
C1058 C1062 1.368 . S
C1059 C1040 1.429 . S
C1059 C1053 1.429 . S
C1059 C1060 1.523 . S
C1060 C1041 1.368 . S
C1060 C1054 1.368 . S
C1060 C1059 1.523 . S
C1061 C1045 1.429 1_545 S
C1061 C1057 1.429 1_545 S
C1061 C1062 1.523 . S
C1062 C1046 1.368 . S
C1062 C1058 1.368 . S
C1062 C1061 1.523 . S
H1063 C1038 0.950 . S
H1064 C1040 0.950 . S
H1065 C1041 0.949 . S
H1066 C1043 0.950 . S
H1067 C1045 0.950 1_545 S
C1068 C1069 1.349 . S
C1068 C1070 1.327 . S
C1068 H1093 0.950 . S
C1069 C1068 1.349 . S
C1069 C1085 1.349 . S
C1070 C1068 1.327 . S
C1070 C1089 1.429 . S
C1070 H1094 0.950 . S
C1071 C1088 1.574 . S
C1071 C1090 1.368 . S
C1071 H1095 0.949 . S
H1072 C1076 0.949 . S
C1073 C1074 1.349 . S
C1073 C1075 1.327 . S
C1073 H1096 0.950 . S
C1074 C1073 1.349 . S
C1074 C1086 1.349 . S
C1075 C1073 1.327 . S
C1075 C1091 1.429 . S
C1075 H1097 0.950 . S
C1076 H1072 0.949 . S
C1076 C1084 1.574 . S
C1076 C1092 1.368 . S
H1077 C1085 0.950 . S
H1078 C1083 0.950 . S
H1079 C1084 0.949 . S
H1080 C1086 0.950 . S
H1081 C1087 0.950 . S
H1082 C1088 0.949 . S
C1083 H1078 0.950 . S
C1083 C1085 1.327 . S
C1083 C1089 1.429 . S
C1084 C1076 1.574 . S
C1084 H1079 0.949 . S
C1084 C1090 1.368 . S
C1085 C1069 1.349 . S
C1085 H1077 0.950 . S
C1085 C1083 1.327 . S
C1086 C1074 1.349 . S
C1086 H1080 0.950 . S
C1086 C1087 1.327 . S
C1087 H1081 0.950 . S
C1087 C1086 1.327 . S
C1087 C1091 1.429 . S
C1088 C1071 1.574 . S
C1088 H1082 0.949 . S
C1088 C1092 1.368 . S
C1089 C1070 1.429 . S
C1089 C1083 1.429 . S
C1089 C1090 1.523 . S
C1090 C1071 1.368 . S
C1090 C1084 1.368 . S
C1090 C1089 1.523 . S
C1091 C1075 1.429 . S
C1091 C1087 1.429 . S
C1091 C1092 1.523 . S
C1092 C1076 1.368 . S
C1092 C1088 1.368 . S
C1092 C1091 1.523 . S
H1093 C1068 0.950 . S
H1094 C1070 0.950 . S
H1095 C1071 0.949 . S
H1096 C1073 0.950 . S
H1097 C1075 0.950 . S
C1098 C1099 1.349 . S
C1098 C1100 1.327 . S
C1098 H1123 0.950 . S
C1099 C1098 1.349 . S
C1099 C1115 1.349 . S
C1100 C1098 1.327 . S
C1100 C1119 1.429 . S
C1100 H1124 0.950 1_565 S
C1101 C1118 1.574 . S
C1101 C1120 1.368 . S
C1101 H1125 0.949 . S
H1102 C1106 0.949 . S
C1103 C1104 1.349 . S
C1103 C1105 1.327 . S
C1103 H1126 0.950 . S
C1104 C1103 1.349 . S
C1104 C1116 1.349 . S
C1105 C1103 1.327 . S
C1105 C1121 1.429 . S
C1105 H1127 0.950 . S
C1106 H1102 0.949 . S
C1106 C1114 1.574 . S
C1106 C1122 1.368 . S
H1107 C1115 0.950 . S
H1108 C1113 0.950 . S
H1109 C1114 0.949 . S
H1110 C1116 0.950 . S
H1111 C1117 0.950 . S
H1112 C1118 0.949 . S
C1113 H1108 0.950 . S
C1113 C1115 1.327 . S
C1113 C1119 1.436 . S
C1114 C1106 1.574 . S
C1114 H1109 0.949 . S
C1114 C1120 1.368 . S
C1115 C1099 1.349 . S
C1115 H1107 0.950 . S
C1115 C1113 1.327 . S
C1116 C1104 1.349 . S
C1116 H1110 0.950 . S
C1116 C1117 1.327 . S
C1117 H1111 0.950 . S
C1117 C1116 1.327 . S
C1117 C1121 1.429 . S
C1118 C1101 1.574 . S
C1118 H1112 0.949 . S
C1118 C1122 1.368 . S
C1119 C1100 1.429 . S
C1119 C1113 1.436 . S
C1119 C1120 1.516 1_565 S
C1120 C1101 1.368 . S
C1120 C1114 1.368 . S
C1120 C1119 1.516 1_545 S
C1121 C1105 1.429 . S
C1121 C1117 1.429 . S
C1121 C1122 1.523 . S
C1122 C1106 1.368 . S
C1122 C1118 1.368 . S
C1122 C1121 1.523 . S
H1123 C1098 0.950 . S
H1124 C1100 0.950 1_545 S
H1125 C1101 0.949 . S
H1126 C1103 0.950 . S
H1127 C1105 0.950 . S
C1128 C1129 1.349 . S
C1128 C1130 1.327 . S
C1128 H1153 0.950 . S
C1129 C1128 1.349 . S
C1129 C1145 1.349 . S
C1130 C1128 1.327 . S
C1130 C1149 1.429 . S
C1130 H1154 0.950 . S
C1131 C1148 1.574 . S
C1131 C1150 1.368 . S
C1131 H1155 0.949 . S
H1132 C1136 0.949 . S
C1133 C1134 1.349 . S
C1133 C1135 1.327 . S
C1133 H1156 0.950 . S
C1134 C1133 1.349 . S
C1134 C1146 1.349 . S
C1135 C1133 1.327 . S
C1135 C1151 1.429 . S
C1135 H1157 0.950 . S
C1136 H1132 0.949 . S
C1136 C1144 1.574 . S
C1136 C1152 1.368 . S
H1137 C1145 0.950 . S
H1138 C1143 0.950 . S
H1139 C1144 0.949 . S
H1140 C1146 0.950 . S
H1141 C1147 0.950 . S
H1142 C1148 0.949 . S
C1143 H1138 0.950 . S
C1143 C1145 1.327 . S
C1143 C1149 1.429 . S
C1144 C1136 1.574 . S
C1144 H1139 0.949 . S
C1144 C1150 1.368 . S
C1145 C1129 1.349 . S
C1145 H1137 0.950 . S
C1145 C1143 1.327 . S
C1146 C1134 1.349 . S
C1146 H1140 0.950 . S
C1146 C1147 1.327 . S
C1147 H1141 0.950 . S
C1147 C1146 1.327 . S
C1147 C1151 1.429 . S
C1148 C1131 1.574 . S
C1148 H1142 0.949 . S
C1148 C1152 1.368 . S
C1149 C1130 1.429 . S
C1149 C1143 1.429 . S
C1149 C1150 1.523 . S
C1150 C1131 1.368 . S
C1150 C1144 1.368 . S
C1150 C1149 1.523 . S
C1151 C1135 1.429 . S
C1151 C1147 1.429 . S
C1151 C1152 1.523 . S
C1152 C1136 1.368 . S
C1152 C1148 1.368 . S
C1152 C1151 1.523 . S
H1153 C1128 0.950 . S
H1154 C1130 0.950 . S
H1155 C1131 0.949 . S
H1156 C1133 0.950 . S
H1157 C1135 0.950 . S
C1158 C1159 1.349 . S
C1158 C1160 1.327 . S
C1158 H1183 0.950 1_556 S
C1159 C1158 1.349 . S
C1159 C1175 1.349 . S
C1160 C1158 1.327 . S
C1160 C1179 1.429 . S
C1160 H1184 0.950 . S
C1161 C1178 1.574 . S
C1161 C1180 1.368 . S
C1161 H1185 0.949 . S
H1162 C1166 0.949 . S
C1163 C1164 1.349 . S
C1163 C1165 1.327 . S
C1163 H1186 0.950 . S
C1164 C1163 1.349 . S
C1164 C1176 1.349 . S
C1165 C1163 1.327 . S
C1165 C1181 1.429 . S
C1165 H1187 0.950 . S
C1166 H1162 0.949 . S
C1166 C1174 1.574 . S
C1166 C1182 1.368 . S
H1167 C1175 0.950 . S
H1168 C1173 0.950 . S
H1169 C1174 0.949 . S
H1170 C1176 0.950 . S
H1171 C1177 0.950 . S
H1172 C1178 0.949 . S
C1173 H1168 0.950 . S
C1173 C1175 1.327 . S
C1173 C1179 1.429 . S
C1174 C1166 1.574 . S
C1174 H1169 0.949 . S
C1174 C1180 1.368 . S
C1175 C1159 1.349 . S
C1175 H1167 0.950 . S
C1175 C1173 1.327 . S
C1176 C1164 1.349 . S
C1176 H1170 0.950 . S
C1176 C1177 1.327 . S
C1177 H1171 0.950 . S
C1177 C1176 1.327 . S
C1177 C1181 1.429 . S
C1178 C1161 1.574 . S
C1178 H1172 0.949 . S
C1178 C1182 1.368 . S
C1179 C1160 1.429 . S
C1179 C1173 1.429 . S
C1179 C1180 1.523 . S
C1180 C1161 1.368 . S
C1180 C1174 1.368 . S
C1180 C1179 1.523 . S
C1181 C1165 1.429 . S
C1181 C1177 1.429 . S
C1181 C1182 1.523 . S
C1182 C1166 1.368 . S
C1182 C1178 1.368 . S
C1182 C1181 1.523 . S
H1183 C1158 0.950 1_554 S
H1184 C1160 0.950 . S
H1185 C1161 0.949 . S
H1186 C1163 0.950 . S
H1187 C1165 0.950 . S
C1188 C1189 1.349 . S
C1188 C1190 1.327 . S
C1188 H1213 0.950 . S
C1189 C1188 1.349 . S
C1189 C1205 1.349 . S
C1190 C1188 1.327 . S
C1190 C1209 1.429 . S
C1190 H1214 0.950 . S
C1191 C1208 1.574 . S
C1191 C1210 1.368 . S
C1191 H1215 0.949 . S
H1192 C1196 0.949 . S
C1193 C1194 1.349 . S
C1193 C1195 1.327 . S
C1193 H1216 0.950 . S
C1194 C1193 1.349 . S
C1194 C1206 1.349 . S
C1195 C1193 1.327 . S
C1195 C1211 1.429 . S
C1195 H1217 0.950 . S
C1196 H1192 0.949 . S
C1196 C1204 1.574 . S
C1196 C1212 1.368 . S
H1197 C1205 0.950 . S
H1198 C1203 0.950 . S
H1199 C1204 0.949 . S
H1200 C1206 0.950 . S
H1201 C1207 0.950 1_455 S
H1202 C1208 0.949 . S
C1203 H1198 0.950 . S
C1203 C1205 1.327 . S
C1203 C1209 1.429 . S
C1204 C1196 1.574 . S
C1204 H1199 0.949 . S
C1204 C1210 1.368 . S
C1205 C1189 1.349 . S
C1205 H1197 0.950 . S
C1205 C1203 1.327 . S
C1206 C1194 1.349 . S
C1206 H1200 0.950 . S
C1206 C1207 1.327 . S
C1207 H1201 0.950 1_655 S
C1207 C1206 1.327 . S
C1207 C1211 1.429 . S
C1208 C1191 1.574 . S
C1208 H1202 0.949 . S
C1208 C1212 1.368 . S
C1209 C1190 1.429 . S
C1209 C1203 1.429 . S
C1209 C1210 1.523 . S
C1210 C1191 1.368 . S
C1210 C1204 1.368 . S
C1210 C1209 1.523 . S
C1211 C1195 1.429 . S
C1211 C1207 1.429 . S
C1211 C1212 1.523 1_655 S
C1212 C1196 1.368 . S
C1212 C1208 1.368 . S
C1212 C1211 1.523 1_455 S
H1213 C1188 0.950 . S
H1214 C1190 0.950 . S
H1215 C1191 0.949 . S
H1216 C1193 0.950 . S
H1217 C1195 0.950 . S
C1218 C1219 1.349 . S
C1218 C1220 1.327 . S
C1218 H1243 0.950 . S
C1219 C1218 1.349 . S
C1219 C1235 1.349 . S
C1220 C1218 1.327 . S
C1220 C1239 1.429 . S
C1220 H1244 0.950 . S
C1221 C1238 1.574 . S
C1221 C1240 1.368 . S
C1221 H1245 0.949 . S
H1222 C1226 0.949 . S
C1223 C1224 1.349 . S
C1223 C1225 1.327 . S
C1223 H1246 0.950 . S
C1224 C1223 1.349 . S
C1224 C1236 1.349 . S
C1225 C1223 1.327 . S
C1225 C1241 1.429 . S
C1225 H1247 0.950 . S
C1226 H1222 0.949 . S
C1226 C1234 1.574 . S
C1226 C1242 1.368 . S
H1227 C1235 0.950 . S
H1228 C1233 0.950 . S
H1229 C1234 0.949 . S
H1230 C1236 0.950 . S
H1231 C1237 0.950 . S
H1232 C1238 0.949 . S
C1233 H1228 0.950 . S
C1233 C1235 1.327 . S
C1233 C1239 1.429 . S
C1234 C1226 1.574 . S
C1234 H1229 0.949 . S
C1234 C1240 1.368 . S
C1235 C1219 1.349 . S
C1235 H1227 0.950 . S
C1235 C1233 1.327 . S
C1236 C1224 1.349 . S
C1236 H1230 0.950 . S
C1236 C1237 1.327 . S
C1237 H1231 0.950 . S
C1237 C1236 1.327 . S
C1237 C1241 1.429 . S
C1238 C1221 1.574 . S
C1238 H1232 0.949 . S
C1238 C1242 1.368 . S
C1239 C1220 1.429 . S
C1239 C1233 1.429 . S
C1239 C1240 1.523 . S
C1240 C1221 1.368 . S
C1240 C1234 1.368 . S
C1240 C1239 1.523 . S
C1241 C1225 1.429 . S
C1241 C1237 1.429 . S
C1241 C1242 1.523 . S
C1242 C1226 1.368 . S
C1242 C1238 1.368 . S
C1242 C1241 1.523 . S
H1243 C1218 0.950 . S
H1244 C1220 0.950 . S
H1245 C1221 0.949 . S
H1246 C1223 0.950 . S
H1247 C1225 0.950 . S
C1248 C1249 1.349 . S
C1248 C1250 1.327 . S
C1248 H1273 0.950 . S
C1249 C1248 1.349 . S
C1249 C1265 1.349 . S
C1250 C1248 1.327 . S
C1250 C1269 1.429 . S
C1250 H1274 0.950 . S
C1251 C1268 1.574 . S
C1251 C1270 1.368 . S
C1251 H1275 0.949 . S
H1252 C1256 0.949 . S
C1253 C1254 1.349 . S
C1253 C1255 1.327 . S
C1253 H1276 0.950 . S
C1254 C1253 1.349 . S
C1254 C1266 1.349 . S
C1255 C1253 1.327 . S
C1255 C1271 1.429 . S
C1255 H1277 0.950 . S
C1256 H1252 0.949 . S
C1256 C1264 1.574 . S
C1256 C1272 1.368 . S
H1257 C1265 0.950 . S
H1258 C1263 0.950 . S
H1259 C1264 0.949 . S
H1260 C1266 0.950 . S
H1261 C1267 0.950 . S
H1262 C1268 0.949 . S
C1263 H1258 0.950 . S
C1263 C1265 1.327 . S
C1263 C1269 1.429 . S
C1264 C1256 1.574 . S
C1264 H1259 0.949 . S
C1264 C1270 1.368 . S
C1265 C1249 1.349 . S
C1265 H1257 0.950 . S
C1265 C1263 1.327 . S
C1266 C1254 1.349 . S
C1266 H1260 0.950 . S
C1266 C1267 1.327 . S
C1267 H1261 0.950 . S
C1267 C1266 1.327 . S
C1267 C1271 1.429 . S
C1268 C1251 1.574 . S
C1268 H1262 0.949 . S
C1268 C1272 1.368 . S
C1269 C1250 1.429 . S
C1269 C1263 1.429 . S
C1269 C1270 1.523 1_655 S
C1270 C1251 1.368 . S
C1270 C1264 1.368 . S
C1270 C1269 1.523 1_455 S
C1271 C1255 1.429 . S
C1271 C1267 1.429 . S
C1271 C1272 1.523 . S
C1272 C1256 1.368 . S
C1272 C1268 1.368 . S
C1272 C1271 1.523 . S
H1273 C1248 0.950 . S
H1274 C1250 0.950 . S
H1275 C1251 0.949 . S
H1276 C1253 0.950 . S
H1277 C1255 0.950 . S
C1278 C1279 1.349 . S
C1278 C1280 1.327 . S
C1278 H1303 0.950 . S
C1279 C1278 1.349 . S
C1279 C1295 1.349 . S
C1280 C1278 1.327 . S
C1280 C1299 1.429 . S
C1280 H1304 0.950 . S
C1281 C1298 1.574 . S
C1281 C1300 1.368 . S
C1281 H1305 0.949 . S
H1282 C1286 0.949 . S
C1283 C1284 1.349 . S
C1283 C1285 1.327 . S
C1283 H1306 0.950 . S
C1284 C1283 1.349 . S
C1284 C1296 1.349 . S
C1285 C1283 1.327 . S
C1285 C1301 1.429 . S
C1285 H1307 0.950 . S
C1286 H1282 0.949 . S
C1286 C1294 1.574 . S
C1286 C1302 1.368 . S
H1287 C1295 0.950 . S
H1288 C1293 0.950 . S
H1289 C1294 0.949 . S
H1290 C1296 0.950 . S
H1291 C1297 0.950 . S
H1292 C1298 0.949 . S
C1293 H1288 0.950 . S
C1293 C1295 1.327 . S
C1293 C1299 1.429 . S
C1294 C1286 1.574 . S
C1294 H1289 0.949 . S
C1294 C1300 1.368 . S
C1295 C1279 1.349 . S
C1295 H1287 0.950 . S
C1295 C1293 1.327 . S
C1296 C1284 1.349 . S
C1296 H1290 0.950 . S
C1296 C1297 1.327 . S
C1297 H1291 0.950 . S
C1297 C1296 1.327 . S
C1297 C1301 1.429 . S
C1298 C1281 1.574 . S
C1298 H1292 0.949 . S
C1298 C1302 1.368 . S
C1299 C1280 1.429 . S
C1299 C1293 1.429 . S
C1299 C1300 1.523 . S
C1300 C1281 1.368 . S
C1300 C1294 1.368 . S
C1300 C1299 1.523 . S
C1301 C1285 1.429 . S
C1301 C1297 1.429 . S
C1301 C1302 1.523 . S
C1302 C1286 1.368 . S
C1302 C1298 1.368 . S
C1302 C1301 1.523 . S
H1303 C1278 0.950 . S
H1304 C1280 0.950 . S
H1305 C1281 0.949 . S
H1306 C1283 0.950 . S
H1307 C1285 0.950 . S
C1308 C1309 1.349 . S
C1308 C1310 1.327 . S
C1308 H1333 0.950 . S
C1309 C1308 1.349 . S
C1309 C1325 1.349 . S
C1310 C1308 1.327 . S
C1310 C1329 1.429 . S
C1310 H1334 0.950 . S
C1311 C1328 1.574 . S
C1311 C1330 1.368 . S
C1311 H1335 0.949 . S
H1312 C1316 0.949 . S
C1313 C1314 1.349 . S
C1313 C1315 1.327 . S
C1313 H1336 0.950 . S
C1314 C1313 1.349 . S
C1314 C1326 1.349 . S
C1315 C1313 1.327 . S
C1315 C1331 1.429 . S
C1315 H1337 0.950 . S
C1316 H1312 0.949 . S
C1316 C1324 1.574 . S
C1316 C1332 1.368 . S
H1317 C1325 0.950 . S
H1318 C1323 0.950 . S
H1319 C1324 0.949 . S
H1320 C1326 0.950 . S
H1321 C1327 0.950 . S
H1322 C1328 0.986 . S
C1323 H1318 0.950 . S
C1323 C1325 1.327 . S
C1323 C1329 1.429 . S
C1324 C1316 1.574 . S
C1324 H1319 0.949 . S
C1324 C1330 1.368 . S
C1325 C1309 1.349 . S
C1325 H1317 0.950 . S
C1325 C1323 1.327 . S
C1326 C1314 1.349 . S
C1326 H1320 0.950 . S
C1326 C1327 1.327 . S
C1327 H1321 0.950 . S
C1327 C1326 1.327 . S
C1327 C1331 1.429 . S
C1328 C1311 1.574 . S
C1328 H1322 0.986 . S
C1328 C1332 1.368 . S
C1329 C1310 1.429 . S
C1329 C1323 1.429 . S
C1329 C1330 1.523 . S
C1330 C1311 1.368 . S
C1330 C1324 1.368 . S
C1330 C1329 1.523 . S
C1331 C1315 1.429 . S
C1331 C1327 1.429 . S
C1331 C1332 1.523 1_655 S
C1332 C1316 1.368 . S
C1332 C1328 1.368 . S
C1332 C1331 1.523 1_455 S
H1333 C1308 0.950 . S
H1334 C1310 0.950 . S
H1335 C1311 0.949 . S
H1336 C1313 0.950 . S
H1337 C1315 0.950 . S
C1338 C1339 1.349 . S
C1338 C1340 1.327 . S
C1338 H1363 0.950 . S
C1339 C1338 1.349 . S
C1339 C1355 1.349 . S
C1340 C1338 1.327 . S
C1340 C1359 1.429 . S
C1340 H1364 0.950 . S
C1341 C1358 1.574 . S
C1341 C1360 1.368 . S
C1341 H1365 0.949 . S
H1342 C1346 0.949 . S
C1343 C1344 1.349 . S
C1343 C1345 1.327 . S
C1343 H1366 0.950 . S
C1344 C1343 1.349 . S
C1344 C1356 1.349 . S
C1345 C1343 1.327 . S
C1345 C1361 1.429 . S
C1345 H1367 0.950 . S
C1346 H1342 0.949 . S
C1346 C1354 1.574 . S
C1346 C1362 1.368 . S
H1347 C1355 0.950 . S
H1348 C1353 0.950 . S
H1349 C1354 0.949 . S
H1350 C1356 0.950 . S
H1351 C1357 0.950 . S
H1352 C1358 0.949 . S
C1353 H1348 0.950 . S
C1353 C1355 1.327 . S
C1353 C1359 1.429 . S
C1354 C1346 1.574 . S
C1354 H1349 0.949 . S
C1354 C1360 1.368 . S
C1355 C1339 1.349 . S
C1355 H1347 0.950 . S
C1355 C1353 1.327 . S
C1356 C1344 1.349 . S
C1356 H1350 0.950 . S
C1356 C1357 1.327 . S
C1357 H1351 0.950 . S
C1357 C1356 1.327 . S
C1357 C1361 1.429 . S
C1358 C1341 1.574 . S
C1358 H1352 0.949 . S
C1358 C1362 1.368 . S
C1359 C1340 1.429 . S
C1359 C1353 1.429 . S
C1359 C1360 1.523 . S
C1360 C1341 1.368 . S
C1360 C1354 1.368 . S
C1360 C1359 1.523 . S
C1361 C1345 1.429 . S
C1361 C1357 1.429 . S
C1361 C1362 1.523 . S
C1362 C1346 1.368 . S
C1362 C1358 1.368 . S
C1362 C1361 1.523 . S
H1363 C1338 0.950 . S
H1364 C1340 0.950 . S
H1365 C1341 0.949 . S
H1366 C1343 0.950 . S
H1367 C1345 0.950 . S
C1368 C1369 1.349 . S
C1368 C1370 1.327 . S
C1368 H1393 0.950 . S
C1369 C1368 1.349 . S
C1369 C1385 1.349 . S
C1370 C1368 1.327 . S
C1370 C1389 1.429 . S
C1370 H1394 0.950 . S
C1371 C1388 1.574 . S
C1371 C1390 1.368 . S
C1371 H1395 0.949 . S
H1372 C1376 0.949 . S
C1373 C1374 1.349 . S
C1373 C1375 1.327 . S
C1373 H1396 0.950 . S
C1374 C1373 1.349 . S
C1374 C1386 1.349 . S
C1375 C1373 1.327 . S
C1375 C1391 1.429 . S
C1375 H1397 0.950 . S
C1376 H1372 0.949 . S
C1376 C1384 1.574 . S
C1376 C1392 1.368 . S
H1377 C1385 0.950 1_455 S
H1378 C1383 0.950 . S
H1379 C1384 0.949 . S
H1380 C1386 0.950 . S
H1381 C1387 0.950 . S
H1382 C1388 0.949 . S
C1383 H1378 0.950 . S
C1383 C1385 1.327 . S
C1383 C1389 1.429 . S
C1384 C1376 1.574 . S
C1384 H1379 0.949 . S
C1384 C1390 1.368 . S
C1385 C1369 1.349 . S
C1385 H1377 0.950 1_655 S
C1385 C1383 1.327 . S
C1386 C1374 1.349 . S
C1386 H1380 0.950 . S
C1386 C1387 1.327 . S
C1387 H1381 0.950 . S
C1387 C1386 1.327 . S
C1387 C1391 1.429 . S
C1388 C1371 1.574 . S
C1388 H1382 0.949 . S
C1388 C1392 1.368 . S
C1389 C1370 1.429 . S
C1389 C1383 1.429 . S
C1389 C1390 1.523 . S
C1390 C1371 1.368 . S
C1390 C1384 1.368 . S
C1390 C1389 1.523 . S
C1391 C1375 1.429 . S
C1391 C1387 1.429 . S
C1391 C1392 1.523 . S
C1392 C1376 1.368 . S
C1392 C1388 1.368 . S
C1392 C1391 1.523 . S
H1393 C1368 0.950 . S
H1394 C1370 0.950 . S
H1395 C1371 0.949 . S
H1396 C1373 0.950 . S
H1397 C1375 0.950 . S
C1398 C1399 1.349 . S
C1398 C1400 1.327 . S
C1398 H1423 0.950 . S
C1399 C1398 1.349 . S
C1399 C1415 1.384 . S
C1400 C1398 1.327 . S
C1400 C1419 1.429 . S
C1400 H1424 0.950 . S
C1401 C1418 1.574 . S
C1401 C1420 1.368 . S
C1401 H1425 0.949 . S
H1402 C1406 0.949 . S
C1403 C1404 1.349 . S
C1403 C1405 1.327 . S
C1403 H1426 0.950 . S
C1404 C1403 1.349 . S
C1404 C1416 1.349 . S
C1405 C1403 1.327 . S
C1405 C1421 1.429 . S
C1405 H1427 0.950 . S
C1406 H1402 0.949 . S
C1406 C1414 1.574 1_655 S
C1406 C1422 1.368 . S
H1407 C1415 0.931 1_655 S
H1408 C1413 0.950 . S
H1409 C1414 0.949 . S
H1410 C1416 0.950 . S
H1411 C1417 0.950 . S
H1412 C1418 0.949 . S
C1413 H1408 0.950 . S
C1413 C1415 1.312 1_655 S
C1413 C1419 1.429 1_655 S
C1414 C1406 1.574 1_455 S
C1414 H1409 0.949 . S
C1414 C1420 1.368 1_455 S
C1415 C1399 1.384 . S
C1415 H1407 0.931 1_455 S
C1415 C1413 1.312 1_455 S
C1416 C1404 1.349 . S
C1416 H1410 0.950 . S
C1416 C1417 1.327 . S
C1417 H1411 0.950 . S
C1417 C1416 1.327 . S
C1417 C1421 1.429 . S
C1418 C1401 1.574 . S
C1418 H1412 0.949 . S
C1418 C1422 1.368 . S
C1419 C1400 1.429 . S
C1419 C1413 1.429 1_455 S
C1419 C1420 1.523 1_455 S
C1420 C1401 1.368 . S
C1420 C1414 1.368 1_655 S
C1420 C1419 1.523 1_655 S
C1421 C1405 1.429 . S
C1421 C1417 1.429 . S
C1421 C1422 1.523 . S
C1422 C1406 1.368 . S
C1422 C1418 1.368 . S
C1422 C1421 1.523 . S
H1423 C1398 0.950 . S
H1424 C1400 0.950 . S
H1425 C1401 0.949 . S
H1426 C1403 0.950 . S
H1427 C1405 0.950 . S
C1428 C1429 1.349 . S
C1428 C1430 1.327 . S
C1428 H1453 0.950 . S
C1429 C1428 1.349 . S
C1429 C1445 1.349 . S
C1430 C1428 1.327 . S
C1430 C1449 1.429 . S
C1430 H1454 0.950 . S
C1431 C1448 1.574 . S
C1431 C1450 1.368 . S
C1431 H1455 0.949 . S
H1432 C1436 0.949 . S
C1433 C1434 1.349 . S
C1433 C1435 1.327 . S
C1433 H1456 0.950 . S
C1434 C1433 1.349 . S
C1434 C1446 1.349 . S
C1435 C1433 1.327 . S
C1435 C1451 1.429 . S
C1435 H1457 0.950 . S
C1436 H1432 0.949 . S
C1436 C1444 1.574 . S
C1436 C1452 1.368 . S
H1437 C1445 0.950 . S
H1438 C1443 0.950 . S
H1439 C1444 0.949 . S
H1440 C1446 0.950 . S
H1441 C1447 0.950 . S
H1442 C1448 0.949 . S
C1443 H1438 0.950 . S
C1443 C1445 1.327 . S
C1443 C1449 1.429 . S
C1444 C1436 1.574 . S
C1444 H1439 0.949 . S
C1444 C1450 1.368 . S
C1445 C1429 1.349 . S
C1445 H1437 0.950 . S
C1445 C1443 1.327 . S
C1446 C1434 1.349 . S
C1446 H1440 0.950 . S
C1446 C1447 1.327 . S
C1447 H1441 0.950 . S
C1447 C1446 1.327 . S
C1447 C1451 1.429 . S
C1448 C1431 1.574 . S
C1448 H1442 0.949 . S
C1448 C1452 1.368 . S
C1449 C1430 1.429 . S
C1449 C1443 1.429 . S
C1449 C1450 1.523 . S
C1450 C1431 1.368 . S
C1450 C1444 1.368 . S
C1450 C1449 1.523 . S
C1451 C1435 1.429 . S
C1451 C1447 1.429 . S
C1451 C1452 1.523 . S
C1452 C1436 1.368 . S
C1452 C1448 1.368 . S
C1452 C1451 1.523 . S
H1453 C1428 0.950 . S
H1454 C1430 0.950 . S
H1455 C1431 0.949 . S
H1456 C1433 0.950 . S
H1457 C1435 0.950 . S
C1458 C1459 1.349 . S
C1458 C1460 1.327 . S
C1458 H1483 0.950 . S
C1459 C1458 1.349 . S
C1459 C1475 1.349 . S
C1460 C1458 1.327 . S
C1460 C1479 1.429 . S
C1460 H1484 0.950 . S
C1461 C1478 1.574 1_556 S
C1461 C1480 1.368 . S
C1461 H1485 0.949 . S
H1462 C1466 0.949 . S
C1463 C1464 1.349 . S
C1463 C1465 1.327 . S
C1463 H1486 0.950 . S
C1464 C1463 1.349 . S
C1464 C1476 1.349 . S
C1465 C1463 1.327 . S
C1465 C1481 1.429 . S
C1465 H1487 0.950 . S
C1466 H1462 0.949 . S
C1466 C1474 1.574 1_554 S
C1466 C1482 1.368 . S
H1467 C1475 0.950 . S
H1468 C1473 0.950 . S
H1469 C1474 0.949 . S
H1470 C1476 0.950 . S
H1471 C1477 0.950 . S
H1472 C1478 0.949 . S
C1473 H1468 0.950 . S
C1473 C1475 1.327 . S
C1473 C1479 1.429 . S
C1474 C1466 1.574 1_556 S
C1474 H1469 0.949 . S
C1474 C1480 1.368 . S
C1475 C1459 1.349 . S
C1475 H1467 0.950 . S
C1475 C1473 1.327 . S
C1476 C1464 1.349 . S
C1476 H1470 0.950 . S
C1476 C1477 1.327 . S
C1477 H1471 0.950 . S
C1477 C1476 1.327 . S
C1477 C1481 1.429 . S
C1478 C1461 1.574 1_554 S
C1478 H1472 0.949 . S
C1478 C1482 1.368 . S
C1479 C1460 1.429 . S
C1479 C1473 1.429 . S
C1479 C1480 1.523 . S
C1480 C1461 1.368 . S
C1480 C1474 1.368 . S
C1480 C1479 1.523 . S
C1481 C1465 1.429 . S
C1481 C1477 1.429 . S
C1481 C1482 1.523 . S
C1482 C1466 1.368 . S
C1482 C1478 1.368 . S
C1482 C1481 1.523 . S
H1483 C1458 0.950 . S
H1484 C1460 0.950 . S
H1485 C1461 0.949 . S
H1486 C1463 0.950 . S
H1487 C1465 0.950 . S
C1488 C1489 1.349 . S
C1488 C1490 1.327 1_455 S
C1488 H1513 0.950 . S
C1489 C1488 1.349 . S
C1489 C1505 1.349 . S
C1490 C1488 1.327 1_655 S
C1490 C1509 1.429 . S
C1490 H1514 0.950 . S
C1491 C1508 1.574 . S
C1491 C1510 1.368 . S
C1491 H1515 0.963 . S
H1492 C1496 0.949 . S
C1493 C1494 1.349 . S
C1493 C1495 1.327 . S
C1493 H1516 0.950 . S
C1494 C1493 1.349 . S
C1494 C1506 1.349 . S
C1495 C1493 1.327 . S
C1495 C1511 1.429 . S
C1495 H1517 0.950 . S
C1496 H1492 0.949 . S
C1496 C1504 1.574 . S
C1496 C1512 1.368 . S
H1497 C1505 0.950 . S
H1498 C1503 0.950 . S
H1499 C1504 0.949 . S
H1500 C1506 0.950 . S
H1501 C1507 0.950 . S
H1502 C1508 0.949 . S
C1503 H1498 0.950 . S
C1503 C1505 1.327 . S
C1503 C1509 1.429 1_455 S
C1504 C1496 1.574 . S
C1504 H1499 0.949 . S
C1504 C1510 1.368 . S
C1505 C1489 1.349 . S
C1505 H1497 0.950 . S
C1505 C1503 1.327 . S
C1506 C1494 1.349 . S
C1506 H1500 0.950 . S
C1506 C1507 1.327 . S
C1507 H1501 0.950 . S
C1507 C1506 1.327 . S
C1507 C1511 1.429 . S
C1508 C1491 1.574 . S
C1508 H1502 0.949 . S
C1508 C1512 1.368 . S
C1509 C1490 1.429 . S
C1509 C1503 1.429 1_655 S
C1509 C1510 1.523 . S
C1510 C1491 1.368 . S
C1510 C1504 1.368 . S
C1510 C1509 1.523 . S
C1511 C1495 1.429 . S
C1511 C1507 1.429 . S
C1511 C1512 1.523 . S
C1512 C1496 1.368 . S
C1512 C1508 1.368 . S
C1512 C1511 1.523 . S
H1513 C1488 0.950 . S
H1514 C1490 0.950 . S
H1515 C1491 0.963 . S
H1516 C1493 0.950 . S
H1517 C1495 0.950 . S
C1518 C1519 1.349 . S
C1518 C1520 1.327 . S
C1518 H1543 0.950 . S
C1519 C1518 1.349 . S
C1519 C1535 1.349 . S
C1520 C1518 1.327 . S
C1520 C1539 1.429 . S
C1520 H1544 0.950 . S
C1521 C1538 1.574 . S
C1521 C1540 1.368 . S
C1521 H1545 0.949 . S
H1522 C1526 0.949 . S
C1523 C1524 1.349 . S
C1523 C1525 1.327 . S
C1523 H1546 0.950 . S
C1524 C1523 1.349 . S
C1524 C1536 1.349 . S
C1525 C1523 1.327 . S
C1525 C1541 1.429 . S
C1525 H1547 0.950 . S
C1526 H1522 0.949 . S
C1526 C1534 1.574 . S
C1526 C1542 1.368 . S
H1527 C1535 0.950 . S
H1528 C1533 0.950 . S
H1529 C1534 0.949 . S
H1530 C1536 0.950 . S
H1531 C1537 0.950 . S
H1532 C1538 0.949 . S
C1533 H1528 0.950 . S
C1533 C1535 1.327 . S
C1533 C1539 1.429 . S
C1534 C1526 1.574 . S
C1534 H1529 0.949 . S
C1534 C1540 1.368 . S
C1535 C1519 1.349 . S
C1535 H1527 0.950 . S
C1535 C1533 1.327 . S
C1536 C1524 1.349 . S
C1536 H1530 0.950 . S
C1536 C1537 1.327 . S
C1537 H1531 0.950 . S
C1537 C1536 1.327 . S
C1537 C1541 1.429 . S
C1538 C1521 1.574 . S
C1538 H1532 0.949 . S
C1538 C1542 1.368 . S
C1539 C1520 1.429 . S
C1539 C1533 1.429 . S
C1539 C1540 1.523 . S
C1540 C1521 1.368 . S
C1540 C1534 1.368 . S
C1540 C1539 1.523 . S
C1541 C1525 1.429 . S
C1541 C1537 1.429 . S
C1541 C1542 1.523 . S
C1542 C1526 1.368 . S
C1542 C1538 1.368 . S
C1542 C1541 1.523 . S
H1543 C1518 0.950 . S
H1544 C1520 0.950 . S
H1545 C1521 0.949 . S
H1546 C1523 0.950 . S
H1547 C1525 0.950 . S
C1548 C1549 1.349 . S
C1548 C1550 1.327 . S
C1548 H1573 0.950 . S
C1549 C1548 1.349 . S
C1549 C1565 1.349 . S
C1550 C1548 1.327 . S
C1550 C1569 1.429 . S
C1550 H1574 0.950 . S
C1551 C1568 1.574 . S
C1551 C1570 1.368 . S
C1551 H1575 0.949 . S
H1552 C1556 0.949 . S
C1553 C1554 1.349 . S
C1553 C1555 1.327 . S
C1553 H1576 0.950 . S
C1554 C1553 1.349 . S
C1554 C1566 1.349 . S
C1555 C1553 1.327 . S
C1555 C1571 1.429 . S
C1555 H1577 0.950 . S
C1556 H1552 0.949 . S
C1556 C1564 1.574 . S
C1556 C1572 1.368 . S
H1557 C1565 0.950 . S
H1558 C1563 0.950 . S
H1559 C1564 0.949 . S
H1560 C1566 0.950 . S
H1561 C1567 0.950 . S
H1562 C1568 0.949 . S
C1563 H1558 0.950 . S
C1563 C1565 1.327 . S
C1563 C1569 1.429 . S
C1564 C1556 1.574 . S
C1564 H1559 0.949 . S
C1564 C1570 1.368 . S
C1565 C1549 1.349 . S
C1565 H1557 0.950 . S
C1565 C1563 1.327 . S
C1566 C1554 1.349 . S
C1566 H1560 0.950 . S
C1566 C1567 1.327 . S
C1567 H1561 0.950 . S
C1567 C1566 1.327 . S
C1567 C1571 1.429 . S
C1568 C1551 1.574 . S
C1568 H1562 0.949 . S
C1568 C1572 1.368 . S
C1569 C1550 1.429 . S
C1569 C1563 1.429 . S
C1569 C1570 1.523 . S
C1570 C1551 1.368 . S
C1570 C1564 1.368 . S
C1570 C1569 1.523 . S
C1571 C1555 1.429 . S
C1571 C1567 1.429 . S
C1571 C1572 1.523 . S
C1572 C1556 1.368 . S
C1572 C1568 1.368 . S
C1572 C1571 1.523 . S
H1573 C1548 0.950 . S
H1574 C1550 0.950 . S
H1575 C1551 0.949 . S
H1576 C1553 0.950 . S
H1577 C1555 0.950 . S
C1578 C1579 1.349 . S
C1578 C1580 1.327 . S
C1578 H1603 0.950 . S
C1579 C1578 1.349 . S
C1579 C1595 1.349 . S
C1580 C1578 1.327 . S
C1580 C1599 1.429 . S
C1580 H1604 0.950 . S
C1581 C1598 1.564 1_554 S
C1581 C1600 1.368 . S
C1581 H1605 0.949 . S
H1582 C1586 0.949 . S
C1583 C1584 1.349 . S
C1583 C1585 1.327 . S
C1583 H1606 0.950 . S
C1584 C1583 1.349 . S
C1584 C1596 1.349 . S
C1585 C1583 1.327 . S
C1585 C1601 1.429 . S
C1585 H1607 0.950 . S
C1586 H1582 0.949 . S
C1586 C1594 1.574 1_556 S
C1586 C1602 1.368 . S
H1587 C1595 0.961 . S
H1588 C1593 0.950 . S
H1589 C1594 0.949 . S
H1590 C1596 0.950 . S
H1591 C1597 0.950 . S
H1592 C1598 0.953 . S
C1593 H1588 0.950 . S
C1593 C1595 1.327 . S
C1593 C1599 1.429 . S
C1594 C1586 1.574 1_554 S
C1594 H1589 0.949 . S
C1594 C1600 1.368 . S
C1595 C1579 1.349 . S
C1595 H1587 0.961 . S
C1595 C1593 1.327 . S
C1596 C1584 1.349 . S
C1596 H1590 0.950 . S
C1596 C1597 1.327 . S
C1597 H1591 0.950 . S
C1597 C1596 1.327 . S
C1597 C1601 1.429 . S
C1598 C1581 1.564 1_556 S
C1598 H1592 0.953 . S
C1598 C1602 1.374 . S
C1599 C1580 1.429 . S
C1599 C1593 1.429 . S
C1599 C1600 1.523 . S
C1600 C1581 1.368 . S
C1600 C1594 1.368 . S
C1600 C1599 1.523 . S
C1601 C1585 1.429 . S
C1601 C1597 1.429 . S
C1601 C1602 1.523 . S
C1602 C1586 1.368 . S
C1602 C1598 1.374 . S
C1602 C1601 1.523 . S
H1603 C1578 0.950 . S
H1604 C1580 0.950 . S
H1605 C1581 0.949 . S
H1606 C1583 0.950 . S
H1607 C1585 0.950 . S
C1608 C1609 1.349 . S
C1608 C1610 1.327 1_545 S
C1608 H1633 0.950 . S
C1609 C1608 1.349 . S
C1609 C1625 1.349 . S
C1610 C1608 1.327 1_565 S
C1610 C1629 1.429 1_565 S
C1610 H1634 0.950 . S
C1611 C1628 1.574 1_545 S
C1611 C1630 1.368 1_545 S
C1611 H1635 0.949 . S
H1612 C1616 0.949 . S
C1613 C1614 1.349 . S
C1613 C1615 1.327 . S
C1613 H1636 0.950 . S
C1614 C1613 1.349 . S
C1614 C1626 1.349 . S
C1615 C1613 1.327 . S
C1615 C1631 1.429 . S
C1615 H1637 0.950 . S
C1616 H1612 0.949 . S
C1616 C1624 1.574 . S
C1616 C1632 1.368 . S
H1617 C1625 0.950 . S
H1618 C1623 0.950 . S
H1619 C1624 0.949 . S
H1620 C1626 0.950 . S
H1621 C1627 0.950 . S
H1622 C1628 0.949 . S
C1623 H1618 0.950 . S
C1623 C1625 1.327 . S
C1623 C1629 1.429 . S
C1624 C1616 1.574 . S
C1624 H1619 0.949 . S
C1624 C1630 1.368 . S
C1625 C1609 1.349 . S
C1625 H1617 0.950 . S
C1625 C1623 1.327 . S
C1626 C1614 1.349 . S
C1626 H1620 0.950 . S
C1626 C1627 1.327 . S
C1627 H1621 0.950 . S
C1627 C1626 1.327 . S
C1627 C1631 1.429 . S
C1628 C1611 1.574 1_565 S
C1628 H1622 0.949 . S
C1628 C1632 1.368 . S
C1629 C1610 1.429 1_545 S
C1629 C1623 1.429 . S
C1629 C1630 1.523 1_545 S
C1630 C1611 1.368 1_565 S
C1630 C1624 1.368 . S
C1630 C1629 1.523 1_565 S
C1631 C1615 1.429 . S
C1631 C1627 1.429 . S
C1631 C1632 1.523 . S
C1632 C1616 1.368 . S
C1632 C1628 1.368 . S
C1632 C1631 1.523 . S
H1633 C1608 0.950 . S
H1634 C1610 0.950 . S
H1635 C1611 0.949 . S
H1636 C1613 0.950 . S
H1637 C1615 0.950 . S
C1638 C1639 1.349 . S
C1638 C1640 1.327 1_565 S
C1638 H1663 0.950 . S
C1639 C1638 1.349 . S
C1639 C1655 1.349 . S
C1640 C1638 1.327 1_545 S
C1640 C1659 1.429 . S
C1640 H1664 0.950 . S
C1641 C1658 1.574 . S
C1641 C1660 1.368 . S
C1641 H1665 0.949 . S
H1642 C1646 0.949 . S
C1643 C1644 1.349 . S
C1643 C1645 1.327 . S
C1643 H1666 0.950 . S
C1644 C1643 1.349 . S
C1644 C1656 1.349 . S
C1645 C1643 1.327 . S
C1645 C1661 1.429 . S
C1645 H1667 0.950 . S
C1646 H1642 0.949 . S
C1646 C1654 1.574 . S
C1646 C1662 1.368 . S
H1647 C1655 0.950 . S
H1648 C1653 0.950 . S
H1649 C1654 0.949 . S
H1650 C1656 0.950 . S
H1651 C1657 0.950 . S
H1652 C1658 0.949 . S
C1653 H1648 0.950 . S
C1653 C1655 1.327 . S
C1653 C1659 1.429 1_565 S
C1654 C1646 1.574 . S
C1654 H1649 0.949 . S
C1654 C1660 1.368 . S
C1655 C1639 1.349 . S
C1655 H1647 0.950 . S
C1655 C1653 1.327 . S
C1656 C1644 1.349 . S
C1656 H1650 0.950 . S
C1656 C1657 1.327 . S
C1657 H1651 0.950 . S
C1657 C1656 1.327 . S
C1657 C1661 1.429 . S
C1658 C1641 1.574 . S
C1658 H1652 0.949 . S
C1658 C1662 1.368 . S
C1659 C1640 1.429 . S
C1659 C1653 1.429 1_545 S
C1659 C1660 1.523 . S
C1660 C1641 1.368 . S
C1660 C1654 1.368 . S
C1660 C1659 1.523 . S
C1661 C1645 1.429 . S
C1661 C1657 1.429 . S
C1661 C1662 1.523 . S
C1662 C1646 1.368 . S
C1662 C1658 1.368 . S
C1662 C1661 1.523 . S
H1663 C1638 0.950 . S
H1664 C1640 0.950 . S
H1665 C1641 0.949 . S
H1666 C1643 0.950 . S
H1667 C1645 0.950 . S
C1668 C1669 1.349 . S
C1668 C1670 1.327 . S
C1668 H1693 0.950 . S
C1669 C1668 1.349 . S
C1669 C1685 1.349 . S
C1670 C1668 1.327 . S
C1670 C1689 1.429 . S
C1670 H1694 0.950 . S
C1671 C1688 1.574 . S
C1671 C1690 1.368 . S
C1671 H1695 0.949 . S
H1672 C1676 0.949 . S
C1673 C1674 1.349 . S
C1673 C1675 1.327 . S
C1673 H1696 0.950 . S
C1674 C1673 1.349 . S
C1674 C1686 1.349 . S
C1675 C1673 1.327 . S
C1675 C1691 1.429 . S
C1675 H1697 0.950 . S
C1676 H1672 0.949 . S
C1676 C1684 1.574 . S
C1676 C1692 1.368 . S
H1677 C1685 0.950 . S
H1678 C1683 0.950 . S
H1679 C1684 0.949 . S
H1680 C1686 0.950 . S
H1681 C1687 0.950 . S
H1682 C1688 0.949 . S
C1683 H1678 0.950 . S
C1683 C1685 1.327 . S
C1683 C1689 1.429 . S
C1684 C1676 1.574 . S
C1684 H1679 0.949 . S
C1684 C1690 1.368 . S
C1685 C1669 1.349 . S
C1685 H1677 0.950 . S
C1685 C1683 1.327 . S
C1686 C1674 1.349 . S
C1686 H1680 0.950 . S
C1686 C1687 1.327 . S
C1687 H1681 0.950 . S
C1687 C1686 1.327 . S
C1687 C1691 1.429 . S
C1688 C1671 1.574 . S
C1688 H1682 0.949 . S
C1688 C1692 1.368 . S
C1689 C1670 1.429 . S
C1689 C1683 1.429 . S
C1689 C1690 1.523 . S
C1690 C1671 1.368 . S
C1690 C1684 1.368 . S
C1690 C1689 1.523 . S
C1691 C1675 1.429 . S
C1691 C1687 1.429 . S
C1691 C1692 1.523 . S
C1692 C1676 1.368 . S
C1692 C1688 1.368 . S
C1692 C1691 1.523 . S
H1693 C1668 0.950 . S
H1694 C1670 0.950 . S
H1695 C1671 0.949 . S
H1696 C1673 0.950 . S
H1697 C1675 0.950 . S
C1698 C1699 1.349 . S
C1698 C1700 1.327 . S
C1698 H1723 0.950 . S
C1699 C1698 1.349 . S
C1699 C1715 1.349 . S
C1700 C1698 1.327 . S
C1700 C1719 1.429 . S
C1700 H1724 0.950 . S
C1701 C1718 1.574 . S
C1701 C1720 1.368 . S
C1701 H1725 0.949 . S
H1702 C1706 0.949 . S
C1703 C1704 1.349 . S
C1703 C1705 1.327 . S
C1703 H1726 0.950 . S
C1704 C1703 1.349 . S
C1704 C1716 1.349 . S
C1705 C1703 1.327 . S
C1705 C1721 1.430 . S
C1705 H1727 0.950 1_565 S
C1706 H1702 0.949 . S
C1706 C1714 1.574 . S
C1706 C1722 1.368 . S
H1707 C1715 0.950 . S
H1708 C1713 0.950 . S
H1709 C1714 0.949 . S
H1710 C1716 0.950 . S
H1711 C1717 0.950 . S
H1712 C1718 0.949 . S
C1713 H1708 0.950 . S
C1713 C1715 1.327 . S
C1713 C1719 1.429 . S
C1714 C1706 1.574 . S
C1714 H1709 0.949 . S
C1714 C1720 1.368 . S
C1715 C1699 1.349 . S
C1715 H1707 0.950 . S
C1715 C1713 1.327 . S
C1716 C1704 1.349 . S
C1716 H1710 0.950 . S
C1716 C1717 1.327 . S
C1717 H1711 0.950 . S
C1717 C1716 1.327 . S
C1717 C1721 1.441 . S
C1718 C1701 1.574 . S
C1718 H1712 0.949 . S
C1718 C1722 1.368 . S
C1719 C1700 1.429 . S
C1719 C1713 1.429 . S
C1719 C1720 1.523 . S
C1720 C1701 1.368 . S
C1720 C1714 1.368 . S
C1720 C1719 1.523 . S
C1721 C1705 1.430 . S
C1721 C1717 1.441 . S
C1721 C1722 1.510 1_565 S
C1722 C1706 1.368 . S
C1722 C1718 1.368 . S
C1722 C1721 1.510 1_545 S
H1723 C1698 0.950 . S
H1724 C1700 0.950 . S
H1725 C1701 0.949 . S
H1726 C1703 0.950 . S
H1727 C1705 0.950 1_545 S
C1728 C1729 1.349 . S
C1728 C1730 1.327 . S
C1728 H1753 0.950 . S
C1729 C1728 1.349 . S
C1729 C1745 1.349 . S
C1730 C1728 1.327 . S
C1730 C1749 1.429 . S
C1730 H1754 0.950 . S
C1731 C1748 1.574 . S
C1731 C1750 1.368 . S
C1731 H1755 0.949 . S
H1732 C1736 0.949 . S
C1733 C1734 1.349 . S
C1733 C1735 1.327 . S
C1733 H1756 0.950 . S
C1734 C1733 1.349 . S
C1734 C1746 1.349 . S
C1735 C1733 1.327 . S
C1735 C1751 1.429 . S
C1735 H1757 0.950 . S
C1736 H1732 0.949 . S
C1736 C1744 1.574 . S
C1736 C1752 1.368 . S
H1737 C1745 0.950 . S
H1738 C1743 0.950 . S
H1739 C1744 0.949 . S
H1740 C1746 0.950 . S
H1741 C1747 0.950 . S
H1742 C1748 0.949 . S
C1743 H1738 0.950 . S
C1743 C1745 1.327 . S
C1743 C1749 1.429 . S
C1744 C1736 1.574 . S
C1744 H1739 0.949 . S
C1744 C1750 1.368 . S
C1745 C1729 1.349 . S
C1745 H1737 0.950 . S
C1745 C1743 1.327 . S
C1746 C1734 1.349 . S
C1746 H1740 0.950 . S
C1746 C1747 1.327 . S
C1747 H1741 0.950 . S
C1747 C1746 1.327 . S
C1747 C1751 1.429 . S
C1748 C1731 1.574 . S
C1748 H1742 0.949 . S
C1748 C1752 1.368 . S
C1749 C1730 1.429 . S
C1749 C1743 1.429 . S
C1749 C1750 1.523 . S
C1750 C1731 1.368 . S
C1750 C1744 1.368 . S
C1750 C1749 1.523 . S
C1751 C1735 1.429 . S
C1751 C1747 1.429 . S
C1751 C1752 1.523 . S
C1752 C1736 1.368 . S
C1752 C1748 1.368 . S
C1752 C1751 1.523 . S
H1753 C1728 0.950 . S
H1754 C1730 0.950 . S
H1755 C1731 0.949 . S
H1756 C1733 0.950 . S
H1757 C1735 0.950 . S
C1758 C1759 1.349 . S
C1758 C1760 1.318 1_565 S
C1758 H1783 0.950 . S
C1759 C1758 1.349 . S
C1759 C1775 1.349 . S
C1760 C1758 1.318 1_545 S
C1760 C1779 1.430 1_545 S
C1760 H1784 0.959 . S
C1761 C1778 1.574 . S
C1761 C1780 1.368 . S
C1761 H1785 0.932 1_545 S
H1762 C1766 0.949 . S
C1763 C1764 1.349 . S
C1763 C1765 1.327 . S
C1763 H1786 0.950 . S
C1764 C1763 1.349 . S
C1764 C1776 1.349 . S
C1765 C1763 1.327 . S
C1765 C1781 1.429 . S
C1765 H1787 0.950 . S
C1766 H1762 0.949 . S
C1766 C1774 1.574 . S
C1766 C1782 1.368 . S
H1767 C1775 0.950 . S
H1768 C1773 0.950 . S
H1769 C1774 0.949 . S
H1770 C1776 0.950 . S
H1771 C1777 0.950 . S
H1772 C1778 0.949 . S
C1773 H1768 0.950 . S
C1773 C1775 1.327 . S
C1773 C1779 1.476 . S
C1774 C1766 1.574 . S
C1774 H1769 0.949 . S
C1774 C1780 1.368 . S
C1775 C1759 1.349 . S
C1775 H1767 0.950 . S
C1775 C1773 1.327 . S
C1776 C1764 1.349 . S
C1776 H1770 0.950 . S
C1776 C1777 1.327 . S
C1777 H1771 0.950 . S
C1777 C1776 1.327 . S
C1777 C1781 1.429 . S
C1778 C1761 1.574 . S
C1778 H1772 0.949 . S
C1778 C1782 1.368 . S
C1779 C1760 1.430 1_565 S
C1779 C1773 1.476 . S
C1779 C1780 1.479 1_565 S
C1780 C1761 1.368 . S
C1780 C1774 1.368 . S
C1780 C1779 1.479 1_545 S
C1781 C1765 1.429 . S
C1781 C1777 1.429 . S
C1781 C1782 1.523 . S
C1782 C1766 1.368 . S
C1782 C1778 1.368 . S
C1782 C1781 1.523 . S
H1783 C1758 0.950 . S
H1784 C1760 0.959 . S
H1785 C1761 0.932 1_565 S
H1786 C1763 0.950 . S
H1787 C1765 0.950 . S
C1788 C1789 1.349 . S
C1788 C1790 1.327 . S
C1788 H1813 0.950 . S
C1789 C1788 1.349 . S
C1789 C1805 1.349 . S
C1790 C1788 1.327 . S
C1790 C1809 1.429 . S
C1790 H1814 0.950 . S
C1791 C1808 1.574 . S
C1791 C1810 1.368 . S
C1791 H1815 0.949 . S
H1792 C1796 0.949 . S
C1793 C1794 1.349 . S
C1793 C1795 1.327 . S
C1793 H1816 0.950 . S
C1794 C1793 1.349 . S
C1794 C1806 1.349 . S
C1795 C1793 1.327 . S
C1795 C1811 1.429 . S
C1795 H1817 0.950 . S
C1796 H1792 0.949 . S
C1796 C1804 1.574 . S
C1796 C1812 1.368 . S
H1797 C1805 0.950 . S
H1798 C1803 0.950 . S
H1799 C1804 0.949 . S
H1800 C1806 0.950 . S
H1801 C1807 0.950 . S
H1802 C1808 0.949 . S
C1803 H1798 0.950 . S
C1803 C1805 1.327 . S
C1803 C1809 1.429 . S
C1804 C1796 1.574 . S
C1804 H1799 0.949 . S
C1804 C1810 1.368 . S
C1805 C1789 1.349 . S
C1805 H1797 0.950 . S
C1805 C1803 1.327 . S
C1806 C1794 1.349 . S
C1806 H1800 0.950 . S
C1806 C1807 1.327 . S
C1807 H1801 0.950 . S
C1807 C1806 1.327 . S
C1807 C1811 1.429 . S
C1808 C1791 1.574 . S
C1808 H1802 0.949 . S
C1808 C1812 1.368 . S
C1809 C1790 1.429 . S
C1809 C1803 1.429 . S
C1809 C1810 1.523 . S
C1810 C1791 1.368 . S
C1810 C1804 1.368 . S
C1810 C1809 1.523 . S
C1811 C1795 1.429 . S
C1811 C1807 1.429 . S
C1811 C1812 1.523 . S
C1812 C1796 1.368 . S
C1812 C1808 1.368 . S
C1812 C1811 1.523 . S
H1813 C1788 0.950 . S
H1814 C1790 0.950 . S
H1815 C1791 0.949 . S
H1816 C1793 0.950 . S
H1817 C1795 0.950 . S
C1818 C1819 1.349 . S
C1818 C1820 1.327 . S
C1818 H1843 0.950 . S
C1819 C1818 1.349 . S
C1819 C1835 1.349 . S
C1820 C1818 1.327 . S
C1820 C1839 1.429 . S
C1820 H1844 0.950 . S
C1821 C1838 1.574 . S
C1821 C1840 1.368 . S
C1821 H1845 0.949 . S
H1822 C1826 0.949 . S
C1823 C1824 1.349 . S
C1823 C1825 1.327 . S
C1823 H1846 0.950 . S
C1824 C1823 1.349 . S
C1824 C1836 1.349 . S
C1825 C1823 1.327 . S
C1825 C1841 1.429 1_565 S
C1825 H1847 0.950 . S
C1826 H1822 0.949 . S
C1826 C1834 1.574 . S
C1826 C1842 1.368 . S
H1827 C1835 0.950 . S
H1828 C1833 0.950 . S
H1829 C1834 0.949 . S
H1830 C1836 0.950 . S
H1831 C1837 0.950 . S
H1832 C1838 0.949 . S
C1833 H1828 0.950 . S
C1833 C1835 1.327 . S
C1833 C1839 1.429 . S
C1834 C1826 1.574 . S
C1834 H1829 0.949 . S
C1834 C1840 1.368 . S
C1835 C1819 1.349 . S
C1835 H1827 0.950 . S
C1835 C1833 1.327 . S
C1836 C1824 1.349 . S
C1836 H1830 0.950 . S
C1836 C1837 1.327 1_565 S
C1837 H1831 0.950 . S
C1837 C1836 1.327 1_545 S
C1837 C1841 1.429 . S
C1838 C1821 1.574 . S
C1838 H1832 0.949 . S
C1838 C1842 1.368 . S
C1839 C1820 1.429 . S
C1839 C1833 1.429 . S
C1839 C1840 1.523 . S
C1840 C1821 1.368 . S
C1840 C1834 1.368 . S
C1840 C1839 1.523 . S
C1841 C1825 1.429 1_545 S
C1841 C1837 1.429 . S
C1841 C1842 1.523 . S
C1842 C1826 1.368 . S
C1842 C1838 1.368 . S
C1842 C1841 1.523 . S
H1843 C1818 0.950 . S
H1844 C1820 0.950 . S
H1845 C1821 0.949 . S
H1846 C1823 0.950 . S
H1847 C1825 0.950 . S
C1848 C1849 1.349 . S
C1848 C1850 1.327 . S
C1848 H1873 0.950 1_556 S
C1849 C1848 1.349 . S
C1849 C1865 1.349 . S
C1850 C1848 1.327 . S
C1850 C1869 1.429 . S
C1850 H1874 0.950 . S
C1851 C1868 1.574 . S
C1851 C1870 1.368 . S
C1851 H1875 0.949 . S
H1852 C1856 0.949 . S
C1853 C1854 1.349 . S
C1853 C1855 1.327 . S
C1853 H1876 0.950 . S
C1854 C1853 1.349 . S
C1854 C1866 1.349 . S
C1855 C1853 1.327 . S
C1855 C1871 1.429 . S
C1855 H1877 0.950 . S
C1856 H1852 0.949 . S
C1856 C1864 1.574 . S
C1856 C1872 1.368 . S
H1857 C1865 0.950 . S
H1858 C1863 0.950 . S
H1859 C1864 0.949 . S
H1860 C1866 0.950 . S
H1861 C1867 0.950 . S
H1862 C1868 0.949 . S
C1863 H1858 0.950 . S
C1863 C1865 1.327 . S
C1863 C1869 1.429 . S
C1864 C1856 1.574 . S
C1864 H1859 0.949 . S
C1864 C1870 1.368 . S
C1865 C1849 1.349 . S
C1865 H1857 0.950 . S
C1865 C1863 1.327 . S
C1866 C1854 1.349 . S
C1866 H1860 0.950 . S
C1866 C1867 1.327 . S
C1867 H1861 0.950 . S
C1867 C1866 1.327 . S
C1867 C1871 1.429 . S
C1868 C1851 1.574 . S
C1868 H1862 0.949 . S
C1868 C1872 1.368 . S
C1869 C1850 1.429 . S
C1869 C1863 1.429 . S
C1869 C1870 1.523 . S
C1870 C1851 1.368 . S
C1870 C1864 1.368 . S
C1870 C1869 1.523 . S
C1871 C1855 1.429 . S
C1871 C1867 1.429 . S
C1871 C1872 1.523 . S
C1872 C1856 1.368 . S
C1872 C1868 1.368 . S
C1872 C1871 1.523 . S
H1873 C1848 0.950 1_554 S
H1874 C1850 0.950 . S
H1875 C1851 0.949 . S
H1876 C1853 0.950 . S
H1877 C1855 0.950 . S
C1878 C1879 1.349 . S
C1878 C1880 1.327 . S
C1878 H1903 0.950 . S
C1879 C1878 1.349 . S
C1879 C1895 1.349 . S
C1880 C1878 1.327 . S
C1880 C1899 1.429 . S
C1880 H1904 0.950 . S
C1881 C1898 1.574 . S
C1881 C1900 1.368 . S
C1881 H1905 0.949 . S
H1882 C1886 0.949 . S
C1883 C1884 1.349 . S
C1883 C1885 1.327 . S
C1883 H1906 0.950 . S
C1884 C1883 1.349 . S
C1884 C1896 1.349 . S
C1885 C1883 1.327 . S
C1885 C1901 1.429 . S
C1885 H1907 0.950 . S
C1886 H1882 0.949 . S
C1886 C1894 1.574 . S
C1886 C1902 1.368 . S
H1887 C1895 0.950 . S
H1888 C1893 0.950 . S
H1889 C1894 0.949 . S
H1890 C1896 0.950 . S
H1891 C1897 0.950 . S
H1892 C1898 0.949 . S
C1893 H1888 0.950 . S
C1893 C1895 1.327 . S
C1893 C1899 1.429 . S
C1894 C1886 1.574 . S
C1894 H1889 0.949 . S
C1894 C1900 1.368 . S
C1895 C1879 1.349 . S
C1895 H1887 0.950 . S
C1895 C1893 1.327 . S
C1896 C1884 1.349 . S
C1896 H1890 0.950 . S
C1896 C1897 1.327 . S
C1897 H1891 0.950 . S
C1897 C1896 1.327 . S
C1897 C1901 1.429 . S
C1898 C1881 1.574 . S
C1898 H1892 0.949 . S
C1898 C1902 1.368 . S
C1899 C1880 1.429 . S
C1899 C1893 1.429 . S
C1899 C1900 1.523 . S
C1900 C1881 1.368 . S
C1900 C1894 1.368 . S
C1900 C1899 1.523 . S
C1901 C1885 1.429 . S
C1901 C1897 1.429 . S
C1901 C1902 1.523 . S
C1902 C1886 1.368 . S
C1902 C1898 1.368 . S
C1902 C1901 1.523 . S
H1903 C1878 0.950 . S
H1904 C1880 0.950 . S
H1905 C1881 0.949 . S
H1906 C1883 0.950 . S
H1907 C1885 0.950 . S
C1908 C1909 1.349 . S
C1908 C1910 1.327 . S
C1908 H1933 0.950 . S
C1909 C1908 1.349 . S
C1909 C1925 1.349 . S
C1910 C1908 1.327 . S
C1910 C1929 1.429 . S
C1910 H1934 0.950 . S
C1911 C1928 1.574 . S
C1911 C1930 1.368 . S
C1911 H1935 0.952 1_455 S
H1912 C1916 0.949 . S
C1913 C1914 1.349 . S
C1913 C1915 1.327 . S
C1913 H1936 0.950 . S
C1914 C1913 1.349 . S
C1914 C1926 1.349 . S
C1915 C1913 1.327 . S
C1915 C1931 1.429 . S
C1915 H1937 0.950 . S
C1916 H1912 0.949 . S
C1916 C1924 1.574 . S
C1916 C1932 1.368 . S
H1917 C1925 0.950 . S
H1918 C1923 0.950 . S
H1919 C1924 0.949 . S
H1920 C1926 0.950 . S
H1921 C1927 0.950 . S
H1922 C1928 0.949 . S
C1923 H1918 0.950 . S
C1923 C1925 1.327 . S
C1923 C1929 1.429 . S
C1924 C1916 1.574 . S
C1924 H1919 0.949 . S
C1924 C1930 1.368 . S
C1925 C1909 1.349 . S
C1925 H1917 0.950 . S
C1925 C1923 1.327 . S
C1926 C1914 1.349 . S
C1926 H1920 0.950 . S
C1926 C1927 1.327 . S
C1927 H1921 0.950 . S
C1927 C1926 1.327 . S
C1927 C1931 1.429 . S
C1928 C1911 1.574 . S
C1928 H1922 0.949 . S
C1928 C1932 1.368 . S
C1929 C1910 1.429 . S
C1929 C1923 1.429 . S
C1929 C1930 1.523 1_655 S
C1930 C1911 1.368 . S
C1930 C1924 1.368 . S
C1930 C1929 1.523 1_455 S
C1931 C1915 1.429 . S
C1931 C1927 1.429 . S
C1931 C1932 1.523 . S
C1932 C1916 1.368 . S
C1932 C1928 1.368 . S
C1932 C1931 1.523 . S
H1933 C1908 0.950 . S
H1934 C1910 0.950 . S
H1935 C1911 0.952 1_655 S
H1936 C1913 0.950 . S
H1937 C1915 0.950 . S
C1938 C1939 1.349 . S
C1938 C1940 1.327 . S
C1938 H1963 0.950 . S
C1939 C1938 1.349 . S
C1939 C1955 1.349 . S
C1940 C1938 1.327 . S
C1940 C1959 1.429 . S
C1940 H1964 0.950 . S
C1941 C1958 1.574 . S
C1941 C1960 1.368 . S
C1941 H1965 0.949 . S
H1942 C1946 0.949 . S
C1943 C1944 1.349 . S
C1943 C1945 1.327 . S
C1943 H1966 0.950 . S
C1944 C1943 1.349 . S
C1944 C1956 1.349 . S
C1945 C1943 1.327 . S
C1945 C1961 1.429 . S
C1945 H1967 0.950 . S
C1946 H1942 0.949 . S
C1946 C1954 1.574 . S
C1946 C1962 1.368 . S
H1947 C1955 0.950 . S
H1948 C1953 0.950 . S
H1949 C1954 0.949 . S
H1950 C1956 0.950 . S
H1951 C1957 0.950 . S
H1952 C1958 0.949 . S
C1953 H1948 0.950 . S
C1953 C1955 1.327 . S
C1953 C1959 1.429 . S
C1954 C1946 1.574 . S
C1954 H1949 0.949 . S
C1954 C1960 1.368 . S
C1955 C1939 1.349 . S
C1955 H1947 0.950 . S
C1955 C1953 1.327 . S
C1956 C1944 1.349 . S
C1956 H1950 0.950 . S
C1956 C1957 1.327 . S
C1957 H1951 0.950 . S
C1957 C1956 1.327 . S
C1957 C1961 1.429 . S
C1958 C1941 1.574 . S
C1958 H1952 0.949 . S
C1958 C1962 1.368 . S
C1959 C1940 1.429 . S
C1959 C1953 1.429 . S
C1959 C1960 1.523 . S
C1960 C1941 1.368 . S
C1960 C1954 1.368 . S
C1960 C1959 1.523 . S
C1961 C1945 1.429 . S
C1961 C1957 1.429 . S
C1961 C1962 1.523 . S
C1962 C1946 1.368 . S
C1962 C1958 1.368 . S
C1962 C1961 1.523 . S
H1963 C1938 0.950 . S
H1964 C1940 0.950 . S
H1965 C1941 0.949 . S
H1966 C1943 0.950 . S
H1967 C1945 0.950 . S
C1968 C1969 1.349 . S
C1968 C1970 1.327 . S
C1968 H1993 0.950 . S
C1969 C1968 1.349 . S
C1969 C1985 1.349 . S
C1970 C1968 1.327 . S
C1970 C1989 1.429 . S
C1970 H1994 0.950 . S
C1971 C1988 1.574 . S
C1971 C1990 1.368 1_565 S
C1971 H1995 0.949 . S
H1972 C1976 0.949 1_655 S
C1973 C1974 1.349 . S
C1973 C1975 1.327 . S
C1973 H1996 0.950 . S
C1974 C1973 1.349 . S
C1974 C1986 1.349 . S
C1975 C1973 1.327 . S
C1975 C1991 1.429 . S
C1975 H1997 0.950 . S
C1976 H1972 0.949 1_455 S
C1976 C1984 1.574 . S
C1976 C1992 1.368 1_545 S
H1977 C1985 0.950 . S
H1978 C1983 0.950 . S
H1979 C1984 0.949 . S
H1980 C1986 0.950 . S
H1981 C1987 0.950 1_545 S
H1982 C1988 0.949 . S
C1983 H1978 0.950 . S
C1983 C1985 1.327 . S
C1983 C1989 1.429 . S
C1984 C1976 1.574 . S
C1984 H1979 0.949 . S
C1984 C1990 1.368 . S
C1985 C1969 1.349 . S
C1985 H1977 0.950 . S
C1985 C1983 1.327 . S
C1986 C1974 1.349 . S
C1986 H1980 0.950 . S
C1986 C1987 1.327 . S
C1987 H1981 0.950 1_565 S
C1987 C1986 1.327 . S
C1987 C1991 1.429 . S
C1988 C1971 1.574 . S
C1988 H1982 0.949 . S
C1988 C1992 1.368 . S
C1989 C1970 1.429 . S
C1989 C1983 1.429 . S
C1989 C1990 1.523 . S
C1990 C1971 1.368 1_545 S
C1990 C1984 1.368 . S
C1990 C1989 1.523 . S
C1991 C1975 1.429 . S
C1991 C1987 1.429 . S
C1991 C1992 1.523 1_655 S
C1992 C1976 1.368 1_565 S
C1992 C1988 1.368 . S
C1992 C1991 1.523 1_455 S
H1993 C1968 0.950 . S
H1994 C1970 0.950 . S
H1995 C1971 0.949 . S
H1996 C1973 0.950 . S
H1997 C1975 0.950 . S
C1998 C1999 1.349 . S
C1998 C2000 1.327 . S
C1998 H2023 0.950 . S
C1999 C1998 1.349 . S
C1999 C2015 1.349 . S
C2000 C1998 1.327 . S
C2000 C2019 1.429 . S
C2000 H2024 0.950 . S
C2001 C2018 1.574 . S
C2001 C2020 1.368 . S
C2001 H2025 0.949 . S
H2002 C2006 0.949 . S
C2003 C2004 1.349 . S
C2003 C2005 1.327 . S
C2003 H2026 0.950 . S
C2004 C2003 1.349 . S
C2004 C2016 1.349 . S
C2005 C2003 1.327 . S
C2005 C2021 1.429 . S
C2005 H2027 0.950 . S
C2006 H2002 0.949 . S
C2006 C2014 1.574 . S
C2006 C2022 1.368 . S
H2007 C2015 0.950 . S
H2008 C2013 0.950 . S
H2009 C2014 0.949 . S
H2010 C2016 0.950 . S
H2011 C2017 0.950 . S
H2012 C2018 0.949 . S
C2013 H2008 0.950 . S
C2013 C2015 1.327 . S
C2013 C2019 1.429 . S
C2014 C2006 1.574 . S
C2014 H2009 0.949 . S
C2014 C2020 1.368 . S
C2015 C1999 1.349 . S
C2015 H2007 0.950 . S
C2015 C2013 1.327 . S
C2016 C2004 1.349 . S
C2016 H2010 0.950 . S
C2016 C2017 1.327 . S
C2017 H2011 0.950 . S
C2017 C2016 1.327 . S
C2017 C2021 1.429 . S
C2018 C2001 1.574 . S
C2018 H2012 0.949 . S
C2018 C2022 1.368 . S
C2019 C2000 1.429 . S
C2019 C2013 1.429 . S
C2019 C2020 1.523 . S
C2020 C2001 1.368 . S
C2020 C2014 1.368 . S
C2020 C2019 1.523 . S
C2021 C2005 1.429 . S
C2021 C2017 1.429 . S
C2021 C2022 1.523 . S
C2022 C2006 1.368 . S
C2022 C2018 1.368 . S
C2022 C2021 1.523 . S
H2023 C1998 0.950 . S
H2024 C2000 0.950 . S
H2025 C2001 0.949 . S
H2026 C2003 0.950 . S
H2027 C2005 0.950 . S
C2028 C2029 1.349 . S
C2028 C2030 1.327 . S
C2028 H2053 0.950 . S
C2029 C2028 1.349 . S
C2029 C2045 1.349 . S
C2030 C2028 1.327 . S
C2030 C2049 1.429 . S
C2030 H2054 0.950 . S
C2031 C2048 1.574 . S
C2031 C2050 1.368 . S
C2031 H2055 0.949 . S
H2032 C2036 0.949 . S
C2033 C2034 1.349 . S
C2033 C2035 1.327 . S
C2033 H2056 0.950 . S
C2034 C2033 1.349 . S
C2034 C2046 1.349 . S
C2035 C2033 1.327 . S
C2035 C2051 1.429 . S
C2035 H2057 0.950 . S
C2036 H2032 0.949 . S
C2036 C2044 1.574 . S
C2036 C2052 1.368 . S
H2037 C2045 0.950 . S
H2038 C2043 0.950 . S
H2039 C2044 0.949 1_655 S
H2040 C2046 0.950 . S
H2041 C2047 0.950 . S
H2042 C2048 0.949 . S
C2043 H2038 0.950 . S
C2043 C2045 1.327 . S
C2043 C2049 1.429 . S
C2044 C2036 1.574 . S
C2044 H2039 0.949 1_455 S
C2044 C2050 1.368 . S
C2045 C2029 1.349 . S
C2045 H2037 0.950 . S
C2045 C2043 1.327 . S
C2046 C2034 1.349 . S
C2046 H2040 0.950 . S
C2046 C2047 1.327 . S
C2047 H2041 0.950 . S
C2047 C2046 1.327 . S
C2047 C2051 1.429 . S
C2048 C2031 1.574 . S
C2048 H2042 0.949 . S
C2048 C2052 1.368 . S
C2049 C2030 1.429 . S
C2049 C2043 1.429 . S
C2049 C2050 1.523 1_655 S
C2050 C2031 1.368 . S
C2050 C2044 1.368 . S
C2050 C2049 1.523 1_455 S
C2051 C2035 1.429 . S
C2051 C2047 1.429 . S
C2051 C2052 1.523 . S
C2052 C2036 1.368 . S
C2052 C2048 1.368 . S
C2052 C2051 1.523 . S
H2053 C2028 0.950 . S
H2054 C2030 0.950 . S
H2055 C2031 0.949 . S
H2056 C2033 0.950 . S
H2057 C2035 0.950 . S
C2058 C2059 1.349 . S
C2058 C2060 1.327 . S
C2058 H2083 0.950 . S
C2059 C2058 1.349 . S
C2059 C2075 1.349 . S
C2060 C2058 1.327 . S
C2060 C2079 1.429 . S
C2060 H2084 0.950 . S
C2061 C2078 1.574 . S
C2061 C2080 1.368 . S
C2061 H2085 0.949 . S
H2062 C2066 0.949 . S
C2063 C2064 1.349 . S
C2063 C2065 1.327 . S
C2063 H2086 0.950 . S
C2064 C2063 1.349 . S
C2064 C2076 1.349 . S
C2065 C2063 1.327 . S
C2065 C2081 1.429 . S
C2065 H2087 0.950 . S
C2066 H2062 0.949 . S
C2066 C2074 1.574 . S
C2066 C2082 1.368 . S
H2067 C2075 0.950 . S
H2068 C2073 0.950 . S
H2069 C2074 0.949 . S
H2070 C2076 0.950 . S
H2071 C2077 0.950 . S
H2072 C2078 0.949 . S
C2073 H2068 0.950 . S
C2073 C2075 1.327 . S
C2073 C2079 1.429 . S
C2074 C2066 1.574 . S
C2074 H2069 0.949 . S
C2074 C2080 1.368 . S
C2075 C2059 1.349 . S
C2075 H2067 0.950 . S
C2075 C2073 1.327 . S
C2076 C2064 1.349 . S
C2076 H2070 0.950 . S
C2076 C2077 1.327 . S
C2077 H2071 0.950 . S
C2077 C2076 1.327 . S
C2077 C2081 1.429 . S
C2078 C2061 1.574 . S
C2078 H2072 0.949 . S
C2078 C2082 1.368 . S
C2079 C2060 1.429 . S
C2079 C2073 1.429 . S
C2079 C2080 1.523 . S
C2080 C2061 1.368 . S
C2080 C2074 1.368 . S
C2080 C2079 1.523 . S
C2081 C2065 1.429 . S
C2081 C2077 1.429 . S
C2081 C2082 1.523 . S
C2082 C2066 1.368 . S
C2082 C2078 1.368 . S
C2082 C2081 1.523 . S
H2083 C2058 0.950 . S
H2084 C2060 0.950 . S
H2085 C2061 0.949 . S
H2086 C2063 0.950 . S
H2087 C2065 0.950 . S
C2088 C2089 1.349 . S
C2088 C2090 1.327 . S
C2088 H2113 0.950 . S
C2089 C2088 1.349 . S
C2089 C2105 1.349 . S
C2090 C2088 1.327 . S
C2090 C2109 1.429 . S
C2090 H2114 0.950 . S
C2091 C2108 1.574 . S
C2091 C2110 1.368 . S
C2091 H2115 0.949 . S
H2092 C2096 0.949 . S
C2093 C2094 1.349 . S
C2093 C2095 1.327 . S
C2093 H2116 0.950 . S
C2094 C2093 1.349 . S
C2094 C2106 1.349 . S
C2095 C2093 1.327 . S
C2095 C2111 1.429 . S
C2095 H2117 0.950 . S
C2096 H2092 0.949 . S
C2096 C2104 1.574 . S
C2096 C2112 1.368 . S
H2097 C2105 0.950 . S
H2098 C2103 0.950 . S
H2099 C2104 0.949 . S
H2100 C2106 0.950 . S
H2101 C2107 0.950 . S
H2102 C2108 0.949 . S
C2103 H2098 0.950 . S
C2103 C2105 1.327 . S
C2103 C2109 1.429 . S
C2104 C2096 1.574 . S
C2104 H2099 0.949 . S
C2104 C2110 1.368 . S
C2105 C2089 1.349 . S
C2105 H2097 0.950 . S
C2105 C2103 1.327 . S
C2106 C2094 1.349 . S
C2106 H2100 0.950 . S
C2106 C2107 1.327 . S
C2107 H2101 0.950 . S
C2107 C2106 1.327 . S
C2107 C2111 1.429 . S
C2108 C2091 1.574 . S
C2108 H2102 0.949 . S
C2108 C2112 1.368 . S
C2109 C2090 1.429 . S
C2109 C2103 1.429 . S
C2109 C2110 1.523 . S
C2110 C2091 1.368 . S
C2110 C2104 1.368 . S
C2110 C2109 1.523 . S
C2111 C2095 1.429 . S
C2111 C2107 1.429 . S
C2111 C2112 1.523 . S
C2112 C2096 1.368 . S
C2112 C2108 1.368 . S
C2112 C2111 1.523 . S
H2113 C2088 0.950 . S
H2114 C2090 0.950 . S
H2115 C2091 0.949 . S
H2116 C2093 0.950 . S
H2117 C2095 0.950 . S
C2118 C2119 1.349 . S
C2118 C2120 1.327 . S
C2118 H2143 0.950 . S
C2119 C2118 1.349 . S
C2119 C2135 1.349 . S
C2120 C2118 1.327 . S
C2120 C2139 1.429 . S
C2120 H2144 0.950 . S
C2121 C2138 1.574 . S
C2121 C2140 1.368 . S
C2121 H2145 0.949 . S
H2122 C2126 0.949 . S
C2123 C2124 1.349 . S
C2123 C2125 1.327 . S
C2123 H2146 0.950 . S
C2124 C2123 1.349 . S
C2124 C2136 1.349 . S
C2125 C2123 1.327 . S
C2125 C2141 1.429 . S
C2125 H2147 0.950 . S
C2126 H2122 0.949 . S
C2126 C2134 1.574 . S
C2126 C2142 1.368 . S
H2127 C2135 0.950 . S
H2128 C2133 0.950 . S
H2129 C2134 0.949 . S
H2130 C2136 0.950 . S
H2131 C2137 0.950 . S
H2132 C2138 0.949 1_556 S
C2133 H2128 0.950 . S
C2133 C2135 1.327 . S
C2133 C2139 1.429 . S
C2134 C2126 1.574 . S
C2134 H2129 0.949 . S
C2134 C2140 1.368 . S
C2135 C2119 1.349 . S
C2135 H2127 0.950 . S
C2135 C2133 1.327 . S
C2136 C2124 1.349 . S
C2136 H2130 0.950 . S
C2136 C2137 1.327 . S
C2137 H2131 0.950 . S
C2137 C2136 1.327 . S
C2137 C2141 1.429 . S
C2138 C2121 1.574 . S
C2138 H2132 0.949 1_554 S
C2138 C2142 1.368 . S
C2139 C2120 1.429 . S
C2139 C2133 1.429 . S
C2139 C2140 1.523 . S
C2140 C2121 1.368 . S
C2140 C2134 1.368 . S
C2140 C2139 1.523 . S
C2141 C2125 1.429 . S
C2141 C2137 1.429 . S
C2141 C2142 1.523 1_556 S
C2142 C2126 1.368 . S
C2142 C2138 1.368 . S
C2142 C2141 1.523 1_554 S
H2143 C2118 0.950 . S
H2144 C2120 0.950 . S
H2145 C2121 0.949 . S
H2146 C2123 0.950 . S
H2147 C2125 0.950 . S
C2148 C2149 1.349 . S
C2148 C2150 1.327 . S
C2148 H2173 0.950 . S
C2149 C2148 1.349 . S
C2149 C2165 1.349 . S
C2150 C2148 1.327 . S
C2150 C2169 1.415 1_455 S
C2150 H2174 0.950 . S
C2151 C2168 1.574 . S
C2151 C2170 1.368 . S
C2151 H2175 0.949 . S
H2152 C2156 0.949 . S
C2153 C2154 1.349 . S
C2153 C2155 1.327 . S
C2153 H2176 0.950 . S
C2154 C2153 1.349 . S
C2154 C2166 1.349 . S
C2155 C2153 1.327 . S
C2155 C2171 1.429 . S
C2155 H2177 0.950 . S
C2156 H2152 0.949 . S
C2156 C2164 1.574 . S
C2156 C2172 1.368 . S
H2157 C2165 0.950 . S
H2158 C2163 0.933 1_655 S
H2159 C2164 0.949 . S
H2160 C2166 0.950 . S
H2161 C2167 0.950 . S
H2162 C2168 0.949 . S
C2163 H2158 0.933 1_455 S
C2163 C2165 1.351 . S
C2163 C2169 1.421 1_455 S
C2164 C2156 1.574 . S
C2164 H2159 0.949 . S
C2164 C2170 1.368 . S
C2165 C2149 1.349 . S
C2165 H2157 0.950 . S
C2165 C2163 1.351 . S
C2166 C2154 1.349 . S
C2166 H2160 0.950 . S
C2166 C2167 1.327 . S
C2167 H2161 0.950 . S
C2167 C2166 1.327 . S
C2167 C2171 1.429 . S
C2168 C2151 1.574 . S
C2168 H2162 0.949 . S
C2168 C2172 1.368 . S
C2169 C2150 1.415 1_655 S
C2169 C2163 1.421 1_655 S
C2169 C2170 1.540 . S
C2170 C2151 1.368 . S
C2170 C2164 1.368 . S
C2170 C2169 1.540 . S
C2171 C2155 1.429 . S
C2171 C2167 1.429 . S
C2171 C2172 1.523 . S
C2172 C2156 1.368 . S
C2172 C2168 1.368 . S
C2172 C2171 1.523 . S
H2173 C2148 0.950 . S
H2174 C2150 0.950 . S
H2175 C2151 0.949 . S
H2176 C2153 0.950 . S
H2177 C2155 0.950 . S
C2178 C2179 1.349 . S
C2178 C2180 1.327 . S
C2178 H2203 0.950 . S
C2179 C2178 1.349 . S
C2179 C2195 1.349 . S
C2180 C2178 1.327 . S
C2180 C2199 1.429 . S
C2180 H2204 0.950 . S
C2181 C2198 1.574 . S
C2181 C2200 1.368 . S
C2181 H2205 0.949 . S
H2182 C2186 0.949 . S
C2183 C2184 1.349 . S
C2183 C2185 1.327 . S
C2183 H2206 0.950 . S
C2184 C2183 1.349 . S
C2184 C2196 1.349 . S
C2185 C2183 1.327 . S
C2185 C2201 1.429 . S
C2185 H2207 0.950 . S
C2186 H2182 0.949 . S
C2186 C2194 1.574 . S
C2186 C2202 1.368 . S
H2187 C2195 0.950 . S
H2188 C2193 0.950 . S
H2189 C2194 0.949 . S
H2190 C2196 0.950 . S
H2191 C2197 0.950 . S
H2192 C2198 0.949 . S
C2193 H2188 0.950 . S
C2193 C2195 1.327 . S
C2193 C2199 1.429 . S
C2194 C2186 1.574 . S
C2194 H2189 0.949 . S
C2194 C2200 1.368 . S
C2195 C2179 1.349 . S
C2195 H2187 0.950 . S
C2195 C2193 1.327 . S
C2196 C2184 1.349 . S
C2196 H2190 0.950 . S
C2196 C2197 1.327 . S
C2197 H2191 0.950 . S
C2197 C2196 1.327 . S
C2197 C2201 1.429 . S
C2198 C2181 1.574 . S
C2198 H2192 0.949 . S
C2198 C2202 1.368 . S
C2199 C2180 1.429 . S
C2199 C2193 1.429 . S
C2199 C2200 1.523 . S
C2200 C2181 1.368 . S
C2200 C2194 1.368 . S
C2200 C2199 1.523 . S
C2201 C2185 1.429 . S
C2201 C2197 1.429 . S
C2201 C2202 1.523 . S
C2202 C2186 1.368 . S
C2202 C2198 1.368 . S
C2202 C2201 1.523 . S
H2203 C2178 0.950 . S
H2204 C2180 0.950 . S
H2205 C2181 0.949 . S
H2206 C2183 0.950 . S
H2207 C2185 0.950 . S
C2208 C2209 1.349 . S
C2208 C2210 1.327 . S
C2208 H2233 0.950 . S
C2209 C2208 1.349 . S
C2209 C2225 1.349 . S
C2210 C2208 1.327 . S
C2210 C2229 1.429 . S
C2210 H2234 0.950 . S
C2211 C2228 1.574 . S
C2211 C2230 1.368 . S
C2211 H2235 0.949 . S
H2212 C2216 0.949 . S
C2213 C2214 1.349 . S
C2213 C2215 1.327 . S
C2213 H2236 0.950 . S
C2214 C2213 1.349 . S
C2214 C2226 1.349 . S
C2215 C2213 1.327 . S
C2215 C2231 1.429 . S
C2215 H2237 0.950 . S
C2216 H2212 0.949 . S
C2216 C2224 1.574 . S
C2216 C2232 1.368 . S
H2217 C2225 0.950 . S
H2218 C2223 0.950 . S
H2219 C2224 0.949 . S
H2220 C2226 0.950 . S
H2221 C2227 0.950 . S
H2222 C2228 0.949 . S
C2223 H2218 0.950 . S
C2223 C2225 1.327 . S
C2223 C2229 1.429 . S
C2224 C2216 1.574 . S
C2224 H2219 0.949 . S
C2224 C2230 1.368 . S
C2225 C2209 1.349 . S
C2225 H2217 0.950 . S
C2225 C2223 1.327 . S
C2226 C2214 1.349 . S
C2226 H2220 0.950 . S
C2226 C2227 1.327 . S
C2227 H2221 0.950 . S
C2227 C2226 1.327 . S
C2227 C2231 1.429 . S
C2228 C2211 1.574 . S
C2228 H2222 0.949 . S
C2228 C2232 1.368 . S
C2229 C2210 1.429 . S
C2229 C2223 1.429 . S
C2229 C2230 1.523 . S
C2230 C2211 1.368 . S
C2230 C2224 1.368 . S
C2230 C2229 1.523 . S
C2231 C2215 1.429 . S
C2231 C2227 1.429 . S
C2231 C2232 1.523 . S
C2232 C2216 1.368 . S
C2232 C2228 1.368 . S
C2232 C2231 1.523 . S
H2233 C2208 0.950 . S
H2234 C2210 0.950 . S
H2235 C2211 0.949 . S
H2236 C2213 0.950 . S
H2237 C2215 0.950 . S
C2238 C2239 1.349 . S
C2238 C2240 1.327 . S
C2238 H2263 0.950 . S
C2239 C2238 1.349 . S
C2239 C2255 1.349 . S
C2240 C2238 1.327 . S
C2240 C2259 1.429 . S
C2240 H2264 0.950 . S
C2241 C2258 1.537 1_556 S
C2241 C2260 1.362 1_556 S
C2241 H2265 0.990 . S
H2242 C2246 0.949 . S
C2243 C2244 1.349 . S
C2243 C2245 1.327 . S
C2243 H2266 0.950 . S
C2244 C2243 1.349 . S
C2244 C2256 1.349 . S
C2245 C2243 1.327 . S
C2245 C2261 1.429 . S
C2245 H2267 0.950 . S
C2246 H2242 0.949 . S
C2246 C2254 1.574 . S
C2246 C2262 1.368 . S
H2247 C2255 0.950 . S
H2248 C2253 0.950 . S
H2249 C2254 0.949 1_455 S
H2250 C2256 0.950 . S
H2251 C2257 0.950 . S
H2252 C2258 0.949 . S
C2253 H2248 0.950 . S
C2253 C2255 1.327 . S
C2253 C2259 1.429 . S
C2254 C2246 1.574 . S
C2254 H2249 0.949 1_655 S
C2254 C2260 1.368 . S
C2255 C2239 1.349 . S
C2255 H2247 0.950 . S
C2255 C2253 1.327 . S
C2256 C2244 1.349 . S
C2256 H2250 0.950 . S
C2256 C2257 1.327 . S
C2257 H2251 0.950 . S
C2257 C2256 1.327 . S
C2257 C2261 1.429 . S
C2258 C2241 1.537 1_554 S
C2258 H2252 0.949 . S
C2258 C2262 1.368 . S
C2259 C2240 1.429 . S
C2259 C2253 1.429 . S
C2259 C2260 1.523 1_456 S
C2260 C2241 1.362 1_554 S
C2260 C2254 1.368 . S
C2260 C2259 1.523 1_654 S
C2261 C2245 1.429 . S
C2261 C2257 1.429 . S
C2261 C2262 1.523 . S
C2262 C2246 1.368 . S
C2262 C2258 1.368 . S
C2262 C2261 1.523 . S
H2263 C2238 0.950 . S
H2264 C2240 0.950 . S
H2265 C2241 0.990 . S
H2266 C2243 0.950 . S
H2267 C2245 0.950 . S
C2268 C2269 1.349 . S
C2268 C2270 1.327 . S
C2268 H2293 0.950 . S
C2269 C2268 1.349 . S
C2269 C2285 1.349 . S
C2270 C2268 1.327 . S
C2270 C2289 1.429 . S
C2270 H2294 0.950 . S
C2271 C2288 1.574 . S
C2271 C2290 1.368 . S
C2271 H2295 0.949 . S
H2272 C2276 0.949 . S
C2273 C2274 1.349 . S
C2273 C2275 1.327 . S
C2273 H2296 0.950 . S
C2274 C2273 1.349 . S
C2274 C2286 1.349 . S
C2275 C2273 1.327 . S
C2275 C2291 1.429 . S
C2275 H2297 0.950 . S
C2276 H2272 0.949 . S
C2276 C2284 1.574 . S
C2276 C2292 1.368 . S
H2277 C2285 0.950 . S
H2278 C2283 0.950 . S
H2279 C2284 0.949 . S
H2280 C2286 0.950 . S
H2281 C2287 0.950 . S
H2282 C2288 0.949 . S
C2283 H2278 0.950 . S
C2283 C2285 1.327 . S
C2283 C2289 1.429 . S
C2284 C2276 1.574 . S
C2284 H2279 0.949 . S
C2284 C2290 1.368 . S
C2285 C2269 1.349 . S
C2285 H2277 0.950 . S
C2285 C2283 1.327 . S
C2286 C2274 1.349 . S
C2286 H2280 0.950 . S
C2286 C2287 1.327 . S
C2287 H2281 0.950 . S
C2287 C2286 1.327 . S
C2287 C2291 1.429 . S
C2288 C2271 1.574 . S
C2288 H2282 0.949 . S
C2288 C2292 1.368 . S
C2289 C2270 1.429 . S
C2289 C2283 1.429 . S
C2289 C2290 1.523 . S
C2290 C2271 1.368 . S
C2290 C2284 1.368 . S
C2290 C2289 1.523 . S
C2291 C2275 1.429 . S
C2291 C2287 1.429 . S
C2291 C2292 1.523 . S
C2292 C2276 1.368 . S
C2292 C2288 1.368 . S
C2292 C2291 1.523 . S
H2293 C2268 0.950 . S
H2294 C2270 0.950 . S
H2295 C2271 0.949 . S
H2296 C2273 0.950 . S
H2297 C2275 0.950 . S
C2298 C2299 1.349 . S
C2298 C2300 1.327 . S
C2298 H2323 0.950 . S
C2299 C2298 1.349 . S
C2299 C2315 1.349 . S
C2300 C2298 1.327 . S
C2300 C2319 1.429 . S
C2300 H2324 0.950 . S
C2301 C2318 1.574 . S
C2301 C2320 1.368 . S
C2301 H2325 0.949 . S
H2302 C2306 0.949 . S
C2303 C2304 1.349 . S
C2303 C2305 1.327 . S
C2303 H2326 0.950 . S
C2304 C2303 1.349 . S
C2304 C2316 1.349 . S
C2305 C2303 1.327 . S
C2305 C2321 1.429 . S
C2305 H2327 0.950 . S
C2306 H2302 0.949 . S
C2306 C2314 1.574 . S
C2306 C2322 1.368 . S
H2307 C2315 0.950 . S
H2308 C2313 0.950 . S
H2309 C2314 0.949 . S
H2310 C2316 0.950 . S
H2311 C2317 0.950 . S
H2312 C2318 0.949 . S
C2313 H2308 0.950 . S
C2313 C2315 1.327 . S
C2313 C2319 1.429 . S
C2314 C2306 1.574 . S
C2314 H2309 0.949 . S
C2314 C2320 1.368 . S
C2315 C2299 1.349 . S
C2315 H2307 0.950 . S
C2315 C2313 1.327 . S
C2316 C2304 1.349 . S
C2316 H2310 0.950 . S
C2316 C2317 1.327 . S
C2317 H2311 0.950 . S
C2317 C2316 1.327 . S
C2317 C2321 1.429 . S
C2318 C2301 1.574 . S
C2318 H2312 0.949 . S
C2318 C2322 1.368 . S
C2319 C2300 1.429 . S
C2319 C2313 1.429 . S
C2319 C2320 1.523 . S
C2320 C2301 1.368 . S
C2320 C2314 1.368 . S
C2320 C2319 1.523 . S
C2321 C2305 1.429 . S
C2321 C2317 1.429 . S
C2321 C2322 1.523 . S
C2322 C2306 1.368 . S
C2322 C2318 1.368 . S
C2322 C2321 1.523 . S
H2323 C2298 0.950 . S
H2324 C2300 0.950 . S
H2325 C2301 0.949 . S
H2326 C2303 0.950 . S
H2327 C2305 0.950 . S
C2328 C2329 1.349 . S
C2328 C2330 1.327 . S
C2328 H2353 0.950 . S
C2329 C2328 1.349 . S
C2329 C2345 1.349 . S
C2330 C2328 1.327 . S
C2330 C2349 1.429 . S
C2330 H2354 0.950 . S
C2331 C2348 1.574 . S
C2331 C2350 1.368 . S
C2331 H2355 0.949 . S
H2332 C2336 0.949 . S
C2333 C2334 1.349 . S
C2333 C2335 1.327 . S
C2333 H2356 0.950 . S
C2334 C2333 1.349 . S
C2334 C2346 1.349 . S
C2335 C2333 1.327 . S
C2335 C2351 1.429 . S
C2335 H2357 0.950 . S
C2336 H2332 0.949 . S
C2336 C2344 1.574 . S
C2336 C2352 1.368 . S
H2337 C2345 0.950 . S
H2338 C2343 0.950 . S
H2339 C2344 0.949 . S
H2340 C2346 0.950 . S
H2341 C2347 0.950 . S
H2342 C2348 0.949 . S
C2343 H2338 0.950 . S
C2343 C2345 1.327 . S
C2343 C2349 1.429 . S
C2344 C2336 1.574 . S
C2344 H2339 0.949 . S
C2344 C2350 1.368 . S
C2345 C2329 1.349 . S
C2345 H2337 0.950 . S
C2345 C2343 1.327 . S
C2346 C2334 1.349 . S
C2346 H2340 0.950 . S
C2346 C2347 1.327 . S
C2347 H2341 0.950 . S
C2347 C2346 1.327 . S
C2347 C2351 1.429 . S
C2348 C2331 1.574 . S
C2348 H2342 0.949 . S
C2348 C2352 1.368 . S
C2349 C2330 1.429 . S
C2349 C2343 1.429 . S
C2349 C2350 1.523 . S
C2350 C2331 1.368 . S
C2350 C2344 1.368 . S
C2350 C2349 1.523 . S
C2351 C2335 1.429 . S
C2351 C2347 1.429 . S
C2351 C2352 1.523 . S
C2352 C2336 1.368 . S
C2352 C2348 1.368 . S
C2352 C2351 1.523 . S
H2353 C2328 0.950 . S
H2354 C2330 0.950 . S
H2355 C2331 0.949 . S
H2356 C2333 0.950 . S
H2357 C2335 0.950 . S
C2358 C2359 1.349 . S
C2358 C2360 1.327 . S
C2358 H2383 0.950 . S
C2359 C2358 1.349 . S
C2359 C2375 1.349 . S
C2360 C2358 1.327 . S
C2360 C2379 1.429 . S
C2360 H2384 0.950 . S
C2361 C2378 1.574 . S
C2361 C2380 1.368 . S
C2361 H2385 0.949 . S
H2362 C2366 0.949 . S
C2363 C2364 1.349 . S
C2363 C2365 1.327 . S
C2363 H2386 0.950 . S
C2364 C2363 1.349 . S
C2364 C2376 1.349 . S
C2365 C2363 1.327 . S
C2365 C2381 1.429 . S
C2365 H2387 0.950 . S
C2366 H2362 0.949 . S
C2366 C2374 1.574 . S
C2366 C2382 1.368 . S
H2367 C2375 0.949 . S
H2368 C2373 0.950 . S
H2369 C2374 0.949 . S
H2370 C2376 0.950 . S
H2371 C2377 0.950 . S
H2372 C2378 0.949 . S
C2373 H2368 0.950 . S
C2373 C2375 1.327 . S
C2373 C2379 1.429 . S
C2374 C2366 1.574 . S
C2374 H2369 0.949 . S
C2374 C2380 1.368 . S
C2375 C2359 1.349 . S
C2375 H2367 0.949 . S
C2375 C2373 1.327 . S
C2376 C2364 1.349 . S
C2376 H2370 0.950 . S
C2376 C2377 1.327 . S
C2377 H2371 0.950 . S
C2377 C2376 1.327 . S
C2377 C2381 1.429 . S
C2378 C2361 1.574 . S
C2378 H2372 0.949 . S
C2378 C2382 1.368 . S
C2379 C2360 1.429 . S
C2379 C2373 1.429 . S
C2379 C2380 1.523 . S
C2380 C2361 1.368 . S
C2380 C2374 1.368 . S
C2380 C2379 1.523 . S
C2381 C2365 1.429 . S
C2381 C2377 1.429 . S
C2381 C2382 1.523 . S
C2382 C2366 1.368 . S
C2382 C2378 1.368 . S
C2382 C2381 1.523 . S
H2383 C2358 0.950 . S
H2384 C2360 0.950 . S
H2385 C2361 0.949 . S
H2386 C2363 0.950 . S
H2387 C2365 0.950 . S
C2388 C2389 1.349 . S
C2388 C2390 1.327 . S
C2388 H2413 0.950 . S
C2389 C2388 1.349 . S
C2389 C2405 1.349 . S
C2390 C2388 1.327 . S
C2390 C2409 1.429 . S
C2390 H2414 0.950 . S
C2391 C2408 1.574 . S
C2391 C2410 1.368 . S
C2391 H2415 0.949 . S
H2392 C2396 0.949 . S
C2393 C2394 1.349 . S
C2393 C2395 1.327 . S
C2393 H2416 0.950 . S
C2394 C2393 1.349 . S
C2394 C2406 1.349 . S
C2395 C2393 1.327 . S
C2395 C2411 1.429 . S
C2395 H2417 0.950 . S
C2396 H2392 0.949 . S
C2396 C2404 1.574 . S
C2396 C2412 1.368 . S
H2397 C2405 0.950 . S
H2398 C2403 0.950 . S
H2399 C2404 0.949 . S
H2400 C2406 0.950 . S
H2401 C2407 0.950 . S
H2402 C2408 0.949 . S
C2403 H2398 0.950 . S
C2403 C2405 1.327 . S
C2403 C2409 1.429 . S
C2404 C2396 1.574 . S
C2404 H2399 0.949 . S
C2404 C2410 1.368 . S
C2405 C2389 1.349 . S
C2405 H2397 0.950 . S
C2405 C2403 1.327 . S
C2406 C2394 1.349 . S
C2406 H2400 0.950 . S
C2406 C2407 1.327 . S
C2407 H2401 0.950 . S
C2407 C2406 1.327 . S
C2407 C2411 1.429 . S
C2408 C2391 1.574 . S
C2408 H2402 0.949 . S
C2408 C2412 1.368 . S
C2409 C2390 1.429 . S
C2409 C2403 1.429 . S
C2409 C2410 1.523 . S
C2410 C2391 1.368 . S
C2410 C2404 1.368 . S
C2410 C2409 1.523 . S
C2411 C2395 1.429 . S
C2411 C2407 1.429 . S
C2411 C2412 1.523 . S
C2412 C2396 1.368 . S
C2412 C2408 1.368 . S
C2412 C2411 1.523 . S
H2413 C2388 0.950 . S
H2414 C2390 0.950 . S
H2415 C2391 0.949 . S
H2416 C2393 0.950 . S
H2417 C2395 0.950 . S
C2418 C2419 1.349 . S
C2418 C2420 1.327 . S
C2418 H2443 0.950 . S
C2419 C2418 1.349 . S
C2419 C2435 1.349 . S
C2420 C2418 1.327 . S
C2420 C2439 1.429 . S
C2420 H2444 0.950 . S
C2421 C2438 1.574 . S
C2421 C2440 1.368 . S
C2421 H2445 0.949 . S
H2422 C2426 0.949 . S
C2423 C2424 1.349 . S
C2423 C2425 1.327 . S
C2423 H2446 0.950 . S
C2424 C2423 1.349 . S
C2424 C2436 1.349 . S
C2425 C2423 1.327 . S
C2425 C2441 1.429 . S
C2425 H2447 0.950 . S
C2426 H2422 0.949 . S
C2426 C2434 1.574 . S
C2426 C2442 1.368 . S
H2427 C2435 0.950 . S
H2428 C2433 0.950 . S
H2429 C2434 0.949 . S
H2430 C2436 0.950 . S
H2431 C2437 0.950 . S
H2432 C2438 0.949 . S
C2433 H2428 0.950 . S
C2433 C2435 1.327 . S
C2433 C2439 1.429 . S
C2434 C2426 1.574 . S
C2434 H2429 0.949 . S
C2434 C2440 1.368 . S
C2435 C2419 1.349 . S
C2435 H2427 0.950 . S
C2435 C2433 1.327 . S
C2436 C2424 1.349 . S
C2436 H2430 0.950 . S
C2436 C2437 1.327 . S
C2437 H2431 0.950 . S
C2437 C2436 1.327 . S
C2437 C2441 1.429 . S
C2438 C2421 1.574 . S
C2438 H2432 0.949 . S
C2438 C2442 1.368 . S
C2439 C2420 1.429 . S
C2439 C2433 1.429 . S
C2439 C2440 1.523 . S
C2440 C2421 1.368 . S
C2440 C2434 1.368 . S
C2440 C2439 1.523 . S
C2441 C2425 1.429 . S
C2441 C2437 1.429 . S
C2441 C2442 1.523 . S
C2442 C2426 1.368 . S
C2442 C2438 1.368 . S
C2442 C2441 1.523 . S
H2443 C2418 0.950 . S
H2444 C2420 0.950 . S
H2445 C2421 0.949 . S
H2446 C2423 0.950 . S
H2447 C2425 0.950 . S
C2448 C2449 1.349 . S
C2448 C2450 1.327 . S
C2448 H2473 0.950 . S
C2449 C2448 1.349 . S
C2449 C2465 1.349 . S
C2450 C2448 1.327 . S
C2450 C2469 1.429 . S
C2450 H2474 0.950 . S
C2451 C2468 1.574 . S
C2451 C2470 1.368 . S
C2451 H2475 0.949 . S
H2452 C2456 0.949 . S
C2453 C2454 1.349 . S
C2453 C2455 1.327 . S
C2453 H2476 0.950 . S
C2454 C2453 1.349 . S
C2454 C2466 1.349 . S
C2455 C2453 1.327 . S
C2455 C2471 1.429 . S
C2455 H2477 0.950 . S
C2456 H2452 0.949 . S
C2456 C2464 1.574 . S
C2456 C2472 1.368 . S
H2457 C2465 0.950 . S
H2458 C2463 0.950 . S
H2459 C2464 0.949 . S
H2460 C2466 0.950 . S
H2461 C2467 0.950 . S
H2462 C2468 0.949 . S
C2463 H2458 0.950 . S
C2463 C2465 1.327 . S
C2463 C2469 1.429 . S
C2464 C2456 1.574 . S
C2464 H2459 0.949 . S
C2464 C2470 1.368 . S
C2465 C2449 1.349 . S
C2465 H2457 0.950 . S
C2465 C2463 1.327 . S
C2466 C2454 1.349 . S
C2466 H2460 0.950 . S
C2466 C2467 1.327 . S
C2467 H2461 0.950 . S
C2467 C2466 1.327 . S
C2467 C2471 1.429 . S
C2468 C2451 1.574 . S
C2468 H2462 0.949 . S
C2468 C2472 1.368 . S
C2469 C2450 1.429 . S
C2469 C2463 1.429 . S
C2469 C2470 1.523 . S
C2470 C2451 1.368 . S
C2470 C2464 1.368 . S
C2470 C2469 1.523 . S
C2471 C2455 1.429 . S
C2471 C2467 1.429 . S
C2471 C2472 1.523 . S
C2472 C2456 1.368 . S
C2472 C2468 1.368 . S
C2472 C2471 1.523 . S
H2473 C2448 0.950 . S
H2474 C2450 0.950 . S
H2475 C2451 0.949 . S
H2476 C2453 0.950 . S
H2477 C2455 0.950 . S
C2478 C2479 1.349 . S
C2478 C2480 1.327 . S
C2478 H2503 0.950 . S
C2479 C2478 1.349 . S
C2479 C2495 1.349 . S
C2480 C2478 1.327 . S
C2480 C2499 1.429 . S
C2480 H2504 0.950 . S
C2481 C2498 1.574 . S
C2481 C2500 1.368 . S
C2481 H2505 0.949 . S
H2482 C2486 0.949 . S
C2483 C2484 1.349 . S
C2483 C2485 1.327 . S
C2483 H2506 0.950 . S
C2484 C2483 1.349 . S
C2484 C2496 1.349 . S
C2485 C2483 1.327 . S
C2485 C2501 1.429 . S
C2485 H2507 0.950 . S
C2486 H2482 0.949 . S
C2486 C2494 1.574 . S
C2486 C2502 1.368 . S
H2487 C2495 0.950 . S
H2488 C2493 0.950 . S
H2489 C2494 0.949 . S
H2490 C2496 0.950 . S
H2491 C2497 0.950 . S
H2492 C2498 0.949 . S
C2493 H2488 0.950 . S
C2493 C2495 1.327 . S
C2493 C2499 1.429 . S
C2494 C2486 1.574 . S
C2494 H2489 0.949 . S
C2494 C2500 1.368 . S
C2495 C2479 1.349 . S
C2495 H2487 0.950 . S
C2495 C2493 1.327 . S
C2496 C2484 1.349 . S
C2496 H2490 0.950 . S
C2496 C2497 1.327 . S
C2497 H2491 0.950 . S
C2497 C2496 1.327 . S
C2497 C2501 1.429 . S
C2498 C2481 1.574 . S
C2498 H2492 0.949 . S
C2498 C2502 1.368 . S
C2499 C2480 1.429 . S
C2499 C2493 1.429 . S
C2499 C2500 1.523 . S
C2500 C2481 1.368 . S
C2500 C2494 1.368 . S
C2500 C2499 1.523 . S
C2501 C2485 1.429 . S
C2501 C2497 1.429 . S
C2501 C2502 1.523 . S
C2502 C2486 1.368 . S
C2502 C2498 1.368 . S
C2502 C2501 1.523 . S
H2503 C2478 0.950 . S
H2504 C2480 0.950 . S
H2505 C2481 0.949 . S
H2506 C2483 0.950 . S
H2507 C2485 0.950 . S
C2508 C2509 1.349 . S
C2508 C2510 1.327 . S
C2508 H2533 0.950 . S
C2509 C2508 1.349 . S
C2509 C2525 1.349 . S
C2510 C2508 1.327 . S
C2510 C2529 1.429 . S
C2510 H2534 0.950 . S
C2511 C2528 1.574 . S
C2511 C2530 1.368 . S
C2511 H2535 0.949 . S
H2512 C2516 0.949 . S
C2513 C2514 1.349 . S
C2513 C2515 1.327 . S
C2513 H2536 0.950 . S
C2514 C2513 1.349 . S
C2514 C2526 1.349 . S
C2515 C2513 1.327 . S
C2515 C2531 1.429 . S
C2515 H2537 0.950 . S
C2516 H2512 0.949 . S
C2516 C2524 1.574 . S
C2516 C2532 1.368 . S
H2517 C2525 0.950 . S
H2518 C2523 0.950 . S
H2519 C2524 0.949 . S
H2520 C2526 0.950 . S
H2521 C2527 0.950 . S
H2522 C2528 0.949 . S
C2523 H2518 0.950 . S
C2523 C2525 1.327 . S
C2523 C2529 1.429 . S
C2524 C2516 1.574 . S
C2524 H2519 0.949 . S
C2524 C2530 1.368 . S
C2525 C2509 1.349 . S
C2525 H2517 0.950 . S
C2525 C2523 1.327 . S
C2526 C2514 1.349 . S
C2526 H2520 0.950 . S
C2526 C2527 1.327 . S
C2527 H2521 0.950 . S
C2527 C2526 1.327 . S
C2527 C2531 1.429 . S
C2528 C2511 1.574 . S
C2528 H2522 0.949 . S
C2528 C2532 1.368 . S
C2529 C2510 1.429 . S
C2529 C2523 1.429 . S
C2529 C2530 1.523 . S
C2530 C2511 1.368 . S
C2530 C2524 1.368 . S
C2530 C2529 1.523 . S
C2531 C2515 1.429 . S
C2531 C2527 1.429 . S
C2531 C2532 1.523 . S
C2532 C2516 1.368 . S
C2532 C2528 1.368 . S
C2532 C2531 1.523 . S
H2533 C2508 0.950 . S
H2534 C2510 0.950 . S
H2535 C2511 0.949 . S
H2536 C2513 0.950 . S
H2537 C2515 0.950 . S
C2538 C2539 1.349 . S
C2538 C2540 1.327 . S
C2538 H2563 0.950 . S
C2539 C2538 1.349 . S
C2539 C2555 1.349 . S
C2540 C2538 1.327 . S
C2540 C2559 1.429 . S
C2540 H2564 0.950 . S
C2541 C2558 1.574 . S
C2541 C2560 1.368 . S
C2541 H2565 0.949 . S
H2542 C2546 0.949 . S
C2543 C2544 1.349 . S
C2543 C2545 1.327 . S
C2543 H2566 0.950 . S
C2544 C2543 1.349 . S
C2544 C2556 1.349 . S
C2545 C2543 1.327 . S
C2545 C2561 1.429 . S
C2545 H2567 0.950 . S
C2546 H2542 0.949 . S
C2546 C2554 1.574 . S
C2546 C2562 1.368 . S
H2547 C2555 0.950 . S
H2548 C2553 0.950 . S
H2549 C2554 0.949 . S
H2550 C2556 0.950 . S
H2551 C2557 0.950 . S
H2552 C2558 0.949 . S
C2553 H2548 0.950 . S
C2553 C2555 1.327 . S
C2553 C2559 1.429 . S
C2554 C2546 1.574 . S
C2554 H2549 0.949 . S
C2554 C2560 1.368 . S
C2555 C2539 1.349 . S
C2555 H2547 0.950 . S
C2555 C2553 1.327 . S
C2556 C2544 1.349 . S
C2556 H2550 0.950 . S
C2556 C2557 1.327 . S
C2557 H2551 0.950 . S
C2557 C2556 1.327 . S
C2557 C2561 1.429 . S
C2558 C2541 1.574 . S
C2558 H2552 0.949 . S
C2558 C2562 1.368 . S
C2559 C2540 1.429 . S
C2559 C2553 1.429 . S
C2559 C2560 1.523 . S
C2560 C2541 1.368 . S
C2560 C2554 1.368 . S
C2560 C2559 1.523 . S
C2561 C2545 1.429 . S
C2561 C2557 1.429 . S
C2561 C2562 1.523 . S
C2562 C2546 1.368 . S
C2562 C2558 1.368 . S
C2562 C2561 1.523 . S
H2563 C2538 0.950 . S
H2564 C2540 0.950 . S
H2565 C2541 0.949 . S
H2566 C2543 0.950 . S
H2567 C2545 0.950 . S
C2568 C2569 1.349 . S
C2568 C2570 1.327 . S
C2568 H2593 0.950 . S
C2569 C2568 1.349 . S
C2569 C2585 1.349 . S
C2570 C2568 1.327 . S
C2570 C2589 1.429 . S
C2570 H2594 0.950 . S
C2571 C2588 1.574 . S
C2571 C2590 1.368 . S
C2571 H2595 0.949 . S
H2572 C2576 0.949 . S
C2573 C2574 1.349 . S
C2573 C2575 1.327 . S
C2573 H2596 0.950 . S
C2574 C2573 1.349 . S
C2574 C2586 1.349 . S
C2575 C2573 1.327 . S
C2575 C2591 1.429 . S
C2575 H2597 0.950 . S
C2576 H2572 0.949 . S
C2576 C2584 1.574 . S
C2576 C2592 1.368 . S
H2577 C2585 0.950 . S
H2578 C2583 0.950 . S
H2579 C2584 0.949 . S
H2580 C2586 0.950 . S
H2581 C2587 0.950 . S
H2582 C2588 0.949 . S
C2583 H2578 0.950 . S
C2583 C2585 1.327 . S
C2583 C2589 1.429 . S
C2584 C2576 1.574 . S
C2584 H2579 0.949 . S
C2584 C2590 1.368 . S
C2585 C2569 1.349 . S
C2585 H2577 0.950 . S
C2585 C2583 1.327 . S
C2586 C2574 1.349 . S
C2586 H2580 0.950 . S
C2586 C2587 1.327 . S
C2587 H2581 0.950 . S
C2587 C2586 1.327 . S
C2587 C2591 1.429 . S
C2588 C2571 1.574 . S
C2588 H2582 0.949 . S
C2588 C2592 1.368 . S
C2589 C2570 1.429 . S
C2589 C2583 1.429 . S
C2589 C2590 1.523 . S
C2590 C2571 1.368 . S
C2590 C2584 1.368 . S
C2590 C2589 1.523 . S
C2591 C2575 1.429 . S
C2591 C2587 1.429 . S
C2591 C2592 1.523 . S
C2592 C2576 1.368 . S
C2592 C2588 1.368 . S
C2592 C2591 1.523 . S
H2593 C2568 0.950 . S
H2594 C2570 0.950 . S
H2595 C2571 0.949 . S
H2596 C2573 0.950 . S
H2597 C2575 0.950 . S
C2598 C2599 1.349 . S
C2598 C2600 1.327 . S
C2598 H2623 0.950 . S
C2599 C2598 1.349 . S
C2599 C2615 1.349 . S
C2600 C2598 1.327 . S
C2600 C2619 1.429 . S
C2600 H2624 0.950 . S
C2601 C2618 1.574 . S
C2601 C2620 1.368 . S
C2601 H2625 0.949 . S
H2602 C2606 0.949 . S
C2603 C2604 1.349 . S
C2603 C2605 1.327 . S
C2603 H2626 0.950 . S
C2604 C2603 1.349 . S
C2604 C2616 1.349 . S
C2605 C2603 1.327 . S
C2605 C2621 1.429 . S
C2605 H2627 0.950 . S
C2606 H2602 0.949 . S
C2606 C2614 1.574 . S
C2606 C2622 1.368 . S
H2607 C2615 0.950 . S
H2608 C2613 0.950 . S
H2609 C2614 0.949 . S
H2610 C2616 0.950 . S
H2611 C2617 0.950 . S
H2612 C2618 0.949 . S
C2613 H2608 0.950 . S
C2613 C2615 1.327 . S
C2613 C2619 1.429 . S
C2614 C2606 1.574 . S
C2614 H2609 0.949 . S
C2614 C2620 1.368 . S
C2615 C2599 1.349 . S
C2615 H2607 0.950 . S
C2615 C2613 1.327 . S
C2616 C2604 1.349 . S
C2616 H2610 0.950 . S
C2616 C2617 1.327 . S
C2617 H2611 0.950 . S
C2617 C2616 1.327 . S
C2617 C2621 1.429 . S
C2618 C2601 1.574 . S
C2618 H2612 0.949 . S
C2618 C2622 1.368 . S
C2619 C2600 1.429 . S
C2619 C2613 1.429 . S
C2619 C2620 1.523 . S
C2620 C2601 1.368 . S
C2620 C2614 1.368 . S
C2620 C2619 1.523 . S
C2621 C2605 1.429 . S
C2621 C2617 1.429 . S
C2621 C2622 1.523 . S
C2622 C2606 1.368 . S
C2622 C2618 1.368 . S
C2622 C2621 1.523 . S
H2623 C2598 0.950 . S
H2624 C2600 0.950 . S
H2625 C2601 0.949 . S
H2626 C2603 0.950 . S
H2627 C2605 0.950 . S
C2628 C2629 1.349 . S
C2628 C2630 1.327 . S
C2628 H2653 0.950 . S
C2629 C2628 1.349 . S
C2629 C2645 1.349 . S
C2630 C2628 1.327 . S
C2630 C2649 1.429 . S
C2630 H2654 0.950 . S
C2631 C2648 1.574 . S
C2631 C2650 1.368 1_565 S
C2631 H2655 0.949 . S
H2632 C2636 0.949 . S
C2633 C2634 1.349 . S
C2633 C2635 1.327 . S
C2633 H2656 0.950 . S
C2634 C2633 1.349 . S
C2634 C2646 1.349 . S
C2635 C2633 1.327 . S
C2635 C2651 1.429 . S
C2635 H2657 0.950 . S
C2636 H2632 0.949 . S
C2636 C2644 1.574 . S
C2636 C2652 1.368 1_545 S
H2637 C2645 0.950 1_565 S
H2638 C2643 0.950 . S
H2639 C2644 0.949 . S
H2640 C2646 0.950 . S
H2641 C2647 0.950 1_545 S
H2642 C2648 0.949 . S
C2643 H2638 0.950 . S
C2643 C2645 1.327 1_565 S
C2643 C2649 1.429 1_565 S
C2644 C2636 1.574 . S
C2644 H2639 0.949 . S
C2644 C2650 1.368 . S
C2645 C2629 1.349 . S
C2645 H2637 0.950 1_545 S
C2645 C2643 1.327 1_545 S
C2646 C2634 1.349 . S
C2646 H2640 0.950 . S
C2646 C2647 1.327 . S
C2647 H2641 0.950 1_565 S
C2647 C2646 1.327 . S
C2647 C2651 1.429 . S
C2648 C2631 1.574 . S
C2648 H2642 0.949 . S
C2648 C2652 1.368 . S
C2649 C2630 1.429 . S
C2649 C2643 1.429 1_545 S
C2649 C2650 1.523 . S
C2650 C2631 1.368 1_545 S
C2650 C2644 1.368 . S
C2650 C2649 1.523 . S
C2651 C2635 1.429 . S
C2651 C2647 1.429 . S
C2651 C2652 1.523 . S
C2652 C2636 1.368 1_565 S
C2652 C2648 1.368 . S
C2652 C2651 1.523 . S
H2653 C2628 0.950 . S
H2654 C2630 0.950 . S
H2655 C2631 0.949 . S
H2656 C2633 0.950 . S
H2657 C2635 0.950 . S
C2658 C2659 1.349 . S
C2658 C2660 1.327 . S
C2658 H2683 0.950 1_556 S
C2659 C2658 1.349 . S
C2659 C2675 1.349 . S
C2660 C2658 1.327 . S
C2660 C2679 1.429 . S
C2660 H2684 0.950 . S
C2661 C2678 1.574 . S
C2661 C2680 1.368 . S
C2661 H2685 0.949 . S
H2662 C2666 0.949 . S
C2663 C2664 1.349 . S
C2663 C2665 1.327 . S
C2663 H2686 0.950 . S
C2664 C2663 1.349 . S
C2664 C2676 1.349 . S
C2665 C2663 1.327 . S
C2665 C2681 1.429 . S
C2665 H2687 0.950 . S
C2666 H2662 0.949 . S
C2666 C2674 1.574 . S
C2666 C2682 1.368 . S
H2667 C2675 0.950 . S
H2668 C2673 0.950 . S
H2669 C2674 0.949 . S
H2670 C2676 0.950 . S
H2671 C2677 0.950 . S
H2672 C2678 0.949 . S
C2673 H2668 0.950 . S
C2673 C2675 1.327 . S
C2673 C2679 1.429 . S
C2674 C2666 1.574 . S
C2674 H2669 0.949 . S
C2674 C2680 1.368 . S
C2675 C2659 1.349 . S
C2675 H2667 0.950 . S
C2675 C2673 1.327 . S
C2676 C2664 1.349 . S
C2676 H2670 0.950 . S
C2676 C2677 1.327 . S
C2677 H2671 0.950 . S
C2677 C2676 1.327 . S
C2677 C2681 1.429 . S
C2678 C2661 1.574 . S
C2678 H2672 0.949 . S
C2678 C2682 1.368 . S
C2679 C2660 1.429 . S
C2679 C2673 1.429 . S
C2679 C2680 1.523 . S
C2680 C2661 1.368 . S
C2680 C2674 1.368 . S
C2680 C2679 1.523 . S
C2681 C2665 1.429 . S
C2681 C2677 1.429 . S
C2681 C2682 1.523 . S
C2682 C2666 1.368 . S
C2682 C2678 1.368 . S
C2682 C2681 1.523 . S
H2683 C2658 0.950 1_554 S
H2684 C2660 0.950 . S
H2685 C2661 0.949 . S
H2686 C2663 0.950 . S
H2687 C2665 0.950 . S
C2688 C2689 1.349 . S
C2688 C2690 1.327 . S
C2688 H2713 0.950 . S
C2689 C2688 1.349 . S
C2689 C2705 1.349 . S
C2690 C2688 1.327 . S
C2690 C2709 1.429 . S
C2690 H2714 0.950 . S
C2691 C2708 1.574 . S
C2691 C2710 1.368 . S
C2691 H2715 0.949 . S
H2692 C2696 0.949 . S
C2693 C2694 1.349 . S
C2693 C2695 1.327 . S
C2693 H2716 0.950 . S
C2694 C2693 1.349 . S
C2694 C2706 1.349 . S
C2695 C2693 1.327 . S
C2695 C2711 1.429 . S
C2695 H2717 0.950 . S
C2696 H2692 0.949 . S
C2696 C2704 1.574 . S
C2696 C2712 1.368 . S
H2697 C2705 0.950 . S
H2698 C2703 0.950 . S
H2699 C2704 0.949 . S
H2700 C2706 0.950 . S
H2701 C2707 0.950 . S
H2702 C2708 0.949 . S
C2703 H2698 0.950 . S
C2703 C2705 1.327 . S
C2703 C2709 1.429 . S
C2704 C2696 1.574 . S
C2704 H2699 0.949 . S
C2704 C2710 1.368 . S
C2705 C2689 1.349 . S
C2705 H2697 0.950 . S
C2705 C2703 1.327 . S
C2706 C2694 1.349 . S
C2706 H2700 0.950 . S
C2706 C2707 1.327 . S
C2707 H2701 0.950 . S
C2707 C2706 1.327 . S
C2707 C2711 1.429 . S
C2708 C2691 1.574 . S
C2708 H2702 0.949 . S
C2708 C2712 1.368 . S
C2709 C2690 1.429 . S
C2709 C2703 1.429 . S
C2709 C2710 1.523 . S
C2710 C2691 1.368 . S
C2710 C2704 1.368 . S
C2710 C2709 1.523 . S
C2711 C2695 1.429 . S
C2711 C2707 1.429 . S
C2711 C2712 1.523 . S
C2712 C2696 1.368 . S
C2712 C2708 1.368 . S
C2712 C2711 1.523 . S
H2713 C2688 0.950 . S
H2714 C2690 0.950 . S
H2715 C2691 0.949 . S
H2716 C2693 0.950 . S
H2717 C2695 0.950 . S
C2718 C2719 1.349 . S
C2718 C2720 1.327 . S
C2718 H2743 0.950 . S
C2719 C2718 1.349 . S
C2719 C2735 1.349 . S
C2720 C2718 1.327 . S
C2720 C2739 1.429 . S
C2720 H2744 0.950 . S
C2721 C2738 1.574 . S
C2721 C2740 1.368 . S
C2721 H2745 0.949 . S
H2722 C2726 0.949 . S
C2723 C2724 1.349 . S
C2723 C2725 1.327 . S
C2723 H2746 0.950 . S
C2724 C2723 1.349 . S
C2724 C2736 1.349 . S
C2725 C2723 1.327 . S
C2725 C2741 1.429 . S
C2725 H2747 0.950 . S
C2726 H2722 0.949 . S
C2726 C2734 1.574 . S
C2726 C2742 1.368 . S
H2727 C2735 0.950 . S
H2728 C2733 0.950 . S
H2729 C2734 0.949 . S
H2730 C2736 0.950 . S
H2731 C2737 0.950 . S
H2732 C2738 0.949 . S
C2733 H2728 0.950 . S
C2733 C2735 1.327 . S
C2733 C2739 1.429 . S
C2734 C2726 1.574 . S
C2734 H2729 0.949 . S
C2734 C2740 1.368 . S
C2735 C2719 1.349 . S
C2735 H2727 0.950 . S
C2735 C2733 1.327 . S
C2736 C2724 1.349 . S
C2736 H2730 0.950 . S
C2736 C2737 1.327 . S
C2737 H2731 0.950 . S
C2737 C2736 1.327 . S
C2737 C2741 1.429 . S
C2738 C2721 1.574 . S
C2738 H2732 0.949 . S
C2738 C2742 1.368 . S
C2739 C2720 1.429 . S
C2739 C2733 1.429 . S
C2739 C2740 1.523 . S
C2740 C2721 1.368 . S
C2740 C2734 1.368 . S
C2740 C2739 1.523 . S
C2741 C2725 1.429 . S
C2741 C2737 1.429 . S
C2741 C2742 1.523 . S
C2742 C2726 1.368 . S
C2742 C2738 1.368 . S
C2742 C2741 1.523 . S
H2743 C2718 0.950 . S
H2744 C2720 0.950 . S
H2745 C2721 0.949 . S
H2746 C2723 0.950 . S
H2747 C2725 0.950 . S
C2748 C2749 1.349 . S
C2748 C2750 1.327 . S
C2748 H2773 0.950 . S
C2749 C2748 1.349 . S
C2749 C2765 1.349 . S
C2750 C2748 1.327 . S
C2750 C2769 1.429 . S
C2750 H2774 0.950 . S
C2751 C2768 1.574 . S
C2751 C2770 1.368 . S
C2751 H2775 0.949 . S
H2752 C2756 0.949 . S
C2753 C2754 1.349 . S
C2753 C2755 1.327 . S
C2753 H2776 0.950 . S
C2754 C2753 1.349 . S
C2754 C2766 1.349 . S
C2755 C2753 1.327 . S
C2755 C2771 1.429 . S
C2755 H2777 0.950 . S
C2756 H2752 0.949 . S
C2756 C2764 1.574 . S
C2756 C2772 1.368 . S
H2757 C2765 0.950 . S
H2758 C2763 0.950 . S
H2759 C2764 0.949 . S
H2760 C2766 0.950 . S
H2761 C2767 0.950 . S
H2762 C2768 0.949 . S
C2763 H2758 0.950 . S
C2763 C2765 1.327 . S
C2763 C2769 1.429 . S
C2764 C2756 1.574 . S
C2764 H2759 0.949 . S
C2764 C2770 1.368 . S
C2765 C2749 1.349 . S
C2765 H2757 0.950 . S
C2765 C2763 1.327 . S
C2766 C2754 1.349 . S
C2766 H2760 0.950 . S
C2766 C2767 1.327 . S
C2767 H2761 0.950 . S
C2767 C2766 1.327 . S
C2767 C2771 1.429 . S
C2768 C2751 1.574 . S
C2768 H2762 0.949 . S
C2768 C2772 1.368 . S
C2769 C2750 1.429 . S
C2769 C2763 1.429 . S
C2769 C2770 1.523 . S
C2770 C2751 1.368 . S
C2770 C2764 1.368 . S
C2770 C2769 1.523 . S
C2771 C2755 1.429 . S
C2771 C2767 1.429 . S
C2771 C2772 1.523 . S
C2772 C2756 1.368 . S
C2772 C2768 1.368 . S
C2772 C2771 1.523 . S
H2773 C2748 0.950 . S
H2774 C2750 0.950 . S
H2775 C2751 0.949 . S
H2776 C2753 0.950 . S
H2777 C2755 0.950 . S
C2778 C2779 1.349 . S
C2778 C2780 1.327 . S
C2778 H2803 0.950 . S
C2779 C2778 1.349 . S
C2779 C2795 1.349 . S
C2780 C2778 1.327 . S
C2780 C2799 1.429 . S
C2780 H2804 0.950 . S
C2781 C2798 1.606 . S
C2781 C2800 1.368 . S
C2781 H2805 0.921 1_455 S
H2782 C2786 0.949 . S
C2783 C2784 1.349 . S
C2783 C2785 1.327 . S
C2783 H2806 0.950 . S
C2784 C2783 1.349 . S
C2784 C2796 1.349 . S
C2785 C2783 1.327 . S
C2785 C2801 1.429 . S
C2785 H2807 0.950 . S
C2786 H2782 0.949 . S
C2786 C2794 1.574 . S
C2786 C2802 1.368 . S
H2787 C2795 0.950 . S
H2788 C2793 0.950 . S
H2789 C2794 0.949 . S
H2790 C2796 0.950 . S
H2791 C2797 0.950 . S
H2792 C2798 0.949 . S
C2793 H2788 0.950 . S
C2793 C2795 1.327 . S
C2793 C2799 1.429 . S
C2794 C2786 1.574 . S
C2794 H2789 0.949 . S
C2794 C2800 1.373 . S
C2795 C2779 1.349 . S
C2795 H2787 0.950 . S
C2795 C2793 1.327 . S
C2796 C2784 1.349 . S
C2796 H2790 0.950 . S
C2796 C2797 1.327 . S
C2797 H2791 0.950 . S
C2797 C2796 1.327 . S
C2797 C2801 1.429 . S
C2798 C2781 1.606 . S
C2798 H2792 0.949 . S
C2798 C2802 1.368 . S
C2799 C2780 1.429 . S
C2799 C2793 1.429 . S
C2799 C2800 1.516 1_655 S
C2800 C2781 1.368 . S
C2800 C2794 1.373 . S
C2800 C2799 1.516 1_455 S
C2801 C2785 1.429 . S
C2801 C2797 1.429 . S
C2801 C2802 1.523 . S
C2802 C2786 1.368 . S
C2802 C2798 1.368 . S
C2802 C2801 1.523 . S
H2803 C2778 0.950 . S
H2804 C2780 0.950 . S
H2805 C2781 0.921 1_655 S
H2806 C2783 0.950 . S
H2807 C2785 0.950 . S
C2808 C2809 1.349 . S
C2808 C2810 1.327 . S
C2808 H2833 0.950 . S
C2809 C2808 1.349 . S
C2809 C2825 1.349 . S
C2810 C2808 1.327 . S
C2810 C2829 1.429 . S
C2810 H2834 0.950 . S
C2811 C2828 1.574 . S
C2811 C2830 1.368 . S
C2811 H2835 0.949 . S
H2812 C2816 0.949 . S
C2813 C2814 1.349 . S
C2813 C2815 1.327 . S
C2813 H2836 0.950 . S
C2814 C2813 1.349 . S
C2814 C2826 1.349 . S
C2815 C2813 1.327 . S
C2815 C2831 1.429 . S
C2815 H2837 0.950 . S
C2816 H2812 0.949 . S
C2816 C2824 1.574 . S
C2816 C2832 1.368 . S
H2817 C2825 0.950 . S
H2818 C2823 0.950 . S
H2819 C2824 0.949 . S
H2820 C2826 0.950 . S
H2821 C2827 0.950 . S
H2822 C2828 0.949 . S
C2823 H2818 0.950 . S
C2823 C2825 1.327 . S
C2823 C2829 1.429 . S
C2824 C2816 1.574 . S
C2824 H2819 0.949 . S
C2824 C2830 1.368 . S
C2825 C2809 1.349 . S
C2825 H2817 0.950 . S
C2825 C2823 1.327 . S
C2826 C2814 1.349 . S
C2826 H2820 0.950 . S
C2826 C2827 1.327 . S
C2827 H2821 0.950 . S
C2827 C2826 1.327 . S
C2827 C2831 1.429 . S
C2828 C2811 1.574 . S
C2828 H2822 0.949 . S
C2828 C2832 1.368 . S
C2829 C2810 1.429 . S
C2829 C2823 1.429 . S
C2829 C2830 1.523 . S
C2830 C2811 1.368 . S
C2830 C2824 1.368 . S
C2830 C2829 1.523 . S
C2831 C2815 1.429 . S
C2831 C2827 1.429 . S
C2831 C2832 1.523 . S
C2832 C2816 1.368 . S
C2832 C2828 1.368 . S
C2832 C2831 1.523 . S
H2833 C2808 0.950 . S
H2834 C2810 0.950 . S
H2835 C2811 0.949 . S
H2836 C2813 0.950 . S
H2837 C2815 0.950 . S
C2838 C2839 1.349 . S
C2838 C2840 1.327 . S
C2838 H2863 0.950 . S
C2839 C2838 1.349 . S
C2839 C2855 1.349 . S
C2840 C2838 1.327 . S
C2840 C2859 1.429 . S
C2840 H2864 0.950 . S
C2841 C2858 1.574 1_556 S
C2841 C2860 1.368 . S
C2841 H2865 0.949 . S
H2842 C2846 0.949 . S
C2843 C2844 1.349 . S
C2843 C2845 1.327 . S
C2843 H2866 0.950 . S
C2844 C2843 1.349 . S
C2844 C2856 1.349 . S
C2845 C2843 1.327 . S
C2845 C2861 1.429 . S
C2845 H2867 0.950 . S
C2846 H2842 0.949 . S
C2846 C2854 1.574 1_554 S
C2846 C2862 1.368 . S
H2847 C2855 0.950 . S
H2848 C2853 0.950 . S
H2849 C2854 0.949 . S
H2850 C2856 0.950 . S
H2851 C2857 0.950 . S
H2852 C2858 0.949 . S
C2853 H2848 0.950 . S
C2853 C2855 1.327 . S
C2853 C2859 1.429 . S
C2854 C2846 1.574 1_556 S
C2854 H2849 0.949 . S
C2854 C2860 1.368 . S
C2855 C2839 1.349 . S
C2855 H2847 0.950 . S
C2855 C2853 1.327 . S
C2856 C2844 1.349 . S
C2856 H2850 0.950 . S
C2856 C2857 1.327 . S
C2857 H2851 0.950 . S
C2857 C2856 1.327 . S
C2857 C2861 1.429 . S
C2858 C2841 1.574 1_554 S
C2858 H2852 0.949 . S
C2858 C2862 1.368 . S
C2859 C2840 1.429 . S
C2859 C2853 1.429 . S
C2859 C2860 1.523 . S
C2860 C2841 1.368 . S
C2860 C2854 1.368 . S
C2860 C2859 1.523 . S
C2861 C2845 1.429 . S
C2861 C2857 1.429 . S
C2861 C2862 1.523 . S
C2862 C2846 1.368 . S
C2862 C2858 1.368 . S
C2862 C2861 1.523 . S
H2863 C2838 0.950 . S
H2864 C2840 0.950 . S
H2865 C2841 0.949 . S
H2866 C2843 0.950 . S
H2867 C2845 0.950 . S
C2868 C2869 1.349 . S
C2868 C2870 1.327 . S
C2868 H2893 0.950 . S
C2869 C2868 1.349 . S
C2869 C2885 1.349 . S
C2870 C2868 1.327 . S
C2870 C2889 1.429 . S
C2870 H2894 0.950 . S
C2871 C2888 1.574 . S
C2871 C2890 1.368 . S
C2871 H2895 0.949 . S
H2872 C2876 0.949 . S
C2873 C2874 1.349 . S
C2873 C2875 1.327 . S
C2873 H2896 0.950 . S
C2874 C2873 1.349 . S
C2874 C2886 1.349 . S
C2875 C2873 1.327 . S
C2875 C2891 1.429 . S
C2875 H2897 0.950 . S
C2876 H2872 0.949 . S
C2876 C2884 1.574 . S
C2876 C2892 1.368 . S
H2877 C2885 0.950 . S
H2878 C2883 0.950 . S
H2879 C2884 0.949 . S
H2880 C2886 0.950 . S
H2881 C2887 0.950 . S
H2882 C2888 0.949 . S
C2883 H2878 0.950 . S
C2883 C2885 1.327 . S
C2883 C2889 1.429 . S
C2884 C2876 1.574 . S
C2884 H2879 0.949 . S
C2884 C2890 1.368 . S
C2885 C2869 1.349 . S
C2885 H2877 0.950 . S
C2885 C2883 1.327 . S
C2886 C2874 1.349 . S
C2886 H2880 0.950 . S
C2886 C2887 1.327 . S
C2887 H2881 0.950 . S
C2887 C2886 1.327 . S
C2887 C2891 1.429 . S
C2888 C2871 1.574 . S
C2888 H2882 0.949 . S
C2888 C2892 1.368 . S
C2889 C2870 1.429 . S
C2889 C2883 1.429 . S
C2889 C2890 1.523 . S
C2890 C2871 1.368 . S
C2890 C2884 1.368 . S
C2890 C2889 1.523 . S
C2891 C2875 1.429 . S
C2891 C2887 1.429 . S
C2891 C2892 1.523 . S
C2892 C2876 1.368 . S
C2892 C2888 1.368 . S
C2892 C2891 1.523 . S
H2893 C2868 0.950 . S
H2894 C2870 0.950 . S
H2895 C2871 0.949 . S
H2896 C2873 0.950 . S
H2897 C2875 0.950 . S
C2898 C2899 1.349 . S
C2898 C2900 1.327 . S
C2898 H2923 0.950 . S
C2899 C2898 1.349 . S
C2899 C2915 1.349 . S
C2900 C2898 1.327 . S
C2900 C2919 1.429 . S
C2900 H2924 0.950 . S
C2901 C2918 1.574 . S
C2901 C2920 1.368 . S
C2901 H2925 0.949 . S
H2902 C2906 0.949 . S
C2903 C2904 1.349 . S
C2903 C2905 1.327 . S
C2903 H2926 0.950 . S
C2904 C2903 1.349 . S
C2904 C2916 1.349 . S
C2905 C2903 1.327 . S
C2905 C2921 1.429 . S
C2905 H2927 0.950 . S
C2906 H2902 0.949 . S
C2906 C2914 1.574 . S
C2906 C2922 1.368 . S
H2907 C2915 0.950 . S
H2908 C2913 0.950 . S
H2909 C2914 0.949 . S
H2910 C2916 0.950 . S
H2911 C2917 0.950 . S
H2912 C2918 0.949 . S
C2913 H2908 0.950 . S
C2913 C2915 1.327 . S
C2913 C2919 1.429 . S
C2914 C2906 1.574 . S
C2914 H2909 0.949 . S
C2914 C2920 1.368 . S
C2915 C2899 1.349 . S
C2915 H2907 0.950 . S
C2915 C2913 1.327 . S
C2916 C2904 1.349 . S
C2916 H2910 0.950 . S
C2916 C2917 1.327 . S
C2917 H2911 0.950 . S
C2917 C2916 1.327 . S
C2917 C2921 1.429 . S
C2918 C2901 1.574 . S
C2918 H2912 0.949 . S
C2918 C2922 1.368 . S
C2919 C2900 1.429 . S
C2919 C2913 1.429 . S
C2919 C2920 1.523 . S
C2920 C2901 1.368 . S
C2920 C2914 1.368 . S
C2920 C2919 1.523 . S
C2921 C2905 1.429 . S
C2921 C2917 1.429 . S
C2921 C2922 1.523 . S
C2922 C2906 1.368 . S
C2922 C2918 1.368 . S
C2922 C2921 1.523 . S
H2923 C2898 0.950 . S
H2924 C2900 0.950 . S
H2925 C2901 0.949 . S
H2926 C2903 0.950 . S
H2927 C2905 0.950 . S
C2928 C2929 1.349 . S
C2928 C2930 1.327 . S
C2928 H2953 0.950 . S
C2929 C2928 1.349 . S
C2929 C2945 1.349 . S
C2930 C2928 1.327 . S
C2930 C2949 1.429 . S
C2930 H2954 0.950 . S
C2931 C2948 1.574 . S
C2931 C2950 1.368 . S
C2931 H2955 0.949 . S
H2932 C2936 0.949 . S
C2933 C2934 1.349 . S
C2933 C2935 1.327 . S
C2933 H2956 0.950 . S
C2934 C2933 1.349 . S
C2934 C2946 1.349 . S
C2935 C2933 1.327 . S
C2935 C2951 1.429 . S
C2935 H2957 0.950 . S
C2936 H2932 0.949 . S
C2936 C2944 1.574 . S
C2936 C2952 1.368 . S
H2937 C2945 0.950 . S
H2938 C2943 0.950 . S
H2939 C2944 0.949 . S
H2940 C2946 0.950 . S
H2941 C2947 0.950 . S
H2942 C2948 0.949 . S
C2943 H2938 0.950 . S
C2943 C2945 1.327 . S
C2943 C2949 1.429 . S
C2944 C2936 1.574 . S
C2944 H2939 0.949 . S
C2944 C2950 1.368 . S
C2945 C2929 1.349 . S
C2945 H2937 0.950 . S
C2945 C2943 1.327 . S
C2946 C2934 1.349 . S
C2946 H2940 0.950 . S
C2946 C2947 1.327 . S
C2947 H2941 0.950 . S
C2947 C2946 1.327 . S
C2947 C2951 1.429 . S
C2948 C2931 1.574 . S
C2948 H2942 0.949 . S
C2948 C2952 1.368 . S
C2949 C2930 1.429 . S
C2949 C2943 1.429 . S
C2949 C2950 1.523 . S
C2950 C2931 1.368 . S
C2950 C2944 1.368 . S
C2950 C2949 1.523 . S
C2951 C2935 1.429 . S
C2951 C2947 1.429 . S
C2951 C2952 1.523 . S
C2952 C2936 1.368 . S
C2952 C2948 1.368 . S
C2952 C2951 1.523 . S
H2953 C2928 0.950 . S
H2954 C2930 0.950 . S
H2955 C2931 0.949 . S
H2956 C2933 0.950 . S
H2957 C2935 0.950 . S
C2958 C2959 1.349 . S
C2958 C2960 1.327 . S
C2958 H2983 0.950 . S
C2959 C2958 1.349 . S
C2959 C2975 1.349 . S
C2960 C2958 1.327 . S
C2960 C2979 1.429 . S
C2960 H2984 0.950 . S
C2961 C2978 1.574 1_554 S
C2961 C2980 1.368 . S
C2961 H2985 0.949 . S
H2962 C2966 0.949 . S
C2963 C2964 1.349 . S
C2963 C2965 1.327 . S
C2963 H2986 0.950 . S
C2964 C2963 1.349 . S
C2964 C2976 1.349 . S
C2965 C2963 1.327 . S
C2965 C2981 1.429 . S
C2965 H2987 0.950 . S
C2966 H2962 0.949 . S
C2966 C2974 1.574 1_556 S
C2966 C2982 1.368 . S
H2967 C2975 0.950 . S
H2968 C2973 0.950 . S
H2969 C2974 0.949 . S
H2970 C2976 0.950 . S
H2971 C2977 0.950 . S
H2972 C2978 0.949 . S
C2973 H2968 0.950 . S
C2973 C2975 1.327 . S
C2973 C2979 1.429 . S
C2974 C2966 1.574 1_554 S
C2974 H2969 0.949 . S
C2974 C2980 1.368 . S
C2975 C2959 1.349 . S
C2975 H2967 0.950 . S
C2975 C2973 1.327 . S
C2976 C2964 1.349 . S
C2976 H2970 0.950 . S
C2976 C2977 1.327 . S
C2977 H2971 0.950 . S
C2977 C2976 1.327 . S
C2977 C2981 1.429 . S
C2978 C2961 1.574 1_556 S
C2978 H2972 0.949 . S
C2978 C2982 1.368 . S
C2979 C2960 1.429 . S
C2979 C2973 1.429 . S
C2979 C2980 1.523 . S
C2980 C2961 1.368 . S
C2980 C2974 1.368 . S
C2980 C2979 1.523 . S
C2981 C2965 1.429 . S
C2981 C2977 1.429 . S
C2981 C2982 1.523 . S
C2982 C2966 1.368 . S
C2982 C2978 1.368 . S
C2982 C2981 1.523 . S
H2983 C2958 0.950 . S
H2984 C2960 0.950 . S
H2985 C2961 0.949 . S
H2986 C2963 0.950 . S
H2987 C2965 0.950 . S
C2988 C2989 1.349 . S
C2988 C2990 1.327 . S
C2988 H3013 0.950 . S
C2989 C2988 1.349 . S
C2989 C3005 1.349 . S
C2990 C2988 1.327 . S
C2990 C3009 1.429 . S
C2990 H3014 0.950 . S
C2991 C3008 1.574 . S
C2991 C3010 1.368 . S
C2991 H3015 0.949 . S
H2992 C2996 0.949 . S
C2993 C2994 1.349 . S
C2993 C2995 1.327 . S
C2993 H3016 0.950 . S
C2994 C2993 1.349 . S
C2994 C3006 1.349 . S
C2995 C2993 1.327 . S
C2995 C3011 1.429 . S
C2995 H3017 0.950 . S
C2996 H2992 0.949 . S
C2996 C3004 1.574 . S
C2996 C3012 1.368 . S
H2997 C3005 0.950 . S
H2998 C3003 0.950 . S
H2999 C3004 0.949 . S
H3000 C3006 0.950 . S
H3001 C3007 0.950 . S
H3002 C3008 0.949 . S
C3003 H2998 0.950 . S
C3003 C3005 1.327 . S
C3003 C3009 1.429 . S
C3004 C2996 1.574 . S
C3004 H2999 0.949 . S
C3004 C3010 1.368 . S
C3005 C2989 1.349 . S
C3005 H2997 0.950 . S
C3005 C3003 1.327 . S
C3006 C2994 1.349 . S
C3006 H3000 0.950 . S
C3006 C3007 1.327 . S
C3007 H3001 0.950 . S
C3007 C3006 1.327 . S
C3007 C3011 1.429 . S
C3008 C2991 1.574 . S
C3008 H3002 0.949 . S
C3008 C3012 1.368 . S
C3009 C2990 1.429 . S
C3009 C3003 1.429 . S
C3009 C3010 1.523 . S
C3010 C2991 1.368 . S
C3010 C3004 1.368 . S
C3010 C3009 1.523 . S
C3011 C2995 1.429 . S
C3011 C3007 1.429 . S
C3011 C3012 1.523 . S
C3012 C2996 1.368 . S
C3012 C3008 1.368 . S
C3012 C3011 1.523 . S
H3013 C2988 0.950 . S
H3014 C2990 0.950 . S
H3015 C2991 0.949 . S
H3016 C2993 0.950 . S
H3017 C2995 0.950 . S
C3018 C3019 1.349 . S
C3018 C3020 1.327 . S
C3018 H3043 0.950 . S
C3019 C3018 1.349 . S
C3019 C3035 1.349 . S
C3020 C3018 1.327 . S
C3020 C3039 1.429 . S
C3020 H3044 0.950 . S
C3021 C3038 1.574 . S
C3021 C3040 1.368 . S
C3021 H3045 0.949 . S
H3022 C3026 0.949 . S
C3023 C3024 1.349 . S
C3023 C3025 1.327 . S
C3023 H3046 0.950 . S
C3024 C3023 1.349 . S
C3024 C3036 1.349 . S
C3025 C3023 1.327 . S
C3025 C3041 1.429 . S
C3025 H3047 0.950 . S
C3026 H3022 0.949 . S
C3026 C3034 1.574 . S
C3026 C3042 1.368 . S
H3027 C3035 0.950 . S
H3028 C3033 0.950 . S
H3029 C3034 0.949 . S
H3030 C3036 0.950 . S
H3031 C3037 0.950 . S
H3032 C3038 0.949 . S
C3033 H3028 0.950 . S
C3033 C3035 1.327 . S
C3033 C3039 1.429 . S
C3034 C3026 1.574 . S
C3034 H3029 0.949 . S
C3034 C3040 1.368 . S
C3035 C3019 1.349 . S
C3035 H3027 0.950 . S
C3035 C3033 1.327 . S
C3036 C3024 1.349 . S
C3036 H3030 0.950 . S
C3036 C3037 1.327 . S
C3037 H3031 0.950 . S
C3037 C3036 1.327 . S
C3037 C3041 1.429 . S
C3038 C3021 1.574 . S
C3038 H3032 0.949 . S
C3038 C3042 1.368 . S
C3039 C3020 1.429 . S
C3039 C3033 1.429 . S
C3039 C3040 1.523 . S
C3040 C3021 1.368 . S
C3040 C3034 1.368 . S
C3040 C3039 1.523 . S
C3041 C3025 1.429 . S
C3041 C3037 1.429 . S
C3041 C3042 1.523 . S
C3042 C3026 1.368 . S
C3042 C3038 1.368 . S
C3042 C3041 1.523 . S
H3043 C3018 0.950 . S
H3044 C3020 0.950 . S
H3045 C3021 0.949 . S
H3046 C3023 0.950 . S
H3047 C3025 0.950 . S
C3048 C3049 1.349 . S
C3048 C3050 1.327 . S
C3048 H3073 0.950 . S
C3049 C3048 1.349 . S
C3049 C3065 1.349 . S
C3050 C3048 1.327 . S
C3050 C3069 1.429 . S
C3050 H3074 0.950 . S
C3051 C3068 1.574 . S
C3051 C3070 1.368 . S
C3051 H3075 0.949 . S
H3052 C3056 0.949 . S
C3053 C3054 1.349 . S
C3053 C3055 1.327 . S
C3053 H3076 0.950 . S
C3054 C3053 1.349 . S
C3054 C3066 1.349 . S
C3055 C3053 1.327 . S
C3055 C3071 1.429 . S
C3055 H3077 0.950 . S
C3056 H3052 0.949 . S
C3056 C3064 1.574 . S
C3056 C3072 1.368 . S
H3057 C3065 0.950 . S
H3058 C3063 0.950 . S
H3059 C3064 0.949 . S
H3060 C3066 0.950 . S
H3061 C3067 0.950 . S
H3062 C3068 0.949 . S
C3063 H3058 0.950 . S
C3063 C3065 1.327 . S
C3063 C3069 1.429 . S
C3064 C3056 1.574 . S
C3064 H3059 0.949 . S
C3064 C3070 1.368 . S
C3065 C3049 1.349 . S
C3065 H3057 0.950 . S
C3065 C3063 1.327 . S
C3066 C3054 1.349 . S
C3066 H3060 0.950 . S
C3066 C3067 1.327 . S
C3067 H3061 0.950 . S
C3067 C3066 1.327 . S
C3067 C3071 1.429 . S
C3068 C3051 1.574 . S
C3068 H3062 0.949 . S
C3068 C3072 1.368 . S
C3069 C3050 1.429 . S
C3069 C3063 1.429 . S
C3069 C3070 1.523 . S
C3070 C3051 1.368 . S
C3070 C3064 1.368 . S
C3070 C3069 1.523 . S
C3071 C3055 1.429 . S
C3071 C3067 1.429 . S
C3071 C3072 1.523 . S
C3072 C3056 1.368 . S
C3072 C3068 1.368 . S
C3072 C3071 1.523 . S
H3073 C3048 0.950 . S
H3074 C3050 0.950 . S
H3075 C3051 0.949 . S
H3076 C3053 0.950 . S
H3077 C3055 0.950 . S
C3078 C3079 1.349 . S
C3078 C3080 1.327 . S
C3078 H3103 0.950 . S
C3079 C3078 1.349 . S
C3079 C3095 1.349 . S
C3080 C3078 1.327 . S
C3080 C3099 1.429 . S
C3080 H3104 0.950 . S
C3081 C3098 1.574 . S
C3081 C3100 1.368 . S
C3081 H3105 0.949 . S
H3082 C3086 0.949 . S
C3083 C3084 1.349 . S
C3083 C3085 1.327 . S
C3083 H3106 0.950 . S
C3084 C3083 1.349 . S
C3084 C3096 1.349 . S
C3085 C3083 1.327 . S
C3085 C3101 1.429 . S
C3085 H3107 0.950 . S
C3086 H3082 0.949 . S
C3086 C3094 1.574 . S
C3086 C3102 1.368 . S
H3087 C3095 0.950 . S
H3088 C3093 0.950 . S
H3089 C3094 0.949 . S
H3090 C3096 0.950 . S
H3091 C3097 0.950 . S
H3092 C3098 0.949 . S
C3093 H3088 0.950 . S
C3093 C3095 1.327 . S
C3093 C3099 1.429 . S
C3094 C3086 1.574 . S
C3094 H3089 0.949 . S
C3094 C3100 1.368 . S
C3095 C3079 1.349 . S
C3095 H3087 0.950 . S
C3095 C3093 1.327 . S
C3096 C3084 1.349 . S
C3096 H3090 0.950 . S
C3096 C3097 1.327 . S
C3097 H3091 0.950 . S
C3097 C3096 1.327 . S
C3097 C3101 1.429 . S
C3098 C3081 1.574 . S
C3098 H3092 0.949 . S
C3098 C3102 1.368 . S
C3099 C3080 1.429 . S
C3099 C3093 1.429 . S
C3099 C3100 1.523 . S
C3100 C3081 1.368 . S
C3100 C3094 1.368 . S
C3100 C3099 1.523 . S
C3101 C3085 1.429 . S
C3101 C3097 1.429 . S
C3101 C3102 1.523 . S
C3102 C3086 1.368 . S
C3102 C3098 1.368 . S
C3102 C3101 1.523 . S
H3103 C3078 0.950 . S
H3104 C3080 0.950 . S
H3105 C3081 0.949 . S
H3106 C3083 0.950 . S
H3107 C3085 0.950 . S
C3108 C3109 1.349 . S
C3108 C3110 1.327 . S
C3108 H3133 0.950 . S
C3109 C3108 1.349 . S
C3109 C3125 1.349 . S
C3110 C3108 1.327 . S
C3110 C3129 1.429 . S
C3110 H3134 0.950 . S
C3111 C3128 1.574 . S
C3111 C3130 1.368 . S
C3111 H3135 0.949 . S
H3112 C3116 0.949 . S
C3113 C3114 1.349 . S
C3113 C3115 1.327 . S
C3113 H3136 0.950 . S
C3114 C3113 1.349 . S
C3114 C3126 1.349 . S
C3115 C3113 1.327 . S
C3115 C3131 1.429 . S
C3115 H3137 0.950 . S
C3116 H3112 0.949 . S
C3116 C3124 1.574 . S
C3116 C3132 1.368 . S
H3117 C3125 0.950 . S
H3118 C3123 0.950 . S
H3119 C3124 0.949 . S
H3120 C3126 0.950 . S
H3121 C3127 0.950 . S
H3122 C3128 0.949 . S
C3123 H3118 0.950 . S
C3123 C3125 1.327 . S
C3123 C3129 1.429 . S
C3124 C3116 1.574 . S
C3124 H3119 0.949 . S
C3124 C3130 1.368 . S
C3125 C3109 1.349 . S
C3125 H3117 0.950 . S
C3125 C3123 1.327 . S
C3126 C3114 1.349 . S
C3126 H3120 0.950 . S
C3126 C3127 1.327 . S
C3127 H3121 0.950 . S
C3127 C3126 1.327 . S
C3127 C3131 1.429 . S
C3128 C3111 1.574 . S
C3128 H3122 0.949 . S
C3128 C3132 1.368 . S
C3129 C3110 1.429 . S
C3129 C3123 1.429 . S
C3129 C3130 1.523 . S
C3130 C3111 1.368 . S
C3130 C3124 1.368 . S
C3130 C3129 1.523 . S
C3131 C3115 1.429 . S
C3131 C3127 1.429 . S
C3131 C3132 1.523 . S
C3132 C3116 1.368 . S
C3132 C3128 1.368 . S
C3132 C3131 1.523 . S
H3133 C3108 0.950 . S
H3134 C3110 0.950 . S
H3135 C3111 0.949 . S
H3136 C3113 0.950 . S
H3137 C3115 0.950 . S
C3138 C3139 1.349 . S
C3138 C3140 1.327 . S
C3138 H3163 0.950 . S
C3139 C3138 1.349 . S
C3139 C3155 1.349 . S
C3140 C3138 1.327 . S
C3140 C3159 1.429 . S
C3140 H3164 0.950 . S
C3141 C3158 1.574 . S
C3141 C3160 1.368 . S
C3141 H3165 0.949 . S
H3142 C3146 0.949 . S
C3143 C3144 1.349 . S
C3143 C3145 1.327 . S
C3143 H3166 0.950 . S
C3144 C3143 1.349 . S
C3144 C3156 1.349 . S
C3145 C3143 1.327 . S
C3145 C3161 1.429 . S
C3145 H3167 0.950 . S
C3146 H3142 0.949 . S
C3146 C3154 1.574 . S
C3146 C3162 1.368 . S
H3147 C3155 0.950 . S
H3148 C3153 0.950 . S
H3149 C3154 0.949 . S
H3150 C3156 0.950 . S
H3151 C3157 0.950 . S
H3152 C3158 0.949 . S
C3153 H3148 0.950 . S
C3153 C3155 1.327 . S
C3153 C3159 1.429 . S
C3154 C3146 1.574 . S
C3154 H3149 0.949 . S
C3154 C3160 1.368 . S
C3155 C3139 1.349 . S
C3155 H3147 0.950 . S
C3155 C3153 1.327 . S
C3156 C3144 1.349 . S
C3156 H3150 0.950 . S
C3156 C3157 1.327 . S
C3157 H3151 0.950 . S
C3157 C3156 1.327 . S
C3157 C3161 1.429 . S
C3158 C3141 1.574 . S
C3158 H3152 0.949 . S
C3158 C3162 1.368 . S
C3159 C3140 1.429 . S
C3159 C3153 1.429 . S
C3159 C3160 1.523 . S
C3160 C3141 1.368 . S
C3160 C3154 1.368 . S
C3160 C3159 1.523 . S
C3161 C3145 1.429 . S
C3161 C3157 1.429 . S
C3161 C3162 1.523 . S
C3162 C3146 1.368 . S
C3162 C3158 1.368 . S
C3162 C3161 1.523 . S
H3163 C3138 0.950 . S
H3164 C3140 0.950 . S
H3165 C3141 0.949 . S
H3166 C3143 0.950 . S
H3167 C3145 0.950 . S
C3168 C3169 1.349 . S
C3168 C3170 1.327 . S
C3168 H3193 0.950 . S
C3169 C3168 1.349 . S
C3169 C3185 1.349 . S
C3170 C3168 1.327 . S
C3170 C3189 1.429 . S
C3170 H3194 0.950 . S
C3171 C3188 1.574 . S
C3171 C3190 1.368 . S
C3171 H3195 0.949 . S
H3172 C3176 0.949 . S
C3173 C3174 1.349 . S
C3173 C3175 1.327 . S
C3173 H3196 0.950 . S
C3174 C3173 1.349 . S
C3174 C3186 1.349 . S
C3175 C3173 1.327 . S
C3175 C3191 1.429 . S
C3175 H3197 0.950 . S
C3176 H3172 0.949 . S
C3176 C3184 1.574 . S
C3176 C3192 1.368 . S
H3177 C3185 0.950 . S
H3178 C3183 0.950 . S
H3179 C3184 0.949 . S
H3180 C3186 0.950 . S
H3181 C3187 0.950 . S
H3182 C3188 0.949 . S
C3183 H3178 0.950 . S
C3183 C3185 1.327 . S
C3183 C3189 1.429 . S
C3184 C3176 1.574 . S
C3184 H3179 0.949 . S
C3184 C3190 1.368 . S
C3185 C3169 1.349 . S
C3185 H3177 0.950 . S
C3185 C3183 1.327 . S
C3186 C3174 1.349 . S
C3186 H3180 0.950 . S
C3186 C3187 1.327 . S
C3187 H3181 0.950 . S
C3187 C3186 1.327 . S
C3187 C3191 1.429 . S
C3188 C3171 1.574 . S
C3188 H3182 0.949 . S
C3188 C3192 1.368 . S
C3189 C3170 1.429 . S
C3189 C3183 1.429 . S
C3189 C3190 1.523 . S
C3190 C3171 1.368 . S
C3190 C3184 1.368 . S
C3190 C3189 1.523 . S
C3191 C3175 1.429 . S
C3191 C3187 1.429 . S
C3191 C3192 1.523 . S
C3192 C3176 1.368 . S
C3192 C3188 1.368 . S
C3192 C3191 1.523 . S
H3193 C3168 0.950 . S
H3194 C3170 0.950 . S
H3195 C3171 0.949 . S
H3196 C3173 0.950 . S
H3197 C3175 0.950 . S
C3198 C3199 1.349 . S
C3198 C3200 1.327 . S
C3198 H3223 0.950 . S
C3199 C3198 1.349 . S
C3199 C3215 1.349 . S
C3200 C3198 1.327 . S
C3200 C3219 1.429 . S
C3200 H3224 0.950 . S
C3201 C3218 1.574 . S
C3201 C3220 1.368 . S
C3201 H3225 0.949 . S
H3202 C3206 0.949 . S
C3203 C3204 1.349 . S
C3203 C3205 1.327 . S
C3203 H3226 0.950 . S
C3204 C3203 1.349 . S
C3204 C3216 1.349 . S
C3205 C3203 1.327 . S
C3205 C3221 1.429 . S
C3205 H3227 0.950 . S
C3206 H3202 0.949 . S
C3206 C3214 1.574 . S
C3206 C3222 1.368 . S
H3207 C3215 0.950 1_554 S
H3208 C3213 0.977 . S
H3209 C3214 0.949 . S
H3210 C3216 0.950 . S
H3211 C3217 0.950 . S
H3212 C3218 0.949 . S
C3213 H3208 0.977 . S
C3213 C3215 1.327 . S
C3213 C3219 1.429 . S
C3214 C3206 1.574 . S
C3214 H3209 0.949 . S
C3214 C3220 1.368 . S
C3215 C3199 1.349 . S
C3215 H3207 0.950 1_556 S
C3215 C3213 1.327 . S
C3216 C3204 1.349 . S
C3216 H3210 0.950 . S
C3216 C3217 1.327 . S
C3217 H3211 0.950 . S
C3217 C3216 1.327 . S
C3217 C3221 1.429 . S
C3218 C3201 1.574 . S
C3218 H3212 0.949 . S
C3218 C3222 1.368 . S
C3219 C3200 1.429 . S
C3219 C3213 1.429 . S
C3219 C3220 1.523 . S
C3220 C3201 1.368 . S
C3220 C3214 1.368 . S
C3220 C3219 1.523 . S
C3221 C3205 1.429 . S
C3221 C3217 1.429 . S
C3221 C3222 1.523 . S
C3222 C3206 1.368 . S
C3222 C3218 1.368 . S
C3222 C3221 1.523 . S
H3223 C3198 0.950 . S
H3224 C3200 0.950 . S
H3225 C3201 0.949 . S
H3226 C3203 0.950 . S
H3227 C3205 0.950 . S
C3228 C3229 1.349 . S
C3228 C3230 1.327 . S
C3228 H3253 0.950 . S
C3229 C3228 1.349 . S
C3229 C3245 1.349 . S
C3230 C3228 1.327 . S
C3230 C3249 1.429 . S
C3230 H3254 0.950 . S
C3231 C3248 1.574 . S
C3231 C3250 1.368 . S
C3231 H3255 0.949 . S
H3232 C3236 0.949 . S
C3233 C3234 1.349 . S
C3233 C3235 1.327 . S
C3233 H3256 0.950 . S
C3234 C3233 1.349 . S
C3234 C3246 1.349 . S
C3235 C3233 1.327 . S
C3235 C3251 1.429 . S
C3235 H3257 0.950 . S
C3236 H3232 0.949 . S
C3236 C3244 1.574 . S
C3236 C3252 1.368 . S
H3237 C3245 0.950 . S
H3238 C3243 0.950 . S
H3239 C3244 0.949 . S
H3240 C3246 0.950 . S
H3241 C3247 0.950 . S
H3242 C3248 0.949 . S
C3243 H3238 0.950 . S
C3243 C3245 1.327 . S
C3243 C3249 1.429 . S
C3244 C3236 1.574 . S
C3244 H3239 0.949 . S
C3244 C3250 1.368 . S
C3245 C3229 1.349 . S
C3245 H3237 0.950 . S
C3245 C3243 1.327 . S
C3246 C3234 1.349 . S
C3246 H3240 0.950 . S
C3246 C3247 1.327 . S
C3247 H3241 0.950 . S
C3247 C3246 1.327 . S
C3247 C3251 1.429 . S
C3248 C3231 1.574 . S
C3248 H3242 0.949 . S
C3248 C3252 1.368 . S
C3249 C3230 1.429 . S
C3249 C3243 1.429 . S
C3249 C3250 1.523 . S
C3250 C3231 1.368 . S
C3250 C3244 1.368 . S
C3250 C3249 1.523 . S
C3251 C3235 1.429 . S
C3251 C3247 1.429 . S
C3251 C3252 1.523 . S
C3252 C3236 1.368 . S
C3252 C3248 1.368 . S
C3252 C3251 1.523 . S
H3253 C3228 0.950 . S
H3254 C3230 0.950 . S
H3255 C3231 0.949 . S
H3256 C3233 0.950 . S
H3257 C3235 0.950 . S
C3258 C3259 1.349 . S
C3258 C3260 1.327 . S
C3258 H3283 0.950 . S
C3259 C3258 1.349 . S
C3259 C3275 1.349 . S
C3260 C3258 1.327 . S
C3260 C3279 1.429 . S
C3260 H3284 0.950 . S
C3261 C3278 1.574 . S
C3261 C3280 1.368 . S
C3261 H3285 0.949 . S
H3262 C3266 0.949 . S
C3263 C3264 1.349 . S
C3263 C3265 1.327 . S
C3263 H3286 0.950 . S
C3264 C3263 1.349 . S
C3264 C3276 1.349 . S
C3265 C3263 1.327 . S
C3265 C3281 1.429 . S
C3265 H3287 0.950 . S
C3266 H3262 0.949 . S
C3266 C3274 1.574 . S
C3266 C3282 1.368 . S
H3267 C3275 0.950 . S
H3268 C3273 0.950 . S
H3269 C3274 0.949 . S
H3270 C3276 0.950 . S
H3271 C3277 0.950 . S
H3272 C3278 0.949 . S
C3273 H3268 0.950 . S
C3273 C3275 1.327 . S
C3273 C3279 1.429 . S
C3274 C3266 1.574 . S
C3274 H3269 0.949 . S
C3274 C3280 1.368 . S
C3275 C3259 1.349 . S
C3275 H3267 0.950 . S
C3275 C3273 1.327 . S
C3276 C3264 1.349 . S
C3276 H3270 0.950 . S
C3276 C3277 1.327 . S
C3277 H3271 0.950 . S
C3277 C3276 1.327 . S
C3277 C3281 1.429 . S
C3278 C3261 1.574 . S
C3278 H3272 0.949 . S
C3278 C3282 1.368 . S
C3279 C3260 1.429 . S
C3279 C3273 1.429 . S
C3279 C3280 1.523 . S
C3280 C3261 1.368 . S
C3280 C3274 1.368 . S
C3280 C3279 1.523 . S
C3281 C3265 1.429 . S
C3281 C3277 1.429 . S
C3281 C3282 1.523 . S
C3282 C3266 1.368 . S
C3282 C3278 1.368 . S
C3282 C3281 1.523 . S
H3283 C3258 0.950 . S
H3284 C3260 0.950 . S
H3285 C3261 0.949 . S
H3286 C3263 0.950 . S
H3287 C3265 0.950 . S
C3288 C3289 1.349 . S
C3288 C3290 1.327 . S
C3288 H3313 0.950 . S
C3289 C3288 1.349 . S
C3289 C3305 1.349 . S
C3290 C3288 1.327 . S
C3290 C3309 1.429 . S
C3290 H3314 0.950 . S
C3291 C3308 1.574 . S
C3291 C3310 1.368 . S
C3291 H3315 0.949 . S
H3292 C3296 0.949 . S
C3293 C3294 1.349 . S
C3293 C3295 1.327 . S
C3293 H3316 0.950 . S
C3294 C3293 1.349 . S
C3294 C3306 1.349 . S
C3295 C3293 1.327 . S
C3295 C3311 1.429 . S
C3295 H3317 0.950 . S
C3296 H3292 0.949 . S
C3296 C3304 1.574 . S
C3296 C3312 1.368 . S
H3297 C3305 0.950 . S
H3298 C3303 0.950 . S
H3299 C3304 0.949 . S
H3300 C3306 0.950 . S
H3301 C3307 0.950 . S
H3302 C3308 0.949 . S
C3303 H3298 0.950 . S
C3303 C3305 1.327 . S
C3303 C3309 1.429 . S
C3304 C3296 1.574 . S
C3304 H3299 0.949 . S
C3304 C3310 1.368 . S
C3305 C3289 1.349 . S
C3305 H3297 0.950 . S
C3305 C3303 1.327 . S
C3306 C3294 1.349 . S
C3306 H3300 0.950 . S
C3306 C3307 1.327 . S
C3307 H3301 0.950 . S
C3307 C3306 1.327 . S
C3307 C3311 1.429 . S
C3308 C3291 1.574 . S
C3308 H3302 0.949 . S
C3308 C3312 1.368 . S
C3309 C3290 1.429 . S
C3309 C3303 1.429 . S
C3309 C3310 1.523 . S
C3310 C3291 1.368 . S
C3310 C3304 1.368 . S
C3310 C3309 1.523 . S
C3311 C3295 1.429 . S
C3311 C3307 1.429 . S
C3311 C3312 1.523 . S
C3312 C3296 1.368 . S
C3312 C3308 1.368 . S
C3312 C3311 1.523 . S
H3313 C3288 0.950 . S
H3314 C3290 0.950 . S
H3315 C3291 0.949 . S
H3316 C3293 0.950 . S
H3317 C3295 0.950 . S
C3318 C3319 1.349 . S
C3318 C3320 1.327 . S
C3318 H3343 0.950 . S
C3319 C3318 1.349 . S
C3319 C3335 1.349 . S
C3320 C3318 1.327 . S
C3320 C3339 1.429 . S
C3320 H3344 0.950 . S
C3321 C3338 1.574 . S
C3321 C3340 1.368 . S
C3321 H3345 0.949 . S
H3322 C3326 0.949 . S
C3323 C3324 1.349 . S
C3323 C3325 1.327 . S
C3323 H3346 0.950 . S
C3324 C3323 1.349 . S
C3324 C3336 1.349 . S
C3325 C3323 1.327 . S
C3325 C3341 1.429 . S
C3325 H3347 0.950 . S
C3326 H3322 0.949 . S
C3326 C3334 1.574 . S
C3326 C3342 1.368 . S
H3327 C3335 0.950 . S
H3328 C3333 0.950 . S
H3329 C3334 0.949 . S
H3330 C3336 0.950 . S
H3331 C3337 0.950 . S
H3332 C3338 0.949 . S
C3333 H3328 0.950 . S
C3333 C3335 1.327 . S
C3333 C3339 1.429 . S
C3334 C3326 1.574 . S
C3334 H3329 0.949 . S
C3334 C3340 1.368 . S
C3335 C3319 1.349 . S
C3335 H3327 0.950 . S
C3335 C3333 1.327 . S
C3336 C3324 1.349 . S
C3336 H3330 0.950 . S
C3336 C3337 1.327 . S
C3337 H3331 0.950 . S
C3337 C3336 1.327 . S
C3337 C3341 1.429 . S
C3338 C3321 1.574 . S
C3338 H3332 0.949 . S
C3338 C3342 1.368 . S
C3339 C3320 1.429 . S
C3339 C3333 1.429 . S
C3339 C3340 1.523 . S
C3340 C3321 1.368 . S
C3340 C3334 1.368 . S
C3340 C3339 1.523 . S
C3341 C3325 1.429 . S
C3341 C3337 1.429 . S
C3341 C3342 1.523 . S
C3342 C3326 1.368 . S
C3342 C3338 1.368 . S
C3342 C3341 1.523 . S
H3343 C3318 0.950 . S
H3344 C3320 0.950 . S
H3345 C3321 0.949 . S
H3346 C3323 0.950 . S
H3347 C3325 0.950 . S
C3348 C3349 1.349 . S
C3348 C3350 1.327 . S
C3348 H3373 0.950 . S
C3349 C3348 1.349 . S
C3349 C3365 1.349 . S
C3350 C3348 1.327 . S
C3350 C3369 1.429 . S
C3350 H3374 0.950 . S
C3351 C3368 1.574 . S
C3351 C3370 1.368 . S
C3351 H3375 0.949 . S
H3352 C3356 0.949 . S
C3353 C3354 1.349 . S
C3353 C3355 1.327 . S
C3353 H3376 0.950 . S
C3354 C3353 1.349 . S
C3354 C3366 1.349 . S
C3355 C3353 1.327 . S
C3355 C3371 1.429 . S
C3355 H3377 0.950 . S
C3356 H3352 0.949 . S
C3356 C3364 1.574 . S
C3356 C3372 1.368 . S
H3357 C3365 0.950 . S
H3358 C3363 0.950 . S
H3359 C3364 0.949 . S
H3360 C3366 0.950 . S
H3361 C3367 0.950 . S
H3362 C3368 0.949 . S
C3363 H3358 0.950 . S
C3363 C3365 1.327 . S
C3363 C3369 1.429 . S
C3364 C3356 1.574 . S
C3364 H3359 0.949 . S
C3364 C3370 1.368 . S
C3365 C3349 1.349 . S
C3365 H3357 0.950 . S
C3365 C3363 1.327 . S
C3366 C3354 1.349 . S
C3366 H3360 0.950 . S
C3366 C3367 1.327 . S
C3367 H3361 0.950 . S
C3367 C3366 1.327 . S
C3367 C3371 1.429 . S
C3368 C3351 1.574 . S
C3368 H3362 0.949 . S
C3368 C3372 1.368 . S
C3369 C3350 1.429 . S
C3369 C3363 1.429 . S
C3369 C3370 1.523 . S
C3370 C3351 1.368 . S
C3370 C3364 1.368 . S
C3370 C3369 1.523 . S
C3371 C3355 1.429 . S
C3371 C3367 1.429 . S
C3371 C3372 1.523 . S
C3372 C3356 1.368 . S
C3372 C3368 1.368 . S
C3372 C3371 1.523 . S
H3373 C3348 0.950 . S
H3374 C3350 0.950 . S
H3375 C3351 0.949 . S
H3376 C3353 0.950 . S
H3377 C3355 0.950 . S
C3378 C3379 1.349 . S
C3378 C3380 1.327 . S
C3378 H3403 0.950 . S
C3379 C3378 1.349 . S
C3379 C3395 1.349 . S
C3380 C3378 1.327 . S
C3380 C3399 1.429 . S
C3380 H3404 0.950 . S
C3381 C3398 1.574 . S
C3381 C3400 1.368 . S
C3381 H3405 0.949 . S
H3382 C3386 0.949 . S
C3383 C3384 1.349 . S
C3383 C3385 1.327 . S
C3383 H3406 0.950 . S
C3384 C3383 1.349 . S
C3384 C3396 1.349 . S
C3385 C3383 1.327 . S
C3385 C3401 1.429 . S
C3385 H3407 0.950 . S
C3386 H3382 0.949 . S
C3386 C3394 1.574 . S
C3386 C3402 1.368 . S
H3387 C3395 0.950 . S
H3388 C3393 0.950 . S
H3389 C3394 0.949 . S
H3390 C3396 0.950 . S
H3391 C3397 0.950 . S
H3392 C3398 0.949 . S
C3393 H3388 0.950 . S
C3393 C3395 1.327 . S
C3393 C3399 1.429 . S
C3394 C3386 1.574 . S
C3394 H3389 0.949 . S
C3394 C3400 1.368 . S
C3395 C3379 1.349 . S
C3395 H3387 0.950 . S
C3395 C3393 1.327 . S
C3396 C3384 1.349 . S
C3396 H3390 0.950 . S
C3396 C3397 1.327 . S
C3397 H3391 0.950 . S
C3397 C3396 1.327 . S
C3397 C3401 1.429 . S
C3398 C3381 1.574 . S
C3398 H3392 0.949 . S
C3398 C3402 1.368 . S
C3399 C3380 1.429 . S
C3399 C3393 1.429 . S
C3399 C3400 1.523 . S
C3400 C3381 1.368 . S
C3400 C3394 1.368 . S
C3400 C3399 1.523 . S
C3401 C3385 1.429 . S
C3401 C3397 1.429 . S
C3401 C3402 1.523 . S
C3402 C3386 1.368 . S
C3402 C3398 1.368 . S
C3402 C3401 1.523 . S
H3403 C3378 0.950 . S
H3404 C3380 0.950 . S
H3405 C3381 0.949 . S
H3406 C3383 0.950 . S
H3407 C3385 0.950 . S
C3408 C3409 1.349 . S
C3408 C3410 1.327 . S
C3408 H3433 0.950 . S
C3409 C3408 1.349 . S
C3409 C3425 1.349 . S
C3410 C3408 1.327 . S
C3410 C3429 1.429 . S
C3410 H3434 0.950 . S
C3411 C3428 1.574 . S
C3411 C3430 1.368 . S
C3411 H3435 0.949 . S
H3412 C3416 0.949 . S
C3413 C3414 1.349 . S
C3413 C3415 1.327 . S
C3413 H3436 0.950 . S
C3414 C3413 1.349 . S
C3414 C3426 1.349 . S
C3415 C3413 1.327 . S
C3415 C3431 1.429 . S
C3415 H3437 0.950 . S
C3416 H3412 0.949 . S
C3416 C3424 1.574 . S
C3416 C3432 1.368 . S
H3417 C3425 0.950 . S
H3418 C3423 0.950 . S
H3419 C3424 0.949 . S
H3420 C3426 0.950 . S
H3421 C3427 0.950 . S
H3422 C3428 0.949 . S
C3423 H3418 0.950 . S
C3423 C3425 1.327 . S
C3423 C3429 1.429 . S
C3424 C3416 1.574 . S
C3424 H3419 0.949 . S
C3424 C3430 1.368 . S
C3425 C3409 1.349 . S
C3425 H3417 0.950 . S
C3425 C3423 1.327 . S
C3426 C3414 1.349 . S
C3426 H3420 0.950 . S
C3426 C3427 1.327 . S
C3427 H3421 0.950 . S
C3427 C3426 1.327 . S
C3427 C3431 1.429 . S
C3428 C3411 1.574 . S
C3428 H3422 0.949 . S
C3428 C3432 1.368 . S
C3429 C3410 1.429 . S
C3429 C3423 1.429 . S
C3429 C3430 1.523 . S
C3430 C3411 1.368 . S
C3430 C3424 1.368 . S
C3430 C3429 1.523 . S
C3431 C3415 1.429 . S
C3431 C3427 1.429 . S
C3431 C3432 1.523 . S
C3432 C3416 1.368 . S
C3432 C3428 1.368 . S
C3432 C3431 1.523 . S
H3433 C3408 0.950 . S
H3434 C3410 0.950 . S
H3435 C3411 0.949 . S
H3436 C3413 0.950 . S
H3437 C3415 0.950 . S
C3438 C3439 1.368 . S
C3438 C3440 1.344 . S
C3438 H3463 0.915 1_556 S
C3439 C3438 1.368 . S
C3439 C3455 1.349 . S
C3440 C3438 1.344 . S
C3440 C3459 1.429 . S
C3440 H3464 0.950 . S
C3441 C3458 1.574 . S
C3441 C3460 1.368 . S
C3441 H3465 0.949 . S
H3442 C3446 0.949 . S
C3443 C3444 1.349 . S
C3443 C3445 1.327 . S
C3443 H3466 0.950 . S
C3444 C3443 1.349 . S
C3444 C3456 1.349 . S
C3445 C3443 1.327 . S
C3445 C3461 1.429 . S
C3445 H3467 0.950 . S
C3446 H3442 0.949 . S
C3446 C3454 1.574 . S
C3446 C3462 1.368 . S
H3447 C3455 0.950 . S
H3448 C3453 0.950 . S
H3449 C3454 0.949 . S
H3450 C3456 0.950 . S
H3451 C3457 0.950 . S
H3452 C3458 0.949 . S
C3453 H3448 0.950 . S
C3453 C3455 1.327 . S
C3453 C3459 1.429 . S
C3454 C3446 1.574 . S
C3454 H3449 0.949 . S
C3454 C3460 1.368 . S
C3455 C3439 1.349 . S
C3455 H3447 0.950 . S
C3455 C3453 1.327 . S
C3456 C3444 1.349 . S
C3456 H3450 0.950 . S
C3456 C3457 1.327 . S
C3457 H3451 0.950 . S
C3457 C3456 1.327 . S
C3457 C3461 1.429 . S
C3458 C3441 1.574 . S
C3458 H3452 0.949 . S
C3458 C3462 1.368 . S
C3459 C3440 1.429 . S
C3459 C3453 1.429 . S
C3459 C3460 1.523 . S
C3460 C3441 1.368 . S
C3460 C3454 1.368 . S
C3460 C3459 1.523 . S
C3461 C3445 1.429 . S
C3461 C3457 1.429 . S
C3461 C3462 1.523 . S
C3462 C3446 1.368 . S
C3462 C3458 1.368 . S
C3462 C3461 1.523 . S
H3463 C3438 0.915 1_554 S
H3464 C3440 0.950 . S
H3465 C3441 0.949 . S
H3466 C3443 0.950 . S
H3467 C3445 0.950 . S
C3468 C3469 1.349 . S
C3468 C3470 1.327 . S
C3468 H3493 0.950 1_565 S
C3469 C3468 1.349 . S
C3469 C3485 1.349 . S
C3470 C3468 1.327 . S
C3470 C3489 1.429 . S
C3470 H3494 0.950 1_565 S
C3471 C3488 1.574 . S
C3471 C3490 1.368 . S
C3471 H3495 0.949 . S
H3472 C3476 0.949 . S
C3473 C3474 1.349 . S
C3473 C3475 1.327 . S
C3473 H3496 0.950 . S
C3474 C3473 1.349 . S
C3474 C3486 1.349 . S
C3475 C3473 1.327 . S
C3475 C3491 1.429 . S
C3475 H3497 0.950 . S
C3476 H3472 0.949 . S
C3476 C3484 1.574 . S
C3476 C3492 1.368 . S
H3477 C3485 0.950 . S
H3478 C3483 0.950 . S
H3479 C3484 0.949 . S
H3480 C3486 0.950 . S
H3481 C3487 0.950 . S
H3482 C3488 0.949 . S
C3483 H3478 0.950 . S
C3483 C3485 1.327 . S
C3483 C3489 1.429 . S
C3484 C3476 1.574 . S
C3484 H3479 0.949 . S
C3484 C3490 1.368 . S
C3485 C3469 1.349 . S
C3485 H3477 0.950 . S
C3485 C3483 1.327 . S
C3486 C3474 1.349 . S
C3486 H3480 0.950 . S
C3486 C3487 1.327 . S
C3487 H3481 0.950 . S
C3487 C3486 1.327 . S
C3487 C3491 1.429 . S
C3488 C3471 1.574 . S
C3488 H3482 0.949 . S
C3488 C3492 1.368 . S
C3489 C3470 1.429 . S
C3489 C3483 1.429 . S
C3489 C3490 1.523 . S
C3490 C3471 1.368 . S
C3490 C3484 1.368 . S
C3490 C3489 1.523 . S
C3491 C3475 1.429 . S
C3491 C3487 1.429 . S
C3491 C3492 1.523 . S
C3492 C3476 1.368 . S
C3492 C3488 1.368 . S
C3492 C3491 1.523 . S
H3493 C3468 0.950 1_545 S
H3494 C3470 0.950 1_545 S
H3495 C3471 0.949 . S
H3496 C3473 0.950 . S
H3497 C3475 0.950 . S
C3498 C3499 1.349 . S
C3498 C3500 1.327 . S
C3498 H3523 0.950 . S
C3499 C3498 1.349 . S
C3499 C3515 1.349 . S
C3500 C3498 1.327 . S
C3500 C3519 1.429 . S
C3500 H3524 0.950 . S
C3501 C3518 1.574 . S
C3501 C3520 1.368 . S
C3501 H3525 0.949 . S
H3502 C3506 0.949 . S
C3503 C3504 1.349 . S
C3503 C3505 1.327 . S
C3503 H3526 0.950 . S
C3504 C3503 1.349 . S
C3504 C3516 1.349 . S
C3505 C3503 1.327 . S
C3505 C3521 1.429 . S
C3505 H3527 0.950 . S
C3506 H3502 0.949 . S
C3506 C3514 1.574 . S
C3506 C3522 1.368 . S
H3507 C3515 0.950 . S
H3508 C3513 0.950 . S
H3509 C3514 0.949 . S
H3510 C3516 0.950 . S
H3511 C3517 0.950 1_455 S
H3512 C3518 0.977 . S
C3513 H3508 0.950 . S
C3513 C3515 1.327 . S
C3513 C3519 1.429 . S
C3514 C3506 1.574 . S
C3514 H3509 0.949 . S
C3514 C3520 1.368 . S
C3515 C3499 1.349 . S
C3515 H3507 0.950 . S
C3515 C3513 1.327 . S
C3516 C3504 1.349 . S
C3516 H3510 0.950 . S
C3516 C3517 1.327 . S
C3517 H3511 0.950 1_655 S
C3517 C3516 1.327 . S
C3517 C3521 1.429 . S
C3518 C3501 1.574 . S
C3518 H3512 0.977 . S
C3518 C3522 1.368 . S
C3519 C3500 1.429 . S
C3519 C3513 1.429 . S
C3519 C3520 1.523 . S
C3520 C3501 1.368 . S
C3520 C3514 1.368 . S
C3520 C3519 1.523 . S
C3521 C3505 1.429 . S
C3521 C3517 1.429 . S
C3521 C3522 1.523 1_655 S
C3522 C3506 1.368 . S
C3522 C3518 1.368 . S
C3522 C3521 1.523 1_455 S
H3523 C3498 0.950 . S
H3524 C3500 0.950 . S
H3525 C3501 0.949 . S
H3526 C3503 0.950 . S
H3527 C3505 0.950 . S
C654 C328 1.073 . S
C649 C10 1.112 . S
C679 C16 1.688 . S
C684 C350 1.701 . S
C714 C372 1.069 . S
C709 C30 1.173 . S
C744 C389 1.428 . S
C739 C42 1.425 . S
C774 C347 1.686 . S
C769 C57 1.674 . S
C799 C69 1.084 . S
C804 C367 1.044 . S
C834 C392 1.310 . S
C829 C83 1.311 . S
C859 C101 1.278 . S
C864 C327 1.158 . S
C889 C108 1.479 . S
C894 C330 1.365 . S
C924 C349 1.244 . S
C919 C120 1.310 . S
C954 C371 1.333 . S
C949 C133 1.315 . S
C984 C388 1.212 . S
C979 C147 1.272 1_556 S
C1014 C346 1.015 . S
C1009 C114 1.068 . S
C1044 C369 1.012 . S
C1039 C122 1.110 . S
C1069 C135 1.223 . S
C1074 C391 1.160 . S
C1104 C326 1.221 . S
C1099 C153 1.200 . S
C1129 C160 1.491 . S
C1134 C329 1.503 . S
C1159 C174 0.871 . S
C1164 C411 0.819 . S
C1194 C431 1.318 . S
C1189 C187 1.313 . S
C1224 C456 1.116 . S
C1219 C205 1.289 . S
C1249 C212 1.560 . S
C1254 C325 1.510 . S
C1279 C226 1.489 . S
C1284 C370 1.433 . S
C1314 C453 1.205 . S
C1309 C185 1.388 . S
C1344 C414 0.825 . S
C1339 C244 0.877 . S
C1374 C472 1.025 . S
C1369 C23 1.063 . S
C1404 C497 1.590 . S
C1399 C5 1.607 . S
C1429 C49 1.052 . S
C1434 C514 1.016 . S
C1459 C29 1.075 . S
C1464 C536 1.068 . S
C1489 C94 1.729 . S
C1494 C494 1.716 . S
C1519 C88 1.158 . S
C1524 C519 1.024 . S
C1554 C539 1.188 . S
C1549 C70 1.194 . S
C1579 C62 1.196 . S
C1584 C477 1.071 . S
C1609 C257 1.050 . S
C1614 C474 0.949 . S
C1644 C496 1.384 . S
C1639 C200 1.462 . S
C1674 C516 1.294 . S
C1669 C211 1.463 . S
C1704 C535 1.179 . S
C1699 C179 1.241 . S
C1734 C493 0.938 . S
C1729 C251 0.976 . S
C1764 C518 0.884 . S
C1759 C198 0.887 . S
C1794 C538 0.801 . S
C1789 C213 0.816 . S
C1819 C173 1.306 . S
C1824 C476 1.306 . S
C1854 C473 1.293 . S
C1849 C264 1.298 . S
C1879 C148 0.796 . S
C1884 C558 0.773 . S
C1914 C578 1.262 . S
C1909 C278 1.272 . S
C1939 C127 1.324 . S
C1944 C603 1.127 . S
C1974 C475 1.356 . S
C1969 C140 1.410 . S
C2004 C515 1.326 . S
C1999 C289 1.334 . S
C2034 C600 1.076 . S
C2029 C276 1.269 . S
C2059 C303 0.737 . S
C2064 C561 0.744 . S
C2089 C36 1.027 . S
C2094 C622 0.994 . S
C2119 C44 1.478 . S
C2124 C413 1.489 . S
C2154 C435 1.092 . S
C2149 C4 1.197 . S
C2179 C18 1.177 . S
C2184 C452 1.178 . S
C2209 C81 1.380 . S
C2214 C410 1.386 . S
C2239 C95 1.105 . S
C2244 C430 1.064 . S
C2274 C455 1.154 . S
C2269 C55 1.158 . S
C2304 C621 1.092 . S
C2299 C75 1.192 . S
C2334 C624 1.102 . S
C2329 C277 1.218 . S
C2364 C412 1.011 . S
C2359 C263 1.057 . S
C2394 C434 1.365 . S
C2389 C302 1.347 . S
C2419 C290 1.233 . S
C2424 C451 1.188 . S
C2454 C409 0.934 . S
C2449 C283 0.966 . S
C2479 C265 1.132 . S
C2484 C432 1.024 . S
C2514 C454 0.950 . S
C2509 C304 0.990 . S
C2539 C296 1.006 . S
C2544 C620 1.014 . S
C2574 C623 1.235 . S
C2569 C199 1.220 . S
C2599 C224 0.737 . S
C2604 C348 0.743 . S
C2634 C368 1.387 . S
C2629 C252 1.383 . S
C2659 C166 1.230 . S
C2664 C393 1.076 . S
C2694 C619 1.267 . S
C2689 C238 1.304 . S
C2724 C433 1.372 . S
C2719 C172 1.424 . S
C2754 C390 1.090 . S
C2749 C250 1.251 . S
C2784 C351 0.783 . S
C2779 C218 0.807 . S
C2809 C43 0.955 . S
C2814 C640 0.925 . S
C2839 C31 1.666 . S
C2844 C560 1.654 . S
C2869 C17 1.174 . S
C2874 C582 1.048 . S
C2904 C599 1.164 . S
C2899 C3 1.172 . S
C2934 C557 1.632 . S
C2929 C68 1.645 . S
C2959 C56 1.068 . S
C2964 C577 1.025 . S
C2994 C602 1.135 . S
C2989 C96 1.143 . S
C3019 C82 1.254 . S
C3024 C645 1.099 . S
C3054 C642 0.970 . S
C3049 C192 1.072 . S
C3079 C161 1.183 . S
C3084 C559 1.116 . S
C3109 C237 1.216 . S
C3114 C581 1.212 . S
C3144 C598 1.088 . S
C3139 C225 1.146 . S
C3174 C556 1.070 . S
C3169 C186 1.121 . S
C3199 C159 1.149 . S
C3204 C579 1.021 . S
C3234 C601 1.051 . S
C3229 C239 1.103 . S
C3264 C644 1.264 . S
C3259 C231 1.266 . S
C3294 C641 1.388 . S
C3289 C121 1.397 . S
C3324 C495 1.031 . S
C3319 C291 1.192 . S
C3349 C109 1.451 . S
C3354 C517 1.386 . S
C3379 C270 1.226 . S
C3384 C540 1.040 . S
C3414 C643 1.295 . S
C3409 C309 1.352 . S
C3444 C580 1.402 . S
C3439 C146 1.467 1_556 S
C3474 C537 0.870 . S
C3469 C107 0.975 . S
C3504 C498 0.809 . S
C3499 C134 0.859 . S
