# Generated by pormake.
# Topology ssa, (4,4)-cn, num edge types: 1
# Building blocks:
#     Node 0, Type 0, BuildingBlock: NAWXER_clean_sbu_0, # of connection points: 4
#     Node 1, Type 0, BuildingBlock: NAWXER_clean_sbu_0, # of connection points: 4
#     Node 2, Type 0, BuildingBlock: NAWXER_clean_sbu_0, # of connection points: 4
#     Node 3, Type 0, BuildingBlock: NAWXER_clean_sbu_0, # of connection points: 4
#     Node 4, Type 0, BuildingBlock: NAWXER_clean_sbu_0, # of connection points: 4
#     Node 5, Type 0, BuildingBlock: NAWXER_clean_sbu_0, # of connection points: 4
#     Node 6, Type 1, BuildingBlock: ESEHIV_clean_sbu_0, # of connection points: 4
#     Node 7, Type 1, BuildingBlock: ESEHIV_clean_sbu_0, # of connection points: 4
#     Node 8, Type 1, BuildingBlock: ESEHIV_clean_sbu_0, # of connection points: 4
#     Node 9, Type 1, BuildingBlock: ESEHIV_clean_sbu_0, # of connection points: 4
#     Node 10, Type 1, BuildingBlock: ESEHIV_clean_sbu_0, # of connection points: 4
#     Node 11, Type 1, BuildingBlock: ESEHIV_clean_sbu_0, # of connection points: 4
#     Edge 12, Type (0, 1), BuildingBlock: ZUJKAS_clean_linker_0, # of connection points: 2
#     Edge 13, Type (0, 1), BuildingBlock: ZUJKAS_clean_linker_0, # of connection points: 2
#     Edge 14, Type (0, 1), BuildingBlock: ZUJKAS_clean_linker_0, # of connection points: 2
#     Edge 15, Type (0, 1), BuildingBlock: ZUJKAS_clean_linker_0, # of connection points: 2
#     Edge 16, Type (0, 1), BuildingBlock: ZUJKAS_clean_linker_0, # of connection points: 2
#     Edge 17, Type (0, 1), BuildingBlock: ZUJKAS_clean_linker_0, # of connection points: 2
#     Edge 18, Type (0, 1), BuildingBlock: ZUJKAS_clean_linker_0, # of connection points: 2
#     Edge 19, Type (0, 1), BuildingBlock: ZUJKAS_clean_linker_0, # of connection points: 2
#     Edge 20, Type (0, 1), BuildingBlock: ZUJKAS_clean_linker_0, # of connection points: 2
#     Edge 21, Type (0, 1), BuildingBlock: ZUJKAS_clean_linker_0, # of connection points: 2
#     Edge 22, Type (0, 1), BuildingBlock: ZUJKAS_clean_linker_0, # of connection points: 2
#     Edge 23, Type (0, 1), BuildingBlock: ZUJKAS_clean_linker_0, # of connection points: 2
#     Edge 24, Type (0, 1), BuildingBlock: ZUJKAS_clean_linker_0, # of connection points: 2
#     Edge 25, Type (0, 1), BuildingBlock: ZUJKAS_clean_linker_0, # of connection points: 2
#     Edge 26, Type (0, 1), BuildingBlock: ZUJKAS_clean_linker_0, # of connection points: 2
#     Edge 27, Type (0, 1), BuildingBlock: ZUJKAS_clean_linker_0, # of connection points: 2
#     Edge 28, Type (0, 1), BuildingBlock: ZUJKAS_clean_linker_0, # of connection points: 2
#     Edge 29, Type (0, 1), BuildingBlock: ZUJKAS_clean_linker_0, # of connection points: 2
#     Edge 30, Type (0, 1), BuildingBlock: ZUJKAS_clean_linker_0, # of connection points: 2
#     Edge 31, Type (0, 1), BuildingBlock: ZUJKAS_clean_linker_0, # of connection points: 2
#     Edge 32, Type (0, 1), BuildingBlock: ZUJKAS_clean_linker_0, # of connection points: 2
#     Edge 33, Type (0, 1), BuildingBlock: ZUJKAS_clean_linker_0, # of connection points: 2
#     Edge 34, Type (0, 1), BuildingBlock: ZUJKAS_clean_linker_0, # of connection points: 2
#     Edge 35, Type (0, 1), BuildingBlock: ZUJKAS_clean_linker_0, # of connection points: 2
# Relax obj value: 0.027
# Max RMSD: 0.097
# Mean RMSD: 0.065
data_MOF--net-ssa--node1-NAWXER_clean_sbu_0--node2-ESEHIV_clean_sbu_0--edge1-ZUJKAS_clean_linker_0
_symmetry_space_group_name_H-M    P1
_symmetry_Int_Tables_number       1
_symmetry_cell_setting            triclinic
loop_
_symmetry_equiv_pos_as_xyz
'x, y, z'
_cell_length_a     62.138309
_cell_length_b     62.174553
_cell_length_c     45.47441
_cell_angle_alpha  90.03974
_cell_angle_beta   90.112641
_cell_angle_gamma 119.98688
loop_
_atom_site_label
_atom_site_type_symbol
_atom_site_fract_x
_atom_site_fract_y
_atom_site_fract_z
_atom_type_partial_charge
C0 C 0.05234 0.57053 0.00861 0.0
C1 C 0.02039 0.48795 0.96618 0.0
O2 O 0.03422 0.55345 0.0232 0.0
Zn3 Zn 1.00961 0.51416 0.02074 0.0
O4 O 0.05923 0.56497 0.98488 0.0
Zn5 Zn 0.03609 0.52957 0.98602 0.0
O6 O 1.00078 0.52647 0.97633 0.0
O7 O 0.97672 0.51071 0.01505 0.0
O8 O 0.03762 0.50831 0.95586 0.0
O9 O 1.00909 0.48801 0.98971 0.0
O10 O 0.01818 0.50331 0.05705 0.0
O11 O 0.04868 0.51894 0.02478 0.0
C12 C 0.97972 0.51889 0.98885 0.0
C13 C 0.04037 0.50939 0.05015 0.0
C14 C 0.50908 0.04097 0.5556 0.0
C15 C 0.51836 0.98139 0.49205 0.0
O16 O 0.50242 0.01851 0.56169 0.0
Zn17 Zn 0.51318 0.01042 0.52477 0.0
O18 O 0.51858 0.04967 0.53034 0.0
Zn19 Zn 0.52837 0.03757 0.49082 0.0
O20 O 0.50704 0.03961 0.46138 0.0
O21 O 0.48676 0.00979 0.49378 0.0
O22 O 0.52565 1.0026 0.4801 0.0
O23 O 0.51017 0.97778 0.51829 0.0
O24 O 0.55277 0.03499 0.52671 0.0
O25 O 0.56358 0.06074 0.48909 0.0
C26 C 0.48672 0.02166 0.47074 0.0
C27 C 0.56958 0.05336 0.51212 0.0
C28 C 0.51059 0.46975 0.9956 0.0
C29 C 0.51983 0.54119 0.05373 0.0
O30 O 0.50324 0.48304 0.98207 0.0
Zn31 Zn 0.50056 0.51583 0.98987 0.0
O32 O 0.51886 0.47563 0.02175 0.0
Zn33 Zn 0.51565 0.50529 0.02539 0.0
O34 O 0.47612 0.49004 0.02635 0.0
O35 O 0.46523 0.50341 0.98725 0.0
O36 O 0.52614 0.52538 0.06121 0.0
O37 O 0.51047 0.53959 0.02809 0.0
O38 O 0.52199 0.53761 0.9593 0.0
O39 O 0.54207 0.52941 0.99354 0.0
C40 C 0.45924 0.49077 0.01083 0.0
C41 C 0.54222 0.54016 0.96943 0.0
C42 C 0.05676 0.55681 0.49289 0.0
C43 C 0.99715 0.48641 0.55422 0.0
O44 O 0.06012 0.55189 0.51909 0.0
Zn45 Zn 0.02771 0.52184 0.52443 0.0
O46 O 0.03596 0.54254 0.48009 0.0
Zn47 Zn 1.00147 0.50919 0.4893 0.0
O48 O 0.97726 0.51986 0.48619 0.0
O49 O 1.00229 0.53581 0.52446 0.0
O50 O 0.98911 0.48678 0.52834 0.0
O51 O 0.01896 0.50325 0.5615 0.0
O52 O 0.0301 0.49657 0.49422 0.0
O53 O 1.00116 0.48638 0.46027 0.0
C54 C 0.98394 0.53351 0.50902 0.0
C55 C 0.01912 0.48452 0.4708 0.0
C56 C 0.54654 0.98148 0.01753 0.0
C57 C 0.49577 0.01261 0.97344 0.0
O58 O 0.5475 0.99975 0.03174 0.0
Zn59 Zn 0.53235 0.02392 0.02885 0.0
O60 O 0.53381 0.97398 0.99399 0.0
Zn61 Zn 0.5215 0.99712 0.99447 0.0
O62 O 0.5538 0.03241 0.98486 0.0
O63 O 0.56175 0.05672 0.02342 0.0
O64 O 0.49884 0.99508 0.96398 0.0
O65 O 0.507 0.02429 0.99695 0.0
O66 O 0.51286 0.01542 0.06513 0.0
O67 O 0.49799 0.98491 0.03277 0.0
C68 C 0.56716 0.05354 0.9974 0.0
C69 C 0.49667 0.99329 0.05809 0.0
C70 C 0.54368 0.5023 0.54471 0.0
C71 C 0.47292 0.49154 0.48379 0.0
O72 O 0.53024 0.51001 0.55709 0.0
Zn73 Zn 0.4971 0.51173 0.54789 0.0
O74 O 0.53789 0.49284 0.51907 0.0
Zn75 Zn 0.50844 0.49624 0.5136 0.0
O76 O 0.5237 0.53574 0.51185 0.0
O77 O 0.50919 0.54699 0.54953 0.0
O78 O 0.48922 0.48572 0.47702 0.0
O79 O 0.47387 0.50091 0.50924 0.0
O80 O 0.47485 0.49061 0.57828 0.0
O81 O 0.48382 0.47019 0.54541 0.0
C82 C 0.52252 0.55275 0.52652 0.0
C83 C 0.47259 0.47029 0.569 0.0
Cu84 Cu 0.23037 0.44734 0.26225 0.0
N85 N 0.23437 0.42906 0.23246 0.0
N86 N 0.25218 0.42146 0.1943 0.0
C87 C 0.25502 0.43739 0.21614 0.0
C88 C 0.22873 0.40231 0.19704 0.0
C89 C 0.21777 0.40707 0.22062 0.0
O90 O 0.26174 0.46398 0.28455 0.0
C91 C 0.1966 0.45611 0.23343 0.0
O92 O 0.18433 0.43185 0.23623 0.0
H93 H 0.27143 0.45535 0.21953 0.0
H94 H 0.19883 0.39565 0.228 0.0
N95 N 0.20519 0.4269 0.28837 0.0
N96 N 0.17324 0.41584 0.31889 0.0
C97 C 0.19227 0.43467 0.30446 0.0
C98 C 0.19419 0.40225 0.29295 0.0
C99 C 0.17438 0.39535 0.31176 0.0
C100 C 0.26681 0.4491 0.29825 0.0
O101 O 0.2512 0.42515 0.29593 0.0
H102 H 0.19592 0.45361 0.30411 0.0
H103 H 0.19968 0.39005 0.28267 0.0
O104 O 0.21887 0.46826 0.24321 0.0
H105 H 0.22001 0.38617 0.18285 0.0
H106 H 0.16156 0.37668 0.31912 0.0
Cu107 Cu 0.79861 0.2415 0.76983 0.0
N108 N 0.79025 0.21547 0.7435 0.0
N109 N 0.77123 0.18902 0.70647 0.0
C110 C 0.77473 0.20969 0.72042 0.0
C111 C 0.78513 0.18152 0.72135 0.0
C112 C 0.79692 0.19795 0.74415 0.0
O113 O 0.76861 0.23161 0.79328 0.0
C114 C 0.82844 0.27574 0.7283 0.0
O115 O 0.83398 0.25808 0.72481 0.0
H116 H 0.76555 0.22001 0.71462 0.0
H117 H 0.80919 0.19696 0.76028 0.0
N118 N 0.82417 0.24512 0.79452 0.0
N119 N 0.85931 0.26433 0.8206 0.0
C120 C 0.84524 0.26664 0.79962 0.0
C121 C 0.82484 0.22848 0.81286 0.0
C122 C 0.84653 0.24033 0.82908 0.0
C123 C 0.76876 0.2355 0.82085 0.0
O124 O 0.78997 0.25037 0.83395 0.0
H125 H 0.84947 0.284 0.78933 0.0
H126 H 0.81016 0.20939 0.81507 0.0
O127 O 0.81195 0.27252 0.74729 0.0
H128 H 0.78657 0.16529 0.71621 0.0
H129 H 0.85213 0.2321 0.84627 0.0
Cu130 Cu 0.56664 0.78266 0.27783 0.0
N131 N 0.58615 0.80637 0.24995 0.0
N132 N 0.5954 0.83261 0.2123 0.0
C133 C 0.57806 0.81812 0.23217 0.0
C134 C 0.61526 0.82992 0.21798 0.0
C135 C 0.60944 0.81359 0.24112 0.0
O136 O 0.54741 0.79504 0.29915 0.0
C137 C 0.56175 0.74156 0.24867 0.0
O138 O 0.58553 0.75367 0.25524 0.0
H139 H 0.55964 0.81579 0.23369 0.0
H140 H 0.62107 0.80687 0.25021 0.0
N141 N 0.58603 0.77854 0.3063 0.0
N142 N 0.59469 0.76067 0.34348 0.0
C143 C 0.57738 0.75869 0.32404 0.0
C144 C 0.60971 0.79375 0.31477 0.0
C145 C 0.61509 0.78277 0.33786 0.0
C146 C 0.56103 0.81486 0.31383 0.0
O147 O 0.58526 0.82513 0.31167 0.0
H148 H 0.55849 0.74331 0.32306 0.0
H149 H 0.62206 0.8117 0.30521 0.0
O150 O 0.54835 0.75084 0.25658 0.0
H151 H 0.63245 0.83843 0.20569 0.0
H152 H 0.63261 0.79038 0.3495 0.0
Cu153 Cu 0.78735 0.55619 0.76112 0.0
N154 N 0.81406 0.57736 0.73755 0.0
N155 N 0.8415 0.58912 0.70094 0.0
C156 C 0.82045 0.57049 0.71252 0.0
C157 C 0.84864 0.60852 0.71942 0.0
C158 C 0.83158 0.60124 0.74198 0.0
O159 O 0.79845 0.53625 0.78293 0.0
C160 C 0.73708 0.5224 0.73911 0.0
O161 O 0.73114 0.51242 0.76541 0.0
H162 H 0.81035 0.55184 0.70365 0.0
H163 H 0.83223 0.61243 0.76051 0.0
N164 N 0.78051 0.57495 0.78755 0.0
N165 N 0.75938 0.58781 0.81512 0.0
C166 C 0.75838 0.57331 0.79242 0.0
C167 C 0.79609 0.59109 0.80771 0.0
C168 C 0.78312 0.59908 0.82475 0.0
C169 C 0.79338 0.53035 0.80994 0.0
O170 O 0.77643 0.53381 0.82278 0.0
H171 H 0.74162 0.5608 0.78053 0.0
H172 H 0.81529 0.59598 0.81052 0.0
O173 O 0.75939 0.53917 0.73389 0.0
H174 H 0.86512 0.62657 0.71698 0.0
H175 H 0.79049 0.61175 0.84319 0.0
Cu176 Cu 0.24627 0.7974 0.26802 0.0
N177 N 0.22204 0.79035 0.2393 0.0
N178 N 0.19679 0.77218 0.20095 0.0
C179 C 0.21457 0.77262 0.21851 0.0
C180 C 0.19299 0.79041 0.2112 0.0
C181 C 0.20862 0.8016 0.23483 0.0
O182 O 0.2351 0.76775 0.29302 0.0
C183 C 0.28268 0.82703 0.22856 0.0
O184 O 0.26581 0.83356 0.22432 0.0
H185 H 0.22179 0.76003 0.21677 0.0
H186 H 0.21016 0.8169 0.2478 0.0
N187 N 0.2497 0.82317 0.29217 0.0
N188 N 0.26867 0.85835 0.31812 0.0
C189 C 0.27116 0.84433 0.29729 0.0
C190 C 0.23296 0.82381 0.31037 0.0
C191 C 0.24468 0.84551 0.32656 0.0
C192 C 0.21196 0.75578 0.29932 0.0
O193 O 0.19748 0.7635 0.28824 0.0
H194 H 0.28863 0.84871 0.28714 0.0
H195 H 0.21385 0.80916 0.31248 0.0
O196 O 0.27826 0.81015 0.24753 0.0
H197 H 0.18005 0.79552 0.20215 0.0
H198 H 0.2364 0.85112 0.34366 0.0
Cu199 Cu 0.45724 0.22929 0.78091 0.0
N200 N 0.43541 0.2364 0.76095 0.0
N201 N 0.42224 0.2582 0.7352 0.0
C202 C 0.44207 0.25764 0.74645 0.0
C203 C 0.40229 0.2364 0.74303 0.0
C204 C 0.4105 0.22294 0.7589 0.0
O205 O 0.48008 0.26021 0.80145 0.0
C206 C 0.48797 0.21079 0.75628 0.0
O207 O 0.49955 0.2161 0.78174 0.0
H208 H 0.4611 0.27265 0.74493 0.0
H209 H 0.39913 0.20478 0.76853 0.0
N210 N 0.43932 0.20399 0.80785 0.0
N211 N 0.42631 0.16905 0.83345 0.0
C212 C 0.44026 0.18296 0.81077 0.0
C213 C 0.42404 0.20331 0.8292 0.0
C214 C 0.41607 0.18179 0.84519 0.0
C215 C 0.4859 0.26151 0.82856 0.0
O216 O 0.4803 0.24099 0.8428 0.0
H217 H 0.45175 0.17841 0.79727 0.0
H218 H 0.41955 0.21776 0.83328 0.0
O219 O 0.47132 0.21667 0.75175 0.0
H220 H 0.38317 0.23055 0.73759 0.0
H221 H 0.404 0.17615 0.86418 0.0
H222 H 0.09008 0.5264 0.0443 0.0
H223 H 0.1176 0.52066 0.07777 0.0
H224 H 0.05641 0.4794 0.13691 0.0
H225 H 0.02857 0.48508 0.10345 0.0
H226 H 0.12844 0.53396 0.13998 0.0
H227 H 0.08504 0.43261 0.1188 0.0
H228 H 0.08051 0.45308 0.09469 0.0
H229 H 0.0641 0.4434 0.12895 0.0
C230 C 0.08237 0.51607 0.0644 0.0
C231 C 0.05698 0.50603 0.07102 0.0
C232 C 0.09822 0.51292 0.08359 0.0
C233 C 0.08907 0.49945 0.10973 0.0
C234 C 0.06383 0.48966 0.11669 0.0
H235 H 0.14851 0.44279 0.24045 0.0
H236 H 0.12404 0.45622 0.21208 0.0
C237 C 0.04794 0.49296 0.09757 0.0
C238 C 0.10587 0.49519 0.12926 0.0
H239 H 0.11636 0.44966 0.15499 0.0
C240 C 0.12584 0.51554 0.14333 0.0
C241 C 0.10257 0.4712 0.13343 0.0
C242 C 0.08204 0.44878 0.11804 0.0
C243 C 0.14218 0.51243 0.1621 0.0
C244 C 0.13882 0.48836 0.16637 0.0
C245 C 0.11898 0.46811 0.15193 0.0
C246 C 0.15496 0.48328 0.18625 0.0
C247 C 0.16241 0.53483 0.17779 0.0
C248 C 0.18085 0.49456 0.18204 0.0
C249 C 0.1951 0.48715 0.19883 0.0
C250 C 0.18355 0.46802 0.21961 0.0
C251 C 0.15792 0.45754 0.22451 0.0
C252 C 0.14386 0.46515 0.2082 0.0
H253 H 0.15827 0.55025 0.17871 0.0
H254 H 0.16504 0.53012 0.20057 0.0
H255 H 0.18015 0.54159 0.16574 0.0
H256 H 0.18987 0.50823 0.16489 0.0
H257 H 0.21475 0.49527 0.19431 0.0
H258 H 0.60588 0.10081 0.49908 0.0
H259 H 0.64527 0.12581 0.52534 0.0
H260 H 0.63003 0.06259 0.57891 0.0
H261 H 0.59065 0.03758 0.55307 0.0
H262 H 0.64455 0.13133 0.5899 0.0
H263 H 0.70508 0.09413 0.55407 0.0
H264 H 0.67954 0.0913 0.532 0.0
H265 H 0.67359 0.07134 0.5631 0.0
C266 C 0.61121 0.09207 0.51595 0.0
C267 C 0.59512 0.06725 0.5241 0.0
C268 C 0.63367 0.10639 0.53095 0.0
C269 C 0.64058 0.09596 0.55387 0.0
C270 C 0.62517 0.07087 0.561 0.0
H271 H 0.74516 0.13958 0.69577 0.0
H272 H 0.7149 0.11854 0.65635 0.0
C273 C 0.60262 0.05665 0.5463 0.0
C274 C 0.66224 0.11181 0.57274 0.0
H275 H 0.71785 0.11981 0.59672 0.0
C276 C 0.66079 0.12914 0.59115 0.0
C277 C 0.68314 0.10858 0.57446 0.0
C278 C 0.68566 0.09047 0.55473 0.0
C279 C 0.67928 0.1427 0.61213 0.0
C280 C 0.70018 0.13936 0.6141 0.0
C281 C 0.70187 0.1224 0.59515 0.0
C282 C 0.71982 0.15239 0.63666 0.0
C283 C 0.67559 0.15954 0.63291 0.0
C284 C 0.73309 0.17843 0.63828 0.0
C285 C 0.7502 0.19046 0.66097 0.0
C286 C 0.75471 0.1767 0.68213 0.0
C287 C 0.74219 0.15068 0.67971 0.0
C288 C 0.72487 0.13864 0.65722 0.0
H289 H 0.65587 0.15495 0.63363 0.0
H290 H 0.68157 0.1583 0.65557 0.0
H291 H 0.68689 0.17903 0.62535 0.0
H292 H 0.73002 0.18945 0.62219 0.0
H293 H 0.75994 0.21054 0.66198 0.0
H294 H 0.54447 0.55486 0.10688 0.0
H295 H 0.5483 0.58748 0.14062 0.0
H296 H 0.50474 0.60467 0.08151 0.0
H297 H 0.50095 0.57238 0.04764 0.0
H298 H 0.56844 0.64078 0.12459 0.0
H299 H 0.47092 0.59469 0.16471 0.0
H300 H 0.48444 0.57749 0.14887 0.0
H301 H 0.4754 0.59492 0.12559 0.0
C302 C 0.53565 0.56554 0.10107 0.0
C303 C 0.52243 0.56095 0.07447 0.0
C304 C 0.53784 0.58416 0.1204 0.0
C305 C 0.52654 0.59831 0.11378 0.0
C306 C 0.51331 0.59377 0.0873 0.0
H307 H 0.52389 0.72143 0.20734 0.0
H308 H 0.51391 0.68621 0.17415 0.0
C309 C 0.51132 0.57536 0.06786 0.0
C310 C 0.52944 0.61853 0.1339 0.0
H311 H 0.49773 0.63583 0.18085 0.0
C312 C 0.553 0.63967 0.13696 0.0
C313 C 0.50919 0.61726 0.14965 0.0
C314 C 0.48353 0.59485 0.14732 0.0
C315 C 0.55691 0.65956 0.15524 0.0
C316 C 0.53685 0.65803 0.17179 0.0
C317 C 0.51314 0.63703 0.16834 0.0
C318 C 0.54059 0.67764 0.19356 0.0
C319 C 0.5825 0.68227 0.15617 0.0
C320 C 0.55798 0.68382 0.21634 0.0
C321 C 0.56379 0.70388 0.23495 0.0
C322 C 0.55198 0.71803 0.23177 0.0
C323 C 0.53324 0.71084 0.21036 0.0
C324 C 0.52763 0.6908 0.19133 0.0
H325 H 0.59316 0.68393 0.13589 0.0
H326 H 0.58149 0.6995 0.1588 0.0
H327 H 0.59298 0.68078 0.17509 0.0
H328 H 0.56766 0.67352 0.21923 0.0
H329 H 0.57807 0.70872 0.25149 0.0
H330 H 0.93675 0.52183 0.49315 0.0
H331 H 0.91052 0.53561 0.51745 0.0
H332 H 0.97172 0.58378 0.57392 0.0
H333 H 0.99796 0.57016 0.54992 0.0
H334 H 0.90165 0.52789 0.57936 0.0
H335 H 0.94107 0.62709 0.54991 0.0
H336 H 0.94622 0.60576 0.5281 0.0
H337 H 0.96373 0.61886 0.56128 0.0
C338 C 0.9448 0.53584 0.51021 0.0
C339 C 0.96938 0.54481 0.51974 0.0
C340 C 0.92979 0.54366 0.52408 0.0
C341 C 0.93927 0.56086 0.54728 0.0
C342 C 0.96417 0.57082 0.55573 0.0
H343 H 0.89129 0.61293 0.6928 0.0
H344 H 0.91346 0.60667 0.65225 0.0
C345 C 0.97909 0.56287 0.54211 0.0
C346 C 0.92253 0.56596 0.56534 0.0
H347 H 0.91454 0.61281 0.59207 0.0
C348 C 0.90411 0.54636 0.58178 0.0
C349 C 0.92608 0.59012 0.56864 0.0
C350 C 0.94521 0.61167 0.55087 0.0
C351 C 0.88984 0.55043 0.6025 0.0
C352 C 0.89365 0.57471 0.60624 0.0
C353 C 0.91162 0.59422 0.58914 0.0
C354 C 0.88013 0.58036 0.629 0.0
C355 C 0.87176 0.52892 0.62125 0.0
C356 C 0.85408 0.56826 0.62889 0.0
C357 C 0.84141 0.57165 0.65215 0.0
C358 C 0.85457 0.58752 0.67569 0.0
C359 C 0.88067 0.60068 0.67492 0.0
C360 C 0.89334 0.59708 0.65179 0.0
H361 H 0.87558 0.51327 0.62072 0.0
H362 H 0.87245 0.53477 0.64447 0.0
H363 H 0.85262 0.52193 0.61282 0.0
H364 H 0.84353 0.55578 0.61113 0.0
H365 H 0.8213 0.56166 0.65191 0.0
H366 H 0.45719 0.94728 0.04667 0.0
H367 H 0.42437 0.91947 0.08001 0.0
H368 H 0.45787 0.97299 0.15007 0.0
H369 H 0.49068 1.00136 0.11645 0.0
H370 H 0.42566 0.89721 0.13078 0.0
H371 H 0.38714 0.9594 0.15207 0.0
H372 H 0.40949 0.9655 0.12341 0.0
H373 H 0.41944 0.97248 0.16109 0.0
C374 C 0.45761 0.9533 0.06913 0.0
C375 C 0.47656 0.97674 0.07875 0.0
C376 C 0.43881 0.93725 0.08825 0.0
C377 C 0.43838 0.94412 0.11756 0.0
C378 C 0.45745 0.96739 0.12743 0.0
H379 H 0.32906 0.83408 0.24348 0.0
H380 H 0.36881 0.86209 0.21907 0.0
C381 C 0.47626 0.9836 0.10819 0.0
C382 C 0.41773 0.92686 0.1373 0.0
H383 H 0.36832 0.92106 0.17673 0.0
C384 C 0.41322 0.90248 0.14102 0.0
C385 C 0.40135 0.93362 0.15055 0.0
C386 C 0.40438 0.95908 0.14645 0.0
C387 C 0.39254 0.88459 0.15693 0.0
C388 C 0.37607 0.89133 0.16993 0.0
C389 C 0.38099 0.91589 0.1669 0.0
C390 C 0.3523 0.87285 0.18421 0.0
C391 C 0.38788 0.85838 0.15859 0.0
C392 C 0.32982 0.8694 0.17278 0.0
C393 C 0.30734 0.85368 0.18669 0.0
C394 C 0.3066 0.84083 0.21247 0.0
C395 C 0.32899 0.8435 0.22349 0.0
C396 C 0.3517 0.85952 0.20955 0.0
H397 H 0.39944 0.85506 0.14264 0.0
H398 H 0.39248 0.85489 0.18102 0.0
H399 H 0.36801 0.84478 0.15426 0.0
H400 H 0.32968 0.87927 0.15321 0.0
H401 H 0.29048 0.85199 0.17746 0.0
H402 H 0.45208 0.46417 0.62404 0.0
H403 H 0.43579 0.42705 0.65508 0.0
H404 H 0.44745 0.38747 0.58473 0.0
H405 H 0.46322 0.42406 0.55353 0.0
H406 H 0.40345 0.35816 0.61562 0.0
H407 H 0.48488 0.40812 0.69034 0.0
H408 H 0.46581 0.42206 0.68551 0.0
H409 H 0.48322 0.42036 0.655 0.0
C410 C 0.45075 0.44742 0.61502 0.0
C411 C 0.45927 0.44719 0.58645 0.0
C412 C 0.44157 0.42629 0.63284 0.0
C413 C 0.44088 0.40469 0.62237 0.0
C414 C 0.44793 0.40398 0.59329 0.0
H415 H 0.45948 0.29174 0.70102 0.0
H416 H 0.46111 0.3269 0.67525 0.0
C417 C 0.45703 0.42499 0.57551 0.0
C418 C 0.43479 0.3834 0.64203 0.0
H419 H 0.45753 0.36604 0.70011 0.0
C420 C 0.41502 0.35987 0.63436 0.0
C421 C 0.45019 0.38572 0.66621 0.0
C422 C 0.47234 0.41034 0.67474 0.0
C423 C 0.41065 0.33846 0.64974 0.0
C424 C 0.42629 0.34077 0.67361 0.0
C425 C 0.44554 0.36439 0.68184 0.0
C426 C 0.42447 0.31885 0.68882 0.0
C427 C 0.39014 0.31346 0.63945 0.0
C428 C 0.40328 0.3026 0.70498 0.0
C429 C 0.4023 0.2824 0.71982 0.0
C430 C 0.42261 0.27829 0.71895 0.0
C431 C 0.44369 0.29456 0.70253 0.0
C432 C 0.44461 0.31462 0.68769 0.0
H433 H 0.3829 0.31448 0.61744 0.0
H434 H 0.39679 0.29988 0.63842 0.0
H435 H 0.37454 0.30634 0.65531 0.0
H436 H 0.3877 0.30577 0.70653 0.0
H437 H 0.38594 0.2704 0.73257 0.0
H438 H 0.51151 0.93615 0.51109 0.0
H439 H 0.51484 0.90467 0.48179 0.0
H440 H 0.52946 0.94974 0.40428 0.0
H441 H 0.52681 0.98129 0.43326 0.0
H442 H 0.48988 0.87646 0.43214 0.0
H443 H 0.58914 0.94006 0.40662 0.0
H444 H 0.57284 0.94718 0.43423 0.0
H445 H 0.56964 0.95237 0.39593 0.0
C446 C 0.51545 0.93934 0.48781 0.0
C447 C 0.51927 0.96149 0.47469 0.0
C448 C 0.51726 0.92128 0.47104 0.0
C449 C 0.52288 0.92499 0.44086 0.0
C450 C 0.52574 0.94665 0.42761 0.0
H451 H 0.51779 0.81738 0.30958 0.0
H452 H 0.50603 0.84224 0.34093 0.0
C453 C 0.52415 0.96471 0.4443 0.0
C454 C 0.52662 0.90682 0.42324 0.0
H455 H 0.569 0.90236 0.37973 0.0
C456 C 0.50722 0.88206 0.42078 0.0
C457 C 0.54931 0.91398 0.40859 0.0
C458 C 0.57151 0.93976 0.41167 0.0
C459 C 0.50983 0.86444 0.40385 0.0
C460 C 0.5323 0.87185 0.38854 0.0
C461 C 0.55166 0.89659 0.39119 0.0
C462 C 0.53711 0.8543 0.37099 0.0
C463 C 0.48873 0.83795 0.40311 0.0
C464 C 0.55832 0.8526 0.37731 0.0
C465 C 0.5652 0.83891 0.35924 0.0
C466 C 0.55096 0.82622 0.33441 0.0
C467 C 0.529 0.82678 0.3287 0.0
C468 C 0.52225 0.84093 0.3467 0.0
H469 H 0.47567 0.8339 0.42169 0.0
H470 H 0.47815 0.83472 0.38232 0.0
H471 H 0.4958 0.82472 0.40393 0.0
H472 H 0.57006 0.86251 0.3959 0.0
H473 H 0.58213 0.8387 0.36443 0.0
H474 H 0.54773 0.54971 0.91021 0.0
H475 H 0.58566 0.56303 0.88134 0.0
H476 H 0.62707 0.57279 0.96125 0.0
H477 H 0.58934 0.55905 0.99009 0.0
H478 H 0.63505 0.60513 0.88083 0.0
H479 H 0.63303 0.51873 0.91611 0.0
H480 H 0.60709 0.52372 0.9214 0.0
H481 H 0.63315 0.53745 0.94623 0.0
C482 C 0.56504 0.55522 0.92163 0.0
C483 C 0.56551 0.55298 0.95237 0.0
C484 C 0.58666 0.56277 0.90512 0.0
C485 C 0.60899 0.5683 0.91917 0.0
C486 C 0.60988 0.56805 0.94997 0.0
H487 H 0.75456 0.59669 0.87239 0.0
H488 H 0.71813 0.59438 0.89578 0.0
C489 C 0.58832 0.56028 0.96641 0.0
C490 C 0.63082 0.57222 0.90186 0.0
H491 H 0.66936 0.54856 0.8913 0.0
C492 C 0.6425 0.59272 0.88292 0.0
C493 C 0.64028 0.55578 0.9044 0.0
C494 C 0.62762 0.53255 0.92289 0.0
C495 C 0.66401 0.59768 0.86726 0.0
C496 C 0.67384 0.58166 0.87064 0.0
C497 C 0.66186 0.56093 0.88906 0.0
C498 C 0.69674 0.58599 0.85559 0.0
C499 C 0.67646 0.62026 0.84779 0.0
C500 C 0.69678 0.58221 0.82519 0.0
C501 C 0.71761 0.58348 0.81172 0.0
C502 C 0.73873 0.58856 0.82845 0.0
C503 C 0.7388 0.59306 0.85878 0.0
C504 C 0.71795 0.59165 0.87222 0.0
H505 H 0.66872 0.63279 0.85095 0.0
H506 H 0.69676 0.63081 0.85224 0.0
H507 H 0.67382 0.61427 0.82443 0.0
H508 H 0.68044 0.5775 0.81207 0.0
H509 H 0.71707 0.58014 0.7883 0.0
H510 H 0.05222 0.57548 0.44047 0.0
H511 H 0.08424 0.61021 0.41256 0.0
H512 H 0.1383 0.62215 0.47948 0.0
H513 H 0.10612 0.58723 0.50796 0.0
H514 H 0.11648 0.66254 0.43689 0.0
H515 H 0.16827 0.61683 0.39586 0.0
H516 H 0.13599 0.59891 0.40643 0.0
H517 H 0.15947 0.61385 0.43407 0.0
C518 C 0.07089 0.5854 0.4494 0.0
C519 C 0.07653 0.57847 0.47656 0.0
C520 C 0.0892 0.60529 0.43333 0.0
C521 C 0.1137 0.61864 0.44376 0.0
C522 C 0.11954 0.61193 0.47087 0.0
H523 H 0.23484 0.74241 0.34235 0.0
H524 H 0.21399 0.70988 0.38003 0.0
C525 C 0.1011 0.59207 0.48719 0.0
C526 C 0.13265 0.63996 0.42629 0.0
H527 H 0.17987 0.65642 0.37692 0.0
C528 C 0.13058 0.66134 0.42411 0.0
C529 C 0.15117 0.63848 0.4098 0.0
C530 C 0.15402 0.61582 0.4114 0.0
C531 C 0.14592 0.68092 0.40519 0.0
C532 C 0.16345 0.67886 0.38729 0.0
C533 C 0.16639 0.65798 0.3905 0.0
C534 C 0.17688 0.69706 0.3633 0.0
C535 C 0.14289 0.70352 0.40418 0.0
C536 C 0.16313 0.69998 0.34077 0.0
C537 C 0.17488 0.71839 0.3195 0.0
C538 C 0.2008 0.73429 0.31988 0.0
C539 C 0.21486 0.73048 0.34144 0.0
C540 C 0.20296 0.71197 0.36301 0.0
H541 H 0.1349 0.70582 0.42498 0.0
H542 H 0.16094 0.72066 0.40014 0.0
H543 H 0.12996 0.70134 0.38604 0.0
H544 H 0.1431 0.68834 0.34002 0.0
H545 H 0.16345 0.72049 0.30302 0.0
H546 H 0.47825 1.00078 0.91679 0.0
H547 H 0.45812 0.01922 0.88794 0.0
H548 H 0.45959 0.06175 0.96361 0.0
H549 H 0.47952 0.04351 0.99251 0.0
H550 H 0.41358 0.03962 0.92805 0.0
H551 H 0.5009 0.0943 0.86408 0.0
H552 H 0.48786 0.06117 0.86573 0.0
H553 H 0.5003 0.07948 0.89842 0.0
C554 C 0.4739 0.01374 0.92739 0.0
C555 C 0.48074 0.02091 0.95683 0.0
C556 C 0.46249 0.0243 0.91087 0.0
C557 C 0.45765 0.04201 0.92363 0.0
C558 C 0.46321 0.04813 0.95339 0.0
H559 H 0.42094 0.15393 0.89012 0.0
H560 H 0.42428 0.11904 0.9093 0.0
C561 C 0.47471 0.03775 0.96982 0.0
C562 C 0.44878 0.05591 0.90575 0.0
H563 H 0.46896 0.10318 0.85619 0.0
C564 C 0.42548 0.05328 0.91199 0.0
C565 C 0.46438 0.07366 0.88484 0.0
C566 C 0.48983 0.07757 0.87784 0.0
C567 C 0.4176 0.06843 0.89833 0.0
C568 C 0.43375 0.08705 0.87851 0.0
C569 C 0.4566 0.08891 0.87139 0.0
C570 C 0.42838 0.10609 0.86658 0.0
C571 C 0.39216 0.06445 0.90544 0.0
C572 C 0.42973 0.11058 0.83621 0.0
C573 C 0.42811 0.13071 0.82526 0.0
C574 C 0.42514 0.14677 0.84446 0.0
C575 C 0.42285 0.1417 0.87475 0.0
C576 C 0.42466 0.12167 0.88573 0.0
H577 H 0.37931 0.04494 0.91214 0.0
H578 H 0.3937 0.07663 0.92412 0.0
H579 H 0.38396 0.06898 0.88638 0.0
H580 H 0.4327 0.09887 0.82104 0.0
H581 H 0.42965 0.13399 0.80178 0.0
H582 H 0.4706 0.48289 0.42411 0.0
H583 H 0.4392 0.48024 0.38921 0.0
H584 H 0.39914 0.48991 0.46052 0.0
H585 H 0.43076 0.49346 0.49515 0.0
H586 H 0.39206 0.44896 0.38291 0.0
H587 H 0.40069 0.54014 0.40524 0.0
H588 H 0.42275 0.53185 0.41924 0.0
H589 H 0.39406 0.52249 0.43846 0.0
C590 C 0.45513 0.48452 0.43232 0.0
C591 C 0.45335 0.48855 0.46246 0.0
C592 C 0.43719 0.48307 0.41232 0.0
C593 C 0.41701 0.48554 0.42197 0.0
C594 C 0.4149 0.48886 0.45218 0.0
H595 H 0.27353 0.42361 0.34208 0.0
H596 H 0.31112 0.43451 0.36979 0.0
C597 C 0.43293 0.49061 0.47209 0.0
C598 C 0.39749 0.4834 0.40085 0.0
H599 H 0.3627 0.50992 0.38135 0.0
C600 C 0.38592 0.4625 0.38238 0.0
C601 C 0.38968 0.50128 0.39937 0.0
C602 C 0.40266 0.52533 0.4164 0.0
C603 C 0.36611 0.45837 0.36374 0.0
C604 C 0.35693 0.47517 0.36412 0.0
C605 C 0.36931 0.49675 0.38139 0.0
C606 C 0.33369 0.46977 0.34812 0.0
C607 C 0.35525 0.43596 0.34376 0.0
C608 C 0.33322 0.48661 0.32775 0.0
C609 C 0.31132 0.48057 0.31205 0.0
C610 C 0.2896 0.45755 0.31645 0.0
C611 C 0.29 0.44132 0.33771 0.0
C612 C 0.31161 0.44744 0.35349 0.0
H613 H 0.36924 0.43041 0.33836 0.0
H614 H 0.33959 0.42008 0.35512 0.0
H615 H 0.34823 0.43952 0.32293 0.0
H616 H 0.34992 0.50413 0.32346 0.0
H617 H 0.31162 0.49348 0.29586 0.0
H618 H 0.02277 0.48046 0.90711 0.0
H619 H 1.00065 0.44056 0.88094 0.0
H620 H 0.97653 0.40223 0.96383 0.0
H621 H 0.99788 0.44184 0.98993 0.0
H622 H 0.99957 0.39397 0.88252 0.0
H623 H 0.91164 0.38636 0.92231 0.0
H624 H 0.94115 0.41469 0.9252 0.0
H625 H 0.93285 0.39007 0.95133 0.0
C626 C 0.01318 0.46345 0.9197 0.0
C627 C 0.01167 0.46422 0.95049 0.0
C628 C 1.00055 0.44071 0.90476 0.0
C629 C 0.9865 0.41855 0.92048 0.0
C630 C 0.98679 0.41919 0.9513 0.0
H631 H 0.87427 0.26815 0.87733 0.0
H632 H 0.90834 0.30478 0.90093 0.0
C633 C 0.99905 0.44182 0.96616 0.0
C634 C 0.96965 0.39509 0.90493 0.0
H635 H 0.9084 0.35113 0.89818 0.0
C636 C 0.97964 0.38459 0.88583 0.0
C637 C 0.94362 0.38306 0.90912 0.0
C638 C 0.93161 0.39421 0.92786 0.0
C639 C 0.96421 0.36197 0.87135 0.0
C640 C 0.93828 0.34977 0.8761 0.0
C641 C 0.92835 0.3604 0.89497 0.0
C642 C 0.9207 0.32641 0.86095 0.0
C643 C 0.97569 0.35107 0.85144 0.0
C644 C 0.91668 0.32635 0.8306 0.0
C645 C 0.8972 0.30548 0.8171 0.0
C646 C 0.88138 0.28434 0.83373 0.0
C647 C 0.88625 0.28403 0.86388 0.0
C648 C 0.90564 0.30497 0.8774 0.0
H649 H 0.99606 0.35985 0.85495 0.0
H650 H 0.967 0.33074 0.855 0.0
H651 H 0.97239 0.35407 0.8282 0.0
H652 H 0.92786 0.34285 0.81761 0.0
H653 H 0.89405 0.30615 0.79378 0.0
H654 H 0.93262 0.50608 1.00794 0.0
H655 H 0.89859 0.50475 0.97884 0.0
H656 H 0.9459 0.52994 0.90258 0.0
H657 H 0.97981 0.53133 0.93122 0.0
H658 H 0.89789 0.54437 0.94624 0.0
H659 H 0.88312 0.46658 0.87331 0.0
H660 H 0.89985 0.47313 0.90771 0.0
H661 H 0.91481 0.49135 0.87563 0.0
C662 C 0.93579 0.51136 0.98498 0.0
C663 C 0.95901 0.51875 0.97199 0.0
C664 C 0.9163 0.51057 0.96836 0.0
C665 C 0.91953 0.51684 0.93836 0.0
C666 C 0.94277 0.52455 0.9255 0.0
H667 H 0.83659 0.53148 0.79391 0.0
H668 H 0.86573 0.52679 0.82586 0.0
C669 C 0.96223 0.52549 0.94206 0.0
C670 C 0.89893 0.51592 0.92043 0.0
H671 H 0.86319 0.48919 0.85926 0.0
C672 C 0.89009 0.53212 0.92741 0.0
C673 C 0.88885 0.50005 0.89573 0.0
C674 C 0.89695 0.48161 0.88771 0.0
C675 C 0.87211 0.5335 0.90985 0.0
C676 C 0.86214 0.51775 0.88495 0.0
C677 C 0.87074 0.50127 0.87826 0.0
C678 C 0.84336 0.51865 0.86512 0.0
C679 C 0.86473 0.55255 0.91751 0.0
C680 C 0.82057 0.51474 0.87615 0.0
C681 C 0.80388 0.5175 0.85792 0.0
C682 C 0.80941 0.52393 0.82809 0.0
C683 C 0.83165 0.52651 0.81672 0.0
C684 C 0.84841 0.5239 0.83503 0.0
H685 H 0.87872 0.56742 0.93194 0.0
H686 H 0.86234 0.56127 0.89741 0.0
H687 H 0.8468 0.54333 0.9295 0.0
H688 H 0.81583 0.50995 0.89903 0.0
H689 H 0.78688 0.51517 0.86743 0.0
H690 H 0.48105 0.03101 0.41323 0.0
H691 H 0.44272 0.01053 0.38397 0.0
H692 H 0.40151 0.97142 0.46108 0.0
H693 H 0.43958 0.99159 0.49036 0.0
H694 H 0.4151 0.95647 0.38094 0.0
H695 H 0.35682 0.99525 0.41992 0.0
H696 H 0.39027 0.01164 0.42375 0.0
H697 H 0.37128 0.98677 0.44842 0.0
C698 C 0.46371 0.01853 0.42408 0.0
C699 C 0.46333 0.01279 0.45405 0.0
C700 C 0.44187 0.00684 0.40734 0.0
C701 C 0.4193 0.98967 0.42046 0.0
C702 C 0.41867 0.98493 0.45066 0.0
H703 H 0.27409 0.87202 0.37537 0.0
H704 H 0.31084 0.90674 0.3981 0.0
C705 C 0.44049 0.99635 0.46731 0.0
C706 C 0.39711 0.97417 0.40217 0.0
H707 H 0.33618 0.95735 0.39269 0.0
C708 C 0.39793 0.9569 0.38306 0.0
C709 C 0.37475 0.97463 0.40542 0.0
C710 C 0.37315 0.99319 0.42531 0.0
C711 C 0.37666 0.9393 0.36798 0.0
C712 C 0.35411 0.93952 0.37141 0.0
C713 C 0.35347 0.95726 0.38999 0.0
C714 C 0.33076 0.92056 0.35715 0.0
C715 C 0.37829 0.91984 0.34977 0.0
C716 C 0.32939 0.91738 0.32651 0.0
C717 C 0.30857 0.89741 0.31359 0.0
C718 C 0.28854 0.88058 0.33101 0.0
C719 C 0.28922 0.88477 0.36144 0.0
C720 C 0.31021 0.90456 0.37442 0.0
H721 H 0.39487 0.91835 0.35563 0.0
H722 H 0.36147 0.90131 0.35263 0.0
H723 H 0.3798 0.92495 0.32618 0.0
H724 H 0.34473 0.92991 0.31266 0.0
H725 H 0.30829 0.8948 0.29002 0.0
H726 H 0.49804 0.45579 0.9383 0.0
H727 H 0.49762 0.42135 0.91203 0.0
H728 H 0.52172 0.40069 0.99062 0.0
H729 H 0.52217 0.43529 0.01731 0.0
H730 H 0.53785 0.4119 0.90331 0.0
H731 H 0.45916 0.33549 0.96396 0.0
H732 H 0.46531 0.3671 0.96494 0.0
H733 H 0.48418 0.35839 0.98605 0.0
C734 C 0.50316 0.44391 0.95018 0.0
C735 C 0.51001 0.44832 0.98008 0.0
C736 C 0.50298 0.42423 0.93501 0.0
C737 C 0.50942 0.40826 0.94935 0.0
C738 C 0.51635 0.41256 0.97917 0.0
H739 H 0.50116 0.27122 0.88606 0.0
H740 H 0.5098 0.30774 0.91527 0.0
C741 C 0.51667 0.4324 0.99439 0.0
C742 C 0.50893 0.38729 0.93279 0.0
H743 H 0.47835 0.32397 0.92753 0.0
C744 C 0.52491 0.39266 0.90866 0.0
C745 C 0.49212 0.36219 0.93981 0.0
C746 C 0.47405 0.35529 0.96495 0.0
C747 C 0.52455 0.37365 0.89141 0.0
C748 C 0.50728 0.34851 0.89795 0.0
C749 C 0.4916 0.34318 0.92242 0.0
C750 C 0.50453 0.32743 0.87931 0.0
C751 C 0.54295 0.38076 0.86661 0.0
C752 C 0.499 0.32631 0.84915 0.0
C753 C 0.49428 0.3055 0.83226 0.0
C754 C 0.49462 0.28512 0.84523 0.0
C755 C 0.50078 0.28655 0.87526 0.0
C756 C 0.50564 0.30743 0.89207 0.0
H757 H 0.55962 0.39927 0.87045 0.0
H758 H 0.54906 0.36688 0.86371 0.0
H759 H 0.5341 0.3818 0.84585 0.0
H760 H 0.49739 0.34113 0.83882 0.0
H761 H 0.48932 0.30498 0.80932 0.0
H762 H 1.0044 0.46079 0.41741 0.0
H763 H 0.02337 0.44036 0.39039 0.0
H764 H 0.07448 0.45546 0.46218 0.0
H765 H 0.05554 0.47545 0.48938 0.0
H766 H 0.07151 0.46367 0.3726 0.0
H767 H 0.05361 0.38401 0.44295 0.0
H768 H 0.03663 0.40044 0.44684 0.0
H769 H 0.06677 0.41239 0.46361 0.0
C770 C 0.01935 0.45931 0.42767 0.0
C771 C 0.02851 0.46982 0.45551 0.0
C772 C 0.03016 0.44764 0.4122 0.0
C773 C 0.05009 0.44606 0.42445 0.0
C774 C 0.05873 0.45589 0.45258 0.0
H775 H 0.17863 0.45548 0.34955 0.0
H776 H 0.14595 0.45988 0.37354 0.0
C777 C 0.048 0.46755 0.468 0.0
C778 C 0.06383 0.43682 0.4068 0.0
H779 H 0.08877 0.3988 0.40996 0.0
C780 C 0.07488 0.44915 0.38049 0.0
C781 C 0.06801 0.41768 0.41689 0.0
C782 C 0.0554 0.4027 0.44397 0.0
C783 C 0.0912 0.44391 0.36497 0.0
C784 C 0.09688 0.42616 0.37632 0.0
C785 C 0.08466 0.4127 0.40159 0.0
C786 C 0.11667 0.42262 0.36322 0.0
C787 C 0.10267 0.45784 0.33688 0.0
C788 C 0.11117 0.39987 0.35049 0.0
C789 C 0.12989 0.39729 0.33668 0.0
C790 C 0.15437 0.41743 0.33553 0.0
C791 C 0.15989 0.43981 0.34947 0.0
C792 C 0.14124 0.44236 0.3632 0.0
H793 H 0.09133 0.46521 0.3269 0.0
H794 H 0.12137 0.47382 0.34179 0.0
H795 H 0.10481 0.44575 0.32055 0.0
H796 H 0.0923 0.38437 0.3505 0.0
H797 H 0.125 0.37987 0.32603 0.0
H798 H 0.57926 0.0537 0.93962 0.0
H799 H 0.61277 0.0872 0.91174 0.0
H800 H 0.63595 0.13359 0.98905 0.0
H801 H 0.60227 0.10002 0.01733 0.0
H802 H 0.62171 0.13738 0.90303 0.0
H803 H 0.70027 0.13515 0.95901 0.0
H804 H 0.66872 0.10959 0.9609 0.0
H805 H 0.67794 0.13713 0.98229 0.0
C806 C 0.59151 0.07095 0.95087 0.0
C807 C 0.58807 0.07404 0.98087 0.0
C808 C 0.61064 0.09015 0.93478 0.0
C809 C 0.62703 0.11287 0.94829 0.0
C810 C 0.62372 0.11612 0.97822 0.0
H811 H 0.7619 0.24059 0.87942 0.0
H812 H 0.7267 0.21275 0.91029 0.0
C813 C 0.60441 0.09692 0.99435 0.0
C814 C 0.64737 0.13305 0.93078 0.0
H815 H 0.71045 0.16528 0.9222 0.0
C816 C 0.64113 0.14357 0.90727 0.0
C817 C 0.67271 0.1412 0.93637 0.0
C818 C 0.68047 0.13015 0.96086 0.0
C819 C 0.6595 0.16202 0.88926 0.0
C820 C 0.68487 0.16974 0.89434 0.0
C821 C 0.69108 0.15945 0.91819 0.0
C822 C 0.70526 0.18793 0.87487 0.0
C823 C 0.65149 0.17331 0.86531 0.0
C824 C 0.705 0.18358 0.84447 0.0
C825 C 0.72504 0.19969 0.82665 0.0
C826 C 0.74605 0.22035 0.83886 0.0
C827 C 0.74605 0.22494 0.86919 0.0
C828 C 0.72593 0.20893 0.88694 0.0
H829 H 0.63325 0.17169 0.8704 0.0
H830 H 0.66538 0.19322 0.86201 0.0
H831 H 0.64942 0.16326 0.84439 0.0
H832 H 0.68966 0.16724 0.83461 0.0
H833 H 0.72447 0.19535 0.80349 0.0
H834 H 0.5222 0.59363 0.54918 0.0
H835 H 0.53952 0.63473 0.52642 0.0
H836 H 0.56822 0.61075 0.45508 0.0
H837 H 0.55163 0.57011 0.4778 0.0
H838 H 0.60082 0.65907 0.47241 0.0
H839 H 0.50532 0.64329 0.4543 0.0
H840 H 0.51379 0.64217 0.49182 0.0
H841 H 0.51095 0.61888 0.4662 0.0
C842 C 0.53251 0.59725 0.52887 0.0
C843 C 0.53524 0.57848 0.51511 0.0
C844 C 0.54229 0.62069 0.51584 0.0
C845 C 0.55475 0.62561 0.4888 0.0
C846 C 0.55861 0.60734 0.47591 0.0
H847 H 0.56535 0.71095 0.3402 0.0
H848 H 0.55765 0.68075 0.37883 0.0
C849 C 0.54899 0.58404 0.48891 0.0
C850 C 0.56223 0.6489 0.47246 0.0
H851 H 0.53826 0.6793 0.43408 0.0
C852 C 0.58725 0.66377 0.46434 0.0
C853 C 0.54437 0.65475 0.46175 0.0
C854 C 0.51707 0.63889 0.4687 0.0
C855 C 0.59475 0.68379 0.44488 0.0
C856 C 0.57677 0.68926 0.4337 0.0
C857 C 0.55197 0.67504 0.44279 0.0
C858 C 0.58263 0.70795 0.41032 0.0
C859 C 0.62153 0.69807 0.43523 0.0
C860 C 0.5994 0.73327 0.41514 0.0
C861 C 0.6039 0.75062 0.39294 0.0
C862 C 0.59144 0.7429 0.36579 0.0
C863 C 0.57492 0.7175 0.36102 0.0
C864 C 0.57057 0.70023 0.38305 0.0
H865 H 0.63197 0.6886 0.44165 0.0
H866 H 0.62276 0.70067 0.41101 0.0
H867 H 0.6307 0.71672 0.44564 0.0
H868 H 0.60861 0.73966 0.4362 0.0
H869 H 0.61651 0.77011 0.39732 0.0
H870 H 0.53467 0.09147 0.55603 0.0
H871 H 0.53189 0.11964 0.59101 0.0
H872 H 0.47529 0.05707 0.63892 0.0
H873 H 0.47891 0.02861 0.60449 0.0
H874 H 0.49682 0.12842 0.60277 0.0
H875 H 0.51816 0.0957 0.70601 0.0
H876 H 0.5219 0.08529 0.67037 0.0
H877 H 0.49171 0.07145 0.68732 0.0
C878 C 0.5217 0.08362 0.57411 0.0
C879 C 0.50702 0.05772 0.57744 0.0
C880 C 0.52012 0.09982 0.59417 0.0
C881 C 0.50363 0.09068 0.61804 0.0
C882 C 0.4887 0.06475 0.62129 0.0
H883 H 0.45764 0.18454 0.71034 0.0
H884 H 0.46141 0.15567 0.67734 0.0
C885 C 0.49062 0.04844 0.60143 0.0
C886 C 0.50163 0.10849 0.63853 0.0
H887 H 0.50326 0.12412 0.71102 0.0
C888 C 0.49835 0.12748 0.62644 0.0
C889 C 0.50402 0.10772 0.66948 0.0
C890 C 0.50941 0.08911 0.68406 0.0
C891 C 0.49731 0.14549 0.64417 0.0
C892 C 0.49857 0.14406 0.67519 0.0
C893 C 0.50203 0.1252 0.68732 0.0
C894 C 0.49636 0.1619 0.69538 0.0
C895 C 0.49565 0.16629 0.62924 0.0
C896 C 0.51428 0.17463 0.71738 0.0
C897 C 0.51188 0.19087 0.73681 0.0
C898 C 0.4916 0.19493 0.73455 0.0
C899 C 0.47376 0.18227 0.71243 0.0
C900 C 0.47596 0.16576 0.69337 0.0
H901 H 0.50328 0.16949 0.60658 0.0
H902 H 0.47585 0.16124 0.62752 0.0
H903 H 0.50585 0.18394 0.64177 0.0
H904 H 0.53015 0.17197 0.71959 0.0
H905 H 0.52587 0.20016 0.75368 0.0
H906 H 0.4403 0.45914 0.05726 0.0
H907 H 0.39968 0.44312 0.07988 0.0
H908 H 0.37887 0.47831 0.01275 0.0
H909 H 0.41989 0.49483 0.98999 0.0
H910 H 0.37176 0.49018 0.06837 0.0
H911 H 0.33002 0.3884 0.0593 0.0
H912 H 0.36087 0.40268 0.07425 0.0
H913 H 0.35616 0.40978 0.03722 0.0
C914 C 0.42699 0.46316 0.04692 0.0
C915 C 0.43339 0.47837 0.02187 0.0
C916 C 0.40364 0.45376 0.05978 0.0
C917 C 0.3861 0.45921 0.04778 0.0
C918 C 0.39208 0.47371 0.0222 0.0
H919 H 0.24277 0.40265 0.13874 0.0
H920 H 0.27332 0.41123 0.09992 0.0
C921 C 0.4155 0.48311 0.00922 0.0
C922 C 0.36285 0.45209 0.06406 0.0
H923 H 0.31427 0.40315 0.09845 0.0
C924 C 0.35891 0.47109 0.07447 0.0
C925 C 0.34593 0.42717 0.07176 0.0
C926 C 0.34831 0.40583 0.05977 0.0
C927 C 0.33939 0.46601 0.0938 0.0
C928 C 0.32366 0.44133 0.10332 0.0
C929 C 0.32661 0.42211 0.09149 0.0
C930 C 0.30509 0.43542 0.12684 0.0
C931 C 0.33608 0.48719 0.10435 0.0
C932 C 0.31292 0.44563 0.15499 0.0
C933 C 0.2956 0.44068 0.17719 0.0
C934 C 0.27004 0.42529 0.17175 0.0
C935 C 0.26229 0.41445 0.14373 0.0
C936 C 0.2797 0.41944 0.12147 0.0
H937 H 0.34441 0.50306 0.08877 0.0
H938 H 0.31612 0.48119 0.10724 0.0
H939 H 0.34556 0.49388 0.12589 0.0
H940 H 0.3325 0.45749 0.1598 0.0
H941 H 0.30226 0.44887 0.19866 0.0
H942 H 1.00496 0.4813 0.61302 0.0
H943 H 0.97641 0.44894 0.64702 0.0
H944 H 0.92321 0.41448 0.57678 0.0
H945 H 0.95119 0.44676 0.54305 0.0
H946 H 0.90086 0.4169 0.6272 0.0
H947 H 0.96236 0.37791 0.65069 0.0
H948 H 0.97565 0.41038 0.65879 0.0
H949 H 0.96859 0.39975 0.62137 0.0
C950 C 0.98722 0.46677 0.60481 0.0
C951 C 0.98051 0.46664 0.5752 0.0
C952 C 0.97092 0.44821 0.62427 0.0
C953 C 0.94768 0.42902 0.61445 0.0
C954 C 0.94096 0.42902 0.58498 0.0
H955 H 0.85418 0.28213 0.67799 0.0
H956 H 0.88209 0.32069 0.65283 0.0
C957 C 0.95712 0.44752 0.56563 0.0
C958 C 0.93026 0.4087 0.63444 0.0
H959 H 0.92386 0.35957 0.675 0.0
C960 C 0.90593 0.40446 0.63784 0.0
C961 C 0.93677 0.39231 0.64819 0.0
C962 C 0.96217 0.39509 0.64446 0.0
C963 C 0.88787 0.38406 0.65396 0.0
C964 C 0.89436 0.36759 0.66751 0.0
C965 C 0.91886 0.37222 0.66474 0.0
C966 C 0.87571 0.3442 0.68236 0.0
C967 C 0.86174 0.37972 0.65524 0.0
C968 C 0.86226 0.34432 0.70722 0.0
C969 C 0.84588 0.32201 0.72164 0.0
C970 C 0.84295 0.29927 0.71164 0.0
C971 C 0.85603 0.29928 0.68641 0.0
C972 C 0.87212 0.32138 0.672 0.0
H973 H 0.85852 0.39088 0.63858 0.0
H974 H 0.84795 0.35979 0.6517 0.0
H975 H 0.85842 0.38511 0.67731 0.0
H976 H 0.86495 0.36169 0.71598 0.0
H977 H 0.8363 0.32266 0.74119 0.0
H978 H 0.58098 0.99725 0.06136 0.0
H979 H 0.59392 0.97235 0.08966 0.0
H980 H 0.55016 0.90953 0.03315 0.0
H981 H 0.53731 0.93451 1.00433 0.0
H982 H 0.55906 0.93073 0.11933 0.0
H983 H 0.61471 0.90707 0.0444 0.0
H984 H 0.60913 0.93248 0.03735 0.0
H985 H 0.5853 0.90109 0.02983 0.0
C986 C 0.57454 0.97831 0.05447 0.0
C987 C 0.55796 0.96779 0.03072 0.0
C988 C 0.58198 0.96411 0.07069 0.0
C989 C 0.57305 0.93912 0.0635 0.0
C990 C 0.5576 0.9289 0.0388 0.0
H991 H 0.55261 0.82443 0.18627 0.0
H992 H 0.54793 0.85009 0.14911 0.0
C993 C 0.55021 0.94318 0.02239 0.0
C994 C 0.57745 0.92321 0.08405 0.0
H995 H 0.60258 0.88549 0.09006 0.0
C996 C 0.56869 0.92094 0.11295 0.0
C997 C 0.59008 0.91054 0.07568 0.0
C998 C 0.60056 0.91301 0.0452 0.0
C999 C 0.57198 0.90617 0.13367 0.0
C1000 C 0.58406 0.89301 0.12517 0.0
C1001 C 0.59317 0.89549 0.0964 0.0
C1002 C 0.58723 0.87656 0.14608 0.0
C1003 C 0.56269 0.90493 0.16463 0.0
C1004 C 0.61096 0.88264 0.15614 0.0
C1005 C 0.61372 0.86806 0.17761 0.0
C1006 C 0.59277 0.84712 0.18929 0.0
C1007 C 0.5691 0.84073 0.17837 0.0
C1008 C 0.56638 0.85528 0.15696 0.0
H1009 H 0.55907 0.92038 0.16933 0.0
H1010 H 0.54503 0.88717 0.16759 0.0
H1011 H 0.5763 0.90556 0.18097 0.0
H1012 H 0.62728 0.89902 0.14797 0.0
H1013 H 0.63218 0.87358 0.18559 0.0
H1014 H 0.56982 0.53416 0.5891 0.0
H1015 H 0.60307 0.5353 0.61887 0.0
H1016 H 0.59823 0.47392 0.56908 0.0
H1017 H 0.56564 0.47356 0.53819 0.0
H1018 H 0.60223 0.5032 0.65497 0.0
H1019 H 0.67144 0.51747 0.56944 0.0
H1020 H 0.64444 0.52018 0.56168 0.0
H1021 H 0.64198 0.49008 0.56317 0.0
C1022 C 0.57608 0.52112 0.58417 0.0
C1023 C 0.56515 0.50386 0.56113 0.0
C1024 C 0.59509 0.52173 0.60132 0.0
C1025 C 0.60353 0.50488 0.59622 0.0
C1026 C 0.59267 0.48761 0.5731 0.0
H1027 H 0.68871 0.48386 0.73809 0.0
H1028 H 0.656 0.477 0.7028 0.0
C1029 C 0.57391 0.48732 0.55549 0.0
C1030 C 0.62279 0.5049 0.61612 0.0
H1031 H 0.67949 0.5083 0.61751 0.0
C1032 C 0.61914 0.50437 0.64669 0.0
C1033 C 0.64506 0.50663 0.60555 0.0
C1034 C 0.65113 0.50888 0.57319 0.0
C1035 C 0.63707 0.5059 0.66685 0.0
C1036 C 0.65904 0.50697 0.65631 0.0
C1037 C 0.66259 0.5072 0.62573 0.0
C1038 C 0.67926 0.50952 0.67652 0.0
C1039 C 0.63263 0.50745 0.69922 0.0
C1040 C 0.70367 0.52923 0.67276 0.0
C1041 C 0.72253 0.53279 0.69245 0.0
C1042 C 0.71747 0.51685 0.71665 0.0
C1043 C 0.69322 0.49664 0.7199 0.0
C1044 C 0.67442 0.49284 0.69985 0.0
H1045 H 0.6189 0.51365 0.70298 0.0
H1046 H 0.62509 0.48879 0.70922 0.0
H1047 H 0.65013 0.5205 0.71079 0.0
H1048 H 0.70806 0.54234 0.65496 0.0
H1049 H 0.74094 0.54858 0.68918 0.0
H1050 H 0.09748 0.60922 0.991 0.0
H1051 H 0.124 0.64765 0.01843 0.0
H1052 H 0.06649 0.62675 0.08331 0.0
H1053 H 0.03991 0.58854 0.05627 0.0
H1054 H 0.11273 0.68806 0.0446 0.0
H1055 H 0.13154 0.63132 0.12401 0.0
H1056 H 0.12089 0.62106 0.08691 0.0
H1057 H 0.09951 0.61975 0.11429 0.0
C1058 C 0.09026 0.61309 0.01073 0.0
C1059 C 0.06669 0.59569 0.02162 0.0
C1060 C 0.10544 0.63502 0.02636 0.0
C1061 C 0.09722 0.63978 0.05298 0.0
C1062 C 0.07316 0.62325 0.06288 0.0
H1063 H 0.15094 0.75855 0.17923 0.0
H1064 H 0.12871 0.72834 0.14029 0.0
C1065 C 0.05803 0.60142 0.04736 0.0
C1066 C 0.11434 0.6607 0.07201 0.0
H1067 H 0.14581 0.67313 0.13706 0.0
C1068 C 0.12017 0.68493 0.06471 0.0
C1069 C 0.12414 0.65645 0.09801 0.0
C1070 C 0.11892 0.63079 0.10632 0.0
C1071 C 0.13505 0.70503 0.08337 0.0
C1072 C 0.14404 0.70061 0.10999 0.0
C1073 C 0.1388 0.67646 0.11672 0.0
C1074 C 0.15837 0.72055 0.1317 0.0
C1075 C 0.14106 0.73081 0.07449 0.0
C1076 C 0.18235 0.72604 0.14 0.0
C1077 C 0.19512 0.7433 0.16228 0.0
C1078 C 0.18409 0.7553 0.17692 0.0
C1079 C 0.16018 0.74998 0.16821 0.0
C1080 C 0.14743 0.73273 0.14588 0.0
H1081 H 0.13847 0.73202 0.05049 0.0
H1082 H 0.12845 0.7357 0.08623 0.0
H1083 H 0.16047 0.74472 0.08048 0.0
H1084 H 0.19108 0.71675 0.12939 0.0
H1085 H 0.21362 0.74718 0.16804 0.0
loop_
_geom_bond_atom_site_label_1
_geom_bond_atom_site_label_2
_geom_bond_distance
_geom_bond_site_symmetry_2
_ccdc_geom_bond_type
C0 O2 1.247 . S
C0 O4 1.258 . S
C1 O8 1.247 1_655 S
C1 O9 1.260 . S
O2 C0 1.247 . S
O2 Zn3 2.028 1_455 S
Zn3 O2 2.028 1_655 S
Zn3 O7 2.034 1_554 S
Zn3 O9 2.034 1_554 S
Zn3 O10 2.028 1_655 S
O4 C0 1.258 . S
O4 Zn5 2.035 1_554 S
Zn5 O4 2.035 1_556 S
Zn5 O6 2.028 . S
Zn5 O8 2.028 . S
Zn5 O11 2.035 1_556 S
O6 Zn5 2.028 . S
O6 C12 1.247 1_455 S
O7 Zn3 2.034 1_556 S
O7 C12 1.260 . S
O8 C1 1.247 1_455 S
O8 Zn5 2.028 . S
O9 C1 1.260 . S
O9 Zn3 2.034 1_556 S
O10 Zn3 2.028 1_455 S
O10 C13 1.247 . S
O11 Zn5 2.035 1_554 S
O11 C13 1.258 . S
C12 O6 1.247 1_655 S
C12 O7 1.260 . S
C13 O10 1.247 . S
C13 O11 1.258 . S
C14 O16 1.247 . S
C14 O18 1.258 . S
C15 O22 1.247 1_565 S
C15 O23 1.258 . S
O16 C14 1.247 . S
O16 Zn17 2.028 1_545 S
Zn17 O16 2.028 1_565 S
Zn17 O21 2.035 . S
Zn17 O23 2.035 . S
Zn17 O24 2.028 1_565 S
O18 C14 1.258 . S
O18 Zn19 2.035 . S
Zn19 O18 2.035 . S
Zn19 O20 2.028 . S
Zn19 O22 2.028 . S
Zn19 O25 2.035 . S
O20 Zn19 2.028 . S
O20 C26 1.247 1_545 S
O21 Zn17 2.035 . S
O21 C26 1.258 . S
O22 C15 1.247 1_545 S
O22 Zn19 2.028 . S
O23 C15 1.258 . S
O23 Zn17 2.035 . S
O24 Zn17 2.028 1_545 S
O24 C27 1.247 . S
O25 Zn19 2.035 . S
O25 C27 1.258 . S
C26 O20 1.247 1_565 S
C26 O21 1.258 . S
C27 O24 1.247 . S
C27 O25 1.258 . S
C28 O30 1.247 . S
C28 O32 1.262 . S
C29 O36 1.247 . S
C29 O37 1.258 . S
O30 C28 1.247 . S
O30 Zn31 2.028 . S
Zn31 O30 2.028 . S
Zn31 O35 2.035 1_556 S
Zn31 O37 2.035 1_556 S
Zn31 O38 2.028 . S
O32 C28 1.262 . S
O32 Zn33 2.032 1_556 S
Zn33 O32 2.032 1_554 S
Zn33 O34 2.028 . S
Zn33 O36 2.028 . S
Zn33 O39 2.032 1_554 S
O34 Zn33 2.028 . S
O34 C40 1.247 . S
O35 Zn31 2.035 1_554 S
O35 C40 1.258 . S
O36 C29 1.247 . S
O36 Zn33 2.028 . S
O37 C29 1.258 . S
O37 Zn31 2.035 1_554 S
O38 Zn31 2.028 . S
O38 C41 1.247 . S
O39 Zn33 2.032 1_556 S
O39 C41 1.262 . S
C40 O34 1.247 . S
C40 O35 1.258 . S
C41 O38 1.247 . S
C41 O39 1.262 . S
C42 O44 1.247 . S
C42 O46 1.258 . S
C43 O50 1.247 . S
C43 O51 1.279 . S
O44 C42 1.247 . S
O44 Zn45 2.028 . S
Zn45 O44 2.028 . S
Zn45 O49 2.008 1_455 S
Zn45 O51 2.030 1_455 S
Zn45 O52 2.028 . S
O46 C42 1.258 . S
O46 Zn47 2.035 1_455 S
Zn47 O46 2.035 1_655 S
Zn47 O48 2.028 . S
Zn47 O50 2.028 . S
Zn47 O53 2.035 1_655 S
O48 Zn47 2.028 . S
O48 C54 1.247 . S
O49 Zn45 2.008 1_655 S
O49 C54 1.287 . S
O50 C43 1.247 . S
O50 Zn47 2.028 . S
O51 C43 1.279 . S
O51 Zn45 2.030 1_655 S
O52 Zn45 2.028 . S
O52 C55 1.247 . S
O53 Zn47 2.035 1_455 S
O53 C55 1.258 . S
C54 O48 1.247 . S
C54 O49 1.287 . S
C55 O52 1.247 . S
C55 O53 1.258 . S
C56 O58 1.274 . S
C56 O60 1.258 . S
C57 O64 1.247 . S
C57 O65 1.261 . S
O58 C56 1.274 . S
O58 Zn59 2.002 1_565 S
Zn59 O58 2.002 1_545 S
Zn59 O63 2.033 1_554 S
Zn59 O65 2.033 1_554 S
Zn59 O66 2.023 1_545 S
O60 C56 1.258 . S
O60 Zn61 2.035 1_554 S
Zn61 O60 2.035 1_556 S
Zn61 O62 2.028 1_565 S
Zn61 O64 2.028 1_565 S
Zn61 O67 2.035 1_556 S
O62 Zn61 2.028 1_545 S
O62 C68 1.247 . S
O63 Zn59 2.033 1_556 S
O63 C68 1.262 . S
O64 C57 1.247 . S
O64 Zn61 2.028 1_545 S
O65 C57 1.261 . S
O65 Zn59 2.033 1_556 S
O66 Zn59 2.023 1_565 S
O66 C69 1.266 . S
O67 Zn61 2.035 1_554 S
O67 C69 1.258 . S
C68 O62 1.247 . S
C68 O63 1.262 . S
C69 O66 1.266 . S
C69 O67 1.258 . S
C70 O72 1.247 . S
C70 O74 1.258 . S
C71 O78 1.247 . S
C71 O79 1.258 . S
O72 C70 1.247 . S
O72 Zn73 2.028 . S
Zn73 O72 2.028 . S
Zn73 O77 2.035 . S
Zn73 O79 2.035 . S
Zn73 O80 2.028 . S
O74 C70 1.258 . S
O74 Zn75 2.035 . S
Zn75 O74 2.035 . S
Zn75 O76 2.028 . S
Zn75 O78 2.028 . S
Zn75 O81 2.035 . S
O76 Zn75 2.028 . S
O76 C82 1.247 . S
O77 Zn73 2.035 . S
O77 C82 1.258 . S
O78 C71 1.247 . S
O78 Zn75 2.028 . S
O79 C71 1.258 . S
O79 Zn73 2.035 . S
O80 Zn73 2.028 . S
O80 C83 1.247 . S
O81 Zn75 2.035 . S
O81 C83 1.258 . S
C82 O76 1.247 . S
C82 O77 1.258 . S
C83 O80 1.247 . S
C83 O81 1.258 . S
Cu84 N85 1.999 . S
Cu84 O90 1.974 . S
Cu84 N95 1.985 . S
Cu84 O104 1.959 . S
N85 Cu84 1.999 . S
N85 C87 1.263 . S
N85 C89 1.389 . S
N86 C87 1.358 . S
N86 C88 1.400 . S
C87 N85 1.263 . S
C87 N86 1.358 . S
C87 H93 0.930 . S
C88 N86 1.400 . S
C88 C89 1.351 . S
C88 H105 0.930 . S
C89 N85 1.389 . S
C89 C88 1.351 . S
C89 H94 0.930 . S
O90 Cu84 1.974 . S
O90 C100 1.282 . S
C91 O92 1.261 . S
C91 O104 1.251 . S
O92 C91 1.261 . S
H93 C87 0.930 . S
H94 C89 0.930 . S
N95 Cu84 1.985 . S
N95 C97 1.335 . S
N95 C98 1.390 . S
N96 C97 1.345 . S
N96 C99 1.336 . S
C97 N95 1.335 . S
C97 N96 1.345 . S
C97 H102 0.930 . S
C98 N95 1.390 . S
C98 C99 1.346 . S
C98 H103 0.930 . S
C99 N96 1.336 . S
C99 C98 1.346 . S
C99 H106 0.929 . S
C100 O90 1.282 . S
C100 O101 1.216 . S
O101 C100 1.216 . S
H102 C97 0.930 . S
H103 C98 0.930 . S
O104 Cu84 1.959 . S
O104 C91 1.251 . S
H105 C88 0.930 . S
H106 C99 0.929 . S
Cu107 N108 1.999 . S
Cu107 O113 1.974 . S
Cu107 N118 1.985 . S
Cu107 O127 1.959 . S
N108 Cu107 1.999 . S
N108 C110 1.263 . S
N108 C112 1.389 . S
N109 C110 1.358 . S
N109 C111 1.400 . S
C110 N108 1.263 . S
C110 N109 1.358 . S
C110 H116 0.930 . S
C111 N109 1.400 . S
C111 C112 1.351 . S
C111 H128 0.930 . S
C112 N108 1.389 . S
C112 C111 1.351 . S
C112 H117 0.930 . S
O113 Cu107 1.974 . S
O113 C123 1.282 . S
C114 O115 1.261 . S
C114 O127 1.251 . S
O115 C114 1.261 . S
H116 C110 0.930 . S
H117 C112 0.930 . S
N118 Cu107 1.985 . S
N118 C120 1.335 . S
N118 C121 1.390 . S
N119 C120 1.345 . S
N119 C122 1.336 . S
C120 N118 1.335 . S
C120 N119 1.345 . S
C120 H125 0.930 . S
C121 N118 1.390 . S
C121 C122 1.346 . S
C121 H126 0.930 . S
C122 N119 1.336 . S
C122 C121 1.346 . S
C122 H129 0.929 . S
C123 O113 1.282 . S
C123 O124 1.216 . S
O124 C123 1.216 . S
H125 C120 0.930 . S
H126 C121 0.930 . S
O127 Cu107 1.959 . S
O127 C114 1.251 . S
H128 C111 0.930 . S
H129 C122 0.929 . S
Cu130 N131 1.999 . S
Cu130 O136 1.974 . S
Cu130 N141 1.985 . S
Cu130 O150 1.959 . S
N131 Cu130 1.999 . S
N131 C133 1.263 . S
N131 C135 1.389 . S
N132 C133 1.358 . S
N132 C134 1.400 . S
C133 N131 1.263 . S
C133 N132 1.358 . S
C133 H139 0.930 . S
C134 N132 1.400 . S
C134 C135 1.351 . S
C134 H151 0.930 . S
C135 N131 1.389 . S
C135 C134 1.351 . S
C135 H140 0.930 . S
O136 Cu130 1.974 . S
O136 C146 1.282 . S
C137 O138 1.261 . S
C137 O150 1.251 . S
O138 C137 1.261 . S
H139 C133 0.930 . S
H140 C135 0.930 . S
N141 Cu130 1.985 . S
N141 C143 1.335 . S
N141 C144 1.390 . S
N142 C143 1.345 . S
N142 C145 1.336 . S
C143 N141 1.335 . S
C143 N142 1.345 . S
C143 H148 0.930 . S
C144 N141 1.390 . S
C144 C145 1.346 . S
C144 H149 0.930 . S
C145 N142 1.336 . S
C145 C144 1.346 . S
C145 H152 0.929 . S
C146 O136 1.282 . S
C146 O147 1.216 . S
O147 C146 1.216 . S
H148 C143 0.930 . S
H149 C144 0.930 . S
O150 Cu130 1.959 . S
O150 C137 1.251 . S
H151 C134 0.930 . S
H152 C145 0.929 . S
Cu153 N154 1.999 . S
Cu153 O159 1.974 . S
Cu153 N164 1.985 . S
Cu153 O173 1.959 . S
N154 Cu153 1.999 . S
N154 C156 1.263 . S
N154 C158 1.389 . S
N155 C156 1.358 . S
N155 C157 1.400 . S
C156 N154 1.263 . S
C156 N155 1.358 . S
C156 H162 0.930 . S
C157 N155 1.400 . S
C157 C158 1.351 . S
C157 H174 0.930 . S
C158 N154 1.389 . S
C158 C157 1.351 . S
C158 H163 0.930 . S
O159 Cu153 1.974 . S
O159 C169 1.282 . S
C160 O161 1.261 . S
C160 O173 1.251 . S
O161 C160 1.261 . S
H162 C156 0.930 . S
H163 C158 0.930 . S
N164 Cu153 1.985 . S
N164 C166 1.335 . S
N164 C167 1.390 . S
N165 C166 1.345 . S
N165 C168 1.336 . S
C166 N164 1.335 . S
C166 N165 1.345 . S
C166 H171 0.930 . S
C167 N164 1.390 . S
C167 C168 1.346 . S
C167 H172 0.930 . S
C168 N165 1.336 . S
C168 C167 1.346 . S
C168 H175 0.929 . S
C169 O159 1.282 . S
C169 O170 1.216 . S
O170 C169 1.216 . S
H171 C166 0.930 . S
H172 C167 0.930 . S
O173 Cu153 1.959 . S
O173 C160 1.251 . S
H174 C157 0.930 . S
H175 C168 0.929 . S
Cu176 N177 1.999 . S
Cu176 O182 1.974 . S
Cu176 N187 1.985 . S
Cu176 O196 1.959 . S
N177 Cu176 1.999 . S
N177 C179 1.263 . S
N177 C181 1.389 . S
N178 C179 1.358 . S
N178 C180 1.400 . S
C179 N177 1.263 . S
C179 N178 1.358 . S
C179 H185 0.930 . S
C180 N178 1.400 . S
C180 C181 1.351 . S
C180 H197 0.930 . S
C181 N177 1.389 . S
C181 C180 1.351 . S
C181 H186 0.930 . S
O182 Cu176 1.974 . S
O182 C192 1.282 . S
C183 O184 1.261 . S
C183 O196 1.251 . S
O184 C183 1.261 . S
H185 C179 0.930 . S
H186 C181 0.930 . S
N187 Cu176 1.985 . S
N187 C189 1.335 . S
N187 C190 1.390 . S
N188 C189 1.345 . S
N188 C191 1.336 . S
C189 N187 1.335 . S
C189 N188 1.345 . S
C189 H194 0.930 . S
C190 N187 1.390 . S
C190 C191 1.346 . S
C190 H195 0.930 . S
C191 N188 1.336 . S
C191 C190 1.346 . S
C191 H198 0.929 . S
C192 O182 1.282 . S
C192 O193 1.216 . S
O193 C192 1.216 . S
H194 C189 0.930 . S
H195 C190 0.930 . S
O196 Cu176 1.959 . S
O196 C183 1.251 . S
H197 C180 0.930 . S
H198 C191 0.929 . S
Cu199 N200 1.999 . S
Cu199 O205 1.974 . S
Cu199 N210 1.985 . S
Cu199 O219 1.959 . S
N200 Cu199 1.999 . S
N200 C202 1.263 . S
N200 C204 1.389 . S
N201 C202 1.358 . S
N201 C203 1.400 . S
C202 N200 1.263 . S
C202 N201 1.358 . S
C202 H208 0.930 . S
C203 N201 1.400 . S
C203 C204 1.351 . S
C203 H220 0.930 . S
C204 N200 1.389 . S
C204 C203 1.351 . S
C204 H209 0.930 . S
O205 Cu199 1.974 . S
O205 C215 1.282 . S
C206 O207 1.261 . S
C206 O219 1.251 . S
O207 C206 1.261 . S
H208 C202 0.930 . S
H209 C204 0.930 . S
N210 Cu199 1.985 . S
N210 C212 1.335 . S
N210 C213 1.390 . S
N211 C212 1.345 . S
N211 C214 1.336 . S
C212 N210 1.335 . S
C212 N211 1.345 . S
C212 H217 0.930 . S
C213 N210 1.390 . S
C213 C214 1.346 . S
C213 H218 0.930 . S
C214 N211 1.336 . S
C214 C213 1.346 . S
C214 H221 0.929 . S
C215 O205 1.282 . S
C215 O216 1.216 . S
O216 C215 1.216 . S
H217 C212 0.930 . S
H218 C213 0.930 . S
O219 Cu199 1.959 . S
O219 C206 1.251 . S
H220 C203 0.930 . S
H221 C214 0.929 . S
H222 C230 0.929 . S
H223 C232 0.930 . S
H224 C234 0.930 . S
H225 C237 0.929 . S
H226 C240 0.930 . S
H227 C242 0.960 . S
H228 C242 0.960 . S
H229 C242 0.960 . S
C230 H222 0.929 . S
C230 C231 1.377 . S
C230 C232 1.384 . S
C231 C230 1.377 . S
C231 C237 1.390 . S
C232 H223 0.930 . S
C232 C230 1.384 . S
C232 C233 1.372 . S
C233 C232 1.372 . S
C233 C234 1.400 . S
C233 C238 1.490 . S
C234 H224 0.930 . S
C234 C233 1.400 . S
C234 C237 1.386 . S
H235 C251 0.930 . S
H236 C252 0.931 . S
C237 H225 0.929 . S
C237 C231 1.390 . S
C237 C234 1.386 . S
C238 C233 1.490 . S
C238 C240 1.395 . S
C238 C241 1.403 . S
H239 C245 0.930 . S
C240 H226 0.930 . S
C240 C238 1.395 . S
C240 C243 1.403 . S
C241 C238 1.403 . S
C241 C242 1.524 . S
C241 C245 1.400 . S
C242 H227 0.960 . S
C242 H228 0.960 . S
C242 H229 0.960 . S
C242 C241 1.524 . S
C243 C240 1.403 . S
C243 C244 1.392 . S
C243 C247 1.495 . S
C244 C243 1.392 . S
C244 C245 1.385 . S
C244 C246 1.478 . S
C245 H239 0.930 . S
C245 C241 1.400 . S
C245 C244 1.385 . S
C246 C244 1.478 . S
C246 C248 1.381 . S
C246 C252 1.383 . S
C247 C243 1.495 . S
C247 H253 0.959 . S
C247 H254 0.961 . S
C247 H255 0.960 . S
C248 C246 1.381 . S
C248 C249 1.394 . S
C248 H256 0.930 . S
C249 C248 1.394 . S
C249 C250 1.383 . S
C249 H257 0.929 . S
C250 C249 1.383 . S
C250 C251 1.377 . S
C251 H235 0.930 . S
C251 C250 1.377 . S
C251 C252 1.379 . S
C252 H236 0.931 . S
C252 C246 1.383 . S
C252 C251 1.379 . S
H253 C247 0.959 . S
H254 C247 0.961 . S
H255 C247 0.960 . S
H256 C248 0.930 . S
H257 C249 0.929 . S
H258 C266 0.929 . S
H259 C268 0.930 . S
H260 C270 0.930 . S
H261 C273 0.929 . S
H262 C276 0.930 . S
H263 C278 0.960 . S
H264 C278 0.960 . S
H265 C278 0.960 . S
C266 H258 0.929 . S
C266 C267 1.377 . S
C266 C268 1.384 . S
C267 C266 1.377 . S
C267 C273 1.390 . S
C268 H259 0.930 . S
C268 C266 1.384 . S
C268 C269 1.372 . S
C269 C268 1.372 . S
C269 C270 1.400 . S
C269 C274 1.490 . S
C270 H260 0.930 . S
C270 C269 1.400 . S
C270 C273 1.386 . S
H271 C287 0.930 . S
H272 C288 0.931 . S
C273 H261 0.929 . S
C273 C267 1.390 . S
C273 C270 1.386 . S
C274 C269 1.490 . S
C274 C276 1.395 . S
C274 C277 1.403 . S
H275 C281 0.930 . S
C276 H262 0.930 . S
C276 C274 1.395 . S
C276 C279 1.403 . S
C277 C274 1.403 . S
C277 C278 1.524 . S
C277 C281 1.400 . S
C278 H263 0.960 . S
C278 H264 0.960 . S
C278 H265 0.960 . S
C278 C277 1.524 . S
C279 C276 1.403 . S
C279 C280 1.392 . S
C279 C283 1.495 . S
C280 C279 1.392 . S
C280 C281 1.385 . S
C280 C282 1.478 . S
C281 H275 0.930 . S
C281 C277 1.400 . S
C281 C280 1.385 . S
C282 C280 1.478 . S
C282 C284 1.381 . S
C282 C288 1.383 . S
C283 C279 1.495 . S
C283 H289 0.959 . S
C283 H290 0.961 . S
C283 H291 0.960 . S
C284 C282 1.381 . S
C284 C285 1.394 . S
C284 H292 0.930 . S
C285 C284 1.394 . S
C285 C286 1.383 . S
C285 H293 0.929 . S
C286 C285 1.383 . S
C286 C287 1.377 . S
C287 H271 0.930 . S
C287 C286 1.377 . S
C287 C288 1.379 . S
C288 H272 0.931 . S
C288 C282 1.383 . S
C288 C287 1.379 . S
H289 C283 0.959 . S
H290 C283 0.961 . S
H291 C283 0.960 . S
H292 C284 0.930 . S
H293 C285 0.929 . S
H294 C302 0.929 . S
H295 C304 0.930 . S
H296 C306 0.930 . S
H297 C309 0.929 . S
H298 C312 0.930 . S
H299 C314 0.960 . S
H300 C314 0.960 . S
H301 C314 0.960 . S
C302 H294 0.929 . S
C302 C303 1.377 . S
C302 C304 1.384 . S
C303 C302 1.377 . S
C303 C309 1.390 . S
C304 H295 0.930 . S
C304 C302 1.384 . S
C304 C305 1.372 . S
C305 C304 1.372 . S
C305 C306 1.400 . S
C305 C310 1.490 . S
C306 H296 0.930 . S
C306 C305 1.400 . S
C306 C309 1.386 . S
H307 C323 0.930 . S
H308 C324 0.931 . S
C309 H297 0.929 . S
C309 C303 1.390 . S
C309 C306 1.386 . S
C310 C305 1.490 . S
C310 C312 1.395 . S
C310 C313 1.403 . S
H311 C317 0.930 . S
C312 H298 0.930 . S
C312 C310 1.395 . S
C312 C315 1.403 . S
C313 C310 1.403 . S
C313 C314 1.524 . S
C313 C317 1.400 . S
C314 H299 0.960 . S
C314 H300 0.960 . S
C314 H301 0.960 . S
C314 C313 1.524 . S
C315 C312 1.403 . S
C315 C316 1.392 . S
C315 C319 1.495 . S
C316 C315 1.392 . S
C316 C317 1.385 . S
C316 C318 1.478 . S
C317 H311 0.930 . S
C317 C313 1.400 . S
C317 C316 1.385 . S
C318 C316 1.478 . S
C318 C320 1.381 . S
C318 C324 1.383 . S
C319 C315 1.495 . S
C319 H325 0.959 . S
C319 H326 0.961 . S
C319 H327 0.960 . S
C320 C318 1.381 . S
C320 C321 1.394 . S
C320 H328 0.930 . S
C321 C320 1.394 . S
C321 C322 1.383 . S
C321 H329 0.929 . S
C322 C321 1.383 . S
C322 C323 1.377 . S
C323 H307 0.930 . S
C323 C322 1.377 . S
C323 C324 1.379 . S
C324 H308 0.931 . S
C324 C318 1.383 . S
C324 C323 1.379 . S
H325 C319 0.959 . S
H326 C319 0.961 . S
H327 C319 0.960 . S
H328 C320 0.930 . S
H329 C321 0.929 . S
H330 C338 0.929 . S
H331 C340 0.930 . S
H332 C342 0.930 . S
H333 C345 0.929 . S
H334 C348 0.930 . S
H335 C350 0.960 . S
H336 C350 0.960 . S
H337 C350 0.960 . S
C338 H330 0.929 . S
C338 C339 1.377 . S
C338 C340 1.384 . S
C339 C338 1.377 . S
C339 C345 1.390 . S
C340 H331 0.930 . S
C340 C338 1.384 . S
C340 C341 1.372 . S
C341 C340 1.372 . S
C341 C342 1.400 . S
C341 C346 1.490 . S
C342 H332 0.930 . S
C342 C341 1.400 . S
C342 C345 1.386 . S
H343 C359 0.930 . S
H344 C360 0.931 . S
C345 H333 0.929 . S
C345 C339 1.390 . S
C345 C342 1.386 . S
C346 C341 1.490 . S
C346 C348 1.395 . S
C346 C349 1.403 . S
H347 C353 0.930 . S
C348 H334 0.930 . S
C348 C346 1.395 . S
C348 C351 1.403 . S
C349 C346 1.403 . S
C349 C350 1.524 . S
C349 C353 1.400 . S
C350 H335 0.960 . S
C350 H336 0.960 . S
C350 H337 0.960 . S
C350 C349 1.524 . S
C351 C348 1.403 . S
C351 C352 1.392 . S
C351 C355 1.495 . S
C352 C351 1.392 . S
C352 C353 1.385 . S
C352 C354 1.478 . S
C353 H347 0.930 . S
C353 C349 1.400 . S
C353 C352 1.385 . S
C354 C352 1.478 . S
C354 C356 1.381 . S
C354 C360 1.383 . S
C355 C351 1.495 . S
C355 H361 0.959 . S
C355 H362 0.961 . S
C355 H363 0.960 . S
C356 C354 1.381 . S
C356 C357 1.394 . S
C356 H364 0.930 . S
C357 C356 1.394 . S
C357 C358 1.383 . S
C357 H365 0.929 . S
C358 C357 1.383 . S
C358 C359 1.377 . S
C359 H343 0.930 . S
C359 C358 1.377 . S
C359 C360 1.379 . S
C360 H344 0.931 . S
C360 C354 1.383 . S
C360 C359 1.379 . S
H361 C355 0.959 . S
H362 C355 0.961 . S
H363 C355 0.960 . S
H364 C356 0.930 . S
H365 C357 0.929 . S
H366 C374 0.929 . S
H367 C376 0.930 . S
H368 C378 0.930 . S
H369 C381 0.929 . S
H370 C384 0.930 . S
H371 C386 0.960 . S
H372 C386 0.960 . S
H373 C386 0.960 . S
C374 H366 0.929 . S
C374 C375 1.377 . S
C374 C376 1.384 . S
C375 C374 1.377 . S
C375 C381 1.390 . S
C376 H367 0.930 . S
C376 C374 1.384 . S
C376 C377 1.372 . S
C377 C376 1.372 . S
C377 C378 1.400 . S
C377 C382 1.490 . S
C378 H368 0.930 . S
C378 C377 1.400 . S
C378 C381 1.386 . S
H379 C395 0.930 . S
H380 C396 0.931 . S
C381 H369 0.929 . S
C381 C375 1.390 . S
C381 C378 1.386 . S
C382 C377 1.490 . S
C382 C384 1.395 . S
C382 C385 1.403 . S
H383 C389 0.930 . S
C384 H370 0.930 . S
C384 C382 1.395 . S
C384 C387 1.403 . S
C385 C382 1.403 . S
C385 C386 1.524 . S
C385 C389 1.400 . S
C386 H371 0.960 . S
C386 H372 0.960 . S
C386 H373 0.960 . S
C386 C385 1.524 . S
C387 C384 1.403 . S
C387 C388 1.392 . S
C387 C391 1.495 . S
C388 C387 1.392 . S
C388 C389 1.385 . S
C388 C390 1.478 . S
C389 H383 0.930 . S
C389 C385 1.400 . S
C389 C388 1.385 . S
C390 C388 1.478 . S
C390 C392 1.381 . S
C390 C396 1.383 . S
C391 C387 1.495 . S
C391 H397 0.959 . S
C391 H398 0.961 . S
C391 H399 0.960 . S
C392 C390 1.381 . S
C392 C393 1.394 . S
C392 H400 0.930 . S
C393 C392 1.394 . S
C393 C394 1.383 . S
C393 H401 0.929 . S
C394 C393 1.383 . S
C394 C395 1.377 . S
C395 H379 0.930 . S
C395 C394 1.377 . S
C395 C396 1.379 . S
C396 H380 0.931 . S
C396 C390 1.383 . S
C396 C395 1.379 . S
H397 C391 0.959 . S
H398 C391 0.961 . S
H399 C391 0.960 . S
H400 C392 0.930 . S
H401 C393 0.929 . S
H402 C410 0.929 . S
H403 C412 0.930 . S
H404 C414 0.930 . S
H405 C417 0.929 . S
H406 C420 0.930 . S
H407 C422 0.960 . S
H408 C422 0.960 . S
H409 C422 0.960 . S
C410 H402 0.929 . S
C410 C411 1.377 . S
C410 C412 1.384 . S
C411 C410 1.377 . S
C411 C417 1.390 . S
C412 H403 0.930 . S
C412 C410 1.384 . S
C412 C413 1.372 . S
C413 C412 1.372 . S
C413 C414 1.400 . S
C413 C418 1.490 . S
C414 H404 0.930 . S
C414 C413 1.400 . S
C414 C417 1.386 . S
H415 C431 0.930 . S
H416 C432 0.931 . S
C417 H405 0.929 . S
C417 C411 1.390 . S
C417 C414 1.386 . S
C418 C413 1.490 . S
C418 C420 1.395 . S
C418 C421 1.403 . S
H419 C425 0.930 . S
C420 H406 0.930 . S
C420 C418 1.395 . S
C420 C423 1.403 . S
C421 C418 1.403 . S
C421 C422 1.524 . S
C421 C425 1.400 . S
C422 H407 0.960 . S
C422 H408 0.960 . S
C422 H409 0.960 . S
C422 C421 1.524 . S
C423 C420 1.403 . S
C423 C424 1.392 . S
C423 C427 1.495 . S
C424 C423 1.392 . S
C424 C425 1.385 . S
C424 C426 1.478 . S
C425 H419 0.930 . S
C425 C421 1.400 . S
C425 C424 1.385 . S
C426 C424 1.478 . S
C426 C428 1.381 . S
C426 C432 1.383 . S
C427 C423 1.495 . S
C427 H433 0.959 . S
C427 H434 0.961 . S
C427 H435 0.960 . S
C428 C426 1.381 . S
C428 C429 1.394 . S
C428 H436 0.930 . S
C429 C428 1.394 . S
C429 C430 1.383 . S
C429 H437 0.929 . S
C430 C429 1.383 . S
C430 C431 1.377 . S
C431 H415 0.930 . S
C431 C430 1.377 . S
C431 C432 1.379 . S
C432 H416 0.931 . S
C432 C426 1.383 . S
C432 C431 1.379 . S
H433 C427 0.959 . S
H434 C427 0.961 . S
H435 C427 0.960 . S
H436 C428 0.930 . S
H437 C429 0.929 . S
H438 C446 0.929 . S
H439 C448 0.930 . S
H440 C450 0.930 . S
H441 C453 0.929 . S
H442 C456 0.930 . S
H443 C458 0.960 . S
H444 C458 0.960 . S
H445 C458 0.960 . S
C446 H438 0.929 . S
C446 C447 1.377 . S
C446 C448 1.384 . S
C447 C446 1.377 . S
C447 C453 1.390 . S
C448 H439 0.930 . S
C448 C446 1.384 . S
C448 C449 1.372 . S
C449 C448 1.372 . S
C449 C450 1.400 . S
C449 C454 1.490 . S
C450 H440 0.930 . S
C450 C449 1.400 . S
C450 C453 1.386 . S
H451 C467 0.930 . S
H452 C468 0.931 . S
C453 H441 0.929 . S
C453 C447 1.390 . S
C453 C450 1.386 . S
C454 C449 1.490 . S
C454 C456 1.395 . S
C454 C457 1.403 . S
H455 C461 0.930 . S
C456 H442 0.930 . S
C456 C454 1.395 . S
C456 C459 1.403 . S
C457 C454 1.403 . S
C457 C458 1.524 . S
C457 C461 1.400 . S
C458 H443 0.960 . S
C458 H444 0.960 . S
C458 H445 0.960 . S
C458 C457 1.524 . S
C459 C456 1.403 . S
C459 C460 1.392 . S
C459 C463 1.495 . S
C460 C459 1.392 . S
C460 C461 1.385 . S
C460 C462 1.478 . S
C461 H455 0.930 . S
C461 C457 1.400 . S
C461 C460 1.385 . S
C462 C460 1.478 . S
C462 C464 1.381 . S
C462 C468 1.383 . S
C463 C459 1.495 . S
C463 H469 0.959 . S
C463 H470 0.961 . S
C463 H471 0.960 . S
C464 C462 1.381 . S
C464 C465 1.394 . S
C464 H472 0.930 . S
C465 C464 1.394 . S
C465 C466 1.383 . S
C465 H473 0.929 . S
C466 C465 1.383 . S
C466 C467 1.377 . S
C467 H451 0.930 . S
C467 C466 1.377 . S
C467 C468 1.379 . S
C468 H452 0.931 . S
C468 C462 1.383 . S
C468 C467 1.379 . S
H469 C463 0.959 . S
H470 C463 0.961 . S
H471 C463 0.960 . S
H472 C464 0.930 . S
H473 C465 0.929 . S
H474 C482 0.929 . S
H475 C484 0.930 . S
H476 C486 0.930 . S
H477 C489 0.929 . S
H478 C492 0.930 . S
H479 C494 0.960 . S
H480 C494 0.960 . S
H481 C494 0.960 . S
C482 H474 0.929 . S
C482 C483 1.377 . S
C482 C484 1.384 . S
C483 C482 1.377 . S
C483 C489 1.390 . S
C484 H475 0.930 . S
C484 C482 1.384 . S
C484 C485 1.372 . S
C485 C484 1.372 . S
C485 C486 1.400 . S
C485 C490 1.490 . S
C486 H476 0.930 . S
C486 C485 1.400 . S
C486 C489 1.386 . S
H487 C503 0.930 . S
H488 C504 0.931 . S
C489 H477 0.929 . S
C489 C483 1.390 . S
C489 C486 1.386 . S
C490 C485 1.490 . S
C490 C492 1.395 . S
C490 C493 1.403 . S
H491 C497 0.930 . S
C492 H478 0.930 . S
C492 C490 1.395 . S
C492 C495 1.403 . S
C493 C490 1.403 . S
C493 C494 1.524 . S
C493 C497 1.400 . S
C494 H479 0.960 . S
C494 H480 0.960 . S
C494 H481 0.960 . S
C494 C493 1.524 . S
C495 C492 1.403 . S
C495 C496 1.392 . S
C495 C499 1.495 . S
C496 C495 1.392 . S
C496 C497 1.385 . S
C496 C498 1.478 . S
C497 H491 0.930 . S
C497 C493 1.400 . S
C497 C496 1.385 . S
C498 C496 1.478 . S
C498 C500 1.381 . S
C498 C504 1.383 . S
C499 C495 1.495 . S
C499 H505 0.959 . S
C499 H506 0.961 . S
C499 H507 0.960 . S
C500 C498 1.381 . S
C500 C501 1.394 . S
C500 H508 0.930 . S
C501 C500 1.394 . S
C501 C502 1.383 . S
C501 H509 0.929 . S
C502 C501 1.383 . S
C502 C503 1.377 . S
C503 H487 0.930 . S
C503 C502 1.377 . S
C503 C504 1.379 . S
C504 H488 0.931 . S
C504 C498 1.383 . S
C504 C503 1.379 . S
H505 C499 0.959 . S
H506 C499 0.961 . S
H507 C499 0.960 . S
H508 C500 0.930 . S
H509 C501 0.929 . S
H510 C518 0.929 . S
H511 C520 0.930 . S
H512 C522 0.930 . S
H513 C525 0.929 . S
H514 C528 0.930 . S
H515 C530 0.960 . S
H516 C530 0.960 . S
H517 C530 0.960 . S
C518 H510 0.929 . S
C518 C519 1.377 . S
C518 C520 1.384 . S
C519 C518 1.377 . S
C519 C525 1.390 . S
C520 H511 0.930 . S
C520 C518 1.384 . S
C520 C521 1.372 . S
C521 C520 1.372 . S
C521 C522 1.400 . S
C521 C526 1.490 . S
C522 H512 0.930 . S
C522 C521 1.400 . S
C522 C525 1.386 . S
H523 C539 0.930 . S
H524 C540 0.931 . S
C525 H513 0.929 . S
C525 C519 1.390 . S
C525 C522 1.386 . S
C526 C521 1.490 . S
C526 C528 1.395 . S
C526 C529 1.403 . S
H527 C533 0.930 . S
C528 H514 0.930 . S
C528 C526 1.395 . S
C528 C531 1.403 . S
C529 C526 1.403 . S
C529 C530 1.524 . S
C529 C533 1.400 . S
C530 H515 0.960 . S
C530 H516 0.960 . S
C530 H517 0.960 . S
C530 C529 1.524 . S
C531 C528 1.403 . S
C531 C532 1.392 . S
C531 C535 1.495 . S
C532 C531 1.392 . S
C532 C533 1.385 . S
C532 C534 1.478 . S
C533 H527 0.930 . S
C533 C529 1.400 . S
C533 C532 1.385 . S
C534 C532 1.478 . S
C534 C536 1.381 . S
C534 C540 1.383 . S
C535 C531 1.495 . S
C535 H541 0.959 . S
C535 H542 0.961 . S
C535 H543 0.960 . S
C536 C534 1.381 . S
C536 C537 1.394 . S
C536 H544 0.930 . S
C537 C536 1.394 . S
C537 C538 1.383 . S
C537 H545 0.929 . S
C538 C537 1.383 . S
C538 C539 1.377 . S
C539 H523 0.930 . S
C539 C538 1.377 . S
C539 C540 1.379 . S
C540 H524 0.931 . S
C540 C534 1.383 . S
C540 C539 1.379 . S
H541 C535 0.959 . S
H542 C535 0.961 . S
H543 C535 0.960 . S
H544 C536 0.930 . S
H545 C537 0.929 . S
H546 C554 0.929 . S
H547 C556 0.930 . S
H548 C558 0.930 . S
H549 C561 0.929 . S
H550 C564 0.930 . S
H551 C566 0.960 . S
H552 C566 0.960 . S
H553 C566 0.960 . S
C554 H546 0.929 . S
C554 C555 1.377 . S
C554 C556 1.384 . S
C555 C554 1.377 . S
C555 C561 1.390 . S
C556 H547 0.930 . S
C556 C554 1.384 . S
C556 C557 1.372 . S
C557 C556 1.372 . S
C557 C558 1.400 . S
C557 C562 1.490 . S
C558 H548 0.930 . S
C558 C557 1.400 . S
C558 C561 1.386 . S
H559 C575 0.930 . S
H560 C576 0.931 . S
C561 H549 0.929 . S
C561 C555 1.390 . S
C561 C558 1.386 . S
C562 C557 1.490 . S
C562 C564 1.395 . S
C562 C565 1.403 . S
H563 C569 0.930 . S
C564 H550 0.930 . S
C564 C562 1.395 . S
C564 C567 1.403 . S
C565 C562 1.403 . S
C565 C566 1.524 . S
C565 C569 1.400 . S
C566 H551 0.960 . S
C566 H552 0.960 . S
C566 H553 0.960 . S
C566 C565 1.524 . S
C567 C564 1.403 . S
C567 C568 1.392 . S
C567 C571 1.495 . S
C568 C567 1.392 . S
C568 C569 1.385 . S
C568 C570 1.478 . S
C569 H563 0.930 . S
C569 C565 1.400 . S
C569 C568 1.385 . S
C570 C568 1.478 . S
C570 C572 1.381 . S
C570 C576 1.383 . S
C571 C567 1.495 . S
C571 H577 0.959 . S
C571 H578 0.961 . S
C571 H579 0.960 . S
C572 C570 1.381 . S
C572 C573 1.394 . S
C572 H580 0.930 . S
C573 C572 1.394 . S
C573 C574 1.383 . S
C573 H581 0.929 . S
C574 C573 1.383 . S
C574 C575 1.377 . S
C575 H559 0.930 . S
C575 C574 1.377 . S
C575 C576 1.379 . S
C576 H560 0.931 . S
C576 C570 1.383 . S
C576 C575 1.379 . S
H577 C571 0.959 . S
H578 C571 0.961 . S
H579 C571 0.960 . S
H580 C572 0.930 . S
H581 C573 0.929 . S
H582 C590 0.929 . S
H583 C592 0.930 . S
H584 C594 0.930 . S
H585 C597 0.929 . S
H586 C600 0.930 . S
H587 C602 0.960 . S
H588 C602 0.960 . S
H589 C602 0.960 . S
C590 H582 0.929 . S
C590 C591 1.377 . S
C590 C592 1.384 . S
C591 C590 1.377 . S
C591 C597 1.390 . S
C592 H583 0.930 . S
C592 C590 1.384 . S
C592 C593 1.372 . S
C593 C592 1.372 . S
C593 C594 1.400 . S
C593 C598 1.490 . S
C594 H584 0.930 . S
C594 C593 1.400 . S
C594 C597 1.386 . S
H595 C611 0.930 . S
H596 C612 0.931 . S
C597 H585 0.929 . S
C597 C591 1.390 . S
C597 C594 1.386 . S
C598 C593 1.490 . S
C598 C600 1.395 . S
C598 C601 1.403 . S
H599 C605 0.930 . S
C600 H586 0.930 . S
C600 C598 1.395 . S
C600 C603 1.403 . S
C601 C598 1.403 . S
C601 C602 1.524 . S
C601 C605 1.400 . S
C602 H587 0.960 . S
C602 H588 0.960 . S
C602 H589 0.960 . S
C602 C601 1.524 . S
C603 C600 1.403 . S
C603 C604 1.392 . S
C603 C607 1.495 . S
C604 C603 1.392 . S
C604 C605 1.385 . S
C604 C606 1.478 . S
C605 H599 0.930 . S
C605 C601 1.400 . S
C605 C604 1.385 . S
C606 C604 1.478 . S
C606 C608 1.381 . S
C606 C612 1.383 . S
C607 C603 1.495 . S
C607 H613 0.959 . S
C607 H614 0.961 . S
C607 H615 0.960 . S
C608 C606 1.381 . S
C608 C609 1.394 . S
C608 H616 0.930 . S
C609 C608 1.394 . S
C609 C610 1.383 . S
C609 H617 0.929 . S
C610 C609 1.383 . S
C610 C611 1.377 . S
C611 H595 0.930 . S
C611 C610 1.377 . S
C611 C612 1.379 . S
C612 H596 0.931 . S
C612 C606 1.383 . S
C612 C611 1.379 . S
H613 C607 0.959 . S
H614 C607 0.961 . S
H615 C607 0.960 . S
H616 C608 0.930 . S
H617 C609 0.929 . S
H618 C626 0.929 . S
H619 C628 0.930 . S
H620 C630 0.930 . S
H621 C633 0.929 . S
H622 C636 0.930 . S
H623 C638 0.960 . S
H624 C638 0.960 . S
H625 C638 0.960 . S
C626 H618 0.929 . S
C626 C627 1.377 . S
C626 C628 1.384 . S
C627 C626 1.377 . S
C627 C633 1.390 . S
C628 H619 0.930 . S
C628 C626 1.384 . S
C628 C629 1.372 . S
C629 C628 1.372 . S
C629 C630 1.400 . S
C629 C634 1.490 . S
C630 H620 0.930 . S
C630 C629 1.400 . S
C630 C633 1.386 . S
H631 C647 0.930 . S
H632 C648 0.931 . S
C633 H621 0.929 . S
C633 C627 1.390 . S
C633 C630 1.386 . S
C634 C629 1.490 . S
C634 C636 1.395 . S
C634 C637 1.403 . S
H635 C641 0.930 . S
C636 H622 0.930 . S
C636 C634 1.395 . S
C636 C639 1.403 . S
C637 C634 1.403 . S
C637 C638 1.524 . S
C637 C641 1.400 . S
C638 H623 0.960 . S
C638 H624 0.960 . S
C638 H625 0.960 . S
C638 C637 1.524 . S
C639 C636 1.403 . S
C639 C640 1.392 . S
C639 C643 1.495 . S
C640 C639 1.392 . S
C640 C641 1.385 . S
C640 C642 1.478 . S
C641 H635 0.930 . S
C641 C637 1.400 . S
C641 C640 1.385 . S
C642 C640 1.478 . S
C642 C644 1.381 . S
C642 C648 1.383 . S
C643 C639 1.495 . S
C643 H649 0.959 . S
C643 H650 0.961 . S
C643 H651 0.960 . S
C644 C642 1.381 . S
C644 C645 1.394 . S
C644 H652 0.930 . S
C645 C644 1.394 . S
C645 C646 1.383 . S
C645 H653 0.929 . S
C646 C645 1.383 . S
C646 C647 1.377 . S
C647 H631 0.930 . S
C647 C646 1.377 . S
C647 C648 1.379 . S
C648 H632 0.931 . S
C648 C642 1.383 . S
C648 C647 1.379 . S
H649 C643 0.959 . S
H650 C643 0.961 . S
H651 C643 0.960 . S
H652 C644 0.930 . S
H653 C645 0.929 . S
H654 C662 0.929 . S
H655 C664 0.930 . S
H656 C666 0.930 . S
H657 C669 0.929 . S
H658 C672 0.930 . S
H659 C674 0.960 . S
H660 C674 0.960 . S
H661 C674 0.960 . S
C662 H654 0.929 . S
C662 C663 1.377 . S
C662 C664 1.384 . S
C663 C662 1.377 . S
C663 C669 1.390 . S
C664 H655 0.930 . S
C664 C662 1.384 . S
C664 C665 1.372 . S
C665 C664 1.372 . S
C665 C666 1.400 . S
C665 C670 1.490 . S
C666 H656 0.930 . S
C666 C665 1.400 . S
C666 C669 1.386 . S
H667 C683 0.930 . S
H668 C684 0.931 . S
C669 H657 0.929 . S
C669 C663 1.390 . S
C669 C666 1.386 . S
C670 C665 1.490 . S
C670 C672 1.395 . S
C670 C673 1.403 . S
H671 C677 0.930 . S
C672 H658 0.930 . S
C672 C670 1.395 . S
C672 C675 1.403 . S
C673 C670 1.403 . S
C673 C674 1.524 . S
C673 C677 1.400 . S
C674 H659 0.960 . S
C674 H660 0.960 . S
C674 H661 0.960 . S
C674 C673 1.524 . S
C675 C672 1.403 . S
C675 C676 1.392 . S
C675 C679 1.495 . S
C676 C675 1.392 . S
C676 C677 1.385 . S
C676 C678 1.478 . S
C677 H671 0.930 . S
C677 C673 1.400 . S
C677 C676 1.385 . S
C678 C676 1.478 . S
C678 C680 1.381 . S
C678 C684 1.383 . S
C679 C675 1.495 . S
C679 H685 0.959 . S
C679 H686 0.961 . S
C679 H687 0.960 . S
C680 C678 1.381 . S
C680 C681 1.394 . S
C680 H688 0.930 . S
C681 C680 1.394 . S
C681 C682 1.383 . S
C681 H689 0.929 . S
C682 C681 1.383 . S
C682 C683 1.377 . S
C683 H667 0.930 . S
C683 C682 1.377 . S
C683 C684 1.379 . S
C684 H668 0.931 . S
C684 C678 1.383 . S
C684 C683 1.379 . S
H685 C679 0.959 . S
H686 C679 0.961 . S
H687 C679 0.960 . S
H688 C680 0.930 . S
H689 C681 0.929 . S
H690 C698 0.929 . S
H691 C700 0.930 . S
H692 C702 0.930 . S
H693 C705 0.929 . S
H694 C708 0.930 . S
H695 C710 0.960 . S
H696 C710 0.960 . S
H697 C710 0.960 . S
C698 H690 0.929 . S
C698 C699 1.377 . S
C698 C700 1.384 . S
C699 C698 1.377 . S
C699 C705 1.390 . S
C700 H691 0.930 . S
C700 C698 1.384 . S
C700 C701 1.372 . S
C701 C700 1.372 . S
C701 C702 1.400 . S
C701 C706 1.490 . S
C702 H692 0.930 . S
C702 C701 1.400 . S
C702 C705 1.386 . S
H703 C719 0.930 . S
H704 C720 0.931 . S
C705 H693 0.929 . S
C705 C699 1.390 . S
C705 C702 1.386 . S
C706 C701 1.490 . S
C706 C708 1.395 . S
C706 C709 1.403 . S
H707 C713 0.930 . S
C708 H694 0.930 . S
C708 C706 1.395 . S
C708 C711 1.403 . S
C709 C706 1.403 . S
C709 C710 1.524 . S
C709 C713 1.400 . S
C710 H695 0.960 . S
C710 H696 0.960 . S
C710 H697 0.960 . S
C710 C709 1.524 . S
C711 C708 1.403 . S
C711 C712 1.392 . S
C711 C715 1.495 . S
C712 C711 1.392 . S
C712 C713 1.385 . S
C712 C714 1.478 . S
C713 H707 0.930 . S
C713 C709 1.400 . S
C713 C712 1.385 . S
C714 C712 1.478 . S
C714 C716 1.381 . S
C714 C720 1.383 . S
C715 C711 1.495 . S
C715 H721 0.959 . S
C715 H722 0.961 . S
C715 H723 0.960 . S
C716 C714 1.381 . S
C716 C717 1.394 . S
C716 H724 0.930 . S
C717 C716 1.394 . S
C717 C718 1.383 . S
C717 H725 0.929 . S
C718 C717 1.383 . S
C718 C719 1.377 . S
C719 H703 0.930 . S
C719 C718 1.377 . S
C719 C720 1.379 . S
C720 H704 0.931 . S
C720 C714 1.383 . S
C720 C719 1.379 . S
H721 C715 0.959 . S
H722 C715 0.961 . S
H723 C715 0.960 . S
H724 C716 0.930 . S
H725 C717 0.929 . S
H726 C734 0.929 . S
H727 C736 0.930 . S
H728 C738 0.930 . S
H729 C741 0.929 . S
H730 C744 0.930 . S
H731 C746 0.960 . S
H732 C746 0.960 . S
H733 C746 0.960 . S
C734 H726 0.929 . S
C734 C735 1.377 . S
C734 C736 1.384 . S
C735 C734 1.377 . S
C735 C741 1.390 . S
C736 H727 0.930 . S
C736 C734 1.384 . S
C736 C737 1.372 . S
C737 C736 1.372 . S
C737 C738 1.400 . S
C737 C742 1.490 . S
C738 H728 0.930 . S
C738 C737 1.400 . S
C738 C741 1.386 . S
H739 C755 0.930 . S
H740 C756 0.931 . S
C741 H729 0.929 . S
C741 C735 1.390 . S
C741 C738 1.386 . S
C742 C737 1.490 . S
C742 C744 1.395 . S
C742 C745 1.403 . S
H743 C749 0.930 . S
C744 H730 0.930 . S
C744 C742 1.395 . S
C744 C747 1.403 . S
C745 C742 1.403 . S
C745 C746 1.524 . S
C745 C749 1.400 . S
C746 H731 0.960 . S
C746 H732 0.960 . S
C746 H733 0.960 . S
C746 C745 1.524 . S
C747 C744 1.403 . S
C747 C748 1.392 . S
C747 C751 1.495 . S
C748 C747 1.392 . S
C748 C749 1.385 . S
C748 C750 1.478 . S
C749 H743 0.930 . S
C749 C745 1.400 . S
C749 C748 1.385 . S
C750 C748 1.478 . S
C750 C752 1.381 . S
C750 C756 1.383 . S
C751 C747 1.495 . S
C751 H757 0.959 . S
C751 H758 0.961 . S
C751 H759 0.960 . S
C752 C750 1.381 . S
C752 C753 1.394 . S
C752 H760 0.930 . S
C753 C752 1.394 . S
C753 C754 1.383 . S
C753 H761 0.929 . S
C754 C753 1.383 . S
C754 C755 1.377 . S
C755 H739 0.930 . S
C755 C754 1.377 . S
C755 C756 1.379 . S
C756 H740 0.931 . S
C756 C750 1.383 . S
C756 C755 1.379 . S
H757 C751 0.959 . S
H758 C751 0.961 . S
H759 C751 0.960 . S
H760 C752 0.930 . S
H761 C753 0.929 . S
H762 C770 0.929 . S
H763 C772 0.930 . S
H764 C774 0.930 . S
H765 C777 0.929 . S
H766 C780 0.930 . S
H767 C782 0.960 . S
H768 C782 0.960 . S
H769 C782 0.960 . S
C770 H762 0.929 . S
C770 C771 1.377 . S
C770 C772 1.384 . S
C771 C770 1.377 . S
C771 C777 1.390 . S
C772 H763 0.930 . S
C772 C770 1.384 . S
C772 C773 1.372 . S
C773 C772 1.372 . S
C773 C774 1.400 . S
C773 C778 1.490 . S
C774 H764 0.930 . S
C774 C773 1.400 . S
C774 C777 1.386 . S
H775 C791 0.930 . S
H776 C792 0.931 . S
C777 H765 0.929 . S
C777 C771 1.390 . S
C777 C774 1.386 . S
C778 C773 1.490 . S
C778 C780 1.395 . S
C778 C781 1.403 . S
H779 C785 0.930 . S
C780 H766 0.930 . S
C780 C778 1.395 . S
C780 C783 1.403 . S
C781 C778 1.403 . S
C781 C782 1.524 . S
C781 C785 1.400 . S
C782 H767 0.960 . S
C782 H768 0.960 . S
C782 H769 0.960 . S
C782 C781 1.524 . S
C783 C780 1.403 . S
C783 C784 1.392 . S
C783 C787 1.495 . S
C784 C783 1.392 . S
C784 C785 1.385 . S
C784 C786 1.478 . S
C785 H779 0.930 . S
C785 C781 1.400 . S
C785 C784 1.385 . S
C786 C784 1.478 . S
C786 C788 1.381 . S
C786 C792 1.383 . S
C787 C783 1.495 . S
C787 H793 0.959 . S
C787 H794 0.961 . S
C787 H795 0.960 . S
C788 C786 1.381 . S
C788 C789 1.394 . S
C788 H796 0.930 . S
C789 C788 1.394 . S
C789 C790 1.383 . S
C789 H797 0.929 . S
C790 C789 1.383 . S
C790 C791 1.377 . S
C791 H775 0.930 . S
C791 C790 1.377 . S
C791 C792 1.379 . S
C792 H776 0.931 . S
C792 C786 1.383 . S
C792 C791 1.379 . S
H793 C787 0.959 . S
H794 C787 0.961 . S
H795 C787 0.960 . S
H796 C788 0.930 . S
H797 C789 0.929 . S
H798 C806 0.929 . S
H799 C808 0.930 . S
H800 C810 0.930 . S
H801 C813 0.929 . S
H802 C816 0.930 . S
H803 C818 0.960 . S
H804 C818 0.960 . S
H805 C818 0.960 . S
C806 H798 0.929 . S
C806 C807 1.377 . S
C806 C808 1.384 . S
C807 C806 1.377 . S
C807 C813 1.390 . S
C808 H799 0.930 . S
C808 C806 1.384 . S
C808 C809 1.372 . S
C809 C808 1.372 . S
C809 C810 1.400 . S
C809 C814 1.490 . S
C810 H800 0.930 . S
C810 C809 1.400 . S
C810 C813 1.386 . S
H811 C827 0.930 . S
H812 C828 0.931 . S
C813 H801 0.929 . S
C813 C807 1.390 . S
C813 C810 1.386 . S
C814 C809 1.490 . S
C814 C816 1.395 . S
C814 C817 1.403 . S
H815 C821 0.930 . S
C816 H802 0.930 . S
C816 C814 1.395 . S
C816 C819 1.403 . S
C817 C814 1.403 . S
C817 C818 1.524 . S
C817 C821 1.400 . S
C818 H803 0.960 . S
C818 H804 0.960 . S
C818 H805 0.960 . S
C818 C817 1.524 . S
C819 C816 1.403 . S
C819 C820 1.392 . S
C819 C823 1.495 . S
C820 C819 1.392 . S
C820 C821 1.385 . S
C820 C822 1.478 . S
C821 H815 0.930 . S
C821 C817 1.400 . S
C821 C820 1.385 . S
C822 C820 1.478 . S
C822 C824 1.381 . S
C822 C828 1.383 . S
C823 C819 1.495 . S
C823 H829 0.959 . S
C823 H830 0.961 . S
C823 H831 0.960 . S
C824 C822 1.381 . S
C824 C825 1.394 . S
C824 H832 0.930 . S
C825 C824 1.394 . S
C825 C826 1.383 . S
C825 H833 0.929 . S
C826 C825 1.383 . S
C826 C827 1.377 . S
C827 H811 0.930 . S
C827 C826 1.377 . S
C827 C828 1.379 . S
C828 H812 0.931 . S
C828 C822 1.383 . S
C828 C827 1.379 . S
H829 C823 0.959 . S
H830 C823 0.961 . S
H831 C823 0.960 . S
H832 C824 0.930 . S
H833 C825 0.929 . S
H834 C842 0.929 . S
H835 C844 0.930 . S
H836 C846 0.930 . S
H837 C849 0.929 . S
H838 C852 0.930 . S
H839 C854 0.960 . S
H840 C854 0.960 . S
H841 C854 0.960 . S
C842 H834 0.929 . S
C842 C843 1.377 . S
C842 C844 1.384 . S
C843 C842 1.377 . S
C843 C849 1.390 . S
C844 H835 0.930 . S
C844 C842 1.384 . S
C844 C845 1.372 . S
C845 C844 1.372 . S
C845 C846 1.400 . S
C845 C850 1.490 . S
C846 H836 0.930 . S
C846 C845 1.400 . S
C846 C849 1.386 . S
H847 C863 0.930 . S
H848 C864 0.931 . S
C849 H837 0.929 . S
C849 C843 1.390 . S
C849 C846 1.386 . S
C850 C845 1.490 . S
C850 C852 1.395 . S
C850 C853 1.403 . S
H851 C857 0.930 . S
C852 H838 0.930 . S
C852 C850 1.395 . S
C852 C855 1.403 . S
C853 C850 1.403 . S
C853 C854 1.524 . S
C853 C857 1.400 . S
C854 H839 0.960 . S
C854 H840 0.960 . S
C854 H841 0.960 . S
C854 C853 1.524 . S
C855 C852 1.403 . S
C855 C856 1.392 . S
C855 C859 1.495 . S
C856 C855 1.392 . S
C856 C857 1.385 . S
C856 C858 1.478 . S
C857 H851 0.930 . S
C857 C853 1.400 . S
C857 C856 1.385 . S
C858 C856 1.478 . S
C858 C860 1.381 . S
C858 C864 1.383 . S
C859 C855 1.495 . S
C859 H865 0.959 . S
C859 H866 0.961 . S
C859 H867 0.960 . S
C860 C858 1.381 . S
C860 C861 1.394 . S
C860 H868 0.930 . S
C861 C860 1.394 . S
C861 C862 1.383 . S
C861 H869 0.929 . S
C862 C861 1.383 . S
C862 C863 1.377 . S
C863 H847 0.930 . S
C863 C862 1.377 . S
C863 C864 1.379 . S
C864 H848 0.931 . S
C864 C858 1.383 . S
C864 C863 1.379 . S
H865 C859 0.959 . S
H866 C859 0.961 . S
H867 C859 0.960 . S
H868 C860 0.930 . S
H869 C861 0.929 . S
H870 C878 0.929 . S
H871 C880 0.930 . S
H872 C882 0.930 . S
H873 C885 0.929 . S
H874 C888 0.930 . S
H875 C890 0.960 . S
H876 C890 0.960 . S
H877 C890 0.960 . S
C878 H870 0.929 . S
C878 C879 1.377 . S
C878 C880 1.384 . S
C879 C878 1.377 . S
C879 C885 1.390 . S
C880 H871 0.930 . S
C880 C878 1.384 . S
C880 C881 1.372 . S
C881 C880 1.372 . S
C881 C882 1.400 . S
C881 C886 1.490 . S
C882 H872 0.930 . S
C882 C881 1.400 . S
C882 C885 1.386 . S
H883 C899 0.930 . S
H884 C900 0.931 . S
C885 H873 0.929 . S
C885 C879 1.390 . S
C885 C882 1.386 . S
C886 C881 1.490 . S
C886 C888 1.395 . S
C886 C889 1.403 . S
H887 C893 0.930 . S
C888 H874 0.930 . S
C888 C886 1.395 . S
C888 C891 1.403 . S
C889 C886 1.403 . S
C889 C890 1.524 . S
C889 C893 1.400 . S
C890 H875 0.960 . S
C890 H876 0.960 . S
C890 H877 0.960 . S
C890 C889 1.524 . S
C891 C888 1.403 . S
C891 C892 1.392 . S
C891 C895 1.495 . S
C892 C891 1.392 . S
C892 C893 1.385 . S
C892 C894 1.478 . S
C893 H887 0.930 . S
C893 C889 1.400 . S
C893 C892 1.385 . S
C894 C892 1.478 . S
C894 C896 1.381 . S
C894 C900 1.383 . S
C895 C891 1.495 . S
C895 H901 0.959 . S
C895 H902 0.961 . S
C895 H903 0.960 . S
C896 C894 1.381 . S
C896 C897 1.394 . S
C896 H904 0.930 . S
C897 C896 1.394 . S
C897 C898 1.383 . S
C897 H905 0.929 . S
C898 C897 1.383 . S
C898 C899 1.377 . S
C899 H883 0.930 . S
C899 C898 1.377 . S
C899 C900 1.379 . S
C900 H884 0.931 . S
C900 C894 1.383 . S
C900 C899 1.379 . S
H901 C895 0.959 . S
H902 C895 0.961 . S
H903 C895 0.960 . S
H904 C896 0.930 . S
H905 C897 0.929 . S
H906 C914 0.929 . S
H907 C916 0.930 . S
H908 C918 0.930 . S
H909 C921 0.929 . S
H910 C924 0.930 . S
H911 C926 0.960 . S
H912 C926 0.960 . S
H913 C926 0.960 . S
C914 H906 0.929 . S
C914 C915 1.377 . S
C914 C916 1.384 . S
C915 C914 1.377 . S
C915 C921 1.390 . S
C916 H907 0.930 . S
C916 C914 1.384 . S
C916 C917 1.372 . S
C917 C916 1.372 . S
C917 C918 1.400 . S
C917 C922 1.490 . S
C918 H908 0.930 . S
C918 C917 1.400 . S
C918 C921 1.386 . S
H919 C935 0.930 . S
H920 C936 0.931 . S
C921 H909 0.929 . S
C921 C915 1.390 . S
C921 C918 1.386 . S
C922 C917 1.490 . S
C922 C924 1.395 . S
C922 C925 1.403 . S
H923 C929 0.930 . S
C924 H910 0.930 . S
C924 C922 1.395 . S
C924 C927 1.403 . S
C925 C922 1.403 . S
C925 C926 1.524 . S
C925 C929 1.400 . S
C926 H911 0.960 . S
C926 H912 0.960 . S
C926 H913 0.960 . S
C926 C925 1.524 . S
C927 C924 1.403 . S
C927 C928 1.392 . S
C927 C931 1.495 . S
C928 C927 1.392 . S
C928 C929 1.385 . S
C928 C930 1.478 . S
C929 H923 0.930 . S
C929 C925 1.400 . S
C929 C928 1.385 . S
C930 C928 1.478 . S
C930 C932 1.381 . S
C930 C936 1.383 . S
C931 C927 1.495 . S
C931 H937 0.959 . S
C931 H938 0.961 . S
C931 H939 0.960 . S
C932 C930 1.381 . S
C932 C933 1.394 . S
C932 H940 0.930 . S
C933 C932 1.394 . S
C933 C934 1.383 . S
C933 H941 0.929 . S
C934 C933 1.383 . S
C934 C935 1.377 . S
C935 H919 0.930 . S
C935 C934 1.377 . S
C935 C936 1.379 . S
C936 H920 0.931 . S
C936 C930 1.383 . S
C936 C935 1.379 . S
H937 C931 0.959 . S
H938 C931 0.961 . S
H939 C931 0.960 . S
H940 C932 0.930 . S
H941 C933 0.929 . S
H942 C950 0.929 . S
H943 C952 0.930 . S
H944 C954 0.930 . S
H945 C957 0.929 . S
H946 C960 0.930 . S
H947 C962 0.960 . S
H948 C962 0.960 . S
H949 C962 0.960 . S
C950 H942 0.929 . S
C950 C951 1.377 . S
C950 C952 1.384 . S
C951 C950 1.377 . S
C951 C957 1.390 . S
C952 H943 0.930 . S
C952 C950 1.384 . S
C952 C953 1.372 . S
C953 C952 1.372 . S
C953 C954 1.400 . S
C953 C958 1.490 . S
C954 H944 0.930 . S
C954 C953 1.400 . S
C954 C957 1.386 . S
H955 C971 0.930 . S
H956 C972 0.931 . S
C957 H945 0.929 . S
C957 C951 1.390 . S
C957 C954 1.386 . S
C958 C953 1.490 . S
C958 C960 1.395 . S
C958 C961 1.403 . S
H959 C965 0.930 . S
C960 H946 0.930 . S
C960 C958 1.395 . S
C960 C963 1.403 . S
C961 C958 1.403 . S
C961 C962 1.524 . S
C961 C965 1.400 . S
C962 H947 0.960 . S
C962 H948 0.960 . S
C962 H949 0.960 . S
C962 C961 1.524 . S
C963 C960 1.403 . S
C963 C964 1.392 . S
C963 C967 1.495 . S
C964 C963 1.392 . S
C964 C965 1.385 . S
C964 C966 1.478 . S
C965 H959 0.930 . S
C965 C961 1.400 . S
C965 C964 1.385 . S
C966 C964 1.478 . S
C966 C968 1.381 . S
C966 C972 1.383 . S
C967 C963 1.495 . S
C967 H973 0.959 . S
C967 H974 0.961 . S
C967 H975 0.960 . S
C968 C966 1.381 . S
C968 C969 1.394 . S
C968 H976 0.930 . S
C969 C968 1.394 . S
C969 C970 1.383 . S
C969 H977 0.929 . S
C970 C969 1.383 . S
C970 C971 1.377 . S
C971 H955 0.930 . S
C971 C970 1.377 . S
C971 C972 1.379 . S
C972 H956 0.931 . S
C972 C966 1.383 . S
C972 C971 1.379 . S
H973 C967 0.959 . S
H974 C967 0.961 . S
H975 C967 0.960 . S
H976 C968 0.930 . S
H977 C969 0.929 . S
H978 C986 0.929 . S
H979 C988 0.930 . S
H980 C990 0.930 . S
H981 C993 0.929 . S
H982 C996 0.930 . S
H983 C998 0.960 . S
H984 C998 0.960 . S
H985 C998 0.960 . S
C986 H978 0.929 . S
C986 C987 1.377 . S
C986 C988 1.384 . S
C987 C986 1.377 . S
C987 C993 1.390 . S
C988 H979 0.930 . S
C988 C986 1.384 . S
C988 C989 1.372 . S
C989 C988 1.372 . S
C989 C990 1.400 . S
C989 C994 1.490 . S
C990 H980 0.930 . S
C990 C989 1.400 . S
C990 C993 1.386 . S
H991 C1007 0.930 . S
H992 C1008 0.931 . S
C993 H981 0.929 . S
C993 C987 1.390 . S
C993 C990 1.386 . S
C994 C989 1.490 . S
C994 C996 1.395 . S
C994 C997 1.403 . S
H995 C1001 0.930 . S
C996 H982 0.930 . S
C996 C994 1.395 . S
C996 C999 1.403 . S
C997 C994 1.403 . S
C997 C998 1.524 . S
C997 C1001 1.400 . S
C998 H983 0.960 . S
C998 H984 0.960 . S
C998 H985 0.960 . S
C998 C997 1.524 . S
C999 C996 1.403 . S
C999 C1000 1.392 . S
C999 C1003 1.495 . S
C1000 C999 1.392 . S
C1000 C1001 1.385 . S
C1000 C1002 1.478 . S
C1001 H995 0.930 . S
C1001 C997 1.400 . S
C1001 C1000 1.385 . S
C1002 C1000 1.478 . S
C1002 C1004 1.381 . S
C1002 C1008 1.383 . S
C1003 C999 1.495 . S
C1003 H1009 0.959 . S
C1003 H1010 0.961 . S
C1003 H1011 0.960 . S
C1004 C1002 1.381 . S
C1004 C1005 1.394 . S
C1004 H1012 0.930 . S
C1005 C1004 1.394 . S
C1005 C1006 1.383 . S
C1005 H1013 0.929 . S
C1006 C1005 1.383 . S
C1006 C1007 1.377 . S
C1007 H991 0.930 . S
C1007 C1006 1.377 . S
C1007 C1008 1.379 . S
C1008 H992 0.931 . S
C1008 C1002 1.383 . S
C1008 C1007 1.379 . S
H1009 C1003 0.959 . S
H1010 C1003 0.961 . S
H1011 C1003 0.960 . S
H1012 C1004 0.930 . S
H1013 C1005 0.929 . S
H1014 C1022 0.929 . S
H1015 C1024 0.930 . S
H1016 C1026 0.930 . S
H1017 C1029 0.929 . S
H1018 C1032 0.930 . S
H1019 C1034 0.960 . S
H1020 C1034 0.960 . S
H1021 C1034 0.960 . S
C1022 H1014 0.929 . S
C1022 C1023 1.377 . S
C1022 C1024 1.384 . S
C1023 C1022 1.377 . S
C1023 C1029 1.390 . S
C1024 H1015 0.930 . S
C1024 C1022 1.384 . S
C1024 C1025 1.372 . S
C1025 C1024 1.372 . S
C1025 C1026 1.400 . S
C1025 C1030 1.490 . S
C1026 H1016 0.930 . S
C1026 C1025 1.400 . S
C1026 C1029 1.386 . S
H1027 C1043 0.930 . S
H1028 C1044 0.931 . S
C1029 H1017 0.929 . S
C1029 C1023 1.390 . S
C1029 C1026 1.386 . S
C1030 C1025 1.490 . S
C1030 C1032 1.395 . S
C1030 C1033 1.403 . S
H1031 C1037 0.930 . S
C1032 H1018 0.930 . S
C1032 C1030 1.395 . S
C1032 C1035 1.403 . S
C1033 C1030 1.403 . S
C1033 C1034 1.524 . S
C1033 C1037 1.400 . S
C1034 H1019 0.960 . S
C1034 H1020 0.960 . S
C1034 H1021 0.960 . S
C1034 C1033 1.524 . S
C1035 C1032 1.403 . S
C1035 C1036 1.392 . S
C1035 C1039 1.495 . S
C1036 C1035 1.392 . S
C1036 C1037 1.385 . S
C1036 C1038 1.478 . S
C1037 H1031 0.930 . S
C1037 C1033 1.400 . S
C1037 C1036 1.385 . S
C1038 C1036 1.478 . S
C1038 C1040 1.381 . S
C1038 C1044 1.383 . S
C1039 C1035 1.495 . S
C1039 H1045 0.959 . S
C1039 H1046 0.961 . S
C1039 H1047 0.960 . S
C1040 C1038 1.381 . S
C1040 C1041 1.394 . S
C1040 H1048 0.930 . S
C1041 C1040 1.394 . S
C1041 C1042 1.383 . S
C1041 H1049 0.929 . S
C1042 C1041 1.383 . S
C1042 C1043 1.377 . S
C1043 H1027 0.930 . S
C1043 C1042 1.377 . S
C1043 C1044 1.379 . S
C1044 H1028 0.931 . S
C1044 C1038 1.383 . S
C1044 C1043 1.379 . S
H1045 C1039 0.959 . S
H1046 C1039 0.961 . S
H1047 C1039 0.960 . S
H1048 C1040 0.930 . S
H1049 C1041 0.929 . S
H1050 C1058 0.929 . S
H1051 C1060 0.930 . S
H1052 C1062 0.930 . S
H1053 C1065 0.929 . S
H1054 C1068 0.930 . S
H1055 C1070 0.960 . S
H1056 C1070 0.960 . S
H1057 C1070 0.960 . S
C1058 H1050 0.929 . S
C1058 C1059 1.377 . S
C1058 C1060 1.384 . S
C1059 C1058 1.377 . S
C1059 C1065 1.390 . S
C1060 H1051 0.930 . S
C1060 C1058 1.384 . S
C1060 C1061 1.372 . S
C1061 C1060 1.372 . S
C1061 C1062 1.400 . S
C1061 C1066 1.490 . S
C1062 H1052 0.930 . S
C1062 C1061 1.400 . S
C1062 C1065 1.386 . S
H1063 C1079 0.930 . S
H1064 C1080 0.931 . S
C1065 H1053 0.929 . S
C1065 C1059 1.390 . S
C1065 C1062 1.386 . S
C1066 C1061 1.490 . S
C1066 C1068 1.395 . S
C1066 C1069 1.403 . S
H1067 C1073 0.930 . S
C1068 H1054 0.930 . S
C1068 C1066 1.395 . S
C1068 C1071 1.403 . S
C1069 C1066 1.403 . S
C1069 C1070 1.524 . S
C1069 C1073 1.400 . S
C1070 H1055 0.960 . S
C1070 H1056 0.960 . S
C1070 H1057 0.960 . S
C1070 C1069 1.524 . S
C1071 C1068 1.403 . S
C1071 C1072 1.392 . S
C1071 C1075 1.495 . S
C1072 C1071 1.392 . S
C1072 C1073 1.385 . S
C1072 C1074 1.478 . S
C1073 H1067 0.930 . S
C1073 C1069 1.400 . S
C1073 C1072 1.385 . S
C1074 C1072 1.478 . S
C1074 C1076 1.381 . S
C1074 C1080 1.383 . S
C1075 C1071 1.495 . S
C1075 H1081 0.959 . S
C1075 H1082 0.961 . S
C1075 H1083 0.960 . S
C1076 C1074 1.381 . S
C1076 C1077 1.394 . S
C1076 H1084 0.930 . S
C1077 C1076 1.394 . S
C1077 C1078 1.383 . S
C1077 H1085 0.929 . S
C1078 C1077 1.383 . S
C1078 C1079 1.377 . S
C1079 H1063 0.930 . S
C1079 C1078 1.377 . S
C1079 C1080 1.379 . S
C1080 H1064 0.931 . S
C1080 C1074 1.383 . S
C1080 C1079 1.379 . S
H1081 C1075 0.959 . S
H1082 C1075 0.961 . S
H1083 C1075 0.960 . S
H1084 C1076 0.930 . S
H1085 C1077 0.929 . S
C231 C13 2.076 . S
C250 C91 2.028 . S
C267 C27 1.418 . S
C286 N109 1.410 . S
C322 C137 2.055 . S
C303 C29 2.077 . S
C358 N155 1.410 . S
C339 C54 1.417 . S
C394 C183 2.036 . S
C375 C69 2.076 . S
C430 N201 1.400 . S
C411 C83 1.417 . S
C447 C15 2.070 . S
C466 C146 2.054 . S
C483 C41 1.422 . S
C502 N165 1.380 . S
C538 C192 2.068 . S
C519 C42 2.071 . S
C574 N211 1.369 . S
C555 C57 1.421 . S
C591 C71 2.072 . S
C610 C100 2.067 . S
C646 N119 1.374 . S
C627 C1 1.422 . S
C682 C169 1.884 . S
C663 C12 1.945 . S
C699 C26 1.282 . S
C718 N188 1.255 . S
C754 C215 1.867 . S
C735 C28 1.945 . S
C771 C55 1.282 . S
C790 N96 1.269 . S
C807 C68 1.944 . S
C826 C123 1.882 . S
C843 C82 1.283 . S
C862 N142 1.262 . S
C879 C14 1.956 . S
C898 C206 1.925 . S
C934 N86 1.192 . S
C915 C40 1.279 . S
C951 C43 1.954 . S
C970 C114 1.918 . S
C987 C56 1.280 . S
C1006 N132 1.197 . S
C1023 C70 1.954 . S
C1042 C160 1.937 . S
C1059 C0 1.283 . S
C1078 N178 1.188 . S
