# Generated by pormake.
# Topology nia, (6,6)-cn, num edge types: 1
# Building blocks:
#     Node 0, Type 0, BuildingBlock: KUMBOL_clean_sbu_0, # of connection points: 6
#     Node 1, Type 0, BuildingBlock: KUMBOL_clean_sbu_0, # of connection points: 6
#     Node 2, Type 1, BuildingBlock: MIDCAF_clean_sbu_0, # of connection points: 6
#     Node 3, Type 1, BuildingBlock: MIDCAF_clean_sbu_0, # of connection points: 6
#     Edge 4, Type (0, 1), BuildingBlock: ZUJKAS_clean_linker_0, # of connection points: 2
#     Edge 5, Type (0, 1), BuildingBlock: ZUJKAS_clean_linker_0, # of connection points: 2
#     Edge 6, Type (0, 1), BuildingBlock: ZUJKAS_clean_linker_0, # of connection points: 2
#     Edge 7, Type (0, 1), BuildingBlock: ZUJKAS_clean_linker_0, # of connection points: 2
#     Edge 8, Type (0, 1), BuildingBlock: ZUJKAS_clean_linker_0, # of connection points: 2
#     Edge 9, Type (0, 1), BuildingBlock: ZUJKAS_clean_linker_0, # of connection points: 2
#     Edge 10, Type (0, 1), BuildingBlock: ZUJKAS_clean_linker_0, # of connection points: 2
#     Edge 11, Type (0, 1), BuildingBlock: ZUJKAS_clean_linker_0, # of connection points: 2
#     Edge 12, Type (0, 1), BuildingBlock: ZUJKAS_clean_linker_0, # of connection points: 2
#     Edge 13, Type (0, 1), BuildingBlock: ZUJKAS_clean_linker_0, # of connection points: 2
#     Edge 14, Type (0, 1), BuildingBlock: ZUJKAS_clean_linker_0, # of connection points: 2
#     Edge 15, Type (0, 1), BuildingBlock: ZUJKAS_clean_linker_0, # of connection points: 2
# Relax obj value: 0.166
# Max RMSD: 0.278
# Mean RMSD: 0.202
data_MOF--net-nia--node1-KUMBOL_clean_sbu_0--node2-MIDCAF_clean_sbu_0--edge1-ZUJKAS_clean_linker_0
_symmetry_space_group_name_H-M    P1
_symmetry_Int_Tables_number       1
_symmetry_cell_setting            triclinic
loop_
_symmetry_equiv_pos_as_xyz
'x, y, z'
_cell_length_a     35.36944
_cell_length_b     35.100939
_cell_length_c     41.756372
_cell_angle_alpha  89.939738
_cell_angle_beta   90.097432
_cell_angle_gamma 137.55423
loop_
_atom_site_label
_atom_site_type_symbol
_atom_site_fract_x
_atom_site_fract_y
_atom_site_fract_z
_atom_type_partial_charge
Gd0 Gd 0.9932 0.03818 0.97152 0.0
Gd1 Gd 0.01214 0.98086 0.0359 0.0
C2 C 0.9007 0.89245 0.12379 0.0
C3 C 0.96543 0.95778 0.16635 0.0
C4 C 0.99742 0.97965 0.11104 0.0
C5 C 0.94364 0.92962 0.101 0.0
C6 C 0.00885 0.99352 0.14391 0.0
C7 C 0.91166 0.90729 0.15635 0.0
C8 C 0.8484 0.84045 0.11336 0.0
C9 C 0.84026 0.82577 0.08111 0.0
N10 N 0.93421 0.91542 0.06939 0.0
C11 C 0.88411 0.86354 0.0594 0.0
H12 H 0.8771 0.85112 0.03466 0.0
C13 C 0.09374 0.05825 0.09845 0.0
N14 N 0.03921 0.01309 0.089 0.0
C15 C 0.10677 0.07387 0.13068 0.0
C16 C 0.06407 0.04182 0.15347 0.0
H17 H 0.12699 0.08341 0.08098 0.0
H18 H 0.87907 0.87933 0.17412 0.0
H19 H 0.12902 0.16539 0.97554 0.0
H20 H 0.81442 0.81079 0.13015 0.0
H21 H 0.80026 0.78522 0.07295 0.0
H22 H 0.97342 0.96796 0.19165 0.0
H23 H 0.88307 0.94028 0.92413 0.0
H24 H 0.20079 0.20701 0.88239 0.0
H25 H 0.21029 0.23076 0.93965 0.0
H26 H 0.04453 0.05493 0.81694 0.0
H27 H 0.14976 0.11053 0.13794 0.0
H28 H 0.07441 0.0538 0.17848 0.0
H29 H 0.13874 0.14094 0.83682 0.0
H30 H 0.86354 0.91401 0.86671 0.0
N31 N 0.07381 0.10369 0.93935 0.0
C32 C 0.16481 0.17797 0.89806 0.0
C33 C 0.17033 0.19154 0.93036 0.0
C34 C 0.11257 0.12779 0.88621 0.0
C35 C 0.06713 0.09127 0.90767 0.0
C36 C 0.12401 0.15411 0.95069 0.0
N37 N 0.97118 0.00982 0.91761 0.0
C38 C 0.01423 0.04284 0.89647 0.0
C39 C 0.90613 0.95017 0.87477 0.0
C40 C 0.95035 0.98213 0.85291 0.0
C41 C 0.91725 0.96513 0.90717 0.0
C42 C 0.00512 0.02956 0.86355 0.0
H43 H 0.94163 0.97053 0.82781 0.0
O44 O 0.93697 0.0411 0.95447 0.0
O45 O 0.96239 0.99248 0.01758 0.0
O46 O 0.95167 0.91412 0.9976 0.0
O47 O 0.97325 0.96541 0.95169 0.0
O48 O 0.90189 0.96728 0.98725 0.0
O49 O 0.01536 0.114 0.97769 0.0
O50 O 0.06395 0.97117 0.02172 0.0
O51 O 0.04213 0.02528 0.98941 0.0
O52 O 0.04954 0.10294 0.01126 0.0
O53 O 0.03348 0.05383 0.05687 0.0
O54 O 0.10308 0.0583 0.02291 0.0
O55 O 0.00258 0.91793 0.05863 0.0
C56 C 0.91053 0.95884 0.01504 0.0
C57 C 0.05059 0.06468 0.84227 0.0
C58 C 0.10422 0.11367 0.85359 0.0
C59 C 0.97359 0.09509 0.96019 0.0
C60 C 0.98827 0.1312 0.93291 0.0
C61 C 0.04379 0.17415 0.92175 0.0
C62 C 0.94707 0.12283 0.9175 0.0
C63 C 0.96149 0.15691 0.89119 0.0
C64 C 0.05768 0.20621 0.89508 0.0
C65 C 0.01691 0.19754 0.87975 0.0
C66 C 0.9516 0.91904 0.96601 0.0
C67 C 0.09433 0.06221 0.9936 0.0
C68 C 0.04696 0.93702 0.04503 0.0
C69 C 0.09086 0.95465 0.06674 0.0
C70 C 0.1429 0.01205 0.06912 0.0
C71 C 0.08038 0.91508 0.0865 0.0
C72 C 0.12086 0.93331 0.109 0.0
C73 C 0.18261 0.03001 0.09156 0.0
C74 C 0.17159 0.99101 0.11157 0.0
C75 C 0.05234 0.09898 0.04264 0.0
H76 H 0.07691 0.18344 0.93361 0.0
H77 H 0.90449 0.091 0.92648 0.0
H78 H 0.10043 0.23839 0.88645 0.0
H79 H 0.02901 0.22326 0.85907 0.0
H80 H 0.15301 0.04351 0.05392 0.0
H81 H 0.04091 0.87061 0.08465 0.0
H82 H 0.22218 0.07435 0.09336 0.0
H83 H 0.20338 0.00574 0.12855 0.0
Gd84 Gd 0.00465 0.97645 0.46925 0.0
Gd85 Gd 0.00798 0.04492 0.53905 0.0
C86 C 0.13085 0.11973 0.62149 0.0
C87 C 0.06866 0.05822 0.66573 0.0
C88 C 0.03066 0.04174 0.61256 0.0
C89 C 0.08425 0.08696 0.60072 0.0
C90 C 0.02221 0.0274 0.6453 0.0
C91 C 0.12283 0.10446 0.65389 0.0
C92 C 0.18387 0.16804 0.60934 0.0
C93 C 0.18921 0.18359 0.5775 0.0
N94 N 0.09054 0.10133 0.56941 0.0
C95 C 0.14175 0.14999 0.55787 0.0
H96 H 0.14641 0.16263 0.53336 0.0
C97 C 0.93287 0.97339 0.60381 0.0
N98 N 0.98658 0.01365 0.59241 0.0
C99 C 0.92238 0.95711 0.63597 0.0
C100 C 0.96724 0.9838 0.65674 0.0
H101 H 0.89818 0.9529 0.58774 0.0
H102 H 0.15813 0.12897 0.67017 0.0
H103 H 0.86577 0.8594 0.47703 0.0
H104 H 0.2207 0.1943 0.6245 0.0
H105 H 0.22989 0.22146 0.56804 0.0
H106 H 0.06304 0.04769 0.69092 0.0
H107 H 0.11105 0.06036 0.41815 0.0
H108 H 0.78774 0.82309 0.38675 0.0
H109 H 0.781 0.79942 0.44369 0.0
H110 H 0.94259 0.96416 0.31731 0.0
H111 H 0.87978 0.92421 0.64473 0.0
H112 H 0.95903 0.97147 0.68172 0.0
H113 H 0.84838 0.88521 0.33977 0.0
H114 H 0.12726 0.08511 0.36057 0.0
N115 N 0.92054 0.91866 0.43989 0.0
C116 C 0.82525 0.85015 0.40138 0.0
C117 C 0.8213 0.83653 0.43348 0.0
C118 C 0.87776 0.89748 0.38828 0.0
C119 C 0.92529 0.93128 0.40837 0.0
C120 C 0.86967 0.87088 0.45235 0.0
N121 N 0.02308 0.0035 0.41513 0.0
C122 C 0.97827 0.97525 0.39562 0.0
C123 C 0.08516 0.05446 0.37014 0.0
C124 C 0.03971 0.02829 0.35005 0.0
C125 C 0.07589 0.04045 0.40265 0.0
C126 C 0.98533 0.98706 0.36253 0.0
H127 H 0.04689 0.03865 0.32478 0.0
O128 O 0.05624 0.9666 0.45494 0.0
O129 O 0.04281 0.01907 0.51603 0.0
O130 O 0.06392 0.10824 0.49875 0.0
O131 O 0.03995 0.05817 0.45134 0.0
O132 O 0.09665 0.03819 0.48198 0.0
O133 O 0.96876 0.89298 0.4666 0.0
O134 O 0.95844 0.05597 0.55635 0.0
O135 O 0.97049 0.00337 0.49197 0.0
O136 O 0.94779 0.91361 0.50978 0.0
O137 O 0.97926 0.9664 0.55666 0.0
O138 O 0.91626 0.98379 0.52591 0.0
O139 O 0.04442 0.12854 0.54114 0.0
C140 C 0.0929 0.04685 0.5112 0.0
C141 C 0.93804 0.95553 0.34275 0.0
C142 C 0.88437 0.9106 0.35556 0.0
C143 C 0.01372 0.91173 0.45373 0.0
C144 C 0.00633 0.88574 0.42305 0.0
C145 C 0.96245 0.86295 0.40222 0.0
C146 C 0.04502 0.88643 0.41353 0.0
C147 C 0.04093 0.86611 0.38299 0.0
C148 C 0.95922 0.84478 0.37173 0.0
C149 C -0.00153 0.84705 0.36196 0.0
C150 C 0.06486 0.10472 0.46711 0.0
C151 C 0.92049 0.97602 0.49657 0.0
C152 C 0.00114 0.11097 0.55586 0.0
C153 C 0.0127 0.14037 0.58601 0.0
C154 C 0.05969 0.16601 0.60472 0.0
C155 C 0.9762 0.14208 0.59669 0.0
C156 C 0.98605 0.16819 0.62614 0.0
C157 C 0.06851 0.18985 0.63425 0.0
C158 C 0.03179 0.19047 0.64509 0.0
C159 C 0.95122 0.91853 0.54149 0.0
H160 H 0.9307 0.85944 0.40929 0.0
H161 H 0.07754 0.90207 0.43015 0.0
H162 H 0.92608 0.82882 0.35558 0.0
H163 H 0.99512 0.83348 0.33786 0.0
H164 H 0.08993 0.16792 0.59666 0.0
H165 H 0.94106 0.12414 0.58175 0.0
H166 H 0.10422 0.20827 0.64873 0.0
H167 H 0.03962 0.20884 0.66834 0.0
Zn168 Zn 0.37197 0.71296 0.19572 0.0
Zn169 Zn 0.36411 0.69075 0.31705 0.0
Zn170 Zn 0.36974 0.70015 0.25751 0.0
C171 C 0.47179 0.74872 0.30105 0.0
C172 C 0.28699 0.58258 0.2966 0.0
O173 O 0.33024 0.72719 0.24525 0.0
O174 O 0.33533 0.73533 0.19242 0.0
C175 C 0.48187 0.78079 0.21352 0.0
O176 O 0.45609 0.75168 0.27418 0.0
O177 O 0.43701 0.71893 0.32354 0.0
O178 O 0.29598 0.60877 0.3214 0.0
O179 O 0.31367 0.60987 0.27049 0.0
O180 O 0.45402 0.77116 0.18955 0.0
O181 O 0.45742 0.75707 0.24064 0.0
O182 O 0.3179 0.61565 0.23664 0.0
O183 O 0.32493 0.63308 0.18477 0.0
C184 C 0.30614 0.5988 0.2073 0.0
O185 O 0.34343 0.73698 0.27821 0.0
O186 O 0.3587 0.74049 0.32994 0.0
C187 C 0.31942 0.737 0.21883 0.0
C188 C 0.3456 0.75226 0.30693 0.0
Zn189 Zn 0.65331 0.3256 0.81633 0.0
Zn190 Zn 0.63266 0.30536 0.6914 0.0
Zn191 Zn 0.63856 0.31808 0.7543 0.0
C192 C 0.70705 0.42131 0.70504 0.0
C193 C 0.52567 0.24625 0.71318 0.0
O194 O 0.66836 0.28284 0.77111 0.0
O195 O 0.68223 0.29565 0.8235 0.0
C196 C 0.71648 0.43408 0.79524 0.0
O197 O 0.69156 0.40311 0.73407 0.0
O198 O 0.68953 0.38771 0.68232 0.0
O199 O 0.5525 0.259 0.6879 0.0
O200 O 0.55014 0.26363 0.7407 0.0
O201 O 0.7064 0.40766 0.82026 0.0
O202 O 0.69477 0.40808 0.76817 0.0
O203 O 0.55473 0.26729 0.77445 0.0
O204 O 0.57331 0.27547 0.82617 0.0
C205 C 0.53864 0.25595 0.80389 0.0
O206 O 0.67014 0.28457 0.73743 0.0
O207 O 0.65427 0.26782 0.68533 0.0
C208 C 0.68266 0.27736 0.79775 0.0
C209 C 0.67243 0.26708 0.71104 0.0
H210 H 0.1163 0.92529 0.17401 0.0
H211 H 0.12785 0.87609 0.20648 0.0
H212 H 0.12614 0.80676 0.12046 0.0
H213 H 0.11181 0.85367 0.08826 0.0
H214 H 0.07962 0.73386 0.17 0.0
H215 H 0.28313 0.94833 0.208 0.0
H216 H 0.222 0.929 0.21982 0.0
H217 H 0.23947 0.9379 0.17806 0.0
C218 C 0.11648 0.8979 0.16228 0.0
C219 C 0.11333 0.89316 0.12874 0.0
C220 C 0.12369 0.87036 0.18075 0.0
C221 C 0.12966 0.83918 0.16584 0.0
C222 C 0.12196 0.83082 0.13252 0.0
H223 H 0.34099 0.81292 0.18049 0.0
H224 H 0.28847 0.83308 0.17555 0.0
C225 C 0.11362 0.85745 0.11411 0.0
C226 C 0.15025 0.82073 0.18391 0.0
H227 H 0.26633 0.87268 0.22225 0.0
C228 C 0.12 0.76398 0.18194 0.0
C229 C 0.20313 0.86021 0.19946 0.0
C230 C 0.23913 0.92231 0.20133 0.0
C231 C 0.14263 0.74634 0.19328 0.0
C232 C 0.19647 0.78639 0.20744 0.0
C233 C 0.22495 0.84216 0.21146 0.0
C234 C 0.22839 0.77439 0.2125 0.0
C235 C 0.11063 0.68602 0.18803 0.0
C236 C 0.21233 0.73497 0.23522 0.0
C237 C 0.24252 0.72323 0.23804 0.0
C238 C 0.28917 0.75113 0.21832 0.0
C239 C 0.30529 0.79094 0.19602 0.0
C240 C 0.27543 0.80262 0.19327 0.0
H241 H 0.07172 0.6616 0.1739 0.0
H242 H 0.13728 0.68477 0.17535 0.0
H243 H 0.09898 0.66493 0.21154 0.0
H244 H 0.17652 0.71323 0.25056 0.0
H245 H 0.22915 0.69208 0.25527 0.0
H246 H 0.20646 0.13021 0.50926 0.0
H247 H 0.27106 0.15445 0.55046 0.0
H248 H 0.13051 0.01698 0.60913 0.0
H249 H 0.06631 0.99311 0.56824 0.0
H250 H 0.21043 0.11382 0.64385 0.0
H251 H 0.30759 0.07178 0.57157 0.0
H252 H 0.31221 0.12102 0.55267 0.0
H253 H 0.24465 0.04935 0.55912 0.0
C254 C 0.18957 0.10526 0.53096 0.0
C255 C 0.1315 0.06099 0.53603 0.0
C256 C 0.22637 0.11885 0.55438 0.0
C257 C 0.2056 0.08727 0.58282 0.0
C258 C 0.1475 0.0421 0.58749 0.0
H259 H 0.43731 0.13383 0.7038 0.0
H260 H 0.34894 0.08635 0.67805 0.0
C261 C 0.11079 0.02873 0.56417 0.0
C262 C 0.24446 0.10187 0.60789 0.0
H263 H 0.35427 0.12309 0.62018 0.0
C264 C 0.24165 0.11554 0.63876 0.0
C265 C 0.28431 0.10271 0.60149 0.0
C266 C 0.28709 0.08486 0.56952 0.0
C267 C 0.2792 0.13242 0.66301 0.0
C268 C 0.32098 0.13618 0.65606 0.0
C269 C 0.32235 0.1204 0.62554 0.0
C270 C 0.36615 0.1597 0.67905 0.0
C271 C 0.27377 0.14609 0.69575 0.0
C272 C 0.40388 0.2158 0.68961 0.0
C273 C 0.45391 0.24256 0.70472 0.0
C274 C 0.46683 0.2136 0.70948 0.0
C275 C 0.42738 0.1564 0.70112 0.0
C276 C 0.37725 0.12953 0.68614 0.0
H277 H 0.23034 0.1239 0.70017 0.0
H278 H 0.28563 0.13446 0.7149 0.0
H279 H 0.30202 0.19214 0.69731 0.0
H280 H 0.397 0.24039 0.6838 0.0
H281 H 0.48462 0.28721 0.71011 0.0
H282 H 0.04487 0.10043 0.10776 0.0
H283 H 0.08561 0.18018 0.14159 0.0
H284 H 0.15509 0.28659 0.05812 0.0
H285 H 0.11566 0.20732 0.02402 0.0
H286 H 0.23105 0.33572 0.10994 0.0
H287 H 0.02816 0.2478 0.14818 0.0
H288 H 0.03539 0.2028 0.15473 0.0
H289 H 0.03382 0.21994 0.11457 0.0
C290 C 0.06933 0.14089 0.09654 0.0
C291 C 0.07734 0.14753 0.06313 0.0
C292 C 0.09206 0.18629 0.11594 0.0
C293 C 0.1228 0.23909 0.10233 0.0
C294 C 0.13132 0.24607 0.06907 0.0
H295 H 0.22279 0.53416 0.16354 0.0
H296 H 0.17592 0.44261 0.14248 0.0
C297 C 0.10861 0.20068 0.04962 0.0
C298 C 0.14642 0.28729 0.12268 0.0
H299 H 0.11022 0.33493 0.17096 0.0
C300 C 0.20474 0.33549 0.12347 0.0
C301 C 0.11182 0.28681 0.14015 0.0
C302 C 0.04878 0.23683 0.13929 0.0
C303 C 0.22946 0.38365 0.14091 0.0
C304 C 0.19489 0.38324 0.15835 0.0
C305 C 0.13658 0.33476 0.1579 0.0
C306 C 0.21819 0.43477 0.17435 0.0
C307 C 0.2922 0.43537 0.1395 0.0
C308 C 0.25625 0.45989 0.19992 0.0
C309 C 0.28306 0.5123 0.21199 0.0
C310 C 0.27172 0.53985 0.19885 0.0
C311 C 0.23189 0.51346 0.17422 0.0
C312 C 0.20509 0.46122 0.16222 0.0
H313 H 0.31159 0.4321 0.12044 0.0
H314 H 0.30312 0.4738 0.1351 0.0
H315 H 0.31081 0.4407 0.16279 0.0
H316 H 0.26674 0.44 0.20971 0.0
H317 H 0.31514 0.53288 0.23006 0.0
H318 H 0.87196 0.09358 0.61839 0.0
H319 H 0.81534 0.10583 0.63585 0.0
H320 H 0.96185 0.26618 0.67811 0.0
H321 H 0.01917 0.25669 0.65873 0.0
H322 H 0.79155 0.1169 0.69387 0.0
H323 H 0.90712 0.31147 0.62428 0.0
H324 H 0.91761 0.26894 0.61827 0.0
H325 H 0.95299 0.31969 0.6504 0.0
C326 C 0.89236 0.13195 0.63086 0.0
C327 C 0.95038 0.17414 0.63698 0.0
C328 C 0.85977 0.13859 0.64115 0.0
C329 C 0.88451 0.18743 0.6578 0.0
C330 C 0.94198 0.22879 0.66462 0.0
H331 H 0.77035 0.31699 0.73865 0.0
H332 H 0.81915 0.29245 0.7302 0.0
C333 C 0.97462 0.22271 0.65393 0.0
C334 C 0.8507 0.19567 0.66808 0.0
H335 H 0.84597 0.28933 0.66481 0.0
C336 C 0.80328 0.15445 0.68736 0.0
C337 C 0.86569 0.2445 0.65941 0.0
C338 C 0.91325 0.28831 0.63667 0.0
C339 C 0.77122 0.16137 0.69871 0.0
C340 C 0.78731 0.21091 0.69074 0.0
C341 C 0.83446 0.2519 0.67141 0.0
C342 C 0.75414 0.22003 0.70025 0.0
C343 C 0.72042 0.11559 0.71904 0.0
C344 C 0.70124 0.18694 0.68659 0.0
C345 C 0.67365 0.20109 0.69122 0.0
C346 C 0.69822 0.24812 0.70991 0.0
C347 C 0.75025 0.28004 0.72455 0.0
C348 C 0.7781 0.26615 0.71968 0.0
H349 H 0.72392 0.09028 0.73145 0.0
H350 H 0.71397 0.13339 0.73719 0.0
H351 H 0.6828 0.08681 0.70341 0.0
H352 H 0.68249 0.15177 0.67111 0.0
H353 H 0.63373 0.17615 0.67949 0.0
H354 H 0.93634 0.01132 0.07228 0.0
H355 H 0.87136 0.98445 0.11349 0.0
H356 H 0.73354 0.83399 0.05996 0.0
H357 H 0.7986 0.86308 0.01766 0.0
H358 H 0.70727 0.88079 0.07574 0.0
H359 H 0.79275 0.87947 0.18621 0.0
H360 H 0.84455 0.94577 0.16569 0.0
H361 H 0.81532 0.88242 0.1468 0.0
C362 C 0.89236 0.9719 0.06968 0.0
C363 C 0.8725 0.93866 0.04206 0.0
C364 C 0.8551 0.95626 0.09346 0.0
C365 C 0.7973 0.90643 0.09042 0.0
C366 C 0.77783 0.87255 0.06307 0.0
H367 H 0.53142 0.75 0.22805 0.0
H368 H 0.61467 0.78612 0.20126 0.0
C369 C 0.81492 0.889 0.03892 0.0
C370 C 0.75649 0.89258 0.11371 0.0
H371 H 0.72606 0.87994 0.1934 0.0
C372 C 0.71135 0.88016 0.10143 0.0
C373 C 0.76117 0.8914 0.14738 0.0
C374 C 0.80579 0.89997 0.16233 0.0
C375 C 0.67107 0.86661 0.12155 0.0
C376 C 0.67729 0.86814 0.15522 0.0
C377 C 0.722 0.88002 0.16765 0.0
C378 C 0.63601 0.85489 0.17747 0.0
C379 C 0.62128 0.84907 0.10628 0.0
C380 C 0.62296 0.88409 0.17501 0.0
C381 C 0.57498 0.86285 0.18972 0.0
C382 C 0.54056 0.81339 0.20813 0.0
C383 C 0.55761 0.78845 0.2141 0.0
C384 C 0.60496 0.80889 0.19864 0.0
H385 H 0.6145 0.83422 0.08128 0.0
H386 H 0.58234 0.81475 0.12008 0.0
H387 H 0.62883 0.88586 0.1055 0.0
H388 H 0.64747 0.92086 0.15974 0.0
H389 H 0.56263 0.88282 0.18488 0.0
H390 H 0.87847 0.80811 0.52245 0.0
H391 H 0.83963 0.72782 0.55535 0.0
H392 H 0.92689 0.83653 0.63797 0.0
H393 H 0.96722 0.91693 0.6053 0.0
H394 H 0.93985 0.76948 0.63163 0.0
H395 H 0.71532 0.64141 0.62195 0.0
H396 H 0.74914 0.661 0.58386 0.0
H397 H 0.77089 0.71476 0.61034 0.0
C398 C 0.8891 0.81486 0.54766 0.0
C399 C 0.9253 0.86892 0.56128 0.0
C400 C 0.86656 0.76885 0.56649 0.0
C401 C 0.87957 0.776 0.59926 0.0
C402 C 0.91586 0.82991 0.61282 0.0
H403 H 0.69761 0.48688 0.72706 0.0
H404 H 0.74565 0.57938 0.70647 0.0
C405 C 0.9385 0.87582 0.59407 0.0
C406 C 0.85719 0.72789 0.61926 0.0
H407 H 0.73584 0.5956 0.64409 0.0
C408 C 0.89523 0.73161 0.63455 0.0
C409 C 0.79902 0.67896 0.62356 0.0
C410 C 0.75617 0.67383 0.60934 0.0
C411 C 0.87664 0.68694 0.65316 0.0
C412 C 0.81849 0.6369 0.65611 0.0
C413 C 0.78045 0.6339 0.64169 0.0
C414 C 0.79606 0.58579 0.67225 0.0
C415 C 0.91945 0.69379 0.66952 0.0
C416 C 0.8092 0.55928 0.66035 0.0
C417 C 0.78256 0.50716 0.67254 0.0
C418 C 0.74235 0.48061 0.6969 0.0
C419 C 0.73038 0.50782 0.70948 0.0
C420 C 0.75705 0.56007 0.69727 0.0
H421 H 0.95957 0.73903 0.67335 0.0
H422 H 0.90387 0.67183 0.69301 0.0
H423 H 0.92826 0.67526 0.65418 0.0
H424 H 0.83807 0.57754 0.64054 0.0
H425 H 0.79176 0.48649 0.66204 0.0
H426 H 0.01697 0.78756 0.3438 0.0
H427 H 0.07775 0.78101 0.32783 0.0
H428 H 0.21106 0.92613 0.38582 0.0
H429 H 0.15208 0.93683 0.39959 0.0
H430 H 0.25246 0.92756 0.33172 0.0
H431 H 0.10674 0.71458 0.38511 0.0
H432 H 0.07291 0.71689 0.35453 0.0
H433 H 0.09789 0.75855 0.39038 0.0
C434 C 0.05958 0.81928 0.35266 0.0
C435 C 0.07914 0.8628 0.37319 0.0
C436 C 0.0941 0.8147 0.34388 0.0
C437 C 0.14846 0.85199 0.35634 0.0
C438 C 0.16898 0.8964 0.37617 0.0
H439 H 0.30401 0.74709 0.3632 0.0
H440 H 0.2655 0.78082 0.3751 0.0
C441 C 0.13479 0.90194 0.3844 0.0
C442 C 0.18272 0.84303 0.34948 0.0
H443 H 0.17793 0.74246 0.35151 0.0
C444 C 0.23654 0.88731 0.33634 0.0
C445 C 0.16228 0.79075 0.35589 0.0
C446 C 0.10707 0.74277 0.37257 0.0
C447 C 0.27023 0.88054 0.32921 0.0
C448 C 0.24868 0.82738 0.33439 0.0
C449 C 0.19475 0.78327 0.34743 0.0
C450 C 0.28111 0.81601 0.32797 0.0
C451 C 0.32888 0.93085 0.31704 0.0
C452 C 0.30569 0.82697 0.29797 0.0
C453 C 0.33011 0.80958 0.29159 0.0
C454 C 0.32755 0.77827 0.31433 0.0
C455 C 0.30564 0.77004 0.34479 0.0
C456 C 0.28319 0.78906 0.35158 0.0
H457 H 0.34477 0.97114 0.32428 0.0
H458 H 0.35836 0.93077 0.32605 0.0
H459 H 0.32861 0.92968 0.29048 0.0
H460 H 0.30442 0.84717 0.27911 0.0
H461 H 0.34993 0.81959 0.26869 0.0
H462 H 0.06876 0.01305 0.93496 0.0
H463 H 0.13325 0.04066 0.89327 0.0
H464 H 0.27323 0.17403 0.95391 0.0
H465 H 0.20821 0.14814 0.99533 0.0
H466 H 0.2893 0.2083 0.89146 0.0
H467 H 0.21819 0.00478 0.89641 0.0
H468 H 0.16395 0.99819 0.88739 0.0
H469 H 0.19767 0.02425 0.92592 0.0
C470 C 0.11317 0.04882 0.9393 0.0
C471 C 0.13349 0.07932 0.96815 0.0
C472 C 0.15006 0.06413 0.91553 0.0
C473 C 0.20805 0.10894 0.92059 0.0
C474 C 0.22856 0.13935 0.94947 0.0
H475 H 0.48344 0.19046 0.85635 0.0
H476 H 0.39621 0.15011 0.87808 0.0
C477 C 0.19154 0.12444 0.97315 0.0
C478 C 0.24748 0.12322 0.89629 0.0
H479 H 0.288 0.07153 0.85875 0.0
C480 C 0.28889 0.17837 0.88406 0.0
C481 C 0.24658 0.08389 0.88668 0.0
C482 C 0.20457 0.02462 0.89994 0.0
C483 C 0.33097 0.19606 0.86356 0.0
C484 C 0.33073 0.15702 0.85445 0.0
C485 C 0.28773 0.10116 0.86551 0.0
C486 C 0.37936 0.17538 0.83821 0.0
C487 C 0.37711 0.25717 0.85339 0.0
C488 C 0.39799 0.20123 0.80789 0.0
C489 C 0.44853 0.22485 0.7954 0.0
C490 C 0.48061 0.22244 0.81302 0.0
C491 C 0.4598 0.1933 0.84231 0.0
C492 C 0.4098 0.17004 0.85473 0.0
H493 H 0.37599 0.28362 0.86684 0.0
H494 H 0.41879 0.27478 0.85703 0.0
H495 H 0.37245 0.2603 0.82754 0.0
H496 H 0.3746 0.20492 0.79445 0.0
H497 H 0.46405 0.2478 0.77305 0.0
H498 H 0.05647 0.1746 0.47748 0.0
H499 H 0.08823 0.2497 0.44225 0.0
H500 H 0.16172 0.22167 0.3785 0.0
H501 H 0.12979 0.14658 0.4136 0.0
H502 H 0.19125 0.34712 0.42333 0.0
H503 H 0.06696 0.21231 0.3168 0.0
H504 H 0.05525 0.18333 0.35596 0.0
H505 H 0.11203 0.20876 0.33145 0.0
C506 C 0.07986 0.18489 0.45609 0.0
C507 C 0.08991 0.15418 0.44791 0.0
C508 C 0.0976 0.22745 0.43587 0.0
C509 C 0.12591 0.24018 0.40724 0.0
C510 C 0.13812 0.21117 0.39982 0.0
H511 H 0.31735 0.53214 0.28549 0.0
H512 H 0.27143 0.44119 0.30729 0.0
C513 C 0.11994 0.1683 0.41989 0.0
C514 C 0.14405 0.28497 0.38571 0.0
H515 H 0.13449 0.3118 0.30902 0.0
C516 C 0.17859 0.33925 0.3984 0.0
C517 C 0.12731 0.27458 0.35316 0.0
C518 C 0.08791 0.21648 0.33857 0.0
C519 C 0.19746 0.38356 0.37937 0.0
C520 C 0.18137 0.37335 0.34683 0.0
C521 C 0.1468 0.31925 0.33399 0.0
C522 C 0.20049 0.41925 0.3263 0.0
C523 C 0.2347 0.44129 0.39407 0.0
C524 C 0.17428 0.4354 0.32854 0.0
C525 C 0.2 0.48681 0.31564 0.0
C526 C 0.25194 0.52239 0.30011 0.0
C527 C 0.27603 0.50419 0.29587 0.0
C528 C 0.25026 0.45269 0.30875 0.0
H529 H 0.24691 0.44329 0.41906 0.0
H530 H 0.27326 0.4735 0.37952 0.0
H531 H 0.21242 0.45248 0.39416 0.0
H532 H 0.13613 0.41027 0.3423 0.0
H533 H 0.18139 0.50068 0.31983 0.0
H534 H 0.85039 0.06142 0.876 0.0
H535 H 0.78536 0.05753 0.8494 0.0
H536 H 0.9155 0.23939 0.84627 0.0
H537 H 0.97961 0.24369 0.87303 0.0
H538 H 0.75191 0.10579 0.87023 0.0
H539 H 0.85903 0.19609 0.75347 0.0
H540 H 0.87069 0.16556 0.78081 0.0
H541 H 0.9076 0.23736 0.78597 0.0
C542 C 0.86491 0.10046 0.86967 0.0
C543 C 0.92046 0.15286 0.87617 0.0
C544 C 0.82795 0.09817 0.85426 0.0
C545 C 0.84623 0.14817 0.84494 0.0
C546 C 0.9011 0.20026 0.85216 0.0
H547 H 0.77359 0.31758 0.82825 0.0
H548 H 0.80248 0.27252 0.83379 0.0
C549 C 0.9377 0.20261 0.86758 0.0
C550 C 0.80789 0.14761 0.82983 0.0
H551 H 0.8067 0.2135 0.77033 0.0
C552 C 0.76243 0.12738 0.84777 0.0
C553 C 0.82138 0.17543 0.80037 0.0
C554 C 0.867 0.19428 0.77888 0.0
C555 C 0.73383 0.13933 0.83858 0.0
C556 C 0.75139 0.17233 0.81098 0.0
C557 C 0.79351 0.1883 0.79157 0.0
C558 C 0.73408 0.19926 0.80551 0.0
C559 C 0.6881 0.12083 0.85976 0.0
C560 C 0.68629 0.17292 0.78749 0.0
C561 C 0.66995 0.19892 0.78407 0.0
C562 C 0.70124 0.25126 0.79875 0.0
C563 C 0.74907 0.27738 0.81659 0.0
C564 C 0.76558 0.25179 0.81972 0.0
H565 H 0.67454 0.0897 0.87807 0.0
H566 H 0.70354 0.15821 0.87221 0.0
H567 H 0.65131 0.10188 0.84507 0.0
H568 H 0.66127 0.13208 0.77662 0.0
H569 H 0.6324 0.17774 0.77061 0.0
H570 H 0.94832 0.0273 0.43829 0.0
H571 H 0.8846 0.00449 0.39714 0.0
H572 H 0.74366 0.87526 0.45833 0.0
H573 H 0.80739 0.89771 0.49945 0.0
H574 H 0.7965 0.89883 0.36644 0.0
H575 H 0.71743 0.9671 0.43042 0.0
H576 H 0.78065 0.98947 0.44227 0.0
H577 H 0.71321 0.92106 0.45378 0.0
C578 C 0.90376 0.9938 0.44286 0.0
C579 C 0.88254 0.96302 0.47164 0.0
C580 C 0.86744 0.98113 0.41943 0.0
C581 C 0.80944 0.93851 0.42475 0.0
C582 C 0.78835 0.90885 0.45389 0.0
H583 H 0.50632 0.70943 0.32914 0.0
H584 H 0.59877 0.76531 0.35186 0.0
C585 C 0.82465 0.92141 0.47726 0.0
C586 C 0.77046 0.92297 0.39943 0.0
H587 H 0.66233 0.90419 0.38588 0.0
C588 C 0.76774 0.90071 0.37049 0.0
C589 C 0.73366 0.9266 0.40442 0.0
C590 C 0.73662 0.95288 0.43427 0.0
C591 C 0.72646 0.87809 0.34747 0.0
C592 C 0.68742 0.87838 0.35345 0.0
C593 C 0.69245 0.90409 0.38137 0.0
C594 C 0.63632 0.84499 0.33374 0.0
C595 C 0.72329 0.85195 0.31749 0.0
C596 C 0.62749 0.87119 0.31503 0.0
C597 C 0.57473 0.83897 0.30135 0.0
C598 C 0.53016 0.78063 0.30712 0.0
C599 C 0.54018 0.75436 0.3243 0.0
C600 C 0.59289 0.78619 0.33729 0.0
H601 H 0.763 0.86584 0.31304 0.0
H602 H 0.68904 0.80531 0.32004 0.0
H603 H 0.71359 0.86287 0.29638 0.0
H604 H 0.66055 0.91665 0.31225 0.0
H605 H 0.56769 0.86011 0.28846 0.0
H606 H 0.95979 0.91959 0.90095 0.0
H607 H 0.91988 0.84179 0.86599 0.0
H608 H 0.85446 0.73343 0.94817 0.0
H609 H 0.89168 0.81073 0.98348 0.0
H610 H 0.94101 0.78474 0.86074 0.0
H611 H 0.71749 0.63561 0.89268 0.0
H612 H 0.77041 0.70851 0.90516 0.0
H613 H 0.76019 0.65719 0.927 0.0
C614 C 0.93568 0.87893 0.91171 0.0
C615 C 0.92766 0.87117 0.94509 0.0
C616 C 0.91339 0.83451 0.89159 0.0
C617 C 0.88309 0.78128 0.90428 0.0
C618 C 0.87621 0.77361 0.93768 0.0
H619 H 0.81946 0.51579 0.8214 0.0
H620 H 0.86323 0.6058 0.84275 0.0
C621 C 0.89796 0.81802 0.95789 0.0
C622 C 0.86044 0.73465 0.8825 0.0
H623 H 0.74135 0.59753 0.86301 0.0
C624 C 0.89721 0.74395 0.86105 0.0
C625 C 0.80307 0.68182 0.88225 0.0
C626 C 0.7604 0.67031 0.90276 0.0
C627 C 0.87861 0.70138 0.8402 0.0
C628 C 0.822 0.64743 0.84144 0.0
C629 C 0.78486 0.63873 0.86211 0.0
C630 C 0.80102 0.59818 0.82341 0.0
C631 C 0.91983 0.7149 0.81695 0.0
C632 C 0.75158 0.56378 0.80514 0.0
C633 C 0.72619 0.51186 0.79321 0.0
C634 C 0.75026 0.49395 0.79897 0.0
C635 C 0.80108 0.52958 0.81581 0.0
C636 C 0.82618 0.58112 0.82797 0.0
H637 H 0.95332 0.76048 0.81068 0.0
H638 H 0.94025 0.70504 0.82826 0.0
H639 H 0.89889 0.68989 0.79456 0.0
H640 H 0.73094 0.57562 0.80167 0.0
H641 H 0.68551 0.48381 0.78187 0.0
loop_
_geom_bond_atom_site_label_1
_geom_bond_atom_site_label_2
_geom_bond_distance
_geom_bond_site_symmetry_2
_ccdc_geom_bond_type
Gd0 N31 2.661 1_655 S
Gd0 N37 2.601 . S
Gd0 O44 2.544 1_545 S
Gd0 O45 2.606 1_546 S
Gd0 O47 2.429 1_545 S
Gd0 O48 2.545 1_545 S
Gd0 O49 2.412 . S
Gd0 O51 2.362 1_655 S
Gd0 O52 2.324 1_656 S
Gd0 C59 2.828 . S
Gd1 N10 2.661 1_455 S
Gd1 N14 2.601 . S
Gd1 O45 2.362 1_455 S
Gd1 O46 2.324 1_454 S
Gd1 O50 2.545 1_565 S
Gd1 O51 2.606 1_564 S
Gd1 O53 2.429 1_565 S
Gd1 O54 2.545 1_565 S
Gd1 O55 2.412 . S
Gd1 C68 2.828 . S
C2 C5 1.417 . S
C2 C7 1.431 . S
C2 C8 1.412 . S
C3 C6 1.437 . S
C3 C7 1.317 . S
C3 H22 0.929 . S
C4 C5 1.426 . S
C4 C6 1.413 . S
C4 N14 1.359 1_655 S
C5 C2 1.417 . S
C5 C4 1.426 . S
C5 N10 1.350 . S
C6 C3 1.437 . S
C6 C4 1.413 . S
C6 C16 1.391 1_665 S
C7 C2 1.431 . S
C7 C3 1.317 . S
C7 H18 0.930 . S
C8 C2 1.412 . S
C8 C9 1.355 . S
C8 H20 0.930 . S
C9 C8 1.355 . S
C9 C11 1.402 . S
C9 H21 0.930 . S
N10 Gd1 2.661 1_655 S
N10 C5 1.350 . S
N10 C11 1.307 . S
C11 C9 1.402 . S
C11 N10 1.307 . S
C11 H12 0.930 . S
H12 C11 0.930 . S
C13 N14 1.334 1_545 S
C13 C15 1.394 . S
C13 H17 0.930 . S
N14 Gd1 2.601 . S
N14 C4 1.359 1_455 S
N14 C13 1.334 1_565 S
C15 C13 1.394 . S
C15 C16 1.359 . S
C15 H27 0.930 . S
C16 C6 1.391 1_445 S
C16 C15 1.359 . S
C16 H28 0.929 . S
H17 C13 0.930 . S
H18 C7 0.930 . S
H19 C36 0.930 . S
H20 C8 0.930 . S
H21 C9 0.930 . S
H22 C3 0.929 . S
H23 C41 0.930 . S
H24 C32 0.930 . S
H25 C33 0.930 . S
H26 C57 0.929 . S
H27 C15 0.930 . S
H28 C16 0.929 . S
H29 C58 0.930 . S
H30 C39 0.930 . S
N31 Gd0 2.661 1_455 S
N31 C35 1.350 . S
N31 C36 1.307 . S
C32 H24 0.930 . S
C32 C33 1.355 . S
C32 C34 1.412 . S
C33 H25 0.930 . S
C33 C32 1.355 . S
C33 C36 1.402 . S
C34 C32 1.412 . S
C34 C35 1.417 . S
C34 C58 1.431 . S
C35 N31 1.350 . S
C35 C34 1.417 . S
C35 C38 1.426 . S
C36 H19 0.930 . S
C36 N31 1.307 . S
C36 C33 1.402 . S
N37 Gd0 2.601 . S
N37 C38 1.359 1_655 S
N37 C41 1.334 1_545 S
C38 C35 1.426 . S
C38 N37 1.359 1_455 S
C38 C42 1.413 . S
C39 H30 0.930 . S
C39 C40 1.359 1_565 S
C39 C41 1.394 . S
C40 C39 1.359 1_545 S
C40 C42 1.391 1_655 S
C40 H43 0.929 . S
C41 H23 0.930 . S
C41 N37 1.334 1_565 S
C41 C39 1.394 . S
C42 C38 1.413 . S
C42 C40 1.391 1_455 S
C42 C57 1.437 . S
H43 C40 0.929 . S
O44 Gd0 2.544 1_565 S
O44 C59 1.260 1_565 S
O45 Gd0 2.606 1_564 S
O45 Gd1 2.362 1_655 S
O45 C56 1.284 . S
O46 Gd1 2.324 1_656 S
O46 C66 1.254 . S
O47 Gd0 2.429 1_565 S
O47 C66 1.268 . S
O48 Gd0 2.545 1_565 S
O48 C56 1.250 1_556 S
O49 Gd0 2.412 . S
O49 C59 1.252 . S
O50 Gd1 2.545 1_545 S
O50 C68 1.258 1_545 S
O51 Gd0 2.362 1_455 S
O51 Gd1 2.606 1_546 S
O51 C67 1.284 . S
O52 Gd0 2.324 1_454 S
O52 C75 1.254 . S
O53 Gd1 2.429 1_545 S
O53 C75 1.268 . S
O54 Gd1 2.545 1_545 S
O54 C67 1.250 1_554 S
O55 Gd1 2.412 . S
O55 C68 1.252 . S
C56 O45 1.284 . S
C56 O48 1.250 1_554 S
C57 H26 0.929 . S
C57 C42 1.437 . S
C57 C58 1.317 . S
C58 H29 0.930 . S
C58 C34 1.431 . S
C58 C57 1.317 . S
C59 Gd0 2.828 . S
C59 O44 1.260 1_545 S
C59 O49 1.252 . S
C59 C60 1.497 . S
C60 C59 1.497 . S
C60 C61 1.395 . S
C60 C62 1.380 . S
C61 C60 1.395 . S
C61 C64 1.398 . S
C61 H76 0.930 . S
C62 C60 1.380 . S
C62 C63 1.391 . S
C62 H77 0.930 . S
C63 C62 1.391 . S
C63 C65 1.387 . S
C64 C61 1.398 . S
C64 C65 1.380 . S
C64 H78 0.930 . S
C65 C63 1.387 . S
C65 C64 1.380 . S
C65 H79 0.930 . S
C66 O46 1.254 . S
C66 O47 1.268 . S
C67 O51 1.284 . S
C67 O54 1.250 1_556 S
C68 Gd1 2.828 . S
C68 O50 1.258 1_565 S
C68 O55 1.252 . S
C68 C69 1.497 . S
C69 C68 1.497 . S
C69 C70 1.395 . S
C69 C71 1.380 . S
C70 C69 1.395 . S
C70 C73 1.398 . S
C70 H80 0.930 . S
C71 C69 1.380 . S
C71 C72 1.391 . S
C71 H81 0.930 . S
C72 C71 1.391 . S
C72 C74 1.387 . S
C73 C70 1.398 . S
C73 C74 1.380 . S
C73 H82 0.930 . S
C74 C72 1.387 . S
C74 C73 1.380 . S
C74 H83 0.930 . S
C75 O52 1.254 . S
C75 O53 1.268 . S
H76 C61 0.930 . S
H77 C62 0.930 . S
H78 C64 0.930 . S
H79 C65 0.930 . S
H80 C70 0.930 . S
H81 C71 0.930 . S
H82 C73 0.930 . S
H83 C74 0.930 . S
Gd84 N115 2.662 1_455 S
Gd84 N121 2.600 1_565 S
Gd84 O128 2.548 1_565 S
Gd84 O129 2.604 1_565 S
Gd84 O131 2.423 1_565 S
Gd84 O132 2.546 1_565 S
Gd84 O133 2.419 . S
Gd84 O135 2.357 1_455 S
Gd84 O136 2.327 1_455 S
Gd84 C143 2.833 . S
Gd85 N94 2.661 1_655 S
Gd85 N98 2.601 1_655 S
Gd85 O129 2.362 1_655 S
Gd85 O130 2.324 1_655 S
Gd85 O134 2.545 . S
Gd85 O135 2.606 1_545 S
Gd85 O137 2.429 1_545 S
Gd85 O138 2.545 1_545 S
Gd85 O139 2.412 . S
Gd85 C152 2.828 . S
C86 C89 1.417 . S
C86 C91 1.431 . S
C86 C92 1.412 . S
C87 C90 1.437 . S
C87 C91 1.317 . S
C87 H106 0.929 . S
C88 C89 1.426 . S
C88 C90 1.413 . S
C88 N98 1.359 . S
C89 C86 1.417 . S
C89 C88 1.426 . S
C89 N94 1.350 . S
C90 C87 1.437 . S
C90 C88 1.413 . S
C90 C100 1.391 . S
C91 C86 1.431 . S
C91 C87 1.317 . S
C91 H102 0.930 . S
C92 C86 1.412 . S
C92 C93 1.355 . S
C92 H104 0.930 . S
C93 C92 1.355 . S
C93 C95 1.402 . S
C93 H105 0.930 . S
N94 Gd85 2.661 1_455 S
N94 C89 1.350 . S
N94 C95 1.307 . S
C95 C93 1.402 . S
C95 N94 1.307 . S
C95 H96 0.930 . S
H96 C95 0.930 . S
C97 N98 1.334 1_665 S
C97 C99 1.394 . S
C97 H101 0.930 . S
N98 Gd85 2.601 1_455 S
N98 C88 1.359 . S
N98 C97 1.334 1_445 S
C99 C97 1.394 . S
C99 C100 1.359 1_665 S
C99 H111 0.930 . S
C100 C90 1.391 . S
C100 C99 1.359 1_445 S
C100 H112 0.929 . S
H101 C97 0.930 . S
H102 C91 0.930 . S
H103 C120 0.930 . S
H104 C92 0.930 . S
H105 C93 0.930 . S
H106 C87 0.929 . S
H107 C125 0.930 . S
H108 C116 0.930 . S
H109 C117 0.930 . S
H110 C141 0.929 . S
H111 C99 0.930 . S
H112 C100 0.929 . S
H113 C142 0.930 . S
H114 C123 0.930 . S
N115 Gd84 2.662 1_655 S
N115 C119 1.350 . S
N115 C120 1.307 . S
C116 H108 0.930 . S
C116 C117 1.355 . S
C116 C118 1.412 . S
C117 H109 0.930 . S
C117 C116 1.355 . S
C117 C120 1.402 . S
C118 C116 1.412 . S
C118 C119 1.417 . S
C118 C142 1.431 . S
C119 N115 1.350 . S
C119 C118 1.417 . S
C119 C122 1.426 . S
C120 H103 0.930 . S
C120 N115 1.307 . S
C120 C117 1.402 . S
N121 Gd84 2.600 1_545 S
N121 C122 1.359 1_445 S
N121 C125 1.334 . S
C122 C119 1.426 . S
C122 N121 1.359 1_665 S
C122 C126 1.413 . S
C123 H114 0.930 . S
C123 C124 1.359 . S
C123 C125 1.394 . S
C124 C123 1.359 . S
C124 C126 1.391 1_445 S
C124 H127 0.929 . S
C125 H107 0.930 . S
C125 N121 1.334 . S
C125 C123 1.394 . S
C126 C122 1.413 . S
C126 C124 1.391 1_665 S
C126 C141 1.437 . S
H127 C124 0.929 . S
O128 Gd84 2.548 1_545 S
O128 C143 1.258 1_545 S
O129 Gd84 2.604 1_545 S
O129 Gd85 2.362 1_455 S
O129 C140 1.284 . S
O130 Gd85 2.324 1_455 S
O130 C150 1.254 . S
O131 Gd84 2.423 1_545 S
O131 C150 1.268 . S
O132 Gd84 2.546 1_545 S
O132 C140 1.250 . S
O133 Gd84 2.419 . S
O133 C143 1.252 . S
O134 Gd85 2.545 . S
O134 C152 1.258 . S
O135 Gd84 2.357 1_655 S
O135 Gd85 2.606 1_565 S
O135 C151 1.284 . S
O136 Gd84 2.327 1_655 S
O136 C159 1.254 . S
O137 Gd85 2.429 1_565 S
O137 C159 1.268 . S
O138 Gd85 2.545 1_565 S
O138 C151 1.250 . S
O139 Gd85 2.412 . S
O139 C152 1.252 . S
C140 O129 1.284 . S
C140 O132 1.250 . S
C141 H110 0.929 . S
C141 C126 1.437 . S
C141 C142 1.317 . S
C142 H113 0.930 . S
C142 C118 1.431 . S
C142 C141 1.317 . S
C143 Gd84 2.833 . S
C143 O128 1.258 1_565 S
C143 O133 1.252 . S
C143 C144 1.497 . S
C144 C143 1.497 . S
C144 C145 1.395 . S
C144 C146 1.380 . S
C145 C144 1.395 . S
C145 C148 1.398 . S
C145 H160 0.930 1_565 S
C146 C144 1.380 . S
C146 C147 1.391 . S
C146 H161 0.930 . S
C147 C146 1.391 . S
C147 C149 1.387 . S
C148 C145 1.398 . S
C148 C149 1.380 . S
C148 H162 0.930 . S
C149 C147 1.387 . S
C149 C148 1.380 . S
C149 H163 0.930 . S
C150 O130 1.254 . S
C150 O131 1.268 . S
C151 O135 1.284 . S
C151 O138 1.250 . S
C152 Gd85 2.828 . S
C152 O134 1.258 . S
C152 O139 1.252 . S
C152 C153 1.497 . S
C153 C152 1.497 . S
C153 C154 1.395 . S
C153 C155 1.380 . S
C154 C153 1.395 . S
C154 C157 1.398 . S
C154 H164 0.930 . S
C155 C153 1.380 . S
C155 C156 1.391 . S
C155 H165 0.930 . S
C156 C155 1.391 . S
C156 C158 1.387 . S
C157 C154 1.398 . S
C157 C158 1.380 . S
C157 H166 0.930 . S
C158 C156 1.387 . S
C158 C157 1.380 . S
C158 H167 0.930 . S
C159 O136 1.254 . S
C159 O137 1.268 . S
H160 C145 0.930 1_545 S
H161 C146 0.930 . S
H162 C148 0.930 . S
H163 C149 0.930 . S
H164 C154 0.930 . S
H165 C155 0.930 . S
H166 C157 0.930 . S
H167 C158 0.930 . S
Zn168 O174 1.920 . S
Zn168 O180 1.898 . S
Zn168 O183 1.905 . S
Zn169 O177 1.905 . S
Zn169 O178 1.898 . S
Zn169 O186 1.920 . S
Zn170 O173 2.080 . S
Zn170 O176 2.114 . S
Zn170 O179 2.120 . S
Zn170 O181 2.120 . S
Zn170 O182 2.114 . S
Zn170 O185 2.080 . S
C171 O176 1.166 . S
C171 O177 1.182 . S
C172 O178 1.167 . S
C172 O179 1.299 . S
O173 Zn170 2.080 . S
O173 C187 1.305 . S
O174 Zn168 1.920 . S
O174 C187 1.234 . S
C175 O180 1.167 . S
C175 O181 1.299 . S
O176 Zn170 2.114 . S
O176 C171 1.166 . S
O177 Zn169 1.905 . S
O177 C171 1.182 . S
O178 Zn169 1.898 . S
O178 C172 1.167 . S
O179 Zn170 2.120 . S
O179 C172 1.299 . S
O180 Zn168 1.898 . S
O180 C175 1.167 . S
O181 Zn170 2.120 . S
O181 C175 1.299 . S
O182 Zn170 2.114 . S
O182 C184 1.166 . S
O183 Zn168 1.905 . S
O183 C184 1.182 . S
C184 O182 1.166 . S
C184 O183 1.182 . S
O185 Zn170 2.080 . S
O185 C188 1.305 . S
O186 Zn169 1.920 . S
O186 C188 1.234 . S
C187 O173 1.305 . S
C187 O174 1.234 . S
C188 O185 1.305 . S
C188 O186 1.234 . S
Zn189 O195 1.920 . S
Zn189 O201 1.898 . S
Zn189 O204 1.905 . S
Zn190 O198 1.905 . S
Zn190 O199 1.898 . S
Zn190 O207 1.920 . S
Zn191 O194 2.080 . S
Zn191 O197 2.114 . S
Zn191 O200 2.120 . S
Zn191 O202 2.120 . S
Zn191 O203 2.114 . S
Zn191 O206 2.080 . S
C192 O197 1.166 . S
C192 O198 1.182 . S
C193 O199 1.167 . S
C193 O200 1.299 . S
O194 Zn191 2.080 . S
O194 C208 1.305 . S
O195 Zn189 1.920 . S
O195 C208 1.234 . S
C196 O201 1.167 . S
C196 O202 1.299 . S
O197 Zn191 2.114 . S
O197 C192 1.166 . S
O198 Zn190 1.905 . S
O198 C192 1.182 . S
O199 Zn190 1.898 . S
O199 C193 1.167 . S
O200 Zn191 2.120 . S
O200 C193 1.299 . S
O201 Zn189 1.898 . S
O201 C196 1.167 . S
O202 Zn191 2.120 . S
O202 C196 1.299 . S
O203 Zn191 2.114 . S
O203 C205 1.166 . S
O204 Zn189 1.905 . S
O204 C205 1.182 . S
C205 O203 1.166 . S
C205 O204 1.182 . S
O206 Zn191 2.080 . S
O206 C209 1.305 . S
O207 Zn190 1.920 . S
O207 C209 1.234 . S
C208 O194 1.305 . S
C208 O195 1.234 . S
C209 O206 1.305 . S
C209 O207 1.234 . S
H210 C218 0.929 . S
H211 C220 0.930 . S
H212 C222 0.930 . S
H213 C225 0.929 . S
H214 C228 0.930 . S
H215 C230 0.960 . S
H216 C230 0.960 . S
H217 C230 0.960 . S
C218 H210 0.929 . S
C218 C219 1.377 . S
C218 C220 1.384 . S
C219 C218 1.377 . S
C219 C225 1.390 . S
C220 H211 0.930 . S
C220 C218 1.384 . S
C220 C221 1.372 . S
C221 C220 1.372 . S
C221 C222 1.400 . S
C221 C226 1.490 . S
C222 H212 0.930 . S
C222 C221 1.400 . S
C222 C225 1.386 . S
H223 C239 0.930 . S
H224 C240 0.931 . S
C225 H213 0.929 . S
C225 C219 1.390 . S
C225 C222 1.386 . S
C226 C221 1.490 . S
C226 C228 1.395 . S
C226 C229 1.403 . S
H227 C233 0.930 . S
C228 H214 0.930 . S
C228 C226 1.395 . S
C228 C231 1.403 . S
C229 C226 1.403 . S
C229 C230 1.524 . S
C229 C233 1.400 . S
C230 H215 0.960 . S
C230 H216 0.960 . S
C230 H217 0.960 . S
C230 C229 1.524 . S
C231 C228 1.403 . S
C231 C232 1.392 . S
C231 C235 1.495 . S
C232 C231 1.392 . S
C232 C233 1.385 . S
C232 C234 1.478 . S
C233 H227 0.930 . S
C233 C229 1.400 . S
C233 C232 1.385 . S
C234 C232 1.478 . S
C234 C236 1.381 . S
C234 C240 1.383 . S
C235 C231 1.495 . S
C235 H241 0.959 . S
C235 H242 0.961 . S
C235 H243 0.960 . S
C236 C234 1.381 . S
C236 C237 1.394 . S
C236 H244 0.930 . S
C237 C236 1.394 . S
C237 C238 1.383 . S
C237 H245 0.929 . S
C238 C237 1.383 . S
C238 C239 1.377 . S
C239 H223 0.930 . S
C239 C238 1.377 . S
C239 C240 1.379 . S
C240 H224 0.931 . S
C240 C234 1.383 . S
C240 C239 1.379 . S
H241 C235 0.959 . S
H242 C235 0.961 . S
H243 C235 0.960 . S
H244 C236 0.930 . S
H245 C237 0.929 . S
H246 C254 0.929 . S
H247 C256 0.930 . S
H248 C258 0.930 . S
H249 C261 0.929 . S
H250 C264 0.930 . S
H251 C266 0.960 . S
H252 C266 0.960 . S
H253 C266 0.960 . S
C254 H246 0.929 . S
C254 C255 1.377 . S
C254 C256 1.384 . S
C255 C254 1.377 . S
C255 C261 1.390 . S
C256 H247 0.930 . S
C256 C254 1.384 . S
C256 C257 1.372 . S
C257 C256 1.372 . S
C257 C258 1.400 . S
C257 C262 1.490 . S
C258 H248 0.930 . S
C258 C257 1.400 . S
C258 C261 1.386 . S
H259 C275 0.930 . S
H260 C276 0.931 . S
C261 H249 0.929 . S
C261 C255 1.390 . S
C261 C258 1.386 . S
C262 C257 1.490 . S
C262 C264 1.395 . S
C262 C265 1.403 . S
H263 C269 0.930 . S
C264 H250 0.930 . S
C264 C262 1.395 . S
C264 C267 1.403 . S
C265 C262 1.403 . S
C265 C266 1.524 . S
C265 C269 1.400 . S
C266 H251 0.960 . S
C266 H252 0.960 . S
C266 H253 0.960 . S
C266 C265 1.524 . S
C267 C264 1.403 . S
C267 C268 1.392 . S
C267 C271 1.495 . S
C268 C267 1.392 . S
C268 C269 1.385 . S
C268 C270 1.478 . S
C269 H263 0.930 . S
C269 C265 1.400 . S
C269 C268 1.385 . S
C270 C268 1.478 . S
C270 C272 1.381 . S
C270 C276 1.383 . S
C271 C267 1.495 . S
C271 H277 0.959 . S
C271 H278 0.961 . S
C271 H279 0.960 . S
C272 C270 1.381 . S
C272 C273 1.394 . S
C272 H280 0.930 . S
C273 C272 1.394 . S
C273 C274 1.383 . S
C273 H281 0.929 . S
C274 C273 1.383 . S
C274 C275 1.377 . S
C275 H259 0.930 . S
C275 C274 1.377 . S
C275 C276 1.379 . S
C276 H260 0.931 . S
C276 C270 1.383 . S
C276 C275 1.379 . S
H277 C271 0.959 . S
H278 C271 0.961 . S
H279 C271 0.960 . S
H280 C272 0.930 . S
H281 C273 0.929 . S
H282 C290 0.929 . S
H283 C292 0.930 . S
H284 C294 0.930 . S
H285 C297 0.929 . S
H286 C300 0.930 . S
H287 C302 0.960 . S
H288 C302 0.960 . S
H289 C302 0.960 . S
C290 H282 0.929 . S
C290 C291 1.377 . S
C290 C292 1.384 . S
C291 C290 1.377 . S
C291 C297 1.390 . S
C292 H283 0.930 . S
C292 C290 1.384 . S
C292 C293 1.372 . S
C293 C292 1.372 . S
C293 C294 1.400 . S
C293 C298 1.490 . S
C294 H284 0.930 . S
C294 C293 1.400 . S
C294 C297 1.386 . S
H295 C311 0.930 . S
H296 C312 0.931 . S
C297 H285 0.929 . S
C297 C291 1.390 . S
C297 C294 1.386 . S
C298 C293 1.490 . S
C298 C300 1.395 . S
C298 C301 1.403 . S
H299 C305 0.930 . S
C300 H286 0.930 . S
C300 C298 1.395 . S
C300 C303 1.403 . S
C301 C298 1.403 . S
C301 C302 1.524 . S
C301 C305 1.400 . S
C302 H287 0.960 . S
C302 H288 0.960 . S
C302 H289 0.960 . S
C302 C301 1.524 . S
C303 C300 1.403 . S
C303 C304 1.392 . S
C303 C307 1.495 . S
C304 C303 1.392 . S
C304 C305 1.385 . S
C304 C306 1.478 . S
C305 H299 0.930 . S
C305 C301 1.400 . S
C305 C304 1.385 . S
C306 C304 1.478 . S
C306 C308 1.381 . S
C306 C312 1.383 . S
C307 C303 1.495 . S
C307 H313 0.959 . S
C307 H314 0.961 . S
C307 H315 0.960 . S
C308 C306 1.381 . S
C308 C309 1.394 . S
C308 H316 0.930 . S
C309 C308 1.394 . S
C309 C310 1.383 . S
C309 H317 0.929 . S
C310 C309 1.383 . S
C310 C311 1.377 . S
C311 H295 0.930 . S
C311 C310 1.377 . S
C311 C312 1.379 . S
C312 H296 0.931 . S
C312 C306 1.383 . S
C312 C311 1.379 . S
H313 C307 0.959 . S
H314 C307 0.961 . S
H315 C307 0.960 . S
H316 C308 0.930 . S
H317 C309 0.929 . S
H318 C326 0.929 . S
H319 C328 0.930 . S
H320 C330 0.930 . S
H321 C333 0.929 . S
H322 C336 0.930 . S
H323 C338 0.960 . S
H324 C338 0.960 . S
H325 C338 0.960 . S
C326 H318 0.929 . S
C326 C327 1.377 . S
C326 C328 1.384 . S
C327 C326 1.377 . S
C327 C333 1.390 . S
C328 H319 0.930 . S
C328 C326 1.384 . S
C328 C329 1.372 . S
C329 C328 1.372 . S
C329 C330 1.400 . S
C329 C334 1.490 . S
C330 H320 0.930 . S
C330 C329 1.400 . S
C330 C333 1.386 . S
H331 C347 0.930 . S
H332 C348 0.931 . S
C333 H321 0.929 . S
C333 C327 1.390 . S
C333 C330 1.386 . S
C334 C329 1.490 . S
C334 C336 1.395 . S
C334 C337 1.403 . S
H335 C341 0.930 . S
C336 H322 0.930 . S
C336 C334 1.395 . S
C336 C339 1.403 . S
C337 C334 1.403 . S
C337 C338 1.524 . S
C337 C341 1.400 . S
C338 H323 0.960 . S
C338 H324 0.960 . S
C338 H325 0.960 . S
C338 C337 1.524 . S
C339 C336 1.403 . S
C339 C340 1.392 . S
C339 C343 1.495 . S
C340 C339 1.392 . S
C340 C341 1.385 . S
C340 C342 1.478 . S
C341 H335 0.930 . S
C341 C337 1.400 . S
C341 C340 1.385 . S
C342 C340 1.478 . S
C342 C344 1.381 . S
C342 C348 1.383 . S
C343 C339 1.495 . S
C343 H349 0.959 . S
C343 H350 0.961 . S
C343 H351 0.960 . S
C344 C342 1.381 . S
C344 C345 1.394 . S
C344 H352 0.930 . S
C345 C344 1.394 . S
C345 C346 1.383 . S
C345 H353 0.929 . S
C346 C345 1.383 . S
C346 C347 1.377 . S
C347 H331 0.930 . S
C347 C346 1.377 . S
C347 C348 1.379 . S
C348 H332 0.931 . S
C348 C342 1.383 . S
C348 C347 1.379 . S
H349 C343 0.959 . S
H350 C343 0.961 . S
H351 C343 0.960 . S
H352 C344 0.930 . S
H353 C345 0.929 . S
H354 C362 0.929 1_545 S
H355 C364 0.930 . S
H356 C366 0.930 . S
H357 C369 0.929 . S
H358 C372 0.930 . S
H359 C374 0.960 . S
H360 C374 0.960 . S
H361 C374 0.960 . S
C362 H354 0.929 1_565 S
C362 C363 1.377 . S
C362 C364 1.384 . S
C363 C362 1.377 . S
C363 C369 1.390 . S
C364 H355 0.930 . S
C364 C362 1.384 . S
C364 C365 1.372 . S
C365 C364 1.372 . S
C365 C366 1.400 . S
C365 C370 1.490 . S
C366 H356 0.930 . S
C366 C365 1.400 . S
C366 C369 1.386 . S
H367 C383 0.930 . S
H368 C384 0.931 . S
C369 H357 0.929 . S
C369 C363 1.390 . S
C369 C366 1.386 . S
C370 C365 1.490 . S
C370 C372 1.395 . S
C370 C373 1.403 . S
H371 C377 0.930 . S
C372 H358 0.930 . S
C372 C370 1.395 . S
C372 C375 1.403 . S
C373 C370 1.403 . S
C373 C374 1.524 . S
C373 C377 1.400 . S
C374 H359 0.960 . S
C374 H360 0.960 . S
C374 H361 0.960 . S
C374 C373 1.524 . S
C375 C372 1.403 . S
C375 C376 1.392 . S
C375 C379 1.495 . S
C376 C375 1.392 . S
C376 C377 1.385 . S
C376 C378 1.478 . S
C377 H371 0.930 . S
C377 C373 1.400 . S
C377 C376 1.385 . S
C378 C376 1.478 . S
C378 C380 1.381 . S
C378 C384 1.383 . S
C379 C375 1.495 . S
C379 H385 0.959 . S
C379 H386 0.961 . S
C379 H387 0.960 . S
C380 C378 1.381 . S
C380 C381 1.394 . S
C380 H388 0.930 . S
C381 C380 1.394 . S
C381 C382 1.383 . S
C381 H389 0.929 . S
C382 C381 1.383 . S
C382 C383 1.377 . S
C383 H367 0.930 . S
C383 C382 1.377 . S
C383 C384 1.379 . S
C384 H368 0.931 . S
C384 C378 1.383 . S
C384 C383 1.379 . S
H385 C379 0.959 . S
H386 C379 0.961 . S
H387 C379 0.960 . S
H388 C380 0.930 . S
H389 C381 0.929 . S
H390 C398 0.929 . S
H391 C400 0.930 . S
H392 C402 0.930 . S
H393 C405 0.929 . S
H394 C408 0.930 . S
H395 C410 0.960 . S
H396 C410 0.960 . S
H397 C410 0.960 . S
C398 H390 0.929 . S
C398 C399 1.377 . S
C398 C400 1.384 . S
C399 C398 1.377 . S
C399 C405 1.390 . S
C400 H391 0.930 . S
C400 C398 1.384 . S
C400 C401 1.372 . S
C401 C400 1.372 . S
C401 C402 1.400 . S
C401 C406 1.490 . S
C402 H392 0.930 . S
C402 C401 1.400 . S
C402 C405 1.386 . S
H403 C419 0.930 . S
H404 C420 0.931 . S
C405 H393 0.929 . S
C405 C399 1.390 . S
C405 C402 1.386 . S
C406 C401 1.490 . S
C406 C408 1.395 . S
C406 C409 1.403 . S
H407 C413 0.930 . S
C408 H394 0.930 . S
C408 C406 1.395 . S
C408 C411 1.403 . S
C409 C406 1.403 . S
C409 C410 1.524 . S
C409 C413 1.400 . S
C410 H395 0.960 . S
C410 H396 0.960 . S
C410 H397 0.960 . S
C410 C409 1.524 . S
C411 C408 1.403 . S
C411 C412 1.392 . S
C411 C415 1.495 . S
C412 C411 1.392 . S
C412 C413 1.385 . S
C412 C414 1.478 . S
C413 H407 0.930 . S
C413 C409 1.400 . S
C413 C412 1.385 . S
C414 C412 1.478 . S
C414 C416 1.381 . S
C414 C420 1.383 . S
C415 C411 1.495 . S
C415 H421 0.959 . S
C415 H422 0.961 . S
C415 H423 0.960 . S
C416 C414 1.381 . S
C416 C417 1.394 . S
C416 H424 0.930 . S
C417 C416 1.394 . S
C417 C418 1.383 . S
C417 H425 0.929 . S
C418 C417 1.383 . S
C418 C419 1.377 . S
C419 H403 0.930 . S
C419 C418 1.377 . S
C419 C420 1.379 . S
C420 H404 0.931 . S
C420 C414 1.383 . S
C420 C419 1.379 . S
H421 C415 0.959 . S
H422 C415 0.961 . S
H423 C415 0.960 . S
H424 C416 0.930 . S
H425 C417 0.929 . S
H426 C434 0.929 . S
H427 C436 0.930 . S
H428 C438 0.930 . S
H429 C441 0.929 . S
H430 C444 0.930 . S
H431 C446 0.960 . S
H432 C446 0.960 . S
H433 C446 0.960 . S
C434 H426 0.929 . S
C434 C435 1.377 . S
C434 C436 1.384 . S
C435 C434 1.377 . S
C435 C441 1.390 . S
C436 H427 0.930 . S
C436 C434 1.384 . S
C436 C437 1.372 . S
C437 C436 1.372 . S
C437 C438 1.400 . S
C437 C442 1.490 . S
C438 H428 0.930 . S
C438 C437 1.400 . S
C438 C441 1.386 . S
H439 C455 0.930 . S
H440 C456 0.931 . S
C441 H429 0.929 . S
C441 C435 1.390 . S
C441 C438 1.386 . S
C442 C437 1.490 . S
C442 C444 1.395 . S
C442 C445 1.403 . S
H443 C449 0.930 . S
C444 H430 0.930 . S
C444 C442 1.395 . S
C444 C447 1.403 . S
C445 C442 1.403 . S
C445 C446 1.524 . S
C445 C449 1.400 . S
C446 H431 0.960 . S
C446 H432 0.960 . S
C446 H433 0.960 . S
C446 C445 1.524 . S
C447 C444 1.403 . S
C447 C448 1.392 . S
C447 C451 1.495 . S
C448 C447 1.392 . S
C448 C449 1.385 . S
C448 C450 1.478 . S
C449 H443 0.930 . S
C449 C445 1.400 . S
C449 C448 1.385 . S
C450 C448 1.478 . S
C450 C452 1.381 . S
C450 C456 1.383 . S
C451 C447 1.495 . S
C451 H457 0.959 . S
C451 H458 0.961 . S
C451 H459 0.960 . S
C452 C450 1.381 . S
C452 C453 1.394 . S
C452 H460 0.930 . S
C453 C452 1.394 . S
C453 C454 1.383 . S
C453 H461 0.929 . S
C454 C453 1.383 . S
C454 C455 1.377 . S
C455 H439 0.930 . S
C455 C454 1.377 . S
C455 C456 1.379 . S
C456 H440 0.931 . S
C456 C450 1.383 . S
C456 C455 1.379 . S
H457 C451 0.959 . S
H458 C451 0.961 . S
H459 C451 0.960 . S
H460 C452 0.930 . S
H461 C453 0.929 . S
H462 C470 0.929 . S
H463 C472 0.930 . S
H464 C474 0.930 . S
H465 C477 0.929 . S
H466 C480 0.930 . S
H467 C482 0.960 . S
H468 C482 0.960 . S
H469 C482 0.960 . S
C470 H462 0.929 . S
C470 C471 1.377 . S
C470 C472 1.384 . S
C471 C470 1.377 . S
C471 C477 1.390 . S
C472 H463 0.930 . S
C472 C470 1.384 . S
C472 C473 1.372 . S
C473 C472 1.372 . S
C473 C474 1.400 . S
C473 C478 1.490 . S
C474 H464 0.930 . S
C474 C473 1.400 . S
C474 C477 1.386 . S
H475 C491 0.930 . S
H476 C492 0.931 . S
C477 H465 0.929 . S
C477 C471 1.390 . S
C477 C474 1.386 . S
C478 C473 1.490 . S
C478 C480 1.395 . S
C478 C481 1.403 . S
H479 C485 0.930 . S
C480 H466 0.930 . S
C480 C478 1.395 . S
C480 C483 1.403 . S
C481 C478 1.403 . S
C481 C482 1.524 . S
C481 C485 1.400 . S
C482 H467 0.960 . S
C482 H468 0.960 . S
C482 H469 0.960 . S
C482 C481 1.524 . S
C483 C480 1.403 . S
C483 C484 1.392 . S
C483 C487 1.495 . S
C484 C483 1.392 . S
C484 C485 1.385 . S
C484 C486 1.478 . S
C485 H479 0.930 . S
C485 C481 1.400 . S
C485 C484 1.385 . S
C486 C484 1.478 . S
C486 C488 1.381 . S
C486 C492 1.383 . S
C487 C483 1.495 . S
C487 H493 0.959 . S
C487 H494 0.961 . S
C487 H495 0.960 . S
C488 C486 1.381 . S
C488 C489 1.394 . S
C488 H496 0.930 . S
C489 C488 1.394 . S
C489 C490 1.383 . S
C489 H497 0.929 . S
C490 C489 1.383 . S
C490 C491 1.377 . S
C491 H475 0.930 . S
C491 C490 1.377 . S
C491 C492 1.379 . S
C492 H476 0.931 . S
C492 C486 1.383 . S
C492 C491 1.379 . S
H493 C487 0.959 . S
H494 C487 0.961 . S
H495 C487 0.960 . S
H496 C488 0.930 . S
H497 C489 0.929 . S
H498 C506 0.929 . S
H499 C508 0.930 . S
H500 C510 0.930 . S
H501 C513 0.929 . S
H502 C516 0.930 . S
H503 C518 0.960 . S
H504 C518 0.960 . S
H505 C518 0.960 . S
C506 H498 0.929 . S
C506 C507 1.377 . S
C506 C508 1.384 . S
C507 C506 1.377 . S
C507 C513 1.390 . S
C508 H499 0.930 . S
C508 C506 1.384 . S
C508 C509 1.372 . S
C509 C508 1.372 . S
C509 C510 1.400 . S
C509 C514 1.490 . S
C510 H500 0.930 . S
C510 C509 1.400 . S
C510 C513 1.386 . S
H511 C527 0.930 . S
H512 C528 0.931 . S
C513 H501 0.929 . S
C513 C507 1.390 . S
C513 C510 1.386 . S
C514 C509 1.490 . S
C514 C516 1.395 . S
C514 C517 1.403 . S
H515 C521 0.930 . S
C516 H502 0.930 . S
C516 C514 1.395 . S
C516 C519 1.403 . S
C517 C514 1.403 . S
C517 C518 1.524 . S
C517 C521 1.400 . S
C518 H503 0.960 . S
C518 H504 0.960 . S
C518 H505 0.960 . S
C518 C517 1.524 . S
C519 C516 1.403 . S
C519 C520 1.392 . S
C519 C523 1.495 . S
C520 C519 1.392 . S
C520 C521 1.385 . S
C520 C522 1.478 . S
C521 H515 0.930 . S
C521 C517 1.400 . S
C521 C520 1.385 . S
C522 C520 1.478 . S
C522 C524 1.381 . S
C522 C528 1.383 . S
C523 C519 1.495 . S
C523 H529 0.959 . S
C523 H530 0.961 . S
C523 H531 0.960 . S
C524 C522 1.381 . S
C524 C525 1.394 . S
C524 H532 0.930 . S
C525 C524 1.394 . S
C525 C526 1.383 . S
C525 H533 0.929 . S
C526 C525 1.383 . S
C526 C527 1.377 . S
C527 H511 0.930 . S
C527 C526 1.377 . S
C527 C528 1.379 . S
C528 H512 0.931 . S
C528 C522 1.383 . S
C528 C527 1.379 . S
H529 C523 0.959 . S
H530 C523 0.961 . S
H531 C523 0.960 . S
H532 C524 0.930 . S
H533 C525 0.929 . S
H534 C542 0.929 . S
H535 C544 0.930 . S
H536 C546 0.930 . S
H537 C549 0.929 . S
H538 C552 0.930 . S
H539 C554 0.960 . S
H540 C554 0.960 . S
H541 C554 0.960 . S
C542 H534 0.929 . S
C542 C543 1.377 . S
C542 C544 1.384 . S
C543 C542 1.377 . S
C543 C549 1.390 . S
C544 H535 0.930 . S
C544 C542 1.384 . S
C544 C545 1.372 . S
C545 C544 1.372 . S
C545 C546 1.400 . S
C545 C550 1.490 . S
C546 H536 0.930 . S
C546 C545 1.400 . S
C546 C549 1.386 . S
H547 C563 0.930 . S
H548 C564 0.931 . S
C549 H537 0.929 . S
C549 C543 1.390 . S
C549 C546 1.386 . S
C550 C545 1.490 . S
C550 C552 1.395 . S
C550 C553 1.403 . S
H551 C557 0.930 . S
C552 H538 0.930 . S
C552 C550 1.395 . S
C552 C555 1.403 . S
C553 C550 1.403 . S
C553 C554 1.524 . S
C553 C557 1.400 . S
C554 H539 0.960 . S
C554 H540 0.960 . S
C554 H541 0.960 . S
C554 C553 1.524 . S
C555 C552 1.403 . S
C555 C556 1.392 . S
C555 C559 1.495 . S
C556 C555 1.392 . S
C556 C557 1.385 . S
C556 C558 1.478 . S
C557 H551 0.930 . S
C557 C553 1.400 . S
C557 C556 1.385 . S
C558 C556 1.478 . S
C558 C560 1.381 . S
C558 C564 1.383 . S
C559 C555 1.495 . S
C559 H565 0.959 . S
C559 H566 0.961 . S
C559 H567 0.960 . S
C560 C558 1.381 . S
C560 C561 1.394 . S
C560 H568 0.930 . S
C561 C560 1.394 . S
C561 C562 1.383 . S
C561 H569 0.929 . S
C562 C561 1.383 . S
C562 C563 1.377 . S
C563 H547 0.930 . S
C563 C562 1.377 . S
C563 C564 1.379 . S
C564 H548 0.931 . S
C564 C558 1.383 . S
C564 C563 1.379 . S
H565 C559 0.959 . S
H566 C559 0.961 . S
H567 C559 0.960 . S
H568 C560 0.930 . S
H569 C561 0.929 . S
H570 C578 0.929 1_545 S
H571 C580 0.930 . S
H572 C582 0.930 . S
H573 C585 0.929 . S
H574 C588 0.930 . S
H575 C590 0.960 . S
H576 C590 0.960 . S
H577 C590 0.960 . S
C578 H570 0.929 1_565 S
C578 C579 1.377 . S
C578 C580 1.384 . S
C579 C578 1.377 . S
C579 C585 1.390 . S
C580 H571 0.930 . S
C580 C578 1.384 . S
C580 C581 1.372 . S
C581 C580 1.372 . S
C581 C582 1.400 . S
C581 C586 1.490 . S
C582 H572 0.930 . S
C582 C581 1.400 . S
C582 C585 1.386 . S
H583 C599 0.930 . S
H584 C600 0.931 . S
C585 H573 0.929 . S
C585 C579 1.390 . S
C585 C582 1.386 . S
C586 C581 1.490 . S
C586 C588 1.395 . S
C586 C589 1.403 . S
H587 C593 0.930 . S
C588 H574 0.930 . S
C588 C586 1.395 . S
C588 C591 1.403 . S
C589 C586 1.403 . S
C589 C590 1.524 . S
C589 C593 1.400 . S
C590 H575 0.960 . S
C590 H576 0.960 . S
C590 H577 0.960 . S
C590 C589 1.524 . S
C591 C588 1.403 . S
C591 C592 1.392 . S
C591 C595 1.495 . S
C592 C591 1.392 . S
C592 C593 1.385 . S
C592 C594 1.478 . S
C593 H587 0.930 . S
C593 C589 1.400 . S
C593 C592 1.385 . S
C594 C592 1.478 . S
C594 C596 1.381 . S
C594 C600 1.383 . S
C595 C591 1.495 . S
C595 H601 0.959 . S
C595 H602 0.961 . S
C595 H603 0.960 . S
C596 C594 1.381 . S
C596 C597 1.394 . S
C596 H604 0.930 . S
C597 C596 1.394 . S
C597 C598 1.383 . S
C597 H605 0.929 . S
C598 C597 1.383 . S
C598 C599 1.377 . S
C599 H583 0.930 . S
C599 C598 1.377 . S
C599 C600 1.379 . S
C600 H584 0.931 . S
C600 C594 1.383 . S
C600 C599 1.379 . S
H601 C595 0.959 . S
H602 C595 0.961 . S
H603 C595 0.960 . S
H604 C596 0.930 . S
H605 C597 0.929 . S
H606 C614 0.929 1_455 S
H607 C616 0.930 . S
H608 C618 0.930 . S
H609 C621 0.929 . S
H610 C624 0.930 . S
H611 C626 0.960 . S
H612 C626 0.960 . S
H613 C626 0.960 . S
C614 H606 0.929 1_655 S
C614 C615 1.377 . S
C614 C616 1.384 . S
C615 C614 1.377 . S
C615 C621 1.390 . S
C616 H607 0.930 . S
C616 C614 1.384 . S
C616 C617 1.372 . S
C617 C616 1.372 . S
C617 C618 1.400 . S
C617 C622 1.490 . S
C618 H608 0.930 . S
C618 C617 1.400 . S
C618 C621 1.386 . S
H619 C635 0.930 . S
H620 C636 0.931 . S
C621 H609 0.929 . S
C621 C615 1.390 . S
C621 C618 1.386 . S
C622 C617 1.490 . S
C622 C624 1.395 . S
C622 C625 1.403 . S
H623 C629 0.930 . S
C624 H610 0.930 . S
C624 C622 1.395 . S
C624 C627 1.403 . S
C625 C622 1.403 . S
C625 C626 1.524 . S
C625 C629 1.400 . S
C626 H611 0.960 . S
C626 H612 0.960 . S
C626 H613 0.960 . S
C626 C625 1.524 . S
C627 C624 1.403 . S
C627 C628 1.392 . S
C627 C631 1.495 . S
C628 C627 1.392 . S
C628 C629 1.385 . S
C628 C630 1.478 . S
C629 H623 0.930 . S
C629 C625 1.400 . S
C629 C628 1.385 . S
C630 C628 1.478 . S
C630 C632 1.381 . S
C630 C636 1.383 . S
C631 C627 1.495 . S
C631 H637 0.959 . S
C631 H638 0.961 . S
C631 H639 0.960 . S
C632 C630 1.381 . S
C632 C633 1.394 . S
C632 H640 0.930 . S
C633 C632 1.394 . S
C633 C634 1.383 . S
C633 H641 0.929 . S
C634 C633 1.383 . S
C634 C635 1.377 . S
C635 H619 0.930 . S
C635 C634 1.377 . S
C635 C636 1.379 . S
C636 H620 0.931 . S
C636 C630 1.383 . S
C636 C635 1.379 . S
H637 C631 0.959 . S
H638 C631 0.961 . S
H639 C631 0.960 . S
H640 C632 0.930 . S
H641 C633 0.929 . S
C219 C72 1.126 . S
C238 C187 1.269 . S
C255 C140 1.546 . S
C274 C193 1.459 . S
C291 C75 1.531 . S
C310 C184 1.440 . S
C327 C156 1.150 . S
C346 C209 1.241 . S
C363 C56 1.550 . S
C382 C175 1.396 . S
C418 C192 1.448 . S
C399 C159 1.527 . S
C435 C147 1.131 . S
C454 C188 1.284 . S
C490 C205 1.470 . S
C471 C67 1.562 . S
C526 C172 1.368 . S
C507 C150 1.533 . S
C562 C208 1.218 . S
C543 C63 1.123 . S
C598 C171 1.498 . S
C579 C151 1.553 . S
C634 C196 1.397 . S
C615 C66 1.530 . S
