# Generated by pormake.
# Topology nia, (6,6)-cn, num edge types: 1
# Building blocks:
#     Node 0, Type 0, BuildingBlock: BETGAK_clean_sbu_0, # of connection points: 6
#     Node 1, Type 0, BuildingBlock: BETGAK_clean_sbu_0, # of connection points: 6
#     Node 2, Type 1, BuildingBlock: MIDCAF_clean_sbu_0, # of connection points: 6
#     Node 3, Type 1, BuildingBlock: MIDCAF_clean_sbu_0, # of connection points: 6
#     Edge 4, Type (0, 1), BuildingBlock: XIVTED_clean_linker_0, # of connection points: 2
#     Edge 5, Type (0, 1), BuildingBlock: XIVTED_clean_linker_0, # of connection points: 2
#     Edge 6, Type (0, 1), BuildingBlock: XIVTED_clean_linker_0, # of connection points: 2
#     Edge 7, Type (0, 1), BuildingBlock: XIVTED_clean_linker_0, # of connection points: 2
#     Edge 8, Type (0, 1), BuildingBlock: XIVTED_clean_linker_0, # of connection points: 2
#     Edge 9, Type (0, 1), BuildingBlock: XIVTED_clean_linker_0, # of connection points: 2
#     Edge 10, Type (0, 1), BuildingBlock: XIVTED_clean_linker_0, # of connection points: 2
#     Edge 11, Type (0, 1), BuildingBlock: XIVTED_clean_linker_0, # of connection points: 2
#     Edge 12, Type (0, 1), BuildingBlock: XIVTED_clean_linker_0, # of connection points: 2
#     Edge 13, Type (0, 1), BuildingBlock: XIVTED_clean_linker_0, # of connection points: 2
#     Edge 14, Type (0, 1), BuildingBlock: XIVTED_clean_linker_0, # of connection points: 2
#     Edge 15, Type (0, 1), BuildingBlock: XIVTED_clean_linker_0, # of connection points: 2
# Relax obj value: 0.323
# Max RMSD: 0.269
# Mean RMSD: 0.247
data_MOF--net-nia--node1-BETGAK_clean_sbu_0--node2-MIDCAF_clean_sbu_0--edge1-XIVTED_clean_linker_0
_symmetry_space_group_name_H-M    P1
_symmetry_Int_Tables_number       1
_symmetry_cell_setting            triclinic
loop_
_symmetry_equiv_pos_as_xyz
'x, y, z'
_cell_length_a     25.581263
_cell_length_b     28.367001
_cell_length_c     34.884691
_cell_angle_alpha  71.797085
_cell_angle_beta   101.34015
_cell_angle_gamma 127.53744
loop_
_atom_site_label
_atom_site_type_symbol
_atom_site_fract_x
_atom_site_fract_y
_atom_site_fract_z
_atom_type_partial_charge
La0 La 0.08854 0.06318 0.02945 0.0
La1 La 0.98833 0.94772 0.99349 0.0
C2 C 0.18164 0.1691 0.03432 0.0
C3 C 0.17969 0.21468 0.04373 0.0
C4 C 0.13187 0.19566 0.07022 0.0
C5 C 0.13382 0.23874 0.08253 0.0
C6 C 0.18352 0.30123 0.06845 0.0
C7 C 0.22726 0.32063 0.0389 0.0
C8 C 0.22528 0.27725 0.0265 0.0
C9 C 0.973 0.98957 0.06778 0.0
C10 C 0.97685 0.05914 0.96692 0.0
C11 C 0.89678 0.84447 0.98302 0.0
C12 C 0.90008 0.79918 0.97368 0.0
C13 C 0.92303 0.81033 0.93615 0.0
C14 C 0.92812 0.76809 0.92822 0.0
C15 C 0.91068 0.71388 0.95764 0.0
C16 C 0.89083 0.70433 0.99585 0.0
C17 C 0.88493 0.74626 1.00361 0.0
C18 C 0.10598 0.02103 0.95656 0.0
C19 C 0.09286 0.94845 0.06135 0.0
O20 O 0.16534 0.12048 0.06414 0.0
O21 O 0.15365 0.1554 0.9999 0.0
O22 O 0.02477 0.039 0.0771 0.0
O23 O 0.98994 0.98349 0.03903 0.0
O24 O 0.03222 0.09177 0.98679 0.0
O25 O 0.94943 0.00161 0.96698 0.0
O26 O 0.91662 0.89522 0.95458 0.0
O27 O 0.91888 0.85463 0.01901 0.0
O28 O 0.05547 0.97006 0.9485 0.0
O29 O 0.08698 0.02759 0.98397 0.0
O30 O 0.03764 0.91578 0.04132 0.0
O31 O 0.12445 0.0077 0.0581 0.0
H32 H 0.09525 0.14762 0.08324 0.0
H33 H 0.10005 0.22318 0.10559 0.0
H34 H 0.26618 0.36891 0.02802 0.0
H35 H 0.26131 0.29245 1.00518 0.0
H36 H 0.93626 0.85124 0.91256 0.0
H37 H 0.94255 0.77665 0.89825 0.0
H38 H 0.87795 0.66353 0.01943 0.0
H39 H 0.86835 0.73723 0.03304 0.0
La40 La 0.00796 0.02794 0.53551 0.0
La41 La 0.06343 -0.00202 0.48661 0.0
C42 C 0.9792 0.0879 0.554 0.0
C43 C 0.92188 0.08094 0.56475 0.0
C44 C 0.88304 0.03592 0.59838 0.0
C45 C 0.83817 0.0388 0.61283 0.0
C46 C 0.83183 0.08674 0.59392 0.0
C47 C 0.8658 0.1277 0.55787 0.0
C48 C 0.91066 0.12487 0.5435 0.0
C49 C 0.95791 0.90932 0.56453 0.0
C50 C 0.92262 0.96107 0.46592 0.0
C51 C 0.11201 0.96317 0.45638 0.0
C52 C 0.17221 0.96754 0.45617 0.0
C53 C 0.21435 0.00646 0.4229 0.0
C54 C 0.25964 -0.00149 0.41537 0.0
C55 C 0.26295 0.95103 0.4408 0.0
C56 C 0.22715 0.91774 0.47697 0.0
C57 C 0.18162 0.9256 0.48449 0.0
C58 C 0.08349 0.10662 0.45747 0.0
C59 C 0.14252 0.04763 0.56336 0.0
O60 O 0.9994 0.05736 0.58034 0.0
O61 O 0.98132 0.08834 0.51663 0.0
O62 O 0.94511 0.93889 0.57809 0.0
O63 O 0.99737 0.94707 0.5355 0.0
O64 O 0.93354 0.99681 0.48786 0.0
O65 O 0.96336 0.94763 0.46552 0.0
O66 O 0.11596 0.01337 0.43996 0.0
O67 O 0.07553 0.93039 0.48878 0.0
O68 O 0.06631 0.06904 0.43628 0.0
O69 O 0.08791 0.08213 0.49391 0.0
O70 O 0.13796 0.02449 0.53436 0.0
O71 O 0.10043 0.05791 0.56743 0.0
H72 H 0.88997 0.00076 0.61486 0.0
H73 H 0.81153 0.00589 0.64023 0.0
H74 H 0.86224 0.16529 0.54264 0.0
H75 H 0.93984 0.15965 0.51728 0.0
H76 H 0.20826 0.03933 0.40062 0.0
H77 H 0.28642 0.02492 0.38725 0.0
H78 H 0.22974 0.8816 0.49747 0.0
H79 H 0.15023 0.89535 0.51065 0.0
Zn80 Zn 0.41182 0.73106 0.18957 0.0
Zn81 Zn 0.40538 0.67765 0.36617 0.0
Zn82 Zn 0.40717 0.70385 0.25852 0.0
C83 C 0.51252 0.74025 0.30637 0.0
C84 C 0.32645 0.56587 0.33406 0.0
O85 O 0.35563 0.75243 0.23538 0.0
O86 O 0.35507 0.75656 0.17157 0.0
C87 C 0.53554 0.78384 0.19211 0.0
O88 O 0.51201 0.74891 0.26847 0.0
O89 O 0.45706 0.70841 0.32146 0.0
O90 O 0.34205 0.59122 0.36273 0.0
O91 O 0.3462 0.59882 0.29704 0.0
O92 O 0.49747 0.78583 0.16386 0.0
O93 O 0.51273 0.75607 0.22882 0.0
O94 O 0.34292 0.61182 0.25315 0.0
O95 O 0.36746 0.64666 0.18849 0.0
C96 C 0.33758 0.60245 0.21855 0.0
O97 O 0.37896 0.7534 0.27872 0.0
O98 O 0.3763 0.73175 0.34682 0.0
C99 C 0.33833 0.7658 0.19843 0.0
C100 C 0.37038 0.75973 0.31177 0.0
Zn101 Zn 0.67168 0.28739 0.87376 0.0
Zn102 Zn 0.66095 0.34574 0.66636 0.0
Zn103 Zn 0.67788 0.32114 0.76681 0.0
C104 C 0.74483 0.45872 0.69185 0.0
C105 C 0.54122 0.26519 0.71664 0.0
O106 O 0.72596 0.27208 0.80476 0.0
O107 O 0.71257 0.24659 0.87204 0.0
C108 C 0.73915 0.40451 0.80822 0.0
O109 O 0.73576 0.42539 0.72898 0.0
O110 O 0.71709 0.43398 0.66251 0.0
O111 O 0.56848 0.29558 0.68238 0.0
O112 O 0.57393 0.26877 0.75012 0.0
O113 O 0.70433 0.34888 0.82523 0.0
O114 O 0.74062 0.41659 0.77013 0.0
O115 O 0.57404 0.26906 0.79474 0.0
O116 O 0.57537 0.2457 0.86287 0.0
C117 C 0.54455 0.24483 0.82941 0.0
O118 O 0.72109 0.27625 0.76295 0.0
O119 O 0.69586 0.30501 0.70234 0.0
C120 C 0.73393 0.24718 0.84177 0.0
C121 C 0.71872 0.27832 0.72578 0.0
H122 H 0.08683 0.89669 0.14305 0.0
H123 H 0.3378 0.82662 0.12228 0.0
H124 H 0.17264 0.93515 0.03302 0.0
H125 H 0.25669 0.77205 0.23863 0.0
H126 H 0.27619 0.86676 0.09212 0.0
H127 H 0.14541 0.85141 0.18083 0.0
C128 C 0.11785 0.8953 0.12697 0.0
C129 C 0.12491 0.91916 0.08494 0.0
C130 C 0.27147 0.84654 0.12432 0.0
C131 C 0.1922 0.86866 0.12758 0.0
C132 C 0.3071 0.82315 0.14196 0.0
C133 C 0.30301 0.79528 0.18352 0.0
C134 C 0.23064 0.84346 0.14788 0.0
C135 C 0.26225 0.79357 0.20668 0.0
C136 C 0.15122 0.86965 0.14847 0.0
C137 C 0.1656 0.91684 0.06534 0.0
N138 N 0.2274 0.81731 0.18851 0.0
N139 N 0.19756 0.89227 0.08676 0.0
H140 H 0.25424 0.16165 0.54857 0.0
H141 H 0.4708 0.14124 0.73327 0.0
H142 H 0.16155 0.98737 0.63635 0.0
H143 H 0.45423 0.29141 0.69044 0.0
H144 H 0.36724 0.0785 0.69759 0.0
H145 H 0.34563 0.20715 0.59594 0.0
C146 C 0.25406 0.13293 0.57767 0.0
C147 C 0.20131 0.0711 0.5889 0.0
C148 C 0.38513 0.12436 0.69746 0.0
C149 C 0.30373 0.12256 0.64322 0.0
C150 C 0.44322 0.15963 0.7184 0.0
C151 C 0.46987 0.22099 0.71525 0.0
C152 C 0.35539 0.15173 0.67285 0.0
C153 C 0.43428 0.24389 0.69412 0.0
C154 C 0.30546 0.15883 0.60473 0.0
C155 C 0.20223 0.03536 0.62693 0.0
N156 N 0.37973 0.2098 0.6728 0.0
N157 N 0.25306 0.06168 0.65308 0.0
H158 H 0.24226 0.30417 0.1406 0.0
H159 H 0.23588 0.56898 0.16774 0.0
H160 H 0.16291 0.3902 0.05145 0.0
H161 H 0.34479 0.5055 0.24634 0.0
H162 H 0.19197 0.49098 0.1314 0.0
H163 H 0.26764 0.36798 0.1845 0.0
C164 C 0.23038 0.33689 0.13046 0.0
C165 C 0.20058 0.34242 0.0928 0.0
C166 C 0.22387 0.49272 0.15728 0.0
C167 C 0.22856 0.41475 0.14264 0.0
C168 C 0.24784 0.5363 0.17848 0.0
C169 C 0.29287 0.54242 0.21026 0.0
C170 C 0.24502 0.45491 0.1682 0.0
C171 C 0.30904 0.50099 0.22242 0.0
C172 C 0.24461 0.37302 0.15544 0.0
C173 C 0.18602 0.38508 0.08047 0.0
N174 N 0.28548 0.45902 0.20099 0.0
N175 N 0.20018 0.41988 0.10552 0.0
H176 H 0.75363 0.12621 0.56234 0.0
H177 H 0.78852 0.22982 0.76017 0.0
H178 H 0.84232 0.0835 0.67365 0.0
H179 H 0.68318 0.25458 0.6522 0.0
H180 H 0.8062 0.17268 0.73033 0.0
H181 H 0.72259 0.16935 0.59617 0.0
C182 C 0.76557 0.12501 0.59405 0.0
C183 C 0.80065 0.10132 0.6152 0.0
C184 C 0.77872 0.19028 0.71342 0.0
C185 C 0.76626 0.15117 0.654 0.0
C186 C 0.76824 0.22227 0.73069 0.0
C187 C 0.73313 0.24555 0.70924 0.0
C188 C 0.75449 0.18253 0.67427 0.0
C189 C 0.71035 0.23716 0.67011 0.0
C190 C 0.74806 0.14975 0.61336 0.0
C191 C 0.81457 0.10055 0.6563 0.0
N192 N 0.72146 0.20648 0.65396 0.0
N193 N 0.79796 0.12575 0.67425 0.0
H194 H 0.84911 0.89678 0.04468 0.0
H195 H 0.66006 0.8698 0.2192 0.0
H196 H 0.94833 -0.00124 0.13597 0.0
H197 H 0.56195 0.75658 0.1345 0.0
H198 H 0.76674 0.91534 0.19081 0.0
H199 H 0.74324 0.84327 0.0777 0.0
C200 C 0.84875 0.90735 0.07185 0.0
C201 C 0.90779 0.95204 0.08768 0.0
C202 C 0.72189 0.87972 0.17889 0.0
C203 C 0.78698 0.89158 0.12553 0.0
C204 C 0.66105 0.85278 0.19581 0.0
C205 C 0.60205 0.80739 0.18042 0.0
C206 C 0.72366 0.86192 0.14587 0.0
C207 C 0.6063 0.79054 0.14786 0.0
C208 C 0.78833 0.87706 0.09067 0.0
C209 C 0.90413 0.96454 0.12271 0.0
N210 N 0.66559 0.81772 0.13169 0.0
N211 N 0.84517 0.93474 0.1403 0.0
H212 H 0.97033 0.83131 0.54014 0.0
H213 H 0.75537 0.54138 0.72583 0.0
H214 H 0.88517 0.83702 0.63216 0.0
H215 H 0.82977 0.5325 0.62963 0.0
H216 H 0.80985 0.65196 0.69492 0.0
H217 H 0.92428 0.72311 0.5743 0.0
C218 C 0.94228 0.81008 0.56749 0.0
C219 C 0.93184 0.84363 0.58328 0.0
C220 C 0.81493 0.62586 0.68091 0.0
C221 C 0.87921 0.71978 0.62277 0.0
C222 C 0.78452 0.56284 0.69893 0.0
C223 C 0.7883 0.52743 0.68055 0.0
C224 C 0.8496 0.65378 0.64438 0.0
C225 C 0.82562 0.55788 0.645 0.0
C226 C 0.91591 0.74824 0.58704 0.0
C227 C 0.89462 0.81321 0.6188 0.0
N228 N 0.85429 0.61869 0.6281 0.0
N229 N 0.86991 0.75352 0.63724 0.0
H230 H 0.20362 0.83208 0.44297 0.0
H231 H 0.45856 0.87891 0.31343 0.0
H232 H 0.37845 0.01438 0.39936 0.0
H233 H 0.25091 0.73288 0.31693 0.0
H234 H 0.43756 0.93133 0.34581 0.0
H235 H 0.23101 0.79349 0.40323 0.0
C236 C 0.24886 0.86389 0.42585 0.0
C237 C 0.28883 0.92668 0.42449 0.0
C238 C 0.3964 0.889 0.33809 0.0
C239 C 0.31901 0.88273 0.37744 0.0
C240 C 0.40811 0.85973 0.3189 0.0
C241 C 0.35598 0.80243 0.31149 0.0
C242 C 0.33234 0.85978 0.35064 0.0
C243 C 0.29203 0.77778 0.32112 0.0
C244 C 0.26366 0.84193 0.40243 0.0
C245 C 0.34613 0.96569 0.40096 0.0
N246 N 0.28209 0.80608 0.3408 0.0
N247 N 0.35959 0.9431 0.37815 0.0
H248 H 0.2102 0.14549 0.94784 0.0
H249 H 0.43588 0.12813 0.82777 0.0
H250 H 0.15241 0.98107 0.92127 0.0
H251 H 0.49467 0.29689 0.84727 0.0
H252 H 0.32917 0.07508 0.85892 0.0
H253 H 0.3137 0.20323 0.91064 0.0
C254 C 0.21952 0.12141 0.93469 0.0
C255 C 0.17235 0.05822 0.93782 0.0
C256 C 0.36466 0.12409 0.85554 0.0
C257 C 0.29047 0.1239 0.89486 0.0
C258 C 0.42523 0.15459 0.83692 0.0
C259 C 0.47366 0.21763 0.83339 0.0
C260 C 0.35232 0.15645 0.8715 0.0
C261 C 0.45804 0.24874 0.84803 0.0
C262 C 0.2784 0.15442 0.91313 0.0
C263 C 0.18698 0.02971 0.91959 0.0
N264 N 0.39931 0.21801 0.86656 0.0
N265 N 0.24426 0.06244 0.89919 0.0
H266 H 0.15449 0.20244 0.4951 0.0
H267 H 0.24376 0.47234 0.29111 0.0
H268 H 0.08558 0.16413 0.37804 0.0
H269 H 0.32277 0.49938 0.40984 0.0
H270 H 0.18291 0.36011 0.32018 0.0
H271 H 0.21168 0.31228 0.46287 0.0
C272 C 0.15092 0.21701 0.46265 0.0
C273 C 0.11504 0.17368 0.43932 0.0
C274 C 0.21386 0.39112 0.3396 0.0
C275 C 0.18125 0.30036 0.40178 0.0
C276 C 0.24931 0.4554 0.32284 0.0
C277 C 0.2894 0.49671 0.34758 0.0
C278 C 0.21807 0.3679 0.38143 0.0
C279 C 0.29252 0.47065 0.38901 0.0
C280 C 0.18391 0.27996 0.4441 0.0
C281 C 0.11269 0.19582 0.39725 0.0
N282 N 0.25764 0.40896 0.4043 0.0
N283 N 0.14525 0.25729 0.37986 0.0
H284 H 0.99571 0.15999 0.97729 0.0
H285 H 0.71813 0.15367 0.81855 0.0
H286 H 0.87961 0.02395 0.90785 0.0
H287 H 0.83908 0.28406 0.89141 0.0
H288 H 0.77884 0.10789 0.84647 0.0
H289 H 0.9397 0.20691 0.94325 0.0
C290 C 0.95872 0.14015 0.95459 0.0
C291 C 0.94281 0.08801 0.94536 0.0
C292 C 0.79257 0.14706 0.85586 0.0
C293 C 0.87771 0.14212 0.90575 0.0
C294 C 0.75861 0.17372 0.83947 0.0
C295 C 0.77498 0.22398 0.85174 0.0
C296 C 0.84226 0.17028 0.88524 0.0
C297 C 0.82571 0.24622 0.88044 0.0
C298 C 0.92644 0.167 0.93511 0.0
C299 C 0.89352 0.06409 0.91597 0.0
N300 N 0.85712 0.21928 0.89617 0.0
N301 N 0.86282 0.09138 0.89714 0.0
H302 H 0.91432 0.95178 0.38989 0.0
H303 H 0.52179 0.74196 0.38511 0.0
H304 H 0.79734 0.91054 0.48515 0.0
H305 H 0.63979 0.8082 0.28259 0.0
H306 H 0.62197 0.79984 0.42322 0.0
H307 H 0.81418 0.89953 0.34991 0.0
C308 C 0.86726 0.93179 0.4022 0.0
C309 C 0.8634 0.93498 0.44069 0.0
C310 C 0.62602 0.80228 0.39224 0.0
C311 C 0.74901 0.87418 0.39579 0.0
C312 C 0.56889 0.76894 0.3705 0.0
C313 C 0.57279 0.77159 0.33025 0.0
C314 C 0.68741 0.8383 0.3736 0.0
C315 C 0.63492 0.80661 0.31306 0.0
C316 C 0.81027 0.90206 0.37945 0.0
C317 C 0.80187 0.90908 0.45539 0.0
N318 N 0.69 0.8389 0.33479 0.0
N319 N 0.74667 0.87895 0.43304 0.0
H320 H 0.81293 0.59153 0.98045 0.0
H321 H 0.84767 0.52519 0.78743 0.0
H322 H 0.98786 0.72136 0.90714 0.0
H323 H 0.71047 0.38692 0.88374 0.0
H324 H 0.9049 0.59768 0.83101 0.0
H325 H 0.78241 0.51386 0.94839 0.0
C326 C 0.84621 0.60346 0.95845 0.0
C327 C 0.90241 0.66368 0.94595 0.0
C328 C 0.86271 0.55117 0.84258 0.0
C329 C 0.86577 0.57478 0.90745 0.0
C330 C 0.82976 0.51028 0.81763 0.0
C331 C 0.7743 0.45038 0.83206 0.0
C332 C 0.83898 0.53177 0.88169 0.0
C333 C 0.75321 0.43268 0.87145 0.0
C334 C 0.8282 0.55896 0.93965 0.0
C335 C 0.94286 0.67596 0.91676 0.0
N336 N 0.78522 0.47325 0.89468 0.0
N337 N 0.92295 0.63222 0.89772 0.0
loop_
_geom_bond_atom_site_label_1
_geom_bond_atom_site_label_2
_geom_bond_distance
_geom_bond_site_symmetry_2
_ccdc_geom_bond_type
La0 C2 2.928 . S
La0 O20 2.521 . S
La0 O21 2.628 . S
La0 O22 2.554 1_445 S
La0 O23 2.757 1_445 S
La0 O24 2.470 . S
La0 O29 2.482 1_554 S
La0 O31 2.503 1_545 S
La1 C11 2.928 . S
La1 O23 2.482 1_556 S
La1 O25 2.503 1_565 S
La1 O26 2.521 . S
La1 O27 2.628 . S
La1 O28 2.554 1_665 S
La1 O29 2.757 1_665 S
La1 O30 2.470 1_656 S
C2 La0 2.928 . S
C2 C3 1.503 . S
C2 O20 1.261 . S
C2 O21 1.243 . S
C3 C2 1.503 . S
C3 C4 1.394 . S
C3 C8 1.373 . S
C4 C3 1.394 . S
C4 C5 1.380 . S
C4 H32 0.930 . S
C5 C4 1.380 . S
C5 C6 1.376 . S
C5 H33 0.930 . S
C6 C5 1.376 . S
C6 C7 1.370 . S
C7 C6 1.370 . S
C7 C8 1.396 . S
C7 H34 0.929 . S
C8 C3 1.373 . S
C8 C7 1.396 . S
C8 H35 0.929 . S
C9 O22 1.240 . S
C9 O23 1.289 . S
C10 O24 1.258 1_656 S
C10 O25 1.256 . S
C11 La1 2.928 . S
C11 C12 1.503 . S
C11 O26 1.261 . S
C11 O27 1.243 . S
C12 C11 1.503 . S
C12 C13 1.394 . S
C12 C17 1.373 . S
C13 C12 1.394 . S
C13 C14 1.380 . S
C13 H36 0.930 . S
C14 C13 1.380 . S
C14 C15 1.376 . S
C14 H37 0.930 . S
C15 C14 1.376 . S
C15 C16 1.370 . S
C16 C15 1.370 . S
C16 C17 1.396 . S
C16 H38 0.929 . S
C17 C12 1.373 . S
C17 C16 1.396 . S
C17 H39 0.929 1_556 S
C18 O28 1.240 . S
C18 O29 1.289 . S
C19 O30 1.258 . S
C19 O31 1.256 . S
O20 La0 2.521 . S
O20 C2 1.261 . S
O21 La0 2.628 . S
O21 C2 1.243 . S
O22 La0 2.554 1_665 S
O22 C9 1.240 . S
O23 La0 2.757 1_665 S
O23 La1 2.482 1_554 S
O23 C9 1.289 . S
O24 La0 2.470 . S
O24 C10 1.258 1_454 S
O25 La1 2.503 1_545 S
O25 C10 1.256 . S
O26 La1 2.521 . S
O26 C11 1.261 . S
O27 La1 2.628 . S
O27 C11 1.243 . S
O28 La1 2.554 1_445 S
O28 C18 1.240 . S
O29 La0 2.482 1_556 S
O29 La1 2.757 1_445 S
O29 C18 1.289 . S
O30 La1 2.470 1_454 S
O30 C19 1.258 . S
O31 La0 2.503 1_565 S
O31 C19 1.256 . S
H32 C4 0.930 . S
H33 C5 0.930 . S
H34 C7 0.929 . S
H35 C8 0.929 . S
H36 C13 0.930 . S
H37 C14 0.930 . S
H38 C16 0.929 . S
H39 C17 0.929 1_554 S
La40 C42 2.928 1_455 S
La40 O60 2.521 1_455 S
La40 O61 2.628 1_455 S
La40 O62 2.554 1_445 S
La40 O63 2.757 1_545 S
La40 O64 2.470 1_445 S
La40 O69 2.482 . S
La40 O71 2.503 . S
La41 C51 2.928 . S
La41 O63 2.482 . S
La41 O65 2.503 1_455 S
La41 O66 2.521 1_565 S
La41 O67 2.628 . S
La41 O68 2.554 1_565 S
La41 O69 2.757 1_565 S
La41 O70 2.470 1_565 S
C42 La40 2.928 1_655 S
C42 C43 1.503 . S
C42 O60 1.261 . S
C42 O61 1.243 . S
C43 C42 1.503 . S
C43 C44 1.394 . S
C43 C48 1.373 . S
C44 C43 1.394 . S
C44 C45 1.380 . S
C44 H72 0.930 . S
C45 C44 1.380 . S
C45 C46 1.376 . S
C45 H73 0.930 . S
C46 C45 1.376 . S
C46 C47 1.370 . S
C47 C46 1.370 . S
C47 C48 1.396 . S
C47 H74 0.929 . S
C48 C43 1.373 . S
C48 C47 1.396 . S
C48 H75 0.929 . S
C49 O62 1.240 . S
C49 O63 1.289 1_655 S
C50 O64 1.258 . S
C50 O65 1.256 . S
C51 La41 2.928 . S
C51 C52 1.503 . S
C51 O66 1.261 1_565 S
C51 O67 1.243 . S
C52 C51 1.503 . S
C52 C53 1.394 . S
C52 C57 1.373 . S
C53 C52 1.394 . S
C53 C54 1.380 . S
C53 H76 0.930 1_565 S
C54 C53 1.380 . S
C54 C55 1.376 . S
C54 H77 0.930 1_565 S
C55 C54 1.376 . S
C55 C56 1.370 . S
C56 C55 1.370 . S
C56 C57 1.396 . S
C56 H78 0.929 . S
C57 C52 1.373 . S
C57 C56 1.396 . S
C57 H79 0.929 . S
C58 O68 1.240 . S
C58 O69 1.289 . S
C59 O70 1.258 . S
C59 O71 1.256 . S
O60 La40 2.521 1_655 S
O60 C42 1.261 . S
O61 La40 2.628 1_655 S
O61 C42 1.243 . S
O62 La40 2.554 1_665 S
O62 C49 1.240 . S
O63 La40 2.757 1_565 S
O63 La41 2.482 . S
O63 C49 1.289 1_455 S
O64 La40 2.470 1_665 S
O64 C50 1.258 . S
O65 La41 2.503 1_655 S
O65 C50 1.256 . S
O66 La41 2.521 1_545 S
O66 C51 1.261 1_545 S
O67 La41 2.628 . S
O67 C51 1.243 . S
O68 La41 2.554 1_545 S
O68 C58 1.240 . S
O69 La40 2.482 . S
O69 La41 2.757 1_545 S
O69 C58 1.289 . S
O70 La41 2.470 1_545 S
O70 C59 1.258 . S
O71 La40 2.503 . S
O71 C59 1.256 . S
H72 C44 0.930 . S
H73 C45 0.930 . S
H74 C47 0.929 . S
H75 C48 0.929 . S
H76 C53 0.930 1_545 S
H77 C54 0.930 1_545 S
H78 C56 0.929 . S
H79 C57 0.929 . S
Zn80 O86 1.920 . S
Zn80 O92 1.898 . S
Zn80 O95 1.905 . S
Zn81 O89 1.905 . S
Zn81 O90 1.898 . S
Zn81 O98 1.920 . S
Zn82 O85 2.080 . S
Zn82 O88 2.114 . S
Zn82 O91 2.120 . S
Zn82 O93 2.120 . S
Zn82 O94 2.114 . S
Zn82 O97 2.080 . S
C83 O88 1.166 . S
C83 O89 1.182 . S
C84 O90 1.167 . S
C84 O91 1.299 . S
O85 Zn82 2.080 . S
O85 C99 1.305 . S
O86 Zn80 1.920 . S
O86 C99 1.234 . S
C87 O92 1.167 . S
C87 O93 1.299 . S
O88 Zn82 2.114 . S
O88 C83 1.166 . S
O89 Zn81 1.905 . S
O89 C83 1.182 . S
O90 Zn81 1.898 . S
O90 C84 1.167 . S
O91 Zn82 2.120 . S
O91 C84 1.299 . S
O92 Zn80 1.898 . S
O92 C87 1.167 . S
O93 Zn82 2.120 . S
O93 C87 1.299 . S
O94 Zn82 2.114 . S
O94 C96 1.166 . S
O95 Zn80 1.905 . S
O95 C96 1.182 . S
C96 O94 1.166 . S
C96 O95 1.182 . S
O97 Zn82 2.080 . S
O97 C100 1.305 . S
O98 Zn81 1.920 . S
O98 C100 1.234 . S
C99 O85 1.305 . S
C99 O86 1.234 . S
C100 O97 1.305 . S
C100 O98 1.234 . S
Zn101 O107 1.920 . S
Zn101 O113 1.898 . S
Zn101 O116 1.905 . S
Zn102 O110 1.905 . S
Zn102 O111 1.898 . S
Zn102 O119 1.920 . S
Zn103 O106 2.080 . S
Zn103 O109 2.114 . S
Zn103 O112 2.120 . S
Zn103 O114 2.120 . S
Zn103 O115 2.114 . S
Zn103 O118 2.080 . S
C104 O109 1.166 . S
C104 O110 1.182 . S
C105 O111 1.167 . S
C105 O112 1.299 . S
O106 Zn103 2.080 . S
O106 C120 1.305 . S
O107 Zn101 1.920 . S
O107 C120 1.234 . S
C108 O113 1.167 . S
C108 O114 1.299 . S
O109 Zn103 2.114 . S
O109 C104 1.166 . S
O110 Zn102 1.905 . S
O110 C104 1.182 . S
O111 Zn102 1.898 . S
O111 C105 1.167 . S
O112 Zn103 2.120 . S
O112 C105 1.299 . S
O113 Zn101 1.898 . S
O113 C108 1.167 . S
O114 Zn103 2.120 . S
O114 C108 1.299 . S
O115 Zn103 2.114 . S
O115 C117 1.166 . S
O116 Zn101 1.905 . S
O116 C117 1.182 . S
C117 O115 1.166 . S
C117 O116 1.182 . S
O118 Zn103 2.080 . S
O118 C121 1.305 . S
O119 Zn102 1.920 . S
O119 C121 1.234 . S
C120 O106 1.305 . S
C120 O107 1.234 . S
C121 O118 1.305 . S
C121 O119 1.234 . S
H122 C128 0.930 . S
H123 C132 0.930 . S
H124 C137 0.929 . S
H125 C135 0.929 . S
H126 C130 0.929 . S
H127 C136 0.929 . S
C128 H122 0.930 . S
C128 C129 1.367 . S
C128 C136 1.378 . S
C129 C128 1.367 . S
C129 C137 1.433 . S
C130 H126 0.929 . S
C130 C132 1.378 . S
C130 C134 1.350 . S
C131 C134 1.463 . S
C131 C136 1.350 . S
C131 N139 1.427 . S
C132 H123 0.930 . S
C132 C130 1.378 . S
C132 C133 1.367 . S
C133 C132 1.367 . S
C133 C135 1.433 . S
C134 C130 1.350 . S
C134 C131 1.463 . S
C134 N138 1.427 . S
C135 H125 0.929 . S
C135 C133 1.433 . S
C135 N138 1.384 . S
C136 H127 0.929 . S
C136 C128 1.378 . S
C136 C131 1.350 . S
C137 H124 0.929 . S
C137 C129 1.433 . S
C137 N139 1.384 . S
N138 C134 1.427 . S
N138 C135 1.384 . S
N139 C131 1.427 . S
N139 C137 1.384 . S
H140 C146 0.930 . S
H141 C150 0.930 . S
H142 C155 0.929 1_565 S
H143 C153 0.929 . S
H144 C148 0.929 . S
H145 C154 0.929 . S
C146 H140 0.930 . S
C146 C147 1.367 . S
C146 C154 1.378 . S
C147 C146 1.367 . S
C147 C155 1.433 . S
C148 H144 0.929 . S
C148 C150 1.378 . S
C148 C152 1.350 . S
C149 C152 1.463 . S
C149 C154 1.350 . S
C149 N157 1.427 . S
C150 H141 0.930 . S
C150 C148 1.378 . S
C150 C151 1.367 . S
C151 C150 1.367 . S
C151 C153 1.433 . S
C152 C148 1.350 . S
C152 C149 1.463 . S
C152 N156 1.427 . S
C153 H143 0.929 . S
C153 C151 1.433 . S
C153 N156 1.384 . S
C154 H145 0.929 . S
C154 C146 1.378 . S
C154 C149 1.350 . S
C155 H142 0.929 1_545 S
C155 C147 1.433 . S
C155 N157 1.384 . S
N156 C152 1.427 . S
N156 C153 1.384 . S
N157 C149 1.427 . S
N157 C155 1.384 . S
H158 C164 0.930 . S
H159 C168 0.930 . S
H160 C173 0.929 . S
H161 C171 0.929 . S
H162 C166 0.929 . S
H163 C172 0.929 . S
C164 H158 0.930 . S
C164 C165 1.367 . S
C164 C172 1.378 . S
C165 C164 1.367 . S
C165 C173 1.433 . S
C166 H162 0.929 . S
C166 C168 1.378 . S
C166 C170 1.350 . S
C167 C170 1.463 . S
C167 C172 1.350 . S
C167 N175 1.427 . S
C168 H159 0.930 . S
C168 C166 1.378 . S
C168 C169 1.367 . S
C169 C168 1.367 . S
C169 C171 1.433 . S
C170 C166 1.350 . S
C170 C167 1.463 . S
C170 N174 1.427 . S
C171 H161 0.929 . S
C171 C169 1.433 . S
C171 N174 1.384 . S
C172 H163 0.929 . S
C172 C164 1.378 . S
C172 C167 1.350 . S
C173 H160 0.929 . S
C173 C165 1.433 . S
C173 N175 1.384 . S
N174 C170 1.427 . S
N174 C171 1.384 . S
N175 C167 1.427 . S
N175 C173 1.384 . S
H176 C182 0.930 . S
H177 C186 0.930 . S
H178 C191 0.929 . S
H179 C189 0.929 . S
H180 C184 0.929 . S
H181 C190 0.929 . S
C182 H176 0.930 . S
C182 C183 1.367 . S
C182 C190 1.378 . S
C183 C182 1.367 . S
C183 C191 1.433 . S
C184 H180 0.929 . S
C184 C186 1.378 . S
C184 C188 1.350 . S
C185 C188 1.463 . S
C185 C190 1.350 . S
C185 N193 1.427 . S
C186 H177 0.930 . S
C186 C184 1.378 . S
C186 C187 1.367 . S
C187 C186 1.367 . S
C187 C189 1.433 . S
C188 C184 1.350 . S
C188 C185 1.463 . S
C188 N192 1.427 . S
C189 H179 0.929 . S
C189 C187 1.433 . S
C189 N192 1.384 . S
C190 H181 0.929 . S
C190 C182 1.378 . S
C190 C185 1.350 . S
C191 H178 0.929 . S
C191 C183 1.433 . S
C191 N193 1.384 . S
N192 C188 1.427 . S
N192 C189 1.384 . S
N193 C185 1.427 . S
N193 C191 1.384 . S
H194 C200 0.930 . S
H195 C204 0.930 . S
H196 C209 0.929 . S
H197 C207 0.929 . S
H198 C202 0.929 . S
H199 C208 0.929 . S
C200 H194 0.930 . S
C200 C201 1.367 . S
C200 C208 1.378 . S
C201 C200 1.367 . S
C201 C209 1.433 . S
C202 H198 0.929 . S
C202 C204 1.378 . S
C202 C206 1.350 . S
C203 C206 1.463 . S
C203 C208 1.350 . S
C203 N211 1.427 . S
C204 H195 0.930 . S
C204 C202 1.378 . S
C204 C205 1.367 . S
C205 C204 1.367 . S
C205 C207 1.433 . S
C206 C202 1.350 . S
C206 C203 1.463 . S
C206 N210 1.427 . S
C207 H197 0.929 . S
C207 C205 1.433 . S
C207 N210 1.384 . S
C208 H199 0.929 . S
C208 C200 1.378 . S
C208 C203 1.350 . S
C209 H196 0.929 . S
C209 C201 1.433 . S
C209 N211 1.384 . S
N210 C206 1.427 . S
N210 C207 1.384 . S
N211 C203 1.427 . S
N211 C209 1.384 . S
H212 C218 0.930 . S
H213 C222 0.930 . S
H214 C227 0.929 . S
H215 C225 0.929 . S
H216 C220 0.929 . S
H217 C226 0.929 . S
C218 H212 0.930 . S
C218 C219 1.367 . S
C218 C226 1.378 . S
C219 C218 1.367 . S
C219 C227 1.433 . S
C220 H216 0.929 . S
C220 C222 1.378 . S
C220 C224 1.350 . S
C221 C224 1.463 . S
C221 C226 1.350 . S
C221 N229 1.427 . S
C222 H213 0.930 . S
C222 C220 1.378 . S
C222 C223 1.367 . S
C223 C222 1.367 . S
C223 C225 1.433 . S
C224 C220 1.350 . S
C224 C221 1.463 . S
C224 N228 1.427 . S
C225 H215 0.929 . S
C225 C223 1.433 . S
C225 N228 1.384 . S
C226 H217 0.929 . S
C226 C218 1.378 . S
C226 C221 1.350 . S
C227 H214 0.929 . S
C227 C219 1.433 . S
C227 N229 1.384 . S
N228 C224 1.427 . S
N228 C225 1.384 . S
N229 C221 1.427 . S
N229 C227 1.384 . S
H230 C236 0.930 . S
H231 C240 0.930 . S
H232 C245 0.929 1_545 S
H233 C243 0.929 . S
H234 C238 0.929 . S
H235 C244 0.929 . S
C236 H230 0.930 . S
C236 C237 1.367 . S
C236 C244 1.378 . S
C237 C236 1.367 . S
C237 C245 1.433 . S
C238 H234 0.929 . S
C238 C240 1.378 . S
C238 C242 1.350 . S
C239 C242 1.463 . S
C239 C244 1.350 . S
C239 N247 1.427 . S
C240 H231 0.930 . S
C240 C238 1.378 . S
C240 C241 1.367 . S
C241 C240 1.367 . S
C241 C243 1.433 . S
C242 C238 1.350 . S
C242 C239 1.463 . S
C242 N246 1.427 . S
C243 H233 0.929 . S
C243 C241 1.433 . S
C243 N246 1.384 . S
C244 H235 0.929 . S
C244 C236 1.378 . S
C244 C239 1.350 . S
C245 H232 0.929 1_565 S
C245 C237 1.433 . S
C245 N247 1.384 . S
N246 C242 1.427 . S
N246 C243 1.384 . S
N247 C239 1.427 . S
N247 C245 1.384 . S
H248 C254 0.930 . S
H249 C258 0.930 . S
H250 C263 0.929 . S
H251 C261 0.929 . S
H252 C256 0.929 . S
H253 C262 0.929 . S
C254 H248 0.930 . S
C254 C255 1.367 . S
C254 C262 1.378 . S
C255 C254 1.367 . S
C255 C263 1.433 . S
C256 H252 0.929 . S
C256 C258 1.378 . S
C256 C260 1.350 . S
C257 C260 1.463 . S
C257 C262 1.350 . S
C257 N265 1.427 . S
C258 H249 0.930 . S
C258 C256 1.378 . S
C258 C259 1.367 . S
C259 C258 1.367 . S
C259 C261 1.433 . S
C260 C256 1.350 . S
C260 C257 1.463 . S
C260 N264 1.427 . S
C261 H251 0.929 . S
C261 C259 1.433 . S
C261 N264 1.384 . S
C262 H253 0.929 . S
C262 C254 1.378 . S
C262 C257 1.350 . S
C263 H250 0.929 . S
C263 C255 1.433 . S
C263 N265 1.384 . S
N264 C260 1.427 . S
N264 C261 1.384 . S
N265 C257 1.427 . S
N265 C263 1.384 . S
H266 C272 0.930 . S
H267 C276 0.930 . S
H268 C281 0.929 . S
H269 C279 0.929 . S
H270 C274 0.929 . S
H271 C280 0.929 . S
C272 H266 0.930 . S
C272 C273 1.367 . S
C272 C280 1.378 . S
C273 C272 1.367 . S
C273 C281 1.433 . S
C274 H270 0.929 . S
C274 C276 1.378 . S
C274 C278 1.350 . S
C275 C278 1.463 . S
C275 C280 1.350 . S
C275 N283 1.427 . S
C276 H267 0.930 . S
C276 C274 1.378 . S
C276 C277 1.367 . S
C277 C276 1.367 . S
C277 C279 1.433 . S
C278 C274 1.350 . S
C278 C275 1.463 . S
C278 N282 1.427 . S
C279 H269 0.929 . S
C279 C277 1.433 . S
C279 N282 1.384 . S
C280 H271 0.929 . S
C280 C272 1.378 . S
C280 C275 1.350 . S
C281 H268 0.929 . S
C281 C273 1.433 . S
C281 N283 1.384 . S
N282 C278 1.427 . S
N282 C279 1.384 . S
N283 C275 1.427 . S
N283 C281 1.384 . S
H284 C290 0.930 . S
H285 C294 0.930 . S
H286 C299 0.929 . S
H287 C297 0.929 . S
H288 C292 0.929 . S
H289 C298 0.929 . S
C290 H284 0.930 . S
C290 C291 1.367 . S
C290 C298 1.378 . S
C291 C290 1.367 . S
C291 C299 1.433 . S
C292 H288 0.929 . S
C292 C294 1.378 . S
C292 C296 1.350 . S
C293 C296 1.463 . S
C293 C298 1.350 . S
C293 N301 1.427 . S
C294 H285 0.930 . S
C294 C292 1.378 . S
C294 C295 1.367 . S
C295 C294 1.367 . S
C295 C297 1.433 . S
C296 C292 1.350 . S
C296 C293 1.463 . S
C296 N300 1.427 . S
C297 H287 0.929 . S
C297 C295 1.433 . S
C297 N300 1.384 . S
C298 H289 0.929 . S
C298 C290 1.378 . S
C298 C293 1.350 . S
C299 H286 0.929 . S
C299 C291 1.433 . S
C299 N301 1.384 . S
N300 C296 1.427 . S
N300 C297 1.384 . S
N301 C293 1.427 . S
N301 C299 1.384 . S
H302 C308 0.930 . S
H303 C312 0.930 . S
H304 C317 0.929 . S
H305 C315 0.929 . S
H306 C310 0.929 . S
H307 C316 0.929 . S
C308 H302 0.930 . S
C308 C309 1.367 . S
C308 C316 1.378 . S
C309 C308 1.367 . S
C309 C317 1.433 . S
C310 H306 0.929 . S
C310 C312 1.378 . S
C310 C314 1.350 . S
C311 C314 1.463 . S
C311 C316 1.350 . S
C311 N319 1.427 . S
C312 H303 0.930 . S
C312 C310 1.378 . S
C312 C313 1.367 . S
C313 C312 1.367 . S
C313 C315 1.433 . S
C314 C310 1.350 . S
C314 C311 1.463 . S
C314 N318 1.427 . S
C315 H305 0.929 . S
C315 C313 1.433 . S
C315 N318 1.384 . S
C316 H307 0.929 . S
C316 C308 1.378 . S
C316 C311 1.350 . S
C317 H304 0.929 . S
C317 C309 1.433 . S
C317 N319 1.384 . S
N318 C314 1.427 . S
N318 C315 1.384 . S
N319 C311 1.427 . S
N319 C317 1.384 . S
H320 C326 0.930 . S
H321 C330 0.930 . S
H322 C335 0.929 . S
H323 C333 0.929 . S
H324 C328 0.929 . S
H325 C334 0.929 . S
C326 H320 0.930 . S
C326 C327 1.367 . S
C326 C334 1.378 . S
C327 C326 1.367 . S
C327 C335 1.433 . S
C328 H324 0.929 . S
C328 C330 1.378 . S
C328 C332 1.350 . S
C329 C332 1.463 . S
C329 C334 1.350 . S
C329 N337 1.427 . S
C330 H321 0.930 . S
C330 C328 1.378 . S
C330 C331 1.367 . S
C331 C330 1.367 . S
C331 C333 1.433 . S
C332 C328 1.350 . S
C332 C329 1.463 . S
C332 N336 1.427 . S
C333 H323 0.929 . S
C333 C331 1.433 . S
C333 N336 1.384 . S
C334 H325 0.929 . S
C334 C326 1.378 . S
C334 C329 1.350 . S
C335 H322 0.929 . S
C335 C327 1.433 . S
C335 N337 1.384 . S
N336 C332 1.427 . S
N336 C333 1.384 . S
N337 C329 1.427 . S
N337 C335 1.384 . S
C129 C19 1.880 . S
C133 C99 1.834 . S
C147 C59 1.201 . S
C151 C105 1.148 . S
C165 C6 0.896 . S
C169 C96 0.835 . S
C183 C46 1.407 . S
C187 C121 1.283 . S
C201 C9 2.108 . S
C205 C87 2.004 . S
C223 C104 2.283 . S
C219 C49 2.347 . S
C237 C55 1.253 . S
C241 C100 1.173 . S
C259 C117 1.751 . S
C255 C18 1.817 . S
C277 C84 2.101 . S
C273 C58 2.183 . S
C295 C120 2.064 . S
C291 C10 2.082 . S
C313 C83 1.380 . S
C309 C50 1.454 . S
C331 C108 0.863 . S
C327 C15 0.903 . S
