# Generated by pormake.
# Topology zzz, (3,6)-cn, num edge types: 1
# Building blocks:
#     Node 0, Type 0, BuildingBlock: WUSLED_clean_sbu_0, # of connection points: 3
#     Node 1, Type 0, BuildingBlock: WUSLED_clean_sbu_0, # of connection points: 3
#     Node 2, Type 0, BuildingBlock: WUSLED_clean_sbu_0, # of connection points: 3
#     Node 3, Type 0, BuildingBlock: WUSLED_clean_sbu_0, # of connection points: 3
#     Node 4, Type 0, BuildingBlock: WUSLED_clean_sbu_0, # of connection points: 3
#     Node 5, Type 0, BuildingBlock: WUSLED_clean_sbu_0, # of connection points: 3
#     Node 6, Type 0, BuildingBlock: WUSLED_clean_sbu_0, # of connection points: 3
#     Node 7, Type 0, BuildingBlock: WUSLED_clean_sbu_0, # of connection points: 3
#     Node 8, Type 1, BuildingBlock: BETFAJ_clean_sbu_0, # of connection points: 6
#     Node 9, Type 1, BuildingBlock: BETFAJ_clean_sbu_0, # of connection points: 6
#     Node 10, Type 1, BuildingBlock: BETFAJ_clean_sbu_0, # of connection points: 6
#     Node 11, Type 1, BuildingBlock: BETFAJ_clean_sbu_0, # of connection points: 6
#     Edge 12, Type (0, 1), BuildingBlock: KIFKEQ_clean_linker_1, # of connection points: 2
#     Edge 13, Type (0, 1), BuildingBlock: KIFKEQ_clean_linker_1, # of connection points: 2
#     Edge 14, Type (0, 1), BuildingBlock: KIFKEQ_clean_linker_1, # of connection points: 2
#     Edge 15, Type (0, 1), BuildingBlock: KIFKEQ_clean_linker_1, # of connection points: 2
#     Edge 16, Type (0, 1), BuildingBlock: KIFKEQ_clean_linker_1, # of connection points: 2
#     Edge 17, Type (0, 1), BuildingBlock: KIFKEQ_clean_linker_1, # of connection points: 2
#     Edge 18, Type (0, 1), BuildingBlock: KIFKEQ_clean_linker_1, # of connection points: 2
#     Edge 19, Type (0, 1), BuildingBlock: KIFKEQ_clean_linker_1, # of connection points: 2
#     Edge 20, Type (0, 1), BuildingBlock: KIFKEQ_clean_linker_1, # of connection points: 2
#     Edge 21, Type (0, 1), BuildingBlock: KIFKEQ_clean_linker_1, # of connection points: 2
#     Edge 22, Type (0, 1), BuildingBlock: KIFKEQ_clean_linker_1, # of connection points: 2
#     Edge 23, Type (0, 1), BuildingBlock: KIFKEQ_clean_linker_1, # of connection points: 2
#     Edge 24, Type (0, 1), BuildingBlock: KIFKEQ_clean_linker_1, # of connection points: 2
#     Edge 25, Type (0, 1), BuildingBlock: KIFKEQ_clean_linker_1, # of connection points: 2
#     Edge 26, Type (0, 1), BuildingBlock: KIFKEQ_clean_linker_1, # of connection points: 2
#     Edge 27, Type (0, 1), BuildingBlock: KIFKEQ_clean_linker_1, # of connection points: 2
#     Edge 28, Type (0, 1), BuildingBlock: KIFKEQ_clean_linker_1, # of connection points: 2
#     Edge 29, Type (0, 1), BuildingBlock: KIFKEQ_clean_linker_1, # of connection points: 2
#     Edge 30, Type (0, 1), BuildingBlock: KIFKEQ_clean_linker_1, # of connection points: 2
#     Edge 31, Type (0, 1), BuildingBlock: KIFKEQ_clean_linker_1, # of connection points: 2
#     Edge 32, Type (0, 1), BuildingBlock: KIFKEQ_clean_linker_1, # of connection points: 2
#     Edge 33, Type (0, 1), BuildingBlock: KIFKEQ_clean_linker_1, # of connection points: 2
#     Edge 34, Type (0, 1), BuildingBlock: KIFKEQ_clean_linker_1, # of connection points: 2
#     Edge 35, Type (0, 1), BuildingBlock: KIFKEQ_clean_linker_1, # of connection points: 2
# Relax obj value: 0.417
# Max RMSD: 0.266
# Mean RMSD: 0.248
data_MOF--net-zzz--node1-WUSLED_clean_sbu_0--node2-BETFAJ_clean_sbu_0--edge1-KIFKEQ_clean_linker_1
_symmetry_space_group_name_H-M    P1
_symmetry_Int_Tables_number       1
_symmetry_cell_setting            triclinic
loop_
_symmetry_equiv_pos_as_xyz
'x, y, z'
_cell_length_a     64.965241
_cell_length_b     64.918223
_cell_length_c     19.700549
_cell_angle_alpha  89.858837
_cell_angle_beta   90.221962
_cell_angle_gamma 89.799975
loop_
_atom_site_label
_atom_site_type_symbol
_atom_site_fract_x
_atom_site_fract_y
_atom_site_fract_z
_atom_type_partial_charge
C0 C 0.77624 0.53447 0.45077 0.0
C1 C 0.78732 0.51594 0.44295 0.0
C2 C 0.81794 0.53106 0.49601 0.0
C3 C 0.80786 0.51425 0.46538 0.0
C4 C 0.80681 0.54961 0.50322 0.0
C5 C 0.78628 0.55125 0.48106 0.0
U6 U 0.73357 0.52782 0.3169 0.0
O7 O 0.70126 0.51745 0.32332 0.0
O8 O 0.70823 0.5486 0.2873 0.0
C9 C 0.69399 0.53451 0.29593 0.0
C10 C 0.75432 0.53663 0.42829 0.0
C11 C 0.67913 0.53208 0.23901 0.0
C12 C 0.64361 0.53225 0.19808 0.0
C13 C 0.65792 0.53345 0.25153 0.0
C14 C 0.67152 0.52803 0.11838 0.0
C15 C 0.65017 0.52969 0.1305 0.0
C16 C 0.68581 0.52919 0.17196 0.0
C17 C 0.77927 0.50876 0.22666 0.0
C18 C 0.80991 0.48951 0.19661 0.0
C19 C 0.81251 0.51892 0.27184 0.0
C20 C 0.79131 0.52173 0.26761 0.0
C21 C 0.82202 0.50296 0.23574 0.0
C22 C 0.7886 0.49243 0.19199 0.0
C23 C 0.75694 0.51198 0.22327 0.0
O24 O 0.7507 0.55017 0.37989 0.0
O25 O 0.74378 0.51953 0.42032 0.0
O26 O 0.74628 0.50053 0.26544 0.0
O27 O 0.75123 0.53143 0.22295 0.0
H28 H 0.78018 0.50273 0.41918 0.0
H29 H 0.81593 0.49982 0.45784 0.0
H30 H 0.81386 0.56284 0.52711 0.0
H31 H 0.77818 0.56571 0.48794 0.0
H32 H 0.6274 0.53382 0.20964 0.0
H33 H 0.65239 0.53577 0.30277 0.0
H34 H 0.67722 0.52573 0.06738 0.0
H35 H 0.7021 0.52801 0.16095 0.0
H36 H 0.817 0.4772 0.16786 0.0
H37 H 0.82154 0.52936 0.30271 0.0
H38 H 0.78434 0.53419 0.29594 0.0
H39 H 0.77948 0.48212 0.161 0.0
C40 C 0.98584 0.78606 0.41476 0.0
C41 C 0.98423 0.80298 0.37013 0.0
C42 C 0.99198 0.82707 0.46212 0.0
C43 C 0.98722 0.82316 0.39351 0.0
C44 C 0.99386 0.81008 0.50645 0.0
C45 C 0.99077 0.78989 0.48311 0.0
U46 U 0.99727 0.73978 0.29895 0.0
O47 O 0.99821 0.70614 0.31692 0.0
O48 O 0.9754 0.71939 0.24694 0.0
C49 C 0.9839 0.70247 0.27111 0.0
C50 C 0.98184 0.76455 0.3916 0.0
C51 C 0.98854 0.68631 0.22026 0.0
C52 C 0.98667 0.65037 0.18493 0.0
C53 C 0.98364 0.66569 0.2341 0.0
C54 C 0.9998 0.67605 0.10735 0.0
C55 C 0.99463 0.65533 0.12048 0.0
C56 C 0.99685 0.69132 0.15665 0.0
C57 C 0.03561 0.77709 0.23456 0.0
C58 C 0.04823 0.80766 0.1779 0.0
C59 C 0.03555 0.80993 0.29326 0.0
C60 C 0.03188 0.78878 0.29316 0.0
C61 C 0.0431 0.81966 0.23481 0.0
C62 C 0.04439 0.78649 0.17768 0.0
C63 C 0.02717 0.75626 0.22939 0.0
O64 O 0.97392 0.76241 0.33051 0.0
O65 O 0.99621 0.75078 0.40511 0.0
O66 O 0.03042 0.74431 0.28238 0.0
O67 O 1.00804 0.75585 0.20759 0.0
H68 H 0.98062 0.80069 0.31698 0.0
H69 H 0.98592 0.83573 0.35752 0.0
H70 H 0.99725 0.8124 0.55974 0.0
H71 H 0.99201 0.77723 0.51883 0.0
H72 H 0.9828 0.63462 0.19762 0.0
H73 H 0.97722 0.66145 0.28283 0.0
H74 H 1.00568 0.68064 0.05826 0.0
H75 H 1.00072 0.70713 0.1446 0.0
H76 H 0.05386 0.81483 0.1319 0.0
H77 H 0.03161 0.81883 0.33785 0.0
H78 H 0.02504 0.78176 0.33755 0.0
H79 H 0.04714 0.77773 0.13186 0.0
C80 C 0.7435 0.01918 0.40788 0.0
C81 C 0.72719 0.03154 0.38366 0.0
C82 C 0.70336 0.0163 0.46535 0.0
C83 C 0.70744 0.03008 0.41175 0.0
C84 C 0.71967 1.0039 0.48953 0.0
C85 C 0.73944 1.00535 0.46132 0.0
U86 U 0.78658 1.00549 0.28053 0.0
O87 O 0.80786 0.02661 0.22941 0.0
O88 O 0.82028 1.0016 0.29256 0.0
C89 C 0.82439 0.01652 0.24942 0.0
C90 C 0.76475 0.02151 0.37994 0.0
C91 C 0.83983 1.01212 0.19597 0.0
C92 C 0.87577 1.01148 0.16032 0.0
C93 C 0.8609 0.01348 0.21143 0.0
C94 C 0.84874 1.00625 0.07741 0.0
C95 C 0.86988 1.00823 0.09233 0.0
C96 C 0.8339 1.00812 0.12861 0.0
C97 C 0.74553 0.97097 0.21406 0.0
C98 C 0.71739 0.94949 0.17538 0.0
C99 C 0.71091 0.97723 0.25471 0.0
C100 C 0.7318 0.98191 0.25525 0.0
C101 C 0.70329 0.96132 0.21328 0.0
C102 C 0.73837 0.95438 0.17548 0.0
C103 C 0.76689 0.97797 0.20865 0.0
O104 O 0.77757 1.00596 0.3885 0.0
O105 O 0.76627 0.02996 0.31944 0.0
O106 O 0.76871 0.99732 0.18984 0.0
O107 O 0.77883 0.97306 0.26026 0.0
H108 H 0.72971 0.0426 0.3433 0.0
H109 H 0.69546 0.04015 0.39231 0.0
H110 H 0.71715 0.99293 0.53012 0.0
H111 H 0.7516 0.99569 0.48184 0.0
H112 H 0.89185 1.01325 0.17372 0.0
H113 H 0.86587 0.01665 0.2629 0.0
H114 H 0.84363 1.00342 0.02589 0.0
H115 H 0.81776 1.0069 0.11523 0.0
H116 H 0.71215 0.93691 0.14384 0.0
H117 H 0.70065 0.98696 0.28376 0.0
H118 H 0.73713 0.99476 0.28544 0.0
H119 H 0.74884 0.94567 0.14386 0.0
C120 C 0.53548 0.75107 0.45689 0.0
C121 C 0.51697 0.74031 0.44606 0.0
C122 C 0.53135 0.70925 0.49927 0.0
C123 C 0.51492 0.7197 0.46709 0.0
C124 C 0.54988 0.72006 0.50949 0.0
C125 C 0.55188 0.74066 0.48871 0.0
U126 U 0.52939 0.79435 0.32527 0.0
O127 O 0.51954 0.82684 0.33351 0.0
O128 O 0.5505 0.81937 0.29711 0.0
C129 C 0.53662 0.83386 0.30639 0.0
C130 C 0.53801 0.77301 0.4357 0.0
C131 C 0.53417 0.84878 0.2498 0.0
C132 C 0.53594 0.88413 0.20795 0.0
C133 C 0.53749 0.86984 0.26133 0.0
C134 C 0.52759 0.85652 0.13047 0.0
C135 C 0.53103 0.8777 0.14157 0.0
C136 C 0.52914 0.84224 0.18394 0.0
C137 C 0.50946 0.74953 0.23146 0.0
C138 C 0.48964 0.71964 0.19819 0.0
C139 C 0.5191 0.71562 0.27316 0.0
C140 C 0.52227 0.7368 0.27116 0.0
C141 C 0.50293 0.70684 0.23606 0.0
C142 C 0.49293 0.74091 0.1958 0.0
C143 C 0.51309 0.7718 0.23006 0.0
O144 O 0.55153 0.77647 0.38752 0.0
O145 O 0.52108 0.78397 0.42815 0.0
O146 O 0.50187 0.78247 0.27292 0.0
O147 O 0.53262 0.77703 0.23042 0.0
H148 H 0.50407 0.74776 0.42099 0.0
H149 H 0.50053 0.71186 0.45728 0.0
H150 H 0.56281 0.71269 0.53465 0.0
H151 H 0.5663 0.74853 0.49781 0.0
H152 H 0.53841 0.90027 0.21894 0.0
H153 H 0.54137 0.87525 0.31174 0.0
H154 H 0.52405 0.85086 0.08011 0.0
H155 H 0.5266 0.82605 0.17374 0.0
H156 H 0.47717 0.71312 0.16871 0.0
H157 H 0.52942 0.70606 0.30311 0.0
H158 H 0.5349 0.74321 0.30021 0.0
H159 H 0.48275 0.75056 0.1657 0.0
C160 C 0.24511 0.51849 0.93455 0.0
C161 C 0.22947 0.51172 0.97829 0.0
C162 C 0.20351 0.51638 0.88866 0.0
C163 C 0.20892 0.51068 0.95567 0.0
C164 C 0.21935 0.52315 0.84531 0.0
C165 C 0.23983 0.52416 0.86797 0.0
U166 U 0.28813 0.51034 0.06736 0.0
O167 O 0.32035 0.4999 0.05684 0.0
O168 O 0.31372 0.53087 0.09502 0.0
C169 C 0.3279 0.51681 0.0837 0.0
C170 C 0.26691 0.51994 0.95719 0.0
C171 C 0.34353 0.51408 0.13811 0.0
C172 C 0.37932 0.51639 0.17523 0.0
C173 C 0.36431 0.51804 0.12409 0.0
C174 C 0.35304 0.50654 0.25554 0.0
C175 C 0.37394 0.51073 0.24194 0.0
C176 C 0.33802 0.50822 0.20424 0.0
C177 C 0.24356 0.49038 0.16821 0.0
C178 C 0.20923 0.50287 0.19432 0.0
C179 C 0.21346 0.47009 0.13755 0.0
C180 C 0.23483 0.47258 0.13939 0.0
C181 C 0.2005 0.4854 0.164 0.0
C182 C 0.2305 0.50527 0.19685 0.0
C183 C 0.26594 0.49434 0.16429 0.0
O184 O 0.27068 0.53303 1.00645 0.0
O185 O 0.27684 0.5024 0.96489 0.0
O186 O 0.27634 0.48304 0.12087 0.0
O187 O 0.27111 0.51391 0.16256 0.0
H188 H 0.23315 0.50725 0.02992 0.0
H189 H 0.19733 0.50517 0.99058 0.0
H190 H 0.21592 0.52803 0.7939 0.0
H191 H 0.25158 0.52953 0.83337 0.0
H192 H 0.3952 0.51943 0.16225 0.0
H193 H 0.36894 0.52257 0.07344 0.0
H194 H 0.34818 0.50239 0.30625 0.0
H195 H 0.32206 0.50517 0.21637 0.0
H196 H 0.19958 0.51464 0.21681 0.0
H197 H 0.20704 0.45638 0.11455 0.0
H198 H 0.24445 0.46075 0.11718 0.0
H199 H 0.2367 0.51902 0.22022 0.0
C200 C 1.00779 0.24613 0.95588 0.0
C201 C 0.01295 0.22955 0.99882 0.0
C202 C 1.01179 0.20554 0.90313 0.0
C203 C 0.015 0.20953 0.97275 0.0
C204 C 1.0068 0.22229 0.8604 0.0
C205 C 1.00486 0.24228 0.88646 0.0
U206 U 0.02025 0.29133 0.07679 0.0
O207 O 0.0213 0.32496 0.05906 0.0
O208 O 0.99825 0.3119 0.12752 0.0
C209 C 1.00676 0.32875 0.10366 0.0
C210 C 1.00455 0.26732 0.98229 0.0
C211 C 1.01108 0.34493 0.1546 0.0
C212 C 1.00656 0.38033 0.19315 0.0
C213 C 1.00413 0.36515 0.14319 0.0
C214 C 0.02333 0.35538 0.26638 0.0
C215 C 0.01591 0.37558 0.25592 0.0
C216 C 0.02097 0.34024 0.21626 0.0
C217 C 0.05942 0.25453 0.14961 0.0
C218 C 0.0715 0.22534 0.21558 0.0
C219 C 0.06343 0.22108 0.09621 0.0
C220 C 0.05854 0.24202 0.09165 0.0
C221 C 0.06924 0.21236 0.15887 0.0
C222 C 0.06658 0.24624 0.21093 0.0
C223 C 0.05005 0.27511 0.14929 0.0
O224 O 0.99703 0.26882 0.04395 0.0
O225 O 0.01924 0.28072 0.97027 0.0
O226 O 0.05336 0.28642 0.09495 0.0
O227 O 0.03076 0.27536 0.16903 0.0
H228 H 0.01526 0.23203 0.05266 0.0
H229 H 0.01916 0.19719 1.00727 0.0
H230 H 1.00387 0.21992 0.80685 0.0
H231 H 1.00072 0.25476 0.85235 0.0
H232 H 1.00048 0.39561 0.18341 0.0
H233 H 0.99638 0.3691 0.09612 0.0
H234 H 0.03088 0.35121 0.31358 0.0
H235 H 0.02653 0.32476 0.22617 0.0
H236 H 0.07563 0.21913 0.26486 0.0
H237 H 0.06172 0.21155 0.05151 0.0
H238 H 0.05301 0.24818 0.04376 0.0
H239 H 0.0672 0.25565 0.25625 0.0
C240 C 0.28379 0.03782 0.95112 0.0
C241 C 0.30025 0.03607 0.99753 0.0
C242 C 0.32479 0.03129 0.90484 0.0
C243 C 0.32045 0.03286 0.97469 0.0
C244 C 0.30822 0.0326 0.85866 0.0
C245 C 0.28802 0.03588 0.88154 0.0
U246 U 0.23666 0.02877 0.06606 0.0
O247 O 0.20306 0.02935 0.04694 0.0
O248 O 0.21712 0.05208 0.11473 0.0
C249 C 0.19992 0.04398 0.09191 0.0
C250 C 0.26242 0.04262 0.97373 0.0
C251 C 0.18386 0.04003 0.14384 0.0
C252 C 0.14763 0.03909 0.17617 0.0
C253 C 0.16293 0.04177 0.12672 0.0
C254 C 0.17399 0.03283 0.26082 0.0
C255 C 0.15292 0.03471 0.24422 0.0
C256 C 0.18921 0.03532 0.21132 0.0
C257 C 0.27103 0.98818 0.14026 0.0
C258 C 0.29889 0.97307 0.20541 0.0
C259 C 0.30491 0.98468 0.0901 0.0
C260 C 0.28425 0.99042 0.08456 0.0
C261 C 0.31259 0.97663 0.15145 0.0
C262 C 0.27826 0.97888 0.19985 0.0
C263 C 0.2509 0.99836 0.14001 0.0
O264 O 0.24823 0.02876 0.96052 0.0
O265 O 0.26048 0.05076 0.03444 0.0
O266 O 0.25153 0.01768 0.15952 0.0
O267 O 0.23961 0.99549 0.08535 0.0
H268 H 0.29756 0.03733 0.05159 0.0
H269 H 0.3327 0.03158 0.01192 0.0
H270 H 0.31091 0.03167 0.80455 0.0
H271 H 0.2757 0.03725 0.84458 0.0
H272 H 0.13166 0.04036 0.16084 0.0
H273 H 0.15838 0.04535 0.07504 0.0
H274 H 0.17884 0.02984 0.31254 0.0
H275 H 0.20523 0.03388 0.22617 0.0
H276 H 0.30438 0.96716 0.25367 0.0
H277 H 0.31507 0.98744 0.04757 0.0
H278 H 0.27886 0.99762 0.0381 0.0
H279 H 0.26827 0.97724 0.24344 0.0
C280 C 0.5189 0.28643 0.96495 0.0
C281 C 0.53587 0.2998 0.96471 0.0
C282 C 0.51571 0.32673 0.90796 0.0
C283 C 0.53432 0.31964 0.93667 0.0
C284 C 0.49866 0.31336 0.9085 0.0
C285 C 0.50027 0.29343 0.93613 0.0
U286 U 0.5061 0.24272 0.09244 0.0
O287 O 0.50301 0.209 0.07963 0.0
O288 O 0.52784 0.22156 0.14258 0.0
C289 C 0.51803 0.20495 0.1227 0.0
C290 C 0.52135 0.26515 0.99292 0.0
C291 C 0.51381 0.18942 0.17635 0.0
C292 C 0.51343 0.15345 0.21271 0.0
C293 C 0.5156 0.16835 0.16148 0.0
C294 C 0.50724 0.18044 0.29462 0.0
C295 C 0.50955 0.15929 0.28029 0.0
C296 C 0.50928 0.19531 0.24328 0.0
C297 C 0.4703 0.28237 0.16465 0.0
C298 C 0.45806 0.31236 0.22533 0.0
C299 C 0.46878 0.31561 0.10806 0.0
C300 C 0.473 0.29451 0.10639 0.0
C301 C 0.46192 0.32489 0.16832 0.0
C302 C 0.46226 0.29126 0.22347 0.0
C303 C 0.47846 0.26131 0.16698 0.0
O304 O 0.52996 0.26368 0.05323 0.0
O305 O 0.50593 0.25227 0.98484 0.0
O306 O 0.47365 0.24955 0.11507 0.0
O307 O 0.49802 0.26022 0.18383 0.0
H308 H 0.55048 0.29485 0.98601 0.0
H309 H 0.54772 0.3295 0.93807 0.0
H310 H 0.48414 0.31813 0.88627 0.0
H311 H 0.4869 0.28352 0.93463 0.0
H312 H 0.51548 0.13737 0.19974 0.0
H313 H 0.51917 0.16341 0.11035 0.0
H314 H 0.50393 0.18553 0.34574 0.0
H315 H 0.5077 0.21145 0.2562 0.0
H316 H 0.4531 0.31903 0.2729 0.0
H317 H 0.47175 0.32478 0.06316 0.0
H318 H 0.47929 0.28784 0.06069 0.0
H319 H 0.46029 0.28212 0.26906 0.0
Sm320 Sm 0.02532 1.00964 0.73926 0.0
Sm321 Sm 0.99971 0.02485 0.60192 0.0
C322 C 0.03749 0.99886 0.86232 0.0
C323 C 0.03552 0.98435 0.9192 0.0
C324 C 0.01663 0.98029 0.95085 0.0
C325 C 0.01574 0.96638 1.0052 0.0
C326 C 0.03371 0.95637 0.0285 0.0
C327 C 0.05255 0.96076 0.99684 0.0
C328 C 0.05343 0.97466 0.9431 0.0
C329 C 0.05146 0.02047 0.63257 0.0
C330 C 1.00814 0.97502 0.62928 0.0
C331 C 0.99323 0.03875 0.47783 0.0
C332 C 1.00551 0.05267 0.43574 0.0
C333 C 0.02343 0.06141 0.46281 0.0
C334 C 0.03527 0.0748 0.42397 0.0
C335 C 0.02904 0.08035 0.35792 0.0
C336 C 1.01108 0.07137 0.33074 0.0
C337 C 0.99947 0.05752 0.36933 0.0
C338 C 0.97312 0.01431 0.70659 0.0
C339 C 0.01542 0.05916 0.71601 0.0
O340 O 0.0227 1.01228 0.85126 0.0
O341 O 0.04591 0.9917 0.80678 0.0
O342 O 0.03218 0.02111 0.63501 0.0
O343 O 0.05798 0.01428 0.69145 0.0
O344 O 0.01411 0.97876 0.69284 0.0
O345 O 1.00393 0.9899 0.58483 0.0
O346 O 1.00174 0.02079 0.49041 0.0
O347 O 0.98499 0.04722 0.53168 0.0
O348 O 0.9925 0.01369 0.70649 0.0
O349 O 0.96687 0.02034 0.64685 0.0
O350 O 1.00974 0.05559 0.65223 0.0
O351 O 0.02027 0.04419 0.75909 0.0
H352 H 1.00261 0.98772 0.9335 0.0
H353 H 1.00101 0.9634 0.02874 0.0
H354 H 0.06662 0.95302 0.01217 0.0
H355 H 0.06817 0.97768 0.91954 0.0
H356 H 0.0282 0.05795 0.51436 0.0
H357 H 0.04919 0.08101 0.44624 0.0
H358 H 1.0056 0.07551 0.28056 0.0
H359 H 0.9856 0.05095 0.34786 0.0
Sm360 Sm 0.52276 0.02818 0.77194 0.0
Sm361 Sm 0.50903 1.00273 0.63318 0.0
C362 C 0.53303 0.03601 0.89928 0.0
C363 C 0.54536 0.02639 0.9542 0.0
C364 C 0.5378 1.00957 0.99173 0.0
C365 C 0.55038 0.99947 0.03905 0.0
C366 C 0.57049 1.00636 0.05088 0.0
C367 C 0.5776 0.02393 0.01659 0.0
C368 C 0.56515 0.03384 0.96867 0.0
C369 C 0.51243 0.05499 0.66645 0.0
C370 C 0.55834 1.01267 0.6622 0.0
C371 C 0.49941 0.99175 0.50797 0.0
C372 C 0.48294 0.99447 0.45804 0.0
C373 C 0.46417 1.00342 0.47685 0.0
C374 C 0.44731 1.00252 0.43289 0.0
C375 C 0.44905 0.99265 0.36965 0.0
C376 C 0.46828 0.98491 0.34933 0.0
C377 C 0.48512 0.98576 0.39348 0.0
C378 C 0.51961 0.97639 0.74044 0.0
C379 C 0.47328 0.01821 0.74054 0.0
O380 O 0.51587 0.0268 0.88188 0.0
O381 O 0.54323 0.04326 0.84708 0.0
O382 O 0.51205 0.03558 0.66665 0.0
O383 O 0.5181 0.0611 0.72648 0.0
O384 O 0.55429 0.01873 0.7253 0.0
O385 O 0.54376 1.00753 0.61819 0.0
O386 O 0.51086 1.0078 0.52162 0.0
O387 O 0.49439 0.98109 0.5619 0.0
O388 O 0.52012 0.99572 0.73812 0.0
O389 O 0.51344 0.97 0.68146 0.0
O390 O 0.47743 1.01257 0.67716 0.0
O391 O 0.48786 0.02271 0.78557 0.0
H392 H 0.52239 1.00379 0.98323 0.0
H393 H 0.54455 0.9861 0.06564 0.0
H394 H 0.59311 0.02949 0.02475 0.0
H395 H 0.57125 0.04701 0.94162 0.0
H396 H 0.46231 1.01021 0.52666 0.0
H397 H 0.43272 1.00886 0.44931 0.0
H398 H 0.47 0.97714 0.30108 0.0
H399 H 0.49954 0.97872 0.37854 0.0
Sm400 Sm 0.49914 0.52252 0.75082 0.0
Sm401 Sm 0.52671 0.50981 0.61695 0.0
C402 C 0.48566 0.52995 0.87461 0.0
C403 C 0.48888 0.54191 0.93632 0.0
C404 C 0.50664 0.55374 0.94577 0.0
C405 C 0.50826 0.56666 1.00213 0.0
C406 C 0.492 0.56802 0.04892 0.0
C407 C 0.47467 0.55542 0.04061 0.0
C408 C 0.47316 0.54241 0.9847 0.0
C409 C 0.47434 0.51314 0.63887 0.0
C410 C 0.51763 0.5592 0.65053 0.0
C411 C 0.5346 0.49848 0.49136 0.0
C412 C 0.52279 0.48517 0.44579 0.0
C413 C 0.50373 0.47759 0.46723 0.0
C414 C 0.49245 0.46439 0.42591 0.0
C415 C 0.50037 0.45785 0.36317 0.0
C416 C 0.51943 0.46576 0.34138 0.0
C417 C 0.53052 0.47942 0.38236 0.0
C418 C 0.5519 0.51873 0.72762 0.0
C419 C 0.51034 0.47346 0.72222 0.0
O420 O 0.49921 0.51555 0.86097 0.0
O421 O 0.47934 0.54021 0.821 0.0
O422 O 0.49362 0.51272 0.6438 0.0
O423 O 0.46711 0.51827 0.69767 0.0
O424 O 0.51034 0.55441 0.7117 0.0
O425 O 0.52303 0.54504 0.60528 0.0
O426 O 0.52568 0.51602 0.50635 0.0
O427 O 0.54258 0.48914 0.54443 0.0
O428 O 0.53251 0.51934 0.72441 0.0
O429 O 0.5589 0.51356 0.66816 0.0
O430 O 0.51696 0.478 0.66029 0.0
O431 O 0.50448 0.48775 0.76597 0.0
H432 H 0.51884 0.55359 0.90844 0.0
H433 H 0.52164 0.57646 1.00699 0.0
H434 H 0.46198 0.55621 0.07607 0.0
H435 H 0.45937 0.53328 0.97793 0.0
H436 H 0.49772 0.48164 0.51666 0.0
H437 H 0.47769 0.45898 0.44392 0.0
H438 H 0.52617 0.46084 0.2939 0.0
H439 H 0.5453 0.48507 0.36535 0.0
Sm440 Sm 1.00522 0.50296 0.75481 0.0
Sm441 Sm 0.01711 0.52982 0.61749 0.0
C442 C 0.99892 0.49027 0.88037 0.0
C443 C 0.98699 0.49313 0.94228 0.0
C444 C 0.9742 0.51032 0.95106 0.0
C445 C 0.96147 0.51154 1.00788 0.0
C446 C 0.96122 0.49543 0.05574 0.0
C447 C 0.97468 0.47867 0.04797 0.0
C448 C 0.98755 0.47759 0.99166 0.0
C449 C 0.01486 0.47771 0.64482 0.0
C450 C 0.96792 0.52009 0.6536 0.0
C451 C 0.02643 0.53791 0.49002 0.0
C452 C 0.03875 0.52695 0.43952 0.0
C453 C 0.04556 0.50686 0.45308 0.0
C454 C 0.05805 0.49656 0.40685 0.0
C455 C 0.06472 0.5065 0.34734 0.0
C456 C 0.05748 0.52658 0.33344 0.0
C457 C 0.04448 0.53667 0.37908 0.0
C458 C 1.00827 0.55545 0.72662 0.0
C459 C 0.05412 0.51408 0.72213 0.0
O460 O 1.01231 0.50456 0.8648 0.0
O461 O 0.98897 0.48288 0.82782 0.0
O462 O 0.01485 0.497 0.64816 0.0
O463 O 1.01006 0.47066 0.70427 0.0
O464 O 0.97291 0.51321 0.71536 0.0
O465 O 0.98192 0.52545 0.60788 0.0
O466 O 1.00938 0.52869 0.50806 0.0
O467 O 0.03681 0.54541 0.54152 0.0
O468 O 1.00773 0.53607 0.72438 0.0
O469 O 0.01343 0.56224 0.66685 0.0
O470 O 0.04925 0.52015 0.65955 0.0
O471 O 0.04004 0.50867 0.76724 0.0
H472 H 0.97348 0.52234 0.91293 0.0
H473 H 0.95096 0.52446 0.01231 0.0
H474 H 0.9747 0.46608 0.08419 0.0
H475 H 0.99741 0.46423 0.98538 0.0
H476 H 0.04165 0.49937 0.50037 0.0
H477 H 0.06297 0.48101 0.41889 0.0
H478 H 0.06256 0.53491 0.2889 0.0
H479 H 0.03945 0.55226 0.36822 0.0
H480 H 0.11572 0.0553 0.25654 0.0
H481 H 0.15305 1.00855 0.35437 0.0
H482 H 0.09024 0.0522 0.34706 0.0
H483 H 0.12797 1.00607 0.44532 0.0
H484 H 0.09271 0.02575 0.63466 0.0
H485 H 0.11618 0.02921 0.53912 0.0
H486 H 0.06477 0.02634 0.40002 0.0
H487 H 0.04129 0.02215 0.49654 0.0
C488 C 0.11849 0.04422 0.29674 0.0
C489 C 0.13672 0.03233 0.29793 0.0
C490 C 0.10385 0.04252 0.34882 0.0
C491 C 0.10716 0.02906 0.40385 0.0
C492 C 0.12512 0.01689 0.40438 0.0
C493 C 0.13959 0.01841 0.35213 0.0
C494 C 0.08636 0.02595 0.58373 0.0
C495 C 0.06505 0.02405 0.57319 0.0
C496 C 0.09984 0.02785 0.5289 0.0
C497 C 0.09241 0.02798 0.46179 0.0
C498 C 0.07101 0.02648 0.45108 0.0
C499 C 0.05751 0.02428 0.50628 0.0
H500 H 0.49123 0.121 0.27899 0.0
H501 H 0.52631 0.16165 0.40778 0.0
H502 H 0.49023 0.09541 0.37024 0.0
H503 H 0.52568 0.13613 0.49813 0.0
H504 H 0.50645 0.09619 0.67201 0.0
H505 H 0.50425 0.12078 0.57908 0.0
H506 H 0.50991 0.07101 0.43501 0.0
H507 H 0.51144 0.04633 0.52914 0.0
C508 C 0.49884 0.12445 0.32661 0.0
C509 C 0.50871 0.14353 0.33599 0.0
C510 C 0.49831 0.10972 0.37904 0.0
C511 C 0.50772 0.11362 0.44227 0.0
C512 C 0.51776 0.13265 0.4511 0.0
C513 C 0.51817 0.14736 0.399 0.0
C514 C 0.50701 0.09044 0.62046 0.0
C515 C 0.50913 0.06923 0.60804 0.0
C516 C 0.50595 0.10461 0.56692 0.0
C517 C 0.50724 0.09808 0.49896 0.0
C518 C 0.50872 0.07672 0.48643 0.0
C519 C 0.5096 0.06248 0.54039 0.0
H520 H 0.40733 0.53606 0.26298 0.0
H521 H 0.37712 0.48259 0.34642 0.0
H522 H 0.43269 0.53474 0.35446 0.0
H523 H 0.40247 0.48129 0.4379 0.0
H524 H 0.43433 0.50203 0.63531 0.0
H525 H 0.41124 0.50025 0.53793 0.0
H526 H 0.46153 0.51628 0.40525 0.0
H527 H 0.48452 0.51871 0.50411 0.0
C528 C 0.40621 0.52383 0.30023 0.0
C529 C 0.38997 0.5095 0.29708 0.0
C530 C 0.42084 0.52306 0.35286 0.0
C531 C 0.4197 0.50796 0.40413 0.0
C532 C 0.40371 0.49339 0.40021 0.0
C533 C 0.38908 0.49416 0.34762 0.0
C534 C 0.44053 0.50495 0.58524 0.0
C535 C 0.46135 0.51017 0.57733 0.0
C536 C 0.42729 0.50381 0.52914 0.0
C537 C 0.43441 0.50802 0.46319 0.0
C538 C 0.45539 0.51305 0.45515 0.0
C539 C 0.46869 0.51415 0.51164 0.0
H540 H 0.02525 0.41692 0.24573 0.0
H541 H 1.00893 0.3701 0.39166 0.0
H542 H 0.02669 0.44248 0.33668 0.0
H543 H 1.01004 0.39549 0.48189 0.0
H544 H 0.03086 0.43934 0.64241 0.0
H545 H 0.03276 0.41556 0.54729 0.0
H546 H 1.00611 0.46197 0.41571 0.0
H547 H 1.00472 0.48594 0.51169 0.0
C548 C 0.02188 0.41208 0.29712 0.0
C549 C 0.01713 0.39134 0.31123 0.0
C550 C 0.02266 0.42677 0.34935 0.0
C551 C 0.01864 0.42114 0.41711 0.0
C552 C 0.01375 0.40042 0.43086 0.0
C553 C 0.01308 0.38577 0.37888 0.0
C554 C 0.02568 0.44454 0.5929 0.0
C555 C 0.01789 0.46457 0.58424 0.0
C556 C 0.02657 0.43083 0.53832 0.0
C557 C 0.01933 0.43662 0.47354 0.0
C558 C 1.01201 0.45694 0.46451 0.0
C559 C 1.01124 0.47074 0.5194 0.0
H560 H 0.86747 0.02651 0.96733 0.0
H561 H 0.90809 0.98948 0.09171 0.0
H562 H 0.89284 0.02667 0.87719 0.0
H563 H 0.93354 0.98924 1.00047 0.0
H564 H 0.98236 1.01157 0.84332 0.0
H565 H 0.95797 1.00926 0.93774 0.0
H566 H 0.9077 1.00583 0.79385 0.0
H567 H 0.93193 1.00886 0.70087 0.0
C568 C 0.88172 0.01811 0.97511 0.0
C569 C 0.88558 1.00784 0.03679 0.0
C570 C 0.89635 0.01815 0.92314 0.0
C571 C 0.91532 1.00777 0.93072 0.0
C572 C 0.91926 0.99758 0.99269 0.0
C573 C 0.90462 0.99766 0.04506 0.0
C574 C 0.96612 1.01011 0.83222 0.0
C575 C 0.95909 1.01053 0.7647 0.0
C576 C 0.95208 1.00875 0.88629 0.0
C577 C 0.93068 1.00769 0.8739 0.0
C578 C 0.9239 1.00723 0.80595 0.0
C579 C 0.93786 1.00877 0.75235 0.0
H580 H 0.55519 0.91183 0.11721 0.0
H581 H 0.50336 0.8784 0.03569 0.0
H582 H 0.55306 0.9361 0.02257 0.0
H583 H 0.50124 0.90259 0.94143 0.0
H584 H 0.51591 0.93489 0.744 0.0
H585 H 0.51914 0.91177 0.84067 0.0
H586 H 0.53309 0.96346 0.97007 0.0
H587 H 0.5304 0.9867 0.87138 0.0
C588 C 0.5432 0.90972 0.07956 0.0
C589 C 0.52954 0.89295 0.08427 0.0
C590 C 0.54198 0.9237 0.02511 0.0
C591 C 0.52709 0.92132 0.97363 0.0
C592 C 0.51324 0.90474 0.97903 0.0
C593 C 0.51446 0.89079 0.03333 0.0
C594 C 0.51975 0.94138 0.79302 0.0
C595 C 0.52271 0.96271 0.8003 0.0
C596 C 0.52144 0.92809 0.84879 0.0
C597 C 0.5261 0.9357 0.91386 0.0
C598 C 0.52956 0.95703 0.92085 0.0
C599 C 0.52789 0.97039 0.86462 0.0
H600 H 0.61186 0.51136 0.12668 0.0
H601 H 0.65359 0.54694 1.00348 0.0
H602 H 0.58744 0.51006 0.03218 0.0
H603 H 0.62924 0.54571 0.90945 0.0
H604 H 0.59352 0.51863 0.73159 0.0
H605 H 0.61626 0.52185 0.82902 0.0
H606 H 0.56355 0.5292 0.95994 0.0
H607 H 0.54063 0.52541 0.86118 0.0
C608 C 0.61579 0.51909 0.07975 0.0
C609 C 0.63491 0.5291 0.07295 0.0
C610 C 0.6017 0.51838 0.02541 0.0
C611 C 0.60629 0.52765 0.96257 0.0
C612 C 0.62524 0.53798 0.95633 0.0
C613 C 0.6393 0.53867 0.01049 0.0
C614 C 0.58672 0.52105 0.78106 0.0
C615 C 0.56522 0.52186 0.78847 0.0
C616 C 0.59982 0.52303 0.83718 0.0
C617 C 0.5919 0.52593 0.90286 0.0
C618 C 0.57029 0.52683 0.91039 0.0
C619 C 0.55711 0.52485 0.85377 0.0
H620 H 0.02542 0.65177 0.02564 0.0
H621 H 0.96974 0.62191 0.09298 0.0
H622 H 0.02852 0.62683 0.93417 0.0
H623 H 0.97317 0.59667 1.00189 0.0
H624 H 0.99817 0.54459 0.85799 0.0
H625 H 0.99508 0.56758 0.95668 0.0
H626 H 1.00965 0.6196 0.82875 0.0
H627 H 1.01262 0.59682 0.73151 0.0
C628 C 0.01376 0.63997 0.021 0.0
C629 C 0.99719 0.63914 0.06676 0.0
C630 C 0.0156 0.62557 0.96849 0.0
C631 C 1.00101 0.60979 0.96017 0.0
C632 C 0.98479 0.6085 1.00705 0.0
C633 C 0.98286 0.62301 0.05946 0.0
C634 C 1.00058 0.56093 0.8513 0.0
C635 C 1.00564 0.56885 0.78706 0.0
C636 C 0.9988 0.57413 0.90764 0.0
C637 C 1.00232 0.59547 0.90088 0.0
C638 C 1.0072 0.60326 0.83629 0.0
C639 C 1.00877 0.59017 0.7803 0.0
H640 H 0.04301 0.18386 0.10543 0.0
H641 H 0.09648 0.18957 0.23517 0.0
H642 H 0.03846 0.14856 0.1434 0.0
H643 H 0.09168 0.15415 0.27392 0.0
H644 H 0.04709 0.11489 0.4096 0.0
H645 H 0.06262 0.14313 0.34847 0.0
H646 H 0.05131 0.11205 0.15854 0.0
H647 H 0.03623 0.08305 0.22024 0.0
C648 C 0.05428 0.17736 0.14009 0.0
C649 C 0.0699 0.18967 0.16827 0.0
C650 C 0.05163 0.15707 0.16192 0.0
C651 C 0.0645 0.14875 0.2125 0.0
C652 C 0.08132 0.16035 0.23571 0.0
C653 C 0.08403 0.18061 0.21367 0.0
C654 C 0.04847 0.1136 0.35504 0.0
C655 C 0.04031 0.09661 0.32001 0.0
C656 C 0.05742 0.12988 0.3199 0.0
C657 C 0.05827 0.12976 0.24873 0.0
C658 C 0.05078 0.11254 0.21346 0.0
C659 C 0.04201 0.09604 0.2488 0.0
H660 H 0.3334 0.94567 0.21701 0.0
H661 H 0.3424 1.00383 0.11435 0.0
H662 H 0.36866 0.94708 0.26 0.0
H663 H 0.37755 1.00518 0.15711 0.0
H664 H 0.44394 0.99741 0.23213 0.0
H665 H 0.41298 0.98985 0.16509 0.0
H666 H 0.38165 0.97101 0.34798 0.0
H667 H 0.41243 0.97815 0.41412 0.0
C668 C 0.34305 0.95851 0.20248 0.0
C669 C 0.33504 0.97478 0.16329 0.0
C670 C 0.36319 0.95933 0.22707 0.0
C671 C 0.37567 0.97644 0.21292 0.0
C672 C 0.3683 0.99178 0.16864 0.0
C673 C 0.34815 0.99097 0.14406 0.0
C674 C 0.43043 0.99154 0.25763 0.0
C675 C 0.43046 0.98859 0.32834 0.0
C676 C 0.41277 0.98724 0.21941 0.0
C677 C 0.39501 0.97965 0.25127 0.0
C678 C 0.39522 0.97648 0.3218 0.0
C679 C 0.41273 0.98091 0.35987 0.0
H680 H 0.43364 0.34889 0.2348 0.0
H681 H 0.48996 0.35233 0.1193 0.0
H682 H 0.43827 0.38459 0.27037 0.0
H683 H 0.49442 0.38787 0.15434 0.0
H684 H 0.49691 0.45379 0.22425 0.0
H685 H 0.48259 0.42456 0.16177 0.0
H686 H 0.46524 0.39603 0.35123 0.0
H687 H 0.4799 0.42451 0.41327 0.0
C688 C 0.44673 0.35739 0.21576 0.0
C689 C 0.46164 0.34764 0.17541 0.0
C690 C 0.44934 0.37782 0.23596 0.0
C691 C 0.46689 0.38887 0.21607 0.0
C692 C 0.48069 0.3798 0.17022 0.0
C693 C 0.47811 0.35937 0.15013 0.0
C694 C 0.48993 0.44131 0.25246 0.0
C695 C 0.48965 0.44153 0.3239 0.0
C696 C 0.48161 0.42469 0.21664 0.0
C697 C 0.47267 0.4081 0.25159 0.0
C698 C 0.47159 0.40878 0.32269 0.0
C699 C 0.48004 0.4252 0.35836 0.0
H700 H 0.17175 0.51353 0.12412 0.0
H701 H 0.17843 0.45198 0.20486 0.0
H702 H 0.13521 0.5131 0.15134 0.0
H703 H 0.14167 0.45132 0.23093 0.0
H704 H 0.09722 0.4828 0.38919 0.0
H705 H 0.12665 0.47203 0.32395 0.0
H706 H 0.09969 0.49862 0.14305 0.0
H707 H 0.06945 0.50896 0.20839 0.0
C708 C 0.16521 0.49969 0.1459 0.0
C709 C 0.1779 0.48299 0.164 0.0
C710 C 0.14425 0.49933 0.16077 0.0
C711 C 0.13567 0.48229 0.19426 0.0
C712 C 0.14798 0.46476 0.20589 0.0
C713 C 0.16896 0.46509 0.19074 0.0
C714 C 0.097 0.48569 0.33505 0.0
C715 C 0.08093 0.49698 0.30438 0.0
C716 C 0.114 0.47946 0.29747 0.0
C717 C 0.11552 0.48453 0.22838 0.0
C718 C 0.09896 0.49465 0.19642 0.0
C719 C 0.08175 0.5007 0.234 0.0
H720 H 0.0734 0.84468 0.18611 0.0
H721 H 1.01195 0.84563 0.26883 0.0
H722 H 0.07007 0.88111 0.1563 0.0
H723 H 1.00865 0.88205 0.2393 0.0
H724 H 1.00427 0.92684 0.04601 0.0
H725 H 1.00653 0.89637 0.11778 0.0
H726 H 0.06409 0.91797 0.20091 0.0
H727 H 0.06155 0.94896 0.13079 0.0
C728 C 0.05941 0.85284 0.1994 0.0
C729 C 0.0429 0.84237 0.22935 0.0
C730 C 0.05755 0.87368 0.18288 0.0
C731 C 0.03905 0.8843 0.19527 0.0
C732 C 0.02303 0.87416 0.22907 0.0
C733 C 0.02498 0.85339 0.24633 0.0
C734 C 0.01703 0.92554 0.08133 0.0
C735 C 0.03292 0.94016 0.0817 0.0
C736 C 0.01833 0.90804 0.12242 0.0
C737 C 0.03561 0.90477 0.16421 0.0
C738 C 0.05074 0.92006 0.16843 0.0
C739 C 0.04932 0.9377 0.128 0.0
H740 H 0.67229 0.96623 0.30712 0.0
H741 H 0.68283 0.95214 0.0955 0.0
H742 H 0.63589 0.97211 0.28218 0.0
H743 H 0.64653 0.95709 0.07194 0.0
H744 H 0.57971 0.96561 0.04137 0.0
H745 H 0.60881 0.94771 0.09495 0.0
H746 H 0.62295 1.0026 0.20923 0.0
H747 H 0.59402 0.02043 0.15538 0.0
C748 C 0.66683 0.96388 0.25573 0.0
C749 C 0.68068 0.9592 0.20304 0.0
C750 C 0.64596 0.96709 0.24171 0.0
C751 C 0.63848 0.96524 0.17509 0.0
C752 C 0.65184 0.95844 0.12393 0.0
C753 C 0.67274 0.95556 0.13763 0.0
C754 C 0.58866 0.97356 0.07965 0.0
C755 C 0.58484 0.99441 0.09401 0.0
C756 C 0.6053 0.96336 0.11004 0.0
C757 C 0.61814 0.9738 0.15594 0.0
C758 C 0.61318 0.99411 0.17454 0.0
C759 C 0.59677 1.00438 0.14342 0.0
H760 H 0.5331 0.67974 0.20499 0.0
H761 H 0.46873 0.68331 0.25685 0.0
H762 H 0.52957 0.64337 0.18048 0.0
H763 H 0.4652 0.64639 0.2358 0.0
H764 H 0.46161 0.59568 0.07103 0.0
H765 H 0.46363 0.62705 0.13671 0.0
H766 H 0.52404 0.60903 0.20943 0.0
H767 H 0.52225 0.5779 0.14008 0.0
C768 C 0.51831 0.6725 0.21313 0.0
C769 C 0.50112 0.68426 0.23183 0.0
C770 C 0.51627 0.65156 0.19966 0.0
C771 C 0.49702 0.64187 0.20553 0.0
C772 C 0.48014 0.65344 0.2292 0.0
C773 C 0.48212 0.67452 0.24144 0.0
C774 C 0.47509 0.59818 0.10247 0.0
C775 C 0.49188 0.58457 0.10004 0.0
C776 C 0.47624 0.61616 0.14061 0.0
C777 C 0.49414 0.6208 0.17787 0.0
C778 C 0.51024 0.60621 0.17994 0.0
C779 C 0.50922 0.58836 0.14066 0.0
H780 H 0.8463 0.46922 0.25926 0.0
H781 H 0.84848 0.53373 0.20682 0.0
H782 H 0.88344 0.46647 0.24143 0.0
H783 H 0.88505 0.53097 0.18537 0.0
H784 H 0.95045 0.52529 0.14674 0.0
H785 H 0.91929 0.5262 0.21584 0.0
H786 H 0.90344 0.46526 0.1442 0.0
H787 H 0.93491 0.46411 0.07905 0.0
C788 C 0.85483 0.48281 0.24444 0.0
C789 C 0.84465 0.50161 0.23368 0.0
C790 C 0.87604 0.48128 0.23403 0.0
C791 C 0.88729 0.49842 0.21101 0.0
C792 C 0.87712 0.51749 0.20411 0.0
C793 C 0.85606 0.51908 0.2158 0.0
C794 C 0.94049 0.51194 0.14765 0.0
C795 C 0.94488 0.49472 0.10736 0.0
C796 C 0.9226 0.51246 0.18675 0.0
C797 C 0.90856 0.49598 0.18465 0.0
C798 C 0.91388 0.47817 0.14805 0.0
C799 C 0.93192 0.47751 0.11019 0.0
H800 H 0.99961 0.16926 0.96338 0.0
H801 H 0.02692 0.19279 0.7794 0.0
H802 H 1.00107 0.1345 0.91753 0.0
H803 H 0.02821 0.15797 0.73334 0.0
H804 H 1.007 0.09521 0.64641 0.0
H805 H 1.0065 0.13033 0.69088 0.0
H806 H 0.02481 0.10742 0.88808 0.0
H807 H 0.02499 0.07246 0.84429 0.0
C808 C 1.00616 0.16707 0.91345 0.0
C809 C 0.01315 0.18403 0.87538 0.0
C810 C 1.00696 0.14704 0.88698 0.0
C811 C 0.01475 0.14329 0.82151 0.0
C812 C 0.0218 0.16022 0.78346 0.0
C813 C 0.02106 0.18026 0.81001 0.0
C814 C 1.01098 0.09764 0.69921 0.0
C815 C 0.01598 0.08084 0.74157 0.0
C816 C 1.01079 0.11786 0.72472 0.0
C817 C 0.01551 0.12183 0.79336 0.0
C818 C 0.02075 0.10503 0.83533 0.0
C819 C 0.02099 0.08489 0.80988 0.0
H820 H 0.33939 1.00694 0.80092 0.0
H821 H 0.3596 0.05042 0.95231 0.0
H822 H 0.37472 1.00341 0.76071 0.0
H823 H 0.39476 0.04725 0.91158 0.0
H824 H 0.45888 0.02312 0.87001 0.0
H825 H 0.42353 0.02551 0.90849 0.0
H826 H 0.40214 0.01944 0.7016 0.0
H827 H 0.43775 0.01633 0.66321 0.0
C828 C 0.35133 0.01589 0.82537 0.0
C829 C 0.34653 0.0289 0.88023 0.0
C830 C 0.37167 0.01391 0.8021 0.0
C831 C 0.38786 0.02498 0.83271 0.0
C832 C 0.38296 0.03808 0.88734 0.0
C833 C 0.36268 0.03994 0.91083 0.0
C834 C 0.4467 0.02229 0.83244 0.0
C835 C 0.45135 0.01959 0.76325 0.0
C836 C 0.42628 0.02381 0.85463 0.0
C837 C 0.40972 0.02286 0.80841 0.0
C838 C 0.41434 0.02001 0.73911 0.0
C839 C 0.43485 0.01834 0.71689 0.0
H840 H 0.48376 0.35456 0.91663 0.0
H841 H 0.54421 0.34703 0.82963 0.0
H842 H 0.48149 0.38909 0.86784 0.0
H843 H 0.5422 0.38179 0.78264 0.0
H844 H 0.52465 0.43879 0.65605 0.0
H845 H 0.52521 0.40324 0.69765 0.0
H846 H 0.49606 0.42283 0.88329 0.0
H847 H 0.49521 0.45809 0.84168 0.0
C848 C 0.49655 0.3602 0.88684 0.0
C849 C 0.51419 0.34789 0.87737 0.0
C850 C 0.49533 0.38014 0.85935 0.0
C851 C 0.51168 0.3884 0.82124 0.0
C852 C 0.52921 0.37598 0.81102 0.0
C853 C 0.53046 0.35607 0.83879 0.0
C854 C 0.51822 0.4355 0.70553 0.0
C855 C 0.50989 0.45147 0.74529 0.0
C856 C 0.51867 0.41509 0.72967 0.0
C857 C 0.5107 0.41003 0.79406 0.0
C858 C 0.5021 0.42597 0.83318 0.0
C859 C 0.50173 0.44632 0.80928 0.0
H860 H 0.18904 0.50535 0.76201 0.0
H861 H 0.16788 0.52534 0.95874 0.0
H862 H 0.15361 0.50463 0.72104 0.0
H863 H 0.13246 0.5246 0.91775 0.0
H864 H 0.06981 0.50206 0.84556 0.0
H865 H 0.10533 0.50217 0.88434 0.0
H866 H 0.12457 0.52571 0.68956 0.0
H867 H 0.08884 0.52521 0.64999 0.0
C868 C 0.17689 0.50978 0.79655 0.0
C869 C 0.18156 0.51547 0.86393 0.0
C870 C 0.15646 0.50937 0.77287 0.0
C871 C 0.13996 0.51458 0.81574 0.0
C872 C 0.14461 0.52016 0.88323 0.0
C873 C 0.16504 0.52058 0.90692 0.0
C874 C 0.08154 0.50722 0.81058 0.0
C875 C 0.07624 0.51364 0.74434 0.0
C876 C 0.10204 0.50743 0.83323 0.0
C877 C 0.11803 0.51408 0.79055 0.0
C878 C 0.1128 0.52028 0.72393 0.0
C879 C 0.09222 0.52009 0.70119 0.0
H880 H 0.96983 0.86162 0.42636 0.0
H881 H 0.01994 0.84183 0.55577 0.0
H882 H 0.97374 0.8967 0.46746 0.0
H883 H 0.02396 0.87705 0.59674 0.0
H884 H 1.01265 0.93915 0.70371 0.0
H885 H 1.00877 0.90368 0.66463 0.0
H886 H 0.99552 0.92586 0.46222 0.0
H887 H 0.99887 0.96113 0.5014 0.0
C888 C 0.98186 0.86475 0.46306 0.0
C889 C 0.99458 0.84873 0.4874 0.0
C890 C 0.98412 0.88498 0.48677 0.0
C891 C 0.99923 0.88993 0.53554 0.0
C892 C 1.01194 0.8739 0.56004 0.0
C893 C 1.00964 0.85362 0.53638 0.0
C894 C 1.00888 0.93648 0.65087 0.0
C895 C 1.006 0.95318 0.60601 0.0
C896 C 1.00677 0.91606 0.62826 0.0
C897 C 1.00174 0.91171 0.56008 0.0
C898 C 0.99901 0.92845 0.5153 0.0
C899 C 1.00107 0.9488 0.53787 0.0
H900 H 0.66579 0.01879 0.40092 0.0
H901 H 0.69288 1.01113 0.59994 0.0
H902 H 0.63162 0.01796 0.4507 0.0
H903 H 0.65857 1.00927 0.64956 0.0
H904 H 0.59342 0.02826 0.72304 0.0
H905 H 0.62838 0.02891 0.67722 0.0
H906 H 0.60752 0.99555 0.50059 0.0
H907 H 0.57278 0.99539 0.54513 0.0
C908 C 0.66451 0.01692 0.45538 0.0
C909 C 0.68227 0.01509 0.49615 0.0
C910 C 0.6448 0.01616 0.48403 0.0
C911 C 0.64213 0.01345 0.55446 0.0
C912 C 0.65989 1.01158 0.59531 0.0
C913 C 0.67964 1.01237 0.5666 0.0
C914 C 0.59633 0.02097 0.67461 0.0
C915 C 0.58012 1.01191 0.6378 0.0
C916 C 0.61645 0.02128 0.6483 0.0
C917 C 0.62091 1.01247 0.58457 0.0
C918 C 0.60474 1.00295 0.54891 0.0
C919 C 0.58472 1.00273 0.57492 0.0
H920 H 0.55977 0.67787 0.49057 0.0
H921 H 0.49812 0.69056 0.56027 0.0
H922 H 0.55666 0.64232 0.5294 0.0
H923 H 0.49483 0.65479 0.59781 0.0
H924 H 0.50436 0.59399 0.7186 0.0
H925 H 0.50757 0.63004 0.68331 0.0
H926 H 0.53879 0.61075 0.5011 0.0
H927 H 0.53579 0.57497 0.53628 0.0
C928 C 0.54554 0.67313 0.51435 0.0
C929 C 0.52922 0.68725 0.5222 0.0
C930 C 0.54368 0.65261 0.53612 0.0
C931 C 0.52548 0.64552 0.56688 0.0
C932 C 0.50917 0.65965 0.57503 0.0
C933 C 0.51097 0.68017 0.55273 0.0
C934 C 0.51198 0.59742 0.67113 0.0
C935 C 0.51983 0.58139 0.63057 0.0
C936 C 0.5137 0.61814 0.6506 0.0
C937 C 0.52348 0.62345 0.58924 0.0
C938 C 0.5314 0.6074 0.54904 0.0
C939 C 0.52956 0.58676 0.56922 0.0
H940 H 0.84888 0.55976 0.48613 0.0
H941 H 0.83699 0.49848 0.56149 0.0
H942 H 0.88429 0.55733 0.52691 0.0
H943 H 0.87266 0.49585 0.60098 0.0
H944 H 0.93325 0.50666 0.72208 0.0
H945 H 0.8972 0.5092 0.68569 0.0
H946 H 0.91617 0.53976 0.50159 0.0
H947 H 0.95189 0.53744 0.53781 0.0
C948 C 0.85376 0.54576 0.51158 0.0
C949 C 0.83989 0.52934 0.52036 0.0
C950 C 0.87421 0.54427 0.5345 0.0
C951 C 0.88153 0.52636 0.56737 0.0
C952 C 0.86764 0.50997 0.57655 0.0
C953 C 0.84718 0.5114 0.55312 0.0
C954 C 0.92974 0.514 0.67397 0.0
C955 C 0.94568 0.52186 0.63321 0.0
C956 C 0.90901 0.51533 0.6528 0.0
C957 C 0.9036 0.52475 0.59056 0.0
C958 C 0.91957 0.53267 0.55019 0.0
C959 C 0.9402 0.53121 0.571 0.0
loop_
_geom_bond_atom_site_label_1
_geom_bond_atom_site_label_2
_geom_bond_distance
_geom_bond_site_symmetry_2
_ccdc_geom_bond_type
C0 C1 1.264 . S
C0 C5 1.479 . S
C0 C10 1.465 . S
C1 C0 1.264 . S
C1 C3 1.339 . S
C1 H28 0.931 . S
C2 C3 1.395 . S
C2 C4 1.320 . S
C3 C1 1.339 . S
C3 C2 1.395 . S
C3 H29 0.929 . S
C4 C2 1.320 . S
C4 C5 1.405 . S
C4 H30 0.930 . S
C5 C0 1.479 . S
C5 C4 1.405 . S
C5 H31 0.931 . S
U6 O7 2.454 . S
U6 O8 2.458 . S
U6 C9 2.984 . S
U6 C10 2.847 . S
U6 C23 2.882 . S
U6 O24 2.441 . S
U6 O25 2.420 . S
U6 O26 2.455 . S
U6 O27 2.449 . S
O7 U6 2.454 . S
O7 C9 1.353 . S
O8 U6 2.458 . S
O8 C9 1.286 . S
C9 U6 2.984 . S
C9 O7 1.353 . S
C9 O8 1.286 . S
C9 C11 1.363 . S
C10 C0 1.465 . S
C10 U6 2.847 . S
C10 O24 1.249 . S
C10 O25 1.202 . S
C11 C9 1.363 . S
C11 C13 1.408 . S
C11 C16 1.342 . S
C12 C13 1.310 . S
C12 C15 1.461 . S
C12 H32 0.932 . S
C13 C11 1.408 . S
C13 C12 1.310 . S
C13 H33 0.930 . S
C14 C15 1.474 . S
C14 C16 1.285 . S
C14 H34 0.929 . S
C15 C12 1.461 . S
C15 C14 1.474 . S
C16 C11 1.342 . S
C16 C14 1.285 . S
C16 H35 0.930 . S
C17 C20 1.424 . S
C17 C22 1.245 . S
C17 C23 1.428 . S
C18 C21 1.260 . S
C18 C22 1.477 . S
C18 H36 0.932 . S
C19 C20 1.384 . S
C19 C21 1.479 . S
C19 H37 0.929 . S
C20 C17 1.424 . S
C20 C19 1.384 . S
C20 H38 0.928 . S
C21 C18 1.260 . S
C21 C19 1.479 . S
C22 C17 1.245 . S
C22 C18 1.477 . S
C22 H39 0.932 . S
C23 U6 2.882 . S
C23 C17 1.428 . S
C23 O26 1.301 . S
C23 O27 1.282 . S
O24 U6 2.441 . S
O24 C10 1.249 . S
O25 U6 2.420 . S
O25 C10 1.202 . S
O26 U6 2.455 . S
O26 C23 1.301 . S
O27 U6 2.449 . S
O27 C23 1.282 . S
H28 C1 0.931 . S
H29 C3 0.929 . S
H30 C4 0.930 . S
H31 C5 0.931 . S
H32 C12 0.932 . S
H33 C13 0.930 . S
H34 C14 0.929 . S
H35 C16 0.930 . S
H36 C18 0.932 . S
H37 C19 0.929 . S
H38 C20 0.928 . S
H39 C22 0.932 . S
C40 C41 1.264 . S
C40 C45 1.479 . S
C40 C50 1.465 . S
C41 C40 1.264 . S
C41 C43 1.339 . S
C41 H68 0.931 . S
C42 C43 1.395 . S
C42 C44 1.320 . S
C43 C41 1.339 . S
C43 C42 1.395 . S
C43 H69 0.929 . S
C44 C42 1.320 . S
C44 C45 1.405 . S
C44 H70 0.921 1_455 S
C45 C40 1.479 . S
C45 C44 1.405 . S
C45 H71 0.931 . S
U46 O47 2.454 . S
U46 O48 2.458 . S
U46 C49 2.984 . S
U46 C50 2.847 . S
U46 C63 2.882 . S
U46 O64 2.441 . S
U46 O65 2.420 . S
U46 O66 2.455 . S
U46 O67 2.449 . S
O47 U46 2.454 . S
O47 C49 1.353 . S
O48 U46 2.458 . S
O48 C49 1.286 . S
C49 U46 2.984 . S
C49 O47 1.353 . S
C49 O48 1.286 . S
C49 C51 1.363 . S
C50 C40 1.465 . S
C50 U46 2.847 . S
C50 O64 1.249 . S
C50 O65 1.202 . S
C51 C49 1.363 . S
C51 C53 1.408 . S
C51 C56 1.342 . S
C52 C53 1.310 . S
C52 C55 1.461 . S
C52 H72 0.932 . S
C53 C51 1.408 . S
C53 C52 1.310 . S
C53 H73 0.930 . S
C54 C55 1.474 1_655 S
C54 C56 1.285 1_655 S
C54 H74 0.930 . S
C55 C52 1.461 . S
C55 C54 1.474 1_455 S
C56 C51 1.342 . S
C56 C54 1.285 1_455 S
C56 H75 0.932 . S
C57 C60 1.424 . S
C57 C62 1.245 . S
C57 C63 1.428 . S
C58 C61 1.260 . S
C58 C62 1.477 . S
C58 H76 0.932 . S
C59 C60 1.384 . S
C59 C61 1.479 . S
C59 H77 0.929 . S
C60 C57 1.424 . S
C60 C59 1.384 . S
C60 H78 0.928 . S
C61 C58 1.260 . S
C61 C59 1.479 . S
C62 C57 1.245 . S
C62 C58 1.477 . S
C62 H79 0.932 . S
C63 U46 2.882 . S
C63 C57 1.428 . S
C63 O66 1.301 . S
C63 O67 1.282 . S
O64 U46 2.441 . S
O64 C50 1.249 . S
O65 U46 2.420 . S
O65 C50 1.202 . S
O66 U46 2.455 . S
O66 C63 1.301 . S
O67 U46 2.449 . S
O67 C63 1.282 . S
H68 C41 0.931 . S
H69 C43 0.929 . S
H70 C44 0.921 1_655 S
H71 C45 0.931 . S
H72 C52 0.932 . S
H73 C53 0.930 . S
H74 C54 0.930 . S
H75 C56 0.932 . S
H76 C58 0.932 . S
H77 C59 0.929 . S
H78 C60 0.928 . S
H79 C62 0.932 . S
C80 C81 1.264 . S
C80 C85 1.479 . S
C80 C90 1.465 . S
C81 C80 1.264 . S
C81 C83 1.339 . S
C81 H108 0.931 . S
C82 C83 1.395 . S
C82 C84 1.320 . S
C83 C81 1.339 . S
C83 C82 1.395 . S
C83 H109 0.929 . S
C84 C82 1.320 . S
C84 C85 1.405 . S
C84 H110 0.921 1_545 S
C85 C80 1.479 . S
C85 C84 1.405 . S
C85 H111 0.931 . S
U86 O87 2.454 . S
U86 O88 2.458 . S
U86 C89 2.984 . S
U86 C90 2.847 . S
U86 C103 2.882 . S
U86 O104 2.441 . S
U86 O105 2.420 . S
U86 O106 2.455 . S
U86 O107 2.449 . S
O87 U86 2.454 . S
O87 C89 1.353 . S
O88 U86 2.458 . S
O88 C89 1.286 . S
C89 U86 2.984 . S
C89 O87 1.353 . S
C89 O88 1.286 . S
C89 C91 1.363 . S
C90 C80 1.465 . S
C90 U86 2.847 . S
C90 O104 1.249 . S
C90 O105 1.202 . S
C91 C89 1.363 . S
C91 C93 1.408 . S
C91 C96 1.342 . S
C92 C93 1.310 . S
C92 C95 1.461 . S
C92 H112 0.932 . S
C93 C91 1.408 . S
C93 C92 1.310 . S
C93 H113 0.930 . S
C94 C95 1.474 1_565 S
C94 C96 1.285 1_565 S
C94 H114 0.930 . S
C95 C92 1.461 . S
C95 C94 1.474 1_545 S
C96 C91 1.342 . S
C96 C94 1.285 1_545 S
C96 H115 0.932 . S
C97 C100 1.424 . S
C97 C102 1.245 . S
C97 C103 1.428 . S
C98 C101 1.260 . S
C98 C102 1.477 . S
C98 H116 0.932 . S
C99 C100 1.384 . S
C99 C101 1.479 . S
C99 H117 0.929 . S
C100 C97 1.424 . S
C100 C99 1.384 . S
C100 H118 0.928 . S
C101 C98 1.260 . S
C101 C99 1.479 . S
C102 C97 1.245 . S
C102 C98 1.477 . S
C102 H119 0.932 . S
C103 U86 2.882 . S
C103 C97 1.428 . S
C103 O106 1.301 . S
C103 O107 1.282 . S
O104 U86 2.441 . S
O104 C90 1.249 . S
O105 U86 2.420 . S
O105 C90 1.202 . S
O106 U86 2.455 . S
O106 C103 1.301 . S
O107 U86 2.449 . S
O107 C103 1.282 . S
H108 C81 0.931 . S
H109 C83 0.929 . S
H110 C84 0.921 1_565 S
H111 C85 0.931 . S
H112 C92 0.932 . S
H113 C93 0.930 . S
H114 C94 0.930 . S
H115 C96 0.932 . S
H116 C98 0.932 . S
H117 C99 0.929 . S
H118 C100 0.928 . S
H119 C102 0.932 . S
C120 C121 1.264 . S
C120 C125 1.479 . S
C120 C130 1.465 . S
C121 C120 1.264 . S
C121 C123 1.339 . S
C121 H148 0.931 . S
C122 C123 1.395 . S
C122 C124 1.320 . S
C123 C121 1.339 . S
C123 C122 1.395 . S
C123 H149 0.929 . S
C124 C122 1.320 . S
C124 C125 1.405 . S
C124 H150 0.930 . S
C125 C120 1.479 . S
C125 C124 1.405 . S
C125 H151 0.931 . S
U126 O127 2.454 . S
U126 O128 2.458 . S
U126 C129 2.984 . S
U126 C130 2.847 . S
U126 C143 2.882 . S
U126 O144 2.441 . S
U126 O145 2.420 . S
U126 O146 2.455 . S
U126 O147 2.449 . S
O127 U126 2.454 . S
O127 C129 1.353 . S
O128 U126 2.458 . S
O128 C129 1.286 . S
C129 U126 2.984 . S
C129 O127 1.353 . S
C129 O128 1.286 . S
C129 C131 1.363 . S
C130 C120 1.465 . S
C130 U126 2.847 . S
C130 O144 1.249 . S
C130 O145 1.202 . S
C131 C129 1.363 . S
C131 C133 1.408 . S
C131 C136 1.342 . S
C132 C133 1.310 . S
C132 C135 1.461 . S
C132 H152 0.932 . S
C133 C131 1.408 . S
C133 C132 1.310 . S
C133 H153 0.930 . S
C134 C135 1.474 . S
C134 C136 1.285 . S
C134 H154 0.929 . S
C135 C132 1.461 . S
C135 C134 1.474 . S
C136 C131 1.342 . S
C136 C134 1.285 . S
C136 H155 0.930 . S
C137 C140 1.424 . S
C137 C142 1.245 . S
C137 C143 1.428 . S
C138 C141 1.260 . S
C138 C142 1.477 . S
C138 H156 0.932 . S
C139 C140 1.384 . S
C139 C141 1.479 . S
C139 H157 0.929 . S
C140 C137 1.424 . S
C140 C139 1.384 . S
C140 H158 0.928 . S
C141 C138 1.260 . S
C141 C139 1.479 . S
C142 C137 1.245 . S
C142 C138 1.477 . S
C142 H159 0.932 . S
C143 U126 2.882 . S
C143 C137 1.428 . S
C143 O146 1.301 . S
C143 O147 1.282 . S
O144 U126 2.441 . S
O144 C130 1.249 . S
O145 U126 2.420 . S
O145 C130 1.202 . S
O146 U126 2.455 . S
O146 C143 1.301 . S
O147 U126 2.449 . S
O147 C143 1.282 . S
H148 C121 0.931 . S
H149 C123 0.929 . S
H150 C124 0.930 . S
H151 C125 0.931 . S
H152 C132 0.932 . S
H153 C133 0.930 . S
H154 C134 0.929 . S
H155 C136 0.930 . S
H156 C138 0.932 . S
H157 C139 0.929 . S
H158 C140 0.928 . S
H159 C142 0.932 . S
C160 C161 1.264 . S
C160 C165 1.479 . S
C160 C170 1.465 . S
C161 C160 1.264 . S
C161 C163 1.339 . S
C161 H188 0.931 . S
C162 C163 1.395 . S
C162 C164 1.320 . S
C163 C161 1.339 . S
C163 C162 1.395 . S
C163 H189 0.929 . S
C164 C162 1.320 . S
C164 C165 1.405 . S
C164 H190 0.930 . S
C165 C160 1.479 . S
C165 C164 1.405 . S
C165 H191 0.931 . S
U166 O167 2.454 . S
U166 O168 2.458 . S
U166 C169 2.984 . S
U166 C170 2.847 1_554 S
U166 C183 2.882 . S
U166 O184 2.441 1_554 S
U166 O185 2.420 1_554 S
U166 O186 2.455 . S
U166 O187 2.449 . S
O167 U166 2.454 . S
O167 C169 1.353 . S
O168 U166 2.458 . S
O168 C169 1.286 . S
C169 U166 2.984 . S
C169 O167 1.353 . S
C169 O168 1.286 . S
C169 C171 1.363 . S
C170 C160 1.465 . S
C170 U166 2.847 1_556 S
C170 O184 1.249 . S
C170 O185 1.202 . S
C171 C169 1.363 . S
C171 C173 1.408 . S
C171 C176 1.342 . S
C172 C173 1.310 . S
C172 C175 1.461 . S
C172 H192 0.932 . S
C173 C171 1.408 . S
C173 C172 1.310 . S
C173 H193 0.930 1_554 S
C174 C175 1.474 . S
C174 C176 1.285 . S
C174 H194 0.929 . S
C175 C172 1.461 . S
C175 C174 1.474 . S
C176 C171 1.342 . S
C176 C174 1.285 . S
C176 H195 0.930 . S
C177 C180 1.424 . S
C177 C182 1.245 . S
C177 C183 1.428 . S
C178 C181 1.260 . S
C178 C182 1.477 . S
C178 H196 0.932 . S
C179 C180 1.384 . S
C179 C181 1.479 . S
C179 H197 0.929 . S
C180 C177 1.424 . S
C180 C179 1.384 . S
C180 H198 0.928 . S
C181 C178 1.260 . S
C181 C179 1.479 . S
C182 C177 1.245 . S
C182 C178 1.477 . S
C182 H199 0.932 . S
C183 U166 2.882 . S
C183 C177 1.428 . S
C183 O186 1.301 . S
C183 O187 1.282 . S
O184 U166 2.441 1_556 S
O184 C170 1.249 . S
O185 U166 2.420 1_556 S
O185 C170 1.202 . S
O186 U166 2.455 . S
O186 C183 1.301 . S
O187 U166 2.449 . S
O187 C183 1.282 . S
H188 C161 0.931 . S
H189 C163 0.929 . S
H190 C164 0.930 . S
H191 C165 0.931 . S
H192 C172 0.932 . S
H193 C173 0.930 1_556 S
H194 C174 0.929 . S
H195 C176 0.930 . S
H196 C178 0.932 . S
H197 C179 0.929 . S
H198 C180 0.928 . S
H199 C182 0.932 . S
C200 C201 1.264 . S
C200 C205 1.479 . S
C200 C210 1.465 . S
C201 C200 1.264 . S
C201 C203 1.339 . S
C201 H228 0.931 . S
C202 C203 1.395 . S
C202 C204 1.320 . S
C203 C201 1.339 . S
C203 C202 1.395 . S
C203 H229 0.929 . S
C204 C202 1.320 . S
C204 C205 1.405 . S
C204 H230 0.923 1_455 S
C205 C200 1.479 . S
C205 C204 1.405 . S
C205 H231 0.931 . S
U206 O207 2.454 . S
U206 O208 2.458 . S
U206 C209 2.984 . S
U206 C210 2.847 1_554 S
U206 C223 2.882 . S
U206 O224 2.441 1_554 S
U206 O225 2.420 1_554 S
U206 O226 2.455 . S
U206 O227 2.449 . S
O207 U206 2.454 . S
O207 C209 1.353 . S
O208 U206 2.458 . S
O208 C209 1.286 . S
C209 U206 2.984 . S
C209 O207 1.353 . S
C209 O208 1.286 . S
C209 C211 1.363 . S
C210 C200 1.465 . S
C210 U206 2.847 1_556 S
C210 O224 1.249 . S
C210 O225 1.202 . S
C211 C209 1.363 . S
C211 C213 1.408 . S
C211 C216 1.342 . S
C212 C213 1.310 . S
C212 C215 1.462 . S
C212 H232 0.932 . S
C213 C211 1.408 . S
C213 C212 1.310 . S
C213 H233 0.930 1_554 S
C214 C215 1.474 1_655 S
C214 C216 1.286 1_655 S
C214 H234 0.929 . S
C215 C212 1.462 . S
C215 C214 1.474 1_455 S
C216 C211 1.342 . S
C216 C214 1.286 1_455 S
C216 H235 0.934 . S
C217 C220 1.424 . S
C217 C222 1.245 . S
C217 C223 1.428 . S
C218 C221 1.260 . S
C218 C222 1.477 . S
C218 H236 0.932 . S
C219 C220 1.384 . S
C219 C221 1.479 . S
C219 H237 0.929 . S
C220 C217 1.424 . S
C220 C219 1.384 . S
C220 H238 0.928 . S
C221 C218 1.260 . S
C221 C219 1.479 . S
C222 C217 1.245 . S
C222 C218 1.477 . S
C222 H239 0.932 . S
C223 U206 2.882 . S
C223 C217 1.428 . S
C223 O226 1.301 . S
C223 O227 1.282 . S
O224 U206 2.441 1_556 S
O224 C210 1.249 . S
O225 U206 2.420 1_556 S
O225 C210 1.202 . S
O226 U206 2.455 . S
O226 C223 1.301 . S
O227 U206 2.449 . S
O227 C223 1.282 . S
H228 C201 0.931 . S
H229 C203 0.929 . S
H230 C204 0.923 1_655 S
H231 C205 0.931 . S
H232 C212 0.932 . S
H233 C213 0.930 1_556 S
H234 C214 0.929 . S
H235 C216 0.934 . S
H236 C218 0.932 . S
H237 C219 0.929 . S
H238 C220 0.928 . S
H239 C222 0.932 . S
C240 C241 1.264 . S
C240 C245 1.479 . S
C240 C250 1.465 . S
C241 C240 1.264 . S
C241 C243 1.339 . S
C241 H268 0.931 . S
C242 C243 1.395 . S
C242 C244 1.320 . S
C243 C241 1.339 . S
C243 C242 1.395 . S
C243 H269 0.929 . S
C244 C242 1.320 . S
C244 C245 1.405 . S
C244 H270 0.923 1_545 S
C245 C240 1.479 . S
C245 C244 1.405 . S
C245 H271 0.931 . S
U246 O247 2.454 . S
U246 O248 2.458 . S
U246 C249 2.984 . S
U246 C250 2.847 1_554 S
U246 C263 2.882 . S
U246 O264 2.441 1_554 S
U246 O265 2.420 1_554 S
U246 O266 2.455 . S
U246 O267 2.449 . S
O247 U246 2.454 . S
O247 C249 1.353 . S
O248 U246 2.458 . S
O248 C249 1.286 . S
C249 U246 2.984 . S
C249 O247 1.353 . S
C249 O248 1.286 . S
C249 C251 1.363 . S
C250 C240 1.465 . S
C250 U246 2.847 1_556 S
C250 O264 1.249 . S
C250 O265 1.202 . S
C251 C249 1.363 . S
C251 C253 1.408 . S
C251 C256 1.342 . S
C252 C253 1.310 . S
C252 C255 1.462 . S
C252 H272 0.932 . S
C253 C251 1.408 . S
C253 C252 1.310 . S
C253 H273 0.930 1_554 S
C254 C255 1.474 1_565 S
C254 C256 1.286 1_565 S
C254 H274 0.929 . S
C255 C252 1.462 . S
C255 C254 1.474 1_545 S
C256 C251 1.342 . S
C256 C254 1.286 1_545 S
C256 H275 0.934 . S
C257 C260 1.424 . S
C257 C262 1.245 . S
C257 C263 1.428 . S
C258 C261 1.260 . S
C258 C262 1.477 . S
C258 H276 0.932 . S
C259 C260 1.384 . S
C259 C261 1.479 . S
C259 H277 0.929 . S
C260 C257 1.424 . S
C260 C259 1.384 . S
C260 H278 0.928 . S
C261 C258 1.260 . S
C261 C259 1.479 . S
C262 C257 1.245 . S
C262 C258 1.477 . S
C262 H279 0.932 . S
C263 U246 2.882 . S
C263 C257 1.428 . S
C263 O266 1.301 . S
C263 O267 1.282 . S
O264 U246 2.441 1_556 S
O264 C250 1.249 . S
O265 U246 2.420 1_556 S
O265 C250 1.202 . S
O266 U246 2.455 . S
O266 C263 1.301 . S
O267 U246 2.449 . S
O267 C263 1.282 . S
H268 C241 0.931 . S
H269 C243 0.929 . S
H270 C244 0.923 1_565 S
H271 C245 0.931 . S
H272 C252 0.932 . S
H273 C253 0.930 1_556 S
H274 C254 0.929 . S
H275 C256 0.934 . S
H276 C258 0.932 . S
H277 C259 0.929 . S
H278 C260 0.928 . S
H279 C262 0.932 . S
C280 C281 1.264 . S
C280 C285 1.479 . S
C280 C290 1.465 . S
C281 C280 1.264 . S
C281 C283 1.339 . S
C281 H308 0.931 . S
C282 C283 1.395 . S
C282 C284 1.320 . S
C283 C281 1.339 . S
C283 C282 1.395 . S
C283 H309 0.929 . S
C284 C282 1.320 . S
C284 C285 1.405 . S
C284 H310 0.930 . S
C285 C280 1.479 . S
C285 C284 1.405 . S
C285 H311 0.931 . S
U286 O287 2.454 . S
U286 O288 2.458 . S
U286 C289 2.984 . S
U286 C290 2.847 1_554 S
U286 C303 2.882 . S
U286 O304 2.441 1_554 S
U286 O305 2.420 1_554 S
U286 O306 2.455 . S
U286 O307 2.449 . S
O287 U286 2.454 . S
O287 C289 1.353 . S
O288 U286 2.458 . S
O288 C289 1.286 . S
C289 U286 2.984 . S
C289 O287 1.353 . S
C289 O288 1.286 . S
C289 C291 1.363 . S
C290 C280 1.465 . S
C290 U286 2.847 1_556 S
C290 O304 1.249 . S
C290 O305 1.202 . S
C291 C289 1.363 . S
C291 C293 1.408 . S
C291 C296 1.342 . S
C292 C293 1.310 . S
C292 C295 1.461 . S
C292 H312 0.932 . S
C293 C291 1.408 . S
C293 C292 1.310 . S
C293 H313 0.930 1_554 S
C294 C295 1.474 . S
C294 C296 1.285 . S
C294 H314 0.929 . S
C295 C292 1.461 . S
C295 C294 1.474 . S
C296 C291 1.342 . S
C296 C294 1.285 . S
C296 H315 0.930 . S
C297 C300 1.424 . S
C297 C302 1.245 . S
C297 C303 1.428 . S
C298 C301 1.260 . S
C298 C302 1.477 . S
C298 H316 0.932 . S
C299 C300 1.384 . S
C299 C301 1.479 . S
C299 H317 0.929 . S
C300 C297 1.424 . S
C300 C299 1.384 . S
C300 H318 0.928 . S
C301 C298 1.260 . S
C301 C299 1.479 . S
C302 C297 1.245 . S
C302 C298 1.477 . S
C302 H319 0.932 . S
C303 U286 2.882 . S
C303 C297 1.428 . S
C303 O306 1.301 . S
C303 O307 1.282 . S
O304 U286 2.441 1_556 S
O304 C290 1.249 . S
O305 U286 2.420 1_556 S
O305 C290 1.202 . S
O306 U286 2.455 . S
O306 C303 1.301 . S
O307 U286 2.449 . S
O307 C303 1.282 . S
H308 C281 0.931 . S
H309 C283 0.929 . S
H310 C284 0.930 . S
H311 C285 0.931 . S
H312 C292 0.932 . S
H313 C293 0.930 1_556 S
H314 C294 0.929 . S
H315 C296 0.930 . S
H316 C298 0.932 . S
H317 C299 0.929 . S
H318 C300 0.928 . S
H319 C302 0.932 . S
Sm320 C322 2.846 . S
Sm320 O340 2.543 . S
Sm320 O341 2.450 . S
Sm320 O342 2.681 1_565 S
Sm320 O343 2.464 . S
Sm320 O344 2.396 . S
Sm320 O348 2.386 1_455 S
Sm320 O351 2.408 1_565 S
Sm321 C331 2.846 . S
Sm321 O342 2.386 1_655 S
Sm321 O345 2.408 1_545 S
Sm321 O346 2.543 . S
Sm321 O347 2.450 . S
Sm321 O348 2.681 1_545 S
Sm321 O349 2.464 . S
Sm321 O350 2.396 . S
C322 Sm320 2.846 . S
C322 C323 1.506 . S
C322 O340 1.261 . S
C322 O341 1.242 . S
C323 C322 1.506 . S
C323 C324 1.358 . S
C323 C328 1.382 . S
C324 C323 1.358 . S
C324 C325 1.385 . S
C324 H352 0.930 1_455 S
C325 C324 1.385 . S
C325 C326 1.395 . S
C325 H353 0.929 1_455 S
C326 C325 1.395 . S
C326 C327 1.335 . S
C327 C326 1.335 . S
C327 C328 1.398 . S
C327 H354 0.930 . S
C328 C323 1.382 . S
C328 C327 1.398 . S
C328 H355 0.929 . S
C329 O342 1.256 1_565 S
C329 O343 1.278 . S
C330 O344 1.252 1_655 S
C330 O345 1.272 . S
C331 Sm321 2.846 . S
C331 C332 1.506 . S
C331 O346 1.261 . S
C331 O347 1.242 . S
C332 C331 1.506 . S
C332 C333 1.358 . S
C332 C337 1.382 . S
C333 C332 1.358 . S
C333 C334 1.385 . S
C333 H356 0.930 1_655 S
C334 C333 1.385 . S
C334 C335 1.395 . S
C334 H357 0.929 1_655 S
C335 C334 1.395 . S
C335 C336 1.335 . S
C336 C335 1.335 . S
C336 C337 1.398 . S
C336 H358 0.930 . S
C337 C332 1.382 . S
C337 C336 1.398 . S
C337 H359 0.929 . S
C338 O348 1.271 1_545 S
C338 O349 1.251 . S
C339 O350 1.252 1_455 S
C339 O351 1.272 . S
O340 Sm320 2.543 . S
O340 C322 1.261 . S
O341 Sm320 2.450 . S
O341 C322 1.242 . S
O342 Sm320 2.681 1_545 S
O342 Sm321 2.386 1_455 S
O342 C329 1.256 1_545 S
O343 Sm320 2.464 . S
O343 C329 1.278 . S
O344 Sm320 2.396 . S
O344 C330 1.252 1_455 S
O345 Sm321 2.408 1_565 S
O345 C330 1.272 . S
O346 Sm321 2.543 . S
O346 C331 1.261 . S
O347 Sm321 2.450 . S
O347 C331 1.242 . S
O348 Sm320 2.386 1_655 S
O348 Sm321 2.681 1_565 S
O348 C338 1.271 1_565 S
O349 Sm321 2.464 . S
O349 C338 1.251 . S
O350 Sm321 2.396 . S
O350 C339 1.252 1_655 S
O351 Sm320 2.408 1_545 S
O351 C339 1.272 . S
H352 C324 0.930 1_655 S
H353 C325 0.929 1_655 S
H354 C327 0.930 . S
H355 C328 0.929 . S
H356 C333 0.930 1_455 S
H357 C334 0.929 1_455 S
H358 C336 0.930 . S
H359 C337 0.929 . S
Sm360 C362 2.846 . S
Sm360 O380 2.543 . S
Sm360 O381 2.450 . S
Sm360 O382 2.681 . S
Sm360 O383 2.464 . S
Sm360 O384 2.396 . S
Sm360 O388 2.386 1_545 S
Sm360 O391 2.408 . S
Sm361 C371 2.846 . S
Sm361 O382 2.386 1_565 S
Sm361 O385 2.408 . S
Sm361 O386 2.543 . S
Sm361 O387 2.450 . S
Sm361 O388 2.681 . S
Sm361 O389 2.464 . S
Sm361 O390 2.396 . S
C362 Sm360 2.846 . S
C362 C363 1.506 . S
C362 O380 1.261 . S
C362 O381 1.242 . S
C363 C362 1.506 . S
C363 C364 1.358 . S
C363 C368 1.382 . S
C364 C363 1.358 . S
C364 C365 1.385 . S
C364 H392 0.930 1_545 S
C365 C364 1.385 . S
C365 C366 1.395 . S
C365 H393 0.929 1_545 S
C366 C365 1.395 . S
C366 C367 1.335 . S
C367 C366 1.335 . S
C367 C368 1.398 . S
C367 H394 0.930 . S
C368 C363 1.382 . S
C368 C367 1.398 . S
C368 H395 0.929 . S
C369 O382 1.271 . S
C369 O383 1.251 . S
C370 O384 1.252 1_565 S
C370 O385 1.272 . S
C371 Sm361 2.846 . S
C371 C372 1.506 . S
C371 O386 1.261 . S
C371 O387 1.242 . S
C372 C371 1.506 . S
C372 C373 1.358 . S
C372 C377 1.382 . S
C373 C372 1.358 . S
C373 C374 1.385 . S
C373 H396 0.930 1_565 S
C374 C373 1.385 . S
C374 C375 1.395 . S
C374 H397 0.929 1_565 S
C375 C374 1.395 . S
C375 C376 1.335 . S
C376 C375 1.335 . S
C376 C377 1.398 . S
C376 H398 0.930 . S
C377 C372 1.382 . S
C377 C376 1.398 . S
C377 H399 0.929 . S
C378 O388 1.271 . S
C378 O389 1.251 . S
C379 O390 1.252 1_545 S
C379 O391 1.272 . S
O380 Sm360 2.543 . S
O380 C362 1.261 . S
O381 Sm360 2.450 . S
O381 C362 1.242 . S
O382 Sm360 2.681 . S
O382 Sm361 2.386 1_545 S
O382 C369 1.271 . S
O383 Sm360 2.464 . S
O383 C369 1.251 . S
O384 Sm360 2.396 . S
O384 C370 1.252 1_545 S
O385 Sm361 2.408 . S
O385 C370 1.272 . S
O386 Sm361 2.543 . S
O386 C371 1.261 . S
O387 Sm361 2.450 . S
O387 C371 1.242 . S
O388 Sm360 2.386 1_565 S
O388 Sm361 2.681 . S
O388 C378 1.271 . S
O389 Sm361 2.464 . S
O389 C378 1.251 . S
O390 Sm361 2.396 . S
O390 C379 1.252 1_565 S
O391 Sm360 2.408 . S
O391 C379 1.272 . S
H392 C364 0.930 1_565 S
H393 C365 0.929 1_565 S
H394 C367 0.930 . S
H395 C368 0.929 . S
H396 C373 0.930 1_545 S
H397 C374 0.929 1_545 S
H398 C376 0.930 . S
H399 C377 0.929 . S
Sm400 C402 2.846 . S
Sm400 O420 2.543 . S
Sm400 O421 2.450 . S
Sm400 O422 2.681 . S
Sm400 O423 2.464 . S
Sm400 O424 2.396 . S
Sm400 O428 2.386 . S
Sm400 O431 2.408 . S
Sm401 C411 2.846 . S
Sm401 O422 2.386 . S
Sm401 O425 2.408 . S
Sm401 O426 2.543 . S
Sm401 O427 2.450 . S
Sm401 O428 2.681 . S
Sm401 O429 2.464 . S
Sm401 O430 2.396 . S
C402 Sm400 2.846 . S
C402 C403 1.506 . S
C402 O420 1.261 . S
C402 O421 1.242 . S
C403 C402 1.506 . S
C403 C404 1.358 . S
C403 C408 1.382 . S
C404 C403 1.358 . S
C404 C405 1.385 . S
C404 H432 0.930 . S
C405 C404 1.385 . S
C405 C406 1.395 . S
C405 H433 0.929 . S
C406 C405 1.395 . S
C406 C407 1.335 . S
C407 C406 1.335 . S
C407 C408 1.398 . S
C407 H434 0.930 . S
C408 C403 1.382 . S
C408 C407 1.398 . S
C408 H435 0.929 . S
C409 O422 1.271 . S
C409 O423 1.251 . S
C410 O424 1.252 . S
C410 O425 1.272 . S
C411 Sm401 2.846 . S
C411 C412 1.506 . S
C411 O426 1.261 . S
C411 O427 1.242 . S
C412 C411 1.506 . S
C412 C413 1.358 . S
C412 C417 1.382 . S
C413 C412 1.358 . S
C413 C414 1.385 . S
C413 H436 0.930 . S
C414 C413 1.385 . S
C414 C415 1.395 . S
C414 H437 0.929 . S
C415 C414 1.395 . S
C415 C416 1.335 . S
C416 C415 1.335 . S
C416 C417 1.398 . S
C416 H438 0.930 . S
C417 C412 1.382 . S
C417 C416 1.398 . S
C417 H439 0.929 . S
C418 O428 1.271 . S
C418 O429 1.251 . S
C419 O430 1.252 . S
C419 O431 1.272 . S
O420 Sm400 2.543 . S
O420 C402 1.261 . S
O421 Sm400 2.450 . S
O421 C402 1.242 . S
O422 Sm400 2.681 . S
O422 Sm401 2.386 . S
O422 C409 1.271 . S
O423 Sm400 2.464 . S
O423 C409 1.251 . S
O424 Sm400 2.396 . S
O424 C410 1.252 . S
O425 Sm401 2.408 . S
O425 C410 1.272 . S
O426 Sm401 2.543 . S
O426 C411 1.261 . S
O427 Sm401 2.450 . S
O427 C411 1.242 . S
O428 Sm400 2.386 . S
O428 Sm401 2.681 . S
O428 C418 1.271 . S
O429 Sm401 2.464 . S
O429 C418 1.251 . S
O430 Sm401 2.396 . S
O430 C419 1.252 . S
O431 Sm400 2.408 . S
O431 C419 1.272 . S
H432 C404 0.930 . S
H433 C405 0.929 . S
H434 C407 0.930 . S
H435 C408 0.929 . S
H436 C413 0.930 . S
H437 C414 0.929 . S
H438 C416 0.930 . S
H439 C417 0.929 . S
Sm440 C442 2.846 . S
Sm440 O460 2.543 . S
Sm440 O461 2.450 . S
Sm440 O462 2.681 1_655 S
Sm440 O463 2.464 . S
Sm440 O464 2.396 . S
Sm440 O468 2.386 . S
Sm440 O471 2.408 1_655 S
Sm441 C451 2.846 . S
Sm441 O462 2.386 . S
Sm441 O465 2.408 1_455 S
Sm441 O466 2.543 . S
Sm441 O467 2.450 . S
Sm441 O468 2.681 1_455 S
Sm441 O469 2.464 . S
Sm441 O470 2.396 . S
C442 Sm440 2.846 . S
C442 C443 1.506 . S
C442 O460 1.261 . S
C442 O461 1.242 . S
C443 C442 1.506 . S
C443 C444 1.358 . S
C443 C448 1.382 . S
C444 C443 1.358 . S
C444 C445 1.385 . S
C444 H472 0.930 . S
C445 C444 1.385 . S
C445 C446 1.395 . S
C445 H473 0.929 . S
C446 C445 1.395 . S
C446 C447 1.335 . S
C447 C446 1.335 . S
C447 C448 1.398 . S
C447 H474 0.930 . S
C448 C443 1.382 . S
C448 C447 1.398 . S
C448 H475 0.929 . S
C449 O462 1.257 1_655 S
C449 O463 1.276 . S
C450 O464 1.252 . S
C450 O465 1.272 . S
C451 Sm441 2.846 . S
C451 C452 1.506 . S
C451 O466 1.261 . S
C451 O467 1.242 . S
C452 C451 1.506 . S
C452 C453 1.358 . S
C452 C457 1.382 . S
C453 C452 1.358 . S
C453 C454 1.385 . S
C453 H476 0.930 . S
C454 C453 1.385 . S
C454 C455 1.395 . S
C454 H477 0.929 . S
C455 C454 1.395 . S
C455 C456 1.335 . S
C456 C455 1.335 . S
C456 C457 1.398 . S
C456 H478 0.930 . S
C457 C452 1.382 . S
C457 C456 1.398 . S
C457 H479 0.929 . S
C458 O468 1.271 1_455 S
C458 O469 1.251 . S
C459 O470 1.252 . S
C459 O471 1.272 . S
O460 Sm440 2.543 . S
O460 C442 1.261 . S
O461 Sm440 2.450 . S
O461 C442 1.242 . S
O462 Sm440 2.681 1_455 S
O462 Sm441 2.386 . S
O462 C449 1.257 1_455 S
O463 Sm440 2.464 . S
O463 C449 1.276 . S
O464 Sm440 2.396 . S
O464 C450 1.252 . S
O465 Sm441 2.408 1_655 S
O465 C450 1.272 . S
O466 Sm441 2.543 . S
O466 C451 1.261 . S
O467 Sm441 2.450 . S
O467 C451 1.242 . S
O468 Sm440 2.386 . S
O468 Sm441 2.681 1_655 S
O468 C458 1.271 1_655 S
O469 Sm441 2.464 . S
O469 C458 1.251 . S
O470 Sm441 2.396 . S
O470 C459 1.252 . S
O471 Sm440 2.408 1_455 S
O471 C459 1.272 . S
H472 C444 0.930 . S
H473 C445 0.929 . S
H474 C447 0.930 . S
H475 C448 0.929 . S
H476 C453 0.930 . S
H477 C454 0.929 . S
H478 C456 0.930 . S
H479 C457 0.929 . S
H480 C488 0.950 . S
H481 C493 0.950 . S
H482 C490 0.950 . S
H483 C492 0.950 . S
H484 C494 0.953 . S
H485 C496 0.959 . S
H486 C498 0.950 . S
H487 C499 0.950 . S
C488 H480 0.950 . S
C488 C489 1.383 1_545 S
C488 C490 1.391 . S
C489 C488 1.383 1_565 S
C489 C493 1.396 . S
C490 H482 0.950 . S
C490 C488 1.391 . S
C490 C491 1.401 . S
C491 C490 1.401 . S
C491 C492 1.397 1_545 S
C491 C497 1.491 . S
C492 H483 0.950 . S
C492 C491 1.397 1_565 S
C492 C493 1.391 . S
C493 H481 0.950 . S
C493 C489 1.396 . S
C493 C492 1.391 . S
C494 H484 0.953 . S
C494 C495 1.382 1_565 S
C494 C496 1.391 . S
C495 C494 1.382 1_545 S
C495 C499 1.393 . S
C496 H485 0.959 . S
C496 C494 1.391 . S
C496 C497 1.395 1_565 S
C497 C491 1.491 . S
C497 C496 1.395 1_545 S
C497 C498 1.398 . S
C498 H486 0.950 . S
C498 C497 1.398 . S
C498 C499 1.391 . S
C499 H487 0.950 . S
C499 C495 1.393 . S
C499 C498 1.391 . S
H500 C508 0.950 . S
H501 C513 0.950 . S
H502 C510 0.950 . S
H503 C512 0.950 . S
H504 C514 0.950 . S
H505 C516 0.950 . S
H506 C518 0.950 . S
H507 C519 0.950 . S
C508 H500 0.950 . S
C508 C509 1.386 . S
C508 C510 1.391 . S
C509 C508 1.386 . S
C509 C513 1.393 . S
C510 H502 0.950 . S
C510 C508 1.391 . S
C510 C511 1.400 . S
C511 C510 1.400 . S
C511 C512 1.398 . S
C511 C517 1.491 . S
C512 H503 0.950 . S
C512 C511 1.398 . S
C512 C513 1.391 . S
C513 H501 0.950 . S
C513 C509 1.393 . S
C513 C512 1.391 . S
C514 H504 0.950 . S
C514 C515 1.386 . S
C514 C516 1.391 . S
C515 C514 1.386 . S
C515 C519 1.393 . S
C516 H505 0.950 . S
C516 C514 1.391 . S
C516 C517 1.400 . S
C517 C511 1.491 . S
C517 C516 1.400 . S
C517 C518 1.398 . S
C518 H506 0.950 . S
C518 C517 1.398 . S
C518 C519 1.391 . S
C519 H507 0.950 . S
C519 C515 1.393 . S
C519 C518 1.391 . S
H520 C528 0.950 . S
H521 C533 0.950 . S
H522 C530 0.950 . S
H523 C532 0.950 . S
H524 C534 0.950 . S
H525 C536 0.950 . S
H526 C538 0.950 . S
H527 C539 0.950 . S
C528 H520 0.950 . S
C528 C529 1.386 . S
C528 C530 1.391 . S
C529 C528 1.386 . S
C529 C533 1.393 . S
C530 H522 0.950 . S
C530 C528 1.391 . S
C530 C531 1.400 . S
C531 C530 1.400 . S
C531 C532 1.398 . S
C531 C537 1.491 . S
C532 H523 0.950 . S
C532 C531 1.398 . S
C532 C533 1.391 . S
C533 H521 0.950 . S
C533 C529 1.393 . S
C533 C532 1.391 . S
C534 H524 0.950 . S
C534 C535 1.386 . S
C534 C536 1.391 . S
C535 C534 1.386 . S
C535 C539 1.393 . S
C536 H525 0.950 . S
C536 C534 1.391 . S
C536 C537 1.400 . S
C537 C531 1.491 . S
C537 C536 1.400 . S
C537 C538 1.398 . S
C538 H526 0.950 . S
C538 C537 1.398 . S
C538 C539 1.391 . S
C539 H527 0.950 . S
C539 C535 1.393 . S
C539 C538 1.391 . S
H540 C548 0.950 . S
H541 C553 0.950 . S
H542 C550 0.950 . S
H543 C552 0.950 . S
H544 C554 0.950 . S
H545 C556 0.950 . S
H546 C558 0.950 . S
H547 C559 0.950 . S
C548 H540 0.950 . S
C548 C549 1.390 . S
C548 C550 1.391 . S
C549 C548 1.390 . S
C549 C553 1.389 1_455 S
C550 H542 0.950 . S
C550 C548 1.391 . S
C550 C551 1.429 . S
C551 C550 1.429 . S
C551 C552 1.369 1_455 S
C551 C557 1.490 . S
C552 H543 0.950 . S
C552 C551 1.369 1_655 S
C552 C553 1.391 . S
C553 H541 0.950 . S
C553 C549 1.389 1_655 S
C553 C552 1.391 . S
C554 H544 0.950 . S
C554 C555 1.386 1_655 S
C554 C556 1.391 . S
C555 C554 1.386 1_455 S
C555 C559 1.393 . S
C556 H545 0.950 . S
C556 C554 1.391 . S
C556 C557 1.354 1_655 S
C557 C551 1.490 . S
C557 C556 1.354 1_455 S
C557 C558 1.446 . S
C558 H546 0.950 . S
C558 C557 1.446 . S
C558 C559 1.391 . S
C559 H547 0.950 . S
C559 C555 1.393 . S
C559 C558 1.391 . S
H560 C568 0.950 . S
H561 C573 0.950 . S
H562 C570 0.950 . S
H563 C572 0.950 . S
H564 C574 0.950 . S
H565 C576 0.950 . S
H566 C578 0.950 . S
H567 C579 0.950 . S
C568 H560 0.950 . S
C568 C569 1.390 1_545 S
C568 C570 1.391 . S
C569 C568 1.390 1_565 S
C569 C573 1.388 . S
C570 H562 0.950 . S
C570 C568 1.391 . S
C570 C571 1.384 1_545 S
C571 C570 1.384 1_565 S
C571 C572 1.415 . S
C571 C577 1.490 1_554 S
C572 H563 0.950 . S
C572 C571 1.415 . S
C572 C573 1.391 . S
C573 H561 0.950 . S
C573 C569 1.388 . S
C573 C572 1.391 . S
C574 H564 0.950 . S
C574 C575 1.386 . S
C574 C576 1.391 . S
C575 C574 1.386 . S
C575 C579 1.393 1_565 S
C576 H565 0.950 . S
C576 C574 1.391 . S
C576 C577 1.433 . S
C577 C571 1.490 1_556 S
C577 C576 1.433 . S
C577 C578 1.366 1_565 S
C578 H566 0.950 . S
C578 C577 1.366 1_545 S
C578 C579 1.391 . S
C579 H567 0.950 . S
C579 C575 1.393 1_545 S
C579 C578 1.391 . S
H580 C588 0.950 . S
H581 C593 0.950 . S
H582 C590 0.950 . S
H583 C592 0.950 . S
H584 C594 0.950 . S
H585 C596 0.950 . S
H586 C598 0.950 . S
H587 C599 0.950 . S
C588 H580 0.950 . S
C588 C589 1.386 . S
C588 C590 1.391 . S
C589 C588 1.386 . S
C589 C593 1.393 . S
C590 H582 0.950 . S
C590 C588 1.391 . S
C590 C591 1.400 . S
C591 C590 1.400 . S
C591 C592 1.398 . S
C591 C597 1.491 1_554 S
C592 H583 0.950 . S
C592 C591 1.398 . S
C592 C593 1.391 . S
C593 H581 0.950 . S
C593 C589 1.393 . S
C593 C592 1.391 . S
C594 H584 0.950 . S
C594 C595 1.386 . S
C594 C596 1.391 . S
C595 C594 1.386 . S
C595 C599 1.393 . S
C596 H585 0.950 . S
C596 C594 1.391 . S
C596 C597 1.400 . S
C597 C591 1.491 1_556 S
C597 C596 1.400 . S
C597 C598 1.398 . S
C598 H586 0.950 . S
C598 C597 1.398 . S
C598 C599 1.391 . S
C599 H587 0.950 . S
C599 C595 1.393 . S
C599 C598 1.391 . S
H600 C608 0.950 . S
H601 C613 0.950 . S
H602 C610 0.950 . S
H603 C612 0.950 . S
H604 C614 0.950 . S
H605 C616 0.950 . S
H606 C618 0.950 . S
H607 C619 0.950 . S
C608 H600 0.950 . S
C608 C609 1.386 . S
C608 C610 1.391 . S
C609 C608 1.386 . S
C609 C613 1.393 . S
C610 H602 0.950 . S
C610 C608 1.391 . S
C610 C611 1.400 . S
C611 C610 1.400 . S
C611 C612 1.398 . S
C611 C617 1.491 1_554 S
C612 H603 0.950 . S
C612 C611 1.398 . S
C612 C613 1.391 . S
C613 H601 0.950 . S
C613 C609 1.393 . S
C613 C612 1.391 . S
C614 H604 0.950 . S
C614 C615 1.386 . S
C614 C616 1.391 . S
C615 C614 1.386 . S
C615 C619 1.393 . S
C616 H605 0.950 . S
C616 C614 1.391 . S
C616 C617 1.400 . S
C617 C611 1.491 1_556 S
C617 C616 1.400 . S
C617 C618 1.398 . S
C618 H606 0.950 . S
C618 C617 1.398 . S
C618 C619 1.391 . S
C619 H607 0.950 . S
C619 C615 1.393 . S
C619 C618 1.391 . S
H620 C628 0.950 . S
H621 C633 0.950 . S
H622 C630 0.950 . S
H623 C632 0.950 . S
H624 C634 0.950 . S
H625 C636 0.950 . S
H626 C638 0.950 . S
H627 C639 0.950 . S
C628 H620 0.950 . S
C628 C629 1.382 . S
C628 C630 1.391 . S
C629 C628 1.382 . S
C629 C633 1.397 1_455 S
C630 H622 0.950 . S
C630 C628 1.391 . S
C630 C631 1.381 1_455 S
C631 C630 1.381 1_655 S
C631 C632 1.417 . S
C631 C637 1.491 1_554 S
C632 H623 0.950 . S
C632 C631 1.417 . S
C632 C633 1.391 . S
C633 H621 0.950 . S
C633 C629 1.397 1_655 S
C633 C632 1.391 . S
C634 H624 0.950 . S
C634 C635 1.386 . S
C634 C636 1.391 . S
C635 C634 1.386 . S
C635 C639 1.393 1_655 S
C636 H625 0.950 . S
C636 C634 1.391 . S
C636 C637 1.400 . S
C637 C631 1.491 1_556 S
C637 C636 1.400 . S
C637 C638 1.398 1_655 S
C638 H626 0.950 . S
C638 C637 1.398 1_455 S
C638 C639 1.391 . S
C639 H627 0.950 . S
C639 C635 1.393 1_455 S
C639 C638 1.391 . S
H640 C648 0.949 1_455 S
H641 C653 0.944 1_455 S
H642 C650 0.950 . S
H643 C652 0.950 . S
H644 C654 0.950 . S
H645 C656 0.950 . S
H646 C658 0.950 . S
H647 C659 0.950 . S
C648 H640 0.949 1_655 S
C648 C649 1.385 1_655 S
C648 C650 1.392 . S
C649 C648 1.385 1_455 S
C649 C653 1.386 1_455 S
C650 H642 0.950 . S
C650 C648 1.392 . S
C650 C651 1.400 . S
C651 C650 1.400 . S
C651 C652 1.398 . S
C651 C657 1.491 . S
C652 H643 0.950 . S
C652 C651 1.398 . S
C652 C653 1.405 . S
C653 H641 0.944 1_655 S
C653 C649 1.386 1_655 S
C653 C652 1.405 . S
C654 H644 0.950 . S
C654 C655 1.386 . S
C654 C656 1.391 . S
C655 C654 1.386 . S
C655 C659 1.393 . S
C656 H645 0.950 . S
C656 C654 1.391 . S
C656 C657 1.400 . S
C657 C651 1.491 . S
C657 C656 1.400 . S
C657 C658 1.398 . S
C658 H646 0.950 . S
C658 C657 1.398 . S
C658 C659 1.391 . S
C659 H647 0.950 . S
C659 C655 1.393 . S
C659 C658 1.391 . S
H660 C668 0.950 . S
H661 C673 0.950 . S
H662 C670 0.950 . S
H663 C672 0.950 . S
H664 C674 0.950 . S
H665 C676 0.950 . S
H666 C678 0.950 . S
H667 C679 0.950 . S
C668 H660 0.950 . S
C668 C669 1.386 1_565 S
C668 C670 1.391 . S
C669 C668 1.386 1_545 S
C669 C673 1.393 . S
C670 H662 0.950 . S
C670 C668 1.391 . S
C670 C671 1.400 . S
C671 C670 1.400 . S
C671 C672 1.398 . S
C671 C677 1.491 . S
C672 H663 0.950 . S
C672 C671 1.398 . S
C672 C673 1.391 1_565 S
C673 H661 0.950 . S
C673 C669 1.393 . S
C673 C672 1.391 1_545 S
C674 H664 0.950 . S
C674 C675 1.386 . S
C674 C676 1.391 . S
C675 C674 1.386 . S
C675 C679 1.393 . S
C676 H665 0.950 . S
C676 C674 1.391 . S
C676 C677 1.400 . S
C677 C671 1.491 . S
C677 C676 1.400 . S
C677 C678 1.398 . S
C678 H666 0.950 . S
C678 C677 1.398 . S
C678 C679 1.391 . S
C679 H667 0.950 . S
C679 C675 1.393 . S
C679 C678 1.391 . S
H680 C688 0.950 . S
H681 C693 0.950 . S
H682 C690 0.950 . S
H683 C692 0.950 . S
H684 C694 0.950 . S
H685 C696 0.950 . S
H686 C698 0.950 . S
H687 C699 0.950 . S
C688 H680 0.950 . S
C688 C689 1.386 . S
C688 C690 1.391 . S
C689 C688 1.386 . S
C689 C693 1.393 . S
C690 H682 0.950 . S
C690 C688 1.391 . S
C690 C691 1.400 . S
C691 C690 1.400 . S
C691 C692 1.398 . S
C691 C697 1.491 . S
C692 H683 0.950 . S
C692 C691 1.398 . S
C692 C693 1.391 . S
C693 H681 0.950 . S
C693 C689 1.393 . S
C693 C692 1.391 . S
C694 H684 0.950 . S
C694 C695 1.386 . S
C694 C696 1.391 . S
C695 C694 1.386 . S
C695 C699 1.393 . S
C696 H685 0.950 . S
C696 C694 1.391 . S
C696 C697 1.400 . S
C697 C691 1.491 . S
C697 C696 1.400 . S
C697 C698 1.398 . S
C698 H686 0.950 . S
C698 C697 1.398 . S
C698 C699 1.391 . S
C699 H687 0.950 . S
C699 C695 1.393 . S
C699 C698 1.391 . S
H700 C708 0.950 . S
H701 C713 0.950 . S
H702 C710 0.950 . S
H703 C712 0.950 . S
H704 C714 0.950 . S
H705 C716 0.950 . S
H706 C718 0.950 . S
H707 C719 0.950 . S
C708 H700 0.950 . S
C708 C709 1.386 . S
C708 C710 1.391 . S
C709 C708 1.386 . S
C709 C713 1.393 . S
C710 H702 0.950 . S
C710 C708 1.391 . S
C710 C711 1.400 . S
C711 C710 1.400 . S
C711 C712 1.398 . S
C711 C717 1.491 . S
C712 H703 0.950 . S
C712 C711 1.398 . S
C712 C713 1.391 . S
C713 H701 0.950 . S
C713 C709 1.393 . S
C713 C712 1.391 . S
C714 H704 0.950 . S
C714 C715 1.386 . S
C714 C716 1.391 . S
C715 C714 1.386 . S
C715 C719 1.393 . S
C716 H705 0.950 . S
C716 C714 1.391 . S
C716 C717 1.400 . S
C717 C711 1.491 . S
C717 C716 1.400 . S
C717 C718 1.398 . S
C718 H706 0.950 . S
C718 C717 1.398 . S
C718 C719 1.391 . S
C719 H707 0.950 . S
C719 C715 1.393 . S
C719 C718 1.391 . S
H720 C728 0.950 . S
H721 C733 0.950 1_556 S
H722 C730 0.950 . S
H723 C732 0.950 . S
H724 C734 0.950 . S
H725 C736 0.950 1_655 S
H726 C738 0.950 1_554 S
H727 C739 0.950 . S
C728 H720 0.950 . S
C728 C729 1.386 1_455 S
C728 C730 1.391 . S
C729 C728 1.386 1_655 S
C729 C733 1.393 . S
C730 H722 0.950 . S
C730 C728 1.391 . S
C730 C731 1.400 1_554 S
C731 C730 1.400 1_556 S
C731 C732 1.398 1_455 S
C731 C737 1.491 . S
C732 H723 0.950 . S
C732 C731 1.398 1_655 S
C732 C733 1.391 1_556 S
C733 H721 0.950 1_554 S
C733 C729 1.393 . S
C733 C732 1.391 1_554 S
C734 H724 0.950 . S
C734 C735 1.386 . S
C734 C736 1.391 . S
C735 C734 1.386 . S
C735 C739 1.393 . S
C736 H725 0.950 1_455 S
C736 C734 1.391 . S
C736 C737 1.400 . S
C737 C731 1.491 . S
C737 C736 1.400 . S
C737 C738 1.398 . S
C738 H726 0.950 1_556 S
C738 C737 1.398 . S
C738 C739 1.391 . S
C739 H727 0.950 . S
C739 C735 1.393 . S
C739 C738 1.391 . S
H740 C748 0.950 . S
H741 C753 0.953 . S
H742 C750 0.950 . S
H743 C752 0.950 . S
H744 C754 0.950 . S
H745 C756 0.950 . S
H746 C758 0.950 . S
H747 C759 0.950 1_554 S
C748 H740 0.950 . S
C748 C749 1.386 1_545 S
C748 C750 1.391 . S
C749 C748 1.386 1_565 S
C749 C753 1.393 1_554 S
C750 H742 0.950 . S
C750 C748 1.391 . S
C750 C751 1.394 1_554 S
C751 C750 1.394 1_556 S
C751 C752 1.402 . S
C751 C757 1.493 . S
C752 H743 0.950 . S
C752 C751 1.402 . S
C752 C753 1.387 1_545 S
C753 H741 0.953 . S
C753 C749 1.393 1_556 S
C753 C752 1.387 1_565 S
C754 H744 0.950 . S
C754 C755 1.386 . S
C754 C756 1.391 . S
C755 C754 1.386 . S
C755 C759 1.393 . S
C756 H745 0.950 . S
C756 C754 1.391 . S
C756 C757 1.400 . S
C757 C751 1.493 . S
C757 C756 1.400 . S
C757 C758 1.398 1_556 S
C758 H746 0.950 . S
C758 C757 1.398 1_554 S
C758 C759 1.391 1_554 S
C759 H747 0.950 1_556 S
C759 C755 1.393 . S
C759 C758 1.391 1_556 S
H760 C768 0.950 . S
H761 C773 0.953 . S
H762 C770 0.950 . S
H763 C772 0.950 . S
H764 C774 0.950 . S
H765 C776 0.950 . S
H766 C778 0.950 1_554 S
H767 C779 0.950 . S
C768 H760 0.950 . S
C768 C769 1.386 . S
C768 C770 1.391 . S
C769 C768 1.386 . S
C769 C773 1.393 . S
C770 H762 0.950 . S
C770 C768 1.391 . S
C770 C771 1.411 . S
C771 C770 1.411 . S
C771 C772 1.395 1_554 S
C771 C777 1.484 1_554 S
C772 H763 0.950 . S
C772 C771 1.395 1_556 S
C772 C773 1.391 1_556 S
C773 H761 0.953 . S
C773 C769 1.393 . S
C773 C772 1.391 1_554 S
C774 H764 0.950 . S
C774 C775 1.386 . S
C774 C776 1.391 . S
C775 C774 1.386 . S
C775 C779 1.393 . S
C776 H765 0.950 . S
C776 C774 1.391 . S
C776 C777 1.400 . S
C777 C771 1.484 1_556 S
C777 C776 1.400 . S
C777 C778 1.398 . S
C778 H766 0.950 1_556 S
C778 C777 1.398 . S
C778 C779 1.391 . S
C779 H767 0.950 . S
C779 C775 1.393 . S
C779 C778 1.391 . S
H780 C788 0.950 1_556 S
H781 C793 0.950 . S
H782 C790 0.950 . S
H783 C792 0.950 . S
H784 C794 0.950 . S
H785 C796 0.950 1_554 S
H786 C798 0.950 . S
H787 C799 0.950 . S
C788 H780 0.950 1_554 S
C788 C789 1.386 . S
C788 C790 1.391 1_554 S
C789 C788 1.386 . S
C789 C793 1.393 . S
C790 H782 0.950 . S
C790 C788 1.391 1_556 S
C790 C791 1.400 . S
C791 C790 1.400 . S
C791 C792 1.398 1_556 S
C791 C797 1.491 . S
C792 H783 0.950 . S
C792 C791 1.398 1_554 S
C792 C793 1.391 . S
C793 H781 0.950 . S
C793 C789 1.393 . S
C793 C792 1.391 . S
C794 H784 0.950 . S
C794 C795 1.386 . S
C794 C796 1.391 . S
C795 C794 1.386 . S
C795 C799 1.393 . S
C796 H785 0.950 1_556 S
C796 C794 1.391 . S
C796 C797 1.400 . S
C797 C791 1.491 . S
C797 C796 1.400 . S
C797 C798 1.398 . S
C798 H786 0.950 . S
C798 C797 1.398 . S
C798 C799 1.391 . S
C799 H787 0.950 . S
C799 C795 1.393 . S
C799 C798 1.391 . S
H800 C808 0.950 . S
H801 C813 0.950 . S
H802 C810 0.950 . S
H803 C812 0.950 . S
H804 C814 0.950 . S
H805 C816 0.950 . S
H806 C818 0.950 . S
H807 C819 0.950 . S
C808 H800 0.950 . S
C808 C809 1.386 1_655 S
C808 C810 1.391 . S
C809 C808 1.386 1_455 S
C809 C813 1.393 . S
C810 H802 0.950 . S
C810 C808 1.391 . S
C810 C811 1.400 1_655 S
C811 C810 1.400 1_455 S
C811 C812 1.398 . S
C811 C817 1.491 . S
C812 H803 0.950 . S
C812 C811 1.398 . S
C812 C813 1.391 . S
C813 H801 0.950 . S
C813 C809 1.393 . S
C813 C812 1.391 . S
C814 H804 0.950 . S
C814 C815 1.386 . S
C814 C816 1.391 . S
C815 C814 1.386 . S
C815 C819 1.393 1_455 S
C816 H805 0.950 . S
C816 C814 1.391 . S
C816 C817 1.400 . S
C817 C811 1.491 . S
C817 C816 1.400 . S
C817 C818 1.398 1_455 S
C818 H806 0.950 . S
C818 C817 1.398 1_655 S
C818 C819 1.391 . S
C819 H807 0.950 . S
C819 C815 1.393 1_655 S
C819 C818 1.391 . S
H820 C828 0.950 . S
H821 C833 0.950 . S
H822 C830 0.950 . S
H823 C832 0.950 . S
H824 C834 0.950 . S
H825 C836 0.950 . S
H826 C838 0.950 . S
H827 C839 0.950 . S
C828 H820 0.950 . S
C828 C829 1.386 1_565 S
C828 C830 1.391 . S
C829 C828 1.386 1_545 S
C829 C833 1.393 . S
C830 H822 0.950 . S
C830 C828 1.391 . S
C830 C831 1.400 1_565 S
C831 C830 1.400 1_545 S
C831 C832 1.398 . S
C831 C837 1.491 . S
C832 H823 0.950 . S
C832 C831 1.398 . S
C832 C833 1.391 . S
C833 H821 0.950 . S
C833 C829 1.393 . S
C833 C832 1.391 . S
C834 H824 0.950 . S
C834 C835 1.386 . S
C834 C836 1.391 . S
C835 C834 1.386 . S
C835 C839 1.393 1_545 S
C836 H825 0.950 . S
C836 C834 1.391 . S
C836 C837 1.400 . S
C837 C831 1.491 . S
C837 C836 1.400 . S
C837 C838 1.398 1_545 S
C838 H826 0.950 . S
C838 C837 1.398 1_565 S
C838 C839 1.391 . S
C839 H827 0.950 . S
C839 C835 1.393 1_565 S
C839 C838 1.391 . S
H840 C848 0.950 . S
H841 C853 0.950 . S
H842 C850 0.950 . S
H843 C852 0.950 . S
H844 C854 0.950 . S
H845 C856 0.950 . S
H846 C858 0.950 . S
H847 C859 0.950 . S
C848 H840 0.950 . S
C848 C849 1.386 . S
C848 C850 1.391 . S
C849 C848 1.386 . S
C849 C853 1.393 . S
C850 H842 0.950 . S
C850 C848 1.391 . S
C850 C851 1.400 . S
C851 C850 1.400 . S
C851 C852 1.398 . S
C851 C857 1.491 . S
C852 H843 0.950 . S
C852 C851 1.398 . S
C852 C853 1.391 . S
C853 H841 0.950 . S
C853 C849 1.393 . S
C853 C852 1.391 . S
C854 H844 0.950 . S
C854 C855 1.386 . S
C854 C856 1.391 . S
C855 C854 1.386 . S
C855 C859 1.393 . S
C856 H845 0.950 . S
C856 C854 1.391 . S
C856 C857 1.400 . S
C857 C851 1.491 . S
C857 C856 1.400 . S
C857 C858 1.398 . S
C858 H846 0.950 . S
C858 C857 1.398 . S
C858 C859 1.391 . S
C859 H847 0.950 . S
C859 C855 1.393 . S
C859 C858 1.391 . S
H860 C868 0.950 . S
H861 C873 0.950 . S
H862 C870 0.950 . S
H863 C872 0.950 . S
H864 C874 0.950 . S
H865 C876 0.950 . S
H866 C878 0.950 . S
H867 C879 0.950 . S
C868 H860 0.950 . S
C868 C869 1.386 . S
C868 C870 1.391 . S
C869 C868 1.386 . S
C869 C873 1.393 . S
C870 H862 0.950 . S
C870 C868 1.391 . S
C870 C871 1.400 . S
C871 C870 1.400 . S
C871 C872 1.398 . S
C871 C877 1.491 . S
C872 H863 0.950 . S
C872 C871 1.398 . S
C872 C873 1.391 . S
C873 H861 0.950 . S
C873 C869 1.393 . S
C873 C872 1.391 . S
C874 H864 0.950 . S
C874 C875 1.386 . S
C874 C876 1.391 . S
C875 C874 1.386 . S
C875 C879 1.393 . S
C876 H865 0.950 . S
C876 C874 1.391 . S
C876 C877 1.400 . S
C877 C871 1.491 . S
C877 C876 1.400 . S
C877 C878 1.398 . S
C878 H866 0.950 . S
C878 C877 1.398 . S
C878 C879 1.391 . S
C879 H867 0.950 . S
C879 C875 1.393 . S
C879 C878 1.391 . S
H880 C888 0.950 . S
H881 C893 0.950 . S
H882 C890 0.950 . S
H883 C892 0.950 . S
H884 C894 0.950 . S
H885 C896 0.950 . S
H886 C898 0.950 . S
H887 C899 0.950 . S
C888 H880 0.950 . S
C888 C889 1.386 . S
C888 C890 1.391 . S
C889 C888 1.386 . S
C889 C893 1.393 1_655 S
C890 H882 0.950 . S
C890 C888 1.391 . S
C890 C891 1.400 . S
C891 C890 1.400 . S
C891 C892 1.398 1_655 S
C891 C897 1.491 . S
C892 H883 0.950 . S
C892 C891 1.398 1_455 S
C892 C893 1.391 . S
C893 H881 0.950 . S
C893 C889 1.393 1_455 S
C893 C892 1.391 . S
C894 H884 0.950 . S
C894 C895 1.386 1_455 S
C894 C896 1.391 . S
C895 C894 1.386 1_655 S
C895 C899 1.393 . S
C896 H885 0.950 . S
C896 C894 1.391 . S
C896 C897 1.400 1_455 S
C897 C891 1.491 . S
C897 C896 1.400 1_655 S
C897 C898 1.398 . S
C898 H886 0.950 . S
C898 C897 1.398 . S
C898 C899 1.391 . S
C899 H887 0.950 . S
C899 C895 1.393 . S
C899 C898 1.391 . S
H900 C908 0.950 . S
H901 C913 0.950 . S
H902 C910 0.950 . S
H903 C912 0.950 . S
H904 C914 0.950 . S
H905 C916 0.950 . S
H906 C918 0.950 . S
H907 C919 0.950 . S
C908 H900 0.950 . S
C908 C909 1.386 . S
C908 C910 1.391 . S
C909 C908 1.386 . S
C909 C913 1.393 . S
C910 H902 0.950 . S
C910 C908 1.391 . S
C910 C911 1.400 . S
C911 C910 1.400 . S
C911 C912 1.398 . S
C911 C917 1.491 . S
C912 H903 0.950 . S
C912 C911 1.398 . S
C912 C913 1.391 . S
C913 H901 0.950 . S
C913 C909 1.393 . S
C913 C912 1.391 . S
C914 H904 0.950 . S
C914 C915 1.386 . S
C914 C916 1.391 . S
C915 C914 1.386 . S
C915 C919 1.393 . S
C916 H905 0.950 . S
C916 C914 1.391 . S
C916 C917 1.400 . S
C917 C911 1.491 . S
C917 C916 1.400 . S
C917 C918 1.398 . S
C918 H906 0.950 . S
C918 C917 1.398 . S
C918 C919 1.391 . S
C919 H907 0.950 . S
C919 C915 1.393 . S
C919 C918 1.391 . S
H920 C928 0.950 . S
H921 C933 0.950 . S
H922 C930 0.950 . S
H923 C932 0.950 . S
H924 C934 0.950 . S
H925 C936 0.950 . S
H926 C938 0.950 . S
H927 C939 0.950 . S
C928 H920 0.950 . S
C928 C929 1.386 . S
C928 C930 1.391 . S
C929 C928 1.386 . S
C929 C933 1.393 . S
C930 H922 0.950 . S
C930 C928 1.391 . S
C930 C931 1.400 . S
C931 C930 1.400 . S
C931 C932 1.398 . S
C931 C937 1.491 . S
C932 H923 0.950 . S
C932 C931 1.398 . S
C932 C933 1.391 . S
C933 H921 0.950 . S
C933 C929 1.393 . S
C933 C932 1.391 . S
C934 H924 0.950 . S
C934 C935 1.386 . S
C934 C936 1.391 . S
C935 C934 1.386 . S
C935 C939 1.393 . S
C936 H925 0.950 . S
C936 C934 1.391 . S
C936 C937 1.400 . S
C937 C931 1.491 . S
C937 C936 1.400 . S
C937 C938 1.398 . S
C938 H926 0.950 . S
C938 C937 1.398 . S
C938 C939 1.391 . S
C939 H927 0.950 . S
C939 C935 1.393 . S
C939 C938 1.391 . S
H940 C948 0.950 . S
H941 C953 0.950 . S
H942 C950 0.950 . S
H943 C952 0.950 . S
H944 C954 0.950 . S
H945 C956 0.950 . S
H946 C958 0.950 . S
H947 C959 0.950 . S
C948 H940 0.950 . S
C948 C949 1.386 . S
C948 C950 1.391 . S
C949 C948 1.386 . S
C949 C953 1.393 . S
C950 H942 0.950 . S
C950 C948 1.391 . S
C950 C951 1.400 . S
C951 C950 1.400 . S
C951 C952 1.398 . S
C951 C957 1.491 . S
C952 H943 0.950 . S
C952 C951 1.398 . S
C952 C953 1.391 . S
C953 H941 0.950 . S
C953 C949 1.393 . S
C953 C952 1.391 . S
C954 H944 0.950 . S
C954 C955 1.386 . S
C954 C956 1.391 . S
C955 C954 1.386 . S
C955 C959 1.393 . S
C956 H945 0.950 . S
C956 C954 1.391 . S
C956 C957 1.400 . S
C957 C951 1.491 . S
C957 C956 1.400 . S
C957 C958 1.398 . S
C958 H946 0.950 . S
C958 C957 1.398 . S
C958 C959 1.391 . S
C959 H947 0.950 . S
C959 C955 1.393 . S
C959 C958 1.391 . S
C489 C255 2.220 1_565 S
C495 C329 2.412 1_545 S
C515 C369 2.420 . S
C509 C295 2.231 . S
C535 C409 2.415 . S
C529 C175 2.209 . S
C555 C449 2.416 1_455 S
C549 C215 2.234 . S
C575 C338 2.418 1_565 S
C569 C95 2.238 1_565 S
C589 C135 2.220 . S
C595 C378 2.416 . S
C609 C15 2.232 . S
C615 C418 2.417 . S
C629 C55 2.232 . S
C635 C458 2.420 1_655 S
C655 C335 0.471 . S
C649 C221 0.423 . S
C675 C375 0.394 . S
C669 C261 0.398 . S
C695 C415 0.422 . S
C689 C301 0.446 . S
C709 C181 0.380 . S
C715 C455 0.434 . S
C729 C61 0.533 1_655 S
C735 C326 0.427 . S
C755 C366 0.398 . S
C749 C101 0.482 1_565 S
C775 C406 0.398 . S
C769 C141 0.466 . S
C789 C21 0.559 . S
C795 C446 0.469 . S
C809 C202 3.136 . S
C815 C339 3.474 . S
C829 C242 3.129 . S
C835 C379 3.472 . S
C855 C419 3.468 . S
C849 C282 3.110 . S
C875 C459 3.470 . S
C869 C162 3.110 . S
C889 C42 3.153 1_655 S
C895 C330 3.483 . S
C915 C370 3.469 . S
C909 C82 3.143 1_565 S
C935 C410 3.473 . S
C929 C122 3.149 . S
C949 C2 3.153 . S
C955 C450 3.482 . S
