# Generated by pormake.
# Topology zzz, (3,6)-cn, num edge types: 1
# Building blocks:
#     Node 0, Type 0, BuildingBlock: WUSLED_clean_sbu_0, # of connection points: 3
#     Node 1, Type 0, BuildingBlock: WUSLED_clean_sbu_0, # of connection points: 3
#     Node 2, Type 0, BuildingBlock: WUSLED_clean_sbu_0, # of connection points: 3
#     Node 3, Type 0, BuildingBlock: WUSLED_clean_sbu_0, # of connection points: 3
#     Node 4, Type 0, BuildingBlock: WUSLED_clean_sbu_0, # of connection points: 3
#     Node 5, Type 0, BuildingBlock: WUSLED_clean_sbu_0, # of connection points: 3
#     Node 6, Type 0, BuildingBlock: WUSLED_clean_sbu_0, # of connection points: 3
#     Node 7, Type 0, BuildingBlock: WUSLED_clean_sbu_0, # of connection points: 3
#     Node 8, Type 1, BuildingBlock: LEVNOQ01_clean_sbu_1, # of connection points: 6
#     Node 9, Type 1, BuildingBlock: LEVNOQ01_clean_sbu_1, # of connection points: 6
#     Node 10, Type 1, BuildingBlock: LEVNOQ01_clean_sbu_1, # of connection points: 6
#     Node 11, Type 1, BuildingBlock: LEVNOQ01_clean_sbu_1, # of connection points: 6
#     Edge 12, Type (0, 1), BuildingBlock: UVAHIK_clean_linker_0, # of connection points: 2
#     Edge 13, Type (0, 1), BuildingBlock: UVAHIK_clean_linker_0, # of connection points: 2
#     Edge 14, Type (0, 1), BuildingBlock: UVAHIK_clean_linker_0, # of connection points: 2
#     Edge 15, Type (0, 1), BuildingBlock: UVAHIK_clean_linker_0, # of connection points: 2
#     Edge 16, Type (0, 1), BuildingBlock: UVAHIK_clean_linker_0, # of connection points: 2
#     Edge 17, Type (0, 1), BuildingBlock: UVAHIK_clean_linker_0, # of connection points: 2
#     Edge 18, Type (0, 1), BuildingBlock: UVAHIK_clean_linker_0, # of connection points: 2
#     Edge 19, Type (0, 1), BuildingBlock: UVAHIK_clean_linker_0, # of connection points: 2
#     Edge 20, Type (0, 1), BuildingBlock: UVAHIK_clean_linker_0, # of connection points: 2
#     Edge 21, Type (0, 1), BuildingBlock: UVAHIK_clean_linker_0, # of connection points: 2
#     Edge 22, Type (0, 1), BuildingBlock: UVAHIK_clean_linker_0, # of connection points: 2
#     Edge 23, Type (0, 1), BuildingBlock: UVAHIK_clean_linker_0, # of connection points: 2
#     Edge 24, Type (0, 1), BuildingBlock: UVAHIK_clean_linker_0, # of connection points: 2
#     Edge 25, Type (0, 1), BuildingBlock: UVAHIK_clean_linker_0, # of connection points: 2
#     Edge 26, Type (0, 1), BuildingBlock: UVAHIK_clean_linker_0, # of connection points: 2
#     Edge 27, Type (0, 1), BuildingBlock: UVAHIK_clean_linker_0, # of connection points: 2
#     Edge 28, Type (0, 1), BuildingBlock: UVAHIK_clean_linker_0, # of connection points: 2
#     Edge 29, Type (0, 1), BuildingBlock: UVAHIK_clean_linker_0, # of connection points: 2
#     Edge 30, Type (0, 1), BuildingBlock: UVAHIK_clean_linker_0, # of connection points: 2
#     Edge 31, Type (0, 1), BuildingBlock: UVAHIK_clean_linker_0, # of connection points: 2
#     Edge 32, Type (0, 1), BuildingBlock: UVAHIK_clean_linker_0, # of connection points: 2
#     Edge 33, Type (0, 1), BuildingBlock: UVAHIK_clean_linker_0, # of connection points: 2
#     Edge 34, Type (0, 1), BuildingBlock: UVAHIK_clean_linker_0, # of connection points: 2
#     Edge 35, Type (0, 1), BuildingBlock: UVAHIK_clean_linker_0, # of connection points: 2
# Relax obj value: 0.289
# Max RMSD: 0.214
# Mean RMSD: 0.200
data_MOF--net-zzz--node1-WUSLED_clean_sbu_0--node2-LEVNOQ01_clean_sbu_1--edge1-UVAHIK_clean_linker_0
_symmetry_space_group_name_H-M    P1
_symmetry_Int_Tables_number       1
_symmetry_cell_setting            triclinic
loop_
_symmetry_equiv_pos_as_xyz
'x, y, z'
_cell_length_a     72.062004
_cell_length_b     76.408879
_cell_length_c     27.369359
_cell_angle_alpha  89.762354
_cell_angle_beta   89.991944
_cell_angle_gamma 88.178196
loop_
_atom_site_label
_atom_site_type_symbol
_atom_site_fract_x
_atom_site_fract_y
_atom_site_fract_z
_atom_type_partial_charge
C0 C 0.79063 0.5862 0.27636 0.0
C1 C 0.80885 0.5862 0.2581 0.0
C2 C 0.82145 0.58043 0.3395 0.0
C3 C 0.82405 0.58332 0.28919 0.0
C4 C 0.80317 0.58096 0.358 0.0
C5 C 0.7879 0.58376 0.32665 0.0
U6 U 0.77576 0.59615 0.14896 0.0
O7 O 0.75756 0.58338 0.09643 0.0
O8 O 0.75271 0.6113 0.11373 0.0
C9 C 0.74776 0.59785 0.08745 0.0
C10 C 0.77478 0.58827 0.24218 0.0
C11 C 0.72806 0.59623 0.07418 0.0
C12 C 0.69758 0.58385 0.08452 0.0
C13 C 0.71551 0.58683 0.10241 0.0
C14 C 0.7046 0.59992 0.01076 0.0
C15 C 0.692 0.59006 0.03788 0.0
C16 C 0.72232 0.60299 0.02879 0.0
C17 C 0.81699 0.60604 0.06591 0.0
C18 C 0.81594 0.60616 0.97723 0.0
C19 C 0.84478 0.61145 0.01955 0.0
C20 C 0.83579 0.60989 0.06428 0.0
C21 C 0.83511 0.60913 0.97546 0.0
C22 C 0.80692 0.60463 0.02229 0.0
C23 C 0.80873 0.60212 0.11336 0.0
O24 O 0.77156 0.60427 0.22557 0.0
O25 O 0.77447 0.57641 0.20753 0.0
O26 O 0.8021 0.58637 0.11766 0.0
O27 O 0.79788 0.61446 0.13221 0.0
H28 H 0.81132 0.58821 0.21948 0.0
H29 H 0.83789 0.58332 0.27372 0.0
H30 H 0.80064 0.57871 0.39648 0.0
H31 H 0.77397 0.58376 0.34155 0.0
H32 H 0.68823 0.57642 0.10687 0.0
H33 H 0.7197 0.58144 0.13752 0.0
H34 H 0.70116 0.60464 0.97443 0.0
H35 H 0.73188 0.61012 0.00616 0.0
H36 H 0.80814 0.60429 0.94393 0.0
H37 H 0.85962 0.61327 0.0198 0.0
H38 H 0.84375 0.6109 0.09769 0.0
H39 H 0.79232 0.60165 0.02313 0.0
C40 C 0.0081 0.78295 0.30316 0.0
C41 C 0.01143 0.79971 0.28457 0.0
C42 C 0.00493 0.81265 0.36408 0.0
C43 C 0.00992 0.81438 0.31467 0.0
C44 C 1.00184 0.79577 0.38279 0.0
C45 C 1.00337 0.78103 0.35248 0.0
U46 U 0.00811 0.76918 0.17425 0.0
O47 O 0.02204 0.74837 0.13106 0.0
O48 O 0.99135 0.75107 0.1318 0.0
C49 C 0.00617 0.74298 0.1138 0.0
C50 C 0.00822 0.76795 0.2696 0.0
C51 C 0.00479 0.72484 0.09762 0.0
C52 C 0.01109 0.69348 0.10449 0.0
C53 C 0.01171 0.71036 0.12453 0.0
C54 C 0.99665 0.70569 0.03136 0.0
C55 C 0.00386 0.69114 0.05727 0.0
C56 C 0.99708 0.72233 0.05139 0.0
C57 C 0.00654 0.80566 0.08117 0.0
C58 C 0.01631 0.80408 0.99621 0.0
C59 C 0.99231 0.82514 0.02115 0.0
C60 C 0.99366 0.81903 0.069 0.0
C61 C 0.00395 0.81806 0.98445 0.0
C62 C 0.01752 0.79784 0.04424 0.0
C63 C 0.00791 0.79993 0.13234 0.0
O64 O 0.99296 0.76684 0.24362 0.0
O65 O 0.02344 0.76581 0.24338 0.0
O66 O 0.02332 0.79143 0.14519 0.0
O67 O 0.99285 0.79293 0.14962 0.0
H68 H 0.01497 0.80149 0.24643 0.0
H69 H 0.01272 0.8271 0.29919 0.0
H70 H 0.99782 0.79397 0.42055 0.0
H71 H 1.00054 0.76822 0.3673 0.0
H72 H 0.01671 0.68239 0.12507 0.0
H73 H 0.01777 0.71214 0.1603 0.0
H74 H 0.99078 0.7042 0.99522 0.0
H75 H 0.99173 0.73338 0.03012 0.0
H76 H 0.02548 0.79845 0.9687 0.0
H77 H 0.98294 0.83619 0.01368 0.0
H78 H 0.98493 0.82508 0.09687 0.0
H79 H 0.02733 0.78721 0.05261 0.0
C80 C 0.71831 0.9205 0.28481 0.0
C81 C 0.7001 0.91846 0.26781 0.0
C82 C 0.68747 0.92647 0.34779 0.0
C83 C 0.68485 0.92139 0.29892 0.0
C84 C 0.70581 0.92791 0.365 0.0
C85 C 0.72104 0.92498 0.33382 0.0
U86 U 0.73611 0.90962 0.15886 0.0
O87 O 0.75182 0.92522 0.10577 0.0
O88 O 0.76237 0.89889 0.1282 0.0
C89 C 0.76449 0.91264 0.09982 0.0
C90 C 0.73424 0.91926 0.25066 0.0
C91 C 0.78312 0.91684 0.08159 0.0
C92 C 0.81685 0.91681 0.08773 0.0
C93 C 0.79941 0.91398 0.109 0.0
C94 C 0.80178 0.92528 0.01181 0.0
C95 C 0.81823 0.9223 0.03859 0.0
C96 C 0.7845 0.92259 0.03307 0.0
C97 C 0.70005 0.89479 0.06784 0.0
C98 C 0.69424 0.90634 0.9864 0.0
C99 C 0.67762 0.88128 0.01535 0.0
C100 C 0.68748 0.88156 0.05926 0.0
C101 C 0.67971 0.89466 0.98033 0.0
C102 C 0.70445 0.90629 0.02967 0.0
C103 C 0.70591 0.8984 0.11817 0.0
O104 O 0.73969 0.90338 0.23728 0.0
O105 O 0.73315 0.93035 0.21388 0.0
O106 O 0.70872 0.91496 0.1272 0.0
O107 O 0.71849 0.88769 0.13772 0.0
H108 H 0.69765 0.91506 0.23002 0.0
H109 H 0.671 0.9203 0.28415 0.0
H110 H 0.70841 0.93148 0.40256 0.0
H111 H 0.73495 0.92661 0.34774 0.0
H112 H 0.82925 0.91434 0.10936 0.0
H113 H 0.79869 0.90937 0.14641 0.0
H114 H 0.80221 0.9298 0.97429 0.0
H115 H 0.77211 0.92472 0.01109 0.0
H116 H 0.69652 0.91675 0.96035 0.0
H117 H 0.66713 0.87158 0.01093 0.0
H118 H 0.68422 0.87231 0.08787 0.0
H119 H 0.71451 0.91635 0.035 0.0
C120 C 0.49016 0.72816 0.30412 0.0
C121 C 0.48316 0.71207 0.28935 0.0
C122 C 0.49302 0.69844 0.36601 0.0
C123 C 0.48451 0.69741 0.31993 0.0
C124 C 0.50006 0.71458 0.38079 0.0
C125 C 0.49864 0.72933 0.35005 0.0
U126 U 0.48733 0.7405 0.17442 0.0
O127 O 0.47334 0.76107 0.13001 0.0
O128 O 0.50376 0.75703 0.12585 0.0
C129 C 0.48894 0.76559 0.10922 0.0
C130 C 0.4901 0.74293 0.26918 0.0
C131 C 0.49081 0.7839 0.09439 0.0
C132 C 0.49451 0.81487 0.11047 0.0
C133 C 0.49285 0.79762 0.12771 0.0
C134 C 0.49194 0.80455 0.02715 0.0
C135 C 0.4939 0.8184 0.05998 0.0
C136 C 0.49048 0.78748 0.0442 0.0
C137 C 0.48414 0.70189 0.08992 0.0
C138 C 0.48086 0.70559 0.00201 0.0
C139 C 0.49397 0.67853 0.036 0.0
C140 C 0.49159 0.685 0.08294 0.0
C141 C 0.48893 0.68884 0.99519 0.0
C142 C 0.47868 0.7122 0.04936 0.0
C143 C 0.48418 0.70901 0.13932 0.0
O144 O 0.50464 0.74291 0.24016 0.0
O145 O 0.47432 0.74589 0.24582 0.0
O146 O 0.46974 0.71897 0.1517 0.0
O147 O 0.50013 0.7154 0.15221 0.0
H148 H 0.47693 0.71072 0.2536 0.0
H149 H 0.47925 0.68515 0.30693 0.0
H150 H 0.5066 0.71583 0.41617 0.0
H151 H 0.50439 0.74154 0.36181 0.0
H152 H 0.49599 0.82542 0.13633 0.0
H153 H 0.49311 0.79502 0.16663 0.0
H154 H 0.49163 0.80695 0.98809 0.0
H155 H 0.48902 0.77701 0.01799 0.0
H156 H 0.47669 0.7136 0.97092 0.0
H157 H 0.4998 0.66538 0.03153 0.0
H158 H 0.49597 0.67696 0.11382 0.0
H159 H 0.47311 0.72541 0.0543 0.0
C160 C 0.21718 0.41124 0.16149 0.0
C161 C 0.19862 0.40963 0.17611 0.0
C162 C 0.18766 0.41796 0.09446 0.0
C163 C 0.18404 0.41296 0.14308 0.0
C164 C 0.20637 0.41887 0.07959 0.0
C165 C 0.22094 0.41562 0.11279 0.0
U166 U 0.23135 0.40101 0.29072 0.0
O167 O 0.2556 0.38797 0.32673 0.0
O168 O 0.24775 0.41532 0.34434 0.0
C169 C 0.25892 0.40177 0.35358 0.0
C170 C 0.23238 0.40955 0.19782 0.0
C171 C 0.27821 0.40516 0.3681 0.0
C172 C 0.30776 0.41933 0.35788 0.0
C173 C 0.29025 0.41501 0.33955 0.0
C174 C 0.30135 0.40383 0.43296 0.0
C175 C 0.31346 0.41405 0.4053 0.0
C176 C 0.28404 0.39942 0.41449 0.0
C177 C 0.19152 0.38891 0.37446 0.0
C178 C 0.19315 0.39303 0.46219 0.0
C179 C 0.16405 0.38579 0.42401 0.0
C180 C 0.17281 0.38491 0.37866 0.0
C181 C 0.17389 0.3908 0.46589 0.0
C182 C 0.20191 0.39216 0.41663 0.0
C183 C 0.19903 0.39249 0.32589 0.0
O184 O 0.2314 0.42115 0.23313 0.0
O185 O 0.23635 0.39359 0.21381 0.0
O186 O 0.21108 0.38088 0.30834 0.0
O187 O 0.20396 0.40872 0.31943 0.0
H188 H 0.19537 0.40628 0.21359 0.0
H189 H 0.16993 0.41228 0.15633 0.0
H190 H 0.20981 0.42232 0.04235 0.0
H191 H 0.23515 0.41689 0.10065 0.0
H192 H 0.31674 0.42698 0.33502 0.0
H193 H 0.28599 0.41962 0.30367 0.0
H194 H 0.30486 0.39975 0.46982 0.0
H195 H 0.27487 0.39194 0.43737 0.0
H196 H 0.20115 0.39671 0.49382 0.0
H197 H 0.14917 0.3842 0.42512 0.0
H198 H 0.16461 0.38243 0.34637 0.0
H199 H 0.21645 0.39524 0.41385 0.0
C200 C 0.00968 0.22332 0.13728 0.0
C201 C 0.00558 0.20654 0.15452 0.0
C202 C 0.01036 0.19438 0.07337 0.0
C203 C 0.00582 0.19227 0.12292 0.0
C204 C 0.01481 0.21115 0.05624 0.0
C205 C 0.0144 0.22555 0.088 0.0
U206 U 0.00982 0.23624 0.26707 0.0
O207 O 0.02353 0.25588 0.31139 0.0
O208 O 0.99298 0.2549 0.31113 0.0
C209 C 0.00772 0.26265 0.32786 0.0
C210 C 0.00938 0.2381 0.17174 0.0
C211 C 0.00635 0.28169 0.33606 0.0
C212 C 0.02134 0.30967 0.34149 0.0
C213 C 0.02078 0.2927 0.32271 0.0
C214 C 0.99248 0.30527 0.38453 0.0
C215 C 0.00752 0.31591 0.37389 0.0
C216 C 0.99195 0.28831 0.36591 0.0
C217 C 0.01198 0.19903 0.35755 0.0
C218 C 0.01958 0.20268 0.44347 0.0
C219 C 1.00213 0.1778 0.41682 0.0
C220 C 1.00296 0.18361 0.36874 0.0
C221 C 0.0104 0.18727 0.45446 0.0
C222 C 0.02015 0.20869 0.39514 0.0
C223 C 0.01192 0.20514 0.30683 0.0
O224 O 0.99423 0.23952 0.19845 0.0
O225 O 0.02467 0.23962 0.19742 0.0
O226 O 0.02662 0.21358 0.29283 0.0
O227 O 0.99616 0.21256 0.29239 0.0
H228 H 1.00217 0.20447 0.19261 0.0
H229 H 1.00265 0.17949 0.13744 0.0
H230 H 0.01831 0.21316 0.01819 0.0
H231 H 0.01774 0.23836 0.07413 0.0
H232 H 0.03296 0.31769 0.33214 0.0
H233 H 0.03212 0.28793 0.29992 0.0
H234 H 0.98172 0.30962 0.40975 0.0
H235 H 0.98084 0.27999 0.37737 0.0
H236 H 0.02626 0.20996 0.47204 0.0
H237 H 0.99538 0.16561 0.42452 0.0
H238 H 0.99655 0.17607 0.34024 0.0
H239 H 0.027 0.22079 0.38712 0.0
C240 C 0.28938 0.09558 0.15748 0.0
C241 C 0.3077 0.09747 0.17372 0.0
C242 C 0.31985 0.08874 0.09386 0.0
C243 C 0.32274 0.09408 0.14238 0.0
C244 C 0.30142 0.0876 0.07709 0.0
C245 C 0.28634 0.09092 0.10869 0.0
U246 U 0.2747 0.10616 0.28507 0.0
O247 O 0.25044 0.11927 0.32052 0.0
O248 O 0.25845 0.09203 0.33972 0.0
C249 C 0.24728 0.1056 0.34836 0.0
C250 C 0.27381 0.0973 0.19265 0.0
C251 C 0.22809 0.10224 0.36384 0.0
C252 C 0.19782 0.08951 0.35301 0.0
C253 C 0.2153 0.09379 0.33421 0.0
C254 C 0.20581 0.10228 0.43069 0.0
C255 C 0.19293 0.09346 0.40189 0.0
C256 C 0.22308 0.10664 0.41182 0.0
C257 C 0.31492 0.11865 0.36722 0.0
C258 C 0.3138 0.11551 0.45543 0.0
C259 C 0.34264 0.12245 0.41524 0.0
C260 C 0.33364 0.12273 0.37019 0.0
C261 C 0.33304 0.11798 0.45811 0.0
C262 C 0.30479 0.11578 0.41015 0.0
C263 C 0.30712 0.11478 0.31927 0.0
O264 O 0.27458 0.08581 0.22852 0.0
O265 O 0.26969 0.11329 0.20778 0.0
O266 O 0.29503 0.12632 0.3013 0.0
O267 O 0.30209 0.09853 0.31412 0.0
H268 H 0.31041 0.10114 0.21117 0.0
H269 H 0.33667 0.09543 0.15642 0.0
H270 H 0.29864 0.08345 0.04011 0.0
H271 H 0.27234 0.08938 0.09537 0.0
H272 H 0.18824 0.08296 0.32936 0.0
H273 H 0.21892 0.09025 0.29706 0.0
H274 H 0.20291 0.10527 0.46861 0.0
H275 H 0.23283 0.11302 0.43546 0.0
H276 H 0.30599 0.11219 0.48781 0.0
H277 H 0.35751 0.12415 0.41559 0.0
H278 H 0.34165 0.12489 0.3373 0.0
H279 H 0.29025 0.11262 0.40832 0.0
C280 C 0.50815 0.28212 0.134 0.0
C281 C 0.50115 0.29838 0.15066 0.0
C282 C 0.50663 0.31156 0.07109 0.0
C283 C 0.50031 0.31288 0.11959 0.0
C284 C 0.5135 0.2952 0.05423 0.0
C285 C 0.51431 0.28059 0.08556 0.0
U286 U 0.51003 0.26927 0.26396 0.0
O287 O 0.49693 0.24955 0.3096 0.0
O288 O 0.52746 0.25082 0.30781 0.0
C289 C 0.51292 0.24304 0.32576 0.0
C290 C 0.50995 0.26736 0.16869 0.0
C291 C 0.51438 0.22407 0.33503 0.0
C292 C 0.50103 0.19529 0.33233 0.0
C293 C 0.50193 0.21242 0.31437 0.0
C294 C 0.52565 0.20101 0.38979 0.0
C295 C 0.51251 0.18957 0.37124 0.0
C296 C 0.52654 0.21809 0.37188 0.0
C297 C 0.50705 0.30613 0.35442 0.0
C298 C 0.49515 0.30514 0.43755 0.0
C299 C 0.52012 0.32437 0.41675 0.0
C300 C 0.51973 0.31861 0.36865 0.0
C301 C 0.50768 0.31786 0.45147 0.0
C302 C 0.49496 0.29915 0.38938 0.0
C303 C 0.50714 0.30025 0.30342 0.0
O304 O 0.52535 0.26704 0.19449 0.0
O305 O 0.49507 0.26475 0.19535 0.0
O306 O 0.49266 0.29157 0.28918 0.0
O307 O 0.52305 0.29332 0.28841 0.0
H308 H 0.49646 0.29991 0.18806 0.0
H309 H 0.49464 0.32515 0.13364 0.0
H310 H 0.51863 0.29378 0.01723 0.0
H311 H 0.51997 0.2682 0.07223 0.0
H312 H 0.49093 0.18669 0.31685 0.0
H313 H 0.49235 0.21677 0.28602 0.0
H314 H 0.53453 0.19714 0.42015 0.0
H315 H 0.53604 0.22695 0.38885 0.0
H316 H 0.48529 0.30015 0.4636 0.0
H317 H 0.52957 0.33457 0.42618 0.0
H318 H 0.5292 0.32409 0.34235 0.0
H319 H 0.48519 0.2893 0.37943 0.0
O320 O 0.03711 0.98689 0.79835 0.0
Mg321 Mg 0.03726 0.98853 0.7214 0.0
O322 O 0.00788 0.988 0.77817 0.0
Mg323 Mg 1.00175 0.0056 0.71154 0.0
O324 O 0.03237 0.01189 0.68503 0.0
O325 O 0.06047 -0.00156 0.69191 0.0
O326 O 0.99457 0.02285 0.64478 0.0
O327 O 1.003 0.03028 0.76147 0.0
Mg328 Mg 0.96334 0.02396 0.70861 0.0
O329 O 0.9715 4e-05 0.73672 0.0
O330 O 0.96463 0.02603 0.63198 0.0
O331 O 0.97582 0.04427 0.7498 0.0
O332 O 0.94206 0.01019 0.73808 0.0
C333 C 0.01121 0.96729 0.66034 0.0
C334 C 0.02056 0.9832 0.80797 0.0
C335 C 0.0502 0.01139 0.67611 0.0
C336 C 0.98111 0.02816 0.61792 0.0
C337 C 0.99196 0.04345 0.76865 0.0
C338 C 0.95424 -0.00192 0.74907 0.0
O339 O 0.02644 0.96681 0.68371 0.0
O340 O 1.00038 0.98084 0.66181 0.0
O341 O 0.45202 -0.00015 0.76053 0.0
Mg342 Mg 0.4623 0.97992 0.71131 0.0
O343 O 0.47768 0.01526 0.76999 0.0
Mg344 Mg 0.4999 0.00296 0.7155 0.0
O345 O 0.48912 0.97596 0.73113 0.0
O346 O 0.46932 0.95456 0.73565 0.0
O347 O 0.52221 0.99063 0.66126 0.0
O348 O 0.51995 0.99593 0.77798 0.0
Mg349 Mg 0.53631 0.02378 0.72941 0.0
O350 O 0.51081 0.03057 0.70106 0.0
O351 O 0.54804 0.00438 0.68114 0.0
O352 O 0.53734 0.01687 0.80421 0.0
O353 O 0.53338 0.04967 0.70828 0.0
C354 C 0.46699 0.00182 0.6257 0.0
C355 C 0.4606 0.01242 0.77981 0.0
C356 C 0.48569 0.96013 0.74412 0.0
C357 C 0.53974 0.99277 0.65689 0.0
C358 C 0.53184 0.00138 0.80816 0.0
C359 C 0.517 0.04609 0.69305 0.0
O360 O 0.46115 0.98683 0.63676 0.0
O361 O 0.47936 0.00896 0.65173 0.0
O362 O 0.53056 0.47095 0.79156 0.0
Mg363 Mg 0.53916 0.48651 0.7333 0.0
O364 O 0.50281 0.47842 0.76404 0.0
Mg365 Mg 0.50544 0.5031 0.71177 0.0
O366 O 0.53564 0.5131 0.73961 0.0
O367 O 0.56263 0.49772 0.75066 0.0
O368 O 0.50521 0.52802 0.66026 0.0
O369 O 0.49704 0.52027 0.77499 0.0
Mg370 Mg 0.46824 0.51803 0.718 0.0
O371 O 0.47541 0.49448 0.68473 0.0
O372 O 0.47662 0.53879 0.67242 0.0
O373 O 0.46792 0.52312 0.79445 0.0
O374 O 0.44614 0.50533 0.69268 0.0
C375 C 0.52931 0.47666 0.63532 0.0
C376 C 0.51326 0.46905 0.79202 0.0
C377 C 0.55332 0.51239 0.75154 0.0
C378 C 0.49244 0.53975 0.65232 0.0
C379 C 0.48463 0.52632 0.80349 0.0
C380 C 0.45758 0.49342 0.67639 0.0
O381 O 0.54264 0.47511 0.66502 0.0
O382 O 0.51503 0.48602 0.64642 0.0
O383 O 0.96601 0.4856 0.79396 0.0
Mg384 Mg 0.97065 0.48174 0.71935 0.0
O385 O 0.98306 0.50851 0.78193 0.0
Mg386 Mg 0.00519 0.5041 0.72022 0.0
O387 O 0.99724 0.47558 0.69895 0.0
O388 O 0.97422 0.45647 0.69795 0.0
O389 O 0.02721 0.50019 0.65826 0.0
O390 O 0.02661 0.49138 0.77748 0.0
Mg391 Mg 0.0403 0.52699 0.7266 0.0
O392 O 0.01304 0.53262 0.73989 0.0
O393 O 0.04689 0.52162 0.65378 0.0
O394 O 0.0504 0.50922 0.78104 0.0
O395 O 0.0352 0.55247 0.74439 0.0
C396 C 0.96705 0.51337 0.65143 0.0
C397 C 0.97066 0.50072 0.80635 0.0
C398 C 0.99125 0.46007 0.68897 0.0
C399 C 0.0407 0.50758 0.63701 0.0
C400 C 0.04244 0.49545 0.79484 0.0
C401 C 0.0181 0.5484 0.75018 0.0
O402 O 0.95873 0.50041 0.66933 0.0
O403 O 0.98376 0.51665 0.66358 0.0
C404 C 0.16594 0.09739 0.46081 0.0
C405 C 0.17513 0.08752 0.42409 0.0
C406 C 0.15047 0.0909 0.4853 0.0
C407 C 0.12836 0.04857 0.51233 0.0
H408 H 0.08733 0.07782 0.56004 0.0
C409 C 0.06501 0.01714 0.5965 0.0
C410 C 0.05875 0.02367 0.6416 0.0
C411 C 0.07715 0.02663 0.56763 0.0
C412 C 0.09874 0.06951 0.54716 0.0
H413 H 0.17446 0.06322 0.38351 0.0
H414 H 0.14721 0.05234 0.42433 0.0
H415 H 0.11238 0.09102 0.51337 0.0
H416 H 0.05972 0.04553 0.69135 0.0
H417 H 0.08106 0.06238 0.64051 0.0
H418 H 0.11485 0.02711 0.54581 0.0
C419 C 0.15228 0.06492 0.43534 0.0
C420 C 0.11315 0.07706 0.52045 0.0
C421 C 0.16781 0.07133 0.41117 0.0
C422 C 0.06409 0.04037 0.65624 0.0
C423 C 0.07636 0.04995 0.62722 0.0
C424 C 0.11398 0.04106 0.53858 0.0
C425 C 0.14362 0.07439 0.4736 0.0
C426 C 0.12812 0.06665 0.50229 0.0
C427 C 0.08358 0.04285 0.58339 0.0
C428 C 0.09888 0.05135 0.55602 0.0
H429 H 0.17084 0.11008 0.47129 0.0
H430 H 0.14429 0.09861 0.51451 0.0
H431 H 0.13984 0.04014 0.50051 0.0
H432 H 0.06121 0.00421 0.58466 0.0
H433 H 0.08209 0.02092 0.53369 0.0
C434 C 0.49174 0.16688 0.40589 0.0
C435 C 0.50975 0.1724 0.39549 0.0
C436 C 0.48906 0.15172 0.43343 0.0
C437 C 0.5123 0.11081 0.47697 0.0
H438 H 0.47824 0.11496 0.58644 0.0
C439 C 0.50421 0.05385 0.61154 0.0
C440 C 0.50748 0.05865 0.66007 0.0
C441 C 0.50012 0.06665 0.57609 0.0
C442 C 0.48767 0.11357 0.55577 0.0
H443 H 0.53908 0.16594 0.40431 0.0
H444 H 0.53442 0.13951 0.45256 0.0
H445 H 0.48065 0.13926 0.52854 0.0
H446 H 0.50864 0.08036 0.71031 0.0
H447 H 0.50119 0.10278 0.64872 0.0
H448 H 0.51979 0.08538 0.50503 0.0
C449 C 0.52235 0.14688 0.43921 0.0
C450 C 0.48898 0.12742 0.52248 0.0
C451 C 0.52503 0.1621 0.41191 0.0
C452 C 0.5057 0.07634 0.67325 0.0
C453 C 0.50146 0.08914 0.63798 0.0
C454 C 0.51085 0.09691 0.50994 0.0
C455 C 0.50434 0.14168 0.45092 0.0
C456 C 0.5016 0.12632 0.4833 0.0
C457 C 0.49934 0.08448 0.58869 0.0
C458 C 0.49879 0.09827 0.55024 0.0
H459 H 0.47967 0.17463 0.39435 0.0
H460 H 0.47502 0.14796 0.44157 0.0
H461 H 0.52203 0.10953 0.44692 0.0
H462 H 0.50628 0.04035 0.6003 0.0
H463 H 0.49851 0.06267 0.53842 0.0
C464 C 0.34131 0.40932 0.46117 0.0
C465 C 0.33131 0.41992 0.4273 0.0
C466 C 0.35695 0.41554 0.48537 0.0
C467 C 0.37906 0.45764 0.51654 0.0
H468 H 0.42077 0.4276 0.55667 0.0
C469 C 0.44428 0.48723 0.59553 0.0
C470 C 0.45003 0.48081 0.64138 0.0
C471 C 0.43189 0.47799 0.56692 0.0
C472 C 0.40917 0.43611 0.54583 0.0
H473 H 0.33068 0.44535 0.39161 0.0
H474 H 0.35825 0.45575 0.43152 0.0
H475 H 0.3951 0.41525 0.51074 0.0
H476 H 0.44791 0.45935 0.6926 0.0
H477 H 0.4265 0.44275 0.64163 0.0
H478 H 0.39321 0.47849 0.55086 0.0
C479 C 0.35369 0.44279 0.44073 0.0
C480 C 0.39439 0.42905 0.51963 0.0
C481 C 0.33796 0.43666 0.41698 0.0
C482 C 0.44405 0.46436 0.65681 0.0
C483 C 0.4317 0.45496 0.62781 0.0
C484 C 0.39387 0.46468 0.54203 0.0
C485 C 0.36321 0.4325 0.47614 0.0
C486 C 0.37913 0.43975 0.50428 0.0
C487 C 0.42487 0.46207 0.58347 0.0
C488 C 0.40918 0.45408 0.55674 0.0
H489 H 0.33696 0.39622 0.46958 0.0
H490 H 0.36376 0.40718 0.51237 0.0
H491 H 0.36741 0.46627 0.50703 0.0
H492 H 0.44839 0.50005 0.58326 0.0
H493 H 0.4271 0.48374 0.53274 0.0
C494 C 0.99434 0.34415 0.40798 0.0
C495 C 0.00965 0.33264 0.40035 0.0
C496 C 0.9961 0.35909 0.4367 0.0
C497 C 0.02406 0.37636 0.53662 0.0
H498 H 0.9989 0.42026 0.50215 0.0
C499 C 1.00342 0.42974 0.6761 0.0
C500 C 1.00232 0.44726 0.66066 0.0
C501 C 0.00889 0.41652 0.64351 0.0
C502 C 0.00633 0.40822 0.51206 0.0
H503 H 0.03882 0.3278 0.41682 0.0
H504 H 0.04191 0.35398 0.46651 0.0
H505 H 0.99896 0.39599 0.44488 0.0
H506 H 0.00548 0.46472 0.59941 0.0
H507 H 0.01644 0.44191 0.54306 0.0
H508 H 0.03126 0.38854 0.60408 0.0
C509 C 0.02855 0.35143 0.45035 0.0
C510 C 0.00611 0.39423 0.47945 0.0
C511 C 0.02683 0.33656 0.42139 0.0
C512 C 0.00749 0.45146 0.61286 0.0
C513 C 0.01316 0.4383 0.5803 0.0
C514 C 0.02426 0.39037 0.56934 0.0
C515 C 0.01317 0.36278 0.4587 0.0
C516 C 0.0147 0.37805 0.49169 0.0
C517 C 0.01317 0.42059 0.59467 0.0
C518 C 0.01513 0.40639 0.55778 0.0
H519 H 0.98095 0.34148 0.39219 0.0
H520 H 0.98393 0.36748 0.44287 0.0
H521 H 0.0307 0.36401 0.54728 0.0
H522 H 0.99887 0.42616 0.71244 0.0
H523 H 0.00842 0.40304 0.6557 0.0
C524 C 0.83961 0.92031 0.96585 0.0
C525 C 0.83657 0.92518 0.01483 0.0
C526 C 0.85595 0.92463 0.94162 0.0
C527 C 0.8932 0.95689 0.94749 0.0
H528 H 0.91411 0.92931 0.84111 0.0
C529 C 0.95212 0.98356 0.83019 0.0
C530 C 0.94827 0.98346 0.77995 0.0
C531 C 0.94215 0.97309 0.86241 0.0
C532 C 0.90847 0.93713 0.87083 0.0
H533 H 0.84888 0.93769 0.07731 0.0
H534 H 0.87761 0.94485 0.03551 0.0
H535 H 0.88972 0.91726 0.89208 0.0
H536 H 0.93151 0.9721 0.7236 0.0
H537 H 0.91431 0.95353 0.77948 0.0
H538 H 0.9117 0.97685 0.92578 0.0
C539 C 0.86714 0.93802 0.0154 0.0
C540 C 0.8944 0.93027 0.89996 0.0
C541 C 0.85074 0.93372 0.03964 0.0
C542 C 0.93503 0.97205 0.7621 0.0
C543 C 0.92516 0.96146 0.79418 0.0
C544 C 0.90734 0.96366 0.91868 0.0
C545 C 0.86981 0.93389 0.96569 0.0
C546 C 0.88627 0.94022 0.93808 0.0
C547 C 0.92806 0.96239 0.84494 0.0
C548 C 0.9149 0.95403 0.87935 0.0
H549 H 0.82917 0.91342 0.9458 0.0
H550 H 0.85733 0.9213 0.90335 0.0
H551 H 0.88714 0.96512 0.97578 0.0
H552 H 0.96196 0.99259 0.84491 0.0
H553 H 0.94483 0.974 0.90124 0.0
C554 C 0.48093 0.843 0.00973 0.0
C555 C 0.49516 0.83633 0.04007 0.0
C556 C 0.4834 0.85816 0.98231 0.0
C557 C 0.51281 0.89648 0.96201 0.0
H558 H 0.49479 0.89125 0.8296 0.0
C559 C 0.49832 0.95349 0.82623 0.0
C560 C 0.49803 0.94963 0.77615 0.0
C561 C 0.50361 0.94053 0.86026 0.0
C562 C 0.50031 0.8929 0.86602 0.0
H563 H 0.52273 0.84065 0.06788 0.0
H564 H 0.52725 0.86727 0.01917 0.0
H565 H 0.49143 0.86766 0.88757 0.0
H566 H 0.5046 0.93002 0.72171 0.0
H567 H 0.51484 0.90765 0.78063 0.0
H568 H 0.52172 0.92188 0.93981 0.0
C569 C 0.51409 0.86086 0.01701 0.0
C570 C 0.49801 0.87943 0.8997 0.0
C571 C 0.51152 0.84568 0.04493 0.0
C572 C 0.5049 0.9333 0.76017 0.0
C573 C 0.51049 0.92045 0.79405 0.0
C574 C 0.51514 0.91007 0.92804 0.0
C575 C 0.5003 0.86687 0.984 0.0
C576 C 0.50385 0.88116 0.94836 0.0
C577 C 0.50866 0.92351 0.84459 0.0
C578 C 0.50868 0.90852 0.8797 0.0
H579 H 0.46816 0.83603 0.00565 0.0
H580 H 0.4723 0.8627 0.95829 0.0
H581 H 0.51753 0.89818 0.9992 0.0
H582 H 0.49278 0.96596 0.83933 0.0
H583 H 0.50201 0.94342 0.89875 0.0
C584 C 0.66438 0.59667 0.9828 0.0
C585 C 0.67388 0.58522 0.0155 0.0
C586 C 0.64896 0.59117 0.95639 0.0
C587 C 0.62941 0.55025 0.91089 0.0
H588 H 0.58738 0.58003 0.87144 0.0
C589 C 0.58226 0.52875 0.75784 0.0
C590 C 0.56339 0.52761 0.77007 0.0
C591 C 0.59417 0.53854 0.78626 0.0
C592 C 0.59901 0.57158 0.88235 0.0
H593 H 0.67363 0.55923 0.04772 0.0
H594 H 0.64648 0.54995 0.0033 0.0
H595 H 0.61048 0.59118 0.92854 0.0
H596 H 0.54203 0.53678 0.82009 0.0
H597 H 0.56279 0.55469 0.86891 0.0
H598 H 0.61811 0.53072 0.86487 0.0
C599 C 0.65128 0.56305 0.99705 0.0
C600 C 0.61231 0.57797 0.91481 0.0
C601 C 0.66676 0.5685 0.02318 0.0
C602 C 0.55632 0.53785 0.8088 0.0
C603 C 0.5683 0.54787 0.83721 0.0
C604 C 0.61629 0.54398 0.87833 0.0
C605 C 0.64251 0.5741 0.96216 0.0
C606 C 0.62772 0.56736 0.92944 0.0
C607 C 0.58752 0.54754 0.82764 0.0
C608 C 0.60102 0.55458 0.86327 0.0
H609 H 0.66912 0.60979 0.97656 0.0
H610 H 0.64262 0.60006 0.9299 0.0
H611 H 0.64116 0.54175 0.92057 0.0
H612 H 0.58815 0.52092 0.7284 0.0
H613 H 0.60884 0.53824 0.77746 0.0
C614 C 0.01104 0.67236 0.9855 0.0
C615 C 0.00402 0.67386 0.03319 0.0
C616 C 0.00825 0.65734 0.95827 0.0
C617 C 0.99881 0.61124 0.96082 0.0
H618 H 0.97931 0.62078 0.83088 0.0
C619 C 0.9975 0.55641 0.81926 0.0
C620 C 0.00577 0.56112 0.77511 0.0
C621 C 0.9912 0.5693 0.85204 0.0
C622 C 0.98472 0.61784 0.86701 0.0
H623 H 0.98968 0.66045 0.09117 0.0
H624 H 0.98504 0.63371 0.04327 0.0
H625 H 0.98226 0.64469 0.88873 0.0
H626 H 0.01324 0.58279 0.72885 0.0
H627 H 1.00233 0.60531 0.78525 0.0
H628 H 1.00245 0.5846 0.93829 0.0
C629 C 0.99251 0.64436 0.02709 0.0
C630 C 0.98639 0.63153 0.90011 0.0
C631 C 0.99526 0.65954 0.05448 0.0
C632 C 0.00648 0.57886 0.76235 0.0
C633 C 1.00021 0.59176 0.79486 0.0
C634 C 0.99737 0.59752 0.92743 0.0
C635 C 0.99844 0.64344 0.97819 0.0
C636 C 0.99404 0.62845 0.94667 0.0
C637 C 0.99325 0.58715 0.84109 0.0
C638 C 0.99093 0.60078 0.87949 0.0
H639 H 0.0181 0.68314 0.96859 0.0
H640 H 0.01339 0.65676 0.92109 0.0
H641 H 0.00473 0.60855 0.99656 0.0
H642 H 0.9978 0.54285 0.83045 0.0
H643 H 0.9859 0.56528 0.88721 0.0
C644 C 0.99393 0.1748 0.52464 0.0
C645 C 0.0108 0.17948 0.50356 0.0
C646 C 0.99325 0.1598 0.55356 0.0
C647 C 0.01742 0.11898 0.53542 0.0
H648 H 0.97879 0.1012 0.61867 0.0
C649 C 1.00324 0.04611 0.57185 0.0
C650 C 0.98473 0.0421 0.5822 0.0
C651 C 0.00773 0.06322 0.56021 0.0
C652 C 0.9895 0.10607 0.59488 0.0
H653 H 0.04057 0.17491 0.50416 0.0
H654 H 0.0395 0.14887 0.55582 0.0
H655 H 0.9864 0.13207 0.62327 0.0
H656 H 0.95611 0.05181 0.57803 0.0
H657 H 0.96399 0.08159 0.5567 0.0
H658 H 0.02018 0.0931 0.50618 0.0
C659 C 0.02673 0.15634 0.54887 0.0
C660 C 0.99405 0.12363 0.59814 0.0
C661 C 0.02739 0.17134 0.51974 0.0
C662 C 0.97055 0.05459 0.57151 0.0
C663 C 0.97506 0.07171 0.56001 0.0
C664 C 0.01291 0.10144 0.53229 0.0
C665 C 0.00948 0.14947 0.56132 0.0
C666 C 0.00776 0.13037 0.5676 0.0
C667 C 0.99372 0.07638 0.55814 0.0
C668 C 0.9986 0.09494 0.56108 0.0
H669 H 0.98101 0.18111 0.51283 0.0
H670 H 0.97974 0.15504 0.56324 0.0
H671 H 0.02774 0.12381 0.51041 0.0
H672 H 0.01445 0.03662 0.57873 0.0
H673 H 0.02225 0.06643 0.558 0.0
C674 C 0.36055 0.12026 0.51354 0.0
C675 C 0.34388 0.11218 0.50168 0.0
C676 C 0.37433 0.11106 0.53981 0.0
C677 C 0.38637 0.06851 0.60069 0.0
H678 H 0.42799 0.06831 0.51053 0.0
C679 C 0.4362 0.00948 0.58915 0.0
C680 C 0.45505 0.01331 0.59475 0.0
C681 C 0.4232 0.0228 0.57818 0.0
C682 C 0.41659 0.06833 0.53633 0.0
H683 H 0.32737 0.08938 0.51544 0.0
H684 H 0.35114 0.07358 0.56147 0.0
H685 H 0.40415 0.09151 0.5053 0.0
H686 H 0.47531 0.03325 0.58535 0.0
H687 H 0.45269 0.05658 0.56558 0.0
H688 H 0.39863 0.04496 0.63065 0.0
C689 C 0.35379 0.08686 0.54999 0.0
C690 C 0.40303 0.08172 0.53379 0.0
C691 C 0.34007 0.096 0.52354 0.0
C692 C 0.46088 0.03009 0.58229 0.0
C693 C 0.4479 0.04342 0.57107 0.0
C694 C 0.39995 0.0551 0.6032 0.0
C695 C 0.37152 0.09375 0.5549 0.0
C696 C 0.38756 0.08173 0.56519 0.0
C697 C 0.42886 0.04008 0.57188 0.0
C698 C 0.41493 0.05467 0.57021 0.0
H699 H 0.36366 0.13296 0.49841 0.0
H700 H 0.38774 0.11686 0.5444 0.0
H701 H 0.37467 0.06825 0.62549 0.0
H702 H 0.43119 -0.00337 0.59797 0.0
H703 H 0.40861 0.01978 0.57741 0.0
C704 C 0.5222 0.33117 0.52399 0.0
C705 C 0.50602 0.32679 0.49889 0.0
C706 C 0.52223 0.34624 0.55243 0.0
C707 C 0.50042 0.38749 0.52716 0.0
H708 H 0.53354 0.40457 0.62633 0.0
C709 C 0.51069 0.45969 0.57722 0.0
C710 C 0.52819 0.46365 0.59612 0.0
C711 C 0.5075 0.44282 0.56077 0.0
C712 C 0.52443 0.39989 0.59806 0.0
H713 H 0.47643 0.33215 0.49205 0.0
H714 H 0.47642 0.35833 0.54245 0.0
H715 H 0.52587 0.37364 0.626 0.0
H716 H 0.55697 0.4546 0.60224 0.0
H717 H 0.55137 0.42524 0.57293 0.0
H718 H 0.49935 0.41359 0.49846 0.0
C719 C 0.48916 0.3505 0.53904 0.0
C720 C 0.51983 0.38231 0.59847 0.0
C721 C 0.48914 0.33545 0.51049 0.0
C722 C 0.5432 0.45171 0.58927 0.0
C723 C 0.53999 0.43485 0.57302 0.0
C724 C 0.50503 0.40503 0.52675 0.0
C725 C 0.50606 0.35692 0.55578 0.0
C726 C 0.50797 0.3759 0.5626 0.0
C727 C 0.52183 0.42995 0.56259 0.0
C728 C 0.51733 0.4113 0.56164 0.0
H729 H 0.5353 0.32439 0.51623 0.0
H730 H 0.53542 0.35072 0.56561 0.0
H731 H 0.49166 0.38283 0.49813 0.0
H732 H 0.49893 0.46876 0.58105 0.0
H733 H 0.49341 0.43942 0.55194 0.0
C734 C 0.16754 0.41396 0.52799 0.0
C735 C 0.16331 0.39751 0.50879 0.0
C736 C 0.1541 0.4238 0.5533 0.0
C737 C 0.10501 0.42987 0.53773 0.0
H738 H 0.11006 0.46688 0.6327 0.0
C739 C 0.04711 0.48067 0.58833 0.0
C740 C 0.05267 0.49718 0.60358 0.0
C741 C 0.06029 0.46784 0.57482 0.0
C742 C 0.10858 0.45672 0.6056 0.0
H743 H 0.14305 0.37713 0.50918 0.0
H744 H 0.11943 0.39448 0.55302 0.0
H745 H 0.13384 0.44345 0.62791 0.0
H746 H 0.07613 0.5143 0.60812 0.0
H747 H 0.09906 0.4921 0.58319 0.0
H748 H 0.08008 0.44337 0.51437 0.0
C749 C 0.13297 0.3999 0.54727 0.0
C750 C 0.12204 0.44322 0.6034 0.0
C751 C 0.14648 0.38999 0.52223 0.0
C752 C 0.07136 0.50155 0.59762 0.0
C753 C 0.08456 0.48876 0.58404 0.0
C754 C 0.0916 0.4434 0.53982 0.0
C755 C 0.13624 0.41735 0.55967 0.0
C756 C 0.12053 0.42981 0.56891 0.0
C757 C 0.07925 0.4715 0.57572 0.0
C758 C 0.09343 0.45712 0.57314 0.0
H759 H 0.18036 0.42019 0.5186 0.0
H760 H 0.15707 0.43718 0.56272 0.0
H761 H 0.10368 0.41993 0.50997 0.0
H762 H 0.0328 0.4772 0.59124 0.0
H763 H 0.05571 0.45472 0.56777 0.0
C764 C 0.02317 0.83323 0.9234 0.0
C765 C 0.00557 0.82776 0.93786 0.0
C766 C 0.02473 0.84852 0.89607 0.0
C767 C 1.0008 0.88649 0.83891 0.0
H768 H 0.02611 0.91207 0.94022 0.0
C769 C 0.99904 0.96118 0.84008 0.0
C770 C 0.01683 0.96828 0.84053 0.0
C771 C 0.99661 0.94384 0.85377 0.0
C772 C 0.01915 0.90512 0.91147 0.0
H773 H 0.97596 0.83145 0.92602 0.0
H774 H 0.97872 0.85841 0.87883 0.0
H775 H 0.02555 0.88029 0.9442 0.0
H776 H 0.04547 0.96355 0.86251 0.0
H777 H 0.04118 0.93333 0.88724 0.0
H778 H 0.99446 0.91147 0.80613 0.0
C779 C 0.99125 0.85112 0.88924 0.0
C780 C 0.01896 0.88695 0.91343 0.0
C781 C 0.98968 0.83576 0.91647 0.0
C782 C 0.03162 0.95845 0.86135 0.0
C783 C 0.02917 0.94109 0.87529 0.0
C784 C 1.00112 0.90476 0.83669 0.0
C785 C 0.00872 0.8584 0.88306 0.0
C786 C 0.00995 0.87747 0.87702 0.0
C787 C 0.01189 0.93338 0.86884 0.0
C788 C 0.01036 0.91421 0.87298 0.0
H789 H 0.0357 0.82723 0.93872 0.0
H790 H 0.03837 0.85379 0.89064 0.0
H791 H 0.99355 0.87942 0.8109 0.0
H792 H 0.98733 0.96841 0.82449 0.0
H793 H 0.98302 0.93833 0.84973 0.0
C794 C 0.64596 0.89725 0.96052 0.0
C795 C 0.66445 0.89909 0.94529 0.0
C796 C 0.63143 0.90555 0.93538 0.0
C797 C 0.60155 0.92165 0.87287 0.0
H798 H 0.61062 0.97086 0.852 0.0
C799 C 0.54341 0.9706 0.81623 0.0
C800 C 0.54417 0.98807 0.83192 0.0
C801 C 0.55789 0.95869 0.82599 0.0
C802 C 0.60783 0.95718 0.85824 0.0
H803 H 0.68178 0.90963 0.888 0.0
H804 H 0.65615 0.92449 0.84433 0.0
H805 H 0.63665 0.95052 0.86832 0.0
H806 H 0.56025 0.00636 0.87336 0.0
H807 H 0.58528 0.98515 0.89301 0.0
H808 H 0.57275 0.92832 0.86652 0.0
C809 C 0.65313 0.91674 0.87641 0.0
C810 C 0.6228 0.94546 0.86642 0.0
C811 C 0.66778 0.90822 0.90146 0.0
C812 C 0.55919 0.99298 0.86095 0.0
C813 C 0.57368 0.98091 0.87136 0.0
C814 C 0.58662 0.93336 0.86548 0.0
C815 C 0.63489 0.916 0.89434 0.0
C816 C 0.61974 0.92764 0.87516 0.0
C817 C 0.57346 0.96378 0.85253 0.0
C818 C 0.58952 0.95133 0.85906 0.0
H819 H 0.64265 0.8907 0.99441 0.0
H820 H 0.6176 0.90489 0.95067 0.0
H821 H 0.59879 0.90796 0.87889 0.0
H822 H 0.53241 0.96639 0.79262 0.0
H823 H 0.55727 0.94576 0.81019 0.0
C824 C 0.50875 0.67307 0.93559 0.0
C825 C 0.49157 0.68119 0.94644 0.0
C826 C 0.50965 0.65894 0.90387 0.0
C827 C 0.47613 0.62506 0.87403 0.0
H828 H 0.52218 0.60001 0.84449 0.0
C829 C 0.47698 0.55017 0.86391 0.0
C830 C 0.48912 0.54241 0.82977 0.0
C831 C 0.479 0.56771 0.87708 0.0
C832 C 0.50897 0.60663 0.85148 0.0
H833 H 0.46276 0.68402 0.92484 0.0
H834 H 0.46453 0.66021 0.86584 0.0
H835 H 0.52153 0.63133 0.8456 0.0
H836 H 0.51346 0.5467 0.78464 0.0
H837 H 0.51606 0.5766 0.80406 0.0
H838 H 0.46312 0.60049 0.87471 0.0
C839 C 0.47708 0.66367 0.88475 0.0
C840 C 0.50871 0.62483 0.85311 0.0
C841 C 0.47609 0.67757 0.91773 0.0
C842 C 0.50399 0.55204 0.81188 0.0
C843 C 0.50552 0.56954 0.82327 0.0
C844 C 0.47616 0.6069 0.86977 0.0
C845 C 0.49337 0.65299 0.88176 0.0
C846 C 0.4925 0.63432 0.86659 0.0
C847 C 0.49267 0.5779 0.85459 0.0
C848 C 0.49269 0.59732 0.85978 0.0
H849 H 0.52097 0.67605 0.9567 0.0
H850 H 0.52268 0.65156 0.90225 0.0
H851 H 0.46332 0.63161 0.8853 0.0
H852 H 0.46546 0.54301 0.8784 0.0
H853 H 0.46928 0.57339 0.90312 0.0
C854 C 0.84291 0.59185 0.90076 0.0
C855 C 0.8459 0.60665 0.92972 0.0
C856 C 0.85708 0.58513 0.87087 0.0
C857 C 0.90487 0.57985 0.89445 0.0
H858 H 0.90534 0.55004 0.78035 0.0
C859 C 0.96233 0.52665 0.85756 0.0
C860 C 0.95688 0.51173 0.83257 0.0
C861 C 0.94965 0.54059 0.86524 0.0
C862 C 0.90532 0.5582 0.81262 0.0
H863 H 0.86437 0.62802 0.94242 0.0
H864 H 0.88933 0.61594 0.89122 0.0
H865 H 0.88128 0.57311 0.78853 0.0
H866 H 0.93332 0.49848 0.80214 0.0
H867 H 0.91104 0.5222 0.81816 0.0
H868 H 0.92792 0.56428 0.92056 0.0
C869 C 0.87621 0.60941 0.89226 0.0
C870 C 0.89174 0.57155 0.81677 0.0
C871 C 0.86196 0.61625 0.92171 0.0
C872 C 0.93802 0.50991 0.82127 0.0
C873 C 0.92532 0.52371 0.82927 0.0
C874 C 0.91825 0.56637 0.89067 0.0
C875 C 0.87439 0.59306 0.86996 0.0
C876 C 0.89109 0.58217 0.85842 0.0
C877 C 0.93123 0.53958 0.84874 0.0
C878 C 0.91825 0.55502 0.85051 0.0
H879 H 0.83065 0.5842 0.90566 0.0
H880 H 0.85527 0.57254 0.85373 0.0
H881 H 0.90448 0.58762 0.92748 0.0
H882 H 0.9766 0.52786 0.86869 0.0
H883 H 0.95455 0.55246 0.88154 0.0
C884 C 0.02508 0.17557 0.00771 0.0
C885 C 0.01032 0.17902 0.04018 0.0
C886 C 0.02537 0.16052 0.97856 0.0
C887 C 0.00458 0.11667 0.96935 0.0
H888 H 0.02065 0.11892 0.83435 0.0
C889 C 0.00698 0.05567 0.8434 0.0
C890 C 0.99792 0.05835 0.79843 0.0
C891 C 0.01093 0.06998 0.87324 0.0
C892 C 0.01616 0.11808 0.87205 0.0
H893 H 0.98396 0.16975 0.0662 0.0
H894 H 0.98426 0.14377 0.01492 0.0
H895 H 0.02214 0.1449 0.88569 0.0
H896 H 0.98673 0.07793 0.74817 0.0
H897 H 0.99408 0.10286 0.79936 0.0
H898 H 0.99809 0.08999 0.95517 0.0
C899 C 0.99592 0.15236 0.01287 0.0
C900 C 0.01715 0.13294 0.90161 0.0
C901 C 0.99569 0.1673 0.04212 0.0
C902 C 0.99361 0.07553 0.78288 0.0
C903 C 0.99794 0.0898 0.81204 0.0
C904 C 0.00368 0.10181 0.93985 0.0
C905 C 0.01084 0.14865 0.98104 0.0
C906 C 0.01105 0.13252 0.95042 0.0
C907 C 0.00632 0.0872 0.85798 0.0
C908 C 0.00916 0.10242 0.89062 0.0
H909 H 0.03664 0.18427 0.00578 0.0
H910 H 0.03717 0.15802 0.95481 0.0
H911 H 1.00005 0.11577 0.00698 0.0
H912 H 0.01037 0.04253 0.85624 0.0
H913 H 0.01747 0.06757 0.90837 0.0
C914 C 0.33635 0.08763 0.012 0.0
C915 C 0.33598 0.08339 0.06211 0.0
C916 C 0.35118 0.08182 0.98224 0.0
C917 C 0.3885 0.04712 0.9773 0.0
H918 H 0.40831 0.07524 0.87249 0.0
C919 C 0.45164 0.02235 0.86386 0.0
C920 C 0.44992 0.02415 0.81303 0.0
C921 C 0.4391 0.0312 0.89514 0.0
C922 C 0.40287 0.06718 0.90147 0.0
H923 H 0.35117 0.06974 0.11993 0.0
H924 H 0.37696 0.05992 0.06863 0.0
H925 H 0.38366 0.08751 0.92481 0.0
H926 H 0.43417 0.03681 0.75486 0.0
H927 H 0.41252 0.05256 0.80926 0.0
H928 H 0.40753 0.02677 0.95393 0.0
C929 C 0.36573 0.06759 0.05202 0.0
C930 C 0.38868 0.07421 0.93143 0.0
C931 C 0.35099 0.07343 0.08169 0.0
C932 C 0.43592 0.03542 0.79403 0.0
C933 C 0.42353 0.04444 0.82524 0.0
C934 C 0.40268 0.04014 0.94754 0.0
C935 C 0.36597 0.07149 0.00172 0.0
C936 C 0.38127 0.06426 0.96979 0.0
C937 C 0.42464 0.0421 0.87622 0.0
C938 C 0.41007 0.05003 0.90913 0.0
H939 H 0.32515 0.09543 0.99571 0.0
H940 H 0.35079 0.08504 0.94368 0.0
H941 H 0.38292 0.03888 0.00567 0.0
H942 H 0.46215 0.01352 0.8793 0.0
H943 H 0.44051 0.02921 0.93419 0.0
C944 C 0.51055 0.34377 0.05797 0.0
C945 C 0.50607 0.32736 0.03894 0.0
C946 C 0.50882 0.35888 0.0293 0.0
C947 C 0.50583 0.37503 0.9021 0.0
H948 H 0.48617 0.41716 0.96466 0.0
C949 C 0.49671 0.44098 0.79821 0.0
C950 C 0.50587 0.45464 0.82122 0.0
C951 C 0.49352 0.42538 0.82356 0.0
C952 C 0.49165 0.4055 0.94668 0.0
H953 H 0.4968 0.31398 0.97409 0.0
H954 H 0.4939 0.34046 0.92372 0.0
H955 H 0.48776 0.38964 0.01021 0.0
H956 H 0.51799 0.46327 0.8889 0.0
H957 H 0.5117 0.4364 0.93393 0.0
H958 H 0.50989 0.39105 0.8387 0.0
C959 C 0.49874 0.34157 0.961 0.0
C960 C 0.49266 0.38975 0.97281 0.0
C961 C 0.50044 0.32639 0.98983 0.0
C962 C 0.51075 0.45294 0.87064 0.0
C963 C 0.50716 0.43757 0.89629 0.0
C964 C 0.50471 0.3908 0.87584 0.0
C965 C 0.50262 0.35804 0.9807 0.0
C966 C 0.50016 0.3744 0.95124 0.0
C967 C 0.49908 0.4234 0.87261 0.0
C968 C 0.49795 0.40628 0.89821 0.0
H969 H 0.51538 0.34496 0.09523 0.0
H970 H 0.51243 0.37127 0.04527 0.0
H971 H 0.51179 0.3635 0.88448 0.0
H972 H 0.49311 0.44193 0.75983 0.0
H973 H 0.4872 0.4147 0.80449 0.0
C974 C 0.1548 0.41507 0.0623 0.0
C975 C 0.17206 0.42326 0.06053 0.0
C976 C 0.13985 0.42106 0.03308 0.0
C977 C 0.12333 0.46114 0.96627 0.0
H978 H 0.08662 0.4309 0.91125 0.0
C979 C 0.05863 0.49165 0.87452 0.0
C980 C 0.05239 0.48417 0.83105 0.0
C981 C 0.07143 0.48262 0.90453 0.0
C982 C 0.09679 0.43955 0.92609 0.0
H983 H 0.18694 0.44407 0.02513 0.0
H984 H 0.16136 0.45398 0.97345 0.0
H985 H 0.11311 0.4181 0.9563 0.0
H986 H 0.05427 0.46117 0.78532 0.0
H987 H 0.07715 0.44545 0.83704 0.0
H988 H 0.10765 0.4825 0.93503 0.0
C989 C 0.15916 0.44315 0.99819 0.0
C990 C 0.11193 0.4322 0.95243 0.0
C991 C 0.17403 0.43724 0.02747 0.0
C992 C 0.05862 0.4671 0.81915 0.0
C993 C 0.07178 0.45814 0.84882 0.0
C994 C 0.10835 0.46843 0.93991 0.0
C995 C 0.14171 0.43542 1.0012 0.0
C996 C 0.12546 0.44292 0.97284 0.0
C997 C 0.07884 0.46603 0.8912 0.0
C998 C 0.09474 0.45782 0.91958 0.0
H999 H 0.15275 0.40409 0.08664 0.0
H1000 H 0.12667 0.41476 0.03665 0.0
H1001 H 0.13319 0.46993 0.98195 0.0
H1002 H 0.05407 0.50481 0.88446 0.0
H1003 H 0.07596 0.48898 0.93754 0.0
C1004 C 0.99495 0.84417 0.37735 0.0
C1005 C 1.00301 0.82844 0.39567 0.0
C1006 C 0.99391 0.85924 0.40625 0.0
C1007 C 0.0164 0.87887 0.51294 0.0
H1008 H 0.97371 0.91111 0.51278 0.0
C1009 C 0.01226 0.93505 0.6491 0.0
C1010 C 0.00633 0.95165 0.63205 0.0
C1011 C 0.00977 0.92017 0.62087 0.0
C1012 C 0.9858 0.90232 0.51286 0.0
H1013 H 0.01599 0.81623 0.45919 0.0
H1014 H 0.01383 0.84235 0.50988 0.0
H1015 H 0.97341 0.8847 0.46242 0.0
H1016 H 0.99236 0.96566 0.57304 0.0
H1017 H 0.98843 0.93953 0.52249 0.0
H1018 H 0.02892 0.89638 0.56269 0.0
C1019 C 0.00855 0.84311 0.47286 0.0
C1020 C 0.98563 0.88718 0.48404 0.0
C1021 C 0.0096 0.82806 0.44398 0.0
C1022 C 0.99705 0.95299 0.58698 0.0
C1023 C 0.99479 0.93804 0.55817 0.0
C1024 C 0.01658 0.89393 0.54153 0.0
C1025 C 1.0009 0.85895 0.45419 0.0
C1026 C 1.00089 0.87519 0.48414 0.0
C1027 C 1.00159 0.9215 0.57434 0.0
C1028 C 1.00122 0.90577 0.54238 0.0
H1029 H 0.98947 0.84488 0.34052 0.0
H1030 H 0.98804 0.87122 0.39059 0.0
H1031 H 0.02859 0.8702 0.51296 0.0
H1032 H 0.01913 0.93358 0.68417 0.0
H1033 H 0.01463 0.90762 0.63522 0.0
C1034 C 0.65486 0.92149 0.3788 0.0
C1035 C 0.67123 0.93109 0.37997 0.0
C1036 C 0.63964 0.92615 0.40869 0.0
C1037 C 0.62737 0.95257 0.51963 0.0
H1038 H 0.57682 0.94863 0.47361 0.0
C1039 C 0.56674 0.97217 0.64594 0.0
C1040 C 0.55135 0.98116 0.62537 0.0
C1041 C 0.57991 0.96356 0.6163 0.0
C1042 C 0.59083 0.94995 0.48703 0.0
H1043 H 0.68399 0.95353 0.41268 0.0
H1044 H 0.65767 0.96171 0.4639 0.0
H1045 H 0.60267 0.93922 0.42126 0.0
H1046 H 0.53731 0.98786 0.55775 0.0
H1047 H 0.56068 0.97338 0.50531 0.0
H1048 H 0.61584 0.96407 0.58409 0.0
C1049 C 0.65666 0.95024 0.44107 0.0
C1050 C 0.60571 0.94431 0.45713 0.0
C1051 C 0.67185 0.94554 0.41151 0.0
C1052 C 0.54896 0.98082 0.5745 0.0
C1053 C 0.5624 0.97249 0.54453 0.0
C1054 C 0.61258 0.95832 0.54918 0.0
C1055 C 0.64033 0.94059 0.44042 0.0
C1056 C 0.62424 0.94572 0.47281 0.0
C1057 C 0.57839 0.96415 0.56497 0.0
C1058 C 0.59403 0.9572 0.53344 0.0
H1059 H 0.65389 0.9102 0.35527 0.0
H1060 H 0.62744 0.91825 0.4074 0.0
H1061 H 0.64133 0.95358 0.53366 0.0
H1062 H 0.56886 0.97219 0.68515 0.0
H1063 H 0.59157 0.95684 0.63383 0.0
C1064 C 0.47951 0.67136 0.40204 0.0
C1065 C 0.4945 0.68261 0.39804 0.0
C1066 C 0.4809 0.65624 0.43085 0.0
C1067 C 0.51425 0.62436 0.48617 0.0
H1068 H 0.4718 0.61272 0.5655 0.0
C1069 C 0.51248 0.5632 0.61673 0.0
C1070 C 0.49541 0.55484 0.61934 0.0
C1071 C 0.51396 0.57894 0.59027 0.0
C1072 C 0.48373 0.61562 0.54317 0.0
H1073 H 0.52283 0.68662 0.42108 0.0
H1074 H 0.52521 0.66017 0.47195 0.0
H1075 H 0.47126 0.63996 0.51943 0.0
H1076 H 0.46692 0.55572 0.5939 0.0
H1077 H 0.46961 0.58247 0.54687 0.0
H1078 H 0.52657 0.59976 0.50956 0.0
C1079 C 0.51239 0.66309 0.45248 0.0
C1080 C 0.48342 0.63131 0.5168 0.0
C1081 C 0.51095 0.67834 0.42378 0.0
C1082 C 0.4802 0.56199 0.59316 0.0
C1083 C 0.48171 0.57745 0.56649 0.0
C1084 C 0.51453 0.60854 0.51251 0.0
C1085 C 0.49734 0.6519 0.45647 0.0
C1086 C 0.49851 0.63575 0.48726 0.0
C1087 C 0.49842 0.58645 0.56575 0.0
C1088 C 0.49909 0.60381 0.54055 0.0
H1089 H 0.46659 0.67429 0.38306 0.0
H1090 H 0.46911 0.64781 0.4326 0.0
H1091 H 0.52609 0.62739 0.46365 0.0
H1092 H 0.5244 0.55804 0.63686 0.0
H1093 H 0.52704 0.58552 0.59053 0.0
C1094 C 0.83906 0.58339 0.41899 0.0
C1095 C 0.83776 0.57625 0.37184 0.0
C1096 C 0.85439 0.57925 0.44904 0.0
C1097 C 0.90283 0.55982 0.44569 0.0
H1098 H 0.89453 0.55159 0.58366 0.0
C1099 C 0.95451 0.51997 0.56823 0.0
C1100 C 0.95653 0.52491 0.61719 0.0
C1101 C 0.9416 0.52881 0.53791 0.0
C1102 C 0.8972 0.5541 0.54537 0.0
H1103 H 0.85156 0.55888 0.31992 0.0
H1104 H 0.87797 0.55152 0.37211 0.0
H1105 H 0.86884 0.56194 0.53224 0.0
H1106 H 0.94687 0.54293 0.67304 0.0
H1107 H 0.92439 0.55858 0.62006 0.0
H1108 H 0.9311 0.55151 0.45872 0.0
C1109 C 0.86744 0.56069 0.38566 0.0
C1110 C 0.88241 0.56006 0.51575 0.0
C1111 C 0.85221 0.56488 0.35563 0.0
C1112 C 0.94578 0.53912 0.63508 0.0
C1113 C 0.93277 0.54791 0.60488 0.0
C1114 C 0.91759 0.55378 0.47526 0.0
C1115 C 0.8688 0.56778 0.43287 0.0
C1116 C 0.88491 0.56274 0.46527 0.0
C1117 C 0.93021 0.54263 0.55614 0.0
C1118 C 0.91493 0.55058 0.52539 0.0
H1119 H 0.82832 0.59235 0.43247 0.0
H1120 H 0.85501 0.58518 0.48484 0.0
H1121 H 0.90547 0.56211 0.40728 0.0
H1122 H 0.96236 0.50879 0.554 0.0
H1123 H 0.93989 0.52421 0.50086 0.0
loop_
_geom_bond_atom_site_label_1
_geom_bond_atom_site_label_2
_geom_bond_distance
_geom_bond_site_symmetry_2
_ccdc_geom_bond_type
C0 C1 1.264 . S
C0 C5 1.479 . S
C0 C10 1.465 . S
C1 C0 1.264 . S
C1 C3 1.339 . S
C1 H28 0.931 . S
C2 C3 1.395 . S
C2 C4 1.320 . S
C3 C1 1.339 . S
C3 C2 1.395 . S
C3 H29 0.929 . S
C4 C2 1.320 . S
C4 C5 1.405 . S
C4 H30 0.930 . S
C5 C0 1.479 . S
C5 C4 1.405 . S
C5 H31 0.931 . S
U6 O7 2.454 . S
U6 O8 2.458 . S
U6 C9 2.984 . S
U6 C10 2.847 . S
U6 C23 2.882 . S
U6 O24 2.441 . S
U6 O25 2.420 . S
U6 O26 2.455 . S
U6 O27 2.449 . S
O7 U6 2.454 . S
O7 C9 1.353 . S
O8 U6 2.458 . S
O8 C9 1.286 . S
C9 U6 2.984 . S
C9 O7 1.353 . S
C9 O8 1.286 . S
C9 C11 1.363 . S
C10 C0 1.465 . S
C10 U6 2.847 . S
C10 O24 1.249 . S
C10 O25 1.202 . S
C11 C9 1.363 . S
C11 C13 1.408 . S
C11 C16 1.342 . S
C12 C13 1.310 . S
C12 C15 1.461 . S
C12 H32 0.932 . S
C13 C11 1.408 . S
C13 C12 1.310 . S
C13 H33 0.930 . S
C14 C15 1.463 1_556 S
C14 C16 1.280 1_556 S
C14 H34 0.947 . S
C15 C12 1.461 . S
C15 C14 1.463 1_554 S
C16 C11 1.342 . S
C16 C14 1.280 1_554 S
C16 H35 0.930 1_554 S
C17 C20 1.424 1_556 S
C17 C22 1.245 . S
C17 C23 1.428 1_556 S
C18 C21 1.260 . S
C18 C22 1.477 . S
C18 H36 0.932 . S
C19 C20 1.384 1_556 S
C19 C21 1.479 . S
C19 H37 0.929 . S
C20 C17 1.424 1_554 S
C20 C19 1.384 1_554 S
C20 H38 0.928 . S
C21 C18 1.260 . S
C21 C19 1.479 . S
C22 C17 1.245 . S
C22 C18 1.477 . S
C22 H39 0.932 . S
C23 U6 2.882 . S
C23 C17 1.428 1_554 S
C23 O26 1.301 . S
C23 O27 1.282 . S
O24 U6 2.441 . S
O24 C10 1.249 . S
O25 U6 2.420 . S
O25 C10 1.202 . S
O26 U6 2.455 . S
O26 C23 1.301 . S
O27 U6 2.449 . S
O27 C23 1.282 . S
H28 C1 0.931 . S
H29 C3 0.929 . S
H30 C4 0.930 . S
H31 C5 0.931 . S
H32 C12 0.932 . S
H33 C13 0.930 . S
H34 C14 0.947 . S
H35 C16 0.930 1_556 S
H36 C18 0.932 . S
H37 C19 0.929 . S
H38 C20 0.928 . S
H39 C22 0.932 . S
C40 C41 1.264 . S
C40 C45 1.479 . S
C40 C50 1.465 . S
C41 C40 1.264 . S
C41 C43 1.339 . S
C41 H68 0.931 . S
C42 C43 1.395 . S
C42 C44 1.320 . S
C43 C41 1.339 . S
C43 C42 1.395 . S
C43 H69 0.929 . S
C44 C42 1.320 . S
C44 C45 1.405 . S
C44 H70 0.920 1_455 S
C45 C40 1.479 . S
C45 C44 1.405 . S
C45 H71 0.931 . S
U46 O47 2.454 . S
U46 O48 2.458 . S
U46 C49 2.984 . S
U46 C50 2.847 . S
U46 C63 2.882 . S
U46 O64 2.441 . S
U46 O65 2.420 . S
U46 O66 2.455 . S
U46 O67 2.449 . S
O47 U46 2.454 . S
O47 C49 1.353 . S
O48 U46 2.458 . S
O48 C49 1.286 . S
C49 U46 2.984 . S
C49 O47 1.353 . S
C49 O48 1.286 . S
C49 C51 1.363 . S
C50 C40 1.465 . S
C50 U46 2.847 . S
C50 O64 1.249 . S
C50 O65 1.202 . S
C51 C49 1.363 . S
C51 C53 1.408 . S
C51 C56 1.342 . S
C52 C53 1.310 . S
C52 C55 1.461 . S
C52 H72 0.932 . S
C53 C51 1.408 . S
C53 C52 1.310 . S
C53 H73 0.930 . S
C54 C55 1.474 1_655 S
C54 C56 1.285 1_655 S
C54 H74 0.930 1_554 S
C55 C52 1.461 . S
C55 C54 1.474 1_455 S
C56 C51 1.342 . S
C56 C54 1.285 1_455 S
C56 H75 0.932 . S
C57 C60 1.424 . S
C57 C62 1.245 1_554 S
C57 C63 1.428 . S
C58 C61 1.260 . S
C58 C62 1.477 . S
C58 H76 0.932 . S
C59 C60 1.384 1_556 S
C59 C61 1.479 . S
C59 H77 0.929 . S
C60 C57 1.424 . S
C60 C59 1.384 1_554 S
C60 H78 0.928 . S
C61 C58 1.260 . S
C61 C59 1.479 . S
C62 C57 1.245 1_556 S
C62 C58 1.477 . S
C62 H79 0.932 . S
C63 U46 2.882 . S
C63 C57 1.428 . S
C63 O66 1.301 . S
C63 O67 1.282 . S
O64 U46 2.441 . S
O64 C50 1.249 . S
O65 U46 2.420 . S
O65 C50 1.202 . S
O66 U46 2.455 . S
O66 C63 1.301 . S
O67 U46 2.449 . S
O67 C63 1.282 . S
H68 C41 0.931 . S
H69 C43 0.929 . S
H70 C44 0.920 1_655 S
H71 C45 0.931 . S
H72 C52 0.932 . S
H73 C53 0.930 . S
H74 C54 0.930 1_556 S
H75 C56 0.932 . S
H76 C58 0.932 . S
H77 C59 0.929 . S
H78 C60 0.928 . S
H79 C62 0.932 . S
C80 C81 1.264 . S
C80 C85 1.479 . S
C80 C90 1.465 . S
C81 C80 1.264 . S
C81 C83 1.339 . S
C81 H108 0.931 . S
C82 C83 1.395 . S
C82 C84 1.320 . S
C83 C81 1.339 . S
C83 C82 1.395 . S
C83 H109 0.929 . S
C84 C82 1.320 . S
C84 C85 1.405 . S
C84 H110 0.930 . S
C85 C80 1.479 . S
C85 C84 1.405 . S
C85 H111 0.931 . S
U86 O87 2.454 . S
U86 O88 2.458 . S
U86 C89 2.984 . S
U86 C90 2.847 . S
U86 C103 2.882 . S
U86 O104 2.441 . S
U86 O105 2.420 . S
U86 O106 2.455 . S
U86 O107 2.449 . S
O87 U86 2.454 . S
O87 C89 1.353 . S
O88 U86 2.458 . S
O88 C89 1.286 . S
C89 U86 2.984 . S
C89 O87 1.353 . S
C89 O88 1.286 . S
C89 C91 1.363 . S
C90 C80 1.465 . S
C90 U86 2.847 . S
C90 O104 1.249 . S
C90 O105 1.202 . S
C91 C89 1.363 . S
C91 C93 1.408 . S
C91 C96 1.342 . S
C92 C93 1.310 . S
C92 C95 1.461 . S
C92 H112 0.932 . S
C93 C91 1.408 . S
C93 C92 1.310 . S
C93 H113 0.930 . S
C94 C95 1.474 . S
C94 C96 1.285 . S
C94 H114 0.929 1_554 S
C95 C92 1.461 . S
C95 C94 1.474 . S
C96 C91 1.342 . S
C96 C94 1.285 . S
C96 H115 0.930 1_554 S
C97 C100 1.424 1_556 S
C97 C102 1.245 . S
C97 C103 1.428 1_556 S
C98 C101 1.260 . S
C98 C102 1.477 . S
C98 H116 0.932 . S
C99 C100 1.384 1_556 S
C99 C101 1.479 . S
C99 H117 0.929 . S
C100 C97 1.424 1_554 S
C100 C99 1.384 1_554 S
C100 H118 0.928 . S
C101 C98 1.260 . S
C101 C99 1.479 . S
C102 C97 1.245 . S
C102 C98 1.477 . S
C102 H119 0.932 . S
C103 U86 2.882 . S
C103 C97 1.428 1_554 S
C103 O106 1.301 . S
C103 O107 1.282 . S
O104 U86 2.441 . S
O104 C90 1.249 . S
O105 U86 2.420 . S
O105 C90 1.202 . S
O106 U86 2.455 . S
O106 C103 1.301 . S
O107 U86 2.449 . S
O107 C103 1.282 . S
H108 C81 0.931 . S
H109 C83 0.929 . S
H110 C84 0.930 . S
H111 C85 0.931 . S
H112 C92 0.932 . S
H113 C93 0.930 . S
H114 C94 0.929 1_556 S
H115 C96 0.930 1_556 S
H116 C98 0.932 . S
H117 C99 0.929 . S
H118 C100 0.928 . S
H119 C102 0.932 . S
C120 C121 1.264 . S
C120 C125 1.479 . S
C120 C130 1.465 . S
C121 C120 1.264 . S
C121 C123 1.339 . S
C121 H148 0.931 . S
C122 C123 1.395 . S
C122 C124 1.320 . S
C123 C121 1.339 . S
C123 C122 1.395 . S
C123 H149 0.929 . S
C124 C122 1.320 . S
C124 C125 1.405 . S
C124 H150 0.930 . S
C125 C120 1.479 . S
C125 C124 1.405 . S
C125 H151 0.931 . S
U126 O127 2.454 . S
U126 O128 2.458 . S
U126 C129 2.984 . S
U126 C130 2.847 . S
U126 C143 2.882 . S
U126 O144 2.441 . S
U126 O145 2.420 . S
U126 O146 2.455 . S
U126 O147 2.449 . S
O127 U126 2.454 . S
O127 C129 1.353 . S
O128 U126 2.458 . S
O128 C129 1.286 . S
C129 U126 2.984 . S
C129 O127 1.353 . S
C129 O128 1.286 . S
C129 C131 1.363 . S
C130 C120 1.465 . S
C130 U126 2.847 . S
C130 O144 1.249 . S
C130 O145 1.202 . S
C131 C129 1.363 . S
C131 C133 1.408 . S
C131 C136 1.342 . S
C132 C133 1.310 . S
C132 C135 1.461 . S
C132 H152 0.932 . S
C133 C131 1.408 . S
C133 C132 1.310 . S
C133 H153 0.930 . S
C134 C135 1.474 . S
C134 C136 1.285 . S
C134 H154 0.929 1_554 S
C135 C132 1.461 . S
C135 C134 1.474 . S
C136 C131 1.342 . S
C136 C134 1.285 . S
C136 H155 0.930 . S
C137 C140 1.424 . S
C137 C142 1.245 1_554 S
C137 C143 1.428 . S
C138 C141 1.260 . S
C138 C142 1.477 . S
C138 H156 0.932 . S
C139 C140 1.384 1_556 S
C139 C141 1.479 . S
C139 H157 0.929 . S
C140 C137 1.424 . S
C140 C139 1.384 1_554 S
C140 H158 0.928 . S
C141 C138 1.260 . S
C141 C139 1.479 . S
C142 C137 1.245 1_556 S
C142 C138 1.477 . S
C142 H159 0.932 . S
C143 U126 2.882 . S
C143 C137 1.428 . S
C143 O146 1.301 . S
C143 O147 1.282 . S
O144 U126 2.441 . S
O144 C130 1.249 . S
O145 U126 2.420 . S
O145 C130 1.202 . S
O146 U126 2.455 . S
O146 C143 1.301 . S
O147 U126 2.449 . S
O147 C143 1.282 . S
H148 C121 0.931 . S
H149 C123 0.929 . S
H150 C124 0.930 . S
H151 C125 0.931 . S
H152 C132 0.932 . S
H153 C133 0.930 . S
H154 C134 0.929 1_556 S
H155 C136 0.930 . S
H156 C138 0.932 . S
H157 C139 0.929 . S
H158 C140 0.928 . S
H159 C142 0.932 . S
C160 C161 1.264 . S
C160 C165 1.479 . S
C160 C170 1.465 . S
C161 C160 1.264 . S
C161 C163 1.339 . S
C161 H188 0.931 . S
C162 C163 1.395 . S
C162 C164 1.320 . S
C163 C161 1.339 . S
C163 C162 1.395 . S
C163 H189 0.929 . S
C164 C162 1.320 . S
C164 C165 1.405 . S
C164 H190 0.930 . S
C165 C160 1.479 . S
C165 C164 1.405 . S
C165 H191 0.931 . S
U166 O167 2.454 . S
U166 O168 2.458 . S
U166 C169 2.984 . S
U166 C170 2.847 . S
U166 C183 2.882 . S
U166 O184 2.441 . S
U166 O185 2.420 . S
U166 O186 2.455 . S
U166 O187 2.449 . S
O167 U166 2.454 . S
O167 C169 1.353 . S
O168 U166 2.458 . S
O168 C169 1.286 . S
C169 U166 2.984 . S
C169 O167 1.353 . S
C169 O168 1.286 . S
C169 C171 1.363 . S
C170 C160 1.465 . S
C170 U166 2.847 . S
C170 O184 1.249 . S
C170 O185 1.202 . S
C171 C169 1.363 . S
C171 C173 1.408 . S
C171 C176 1.342 . S
C172 C173 1.310 . S
C172 C175 1.461 . S
C172 H192 0.932 . S
C173 C171 1.408 . S
C173 C172 1.310 . S
C173 H193 0.930 . S
C174 C175 1.474 . S
C174 C176 1.285 . S
C174 H194 0.929 . S
C175 C172 1.461 . S
C175 C174 1.474 . S
C176 C171 1.342 . S
C176 C174 1.285 . S
C176 H195 0.930 . S
C177 C180 1.424 . S
C177 C182 1.245 . S
C177 C183 1.428 . S
C178 C181 1.260 . S
C178 C182 1.477 . S
C178 H196 0.932 . S
C179 C180 1.384 . S
C179 C181 1.479 . S
C179 H197 0.929 . S
C180 C177 1.424 . S
C180 C179 1.384 . S
C180 H198 0.928 . S
C181 C178 1.260 . S
C181 C179 1.479 . S
C182 C177 1.245 . S
C182 C178 1.477 . S
C182 H199 0.932 . S
C183 U166 2.882 . S
C183 C177 1.428 . S
C183 O186 1.301 . S
C183 O187 1.282 . S
O184 U166 2.441 . S
O184 C170 1.249 . S
O185 U166 2.420 . S
O185 C170 1.202 . S
O186 U166 2.455 . S
O186 C183 1.301 . S
O187 U166 2.449 . S
O187 C183 1.282 . S
H188 C161 0.931 . S
H189 C163 0.929 . S
H190 C164 0.930 . S
H191 C165 0.931 . S
H192 C172 0.932 . S
H193 C173 0.930 . S
H194 C174 0.929 . S
H195 C176 0.930 . S
H196 C178 0.932 . S
H197 C179 0.929 . S
H198 C180 0.928 . S
H199 C182 0.932 . S
C200 C201 1.264 . S
C200 C205 1.479 . S
C200 C210 1.465 . S
C201 C200 1.264 . S
C201 C203 1.339 . S
C201 H228 0.931 . S
C202 C203 1.395 . S
C202 C204 1.320 . S
C203 C201 1.339 . S
C203 C202 1.395 . S
C203 H229 0.929 . S
C204 C202 1.320 . S
C204 C205 1.405 . S
C204 H230 0.924 1_455 S
C205 C200 1.479 . S
C205 C204 1.405 . S
C205 H231 0.931 . S
U206 O207 2.454 . S
U206 O208 2.458 . S
U206 C209 2.984 . S
U206 C210 2.847 . S
U206 C223 2.882 . S
U206 O224 2.441 . S
U206 O225 2.420 . S
U206 O226 2.455 . S
U206 O227 2.449 . S
O207 U206 2.454 . S
O207 C209 1.353 . S
O208 U206 2.458 . S
O208 C209 1.286 . S
C209 U206 2.984 . S
C209 O207 1.353 . S
C209 O208 1.286 . S
C209 C211 1.363 . S
C210 C200 1.465 . S
C210 U206 2.847 . S
C210 O224 1.249 . S
C210 O225 1.202 . S
C211 C209 1.363 . S
C211 C213 1.408 . S
C211 C216 1.342 . S
C212 C213 1.310 . S
C212 C215 1.462 . S
C212 H232 0.932 . S
C213 C211 1.408 . S
C213 C212 1.310 . S
C213 H233 0.930 . S
C214 C215 1.473 . S
C214 C216 1.285 . S
C214 H234 0.930 1_455 S
C215 C212 1.462 . S
C215 C214 1.473 . S
C216 C211 1.342 . S
C216 C214 1.285 . S
C216 H235 0.935 . S
C217 C220 1.424 . S
C217 C222 1.245 . S
C217 C223 1.428 . S
C218 C221 1.260 . S
C218 C222 1.477 . S
C218 H236 0.932 . S
C219 C220 1.384 . S
C219 C221 1.479 . S
C219 H237 0.929 . S
C220 C217 1.424 . S
C220 C219 1.384 . S
C220 H238 0.928 . S
C221 C218 1.260 . S
C221 C219 1.479 . S
C222 C217 1.245 . S
C222 C218 1.477 . S
C222 H239 0.932 . S
C223 U206 2.882 . S
C223 C217 1.428 . S
C223 O226 1.301 . S
C223 O227 1.282 . S
O224 U206 2.441 . S
O224 C210 1.249 . S
O225 U206 2.420 . S
O225 C210 1.202 . S
O226 U206 2.455 . S
O226 C223 1.301 . S
O227 U206 2.449 . S
O227 C223 1.282 . S
H228 C201 0.931 . S
H229 C203 0.929 . S
H230 C204 0.924 1_655 S
H231 C205 0.931 . S
H232 C212 0.932 . S
H233 C213 0.930 . S
H234 C214 0.930 1_655 S
H235 C216 0.935 . S
H236 C218 0.932 . S
H237 C219 0.929 . S
H238 C220 0.928 . S
H239 C222 0.932 . S
C240 C241 1.264 . S
C240 C245 1.479 . S
C240 C250 1.465 . S
C241 C240 1.264 . S
C241 C243 1.339 . S
C241 H268 0.931 . S
C242 C243 1.395 . S
C242 C244 1.320 . S
C243 C241 1.339 . S
C243 C242 1.395 . S
C243 H269 0.929 . S
C244 C242 1.320 . S
C244 C245 1.405 . S
C244 H270 0.930 . S
C245 C240 1.479 . S
C245 C244 1.405 . S
C245 H271 0.931 . S
U246 O247 2.454 . S
U246 O248 2.458 . S
U246 C249 2.984 . S
U246 C250 2.847 . S
U246 C263 2.882 . S
U246 O264 2.441 . S
U246 O265 2.420 . S
U246 O266 2.455 . S
U246 O267 2.449 . S
O247 U246 2.454 . S
O247 C249 1.353 . S
O248 U246 2.458 . S
O248 C249 1.286 . S
C249 U246 2.984 . S
C249 O247 1.353 . S
C249 O248 1.286 . S
C249 C251 1.363 . S
C250 C240 1.465 . S
C250 U246 2.847 . S
C250 O264 1.249 . S
C250 O265 1.202 . S
C251 C249 1.363 . S
C251 C253 1.408 . S
C251 C256 1.342 . S
C252 C253 1.310 . S
C252 C255 1.461 . S
C252 H272 0.932 . S
C253 C251 1.408 . S
C253 C252 1.310 . S
C253 H273 0.930 . S
C254 C255 1.474 . S
C254 C256 1.285 . S
C254 H274 0.929 . S
C255 C252 1.461 . S
C255 C254 1.474 . S
C256 C251 1.342 . S
C256 C254 1.285 . S
C256 H275 0.930 . S
C257 C260 1.424 . S
C257 C262 1.245 . S
C257 C263 1.428 . S
C258 C261 1.260 . S
C258 C262 1.477 . S
C258 H276 0.932 . S
C259 C260 1.384 . S
C259 C261 1.479 . S
C259 H277 0.929 . S
C260 C257 1.424 . S
C260 C259 1.384 . S
C260 H278 0.928 . S
C261 C258 1.260 . S
C261 C259 1.479 . S
C262 C257 1.245 . S
C262 C258 1.477 . S
C262 H279 0.932 . S
C263 U246 2.882 . S
C263 C257 1.428 . S
C263 O266 1.301 . S
C263 O267 1.282 . S
O264 U246 2.441 . S
O264 C250 1.249 . S
O265 U246 2.420 . S
O265 C250 1.202 . S
O266 U246 2.455 . S
O266 C263 1.301 . S
O267 U246 2.449 . S
O267 C263 1.282 . S
H268 C241 0.931 . S
H269 C243 0.929 . S
H270 C244 0.930 . S
H271 C245 0.931 . S
H272 C252 0.932 . S
H273 C253 0.930 . S
H274 C254 0.929 . S
H275 C256 0.930 . S
H276 C258 0.932 . S
H277 C259 0.929 . S
H278 C260 0.928 . S
H279 C262 0.932 . S
C280 C281 1.264 . S
C280 C285 1.479 . S
C280 C290 1.465 . S
C281 C280 1.264 . S
C281 C283 1.339 . S
C281 H308 0.931 . S
C282 C283 1.395 . S
C282 C284 1.320 . S
C283 C281 1.339 . S
C283 C282 1.395 . S
C283 H309 0.929 . S
C284 C282 1.320 . S
C284 C285 1.405 . S
C284 H310 0.930 . S
C285 C280 1.479 . S
C285 C284 1.405 . S
C285 H311 0.931 . S
U286 O287 2.454 . S
U286 O288 2.458 . S
U286 C289 2.984 . S
U286 C290 2.847 . S
U286 C303 2.882 . S
U286 O304 2.441 . S
U286 O305 2.420 . S
U286 O306 2.455 . S
U286 O307 2.449 . S
O287 U286 2.454 . S
O287 C289 1.353 . S
O288 U286 2.458 . S
O288 C289 1.286 . S
C289 U286 2.984 . S
C289 O287 1.353 . S
C289 O288 1.286 . S
C289 C291 1.363 . S
C290 C280 1.465 . S
C290 U286 2.847 . S
C290 O304 1.249 . S
C290 O305 1.202 . S
C291 C289 1.363 . S
C291 C293 1.408 . S
C291 C296 1.342 . S
C292 C293 1.310 . S
C292 C295 1.461 . S
C292 H312 0.932 . S
C293 C291 1.408 . S
C293 C292 1.310 . S
C293 H313 0.930 . S
C294 C295 1.474 . S
C294 C296 1.285 . S
C294 H314 0.929 . S
C295 C292 1.461 . S
C295 C294 1.474 . S
C296 C291 1.342 . S
C296 C294 1.285 . S
C296 H315 0.930 . S
C297 C300 1.424 . S
C297 C302 1.245 . S
C297 C303 1.428 . S
C298 C301 1.260 . S
C298 C302 1.477 . S
C298 H316 0.932 . S
C299 C300 1.384 . S
C299 C301 1.479 . S
C299 H317 0.929 . S
C300 C297 1.424 . S
C300 C299 1.384 . S
C300 H318 0.928 . S
C301 C298 1.260 . S
C301 C299 1.479 . S
C302 C297 1.245 . S
C302 C298 1.477 . S
C302 H319 0.932 . S
C303 U286 2.882 . S
C303 C297 1.428 . S
C303 O306 1.301 . S
C303 O307 1.282 . S
O304 U286 2.441 . S
O304 C290 1.249 . S
O305 U286 2.420 . S
O305 C290 1.202 . S
O306 U286 2.455 . S
O306 C303 1.301 . S
O307 U286 2.449 . S
O307 C303 1.282 . S
H308 C281 0.931 . S
H309 C283 0.929 . S
H310 C284 0.930 . S
H311 C285 0.931 . S
H312 C292 0.932 . S
H313 C293 0.930 . S
H314 C294 0.929 . S
H315 C296 0.930 . S
H316 C298 0.932 . S
H317 C299 0.929 . S
H318 C300 0.928 . S
H319 C302 0.932 . S
O320 Mg321 1.990 . S
O320 C334 1.253 . S
Mg321 O320 1.990 . S
Mg321 O324 2.180 1_565 S
Mg321 O325 2.117 . S
Mg321 O339 2.030 . S
O322 Mg323 2.070 1_465 S
O322 C334 1.260 . S
Mg323 O322 2.070 1_645 S
Mg323 O324 2.050 1_655 S
Mg323 O326 2.088 . S
Mg323 O327 2.056 1_655 S
Mg323 O329 2.148 . S
Mg323 O340 2.091 1_545 S
O324 Mg321 2.180 1_545 S
O324 Mg323 2.050 1_455 S
O324 C335 1.279 . S
O325 Mg321 2.117 . S
O325 C335 1.250 1_565 S
O326 Mg323 2.088 . S
O326 C336 1.264 . S
O327 Mg323 2.056 1_455 S
O327 C337 1.283 . S
Mg328 O329 2.180 . S
Mg328 O330 2.030 . S
Mg328 O331 1.990 . S
Mg328 O332 2.117 . S
O329 Mg323 2.148 . S
O329 Mg328 2.180 . S
O329 C338 1.279 . S
O330 Mg328 2.030 . S
O330 C336 1.248 . S
O331 Mg328 1.990 . S
O331 C337 1.199 1_655 S
O332 Mg328 2.117 . S
O332 C338 1.250 . S
C333 O339 1.205 1_655 S
C333 O340 1.281 . S
C334 O320 1.253 . S
C334 O322 1.260 . S
C335 O324 1.279 . S
C335 O325 1.250 1_545 S
C336 O326 1.264 . S
C336 O330 1.248 . S
C337 O327 1.283 . S
C337 O331 1.199 1_455 S
C338 O329 1.279 . S
C338 O332 1.250 . S
O339 Mg321 2.030 . S
O339 C333 1.205 1_455 S
O340 Mg323 2.091 1_565 S
O340 C333 1.281 . S
O341 Mg342 1.990 1_545 S
O341 C355 1.253 . S
Mg342 O341 1.990 1_565 S
Mg342 O345 2.180 . S
Mg342 O346 2.117 . S
Mg342 O360 2.030 1_565 S
O343 Mg344 2.072 . S
O343 C355 1.260 . S
Mg344 O343 2.072 . S
Mg344 O345 2.099 1_545 S
Mg344 O347 2.079 1_545 S
Mg344 O348 2.077 . S
Mg344 O350 2.099 . S
Mg344 O361 2.079 . S
O345 Mg342 2.180 . S
O345 Mg344 2.099 1_565 S
O345 C356 1.279 . S
O346 Mg342 2.117 . S
O346 C356 1.250 . S
O347 Mg344 2.079 1_565 S
O347 C357 1.264 . S
O348 Mg344 2.077 . S
O348 C358 1.266 . S
Mg349 O350 2.180 . S
Mg349 O351 2.030 . S
Mg349 O352 1.990 . S
Mg349 O353 2.117 . S
O350 Mg344 2.099 . S
O350 Mg349 2.180 . S
O350 C359 1.279 . S
O351 Mg349 2.030 . S
O351 C357 1.248 1_545 S
O352 Mg349 1.990 . S
O352 C358 1.253 . S
O353 Mg349 2.117 . S
O353 C359 1.250 . S
C354 O360 1.248 . S
C354 O361 1.264 . S
C355 O341 1.253 . S
C355 O343 1.260 . S
C356 O345 1.279 . S
C356 O346 1.250 . S
C357 O347 1.264 . S
C357 O351 1.248 1_565 S
C358 O348 1.266 . S
C358 O352 1.253 . S
C359 O350 1.279 . S
C359 O353 1.250 . S
O360 Mg342 2.030 1_545 S
O360 C354 1.248 . S
O361 Mg344 2.079 . S
O361 C354 1.264 . S
O362 Mg363 1.990 . S
O362 C376 1.253 . S
Mg363 O362 1.990 . S
Mg363 O366 2.180 . S
Mg363 O367 2.117 . S
Mg363 O381 2.030 . S
O364 Mg365 2.072 . S
O364 C376 1.260 . S
Mg365 O364 2.072 . S
Mg365 O366 2.099 . S
Mg365 O368 2.079 . S
Mg365 O369 2.072 . S
Mg365 O371 2.099 . S
Mg365 O382 2.079 . S
O366 Mg363 2.180 . S
O366 Mg365 2.099 . S
O366 C377 1.279 . S
O367 Mg363 2.117 . S
O367 C377 1.250 . S
O368 Mg365 2.079 . S
O368 C378 1.264 . S
O369 Mg365 2.072 . S
O369 C379 1.260 . S
Mg370 O371 2.180 . S
Mg370 O372 2.030 . S
Mg370 O373 1.990 . S
Mg370 O374 2.117 . S
O371 Mg365 2.099 . S
O371 Mg370 2.180 . S
O371 C380 1.279 . S
O372 Mg370 2.030 . S
O372 C378 1.248 . S
O373 Mg370 1.990 . S
O373 C379 1.253 . S
O374 Mg370 2.117 . S
O374 C380 1.250 . S
C375 O381 1.248 . S
C375 O382 1.264 . S
C376 O362 1.253 . S
C376 O364 1.260 . S
C377 O366 1.279 . S
C377 O367 1.250 . S
C378 O368 1.264 . S
C378 O372 1.248 . S
C379 O369 1.260 . S
C379 O373 1.253 . S
C380 O371 1.279 . S
C380 O374 1.250 . S
O381 Mg363 2.030 . S
O381 C375 1.248 . S
O382 Mg365 2.079 . S
O382 C375 1.264 . S
O383 Mg384 1.990 . S
O383 C397 1.253 . S
Mg384 O383 1.990 . S
Mg384 O387 2.180 . S
Mg384 O388 2.117 . S
Mg384 O402 2.030 . S
O385 Mg386 2.072 1_655 S
O385 C397 1.260 . S
Mg386 O385 2.072 1_455 S
Mg386 O387 2.099 1_455 S
Mg386 O389 2.079 . S
Mg386 O390 2.072 . S
Mg386 O392 2.099 . S
Mg386 O403 2.079 1_455 S
O387 Mg384 2.180 . S
O387 Mg386 2.099 1_655 S
O387 C398 1.279 . S
O388 Mg384 2.117 . S
O388 C398 1.250 . S
O389 Mg386 2.079 . S
O389 C399 1.264 . S
O390 Mg386 2.072 . S
O390 C400 1.260 . S
Mg391 O392 2.180 . S
Mg391 O393 2.030 . S
Mg391 O394 1.990 . S
Mg391 O395 2.117 . S
O392 Mg386 2.099 . S
O392 Mg391 2.180 . S
O392 C401 1.279 . S
O393 Mg391 2.030 . S
O393 C399 1.248 . S
O394 Mg391 1.990 . S
O394 C400 1.253 . S
O395 Mg391 2.117 . S
O395 C401 1.250 . S
C396 O402 1.248 . S
C396 O403 1.264 . S
C397 O383 1.253 . S
C397 O385 1.260 . S
C398 O387 1.279 . S
C398 O388 1.250 . S
C399 O389 1.264 . S
C399 O393 1.248 . S
C400 O390 1.260 . S
C400 O394 1.253 . S
C401 O392 1.279 . S
C401 O395 1.250 . S
O402 Mg384 2.030 . S
O402 C396 1.248 . S
O403 Mg386 2.079 1_655 S
O403 C396 1.264 . S
C404 C405 1.349 . S
C404 C406 1.327 . S
C404 H429 0.950 . S
C405 C404 1.349 . S
C405 C421 1.349 . S
C406 C404 1.327 . S
C406 C425 1.429 . S
C406 H430 0.950 . S
C407 C424 1.574 . S
C407 C426 1.368 . S
C407 H431 0.949 . S
H408 C412 0.949 . S
C409 C410 1.349 . S
C409 C411 1.327 . S
C409 H432 0.950 . S
C410 C409 1.349 . S
C410 C422 1.349 . S
C411 C409 1.327 . S
C411 C427 1.429 . S
C411 H433 0.950 . S
C412 H408 0.949 . S
C412 C420 1.574 . S
C412 C428 1.368 . S
H413 C421 0.950 . S
H414 C419 0.950 . S
H415 C420 0.949 . S
H416 C422 0.950 . S
H417 C423 0.950 . S
H418 C424 0.949 . S
C419 H414 0.950 . S
C419 C421 1.327 . S
C419 C425 1.429 . S
C420 C412 1.574 . S
C420 H415 0.949 . S
C420 C426 1.368 . S
C421 C405 1.349 . S
C421 H413 0.950 . S
C421 C419 1.327 . S
C422 C410 1.349 . S
C422 H416 0.950 . S
C422 C423 1.327 . S
C423 H417 0.950 . S
C423 C422 1.327 . S
C423 C427 1.429 . S
C424 C407 1.574 . S
C424 H418 0.949 . S
C424 C428 1.368 . S
C425 C406 1.429 . S
C425 C419 1.429 . S
C425 C426 1.523 . S
C426 C407 1.368 . S
C426 C420 1.368 . S
C426 C425 1.523 . S
C427 C411 1.429 . S
C427 C423 1.429 . S
C427 C428 1.523 . S
C428 C412 1.368 . S
C428 C424 1.368 . S
C428 C427 1.523 . S
H429 C404 0.950 . S
H430 C406 0.950 . S
H431 C407 0.949 . S
H432 C409 0.950 . S
H433 C411 0.950 . S
C434 C435 1.349 . S
C434 C436 1.327 . S
C434 H459 0.950 . S
C435 C434 1.349 . S
C435 C451 1.349 . S
C436 C434 1.327 . S
C436 C455 1.429 . S
C436 H460 0.950 . S
C437 C454 1.574 . S
C437 C456 1.368 . S
C437 H461 0.949 . S
H438 C442 0.949 . S
C439 C440 1.349 . S
C439 C441 1.327 . S
C439 H462 0.950 . S
C440 C439 1.349 . S
C440 C452 1.349 . S
C441 C439 1.327 . S
C441 C457 1.429 . S
C441 H463 0.950 . S
C442 H438 0.949 . S
C442 C450 1.574 . S
C442 C458 1.368 . S
H443 C451 0.950 . S
H444 C449 0.950 . S
H445 C450 0.949 . S
H446 C452 0.950 . S
H447 C453 0.950 . S
H448 C454 0.949 . S
C449 H444 0.950 . S
C449 C451 1.327 . S
C449 C455 1.429 . S
C450 C442 1.574 . S
C450 H445 0.949 . S
C450 C456 1.368 . S
C451 C435 1.349 . S
C451 H443 0.950 . S
C451 C449 1.327 . S
C452 C440 1.349 . S
C452 H446 0.950 . S
C452 C453 1.327 . S
C453 H447 0.950 . S
C453 C452 1.327 . S
C453 C457 1.429 . S
C454 C437 1.574 . S
C454 H448 0.949 . S
C454 C458 1.368 . S
C455 C436 1.429 . S
C455 C449 1.429 . S
C455 C456 1.523 . S
C456 C437 1.368 . S
C456 C450 1.368 . S
C456 C455 1.523 . S
C457 C441 1.429 . S
C457 C453 1.429 . S
C457 C458 1.523 . S
C458 C442 1.368 . S
C458 C454 1.368 . S
C458 C457 1.523 . S
H459 C434 0.950 . S
H460 C436 0.950 . S
H461 C437 0.949 . S
H462 C439 0.950 . S
H463 C441 0.950 . S
C464 C465 1.349 . S
C464 C466 1.327 . S
C464 H489 0.950 . S
C465 C464 1.349 . S
C465 C481 1.349 . S
C466 C464 1.327 . S
C466 C485 1.429 . S
C466 H490 0.950 . S
C467 C484 1.574 . S
C467 C486 1.368 . S
C467 H491 0.949 . S
H468 C472 0.949 . S
C469 C470 1.349 . S
C469 C471 1.327 . S
C469 H492 0.950 . S
C470 C469 1.349 . S
C470 C482 1.349 . S
C471 C469 1.327 . S
C471 C487 1.429 . S
C471 H493 0.950 . S
C472 H468 0.949 . S
C472 C480 1.574 . S
C472 C488 1.368 . S
H473 C481 0.950 . S
H474 C479 0.950 . S
H475 C480 0.949 . S
H476 C482 0.950 . S
H477 C483 0.950 . S
H478 C484 0.949 . S
C479 H474 0.950 . S
C479 C481 1.327 . S
C479 C485 1.429 . S
C480 C472 1.574 . S
C480 H475 0.949 . S
C480 C486 1.368 . S
C481 C465 1.349 . S
C481 H473 0.950 . S
C481 C479 1.327 . S
C482 C470 1.349 . S
C482 H476 0.950 . S
C482 C483 1.327 . S
C483 H477 0.950 . S
C483 C482 1.327 . S
C483 C487 1.429 . S
C484 C467 1.574 . S
C484 H478 0.949 . S
C484 C488 1.368 . S
C485 C466 1.429 . S
C485 C479 1.429 . S
C485 C486 1.523 . S
C486 C467 1.368 . S
C486 C480 1.368 . S
C486 C485 1.523 . S
C487 C471 1.429 . S
C487 C483 1.429 . S
C487 C488 1.523 . S
C488 C472 1.368 . S
C488 C484 1.368 . S
C488 C487 1.523 . S
H489 C464 0.950 . S
H490 C466 0.950 . S
H491 C467 0.949 . S
H492 C469 0.950 . S
H493 C471 0.950 . S
C494 C495 1.350 . S
C494 C496 1.327 . S
C494 H519 0.950 . S
C495 C494 1.350 . S
C495 C511 1.348 1_655 S
C496 C494 1.327 . S
C496 C515 1.429 . S
C496 H520 0.950 . S
C497 C514 1.574 . S
C497 C516 1.362 1_455 S
C497 H521 0.957 . S
H498 C502 0.949 . S
C499 C500 1.349 . S
C499 C501 1.327 . S
C499 H522 0.950 1_655 S
C500 C499 1.349 . S
C500 C512 1.349 . S
C501 C499 1.327 . S
C501 C517 1.429 . S
C501 H523 0.950 1_655 S
C502 H498 0.949 . S
C502 C510 1.574 . S
C502 C518 1.368 . S
H503 C511 0.950 . S
H504 C509 0.950 . S
H505 C510 0.949 . S
H506 C512 0.950 . S
H507 C513 0.950 . S
H508 C514 0.950 . S
C509 H504 0.950 . S
C509 C511 1.327 . S
C509 C515 1.429 1_455 S
C510 C502 1.574 . S
C510 H505 0.949 . S
C510 C516 1.368 . S
C511 C495 1.348 1_455 S
C511 H503 0.950 . S
C511 C509 1.327 . S
C512 C500 1.349 . S
C512 H506 0.950 . S
C512 C513 1.327 . S
C513 H507 0.950 . S
C513 C512 1.327 . S
C513 C517 1.429 . S
C514 C497 1.574 . S
C514 H508 0.950 . S
C514 C518 1.367 1_455 S
C515 C496 1.429 . S
C515 C509 1.429 1_655 S
C515 C516 1.523 . S
C516 C497 1.362 1_655 S
C516 C510 1.368 . S
C516 C515 1.523 . S
C517 C501 1.429 . S
C517 C513 1.429 . S
C517 C518 1.523 . S
C518 C502 1.368 . S
C518 C514 1.367 1_655 S
C518 C517 1.523 . S
H519 C494 0.950 . S
H520 C496 0.950 . S
H521 C497 0.957 . S
H522 C499 0.950 1_455 S
H523 C501 0.950 1_455 S
C524 C525 1.349 1_556 S
C524 C526 1.327 . S
C524 H549 0.950 . S
C525 C524 1.349 1_554 S
C525 C541 1.349 . S
C526 C524 1.327 . S
C526 C545 1.429 . S
C526 H550 0.950 . S
C527 C544 1.574 . S
C527 C546 1.368 . S
C527 H551 0.949 . S
H528 C532 0.949 . S
C529 C530 1.349 . S
C529 C531 1.327 . S
C529 H552 0.950 1_565 S
C530 C529 1.349 . S
C530 C542 1.349 . S
C531 C529 1.327 . S
C531 C547 1.429 . S
C531 H553 0.950 . S
C532 H528 0.949 . S
C532 C540 1.574 . S
C532 C548 1.368 . S
H533 C541 0.950 . S
H534 C539 0.950 . S
H535 C540 0.949 . S
H536 C542 0.950 . S
H537 C543 0.950 . S
H538 C544 0.949 . S
C539 H534 0.950 . S
C539 C541 1.327 . S
C539 C545 1.429 1_554 S
C540 C532 1.574 . S
C540 H535 0.949 . S
C540 C546 1.368 . S
C541 C525 1.349 . S
C541 H533 0.950 . S
C541 C539 1.327 . S
C542 C530 1.349 . S
C542 H536 0.950 . S
C542 C543 1.327 . S
C543 H537 0.950 . S
C543 C542 1.327 . S
C543 C547 1.429 . S
C544 C527 1.574 . S
C544 H538 0.949 . S
C544 C548 1.368 . S
C545 C526 1.429 . S
C545 C539 1.429 1_556 S
C545 C546 1.523 . S
C546 C527 1.368 . S
C546 C540 1.368 . S
C546 C545 1.523 . S
C547 C531 1.429 . S
C547 C543 1.429 . S
C547 C548 1.523 . S
C548 C532 1.368 . S
C548 C544 1.368 . S
C548 C547 1.523 . S
H549 C524 0.950 . S
H550 C526 0.950 . S
H551 C527 0.949 . S
H552 C529 0.950 1_545 S
H553 C531 0.950 . S
C554 C555 1.349 1_556 S
C554 C556 1.327 . S
C554 H579 0.950 . S
C555 C554 1.349 1_554 S
C555 C571 1.349 . S
C556 C554 1.327 . S
C556 C575 1.429 . S
C556 H580 0.950 . S
C557 C574 1.574 . S
C557 C576 1.368 . S
C557 H581 0.949 . S
H558 C562 0.949 . S
C559 C560 1.349 . S
C559 C561 1.327 . S
C559 H582 0.950 . S
C560 C559 1.349 . S
C560 C572 1.349 . S
C561 C559 1.327 . S
C561 C577 1.429 . S
C561 H583 0.950 . S
C562 H558 0.949 . S
C562 C570 1.574 . S
C562 C578 1.368 . S
H563 C571 0.950 . S
H564 C569 0.950 . S
H565 C570 0.949 . S
H566 C572 0.950 . S
H567 C573 0.950 . S
H568 C574 0.949 . S
C569 H564 0.950 . S
C569 C571 1.327 . S
C569 C575 1.429 1_554 S
C570 C562 1.574 . S
C570 H565 0.949 . S
C570 C576 1.368 . S
C571 C555 1.349 . S
C571 H563 0.950 . S
C571 C569 1.327 . S
C572 C560 1.349 . S
C572 H566 0.950 . S
C572 C573 1.327 . S
C573 H567 0.950 . S
C573 C572 1.327 . S
C573 C577 1.429 . S
C574 C557 1.574 . S
C574 H568 0.949 . S
C574 C578 1.368 . S
C575 C556 1.429 . S
C575 C569 1.429 1_556 S
C575 C576 1.523 . S
C576 C557 1.368 . S
C576 C570 1.368 . S
C576 C575 1.523 . S
C577 C561 1.429 . S
C577 C573 1.429 . S
C577 C578 1.523 . S
C578 C562 1.368 . S
C578 C574 1.368 . S
C578 C577 1.523 . S
H579 C554 0.950 . S
H580 C556 0.950 . S
H581 C557 0.949 . S
H582 C559 0.950 . S
H583 C561 0.950 . S
C584 C585 1.349 1_556 S
C584 C586 1.327 . S
C584 H609 0.950 . S
C585 C584 1.349 1_554 S
C585 C601 1.349 1_554 S
C586 C584 1.327 . S
C586 C605 1.429 . S
C586 H610 0.950 . S
C587 C604 1.574 . S
C587 C606 1.368 . S
C587 H611 0.949 . S
H588 C592 0.949 . S
C589 C590 1.349 . S
C589 C591 1.327 . S
C589 H612 0.950 . S
C590 C589 1.349 . S
C590 C602 1.349 . S
C591 C589 1.327 . S
C591 C607 1.429 . S
C591 H613 0.950 . S
C592 H588 0.949 . S
C592 C600 1.574 . S
C592 C608 1.368 . S
H593 C601 0.950 1_554 S
H594 C599 0.950 . S
H595 C600 0.949 . S
H596 C602 0.950 . S
H597 C603 0.950 . S
H598 C604 0.949 . S
C599 H594 0.950 . S
C599 C601 1.327 . S
C599 C605 1.429 . S
C600 C592 1.574 . S
C600 H595 0.949 . S
C600 C606 1.368 . S
C601 C585 1.349 1_556 S
C601 H593 0.950 1_556 S
C601 C599 1.327 . S
C602 C590 1.349 . S
C602 H596 0.950 . S
C602 C603 1.327 . S
C603 H597 0.950 . S
C603 C602 1.327 . S
C603 C607 1.429 . S
C604 C587 1.574 . S
C604 H598 0.949 . S
C604 C608 1.368 . S
C605 C586 1.429 . S
C605 C599 1.429 . S
C605 C606 1.523 . S
C606 C587 1.368 . S
C606 C600 1.368 . S
C606 C605 1.523 . S
C607 C591 1.429 . S
C607 C603 1.429 . S
C607 C608 1.523 . S
C608 C592 1.368 . S
C608 C604 1.368 . S
C608 C607 1.523 . S
H609 C584 0.950 . S
H610 C586 0.950 . S
H611 C587 0.949 . S
H612 C589 0.950 . S
H613 C591 0.950 . S
C614 C615 1.352 1_556 S
C614 C616 1.327 . S
C614 H639 0.950 . S
C615 C614 1.352 1_554 S
C615 C631 1.346 1_455 S
C616 C614 1.327 . S
C616 C635 1.429 . S
C616 H640 0.950 . S
C617 C634 1.574 . S
C617 C636 1.368 1_655 S
C617 H641 0.949 . S
H618 C622 0.949 . S
C619 C620 1.349 1_655 S
C619 C621 1.327 . S
C619 H642 0.950 . S
C620 C619 1.349 1_455 S
C620 C632 1.349 . S
C621 C619 1.327 . S
C621 C637 1.429 1_655 S
C621 H643 0.950 . S
C622 H618 0.949 . S
C622 C630 1.574 . S
C622 C638 1.368 . S
H623 C631 0.950 . S
H624 C629 0.950 . S
H625 C630 0.949 . S
H626 C632 0.950 . S
H627 C633 0.950 . S
H628 C634 0.949 . S
C629 H624 0.950 . S
C629 C631 1.327 . S
C629 C635 1.429 1_654 S
C630 C622 1.574 . S
C630 H625 0.949 . S
C630 C636 1.368 . S
C631 C615 1.346 1_655 S
C631 H623 0.950 . S
C631 C629 1.327 . S
C632 C620 1.349 . S
C632 H626 0.950 . S
C632 C633 1.327 . S
C633 H627 0.950 . S
C633 C632 1.327 . S
C633 C637 1.429 . S
C634 C617 1.574 . S
C634 H628 0.949 . S
C634 C638 1.368 1_655 S
C635 C616 1.429 . S
C635 C629 1.429 1_456 S
C635 C636 1.523 . S
C636 C617 1.368 1_455 S
C636 C630 1.368 . S
C636 C635 1.523 . S
C637 C621 1.429 1_455 S
C637 C633 1.429 . S
C637 C638 1.523 . S
C638 C622 1.368 . S
C638 C634 1.368 1_455 S
C638 C637 1.523 . S
H639 C614 0.950 . S
H640 C616 0.950 . S
H641 C617 0.949 . S
H642 C619 0.950 . S
H643 C621 0.950 . S
C644 C645 1.349 1_655 S
C644 C646 1.327 . S
C644 H669 0.950 . S
C645 C644 1.349 1_455 S
C645 C661 1.349 . S
C646 C644 1.327 . S
C646 C665 1.429 . S
C646 H670 0.950 . S
C647 C664 1.574 . S
C647 C666 1.368 1_455 S
C647 H671 0.949 . S
H648 C652 0.949 . S
C649 C650 1.349 1_455 S
C649 C651 1.327 . S
C649 H672 0.950 . S
C650 C649 1.349 1_655 S
C650 C662 1.349 . S
C651 C649 1.327 . S
C651 C667 1.429 1_455 S
C651 H673 0.950 . S
C652 H648 0.949 . S
C652 C660 1.574 . S
C652 C668 1.368 . S
H653 C661 0.950 . S
H654 C659 0.950 . S
H655 C660 0.949 . S
H656 C662 0.950 . S
H657 C663 0.950 . S
H658 C664 0.949 . S
C659 H654 0.950 . S
C659 C661 1.327 . S
C659 C665 1.429 1_455 S
C660 C652 1.574 . S
C660 H655 0.949 . S
C660 C666 1.368 . S
C661 C645 1.349 . S
C661 H653 0.950 . S
C661 C659 1.327 . S
C662 C650 1.349 . S
C662 H656 0.950 . S
C662 C663 1.327 . S
C663 H657 0.950 . S
C663 C662 1.327 . S
C663 C667 1.429 . S
C664 C647 1.574 . S
C664 H658 0.949 . S
C664 C668 1.368 1_455 S
C665 C646 1.429 . S
C665 C659 1.429 1_655 S
C665 C666 1.523 . S
C666 C647 1.368 1_655 S
C666 C660 1.368 . S
C666 C665 1.523 . S
C667 C651 1.429 1_655 S
C667 C663 1.429 . S
C667 C668 1.523 . S
C668 C652 1.368 . S
C668 C664 1.368 1_655 S
C668 C667 1.523 . S
H669 C644 0.950 . S
H670 C646 0.950 . S
H671 C647 0.949 . S
H672 C649 0.950 . S
H673 C651 0.950 . S
C674 C675 1.349 . S
C674 C676 1.327 . S
C674 H699 0.950 . S
C675 C674 1.349 . S
C675 C691 1.349 . S
C676 C674 1.327 . S
C676 C695 1.429 . S
C676 H700 0.950 . S
C677 C694 1.574 . S
C677 C696 1.368 . S
C677 H701 0.949 . S
H678 C682 0.949 . S
C679 C680 1.349 . S
C679 C681 1.327 . S
C679 H702 0.950 . S
C680 C679 1.349 . S
C680 C692 1.349 . S
C681 C679 1.327 . S
C681 C697 1.429 . S
C681 H703 0.950 . S
C682 H678 0.949 . S
C682 C690 1.574 . S
C682 C698 1.368 . S
H683 C691 0.950 . S
H684 C689 0.950 . S
H685 C690 0.949 . S
H686 C692 0.950 . S
H687 C693 0.950 . S
H688 C694 0.949 . S
C689 H684 0.950 . S
C689 C691 1.327 . S
C689 C695 1.429 . S
C690 C682 1.574 . S
C690 H685 0.949 . S
C690 C696 1.368 . S
C691 C675 1.349 . S
C691 H683 0.950 . S
C691 C689 1.327 . S
C692 C680 1.349 . S
C692 H686 0.950 . S
C692 C693 1.327 . S
C693 H687 0.950 . S
C693 C692 1.327 . S
C693 C697 1.429 . S
C694 C677 1.574 . S
C694 H688 0.949 . S
C694 C698 1.368 . S
C695 C676 1.429 . S
C695 C689 1.429 . S
C695 C696 1.523 . S
C696 C677 1.368 . S
C696 C690 1.368 . S
C696 C695 1.523 . S
C697 C681 1.429 . S
C697 C693 1.429 . S
C697 C698 1.523 . S
C698 C682 1.368 . S
C698 C694 1.368 . S
C698 C697 1.523 . S
H699 C674 0.950 . S
H700 C676 0.950 . S
H701 C677 0.949 . S
H702 C679 0.950 . S
H703 C681 0.950 . S
C704 C705 1.349 . S
C704 C706 1.327 . S
C704 H729 0.950 . S
C705 C704 1.349 . S
C705 C721 1.349 . S
C706 C704 1.327 . S
C706 C725 1.429 . S
C706 H730 0.950 . S
C707 C724 1.574 . S
C707 C726 1.368 . S
C707 H731 0.949 . S
H708 C712 0.949 . S
C709 C710 1.349 . S
C709 C711 1.327 . S
C709 H732 0.950 . S
C710 C709 1.349 . S
C710 C722 1.349 . S
C711 C709 1.327 . S
C711 C727 1.429 . S
C711 H733 0.950 . S
C712 H708 0.949 . S
C712 C720 1.574 . S
C712 C728 1.368 . S
H713 C721 0.950 . S
H714 C719 0.950 . S
H715 C720 0.949 . S
H716 C722 0.950 . S
H717 C723 0.950 . S
H718 C724 0.949 . S
C719 H714 0.950 . S
C719 C721 1.327 . S
C719 C725 1.429 . S
C720 C712 1.574 . S
C720 H715 0.949 . S
C720 C726 1.368 . S
C721 C705 1.349 . S
C721 H713 0.950 . S
C721 C719 1.327 . S
C722 C710 1.349 . S
C722 H716 0.950 . S
C722 C723 1.327 . S
C723 H717 0.950 . S
C723 C722 1.327 . S
C723 C727 1.429 . S
C724 C707 1.574 . S
C724 H718 0.949 . S
C724 C728 1.368 . S
C725 C706 1.429 . S
C725 C719 1.429 . S
C725 C726 1.523 . S
C726 C707 1.368 . S
C726 C720 1.368 . S
C726 C725 1.523 . S
C727 C711 1.429 . S
C727 C723 1.429 . S
C727 C728 1.523 . S
C728 C712 1.368 . S
C728 C724 1.368 . S
C728 C727 1.523 . S
H729 C704 0.950 . S
H730 C706 0.950 . S
H731 C707 0.949 . S
H732 C709 0.950 . S
H733 C711 0.950 . S
C734 C735 1.349 . S
C734 C736 1.327 . S
C734 H759 0.950 . S
C735 C734 1.349 . S
C735 C751 1.349 . S
C736 C734 1.327 . S
C736 C755 1.429 . S
C736 H760 0.950 . S
C737 C754 1.574 . S
C737 C756 1.368 . S
C737 H761 0.949 . S
H738 C742 0.949 . S
C739 C740 1.349 . S
C739 C741 1.327 . S
C739 H762 0.950 . S
C740 C739 1.349 . S
C740 C752 1.349 . S
C741 C739 1.327 . S
C741 C757 1.429 . S
C741 H763 0.950 . S
C742 H738 0.949 . S
C742 C750 1.574 . S
C742 C758 1.368 . S
H743 C751 0.950 . S
H744 C749 0.950 . S
H745 C750 0.949 . S
H746 C752 0.950 . S
H747 C753 0.950 . S
H748 C754 0.949 . S
C749 H744 0.950 . S
C749 C751 1.327 . S
C749 C755 1.429 . S
C750 C742 1.574 . S
C750 H745 0.949 . S
C750 C756 1.368 . S
C751 C735 1.349 . S
C751 H743 0.950 . S
C751 C749 1.327 . S
C752 C740 1.349 . S
C752 H746 0.950 . S
C752 C753 1.327 . S
C753 H747 0.950 . S
C753 C752 1.327 . S
C753 C757 1.429 . S
C754 C737 1.574 . S
C754 H748 0.949 . S
C754 C758 1.368 . S
C755 C736 1.429 . S
C755 C749 1.429 . S
C755 C756 1.523 . S
C756 C737 1.368 . S
C756 C750 1.368 . S
C756 C755 1.523 . S
C757 C741 1.429 . S
C757 C753 1.429 . S
C757 C758 1.523 . S
C758 C742 1.368 . S
C758 C754 1.368 . S
C758 C757 1.523 . S
H759 C734 0.950 . S
H760 C736 0.950 . S
H761 C737 0.949 . S
H762 C739 0.950 . S
H763 C741 0.950 . S
C764 C765 1.324 1_455 S
C764 C766 1.327 . S
C764 H789 0.950 . S
C765 C764 1.324 1_655 S
C765 C781 1.370 . S
C766 C764 1.327 . S
C766 C785 1.429 . S
C766 H790 0.950 . S
C767 C784 1.574 . S
C767 C786 1.368 1_655 S
C767 H791 0.949 . S
H768 C772 0.949 . S
C769 C770 1.349 . S
C769 C771 1.327 . S
C769 H792 0.950 1_455 S
C770 C769 1.349 . S
C770 C782 1.349 . S
C771 C769 1.327 . S
C771 C787 1.429 . S
C771 H793 0.950 1_455 S
C772 H768 0.949 . S
C772 C780 1.574 . S
C772 C788 1.368 . S
H773 C781 0.950 . S
H774 C779 0.950 . S
H775 C780 0.949 . S
H776 C782 0.950 . S
H777 C783 0.950 . S
H778 C784 0.949 . S
C779 H774 0.950 . S
C779 C781 1.327 . S
C779 C785 1.429 1_655 S
C780 C772 1.574 . S
C780 H775 0.949 . S
C780 C786 1.368 . S
C781 C765 1.370 . S
C781 H773 0.950 . S
C781 C779 1.327 . S
C782 C770 1.349 . S
C782 H776 0.950 . S
C782 C783 1.327 . S
C783 H777 0.950 . S
C783 C782 1.327 . S
C783 C787 1.429 . S
C784 C767 1.574 . S
C784 H778 0.949 . S
C784 C788 1.368 1_655 S
C785 C766 1.429 . S
C785 C779 1.429 1_455 S
C785 C786 1.523 . S
C786 C767 1.368 1_455 S
C786 C780 1.368 . S
C786 C785 1.523 . S
C787 C771 1.429 . S
C787 C783 1.429 . S
C787 C788 1.523 . S
C788 C772 1.368 . S
C788 C784 1.368 1_455 S
C788 C787 1.523 . S
H789 C764 0.950 . S
H790 C766 0.950 . S
H791 C767 0.949 . S
H792 C769 0.950 1_655 S
H793 C771 0.950 1_655 S
C794 C795 1.349 . S
C794 C796 1.327 . S
C794 H819 0.950 . S
C795 C794 1.349 . S
C795 C811 1.349 . S
C796 C794 1.327 . S
C796 C815 1.429 . S
C796 H820 0.950 . S
C797 C814 1.574 . S
C797 C816 1.368 . S
C797 H821 0.949 . S
H798 C802 0.949 . S
C799 C800 1.349 1_565 S
C799 C801 1.327 . S
C799 H822 0.950 . S
C800 C799 1.349 1_545 S
C800 C812 1.349 . S
C801 C799 1.327 . S
C801 C817 1.429 . S
C801 H823 0.950 . S
C802 H798 0.949 . S
C802 C810 1.574 . S
C802 C818 1.368 . S
H803 C811 0.950 . S
H804 C809 0.950 . S
H805 C810 0.949 . S
H806 C812 0.950 . S
H807 C813 0.950 . S
H808 C814 0.949 . S
C809 H804 0.950 . S
C809 C811 1.327 . S
C809 C815 1.429 . S
C810 C802 1.574 . S
C810 H805 0.949 . S
C810 C816 1.368 . S
C811 C795 1.349 . S
C811 H803 0.950 . S
C811 C809 1.327 . S
C812 C800 1.349 . S
C812 H806 0.950 . S
C812 C813 1.327 1_545 S
C813 H807 0.950 . S
C813 C812 1.327 1_565 S
C813 C817 1.429 . S
C814 C797 1.574 . S
C814 H808 0.949 . S
C814 C818 1.368 . S
C815 C796 1.429 . S
C815 C809 1.429 . S
C815 C816 1.523 . S
C816 C797 1.368 . S
C816 C810 1.368 . S
C816 C815 1.523 . S
C817 C801 1.429 . S
C817 C813 1.429 . S
C817 C818 1.523 . S
C818 C802 1.368 . S
C818 C814 1.368 . S
C818 C817 1.523 . S
H819 C794 0.950 . S
H820 C796 0.950 . S
H821 C797 0.949 . S
H822 C799 0.950 . S
H823 C801 0.950 . S
C824 C825 1.349 . S
C824 C826 1.327 . S
C824 H849 0.950 . S
C825 C824 1.349 . S
C825 C841 1.349 . S
C826 C824 1.327 . S
C826 C845 1.429 . S
C826 H850 0.950 . S
C827 C844 1.574 . S
C827 C846 1.368 . S
C827 H851 0.949 . S
H828 C832 0.949 . S
C829 C830 1.349 . S
C829 C831 1.327 . S
C829 H852 0.950 . S
C830 C829 1.349 . S
C830 C842 1.349 . S
C831 C829 1.327 . S
C831 C847 1.429 . S
C831 H853 0.950 . S
C832 H828 0.949 . S
C832 C840 1.574 . S
C832 C848 1.368 . S
H833 C841 0.950 . S
H834 C839 0.950 . S
H835 C840 0.949 . S
H836 C842 0.950 . S
H837 C843 0.950 . S
H838 C844 0.949 . S
C839 H834 0.950 . S
C839 C841 1.327 . S
C839 C845 1.429 . S
C840 C832 1.574 . S
C840 H835 0.949 . S
C840 C846 1.368 . S
C841 C825 1.349 . S
C841 H833 0.950 . S
C841 C839 1.327 . S
C842 C830 1.349 . S
C842 H836 0.950 . S
C842 C843 1.327 . S
C843 H837 0.950 . S
C843 C842 1.327 . S
C843 C847 1.429 . S
C844 C827 1.574 . S
C844 H838 0.949 . S
C844 C848 1.368 . S
C845 C826 1.429 . S
C845 C839 1.429 . S
C845 C846 1.523 . S
C846 C827 1.368 . S
C846 C840 1.368 . S
C846 C845 1.523 . S
C847 C831 1.429 . S
C847 C843 1.429 . S
C847 C848 1.523 . S
C848 C832 1.368 . S
C848 C844 1.368 . S
C848 C847 1.523 . S
H849 C824 0.950 . S
H850 C826 0.950 . S
H851 C827 0.949 . S
H852 C829 0.950 . S
H853 C831 0.950 . S
C854 C855 1.349 . S
C854 C856 1.327 . S
C854 H879 0.950 . S
C855 C854 1.349 . S
C855 C871 1.349 . S
C856 C854 1.327 . S
C856 C875 1.429 . S
C856 H880 0.950 . S
C857 C874 1.574 . S
C857 C876 1.368 . S
C857 H881 0.949 . S
H858 C862 0.949 . S
C859 C860 1.349 . S
C859 C861 1.327 . S
C859 H882 0.950 . S
C860 C859 1.349 . S
C860 C872 1.349 . S
C861 C859 1.327 . S
C861 C877 1.429 . S
C861 H883 0.950 . S
C862 H858 0.949 . S
C862 C870 1.574 . S
C862 C878 1.368 . S
H863 C871 0.950 . S
H864 C869 0.950 . S
H865 C870 0.949 . S
H866 C872 0.950 . S
H867 C873 0.950 . S
H868 C874 0.949 . S
C869 H864 0.950 . S
C869 C871 1.327 . S
C869 C875 1.429 . S
C870 C862 1.574 . S
C870 H865 0.949 . S
C870 C876 1.368 . S
C871 C855 1.349 . S
C871 H863 0.950 . S
C871 C869 1.327 . S
C872 C860 1.349 . S
C872 H866 0.950 . S
C872 C873 1.327 . S
C873 H867 0.950 . S
C873 C872 1.327 . S
C873 C877 1.429 . S
C874 C857 1.574 . S
C874 H868 0.949 . S
C874 C878 1.368 . S
C875 C856 1.429 . S
C875 C869 1.429 . S
C875 C876 1.523 . S
C876 C857 1.368 . S
C876 C870 1.368 . S
C876 C875 1.523 . S
C877 C861 1.429 . S
C877 C873 1.429 . S
C877 C878 1.523 . S
C878 C862 1.368 . S
C878 C874 1.368 . S
C878 C877 1.523 . S
H879 C854 0.950 . S
H880 C856 0.950 . S
H881 C857 0.949 . S
H882 C859 0.950 . S
H883 C861 0.950 . S
C884 C885 1.376 1_556 S
C884 C886 1.327 . S
C884 H909 0.950 . S
C885 C884 1.376 1_554 S
C885 C901 1.324 1_455 S
C886 C884 1.327 . S
C886 C905 1.429 . S
C886 H910 0.950 . S
C887 C904 1.574 . S
C887 C906 1.368 1_655 S
C887 H911 0.968 . S
H888 C892 0.949 . S
C889 C890 1.349 1_655 S
C889 C891 1.327 . S
C889 H912 0.950 . S
C890 C889 1.349 1_455 S
C890 C902 1.349 . S
C891 C889 1.327 . S
C891 C907 1.429 1_655 S
C891 H913 0.950 . S
C892 H888 0.949 . S
C892 C900 1.574 . S
C892 C908 1.368 . S
H893 C901 0.950 . S
H894 C899 0.950 . S
H895 C900 0.949 . S
H896 C902 0.950 . S
H897 C903 0.950 . S
H898 C904 0.949 . S
C899 H894 0.950 . S
C899 C901 1.327 . S
C899 C905 1.429 1_654 S
C900 C892 1.574 . S
C900 H895 0.949 . S
C900 C906 1.368 . S
C901 C885 1.324 1_655 S
C901 H893 0.950 . S
C901 C899 1.327 . S
C902 C890 1.349 . S
C902 H896 0.950 . S
C902 C903 1.327 . S
C903 H897 0.950 . S
C903 C902 1.327 . S
C903 C907 1.429 . S
C904 C887 1.574 . S
C904 H898 0.949 . S
C904 C908 1.368 1_655 S
C905 C886 1.429 . S
C905 C899 1.429 1_456 S
C905 C906 1.523 . S
C906 C887 1.368 1_455 S
C906 C900 1.368 . S
C906 C905 1.523 . S
C907 C891 1.429 1_455 S
C907 C903 1.429 . S
C907 C908 1.523 . S
C908 C892 1.368 . S
C908 C904 1.368 1_455 S
C908 C907 1.523 . S
H909 C884 0.950 . S
H910 C886 0.950 . S
H911 C887 0.968 . S
H912 C889 0.950 . S
H913 C891 0.950 . S
C914 C915 1.349 1_556 S
C914 C916 1.327 . S
C914 H939 0.950 . S
C915 C914 1.349 1_554 S
C915 C931 1.349 . S
C916 C914 1.327 . S
C916 C935 1.429 . S
C916 H940 0.950 . S
C917 C934 1.574 . S
C917 C936 1.368 . S
C917 H941 0.949 1_556 S
H918 C922 0.949 . S
C919 C920 1.349 . S
C919 C921 1.327 . S
C919 H942 0.950 . S
C920 C919 1.349 . S
C920 C932 1.349 . S
C921 C919 1.327 . S
C921 C937 1.429 . S
C921 H943 0.950 . S
C922 H918 0.949 . S
C922 C930 1.574 . S
C922 C938 1.368 . S
H923 C931 0.950 . S
H924 C929 0.950 . S
H925 C930 0.949 . S
H926 C932 0.950 . S
H927 C933 0.950 . S
H928 C934 0.949 . S
C929 H924 0.950 . S
C929 C931 1.327 . S
C929 C935 1.429 1_554 S
C930 C922 1.574 . S
C930 H925 0.949 . S
C930 C936 1.368 . S
C931 C915 1.349 . S
C931 H923 0.950 . S
C931 C929 1.327 . S
C932 C920 1.349 . S
C932 H926 0.950 . S
C932 C933 1.327 . S
C933 H927 0.950 . S
C933 C932 1.327 . S
C933 C937 1.429 . S
C934 C917 1.574 . S
C934 H928 0.949 . S
C934 C938 1.368 . S
C935 C916 1.429 . S
C935 C929 1.429 1_556 S
C935 C936 1.523 . S
C936 C917 1.368 . S
C936 C930 1.368 . S
C936 C935 1.523 . S
C937 C921 1.429 . S
C937 C933 1.429 . S
C937 C938 1.523 . S
C938 C922 1.368 . S
C938 C934 1.368 . S
C938 C937 1.523 . S
H939 C914 0.950 . S
H940 C916 0.950 . S
H941 C917 0.949 1_554 S
H942 C919 0.950 . S
H943 C921 0.950 . S
C944 C945 1.349 . S
C944 C946 1.327 . S
C944 H969 0.950 . S
C945 C944 1.349 . S
C945 C961 1.349 1_554 S
C946 C944 1.327 . S
C946 C965 1.429 1_554 S
C946 H970 0.950 . S
C947 C964 1.574 . S
C947 C966 1.368 . S
C947 H971 0.949 . S
H948 C952 0.949 . S
C949 C950 1.349 . S
C949 C951 1.327 . S
C949 H972 0.950 . S
C950 C949 1.349 . S
C950 C962 1.349 . S
C951 C949 1.327 . S
C951 C967 1.429 . S
C951 H973 0.950 . S
C952 H948 0.949 . S
C952 C960 1.574 . S
C952 C968 1.368 . S
H953 C961 0.950 . S
H954 C959 0.950 . S
H955 C960 0.949 1_554 S
H956 C962 0.950 . S
H957 C963 0.950 . S
H958 C964 0.949 . S
C959 H954 0.950 . S
C959 C961 1.327 . S
C959 C965 1.429 . S
C960 C952 1.574 . S
C960 H955 0.949 1_556 S
C960 C966 1.368 . S
C961 C945 1.349 1_556 S
C961 H953 0.950 . S
C961 C959 1.327 . S
C962 C950 1.349 . S
C962 H956 0.950 . S
C962 C963 1.327 . S
C963 H957 0.950 . S
C963 C962 1.327 . S
C963 C967 1.429 . S
C964 C947 1.574 . S
C964 H958 0.949 . S
C964 C968 1.368 . S
C965 C946 1.429 1_556 S
C965 C959 1.429 . S
C965 C966 1.523 . S
C966 C947 1.368 . S
C966 C960 1.368 . S
C966 C965 1.523 . S
C967 C951 1.429 . S
C967 C963 1.429 . S
C967 C968 1.523 . S
C968 C952 1.368 . S
C968 C964 1.368 . S
C968 C967 1.523 . S
H969 C944 0.950 . S
H970 C946 0.950 . S
H971 C947 0.949 . S
H972 C949 0.950 . S
H973 C951 0.950 . S
C974 C975 1.349 . S
C974 C976 1.327 1_554 S
C974 H999 0.950 . S
C975 C974 1.349 . S
C975 C991 1.349 . S
C976 C974 1.327 1_556 S
C976 C995 1.429 . S
C976 H1000 0.950 . S
C977 C994 1.574 . S
C977 C996 1.368 . S
C977 H1001 0.949 . S
H978 C982 0.949 . S
C979 C980 1.349 . S
C979 C981 1.327 . S
C979 H1002 0.950 . S
C980 C979 1.349 . S
C980 C992 1.349 . S
C981 C979 1.327 . S
C981 C997 1.429 . S
C981 H1003 0.950 . S
C982 H978 0.949 . S
C982 C990 1.574 . S
C982 C998 1.368 . S
H983 C991 0.950 . S
H984 C989 0.950 . S
H985 C990 0.949 . S
H986 C992 0.950 . S
H987 C993 0.950 . S
H988 C994 0.949 . S
C989 H984 0.950 . S
C989 C991 1.327 . S
C989 C995 1.429 1_554 S
C990 C982 1.574 . S
C990 H985 0.949 . S
C990 C996 1.368 . S
C991 C975 1.349 . S
C991 H983 0.950 . S
C991 C989 1.327 . S
C992 C980 1.349 . S
C992 H986 0.950 . S
C992 C993 1.327 . S
C993 H987 0.950 . S
C993 C992 1.327 . S
C993 C997 1.429 . S
C994 C977 1.574 . S
C994 H988 0.949 . S
C994 C998 1.368 . S
C995 C976 1.429 . S
C995 C989 1.429 1_556 S
C995 C996 1.523 . S
C996 C977 1.368 . S
C996 C990 1.368 . S
C996 C995 1.523 . S
C997 C981 1.429 . S
C997 C993 1.429 . S
C997 C998 1.523 . S
C998 C982 1.368 . S
C998 C994 1.368 . S
C998 C997 1.523 . S
H999 C974 0.950 . S
H1000 C976 0.950 . S
H1001 C977 0.949 . S
H1002 C979 0.950 . S
H1003 C981 0.950 . S
C1004 C1005 1.375 . S
C1004 C1006 1.327 . S
C1004 H1029 0.950 . S
C1005 C1004 1.375 . S
C1005 C1021 1.324 1_655 S
C1006 C1004 1.327 . S
C1006 C1025 1.429 . S
C1006 H1030 0.950 . S
C1007 C1024 1.574 . S
C1007 C1026 1.368 1_455 S
C1007 H1031 0.949 . S
H1008 C1012 0.949 . S
C1009 C1010 1.349 1_455 S
C1009 C1011 1.327 . S
C1009 H1032 0.950 . S
C1010 C1009 1.349 1_655 S
C1010 C1022 1.349 . S
C1011 C1009 1.327 . S
C1011 C1027 1.429 1_455 S
C1011 H1033 0.950 . S
C1012 H1008 0.949 . S
C1012 C1020 1.574 . S
C1012 C1028 1.368 . S
H1013 C1021 0.950 . S
H1014 C1019 0.950 . S
H1015 C1020 0.949 . S
H1016 C1022 0.950 . S
H1017 C1023 0.950 . S
H1018 C1024 0.949 . S
C1019 H1014 0.950 . S
C1019 C1021 1.327 . S
C1019 C1025 1.429 1_455 S
C1020 C1012 1.574 . S
C1020 H1015 0.949 . S
C1020 C1026 1.368 . S
C1021 C1005 1.324 1_455 S
C1021 H1013 0.950 . S
C1021 C1019 1.327 . S
C1022 C1010 1.349 . S
C1022 H1016 0.950 . S
C1022 C1023 1.327 . S
C1023 H1017 0.950 . S
C1023 C1022 1.327 . S
C1023 C1027 1.429 . S
C1024 C1007 1.574 . S
C1024 H1018 0.949 . S
C1024 C1028 1.368 1_455 S
C1025 C1006 1.429 . S
C1025 C1019 1.429 1_655 S
C1025 C1026 1.523 . S
C1026 C1007 1.368 1_655 S
C1026 C1020 1.368 . S
C1026 C1025 1.523 . S
C1027 C1011 1.429 1_655 S
C1027 C1023 1.429 . S
C1027 C1028 1.523 . S
C1028 C1012 1.368 . S
C1028 C1024 1.368 1_655 S
C1028 C1027 1.523 . S
H1029 C1004 0.950 . S
H1030 C1006 0.950 . S
H1031 C1007 0.949 . S
H1032 C1009 0.950 . S
H1033 C1011 0.950 . S
C1034 C1035 1.349 . S
C1034 C1036 1.327 . S
C1034 H1059 0.950 . S
C1035 C1034 1.349 . S
C1035 C1051 1.349 . S
C1036 C1034 1.327 . S
C1036 C1055 1.429 . S
C1036 H1060 0.950 . S
C1037 C1054 1.574 . S
C1037 C1056 1.368 . S
C1037 H1061 0.949 . S
H1038 C1042 0.949 . S
C1039 C1040 1.349 . S
C1039 C1041 1.327 . S
C1039 H1062 0.950 . S
C1040 C1039 1.349 . S
C1040 C1052 1.349 . S
C1041 C1039 1.327 . S
C1041 C1057 1.429 . S
C1041 H1063 0.950 . S
C1042 H1038 0.949 . S
C1042 C1050 1.574 . S
C1042 C1058 1.368 . S
H1043 C1051 0.950 . S
H1044 C1049 0.950 . S
H1045 C1050 0.949 . S
H1046 C1052 0.950 . S
H1047 C1053 0.950 . S
H1048 C1054 0.949 . S
C1049 H1044 0.950 . S
C1049 C1051 1.327 . S
C1049 C1055 1.429 . S
C1050 C1042 1.574 . S
C1050 H1045 0.949 . S
C1050 C1056 1.368 . S
C1051 C1035 1.349 . S
C1051 H1043 0.950 . S
C1051 C1049 1.327 . S
C1052 C1040 1.349 . S
C1052 H1046 0.950 . S
C1052 C1053 1.327 . S
C1053 H1047 0.950 . S
C1053 C1052 1.327 . S
C1053 C1057 1.429 . S
C1054 C1037 1.574 . S
C1054 H1048 0.949 . S
C1054 C1058 1.368 . S
C1055 C1036 1.429 . S
C1055 C1049 1.429 . S
C1055 C1056 1.523 . S
C1056 C1037 1.368 . S
C1056 C1050 1.368 . S
C1056 C1055 1.523 . S
C1057 C1041 1.429 . S
C1057 C1053 1.429 . S
C1057 C1058 1.523 . S
C1058 C1042 1.368 . S
C1058 C1054 1.368 . S
C1058 C1057 1.523 . S
H1059 C1034 0.950 . S
H1060 C1036 0.950 . S
H1061 C1037 0.949 . S
H1062 C1039 0.950 . S
H1063 C1041 0.950 . S
C1064 C1065 1.349 . S
C1064 C1066 1.327 . S
C1064 H1089 0.950 . S
C1065 C1064 1.349 . S
C1065 C1081 1.349 . S
C1066 C1064 1.327 . S
C1066 C1085 1.429 . S
C1066 H1090 0.950 . S
C1067 C1084 1.574 . S
C1067 C1086 1.368 . S
C1067 H1091 0.949 . S
H1068 C1072 0.949 . S
C1069 C1070 1.349 . S
C1069 C1071 1.327 . S
C1069 H1092 0.950 . S
C1070 C1069 1.349 . S
C1070 C1082 1.349 . S
C1071 C1069 1.327 . S
C1071 C1087 1.429 . S
C1071 H1093 0.950 . S
C1072 H1068 0.949 . S
C1072 C1080 1.574 . S
C1072 C1088 1.368 . S
H1073 C1081 0.950 . S
H1074 C1079 0.950 . S
H1075 C1080 0.949 . S
H1076 C1082 0.950 . S
H1077 C1083 0.950 . S
H1078 C1084 0.949 . S
C1079 H1074 0.950 . S
C1079 C1081 1.327 . S
C1079 C1085 1.429 . S
C1080 C1072 1.574 . S
C1080 H1075 0.949 . S
C1080 C1086 1.368 . S
C1081 C1065 1.349 . S
C1081 H1073 0.950 . S
C1081 C1079 1.327 . S
C1082 C1070 1.349 . S
C1082 H1076 0.950 . S
C1082 C1083 1.327 . S
C1083 H1077 0.950 . S
C1083 C1082 1.327 . S
C1083 C1087 1.429 . S
C1084 C1067 1.574 . S
C1084 H1078 0.949 . S
C1084 C1088 1.368 . S
C1085 C1066 1.429 . S
C1085 C1079 1.429 . S
C1085 C1086 1.523 . S
C1086 C1067 1.368 . S
C1086 C1080 1.368 . S
C1086 C1085 1.523 . S
C1087 C1071 1.429 . S
C1087 C1083 1.429 . S
C1087 C1088 1.523 . S
C1088 C1072 1.368 . S
C1088 C1084 1.368 . S
C1088 C1087 1.523 . S
H1089 C1064 0.950 . S
H1090 C1066 0.950 . S
H1091 C1067 0.949 . S
H1092 C1069 0.950 . S
H1093 C1071 0.950 . S
C1094 C1095 1.349 . S
C1094 C1096 1.327 . S
C1094 H1119 0.950 . S
C1095 C1094 1.349 . S
C1095 C1111 1.349 . S
C1096 C1094 1.327 . S
C1096 C1115 1.429 . S
C1096 H1120 0.950 . S
C1097 C1114 1.574 . S
C1097 C1116 1.368 . S
C1097 H1121 0.949 . S
H1098 C1102 0.949 . S
C1099 C1100 1.349 . S
C1099 C1101 1.327 . S
C1099 H1122 0.950 . S
C1100 C1099 1.349 . S
C1100 C1112 1.349 . S
C1101 C1099 1.327 . S
C1101 C1117 1.429 . S
C1101 H1123 0.950 . S
C1102 H1098 0.949 . S
C1102 C1110 1.574 . S
C1102 C1118 1.368 . S
H1103 C1111 0.950 . S
H1104 C1109 0.950 . S
H1105 C1110 0.949 . S
H1106 C1112 0.950 . S
H1107 C1113 0.950 . S
H1108 C1114 0.949 . S
C1109 H1104 0.950 . S
C1109 C1111 1.327 . S
C1109 C1115 1.429 . S
C1110 C1102 1.574 . S
C1110 H1105 0.949 . S
C1110 C1116 1.368 . S
C1111 C1095 1.349 . S
C1111 H1103 0.950 . S
C1111 C1109 1.327 . S
C1112 C1100 1.349 . S
C1112 H1106 0.950 . S
C1112 C1113 1.327 . S
C1113 H1107 0.950 . S
C1113 C1112 1.327 . S
C1113 C1117 1.429 . S
C1114 C1097 1.574 . S
C1114 H1108 0.949 . S
C1114 C1118 1.368 . S
C1115 C1096 1.429 . S
C1115 C1109 1.429 . S
C1115 C1116 1.523 . S
C1116 C1097 1.368 . S
C1116 C1110 1.368 . S
C1116 C1115 1.523 . S
C1117 C1101 1.429 . S
C1117 C1113 1.429 . S
C1117 C1118 1.523 . S
C1118 C1102 1.368 . S
C1118 C1114 1.368 . S
C1118 C1117 1.523 . S
H1119 C1094 0.950 . S
H1120 C1096 0.950 . S
H1121 C1097 0.949 . S
H1122 C1099 0.950 . S
H1123 C1101 0.950 . S
C405 C255 1.982 . S
C410 C335 1.893 . S
C440 C359 1.314 . S
C435 C295 1.498 . S
C470 C380 1.868 . S
C465 C175 1.962 . S
C500 C398 1.338 . S
C495 C215 1.511 1_655 S
C530 C338 1.808 1_565 S
C525 C95 1.888 . S
C555 C135 1.409 . S
C560 C356 1.234 . S
C585 C15 1.863 . S
C590 C377 1.780 . S
C615 C55 1.419 . S
C620 C401 1.261 . S
C650 C336 0.538 . S
C645 C221 0.478 . S
C680 C354 0.470 . S
C675 C261 0.458 . S
C710 C375 0.527 . S
C705 C301 0.479 . S
C735 C181 0.458 . S
C740 C399 0.468 . S
C765 C61 0.402 1_655 S
C770 C334 0.365 . S
C800 C358 0.460 . S
C795 C101 0.633 . S
C830 C379 0.366 . S
C825 C141 0.388 . S
C855 C21 0.636 . S
C860 C397 0.445 . S
C885 C202 1.960 . S
C890 C337 1.944 . S
C915 C242 2.296 . S
C920 C355 2.255 . S
C950 C376 1.897 . S
C945 C282 1.922 . S
C980 C400 2.282 . S
C975 C162 2.320 . S
C1005 C42 1.811 1_655 S
C1010 C333 1.792 . S
C1040 C357 2.089 . S
C1035 C82 2.049 . S
C1070 C378 1.741 . S
C1065 C122 1.791 . S
C1095 C2 2.072 . S
C1100 C396 2.115 . S
