# Generated by pormake.
# Topology dag, (6,3)-cn, num edge types: 1
# Building blocks:
#     Node 0, Type 0, BuildingBlock: OJICUG_clean_sbu_0, # of connection points: 6
#     Node 1, Type 0, BuildingBlock: OJICUG_clean_sbu_0, # of connection points: 6
#     Node 2, Type 0, BuildingBlock: OJICUG_clean_sbu_0, # of connection points: 6
#     Node 3, Type 0, BuildingBlock: OJICUG_clean_sbu_0, # of connection points: 6
#     Node 4, Type 1, BuildingBlock: OLANEW_clean_sbu_2, # of connection points: 3
#     Node 5, Type 1, BuildingBlock: OLANEW_clean_sbu_2, # of connection points: 3
#     Node 6, Type 1, BuildingBlock: OLANEW_clean_sbu_2, # of connection points: 3
#     Node 7, Type 1, BuildingBlock: OLANEW_clean_sbu_2, # of connection points: 3
#     Node 8, Type 1, BuildingBlock: OLANEW_clean_sbu_2, # of connection points: 3
#     Node 9, Type 1, BuildingBlock: OLANEW_clean_sbu_2, # of connection points: 3
#     Node 10, Type 1, BuildingBlock: OLANEW_clean_sbu_2, # of connection points: 3
#     Node 11, Type 1, BuildingBlock: OLANEW_clean_sbu_2, # of connection points: 3
#     Edge 12, Type (0, 1), BuildingBlock: MIFKUJ_clean_linker_0, # of connection points: 2
#     Edge 13, Type (0, 1), BuildingBlock: MIFKUJ_clean_linker_0, # of connection points: 2
#     Edge 14, Type (0, 1), BuildingBlock: MIFKUJ_clean_linker_0, # of connection points: 2
#     Edge 15, Type (0, 1), BuildingBlock: MIFKUJ_clean_linker_0, # of connection points: 2
#     Edge 16, Type (0, 1), BuildingBlock: MIFKUJ_clean_linker_0, # of connection points: 2
#     Edge 17, Type (0, 1), BuildingBlock: MIFKUJ_clean_linker_0, # of connection points: 2
#     Edge 18, Type (0, 1), BuildingBlock: MIFKUJ_clean_linker_0, # of connection points: 2
#     Edge 19, Type (0, 1), BuildingBlock: MIFKUJ_clean_linker_0, # of connection points: 2
#     Edge 20, Type (0, 1), BuildingBlock: MIFKUJ_clean_linker_0, # of connection points: 2
#     Edge 21, Type (0, 1), BuildingBlock: MIFKUJ_clean_linker_0, # of connection points: 2
#     Edge 22, Type (0, 1), BuildingBlock: MIFKUJ_clean_linker_0, # of connection points: 2
#     Edge 23, Type (0, 1), BuildingBlock: MIFKUJ_clean_linker_0, # of connection points: 2
#     Edge 24, Type (0, 1), BuildingBlock: MIFKUJ_clean_linker_0, # of connection points: 2
#     Edge 25, Type (0, 1), BuildingBlock: MIFKUJ_clean_linker_0, # of connection points: 2
#     Edge 26, Type (0, 1), BuildingBlock: MIFKUJ_clean_linker_0, # of connection points: 2
#     Edge 27, Type (0, 1), BuildingBlock: MIFKUJ_clean_linker_0, # of connection points: 2
#     Edge 28, Type (0, 1), BuildingBlock: MIFKUJ_clean_linker_0, # of connection points: 2
#     Edge 29, Type (0, 1), BuildingBlock: MIFKUJ_clean_linker_0, # of connection points: 2
#     Edge 30, Type (0, 1), BuildingBlock: MIFKUJ_clean_linker_0, # of connection points: 2
#     Edge 31, Type (0, 1), BuildingBlock: MIFKUJ_clean_linker_0, # of connection points: 2
#     Edge 32, Type (0, 1), BuildingBlock: MIFKUJ_clean_linker_0, # of connection points: 2
#     Edge 33, Type (0, 1), BuildingBlock: MIFKUJ_clean_linker_0, # of connection points: 2
#     Edge 34, Type (0, 1), BuildingBlock: MIFKUJ_clean_linker_0, # of connection points: 2
#     Edge 35, Type (0, 1), BuildingBlock: MIFKUJ_clean_linker_0, # of connection points: 2
# Relax obj value: 0.128
# Max RMSD: 0.155
# Mean RMSD: 0.117
data_MOF--net-dag--node1-OJICUG_clean_sbu_0--node2-OLANEW_clean_sbu_2--edge1-MIFKUJ_clean_linker_0
_symmetry_space_group_name_H-M    P1
_symmetry_Int_Tables_number       1
_symmetry_cell_setting            triclinic
loop_
_symmetry_equiv_pos_as_xyz
'x, y, z'
_cell_length_a     52.963883
_cell_length_b     49.319043
_cell_length_c     52.49838
_cell_angle_alpha  92.395852
_cell_angle_beta   94.040755
_cell_angle_gamma 91.505805
loop_
_atom_site_label
_atom_site_type_symbol
_atom_site_fract_x
_atom_site_fract_y
_atom_site_fract_z
_atom_type_partial_charge
Sc0 Sc 0.09683 0.90546 0.01478 0.0
Sc1 Sc 0.11739 0.83821 0.00678 0.0
Sc2 Sc 0.16155 0.89125 0.02529 0.0
O3 O 0.12521 0.87833 0.01564 0.0
C4 C 0.14131 0.94133 0.99371 0.0
C5 C 0.08163 0.86727 0.96502 0.0
C6 C 0.16795 0.84956 0.97842 0.0
C7 C 0.07005 0.85386 0.03807 0.0
C8 C 0.13062 0.92359 0.06612 0.0
C9 C 0.15983 0.83419 0.05234 0.0
O10 O 0.11793 0.93562 -0.00472 0.0
O11 O 0.09348 0.84703 0.97346 0.0
O12 O 0.17509 0.87084 0.99186 0.0
O13 O 0.07186 0.87912 0.03423 0.0
O14 O 0.15071 0.91285 0.05903 0.0
O15 O 0.14048 0.82448 0.039 0.0
O16 O 0.10991 0.92307 0.0521 0.0
O17 O 0.08529 0.83674 0.02964 0.0
O18 O 0.1696 0.85742 0.04892 0.0
O19 O 0.08128 0.88998 0.9775 0.0
O20 O 0.15874 0.92727 0.0038 0.0
O21 O 0.14831 0.83544 0.98247 0.0
Sc22 Sc 0.68776 0.58688 0.48341 0.0
Sc23 Sc 0.65071 0.64469 0.47399 0.0
Sc24 Sc 0.62228 0.58278 0.49006 0.0
O25 O 0.65361 0.60485 0.48247 0.0
C26 C 0.65067 0.54029 0.45606 0.0
C27 C 0.69093 0.62372 0.43523 0.0
C28 C 0.60057 0.61906 0.4445 0.0
C29 C 0.70244 0.64584 0.50906 0.0
C30 C 0.66378 0.56108 0.53098 0.0
C31 C 0.61312 0.63907 0.51896 0.0
O32 O 0.67267 0.55061 0.46222 0.0
O33 O 0.67495 0.6407 0.44258 0.0
O34 O 0.59913 0.59931 0.45922 0.0
O35 O 0.70674 0.62092 0.50445 0.0
O36 O 0.64103 0.56332 0.52206 0.0
O37 O 0.62585 0.65333 0.5044 0.0
O38 O 0.68266 0.56948 0.51961 0.0
O39 O 0.68272 0.65726 0.49994 0.0
O40 O 0.61107 0.61336 0.51664 0.0
O41 O 0.69684 0.60295 0.44764 0.0
O42 O 0.63067 0.55023 0.46407 0.0
O43 O 0.6187 0.63661 0.44678 0.0
Sc44 Sc 0.86736 0.17384 0.02824 0.0
Sc45 Sc 0.82045 0.12553 0.00269 0.0
Sc46 Sc 0.88492 0.1095 0.00602 0.0
O47 O 0.8575 0.13634 0.01229 0.0
C48 C 0.91203 0.1644 0.99139 0.0
C49 C 0.82442 0.18693 0.98507 0.0
C50 C 0.84787 0.09912 0.95587 0.0
C51 C 0.81645 0.15992 0.05496 0.0
C52 C 0.90354 0.13587 0.06102 0.0
C53 C 0.84169 0.07116 0.02595 0.0
O54 O 0.8989 0.17988 0.00481 0.0
O55 O 0.81353 0.16349 0.98411 0.0
O56 O 0.86956 0.09916 0.96785 0.0
O57 O 0.83718 0.17318 0.05365 0.0
O58 O 0.9031 0.11704 0.04368 0.0
O59 O 0.8234 0.08664 0.02046 0.0
O60 O 0.89159 0.15772 0.05833 0.0
O61 O 0.8082 0.14194 0.03819 0.0
O62 O 0.86435 0.07694 0.02134 0.0
O63 O 0.84398 0.19319 -0.00018 0.0
O64 O 0.90875 0.13882 0.98997 0.0
O65 O 0.82819 0.10739 0.96599 0.0
Sc66 Sc 0.35502 0.39944 0.53306 0.0
Sc67 Sc 0.29338 0.37812 0.54646 0.0
Sc68 Sc 0.3449 0.33434 0.55539 0.0
O69 O 0.33104 0.37066 0.54499 0.0
C70 C 0.37831 0.34636 0.50871 0.0
C71 C 0.30659 0.40431 0.49407 0.0
C72 C 0.29338 0.31655 0.52353 0.0
C73 C 0.31851 0.43567 0.56565 0.0
C74 C 0.38691 0.37623 0.58099 0.0
C75 C 0.3038 0.34454 0.59635 0.0
O76 O 0.37406 0.37155 0.50905 0.0
O77 O 0.29068 0.39491 0.50879 0.0
O78 O 0.31617 0.31245 0.53139 0.0
O79 O 0.33902 0.43147 0.55514 0.0
O80 O 0.37477 0.35355 0.58041 0.0
O81 O 0.29182 0.36268 0.5844 0.0
O82 O 0.38219 0.39435 0.56488 0.0
O83 O 0.3003 0.41819 0.56458 0.0
O84 O 0.3224 0.33245 0.58759 0.0
O85 O 0.33019 0.40679 0.50026 0.0
O86 O 0.36954 0.33055 0.52458 0.0
O87 O 0.28235 0.33871 0.5283 0.0
O88 O 0.16129 0.00745 0.34525 0.0
Cd89 Cd 0.16289 0.01978 0.39099 0.0
O90 O 0.12546 0.02844 0.3405 0.0
Cd91 Cd 0.09339 0.04453 0.31807 0.0
O92 O 0.06411 0.05511 0.28931 0.0
C93 C 0.05741 0.0795 0.2872 0.0
O94 O 0.06812 0.09851 0.30297 0.0
C95 C 0.14248 0.01436 0.33085 0.0
C96 C 0.18089 0.07263 0.40405 0.0
O97 O 0.19604 0.05286 0.40268 0.0
O98 O 0.1572 0.06751 0.3988 0.0
O99 O 0.26915 0.71676 0.67211 0.0
Cd100 Cd 0.2702 0.76541 0.68365 0.0
O101 O 0.31013 0.72346 0.67266 0.0
Cd102 Cd 0.34926 0.71173 0.66941 0.0
O103 O 0.38795 0.70379 0.66042 0.0
C104 C 0.39855 0.72012 0.64611 0.0
O105 O 0.3859 0.74095 0.63779 0.0
C106 C 0.29086 0.70751 0.66866 0.0
C107 C 0.25544 0.77855 0.73241 0.0
O108 O 0.23976 0.7795 0.71274 0.0
O109 O 0.27798 0.77098 0.72907 0.0
O110 O 0.88055 0.68499 0.15522 0.0
Cd111 Cd 0.84657 0.65225 0.16253 0.0
O112 O 0.85635 0.71913 0.16372 0.0
Cd113 Cd 0.84776 0.76193 0.16101 0.0
O114 O 0.84566 0.80336 0.14858 0.0
C115 C 0.82475 0.81282 0.14021 0.0
O116 O 0.80403 0.79752 0.1399 0.0
C117 C 0.87726 0.71041 0.15672 0.0
C118 C 0.82581 0.65629 0.20985 0.0
O119 O 0.84445 0.64086 0.20622 0.0
O120 O 0.81748 0.67046 0.1913 0.0
O121 O 0.72817 0.48227 0.80046 0.0
Cd122 Cd 0.72896 0.47711 0.84656 0.0
O123 O 0.68887 0.4673 0.79959 0.0
Cd124 Cd 0.65061 0.45898 0.78212 0.0
O125 O 0.61329 0.44918 0.76329 0.0
C126 C 0.61176 0.43683 0.74149 0.0
O127 O 0.63268 0.4304 0.73096 0.0
C128 C 0.70737 0.4761 0.78776 0.0
C129 C 0.74176 0.42548 0.86182 0.0
O130 O 0.71877 0.43078 0.85496 0.0
O131 O 0.75866 0.44446 0.86106 0.0
O132 O 0.59742 0.34024 0.24302 0.0
Cd133 Cd 0.58731 0.31306 0.20374 0.0
O134 O 0.60372 0.30339 0.26437 0.0
Cd135 Cd 0.60577 0.28387 0.30091 0.0
O136 O 0.58112 0.27941 0.332 0.0
C137 C 0.56222 0.2947 0.32977 0.0
O138 O 0.5604 0.31075 0.3104 0.0
C139 C 0.60307 0.32912 0.26397 0.0
C140 C 0.62805 0.28189 0.19154 0.0
O141 O 0.62641 0.30654 0.18492 0.0
O142 O 0.61028 0.27185 0.20394 0.0
O143 O 0.27491 0.18147 0.89937 0.0
Cd144 Cd 0.2912 0.22822 0.89695 0.0
O145 O 0.23942 0.19744 0.88349 0.0
Cd146 Cd 0.19848 0.19803 0.87685 0.0
O147 O 0.15823 0.19978 0.88168 0.0
C148 C 0.14968 0.22041 0.89315 0.0
O149 O 0.16532 0.24068 0.9009 0.0
C150 C 0.25147 0.17781 0.89288 0.0
C151 C 0.29045 0.24936 0.84849 0.0
O152 O 0.31103 0.24102 0.85944 0.0
O153 O 0.27007 0.24713 0.8601 0.0
O154 O 0.35783 0.65025 0.29155 0.0
Cd155 Cd 0.31233 0.64367 0.2797 0.0
O156 O 0.36957 0.61728 0.26587 0.0
Cd157 Cd 0.33071 0.60186 0.25724 0.0
O158 O 0.30823 0.56824 0.27065 0.0
C159 C 0.29057 0.57163 0.28556 0.0
O160 O 0.28346 0.59639 0.29104 0.0
C161 C 0.37532 0.63663 0.2822 0.0
C162 C 0.29168 0.6761 0.24148 0.0
O163 O 0.29458 0.68495 0.26484 0.0
O164 O 0.29913 0.65216 0.23604 0.0
O165 O 0.97395 0.83158 0.69094 0.0
Cd166 Cd 0.95352 0.83853 0.64845 0.0
O167 O 0.93916 0.84775 0.70469 0.0
Cd168 Cd 0.91587 0.86698 0.73249 0.0
O169 O 0.89508 0.89576 0.75493 0.0
C170 C 0.90255 0.92048 0.75543 0.0
O171 O 0.92213 0.92715 0.74273 0.0
C172 C 0.9614 0.83932 0.70953 0.0
C173 C 0.91384 0.80263 0.631 0.0
O174 O 0.93616 0.79974 0.62347 0.0
O175 O 0.91041 0.82197 0.64734 0.0
H176 H 0.17222 0.93574 0.09881 0.0
H177 H 0.1733 0.95282 0.14311 0.0
H178 H 0.09182 0.95629 0.13774 0.0
H179 H 0.09053 0.93962 0.09306 0.0
H180 H 0.11283 -0.00014 0.16435 0.0
H181 H 0.12099 0.90377 0.16602 0.0
H182 H 0.13897 0.85968 0.15452 0.0
H183 H 0.21153 0.88702 0.18918 0.0
H184 H 0.19406 0.93146 0.20059 0.0
H185 H 0.09986 0.00164 0.29946 0.0
H186 H 0.09737 0.98892 0.25385 0.0
H187 H 0.17887 0.9927 0.25486 0.0
H188 H 0.18143 0.00665 0.30036 0.0
H189 H 0.1569 0.94555 0.23044 0.0
H190 H 0.14545 0.04195 0.23127 0.0
H191 H 0.12517 0.08488 0.24224 0.0
H192 H 0.05584 0.05569 0.20184 0.0
H193 H 0.07526 0.01213 0.19168 0.0
C194 C 0.15449 0.94027 0.10692 0.0
C195 C 0.13125 0.93608 0.09238 0.0
C196 C 0.15515 0.94997 0.13232 0.0
C197 C 0.13262 0.95534 0.14389 0.0
C198 C 0.10944 0.95216 0.12921 0.0
C199 C 0.10874 0.94261 0.10368 0.0
C200 C 0.13333 0.96353 0.17148 0.0
C201 C 0.12213 0.98783 0.17887 0.0
C202 C 0.14578 0.94793 0.19035 0.0
C203 C 0.15626 0.92105 0.18396 0.0
C204 C 0.14082 0.90045 0.17107 0.0
C205 C 0.15091 0.87539 0.16457 0.0
C206 C 0.17639 0.87058 0.17105 0.0
C207 C 0.1918 0.89079 0.18414 0.0
C208 C 0.18181 0.91591 0.19066 0.0
C209 C 0.11721 0.00078 0.28982 0.0
C210 C 0.1408 0.00625 0.30329 0.0
C211 C 0.11577 0.99306 0.26381 0.0
C212 C 0.13792 0.99027 0.25089 0.0
C213 C 0.16154 0.99493 0.26445 0.0
C214 C 0.16297 0.0029 0.29041 0.0
C215 C 0.13649 0.98199 0.22333 0.0
C216 C 0.14754 0.9576 0.21595 0.0
C217 C 0.12353 -0.00268 0.20456 0.0
C218 C 0.11175 0.02351 0.21104 0.0
C219 C 0.12574 0.04446 0.22512 0.0
C220 C 0.11437 0.06894 0.23122 0.0
C221 C 0.08915 0.07293 0.22297 0.0
C222 C 0.07527 0.0525 0.20851 0.0
C223 C 0.08643 0.02786 0.20264 0.0
H224 H 0.08039 0.09188 0.22771 0.0
H225 H 0.18418 0.85117 0.16599 0.0
H226 H 0.59243 0.68939 0.51773 0.0
H227 H 0.56051 0.70691 0.5452 0.0
H228 H 0.56801 0.63654 0.59104 0.0
H229 H 0.59931 0.6187 0.56335 0.0
H230 H 0.52073 0.64211 0.57538 0.0
H231 H 0.58641 0.70163 0.61467 0.0
H232 H 0.62136 0.7358 0.61607 0.0
H233 H 0.57119 0.79309 0.58174 0.0
H234 H 0.53599 0.75913 0.57981 0.0
H235 H 0.4306 0.68029 0.66128 0.0
H236 H 0.47172 0.67022 0.64533 0.0
H237 H 0.46534 0.73781 0.59591 0.0
H238 H 0.42452 0.74846 0.61223 0.0
H239 H 0.51336 0.73396 0.61591 0.0
H240 H 0.44909 0.67339 0.57348 0.0
H241 H 0.41392 0.63943 0.57182 0.0
H242 H 0.462 0.58406 0.61178 0.0
H243 H 0.49738 0.61786 0.61398 0.0
C244 C 0.58774 0.67806 0.53408 0.0
C245 C 0.59814 0.65256 0.53825 0.0
C246 C 0.56952 0.68808 0.54979 0.0
C247 C 0.56178 0.67298 0.57016 0.0
C248 C 0.57351 0.64844 0.57534 0.0
C249 C 0.59142 0.63829 0.55951 0.0
C250 C 0.53961 0.681 0.58423 0.0
C251 C 0.5194 0.66204 0.58468 0.0
C252 C 0.53748 0.70724 0.59571 0.0
C253 C 0.5586 0.72774 0.59689 0.0
C254 C 0.58287 0.72144 0.60723 0.0
C255 C 0.60272 0.74079 0.60815 0.0
C256 C 0.59851 0.76658 0.59895 0.0
C257 C 0.57442 0.7731 0.58885 0.0
C258 C 0.55451 0.75382 0.58786 0.0
C259 C 0.43805 0.69318 0.64721 0.0
C260 C 0.42417 0.71501 0.63782 0.0
C261 C 0.46154 0.68738 0.63808 0.0
C262 C 0.47141 0.70303 0.61914 0.0
C263 C 0.45807 0.72547 0.6105 0.0
C264 C 0.43467 0.73142 0.61976 0.0
C265 C 0.49475 0.695 0.60712 0.0
C266 C 0.51498 0.71395 0.60687 0.0
C267 C 0.49696 0.66874 0.59573 0.0
C268 C 0.47581 0.64825 0.59409 0.0
C269 C 0.45212 0.65403 0.58203 0.0
C270 C 0.43216 0.6348 0.58097 0.0
C271 C 0.43572 0.60961 0.59169 0.0
C272 C 0.45927 0.60358 0.60347 0.0
C273 C 0.47929 0.62275 0.60462 0.0
H274 H 0.42023 0.59476 0.59089 0.0
H275 H 0.61391 0.78153 0.59968 0.0
H276 H 0.796 0.04615 0.03453 0.0
H277 H 0.78952 0.00236 0.05408 0.0
H278 H 0.8704 0.99433 0.06535 0.0
H279 H 0.87706 0.03738 0.04581 0.0
H280 H 0.84889 0.94866 0.04511 0.0
H281 H 0.83529 0.01166 0.11479 0.0
H282 H 0.81523 0.05015 0.13612 0.0
H283 H 0.74289 0.00832 0.12531 0.0
H284 H 0.76247 0.96972 0.10355 0.0
H285 H 0.86482 0.84726 0.13402 0.0
H286 H 0.86397 0.89148 0.11488 0.0
H287 H 0.7826 0.88453 0.10314 0.0
H288 H 0.78319 0.84023 0.12259 0.0
H289 H 0.80009 0.93643 0.12132 0.0
H290 H 0.81673 0.87143 0.0536 0.0
H291 H 0.83931 0.83344 0.03445 0.0
H292 H 0.90918 0.88006 0.04436 0.0
H293 H 0.88703 0.9183 0.06373 0.0
C294 C 0.81237 0.03506 0.04125 0.0
C295 C 0.83703 0.04524 0.0384 0.0
C296 C 0.80864 0.0101 0.05246 0.0
C297 C 0.82951 0.99509 0.06114 0.0
C298 C 0.85404 0.00543 0.05859 0.0
C299 C 0.85777 0.03015 0.0474 0.0
C300 C 0.82621 0.96835 0.07254 0.0
C301 C 0.83832 0.94605 0.06186 0.0
C302 C 0.81208 0.96483 0.09412 0.0
C303 C 0.80028 0.98795 0.10726 0.0
C304 C 0.81506 0.01077 0.11676 0.0
C305 C 0.8038 0.03258 0.12897 0.0
C306 C 0.77779 0.03171 0.132 0.0
C307 C 0.76302 0.00898 0.1229 0.0
C308 C 0.77419 0.98713 0.11063 0.0
C309 C 0.84669 0.85518 0.12757 0.0
C310 C 0.82406 0.84017 0.12973 0.0
C311 C 0.84626 0.88042 0.11655 0.0
C312 C 0.82324 0.89109 0.10734 0.0
C313 C 0.80054 0.87658 0.11011 0.0
C314 C 0.80095 0.85125 0.12112 0.0
C315 C 0.82312 0.917 0.0941 0.0
C316 C 0.81037 0.93904 0.10438 0.0
C317 C 0.83698 0.92046 0.07234 0.0
C318 C 0.85024 0.89768 0.06022 0.0
C319 C 0.83693 0.87355 0.05178 0.0
C320 C 0.84964 0.85198 0.04086 0.0
C321 C 0.87567 0.85433 0.03821 0.0
C322 C 0.88902 0.87829 0.0464 0.0
C323 C 0.87638 0.89994 0.05728 0.0
H324 H 0.8855 0.8376 0.0298 0.0
H325 H 0.7691 0.04861 0.14146 0.0
H326 H 0.39878 0.34718 0.62349 0.0
H327 H 0.43341 0.35658 0.65629 0.0
H328 H 0.45681 0.42673 0.61645 0.0
H329 H 0.42208 0.41793 0.58406 0.0
H330 H 0.48265 0.35725 0.65319 0.0
H331 H 0.482 0.47566 0.65692 0.0
H332 H 0.45083 0.51182 0.65311 0.0
H333 H 0.3928 0.45737 0.67587 0.0
H334 H 0.42368 0.42101 0.68019 0.0
H335 H 0.60228 0.41353 0.69362 0.0
H336 H 0.56121 0.40192 0.67137 0.0
H337 H 0.52371 0.43204 0.73675 0.0
H338 H 0.56484 0.44437 0.75896 0.0
H339 H 0.50053 0.4486 0.69481 0.0
H340 H 0.52753 0.36344 0.72361 0.0
H341 H 0.55664 0.32583 0.73059 0.0
H342 H 0.55787 0.31116 0.6495 0.0
H343 H 0.52905 0.34895 0.64201 0.0
C344 C 0.41123 0.36469 0.62178 0.0
C345 C 0.40761 0.38183 0.60114 0.0
C346 C 0.43101 0.37002 0.64055 0.0
C347 C 0.4475 0.39256 0.63901 0.0
C348 C 0.44399 0.40957 0.61837 0.0
C349 C 0.42416 0.4044 0.59975 0.0
C350 C 0.46913 0.39781 0.65823 0.0
C351 C 0.48647 0.37717 0.66244 0.0
C352 C 0.47379 0.42359 0.67082 0.0
C353 C 0.45516 0.44554 0.6687 0.0
C354 C 0.46263 0.47144 0.66127 0.0
C355 C 0.44499 0.49197 0.65898 0.0
C356 C 0.41984 0.48687 0.66418 0.0
C357 C 0.41228 0.46127 0.67177 0.0
C358 C 0.42984 0.44068 0.67411 0.0
C359 C 0.58532 0.41759 0.70334 0.0
C360 C 0.58682 0.4297 0.72813 0.0
C361 C 0.56184 0.41083 0.69063 0.0
C362 C 0.53939 0.41566 0.70257 0.0
C363 C 0.5408 0.42801 0.72722 0.0
C364 C 0.56431 0.43498 0.7399 0.0
C365 C 0.51449 0.40834 0.68897 0.0
C366 C 0.49655 0.42859 0.68583 0.0
C367 C 0.50897 0.382 0.67788 0.0
C368 C 0.52625 0.35916 0.68226 0.0
C369 C 0.53414 0.35232 0.70726 0.0
C370 C 0.55057 0.33094 0.71131 0.0
C371 C 0.55913 0.31614 0.6905 0.0
C372 C 0.55123 0.32265 0.6656 0.0
C373 C 0.53482 0.34402 0.66144 0.0
H374 H 0.57185 0.2996 0.69367 0.0
H375 H 0.40621 0.50278 0.66236 0.0
H376 H 0.68788 0.50707 0.43991 0.0
H377 H 0.68247 0.46688 0.41079 0.0
H378 H 0.6019 0.47872 0.40302 0.0
H379 H 0.60698 0.51823 0.43235 0.0
H380 H 0.61058 0.42717 0.40865 0.0
H381 H 0.64192 0.49751 0.3569 0.0
H382 H 0.67224 0.53314 0.34571 0.0
H383 H 0.73064 0.47456 0.34259 0.0
H384 H 0.70072 0.43863 0.35411 0.0
H385 H 0.57812 0.37402 0.2783 0.0
H386 H 0.58842 0.40458 0.31589 0.0
H387 H 0.65026 0.35413 0.3396 0.0
H388 H 0.63955 0.32298 0.30239 0.0
H389 H 0.65537 0.42023 0.3289 0.0
H390 H 0.62128 0.34916 0.37853 0.0
H391 H 0.59021 0.31546 0.3919 0.0
H392 H 0.53523 0.37737 0.39802 0.0
H393 H 0.56587 0.41142 0.38433 0.0
C394 C 0.66902 0.50107 0.43201 0.0
C395 C 0.64788 0.5159 0.43851 0.0
C396 C 0.66596 0.47814 0.41533 0.0
C397 C 0.64178 0.46989 0.40459 0.0
C398 C 0.62072 0.48459 0.41116 0.0
C399 C 0.6237 0.50728 0.42793 0.0
C400 C 0.63812 0.44614 0.38627 0.0
C401 C 0.62033 0.42573 0.39117 0.0
C402 C 0.65122 0.44393 0.36372 0.0
C403 C 0.66918 0.46546 0.35666 0.0
C404 C 0.66128 0.49227 0.35402 0.0
C405 C 0.67838 0.51251 0.34759 0.0
C406 C 0.70337 0.50614 0.34352 0.0
C407 C 0.71129 0.47948 0.3458 0.0
C408 C 0.69427 0.45917 0.35226 0.0
C409 C 0.59364 0.36925 0.29178 0.0
C410 C 0.60796 0.34612 0.28764 0.0
C411 C 0.59943 0.3866 0.31321 0.0
C412 C 0.61993 0.38138 0.3305 0.0
C413 C 0.63417 0.3582 0.32657 0.0
C414 C 0.628 0.34046 0.30542 0.0
C415 C 0.62764 0.40165 0.35123 0.0
C416 C 0.64601 0.42151 0.34663 0.0
C417 C 0.61487 0.40355 0.3739 0.0
C418 C 0.5958 0.38277 0.38013 0.0
C419 C 0.60242 0.3555 0.38222 0.0
C420 C 0.58495 0.33638 0.39006 0.0
C421 C 0.56084 0.34434 0.39596 0.0
C422 C 0.55396 0.37129 0.39355 0.0
C423 C 0.57136 0.3905 0.38575 0.0
H424 H 0.54754 0.32966 0.40254 0.0
H425 H 0.71659 0.52184 0.33855 0.0
H426 H 0.93422 0.21561 -0.00249 0.0
H427 H 0.97273 0.23166 0.97868 0.0
H428 H 0.97557 0.15539 0.93584 0.0
H429 H 0.93748 0.13925 0.95435 0.0
H430 H 0.01944 0.16841 0.96543 0.0
H431 H 0.96084 0.21138 0.9059 0.0
H432 H 0.92617 0.2418 0.89392 0.0
H433 H 0.96946 0.30994 0.92907 0.0
H434 H 0.00427 0.27983 0.9416 0.0
H435 H 0.11334 0.18084 0.88135 0.0
H436 H 0.07099 0.17805 0.89663 0.0
H437 H 0.08325 0.25644 0.93571 0.0
H438 H 0.12584 0.25957 0.92034 0.0
H439 H 0.03303 0.24741 0.91194 0.0
H440 H 0.0912 0.20591 0.97138 0.0
H441 H 0.12611 0.17637 0.98468 0.0
H442 H 0.0839 0.1067 0.95114 0.0
H443 H 0.04867 0.1359 0.93766 0.0
C444 C 0.94282 0.20248 0.98374 0.0
C445 C 0.93301 0.176 0.97774 0.0
C446 C 0.96477 0.21169 0.973 0.0
C447 C 0.97703 0.19459 0.95605 0.0
C448 C 0.96649 0.16878 0.94906 0.0
C449 C 0.9447 0.1596 0.95972 0.0
C450 C 0.00199 0.20223 0.94716 0.0
C451 C 0.02232 0.18556 0.95356 0.0
C452 C 0.00592 0.22521 0.93252 0.0
C453 C 0.98503 0.2433 0.92496 0.0
C454 C 0.96287 0.2328 0.9113 0.0
C455 C 0.94321 0.25 0.90436 0.0
C456 C 0.94557 0.27777 0.9108 0.0
C457 C 0.96764 0.28841 0.92414 0.0
C458 C 0.98734 0.2713 0.93115 0.0
C459 C 0.10698 0.19769 0.89291 0.0
C460 C 0.12307 0.22028 0.89991 0.0
C461 C 0.08277 0.19605 0.90161 0.0
C462 C 0.07421 0.21689 0.91754 0.0
C463 C 0.08961 0.24016 0.92345 0.0
C464 C 0.11394 0.24183 0.91474 0.0
C465 C 0.05007 0.21303 0.92957 0.0
C466 C 0.03007 0.23042 0.92397 0.0
C467 C 0.04636 0.19082 0.94518 0.0
C468 C 0.06739 0.17311 0.95335 0.0
C469 C 0.08943 0.18431 0.96671 0.0
C470 C 0.10926 0.16762 0.97431 0.0
C471 C 0.1073 0.13968 0.96864 0.0
C472 C 0.08541 0.12835 0.95549 0.0
C473 C 0.06546 0.14495 0.94794 0.0
H474 H 0.12268 0.12679 0.97452 0.0
H475 H 0.93034 0.29105 0.90541 0.0
H476 H 0.26264 0.43008 0.4809 0.0
H477 H 0.25242 0.45299 0.44102 0.0
H478 H 0.32022 0.42233 0.41049 0.0
H479 H 0.33091 0.40051 0.45049 0.0
H480 H 0.31995 0.47371 0.40656 0.0
H481 H 0.25849 0.40182 0.38642 0.0
H482 H 0.22219 0.37139 0.39339 0.0
H483 H 0.17409 0.43988 0.39828 0.0
H484 H 0.21021 0.47079 0.39169 0.0
H485 H 0.30685 0.51952 0.28366 0.0
H486 H 0.30104 0.48532 0.31513 0.0
H487 H 0.2501 0.53726 0.35339 0.0
H488 H 0.25594 0.57192 0.32205 0.0
H489 H 0.23932 0.47525 0.35248 0.0
H490 H 0.30347 0.5465 0.37577 0.0
H491 H 0.34022 0.57544 0.36686 0.0
H492 H 0.38393 0.50459 0.35444 0.0
H493 H 0.34724 0.47521 0.36285 0.0
C494 C 0.275 0.4278 0.46541 0.0
C495 C 0.29768 0.41382 0.46881 0.0
C496 C 0.26913 0.44081 0.4426 0.0
C497 C 0.28559 0.43948 0.42271 0.0
C498 C 0.30734 0.4239 0.4256 0.0
C499 C 0.31343 0.41141 0.44845 0.0
C500 C 0.28199 0.45661 0.40017 0.0
C501 C 0.30238 0.4736 0.3946 0.0
C502 C 0.25888 0.45717 0.38484 0.0
C503 C 0.23713 0.43865 0.38883 0.0
C504 C 0.24023 0.41043 0.38921 0.0
C505 C 0.21967 0.39308 0.39304 0.0
C506 C 0.19586 0.4037 0.39634 0.0
C507 C 0.19255 0.43169 0.39575 0.0
C508 C 0.21306 0.44913 0.39195 0.0
C509 C 0.29384 0.52347 0.29831 0.0
C510 C 0.28226 0.54871 0.30065 0.0
C511 C 0.29048 0.50381 0.31622 0.0
C512 C 0.27534 0.50894 0.33665 0.0
C513 C 0.2618 0.53296 0.33767 0.0
C514 C 0.2653 0.55279 0.31983 0.0
C515 C 0.27739 0.49162 0.35898 0.0
C516 C 0.25679 0.47498 0.36455 0.0
C517 C 0.30037 0.49104 0.3743 0.0
C518 C 0.32255 0.50868 0.36965 0.0
C519 C 0.32085 0.5371 0.37092 0.0
C520 C 0.34168 0.55358 0.366 0.0
C521 C 0.36438 0.54186 0.36002 0.0
C522 C 0.36632 0.51364 0.35903 0.0
C523 C 0.34553 0.49707 0.36388 0.0
H524 H 0.38048 0.55465 0.35621 0.0
H525 H 0.17997 0.39024 0.3993 0.0
H526 H 0.06805 0.82001 0.93785 0.0
H527 H 0.04706 0.81452 0.89501 0.0
H528 H 0.04411 0.90154 0.89056 0.0
H529 H 0.06446 0.90722 0.93385 0.0
H530 H 0.00101 0.87874 0.87174 0.0
H531 H 0.0895 0.86159 0.86121 0.0
H532 H 0.12937 0.8379 0.87052 0.0
H533 H 0.09287 0.76197 0.84469 0.0
H534 H 0.05269 0.78507 0.83566 0.0
H535 H 0.01061 0.85179 0.72463 0.0
H536 H 0.03015 0.85639 0.76827 0.0
H537 H 0.95902 0.8326 0.79741 0.0
H538 H 0.93921 0.82932 0.75382 0.0
H539 H 0.03955 0.82405 0.80398 0.0
H540 H 0.95262 0.85446 0.85308 0.0
H541 H 0.91266 0.87836 0.84531 0.0
H542 H 0.94844 0.93079 0.79441 0.0
H543 H 0.98837 0.90649 0.80123 0.0
C544 C 0.06293 0.83803 0.92781 0.0
C545 C 0.06808 0.86409 0.93928 0.0
C546 C 0.05101 0.83483 0.90322 0.0
C547 C 0.04444 0.85761 0.8893 0.0
C548 C 0.0491 0.88365 0.90087 0.0
C549 C 0.06074 0.88687 0.92563 0.0
C550 C 0.0326 0.85433 0.86274 0.0
C551 C 0.00954 0.86685 0.85693 0.0
C552 C 0.04357 0.83872 0.84332 0.0
C553 C 0.06799 0.82503 0.84803 0.0
C554 C 0.08994 0.83982 0.85765 0.0
C555 C 0.11258 0.82649 0.86292 0.0
C556 C 0.11356 0.79842 0.85841 0.0
C557 C 0.09202 0.78368 0.84833 0.0
C558 C 0.06932 0.79688 0.84312 0.0
C559 C -0.00084 0.84765 0.7404 0.0
C560 C 0.9733 0.84066 0.73591 0.0
C561 C 0.01033 0.85025 0.76535 0.0
C562 C 0.996 0.84548 0.78635 0.0
C563 C 0.97034 0.83743 0.78174 0.0
C564 C 0.95902 0.83541 0.75679 0.0
C565 C 0.00809 0.84874 0.81289 0.0
C566 C 0.03113 0.83608 0.81875 0.0
C567 C -0.00275 0.86433 0.83235 0.0
C568 C 0.97335 0.87871 0.82764 0.0
C569 C 0.95188 0.87106 0.84019 0.0
C570 C 0.92924 0.88457 0.83586 0.0
C571 C 0.92803 0.90617 0.81948 0.0
C572 C 0.94936 0.914 0.80704 0.0
C573 C 0.97196 0.90023 0.81096 0.0
H574 H 0.91058 0.91686 0.81656 0.0
H575 H 0.13102 0.78807 0.86259 0.0
H576 H 0.88349 0.0993 0.92107 0.0
H577 H 0.8823 0.07319 0.8804 0.0
H578 H 0.80623 0.04473 0.89105 0.0
H579 H 0.80709 0.07136 0.93168 0.0
H580 H 0.84298 0.0037 0.88549 0.0
H581 H 0.81231 0.08045 0.84227 0.0
H582 H 0.81107 0.12859 0.83152 0.0
H583 H 0.88545 0.12403 0.80424 0.0
H584 H 0.88732 0.07596 0.81518 0.0
H585 H 0.8574 0.91608 0.77747 0.0
H586 H 0.839 0.94945 0.80598 0.0
H587 H 0.90269 0.00433 0.7988 0.0
H588 H 0.92064 0.97154 0.76961 0.0
H589 H 0.86199 0.03234 0.79926 0.0
H590 H 0.89895 0.96582 0.85591 0.0
H591 H 0.90616 0.92045 0.8726 0.0
H592 H 0.82609 0.90751 0.87679 0.0
H593 H 0.81852 0.95331 0.86099 0.0
C594 C 0.86629 0.088 0.91445 0.0
C595 C 0.84545 0.08716 0.92957 0.0
C596 C 0.86557 0.07325 0.89115 0.0
C597 C 0.84414 0.05715 0.88274 0.0
C598 C 0.82284 0.05723 0.8972 0.0
C599 C 0.82336 0.07244 0.92033 0.0
C600 C 0.84575 0.03742 0.86099 0.0
C601 C 0.84635 0.00986 0.86638 0.0
C602 C 0.85104 0.04567 0.83642 0.0
C603 C 0.84999 0.07458 0.82968 0.0
C604 C 0.82849 0.08974 0.83416 0.0
C605 C 0.82766 0.11703 0.82799 0.0
C606 C 0.84818 0.12937 0.81723 0.0
C607 C 0.86956 0.11444 0.81257 0.0
C608 C 0.87049 0.08715 0.81871 0.0
C609 C 0.86734 0.93537 0.78181 0.0
C610 C 0.89053 0.94114 0.7714 0.0
C611 C 0.85689 0.95437 0.79822 0.0
C612 C 0.86965 0.97926 0.80489 0.0
C613 C 0.89244 0.98531 0.79392 0.0
C614 C 0.90273 0.9665 0.77726 0.0
C615 C 0.85992 -0.00135 0.824 0.0
C616 C 0.85786 0.0261 0.81813 0.0
C617 C 0.8539 0.9905 0.84842 0.0
C618 C 0.85817 0.9627 0.85696 0.0
C619 C 0.88289 0.95318 0.86023 0.0
C620 C 0.88705 0.92746 0.86962 0.0
C621 C 0.86658 0.91093 0.87541 0.0
C622 C 0.84192 0.92027 0.87216 0.0
C623 C 0.83769 0.94617 0.86318 0.0
H624 H 0.86985 0.89096 0.88257 0.0
H625 H 0.84751 0.1505 0.81248 0.0
H626 H 0.40488 0.29949 0.51025 0.0
H627 H 0.43473 0.28324 0.47982 0.0
H628 H 0.41894 0.35182 0.43352 0.0
H629 H 0.38933 0.36835 0.46385 0.0
H630 H 0.42058 0.30119 0.40536 0.0
H631 H 0.46919 0.35546 0.47217 0.0
H632 H 0.48443 0.36691 0.51689 0.0
H633 H 0.51642 0.28813 0.52294 0.0
H634 H 0.50103 0.27608 0.47831 0.0
H635 H 0.52149 0.32704 0.3307 0.0
H636 H 0.48879 0.32752 0.36098 0.0
H637 H 0.5247 0.26234 0.40067 0.0
H638 H 0.55801 0.26201 0.37046 0.0
H639 H 0.51207 0.30212 0.43349 0.0
H640 H 0.46938 0.24991 0.365 0.0
H641 H 0.45421 0.23772 0.32042 0.0
H642 H 0.41083 0.31 0.31749 0.0
H643 H 0.42602 0.32285 0.36195 0.0
C644 C 0.40757 0.31096 0.49345 0.0
C645 C 0.39488 0.33531 0.48952 0.0
C646 C 0.42466 0.30168 0.47616 0.0
C647 C 0.42907 0.31644 0.45456 0.0
C648 C 0.41575 0.34017 0.45011 0.0
C649 C 0.39895 0.34965 0.46752 0.0
C650 C 0.44836 0.30802 0.43705 0.0
C651 C 0.4406 0.30142 0.41142 0.0
C652 C 0.47434 0.30746 0.44528 0.0
C653 C 0.48367 0.31475 0.47204 0.0
C654 C 0.47926 0.34049 0.48311 0.0
C655 C 0.48797 0.34711 0.50843 0.0
C656 C 0.50131 0.32822 0.52278 0.0
C657 C 0.50604 0.30271 0.51182 0.0
C658 C 0.49733 0.29598 0.48652 0.0
C659 C 0.52241 0.31262 0.34572 0.0
C660 C 0.54231 0.29441 0.34812 0.0
C661 C 0.50357 0.31281 0.36294 0.0
C662 C 0.50404 0.29462 0.3828 0.0
C663 C 0.5239 0.27639 0.38534 0.0
C664 C 0.54288 0.27624 0.36809 0.0
C665 C 0.48438 0.29591 0.40152 0.0
C666 C 0.49204 0.30124 0.42742 0.0
C667 C 0.45826 0.29507 0.39356 0.0
C668 C 0.44898 0.28742 0.3668 0.0
C669 C 0.45675 0.26332 0.3548 0.0
C670 C 0.44812 0.25627 0.32955 0.0
C671 C 0.4316 0.27309 0.31612 0.0
C672 C 0.42363 0.29698 0.32793 0.0
C673 C 0.43221 0.30414 0.35317 0.0
H674 H 0.42494 0.2676 0.29657 0.0
H675 H 0.50804 0.33338 0.54237 0.0
H676 H 0.11529 0.96687 0.95469 0.0
H677 H 0.12911 0.00767 0.93332 0.0
H678 H 0.19785 0.01258 0.9826 0.0
H679 H 0.18466 0.97176 0.00342 0.0
H680 H 0.16778 0.06358 0.9768 0.0
H681 H 0.20508 0.98878 0.92926 0.0
H682 H 0.20191 0.94594 0.90311 0.0
H683 H 0.15304 0.98309 0.84673 0.0
H684 H 0.15562 0.02606 0.87279 0.0
H685 H 0.26254 0.14637 0.93317 0.0
H686 H 0.23858 0.10686 0.94613 0.0
H687 H 0.18623 0.11218 0.87992 0.0
H688 H 0.21041 0.15173 0.86665 0.0
H689 H 0.19975 0.05823 0.89013 0.0
H690 H 0.16697 0.13429 0.93228 0.0
H691 H 0.1679 0.1778 0.95714 0.0
H692 H 0.20305 0.13997 0.02222 0.0
H693 H 0.203 0.09633 -0.0025 0.0
C694 C 0.13333 0.97669 0.96092 0.0
C695 C 0.14894 0.96602 0.98065 0.0
C696 C 0.14119 -8e-05 0.94871 0.0
C697 C 0.16447 0.01308 0.95646 0.0
C698 C 0.17981 0.00272 0.97639 0.0
C699 C 0.17228 0.97929 0.98816 0.0
C700 C 0.17336 0.03756 0.94387 0.0
C701 C 0.17482 0.06246 0.95788 0.0
C702 C 0.18162 0.03621 0.91883 0.0
C703 C 0.18026 0.01049 0.90312 0.0
C704 C 0.19345 0.98772 0.91142 0.0
C705 C 0.19181 0.96344 0.89659 0.0
C706 C 0.17721 0.96177 0.87331 0.0
C707 C 0.16429 0.9844 0.86479 0.0
C708 C 0.16584 0.00872 0.87957 0.0
C709 C 0.24607 0.139 0.92122 0.0
C710 C 0.23805 0.15249 0.89917 0.0
C711 C 0.23232 0.1165 0.92871 0.0
C712 C 0.21039 0.10684 0.9142 0.0
C713 C 0.20296 0.11946 0.89151 0.0
C714 C 0.21662 0.14221 0.88411 0.0
C715 C 0.19507 0.0841 0.92347 0.0
C716 C 0.19233 0.05955 0.90886 0.0
C717 C 0.18518 0.08587 0.94783 0.0
C718 C 0.18521 0.11205 0.96292 0.0
C719 C 0.17519 0.13529 0.95179 0.0
C720 C 0.17556 0.15999 0.96587 0.0
C721 C 0.18557 0.16167 0.99124 0.0
C722 C 0.1953 0.13864 0.00256 0.0
C723 C 0.19513 0.1139 0.98851 0.0
H724 H 0.18573 0.18079 0.00214 0.0
H725 H 0.17596 0.94295 0.86185 0.0
H726 H 0.55388 0.59356 0.43985 0.0
H727 H 0.5196 0.59925 0.40723 0.0
H728 H 0.56622 0.65639 0.37008 0.0
H729 H 0.60044 0.65147 0.40323 0.0
H730 H 0.52115 0.67479 0.37053 0.0
H731 H 0.55397 0.59027 0.3452 0.0
H732 H 0.56924 0.54387 0.35026 0.0
H733 H 0.49571 0.51726 0.3704 0.0
H734 H 0.48008 0.5636 0.36585 0.0
H735 H 0.41802 0.61492 0.26404 0.0
H736 H 0.46054 0.61571 0.28552 0.0
H737 H 0.43487 0.66652 0.34688 0.0
H738 H 0.39274 0.66663 0.3251 0.0
H739 H 0.47473 0.59503 0.32743 0.0
H740 H 0.48163 0.7027 0.37877 0.0
H741 H 0.46974 0.74951 0.36965 0.0
H742 H 0.46987 0.73064 0.28908 0.0
H743 H 0.4821 0.68383 0.2977 0.0
C744 C 0.55695 0.60725 0.4247 0.0
C745 C 0.58 0.62199 0.42416 0.0
C746 C 0.53732 0.6104 0.40594 0.0
C747 C 0.5404 0.62792 0.38589 0.0
C748 C 0.56337 0.64272 0.38531 0.0
C749 C 0.58295 0.63983 0.40426 0.0
C750 C 0.51938 0.63116 0.36595 0.0
C751 C 0.51108 0.65736 0.361 0.0
C752 C 0.50669 0.6085 0.35282 0.0
C753 C 0.5159 0.58049 0.35535 0.0
C754 C 0.54109 0.57457 0.35086 0.0
C755 C 0.54981 0.54826 0.35362 0.0
C756 C 0.53347 0.52764 0.36069 0.0
C757 C 0.50835 0.53326 0.36494 0.0
C758 C 0.49954 0.55954 0.36224 0.0
C759 C 0.4216 0.6268 0.2818 0.0
C760 C 0.40193 0.6407 0.29284 0.0
C761 C 0.44591 0.62712 0.29415 0.0
C762 C 0.45107 0.64121 0.31785 0.0
C763 C 0.43166 0.65592 0.3284 0.0
C764 C 0.40745 0.65589 0.31592 0.0
C765 C 0.47592 0.63866 0.33262 0.0
C766 C 0.48495 0.61253 0.33667 0.0
C767 C 0.48974 0.66144 0.34424 0.0
C768 C 0.4826 0.68967 0.3389 0.0
C769 C 0.47925 0.70856 0.35911 0.0
C770 C 0.47242 0.7351 0.35403 0.0
C771 C 0.46899 0.74302 0.3288 0.0
C772 C 0.47245 0.72445 0.30861 0.0
C773 C 0.47929 0.6979 0.31358 0.0
H774 H 0.46369 0.76357 0.32491 0.0
H775 H 0.54026 0.50729 0.36283 0.0
H776 H 0.28287 0.45078 0.59879 0.0
H777 H 0.27815 0.49565 0.61939 0.0
H778 H 0.34251 0.52628 0.58222 0.0
H779 H 0.34788 0.48153 0.5624 0.0
H780 H 0.34521 0.54643 0.6282 0.0
H781 H 0.27924 0.53768 0.5606 0.0
H782 H 0.24198 0.51644 0.53597 0.0
H783 H 0.19864 0.52425 0.60187 0.0
H784 H 0.23577 0.54523 0.62699 0.0
H785 H 0.32399 0.68754 0.63564 0.0
H786 H 0.32858 0.64038 0.62111 0.0
H787 H 0.26747 0.61584 0.66607 0.0
H788 H 0.26279 0.66327 0.68064 0.0
H789 H 0.2627 0.5917 0.61931 0.0
H790 H 0.3306 0.60456 0.68543 0.0
H791 H 0.36819 0.62872 0.70673 0.0
H792 H 0.40869 0.6158 0.63949 0.0
H793 H 0.37126 0.59177 0.61764 0.0
C794 C 0.29605 0.46706 0.59508 0.0
C795 C 0.31568 0.46252 0.57884 0.0
C796 C 0.29328 0.49276 0.6068 0.0
C797 C 0.30975 0.51455 0.60209 0.0
C798 C 0.32958 0.50987 0.58623 0.0
C799 C 0.33256 0.4842 0.57482 0.0
C800 C 0.30626 0.54236 0.61321 0.0
C801 C 0.32719 0.55636 0.62607 0.0
C802 C 0.28271 0.55533 0.6108 0.0
C803 C 0.26036 0.54273 0.59575 0.0
C804 C 0.26182 0.53467 0.56989 0.0
C805 C 0.24072 0.52271 0.55583 0.0
C806 C 0.21798 0.51892 0.56737 0.0
C807 C 0.21628 0.52715 0.59297 0.0
C808 C 0.23734 0.53909 0.60713 0.0
C809 C 0.31196 0.67203 0.64294 0.0
C810 C 0.29356 0.67893 0.6599 0.0
C811 C 0.31447 0.64508 0.63448 0.0
C812 C 0.29876 0.62444 0.64296 0.0
C813 C 0.27995 0.63139 0.65945 0.0
C814 C 0.27731 0.65843 0.66778 0.0
C815 C 0.30164 0.59573 0.63411 0.0
C816 C 0.28062 0.58161 0.62167 0.0
C817 C 0.32522 0.58285 0.63649 0.0
C818 C 0.34805 0.59651 0.64986 0.0
C819 C 0.3475 0.60693 0.67516 0.0
C820 C 0.36878 0.6206 0.68732 0.0
C821 C 0.39079 0.62383 0.67444 0.0
C822 C 0.39162 0.61326 0.64941 0.0
C823 C 0.37039 0.59957 0.63715 0.0
H824 H 0.40722 0.6345 0.68385 0.0
H825 H 0.20166 0.50966 0.55645 0.0
H826 H 0.0451 0.88077 0.07514 0.0
H827 H 0.01015 0.86293 0.09868 0.0
H828 H 0.01176 0.78658 0.05585 0.0
H829 H 0.04696 0.80384 0.03286 0.0
H830 H 0.96047 0.81351 0.06101 0.0
H831 H 0.03802 0.78463 0.10866 0.0
H832 H 0.07921 0.79492 0.13249 0.0
H833 H 0.04307 0.84669 0.18584 0.0
H834 H 0.0017 0.83698 0.16206 0.0
H835 H 0.90514 0.7026 0.11589 0.0
H836 H 0.93539 0.73443 0.09913 0.0
H837 H 0.92357 0.7924 0.16063 0.0
H838 H 0.89301 0.76051 0.17747 0.0
H839 H 0.97641 0.78458 0.15005 0.0
H840 H 0.89911 0.80977 0.10925 0.0
H841 H 0.85682 0.80311 0.0868 0.0
H842 H 0.88982 0.7648 0.02265 0.0
H843 H 0.93235 0.77092 0.04487 0.0
C844 C 0.03794 0.8602 0.07075 0.0
C845 C 0.04883 0.84364 0.05225 0.0
C846 C 0.01803 0.85009 0.08418 0.0
C847 C 0.00841 0.82351 0.07887 0.0
C848 C 0.01892 0.80718 0.06011 0.0
C849 C 0.03912 0.81701 0.04713 0.0
C850 C 0.98784 0.81212 0.09322 0.0
C851 C 0.9639 0.80716 0.08046 0.0
C852 C 0.9921 0.80495 0.11893 0.0
C853 C 0.01686 0.81036 0.13342 0.0
C854 C 0.03891 0.79839 0.12534 0.0
C855 C 0.06227 0.80408 0.13886 0.0
C856 C 0.06377 0.82153 0.16062 0.0
C857 C 0.04189 0.83322 0.16896 0.0
C858 C 0.01848 0.82762 0.15548 0.0
C859 C 0.90908 0.72207 0.12591 0.0
C860 C 0.89651 0.72928 0.14775 0.0
C861 C 0.92624 0.74027 0.11627 0.0
C862 C 0.93147 0.76585 0.1285 0.0
C863 C 0.91962 0.77281 0.15084 0.0
C864 C 0.90209 0.75471 0.1603 0.0
C865 C 0.9493 0.78501 0.11749 0.0
C866 C 0.97273 0.79143 0.13081 0.0
C867 C 0.94438 0.79416 0.0925 0.0
C868 C 0.91891 0.79055 0.07885 0.0
C869 C 0.89735 0.79969 0.09045 0.0
C870 C 0.87333 0.79603 0.07777 0.0
C871 C 0.87062 0.78336 0.05338 0.0
C872 C 0.89195 0.77451 0.04158 0.0
C873 C 0.91603 0.77812 0.05419 0.0
H874 H 0.85201 0.78057 0.04357 0.0
H875 H 0.08188 0.82594 0.17104 0.0
H876 H 0.70262 0.57343 0.56658 0.0
H877 H 0.70997 0.55497 0.60871 0.0
H878 H 0.64376 0.50214 0.59396 0.0
H879 H 0.63548 0.52194 0.55227 0.0
H880 H 0.64372 0.51989 0.63927 0.0
H881 H 0.70807 0.47947 0.59345 0.0
H882 H 0.74373 0.47709 0.56576 0.0
H883 H 0.78963 0.52773 0.62026 0.0
H884 H 0.75413 0.53072 0.64814 0.0
H885 H 0.67907 0.44611 0.7506 0.0
H886 H 0.67149 0.4564 0.70542 0.0
H887 H 0.72314 0.52557 0.71702 0.0
H888 H 0.73016 0.5158 0.7623 0.0
H889 H 0.72949 0.4942 0.67219 0.0
H890 H 0.66089 0.53321 0.7173 0.0
H891 H 0.62436 0.53083 0.74384 0.0
H892 H 0.58507 0.476 0.68796 0.0
H893 H 0.62171 0.47729 0.66148 0.0
C894 C 0.68971 0.55776 0.57227 0.0
C895 C 0.66857 0.54899 0.5561 0.0
C896 C 0.69403 0.54705 0.59633 0.0
C897 C 0.67781 0.5266 0.60443 0.0
C898 C 0.65664 0.5178 0.58822 0.0
C899 C 0.65193 0.52907 0.56437 0.0
C900 C 0.68249 0.51522 0.63015 0.0
C901 C 0.6624 0.51378 0.64621 0.0
C902 C 0.70687 0.50729 0.63945 0.0
C903 C 0.72835 0.50547 0.6228 0.0
C904 C 0.72571 0.49024 0.59946 0.0
C905 C 0.74591 0.48877 0.58374 0.0
C906 C 0.76891 0.50229 0.59122 0.0
C907 C 0.77179 0.51727 0.61448 0.0
C908 C 0.75165 0.51883 0.63027 0.0
C909 C 0.68832 0.46383 0.7436 0.0
C910 C 0.70441 0.48075 0.76011 0.0
C911 C 0.68425 0.46947 0.71777 0.0
C912 C 0.69639 0.49203 0.70803 0.0
C913 C 0.71346 0.50816 0.72421 0.0
C914 C 0.71745 0.50257 0.75004 0.0
C915 C 0.69087 0.49939 0.68116 0.0
C916 C 0.7108 0.50003 0.66497 0.0
C917 C 0.66622 0.50582 0.67153 0.0
C918 C 0.6442 0.5051 0.68754 0.0
C919 C 0.6446 0.52037 0.71081 0.0
C920 C 0.62387 0.5192 0.72585 0.0
C921 C 0.60246 0.50316 0.71765 0.0
C922 C 0.60172 0.48829 0.69436 0.0
C923 C 0.62249 0.48918 0.67936 0.0
H924 H 0.58642 0.50229 0.72931 0.0
H925 H 0.78452 0.50113 0.57902 0.0
H926 H 0.92469 0.08908 0.07725 0.0
H927 H 0.94812 0.08196 0.11796 0.0
H928 H 0.93895 0.16577 0.14137 0.0
H929 H 0.91542 0.17324 0.10054 0.0
H930 H 0.9885 0.14781 0.15028 0.0
H931 H 0.90377 0.11918 0.16624 0.0
H932 H 0.86348 0.09336 0.15659 0.0
H933 H 0.90274 0.01845 0.161 0.0
H934 H 0.94333 0.04383 0.17031 0.0
H935 H 0.03974 0.12968 0.2763 0.0
H936 H 0.0108 0.1413 0.24034 0.0
H937 H 0.00453 0.05694 0.21474 0.0
H938 H 0.03276 0.04508 0.25103 0.0
H939 H 0.96039 0.0782 0.2086 0.0
H940 H 0.04424 0.10405 0.18669 0.0
H941 H 0.0861 0.12751 0.19273 0.0
H942 H 0.05035 0.20457 0.1966 0.0
H943 H 0.00827 0.18153 0.19068 0.0
C944 C 0.92766 0.10608 0.09097 0.0
C945 C 0.91814 0.13176 0.0856 0.0
C946 C 0.94094 0.1019 0.1143 0.0
C947 C 0.94499 0.12326 0.13273 0.0
C948 C 0.93589 0.14901 0.12738 0.0
C949 C 0.92242 0.1532 0.10407 0.0
C950 C 0.95915 0.11866 0.15739 0.0
C951 C 0.98216 0.13298 0.16332 0.0
C952 C 0.95111 0.09875 0.17393 0.0
C953 C 0.92663 0.08343 0.16881 0.0
C954 C 0.90384 0.09721 0.16501 0.0
C955 C 0.88094 0.08265 0.15961 0.0
C956 C 0.88056 0.05429 0.15814 0.0
C957 C 0.90307 0.04042 0.16214 0.0
C958 C 0.92602 0.05489 0.16752 0.0
C959 C 0.03204 0.11357 0.26313 0.0
C960 C 0.03874 0.08648 0.26639 0.0
C961 C 0.01561 0.12027 0.24248 0.0
C962 C 0.00587 0.10007 0.22453 0.0
C963 C 0.01183 0.0729 0.2283 0.0
C964 C 0.02806 0.06616 0.24903 0.0
C965 C 0.98999 0.10716 0.20145 0.0
C966 C 0.96664 0.09329 0.19577 0.0
C967 C -0.0021 0.12717 0.18488 0.0
C968 C 0.02314 0.14106 0.18856 0.0
C969 C 0.04532 0.12598 0.18904 0.0
C970 C 0.06907 0.1392 0.19239 0.0
C971 C 0.07087 0.1675 0.19518 0.0
C972 C 0.04892 0.18265 0.1945 0.0
C973 C 0.02512 0.16953 0.1911 0.0
H974 H 0.08928 0.17769 0.19779 0.0
H975 H 0.86283 0.04304 0.15394 0.0
H976 H 0.18632 0.85248 0.0964 0.0
H977 H 0.20792 0.82561 0.12885 0.0
H978 H 0.18318 0.75197 0.08592 0.0
H979 H 0.16047 0.77883 0.054 0.0
H980 H 0.18056 0.7436 0.1334 0.0
H981 H 0.24562 0.78119 0.08555 0.0
H982 H 0.26971 0.81731 0.06591 0.0
H983 H 0.28857 0.85581 0.13992 0.0
H984 H 0.26433 0.82009 0.15999 0.0
H985 H 0.27301 0.65935 0.19333 0.0
H986 H 0.25025 0.68623 0.16143 0.0
H987 H 0.25943 0.75706 0.21256 0.0
H988 H 0.28192 0.73027 0.24472 0.0
H989 H 0.27047 0.76621 0.16093 0.0
H990 H 0.20485 0.7261 0.2079 0.0
H991 H 0.18179 0.6881 0.22585 0.0
H992 H 0.16561 0.65177 0.15051 0.0
H993 H 0.18891 0.68938 0.13214 0.0
C994 C 0.18544 0.83054 0.09392 0.0
C995 C 0.17191 0.81775 0.07252 0.0
C996 C 0.19792 0.81518 0.11243 0.0
C997 C 0.1978 0.78671 0.10958 0.0
C998 C 0.18371 0.77388 0.08854 0.0
C999 C 0.17075 0.78924 0.07028 0.0
C1000 C 0.21251 0.77036 0.12839 0.0
C1001 C 0.20031 0.74838 0.1391 0.0
C1002 C 0.23825 0.77667 0.13622 0.0
C1003 C 0.25298 0.79809 0.12424 0.0
C1004 C 0.25478 0.79745 0.09762 0.0
C1005 C 0.26848 0.81784 0.08641 0.0
C1006 C 0.28062 0.83887 0.10165 0.0
C1007 C 0.27914 0.83952 0.12814 0.0
C1008 C 0.26545 0.81919 0.13944 0.0
C1009 C 0.27032 0.68069 0.19774 0.0
C1010 C 0.27922 0.69267 0.22159 0.0
C1011 C 0.25723 0.69597 0.17953 0.0
C1012 C 0.25301 0.72357 0.18473 0.0
C1013 C 0.26246 0.73577 0.20822 0.0
C1014 C 0.27525 0.72042 0.22658 0.0
C1015 C 0.23847 0.73964 0.16578 0.0
C1016 C 0.25072 0.76152 0.1551 0.0
C1017 C 0.21295 0.73295 0.15766 0.0
C1018 C 0.19885 0.7104 0.16868 0.0
C1019 C 0.19657 0.70988 0.19518 0.0
C1020 C 0.18342 0.68844 0.20543 0.0
C1021 C 0.17231 0.66749 0.18933 0.0
C1022 C 0.17426 0.66798 0.16295 0.0
C1023 C 0.18742 0.68937 0.15261 0.0
H1024 H 0.16213 0.65091 0.1973 0.0
H1025 H 0.2912 0.85464 0.09294 0.0
H1026 H 0.71064 0.70084 0.50921 0.0
H1027 H 0.7459 0.72745 0.53111 0.0
H1028 H 0.77328 0.65537 0.56645 0.0
H1029 H 0.73868 0.62849 0.54379 0.0
H1030 H 0.76262 0.74091 0.57682 0.0
H1031 H 0.83687 0.65581 0.57209 0.0
H1032 H 0.84531 0.61595 0.54431 0.0
H1033 H 0.80381 0.6508 0.48112 0.0
H1034 H 0.79561 0.69108 0.50833 0.0
H1035 H 0.87064 0.78874 0.65344 0.0
H1036 H 0.83439 0.76135 0.63446 0.0
H1037 H 0.87171 0.75158 0.56424 0.0
H1038 H 0.90861 0.77725 0.58385 0.0
H1039 H 0.84965 0.70797 0.56976 0.0
H1040 H 0.82153 0.79885 0.57469 0.0
H1041 H 0.81321 0.84351 0.59483 0.0
H1042 H 0.76317 0.80557 0.64447 0.0
H1043 H 0.77143 0.76063 0.62483 0.0
C1044 C 0.72405 0.69071 0.52182 0.0
C1045 C 0.72204 0.6625 0.52454 0.0
C1046 C 0.7442 0.70596 0.53437 0.0
C1047 C 0.76258 0.69337 0.55007 0.0
C1048 C 0.75976 0.66546 0.55392 0.0
C1049 C 0.73989 0.65012 0.54104 0.0
C1050 C 0.78516 0.70918 0.56164 0.0
C1051 C 0.78166 0.73369 0.57532 0.0
C1052 C 0.8101 0.70029 0.559 0.0
C1053 C 0.81538 0.67631 0.54237 0.0
C1054 C 0.82967 0.65502 0.55224 0.0
C1055 C 0.83442 0.63236 0.53657 0.0
C1056 C 0.82507 0.63082 0.51097 0.0
C1057 C 0.81104 0.65199 0.50094 0.0
C1058 C 0.80633 0.67474 0.51648 0.0
C1059 C 0.87112 0.78051 0.63403 0.0
C1060 C 0.89238 0.78512 0.62009 0.0
C1061 C 0.8503 0.76505 0.62308 0.0
C1062 C 0.84991 0.75482 0.59762 0.0
C1063 C 0.87141 0.75913 0.58388 0.0
C1064 C 0.89251 0.77387 0.59509 0.0
C1065 C 0.82721 0.73972 0.58522 0.0
C1066 C 0.83066 0.71525 0.57137 0.0
C1067 C 0.80232 0.74939 0.58659 0.0
C1068 C 0.79731 0.77636 0.59847 0.0
C1069 C 0.80889 0.80002 0.59003 0.0
C1070 C 0.80416 0.82538 0.60133 0.0
C1071 C 0.78773 0.82736 0.62096 0.0
C1072 C 0.77593 0.80399 0.62929 0.0
C1073 C 0.78061 0.77858 0.61807 0.0
H1074 H 0.78409 0.84702 0.62969 0.0
H1075 H 0.82872 0.61323 0.4989 0.0
H1076 H 0.81738 0.2071 0.08405 0.0
H1077 H 0.78759 0.22077 0.11507 0.0
H1078 H 0.74975 0.14202 0.10526 0.0
H1079 H 0.77898 0.12861 0.07328 0.0
H1080 H 0.71657 0.17798 0.10176 0.0
H1081 H 0.78419 0.16457 0.16293 0.0
H1082 H 0.8278 0.16746 0.18282 0.0
H1083 H 0.82367 0.25417 0.19116 0.0
H1084 H 0.78017 0.25188 0.17095 0.0
H1085 H 0.63188 0.22672 0.19226 0.0
H1086 H 0.6662 0.19941 0.17692 0.0
H1087 H 0.70698 0.27247 0.15974 0.0
H1088 H 0.67274 0.29986 0.17472 0.0
H1089 H 0.73794 0.23132 0.183 0.0
H1090 H 0.67248 0.24218 0.11372 0.0
H1091 H 0.62863 0.23756 0.0945 0.0
H1092 H 0.62917 0.1515 0.10395 0.0
H1093 H 0.67294 0.15571 0.12355 0.0
C1094 C 0.803 0.19251 0.0888 0.0
C1095 C 0.80042 0.16684 0.07609 0.0
C1096 C 0.78604 0.20028 0.10673 0.0
C1097 C 0.76654 0.18232 0.1128 0.0
C1098 C 0.76461 0.15624 0.1009 0.0
C1099 C 0.78131 0.14861 0.08262 0.0
C1100 C 0.74672 0.1919 0.12941 0.0
C1101 C 0.7213 0.18898 0.11987 0.0
C1102 C 0.75275 0.20649 0.15298 0.0
C1103 C 0.77891 0.20804 0.16528 0.0
C1104 C 0.79263 0.18428 0.16884 0.0
C1105 C 0.81733 0.18581 0.1802 0.0
C1106 C 0.82851 0.21098 0.18822 0.0
C1107 C 0.81499 0.23468 0.18494 0.0
C1108 C 0.79028 0.23327 0.17357 0.0
C1109 C 0.6483 0.23696 0.1855 0.0
C1110 C 0.64953 0.2654 0.18443 0.0
C1111 C 0.66786 0.22134 0.17679 0.0
C1112 C 0.68902 0.23399 0.16717 0.0
C1113 C 0.69082 0.26239 0.1672 0.0
C1114 C 0.67116 0.27798 0.17558 0.0
C1115 C 0.70826 0.21782 0.1549 0.0
C1116 C 0.73342 0.21962 0.16523 0.0
C1117 C 0.70203 0.20181 0.13228 0.0
C1118 C 0.67582 0.1993 0.12038 0.0
C1119 C 0.66316 0.22232 0.11189 0.0
C1120 C 0.63835 0.21977 0.1009 0.0
C1121 C 0.62609 0.19426 0.09809 0.0
C1122 C 0.63866 0.17125 0.1062 0.0
C1123 C 0.66347 0.1737 0.11724 0.0
H1124 H 0.60688 0.19233 0.08957 0.0
H1125 H 0.84764 0.21212 0.197 0.0
H1126 H 0.28501 0.3773 0.63377 0.0
H1127 H 0.28043 0.3659 0.67844 0.0
H1128 H 0.3017 0.28376 0.6607 0.0
H1129 H 0.30703 0.29518 0.61669 0.0
H1130 H 0.25421 0.33089 0.70494 0.0
H1131 H 0.34281 0.26241 0.70489 0.0
H1132 H 0.38307 0.26079 0.68398 0.0
H1133 H 0.38014 0.34626 0.67196 0.0
H1134 H 0.34009 0.34849 0.69311 0.0
H1135 H 0.25296 0.24666 0.81005 0.0
H1136 H 0.25336 0.26712 0.76844 0.0
H1137 H 0.32745 0.30304 0.79022 0.0
H1138 H 0.32781 0.2807 0.8309 0.0
H1139 H 0.3291 0.28745 0.74614 0.0
H1140 H 0.2683 0.34014 0.78561 0.0
H1141 H 0.23057 0.35015 0.80891 0.0
H1142 H 0.18278 0.31109 0.74799 0.0
H1143 H 0.22026 0.30052 0.72445 0.0
C1144 C 0.28828 0.35673 0.63941 0.0
C1145 C 0.29675 0.33722 0.62194 0.0
C1146 C 0.28568 0.35025 0.66488 0.0
C1147 C 0.29135 0.32416 0.67302 0.0
C1148 C 0.29789 0.30421 0.65502 0.0
C1149 C 0.30086 0.31074 0.62985 0.0
C1150 C 0.29213 0.31782 0.70045 0.0
C1151 C 0.27056 0.32149 0.71408 0.0
C1152 C 0.31391 0.3067 0.71272 0.0
C1153 C 0.33832 0.30554 0.70042 0.0
C1154 C 0.35083 0.28089 0.69792 0.0
C1155 C 0.3736 0.27986 0.68599 0.0
C1156 C 0.38412 0.30339 0.67658 0.0
C1157 C 0.37194 0.32803 0.67917 0.0
C1158 C 0.34919 0.32918 0.69111 0.0
C1159 C 0.26931 0.25891 0.80583 0.0
C1160 C 0.2904 0.26204 0.82354 0.0
C1161 C 0.26944 0.27089 0.78215 0.0
C1162 C 0.29023 0.2872 0.77617 0.0
C1163 C 0.31118 0.29053 0.79415 0.0
C1164 C 0.3114 0.27779 0.81744 0.0
C1165 C 0.29076 0.2996 0.75075 0.0
C1166 C 0.3127 0.29708 0.73736 0.0
C1167 C 0.26976 0.31306 0.73929 0.0
C1168 C 0.24713 0.31935 0.75335 0.0
C1169 C 0.24976 0.33352 0.77725 0.0
C1170 C 0.22842 0.33932 0.7905 0.0
C1171 C 0.2043 0.33121 0.77996 0.0
C1172 C 0.20148 0.31734 0.75613 0.0
C1173 C 0.22276 0.31147 0.74281 0.0
H1174 H 0.1878 0.33572 0.79025 0.0
H1175 H 0.40172 0.30254 0.66731 0.0
H1176 H 0.72854 0.59425 0.41534 0.0
H1177 H 0.75135 0.60343 0.37777 0.0
H1178 H 0.70622 0.67354 0.36403 0.0
H1179 H 0.68305 0.6645 0.40167 0.0
H1180 H 0.71182 0.64213 0.32009 0.0
H1181 H 0.76528 0.68216 0.38998 0.0
H1182 H 0.78974 0.68327 0.43179 0.0
H1183 H 0.83645 0.61992 0.40474 0.0
H1184 H 0.81202 0.61809 0.3629 0.0
H1185 H 0.78851 0.68954 0.22486 0.0
H1186 H 0.76596 0.68762 0.26386 0.0
H1187 H 0.81181 0.62125 0.28854 0.0
H1188 H 0.83487 0.62355 0.24999 0.0
H1189 H 0.80536 0.65461 0.32769 0.0
H1190 H 0.75074 0.61108 0.26012 0.0
H1191 H 0.72622 0.60767 0.21833 0.0
H1192 H 0.68174 0.67491 0.24097 0.0
H1193 H 0.70622 0.67894 0.28279 0.0
C1194 C 0.72333 0.61162 0.40436 0.0
C1195 C 0.70399 0.62872 0.41168 0.0
C1196 C 0.73652 0.61689 0.38293 0.0
C1197 C 0.73074 0.63939 0.36835 0.0
C1198 C 0.71106 0.65615 0.37514 0.0
C1199 C 0.69787 0.65096 0.39668 0.0
C1200 C 0.74525 0.64522 0.34597 0.0
C1201 C 0.73222 0.64534 0.32177 0.0
C1202 C 0.77193 0.64876 0.34816 0.0
C1203 C 0.78667 0.64985 0.37334 0.0
C1204 C 0.78063 0.6683 0.393 0.0
C1205 C 0.79451 0.66909 0.4167 0.0
C1206 C 0.81462 0.65166 0.42091 0.0
C1207 C 0.82087 0.6334 0.40144 0.0
C1208 C 0.80702 0.6325 0.37773 0.0
C1209 C 0.79393 0.67469 0.2387 0.0
C1210 C 0.81339 0.65659 0.23426 0.0
C1211 C 0.78093 0.67352 0.26093 0.0
C1212 C 0.78687 0.65396 0.27894 0.0
C1213 C 0.80684 0.63647 0.27491 0.0
C1214 C 0.81998 0.63778 0.25282 0.0
C1215 C 0.77198 0.6512 0.3017 0.0
C1216 C 0.78493 0.65164 0.32599 0.0
C1217 C 0.74525 0.6479 0.29958 0.0
C1218 C 0.7305 0.64551 0.27446 0.0
C1219 C 0.73586 0.62527 0.2561 0.0
C1220 C 0.72195 0.6232 0.23243 0.0
C1221 C 0.70249 0.64112 0.22697 0.0
C1222 C 0.69685 0.66109 0.24521 0.0
C1223 C 0.71073 0.66326 0.2689 0.0
H1224 H 0.69173 0.63948 0.20863 0.0
H1225 H 0.82541 0.65235 0.43923 0.0
H1226 H 0.84645 0.23599 0.97669 0.0
H1227 H 0.82827 0.27313 0.95337 0.0
H1228 H 0.76019 0.22473 0.93352 0.0
H1229 H 0.77844 0.1869 0.95687 0.0
H1230 H 0.77535 0.25509 0.89308 0.0
H1231 H 0.7587 0.27078 0.98011 0.0
H1232 H 0.76833 0.27431 0.02678 0.0
H1233 H 0.822 0.33949 0.01826 0.0
H1234 H 0.813 0.33607 0.97148 0.0
H1235 H 0.71181 0.37918 0.86057 0.0
H1236 H 0.72253 0.3356 0.87877 0.0
H1237 H 0.79729 0.36763 0.90307 0.0
H1238 H 0.78688 0.41105 0.88485 0.0
H1239 H 0.77214 0.34323 0.9418 0.0
H1240 H 0.79036 0.32414 0.85383 0.0
H1241 H 0.77991 0.32006 0.80728 0.0
H1242 H 0.72098 0.26108 0.81813 0.0
H1243 H 0.73086 0.2651 0.8648 0.0
C1244 C 0.82763 0.23302 0.96734 0.0
C1245 C 0.81377 0.2085 0.96898 0.0
C1246 C 0.81726 0.25437 0.954 0.0
C1247 C 0.79271 0.25187 0.94215 0.0
C1248 C 0.77913 0.22709 0.9427 0.0
C1249 C 0.78957 0.20553 0.95607 0.0
C1250 C 0.7813 0.27573 0.93007 0.0
C1251 C 0.77415 0.27425 0.90379 0.0
C1252 C 0.7799 0.30074 0.94407 0.0
C1253 C 0.78529 0.30303 0.97224 0.0
C1254 C 0.7727 0.28574 0.98816 0.0
C1255 C 0.77802 0.28773 0.01465 0.0
C1256 C 0.7958 0.30708 0.02548 0.0
C1257 C 0.80825 0.32451 0.00984 0.0
C1258 C 0.80302 0.32257 0.98334 0.0
C1259 C 0.7306 0.37686 0.86961 0.0
C1260 C 0.74849 0.39859 0.87133 0.0
C1261 C 0.73669 0.35194 0.87992 0.0
C1262 C 0.76069 0.34844 0.89223 0.0
C1263 C 0.77865 0.36997 0.89367 0.0
C1264 C 0.77268 0.39474 0.88317 0.0
C1265 C 0.76696 0.32282 0.90467 0.0
C1266 C 0.77302 0.324 0.93112 0.0
C1267 C 0.76708 0.29757 0.89085 0.0
C1268 C 0.76113 0.29518 0.86282 0.0
C1269 C 0.775 0.3105 0.84631 0.0
C1270 C 0.76923 0.30815 0.8199 0.0
C1271 C 0.74974 0.29039 0.80976 0.0
C1272 C 0.73603 0.27488 0.82601 0.0
C1273 C 0.74172 0.27717 0.85244 0.0
H1274 H 0.7453 0.28859 0.7893 0.0
H1275 H 0.79989 0.3086 0.04599 0.0
H1276 H 0.31219 0.26926 0.50494 0.0
H1277 H 0.28946 0.23213 0.48062 0.0
H1278 H 0.22002 0.27567 0.48259 0.0
H1279 H 0.2427 0.31321 0.50733 0.0
H1280 H 0.21389 0.22239 0.49459 0.0
H1281 H 0.24837 0.27034 0.42772 0.0
H1282 H 0.28142 0.29414 0.40565 0.0
H1283 H 0.32381 0.22122 0.40219 0.0
H1284 H 0.29119 0.19706 0.42459 0.0
H1285 H 0.15338 0.11823 0.41143 0.0
H1286 H 0.16916 0.16324 0.42763 0.0
H1287 H 0.24554 0.13461 0.43201 0.0
H1288 H 0.23 0.08973 0.41559 0.0
H1289 H 0.2434 0.1848 0.41307 0.0
H1290 H 0.21201 0.13919 0.48483 0.0
H1291 H 0.17975 0.11535 0.50797 0.0
H1292 H 0.13199 0.18419 0.50253 0.0
H1293 H 0.16386 0.20831 0.47905 0.0
C1294 C 0.2921 0.27113 0.50022 0.0
C1295 C 0.27931 0.29433 0.50817 0.0
C1296 C 0.27914 0.24987 0.48613 0.0
C1297 C 0.25311 0.25126 0.4795 0.0
C1298 C 0.24016 0.27427 0.48741 0.0
C1299 C 0.25317 0.29571 0.50149 0.0
C1300 C 0.23956 0.22808 0.4651 0.0
C1301 C 0.21993 0.21452 0.47647 0.0
C1302 C 0.24777 0.21755 0.44168 0.0
C1303 C 0.26738 0.23193 0.42799 0.0
C1304 C 0.26482 0.25942 0.42242 0.0
C1305 C 0.28347 0.27297 0.40982 0.0
C1306 C 0.30472 0.25921 0.40256 0.0
C1307 C 0.30734 0.23185 0.40783 0.0
C1308 C 0.28875 0.21821 0.42044 0.0
C1309 C 0.17356 0.12157 0.41566 0.0
C1310 C 0.19042 0.10034 0.41236 0.0
C1311 C 0.18253 0.14728 0.425 0.0
C1312 C 0.2085 0.1522 0.43129 0.0
C1313 C 0.22543 0.13127 0.42728 0.0
C1314 C 0.21649 0.10559 0.41797 0.0
C1315 C 0.21814 0.1788 0.44286 0.0
C1316 C 0.23705 0.19297 0.43096 0.0
C1317 C 0.2093 0.18987 0.4658 0.0
C1318 C 0.19016 0.17541 0.47992 0.0
C1319 C 0.19453 0.14914 0.48838 0.0
C1320 C 0.17634 0.1356 0.50159 0.0
C1321 C 0.15379 0.14821 0.50664 0.0
C1322 C 0.14943 0.17443 0.49856 0.0
C1323 C 0.16755 0.18805 0.48531 0.0
H1324 H 0.13974 0.1377 0.51688 0.0
H1325 H 0.31915 0.26974 0.39282 0.0
H1326 H 0.16692 0.80016 0.95309 0.0
H1327 H 0.18505 0.78851 0.91283 0.0
H1328 H 0.21721 0.8697 0.91139 0.0
H1329 H 0.19956 0.88136 0.95217 0.0
H1330 H 0.17348 0.80841 0.86885 0.0
H1331 H 0.26885 0.86867 0.87528 0.0
H1332 H 0.3024 0.88472 0.90783 0.0
H1333 H 0.28341 0.81947 0.95532 0.0
H1334 H 0.24998 0.80285 0.92293 0.0
H1335 H 0.21619 0.81012 0.74466 0.0
H1336 H 0.20403 0.82358 0.78729 0.0
H1337 H 0.2648 0.77717 0.82097 0.0
H1338 H 0.27782 0.76487 0.77833 0.0
H1339 H 0.26262 0.82141 0.84774 0.0
H1340 H 0.19934 0.75386 0.81534 0.0
H1341 H 0.16584 0.73314 0.78507 0.0
H1342 H 0.12165 0.80441 0.79283 0.0
H1343 H 0.15508 0.82569 0.82283 0.0
C1344 C 0.17817 0.81546 0.94444 0.0
C1345 C 0.18175 0.84172 0.95582 0.0
C1346 C 0.18847 0.80878 0.92137 0.0
C1347 C 0.20247 0.8282 0.90904 0.0
C1348 C 0.20676 0.85424 0.9207 0.0
C1349 C 0.19666 0.86089 0.94402 0.0
C1350 C 0.21106 0.82149 0.88327 0.0
C1351 C 0.19298 0.8112 0.86426 0.0
C1352 C 0.23652 0.82507 0.87728 0.0
C1353 C 0.25674 0.83471 0.89678 0.0
C1354 C 0.2719 0.85771 0.89263 0.0
C1355 C 0.29088 0.86691 0.91106 0.0
C1356 C 0.29498 0.85318 0.93366 0.0
C1357 C 0.28015 0.83016 0.93785 0.0
C1358 C 0.26115 0.82086 0.91948 0.0
C1359 C 0.22693 0.80278 0.76117 0.0
C1360 C 0.24784 0.78629 0.75819 0.0
C1361 C 0.21991 0.81039 0.78555 0.0
C1362 C 0.23318 0.80098 0.80742 0.0
C1363 C 0.25424 0.78471 0.80443 0.0
C1364 C 0.2616 0.77758 0.78006 0.0
C1365 C 0.22504 0.80788 0.83339 0.0
C1366 C 0.24312 0.8185 0.85235 0.0
C1367 C 0.19964 0.80398 0.83959 0.0
C1368 C 0.17977 0.79142 0.82117 0.0
C1369 C 0.18256 0.76518 0.81041 0.0
C1370 C 0.16359 0.75334 0.79332 0.0
C1371 C 0.14166 0.76748 0.78698 0.0
C1372 C 0.13868 0.79351 0.79768 0.0
C1373 C 0.15763 0.80547 0.81472 0.0
H1374 H 0.12696 0.75824 0.77381 0.0
H1375 H 0.30967 0.86034 0.94791 0.0
loop_
_geom_bond_atom_site_label_1
_geom_bond_atom_site_label_2
_geom_bond_distance
_geom_bond_site_symmetry_2
_ccdc_geom_bond_type
Sc0 O3 2.025 . S
Sc0 O10 2.105 1_554 S
Sc0 O13 2.105 . S
Sc0 O16 2.105 . S
Sc0 O19 2.105 1_554 S
Sc1 O3 2.025 1_556 S
Sc1 O11 2.105 . S
Sc1 O15 2.105 1_556 S
Sc1 O17 2.105 1_556 S
Sc1 O21 2.105 . S
Sc2 O3 2.025 . S
Sc2 O12 2.105 1_554 S
Sc2 O14 2.105 . S
Sc2 O18 2.105 . S
Sc2 O20 2.105 1_554 S
O3 Sc0 2.025 . S
O3 Sc1 2.025 1_554 S
O3 Sc2 2.025 . S
C4 O10 1.268 . S
C4 O20 1.268 . S
C5 O11 1.268 . S
C5 O19 1.268 . S
C6 O12 1.268 . S
C6 O21 1.268 . S
C7 O13 1.268 . S
C7 O17 1.268 . S
C8 O14 1.268 . S
C8 O16 1.268 . S
C9 O15 1.268 . S
C9 O18 1.268 . S
O10 Sc0 2.105 1_556 S
O10 C4 1.268 . S
O11 Sc1 2.105 . S
O11 C5 1.268 . S
O12 Sc2 2.105 1_556 S
O12 C6 1.268 . S
O13 Sc0 2.105 . S
O13 C7 1.268 . S
O14 Sc2 2.105 . S
O14 C8 1.268 . S
O15 Sc1 2.105 1_554 S
O15 C9 1.268 . S
O16 Sc0 2.105 . S
O16 C8 1.268 . S
O17 Sc1 2.105 1_554 S
O17 C7 1.268 . S
O18 Sc2 2.105 . S
O18 C9 1.268 . S
O19 Sc0 2.105 1_556 S
O19 C5 1.268 . S
O20 Sc2 2.105 1_556 S
O20 C4 1.268 . S
O21 Sc1 2.105 . S
O21 C6 1.268 . S
Sc22 O25 2.025 . S
Sc22 O32 2.105 . S
Sc22 O35 2.105 . S
Sc22 O38 2.105 . S
Sc22 O41 2.105 . S
Sc23 O25 2.025 . S
Sc23 O33 2.105 . S
Sc23 O37 2.105 . S
Sc23 O39 2.105 . S
Sc23 O43 2.105 . S
Sc24 O25 2.025 . S
Sc24 O34 2.105 . S
Sc24 O36 2.105 . S
Sc24 O40 2.105 . S
Sc24 O42 2.105 . S
O25 Sc22 2.025 . S
O25 Sc23 2.025 . S
O25 Sc24 2.025 . S
C26 O32 1.268 . S
C26 O42 1.268 . S
C27 O33 1.268 . S
C27 O41 1.268 . S
C28 O34 1.268 . S
C28 O43 1.268 . S
C29 O35 1.268 . S
C29 O39 1.268 . S
C30 O36 1.268 . S
C30 O38 1.268 . S
C31 O37 1.268 . S
C31 O40 1.268 . S
O32 Sc22 2.105 . S
O32 C26 1.268 . S
O33 Sc23 2.105 . S
O33 C27 1.268 . S
O34 Sc24 2.105 . S
O34 C28 1.268 . S
O35 Sc22 2.105 . S
O35 C29 1.268 . S
O36 Sc24 2.105 . S
O36 C30 1.268 . S
O37 Sc23 2.105 . S
O37 C31 1.268 . S
O38 Sc22 2.105 . S
O38 C30 1.268 . S
O39 Sc23 2.105 . S
O39 C29 1.268 . S
O40 Sc24 2.105 . S
O40 C31 1.268 . S
O41 Sc22 2.105 . S
O41 C27 1.268 . S
O42 Sc24 2.105 . S
O42 C26 1.268 . S
O43 Sc23 2.105 . S
O43 C28 1.268 . S
Sc44 O47 2.025 . S
Sc44 O54 2.105 . S
Sc44 O57 2.105 . S
Sc44 O60 2.105 . S
Sc44 O63 2.105 . S
Sc45 O47 2.025 . S
Sc45 O55 2.105 1_554 S
Sc45 O59 2.105 . S
Sc45 O61 2.105 . S
Sc45 O65 2.105 1_554 S
Sc46 O47 2.025 . S
Sc46 O56 2.105 1_554 S
Sc46 O58 2.105 . S
Sc46 O62 2.105 . S
Sc46 O64 2.105 . S
O47 Sc44 2.025 . S
O47 Sc45 2.025 . S
O47 Sc46 2.025 . S
C48 O54 1.268 . S
C48 O64 1.268 . S
C49 O55 1.268 . S
C49 O63 1.268 1_556 S
C50 O56 1.268 . S
C50 O65 1.268 . S
C51 O57 1.268 . S
C51 O61 1.268 . S
C52 O58 1.268 . S
C52 O60 1.268 . S
C53 O59 1.268 . S
C53 O62 1.268 . S
O54 Sc44 2.105 . S
O54 C48 1.268 . S
O55 Sc45 2.105 1_556 S
O55 C49 1.268 . S
O56 Sc46 2.105 1_556 S
O56 C50 1.268 . S
O57 Sc44 2.105 . S
O57 C51 1.268 . S
O58 Sc46 2.105 . S
O58 C52 1.268 . S
O59 Sc45 2.105 . S
O59 C53 1.268 . S
O60 Sc44 2.105 . S
O60 C52 1.268 . S
O61 Sc45 2.105 . S
O61 C51 1.268 . S
O62 Sc46 2.105 . S
O62 C53 1.268 . S
O63 Sc44 2.105 . S
O63 C49 1.268 1_554 S
O64 Sc46 2.105 . S
O64 C48 1.268 . S
O65 Sc45 2.105 1_556 S
O65 C50 1.268 . S
Sc66 O69 2.025 . S
Sc66 O76 2.105 . S
Sc66 O79 2.105 . S
Sc66 O82 2.105 . S
Sc66 O85 2.105 . S
Sc67 O69 2.025 . S
Sc67 O77 2.105 . S
Sc67 O81 2.105 . S
Sc67 O83 2.105 . S
Sc67 O87 2.105 . S
Sc68 O69 2.025 . S
Sc68 O78 2.105 . S
Sc68 O80 2.105 . S
Sc68 O84 2.105 . S
Sc68 O86 2.105 . S
O69 Sc66 2.025 . S
O69 Sc67 2.025 . S
O69 Sc68 2.025 . S
C70 O76 1.268 . S
C70 O86 1.268 . S
C71 O77 1.268 . S
C71 O85 1.268 . S
C72 O78 1.268 . S
C72 O87 1.268 . S
C73 O79 1.268 . S
C73 O83 1.268 . S
C74 O80 1.268 . S
C74 O82 1.268 . S
C75 O81 1.268 . S
C75 O84 1.268 . S
O76 Sc66 2.105 . S
O76 C70 1.268 . S
O77 Sc67 2.105 . S
O77 C71 1.268 . S
O78 Sc68 2.105 . S
O78 C72 1.268 . S
O79 Sc66 2.105 . S
O79 C73 1.268 . S
O80 Sc68 2.105 . S
O80 C74 1.268 . S
O81 Sc67 2.105 . S
O81 C75 1.268 . S
O82 Sc66 2.105 . S
O82 C74 1.268 . S
O83 Sc67 2.105 . S
O83 C73 1.268 . S
O84 Sc68 2.105 . S
O84 C75 1.268 . S
O85 Sc66 2.105 . S
O85 C71 1.268 . S
O86 Sc68 2.105 . S
O86 C70 1.268 . S
O87 Sc67 2.105 . S
O87 C72 1.268 . S
O88 Cd89 2.300 . S
O88 C95 1.275 . S
Cd89 O88 2.300 . S
Cd89 O97 2.381 . S
Cd89 O98 2.378 . S
O90 Cd91 2.385 . S
O90 C95 1.255 . S
Cd91 O90 2.385 . S
Cd91 O92 2.317 . S
O92 Cd91 2.317 . S
O92 C93 1.232 . S
C93 O92 1.232 . S
C93 O94 1.218 . S
O94 C93 1.218 . S
C95 O88 1.275 . S
C95 O90 1.255 . S
C96 O97 1.258 . S
C96 O98 1.256 . S
O97 Cd89 2.381 . S
O97 C96 1.258 . S
O98 Cd89 2.378 . S
O98 C96 1.256 . S
O99 Cd100 2.300 . S
O99 C106 1.275 . S
Cd100 O99 2.300 . S
Cd100 O108 2.381 . S
Cd100 O109 2.378 . S
O101 Cd102 2.385 . S
O101 C106 1.255 . S
Cd102 O101 2.385 . S
Cd102 O103 2.317 . S
O103 Cd102 2.317 . S
O103 C104 1.232 . S
C104 O103 1.232 . S
C104 O105 1.218 . S
O105 C104 1.218 . S
C106 O99 1.275 . S
C106 O101 1.255 . S
C107 O108 1.258 . S
C107 O109 1.256 . S
O108 Cd100 2.381 . S
O108 C107 1.258 . S
O109 Cd100 2.378 . S
O109 C107 1.256 . S
O110 Cd111 2.300 . S
O110 C117 1.275 . S
Cd111 O110 2.300 . S
Cd111 O119 2.381 . S
Cd111 O120 2.378 . S
O112 Cd113 2.385 . S
O112 C117 1.255 . S
Cd113 O112 2.385 . S
Cd113 O114 2.317 . S
O114 Cd113 2.317 . S
O114 C115 1.232 . S
C115 O114 1.232 . S
C115 O116 1.218 . S
O116 C115 1.218 . S
C117 O110 1.275 . S
C117 O112 1.255 . S
C118 O119 1.258 . S
C118 O120 1.256 . S
O119 Cd111 2.381 . S
O119 C118 1.258 . S
O120 Cd111 2.378 . S
O120 C118 1.256 . S
O121 Cd122 2.300 . S
O121 C128 1.275 . S
Cd122 O121 2.300 . S
Cd122 O130 2.381 . S
Cd122 O131 2.378 . S
O123 Cd124 2.385 . S
O123 C128 1.255 . S
Cd124 O123 2.385 . S
Cd124 O125 2.317 . S
O125 Cd124 2.317 . S
O125 C126 1.232 . S
C126 O125 1.232 . S
C126 O127 1.218 . S
O127 C126 1.218 . S
C128 O121 1.275 . S
C128 O123 1.255 . S
C129 O130 1.258 . S
C129 O131 1.256 . S
O130 Cd122 2.381 . S
O130 C129 1.258 . S
O131 Cd122 2.378 . S
O131 C129 1.256 . S
O132 Cd133 2.300 . S
O132 C139 1.275 . S
Cd133 O132 2.300 . S
Cd133 O141 2.381 . S
Cd133 O142 2.378 . S
O134 Cd135 2.385 . S
O134 C139 1.255 . S
Cd135 O134 2.385 . S
Cd135 O136 2.317 . S
O136 Cd135 2.317 . S
O136 C137 1.232 . S
C137 O136 1.232 . S
C137 O138 1.218 . S
O138 C137 1.218 . S
C139 O132 1.275 . S
C139 O134 1.255 . S
C140 O141 1.258 . S
C140 O142 1.256 . S
O141 Cd133 2.381 . S
O141 C140 1.258 . S
O142 Cd133 2.378 . S
O142 C140 1.256 . S
O143 Cd144 2.300 . S
O143 C150 1.275 . S
Cd144 O143 2.300 . S
Cd144 O152 2.381 . S
Cd144 O153 2.378 . S
O145 Cd146 2.385 . S
O145 C150 1.255 . S
Cd146 O145 2.385 . S
Cd146 O147 2.317 . S
O147 Cd146 2.317 . S
O147 C148 1.232 . S
C148 O147 1.232 . S
C148 O149 1.218 . S
O149 C148 1.218 . S
C150 O143 1.275 . S
C150 O145 1.255 . S
C151 O152 1.258 . S
C151 O153 1.256 . S
O152 Cd144 2.381 . S
O152 C151 1.258 . S
O153 Cd144 2.378 . S
O153 C151 1.256 . S
O154 Cd155 2.300 . S
O154 C161 1.275 . S
Cd155 O154 2.300 . S
Cd155 O163 2.381 . S
Cd155 O164 2.378 . S
O156 Cd157 2.385 . S
O156 C161 1.255 . S
Cd157 O156 2.385 . S
Cd157 O158 2.317 . S
O158 Cd157 2.317 . S
O158 C159 1.232 . S
C159 O158 1.232 . S
C159 O160 1.218 . S
O160 C159 1.218 . S
C161 O154 1.275 . S
C161 O156 1.255 . S
C162 O163 1.258 . S
C162 O164 1.256 . S
O163 Cd155 2.381 . S
O163 C162 1.258 . S
O164 Cd155 2.378 . S
O164 C162 1.256 . S
O165 Cd166 2.300 . S
O165 C172 1.275 . S
Cd166 O165 2.300 . S
Cd166 O174 2.381 . S
Cd166 O175 2.378 . S
O167 Cd168 2.385 . S
O167 C172 1.255 . S
Cd168 O167 2.385 . S
Cd168 O169 2.317 . S
O169 Cd168 2.317 . S
O169 C170 1.232 . S
C170 O169 1.232 . S
C170 O171 1.218 . S
O171 C170 1.218 . S
C172 O165 1.275 . S
C172 O167 1.255 . S
C173 O174 1.258 . S
C173 O175 1.256 . S
O174 Cd166 2.381 . S
O174 C173 1.258 . S
O175 Cd166 2.378 . S
O175 C173 1.256 . S
H176 C194 0.951 . S
H177 C196 0.951 . S
H178 C198 0.950 . S
H179 C199 0.950 . S
H180 C201 0.950 . S
H181 C204 0.950 . S
H182 C205 0.950 . S
H183 C207 0.950 . S
H184 C208 0.950 . S
H185 C209 0.951 . S
H186 C211 0.951 . S
H187 C213 0.950 . S
H188 C214 0.950 . S
H189 C216 0.950 . S
H190 C219 0.950 . S
H191 C220 0.950 . S
H192 C222 0.950 . S
H193 C223 0.950 . S
C194 H176 0.951 . S
C194 C195 1.366 . S
C194 C196 1.388 . S
C195 C194 1.366 . S
C195 C199 1.385 . S
C196 H177 0.951 . S
C196 C194 1.388 . S
C196 C197 1.366 . S
C197 C196 1.366 . S
C197 C198 1.414 . S
C197 C200 1.499 . S
C198 H178 0.950 . S
C198 C197 1.414 . S
C198 C199 1.374 . S
C199 H179 0.950 . S
C199 C195 1.385 . S
C199 C198 1.374 . S
C200 C197 1.499 . S
C200 C201 1.373 . S
C200 C202 1.389 . S
C201 H180 0.950 . S
C201 C200 1.373 . S
C201 C217 1.377 1_565 S
C202 C200 1.389 . S
C202 C203 1.524 . S
C202 C216 1.377 . S
C203 C202 1.524 . S
C203 C204 1.397 . S
C203 C208 1.363 . S
C204 H181 0.950 . S
C204 C203 1.397 . S
C204 C205 1.334 . S
C205 H182 0.950 . S
C205 C204 1.334 . S
C205 C206 1.287 . S
C206 C205 1.287 . S
C206 C207 1.524 . S
C206 H225 0.913 . S
C207 H183 0.950 . S
C207 C206 1.524 . S
C207 C208 1.415 . S
C208 H184 0.950 . S
C208 C203 1.363 . S
C208 C207 1.415 . S
C209 H185 0.951 . S
C209 C210 1.366 . S
C209 C211 1.388 . S
C210 C209 1.366 . S
C210 C214 1.385 . S
C211 H186 0.951 . S
C211 C209 1.388 . S
C211 C212 1.366 . S
C212 C211 1.366 . S
C212 C213 1.414 1_545 S
C212 C215 1.499 1_545 S
C213 H187 0.950 . S
C213 C212 1.414 1_565 S
C213 C214 1.374 1_565 S
C214 H188 0.950 . S
C214 C210 1.385 . S
C214 C213 1.374 1_545 S
C215 C212 1.499 1_565 S
C215 C216 1.373 . S
C215 C217 1.389 1_565 S
C216 H189 0.950 . S
C216 C202 1.377 . S
C216 C215 1.373 . S
C217 C201 1.377 1_545 S
C217 C215 1.389 1_545 S
C217 C218 1.524 . S
C218 C217 1.524 . S
C218 C219 1.397 . S
C218 C223 1.363 . S
C219 H190 0.950 . S
C219 C218 1.397 . S
C219 C220 1.334 . S
C220 H191 0.950 . S
C220 C219 1.334 . S
C220 C221 1.287 . S
C221 C220 1.287 . S
C221 C222 1.524 . S
C221 H224 0.999 . S
C222 H192 0.950 . S
C222 C221 1.524 . S
C222 C223 1.415 . S
C223 H193 0.950 . S
C223 C218 1.363 . S
C223 C222 1.415 . S
H224 C221 0.999 . S
H225 C206 0.913 . S
H226 C244 0.951 . S
H227 C246 0.951 . S
H228 C248 0.950 . S
H229 C249 0.950 . S
H230 C251 0.950 . S
H231 C254 0.950 . S
H232 C255 0.950 . S
H233 C257 0.950 . S
H234 C258 0.950 . S
H235 C259 0.951 . S
H236 C261 0.951 . S
H237 C263 0.950 . S
H238 C264 0.950 . S
H239 C266 0.950 . S
H240 C269 0.950 . S
H241 C270 0.950 . S
H242 C272 0.950 . S
H243 C273 0.950 . S
C244 H226 0.951 . S
C244 C245 1.366 . S
C244 C246 1.388 . S
C245 C244 1.366 . S
C245 C249 1.385 . S
C246 H227 0.951 . S
C246 C244 1.388 . S
C246 C247 1.366 . S
C247 C246 1.366 . S
C247 C248 1.414 . S
C247 C250 1.499 . S
C248 H228 0.950 . S
C248 C247 1.414 . S
C248 C249 1.374 . S
C249 H229 0.950 . S
C249 C245 1.385 . S
C249 C248 1.374 . S
C250 C247 1.499 . S
C250 C251 1.373 . S
C250 C252 1.389 . S
C251 H230 0.950 . S
C251 C250 1.373 . S
C251 C267 1.377 . S
C252 C250 1.389 . S
C252 C253 1.524 . S
C252 C266 1.377 . S
C253 C252 1.524 . S
C253 C254 1.397 . S
C253 C258 1.363 . S
C254 H231 0.950 . S
C254 C253 1.397 . S
C254 C255 1.334 . S
C255 H232 0.950 . S
C255 C254 1.334 . S
C255 C256 1.287 . S
C256 C255 1.287 . S
C256 C257 1.524 . S
C256 H275 0.913 . S
C257 H233 0.950 . S
C257 C256 1.524 . S
C257 C258 1.415 . S
C258 H234 0.950 . S
C258 C253 1.363 . S
C258 C257 1.415 . S
C259 H235 0.951 . S
C259 C260 1.366 . S
C259 C261 1.388 . S
C260 C259 1.366 . S
C260 C264 1.385 . S
C261 H236 0.951 . S
C261 C259 1.388 . S
C261 C262 1.366 . S
C262 C261 1.366 . S
C262 C263 1.414 . S
C262 C265 1.499 . S
C263 H237 0.950 . S
C263 C262 1.414 . S
C263 C264 1.374 . S
C264 H238 0.950 . S
C264 C260 1.385 . S
C264 C263 1.374 . S
C265 C262 1.499 . S
C265 C266 1.373 . S
C265 C267 1.389 . S
C266 H239 0.950 . S
C266 C252 1.377 . S
C266 C265 1.373 . S
C267 C251 1.377 . S
C267 C265 1.389 . S
C267 C268 1.524 . S
C268 C267 1.524 . S
C268 C269 1.397 . S
C268 C273 1.363 . S
C269 H240 0.950 . S
C269 C268 1.397 . S
C269 C270 1.334 . S
C270 H241 0.950 . S
C270 C269 1.334 . S
C270 C271 1.287 . S
C271 C270 1.287 . S
C271 C272 1.524 . S
C271 H274 0.999 . S
C272 H242 0.950 . S
C272 C271 1.524 . S
C272 C273 1.415 . S
C273 H243 0.950 . S
C273 C268 1.363 . S
C273 C272 1.415 . S
H274 C271 0.999 . S
H275 C256 0.913 . S
H276 C294 0.951 . S
H277 C296 0.951 . S
H278 C298 0.950 . S
H279 C299 0.950 . S
H280 C301 0.950 . S
H281 C304 0.950 . S
H282 C305 0.950 . S
H283 C307 0.950 . S
H284 C308 0.950 . S
H285 C309 0.951 . S
H286 C311 0.951 . S
H287 C313 0.950 . S
H288 C314 0.950 . S
H289 C316 0.950 . S
H290 C319 0.950 . S
H291 C320 0.950 . S
H292 C322 0.950 . S
H293 C323 0.950 . S
C294 H276 0.951 . S
C294 C295 1.366 . S
C294 C296 1.388 . S
C295 C294 1.366 . S
C295 C299 1.385 . S
C296 H277 0.951 . S
C296 C294 1.388 . S
C296 C297 1.366 . S
C297 C296 1.366 . S
C297 C298 1.414 . S
C297 C300 1.499 1_545 S
C298 H278 0.950 . S
C298 C297 1.414 . S
C298 C299 1.374 . S
C299 H279 0.950 . S
C299 C295 1.385 . S
C299 C298 1.374 . S
C300 C297 1.499 1_565 S
C300 C301 1.373 . S
C300 C302 1.389 . S
C301 H280 0.950 . S
C301 C300 1.373 . S
C301 C317 1.377 . S
C302 C300 1.389 . S
C302 C303 1.524 . S
C302 C316 1.377 . S
C303 C302 1.524 . S
C303 C304 1.397 1_565 S
C303 C308 1.363 . S
C304 H281 0.950 . S
C304 C303 1.397 1_545 S
C304 C305 1.334 . S
C305 H282 0.950 . S
C305 C304 1.334 . S
C305 C306 1.287 . S
C306 C305 1.287 . S
C306 C307 1.524 . S
C306 H325 0.913 . S
C307 H283 0.950 . S
C307 C306 1.524 . S
C307 C308 1.415 1_545 S
C308 H284 0.950 . S
C308 C303 1.363 . S
C308 C307 1.415 1_565 S
C309 H285 0.951 . S
C309 C310 1.366 . S
C309 C311 1.388 . S
C310 C309 1.366 . S
C310 C314 1.385 . S
C311 H286 0.951 . S
C311 C309 1.388 . S
C311 C312 1.366 . S
C312 C311 1.366 . S
C312 C313 1.414 . S
C312 C315 1.499 . S
C313 H287 0.950 . S
C313 C312 1.414 . S
C313 C314 1.374 . S
C314 H288 0.950 . S
C314 C310 1.385 . S
C314 C313 1.374 . S
C315 C312 1.499 . S
C315 C316 1.373 . S
C315 C317 1.389 . S
C316 H289 0.950 . S
C316 C302 1.377 . S
C316 C315 1.373 . S
C317 C301 1.377 . S
C317 C315 1.389 . S
C317 C318 1.524 . S
C318 C317 1.524 . S
C318 C319 1.397 . S
C318 C323 1.363 . S
C319 H290 0.950 . S
C319 C318 1.397 . S
C319 C320 1.334 . S
C320 H291 0.950 . S
C320 C319 1.334 . S
C320 C321 1.287 . S
C321 C320 1.287 . S
C321 C322 1.524 . S
C321 H324 0.999 . S
C322 H292 0.950 . S
C322 C321 1.524 . S
C322 C323 1.415 . S
C323 H293 0.950 . S
C323 C318 1.363 . S
C323 C322 1.415 . S
H324 C321 0.999 . S
H325 C306 0.913 . S
H326 C344 0.951 . S
H327 C346 0.951 . S
H328 C348 0.950 . S
H329 C349 0.950 . S
H330 C351 0.950 . S
H331 C354 0.950 . S
H332 C355 0.950 . S
H333 C357 0.950 . S
H334 C358 0.950 . S
H335 C359 0.951 . S
H336 C361 0.951 . S
H337 C363 0.950 . S
H338 C364 0.950 . S
H339 C366 0.950 . S
H340 C369 0.950 . S
H341 C370 0.950 . S
H342 C372 0.950 . S
H343 C373 0.950 . S
C344 H326 0.951 . S
C344 C345 1.366 . S
C344 C346 1.388 . S
C345 C344 1.366 . S
C345 C349 1.385 . S
C346 H327 0.951 . S
C346 C344 1.388 . S
C346 C347 1.366 . S
C347 C346 1.366 . S
C347 C348 1.414 . S
C347 C350 1.499 . S
C348 H328 0.950 . S
C348 C347 1.414 . S
C348 C349 1.374 . S
C349 H329 0.950 . S
C349 C345 1.385 . S
C349 C348 1.374 . S
C350 C347 1.499 . S
C350 C351 1.373 . S
C350 C352 1.389 . S
C351 H330 0.950 . S
C351 C350 1.373 . S
C351 C367 1.377 . S
C352 C350 1.389 . S
C352 C353 1.524 . S
C352 C366 1.377 . S
C353 C352 1.524 . S
C353 C354 1.397 . S
C353 C358 1.363 . S
C354 H331 0.950 . S
C354 C353 1.397 . S
C354 C355 1.334 . S
C355 H332 0.950 . S
C355 C354 1.334 . S
C355 C356 1.287 . S
C356 C355 1.287 . S
C356 C357 1.524 . S
C356 H375 0.913 . S
C357 H333 0.950 . S
C357 C356 1.524 . S
C357 C358 1.415 . S
C358 H334 0.950 . S
C358 C353 1.363 . S
C358 C357 1.415 . S
C359 H335 0.951 . S
C359 C360 1.366 . S
C359 C361 1.388 . S
C360 C359 1.366 . S
C360 C364 1.385 . S
C361 H336 0.951 . S
C361 C359 1.388 . S
C361 C362 1.366 . S
C362 C361 1.366 . S
C362 C363 1.414 . S
C362 C365 1.499 . S
C363 H337 0.950 . S
C363 C362 1.414 . S
C363 C364 1.374 . S
C364 H338 0.950 . S
C364 C360 1.385 . S
C364 C363 1.374 . S
C365 C362 1.499 . S
C365 C366 1.373 . S
C365 C367 1.389 . S
C366 H339 0.950 . S
C366 C352 1.377 . S
C366 C365 1.373 . S
C367 C351 1.377 . S
C367 C365 1.389 . S
C367 C368 1.524 . S
C368 C367 1.524 . S
C368 C369 1.397 . S
C368 C373 1.363 . S
C369 H340 0.950 . S
C369 C368 1.397 . S
C369 C370 1.334 . S
C370 H341 0.950 . S
C370 C369 1.334 . S
C370 C371 1.287 . S
C371 C370 1.287 . S
C371 C372 1.524 . S
C371 H374 0.999 . S
C372 H342 0.950 . S
C372 C371 1.524 . S
C372 C373 1.415 . S
C373 H343 0.950 . S
C373 C368 1.363 . S
C373 C372 1.415 . S
H374 C371 0.999 . S
H375 C356 0.913 . S
H376 C394 0.951 . S
H377 C396 0.951 . S
H378 C398 0.950 . S
H379 C399 0.950 . S
H380 C401 0.950 . S
H381 C404 0.950 . S
H382 C405 0.950 . S
H383 C407 0.950 . S
H384 C408 0.950 . S
H385 C409 0.951 . S
H386 C411 0.951 . S
H387 C413 0.950 . S
H388 C414 0.950 . S
H389 C416 0.950 . S
H390 C419 0.950 . S
H391 C420 0.950 . S
H392 C422 0.950 . S
H393 C423 0.950 . S
C394 H376 0.951 . S
C394 C395 1.366 . S
C394 C396 1.388 . S
C395 C394 1.366 . S
C395 C399 1.385 . S
C396 H377 0.951 . S
C396 C394 1.388 . S
C396 C397 1.366 . S
C397 C396 1.366 . S
C397 C398 1.414 . S
C397 C400 1.499 . S
C398 H378 0.950 . S
C398 C397 1.414 . S
C398 C399 1.374 . S
C399 H379 0.950 . S
C399 C395 1.385 . S
C399 C398 1.374 . S
C400 C397 1.499 . S
C400 C401 1.373 . S
C400 C402 1.389 . S
C401 H380 0.950 . S
C401 C400 1.373 . S
C401 C417 1.377 . S
C402 C400 1.389 . S
C402 C403 1.524 . S
C402 C416 1.377 . S
C403 C402 1.524 . S
C403 C404 1.397 . S
C403 C408 1.363 . S
C404 H381 0.950 . S
C404 C403 1.397 . S
C404 C405 1.334 . S
C405 H382 0.950 . S
C405 C404 1.334 . S
C405 C406 1.287 . S
C406 C405 1.287 . S
C406 C407 1.524 . S
C406 H425 0.913 . S
C407 H383 0.950 . S
C407 C406 1.524 . S
C407 C408 1.415 . S
C408 H384 0.950 . S
C408 C403 1.363 . S
C408 C407 1.415 . S
C409 H385 0.951 . S
C409 C410 1.366 . S
C409 C411 1.388 . S
C410 C409 1.366 . S
C410 C414 1.385 . S
C411 H386 0.951 . S
C411 C409 1.388 . S
C411 C412 1.366 . S
C412 C411 1.366 . S
C412 C413 1.414 . S
C412 C415 1.499 . S
C413 H387 0.950 . S
C413 C412 1.414 . S
C413 C414 1.374 . S
C414 H388 0.950 . S
C414 C410 1.385 . S
C414 C413 1.374 . S
C415 C412 1.499 . S
C415 C416 1.373 . S
C415 C417 1.389 . S
C416 H389 0.950 . S
C416 C402 1.377 . S
C416 C415 1.373 . S
C417 C401 1.377 . S
C417 C415 1.389 . S
C417 C418 1.524 . S
C418 C417 1.524 . S
C418 C419 1.397 . S
C418 C423 1.363 . S
C419 H390 0.950 . S
C419 C418 1.397 . S
C419 C420 1.334 . S
C420 H391 0.950 . S
C420 C419 1.334 . S
C420 C421 1.287 . S
C421 C420 1.287 . S
C421 C422 1.524 . S
C421 H424 0.999 . S
C422 H392 0.950 . S
C422 C421 1.524 . S
C422 C423 1.415 . S
C423 H393 0.950 . S
C423 C418 1.363 . S
C423 C422 1.415 . S
H424 C421 0.999 . S
H425 C406 0.913 . S
H426 C444 0.951 . S
H427 C446 0.951 . S
H428 C448 0.950 . S
H429 C449 0.950 . S
H430 C451 0.950 . S
H431 C454 0.950 . S
H432 C455 0.950 . S
H433 C457 0.950 . S
H434 C458 0.950 . S
H435 C459 0.951 . S
H436 C461 0.951 . S
H437 C463 0.950 . S
H438 C464 0.950 . S
H439 C466 0.950 . S
H440 C469 0.947 1_556 S
H441 C470 0.950 . S
H442 C472 0.950 . S
H443 C473 0.945 1_556 S
C444 H426 0.951 . S
C444 C445 1.366 . S
C444 C446 1.388 . S
C445 C444 1.366 . S
C445 C449 1.385 . S
C446 H427 0.951 . S
C446 C444 1.388 . S
C446 C447 1.366 . S
C447 C446 1.366 . S
C447 C448 1.414 . S
C447 C450 1.499 . S
C448 H428 0.950 . S
C448 C447 1.414 . S
C448 C449 1.374 . S
C449 H429 0.950 . S
C449 C445 1.385 . S
C449 C448 1.374 . S
C450 C447 1.499 . S
C450 C451 1.373 1_655 S
C450 C452 1.389 . S
C451 H430 0.950 . S
C451 C450 1.373 1_455 S
C451 C467 1.377 . S
C452 C450 1.389 . S
C452 C453 1.524 . S
C452 C466 1.377 1_655 S
C453 C452 1.524 . S
C453 C454 1.397 . S
C453 C458 1.363 . S
C454 H431 0.950 . S
C454 C453 1.397 . S
C454 C455 1.334 . S
C455 H432 0.950 . S
C455 C454 1.334 . S
C455 C456 1.287 . S
C456 C455 1.287 . S
C456 C457 1.524 . S
C456 H475 0.913 . S
C457 H433 0.950 . S
C457 C456 1.524 . S
C457 C458 1.415 . S
C458 H434 0.950 . S
C458 C453 1.363 . S
C458 C457 1.415 . S
C459 H435 0.951 . S
C459 C460 1.366 . S
C459 C461 1.388 . S
C460 C459 1.366 . S
C460 C464 1.385 . S
C461 H436 0.951 . S
C461 C459 1.388 . S
C461 C462 1.366 . S
C462 C461 1.366 . S
C462 C463 1.414 . S
C462 C465 1.499 . S
C463 H437 0.950 . S
C463 C462 1.414 . S
C463 C464 1.374 . S
C464 H438 0.950 . S
C464 C460 1.385 . S
C464 C463 1.374 . S
C465 C462 1.499 . S
C465 C466 1.373 . S
C465 C467 1.389 . S
C466 H439 0.950 . S
C466 C452 1.377 1_455 S
C466 C465 1.373 . S
C467 C451 1.377 . S
C467 C465 1.389 . S
C467 C468 1.524 . S
C468 C467 1.524 . S
C468 C469 1.395 1_556 S
C468 C473 1.354 1_556 S
C469 H440 0.947 1_554 S
C469 C468 1.395 1_554 S
C469 C470 1.339 . S
C470 H441 0.950 . S
C470 C469 1.339 . S
C470 C471 1.287 . S
C471 C470 1.287 . S
C471 C472 1.524 . S
C471 H474 0.999 . S
C472 H442 0.950 . S
C472 C471 1.524 . S
C472 C473 1.430 . S
C473 H443 0.945 1_554 S
C473 C468 1.354 1_554 S
C473 C472 1.430 . S
H474 C471 0.999 . S
H475 C456 0.913 . S
H476 C494 0.951 . S
H477 C496 0.951 . S
H478 C498 0.950 . S
H479 C499 0.950 . S
H480 C501 0.950 . S
H481 C504 0.950 . S
H482 C505 0.950 . S
H483 C507 0.950 . S
H484 C508 0.950 . S
H485 C509 0.951 . S
H486 C511 0.951 . S
H487 C513 0.950 . S
H488 C514 0.950 . S
H489 C516 0.950 . S
H490 C519 0.950 . S
H491 C520 0.950 . S
H492 C522 0.950 . S
H493 C523 0.950 . S
C494 H476 0.951 . S
C494 C495 1.366 . S
C494 C496 1.388 . S
C495 C494 1.366 . S
C495 C499 1.385 . S
C496 H477 0.951 . S
C496 C494 1.388 . S
C496 C497 1.366 . S
C497 C496 1.366 . S
C497 C498 1.414 . S
C497 C500 1.499 . S
C498 H478 0.950 . S
C498 C497 1.414 . S
C498 C499 1.374 . S
C499 H479 0.950 . S
C499 C495 1.385 . S
C499 C498 1.374 . S
C500 C497 1.499 . S
C500 C501 1.373 . S
C500 C502 1.389 . S
C501 H480 0.950 . S
C501 C500 1.373 . S
C501 C517 1.377 . S
C502 C500 1.389 . S
C502 C503 1.524 . S
C502 C516 1.377 . S
C503 C502 1.524 . S
C503 C504 1.397 . S
C503 C508 1.363 . S
C504 H481 0.950 . S
C504 C503 1.397 . S
C504 C505 1.334 . S
C505 H482 0.950 . S
C505 C504 1.334 . S
C505 C506 1.287 . S
C506 C505 1.287 . S
C506 C507 1.524 . S
C506 H525 0.913 . S
C507 H483 0.950 . S
C507 C506 1.524 . S
C507 C508 1.415 . S
C508 H484 0.950 . S
C508 C503 1.363 . S
C508 C507 1.415 . S
C509 H485 0.951 . S
C509 C510 1.366 . S
C509 C511 1.388 . S
C510 C509 1.366 . S
C510 C514 1.385 . S
C511 H486 0.951 . S
C511 C509 1.388 . S
C511 C512 1.366 . S
C512 C511 1.366 . S
C512 C513 1.414 . S
C512 C515 1.499 . S
C513 H487 0.950 . S
C513 C512 1.414 . S
C513 C514 1.374 . S
C514 H488 0.950 . S
C514 C510 1.385 . S
C514 C513 1.374 . S
C515 C512 1.499 . S
C515 C516 1.373 . S
C515 C517 1.389 . S
C516 H489 0.950 . S
C516 C502 1.377 . S
C516 C515 1.373 . S
C517 C501 1.377 . S
C517 C515 1.389 . S
C517 C518 1.524 . S
C518 C517 1.524 . S
C518 C519 1.397 . S
C518 C523 1.363 . S
C519 H490 0.950 . S
C519 C518 1.397 . S
C519 C520 1.334 . S
C520 H491 0.950 . S
C520 C519 1.334 . S
C520 C521 1.287 . S
C521 C520 1.287 . S
C521 C522 1.524 . S
C521 H524 0.999 . S
C522 H492 0.950 . S
C522 C521 1.524 . S
C522 C523 1.415 . S
C523 H493 0.950 . S
C523 C518 1.363 . S
C523 C522 1.415 . S
H524 C521 0.999 . S
H525 C506 0.913 . S
H526 C544 0.951 . S
H527 C546 0.951 . S
H528 C548 0.950 . S
H529 C549 0.950 . S
H530 C551 0.950 . S
H531 C554 0.950 . S
H532 C555 0.950 . S
H533 C557 0.950 . S
H534 C558 0.950 . S
H535 C559 0.951 . S
H536 C561 0.951 . S
H537 C563 0.950 . S
H538 C564 0.950 . S
H539 C566 0.950 . S
H540 C569 0.950 . S
H541 C570 0.950 . S
H542 C572 0.950 . S
H543 C573 0.950 1_455 S
C544 H526 0.951 . S
C544 C545 1.366 . S
C544 C546 1.388 . S
C545 C544 1.366 . S
C545 C549 1.385 . S
C546 H527 0.951 . S
C546 C544 1.388 . S
C546 C547 1.366 . S
C547 C546 1.366 . S
C547 C548 1.414 . S
C547 C550 1.499 . S
C548 H528 0.950 . S
C548 C547 1.414 . S
C548 C549 1.374 . S
C549 H529 0.950 . S
C549 C545 1.385 . S
C549 C548 1.374 . S
C550 C547 1.499 . S
C550 C551 1.373 . S
C550 C552 1.389 . S
C551 H530 0.950 . S
C551 C550 1.373 . S
C551 C567 1.387 . S
C552 C550 1.389 . S
C552 C553 1.524 . S
C552 C566 1.377 . S
C553 C552 1.524 . S
C553 C554 1.397 . S
C553 C558 1.363 . S
C554 H531 0.950 . S
C554 C553 1.397 . S
C554 C555 1.334 . S
C555 H532 0.950 . S
C555 C554 1.334 . S
C555 C556 1.287 . S
C556 C555 1.287 . S
C556 C557 1.524 . S
C556 H575 0.913 . S
C557 H533 0.950 . S
C557 C556 1.524 . S
C557 C558 1.415 . S
C558 H534 0.950 . S
C558 C553 1.363 . S
C558 C557 1.415 . S
C559 H535 0.951 . S
C559 C560 1.366 . S
C559 C561 1.388 . S
C560 C559 1.366 . S
C560 C564 1.385 . S
C561 H536 0.951 . S
C561 C559 1.388 . S
C561 C562 1.366 . S
C562 C561 1.366 . S
C562 C563 1.414 . S
C562 C565 1.499 . S
C563 H537 0.950 . S
C563 C562 1.414 . S
C563 C564 1.374 . S
C564 H538 0.950 . S
C564 C560 1.385 . S
C564 C563 1.374 . S
C565 C562 1.499 . S
C565 C566 1.373 1_655 S
C565 C567 1.388 1_655 S
C566 H539 0.950 . S
C566 C552 1.377 . S
C566 C565 1.373 1_455 S
C567 C551 1.387 . S
C567 C565 1.388 1_455 S
C567 C568 1.515 1_455 S
C568 C567 1.515 1_655 S
C568 C569 1.397 . S
C568 C573 1.363 . S
C569 H540 0.950 . S
C569 C568 1.397 . S
C569 C570 1.334 . S
C570 H541 0.950 . S
C570 C569 1.334 . S
C570 C571 1.287 . S
C571 C570 1.287 . S
C571 C572 1.524 . S
C571 H574 0.999 . S
C572 H542 0.950 . S
C572 C571 1.524 . S
C572 C573 1.415 . S
C573 H543 0.950 1_655 S
C573 C568 1.363 . S
C573 C572 1.415 . S
H574 C571 0.999 . S
H575 C556 0.913 . S
H576 C594 0.951 . S
H577 C596 0.951 . S
H578 C598 0.950 . S
H579 C599 0.950 . S
H580 C601 0.950 . S
H581 C604 0.950 . S
H582 C605 0.950 . S
H583 C607 0.950 . S
H584 C608 0.950 . S
H585 C609 0.951 . S
H586 C611 0.951 . S
H587 C613 0.950 . S
H588 C614 0.950 . S
H589 C616 0.950 . S
H590 C619 0.950 . S
H591 C620 0.950 . S
H592 C622 0.950 . S
H593 C623 0.950 . S
C594 H576 0.951 . S
C594 C595 1.366 . S
C594 C596 1.388 . S
C595 C594 1.366 . S
C595 C599 1.385 . S
C596 H577 0.951 . S
C596 C594 1.388 . S
C596 C597 1.366 . S
C597 C596 1.366 . S
C597 C598 1.414 . S
C597 C600 1.499 . S
C598 H578 0.950 . S
C598 C597 1.414 . S
C598 C599 1.374 . S
C599 H579 0.950 . S
C599 C595 1.385 . S
C599 C598 1.374 . S
C600 C597 1.499 . S
C600 C601 1.373 . S
C600 C602 1.389 . S
C601 H580 0.950 . S
C601 C600 1.373 . S
C601 C617 1.377 . S
C602 C600 1.389 . S
C602 C603 1.524 . S
C602 C616 1.377 . S
C603 C602 1.524 . S
C603 C604 1.397 . S
C603 C608 1.363 . S
C604 H581 0.950 . S
C604 C603 1.397 . S
C604 C605 1.334 . S
C605 H582 0.950 . S
C605 C604 1.334 . S
C605 C606 1.287 . S
C606 C605 1.287 . S
C606 C607 1.524 . S
C606 H625 0.913 . S
C607 H583 0.950 . S
C607 C606 1.524 . S
C607 C608 1.415 . S
C608 H584 0.950 . S
C608 C603 1.363 . S
C608 C607 1.415 . S
C609 H585 0.951 . S
C609 C610 1.366 . S
C609 C611 1.388 . S
C610 C609 1.366 . S
C610 C614 1.385 1_565 S
C611 H586 0.951 . S
C611 C609 1.388 . S
C611 C612 1.366 1_565 S
C612 C611 1.366 1_545 S
C612 C613 1.414 . S
C612 C615 1.499 . S
C613 H587 0.950 . S
C613 C612 1.414 . S
C613 C614 1.374 . S
C614 H588 0.950 . S
C614 C610 1.385 1_545 S
C614 C613 1.374 . S
C615 C612 1.499 . S
C615 C616 1.373 . S
C615 C617 1.389 . S
C616 H589 0.950 . S
C616 C602 1.377 . S
C616 C615 1.373 . S
C617 C601 1.377 . S
C617 C615 1.389 . S
C617 C618 1.524 1_545 S
C618 C617 1.524 1_565 S
C618 C619 1.397 . S
C618 C623 1.363 . S
C619 H590 0.950 . S
C619 C618 1.397 . S
C619 C620 1.334 . S
C620 H591 0.950 . S
C620 C619 1.334 . S
C620 C621 1.287 . S
C621 C620 1.287 . S
C621 C622 1.524 . S
C621 H624 0.999 . S
C622 H592 0.950 . S
C622 C621 1.524 . S
C622 C623 1.415 . S
C623 H593 0.950 . S
C623 C618 1.363 . S
C623 C622 1.415 . S
H624 C621 0.999 . S
H625 C606 0.913 . S
H626 C644 0.951 . S
H627 C646 0.951 . S
H628 C648 0.950 . S
H629 C649 0.950 . S
H630 C651 0.950 . S
H631 C654 0.950 . S
H632 C655 0.950 . S
H633 C657 0.950 . S
H634 C658 0.950 . S
H635 C659 0.951 . S
H636 C661 0.951 . S
H637 C663 0.950 . S
H638 C664 0.950 . S
H639 C666 0.950 . S
H640 C669 0.950 . S
H641 C670 0.950 . S
H642 C672 0.950 . S
H643 C673 0.950 . S
C644 H626 0.951 . S
C644 C645 1.366 . S
C644 C646 1.388 . S
C645 C644 1.366 . S
C645 C649 1.385 . S
C646 H627 0.951 . S
C646 C644 1.388 . S
C646 C647 1.366 . S
C647 C646 1.366 . S
C647 C648 1.414 . S
C647 C650 1.499 . S
C648 H628 0.950 . S
C648 C647 1.414 . S
C648 C649 1.374 . S
C649 H629 0.950 . S
C649 C645 1.385 . S
C649 C648 1.374 . S
C650 C647 1.499 . S
C650 C651 1.373 . S
C650 C652 1.389 . S
C651 H630 0.950 . S
C651 C650 1.373 . S
C651 C667 1.377 . S
C652 C650 1.389 . S
C652 C653 1.524 . S
C652 C666 1.377 . S
C653 C652 1.524 . S
C653 C654 1.397 . S
C653 C658 1.363 . S
C654 H631 0.950 . S
C654 C653 1.397 . S
C654 C655 1.334 . S
C655 H632 0.950 . S
C655 C654 1.334 . S
C655 C656 1.287 . S
C656 C655 1.287 . S
C656 C657 1.524 . S
C656 H675 0.913 . S
C657 H633 0.950 . S
C657 C656 1.524 . S
C657 C658 1.415 . S
C658 H634 0.950 . S
C658 C653 1.363 . S
C658 C657 1.415 . S
C659 H635 0.951 . S
C659 C660 1.366 . S
C659 C661 1.388 . S
C660 C659 1.366 . S
C660 C664 1.385 . S
C661 H636 0.951 . S
C661 C659 1.388 . S
C661 C662 1.366 . S
C662 C661 1.366 . S
C662 C663 1.414 . S
C662 C665 1.499 . S
C663 H637 0.950 . S
C663 C662 1.414 . S
C663 C664 1.374 . S
C664 H638 0.950 . S
C664 C660 1.385 . S
C664 C663 1.374 . S
C665 C662 1.499 . S
C665 C666 1.373 . S
C665 C667 1.389 . S
C666 H639 0.950 . S
C666 C652 1.377 . S
C666 C665 1.373 . S
C667 C651 1.377 . S
C667 C665 1.389 . S
C667 C668 1.524 . S
C668 C667 1.524 . S
C668 C669 1.397 . S
C668 C673 1.363 . S
C669 H640 0.950 . S
C669 C668 1.397 . S
C669 C670 1.334 . S
C670 H641 0.950 . S
C670 C669 1.334 . S
C670 C671 1.287 . S
C671 C670 1.287 . S
C671 C672 1.524 . S
C671 H674 0.999 . S
C672 H642 0.950 . S
C672 C671 1.524 . S
C672 C673 1.415 . S
C673 H643 0.950 . S
C673 C668 1.363 . S
C673 C672 1.415 . S
H674 C671 0.999 . S
H675 C656 0.913 . S
H676 C694 0.951 . S
H677 C696 0.951 . S
H678 C698 0.950 1_545 S
H679 C699 0.950 1_554 S
H680 C701 0.950 . S
H681 C704 0.950 . S
H682 C705 0.950 . S
H683 C707 0.951 . S
H684 C708 0.950 . S
H685 C709 0.951 . S
H686 C711 0.951 . S
H687 C713 0.950 . S
H688 C714 0.950 . S
H689 C716 0.950 . S
H690 C719 0.950 . S
H691 C720 0.950 . S
H692 C722 0.950 . S
H693 C723 0.950 . S
C694 H676 0.951 . S
C694 C695 1.366 . S
C694 C696 1.388 . S
C695 C694 1.366 . S
C695 C699 1.385 . S
C696 H677 0.951 . S
C696 C694 1.388 . S
C696 C697 1.366 1_565 S
C697 C696 1.366 1_545 S
C697 C698 1.414 1_545 S
C697 C700 1.499 . S
C698 H678 0.950 1_565 S
C698 C697 1.414 1_565 S
C698 C699 1.374 . S
C699 H679 0.950 1_556 S
C699 C695 1.385 . S
C699 C698 1.374 . S
C700 C697 1.499 . S
C700 C701 1.373 . S
C700 C702 1.389 . S
C701 H680 0.950 . S
C701 C700 1.373 . S
C701 C717 1.377 . S
C702 C700 1.389 . S
C702 C703 1.524 . S
C702 C716 1.377 . S
C703 C702 1.524 . S
C703 C704 1.397 . S
C703 C708 1.363 . S
C704 H681 0.950 . S
C704 C703 1.397 . S
C704 C705 1.334 1_545 S
C705 H682 0.950 . S
C705 C704 1.334 1_565 S
C705 C706 1.287 . S
C706 C705 1.287 . S
C706 C707 1.524 1_565 S
C706 H725 0.913 . S
C707 H683 0.951 . S
C707 C706 1.524 1_545 S
C707 C708 1.415 . S
C708 H684 0.950 . S
C708 C703 1.363 . S
C708 C707 1.415 . S
C709 H685 0.951 . S
C709 C710 1.366 . S
C709 C711 1.388 . S
C710 C709 1.366 . S
C710 C714 1.385 . S
C711 H686 0.951 . S
C711 C709 1.388 . S
C711 C712 1.366 . S
C712 C711 1.366 . S
C712 C713 1.414 . S
C712 C715 1.499 . S
C713 H687 0.950 . S
C713 C712 1.414 . S
C713 C714 1.374 . S
C714 H688 0.950 . S
C714 C710 1.385 . S
C714 C713 1.374 . S
C715 C712 1.499 . S
C715 C716 1.373 . S
C715 C717 1.389 . S
C716 H689 0.950 . S
C716 C702 1.377 . S
C716 C715 1.373 . S
C717 C701 1.377 . S
C717 C715 1.389 . S
C717 C718 1.524 . S
C718 C717 1.524 . S
C718 C719 1.397 . S
C718 C723 1.363 1_556 S
C719 H690 0.950 . S
C719 C718 1.397 . S
C719 C720 1.334 . S
C720 H691 0.950 . S
C720 C719 1.334 . S
C720 C721 1.287 1_556 S
C721 C720 1.287 1_554 S
C721 C722 1.524 . S
C721 H724 0.999 . S
C722 H692 0.950 . S
C722 C721 1.524 . S
C722 C723 1.415 . S
C723 H693 0.950 . S
C723 C718 1.363 1_554 S
C723 C722 1.415 . S
H724 C721 0.999 . S
H725 C706 0.913 . S
H726 C744 0.951 . S
H727 C746 0.951 . S
H728 C748 0.950 . S
H729 C749 0.950 . S
H730 C751 0.950 . S
H731 C754 0.950 . S
H732 C755 0.950 . S
H733 C757 0.950 . S
H734 C758 0.950 . S
H735 C759 0.951 . S
H736 C761 0.951 . S
H737 C763 0.950 . S
H738 C764 0.950 . S
H739 C766 0.950 . S
H740 C769 0.950 . S
H741 C770 0.950 . S
H742 C772 0.950 . S
H743 C773 0.950 . S
C744 H726 0.951 . S
C744 C745 1.366 . S
C744 C746 1.388 . S
C745 C744 1.366 . S
C745 C749 1.385 . S
C746 H727 0.951 . S
C746 C744 1.388 . S
C746 C747 1.366 . S
C747 C746 1.366 . S
C747 C748 1.414 . S
C747 C750 1.499 . S
C748 H728 0.950 . S
C748 C747 1.414 . S
C748 C749 1.374 . S
C749 H729 0.950 . S
C749 C745 1.385 . S
C749 C748 1.374 . S
C750 C747 1.499 . S
C750 C751 1.373 . S
C750 C752 1.389 . S
C751 H730 0.950 . S
C751 C750 1.373 . S
C751 C767 1.377 . S
C752 C750 1.389 . S
C752 C753 1.524 . S
C752 C766 1.377 . S
C753 C752 1.524 . S
C753 C754 1.397 . S
C753 C758 1.363 . S
C754 H731 0.950 . S
C754 C753 1.397 . S
C754 C755 1.334 . S
C755 H732 0.950 . S
C755 C754 1.334 . S
C755 C756 1.287 . S
C756 C755 1.287 . S
C756 C757 1.524 . S
C756 H775 0.913 . S
C757 H733 0.950 . S
C757 C756 1.524 . S
C757 C758 1.415 . S
C758 H734 0.950 . S
C758 C753 1.363 . S
C758 C757 1.415 . S
C759 H735 0.951 . S
C759 C760 1.366 . S
C759 C761 1.388 . S
C760 C759 1.366 . S
C760 C764 1.385 . S
C761 H736 0.951 . S
C761 C759 1.388 . S
C761 C762 1.366 . S
C762 C761 1.366 . S
C762 C763 1.414 . S
C762 C765 1.499 . S
C763 H737 0.950 . S
C763 C762 1.414 . S
C763 C764 1.374 . S
C764 H738 0.950 . S
C764 C760 1.385 . S
C764 C763 1.374 . S
C765 C762 1.499 . S
C765 C766 1.373 . S
C765 C767 1.389 . S
C766 H739 0.950 . S
C766 C752 1.377 . S
C766 C765 1.373 . S
C767 C751 1.377 . S
C767 C765 1.389 . S
C767 C768 1.524 . S
C768 C767 1.524 . S
C768 C769 1.397 . S
C768 C773 1.363 . S
C769 H740 0.950 . S
C769 C768 1.397 . S
C769 C770 1.334 . S
C770 H741 0.950 . S
C770 C769 1.334 . S
C770 C771 1.287 . S
C771 C770 1.287 . S
C771 C772 1.524 . S
C771 H774 0.999 . S
C772 H742 0.950 . S
C772 C771 1.524 . S
C772 C773 1.415 . S
C773 H743 0.950 . S
C773 C768 1.363 . S
C773 C772 1.415 . S
H774 C771 0.999 . S
H775 C756 0.913 . S
H776 C794 0.951 . S
H777 C796 0.951 . S
H778 C798 0.950 . S
H779 C799 0.950 . S
H780 C801 0.950 . S
H781 C804 0.950 . S
H782 C805 0.950 . S
H783 C807 0.950 . S
H784 C808 0.950 . S
H785 C809 0.951 . S
H786 C811 0.951 . S
H787 C813 0.950 . S
H788 C814 0.950 . S
H789 C816 0.950 . S
H790 C819 0.950 . S
H791 C820 0.950 . S
H792 C822 0.950 . S
H793 C823 0.950 . S
C794 H776 0.951 . S
C794 C795 1.366 . S
C794 C796 1.388 . S
C795 C794 1.366 . S
C795 C799 1.385 . S
C796 H777 0.951 . S
C796 C794 1.388 . S
C796 C797 1.366 . S
C797 C796 1.366 . S
C797 C798 1.414 . S
C797 C800 1.499 . S
C798 H778 0.950 . S
C798 C797 1.414 . S
C798 C799 1.374 . S
C799 H779 0.950 . S
C799 C795 1.385 . S
C799 C798 1.374 . S
C800 C797 1.499 . S
C800 C801 1.373 . S
C800 C802 1.389 . S
C801 H780 0.950 . S
C801 C800 1.373 . S
C801 C817 1.377 . S
C802 C800 1.389 . S
C802 C803 1.524 . S
C802 C816 1.377 . S
C803 C802 1.524 . S
C803 C804 1.397 . S
C803 C808 1.363 . S
C804 H781 0.950 . S
C804 C803 1.397 . S
C804 C805 1.334 . S
C805 H782 0.950 . S
C805 C804 1.334 . S
C805 C806 1.287 . S
C806 C805 1.287 . S
C806 C807 1.524 . S
C806 H825 0.913 . S
C807 H783 0.950 . S
C807 C806 1.524 . S
C807 C808 1.415 . S
C808 H784 0.950 . S
C808 C803 1.363 . S
C808 C807 1.415 . S
C809 H785 0.951 . S
C809 C810 1.366 . S
C809 C811 1.388 . S
C810 C809 1.366 . S
C810 C814 1.385 . S
C811 H786 0.951 . S
C811 C809 1.388 . S
C811 C812 1.366 . S
C812 C811 1.366 . S
C812 C813 1.414 . S
C812 C815 1.499 . S
C813 H787 0.950 . S
C813 C812 1.414 . S
C813 C814 1.374 . S
C814 H788 0.950 . S
C814 C810 1.385 . S
C814 C813 1.374 . S
C815 C812 1.499 . S
C815 C816 1.373 . S
C815 C817 1.389 . S
C816 H789 0.950 . S
C816 C802 1.377 . S
C816 C815 1.373 . S
C817 C801 1.377 . S
C817 C815 1.389 . S
C817 C818 1.524 . S
C818 C817 1.524 . S
C818 C819 1.397 . S
C818 C823 1.363 . S
C819 H790 0.950 . S
C819 C818 1.397 . S
C819 C820 1.334 . S
C820 H791 0.950 . S
C820 C819 1.334 . S
C820 C821 1.287 . S
C821 C820 1.287 . S
C821 C822 1.524 . S
C821 H824 0.999 . S
C822 H792 0.950 . S
C822 C821 1.524 . S
C822 C823 1.415 . S
C823 H793 0.950 . S
C823 C818 1.363 . S
C823 C822 1.415 . S
H824 C821 0.999 . S
H825 C806 0.913 . S
H826 C844 0.951 . S
H827 C846 0.951 . S
H828 C848 0.950 . S
H829 C849 0.950 . S
H830 C851 0.950 . S
H831 C854 0.950 . S
H832 C855 0.950 . S
H833 C857 0.950 . S
H834 C858 0.950 . S
H835 C859 0.951 . S
H836 C861 0.951 . S
H837 C863 0.950 . S
H838 C864 0.950 . S
H839 C866 0.950 . S
H840 C869 0.950 . S
H841 C870 0.950 . S
H842 C872 0.950 1_556 S
H843 C873 0.950 . S
C844 H826 0.951 . S
C844 C845 1.366 . S
C844 C846 1.388 . S
C845 C844 1.366 . S
C845 C849 1.385 . S
C846 H827 0.951 . S
C846 C844 1.388 . S
C846 C847 1.366 . S
C847 C846 1.366 . S
C847 C848 1.414 . S
C847 C850 1.496 1_455 S
C848 H828 0.950 . S
C848 C847 1.414 . S
C848 C849 1.374 . S
C849 H829 0.950 . S
C849 C845 1.385 . S
C849 C848 1.374 . S
C850 C847 1.496 1_655 S
C850 C851 1.375 . S
C850 C852 1.390 . S
C851 H830 0.950 . S
C851 C850 1.375 . S
C851 C867 1.377 . S
C852 C850 1.390 . S
C852 C853 1.524 1_655 S
C852 C866 1.377 . S
C853 C852 1.524 1_455 S
C853 C854 1.397 . S
C853 C858 1.363 . S
C854 H831 0.950 . S
C854 C853 1.397 . S
C854 C855 1.334 . S
C855 H832 0.950 . S
C855 C854 1.334 . S
C855 C856 1.287 . S
C856 C855 1.287 . S
C856 C857 1.524 . S
C856 H875 0.913 . S
C857 H833 0.950 . S
C857 C856 1.524 . S
C857 C858 1.415 . S
C858 H834 0.950 . S
C858 C853 1.363 . S
C858 C857 1.415 . S
C859 H835 0.951 . S
C859 C860 1.366 . S
C859 C861 1.388 . S
C860 C859 1.366 . S
C860 C864 1.385 . S
C861 H836 0.951 . S
C861 C859 1.388 . S
C861 C862 1.366 . S
C862 C861 1.366 . S
C862 C863 1.414 . S
C862 C865 1.499 . S
C863 H837 0.950 . S
C863 C862 1.414 . S
C863 C864 1.374 . S
C864 H838 0.950 . S
C864 C860 1.385 . S
C864 C863 1.374 . S
C865 C862 1.499 . S
C865 C866 1.373 . S
C865 C867 1.389 . S
C866 H839 0.950 . S
C866 C852 1.377 . S
C866 C865 1.373 . S
C867 C851 1.377 . S
C867 C865 1.389 . S
C867 C868 1.524 . S
C868 C867 1.524 . S
C868 C869 1.397 . S
C868 C873 1.363 . S
C869 H840 0.950 . S
C869 C868 1.397 . S
C869 C870 1.334 . S
C870 H841 0.950 . S
C870 C869 1.334 . S
C870 C871 1.287 . S
C871 C870 1.287 . S
C871 C872 1.524 . S
C871 H874 0.999 . S
C872 H842 0.950 1_554 S
C872 C871 1.524 . S
C872 C873 1.415 . S
C873 H843 0.950 . S
C873 C868 1.363 . S
C873 C872 1.415 . S
H874 C871 0.999 . S
H875 C856 0.913 . S
H876 C894 0.951 . S
H877 C896 0.951 . S
H878 C898 0.950 . S
H879 C899 0.950 . S
H880 C901 0.950 . S
H881 C904 0.950 . S
H882 C905 0.950 . S
H883 C907 0.950 . S
H884 C908 0.950 . S
H885 C909 0.951 . S
H886 C911 0.951 . S
H887 C913 0.950 . S
H888 C914 0.950 . S
H889 C916 0.950 . S
H890 C919 0.950 . S
H891 C920 0.950 . S
H892 C922 0.950 . S
H893 C923 0.950 . S
C894 H876 0.951 . S
C894 C895 1.366 . S
C894 C896 1.388 . S
C895 C894 1.366 . S
C895 C899 1.385 . S
C896 H877 0.951 . S
C896 C894 1.388 . S
C896 C897 1.366 . S
C897 C896 1.366 . S
C897 C898 1.414 . S
C897 C900 1.499 . S
C898 H878 0.950 . S
C898 C897 1.414 . S
C898 C899 1.374 . S
C899 H879 0.950 . S
C899 C895 1.385 . S
C899 C898 1.374 . S
C900 C897 1.499 . S
C900 C901 1.373 . S
C900 C902 1.389 . S
C901 H880 0.950 . S
C901 C900 1.373 . S
C901 C917 1.377 . S
C902 C900 1.389 . S
C902 C903 1.524 . S
C902 C916 1.377 . S
C903 C902 1.524 . S
C903 C904 1.397 . S
C903 C908 1.363 . S
C904 H881 0.950 . S
C904 C903 1.397 . S
C904 C905 1.334 . S
C905 H882 0.950 . S
C905 C904 1.334 . S
C905 C906 1.287 . S
C906 C905 1.287 . S
C906 C907 1.524 . S
C906 H925 0.913 . S
C907 H883 0.950 . S
C907 C906 1.524 . S
C907 C908 1.415 . S
C908 H884 0.950 . S
C908 C903 1.363 . S
C908 C907 1.415 . S
C909 H885 0.951 . S
C909 C910 1.366 . S
C909 C911 1.388 . S
C910 C909 1.366 . S
C910 C914 1.385 . S
C911 H886 0.951 . S
C911 C909 1.388 . S
C911 C912 1.366 . S
C912 C911 1.366 . S
C912 C913 1.414 . S
C912 C915 1.499 . S
C913 H887 0.950 . S
C913 C912 1.414 . S
C913 C914 1.374 . S
C914 H888 0.950 . S
C914 C910 1.385 . S
C914 C913 1.374 . S
C915 C912 1.499 . S
C915 C916 1.373 . S
C915 C917 1.389 . S
C916 H889 0.950 . S
C916 C902 1.377 . S
C916 C915 1.373 . S
C917 C901 1.377 . S
C917 C915 1.389 . S
C917 C918 1.524 . S
C918 C917 1.524 . S
C918 C919 1.397 . S
C918 C923 1.363 . S
C919 H890 0.950 . S
C919 C918 1.397 . S
C919 C920 1.334 . S
C920 H891 0.950 . S
C920 C919 1.334 . S
C920 C921 1.287 . S
C921 C920 1.287 . S
C921 C922 1.524 . S
C921 H924 0.999 . S
C922 H892 0.950 . S
C922 C921 1.524 . S
C922 C923 1.415 . S
C923 H893 0.950 . S
C923 C918 1.363 . S
C923 C922 1.415 . S
H924 C921 0.999 . S
H925 C906 0.913 . S
H926 C944 0.951 . S
H927 C946 0.951 . S
H928 C948 0.950 . S
H929 C949 0.950 . S
H930 C951 0.950 . S
H931 C954 0.950 . S
H932 C955 0.950 . S
H933 C957 0.950 . S
H934 C958 0.950 . S
H935 C959 0.951 . S
H936 C961 0.951 1_655 S
H937 C963 0.950 . S
H938 C964 0.950 . S
H939 C966 0.950 . S
H940 C969 0.950 . S
H941 C970 0.950 . S
H942 C972 0.950 . S
H943 C973 0.950 . S
C944 H926 0.951 . S
C944 C945 1.366 . S
C944 C946 1.388 . S
C945 C944 1.366 . S
C945 C949 1.385 . S
C946 H927 0.951 . S
C946 C944 1.388 . S
C946 C947 1.366 . S
C947 C946 1.366 . S
C947 C948 1.414 . S
C947 C950 1.499 . S
C948 H928 0.950 . S
C948 C947 1.414 . S
C948 C949 1.374 . S
C949 H929 0.950 . S
C949 C945 1.385 . S
C949 C948 1.374 . S
C950 C947 1.499 . S
C950 C951 1.373 . S
C950 C952 1.389 . S
C951 H930 0.950 . S
C951 C950 1.373 . S
C951 C967 1.377 . S
C952 C950 1.389 . S
C952 C953 1.524 . S
C952 C966 1.377 . S
C953 C952 1.524 . S
C953 C954 1.397 . S
C953 C958 1.363 . S
C954 H931 0.950 . S
C954 C953 1.397 . S
C954 C955 1.334 . S
C955 H932 0.950 . S
C955 C954 1.334 . S
C955 C956 1.287 . S
C956 C955 1.287 . S
C956 C957 1.524 . S
C956 H975 0.913 . S
C957 H933 0.950 . S
C957 C956 1.524 . S
C957 C958 1.415 . S
C958 H934 0.950 . S
C958 C953 1.363 . S
C958 C957 1.415 . S
C959 H935 0.951 . S
C959 C960 1.366 . S
C959 C961 1.388 . S
C960 C959 1.366 . S
C960 C964 1.385 . S
C961 H936 0.951 1_455 S
C961 C959 1.388 . S
C961 C962 1.366 . S
C962 C961 1.366 . S
C962 C963 1.414 . S
C962 C965 1.499 1_455 S
C963 H937 0.950 . S
C963 C962 1.414 . S
C963 C964 1.374 . S
C964 H938 0.950 . S
C964 C960 1.385 . S
C964 C963 1.374 . S
C965 C962 1.499 1_655 S
C965 C966 1.373 . S
C965 C967 1.389 . S
C966 H939 0.950 . S
C966 C952 1.377 . S
C966 C965 1.373 . S
C967 C951 1.377 . S
C967 C965 1.389 . S
C967 C968 1.524 . S
C968 C967 1.524 . S
C968 C969 1.397 1_655 S
C968 C973 1.363 . S
C969 H940 0.950 . S
C969 C968 1.397 1_455 S
C969 C970 1.334 . S
C970 H941 0.950 . S
C970 C969 1.334 . S
C970 C971 1.287 1_455 S
C971 C970 1.287 1_655 S
C971 C972 1.524 . S
C971 H974 0.999 1_655 S
C972 H942 0.950 . S
C972 C971 1.524 . S
C972 C973 1.415 . S
C973 H943 0.950 . S
C973 C968 1.363 . S
C973 C972 1.415 . S
H974 C971 0.999 1_455 S
H975 C956 0.913 . S
H976 C994 0.951 . S
H977 C996 0.951 . S
H978 C998 0.950 . S
H979 C999 0.950 . S
H980 C1001 0.950 . S
H981 C1004 0.950 . S
H982 C1005 0.950 . S
H983 C1007 0.950 . S
H984 C1008 0.950 . S
H985 C1009 0.951 . S
H986 C1011 0.951 . S
H987 C1013 0.950 . S
H988 C1014 0.950 . S
H989 C1016 0.950 . S
H990 C1019 0.950 . S
H991 C1020 0.950 . S
H992 C1022 0.950 . S
H993 C1023 0.950 . S
C994 H976 0.951 . S
C994 C995 1.366 . S
C994 C996 1.388 . S
C995 C994 1.366 . S
C995 C999 1.385 . S
C996 H977 0.951 . S
C996 C994 1.388 . S
C996 C997 1.366 . S
C997 C996 1.366 . S
C997 C998 1.414 . S
C997 C1000 1.499 . S
C998 H978 0.950 . S
C998 C997 1.414 . S
C998 C999 1.374 . S
C999 H979 0.950 . S
C999 C995 1.385 . S
C999 C998 1.374 . S
C1000 C997 1.499 . S
C1000 C1001 1.373 . S
C1000 C1002 1.389 . S
C1001 H980 0.950 . S
C1001 C1000 1.373 . S
C1001 C1017 1.377 . S
C1002 C1000 1.389 . S
C1002 C1003 1.524 . S
C1002 C1016 1.377 . S
C1003 C1002 1.524 . S
C1003 C1004 1.397 . S
C1003 C1008 1.363 . S
C1004 H981 0.950 . S
C1004 C1003 1.397 . S
C1004 C1005 1.334 . S
C1005 H982 0.950 . S
C1005 C1004 1.334 . S
C1005 C1006 1.287 . S
C1006 C1005 1.287 . S
C1006 C1007 1.524 . S
C1006 H1025 0.913 . S
C1007 H983 0.950 . S
C1007 C1006 1.524 . S
C1007 C1008 1.415 . S
C1008 H984 0.950 . S
C1008 C1003 1.363 . S
C1008 C1007 1.415 . S
C1009 H985 0.951 . S
C1009 C1010 1.366 . S
C1009 C1011 1.388 . S
C1010 C1009 1.366 . S
C1010 C1014 1.385 . S
C1011 H986 0.951 . S
C1011 C1009 1.388 . S
C1011 C1012 1.366 . S
C1012 C1011 1.366 . S
C1012 C1013 1.414 . S
C1012 C1015 1.499 . S
C1013 H987 0.950 . S
C1013 C1012 1.414 . S
C1013 C1014 1.374 . S
C1014 H988 0.950 . S
C1014 C1010 1.385 . S
C1014 C1013 1.374 . S
C1015 C1012 1.499 . S
C1015 C1016 1.373 . S
C1015 C1017 1.389 . S
C1016 H989 0.950 . S
C1016 C1002 1.377 . S
C1016 C1015 1.373 . S
C1017 C1001 1.377 . S
C1017 C1015 1.389 . S
C1017 C1018 1.524 . S
C1018 C1017 1.524 . S
C1018 C1019 1.397 . S
C1018 C1023 1.363 . S
C1019 H990 0.950 . S
C1019 C1018 1.397 . S
C1019 C1020 1.334 . S
C1020 H991 0.950 . S
C1020 C1019 1.334 . S
C1020 C1021 1.287 . S
C1021 C1020 1.287 . S
C1021 C1022 1.524 . S
C1021 H1024 0.999 . S
C1022 H992 0.950 . S
C1022 C1021 1.524 . S
C1022 C1023 1.415 . S
C1023 H993 0.950 . S
C1023 C1018 1.363 . S
C1023 C1022 1.415 . S
H1024 C1021 0.999 . S
H1025 C1006 0.913 . S
H1026 C1044 0.951 . S
H1027 C1046 0.951 . S
H1028 C1048 0.950 . S
H1029 C1049 0.950 . S
H1030 C1051 0.950 . S
H1031 C1054 0.950 . S
H1032 C1055 0.950 . S
H1033 C1057 0.950 . S
H1034 C1058 0.950 . S
H1035 C1059 0.951 . S
H1036 C1061 0.951 . S
H1037 C1063 0.950 . S
H1038 C1064 0.950 . S
H1039 C1066 0.950 . S
H1040 C1069 0.950 . S
H1041 C1070 0.950 . S
H1042 C1072 0.950 . S
H1043 C1073 0.950 . S
C1044 H1026 0.951 . S
C1044 C1045 1.366 . S
C1044 C1046 1.388 . S
C1045 C1044 1.366 . S
C1045 C1049 1.385 . S
C1046 H1027 0.951 . S
C1046 C1044 1.388 . S
C1046 C1047 1.366 . S
C1047 C1046 1.366 . S
C1047 C1048 1.414 . S
C1047 C1050 1.499 . S
C1048 H1028 0.950 . S
C1048 C1047 1.414 . S
C1048 C1049 1.374 . S
C1049 H1029 0.950 . S
C1049 C1045 1.385 . S
C1049 C1048 1.374 . S
C1050 C1047 1.499 . S
C1050 C1051 1.373 . S
C1050 C1052 1.389 . S
C1051 H1030 0.950 . S
C1051 C1050 1.373 . S
C1051 C1067 1.377 . S
C1052 C1050 1.389 . S
C1052 C1053 1.524 . S
C1052 C1066 1.377 . S
C1053 C1052 1.524 . S
C1053 C1054 1.397 . S
C1053 C1058 1.363 . S
C1054 H1031 0.950 . S
C1054 C1053 1.397 . S
C1054 C1055 1.334 . S
C1055 H1032 0.950 . S
C1055 C1054 1.334 . S
C1055 C1056 1.287 . S
C1056 C1055 1.287 . S
C1056 C1057 1.524 . S
C1056 H1075 0.913 . S
C1057 H1033 0.950 . S
C1057 C1056 1.524 . S
C1057 C1058 1.415 . S
C1058 H1034 0.950 . S
C1058 C1053 1.363 . S
C1058 C1057 1.415 . S
C1059 H1035 0.951 . S
C1059 C1060 1.366 . S
C1059 C1061 1.388 . S
C1060 C1059 1.366 . S
C1060 C1064 1.385 . S
C1061 H1036 0.951 . S
C1061 C1059 1.388 . S
C1061 C1062 1.366 . S
C1062 C1061 1.366 . S
C1062 C1063 1.414 . S
C1062 C1065 1.499 . S
C1063 H1037 0.950 . S
C1063 C1062 1.414 . S
C1063 C1064 1.374 . S
C1064 H1038 0.950 . S
C1064 C1060 1.385 . S
C1064 C1063 1.374 . S
C1065 C1062 1.499 . S
C1065 C1066 1.373 . S
C1065 C1067 1.389 . S
C1066 H1039 0.950 . S
C1066 C1052 1.377 . S
C1066 C1065 1.373 . S
C1067 C1051 1.377 . S
C1067 C1065 1.389 . S
C1067 C1068 1.524 . S
C1068 C1067 1.524 . S
C1068 C1069 1.397 . S
C1068 C1073 1.363 . S
C1069 H1040 0.950 . S
C1069 C1068 1.397 . S
C1069 C1070 1.334 . S
C1070 H1041 0.950 . S
C1070 C1069 1.334 . S
C1070 C1071 1.287 . S
C1071 C1070 1.287 . S
C1071 C1072 1.524 . S
C1071 H1074 0.999 . S
C1072 H1042 0.950 . S
C1072 C1071 1.524 . S
C1072 C1073 1.415 . S
C1073 H1043 0.950 . S
C1073 C1068 1.363 . S
C1073 C1072 1.415 . S
H1074 C1071 0.999 . S
H1075 C1056 0.913 . S
H1076 C1094 0.951 . S
H1077 C1096 0.951 . S
H1078 C1098 0.950 . S
H1079 C1099 0.950 . S
H1080 C1101 0.950 . S
H1081 C1104 0.950 . S
H1082 C1105 0.950 . S
H1083 C1107 0.950 . S
H1084 C1108 0.950 . S
H1085 C1109 0.951 . S
H1086 C1111 0.951 . S
H1087 C1113 0.950 . S
H1088 C1114 0.950 . S
H1089 C1116 0.950 . S
H1090 C1119 0.950 . S
H1091 C1120 0.950 . S
H1092 C1122 0.950 . S
H1093 C1123 0.950 . S
C1094 H1076 0.951 . S
C1094 C1095 1.366 . S
C1094 C1096 1.388 . S
C1095 C1094 1.366 . S
C1095 C1099 1.385 . S
C1096 H1077 0.951 . S
C1096 C1094 1.388 . S
C1096 C1097 1.366 . S
C1097 C1096 1.366 . S
C1097 C1098 1.414 . S
C1097 C1100 1.499 . S
C1098 H1078 0.950 . S
C1098 C1097 1.414 . S
C1098 C1099 1.374 . S
C1099 H1079 0.950 . S
C1099 C1095 1.385 . S
C1099 C1098 1.374 . S
C1100 C1097 1.499 . S
C1100 C1101 1.373 . S
C1100 C1102 1.389 . S
C1101 H1080 0.950 . S
C1101 C1100 1.373 . S
C1101 C1117 1.377 . S
C1102 C1100 1.389 . S
C1102 C1103 1.524 . S
C1102 C1116 1.377 . S
C1103 C1102 1.524 . S
C1103 C1104 1.397 . S
C1103 C1108 1.363 . S
C1104 H1081 0.950 . S
C1104 C1103 1.397 . S
C1104 C1105 1.334 . S
C1105 H1082 0.950 . S
C1105 C1104 1.334 . S
C1105 C1106 1.287 . S
C1106 C1105 1.287 . S
C1106 C1107 1.524 . S
C1106 H1125 0.913 . S
C1107 H1083 0.950 . S
C1107 C1106 1.524 . S
C1107 C1108 1.415 . S
C1108 H1084 0.950 . S
C1108 C1103 1.363 . S
C1108 C1107 1.415 . S
C1109 H1085 0.951 . S
C1109 C1110 1.366 . S
C1109 C1111 1.388 . S
C1110 C1109 1.366 . S
C1110 C1114 1.385 . S
C1111 H1086 0.951 . S
C1111 C1109 1.388 . S
C1111 C1112 1.366 . S
C1112 C1111 1.366 . S
C1112 C1113 1.414 . S
C1112 C1115 1.499 . S
C1113 H1087 0.950 . S
C1113 C1112 1.414 . S
C1113 C1114 1.374 . S
C1114 H1088 0.950 . S
C1114 C1110 1.385 . S
C1114 C1113 1.374 . S
C1115 C1112 1.499 . S
C1115 C1116 1.373 . S
C1115 C1117 1.389 . S
C1116 H1089 0.950 . S
C1116 C1102 1.377 . S
C1116 C1115 1.373 . S
C1117 C1101 1.377 . S
C1117 C1115 1.389 . S
C1117 C1118 1.524 . S
C1118 C1117 1.524 . S
C1118 C1119 1.397 . S
C1118 C1123 1.363 . S
C1119 H1090 0.950 . S
C1119 C1118 1.397 . S
C1119 C1120 1.334 . S
C1120 H1091 0.950 . S
C1120 C1119 1.334 . S
C1120 C1121 1.287 . S
C1121 C1120 1.287 . S
C1121 C1122 1.524 . S
C1121 H1124 0.999 . S
C1122 H1092 0.950 . S
C1122 C1121 1.524 . S
C1122 C1123 1.415 . S
C1123 H1093 0.950 . S
C1123 C1118 1.363 . S
C1123 C1122 1.415 . S
H1124 C1121 0.999 . S
H1125 C1106 0.913 . S
H1126 C1144 0.951 . S
H1127 C1146 0.951 . S
H1128 C1148 0.950 . S
H1129 C1149 0.950 . S
H1130 C1151 0.950 . S
H1131 C1154 0.950 . S
H1132 C1155 0.950 . S
H1133 C1157 0.950 . S
H1134 C1158 0.950 . S
H1135 C1159 0.951 . S
H1136 C1161 0.951 . S
H1137 C1163 0.950 . S
H1138 C1164 0.950 . S
H1139 C1166 0.950 . S
H1140 C1169 0.950 . S
H1141 C1170 0.950 . S
H1142 C1172 0.950 . S
H1143 C1173 0.950 . S
C1144 H1126 0.951 . S
C1144 C1145 1.366 . S
C1144 C1146 1.388 . S
C1145 C1144 1.366 . S
C1145 C1149 1.385 . S
C1146 H1127 0.951 . S
C1146 C1144 1.388 . S
C1146 C1147 1.366 . S
C1147 C1146 1.366 . S
C1147 C1148 1.414 . S
C1147 C1150 1.499 . S
C1148 H1128 0.950 . S
C1148 C1147 1.414 . S
C1148 C1149 1.374 . S
C1149 H1129 0.950 . S
C1149 C1145 1.385 . S
C1149 C1148 1.374 . S
C1150 C1147 1.499 . S
C1150 C1151 1.373 . S
C1150 C1152 1.389 . S
C1151 H1130 0.950 . S
C1151 C1150 1.373 . S
C1151 C1167 1.377 . S
C1152 C1150 1.389 . S
C1152 C1153 1.524 . S
C1152 C1166 1.377 . S
C1153 C1152 1.524 . S
C1153 C1154 1.397 . S
C1153 C1158 1.363 . S
C1154 H1131 0.950 . S
C1154 C1153 1.397 . S
C1154 C1155 1.334 . S
C1155 H1132 0.950 . S
C1155 C1154 1.334 . S
C1155 C1156 1.287 . S
C1156 C1155 1.287 . S
C1156 C1157 1.524 . S
C1156 H1175 0.913 . S
C1157 H1133 0.950 . S
C1157 C1156 1.524 . S
C1157 C1158 1.415 . S
C1158 H1134 0.950 . S
C1158 C1153 1.363 . S
C1158 C1157 1.415 . S
C1159 H1135 0.951 . S
C1159 C1160 1.366 . S
C1159 C1161 1.388 . S
C1160 C1159 1.366 . S
C1160 C1164 1.385 . S
C1161 H1136 0.951 . S
C1161 C1159 1.388 . S
C1161 C1162 1.366 . S
C1162 C1161 1.366 . S
C1162 C1163 1.414 . S
C1162 C1165 1.499 . S
C1163 H1137 0.950 . S
C1163 C1162 1.414 . S
C1163 C1164 1.374 . S
C1164 H1138 0.950 . S
C1164 C1160 1.385 . S
C1164 C1163 1.374 . S
C1165 C1162 1.499 . S
C1165 C1166 1.373 . S
C1165 C1167 1.389 . S
C1166 H1139 0.950 . S
C1166 C1152 1.377 . S
C1166 C1165 1.373 . S
C1167 C1151 1.377 . S
C1167 C1165 1.389 . S
C1167 C1168 1.524 . S
C1168 C1167 1.524 . S
C1168 C1169 1.397 . S
C1168 C1173 1.363 . S
C1169 H1140 0.950 . S
C1169 C1168 1.397 . S
C1169 C1170 1.334 . S
C1170 H1141 0.950 . S
C1170 C1169 1.334 . S
C1170 C1171 1.287 . S
C1171 C1170 1.287 . S
C1171 C1172 1.524 . S
C1171 H1174 0.999 . S
C1172 H1142 0.950 . S
C1172 C1171 1.524 . S
C1172 C1173 1.415 . S
C1173 H1143 0.950 . S
C1173 C1168 1.363 . S
C1173 C1172 1.415 . S
H1174 C1171 0.999 . S
H1175 C1156 0.913 . S
H1176 C1194 0.951 . S
H1177 C1196 0.951 . S
H1178 C1198 0.950 . S
H1179 C1199 0.950 . S
H1180 C1201 0.950 . S
H1181 C1204 0.950 . S
H1182 C1205 0.950 . S
H1183 C1207 0.950 . S
H1184 C1208 0.950 . S
H1185 C1209 0.951 . S
H1186 C1211 0.951 . S
H1187 C1213 0.950 . S
H1188 C1214 0.950 . S
H1189 C1216 0.950 . S
H1190 C1219 0.950 . S
H1191 C1220 0.950 . S
H1192 C1222 0.950 . S
H1193 C1223 0.950 . S
C1194 H1176 0.951 . S
C1194 C1195 1.366 . S
C1194 C1196 1.388 . S
C1195 C1194 1.366 . S
C1195 C1199 1.385 . S
C1196 H1177 0.951 . S
C1196 C1194 1.388 . S
C1196 C1197 1.366 . S
C1197 C1196 1.366 . S
C1197 C1198 1.414 . S
C1197 C1200 1.499 . S
C1198 H1178 0.950 . S
C1198 C1197 1.414 . S
C1198 C1199 1.374 . S
C1199 H1179 0.950 . S
C1199 C1195 1.385 . S
C1199 C1198 1.374 . S
C1200 C1197 1.499 . S
C1200 C1201 1.373 . S
C1200 C1202 1.389 . S
C1201 H1180 0.950 . S
C1201 C1200 1.373 . S
C1201 C1217 1.377 . S
C1202 C1200 1.389 . S
C1202 C1203 1.524 . S
C1202 C1216 1.377 . S
C1203 C1202 1.524 . S
C1203 C1204 1.397 . S
C1203 C1208 1.363 . S
C1204 H1181 0.950 . S
C1204 C1203 1.397 . S
C1204 C1205 1.334 . S
C1205 H1182 0.950 . S
C1205 C1204 1.334 . S
C1205 C1206 1.287 . S
C1206 C1205 1.287 . S
C1206 C1207 1.524 . S
C1206 H1225 0.913 . S
C1207 H1183 0.950 . S
C1207 C1206 1.524 . S
C1207 C1208 1.415 . S
C1208 H1184 0.950 . S
C1208 C1203 1.363 . S
C1208 C1207 1.415 . S
C1209 H1185 0.951 . S
C1209 C1210 1.366 . S
C1209 C1211 1.388 . S
C1210 C1209 1.366 . S
C1210 C1214 1.385 . S
C1211 H1186 0.951 . S
C1211 C1209 1.388 . S
C1211 C1212 1.366 . S
C1212 C1211 1.366 . S
C1212 C1213 1.414 . S
C1212 C1215 1.499 . S
C1213 H1187 0.950 . S
C1213 C1212 1.414 . S
C1213 C1214 1.374 . S
C1214 H1188 0.950 . S
C1214 C1210 1.385 . S
C1214 C1213 1.374 . S
C1215 C1212 1.499 . S
C1215 C1216 1.373 . S
C1215 C1217 1.389 . S
C1216 H1189 0.950 . S
C1216 C1202 1.377 . S
C1216 C1215 1.373 . S
C1217 C1201 1.377 . S
C1217 C1215 1.389 . S
C1217 C1218 1.524 . S
C1218 C1217 1.524 . S
C1218 C1219 1.397 . S
C1218 C1223 1.363 . S
C1219 H1190 0.950 . S
C1219 C1218 1.397 . S
C1219 C1220 1.334 . S
C1220 H1191 0.950 . S
C1220 C1219 1.334 . S
C1220 C1221 1.287 . S
C1221 C1220 1.287 . S
C1221 C1222 1.524 . S
C1221 H1224 0.999 . S
C1222 H1192 0.950 . S
C1222 C1221 1.524 . S
C1222 C1223 1.415 . S
C1223 H1193 0.950 . S
C1223 C1218 1.363 . S
C1223 C1222 1.415 . S
H1224 C1221 0.999 . S
H1225 C1206 0.913 . S
H1226 C1244 0.951 1_554 S
H1227 C1246 0.951 . S
H1228 C1248 0.950 . S
H1229 C1249 0.950 . S
H1230 C1251 0.950 . S
H1231 C1254 0.950 . S
H1232 C1255 0.950 . S
H1233 C1257 0.950 1_554 S
H1234 C1258 0.950 . S
H1235 C1259 0.951 . S
H1236 C1261 0.951 . S
H1237 C1263 0.950 . S
H1238 C1264 0.950 . S
H1239 C1266 0.950 . S
H1240 C1269 0.950 . S
H1241 C1270 0.950 . S
H1242 C1272 0.950 . S
H1243 C1273 0.950 . S
C1244 H1226 0.951 1_556 S
C1244 C1245 1.366 . S
C1244 C1246 1.388 . S
C1245 C1244 1.366 . S
C1245 C1249 1.385 . S
C1246 H1227 0.951 . S
C1246 C1244 1.388 . S
C1246 C1247 1.366 . S
C1247 C1246 1.366 . S
C1247 C1248 1.414 . S
C1247 C1250 1.499 . S
C1248 H1228 0.950 . S
C1248 C1247 1.414 . S
C1248 C1249 1.374 . S
C1249 H1229 0.950 . S
C1249 C1245 1.385 . S
C1249 C1248 1.374 . S
C1250 C1247 1.499 . S
C1250 C1251 1.373 . S
C1250 C1252 1.389 . S
C1251 H1230 0.950 . S
C1251 C1250 1.373 . S
C1251 C1267 1.377 . S
C1252 C1250 1.389 . S
C1252 C1253 1.524 . S
C1252 C1266 1.377 . S
C1253 C1252 1.524 . S
C1253 C1254 1.397 . S
C1253 C1258 1.363 . S
C1254 H1231 0.950 . S
C1254 C1253 1.397 . S
C1254 C1255 1.334 . S
C1255 H1232 0.950 . S
C1255 C1254 1.334 . S
C1255 C1256 1.287 . S
C1256 C1255 1.287 . S
C1256 C1257 1.524 . S
C1256 H1275 0.913 1_556 S
C1257 H1233 0.950 1_556 S
C1257 C1256 1.524 . S
C1257 C1258 1.415 . S
C1258 H1234 0.950 . S
C1258 C1253 1.363 . S
C1258 C1257 1.415 . S
C1259 H1235 0.951 . S
C1259 C1260 1.366 . S
C1259 C1261 1.388 . S
C1260 C1259 1.366 . S
C1260 C1264 1.385 . S
C1261 H1236 0.951 . S
C1261 C1259 1.388 . S
C1261 C1262 1.366 . S
C1262 C1261 1.366 . S
C1262 C1263 1.414 . S
C1262 C1265 1.499 . S
C1263 H1237 0.950 . S
C1263 C1262 1.414 . S
C1263 C1264 1.374 . S
C1264 H1238 0.950 . S
C1264 C1260 1.385 . S
C1264 C1263 1.374 . S
C1265 C1262 1.499 . S
C1265 C1266 1.373 . S
C1265 C1267 1.389 . S
C1266 H1239 0.950 . S
C1266 C1252 1.377 . S
C1266 C1265 1.373 . S
C1267 C1251 1.377 . S
C1267 C1265 1.389 . S
C1267 C1268 1.524 . S
C1268 C1267 1.524 . S
C1268 C1269 1.397 . S
C1268 C1273 1.363 . S
C1269 H1240 0.950 . S
C1269 C1268 1.397 . S
C1269 C1270 1.334 . S
C1270 H1241 0.950 . S
C1270 C1269 1.334 . S
C1270 C1271 1.287 . S
C1271 C1270 1.287 . S
C1271 C1272 1.524 . S
C1271 H1274 0.999 . S
C1272 H1242 0.950 . S
C1272 C1271 1.524 . S
C1272 C1273 1.415 . S
C1273 H1243 0.950 . S
C1273 C1268 1.363 . S
C1273 C1272 1.415 . S
H1274 C1271 0.999 . S
H1275 C1256 0.913 1_554 S
H1276 C1294 0.951 . S
H1277 C1296 0.951 . S
H1278 C1298 0.950 . S
H1279 C1299 0.950 . S
H1280 C1301 0.950 . S
H1281 C1304 0.950 . S
H1282 C1305 0.950 . S
H1283 C1307 0.950 . S
H1284 C1308 0.950 . S
H1285 C1309 0.951 . S
H1286 C1311 0.951 . S
H1287 C1313 0.950 . S
H1288 C1314 0.950 . S
H1289 C1316 0.950 . S
H1290 C1319 0.950 . S
H1291 C1320 0.950 . S
H1292 C1322 0.950 . S
H1293 C1323 0.950 . S
C1294 H1276 0.951 . S
C1294 C1295 1.366 . S
C1294 C1296 1.388 . S
C1295 C1294 1.366 . S
C1295 C1299 1.385 . S
C1296 H1277 0.951 . S
C1296 C1294 1.388 . S
C1296 C1297 1.366 . S
C1297 C1296 1.366 . S
C1297 C1298 1.414 . S
C1297 C1300 1.499 . S
C1298 H1278 0.950 . S
C1298 C1297 1.414 . S
C1298 C1299 1.374 . S
C1299 H1279 0.950 . S
C1299 C1295 1.385 . S
C1299 C1298 1.374 . S
C1300 C1297 1.499 . S
C1300 C1301 1.373 . S
C1300 C1302 1.389 . S
C1301 H1280 0.950 . S
C1301 C1300 1.373 . S
C1301 C1317 1.377 . S
C1302 C1300 1.389 . S
C1302 C1303 1.524 . S
C1302 C1316 1.377 . S
C1303 C1302 1.524 . S
C1303 C1304 1.397 . S
C1303 C1308 1.363 . S
C1304 H1281 0.950 . S
C1304 C1303 1.397 . S
C1304 C1305 1.334 . S
C1305 H1282 0.950 . S
C1305 C1304 1.334 . S
C1305 C1306 1.287 . S
C1306 C1305 1.287 . S
C1306 C1307 1.524 . S
C1306 H1325 0.913 . S
C1307 H1283 0.950 . S
C1307 C1306 1.524 . S
C1307 C1308 1.415 . S
C1308 H1284 0.950 . S
C1308 C1303 1.363 . S
C1308 C1307 1.415 . S
C1309 H1285 0.951 . S
C1309 C1310 1.366 . S
C1309 C1311 1.388 . S
C1310 C1309 1.366 . S
C1310 C1314 1.385 . S
C1311 H1286 0.951 . S
C1311 C1309 1.388 . S
C1311 C1312 1.366 . S
C1312 C1311 1.366 . S
C1312 C1313 1.414 . S
C1312 C1315 1.499 . S
C1313 H1287 0.950 . S
C1313 C1312 1.414 . S
C1313 C1314 1.374 . S
C1314 H1288 0.950 . S
C1314 C1310 1.385 . S
C1314 C1313 1.374 . S
C1315 C1312 1.499 . S
C1315 C1316 1.373 . S
C1315 C1317 1.389 . S
C1316 H1289 0.950 . S
C1316 C1302 1.377 . S
C1316 C1315 1.373 . S
C1317 C1301 1.377 . S
C1317 C1315 1.389 . S
C1317 C1318 1.524 . S
C1318 C1317 1.524 . S
C1318 C1319 1.397 . S
C1318 C1323 1.363 . S
C1319 H1290 0.950 . S
C1319 C1318 1.397 . S
C1319 C1320 1.334 . S
C1320 H1291 0.950 . S
C1320 C1319 1.334 . S
C1320 C1321 1.287 . S
C1321 C1320 1.287 . S
C1321 C1322 1.524 . S
C1321 H1324 0.999 . S
C1322 H1292 0.950 . S
C1322 C1321 1.524 . S
C1322 C1323 1.415 . S
C1323 H1293 0.950 . S
C1323 C1318 1.363 . S
C1323 C1322 1.415 . S
H1324 C1321 0.999 . S
H1325 C1306 0.913 . S
H1326 C1344 0.951 . S
H1327 C1346 0.951 . S
H1328 C1348 0.950 . S
H1329 C1349 0.950 . S
H1330 C1351 0.950 . S
H1331 C1354 0.950 . S
H1332 C1355 0.950 . S
H1333 C1357 0.950 . S
H1334 C1358 0.950 . S
H1335 C1359 0.951 . S
H1336 C1361 0.951 . S
H1337 C1363 0.950 . S
H1338 C1364 0.950 . S
H1339 C1366 0.950 . S
H1340 C1369 0.950 . S
H1341 C1370 0.950 . S
H1342 C1372 0.950 . S
H1343 C1373 0.950 . S
C1344 H1326 0.951 . S
C1344 C1345 1.366 . S
C1344 C1346 1.388 . S
C1345 C1344 1.366 . S
C1345 C1349 1.385 . S
C1346 H1327 0.951 . S
C1346 C1344 1.388 . S
C1346 C1347 1.366 . S
C1347 C1346 1.366 . S
C1347 C1348 1.414 . S
C1347 C1350 1.499 . S
C1348 H1328 0.950 . S
C1348 C1347 1.414 . S
C1348 C1349 1.374 . S
C1349 H1329 0.950 . S
C1349 C1345 1.385 . S
C1349 C1348 1.374 . S
C1350 C1347 1.499 . S
C1350 C1351 1.373 . S
C1350 C1352 1.389 . S
C1351 H1330 0.950 . S
C1351 C1350 1.373 . S
C1351 C1367 1.377 . S
C1352 C1350 1.389 . S
C1352 C1353 1.524 . S
C1352 C1366 1.377 . S
C1353 C1352 1.524 . S
C1353 C1354 1.397 . S
C1353 C1358 1.363 . S
C1354 H1331 0.950 . S
C1354 C1353 1.397 . S
C1354 C1355 1.334 . S
C1355 H1332 0.950 . S
C1355 C1354 1.334 . S
C1355 C1356 1.287 . S
C1356 C1355 1.287 . S
C1356 C1357 1.524 . S
C1356 H1375 0.913 . S
C1357 H1333 0.950 . S
C1357 C1356 1.524 . S
C1357 C1358 1.415 . S
C1358 H1334 0.950 . S
C1358 C1353 1.363 . S
C1358 C1357 1.415 . S
C1359 H1335 0.951 . S
C1359 C1360 1.366 . S
C1359 C1361 1.388 . S
C1360 C1359 1.366 . S
C1360 C1364 1.385 . S
C1361 H1336 0.951 . S
C1361 C1359 1.388 . S
C1361 C1362 1.366 . S
C1362 C1361 1.366 . S
C1362 C1363 1.414 . S
C1362 C1365 1.499 . S
C1363 H1337 0.950 . S
C1363 C1362 1.414 . S
C1363 C1364 1.374 . S
C1364 H1338 0.950 . S
C1364 C1360 1.385 . S
C1364 C1363 1.374 . S
C1365 C1362 1.499 . S
C1365 C1366 1.373 . S
C1365 C1367 1.389 . S
C1366 H1339 0.950 . S
C1366 C1352 1.377 . S
C1366 C1365 1.373 . S
C1367 C1351 1.377 . S
C1367 C1365 1.389 . S
C1367 C1368 1.524 . S
C1368 C1367 1.524 . S
C1368 C1369 1.397 . S
C1368 C1373 1.363 . S
C1369 H1340 0.950 . S
C1369 C1368 1.397 . S
C1369 C1370 1.334 . S
C1370 H1341 0.950 . S
C1370 C1369 1.334 . S
C1370 C1371 1.287 . S
C1371 C1370 1.287 . S
C1371 C1372 1.524 . S
C1371 H1374 0.999 . S
C1372 H1342 0.950 . S
C1372 C1371 1.524 . S
C1372 C1373 1.415 . S
C1373 H1343 0.950 . S
C1373 C1368 1.363 . S
C1373 C1372 1.415 . S
H1374 C1371 0.999 . S
H1375 C1356 0.913 . S
C195 C8 1.446 . S
C210 C95 1.388 . S
C245 C31 1.349 . S
C260 C104 1.069 . S
C295 C53 1.202 . S
C310 C115 0.966 . S
C360 C126 0.953 . S
C345 C74 1.018 . S
C410 C139 1.244 . S
C395 C26 1.227 . S
C445 C48 1.104 1_556 S
C460 C148 0.874 . S
C495 C71 0.978 . S
C510 C159 0.904 . S
C545 C5 1.586 . S
C560 C172 1.521 . S
C595 C50 1.085 . S
C610 C170 0.860 . S
C660 C137 1.065 . S
C645 C70 1.241 . S
C710 C150 1.523 . S
C695 C4 1.564 . S
C745 C28 1.601 . S
C760 C161 1.627 . S
C810 C106 1.333 . S
C795 C73 1.340 . S
C845 C7 1.575 . S
C860 C117 1.533 . S
C910 C128 1.320 . S
C895 C30 1.307 . S
C960 C93 0.869 . S
C945 C52 1.099 . S
C1010 C162 1.408 . S
C995 C9 1.388 . S
C1060 C173 1.424 . S
C1045 C29 1.455 . S
C1095 C51 1.243 . S
C1110 C140 1.234 . S
C1160 C151 1.354 . S
C1145 C75 1.402 . S
C1210 C118 1.498 . S
C1195 C27 1.553 . S
C1245 C49 1.221 . S
C1260 C129 1.226 . S
C1310 C96 1.326 . S
C1295 C72 1.359 . S
C1360 C107 1.387 . S
C1345 C6 1.412 . S
