# Generated by pormake.
# Topology gar, (4,6)-cn, num edge types: 1
# Building blocks:
#     Node 0, Type 0, BuildingBlock: NAHDIM_clean_sbu_0, # of connection points: 4
#     Node 1, Type 0, BuildingBlock: NAHDIM_clean_sbu_0, # of connection points: 4
#     Node 2, Type 0, BuildingBlock: NAHDIM_clean_sbu_0, # of connection points: 4
#     Node 3, Type 0, BuildingBlock: NAHDIM_clean_sbu_0, # of connection points: 4
#     Node 4, Type 0, BuildingBlock: NAHDIM_clean_sbu_0, # of connection points: 4
#     Node 5, Type 0, BuildingBlock: NAHDIM_clean_sbu_0, # of connection points: 4
#     Node 6, Type 0, BuildingBlock: NAHDIM_clean_sbu_0, # of connection points: 4
#     Node 7, Type 0, BuildingBlock: NAHDIM_clean_sbu_0, # of connection points: 4
#     Node 8, Type 0, BuildingBlock: NAHDIM_clean_sbu_0, # of connection points: 4
#     Node 9, Type 0, BuildingBlock: NAHDIM_clean_sbu_0, # of connection points: 4
#     Node 10, Type 0, BuildingBlock: NAHDIM_clean_sbu_0, # of connection points: 4
#     Node 11, Type 0, BuildingBlock: NAHDIM_clean_sbu_0, # of connection points: 4
#     Node 12, Type 0, BuildingBlock: NAHDIM_clean_sbu_0, # of connection points: 4
#     Node 13, Type 0, BuildingBlock: NAHDIM_clean_sbu_0, # of connection points: 4
#     Node 14, Type 0, BuildingBlock: NAHDIM_clean_sbu_0, # of connection points: 4
#     Node 15, Type 0, BuildingBlock: NAHDIM_clean_sbu_0, # of connection points: 4
#     Node 16, Type 0, BuildingBlock: NAHDIM_clean_sbu_0, # of connection points: 4
#     Node 17, Type 0, BuildingBlock: NAHDIM_clean_sbu_0, # of connection points: 4
#     Node 18, Type 0, BuildingBlock: NAHDIM_clean_sbu_0, # of connection points: 4
#     Node 19, Type 0, BuildingBlock: NAHDIM_clean_sbu_0, # of connection points: 4
#     Node 20, Type 0, BuildingBlock: NAHDIM_clean_sbu_0, # of connection points: 4
#     Node 21, Type 0, BuildingBlock: NAHDIM_clean_sbu_0, # of connection points: 4
#     Node 22, Type 0, BuildingBlock: NAHDIM_clean_sbu_0, # of connection points: 4
#     Node 23, Type 0, BuildingBlock: NAHDIM_clean_sbu_0, # of connection points: 4
#     Node 24, Type 1, BuildingBlock: BETDEL_clean_sbu_0, # of connection points: 6
#     Node 25, Type 1, BuildingBlock: BETDEL_clean_sbu_0, # of connection points: 6
#     Node 26, Type 1, BuildingBlock: BETDEL_clean_sbu_0, # of connection points: 6
#     Node 27, Type 1, BuildingBlock: BETDEL_clean_sbu_0, # of connection points: 6
#     Node 28, Type 1, BuildingBlock: BETDEL_clean_sbu_0, # of connection points: 6
#     Node 29, Type 1, BuildingBlock: BETDEL_clean_sbu_0, # of connection points: 6
#     Node 30, Type 1, BuildingBlock: BETDEL_clean_sbu_0, # of connection points: 6
#     Node 31, Type 1, BuildingBlock: BETDEL_clean_sbu_0, # of connection points: 6
#     Node 32, Type 1, BuildingBlock: BETDEL_clean_sbu_0, # of connection points: 6
#     Node 33, Type 1, BuildingBlock: BETDEL_clean_sbu_0, # of connection points: 6
#     Node 34, Type 1, BuildingBlock: BETDEL_clean_sbu_0, # of connection points: 6
#     Node 35, Type 1, BuildingBlock: BETDEL_clean_sbu_0, # of connection points: 6
#     Node 36, Type 1, BuildingBlock: BETDEL_clean_sbu_0, # of connection points: 6
#     Node 37, Type 1, BuildingBlock: BETDEL_clean_sbu_0, # of connection points: 6
#     Node 38, Type 1, BuildingBlock: BETDEL_clean_sbu_0, # of connection points: 6
#     Node 39, Type 1, BuildingBlock: BETDEL_clean_sbu_0, # of connection points: 6
#     Edge 40, Type (0, 1), BuildingBlock: AJUNOK_clean_linker_0, # of connection points: 2
#     Edge 41, Type (0, 1), BuildingBlock: AJUNOK_clean_linker_0, # of connection points: 2
#     Edge 42, Type (0, 1), BuildingBlock: AJUNOK_clean_linker_0, # of connection points: 2
#     Edge 43, Type (0, 1), BuildingBlock: AJUNOK_clean_linker_0, # of connection points: 2
#     Edge 44, Type (0, 1), BuildingBlock: AJUNOK_clean_linker_0, # of connection points: 2
#     Edge 45, Type (0, 1), BuildingBlock: AJUNOK_clean_linker_0, # of connection points: 2
#     Edge 46, Type (0, 1), BuildingBlock: AJUNOK_clean_linker_0, # of connection points: 2
#     Edge 47, Type (0, 1), BuildingBlock: AJUNOK_clean_linker_0, # of connection points: 2
#     Edge 48, Type (0, 1), BuildingBlock: AJUNOK_clean_linker_0, # of connection points: 2
#     Edge 49, Type (0, 1), BuildingBlock: AJUNOK_clean_linker_0, # of connection points: 2
#     Edge 50, Type (0, 1), BuildingBlock: AJUNOK_clean_linker_0, # of connection points: 2
#     Edge 51, Type (0, 1), BuildingBlock: AJUNOK_clean_linker_0, # of connection points: 2
#     Edge 52, Type (0, 1), BuildingBlock: AJUNOK_clean_linker_0, # of connection points: 2
#     Edge 53, Type (0, 1), BuildingBlock: AJUNOK_clean_linker_0, # of connection points: 2
#     Edge 54, Type (0, 1), BuildingBlock: AJUNOK_clean_linker_0, # of connection points: 2
#     Edge 55, Type (0, 1), BuildingBlock: AJUNOK_clean_linker_0, # of connection points: 2
#     Edge 56, Type (0, 1), BuildingBlock: AJUNOK_clean_linker_0, # of connection points: 2
#     Edge 57, Type (0, 1), BuildingBlock: AJUNOK_clean_linker_0, # of connection points: 2
#     Edge 58, Type (0, 1), BuildingBlock: AJUNOK_clean_linker_0, # of connection points: 2
#     Edge 59, Type (0, 1), BuildingBlock: AJUNOK_clean_linker_0, # of connection points: 2
#     Edge 60, Type (0, 1), BuildingBlock: AJUNOK_clean_linker_0, # of connection points: 2
#     Edge 61, Type (0, 1), BuildingBlock: AJUNOK_clean_linker_0, # of connection points: 2
#     Edge 62, Type (0, 1), BuildingBlock: AJUNOK_clean_linker_0, # of connection points: 2
#     Edge 63, Type (0, 1), BuildingBlock: AJUNOK_clean_linker_0, # of connection points: 2
#     Edge 64, Type (0, 1), BuildingBlock: AJUNOK_clean_linker_0, # of connection points: 2
#     Edge 65, Type (0, 1), BuildingBlock: AJUNOK_clean_linker_0, # of connection points: 2
#     Edge 66, Type (0, 1), BuildingBlock: AJUNOK_clean_linker_0, # of connection points: 2
#     Edge 67, Type (0, 1), BuildingBlock: AJUNOK_clean_linker_0, # of connection points: 2
#     Edge 68, Type (0, 1), BuildingBlock: AJUNOK_clean_linker_0, # of connection points: 2
#     Edge 69, Type (0, 1), BuildingBlock: AJUNOK_clean_linker_0, # of connection points: 2
#     Edge 70, Type (0, 1), BuildingBlock: AJUNOK_clean_linker_0, # of connection points: 2
#     Edge 71, Type (0, 1), BuildingBlock: AJUNOK_clean_linker_0, # of connection points: 2
#     Edge 72, Type (0, 1), BuildingBlock: AJUNOK_clean_linker_0, # of connection points: 2
#     Edge 73, Type (0, 1), BuildingBlock: AJUNOK_clean_linker_0, # of connection points: 2
#     Edge 74, Type (0, 1), BuildingBlock: AJUNOK_clean_linker_0, # of connection points: 2
#     Edge 75, Type (0, 1), BuildingBlock: AJUNOK_clean_linker_0, # of connection points: 2
#     Edge 76, Type (0, 1), BuildingBlock: AJUNOK_clean_linker_0, # of connection points: 2
#     Edge 77, Type (0, 1), BuildingBlock: AJUNOK_clean_linker_0, # of connection points: 2
#     Edge 78, Type (0, 1), BuildingBlock: AJUNOK_clean_linker_0, # of connection points: 2
#     Edge 79, Type (0, 1), BuildingBlock: AJUNOK_clean_linker_0, # of connection points: 2
#     Edge 80, Type (0, 1), BuildingBlock: AJUNOK_clean_linker_0, # of connection points: 2
#     Edge 81, Type (0, 1), BuildingBlock: AJUNOK_clean_linker_0, # of connection points: 2
#     Edge 82, Type (0, 1), BuildingBlock: AJUNOK_clean_linker_0, # of connection points: 2
#     Edge 83, Type (0, 1), BuildingBlock: AJUNOK_clean_linker_0, # of connection points: 2
#     Edge 84, Type (0, 1), BuildingBlock: AJUNOK_clean_linker_0, # of connection points: 2
#     Edge 85, Type (0, 1), BuildingBlock: AJUNOK_clean_linker_0, # of connection points: 2
#     Edge 86, Type (0, 1), BuildingBlock: AJUNOK_clean_linker_0, # of connection points: 2
#     Edge 87, Type (0, 1), BuildingBlock: AJUNOK_clean_linker_0, # of connection points: 2
#     Edge 88, Type (0, 1), BuildingBlock: AJUNOK_clean_linker_0, # of connection points: 2
#     Edge 89, Type (0, 1), BuildingBlock: AJUNOK_clean_linker_0, # of connection points: 2
#     Edge 90, Type (0, 1), BuildingBlock: AJUNOK_clean_linker_0, # of connection points: 2
#     Edge 91, Type (0, 1), BuildingBlock: AJUNOK_clean_linker_0, # of connection points: 2
#     Edge 92, Type (0, 1), BuildingBlock: AJUNOK_clean_linker_0, # of connection points: 2
#     Edge 93, Type (0, 1), BuildingBlock: AJUNOK_clean_linker_0, # of connection points: 2
#     Edge 94, Type (0, 1), BuildingBlock: AJUNOK_clean_linker_0, # of connection points: 2
#     Edge 95, Type (0, 1), BuildingBlock: AJUNOK_clean_linker_0, # of connection points: 2
#     Edge 96, Type (0, 1), BuildingBlock: AJUNOK_clean_linker_0, # of connection points: 2
#     Edge 97, Type (0, 1), BuildingBlock: AJUNOK_clean_linker_0, # of connection points: 2
#     Edge 98, Type (0, 1), BuildingBlock: AJUNOK_clean_linker_0, # of connection points: 2
#     Edge 99, Type (0, 1), BuildingBlock: AJUNOK_clean_linker_0, # of connection points: 2
#     Edge 100, Type (0, 1), BuildingBlock: AJUNOK_clean_linker_0, # of connection points: 2
#     Edge 101, Type (0, 1), BuildingBlock: AJUNOK_clean_linker_0, # of connection points: 2
#     Edge 102, Type (0, 1), BuildingBlock: AJUNOK_clean_linker_0, # of connection points: 2
#     Edge 103, Type (0, 1), BuildingBlock: AJUNOK_clean_linker_0, # of connection points: 2
#     Edge 104, Type (0, 1), BuildingBlock: AJUNOK_clean_linker_0, # of connection points: 2
#     Edge 105, Type (0, 1), BuildingBlock: AJUNOK_clean_linker_0, # of connection points: 2
#     Edge 106, Type (0, 1), BuildingBlock: AJUNOK_clean_linker_0, # of connection points: 2
#     Edge 107, Type (0, 1), BuildingBlock: AJUNOK_clean_linker_0, # of connection points: 2
#     Edge 108, Type (0, 1), BuildingBlock: AJUNOK_clean_linker_0, # of connection points: 2
#     Edge 109, Type (0, 1), BuildingBlock: AJUNOK_clean_linker_0, # of connection points: 2
#     Edge 110, Type (0, 1), BuildingBlock: AJUNOK_clean_linker_0, # of connection points: 2
#     Edge 111, Type (0, 1), BuildingBlock: AJUNOK_clean_linker_0, # of connection points: 2
#     Edge 112, Type (0, 1), BuildingBlock: AJUNOK_clean_linker_0, # of connection points: 2
#     Edge 113, Type (0, 1), BuildingBlock: AJUNOK_clean_linker_0, # of connection points: 2
#     Edge 114, Type (0, 1), BuildingBlock: AJUNOK_clean_linker_0, # of connection points: 2
#     Edge 115, Type (0, 1), BuildingBlock: AJUNOK_clean_linker_0, # of connection points: 2
#     Edge 116, Type (0, 1), BuildingBlock: AJUNOK_clean_linker_0, # of connection points: 2
#     Edge 117, Type (0, 1), BuildingBlock: AJUNOK_clean_linker_0, # of connection points: 2
#     Edge 118, Type (0, 1), BuildingBlock: AJUNOK_clean_linker_0, # of connection points: 2
#     Edge 119, Type (0, 1), BuildingBlock: AJUNOK_clean_linker_0, # of connection points: 2
#     Edge 120, Type (0, 1), BuildingBlock: AJUNOK_clean_linker_0, # of connection points: 2
#     Edge 121, Type (0, 1), BuildingBlock: AJUNOK_clean_linker_0, # of connection points: 2
#     Edge 122, Type (0, 1), BuildingBlock: AJUNOK_clean_linker_0, # of connection points: 2
#     Edge 123, Type (0, 1), BuildingBlock: AJUNOK_clean_linker_0, # of connection points: 2
#     Edge 124, Type (0, 1), BuildingBlock: AJUNOK_clean_linker_0, # of connection points: 2
#     Edge 125, Type (0, 1), BuildingBlock: AJUNOK_clean_linker_0, # of connection points: 2
#     Edge 126, Type (0, 1), BuildingBlock: AJUNOK_clean_linker_0, # of connection points: 2
#     Edge 127, Type (0, 1), BuildingBlock: AJUNOK_clean_linker_0, # of connection points: 2
#     Edge 128, Type (0, 1), BuildingBlock: AJUNOK_clean_linker_0, # of connection points: 2
#     Edge 129, Type (0, 1), BuildingBlock: AJUNOK_clean_linker_0, # of connection points: 2
#     Edge 130, Type (0, 1), BuildingBlock: AJUNOK_clean_linker_0, # of connection points: 2
#     Edge 131, Type (0, 1), BuildingBlock: AJUNOK_clean_linker_0, # of connection points: 2
#     Edge 132, Type (0, 1), BuildingBlock: AJUNOK_clean_linker_0, # of connection points: 2
#     Edge 133, Type (0, 1), BuildingBlock: AJUNOK_clean_linker_0, # of connection points: 2
#     Edge 134, Type (0, 1), BuildingBlock: AJUNOK_clean_linker_0, # of connection points: 2
#     Edge 135, Type (0, 1), BuildingBlock: AJUNOK_clean_linker_0, # of connection points: 2
# Relax obj value: 0.164
# Max RMSD: 0.278
# Mean RMSD: 0.176
data_MOF--net-gar--node1-NAHDIM_clean_sbu_0--node2-BETDEL_clean_sbu_0--edge1-AJUNOK_clean_linker_0
_symmetry_space_group_name_H-M    P1
_symmetry_Int_Tables_number       1
_symmetry_cell_setting            triclinic
loop_
_symmetry_equiv_pos_as_xyz
'x, y, z'
_cell_length_a     42.697811
_cell_length_b     39.210712
_cell_length_c     39.577846
_cell_angle_alpha  95.545847
_cell_angle_beta   92.504902
_cell_angle_gamma 101.39605
loop_
_atom_site_label
_atom_site_type_symbol
_atom_site_fract_x
_atom_site_fract_y
_atom_site_fract_z
_atom_type_partial_charge
C0 C 0.11067 0.29411 0.37597 0.0
O1 O 0.11451 0.31666 0.40334 0.0
O2 O 0.03511 0.23137 0.42118 0.0
Zn3 Zn 0.04627 0.27605 0.39881 0.0
O4 O 0.05546 0.31819 0.43438 0.0
C5 C 0.98347 0.28838 0.38566 0.0
O6 O 0.98426 0.28863 0.41891 0.0
O7 O 0.08364 0.27363 0.36896 0.0
C8 C 0.0539 0.34717 0.42318 0.0
O9 O 0.04982 0.34795 0.39018 0.0
C10 C 0.04952 0.2261 0.44841 0.0
O11 O 0.07283 0.25084 0.46307 0.0
O12 O 0.00745 0.28189 0.37009 0.0
C13 C 0.96464 0.7866 0.68066 0.0
O14 O 0.98605 0.81601 0.68365 0.0
O15 O 1.00382 0.7236 0.59778 0.0
Zn16 Zn 0.00551 0.76761 0.6284 0.0
O17 O 0.0067 0.80968 0.602 0.0
C18 C 0.05563 0.74759 0.66726 0.0
O19 O 0.03435 0.71819 0.66578 0.0
O20 O 0.96814 0.76189 0.65878 0.0
C21 C 0.00993 0.81105 0.57026 0.0
O22 O 0.01192 0.78252 0.55089 0.0
C23 C 0.98227 0.70715 0.57579 0.0
O24 O 0.9563 0.71951 0.57019 0.0
O25 O 0.04776 0.77383 0.65519 0.0
C26 C 0.60168 0.79821 0.84841 0.0
O27 O 0.58679 0.8241 0.84505 0.0
O28 O 0.54081 0.73705 0.92264 0.0
Zn29 Zn 0.55409 0.78113 0.89838 0.0
O30 O 0.56357 0.82559 0.93138 0.0
C31 C 0.4896 0.78434 0.88031 0.0
O32 O 0.487 0.77578 0.91149 0.0
O33 O 0.59211 0.77675 0.86981 0.0
C34 C 0.54958 0.82805 0.95899 0.0
O35 O 0.5312 0.79994 0.96821 0.0
C36 C 0.55533 0.72987 0.94903 0.0
O37 O 0.5811 0.75201 0.96237 0.0
O38 O 0.51668 0.78688 0.86756 0.0
C39 C 0.46083 0.28918 0.17626 0.0
O40 O 0.48574 0.31519 0.18157 0.0
O41 O 0.49929 0.22286 0.09454 0.0
Zn42 Zn 0.50133 0.26671 0.12616 0.0
O43 O 0.50999 0.31076 0.10154 0.0
C44 C 0.56517 0.2632 0.14189 0.0
O45 O 0.5643 0.26342 0.10868 0.0
O46 O 0.46168 0.26439 0.15327 0.0
C47 C 0.49748 0.31474 0.07274 0.0
O48 O 0.47647 0.28865 0.05646 0.0
C49 C 0.47646 0.19732 0.08463 0.0
O50 O 0.44703 0.19881 0.092 0.0
O51 O 0.54018 0.26647 0.15727 0.0
C52 C 0.99684 0.77022 0.19059 0.0
O53 O 1.00428 0.73966 0.18236 0.0
O54 O 0.03801 0.74607 0.12001 0.0
Zn55 Zn 0.04698 0.79477 0.14558 0.0
O56 O 0.04166 0.83107 0.11386 0.0
C57 C 0.1127 0.78881 0.16155 0.0
O58 O 0.1079 0.76947 0.13213 0.0
O59 O 0.01252 0.79701 0.17877 0.0
C60 C 0.0612 0.84664 0.09431 0.0
O61 O 0.09001 0.83962 0.09323 0.0
C62 C 0.04763 0.73776 0.09095 0.0
O63 O 0.0644 0.76209 0.07471 0.0
O64 O 0.09057 0.80387 0.17205 0.0
C65 C 0.55227 0.76879 0.31968 0.0
O66 O 0.53455 0.78976 0.30861 0.0
O67 O 0.49596 0.71152 0.3965 0.0
Zn68 Zn 0.50187 0.75152 0.36738 0.0
O69 O 0.50549 0.79684 0.39802 0.0
C70 C 0.43657 0.73167 0.33658 0.0
O71 O 0.43042 0.71688 0.36458 0.0
O72 O 0.54294 0.75107 0.34392 0.0
C73 C 0.48166 0.80303 0.41405 0.0
O74 O 0.45495 0.77939 0.41082 0.0
C75 C 0.52019 0.70936 0.41545 0.0
O76 O 0.5466 0.73308 0.41507 0.0
O77 O 0.46492 0.74725 0.33226 0.0
C78 C 0.48664 0.31026 0.68857 0.0
O79 O 0.5005 0.34138 0.68107 0.0
O80 O 0.52832 0.23865 0.62044 0.0
Zn81 Zn 0.53268 0.28711 0.64519 0.0
O82 O 0.52603 0.32213 0.61286 0.0
C83 C 0.59877 0.28896 0.66427 0.0
O84 O 0.59678 0.27129 0.6341 0.0
O85 O 0.49686 0.28364 0.67643 0.0
C86 C 0.54721 0.33679 0.59447 0.0
O87 O 0.57583 0.32929 0.59639 0.0
C88 C 0.5389 0.22976 0.59206 0.0
O89 O 0.55504 0.25375 0.57499 0.0
O90 O 0.57457 0.30052 0.67421 0.0
C91 C 0.05053 0.27144 0.84488 0.0
O92 O 0.05339 0.29456 0.87171 0.0
O93 O 0.98977 0.21517 0.90207 0.0
Zn94 Zn 0.98707 0.25006 0.86758 0.0
O95 O 0.98952 0.29919 0.89073 0.0
C96 C 0.92146 0.24776 0.84839 0.0
O97 O 0.92362 0.26471 0.87898 0.0
O98 O 0.02417 0.24992 0.83745 0.0
C99 C 0.9898 0.30692 0.92271 0.0
O100 O 0.98918 0.28224 0.94299 0.0
C101 C 0.01586 0.21736 0.91985 0.0
O102 O 0.03987 0.24316 0.91649 0.0
O103 O 0.94576 0.23683 0.8378 0.0
C104 C 0.35081 0.07492 0.26459 0.0
O105 O 0.35298 0.05079 0.23989 0.0
O106 O 0.43157 0.05942 0.2514 0.0
Zn107 Zn 0.40343 0.05095 0.29031 0.0
O108 O 0.43018 0.05904 0.33406 0.0
C109 C 0.37436 0.98184 0.25798 0.0
O110 O 0.38848 0.99317 0.2312 0.0
O111 O 0.37126 0.08104 0.28987 0.0
C112 C 0.44056 0.03227 0.34126 0.0
O113 O 0.43331 0.00336 0.32033 0.0
C114 C 0.46164 0.06108 0.25352 0.0
O115 O 0.47594 0.05698 0.28244 0.0
O116 O 0.37787 1.00184 0.2856 0.0
C117 C 0.30581 0.10019 0.50704 0.0
O118 O 0.28305 0.09467 0.5283 0.0
O119 O 0.27358 0.18184 0.5355 0.0
Zn120 Zn 0.2704 0.15346 0.48858 0.0
O121 O 0.27453 0.18511 0.44927 0.0
C122 C 0.20964 0.1093 0.50596 0.0
O123 O 0.22148 0.11778 0.53753 0.0
O124 O 0.30552 0.12402 0.48729 0.0
C125 C 0.29367 0.21464 0.44985 0.0
O126 O 0.31245 0.22649 0.47738 0.0
C127 C 0.25077 0.19566 0.54635 0.0
O128 O 0.22539 0.19392 0.52576 0.0
O129 O 0.2262 0.12078 0.48188 0.0
C130 C 0.20696 0.96343 0.76531 0.0
O131 O 0.20076 0.97812 0.738 0.0
O132 O 0.14432 0.00824 0.74816 0.0
Zn133 Zn 0.16668 0.00913 0.79471 0.0
O134 O 0.13283 1.00063 0.83014 0.0
C135 C 0.18366 0.08402 0.79621 0.0
O136 O 0.15306 0.07899 0.78695 0.0
O137 O 0.19486 0.97222 0.79292 0.0
C138 C 0.13281 0.02291 0.85576 0.0
O139 O 0.15591 0.05086 0.86015 0.0
C140 C 0.11655 0.01491 0.74369 0.0
O141 O 0.09993 0.01961 0.77031 0.0
O142 O 0.19537 0.05786 0.80314 0.0
C143 C 0.2104 0.94326 0.99503 0.0
O144 O 0.19752 0.91139 0.98145 0.0
O145 O 0.26608 0.88427 0.03074 0.0
Zn146 Zn 0.26573 0.9139 0.99283 0.0
O147 O 0.25142 0.88174 0.95022 0.0
C148 C 0.3281 0.94491 0.0169 0.0
O149 O 0.31364 0.94313 0.04548 0.0
O150 O 0.24025 0.95093 0.00261 0.0
C151 C 0.2694 0.85973 0.94538 0.0
O152 O 0.29374 0.86083 0.96721 0.0
C153 C 0.24936 0.85378 0.03115 0.0
O154 O 0.22632 0.84131 0.00748 0.0
O155 O 0.31146 0.936 0.98897 0.0
C156 C 0.22193 0.4438 0.05445 0.0
O157 O 0.22918 0.43955 0.08617 0.0
O158 O 0.27007 0.37571 0.07618 0.0
Zn159 Zn 0.27233 0.40301 0.03408 0.0
O160 O 0.26725 0.37138 0.98895 0.0
C161 C 0.33132 0.44681 0.0127 0.0
O162 O 0.31824 0.43699 0.98175 0.0
O163 O 0.23699 0.43105 0.03091 0.0
C164 C 0.28884 0.35801 0.97467 0.0
O165 O 0.31706 0.36196 0.99089 0.0
C166 C 0.24609 0.35562 0.08675 0.0
O167 O 0.21844 0.3499 0.06908 0.0
O168 O 0.31609 0.43628 0.03795 0.0
C169 C 0.82164 0.08491 0.00434 0.0
O170 O 0.79793 0.07855 0.98084 0.0
O171 O 0.79818 0.17318 0.07264 0.0
Zn172 Zn 0.79163 0.14119 0.02952 0.0
O173 O 0.79202 0.17043 0.99044 0.0
C174 C 0.72563 0.12802 0.03584 0.0
O175 O 0.73245 0.16239 0.04008 0.0
O176 O 0.82391 0.11071 0.02701 0.0
C177 C 0.76895 0.16399 0.96785 0.0
O178 O 0.74676 0.13553 0.96751 0.0
C179 C 0.81018 0.20574 0.07588 0.0
O180 O 0.82337 0.22051 0.05016 0.0
O181 O 0.74808 0.11153 0.03096 0.0
C182 C 0.19275 0.47992 0.24489 0.0
O183 O 0.18871 0.50522 0.26751 0.0
O184 O 0.10539 0.48221 0.17858 0.0
Zn185 Zn 0.13542 0.49398 0.22047 0.0
O186 O 0.1124 0.48733 0.26274 0.0
C187 C 0.1808 0.55382 0.20717 0.0
O188 O 0.18916 0.53154 0.18403 0.0
O189 O 0.17132 0.4685 0.22087 0.0
C190 C 0.09831 0.51138 0.27375 0.0
O191 O 0.09833 0.53809 0.25609 0.0
C192 C 0.07521 0.47505 0.18072 0.0
O193 O 0.06349 0.4718 0.2106 0.0
O194 O 0.15666 0.54401 0.22397 0.0
C195 C 0.71896 0.93698 0.55127 0.0
O196 O 0.72387 0.92436 0.58016 0.0
O197 O 0.76831 0.87735 0.57217 0.0
Zn198 Zn 0.77324 0.9049 0.5299 0.0
O199 O 0.76941 0.87315 0.48453 0.0
C200 C 0.84285 0.93354 0.543 0.0
O201 O 0.84301 0.90393 0.55578 0.0
O202 O 0.73703 0.93218 0.5272 0.0
C203 C 0.79342 0.86294 0.47197 0.0
O204 O 0.82081 0.87035 0.49006 0.0
C205 C 0.78124 0.85155 0.57754 0.0
O206 O 0.79885 0.83992 0.55444 0.0
O207 O 0.81642 0.94003 0.53192 0.0
C208 C 0.85188 0.09131 0.25591 0.0
O209 O 0.8576 0.07731 0.2838 0.0
O210 O 0.91718 0.04123 0.18711 0.0
Zn211 Zn 0.88777 0.04045 0.2268 0.0
O212 O 0.91276 0.04047 0.27189 0.0
C213 C 0.86148 0.96622 0.20827 0.0
O214 O 0.88737 0.96731 0.19134 0.0
O215 O 0.86294 0.08042 0.22839 0.0
C216 C 0.92798 0.01597 0.2752 0.0
O217 O 0.92986 0.99423 0.24835 0.0
C218 C 0.94068 0.06637 0.18469 0.0
O219 O 0.94596 0.09309 0.20837 0.0
O220 O 0.85589 0.99454 0.2229 0.0
C221 C 0.31453 0.57442 0.50128 0.0
O222 O 0.29215 0.56729 0.47632 0.0
O223 O 0.29765 0.66945 0.56383 0.0
Zn224 Zn 0.28795 0.63658 0.52065 0.0
O225 O 0.29406 0.66487 0.48053 0.0
C226 C 0.22577 0.60618 0.54371 0.0
O227 O 0.23827 0.62006 0.57405 0.0
O228 O 0.31724 0.60232 0.52138 0.0
C229 C 0.27047 0.6767 0.46909 0.0
O230 O 0.24271 0.66844 0.48241 0.0
C231 C 0.28575 0.6966 0.56912 0.0
O232 O 0.26592 0.70365 0.54575 0.0
O233 O 0.24268 0.60992 0.51821 0.0
C234 C 0.3479 0.58384 0.75301 0.0
O235 O 0.35623 0.57245 0.78154 0.0
O236 O 0.41206 0.53353 0.68549 0.0
Zn237 Zn 0.38355 0.53284 0.72562 0.0
O238 O 0.41054 0.53909 0.76985 0.0
C239 C 0.33813 0.46494 0.7032 0.0
O240 O 0.33713 0.47489 0.67248 0.0
O241 O 0.35666 0.57067 0.72517 0.0
C242 C 0.42533 0.51503 0.77625 0.0
O243 O 0.42558 0.48938 0.75236 0.0
C244 C 0.43215 0.56091 0.68027 0.0
O245 O 0.43401 0.58951 0.70111 0.0
O246 O 0.35518 0.48518 0.72697 0.0
C247 C 0.69429 0.96941 0.75779 0.0
O248 O 0.69123 0.9961 0.77918 0.0
O249 O 0.60964 0.97008 0.68861 0.0
Zn250 Zn 0.63703 0.98261 0.73163 0.0
O251 O 0.60993 0.97949 0.77211 0.0
C252 C 0.64708 0.05795 0.7301 0.0
O253 O 0.61619 0.05409 0.73379 0.0
O254 O 0.67205 0.95632 0.73507 0.0
C255 C 0.6158 0.00361 0.79669 0.0
O256 O 0.64063 0.02932 0.79629 0.0
C257 C 0.57948 0.95955 0.68739 0.0
O258 O 0.56558 0.94952 0.71473 0.0
O259 O 0.66014 0.03158 0.72909 0.0
C260 C 0.80417 0.59463 0.99693 0.0
O261 O 0.77832 0.58019 0.01116 0.0
O262 O 0.76647 0.67342 0.03492 0.0
Zn263 Zn 0.76677 0.64797 0.98738 0.0
O264 O 0.76836 0.68051 0.94967 0.0
C265 C 0.70088 0.61933 0.99501 0.0
O266 O 0.70365 0.65094 0.01076 0.0
O267 O 0.80478 0.62374 0.985 0.0
C268 C 0.79418 0.69843 0.94028 0.0
O269 O 0.82145 0.69749 0.95652 0.0
C270 C 0.78014 0.70446 0.04638 0.0
O271 O 0.79831 0.72389 0.02666 0.0
O272 O 0.7251 0.61132 0.98098 0.0
C273 C 0.84736 0.56968 0.76326 0.0
O274 O 0.84697 0.54286 0.74051 0.0
O275 O 0.91978 0.5392 0.74703 0.0
Zn276 Zn 0.89804 0.54324 0.79075 0.0
O277 O 0.93049 0.55652 0.83041 0.0
C278 C 0.87612 0.4698 0.77937 0.0
O279 O 0.90238 0.47225 0.76295 0.0
O280 O 0.86855 0.57633 0.78789 0.0
C281 C 0.95522 0.54305 0.82945 0.0
O282 O 0.95864 0.5223 0.80237 0.0
C283 C 0.94256 0.56159 0.73772 0.0
O284 O 0.95278 0.59126 0.75702 0.0
O285 O 0.86996 0.49693 0.79556 0.0
C286 C 0.72789 0.46554 0.52744 0.0
O287 O 0.74972 0.4673 0.55233 0.0
O288 O 0.76271 0.38469 0.53404 0.0
Zn289 Zn 0.76004 0.41426 0.4963 0.0
O290 O 0.7534 0.38353 0.45218 0.0
C291 C 0.82492 0.42876 0.48726 0.0
O292 O 0.8178 0.39454 0.4807 0.0
O293 O 0.72719 0.44389 0.50125 0.0
C294 C 0.74108 0.35104 0.44781 0.0
O295 O 0.72738 0.33543 0.4728 0.0
C296 C 0.7391 0.36685 0.54697 0.0
O297 O 0.70991 0.36895 0.53671 0.0
O298 O 0.80304 0.44492 0.49584 0.0
C299 C 0.70003 0.46585 0.2687 0.0
O300 O 0.69304 0.47903 0.24071 0.0
O301 O 0.63706 0.51044 0.25134 0.0
Zn302 Zn 0.66184 0.51446 0.29755 0.0
O303 O 0.63121 0.50988 0.33653 0.0
C304 C 0.68192 0.5871 0.28892 0.0
O305 O 0.65272 0.58088 0.27481 0.0
O306 O 0.68926 0.47671 0.29643 0.0
C307 C 0.61868 0.5351 0.34846 0.0
O308 O 0.6263 0.56544 0.33636 0.0
C309 C 0.60899 0.51628 0.24643 0.0
O310 O 0.59257 0.52235 0.27287 0.0
O311 O 0.69161 0.56262 0.30257 0.0
Dy312 Dy 0.99458 0.0198 0.00453 0.0
C313 C 0.13026 0.04436 0.02378 0.0
C314 C 0.93087 0.01948 0.00632 0.0
Dy315 Dy 0.06681 0.04709 0.02602 0.0
O316 O 0.94427 0.00728 0.98009 0.0
O317 O 0.95218 0.03046 0.03135 0.0
O318 O 0.00774 0.99128 0.95589 0.0
O319 O 0.03726 0.03726 0.97918 0.0
C320 C 0.03521 0.01295 0.95561 0.0
C321 C 0.02703 0.05681 0.07457 0.0
O322 O 0.05788 0.09584 0.00594 0.0
O323 O 1.00242 0.07773 0.99878 0.0
O324 O 0.11354 0.04033 0.05032 0.0
O325 O 0.11276 0.05364 1.0001 0.0
O326 O 0.055 0.07736 0.07326 0.0
O327 O 0.02386 0.03074 0.05231 0.0
O328 O 1.00391 0.97207 0.0261 0.0
O329 O 0.05896 0.98821 0.02382 0.0
C330 C 0.02905 0.10191 0.99804 0.0
C331 C 0.03293 0.96489 0.02876 0.0
Dy332 Dy 0.28396 0.76624 0.20831 0.0
C333 C 0.27965 0.75241 0.35016 0.0
C334 C 0.27827 0.77835 0.14213 0.0
Dy335 Dy 0.27421 0.76934 0.28531 0.0
O336 O 0.30488 0.78583 0.16106 0.0
O337 O 0.25524 0.76321 0.15915 0.0
O338 O 0.32613 0.74028 0.21592 0.0
O339 O 0.31512 0.77585 0.25445 0.0
C340 C 0.33277 0.75437 0.24727 0.0
C341 C 0.22537 0.78194 0.24725 0.0
O342 O 0.30162 0.82383 0.28227 0.0
O343 O 0.28806 0.82311 0.22493 0.0
O344 O 0.26069 0.77205 0.33978 0.0
O345 O 0.29593 0.74292 0.32531 0.0
O346 O 0.23183 0.79506 0.27891 0.0
O347 O 0.24298 0.76045 0.23958 0.0
O348 O 0.26128 0.71072 0.20809 0.0
O349 O 0.25934 0.71166 0.26684 0.0
C350 C 0.30046 0.84012 0.25446 0.0
C351 C 0.25487 0.69482 0.23563 0.0
Dy352 Dy 0.54627 0.01242 0.51923 0.0
C353 C 0.41306 0.02718 0.51058 0.0
C354 C 0.60527 0.99677 0.53182 0.0
Dy355 Dy 0.47094 0.00816 0.52175 0.0
O356 O 0.59753 0.01304 0.50654 0.0
O357 O 0.58095 0.98977 0.55039 0.0
O358 O 0.54604 0.03987 0.47156 0.0
O359 O 0.50539 0.00471 0.48387 0.0
C360 C 0.51575 0.02673 0.46407 0.0
C361 C 0.5015 0.99383 0.57723 0.0
O362 O 0.46994 0.95505 0.49456 0.0
O363 O 0.52424 0.9549 0.50505 0.0
O364 O 0.41956 0.00776 0.53383 0.0
O365 O 0.43783 0.03486 0.49271 0.0
O366 O 0.47138 0.98023 0.56911 0.0
O367 O 0.51188 0.016 0.55744 0.0
O368 O 0.54767 0.06721 0.54219 0.0
O369 O 0.49272 0.0655 0.53403 0.0
C370 C 0.49452 0.93871 0.49402 0.0
C371 C 0.52253 0.08254 0.54284 0.0
Dy372 Dy 0.22857 0.27595 0.75922 0.0
C373 C 0.3637 0.29016 0.74811 0.0
C374 C 0.16715 0.26278 0.77859 0.0
Dy375 Dy 0.30043 0.27732 0.76094 0.0
O376 O 0.17709 0.28209 0.75471 0.0
O377 O 0.19045 0.24989 0.7907 0.0
O378 O 0.23399 0.32121 0.72811 0.0
O379 O 0.2714 0.31728 0.76305 0.0
C380 C 0.26354 0.33373 0.73918 0.0
C381 C 0.26404 0.21897 0.77941 0.0
O382 O 0.29971 0.30254 0.81393 0.0
O383 O 0.24437 0.29264 0.8147 0.0
O384 O 0.34758 0.26066 0.75601 0.0
O385 O 0.34527 0.31279 0.74757 0.0
O386 O 0.29309 0.23156 0.79221 0.0
O387 O 0.25741 0.2364 0.75596 0.0
O388 O 0.23044 0.24697 0.70779 0.0
O389 O 0.28535 0.26485 0.70491 0.0
C390 C 0.27335 0.30302 0.83033 0.0
C391 C 0.25653 0.25055 0.69021 0.0
Dy392 Dy 0.01399 0.00543 0.46994 0.0
C393 C 0.06574 0.0388 0.61086 0.0
C394 C 0.97806 0.99601 0.40984 0.0
Dy395 Dy 0.03408 0.03257 0.54831 0.0
O396 O 1.00179 0.98055 0.416 0.0
O397 O 0.97308 0.01491 0.43716 0.0
O398 O 0.06402 0.01816 0.45051 0.0
O399 O 0.05628 0.02936 0.50087 0.0
C400 C 0.07767 0.03213 0.47998 0.0
C401 C 0.97046 0.01474 0.53066 0.0
O402 O 0.04209 0.08362 0.52619 0.0
O403 O 0.00989 0.06206 0.4767 0.0
O404 O 0.03769 0.04621 0.60529 0.0
O405 O 0.07676 0.02944 0.58214 0.0
O406 O 0.98316 0.03874 0.55523 0.0
O407 O 0.99234 1.00072 0.51877 0.0
O408 O 0.01355 0.95335 0.48988 0.0
O409 O 0.03448 0.97513 0.54515 0.0
C410 C 0.02652 0.08848 0.49783 0.0
C411 C 0.02421 0.94874 0.52097 0.0
Dy412 Dy 0.31779 0.79297 0.76766 0.0
C413 C 0.18673 0.74841 0.71457 0.0
C414 C 0.37419 0.80134 0.80583 0.0
Dy415 Dy 0.24626 0.76106 0.74691 0.0
O416 O 0.37073 0.81628 0.77823 0.0
O417 O 0.34688 0.7831 0.81264 0.0
O418 O 0.32828 0.80133 0.71355 0.0
O419 O 0.29144 0.76097 0.72386 0.0
C420 C 0.3037 0.77776 0.70063 0.0
C421 C 0.26082 0.77924 0.81412 0.0
O422 O 0.26545 0.71141 0.74189 0.0
O423 O 0.31268 0.73548 0.77425 0.0
O424 O 0.19405 0.73478 0.7418 0.0
O425 O 0.21225 0.76749 0.70434 0.0
O426 O 0.23685 0.75448 0.80214 0.0
O427 O 0.27273 0.79414 0.78979 0.0
O428 O 0.29783 0.84246 0.77107 0.0
O429 O 0.251 0.81789 0.73796 0.0
C430 C 0.29197 0.70797 0.75894 0.0
C431 C 0.27136 0.84559 0.75351 0.0
Dy432 Dy 0.53174 0.02291 0.06275 0.0
C433 C 0.54155 0.01163 0.91438 0.0
C434 C 0.51913 0.04787 0.12575 0.0
Dy435 Dy 0.52842 0.01945 0.98079 0.0
O436 O 0.50357 0.05096 0.09767 0.0
O437 O 0.54194 0.03082 0.11952 0.0
O438 O 0.5405 0.96761 0.06583 0.0
O439 O 0.5372 0.98803 0.01995 0.0
C440 C 0.54186 0.96147 0.03298 0.0
C441 C 0.50847 0.0725 0.01508 0.0
O442 O 0.48068 0.98668 0.9882 0.0
O443 O 0.48018 0.00279 0.04667 0.0
O444 O 0.53147 0.98583 0.93214 0.0
O445 O 0.54342 0.04134 0.93276 0.0
O446 O 0.49676 0.0592 0.98462 0.0
O447 O 0.53129 0.05857 0.02387 0.0
O448 O 0.58069 0.05174 0.05577 0.0
O449 O 0.58088 0.03804 0.99662 0.0
C450 C 0.46599 0.98739 0.01711 0.0
C451 C 0.5952 0.05142 0.02688 0.0
Dy452 Dy 0.29005 0.32859 0.27573 0.0
C453 C 0.27279 0.17705 0.25963 0.0
C454 C 0.28087 0.39135 0.25956 0.0
Dy455 Dy 0.26994 0.24549 0.25834 0.0
O456 O 0.30082 0.38762 0.2843 0.0
O457 O 0.26675 0.36119 0.24431 0.0
O458 O 0.30408 0.32888 0.33222 0.0
O459 O 0.28635 0.28296 0.30132 0.0
C460 C 0.29572 0.29485 0.33151 0.0
C461 C 0.25695 0.28437 0.20937 0.0
O462 O 0.22747 0.25501 0.28659 0.0
O463 O 0.23827 0.31576 0.28702 0.0
O464 O 0.26731 0.19136 0.23225 0.0
O465 O 0.27559 0.20002 0.28599 0.0
O466 O 0.23917 0.25394 0.21318 0.0
O467 O 0.28088 0.29063 0.23057 0.0
O468 O 0.33584 0.31983 0.2555 0.0
O469 O 0.32302 0.25845 0.24838 0.0
C470 C 0.21987 0.28609 0.29381 0.0
C471 C 0.34342 0.28895 0.24718 0.0
Dy472 Dy 0.51067 0.51066 0.97433 0.0
C473 C 0.56007 0.5404 0.11257 0.0
C474 C 0.47873 0.50454 0.91197 0.0
Dy475 Dy 0.52865 0.53522 0.0499 0.0
O476 O 0.50431 0.49216 0.91809 0.0
O477 O 0.47016 0.51879 0.9401 0.0
O478 O 0.56176 0.50651 0.96529 0.0
O479 O 0.55226 0.5431 0.003 0.0
C480 C 0.5742 0.52979 0.99046 0.0
C481 C 0.46529 0.51766 0.03326 0.0
O482 O 0.53509 0.58832 0.0309 0.0
O483 O 0.50752 0.5679 0.97874 0.0
O484 O 0.53254 0.54903 0.10691 0.0
O485 O 0.57091 0.53076 0.08382 0.0
O486 O 0.47801 0.54102 0.05825 0.0
O487 O 0.48667 0.50302 0.02109 0.0
O488 O 0.5048 0.45768 0.99365 0.0
O489 O 0.53322 0.47872 0.04509 0.0
C490 C 0.52136 0.59414 1.00174 0.0
C491 C 0.51947 0.45229 0.02241 0.0
Dy492 Dy 0.81131 0.2959 0.27471 0.0
C493 C 0.68422 0.24969 0.21148 0.0
C494 C 0.86763 0.30754 0.31372 0.0
Dy495 Dy 0.74132 0.26177 0.24909 0.0
O496 O 0.86418 0.31915 0.28432 0.0
O497 O 0.84019 0.29084 0.32203 0.0
O498 O 0.82372 0.30631 0.22127 0.0
O499 O 0.78814 0.26383 0.22942 0.0
C500 C 0.80123 0.28105 0.20688 0.0
C501 C 0.75162 0.27654 0.31687 0.0
O502 O 0.76244 0.21315 0.24576 0.0
O503 O 0.8079 0.23844 0.2807 0.0
O504 O 0.68856 0.23778 0.24055 0.0
O505 O 0.71126 0.26685 0.20262 0.0
O506 O 0.72929 0.25111 0.30253 0.0
O507 O 0.76446 0.29382 0.29427 0.0
O508 O 0.79032 0.34459 0.27779 0.0
O509 O 0.7447 0.31925 0.24306 0.0
C510 C 0.78864 0.21055 0.26402 0.0
C511 C 0.76401 0.34716 0.25967 0.0
Dy512 Dy 0.01949 0.52353 0.54632 0.0
C513 C 0.04357 0.51571 0.40462 0.0
C514 C 1.00116 0.53368 0.61097 0.0
Dy515 Dy 0.02602 0.52647 0.46918 0.0
O516 O 0.01474 0.55833 0.59361 0.0
O517 O 0.99833 0.50345 0.59326 0.0
O518 O 0.04352 0.47672 0.54378 0.0
O519 O 0.01539 0.48562 0.50213 0.0
C520 C 0.03383 0.46683 0.51202 0.0
C521 C 0.00957 0.58227 0.50174 0.0
O522 O 0.97635 0.49575 0.46871 0.0
O523 O 0.96867 0.51575 0.5242 0.0
O524 O 0.02586 0.53764 0.41465 0.0
O525 O 0.05163 0.49978 0.42983 0.0
O526 O 1.00118 0.57177 0.46989 0.0
O527 O 0.02893 0.56495 0.513 0.0
O528 O 0.07155 0.54678 0.54887 0.0
O529 O 0.07714 0.54034 0.49044 0.0
C530 C 0.95735 0.50006 0.49364 0.0
C531 C 0.08942 0.54821 0.5223 0.0
Dy532 Dy 0.74203 0.78082 0.25645 0.0
C533 C 0.87595 0.77503 0.25076 0.0
C534 C 0.67867 0.77057 0.26958 0.0
Dy535 Dy 0.8128 0.77409 0.2611 0.0
O536 O 0.69258 0.79254 0.24957 0.0
O537 O 0.69935 0.75414 0.28197 0.0
O538 O 0.75195 0.82751 0.22761 0.0
O539 O 0.78794 0.81776 0.26148 0.0
C540 C 0.78211 0.83564 0.23785 0.0
C541 C 0.7699 0.71861 0.27622 0.0
O542 O 0.81153 0.79928 0.31393 0.0
O543 O 0.75652 0.79615 0.31251 0.0
O544 O 0.8536 0.74718 0.2498 0.0
O545 O 0.86388 0.80258 0.25809 0.0
O546 O 0.79851 0.72786 0.29112 0.0
O547 O 0.76694 0.73787 0.25319 0.0
O548 O 0.74516 0.75346 0.20437 0.0
O549 O 0.80054 0.76886 0.20473 0.0
C550 C 0.7852 0.80316 0.32918 0.0
C551 C 0.77218 0.75655 0.18839 0.0
Dy552 Dy 0.76376 0.26426 0.71838 0.0
C553 C 0.76013 0.25128 0.86075 0.0
C554 C 0.75753 0.28022 0.65339 0.0
Dy555 Dy 0.75299 0.26852 0.79653 0.0
O556 O 0.73417 0.27066 0.67242 0.0
O557 O 0.78463 0.27957 0.66945 0.0
O558 O 0.80474 0.23653 0.72646 0.0
O559 O 0.79336 0.27202 0.76488 0.0
C560 C 0.81059 0.24998 0.75817 0.0
C561 C 0.70672 0.28361 0.75683 0.0
O562 O 0.78172 0.32225 0.79511 0.0
O563 O 0.77466 0.32183 0.73639 0.0
O564 O 0.73591 0.2634 0.84923 0.0
O565 O 0.7803 0.24945 0.83749 0.0
O566 O 0.71262 0.2972 0.78851 0.0
O567 O 0.72361 0.26122 0.75023 0.0
O568 O 0.73787 0.20948 0.71871 0.0
O569 O 0.73521 0.21129 0.77778 0.0
C570 C 0.78506 0.33812 0.76699 0.0
C571 C 0.73009 0.19443 0.74656 0.0
Dy572 Dy 0.79165 0.82116 0.77423 0.0
C573 C 0.77211 0.67478 0.75597 0.0
C574 C 0.79059 0.88957 0.76956 0.0
Dy575 Dy 0.7701 0.7432 0.75259 0.0
O576 O 0.79342 0.87598 0.79803 0.0
O577 O 0.79058 0.866 0.74428 0.0
O578 O 0.81622 0.81051 0.8226 0.0
O579 O 0.77465 0.77603 0.80056 0.0
C580 C 0.79655 0.78063 0.824 0.0
C581 C 0.76525 0.78413 0.70288 0.0
O582 O 0.72347 0.75173 0.77177 0.0
O583 O 0.73771 0.81231 0.77596 0.0
O584 O 0.7637 0.68751 0.72855 0.0
O585 O 0.77793 0.69921 0.78121 0.0
O586 O 0.74551 0.75433 0.70431 0.0
O587 O 0.78714 0.78823 0.72624 0.0
O588 O 0.83882 0.81335 0.75726 0.0
O589 O 0.82402 0.7528 0.74819 0.0
C590 C 0.71618 0.78306 0.77756 0.0
C591 C 0.84585 0.78233 0.749 0.0
Dy592 Dy 0.48597 0.51181 0.50283 0.0
C593 C 0.62309 0.53807 0.53026 0.0
C594 C 0.4225 0.50853 0.50971 0.0
Dy595 Dy 0.55916 0.53684 0.5239 0.0
O596 O 0.43404 0.49079 0.48523 0.0
O597 O 0.44562 0.52655 0.53032 0.0
O598 O 0.49535 0.51844 0.44788 0.0
O599 O 0.53055 0.5064 0.48058 0.0
C600 C 0.52492 0.51475 0.45135 0.0
C601 C 0.51827 0.55218 0.57015 0.0
O602 O 0.55096 0.58035 0.49471 0.0
O603 O 0.49616 0.56997 0.50006 0.0
O604 O 0.60402 0.53546 0.55501 0.0
O605 O 0.60734 0.5418 0.50246 0.0
O606 O 0.54608 0.57234 0.56754 0.0
O607 O 0.5155 0.52498 0.54983 0.0
O608 O 0.49504 0.46114 0.51936 0.0
O609 O 0.55061 0.47957 0.52943 0.0
C610 C 0.52291 0.58959 0.49124 0.0
C611 C 0.52393 0.45522 0.52779 0.0
Dy612 Dy 0.05335 0.52207 0.00958 0.0
C613 C 0.91938 0.53543 0.99596 0.0
C614 C 0.11245 0.50696 0.0231 0.0
Dy615 Dy 0.97839 0.5196 0.00732 0.0
O616 O 0.09835 0.50521 0.99301 0.0
O617 O 0.09458 0.51801 0.04577 0.0
O618 O 0.05823 0.55458 0.96546 0.0
O619 O 0.01508 0.51985 0.97112 0.0
C620 C 0.02812 0.54447 0.95514 0.0
C621 C 1.00322 0.49655 0.06138 0.0
O622 O 0.97963 0.46942 0.97582 0.0
O623 O 0.02997 0.46493 0.99805 0.0
O624 O 0.92544 0.5116 0.01452 0.0
O625 O 0.94547 0.54982 0.98282 0.0
O626 O 0.97305 0.48701 0.05145 0.0
O627 O 0.01648 0.52111 0.04548 0.0
O628 O 0.05449 0.57623 0.03424 0.0
O629 O 0.99967 0.57565 0.02623 0.0
C630 C 1.00217 0.4511 0.98087 0.0
C631 C 0.02949 0.59171 0.03626 0.0
C632 C 0.9928 0.16571 0.95005 0.0
C633 C 0.01964 0.19046 0.94293 0.0
C634 C 0.99598 0.13844 0.96956 0.0
C635 C 0.02619 0.13447 0.98261 0.0
H636 H 0.96911 0.16691 0.93992 0.0
H637 H 0.9745 0.11962 0.97332 0.0
S638 S 0.10395 0.19398 0.97342 0.0
N639 N 0.07738 0.21057 0.95231 0.0
N640 N 0.08335 0.15928 0.9887 0.0
C641 C 0.05312 0.15997 0.97692 0.0
C642 C 0.04985 0.1879 0.95715 0.0
C643 C 0.16165 0.76535 0.17456 0.0
C644 C 0.14216 0.78952 0.18334 0.0
C645 C 0.18845 0.76333 0.19533 0.0
C646 C 0.19732 0.78573 0.22558 0.0
H647 H 0.1558 0.74706 0.15177 0.0
H648 H 0.20188 0.74344 0.18791 0.0
S649 S 0.15555 0.85487 0.25965 0.0
N650 N 0.13423 0.83705 0.22424 0.0
N651 N 0.18513 0.83362 0.26299 0.0
C652 C 0.17854 0.81051 0.2345 0.0
C653 C 0.1509 0.81237 0.21345 0.0
C654 C 0.51416 0.85704 0.44705 0.0
C655 C 0.48395 0.83658 0.43587 0.0
C656 C 0.51716 0.88926 0.46687 0.0
C657 C 0.49009 0.90274 0.47606 0.0
H658 H 0.53579 0.8482 0.44035 0.0
H659 H 0.54111 0.90406 0.47423 0.0
S660 S 0.4053 0.85892 0.45383 0.0
N661 N 0.42625 0.83164 0.43609 0.0
N662 N 0.43186 0.89233 0.47305 0.0
C663 C 0.45965 0.88224 0.46551 0.0
C664 C 0.4566 0.84918 0.44553 0.0
C665 C 0.44042 0.33315 0.71196 0.0
C666 C 0.45726 0.30574 0.70764 0.0
C667 C 0.41065 0.32826 0.72631 0.0
C668 C 0.39673 0.29587 0.73706 0.0
H669 H 0.44967 0.35824 0.70305 0.0
H670 H 0.39804 0.34972 0.72801 0.0
S671 S 0.43256 0.21693 0.73513 0.0
N672 N 0.45893 0.24588 0.71802 0.0
N673 N 0.40304 0.23684 0.74504 0.0
C674 C 0.41399 0.26881 0.73457 0.0
C675 C 0.44424 0.27371 0.71983 0.0
C676 C 0.0198 0.87621 0.57859 0.0
C677 C 0.01345 0.84532 0.55611 0.0
C678 C 0.02378 0.90909 0.56669 0.0
C679 C 0.02129 0.91289 0.53165 0.0
H680 H 0.02196 0.87517 0.60582 0.0
H681 H 0.02841 0.93174 0.58554 0.0
S682 S 0.00474 0.8402 0.46182 0.0
N683 N 0.00491 0.82045 0.49683 0.0
N684 N 0.01197 0.88258 0.47444 0.0
C685 C 0.01486 0.88224 0.50871 0.0
C686 C 0.0111 0.84847 0.52092 0.0
C687 C 0.43068 0.78054 0.87331 0.0
C688 C 0.46112 0.79075 0.86091 0.0
C689 C 0.40304 0.78535 0.85574 0.0
C690 C 0.40454 0.8008 0.82509 0.0
H691 H 0.42796 0.76808 0.89656 0.0
H692 H 0.38016 0.77627 0.86609 0.0
S693 S 0.47838 0.83457 0.78272 0.0
N694 N 0.49128 0.81881 0.81674 0.0
N695 N 0.439 0.82787 0.78371 0.0
C696 C 0.4348 0.81222 0.81279 0.0
C697 C 0.46314 0.80711 0.83066 0.0
C698 C 0.4629 0.14339 0.04279 0.0
C699 C 0.48408 0.16476 0.06801 0.0
C700 C 0.47084 0.11334 0.02586 0.0
C701 C 0.49986 0.10329 0.03418 0.0
H702 H 0.44044 0.1504 0.0355 0.0
H703 H 0.45419 0.09794 0.00608 0.0
S704 S 0.56232 0.14885 0.10042 0.0
N705 N 0.53454 0.17275 0.10174 0.0
N706 N 0.54916 0.11629 0.07039 0.0
C707 C 0.52072 0.12383 0.06014 0.0
C708 C 0.5129 0.15458 0.07695 0.0
C709 C 0.13987 0.26149 0.33407 0.0
C710 C 0.13762 0.29275 0.35372 0.0
C711 C 0.16625 0.25947 0.31436 0.0
C712 C 0.19102 0.28884 0.313 0.0
H713 H 0.12153 0.23814 0.33458 0.0
H714 H 0.16729 0.23467 0.30026 0.0
S715 S 0.19544 0.37754 0.35854 0.0
N716 N 0.16179 0.35399 0.36968 0.0
N717 N 0.21089 0.35062 0.33271 0.0
C718 C 0.1885 0.32053 0.33194 0.0
C719 C 0.16196 0.32237 0.35228 0.0
C720 C 0.95903 0.0344 0.13323 0.0
C721 C 0.96239 0.06498 0.15612 0.0
C722 C 0.9798 0.03205 0.10684 0.0
C723 C 0.00475 0.06021 0.10207 0.0
H724 H 0.94043 0.01183 0.1359 0.0
H725 H 0.97648 0.00775 0.09032 0.0
S726 S 0.02331 0.14671 0.1537 0.0
N727 N 0.99244 0.12451 0.17131 0.0
N728 N 0.0311 0.11998 0.12178 0.0
C729 C 0.00817 0.09106 0.12437 0.0
C730 C 0.9871 0.09349 0.1513 0.0
C731 C 0.29952 0.69893 0.41956 0.0
C732 C 0.27398 0.69903 0.44081 0.0
C733 C 0.30193 0.71769 0.39108 0.0
C734 C 0.27911 0.73755 0.38303 0.0
H735 H 0.31723 0.68331 0.42424 0.0
H736 H 0.32136 0.7158 0.37473 0.0
S737 S 0.20967 0.74975 0.43253 0.0
N738 N 0.22679 0.72302 0.45331 0.0
N739 N 0.23156 0.75841 0.39986 0.0
C740 C 0.25441 0.73941 0.40497 0.0
C741 C 0.25175 0.72005 0.43382 0.0
C742 C 0.52994 0.94644 0.64817 0.0
C743 C 0.56012 0.96746 0.65856 0.0
C744 C 0.51079 0.95512 0.62184 0.0
C745 C 0.52105 0.98542 0.60567 0.0
H746 H 0.52123 0.92307 0.66027 0.0
H747 H 0.48795 0.93796 0.61401 0.0
S748 S 0.59637 0.05143 0.62665 0.0
N749 N 0.59842 0.02099 0.65216 0.0
N750 N 0.56195 0.03803 0.60414 0.0
C751 C 0.55065 0.00725 0.6168 0.0
C752 C 0.57036 0.99805 0.64285 0.0
C753 C 0.3098 0.33497 0.92047 0.0
C754 C 0.28364 0.34207 0.93848 0.0
C755 C 0.30622 0.32238 0.88575 0.0
C756 C 0.27625 0.31604 0.86737 0.0
H757 H 0.33353 0.33977 0.9331 0.0
H758 H 0.32727 0.31769 0.87326 0.0
S759 S 0.19966 0.32915 0.90275 0.0
N760 N 0.2264 0.34092 0.93529 0.0
N761 N 0.21958 0.3172 0.87036 0.0
C762 C 0.2497 0.32241 0.88522 0.0
C763 C 0.2534 0.33541 0.92059 0.0
C764 C 0.93405 0.02957 0.33877 0.0
C765 C 0.94089 0.01002 0.30926 0.0
C766 C 0.94512 0.0238 0.37123 0.0
C767 C 0.96368 0.9984 0.37558 0.0
H768 H 0.92 0.04956 0.3369 0.0
H769 H 0.93965 0.04 0.39305 0.0
S770 S 0.98783 0.93944 0.30701 0.0
N771 N 0.96702 0.96343 0.28684 0.0
N772 N 0.98793 0.95304 0.34782 0.0
C773 C 0.97042 0.97835 0.34647 0.0
C774 C 0.95904 0.98406 0.31336 0.0
C775 C 0.27509 0.74537 0.60974 0.0
C776 C 0.29277 0.71912 0.60193 0.0
C777 C 0.27967 0.76555 0.64145 0.0
C778 C 0.3024 0.76051 0.66604 0.0
H779 H 0.2569 0.74975 0.59166 0.0
H780 H 0.26479 0.78453 0.64708 0.0
S781 S 0.35572 0.69668 0.6586 0.0
N782 N 0.33469 0.6902 0.62169 0.0
N783 N 0.34312 0.72844 0.6811 0.0
C784 C 0.32079 0.7352 0.65852 0.0
C785 C 0.31606 0.71444 0.62644 0.0
C786 C 0.5931 0.03676 0.84264 0.0
C787 C 0.59408 0.0044 0.82455 0.0
C788 C 0.57431 0.0388 0.87042 0.0
C789 C 0.55611 0.00851 0.88151 0.0
H790 H 0.60729 0.06081 0.83559 0.0
H791 H 0.57516 0.0643 0.8841 0.0
S792 S 0.54845 0.91752 0.84139 0.0
N793 N 0.57363 0.94144 0.81822 0.0
N794 N 0.53845 0.94531 0.87108 0.0
C795 C 0.55573 0.97603 0.86288 0.0
C796 C 0.57471 0.97396 0.83421 0.0
C797 C 0.22391 0.31273 0.12767 0.0
C798 C 0.24925 0.33855 0.11869 0.0
C799 C 0.22643 0.2957 0.15713 0.0
C800 C 0.25431 0.30386 0.17909 0.0
H801 H 0.20193 0.30523 0.11163 0.0
H802 H 0.20638 0.27583 0.16264 0.0
S803 S 0.3275 0.36993 0.16799 0.0
N804 N 0.3031 0.37181 0.13501 0.0
N805 N 0.30785 0.33975 0.18983 0.0
C806 C 0.27973 0.32985 0.17067 0.0
C807 C 0.27721 0.34717 0.14068 0.0
C808 C 0.20112 0.99932 0.02545 0.0
C809 C 0.19056 0.96991 1.00125 0.0
C810 C 0.18195 0.02416 0.03249 0.0
C811 C 0.15217 0.02081 0.01476 0.0
H812 H 0.22398 0.00272 0.03968 0.0
H813 H 0.19031 0.04584 0.05196 0.0
S814 S 0.11344 0.94873 0.94939 0.0
N815 N 0.14816 0.93901 0.95996 0.0
N816 N 0.11265 0.98579 0.97259 0.0
C817 C 0.14159 0.99186 0.99026 0.0
C818 C 0.16067 0.96637 0.98362 0.0
C819 C 0.6469 0.60133 0.01712 0.0
C820 C 0.66996 0.59386 0.9947 0.0
C821 C 0.61673 0.57937 0.01662 0.0
C822 C 0.60802 0.54906 0.99342 0.0
H823 H 0.65196 0.62469 0.03511 0.0
H824 H 0.59978 0.58689 0.03399 0.0
S825 S 0.66027 0.51591 0.93103 0.0
N826 N 0.68266 0.55254 0.95005 0.0
N827 N 0.62561 0.51138 0.94883 0.0
C828 C 0.63118 0.54035 0.97175 0.0
C829 C 0.66219 0.56271 0.97243 0.0
C830 C 0.72058 0.41784 0.23568 0.0
C831 C 0.71887 0.4375 0.26708 0.0
C832 C 0.73648 0.38965 0.2333 0.0
C833 C 0.75219 0.38046 0.262 0.0
H834 H 0.70859 0.42346 0.2128 0.0
H835 H 0.73594 0.37444 0.20884 0.0
S836 S 0.75604 0.42397 0.35003 0.0
N837 N 0.73501 0.44598 0.32752 0.0
N838 N 0.76548 0.39357 0.32275 0.0
C839 C 0.75166 0.40054 0.29334 0.0
C840 C 0.73485 0.42885 0.29596 0.0
C841 C 0.86873 0.47998 0.50643 0.0
C842 C 0.85817 0.44785 0.48627 0.0
C843 C 0.90082 0.49724 0.508 0.0
C844 C 0.92322 0.48334 0.48889 0.0
H845 H 0.85236 0.49132 0.52201 0.0
H846 H 0.90821 0.52142 0.52463 0.0
S847 S 0.90719 0.40101 0.43044 0.0
N848 N 0.87226 0.40349 0.44573 0.0
N849 N 0.93248 0.43626 0.44818 0.0
C850 C 0.91272 0.45191 0.4676 0.0
C851 C 0.88019 0.43405 0.46646 0.0
C852 C 0.31769 0.11324 0.29272 0.0
C853 C 0.32573 0.09571 0.2627 0.0
C854 C 0.29749 0.1371 0.29157 0.0
C855 C 0.28504 0.14465 0.26033 0.0
H856 H 0.32806 0.10956 0.31725 0.0
H857 H 0.29346 0.15144 0.31525 0.0
S858 S 0.2947 0.10173 0.17488 0.0
N859 N 0.31639 0.08405 0.20114 0.0
N860 N 0.2787 0.12963 0.19903 0.0
C861 C 0.29059 0.12515 0.23034 0.0
C862 C 0.31098 0.1005 0.23151 0.0
C863 C 0.35692 0.08613 0.48484 0.0
C864 C 0.33192 0.0796 0.50694 0.0
C865 C 0.38243 0.06821 0.48541 0.0
C866 C 0.38412 0.04298 0.50812 0.0
H867 H 0.35714 0.10566 0.46723 0.0
H868 H 0.40137 0.0748 0.46838 0.0
S869 S 0.32424 0.01452 0.57016 0.0
N870 N 0.31012 0.04467 0.55139 0.0
N871 N 0.35797 0.01143 0.55239 0.0
C872 C 0.35898 0.03551 0.52975 0.0
C873 C 0.33296 0.05368 0.52919 0.0
C874 C 0.73254 0.63147 0.30678 0.0
C875 C 0.70352 0.62138 0.28667 0.0
C876 C 0.75364 0.66332 0.30382 0.0
C877 C 0.74668 0.686 0.28038 0.0
H878 H 0.73906 0.61463 0.32486 0.0
H879 H 0.77577 0.66996 0.31969 0.0
S880 S 0.67408 0.67165 0.22135 0.0
N881 N 0.66896 0.63702 0.24259 0.0
N882 N 0.70883 0.69588 0.23645 0.0
C883 C 0.71773 0.67623 0.2602 0.0
C884 C 0.69611 0.6442 0.26351 0.0
C885 C 0.83329 0.42711 0.80263 0.0
C886 C 0.85219 0.4369 0.7756 0.0
C887 C 0.81077 0.39548 0.79943 0.0
C888 C 0.80586 0.3732 0.76878 0.0
H889 H 0.8365 0.44356 0.82665 0.0
H890 H 0.79741 0.38827 0.82119 0.0
S891 S 0.84792 0.38875 0.68961 0.0
N892 N 0.86368 0.42302 0.71687 0.0
N893 N 0.8211 0.36407 0.71038 0.0
C894 C 0.8239 0.38351 0.74116 0.0
C895 C 0.8472 0.41525 0.74471 0.0
C896 C 0.07496 0.89428 0.05619 0.0
C897 C 0.05206 0.87408 0.07456 0.0
C898 C 0.06794 0.9224 0.03999 0.0
C899 C 0.03765 0.93154 0.04127 0.0
H900 H 0.09891 0.8891 0.05511 0.0
H901 H 0.08688 0.93774 0.0272 0.0
S902 S 0.96812 0.88505 0.08338 0.0
N903 N 0.99689 0.86368 0.09096 0.0
N904 N 0.98384 0.9165 0.06062 0.0
C905 C 0.01397 0.91048 0.05808 0.0
C906 C 0.02115 0.88185 0.07471 0.0
C907 C 0.87227 0.26934 0.83279 0.0
C908 C 0.8926 0.24581 0.8254 0.0
C909 C 0.846 0.27026 0.81082 0.0
C910 C 0.83834 0.24716 0.78081 0.0
H911 H 0.87712 0.28803 0.85535 0.0
H912 H 0.83186 0.28973 0.81733 0.0
S913 S 0.88304 0.17946 0.75011 0.0
N914 N 0.90303 0.19835 0.78596 0.0
N915 N 0.85284 0.1995 0.74502 0.0
C916 C 0.85807 0.22306 0.77321 0.0
C917 C 0.88531 0.22246 0.79543 0.0
C918 C 0.55722 0.18 0.55952 0.0
C919 C 0.53435 0.19227 0.57941 0.0
C920 C 0.55377 0.14426 0.54835 0.0
C921 C 0.52696 0.11981 0.55603 0.0
H922 H 0.57816 0.19805 0.55296 0.0
H923 H 0.57186 0.13581 0.53309 0.0
S924 S 0.46034 0.13851 0.6073 0.0
N925 N 0.4842 0.17703 0.60653 0.0
N926 N 0.4774 0.1102 0.58506 0.0
C927 C 0.50392 0.13179 0.5758 0.0
C928 C 0.5077 0.16793 0.58763 0.0
C929 C 0.59693 0.79177 0.28355 0.0
C930 C 0.58353 0.76698 0.30514 0.0
C931 C 0.6273 0.79205 0.2712 0.0
C932 C 0.64542 0.76754 0.27992 0.0
H933 H 0.58426 0.81172 0.27674 0.0
H934 H 0.63698 0.81223 0.25546 0.0
S935 S 0.62011 0.69478 0.33253 0.0
N936 N 0.59002 0.71552 0.33252 0.0
N937 N 0.64694 0.71618 0.30929 0.0
C938 C 0.63188 0.74176 0.30032 0.0
C939 C 0.60099 0.74145 0.31294 0.0
C940 C 0.06041 0.18446 0.48977 0.0
C941 C 0.04135 0.19179 0.46249 0.0
C942 C 0.05465 0.15149 0.50202 0.0
C943 C 0.02958 0.12443 0.48749 0.0
H944 H 0.08053 0.20404 0.50131 0.0
H945 H 0.07072 0.14691 0.52225 0.0
S946 S 0.97054 0.13107 0.41776 0.0
N947 N 0.99482 0.16981 0.42296 0.0
N948 N 0.98393 0.10815 0.44595 0.0
C949 C 0.00949 0.13186 0.46113 0.0
C950 C 0.01537 0.1654 0.44865 0.0
C951 C 0.62388 0.26423 0.14435 0.0
C952 C 0.59475 0.2583 0.1603 0.0
C953 C 0.65242 0.26015 0.16077 0.0
C954 C 0.65299 0.24947 0.19363 0.0
H955 H 0.62486 0.27277 0.11912 0.0
H956 H 0.67433 0.26594 0.14773 0.0
S957 S 0.58309 0.22828 0.24585 0.0
N958 N 0.56806 0.23969 0.21046 0.0
N959 N 0.6218 0.23164 0.24117 0.0
C960 C 0.62397 0.24234 0.20957 0.0
C961 C 0.59485 0.24693 0.19298 0.0
C962 C 0.53517 0.8643 0.00935 0.0
C963 C 0.55057 0.86268 0.9786 0.0
C964 C 0.53306 0.89643 0.02708 0.0
C965 C 0.54581 0.92818 0.01452 0.0
H966 H 0.52416 0.84055 0.01968 0.0
H967 H 0.52059 0.89635 0.05034 0.0
S968 S 0.5919 0.93916 0.93776 0.0
N969 N 0.58119 0.89634 0.93802 0.0
N970 N 0.57699 0.95656 0.97154 0.0
C971 C 0.56223 0.92722 0.9846 0.0
C972 C 0.56472 0.89452 0.96663 0.0
C973 C 0.92921 0.81347 0.71945 0.0
C974 C 0.93568 0.78352 0.70075 0.0
C975 C 0.90089 0.81234 0.73631 0.0
C976 C 0.87772 0.78117 0.73544 0.0
H977 H 0.9457 0.83842 0.72031 0.0
H978 H 0.8968 0.83652 0.74932 0.0
S979 S 0.88447 0.69436 0.69286 0.0
N980 N 0.91756 0.72102 0.68442 0.0
N981 N 0.86442 0.7188 0.71617 0.0
C982 C 0.88457 0.75055 0.7182 0.0
C983 C 0.91344 0.75176 0.70082 0.0
C984 C 0.10535 0.04706 0.90424 0.0
C985 C 0.10672 0.01885 0.8799 0.0
C986 C 0.08165 0.04482 0.92769 0.0
C987 C 0.05838 0.01406 0.92852 0.0
H988 H 0.1227 0.07142 0.90526 0.0
H989 H 0.08175 0.06763 0.94548 0.0
S990 S 0.05011 0.93281 0.86973 0.0
N991 N 0.0816 0.95925 0.85727 0.0
N992 N 0.03729 0.955 0.90209 0.0
C993 C 0.05877 0.98579 0.90394 0.0
C994 C 0.08292 0.98814 0.8796 0.0
C995 C 0.71838 0.3225 0.58611 0.0
C996 C 0.74461 0.34274 0.57218 0.0
C997 C 0.72289 0.30059 0.61098 0.0
C998 C 0.75379 0.29806 0.62284 0.0
H999 H 0.69411 0.32408 0.57835 0.0
H1000 H 0.70194 0.28649 0.62184 0.0
S1001 S 0.83056 0.34333 0.59299 0.0
N1002 N 0.8028 0.35711 0.57077 0.0
N1003 N 0.81102 0.3159 0.61763 0.0
C1004 C 0.78024 0.31689 0.60821 0.0
C1005 C 0.77572 0.3393 0.58288 0.0
C1006 C 0.45598 1.0021 0.3891 0.0
C1007 C 0.45988 0.03271 0.37282 0.0
C1008 C 0.47427 1.00077 0.41872 0.0
C1009 C 0.49761 0.02975 0.43268 0.0
H1010 H 0.43844 0.97901 0.37905 0.0
H1011 H 0.47032 0.97657 0.43046 0.0
S1012 S 0.51745 0.11595 0.39947 0.0
N1013 N 0.48855 0.09284 0.37258 0.0
N1014 N 0.52387 0.08988 0.42832 0.0
C1015 C 0.50206 0.0605 0.41661 0.0
C1016 C 0.48284 0.06214 0.38666 0.0
C1017 C 0.79867 0.74714 0.09812 0.0
C1018 C 0.77625 0.71829 0.08205 0.0
C1019 C 0.79661 0.75972 0.1322 0.0
C1020 C 0.77169 0.74447 0.15156 0.0
H1021 H 0.81852 0.75965 0.08456 0.0
H1022 H 0.81493 0.78149 0.14356 0.0
S1023 S 0.70581 0.66944 0.12122 0.0
N1024 N 0.72759 0.67545 0.08802 0.0
N1025 N 0.72352 0.6996 0.15183 0.0
C1026 C 0.7485 0.71633 0.13559 0.0
C1027 C 0.75086 0.70309 0.10097 0.0
C1028 C 0.07474 0.03141 0.70552 0.0
C1029 C 0.1044 0.02111 0.70945 0.0
C1030 C 0.06293 0.0383 0.67378 0.0
C1031 C 0.08025 0.03513 0.64465 0.0
H1032 H 0.06035 0.03411 0.72711 0.0
H1033 H 0.03974 0.0455 0.67198 0.0
S1034 S 0.1596 0.01023 0.64096 0.0
N1035 N 0.15119 0.009 0.68119 0.0
N1036 N 0.12892 0.02192 0.62172 0.0
C1037 C 0.11012 0.02541 0.64818 0.0
C1038 C 0.12219 0.01838 0.68048 0.0
C1039 C 0.72283 0.29984 0.4037 0.0
C1040 C 0.74517 0.33052 0.41569 0.0
C1041 C 0.72584 0.28119 0.3723 0.0
C1042 C 0.75142 0.29254 0.35215 0.0
H1043 H 0.70238 0.29084 0.41812 0.0
H1044 H 0.7074 0.25856 0.36325 0.0
S1045 S 0.81912 0.36792 0.37503 0.0
N1046 N 0.79561 0.36902 0.40691 0.0
N1047 N 0.80123 0.33412 0.34829 0.0
C1048 C 0.77484 0.32197 0.36494 0.0
C1049 C 0.7717 0.34099 0.3966 0.0
C1050 C 0.50587 0.04683 0.21926 0.0
C1051 C 0.47952 0.06324 0.22256 0.0
C1052 C 0.52008 0.04374 0.18817 0.0
C1053 C 0.5085 0.05723 0.15961 0.0
H1054 H 0.51445 0.03458 0.24023 0.0
H1055 H 0.5391 0.02916 0.18608 0.0
S1056 S 0.44424 0.10848 0.15699 0.0
N1057 N 0.44525 0.09717 0.19608 0.0
N1058 N 0.47228 0.0919 0.1378 0.0
C1059 C 0.48394 0.0762 0.16339 0.0
C1060 C 0.4693 0.07903 0.19487 0.0
C1061 C 0.82135 0.74416 0.90471 0.0
C1062 C 0.79391 0.71938 0.9107 0.0
C1063 C 0.822 0.76387 0.87676 0.0
C1064 C 0.79539 0.75937 0.85335 0.0
H1065 H 0.84257 0.74855 0.92185 0.0
H1066 H 0.84363 0.78263 0.87336 0.0
S1067 S 0.71759 0.69789 0.85708 0.0
N1068 N 0.73936 0.69159 0.89051 0.0
N1069 N 0.74063 0.72835 0.83823 0.0
C1070 C 0.76781 0.73468 0.85896 0.0
C1071 C 0.76705 0.71481 0.88754 0.0
C1072 C 0.86437 0.06298 0.03502 0.0
C1073 C 0.84606 0.06295 0.00462 0.0
C1074 C 0.89026 0.04613 0.03567 0.0
C1075 C 0.89911 0.0289 0.00588 0.0
H1076 H 0.85932 0.07707 0.05841 0.0
H1077 H 0.90444 0.04827 0.05946 0.0
S1078 S 0.85682 0.0176 0.92048 0.0
N1079 N 0.83661 0.04124 0.94457 0.0
N1080 N 0.88586 0.0099 0.94576 0.0
C1081 C 0.87981 0.02658 0.97574 0.0
C1082 C 0.85312 0.04357 0.97512 0.0
C1083 C 0.38684 0.46234 0.99321 0.0
C1084 C 0.36478 0.46702 0.0178 0.0
C1085 C 0.41916 0.4792 0.99829 0.0
C1086 C 0.43056 0.50218 0.02772 0.0
H1087 H 0.37933 0.44459 0.97029 0.0
H1088 H 0.43541 0.47382 0.97915 0.0
S1089 S 0.38215 0.52498 0.09901 0.0
N1090 N 0.35642 0.49696 0.0723 0.0
N1091 N 0.41686 0.52964 0.08132 0.0
C1092 C 0.40854 0.50799 0.05203 0.0
C1093 C 0.37576 0.49014 0.04722 0.0
C1094 C 0.33291 0.63616 0.78434 0.0
C1095 C 0.33081 0.61353 0.75407 0.0
C1096 C 0.31907 0.66581 0.78595 0.0
C1097 C 0.3018 0.67368 0.75767 0.0
H1098 H 0.34633 0.63168 0.80678 0.0
H1099 H 0.32246 0.68314 0.80944 0.0
S1100 S 0.28748 0.622 0.67286 0.0
N1101 N 0.30911 0.60053 0.69531 0.0
N1102 N 0.28236 0.65587 0.69872 0.0
C1103 C 0.29836 0.65064 0.72759 0.0
C1104 C 0.31308 0.62073 0.72568 0.0
C1105 C 0.17057 0.59332 0.56437 0.0
C1106 C 0.19159 0.58874 0.53869 0.0
C1107 C 0.13766 0.57945 0.55918 0.0
C1108 C 0.12452 0.56046 0.52808 0.0
H1109 H 0.1794 0.60856 0.58841 0.0
H1110 H 0.12236 0.5845 0.5794 0.0
S1111 S 0.16985 0.53743 0.4541 0.0
N1112 N 0.19727 0.56134 0.48201 0.0
N1113 N 0.13557 0.53518 0.4723 0.0
C1114 C 0.14547 0.55445 0.50269 0.0
C1115 C 0.17895 0.56859 0.50797 0.0
C1116 C 0.7381 0.95307 0.79215 0.0
C1117 C 0.72336 0.95495 0.76014 0.0
C1118 C 0.76311 0.93501 0.79511 0.0
C1119 C 0.77429 0.91885 0.76608 0.0
H1120 H 0.72887 0.96352 0.81513 0.0
H1121 H 0.77193 0.93138 0.82033 0.0
S1122 S 0.74846 0.92379 0.67617 0.0
N1123 N 0.72488 0.94438 0.69878 0.0
N1124 N 0.77262 0.91141 0.70413 0.0
C1125 C 0.76218 0.92422 0.7338 0.0
C1126 C 0.73631 0.94187 0.73086 0.0
C1127 C 0.66851 0.95399 0.57109 0.0
C1128 C 0.69141 0.9547 0.54639 0.0
C1129 C 0.64125 0.96847 0.56647 0.0
C1130 C 0.63576 0.98455 0.53712 0.0
H1131 H 0.67121 0.94148 0.59393 0.0
H1132 H 0.62406 0.96652 0.58594 0.0
S1133 S 0.68907 0.99564 0.4657 0.0
N1134 N 0.70724 0.97449 0.49204 0.0
N1135 N 0.65615 1.00182 0.48364 0.0
C1136 C 0.65885 0.98654 0.5127 0.0
C1137 C 0.68658 0.97157 0.51728 0.0
C1138 C 0.3269 0.41696 0.74126 0.0
C1139 C 0.31959 0.43051 0.71077 0.0
C1140 C 0.30922 0.38522 0.7499 0.0
C1141 C 0.28321 0.36601 0.72866 0.0
H1142 H 0.34644 0.43104 0.75877 0.0
H1143 H 0.31555 0.37609 0.77375 0.0
S1144 S 0.25501 0.38862 0.64526 0.0
N1145 N 0.28523 0.42108 0.65863 0.0
N1146 N 0.2518 0.36175 0.67516 0.0
C1147 C 0.27597 0.37876 0.69785 0.0
C1148 C 0.29421 0.41088 0.68881 0.0
C1149 C 0.22076 0.60429 0.19177 0.0
C1150 C 0.2008 0.58899 0.21578 0.0
C1151 C 0.23919 0.6381 0.19901 0.0
C1152 C 0.23863 0.65765 0.23068 0.0
H1153 H 0.22156 0.59044 0.16687 0.0
H1154 H 0.25353 0.64918 0.17931 0.0
S1155 S 0.19274 0.62772 0.30362 0.0
N1156 N 0.18326 0.59466 0.27343 0.0
N1157 N 0.21802 0.6582 0.28711 0.0
C1158 C 0.21987 0.64198 0.25552 0.0
C1159 C 0.20084 0.60767 0.24801 0.0
C1160 C 0.54863 0.67345 0.45017 0.0
C1161 C 0.51963 0.67978 0.43634 0.0
C1162 C 0.54932 0.64488 0.46866 0.0
C1163 C 0.52101 0.62152 0.47446 0.0
H1164 H 0.57121 0.69027 0.44609 0.0
H1165 H 0.57238 0.64086 0.47805 0.0
S1166 S 0.43848 0.62728 0.445 0.0
N1167 N 0.46169 0.66094 0.43064 0.0
N1168 N 0.46283 0.60734 0.46553 0.0
C1169 C 0.49168 0.62804 0.46151 0.0
C1170 C 0.49103 0.65706 0.4424 0.0
C1171 C 0.64529 0.26432 0.68231 0.0
C1172 C 0.62686 0.29007 0.68795 0.0
C1173 C 0.6707 0.26256 0.705 0.0
C1174 C 0.67951 0.28704 0.73387 0.0
H1175 H 0.63951 0.24454 0.66065 0.0
H1176 H 0.68322 0.24131 0.70001 0.0
S1177 S 0.63964 0.36033 0.76002 0.0
N1178 N 0.61913 0.34081 0.72466 0.0
N1179 N 0.66801 0.33814 0.76691 0.0
C1180 C 0.6616 0.31322 0.73982 0.0
C1181 C 0.6351 0.31466 0.71691 0.0
C1182 C 0.00637 0.35513 0.96985 0.0
C1183 C 0.99163 0.34357 0.93716 0.0
C1184 C 0.00943 0.38994 0.98383 0.0
C1185 C 0.99712 0.41426 0.96603 0.0
H1186 H 0.01627 0.33736 0.98449 0.0
H1187 H 0.02148 0.39787 0.00885 0.0
S1188 S 0.95567 0.39713 0.87996 0.0
N1189 N 0.9643 0.35919 0.88744 0.0
N1190 N 0.96939 0.42446 0.91419 0.0
C1191 C 0.98175 0.40295 0.93363 0.0
C1192 C 0.97921 0.36765 0.91905 0.0
C1193 C 0.94653 0.74176 0.21528 0.0
C1194 C 0.96809 0.77261 0.20988 0.0
C1195 C 0.9174 0.74295 0.22986 0.0
C1196 C 0.90868 0.775 0.23988 0.0
H1197 H 0.95157 0.71635 0.20706 0.0
H1198 H 0.90115 0.71845 0.23229 0.0
S1199 S 0.95793 0.8634 0.23507 0.0
N1200 N 0.97962 0.83634 0.21834 0.0
N1201 N 0.92498 0.83838 0.24616 0.0
C1202 C 0.93063 0.80607 0.2364 0.0
C1203 C 0.96028 0.80492 0.22129 0.0
C1204 C 0.48732 0.35555 0.02988 0.0
C1205 C 0.50549 0.34902 0.05831 0.0
C1206 C 0.49294 0.38843 0.01725 0.0
C1207 C 0.51702 0.41618 0.03249 0.0
H1208 H 0.46791 0.33541 0.01777 0.0
H1209 H 0.47746 0.39244 0.99622 0.0
S1210 S 0.57395 0.41171 0.10504 0.0
N1211 N 0.55041 0.37253 0.0995 0.0
N1212 N 0.56111 0.43385 0.07579 0.0
C1213 C 0.53639 0.40948 0.0599 0.0
C1214 C 0.5306 0.3761 0.0728 0.0
C1215 C 0.92578 0.29262 0.38294 0.0
C1216 C 0.95494 0.29573 0.36708 0.0
C1217 C 0.89801 0.29797 0.36585 0.0
C1218 C 0.89834 0.30721 0.33241 0.0
H1219 H 0.92408 0.28504 0.4085 0.0
H1220 H 0.87592 0.29412 0.37875 0.0
S1221 S 0.969 0.32176 0.28039 0.0
N1222 N 0.98282 0.31072 0.31653 0.0
N1223 N 0.93059 0.32121 0.28461 0.0
C1224 C 0.92755 0.31193 0.31669 0.0
C1225 C 0.95583 0.306 0.33394 0.0
C1226 C 0.01161 0.65812 0.56896 0.0
C1227 C 0.98733 0.67439 0.55687 0.0
C1228 C 0.01827 0.62805 0.55122 0.0
C1229 C 1.00105 0.6131 0.5206 0.0
H1230 H 0.02584 0.66878 0.59232 0.0
H1231 H 0.03751 0.61687 0.56129 0.0
S1232 S 0.93452 0.64459 0.47827 0.0
N1233 N 0.94551 0.67266 0.51259 0.0
N1234 N 0.95812 0.61597 0.47918 0.0
C1235 C 0.9764 0.62863 0.50837 0.0
C1236 C 0.96946 0.65926 0.52655 0.0
C1237 C 0.64059 0.76258 0.82565 0.0
C1238 C 0.62945 0.79418 0.82782 0.0
C1239 C 0.66751 0.75853 0.80764 0.0
C1240 C 0.68481 0.78608 0.79143 0.0
H1241 H 0.62865 0.74079 0.8383 0.0
H1242 H 0.67547 0.73396 0.80759 0.0
S1243 S 0.66458 0.8736 0.78742 0.0
N1244 N 0.63701 0.85301 0.81042 0.0
N1245 N 0.68767 0.84555 0.77711 0.0
C1246 C 0.67335 0.81748 0.79245 0.0
C1247 C 0.64572 0.82149 0.81048 0.0
C1248 C 0.45238 0.52876 0.63052 0.0
C1249 C 0.4539 0.56009 0.65175 0.0
C1250 C 0.47307 0.52675 0.60415 0.0
C1251 C 0.49625 0.55593 0.59773 0.0
H1252 H 0.4352 0.50538 0.63436 0.0
H1253 H 0.47105 0.50185 0.58887 0.0
S1254 S 0.50979 0.64451 0.64481 0.0
N1255 N 0.48033 0.62142 0.66375 0.0
N1256 N 0.51913 0.61731 0.61417 0.0
C1257 C 0.49794 0.5875 0.61838 0.0
C1258 C 0.47679 0.58967 0.64531 0.0
C1259 C 0.79396 0.20782 0.93044 0.0
C1260 C 0.76626 0.1891 0.94315 0.0
C1261 C 0.79173 0.22972 0.90493 0.0
C1262 C 0.7618 0.23432 0.89206 0.0
H1263 H 0.81742 0.20433 0.93917 0.0
H1264 H 0.81355 0.24223 0.89441 0.0
S1265 S 0.68236 0.19438 0.9199 0.0
N1266 N 0.70816 0.17858 0.94306 0.0
N1267 N 0.70406 0.22056 0.89563 0.0
C1268 C 0.73403 0.21751 0.90608 0.0
C1269 C 0.73625 0.19458 0.93149 0.0
C1270 C 0.06401 0.46793 0.11788 0.0
C1271 C 0.05389 0.4757 0.15056 0.0
C1272 C 0.04629 0.47285 0.08883 0.0
C1273 C 0.01823 0.48611 0.09157 0.0
H1274 H 0.08613 0.45872 0.11475 0.0
H1275 H 0.05488 0.46681 0.06409 0.0
S1276 S 0.98081 0.50963 0.17072 0.0
N1277 N 0.01311 0.49609 0.18374 0.0
N1278 N 0.98021 0.5057 0.12876 0.0
C1279 C 0.00702 0.49257 0.12378 0.0
C1280 C 0.02484 0.48733 0.15345 0.0
C1281 C 0.76255 0.83934 0.41599 0.0
C1282 C 0.79146 0.84572 0.43629 0.0
C1283 C 0.76071 0.82524 0.38173 0.0
C1284 C 0.78772 0.81695 0.36605 0.0
H1285 H 0.74115 0.84572 0.42647 0.0
H1286 H 0.73788 0.82129 0.36734 0.0
S1287 S 0.86905 0.8272 0.40831 0.0
N1288 N 0.84764 0.84145 0.43825 0.0
N1289 N 0.84421 0.81521 0.37423 0.0
C1290 C 0.81668 0.8226 0.38625 0.0
C1291 C 0.81852 0.83685 0.42118 0.0
C1292 C 0.46203 0.49275 0.816 0.0
C1293 C 0.43924 0.51364 0.81102 0.0
C1294 C 0.47446 0.48959 0.84874 0.0
C1295 C 0.46418 0.50672 0.87777 0.0
H1296 H 0.47048 0.47882 0.79442 0.0
H1297 H 0.49225 0.47361 0.85128 0.0
S1298 S 0.40417 0.56361 0.87888 0.0
N1299 N 0.4066 0.55134 0.83817 0.0
N1300 N 0.42948 0.54492 0.89953 0.0
C1301 C 0.44117 0.52739 0.87323 0.0
C1302 C 0.42887 0.53102 0.83991 0.0
C1303 C 0.82911 0.25738 0.11955 0.0
C1304 C 0.80633 0.22702 0.10766 0.0
C1305 C 0.82657 0.27612 0.15108 0.0
C1306 C 0.80103 0.26518 0.17144 0.0
H1307 H 0.84961 0.26593 0.10503 0.0
H1308 H 0.84536 0.29843 0.16011 0.0
S1309 S 0.7323 0.19084 0.14877 0.0
N1310 N 0.7555 0.18941 0.11665 0.0
N1311 N 0.75078 0.22437 0.1755 0.0
C1312 C 0.77715 0.23615 0.15868 0.0
C1313 C 0.7798 0.21709 0.12689 0.0
C1314 C 0.06431 0.53494 0.31594 0.0
C1315 C 0.08268 0.50996 0.30626 0.0
C1316 C 0.05081 0.53583 0.34746 0.0
C1317 C 0.05539 0.51194 0.37048 0.0
H1318 H 0.06063 0.55436 0.29931 0.0
H1319 H 0.03741 0.556 0.35414 0.0
S1320 S 0.09971 0.4399 0.35689 0.0
N1321 N 0.10341 0.45953 0.32178 0.0
N1322 N 0.07804 0.46146 0.38116 0.0
C1323 C 0.07284 0.48614 0.36088 0.0
C1324 C 0.0865 0.48507 0.32869 0.0
C1325 C 0.74802 0.83019 0.62544 0.0
C1326 C 0.77751 0.83531 0.61004 0.0
C1327 C 0.74393 0.8132 0.65528 0.0
C1328 C 0.76949 0.80184 0.67135 0.0
H1329 H 0.72776 0.83863 0.61392 0.0
H1330 H 0.72076 0.80929 0.66605 0.0
S1331 S 0.85195 0.8106 0.64243 0.0
N1332 N 0.83278 0.82816 0.61371 0.0
N1333 N 0.82545 0.7977 0.67012 0.0
C1334 C 0.79924 0.80764 0.65669 0.0
C1335 C 0.80316 0.82399 0.62596 0.0
C1336 C 0.68969 0.49584 0.4991 0.0
C1337 C 0.70425 0.48843 0.52936 0.0
C1338 C 0.66512 0.5147 0.49978 0.0
C1339 C 0.65381 0.52634 0.53075 0.0
H1340 H 0.69679 0.48626 0.47459 0.0
H1341 H 0.65371 0.51836 0.47577 0.0
S1342 S 0.68575 0.51663 0.61716 0.0
N1343 N 0.70739 0.49672 0.59123 0.0
N1344 N 0.66053 0.53159 0.59246 0.0
C1345 C 0.66922 0.52076 0.56123 0.0
C1346 C 0.69462 0.50193 0.56055 0.0
C1347 C 0.1549 0.08592 0.52495 0.0
C1348 C 0.17651 0.08828 0.49892 0.0
C1349 C 0.1231 0.06746 0.5188 0.0
C1350 C 0.11173 0.05014 0.48654 0.0
H1351 H 0.16234 0.09911 0.55019 0.0
H1352 H 0.10721 0.06735 0.53932 0.0
S1353 S 0.15877 0.04691 0.40995 0.0
N1354 N 0.18424 0.07093 0.43971 0.0
N1355 N 0.1248 0.03587 0.42835 0.0
C1356 C 0.13318 0.05178 0.46042 0.0
C1357 C 0.16545 0.07089 0.46655 0.0
C1358 C 0.22821 0.9168 0.73111 0.0
C1359 C 0.22626 0.93556 0.76292 0.0
C1360 C 0.24434 0.88884 0.72802 0.0
C1361 C 0.26009 0.87912 0.75639 0.0
H1362 H 0.21611 0.92284 0.70849 0.0
H1363 H 0.2438 0.8741 0.70331 0.0
S1364 S 0.26361 0.92043 0.84521 0.0
N1365 N 0.24233 0.94276 0.82336 0.0
N1366 N 0.27336 0.89083 0.81725 0.0
C1367 C 0.25947 0.89843 0.78813 0.0
C1368 C 0.24237 0.92644 0.79148 0.0
C1369 C 0.37832 0.96206 0.98705 0.0
C1370 C 0.36336 0.95438 0.0172 0.0
C1371 C 0.41172 0.97126 0.98676 0.0
C1372 C 0.43129 0.973 0.01661 0.0
H1373 H 0.36414 0.96161 0.96357 0.0
H1374 H 0.42213 0.97817 0.96326 0.0
S1375 S 0.40417 0.95108 0.10129 0.0
N1376 N 0.37086 0.94636 0.07705 0.0
N1377 N 0.43348 0.9632 0.07645 0.0
C1378 C 0.41668 0.96391 0.0466 0.0
C1379 C 0.38275 0.95476 0.04693 0.0
C1380 C 0.81568 0.61029 0.79023 0.0
C1381 C 0.82351 0.59197 0.76058 0.0
C1382 C 0.79607 0.6347 0.78849 0.0
C1383 C 0.784 0.64212 0.757 0.0
H1384 H 0.82557 0.60656 0.81497 0.0
H1385 H 0.792 0.64941 0.81195 0.0
S1386 S 0.7945 0.59841 0.67215 0.0
N1387 N 0.81514 0.5802 0.699 0.0
N1388 N 0.77868 0.62693 0.6957 0.0
C1389 C 0.78973 0.62226 0.72729 0.0
C1390 C 0.8095 0.59699 0.72909 0.0
C1391 C 0.85936 0.59236 0.97827 0.0
C1392 C 0.83253 0.57767 0.99541 0.0
C1393 C 0.88689 0.57779 0.97758 0.0
C1394 C 0.88882 0.548 0.9941 0.0
H1395 H 0.85935 0.61561 0.96556 0.0
H1396 H 0.9071 0.59049 0.96462 0.0
S1397 S 0.82499 0.49835 0.04134 0.0
N1398 N 0.80948 0.53056 0.02833 0.0
N1399 N 0.86119 0.50351 0.02708 0.0
C1400 C 0.862 0.5325 0.01063 0.0
C1401 C 0.83389 0.54724 0.01128 0.0
C1402 C 0.1934 0.14272 0.77473 0.0
C1403 C 0.20436 0.11897 0.79455 0.0
C1404 C 0.21282 0.17501 0.77039 0.0
C1405 C 0.24384 0.18529 0.78618 0.0
H1406 H 0.16987 0.136 0.76154 0.0
H1407 H 0.20349 0.19184 0.75411 0.0
S1408 S 0.2834 0.13379 0.8424 0.0
N1409 N 0.24801 0.10852 0.83108 0.0
N1410 N 0.28431 0.16974 0.82356 0.0
C1411 C 0.25488 0.16233 0.80689 0.0
C1412 C 0.23521 0.12906 0.81091 0.0
C1413 C 0.34701 0.93107 0.28658 0.0
C1414 C 0.35435 0.9463 0.25635 0.0
C1415 C 0.3288 0.8971 0.28585 0.0
C1416 C 0.31688 0.8772 0.25486 0.0
H1417 H 0.35596 0.94521 0.31109 0.0
H1418 H 0.32446 0.88623 0.30975 0.0
S1419 S 0.32789 0.90609 0.16842 0.0
N1420 N 0.34733 0.93958 0.19463 0.0
N1421 N 0.31288 0.87601 0.19294 0.0
C1422 C 0.32332 0.8926 0.22439 0.0
C1423 C 0.34216 0.92704 0.2252 0.0
C1424 C 0.51021 0.37416 0.57428 0.0
C1425 C 0.54005 0.36384 0.57311 0.0
C1426 C 0.50405 0.40225 0.55736 0.0
C1427 C 0.52752 0.42109 0.53874 0.0
H1428 H 0.49182 0.36138 0.58947 0.0
H1429 H 0.48149 0.41049 0.56057 0.0
S1430 S 0.60772 0.40164 0.5233 0.0
N1431 N 0.59195 0.37255 0.5485 0.0
N1432 N 0.58034 0.42509 0.51679 0.0
C1433 C 0.5566 0.40959 0.53545 0.0
C1434 C 0.56288 0.38106 0.55261 0.0
C1435 C 0.4026 0.71804 0.28196 0.0
C1436 C 0.40999 0.73706 0.31419 0.0
C1437 C 0.37746 0.72368 0.2604 0.0
C1438 C 0.35932 0.7489 0.27026 0.0
H1439 H 0.4162 0.69859 0.27348 0.0
H1440 H 0.37225 0.70822 0.23588 0.0
S1441 S 0.37123 0.80705 0.35172 0.0
N1442 N 0.39819 0.7824 0.3548 0.0
N1443 N 0.35206 0.79432 0.31408 0.0
C1444 C 0.36718 0.76857 0.30231 0.0
C1445 C 0.39226 0.7623 0.32436 0.0
C1446 C 0.06494 0.68869 0.05624 0.0
C1447 C 0.04249 0.7005 0.07709 0.0
C1448 C 0.06114 0.65323 0.04382 0.0
C1449 C 0.03437 0.62855 0.05118 0.0
H1450 H 0.08586 0.70689 0.04984 0.0
H1451 H 0.0789 0.64522 0.02779 0.0
S1452 S 0.96881 0.64592 0.10469 0.0
N1453 N 0.99283 0.68451 0.10488 0.0
N1454 N 0.98528 0.61817 0.08092 0.0
C1455 C 0.01174 0.64002 0.07191 0.0
C1456 C 0.01591 0.67591 0.08505 0.0
C1457 C 0.08205 0.27314 0.79312 0.0
C1458 C 0.07918 0.26671 0.82726 0.0
C1459 C 0.11042 0.27102 0.77704 0.0
C1460 C 0.1363 0.26147 0.79441 0.0
H1461 H 0.06268 0.28091 0.77916 0.0
H1462 H 0.11226 0.27732 0.75105 0.0
S1463 S 0.1393 0.23982 0.88366 0.0
N1464 N 0.10369 0.24946 0.87759 0.0
N1465 N 0.15647 0.24411 0.8473 0.0
C1466 C 0.13303 0.25366 0.82821 0.0
C1467 C 0.10457 0.25668 0.8447 0.0
C1468 C 0.5612 0.68834 0.99255 0.0
C1469 C 0.54407 0.69639 0.9641 0.0
C1470 C 0.5526 0.65604 0.00587 0.0
C1471 C 0.52652 0.63027 0.99125 0.0
H1472 H 0.58205 0.70677 0.00423 0.0
H1473 H 0.56742 0.65073 0.02684 0.0
S1474 S 0.47158 0.63933 0.91869 0.0
N1475 N 0.49807 0.67658 0.92346 0.0
N1476 N 0.48201 0.61614 0.94835 0.0
C1477 C 0.50827 0.63855 0.96378 0.0
C1478 C 0.51698 0.67146 0.95026 0.0
C1479 C 0.09627 0.72374 0.70032 0.0
C1480 C 0.08921 0.74872 0.67944 0.0
C1481 C 0.12794 0.72341 0.71118 0.0
C1482 C 0.15375 0.74758 0.70099 0.0
H1483 H 0.07716 0.70444 0.70861 0.0
H1484 H 0.13221 0.70412 0.72772 0.0
S1485 S 0.14844 0.81782 0.64576 0.0
N1486 N 0.11091 0.79809 0.64873 0.0
N1487 N 0.17029 0.797 0.66861 0.0
C1488 C 0.14712 0.77239 0.67976 0.0
C1489 C 0.11489 0.77312 0.66917 0.0
C1490 C 0.03205 0.40083 0.43539 0.0
C1491 C 0.05085 0.37797 0.44654 0.0
C1492 C 0.02663 0.42906 0.45704 0.0
C1493 C 0.0405 0.43637 0.49051 0.0
H1494 H 0.02058 0.39638 0.40993 0.0
H1495 H 0.01115 0.44515 0.44733 0.0
S1496 S 0.09245 0.38501 0.53194 0.0
N1497 N 0.08348 0.36431 0.49329 0.0
N1498 N 0.07425 0.41857 0.5338 0.0
C1499 C 0.05973 0.41403 0.502 0.0
C1500 C 0.0647 0.38459 0.48005 0.0
C1501 C 0.40768 0.25884 0.19465 0.0
C1502 C 0.43201 0.28912 0.19628 0.0
C1503 C 0.3798 0.25854 0.21234 0.0
C1504 C 0.37486 0.28862 0.2322 0.0
H1505 H 0.40999 0.23516 0.1793 0.0
H1506 H 0.36156 0.23476 0.2095 0.0
S1507 S 0.43187 0.37436 0.24628 0.0
N1508 N 0.44973 0.34972 0.22054 0.0
N1509 N 0.39758 0.3492 0.25357 0.0
C1510 C 0.39939 0.31884 0.23473 0.0
C1511 C 0.42783 0.31908 0.21686 0.0
C1512 C 0.59572 0.50582 0.39834 0.0
C1513 C 0.59465 0.5302 0.37463 0.0
C1514 C 0.57341 0.50136 0.42352 0.0
C1515 C 0.54866 0.52032 0.42521 0.0
H1516 H 0.6142 0.49044 0.39778 0.0
H1517 H 0.57526 0.48254 0.44147 0.0
S1518 S 0.53545 0.58776 0.36972 0.0
N1519 N 0.5671 0.57423 0.35525 0.0
N1520 N 0.52474 0.56479 0.40165 0.0
C1521 C 0.54724 0.54464 0.40168 0.0
C1522 C 0.57035 0.54986 0.37665 0.0
C1523 C 0.23429 0.80607 0.06828 0.0
C1524 C 0.25788 0.83179 0.05675 0.0
C1525 C 0.24162 0.78714 0.09475 0.0
C1526 C 0.27285 0.79306 0.11013 0.0
H1527 H 0.20976 0.80159 0.05785 0.0
H1528 H 0.22237 0.76883 0.10415 0.0
S1529 S 0.34422 0.85361 0.08526 0.0
N1530 N 0.31444 0.85946 0.05991 0.0
N1531 N 0.32818 0.82362 0.10946 0.0
C1532 C 0.29709 0.81697 0.09721 0.0
C1533 C 0.28959 0.83649 0.07057 0.0
C1534 C 0.97282 0.56856 0.88928 0.0
C1535 C 0.97778 0.54749 0.85985 0.0
C1536 C 0.99099 0.56949 0.91982 0.0
C1537 C 0.01479 0.54966 0.92184 0.0
H1538 H 0.95395 0.5834 0.88919 0.0
H1539 H 0.98557 0.58478 0.94229 0.0
S1540 S 0.03927 0.49245 0.85233 0.0
N1541 N 0.01011 0.5081 0.8346 0.0
N1542 N 0.04386 0.50996 0.89232 0.0
C1543 C 0.02126 0.53 0.89251 0.0
C1544 C 1.00285 0.52893 0.86137 0.0
C1545 C 0.28065 0.21878 0.60273 0.0
C1546 C 0.2516 0.21068 0.58262 0.0
C1547 C 0.28194 0.23187 0.63721 0.0
C1548 C 0.25418 0.23704 0.65337 0.0
H1549 H 0.30268 0.21501 0.59178 0.0
H1550 H 0.30498 0.23755 0.65139 0.0
S1551 S 0.17193 0.21992 0.61221 0.0
N1552 N 0.19425 0.20899 0.58157 0.0
N1553 N 0.1967 0.23323 0.64623 0.0
C1554 C 0.22494 0.22908 0.63357 0.0
C1555 C 0.22367 0.21608 0.59831 0.0
C1556 C 0.56914 0.53562 0.20785 0.0
C1557 C 0.5969 0.52161 0.21182 0.0
C1558 C 0.55795 0.5426 0.17585 0.0
C1559 C 0.57399 0.53582 0.14645 0.0
H1560 H 0.55592 0.54151 0.22966 0.0
H1561 H 0.5363 0.55299 0.17413 0.0
S1562 S 0.64754 0.49884 0.14249 0.0
N1563 N 0.64006 0.50106 0.18312 0.0
N1564 N 0.619 0.51414 0.12319 0.0
C1565 C 0.60179 0.52191 0.14994 0.0
C1566 C 0.61322 0.51479 0.18251 0.0
C1567 C 0.24066 0.8116 0.90244 0.0
C1568 C 0.26741 0.8383 0.91275 0.0
C1569 C 0.23925 0.79108 0.87104 0.0
C1570 C 0.26422 0.79741 0.84894 0.0
H1571 H 0.22089 0.80655 0.91872 0.0
H1572 H 0.21809 0.77101 0.86362 0.0
S1573 S 0.33891 0.86544 0.86479 0.0
N1574 N 0.31922 0.86999 0.89934 0.0
N1575 N 0.31611 0.833 0.83988 0.0
C1576 C 0.29099 0.82422 0.85937 0.0
C1577 C 0.29269 0.84434 0.89144 0.0
C1578 C 0.97961 0.58008 0.69248 0.0
C1579 C 0.95795 0.55361 0.70583 0.0
C1580 C 0.99398 0.57326 0.66204 0.0
C1581 C 0.98753 0.53963 0.6441 0.0
H1582 H 0.9852 0.60644 0.70531 0.0
H1583 H 0.01004 0.59457 0.65236 0.0
S1584 S 0.93332 0.46087 0.66834 0.0
N1585 N 0.93118 0.49214 0.69867 0.0
N1586 N 0.95855 0.47945 0.64191 0.0
C1587 C 0.96644 0.51278 0.65738 0.0
C1588 C 0.95152 0.51974 0.68811 0.0
C1589 C 0.27521 0.22233 0.38987 0.0
C1590 C 0.29483 0.23544 0.41978 0.0
C1591 C 0.27578 0.24146 0.36143 0.0
C1592 C 0.29612 0.27443 0.36144 0.0
H1593 H 0.25899 0.19715 0.38841 0.0
H1594 H 0.25948 0.23069 0.33963 0.0
S1595 S 0.35199 0.32122 0.43303 0.0
N1596 N 0.33508 0.28424 0.44734 0.0
N1597 N 0.33604 0.31966 0.39403 0.0
C1598 C 0.31567 0.28801 0.3911 0.0
C1599 C 0.31515 0.26863 0.4201 0.0
C1600 C 0.34611 0.5316 0.47641 0.0
C1601 C 0.33791 0.55152 0.505 0.0
C1602 C 0.37196 0.51441 0.47858 0.0
C1603 C 0.39015 0.51646 0.50946 0.0
H1604 H 0.33384 0.5311 0.45177 0.0
H1605 H 0.37914 0.50172 0.45549 0.0
S1606 S 0.37423 0.55901 0.59304 0.0
N1607 N 0.34701 0.56775 0.56608 0.0
N1608 N 0.39522 0.53533 0.57013 0.0
C1609 C 0.38021 0.53344 0.53878 0.0
C1610 C 0.3542 0.55108 0.53655 0.0
C1611 C 0.88299 0.99047 0.55162 0.0
C1612 C 0.87371 0.95584 0.5363 0.0
C1613 C 0.91395 0.01013 0.54842 0.0
C1614 C 0.93637 0.99604 0.52921 0.0
H1615 H 0.86678 1.00185 0.56738 0.0
H1616 H 0.92068 0.03611 0.56196 0.0
S1617 S 0.92176 0.90784 0.48054 0.0
N1618 N 0.88823 0.90913 0.4994 0.0
N1619 N 0.94542 0.9463 0.49185 0.0
C1620 C 0.92636 0.96218 0.51199 0.0
C1621 C 0.89531 0.94199 0.516 0.0
C1622 C 0.83167 0.13977 0.28856 0.0
C1623 C 0.83354 0.12007 0.25724 0.0
C1624 C 0.81588 0.16805 0.29072 0.0
C1625 C 0.80043 0.17725 0.26186 0.0
H1626 H 0.84339 0.13405 0.31156 0.0
H1627 H 0.81625 0.18327 0.31514 0.0
S1628 S 0.79713 0.1337 0.17392 0.0
N1629 N 0.81788 0.11162 0.19667 0.0
N1630 N 0.7876 0.16419 0.20102 0.0
C1631 C 0.80116 0.15718 0.23057 0.0
C1632 C 0.81788 0.1288 0.22818 0.0
C1633 C 0.68498 0.07396 0.04105 0.0
C1634 C 0.69215 0.10889 0.03345 0.0
C1635 C 0.65334 0.05512 0.03868 0.0
C1636 C 0.6282 0.07051 0.02796 0.0
H1637 H 0.70388 0.06125 0.04932 0.0
H1638 H 0.64848 0.02846 0.04523 0.0
S1639 S 0.63394 0.1603 0.00397 0.0
N1640 N 0.67125 0.15774 0.01426 0.0
N1641 N 0.61185 0.12182 0.0093 0.0
C1642 C 0.63489 0.10505 0.01989 0.0
C1643 C 0.66693 0.12444 0.02277 0.0
C1644 C 0.22923 0.44385 0.21956 0.0
C1645 C 0.22112 0.46398 0.24791 0.0
C1646 C 0.25237 0.42356 0.22284 0.0
C1647 C 0.26803 0.42256 0.25457 0.0
H1648 H 0.21645 0.44227 0.19501 0.0
H1649 H 0.25608 0.40628 0.20093 0.0
S1650 S 0.2592 0.47454 0.33548 0.0
N1651 N 0.23365 0.48527 0.30786 0.0
N1652 N 0.27698 0.44641 0.31391 0.0
C1653 C 0.26262 0.44515 0.28236 0.0
C1654 C 0.23903 0.46601 0.27907 0.0
C1655 C 0.17702 0.47352 0.07184 0.0
C1656 C 0.19542 0.46202 0.04598 0.0
C1657 C 0.15089 0.48907 0.06435 0.0
C1658 C 0.14201 0.49371 0.0307 0.0
H1659 H 0.18241 0.46997 0.09811 0.0
H1660 H 0.13708 0.4967 0.08506 0.0
S1661 S 0.18326 0.4705 0.95377 0.0
N1662 N 0.20357 0.45823 0.98528 0.0
N1663 N 0.15453 0.48716 0.97145 0.0
C1664 C 0.16063 0.48328 0.00471 0.0
C1665 C 0.18728 0.46753 0.01227 0.0
C1666 C 0.81276 0.93176 0.23125 0.0
C1667 C 0.84108 0.93221 0.21411 0.0
C1668 C 0.79397 0.90032 0.23906 0.0
C1669 C 0.80306 0.86826 0.2306 0.0
H1670 H 0.805 0.9559 0.23883 0.0
H1671 H 0.77227 0.90113 0.25207 0.0
S1672 S 0.87331 0.8541 0.18365 0.0
N1673 N 0.87621 0.89694 0.18747 0.0
N1674 N 0.84076 0.83811 0.20261 0.0
C1675 C 0.83084 0.868 0.21312 0.0
C1676 C 0.84988 0.89993 0.20473 0.0
C1677 C 0.66215 0.11931 0.75677 0.0
C1678 C 0.66767 0.09289 0.73261 0.0
C1679 C 0.68328 0.15178 0.76189 0.0
C1680 C 0.71013 0.15907 0.74244 0.0
H1681 H 0.64185 0.11458 0.7724 0.0
H1682 H 0.67817 0.17157 0.78073 0.0
S1683 S 0.73457 0.09882 0.6754 0.0
N1684 N 0.70174 0.07586 0.68907 0.0
N1685 N 0.74086 0.13761 0.69782 0.0
C1686 C 0.71561 0.13307 0.71782 0.0
C1687 C 0.69452 0.09973 0.71316 0.0
loop_
_geom_bond_atom_site_label_1
_geom_bond_atom_site_label_2
_geom_bond_distance
_geom_bond_site_symmetry_2
_ccdc_geom_bond_type
C0 O1 1.160 . S
C0 O7 1.185 . S
O1 C0 1.160 . S
O2 Zn3 1.899 . S
O2 C10 1.284 . S
Zn3 O2 1.899 . S
Zn3 O4 2.032 . S
Zn3 O7 2.086 . S
Zn3 O12 1.977 1_455 S
O4 Zn3 2.032 . S
O4 C8 1.278 . S
C5 O6 1.203 . S
C5 O12 1.267 . S
O6 C5 1.203 . S
O7 C0 1.185 . S
O7 Zn3 2.086 . S
C8 O4 1.278 . S
C8 O9 1.211 . S
O9 C8 1.211 . S
C10 O2 1.284 . S
C10 O11 1.273 . S
O11 C10 1.273 . S
O12 Zn3 1.977 1_655 S
O12 C5 1.267 . S
C13 O14 1.160 . S
C13 O20 1.185 . S
O14 C13 1.160 . S
O15 Zn16 1.899 1_655 S
O15 C23 1.284 1_655 S
Zn16 O15 1.899 1_455 S
Zn16 O17 2.032 1_455 S
Zn16 O20 2.086 1_455 S
Zn16 O25 1.977 . S
O17 Zn16 2.032 1_655 S
O17 C21 1.278 1_655 S
C18 O19 1.203 . S
C18 O25 1.267 . S
O19 C18 1.203 . S
O20 C13 1.185 . S
O20 Zn16 2.086 1_655 S
C21 O17 1.278 1_455 S
C21 O22 1.211 . S
O22 C21 1.211 . S
C23 O15 1.284 1_455 S
C23 O24 1.273 . S
O24 C23 1.273 . S
O25 Zn16 1.977 . S
O25 C18 1.267 . S
C26 O27 1.160 . S
C26 O33 1.185 . S
O27 C26 1.160 . S
O28 Zn29 1.899 . S
O28 C36 1.284 . S
Zn29 O28 1.899 . S
Zn29 O30 2.032 . S
Zn29 O33 2.086 . S
Zn29 O38 1.977 . S
O30 Zn29 2.032 . S
O30 C34 1.278 . S
C31 O32 1.203 . S
C31 O38 1.267 . S
O32 C31 1.203 . S
O33 C26 1.185 . S
O33 Zn29 2.086 . S
C34 O30 1.278 . S
C34 O35 1.211 . S
O35 C34 1.211 . S
C36 O28 1.284 . S
C36 O37 1.273 . S
O37 C36 1.273 . S
O38 Zn29 1.977 . S
O38 C31 1.267 . S
C39 O40 1.160 . S
C39 O46 1.185 . S
O40 C39 1.160 . S
O41 Zn42 1.899 . S
O41 C49 1.284 . S
Zn42 O41 1.899 . S
Zn42 O43 2.032 . S
Zn42 O46 2.086 . S
Zn42 O51 1.977 . S
O43 Zn42 2.032 . S
O43 C47 1.278 . S
C44 O45 1.203 . S
C44 O51 1.267 . S
O45 C44 1.203 . S
O46 C39 1.185 . S
O46 Zn42 2.086 . S
C47 O43 1.278 . S
C47 O48 1.211 . S
O48 C47 1.211 . S
C49 O41 1.284 . S
C49 O50 1.273 . S
O50 C49 1.273 . S
O51 Zn42 1.977 . S
O51 C44 1.267 . S
C52 O53 1.160 . S
C52 O59 1.191 . S
O53 C52 1.160 . S
O54 Zn55 1.899 . S
O54 C62 1.284 . S
Zn55 O54 1.899 . S
Zn55 O56 2.032 . S
Zn55 O59 2.082 1_455 S
Zn55 O64 1.977 . S
O56 Zn55 2.032 . S
O56 C60 1.278 . S
C57 O58 1.203 . S
C57 O64 1.267 . S
O58 C57 1.203 . S
O59 C52 1.191 . S
O59 Zn55 2.082 1_655 S
C60 O56 1.278 . S
C60 O61 1.211 . S
O61 C60 1.211 . S
C62 O54 1.284 . S
C62 O63 1.273 . S
O63 C62 1.273 . S
O64 Zn55 1.977 . S
O64 C57 1.267 . S
C65 O66 1.160 . S
C65 O72 1.185 . S
O66 C65 1.160 . S
O67 Zn68 1.899 . S
O67 C75 1.284 . S
Zn68 O67 1.899 . S
Zn68 O69 2.032 . S
Zn68 O72 2.086 . S
Zn68 O77 1.977 . S
O69 Zn68 2.032 . S
O69 C73 1.278 . S
C70 O71 1.203 . S
C70 O77 1.267 . S
O71 C70 1.203 . S
O72 C65 1.185 . S
O72 Zn68 2.086 . S
C73 O69 1.278 . S
C73 O74 1.211 . S
O74 C73 1.211 . S
C75 O67 1.284 . S
C75 O76 1.273 . S
O76 C75 1.273 . S
O77 Zn68 1.977 . S
O77 C70 1.267 . S
C78 O79 1.160 . S
C78 O85 1.185 . S
O79 C78 1.160 . S
O80 Zn81 1.899 . S
O80 C88 1.284 . S
Zn81 O80 1.899 . S
Zn81 O82 2.032 . S
Zn81 O85 2.086 . S
Zn81 O90 1.977 . S
O82 Zn81 2.032 . S
O82 C86 1.278 . S
C83 O84 1.203 . S
C83 O90 1.267 . S
O84 C83 1.203 . S
O85 C78 1.185 . S
O85 Zn81 2.086 . S
C86 O82 1.278 . S
C86 O87 1.211 . S
O87 C86 1.211 . S
C88 O80 1.284 . S
C88 O89 1.273 . S
O89 C88 1.273 . S
O90 Zn81 1.977 . S
O90 C83 1.267 . S
C91 O92 1.160 . S
C91 O98 1.185 . S
O92 C91 1.160 . S
O93 Zn94 1.899 . S
O93 C101 1.284 1_455 S
Zn94 O93 1.899 . S
Zn94 O95 2.032 . S
Zn94 O98 2.086 . S
Zn94 O103 1.977 1_455 S
O95 Zn94 2.032 . S
O95 C99 1.278 . S
C96 O97 1.203 . S
C96 O103 1.267 . S
O97 C96 1.203 . S
O98 C91 1.185 . S
O98 Zn94 2.086 . S
C99 O95 1.278 . S
C99 O100 1.211 1_455 S
O100 C99 1.211 1_655 S
C101 O93 1.284 1_655 S
C101 O102 1.273 . S
O102 C101 1.273 . S
O103 Zn94 1.977 1_655 S
O103 C96 1.267 . S
C104 O105 1.160 . S
C104 O111 1.185 . S
O105 C104 1.160 . S
O106 Zn107 1.899 . S
O106 C114 1.284 . S
Zn107 O106 1.899 . S
Zn107 O108 2.032 . S
Zn107 O111 2.086 . S
Zn107 O116 1.977 1_545 S
O108 Zn107 2.032 . S
O108 C112 1.278 . S
C109 O110 1.203 . S
C109 O116 1.267 . S
O110 C109 1.203 . S
O111 C104 1.185 . S
O111 Zn107 2.086 . S
C112 O108 1.278 . S
C112 O113 1.211 1_545 S
O113 C112 1.211 1_565 S
C114 O106 1.284 . S
C114 O115 1.273 . S
O115 C114 1.273 . S
O116 Zn107 1.977 1_565 S
O116 C109 1.267 . S
C117 O118 1.160 . S
C117 O124 1.185 . S
O118 C117 1.160 . S
O119 Zn120 1.899 . S
O119 C127 1.284 . S
Zn120 O119 1.899 . S
Zn120 O121 2.032 . S
Zn120 O124 2.086 . S
Zn120 O129 1.977 . S
O121 Zn120 2.032 . S
O121 C125 1.278 . S
C122 O123 1.203 . S
C122 O129 1.267 . S
O123 C122 1.203 . S
O124 C117 1.185 . S
O124 Zn120 2.086 . S
C125 O121 1.278 . S
C125 O126 1.211 . S
O126 C125 1.211 . S
C127 O119 1.284 . S
C127 O128 1.273 . S
O128 C127 1.273 . S
O129 Zn120 1.977 . S
O129 C122 1.267 . S
C130 O131 1.160 . S
C130 O137 1.185 . S
O131 C130 1.160 . S
O132 Zn133 1.899 . S
O132 C140 1.284 . S
Zn133 O132 1.899 . S
Zn133 O134 2.032 . S
Zn133 O137 2.086 . S
Zn133 O142 1.977 1_565 S
O134 Zn133 2.032 . S
O134 C138 1.278 1_565 S
C135 O136 1.203 . S
C135 O142 1.267 . S
O136 C135 1.203 . S
O137 C130 1.185 . S
O137 Zn133 2.086 . S
C138 O134 1.278 1_545 S
C138 O139 1.211 . S
O139 C138 1.211 . S
C140 O132 1.284 . S
C140 O141 1.273 1_565 S
O141 C140 1.273 1_545 S
O142 Zn133 1.977 1_545 S
O142 C135 1.267 . S
C143 O144 1.160 . S
C143 O150 1.185 . S
O144 C143 1.160 . S
O145 Zn146 1.899 . S
O145 C153 1.284 . S
Zn146 O145 1.899 . S
Zn146 O147 2.032 1_554 S
Zn146 O150 2.086 . S
Zn146 O155 1.977 . S
O147 Zn146 2.032 1_556 S
O147 C151 1.278 . S
C148 O149 1.203 . S
C148 O155 1.267 . S
O149 C148 1.203 . S
O150 C143 1.185 . S
O150 Zn146 2.086 . S
C151 O147 1.278 . S
C151 O152 1.211 . S
O152 C151 1.211 . S
C153 O145 1.284 . S
C153 O154 1.273 . S
O154 C153 1.273 . S
O155 Zn146 1.977 . S
O155 C148 1.267 . S
C156 O157 1.160 . S
C156 O163 1.185 . S
O157 C156 1.160 . S
O158 Zn159 1.899 . S
O158 C166 1.284 . S
Zn159 O158 1.899 . S
Zn159 O160 2.032 1_554 S
Zn159 O163 2.086 . S
Zn159 O168 1.977 . S
O160 Zn159 2.032 1_556 S
O160 C164 1.278 . S
C161 O162 1.203 . S
C161 O168 1.267 . S
O162 C161 1.203 . S
O163 C156 1.185 . S
O163 Zn159 2.086 . S
C164 O160 1.278 . S
C164 O165 1.211 . S
O165 C164 1.211 . S
C166 O158 1.284 . S
C166 O167 1.273 . S
O167 C166 1.273 . S
O168 Zn159 1.977 . S
O168 C161 1.267 . S
C169 O170 1.160 . S
C169 O176 1.185 1_554 S
O170 C169 1.160 . S
O171 Zn172 1.899 . S
O171 C179 1.284 . S
Zn172 O171 1.899 . S
Zn172 O173 2.032 1_554 S
Zn172 O176 2.086 1_554 S
Zn172 O181 1.977 1_554 S
O173 Zn172 2.032 1_556 S
O173 C177 1.278 . S
C174 O175 1.203 . S
C174 O181 1.267 1_554 S
O175 C174 1.203 . S
O176 C169 1.185 1_556 S
O176 Zn172 2.086 1_556 S
C177 O173 1.278 . S
C177 O178 1.211 . S
O178 C177 1.211 . S
C179 O171 1.284 . S
C179 O180 1.273 . S
O180 C179 1.273 . S
O181 Zn172 1.977 1_556 S
O181 C174 1.267 1_556 S
C182 O183 1.160 . S
C182 O189 1.185 . S
O183 C182 1.160 . S
O184 Zn185 1.899 . S
O184 C192 1.284 . S
Zn185 O184 1.899 . S
Zn185 O186 2.032 . S
Zn185 O189 2.086 . S
Zn185 O194 1.977 . S
O186 Zn185 2.032 . S
O186 C190 1.278 . S
C187 O188 1.203 . S
C187 O194 1.267 . S
O188 C187 1.203 . S
O189 C182 1.185 . S
O189 Zn185 2.086 . S
C190 O186 1.278 . S
C190 O191 1.211 . S
O191 C190 1.211 . S
C192 O184 1.284 . S
C192 O193 1.273 . S
O193 C192 1.273 . S
O194 Zn185 1.977 . S
O194 C187 1.267 . S
C195 O196 1.160 . S
C195 O202 1.185 . S
O196 C195 1.160 . S
O197 Zn198 1.899 . S
O197 C205 1.284 . S
Zn198 O197 1.899 . S
Zn198 O199 2.032 . S
Zn198 O202 2.086 . S
Zn198 O207 1.977 . S
O199 Zn198 2.032 . S
O199 C203 1.278 . S
C200 O201 1.203 . S
C200 O207 1.267 . S
O201 C200 1.203 . S
O202 C195 1.185 . S
O202 Zn198 2.086 . S
C203 O199 1.278 . S
C203 O204 1.211 . S
O204 C203 1.211 . S
C205 O197 1.284 . S
C205 O206 1.273 . S
O206 C205 1.273 . S
O207 Zn198 1.977 . S
O207 C200 1.267 . S
C208 O209 1.160 . S
C208 O215 1.185 . S
O209 C208 1.160 . S
O210 Zn211 1.899 . S
O210 C218 1.284 . S
Zn211 O210 1.899 . S
Zn211 O212 2.032 . S
Zn211 O215 2.086 . S
Zn211 O220 1.977 . S
O212 Zn211 2.032 . S
O212 C216 1.278 . S
C213 O214 1.203 . S
C213 O220 1.267 1_565 S
O214 C213 1.203 . S
O215 C208 1.185 . S
O215 Zn211 2.086 . S
C216 O212 1.278 . S
C216 O217 1.211 . S
O217 C216 1.211 . S
C218 O210 1.284 . S
C218 O219 1.273 . S
O219 C218 1.273 . S
O220 Zn211 1.977 . S
O220 C213 1.267 1_545 S
C221 O222 1.160 . S
C221 O228 1.185 . S
O222 C221 1.160 . S
O223 Zn224 1.899 . S
O223 C231 1.284 . S
Zn224 O223 1.899 . S
Zn224 O225 2.032 . S
Zn224 O228 2.086 . S
Zn224 O233 1.977 . S
O225 Zn224 2.032 . S
O225 C229 1.278 . S
C226 O227 1.203 . S
C226 O233 1.267 . S
O227 C226 1.203 . S
O228 C221 1.185 . S
O228 Zn224 2.086 . S
C229 O225 1.278 . S
C229 O230 1.211 . S
O230 C229 1.211 . S
C231 O223 1.284 . S
C231 O232 1.273 . S
O232 C231 1.273 . S
O233 Zn224 1.977 . S
O233 C226 1.267 . S
C234 O235 1.160 . S
C234 O241 1.185 . S
O235 C234 1.160 . S
O236 Zn237 1.899 . S
O236 C244 1.284 . S
Zn237 O236 1.899 . S
Zn237 O238 2.032 . S
Zn237 O241 2.086 . S
Zn237 O246 1.977 . S
O238 Zn237 2.032 . S
O238 C242 1.278 . S
C239 O240 1.203 . S
C239 O246 1.267 . S
O240 C239 1.203 . S
O241 C234 1.185 . S
O241 Zn237 2.086 . S
C242 O238 1.278 . S
C242 O243 1.211 . S
O243 C242 1.211 . S
C244 O236 1.284 . S
C244 O245 1.273 . S
O245 C244 1.273 . S
O246 Zn237 1.977 . S
O246 C239 1.267 . S
C247 O248 1.160 . S
C247 O254 1.185 . S
O248 C247 1.160 . S
O249 Zn250 1.899 . S
O249 C257 1.284 . S
Zn250 O249 1.899 . S
Zn250 O251 2.032 . S
Zn250 O254 2.086 1_545 S
Zn250 O259 1.977 . S
O251 Zn250 2.032 . S
O251 C255 1.278 . S
C252 O253 1.203 . S
C252 O259 1.267 . S
O253 C252 1.203 . S
O254 C247 1.185 . S
O254 Zn250 2.086 1_565 S
C255 O251 1.278 . S
C255 O256 1.211 . S
O256 C255 1.211 . S
C257 O249 1.284 . S
C257 O258 1.273 . S
O258 C257 1.273 . S
O259 Zn250 1.977 . S
O259 C252 1.267 . S
C260 O261 1.160 . S
C260 O267 1.185 1_554 S
O261 C260 1.160 . S
O262 Zn263 1.899 . S
O262 C270 1.284 . S
Zn263 O262 1.899 . S
Zn263 O264 2.032 1_554 S
Zn263 O267 2.086 1_554 S
Zn263 O272 1.977 1_554 S
O264 Zn263 2.032 1_556 S
O264 C268 1.278 . S
C265 O266 1.203 . S
C265 O272 1.267 1_554 S
O266 C265 1.203 . S
O267 C260 1.185 1_556 S
O267 Zn263 2.086 1_556 S
C268 O264 1.278 . S
C268 O269 1.211 . S
O269 C268 1.211 . S
C270 O262 1.284 . S
C270 O271 1.273 . S
O271 C270 1.273 . S
O272 Zn263 1.977 1_556 S
O272 C265 1.267 1_556 S
C273 O274 1.160 . S
C273 O280 1.185 . S
O274 C273 1.160 . S
O275 Zn276 1.899 . S
O275 C283 1.284 . S
Zn276 O275 1.899 . S
Zn276 O277 2.032 . S
Zn276 O280 2.086 . S
Zn276 O285 1.977 . S
O277 Zn276 2.032 . S
O277 C281 1.278 . S
C278 O279 1.203 . S
C278 O285 1.267 . S
O279 C278 1.203 . S
O280 C273 1.185 . S
O280 Zn276 2.086 . S
C281 O277 1.278 . S
C281 O282 1.211 . S
O282 C281 1.211 . S
C283 O275 1.284 . S
C283 O284 1.273 . S
O284 C283 1.273 . S
O285 Zn276 1.977 . S
O285 C278 1.267 . S
C286 O287 1.160 . S
C286 O293 1.185 . S
O287 C286 1.160 . S
O288 Zn289 1.899 . S
O288 C296 1.284 . S
Zn289 O288 1.899 . S
Zn289 O290 2.032 . S
Zn289 O293 2.086 . S
Zn289 O298 1.977 . S
O290 Zn289 2.032 . S
O290 C294 1.278 . S
C291 O292 1.203 . S
C291 O298 1.267 . S
O292 C291 1.203 . S
O293 C286 1.185 . S
O293 Zn289 2.086 . S
C294 O290 1.278 . S
C294 O295 1.211 . S
O295 C294 1.211 . S
C296 O288 1.284 . S
C296 O297 1.273 . S
O297 C296 1.273 . S
O298 Zn289 1.977 . S
O298 C291 1.267 . S
C299 O300 1.160 . S
C299 O306 1.185 . S
O300 C299 1.160 . S
O301 Zn302 1.899 . S
O301 C309 1.284 . S
Zn302 O301 1.899 . S
Zn302 O303 2.032 . S
Zn302 O306 2.086 . S
Zn302 O311 1.977 . S
O303 Zn302 2.032 . S
O303 C307 1.278 . S
C304 O305 1.203 . S
C304 O311 1.267 . S
O305 C304 1.203 . S
O306 C299 1.185 . S
O306 Zn302 2.086 . S
C307 O303 1.278 . S
C307 O308 1.211 . S
O308 C307 1.211 . S
C309 O301 1.284 . S
C309 O310 1.273 . S
O310 C309 1.273 . S
O311 Zn302 1.977 . S
O311 C304 1.267 . S
Dy312 O316 2.398 . S
Dy312 O317 2.491 1_556 S
Dy312 O318 2.403 1_545 S
Dy312 O319 2.664 1_655 S
Dy312 O323 2.326 . S
Dy312 O327 2.324 1_556 S
Dy312 O328 2.351 1_546 S
C313 O324 1.172 1_565 S
C313 O325 1.355 . S
C314 O316 1.185 . S
C314 O317 1.355 1_556 S
Dy315 O319 2.310 1_554 S
Dy315 O322 2.351 . S
Dy315 O324 2.398 . S
Dy315 O325 2.491 1_545 S
Dy315 O326 2.403 . S
Dy315 O327 2.630 1_455 S
Dy315 O329 2.326 1_545 S
O316 Dy312 2.398 . S
O316 C314 1.185 . S
O317 Dy312 2.491 1_554 S
O317 C314 1.355 1_554 S
O318 Dy312 2.403 1_565 S
O318 C320 1.252 1_655 S
O319 Dy312 2.664 1_455 S
O319 Dy315 2.310 1_556 S
O319 C320 1.266 1_545 S
C320 O318 1.252 1_455 S
C320 O319 1.266 1_565 S
C321 O326 1.254 . S
C321 O327 1.261 1_455 S
O322 Dy315 2.351 . S
O322 C330 1.249 1_554 S
O323 Dy312 2.326 . S
O323 C330 1.267 1_655 S
O324 C313 1.172 1_545 S
O324 Dy315 2.398 . S
O325 C313 1.355 . S
O325 Dy315 2.491 1_565 S
O326 Dy315 2.403 . S
O326 C321 1.254 . S
O327 Dy312 2.324 1_554 S
O327 Dy315 2.630 1_655 S
O327 C321 1.261 1_655 S
O328 Dy312 2.351 1_564 S
O328 C331 1.249 1_655 S
O329 Dy315 2.326 1_565 S
O329 C331 1.267 . S
C330 O322 1.249 1_556 S
C330 O323 1.267 1_455 S
C331 O328 1.249 1_455 S
C331 O329 1.267 . S
Dy332 O336 2.398 . S
Dy332 O337 2.491 . S
Dy332 O338 2.403 . S
Dy332 O339 2.664 . S
Dy332 O343 2.326 . S
Dy332 O347 2.310 . S
Dy332 O348 2.351 . S
C333 O344 1.185 . S
C333 O345 1.355 . S
C334 O336 1.185 . S
C334 O337 1.355 . S
Dy335 O339 2.310 . S
Dy335 O342 2.351 . S
Dy335 O344 2.398 . S
Dy335 O345 2.491 . S
Dy335 O346 2.403 . S
Dy335 O347 2.664 . S
Dy335 O349 2.326 . S
O336 Dy332 2.398 . S
O336 C334 1.185 . S
O337 Dy332 2.491 . S
O337 C334 1.355 . S
O338 Dy332 2.403 . S
O338 C340 1.254 . S
O339 Dy332 2.664 . S
O339 Dy335 2.310 . S
O339 C340 1.268 . S
C340 O338 1.254 . S
C340 O339 1.268 . S
C341 O346 1.254 . S
C341 O347 1.268 . S
O342 Dy335 2.351 . S
O342 C350 1.249 . S
O343 Dy332 2.326 . S
O343 C350 1.267 . S
O344 C333 1.185 . S
O344 Dy335 2.398 . S
O345 C333 1.355 . S
O345 Dy335 2.491 . S
O346 Dy335 2.403 . S
O346 C341 1.254 . S
O347 Dy332 2.310 . S
O347 Dy335 2.664 . S
O347 C341 1.268 . S
O348 Dy332 2.351 . S
O348 C351 1.249 . S
O349 Dy335 2.326 . S
O349 C351 1.267 . S
C350 O342 1.249 . S
C350 O343 1.267 . S
C351 O348 1.249 . S
C351 O349 1.267 . S
Dy352 O356 2.398 . S
Dy352 O357 2.491 1_545 S
Dy352 O358 2.403 . S
Dy352 O359 2.664 . S
Dy352 O363 2.326 1_545 S
Dy352 O367 2.310 . S
Dy352 O368 2.351 . S
C353 O364 1.185 . S
C353 O365 1.355 . S
C354 O356 1.185 1_565 S
C354 O357 1.355 . S
Dy355 O359 2.310 . S
Dy355 O362 2.351 1_545 S
Dy355 O364 2.398 . S
Dy355 O365 2.491 . S
Dy355 O366 2.403 . S
Dy355 O367 2.664 . S
Dy355 O369 2.326 . S
O356 Dy352 2.398 . S
O356 C354 1.185 1_545 S
O357 Dy352 2.491 1_565 S
O357 C354 1.355 . S
O358 Dy352 2.403 . S
O358 C360 1.254 . S
O359 Dy352 2.664 . S
O359 Dy355 2.310 . S
O359 C360 1.268 . S
C360 O358 1.254 . S
C360 O359 1.268 . S
C361 O366 1.254 . S
C361 O367 1.268 . S
O362 Dy355 2.351 1_565 S
O362 C370 1.249 . S
O363 Dy352 2.326 1_565 S
O363 C370 1.267 . S
O364 C353 1.185 . S
O364 Dy355 2.398 . S
O365 C353 1.355 . S
O365 Dy355 2.491 . S
O366 Dy355 2.403 . S
O366 C361 1.254 . S
O367 Dy352 2.310 . S
O367 Dy355 2.664 . S
O367 C361 1.268 . S
O368 Dy352 2.351 . S
O368 C371 1.249 . S
O369 Dy355 2.326 . S
O369 C371 1.267 . S
C370 O362 1.249 . S
C370 O363 1.267 . S
C371 O368 1.249 . S
C371 O369 1.267 . S
Dy372 O376 2.398 . S
Dy372 O377 2.491 . S
Dy372 O378 2.403 . S
Dy372 O379 2.664 . S
Dy372 O383 2.326 . S
Dy372 O387 2.310 . S
Dy372 O388 2.351 . S
C373 O384 1.185 . S
C373 O385 1.355 . S
C374 O376 1.185 . S
C374 O377 1.355 . S
Dy375 O379 2.310 . S
Dy375 O382 2.351 . S
Dy375 O384 2.398 . S
Dy375 O385 2.491 . S
Dy375 O386 2.403 . S
Dy375 O387 2.664 . S
Dy375 O389 2.326 . S
O376 Dy372 2.398 . S
O376 C374 1.185 . S
O377 Dy372 2.491 . S
O377 C374 1.355 . S
O378 Dy372 2.403 . S
O378 C380 1.254 . S
O379 Dy372 2.664 . S
O379 Dy375 2.310 . S
O379 C380 1.268 . S
C380 O378 1.254 . S
C380 O379 1.268 . S
C381 O386 1.254 . S
C381 O387 1.268 . S
O382 Dy375 2.351 . S
O382 C390 1.249 . S
O383 Dy372 2.326 . S
O383 C390 1.267 . S
O384 C373 1.185 . S
O384 Dy375 2.398 . S
O385 C373 1.355 . S
O385 Dy375 2.491 . S
O386 Dy375 2.403 . S
O386 C381 1.254 . S
O387 Dy372 2.310 . S
O387 Dy375 2.664 . S
O387 C381 1.268 . S
O388 Dy372 2.351 . S
O388 C391 1.249 . S
O389 Dy375 2.326 . S
O389 C391 1.267 . S
C390 O382 1.249 . S
C390 O383 1.267 . S
C391 O388 1.249 . S
C391 O389 1.267 . S
Dy392 O396 2.398 . S
Dy392 O397 2.491 1_455 S
Dy392 O398 2.403 . S
Dy392 O399 2.664 . S
Dy392 O403 2.326 . S
Dy392 O407 2.310 1_455 S
Dy392 O408 2.351 1_545 S
C393 O404 1.185 . S
C393 O405 1.355 . S
C394 O396 1.185 1_655 S
C394 O397 1.355 . S
Dy395 O399 2.310 . S
Dy395 O402 2.351 . S
Dy395 O404 2.398 . S
Dy395 O405 2.491 . S
Dy395 O406 2.403 1_455 S
Dy395 O407 2.664 1_455 S
Dy395 O409 2.326 1_545 S
O396 Dy392 2.398 . S
O396 C394 1.185 1_455 S
O397 Dy392 2.491 1_655 S
O397 C394 1.355 . S
O398 Dy392 2.403 . S
O398 C400 1.254 . S
O399 Dy392 2.664 . S
O399 Dy395 2.310 . S
O399 C400 1.268 . S
C400 O398 1.254 . S
C400 O399 1.268 . S
C401 O406 1.254 . S
C401 O407 1.268 . S
O402 Dy395 2.351 . S
O402 C410 1.249 . S
O403 Dy392 2.326 . S
O403 C410 1.267 . S
O404 C393 1.185 . S
O404 Dy395 2.398 . S
O405 C393 1.355 . S
O405 Dy395 2.491 . S
O406 Dy395 2.403 1_655 S
O406 C401 1.254 . S
O407 Dy392 2.310 1_655 S
O407 Dy395 2.664 1_655 S
O407 C401 1.268 . S
O408 Dy392 2.351 1_565 S
O408 C411 1.249 . S
O409 Dy395 2.326 1_565 S
O409 C411 1.267 . S
C410 O402 1.249 . S
C410 O403 1.267 . S
C411 O408 1.249 . S
C411 O409 1.267 . S
Dy412 O416 2.398 . S
Dy412 O417 2.491 . S
Dy412 O418 2.403 . S
Dy412 O419 2.664 . S
Dy412 O423 2.326 . S
Dy412 O427 2.310 . S
Dy412 O428 2.351 . S
C413 O424 1.185 . S
C413 O425 1.355 . S
C414 O416 1.185 . S
C414 O417 1.355 . S
Dy415 O419 2.310 . S
Dy415 O422 2.351 . S
Dy415 O424 2.398 . S
Dy415 O425 2.491 . S
Dy415 O426 2.403 . S
Dy415 O427 2.664 . S
Dy415 O429 2.326 . S
O416 Dy412 2.398 . S
O416 C414 1.185 . S
O417 Dy412 2.491 . S
O417 C414 1.355 . S
O418 Dy412 2.403 . S
O418 C420 1.254 . S
O419 Dy412 2.664 . S
O419 Dy415 2.310 . S
O419 C420 1.268 . S
C420 O418 1.254 . S
C420 O419 1.268 . S
C421 O426 1.254 . S
C421 O427 1.268 . S
O422 Dy415 2.351 . S
O422 C430 1.249 . S
O423 Dy412 2.326 . S
O423 C430 1.267 . S
O424 C413 1.185 . S
O424 Dy415 2.398 . S
O425 C413 1.355 . S
O425 Dy415 2.491 . S
O426 Dy415 2.403 . S
O426 C421 1.254 . S
O427 Dy412 2.310 . S
O427 Dy415 2.664 . S
O427 C421 1.268 . S
O428 Dy412 2.351 . S
O428 C431 1.249 . S
O429 Dy415 2.326 . S
O429 C431 1.267 . S
C430 O422 1.249 . S
C430 O423 1.267 . S
C431 O428 1.249 . S
C431 O429 1.267 . S
Dy432 O436 2.398 1_545 S
Dy432 O437 2.491 . S
Dy432 O438 2.403 1_545 S
Dy432 O439 2.664 1_544 S
Dy432 O443 2.326 1_545 S
Dy432 O447 2.310 . S
Dy432 O448 2.351 . S
C433 O444 1.185 . S
C433 O445 1.355 . S
C434 O436 1.185 . S
C434 O437 1.355 1_565 S
Dy435 O439 2.310 1_545 S
Dy435 O442 2.351 . S
Dy435 O444 2.398 . S
Dy435 O445 2.491 . S
Dy435 O446 2.403 . S
Dy435 O447 2.664 1_556 S
Dy435 O449 2.326 . S
O436 Dy432 2.398 1_565 S
O436 C434 1.185 . S
O437 Dy432 2.491 . S
O437 C434 1.355 1_545 S
O438 Dy432 2.403 1_565 S
O438 C440 1.256 . S
O439 Dy432 2.664 1_566 S
O439 Dy435 2.310 1_565 S
O439 C440 1.267 1_556 S
C440 O438 1.256 . S
C440 O439 1.267 1_554 S
C441 O446 1.254 1_554 S
C441 O447 1.268 . S
O442 Dy435 2.351 . S
O442 C450 1.249 1_546 S
O443 Dy432 2.326 1_565 S
O443 C450 1.267 . S
O444 C433 1.185 . S
O444 Dy435 2.398 . S
O445 C433 1.355 . S
O445 Dy435 2.491 . S
O446 Dy435 2.403 . S
O446 C441 1.254 1_556 S
O447 Dy432 2.310 . S
O447 Dy435 2.664 1_554 S
O447 C441 1.268 . S
O448 Dy432 2.351 . S
O448 C451 1.249 . S
O449 Dy435 2.326 . S
O449 C451 1.267 1_556 S
C450 O442 1.249 1_564 S
C450 O443 1.267 . S
C451 O448 1.249 . S
C451 O449 1.267 1_554 S
Dy452 O456 2.398 . S
Dy452 O457 2.491 . S
Dy452 O458 2.403 . S
Dy452 O459 2.664 . S
Dy452 O463 2.326 . S
Dy452 O467 2.310 . S
Dy452 O468 2.351 . S
C453 O464 1.185 . S
C453 O465 1.355 . S
C454 O456 1.185 . S
C454 O457 1.355 . S
Dy455 O459 2.310 . S
Dy455 O462 2.351 . S
Dy455 O464 2.398 . S
Dy455 O465 2.491 . S
Dy455 O466 2.403 . S
Dy455 O467 2.664 . S
Dy455 O469 2.326 . S
O456 Dy452 2.398 . S
O456 C454 1.185 . S
O457 Dy452 2.491 . S
O457 C454 1.355 . S
O458 Dy452 2.403 . S
O458 C460 1.254 . S
O459 Dy452 2.664 . S
O459 Dy455 2.310 . S
O459 C460 1.268 . S
C460 O458 1.254 . S
C460 O459 1.268 . S
C461 O466 1.254 . S
C461 O467 1.268 . S
O462 Dy455 2.351 . S
O462 C470 1.249 . S
O463 Dy452 2.326 . S
O463 C470 1.267 . S
O464 C453 1.185 . S
O464 Dy455 2.398 . S
O465 C453 1.355 . S
O465 Dy455 2.491 . S
O466 Dy455 2.403 . S
O466 C461 1.254 . S
O467 Dy452 2.310 . S
O467 Dy455 2.664 . S
O467 C461 1.268 . S
O468 Dy452 2.351 . S
O468 C471 1.249 . S
O469 Dy455 2.326 . S
O469 C471 1.267 . S
C470 O462 1.249 . S
C470 O463 1.267 . S
C471 O468 1.249 . S
C471 O469 1.267 . S
Dy472 O476 2.398 . S
Dy472 O477 2.491 . S
Dy472 O478 2.403 . S
Dy472 O479 2.664 1_556 S
Dy472 O483 2.326 . S
Dy472 O487 2.310 1_556 S
Dy472 O488 2.369 . S
C473 O484 1.185 . S
C473 O485 1.355 . S
C474 O476 1.185 . S
C474 O477 1.355 . S
Dy475 O479 2.310 . S
Dy475 O482 2.351 . S
Dy475 O484 2.398 . S
Dy475 O485 2.491 . S
Dy475 O486 2.403 . S
Dy475 O487 2.664 . S
Dy475 O489 2.326 . S
O476 Dy472 2.398 . S
O476 C474 1.185 . S
O477 Dy472 2.491 . S
O477 C474 1.355 . S
O478 Dy472 2.403 . S
O478 C480 1.254 . S
O479 Dy472 2.664 1_554 S
O479 Dy475 2.310 . S
O479 C480 1.268 1_554 S
C480 O478 1.254 . S
C480 O479 1.268 1_556 S
C481 O486 1.254 . S
C481 O487 1.268 . S
O482 Dy475 2.351 . S
O482 C490 1.249 1_554 S
O483 Dy472 2.326 . S
O483 C490 1.267 . S
O484 C473 1.185 . S
O484 Dy475 2.398 . S
O485 C473 1.355 . S
O485 Dy475 2.491 . S
O486 Dy475 2.403 . S
O486 C481 1.254 . S
O487 Dy472 2.310 1_554 S
O487 Dy475 2.664 . S
O487 C481 1.268 . S
O488 Dy472 2.369 . S
O488 C491 1.223 1_556 S
O489 Dy475 2.326 . S
O489 C491 1.267 . S
C490 O482 1.249 1_556 S
C490 O483 1.267 . S
C491 O488 1.223 1_554 S
C491 O489 1.267 . S
Dy492 O496 2.398 . S
Dy492 O497 2.491 . S
Dy492 O498 2.403 . S
Dy492 O499 2.664 . S
Dy492 O503 2.326 . S
Dy492 O507 2.310 . S
Dy492 O508 2.351 . S
C493 O504 1.185 . S
C493 O505 1.355 . S
C494 O496 1.185 . S
C494 O497 1.355 . S
Dy495 O499 2.310 . S
Dy495 O502 2.351 . S
Dy495 O504 2.398 . S
Dy495 O505 2.491 . S
Dy495 O506 2.403 . S
Dy495 O507 2.664 . S
Dy495 O509 2.326 . S
O496 Dy492 2.398 . S
O496 C494 1.185 . S
O497 Dy492 2.491 . S
O497 C494 1.355 . S
O498 Dy492 2.403 . S
O498 C500 1.254 . S
O499 Dy492 2.664 . S
O499 Dy495 2.310 . S
O499 C500 1.268 . S
C500 O498 1.254 . S
C500 O499 1.268 . S
C501 O506 1.254 . S
C501 O507 1.268 . S
O502 Dy495 2.351 . S
O502 C510 1.249 . S
O503 Dy492 2.326 . S
O503 C510 1.267 . S
O504 C493 1.185 . S
O504 Dy495 2.398 . S
O505 C493 1.355 . S
O505 Dy495 2.491 . S
O506 Dy495 2.403 . S
O506 C501 1.254 . S
O507 Dy492 2.310 . S
O507 Dy495 2.664 . S
O507 C501 1.268 . S
O508 Dy492 2.351 . S
O508 C511 1.249 . S
O509 Dy495 2.326 . S
O509 C511 1.267 . S
C510 O502 1.249 . S
C510 O503 1.267 . S
C511 O508 1.249 . S
C511 O509 1.267 . S
Dy512 O516 2.402 . S
Dy512 O517 2.491 1_455 S
Dy512 O518 2.403 . S
Dy512 O519 2.664 . S
Dy512 O523 2.326 1_455 S
Dy512 O527 2.310 . S
Dy512 O528 2.351 . S
C513 O524 1.185 . S
C513 O525 1.355 . S
C514 O516 1.178 1_655 S
C514 O517 1.355 . S
Dy515 O519 2.310 . S
Dy515 O522 2.351 1_455 S
Dy515 O524 2.398 . S
Dy515 O525 2.491 . S
Dy515 O526 2.403 . S
Dy515 O527 2.664 . S
Dy515 O529 2.326 . S
O516 Dy512 2.402 . S
O516 C514 1.178 1_455 S
O517 Dy512 2.491 1_655 S
O517 C514 1.355 . S
O518 Dy512 2.403 . S
O518 C520 1.254 . S
O519 Dy512 2.664 . S
O519 Dy515 2.310 . S
O519 C520 1.268 . S
C520 O518 1.254 . S
C520 O519 1.268 . S
C521 O526 1.254 . S
C521 O527 1.268 . S
O522 Dy515 2.351 1_655 S
O522 C530 1.249 . S
O523 Dy512 2.326 1_655 S
O523 C530 1.267 . S
O524 C513 1.185 . S
O524 Dy515 2.398 . S
O525 C513 1.355 . S
O525 Dy515 2.491 . S
O526 Dy515 2.403 . S
O526 C521 1.254 . S
O527 Dy512 2.310 . S
O527 Dy515 2.664 . S
O527 C521 1.268 . S
O528 Dy512 2.351 . S
O528 C531 1.249 . S
O529 Dy515 2.326 . S
O529 C531 1.267 . S
C530 O522 1.249 . S
C530 O523 1.267 . S
C531 O528 1.249 . S
C531 O529 1.267 . S
Dy532 O536 2.398 . S
Dy532 O537 2.491 . S
Dy532 O538 2.403 . S
Dy532 O539 2.664 . S
Dy532 O543 2.326 . S
Dy532 O547 2.310 . S
Dy532 O548 2.351 . S
C533 O544 1.185 . S
C533 O545 1.355 . S
C534 O536 1.185 . S
C534 O537 1.355 . S
Dy535 O539 2.310 . S
Dy535 O542 2.351 . S
Dy535 O544 2.398 . S
Dy535 O545 2.491 . S
Dy535 O546 2.403 . S
Dy535 O547 2.664 . S
Dy535 O549 2.326 . S
O536 Dy532 2.398 . S
O536 C534 1.185 . S
O537 Dy532 2.491 . S
O537 C534 1.355 . S
O538 Dy532 2.403 . S
O538 C540 1.254 . S
O539 Dy532 2.664 . S
O539 Dy535 2.310 . S
O539 C540 1.268 . S
C540 O538 1.254 . S
C540 O539 1.268 . S
C541 O546 1.254 . S
C541 O547 1.268 . S
O542 Dy535 2.351 . S
O542 C550 1.249 . S
O543 Dy532 2.326 . S
O543 C550 1.267 . S
O544 C533 1.185 . S
O544 Dy535 2.398 . S
O545 C533 1.355 . S
O545 Dy535 2.491 . S
O546 Dy535 2.403 . S
O546 C541 1.254 . S
O547 Dy532 2.310 . S
O547 Dy535 2.664 . S
O547 C541 1.268 . S
O548 Dy532 2.351 . S
O548 C551 1.249 . S
O549 Dy535 2.326 . S
O549 C551 1.267 . S
C550 O542 1.249 . S
C550 O543 1.267 . S
C551 O548 1.249 . S
C551 O549 1.267 . S
Dy552 O556 2.398 . S
Dy552 O557 2.491 . S
Dy552 O558 2.403 . S
Dy552 O559 2.664 . S
Dy552 O563 2.326 . S
Dy552 O567 2.310 . S
Dy552 O568 2.351 . S
C553 O564 1.185 . S
C553 O565 1.355 . S
C554 O556 1.185 . S
C554 O557 1.355 . S
Dy555 O559 2.310 . S
Dy555 O562 2.351 . S
Dy555 O564 2.398 . S
Dy555 O565 2.491 . S
Dy555 O566 2.403 . S
Dy555 O567 2.664 . S
Dy555 O569 2.326 . S
O556 Dy552 2.398 . S
O556 C554 1.185 . S
O557 Dy552 2.491 . S
O557 C554 1.355 . S
O558 Dy552 2.403 . S
O558 C560 1.254 . S
O559 Dy552 2.664 . S
O559 Dy555 2.310 . S
O559 C560 1.268 . S
C560 O558 1.254 . S
C560 O559 1.268 . S
C561 O566 1.254 . S
C561 O567 1.268 . S
O562 Dy555 2.351 . S
O562 C570 1.249 . S
O563 Dy552 2.326 . S
O563 C570 1.267 . S
O564 C553 1.185 . S
O564 Dy555 2.398 . S
O565 C553 1.355 . S
O565 Dy555 2.491 . S
O566 Dy555 2.403 . S
O566 C561 1.254 . S
O567 Dy552 2.310 . S
O567 Dy555 2.664 . S
O567 C561 1.268 . S
O568 Dy552 2.351 . S
O568 C571 1.249 . S
O569 Dy555 2.326 . S
O569 C571 1.267 . S
C570 O562 1.249 . S
C570 O563 1.267 . S
C571 O568 1.249 . S
C571 O569 1.267 . S
Dy572 O576 2.398 . S
Dy572 O577 2.491 . S
Dy572 O578 2.403 . S
Dy572 O579 2.664 . S
Dy572 O583 2.326 . S
Dy572 O587 2.310 . S
Dy572 O588 2.351 . S
C573 O584 1.185 . S
C573 O585 1.355 . S
C574 O576 1.185 . S
C574 O577 1.355 . S
Dy575 O579 2.310 . S
Dy575 O582 2.351 . S
Dy575 O584 2.398 . S
Dy575 O585 2.491 . S
Dy575 O586 2.403 . S
Dy575 O587 2.664 . S
Dy575 O589 2.326 . S
O576 Dy572 2.398 . S
O576 C574 1.185 . S
O577 Dy572 2.491 . S
O577 C574 1.355 . S
O578 Dy572 2.403 . S
O578 C580 1.254 . S
O579 Dy572 2.664 . S
O579 Dy575 2.310 . S
O579 C580 1.268 . S
C580 O578 1.254 . S
C580 O579 1.268 . S
C581 O586 1.254 . S
C581 O587 1.268 . S
O582 Dy575 2.351 . S
O582 C590 1.249 . S
O583 Dy572 2.326 . S
O583 C590 1.267 . S
O584 C573 1.185 . S
O584 Dy575 2.398 . S
O585 C573 1.355 . S
O585 Dy575 2.491 . S
O586 Dy575 2.403 . S
O586 C581 1.254 . S
O587 Dy572 2.310 . S
O587 Dy575 2.664 . S
O587 C581 1.268 . S
O588 Dy572 2.351 . S
O588 C591 1.249 . S
O589 Dy575 2.326 . S
O589 C591 1.267 . S
C590 O582 1.249 . S
C590 O583 1.267 . S
C591 O588 1.249 . S
C591 O589 1.267 . S
Dy592 O596 2.398 . S
Dy592 O597 2.491 . S
Dy592 O598 2.403 . S
Dy592 O599 2.664 . S
Dy592 O603 2.326 . S
Dy592 O607 2.310 . S
Dy592 O608 2.351 . S
C593 O604 1.185 . S
C593 O605 1.355 . S
C594 O596 1.185 . S
C594 O597 1.355 . S
Dy595 O599 2.310 . S
Dy595 O602 2.351 . S
Dy595 O604 2.398 . S
Dy595 O605 2.491 . S
Dy595 O606 2.403 . S
Dy595 O607 2.664 . S
Dy595 O609 2.326 . S
O596 Dy592 2.398 . S
O596 C594 1.185 . S
O597 Dy592 2.491 . S
O597 C594 1.355 . S
O598 Dy592 2.403 . S
O598 C600 1.254 . S
O599 Dy592 2.664 . S
O599 Dy595 2.310 . S
O599 C600 1.268 . S
C600 O598 1.254 . S
C600 O599 1.268 . S
C601 O606 1.254 . S
C601 O607 1.268 . S
O602 Dy595 2.351 . S
O602 C610 1.249 . S
O603 Dy592 2.326 . S
O603 C610 1.267 . S
O604 C593 1.185 . S
O604 Dy595 2.398 . S
O605 C593 1.355 . S
O605 Dy595 2.491 . S
O606 Dy595 2.403 . S
O606 C601 1.254 . S
O607 Dy592 2.310 . S
O607 Dy595 2.664 . S
O607 C601 1.268 . S
O608 Dy592 2.351 . S
O608 C611 1.249 . S
O609 Dy595 2.326 . S
O609 C611 1.267 . S
C610 O602 1.249 . S
C610 O603 1.267 . S
C611 O608 1.249 . S
C611 O609 1.267 . S
Dy612 O616 2.398 . S
Dy612 O617 2.491 1_556 S
Dy612 O618 2.403 . S
Dy612 O619 2.664 . S
Dy612 O623 2.326 . S
Dy612 O627 2.310 1_556 S
Dy612 O628 2.351 1_556 S
C613 O624 1.185 . S
C613 O625 1.338 1_554 S
C614 O616 1.185 . S
C614 O617 1.355 1_556 S
Dy615 O619 2.310 1_654 S
Dy615 O622 2.346 1_554 S
Dy615 O624 2.398 . S
Dy615 O625 2.485 1_554 S
Dy615 O626 2.411 . S
Dy615 O627 2.664 1_655 S
Dy615 O629 2.326 1_655 S
O616 Dy612 2.398 . S
O616 C614 1.185 . S
O617 Dy612 2.491 1_554 S
O617 C614 1.355 1_554 S
O618 Dy612 2.403 . S
O618 C620 1.254 . S
O619 Dy612 2.664 . S
O619 Dy615 2.310 1_456 S
O619 C620 1.268 . S
C620 O618 1.254 . S
C620 O619 1.268 . S
C621 O626 1.234 1_455 S
C621 O627 1.268 . S
O622 Dy615 2.346 1_556 S
O622 C630 1.260 1_655 S
O623 Dy612 2.326 . S
O623 C630 1.267 . S
O624 C613 1.185 . S
O624 Dy615 2.398 . S
O625 C613 1.338 1_556 S
O625 Dy615 2.485 1_556 S
O626 Dy615 2.411 . S
O626 C621 1.234 1_655 S
O627 Dy612 2.310 1_554 S
O627 Dy615 2.664 1_455 S
O627 C621 1.268 . S
O628 Dy612 2.351 1_554 S
O628 C631 1.249 . S
O629 Dy615 2.326 1_455 S
O629 C631 1.267 . S
C630 O622 1.260 1_455 S
C630 O623 1.267 . S
C631 O628 1.249 . S
C631 O629 1.267 . S
C632 C633 1.369 1_455 S
C632 C634 1.419 . S
C632 H636 0.930 . S
C633 C632 1.369 1_655 S
C633 C642 1.429 . S
C634 C632 1.419 . S
C634 C635 1.363 . S
C634 H637 0.929 . S
C635 C634 1.363 . S
C635 C641 1.428 1_455 S
H636 C632 0.930 . S
H637 C634 0.929 . S
S638 N639 1.613 . S
S638 N640 1.610 . S
N639 S638 1.613 . S
N639 C642 1.350 1_554 S
N640 S638 1.610 . S
N640 C641 1.351 1_554 S
C641 C635 1.428 1_655 S
C641 N640 1.351 1_556 S
C641 C642 1.434 . S
C642 C633 1.429 . S
C642 N639 1.350 1_556 S
C642 C641 1.434 . S
C643 C644 1.369 . S
C643 C645 1.419 . S
C643 H647 0.930 . S
C644 C643 1.369 . S
C644 C653 1.429 . S
C645 C643 1.419 . S
C645 C646 1.363 . S
C645 H648 0.929 . S
C646 C645 1.363 . S
C646 C652 1.428 . S
H647 C643 0.930 . S
H648 C645 0.929 . S
S649 N650 1.613 . S
S649 N651 1.610 . S
N650 S649 1.613 . S
N650 C653 1.350 . S
N651 S649 1.610 . S
N651 C652 1.351 . S
C652 C646 1.428 . S
C652 N651 1.351 . S
C652 C653 1.434 . S
C653 C644 1.429 . S
C653 N650 1.350 . S
C653 C652 1.434 . S
C654 C655 1.369 . S
C654 C656 1.419 . S
C654 H658 0.930 . S
C655 C654 1.369 . S
C655 C664 1.429 . S
C656 C654 1.419 . S
C656 C657 1.363 . S
C656 H659 0.929 . S
C657 C656 1.363 . S
C657 C663 1.428 . S
H658 C654 0.930 . S
H659 C656 0.929 . S
S660 N661 1.613 . S
S660 N662 1.610 . S
N661 S660 1.613 . S
N661 C664 1.350 . S
N662 S660 1.610 . S
N662 C663 1.351 . S
C663 C657 1.428 . S
C663 N662 1.351 . S
C663 C664 1.434 . S
C664 C655 1.429 . S
C664 N661 1.350 . S
C664 C663 1.434 . S
C665 C666 1.369 . S
C665 C667 1.419 . S
C665 H669 0.930 . S
C666 C665 1.369 . S
C666 C675 1.429 . S
C667 C665 1.419 . S
C667 C668 1.363 . S
C667 H670 0.929 . S
C668 C667 1.363 . S
C668 C674 1.428 . S
H669 C665 0.930 . S
H670 C667 0.929 . S
S671 N672 1.613 . S
S671 N673 1.610 . S
N672 S671 1.613 . S
N672 C675 1.350 . S
N673 S671 1.610 . S
N673 C674 1.351 . S
C674 C668 1.428 . S
C674 N673 1.351 . S
C674 C675 1.434 . S
C675 C666 1.429 . S
C675 N672 1.350 . S
C675 C674 1.434 . S
C676 C677 1.369 . S
C676 C678 1.419 . S
C676 H680 0.930 . S
C677 C676 1.369 . S
C677 C686 1.429 . S
C678 C676 1.419 . S
C678 C679 1.363 . S
C678 H681 0.929 . S
C679 C678 1.363 . S
C679 C685 1.428 . S
H680 C676 0.930 . S
H681 C678 0.929 . S
S682 N683 1.613 . S
S682 N684 1.610 . S
N683 S682 1.613 . S
N683 C686 1.350 . S
N684 S682 1.610 . S
N684 C685 1.351 . S
C685 C679 1.428 . S
C685 N684 1.351 . S
C685 C686 1.434 . S
C686 C677 1.429 . S
C686 N683 1.350 . S
C686 C685 1.434 . S
C687 C688 1.369 . S
C687 C689 1.419 . S
C687 H691 0.930 . S
C688 C687 1.369 . S
C688 C697 1.429 . S
C689 C687 1.419 . S
C689 C690 1.363 . S
C689 H692 0.929 . S
C690 C689 1.363 . S
C690 C696 1.428 . S
H691 C687 0.930 . S
H692 C689 0.929 . S
S693 N694 1.613 . S
S693 N695 1.610 . S
N694 S693 1.613 . S
N694 C697 1.350 . S
N695 S693 1.610 . S
N695 C696 1.351 . S
C696 C690 1.428 . S
C696 N695 1.351 . S
C696 C697 1.434 . S
C697 C688 1.429 . S
C697 N694 1.350 . S
C697 C696 1.434 . S
C698 C699 1.369 . S
C698 C700 1.419 . S
C698 H702 0.930 . S
C699 C698 1.369 . S
C699 C708 1.429 . S
C700 C698 1.419 . S
C700 C701 1.363 . S
C700 H703 0.928 1_554 S
C701 C700 1.363 . S
C701 C707 1.428 . S
H702 C698 0.930 . S
H703 C700 0.928 1_556 S
S704 N705 1.613 . S
S704 N706 1.610 . S
N705 S704 1.613 . S
N705 C708 1.350 . S
N706 S704 1.610 . S
N706 C707 1.351 . S
C707 C701 1.428 . S
C707 N706 1.351 . S
C707 C708 1.434 . S
C708 C699 1.429 . S
C708 N705 1.350 . S
C708 C707 1.434 . S
C709 C710 1.369 . S
C709 C711 1.419 . S
C709 H713 0.930 . S
C710 C709 1.369 . S
C710 C719 1.429 . S
C711 C709 1.419 . S
C711 C712 1.363 . S
C711 H714 0.929 . S
C712 C711 1.363 . S
C712 C718 1.428 . S
H713 C709 0.930 . S
H714 C711 0.929 . S
S715 N716 1.613 . S
S715 N717 1.610 . S
N716 S715 1.613 . S
N716 C719 1.350 . S
N717 S715 1.610 . S
N717 C718 1.351 . S
C718 C712 1.428 . S
C718 N717 1.351 . S
C718 C719 1.434 . S
C719 C710 1.429 . S
C719 N716 1.350 . S
C719 C718 1.434 . S
C720 C721 1.369 . S
C720 C722 1.419 . S
C720 H724 0.930 . S
C721 C720 1.369 . S
C721 C730 1.429 . S
C722 C720 1.419 . S
C722 C723 1.363 . S
C722 H725 0.929 . S
C723 C722 1.363 . S
C723 C729 1.428 . S
H724 C720 0.930 . S
H725 C722 0.929 . S
S726 N727 1.613 1_455 S
S726 N728 1.610 . S
N727 S726 1.613 1_655 S
N727 C730 1.350 . S
N728 S726 1.610 . S
N728 C729 1.351 1_455 S
C729 C723 1.428 . S
C729 N728 1.351 1_655 S
C729 C730 1.434 . S
C730 C721 1.429 . S
C730 N727 1.350 . S
C730 C729 1.434 . S
C731 C732 1.369 . S
C731 C733 1.419 . S
C731 H735 0.930 . S
C732 C731 1.369 . S
C732 C741 1.429 . S
C733 C731 1.419 . S
C733 C734 1.363 . S
C733 H736 0.929 . S
C734 C733 1.363 . S
C734 C740 1.428 . S
H735 C731 0.930 . S
H736 C733 0.929 . S
S737 N738 1.613 . S
S737 N739 1.610 . S
N738 S737 1.613 . S
N738 C741 1.350 . S
N739 S737 1.610 . S
N739 C740 1.351 . S
C740 C734 1.428 . S
C740 N739 1.351 . S
C740 C741 1.434 . S
C741 C732 1.429 . S
C741 N738 1.350 . S
C741 C740 1.434 . S
C742 C743 1.369 1_565 S
C742 C744 1.419 . S
C742 H746 0.930 . S
C743 C742 1.369 1_545 S
C743 C752 1.429 . S
C744 C742 1.419 . S
C744 C745 1.363 1_565 S
C744 H747 0.929 . S
C745 C744 1.363 1_545 S
C745 C751 1.428 . S
H746 C742 0.930 . S
H747 C744 0.929 . S
S748 N749 1.613 . S
S748 N750 1.610 . S
N749 S748 1.613 . S
N749 C752 1.350 . S
N750 S748 1.610 . S
N750 C751 1.351 . S
C751 C745 1.428 . S
C751 N750 1.351 . S
C751 C752 1.434 . S
C752 C743 1.429 . S
C752 N749 1.350 . S
C752 C751 1.434 . S
C753 C754 1.369 . S
C753 C755 1.419 . S
C753 H757 0.930 . S
C754 C753 1.369 . S
C754 C763 1.429 . S
C755 C753 1.419 . S
C755 C756 1.363 . S
C755 H758 0.929 . S
C756 C755 1.363 . S
C756 C762 1.428 . S
H757 C753 0.930 . S
H758 C755 0.929 . S
S759 N760 1.613 . S
S759 N761 1.610 . S
N760 S759 1.613 . S
N760 C763 1.350 . S
N761 S759 1.610 . S
N761 C762 1.351 . S
C762 C756 1.428 . S
C762 N761 1.351 . S
C762 C763 1.434 . S
C763 C754 1.429 . S
C763 N760 1.350 . S
C763 C762 1.434 . S
C764 C765 1.369 . S
C764 C766 1.419 . S
C764 H768 0.930 . S
C765 C764 1.369 . S
C765 C774 1.429 . S
C766 C764 1.419 . S
C766 C767 1.363 . S
C766 H769 0.929 . S
C767 C766 1.363 . S
C767 C773 1.428 . S
H768 C764 0.930 . S
H769 C766 0.929 . S
S770 N771 1.613 1_565 S
S770 N772 1.609 1_655 S
N771 S770 1.613 1_545 S
N771 C774 1.350 . S
N772 S770 1.609 1_455 S
N772 C773 1.328 1_465 S
C773 C767 1.428 . S
C773 N772 1.328 1_645 S
C773 C774 1.434 . S
C774 C765 1.429 . S
C774 N771 1.350 . S
C774 C773 1.434 . S
C775 C776 1.369 . S
C775 C777 1.419 . S
C775 H779 0.930 . S
C776 C775 1.369 . S
C776 C785 1.429 . S
C777 C775 1.419 . S
C777 C778 1.363 . S
C777 H780 0.929 . S
C778 C777 1.363 . S
C778 C784 1.428 . S
H779 C775 0.930 . S
H780 C777 0.929 . S
S781 N782 1.613 . S
S781 N783 1.610 . S
N782 S781 1.613 . S
N782 C785 1.350 . S
N783 S781 1.610 . S
N783 C784 1.351 . S
C784 C778 1.428 . S
C784 N783 1.351 . S
C784 C785 1.434 . S
C785 C776 1.429 . S
C785 N782 1.350 . S
C785 C784 1.434 . S
C786 C787 1.369 . S
C786 C788 1.419 . S
C786 H790 0.930 . S
C787 C786 1.369 . S
C787 C796 1.429 . S
C788 C786 1.419 . S
C788 C789 1.363 . S
C788 H791 0.929 . S
C789 C788 1.363 . S
C789 C795 1.428 . S
H790 C786 0.930 . S
H791 C788 0.929 . S
S792 N793 1.613 . S
S792 N794 1.610 1_565 S
N793 S792 1.613 . S
N793 C796 1.350 1_565 S
N794 S792 1.610 1_545 S
N794 C795 1.351 . S
C795 C789 1.428 . S
C795 N794 1.351 . S
C795 C796 1.434 . S
C796 C787 1.429 . S
C796 N793 1.350 1_545 S
C796 C795 1.434 . S
C797 C798 1.369 . S
C797 C799 1.419 . S
C797 H801 0.930 . S
C798 C797 1.369 . S
C798 C807 1.429 . S
C799 C797 1.419 . S
C799 C800 1.363 . S
C799 H802 0.929 . S
C800 C799 1.363 . S
C800 C806 1.428 . S
H801 C797 0.930 . S
H802 C799 0.929 . S
S803 N804 1.613 . S
S803 N805 1.610 . S
N804 S803 1.613 . S
N804 C807 1.350 . S
N805 S803 1.610 . S
N805 C806 1.351 . S
C806 C800 1.428 . S
C806 N805 1.351 . S
C806 C807 1.434 . S
C807 C798 1.429 . S
C807 N804 1.350 . S
C807 C806 1.434 . S
C808 C809 1.369 . S
C808 C810 1.429 . S
C808 H812 0.933 . S
C809 C808 1.369 . S
C809 C818 1.429 . S
C810 C808 1.429 . S
C810 C811 1.369 . S
C810 H813 0.913 1_565 S
C811 C810 1.369 . S
C811 C817 1.428 . S
H812 C808 0.933 . S
H813 C810 0.913 1_545 S
S814 N815 1.613 . S
S814 N816 1.602 1_556 S
N815 S814 1.613 . S
N815 C818 1.350 1_556 S
N816 S814 1.602 1_554 S
N816 C817 1.357 . S
C817 C811 1.428 . S
C817 N816 1.357 . S
C817 C818 1.434 . S
C818 C809 1.429 . S
C818 N815 1.350 1_554 S
C818 C817 1.434 . S
C819 C820 1.363 1_556 S
C819 C821 1.419 . S
C819 H823 0.930 . S
C820 C819 1.363 1_554 S
C820 C829 1.439 . S
C821 C819 1.419 . S
C821 C822 1.363 1_556 S
C821 H824 0.929 . S
C822 C821 1.363 1_554 S
C822 C828 1.428 . S
H823 C819 0.930 . S
H824 C821 0.929 . S
S825 N826 1.613 . S
S825 N827 1.610 . S
N826 S825 1.613 . S
N826 C829 1.350 . S
N827 S825 1.610 . S
N827 C828 1.351 . S
C828 C822 1.428 . S
C828 N827 1.351 . S
C828 C829 1.434 . S
C829 C820 1.439 . S
C829 N826 1.350 . S
C829 C828 1.434 . S
C830 C831 1.369 . S
C830 C832 1.419 . S
C830 H834 0.930 . S
C831 C830 1.369 . S
C831 C840 1.429 . S
C832 C830 1.419 . S
C832 C833 1.363 . S
C832 H835 0.929 . S
C833 C832 1.363 . S
C833 C839 1.428 . S
H834 C830 0.930 . S
H835 C832 0.929 . S
S836 N837 1.613 . S
S836 N838 1.610 . S
N837 S836 1.613 . S
N837 C840 1.350 . S
N838 S836 1.610 . S
N838 C839 1.351 . S
C839 C833 1.428 . S
C839 N838 1.351 . S
C839 C840 1.434 . S
C840 C831 1.429 . S
C840 N837 1.350 . S
C840 C839 1.434 . S
C841 C842 1.369 . S
C841 C843 1.419 . S
C841 H845 0.930 . S
C842 C841 1.369 . S
C842 C851 1.429 . S
C843 C841 1.419 . S
C843 C844 1.363 . S
C843 H846 0.929 . S
C844 C843 1.363 . S
C844 C850 1.428 . S
H845 C841 0.930 . S
H846 C843 0.929 . S
S847 N848 1.613 . S
S847 N849 1.610 . S
N848 S847 1.613 . S
N848 C851 1.350 . S
N849 S847 1.610 . S
N849 C850 1.351 . S
C850 C844 1.428 . S
C850 N849 1.351 . S
C850 C851 1.434 . S
C851 C842 1.429 . S
C851 N848 1.350 . S
C851 C850 1.434 . S
C852 C853 1.369 . S
C852 C854 1.419 . S
C852 H856 0.930 . S
C853 C852 1.369 . S
C853 C862 1.429 . S
C854 C852 1.419 . S
C854 C855 1.363 . S
C854 H857 0.929 . S
C855 C854 1.363 . S
C855 C861 1.428 . S
H856 C852 0.930 . S
H857 C854 0.929 . S
S858 N859 1.613 . S
S858 N860 1.610 . S
N859 S858 1.613 . S
N859 C862 1.350 . S
N860 S858 1.610 . S
N860 C861 1.351 . S
C861 C855 1.428 . S
C861 N860 1.351 . S
C861 C862 1.434 . S
C862 C853 1.429 . S
C862 N859 1.350 . S
C862 C861 1.434 . S
C863 C864 1.369 . S
C863 C865 1.419 . S
C863 H867 0.930 . S
C864 C863 1.369 . S
C864 C873 1.429 . S
C865 C863 1.419 . S
C865 C866 1.363 . S
C865 H868 0.929 . S
C866 C865 1.363 . S
C866 C872 1.428 . S
H867 C863 0.930 . S
H868 C865 0.929 . S
S869 N870 1.613 . S
S869 N871 1.610 . S
N870 S869 1.613 . S
N870 C873 1.350 . S
N871 S869 1.610 . S
N871 C872 1.351 . S
C872 C866 1.428 . S
C872 N871 1.351 . S
C872 C873 1.434 . S
C873 C864 1.429 . S
C873 N870 1.350 . S
C873 C872 1.434 . S
C874 C875 1.369 . S
C874 C876 1.419 . S
C874 H878 0.930 . S
C875 C874 1.369 . S
C875 C884 1.429 . S
C876 C874 1.419 . S
C876 C877 1.363 . S
C876 H879 0.929 . S
C877 C876 1.363 . S
C877 C883 1.428 . S
H878 C874 0.930 . S
H879 C876 0.929 . S
S880 N881 1.613 . S
S880 N882 1.610 . S
N881 S880 1.613 . S
N881 C884 1.350 . S
N882 S880 1.610 . S
N882 C883 1.351 . S
C883 C877 1.428 . S
C883 N882 1.351 . S
C883 C884 1.434 . S
C884 C875 1.429 . S
C884 N881 1.350 . S
C884 C883 1.434 . S
C885 C886 1.369 . S
C885 C887 1.419 . S
C885 H889 0.930 . S
C886 C885 1.369 . S
C886 C895 1.429 . S
C887 C885 1.419 . S
C887 C888 1.363 . S
C887 H890 0.929 . S
C888 C887 1.363 . S
C888 C894 1.428 . S
H889 C885 0.930 . S
H890 C887 0.929 . S
S891 N892 1.613 . S
S891 N893 1.610 . S
N892 S891 1.613 . S
N892 C895 1.350 . S
N893 S891 1.610 . S
N893 C894 1.351 . S
C894 C888 1.428 . S
C894 N893 1.351 . S
C894 C895 1.434 . S
C895 C886 1.429 . S
C895 N892 1.350 . S
C895 C894 1.434 . S
C896 C897 1.369 . S
C896 C898 1.419 . S
C896 H900 0.930 . S
C897 C896 1.369 . S
C897 C906 1.429 . S
C898 C896 1.419 . S
C898 C899 1.363 . S
C898 H901 0.929 . S
C899 C898 1.363 . S
C899 C905 1.428 . S
H900 C896 0.930 . S
H901 C898 0.929 . S
S902 N903 1.613 1_556 S
S902 N904 1.610 . S
N903 S902 1.613 1_554 S
N903 C906 1.350 1_655 S
N904 S902 1.610 . S
N904 C905 1.351 1_656 S
C905 C899 1.428 . S
C905 N904 1.351 1_454 S
C905 C906 1.434 . S
C906 C897 1.429 . S
C906 N903 1.350 1_455 S
C906 C905 1.434 . S
C907 C908 1.369 . S
C907 C909 1.419 . S
C907 H911 0.930 . S
C908 C907 1.369 . S
C908 C917 1.429 . S
C909 C907 1.419 . S
C909 C910 1.363 . S
C909 H912 0.929 . S
C910 C909 1.363 . S
C910 C916 1.428 . S
H911 C907 0.930 . S
H912 C909 0.929 . S
S913 N914 1.613 . S
S913 N915 1.610 . S
N914 S913 1.613 . S
N914 C917 1.350 . S
N915 S913 1.610 . S
N915 C916 1.351 . S
C916 C910 1.428 . S
C916 N915 1.351 . S
C916 C917 1.434 . S
C917 C908 1.429 . S
C917 N914 1.350 . S
C917 C916 1.434 . S
C918 C919 1.369 . S
C918 C920 1.419 . S
C918 H922 0.930 . S
C919 C918 1.369 . S
C919 C928 1.429 . S
C920 C918 1.419 . S
C920 C921 1.363 . S
C920 H923 0.929 . S
C921 C920 1.363 . S
C921 C927 1.428 . S
H922 C918 0.930 . S
H923 C920 0.929 . S
S924 N925 1.613 . S
S924 N926 1.610 . S
N925 S924 1.613 . S
N925 C928 1.350 . S
N926 S924 1.610 . S
N926 C927 1.351 . S
C927 C921 1.428 . S
C927 N926 1.351 . S
C927 C928 1.434 . S
C928 C919 1.429 . S
C928 N925 1.350 . S
C928 C927 1.434 . S
C929 C930 1.369 . S
C929 C931 1.419 . S
C929 H933 0.930 . S
C930 C929 1.369 . S
C930 C939 1.429 . S
C931 C929 1.419 . S
C931 C932 1.363 . S
C931 H934 0.929 . S
C932 C931 1.363 . S
C932 C938 1.428 . S
H933 C929 0.930 . S
H934 C931 0.929 . S
S935 N936 1.613 . S
S935 N937 1.610 . S
N936 S935 1.613 . S
N936 C939 1.350 . S
N937 S935 1.610 . S
N937 C938 1.351 . S
C938 C932 1.428 . S
C938 N937 1.351 . S
C938 C939 1.434 . S
C939 C930 1.429 . S
C939 N936 1.350 . S
C939 C938 1.434 . S
C940 C941 1.369 . S
C940 C942 1.419 . S
C940 H944 0.930 . S
C941 C940 1.369 . S
C941 C950 1.429 1_455 S
C942 C940 1.419 . S
C942 C943 1.363 . S
C942 H945 0.929 . S
C943 C942 1.363 . S
C943 C949 1.428 1_455 S
H944 C940 0.930 . S
H945 C942 0.929 . S
S946 N947 1.613 . S
S946 N948 1.610 . S
N947 S946 1.613 . S
N947 C950 1.350 . S
N948 S946 1.610 . S
N948 C949 1.351 . S
C949 C943 1.428 1_655 S
C949 N948 1.351 . S
C949 C950 1.434 . S
C950 C941 1.429 1_655 S
C950 N947 1.350 . S
C950 C949 1.434 . S
C951 C952 1.369 . S
C951 C953 1.419 . S
C951 H955 0.930 . S
C952 C951 1.369 . S
C952 C961 1.429 . S
C953 C951 1.419 . S
C953 C954 1.363 . S
C953 H956 0.929 . S
C954 C953 1.363 . S
C954 C960 1.428 . S
H955 C951 0.930 . S
H956 C953 0.929 . S
S957 N958 1.613 . S
S957 N959 1.610 . S
N958 S957 1.613 . S
N958 C961 1.350 . S
N959 S957 1.610 . S
N959 C960 1.351 . S
C960 C954 1.428 . S
C960 N959 1.351 . S
C960 C961 1.434 . S
C961 C952 1.429 . S
C961 N958 1.350 . S
C961 C960 1.434 . S
C962 C963 1.369 . S
C962 C964 1.419 . S
C962 H966 0.930 . S
C963 C962 1.369 . S
C963 C972 1.429 . S
C964 C962 1.419 . S
C964 C965 1.363 . S
C964 H967 0.929 1_556 S
C965 C964 1.363 . S
C965 C971 1.428 . S
H966 C962 0.930 . S
H967 C964 0.929 1_554 S
S968 N969 1.613 . S
S968 N970 1.610 . S
N969 S968 1.613 . S
N969 C972 1.350 . S
N970 S968 1.610 . S
N970 C971 1.351 . S
C971 C965 1.428 . S
C971 N970 1.351 . S
C971 C972 1.434 . S
C972 C963 1.429 . S
C972 N969 1.350 . S
C972 C971 1.434 . S
C973 C974 1.369 . S
C973 C975 1.419 . S
C973 H977 0.930 . S
C974 C973 1.369 . S
C974 C983 1.429 . S
C975 C973 1.419 . S
C975 C976 1.363 . S
C975 H978 0.929 . S
C976 C975 1.363 . S
C976 C982 1.428 . S
H977 C973 0.930 . S
H978 C975 0.929 . S
S979 N980 1.613 . S
S979 N981 1.610 . S
N980 S979 1.613 . S
N980 C983 1.350 . S
N981 S979 1.610 . S
N981 C982 1.351 . S
C982 C976 1.428 . S
C982 N981 1.351 . S
C982 C983 1.434 . S
C983 C974 1.429 . S
C983 N980 1.350 . S
C983 C982 1.434 . S
C984 C985 1.369 1_545 S
C984 C986 1.419 . S
C984 H988 0.930 . S
C985 C984 1.369 1_565 S
C985 C994 1.429 . S
C986 C984 1.419 . S
C986 C987 1.363 1_545 S
C986 H989 0.929 . S
C987 C986 1.363 1_565 S
C987 C993 1.428 . S
H988 C984 0.930 . S
H989 C986 0.929 . S
S990 N991 1.613 . S
S990 N992 1.610 . S
N991 S990 1.613 . S
N991 C994 1.350 . S
N992 S990 1.610 . S
N992 C993 1.351 . S
C993 C987 1.428 . S
C993 N992 1.351 . S
C993 C994 1.434 . S
C994 C985 1.429 . S
C994 N991 1.350 . S
C994 C993 1.434 . S
C995 C996 1.369 . S
C995 C997 1.419 . S
C995 H999 0.930 . S
C996 C995 1.369 . S
C996 C1005 1.429 . S
C997 C995 1.419 . S
C997 C998 1.363 . S
C997 H1000 0.929 . S
C998 C997 1.363 . S
C998 C1004 1.428 . S
H999 C995 0.930 . S
H1000 C997 0.929 . S
S1001 N1002 1.613 . S
S1001 N1003 1.610 . S
N1002 S1001 1.613 . S
N1002 C1005 1.350 . S
N1003 S1001 1.610 . S
N1003 C1004 1.351 . S
C1004 C998 1.428 . S
C1004 N1003 1.351 . S
C1004 C1005 1.434 . S
C1005 C996 1.429 . S
C1005 N1002 1.350 . S
C1005 C1004 1.434 . S
C1006 C1007 1.369 . S
C1006 C1008 1.419 . S
C1006 H1010 0.930 . S
C1007 C1006 1.369 . S
C1007 C1016 1.429 . S
C1008 C1006 1.419 . S
C1008 C1009 1.363 . S
C1008 H1011 0.929 . S
C1009 C1008 1.363 . S
C1009 C1015 1.428 . S
H1010 C1006 0.930 . S
H1011 C1008 0.929 . S
S1012 N1013 1.613 . S
S1012 N1014 1.610 . S
N1013 S1012 1.613 . S
N1013 C1016 1.350 . S
N1014 S1012 1.610 . S
N1014 C1015 1.351 . S
C1015 C1009 1.428 . S
C1015 N1014 1.351 . S
C1015 C1016 1.434 . S
C1016 C1007 1.429 . S
C1016 N1013 1.350 . S
C1016 C1015 1.434 . S
C1017 C1018 1.369 . S
C1017 C1019 1.419 . S
C1017 H1021 0.930 . S
C1018 C1017 1.369 . S
C1018 C1027 1.429 . S
C1019 C1017 1.419 . S
C1019 C1020 1.363 . S
C1019 H1022 0.929 . S
C1020 C1019 1.363 . S
C1020 C1026 1.428 . S
H1021 C1017 0.930 . S
H1022 C1019 0.929 . S
S1023 N1024 1.613 . S
S1023 N1025 1.610 . S
N1024 S1023 1.613 . S
N1024 C1027 1.350 . S
N1025 S1023 1.610 . S
N1025 C1026 1.351 . S
C1026 C1020 1.428 . S
C1026 N1025 1.351 . S
C1026 C1027 1.434 . S
C1027 C1018 1.429 . S
C1027 N1024 1.350 . S
C1027 C1026 1.434 . S
C1028 C1029 1.369 . S
C1028 C1030 1.419 . S
C1028 H1032 0.930 . S
C1029 C1028 1.369 . S
C1029 C1038 1.429 1_565 S
C1030 C1028 1.419 . S
C1030 C1031 1.363 1_565 S
C1030 H1033 0.929 . S
C1031 C1030 1.363 1_545 S
C1031 C1037 1.428 . S
H1032 C1028 0.930 . S
H1033 C1030 0.929 . S
S1034 N1035 1.613 . S
S1034 N1036 1.610 . S
N1035 S1034 1.613 . S
N1035 C1038 1.350 . S
N1036 S1034 1.610 . S
N1036 C1037 1.351 . S
C1037 C1031 1.428 . S
C1037 N1036 1.351 . S
C1037 C1038 1.434 . S
C1038 C1029 1.429 1_545 S
C1038 N1035 1.350 . S
C1038 C1037 1.434 . S
C1039 C1040 1.369 . S
C1039 C1041 1.419 . S
C1039 H1043 0.930 . S
C1040 C1039 1.369 . S
C1040 C1049 1.429 . S
C1041 C1039 1.419 . S
C1041 C1042 1.363 . S
C1041 H1044 0.929 . S
C1042 C1041 1.363 . S
C1042 C1048 1.428 . S
H1043 C1039 0.930 . S
H1044 C1041 0.929 . S
S1045 N1046 1.613 . S
S1045 N1047 1.610 . S
N1046 S1045 1.613 . S
N1046 C1049 1.350 . S
N1047 S1045 1.610 . S
N1047 C1048 1.351 . S
C1048 C1042 1.428 . S
C1048 N1047 1.351 . S
C1048 C1049 1.434 . S
C1049 C1040 1.429 . S
C1049 N1046 1.350 . S
C1049 C1048 1.434 . S
C1050 C1051 1.369 1_565 S
C1050 C1052 1.419 . S
C1050 H1054 0.930 . S
C1051 C1050 1.369 1_545 S
C1051 C1060 1.429 . S
C1052 C1050 1.419 . S
C1052 C1053 1.363 . S
C1052 H1055 0.929 . S
C1053 C1052 1.363 . S
C1053 C1059 1.428 1_565 S
H1054 C1050 0.930 . S
H1055 C1052 0.929 . S
S1056 N1057 1.613 . S
S1056 N1058 1.610 . S
N1057 S1056 1.613 . S
N1057 C1060 1.350 . S
N1058 S1056 1.610 . S
N1058 C1059 1.351 . S
C1059 C1053 1.428 1_545 S
C1059 N1058 1.351 . S
C1059 C1060 1.434 . S
C1060 C1051 1.429 . S
C1060 N1057 1.350 . S
C1060 C1059 1.434 . S
C1061 C1062 1.369 . S
C1061 C1063 1.419 . S
C1061 H1065 0.930 . S
C1062 C1061 1.369 . S
C1062 C1071 1.429 . S
C1063 C1061 1.419 . S
C1063 C1064 1.363 . S
C1063 H1066 0.929 . S
C1064 C1063 1.363 . S
C1064 C1070 1.428 . S
H1065 C1061 0.930 . S
H1066 C1063 0.929 . S
S1067 N1068 1.613 . S
S1067 N1069 1.610 . S
N1068 S1067 1.613 . S
N1068 C1071 1.350 . S
N1069 S1067 1.610 . S
N1069 C1070 1.351 . S
C1070 C1064 1.428 . S
C1070 N1069 1.351 . S
C1070 C1071 1.434 . S
C1071 C1062 1.429 . S
C1071 N1068 1.350 . S
C1071 C1070 1.434 . S
C1072 C1073 1.369 . S
C1072 C1074 1.419 . S
C1072 H1076 0.930 . S
C1073 C1072 1.369 . S
C1073 C1082 1.429 . S
C1074 C1072 1.419 . S
C1074 C1075 1.363 . S
C1074 H1077 0.929 . S
C1075 C1074 1.363 . S
C1075 C1081 1.428 . S
H1076 C1072 0.930 . S
H1077 C1074 0.929 . S
S1078 N1079 1.613 . S
S1078 N1080 1.610 1_554 S
N1079 S1078 1.613 . S
N1079 C1082 1.350 1_554 S
N1080 S1078 1.610 1_556 S
N1080 C1081 1.351 . S
C1081 C1075 1.428 . S
C1081 N1080 1.351 . S
C1081 C1082 1.434 . S
C1082 C1073 1.429 . S
C1082 N1079 1.350 1_556 S
C1082 C1081 1.434 . S
C1083 C1084 1.369 . S
C1083 C1085 1.419 . S
C1083 H1087 0.930 . S
C1084 C1083 1.369 . S
C1084 C1093 1.429 1_554 S
C1085 C1083 1.419 . S
C1085 C1086 1.363 . S
C1085 H1088 0.929 . S
C1086 C1085 1.363 . S
C1086 C1092 1.428 1_554 S
H1087 C1083 0.930 . S
H1088 C1085 0.929 . S
S1089 N1090 1.613 . S
S1089 N1091 1.610 . S
N1090 S1089 1.613 . S
N1090 C1093 1.350 . S
N1091 S1089 1.610 . S
N1091 C1092 1.351 . S
C1092 C1086 1.428 1_556 S
C1092 N1091 1.351 . S
C1092 C1093 1.434 . S
C1093 C1084 1.429 1_556 S
C1093 N1090 1.350 . S
C1093 C1092 1.434 . S
C1094 C1095 1.369 . S
C1094 C1096 1.419 . S
C1094 H1098 0.930 . S
C1095 C1094 1.369 . S
C1095 C1104 1.429 . S
C1096 C1094 1.419 . S
C1096 C1097 1.363 . S
C1096 H1099 0.929 . S
C1097 C1096 1.363 . S
C1097 C1103 1.428 . S
H1098 C1094 0.930 . S
H1099 C1096 0.929 . S
S1100 N1101 1.613 . S
S1100 N1102 1.610 . S
N1101 S1100 1.613 . S
N1101 C1104 1.350 . S
N1102 S1100 1.610 . S
N1102 C1103 1.351 . S
C1103 C1097 1.428 . S
C1103 N1102 1.351 . S
C1103 C1104 1.434 . S
C1104 C1095 1.429 . S
C1104 N1101 1.350 . S
C1104 C1103 1.434 . S
C1105 C1106 1.369 . S
C1105 C1107 1.419 . S
C1105 H1109 0.930 . S
C1106 C1105 1.369 . S
C1106 C1115 1.429 . S
C1107 C1105 1.419 . S
C1107 C1108 1.363 . S
C1107 H1110 0.929 . S
C1108 C1107 1.363 . S
C1108 C1114 1.428 . S
H1109 C1105 0.930 . S
H1110 C1107 0.929 . S
S1111 N1112 1.613 . S
S1111 N1113 1.610 . S
N1112 S1111 1.613 . S
N1112 C1115 1.350 . S
N1113 S1111 1.610 . S
N1113 C1114 1.351 . S
C1114 C1108 1.428 . S
C1114 N1113 1.351 . S
C1114 C1115 1.434 . S
C1115 C1106 1.429 . S
C1115 N1112 1.350 . S
C1115 C1114 1.434 . S
C1116 C1117 1.369 . S
C1116 C1118 1.419 . S
C1116 H1120 0.930 . S
C1117 C1116 1.369 . S
C1117 C1126 1.429 . S
C1118 C1116 1.419 . S
C1118 C1119 1.363 . S
C1118 H1121 0.929 . S
C1119 C1118 1.363 . S
C1119 C1125 1.428 . S
H1120 C1116 0.930 . S
H1121 C1118 0.929 . S
S1122 N1123 1.613 . S
S1122 N1124 1.610 . S
N1123 S1122 1.613 . S
N1123 C1126 1.350 . S
N1124 S1122 1.610 . S
N1124 C1125 1.351 . S
C1125 C1119 1.428 . S
C1125 N1124 1.351 . S
C1125 C1126 1.434 . S
C1126 C1117 1.429 . S
C1126 N1123 1.350 . S
C1126 C1125 1.434 . S
C1127 C1128 1.369 . S
C1127 C1129 1.419 . S
C1127 H1131 0.930 . S
C1128 C1127 1.369 . S
C1128 C1137 1.429 . S
C1129 C1127 1.419 . S
C1129 C1130 1.363 . S
C1129 H1132 0.929 . S
C1130 C1129 1.363 . S
C1130 C1136 1.428 . S
H1131 C1127 0.930 . S
H1132 C1129 0.929 . S
S1133 N1134 1.613 1_545 S
S1133 N1135 1.610 . S
N1134 S1133 1.613 1_565 S
N1134 C1137 1.350 . S
N1135 S1133 1.610 . S
N1135 C1136 1.351 1_545 S
C1136 C1130 1.428 . S
C1136 N1135 1.351 1_565 S
C1136 C1137 1.434 . S
C1137 C1128 1.429 . S
C1137 N1134 1.350 . S
C1137 C1136 1.434 . S
C1138 C1139 1.369 . S
C1138 C1140 1.419 . S
C1138 H1142 0.930 . S
C1139 C1138 1.369 . S
C1139 C1148 1.429 . S
C1140 C1138 1.419 . S
C1140 C1141 1.363 . S
C1140 H1143 0.929 . S
C1141 C1140 1.363 . S
C1141 C1147 1.428 . S
H1142 C1138 0.930 . S
H1143 C1140 0.929 . S
S1144 N1145 1.613 . S
S1144 N1146 1.610 . S
N1145 S1144 1.613 . S
N1145 C1148 1.350 . S
N1146 S1144 1.610 . S
N1146 C1147 1.351 . S
C1147 C1141 1.428 . S
C1147 N1146 1.351 . S
C1147 C1148 1.434 . S
C1148 C1139 1.429 . S
C1148 N1145 1.350 . S
C1148 C1147 1.434 . S
C1149 C1150 1.369 . S
C1149 C1151 1.419 . S
C1149 H1153 0.930 . S
C1150 C1149 1.369 . S
C1150 C1159 1.429 . S
C1151 C1149 1.419 . S
C1151 C1152 1.363 . S
C1151 H1154 0.929 . S
C1152 C1151 1.363 . S
C1152 C1158 1.428 . S
H1153 C1149 0.930 . S
H1154 C1151 0.929 . S
S1155 N1156 1.613 . S
S1155 N1157 1.610 . S
N1156 S1155 1.613 . S
N1156 C1159 1.350 . S
N1157 S1155 1.610 . S
N1157 C1158 1.351 . S
C1158 C1152 1.428 . S
C1158 N1157 1.351 . S
C1158 C1159 1.434 . S
C1159 C1150 1.429 . S
C1159 N1156 1.350 . S
C1159 C1158 1.434 . S
C1160 C1161 1.369 . S
C1160 C1162 1.419 . S
C1160 H1164 0.930 . S
C1161 C1160 1.369 . S
C1161 C1170 1.429 . S
C1162 C1160 1.419 . S
C1162 C1163 1.363 . S
C1162 H1165 0.929 . S
C1163 C1162 1.363 . S
C1163 C1169 1.428 . S
H1164 C1160 0.930 . S
H1165 C1162 0.929 . S
S1166 N1167 1.613 . S
S1166 N1168 1.610 . S
N1167 S1166 1.613 . S
N1167 C1170 1.350 . S
N1168 S1166 1.610 . S
N1168 C1169 1.351 . S
C1169 C1163 1.428 . S
C1169 N1168 1.351 . S
C1169 C1170 1.434 . S
C1170 C1161 1.429 . S
C1170 N1167 1.350 . S
C1170 C1169 1.434 . S
C1171 C1172 1.369 . S
C1171 C1173 1.419 . S
C1171 H1175 0.930 . S
C1172 C1171 1.369 . S
C1172 C1181 1.429 . S
C1173 C1171 1.419 . S
C1173 C1174 1.363 . S
C1173 H1176 0.929 . S
C1174 C1173 1.363 . S
C1174 C1180 1.428 . S
H1175 C1171 0.930 . S
H1176 C1173 0.929 . S
S1177 N1178 1.613 . S
S1177 N1179 1.610 . S
N1178 S1177 1.613 . S
N1178 C1181 1.350 . S
N1179 S1177 1.610 . S
N1179 C1180 1.351 . S
C1180 C1174 1.428 . S
C1180 N1179 1.351 . S
C1180 C1181 1.434 . S
C1181 C1172 1.429 . S
C1181 N1178 1.350 . S
C1181 C1180 1.434 . S
C1182 C1183 1.369 . S
C1182 C1184 1.419 . S
C1182 H1186 0.930 . S
C1183 C1182 1.369 . S
C1183 C1192 1.429 . S
C1184 C1182 1.419 . S
C1184 C1185 1.363 . S
C1184 H1187 0.929 1_556 S
C1185 C1184 1.363 . S
C1185 C1191 1.428 . S
H1186 C1182 0.930 . S
H1187 C1184 0.929 1_554 S
S1188 N1189 1.613 . S
S1188 N1190 1.610 . S
N1189 S1188 1.613 . S
N1189 C1192 1.350 1_655 S
N1190 S1188 1.610 . S
N1190 C1191 1.351 1_655 S
C1191 C1185 1.428 . S
C1191 N1190 1.351 1_455 S
C1191 C1192 1.434 . S
C1192 C1183 1.429 . S
C1192 N1189 1.350 1_455 S
C1192 C1191 1.434 . S
C1193 C1194 1.369 . S
C1193 C1195 1.419 . S
C1193 H1197 0.930 . S
C1194 C1193 1.369 . S
C1194 C1203 1.429 . S
C1195 C1193 1.419 . S
C1195 C1196 1.363 . S
C1195 H1198 0.929 . S
C1196 C1195 1.363 . S
C1196 C1202 1.428 . S
H1197 C1193 0.930 . S
H1198 C1195 0.929 . S
S1199 N1200 1.613 . S
S1199 N1201 1.610 . S
N1200 S1199 1.613 . S
N1200 C1203 1.350 . S
N1201 S1199 1.610 . S
N1201 C1202 1.351 . S
C1202 C1196 1.428 . S
C1202 N1201 1.351 . S
C1202 C1203 1.434 . S
C1203 C1194 1.429 . S
C1203 N1200 1.350 . S
C1203 C1202 1.434 . S
C1204 C1205 1.369 . S
C1204 C1206 1.419 . S
C1204 H1208 0.930 . S
C1205 C1204 1.369 . S
C1205 C1214 1.429 . S
C1206 C1204 1.419 . S
C1206 C1207 1.363 . S
C1206 H1209 0.929 . S
C1207 C1206 1.363 . S
C1207 C1213 1.428 . S
H1208 C1204 0.930 . S
H1209 C1206 0.929 . S
S1210 N1211 1.613 . S
S1210 N1212 1.610 . S
N1211 S1210 1.613 . S
N1211 C1214 1.350 . S
N1212 S1210 1.610 . S
N1212 C1213 1.351 . S
C1213 C1207 1.428 . S
C1213 N1212 1.351 . S
C1213 C1214 1.434 . S
C1214 C1205 1.429 . S
C1214 N1211 1.350 . S
C1214 C1213 1.434 . S
C1215 C1216 1.369 . S
C1215 C1217 1.419 . S
C1215 H1219 0.930 . S
C1216 C1215 1.369 . S
C1216 C1225 1.429 . S
C1217 C1215 1.419 . S
C1217 C1218 1.363 . S
C1217 H1220 0.929 . S
C1218 C1217 1.363 . S
C1218 C1224 1.428 . S
H1219 C1215 0.930 . S
H1220 C1217 0.929 . S
S1221 N1222 1.613 . S
S1221 N1223 1.610 . S
N1222 S1221 1.613 . S
N1222 C1225 1.350 . S
N1223 S1221 1.610 . S
N1223 C1224 1.351 . S
C1224 C1218 1.428 . S
C1224 N1223 1.351 . S
C1224 C1225 1.434 . S
C1225 C1216 1.429 . S
C1225 N1222 1.350 . S
C1225 C1224 1.434 . S
C1226 C1227 1.369 1_655 S
C1226 C1228 1.419 . S
C1226 H1230 0.930 . S
C1227 C1226 1.369 1_455 S
C1227 C1236 1.429 . S
C1228 C1226 1.419 . S
C1228 C1229 1.363 1_655 S
C1228 H1231 0.929 . S
C1229 C1228 1.363 1_455 S
C1229 C1235 1.428 . S
H1230 C1226 0.930 . S
H1231 C1228 0.929 . S
S1232 N1233 1.613 . S
S1232 N1234 1.610 . S
N1233 S1232 1.613 . S
N1233 C1236 1.350 . S
N1234 S1232 1.610 . S
N1234 C1235 1.351 . S
C1235 C1229 1.428 . S
C1235 N1234 1.351 . S
C1235 C1236 1.434 . S
C1236 C1227 1.429 . S
C1236 N1233 1.350 . S
C1236 C1235 1.434 . S
C1237 C1238 1.369 . S
C1237 C1239 1.419 . S
C1237 H1241 0.930 . S
C1238 C1237 1.369 . S
C1238 C1247 1.429 . S
C1239 C1237 1.419 . S
C1239 C1240 1.363 . S
C1239 H1242 0.929 . S
C1240 C1239 1.363 . S
C1240 C1246 1.428 . S
H1241 C1237 0.930 . S
H1242 C1239 0.929 . S
S1243 N1244 1.613 . S
S1243 N1245 1.610 . S
N1244 S1243 1.613 . S
N1244 C1247 1.350 . S
N1245 S1243 1.610 . S
N1245 C1246 1.351 . S
C1246 C1240 1.428 . S
C1246 N1245 1.351 . S
C1246 C1247 1.434 . S
C1247 C1238 1.429 . S
C1247 N1244 1.350 . S
C1247 C1246 1.434 . S
C1248 C1249 1.369 . S
C1248 C1250 1.419 . S
C1248 H1252 0.930 . S
C1249 C1248 1.369 . S
C1249 C1258 1.429 . S
C1250 C1248 1.419 . S
C1250 C1251 1.363 . S
C1250 H1253 0.929 . S
C1251 C1250 1.363 . S
C1251 C1257 1.428 . S
H1252 C1248 0.930 . S
H1253 C1250 0.929 . S
S1254 N1255 1.613 . S
S1254 N1256 1.610 . S
N1255 S1254 1.613 . S
N1255 C1258 1.350 . S
N1256 S1254 1.610 . S
N1256 C1257 1.351 . S
C1257 C1251 1.428 . S
C1257 N1256 1.351 . S
C1257 C1258 1.434 . S
C1258 C1249 1.429 . S
C1258 N1255 1.350 . S
C1258 C1257 1.434 . S
C1259 C1260 1.369 . S
C1259 C1261 1.419 . S
C1259 H1263 0.930 . S
C1260 C1259 1.369 . S
C1260 C1269 1.429 . S
C1261 C1259 1.419 . S
C1261 C1262 1.363 . S
C1261 H1264 0.929 . S
C1262 C1261 1.363 . S
C1262 C1268 1.428 . S
H1263 C1259 0.930 . S
H1264 C1261 0.929 . S
S1265 N1266 1.613 . S
S1265 N1267 1.610 . S
N1266 S1265 1.613 . S
N1266 C1269 1.350 . S
N1267 S1265 1.610 . S
N1267 C1268 1.351 . S
C1268 C1262 1.428 . S
C1268 N1267 1.351 . S
C1268 C1269 1.434 . S
C1269 C1260 1.429 . S
C1269 N1266 1.350 . S
C1269 C1268 1.434 . S
C1270 C1271 1.369 . S
C1270 C1272 1.419 . S
C1270 H1274 0.930 . S
C1271 C1270 1.369 . S
C1271 C1280 1.429 . S
C1272 C1270 1.419 . S
C1272 C1273 1.363 . S
C1272 H1275 0.929 . S
C1273 C1272 1.363 . S
C1273 C1279 1.428 . S
H1274 C1270 0.930 . S
H1275 C1272 0.929 . S
S1276 N1277 1.613 . S
S1276 N1278 1.610 . S
N1277 S1276 1.613 . S
N1277 C1280 1.350 . S
N1278 S1276 1.610 . S
N1278 C1279 1.351 . S
C1279 C1273 1.428 . S
C1279 N1278 1.351 . S
C1279 C1280 1.434 . S
C1280 C1271 1.429 . S
C1280 N1277 1.350 . S
C1280 C1279 1.434 . S
C1281 C1282 1.369 . S
C1281 C1283 1.419 . S
C1281 H1285 0.930 . S
C1282 C1281 1.369 . S
C1282 C1291 1.429 . S
C1283 C1281 1.419 . S
C1283 C1284 1.363 . S
C1283 H1286 0.929 . S
C1284 C1283 1.363 . S
C1284 C1290 1.428 . S
H1285 C1281 0.930 . S
H1286 C1283 0.929 . S
S1287 N1288 1.613 . S
S1287 N1289 1.610 . S
N1288 S1287 1.613 . S
N1288 C1291 1.350 . S
N1289 S1287 1.610 . S
N1289 C1290 1.351 . S
C1290 C1284 1.428 . S
C1290 N1289 1.351 . S
C1290 C1291 1.434 . S
C1291 C1282 1.429 . S
C1291 N1288 1.350 . S
C1291 C1290 1.434 . S
C1292 C1293 1.369 . S
C1292 C1294 1.419 . S
C1292 H1296 0.930 . S
C1293 C1292 1.369 . S
C1293 C1302 1.429 . S
C1294 C1292 1.419 . S
C1294 C1295 1.363 . S
C1294 H1297 0.929 . S
C1295 C1294 1.363 . S
C1295 C1301 1.428 . S
H1296 C1292 0.930 . S
H1297 C1294 0.929 . S
S1298 N1299 1.613 . S
S1298 N1300 1.610 . S
N1299 S1298 1.613 . S
N1299 C1302 1.350 . S
N1300 S1298 1.610 . S
N1300 C1301 1.351 . S
C1301 C1295 1.428 . S
C1301 N1300 1.351 . S
C1301 C1302 1.434 . S
C1302 C1293 1.429 . S
C1302 N1299 1.350 . S
C1302 C1301 1.434 . S
C1303 C1304 1.369 . S
C1303 C1305 1.419 . S
C1303 H1307 0.930 . S
C1304 C1303 1.369 . S
C1304 C1313 1.429 . S
C1305 C1303 1.419 . S
C1305 C1306 1.363 . S
C1305 H1308 0.929 . S
C1306 C1305 1.363 . S
C1306 C1312 1.428 . S
H1307 C1303 0.930 . S
H1308 C1305 0.929 . S
S1309 N1310 1.613 . S
S1309 N1311 1.610 . S
N1310 S1309 1.613 . S
N1310 C1313 1.350 . S
N1311 S1309 1.610 . S
N1311 C1312 1.351 . S
C1312 C1306 1.428 . S
C1312 N1311 1.351 . S
C1312 C1313 1.434 . S
C1313 C1304 1.429 . S
C1313 N1310 1.350 . S
C1313 C1312 1.434 . S
C1314 C1315 1.369 . S
C1314 C1316 1.419 . S
C1314 H1318 0.930 . S
C1315 C1314 1.369 . S
C1315 C1324 1.429 . S
C1316 C1314 1.419 . S
C1316 C1317 1.363 . S
C1316 H1319 0.929 . S
C1317 C1316 1.363 . S
C1317 C1323 1.428 . S
H1318 C1314 0.930 . S
H1319 C1316 0.929 . S
S1320 N1321 1.613 . S
S1320 N1322 1.610 . S
N1321 S1320 1.613 . S
N1321 C1324 1.350 . S
N1322 S1320 1.610 . S
N1322 C1323 1.351 . S
C1323 C1317 1.428 . S
C1323 N1322 1.351 . S
C1323 C1324 1.434 . S
C1324 C1315 1.429 . S
C1324 N1321 1.350 . S
C1324 C1323 1.434 . S
C1325 C1326 1.369 . S
C1325 C1327 1.419 . S
C1325 H1329 0.930 . S
C1326 C1325 1.369 . S
C1326 C1335 1.429 . S
C1327 C1325 1.419 . S
C1327 C1328 1.363 . S
C1327 H1330 0.929 . S
C1328 C1327 1.363 . S
C1328 C1334 1.428 . S
H1329 C1325 0.930 . S
H1330 C1327 0.929 . S
S1331 N1332 1.613 . S
S1331 N1333 1.610 . S
N1332 S1331 1.613 . S
N1332 C1335 1.350 . S
N1333 S1331 1.610 . S
N1333 C1334 1.351 . S
C1334 C1328 1.428 . S
C1334 N1333 1.351 . S
C1334 C1335 1.434 . S
C1335 C1326 1.429 . S
C1335 N1332 1.350 . S
C1335 C1334 1.434 . S
C1336 C1337 1.369 . S
C1336 C1338 1.419 . S
C1336 H1340 0.930 . S
C1337 C1336 1.369 . S
C1337 C1346 1.429 . S
C1338 C1336 1.419 . S
C1338 C1339 1.363 . S
C1338 H1341 0.929 . S
C1339 C1338 1.363 . S
C1339 C1345 1.428 . S
H1340 C1336 0.930 . S
H1341 C1338 0.929 . S
S1342 N1343 1.613 . S
S1342 N1344 1.610 . S
N1343 S1342 1.613 . S
N1343 C1346 1.350 . S
N1344 S1342 1.610 . S
N1344 C1345 1.351 . S
C1345 C1339 1.428 . S
C1345 N1344 1.351 . S
C1345 C1346 1.434 . S
C1346 C1337 1.429 . S
C1346 N1343 1.350 . S
C1346 C1345 1.434 . S
C1347 C1348 1.369 . S
C1347 C1349 1.419 . S
C1347 H1351 0.930 . S
C1348 C1347 1.369 . S
C1348 C1357 1.429 . S
C1349 C1347 1.419 . S
C1349 C1350 1.363 . S
C1349 H1352 0.929 . S
C1350 C1349 1.363 . S
C1350 C1356 1.428 . S
H1351 C1347 0.930 . S
H1352 C1349 0.929 . S
S1353 N1354 1.613 . S
S1353 N1355 1.610 . S
N1354 S1353 1.613 . S
N1354 C1357 1.350 . S
N1355 S1353 1.610 . S
N1355 C1356 1.351 . S
C1356 C1350 1.428 . S
C1356 N1355 1.351 . S
C1356 C1357 1.434 . S
C1357 C1348 1.429 . S
C1357 N1354 1.350 . S
C1357 C1356 1.434 . S
C1358 C1359 1.369 . S
C1358 C1360 1.419 . S
C1358 H1362 0.930 . S
C1359 C1358 1.369 . S
C1359 C1368 1.429 . S
C1360 C1358 1.419 . S
C1360 C1361 1.363 . S
C1360 H1363 0.929 . S
C1361 C1360 1.363 . S
C1361 C1367 1.428 . S
H1362 C1358 0.930 . S
H1363 C1360 0.929 . S
S1364 N1365 1.613 . S
S1364 N1366 1.610 . S
N1365 S1364 1.613 . S
N1365 C1368 1.350 . S
N1366 S1364 1.610 . S
N1366 C1367 1.351 . S
C1367 C1361 1.428 . S
C1367 N1366 1.351 . S
C1367 C1368 1.434 . S
C1368 C1359 1.429 . S
C1368 N1365 1.350 . S
C1368 C1367 1.434 . S
C1369 C1370 1.369 . S
C1369 C1371 1.419 1_565 S
C1369 H1373 0.930 1_565 S
C1370 C1369 1.369 . S
C1370 C1379 1.429 . S
C1371 C1369 1.419 1_545 S
C1371 C1372 1.363 1_545 S
C1371 H1374 0.929 1_554 S
C1372 C1371 1.363 1_565 S
C1372 C1378 1.428 . S
H1373 C1369 0.930 1_545 S
H1374 C1371 0.929 1_556 S
S1375 N1376 1.613 . S
S1375 N1377 1.610 . S
N1376 S1375 1.613 . S
N1376 C1379 1.350 . S
N1377 S1375 1.610 . S
N1377 C1378 1.351 . S
C1378 C1372 1.428 . S
C1378 N1377 1.351 . S
C1378 C1379 1.434 . S
C1379 C1370 1.429 . S
C1379 N1376 1.350 . S
C1379 C1378 1.434 . S
C1380 C1381 1.369 . S
C1380 C1382 1.419 . S
C1380 H1384 0.930 . S
C1381 C1380 1.369 . S
C1381 C1390 1.429 . S
C1382 C1380 1.419 . S
C1382 C1383 1.363 . S
C1382 H1385 0.929 . S
C1383 C1382 1.363 . S
C1383 C1389 1.428 . S
H1384 C1380 0.930 . S
H1385 C1382 0.929 . S
S1386 N1387 1.613 . S
S1386 N1388 1.610 . S
N1387 S1386 1.613 . S
N1387 C1390 1.350 . S
N1388 S1386 1.610 . S
N1388 C1389 1.351 . S
C1389 C1383 1.428 . S
C1389 N1388 1.351 . S
C1389 C1390 1.434 . S
C1390 C1381 1.429 . S
C1390 N1387 1.350 . S
C1390 C1389 1.434 . S
C1391 C1392 1.369 1_556 S
C1391 C1393 1.419 . S
C1391 H1395 0.930 . S
C1392 C1391 1.369 1_554 S
C1392 C1401 1.429 . S
C1393 C1391 1.419 . S
C1393 C1394 1.363 1_556 S
C1393 H1396 0.929 . S
C1394 C1393 1.363 1_554 S
C1394 C1400 1.428 . S
H1395 C1391 0.930 . S
H1396 C1393 0.929 . S
S1397 N1398 1.613 . S
S1397 N1399 1.610 . S
N1398 S1397 1.613 . S
N1398 C1401 1.350 . S
N1399 S1397 1.610 . S
N1399 C1400 1.351 . S
C1400 C1394 1.428 . S
C1400 N1399 1.351 . S
C1400 C1401 1.434 . S
C1401 C1392 1.429 . S
C1401 N1398 1.350 . S
C1401 C1400 1.434 . S
C1402 C1403 1.369 . S
C1402 C1404 1.419 . S
C1402 H1406 0.930 . S
C1403 C1402 1.369 . S
C1403 C1412 1.429 . S
C1404 C1402 1.419 . S
C1404 C1405 1.363 . S
C1404 H1407 0.929 . S
C1405 C1404 1.363 . S
C1405 C1411 1.428 . S
H1406 C1402 0.930 . S
H1407 C1404 0.929 . S
S1408 N1409 1.613 . S
S1408 N1410 1.610 . S
N1409 S1408 1.613 . S
N1409 C1412 1.350 . S
N1410 S1408 1.610 . S
N1410 C1411 1.351 . S
C1411 C1405 1.428 . S
C1411 N1410 1.351 . S
C1411 C1412 1.434 . S
C1412 C1403 1.429 . S
C1412 N1409 1.350 . S
C1412 C1411 1.434 . S
C1413 C1414 1.369 . S
C1413 C1415 1.419 . S
C1413 H1417 0.930 . S
C1414 C1413 1.369 . S
C1414 C1423 1.429 . S
C1415 C1413 1.419 . S
C1415 C1416 1.363 . S
C1415 H1418 0.929 . S
C1416 C1415 1.363 . S
C1416 C1422 1.428 . S
H1417 C1413 0.930 . S
H1418 C1415 0.929 . S
S1419 N1420 1.613 . S
S1419 N1421 1.610 . S
N1420 S1419 1.613 . S
N1420 C1423 1.350 . S
N1421 S1419 1.610 . S
N1421 C1422 1.351 . S
C1422 C1416 1.428 . S
C1422 N1421 1.351 . S
C1422 C1423 1.434 . S
C1423 C1414 1.429 . S
C1423 N1420 1.350 . S
C1423 C1422 1.434 . S
C1424 C1425 1.369 . S
C1424 C1426 1.419 . S
C1424 H1428 0.930 . S
C1425 C1424 1.369 . S
C1425 C1434 1.429 . S
C1426 C1424 1.419 . S
C1426 C1427 1.363 . S
C1426 H1429 0.929 . S
C1427 C1426 1.363 . S
C1427 C1433 1.428 . S
H1428 C1424 0.930 . S
H1429 C1426 0.929 . S
S1430 N1431 1.613 . S
S1430 N1432 1.610 . S
N1431 S1430 1.613 . S
N1431 C1434 1.350 . S
N1432 S1430 1.610 . S
N1432 C1433 1.351 . S
C1433 C1427 1.428 . S
C1433 N1432 1.351 . S
C1433 C1434 1.434 . S
C1434 C1425 1.429 . S
C1434 N1431 1.350 . S
C1434 C1433 1.434 . S
C1435 C1436 1.369 . S
C1435 C1437 1.419 . S
C1435 H1439 0.930 . S
C1436 C1435 1.369 . S
C1436 C1445 1.429 . S
C1437 C1435 1.419 . S
C1437 C1438 1.363 . S
C1437 H1440 0.929 . S
C1438 C1437 1.363 . S
C1438 C1444 1.428 . S
H1439 C1435 0.930 . S
H1440 C1437 0.929 . S
S1441 N1442 1.613 . S
S1441 N1443 1.610 . S
N1442 S1441 1.613 . S
N1442 C1445 1.350 . S
N1443 S1441 1.610 . S
N1443 C1444 1.351 . S
C1444 C1438 1.428 . S
C1444 N1443 1.351 . S
C1444 C1445 1.434 . S
C1445 C1436 1.429 . S
C1445 N1442 1.350 . S
C1445 C1444 1.434 . S
C1446 C1447 1.369 . S
C1446 C1448 1.419 . S
C1446 H1450 0.930 . S
C1447 C1446 1.369 . S
C1447 C1456 1.429 . S
C1448 C1446 1.419 . S
C1448 C1449 1.363 . S
C1448 H1451 0.929 1_554 S
C1449 C1448 1.363 . S
C1449 C1455 1.428 . S
H1450 C1446 0.930 . S
H1451 C1448 0.929 1_556 S
S1452 N1453 1.613 . S
S1452 N1454 1.610 . S
N1453 S1452 1.613 . S
N1453 C1456 1.350 1_655 S
N1454 S1452 1.610 . S
N1454 C1455 1.351 1_655 S
C1455 C1449 1.428 . S
C1455 N1454 1.351 1_455 S
C1455 C1456 1.434 . S
C1456 C1447 1.429 . S
C1456 N1453 1.350 1_455 S
C1456 C1455 1.434 . S
C1457 C1458 1.369 . S
C1457 C1459 1.419 . S
C1457 H1461 0.930 . S
C1458 C1457 1.369 . S
C1458 C1467 1.429 . S
C1459 C1457 1.419 . S
C1459 C1460 1.363 . S
C1459 H1462 0.929 . S
C1460 C1459 1.363 . S
C1460 C1466 1.428 . S
H1461 C1457 0.930 . S
H1462 C1459 0.929 . S
S1463 N1464 1.613 . S
S1463 N1465 1.610 . S
N1464 S1463 1.613 . S
N1464 C1467 1.350 . S
N1465 S1463 1.610 . S
N1465 C1466 1.351 . S
C1466 C1460 1.428 . S
C1466 N1465 1.351 . S
C1466 C1467 1.434 . S
C1467 C1458 1.429 . S
C1467 N1464 1.350 . S
C1467 C1466 1.434 . S
C1468 C1469 1.369 . S
C1468 C1470 1.419 . S
C1468 H1472 0.930 . S
C1469 C1468 1.369 . S
C1469 C1478 1.429 . S
C1470 C1468 1.419 . S
C1470 C1471 1.363 . S
C1470 H1473 0.929 1_556 S
C1471 C1470 1.363 . S
C1471 C1477 1.428 . S
H1472 C1468 0.930 . S
H1473 C1470 0.929 1_554 S
S1474 N1475 1.613 . S
S1474 N1476 1.610 . S
N1475 S1474 1.613 . S
N1475 C1478 1.350 . S
N1476 S1474 1.610 . S
N1476 C1477 1.351 . S
C1477 C1471 1.428 . S
C1477 N1476 1.351 . S
C1477 C1478 1.434 . S
C1478 C1469 1.429 . S
C1478 N1475 1.350 . S
C1478 C1477 1.434 . S
C1479 C1480 1.369 . S
C1479 C1481 1.419 . S
C1479 H1483 0.930 . S
C1480 C1479 1.369 . S
C1480 C1489 1.429 . S
C1481 C1479 1.419 . S
C1481 C1482 1.363 . S
C1481 H1484 0.929 . S
C1482 C1481 1.363 . S
C1482 C1488 1.428 . S
H1483 C1479 0.930 . S
H1484 C1481 0.929 . S
S1485 N1486 1.613 . S
S1485 N1487 1.610 . S
N1486 S1485 1.613 . S
N1486 C1489 1.350 . S
N1487 S1485 1.610 . S
N1487 C1488 1.351 . S
C1488 C1482 1.428 . S
C1488 N1487 1.351 . S
C1488 C1489 1.434 . S
C1489 C1480 1.429 . S
C1489 N1486 1.350 . S
C1489 C1488 1.434 . S
C1490 C1491 1.369 . S
C1490 C1492 1.419 . S
C1490 H1494 0.930 . S
C1491 C1490 1.369 . S
C1491 C1500 1.429 . S
C1492 C1490 1.419 . S
C1492 C1493 1.363 . S
C1492 H1495 0.907 1_455 S
C1493 C1492 1.363 . S
C1493 C1499 1.428 . S
H1494 C1490 0.930 . S
H1495 C1492 0.907 1_655 S
S1496 N1497 1.613 . S
S1496 N1498 1.610 . S
N1497 S1496 1.613 . S
N1497 C1500 1.350 . S
N1498 S1496 1.610 . S
N1498 C1499 1.351 . S
C1499 C1493 1.428 . S
C1499 N1498 1.351 . S
C1499 C1500 1.434 . S
C1500 C1491 1.429 . S
C1500 N1497 1.350 . S
C1500 C1499 1.434 . S
C1501 C1502 1.369 . S
C1501 C1503 1.419 . S
C1501 H1505 0.930 . S
C1502 C1501 1.369 . S
C1502 C1511 1.429 . S
C1503 C1501 1.419 . S
C1503 C1504 1.363 . S
C1503 H1506 0.929 . S
C1504 C1503 1.363 . S
C1504 C1510 1.428 . S
H1505 C1501 0.930 . S
H1506 C1503 0.929 . S
S1507 N1508 1.613 . S
S1507 N1509 1.610 . S
N1508 S1507 1.613 . S
N1508 C1511 1.350 . S
N1509 S1507 1.610 . S
N1509 C1510 1.351 . S
C1510 C1504 1.428 . S
C1510 N1509 1.351 . S
C1510 C1511 1.434 . S
C1511 C1502 1.429 . S
C1511 N1508 1.350 . S
C1511 C1510 1.434 . S
C1512 C1513 1.369 . S
C1512 C1514 1.419 . S
C1512 H1516 0.930 . S
C1513 C1512 1.369 . S
C1513 C1522 1.429 . S
C1514 C1512 1.419 . S
C1514 C1515 1.363 . S
C1514 H1517 0.929 . S
C1515 C1514 1.363 . S
C1515 C1521 1.428 . S
H1516 C1512 0.930 . S
H1517 C1514 0.929 . S
S1518 N1519 1.613 . S
S1518 N1520 1.610 . S
N1519 S1518 1.613 . S
N1519 C1522 1.350 . S
N1520 S1518 1.610 . S
N1520 C1521 1.351 . S
C1521 C1515 1.428 . S
C1521 N1520 1.351 . S
C1521 C1522 1.434 . S
C1522 C1513 1.429 . S
C1522 N1519 1.350 . S
C1522 C1521 1.434 . S
C1523 C1524 1.369 . S
C1523 C1525 1.419 . S
C1523 H1527 0.930 . S
C1524 C1523 1.369 . S
C1524 C1533 1.429 . S
C1525 C1523 1.419 . S
C1525 C1526 1.363 . S
C1525 H1528 0.929 . S
C1526 C1525 1.363 . S
C1526 C1532 1.428 . S
H1527 C1523 0.930 . S
H1528 C1525 0.929 . S
S1529 N1530 1.613 . S
S1529 N1531 1.610 . S
N1530 S1529 1.613 . S
N1530 C1533 1.350 . S
N1531 S1529 1.610 . S
N1531 C1532 1.351 . S
C1532 C1526 1.428 . S
C1532 N1531 1.351 . S
C1532 C1533 1.434 . S
C1533 C1524 1.429 . S
C1533 N1530 1.350 . S
C1533 C1532 1.434 . S
C1534 C1535 1.369 . S
C1534 C1536 1.419 . S
C1534 H1538 0.930 . S
C1535 C1534 1.369 . S
C1535 C1544 1.429 . S
C1536 C1534 1.419 . S
C1536 C1537 1.363 . S
C1536 H1539 0.929 . S
C1537 C1536 1.363 . S
C1537 C1543 1.428 . S
H1538 C1534 0.930 . S
H1539 C1536 0.929 . S
S1540 N1541 1.613 1_455 S
S1540 N1542 1.610 . S
N1541 S1540 1.613 1_655 S
N1541 C1544 1.350 . S
N1542 S1540 1.610 . S
N1542 C1543 1.351 1_455 S
C1543 C1537 1.428 . S
C1543 N1542 1.351 1_655 S
C1543 C1544 1.434 . S
C1544 C1535 1.429 . S
C1544 N1541 1.350 . S
C1544 C1543 1.434 . S
C1545 C1546 1.369 . S
C1545 C1547 1.419 . S
C1545 H1549 0.930 . S
C1546 C1545 1.369 . S
C1546 C1555 1.429 . S
C1547 C1545 1.419 . S
C1547 C1548 1.363 . S
C1547 H1550 0.929 . S
C1548 C1547 1.363 . S
C1548 C1554 1.428 . S
H1549 C1545 0.930 . S
H1550 C1547 0.929 . S
S1551 N1552 1.613 . S
S1551 N1553 1.610 . S
N1552 S1551 1.613 . S
N1552 C1555 1.350 . S
N1553 S1551 1.610 . S
N1553 C1554 1.351 . S
C1554 C1548 1.428 . S
C1554 N1553 1.351 . S
C1554 C1555 1.434 . S
C1555 C1546 1.429 . S
C1555 N1552 1.350 . S
C1555 C1554 1.434 . S
C1556 C1557 1.369 . S
C1556 C1558 1.419 . S
C1556 H1560 0.930 . S
C1557 C1556 1.369 . S
C1557 C1566 1.429 . S
C1558 C1556 1.419 . S
C1558 C1559 1.363 . S
C1558 H1561 0.929 . S
C1559 C1558 1.363 . S
C1559 C1565 1.428 . S
H1560 C1556 0.930 . S
H1561 C1558 0.929 . S
S1562 N1563 1.613 . S
S1562 N1564 1.610 . S
N1563 S1562 1.613 . S
N1563 C1566 1.350 . S
N1564 S1562 1.610 . S
N1564 C1565 1.351 . S
C1565 C1559 1.428 . S
C1565 N1564 1.351 . S
C1565 C1566 1.434 . S
C1566 C1557 1.429 . S
C1566 N1563 1.350 . S
C1566 C1565 1.434 . S
C1567 C1568 1.369 . S
C1567 C1569 1.419 . S
C1567 H1571 0.930 . S
C1568 C1567 1.369 . S
C1568 C1577 1.429 . S
C1569 C1567 1.419 . S
C1569 C1570 1.363 . S
C1569 H1572 0.929 . S
C1570 C1569 1.363 . S
C1570 C1576 1.428 . S
H1571 C1567 0.930 . S
H1572 C1569 0.929 . S
S1573 N1574 1.613 . S
S1573 N1575 1.610 . S
N1574 S1573 1.613 . S
N1574 C1577 1.350 . S
N1575 S1573 1.610 . S
N1575 C1576 1.351 . S
C1576 C1570 1.428 . S
C1576 N1575 1.351 . S
C1576 C1577 1.434 . S
C1577 C1568 1.429 . S
C1577 N1574 1.350 . S
C1577 C1576 1.434 . S
C1578 C1579 1.369 . S
C1578 C1580 1.419 . S
C1578 H1582 0.930 . S
C1579 C1578 1.369 . S
C1579 C1588 1.429 . S
C1580 C1578 1.419 . S
C1580 C1581 1.363 . S
C1580 H1583 0.929 1_655 S
C1581 C1580 1.363 . S
C1581 C1587 1.428 . S
H1582 C1578 0.930 . S
H1583 C1580 0.929 1_455 S
S1584 N1585 1.613 . S
S1584 N1586 1.610 . S
N1585 S1584 1.613 . S
N1585 C1588 1.350 . S
N1586 S1584 1.610 . S
N1586 C1587 1.351 . S
C1587 C1581 1.428 . S
C1587 N1586 1.351 . S
C1587 C1588 1.434 . S
C1588 C1579 1.429 . S
C1588 N1585 1.350 . S
C1588 C1587 1.434 . S
C1589 C1590 1.369 . S
C1589 C1591 1.419 . S
C1589 H1593 0.930 . S
C1590 C1589 1.369 . S
C1590 C1599 1.429 . S
C1591 C1589 1.419 . S
C1591 C1592 1.363 . S
C1591 H1594 0.929 . S
C1592 C1591 1.363 . S
C1592 C1598 1.428 . S
H1593 C1589 0.930 . S
H1594 C1591 0.929 . S
S1595 N1596 1.613 . S
S1595 N1597 1.610 . S
N1596 S1595 1.613 . S
N1596 C1599 1.350 . S
N1597 S1595 1.610 . S
N1597 C1598 1.351 . S
C1598 C1592 1.428 . S
C1598 N1597 1.351 . S
C1598 C1599 1.434 . S
C1599 C1590 1.429 . S
C1599 N1596 1.350 . S
C1599 C1598 1.434 . S
C1600 C1601 1.369 . S
C1600 C1602 1.419 . S
C1600 H1604 0.930 . S
C1601 C1600 1.369 . S
C1601 C1610 1.429 . S
C1602 C1600 1.419 . S
C1602 C1603 1.363 . S
C1602 H1605 0.929 . S
C1603 C1602 1.363 . S
C1603 C1609 1.428 . S
H1604 C1600 0.930 . S
H1605 C1602 0.929 . S
S1606 N1607 1.613 . S
S1606 N1608 1.610 . S
N1607 S1606 1.613 . S
N1607 C1610 1.350 . S
N1608 S1606 1.610 . S
N1608 C1609 1.351 . S
C1609 C1603 1.428 . S
C1609 N1608 1.351 . S
C1609 C1610 1.434 . S
C1610 C1601 1.429 . S
C1610 N1607 1.350 . S
C1610 C1609 1.434 . S
C1611 C1612 1.369 . S
C1611 C1613 1.419 . S
C1611 H1615 0.930 . S
C1612 C1611 1.369 . S
C1612 C1621 1.429 . S
C1613 C1611 1.419 . S
C1613 C1614 1.363 . S
C1613 H1616 0.929 1_565 S
C1614 C1613 1.363 . S
C1614 C1620 1.428 . S
H1615 C1611 0.930 . S
H1616 C1613 0.929 1_545 S
S1617 N1618 1.613 . S
S1617 N1619 1.610 . S
N1618 S1617 1.613 . S
N1618 C1621 1.350 . S
N1619 S1617 1.610 . S
N1619 C1620 1.351 . S
C1620 C1614 1.428 . S
C1620 N1619 1.351 . S
C1620 C1621 1.434 . S
C1621 C1612 1.429 . S
C1621 N1618 1.350 . S
C1621 C1620 1.434 . S
C1622 C1623 1.369 . S
C1622 C1624 1.419 . S
C1622 H1626 0.930 . S
C1623 C1622 1.369 . S
C1623 C1632 1.429 . S
C1624 C1622 1.419 . S
C1624 C1625 1.363 . S
C1624 H1627 0.929 . S
C1625 C1624 1.363 . S
C1625 C1631 1.428 . S
H1626 C1622 0.930 . S
H1627 C1624 0.929 . S
S1628 N1629 1.613 . S
S1628 N1630 1.610 . S
N1629 S1628 1.613 . S
N1629 C1632 1.350 . S
N1630 S1628 1.610 . S
N1630 C1631 1.351 . S
C1631 C1625 1.428 . S
C1631 N1630 1.351 . S
C1631 C1632 1.434 . S
C1632 C1623 1.429 . S
C1632 N1629 1.350 . S
C1632 C1631 1.434 . S
C1633 C1634 1.356 1_554 S
C1633 C1635 1.419 . S
C1633 H1637 0.930 . S
C1634 C1633 1.356 1_556 S
C1634 C1643 1.436 . S
C1635 C1633 1.419 . S
C1635 C1636 1.363 . S
C1635 H1638 0.929 . S
C1636 C1635 1.363 . S
C1636 C1642 1.428 1_554 S
H1637 C1633 0.930 . S
H1638 C1635 0.929 . S
S1639 N1640 1.613 . S
S1639 N1641 1.610 . S
N1640 S1639 1.613 . S
N1640 C1643 1.350 . S
N1641 S1639 1.610 . S
N1641 C1642 1.351 . S
C1642 C1636 1.428 1_556 S
C1642 N1641 1.351 . S
C1642 C1643 1.434 . S
C1643 C1634 1.436 . S
C1643 N1640 1.350 . S
C1643 C1642 1.434 . S
C1644 C1645 1.369 . S
C1644 C1646 1.419 . S
C1644 H1648 0.930 . S
C1645 C1644 1.369 . S
C1645 C1654 1.429 . S
C1646 C1644 1.419 . S
C1646 C1647 1.363 . S
C1646 H1649 0.929 . S
C1647 C1646 1.363 . S
C1647 C1653 1.428 . S
H1648 C1644 0.930 . S
H1649 C1646 0.929 . S
S1650 N1651 1.613 . S
S1650 N1652 1.610 . S
N1651 S1650 1.613 . S
N1651 C1654 1.350 . S
N1652 S1650 1.610 . S
N1652 C1653 1.351 . S
C1653 C1647 1.428 . S
C1653 N1652 1.351 . S
C1653 C1654 1.434 . S
C1654 C1645 1.429 . S
C1654 N1651 1.350 . S
C1654 C1653 1.434 . S
C1655 C1656 1.369 1_556 S
C1655 C1657 1.419 . S
C1655 H1659 0.930 . S
C1656 C1655 1.369 1_554 S
C1656 C1665 1.429 . S
C1657 C1655 1.419 . S
C1657 C1658 1.363 . S
C1657 H1660 0.929 . S
C1658 C1657 1.363 . S
C1658 C1664 1.428 . S
H1659 C1655 0.930 . S
H1660 C1657 0.929 . S
S1661 N1662 1.613 . S
S1661 N1663 1.610 . S
N1662 S1661 1.613 . S
N1662 C1665 1.350 . S
N1663 S1661 1.610 . S
N1663 C1664 1.351 1_554 S
C1664 C1658 1.428 . S
C1664 N1663 1.351 1_556 S
C1664 C1665 1.434 1_556 S
C1665 C1656 1.429 . S
C1665 N1662 1.350 . S
C1665 C1664 1.434 1_554 S
C1666 C1667 1.369 . S
C1666 C1668 1.419 . S
C1666 H1670 0.930 . S
C1667 C1666 1.369 . S
C1667 C1676 1.429 . S
C1668 C1666 1.419 . S
C1668 C1669 1.363 . S
C1668 H1671 0.929 . S
C1669 C1668 1.363 . S
C1669 C1675 1.428 . S
H1670 C1666 0.930 . S
H1671 C1668 0.929 . S
S1672 N1673 1.613 . S
S1672 N1674 1.610 . S
N1673 S1672 1.613 . S
N1673 C1676 1.350 . S
N1674 S1672 1.610 . S
N1674 C1675 1.351 . S
C1675 C1669 1.428 . S
C1675 N1674 1.351 . S
C1675 C1676 1.434 . S
C1676 C1667 1.429 . S
C1676 N1673 1.350 . S
C1676 C1675 1.434 . S
C1677 C1678 1.369 . S
C1677 C1679 1.419 . S
C1677 H1681 0.930 . S
C1678 C1677 1.369 . S
C1678 C1687 1.429 . S
C1679 C1677 1.419 . S
C1679 C1680 1.363 . S
C1679 H1682 0.929 . S
C1680 C1679 1.363 . S
C1680 C1686 1.428 . S
H1681 C1677 0.930 . S
H1682 C1679 0.929 . S
S1683 N1684 1.613 . S
S1683 N1685 1.610 . S
N1684 S1683 1.613 . S
N1684 C1687 1.350 . S
N1685 S1683 1.610 . S
N1685 C1686 1.351 . S
C1686 C1680 1.428 . S
C1686 N1685 1.351 . S
C1686 C1687 1.434 . S
C1687 C1678 1.429 . S
C1687 N1684 1.350 . S
C1687 C1686 1.434 . S
C633 C101 1.674 . S
C635 C330 1.659 . S
C644 C57 1.631 . S
C646 C341 1.657 . S
C655 C73 1.205 . S
C657 C370 1.230 . S
C668 C373 1.413 . S
C666 C78 1.380 . S
C677 C21 1.650 . S
C679 C411 1.635 . S
C690 C414 1.193 . S
C688 C31 1.178 . S
C701 C441 1.563 . S
C699 C49 1.573 . S
C710 C0 1.625 . S
C712 C470 1.595 . S
C723 C321 1.605 1_655 S
C721 C218 1.597 . S
C732 C229 1.020 . S
C734 C333 1.041 . S
C745 C361 1.533 . S
C743 C257 1.548 . S
C756 C390 1.328 . S
C754 C164 1.248 . S
C765 C216 1.082 . S
C767 C394 1.174 . S
C778 C420 1.588 . S
C776 C231 1.609 . S
C789 C433 0.916 . S
C787 C255 0.908 . S
C800 C461 1.639 . S
C798 C166 1.662 . S
C811 C313 1.515 . S
C809 C143 1.467 . S
C820 C265 1.693 . S
C822 C480 1.696 1_554 S
C833 C511 1.520 . S
C831 C299 1.557 . S
C844 C530 1.098 . S
C842 C291 1.072 . S
C853 C104 1.310 . S
C855 C453 1.353 . S
C864 C117 1.454 . S
C866 C353 1.512 . S
C875 C304 1.504 . S
C877 C541 1.544 . S
C888 C570 0.975 . S
C886 C278 1.009 . S
C899 C331 1.619 . S
C897 C60 1.661 . S
C910 C560 1.619 . S
C908 C96 1.615 . S
C919 C88 1.192 . S
C921 C371 1.158 . S
C930 C65 1.370 . S
C932 C534 1.367 . S
C943 C410 1.570 . S
C941 C10 1.638 . S
C952 C44 1.147 . S
C954 C493 1.180 . S
C965 C440 1.512 1_556 S
C963 C34 1.450 . S
C976 C591 1.567 . S
C974 C13 1.639 . S
C987 C320 1.589 . S
C985 C138 1.555 1_565 S
C998 C554 1.005 . S
C996 C296 1.015 . S
C1007 C112 1.469 . S
C1009 C360 1.499 . S
C1018 C270 1.255 . S
C1020 C551 1.246 . S
C1029 C140 1.092 . S
C1031 C393 1.116 . S
C1042 C501 1.557 . S
C1040 C294 1.547 . S
C1051 C114 0.885 . S
C1053 C434 0.865 . S
C1062 C268 1.585 . S
C1064 C580 1.605 . S
C1073 C169 1.528 1_556 S
C1075 C314 1.488 . S
C1084 C161 1.677 . S
C1086 C481 1.664 . S
C1095 C234 1.616 . S
C1097 C430 1.499 . S
C1106 C226 1.009 . S
C1108 C531 1.021 . S
C1119 C574 1.347 . S
C1117 C247 1.396 . S
C1128 C195 1.532 . S
C1130 C354 1.488 . S
C1141 C380 1.495 . S
C1139 C239 1.483 . S
C1152 C351 0.939 . S
C1150 C187 0.980 . S
C1161 C75 1.676 . S
C1163 C610 1.654 . S
C1174 C561 1.658 . S
C1172 C83 1.631 . S
C1183 C99 1.208 . S
C1185 C630 1.230 . S
C1194 C52 1.385 . S
C1196 C533 1.410 . S
C1205 C47 1.651 . S
C1207 C491 1.632 . S
C1218 C494 1.194 . S
C1216 C5 1.186 . S
C1229 C521 1.560 . S
C1227 C23 1.573 . S
C1240 C590 1.594 . S
C1238 C26 1.624 . S
C1251 C601 1.605 . S
C1249 C244 1.596 . S
C1260 C177 1.009 . S
C1262 C553 1.048 . S
C1273 C621 1.532 . S
C1271 C192 1.547 . S
C1284 C550 1.327 . S
C1282 C203 1.247 . S
C1295 C474 1.172 . S
C1293 C242 1.094 . S
C1304 C179 1.609 . S
C1306 C500 1.590 . S
C1317 C513 0.915 . S
C1315 C190 0.913 . S
C1326 C205 1.662 . S
C1328 C581 1.635 . S
C1339 C593 1.507 . S
C1337 C286 1.460 . S
C1348 C122 1.694 . S
C1350 C400 1.694 . S
C1361 C431 1.519 . S
C1359 C130 1.561 . S
C1372 C450 1.099 . S
C1370 C148 1.074 . S
C1383 C573 1.358 . S
C1381 C273 1.303 . S
C1392 C260 1.455 . S
C1394 C613 1.512 . S
C1405 C381 1.543 . S
C1403 C135 1.505 . S
C1416 C350 0.975 . S
C1414 C109 1.009 . S
C1425 C86 1.660 . S
C1427 C611 1.619 . S
C1438 C340 1.620 . S
C1436 C70 1.612 . S
C1447 C62 1.193 . S
C1449 C631 1.158 . S
C1458 C91 1.371 . S
C1460 C374 1.372 . S
C1469 C36 1.638 . S
C1471 C490 1.571 . S
C1482 C413 1.175 . S
C1480 C18 1.145 . S
C1491 C8 1.454 . S
C1493 C520 1.509 . S
C1502 C39 1.643 . S
C1504 C471 1.565 . S
C1515 C600 1.587 . S
C1513 C307 1.551 . S
C1524 C153 1.020 . S
C1526 C334 1.001 . S
C1537 C620 1.499 1_655 S
C1535 C281 1.466 . S
C1546 C127 1.256 . S
C1548 C391 1.250 . S
C1557 C309 1.094 . S
C1559 C473 1.117 . S
C1570 C421 1.560 . S
C1568 C151 1.543 . S
C1579 C283 0.877 . S
C1581 C514 0.876 . S
C1592 C460 1.602 . S
C1590 C125 1.587 . S
C1603 C594 1.484 . S
C1601 C221 1.530 . S
C1614 C401 1.660 1_565 S
C1612 C200 1.673 . S
C1623 C208 1.616 . S
C1625 C510 1.499 . S
C1636 C451 1.014 . S
C1634 C174 0.996 1_556 S
C1645 C182 1.396 . S
C1647 C454 1.350 . S
C1656 C156 1.532 . S
C1658 C614 1.487 . S
C1669 C540 1.495 . S
C1667 C213 1.484 . S
C1680 C571 0.947 . S
C1678 C252 0.977 . S
