# Generated by pormake.
# Topology pts, (4,4)-cn, num edge types: 1
# Building blocks:
#     Node 0, Type 0, BuildingBlock: MUDLON_clean_sbu_0, # of connection points: 4
#     Node 1, Type 0, BuildingBlock: MUDLON_clean_sbu_0, # of connection points: 4
#     Node 2, Type 1, BuildingBlock: QUQFOY_clean_sbu_1, # of connection points: 4
#     Node 3, Type 1, BuildingBlock: QUQFOY_clean_sbu_1, # of connection points: 4
#     Edge 4, Type (0, 1), BuildingBlock: UVAHIK_clean_linker_0, # of connection points: 2
#     Edge 5, Type (0, 1), BuildingBlock: UVAHIK_clean_linker_0, # of connection points: 2
#     Edge 6, Type (0, 1), BuildingBlock: UVAHIK_clean_linker_0, # of connection points: 2
#     Edge 7, Type (0, 1), BuildingBlock: UVAHIK_clean_linker_0, # of connection points: 2
#     Edge 8, Type (0, 1), BuildingBlock: UVAHIK_clean_linker_0, # of connection points: 2
#     Edge 9, Type (0, 1), BuildingBlock: UVAHIK_clean_linker_0, # of connection points: 2
#     Edge 10, Type (0, 1), BuildingBlock: UVAHIK_clean_linker_0, # of connection points: 2
#     Edge 11, Type (0, 1), BuildingBlock: UVAHIK_clean_linker_0, # of connection points: 2
# Relax obj value: 0.128
# Max RMSD: 0.245
# Mean RMSD: 0.144
data_MOF--net-pts--node1-MUDLON_clean_sbu_0--node2-QUQFOY_clean_sbu_1--edge1-UVAHIK_clean_linker_0
_symmetry_space_group_name_H-M    P1
_symmetry_Int_Tables_number       1
_symmetry_cell_setting            triclinic
loop_
_symmetry_equiv_pos_as_xyz
'x, y, z'
_cell_length_a     28.067737
_cell_length_b     30.423925
_cell_length_c     53.063171
_cell_angle_alpha  90.072468
_cell_angle_beta   90.100052
_cell_angle_gamma 89.823339
loop_
_atom_site_label
_atom_site_type_symbol
_atom_site_fract_x
_atom_site_fract_y
_atom_site_fract_z
_atom_type_partial_charge
Mg0 Mg 0.48933 0.01596 0.02164 0.0
C1 C 0.41864 0.9587 0.98857 0.0
O2 O 0.44464 0.92367 0.99329 0.0
C3 C 0.5736 0.96036 0.04008 0.0
O4 O 0.59414 0.97479 0.01949 0.0
C5 C 0.43965 0.03051 0.06787 0.0
O6 O 0.44459 0.98786 0.06492 0.0
O7 O 0.45636 0.05586 0.05099 0.0
O8 O 0.42944 0.99527 0.99862 0.0
O9 O 0.53793 0.04641 0.9948 0.0
C10 C 0.54389 0.02133 0.97582 0.0
O11 O 0.52155 0.98349 0.97547 0.0
O12 O 0.52946 0.96773 0.04345 0.0
Mg13 Mg 0.98614 0.51221 0.51406 0.0
C14 C 0.05033 0.5697 0.55149 0.0
O15 O 0.08667 0.56737 0.53598 0.0
C16 C 0.02396 0.47779 0.46528 0.0
O17 O 0.99177 0.50596 0.45734 0.0
C18 C 0.97788 0.59399 0.48755 0.0
O19 O 0.02139 0.59096 0.4965 0.0
O20 O 0.94925 0.56242 0.49174 0.0
O21 O 0.01202 0.54933 0.54638 0.0
O22 O 0.94794 0.45813 0.5319 0.0
C23 C 0.97838 0.4294 0.53885 0.0
O24 O 0.02361 0.43676 0.53418 0.0
O25 O 0.03436 0.47715 0.48864 0.0
O26 O 0.94673 0.97351 0.24194 0.0
Cd27 Cd 0.00031 0.97943 0.26832 0.0
Cd28 Cd 0.9739 0.06283 0.26591 0.0
O29 O 0.91325 0.03808 0.2486 0.0
O30 O 0.01054 0.91867 0.28128 0.0
O31 O 0.98287 0.97295 0.30493 0.0
C32 C -0.006 0.93187 0.30267 0.0
C33 C 0.97238 0.11435 0.29855 0.0
C34 C 0.91281 1.00045 0.23811 0.0
C35 C 0.06936 0.03931 0.24438 0.0
O36 O 0.03497 0.06656 0.24438 0.0
O37 O 0.06511 1.00262 0.25561 0.0
O38 O 0.96128 0.12495 0.27576 0.0
O39 O 0.98141 0.07346 0.3032 0.0
O40 O 0.94091 0.05907 0.78777 0.0
Cd41 Cd 0.0001 0.0588 0.765 0.0
Cd42 Cd 0.98414 0.97141 0.76486 0.0
O43 O 0.92068 0.9898 0.78197 0.0
O44 O 0.00487 0.1195 0.75125 0.0
O45 O 0.98998 0.06128 0.72748 0.0
C46 C -0.00504 0.1034 0.72936 0.0
C47 C 0.98646 0.91648 0.73398 0.0
C48 C 0.91211 0.02756 0.79131 0.0
C49 C 0.0733 1.00479 0.79078 0.0
O50 O 0.04497 0.97309 0.78668 0.0
O51 O 0.06399 0.04286 0.78219 0.0
O52 O 0.97864 0.90749 0.75732 0.0
O53 O 0.99051 0.95735 0.72778 0.0
C54 C 0.38723 0.08662 0.08923 0.0
C55 C 0.41268 0.04682 0.08988 0.0
C56 C 0.35581 0.09747 0.10886 0.0
C57 C 0.32026 0.0655 0.17412 0.0
H58 H 0.19266 0.09505 0.15165 0.0
C59 C 0.15217 0.0203 0.23011 0.0
C60 C 0.11348 0.04973 0.23028 0.0
C61 C 0.19244 0.02894 0.21548 0.0
C62 C 0.22825 0.0876 0.15836 0.0
H63 H 0.42792 0.98878 0.11221 0.0
H64 H 0.37377 1.00746 0.14606 0.0
H65 H 0.25834 0.09657 0.12169 0.0
H66 H 0.08752 0.11207 0.21574 0.0
H67 H 0.15778 0.12697 0.19022 0.0
H68 H 0.28972 0.05466 0.21053 0.0
C69 C 0.3777 0.0305 0.13066 0.0
C70 C 0.26597 0.08863 0.14118 0.0
C71 C 0.4085 0.01956 0.11109 0.0
C72 C 0.11656 0.08856 0.21599 0.0
C73 C 0.15674 0.09708 0.20127 0.0
C74 C 0.28255 0.06432 0.19125 0.0
C75 C 0.34999 0.06896 0.12953 0.0
C76 C 0.31215 0.07625 0.14868 0.0
C77 C 0.1949 0.06712 0.20061 0.0
C78 C 0.23589 0.07411 0.18339 0.0
H79 H 0.38976 0.10818 0.07307 0.0
H80 H 0.33518 0.12752 0.10755 0.0
H81 H 0.35559 0.05654 0.1806 0.0
H82 H 0.15102 0.99011 0.24089 0.0
H83 H 0.22099 1.00491 0.21515 0.0
C84 C -0.00174 0.35467 0.55447 0.0
C85 C 0.96553 0.38965 0.55335 0.0
C86 C 0.99112 0.3195 0.57079 0.0
C87 C 0.93423 0.29467 0.63104 0.0
H88 H 0.98218 0.17763 0.61658 0.0
C89 C -0.00448 0.17823 0.70988 0.0
C90 C 0.98718 0.13289 0.70751 0.0
C91 C 0.98566 0.20678 0.68993 0.0
C92 C 0.96796 0.20988 0.62093 0.0
H93 H 0.89816 0.41407 0.56755 0.0
H94 H 0.88533 0.352 0.59631 0.0
H95 H 0.97337 0.2306 0.58252 0.0
H96 H 0.96198 0.08196 0.68222 0.0
H97 H 0.94433 0.13191 0.64738 0.0
H98 H 0.92882 0.27397 0.66945 0.0
C99 C 0.91689 0.35221 0.58459 0.0
C100 C 0.96331 0.24044 0.6014 0.0
C101 C 0.92397 0.38755 0.56801 0.0
C102 C 0.96912 0.11668 0.6846 0.0
C103 C 0.95903 0.14534 0.66462 0.0
C104 C 0.93868 0.26404 0.65055 0.0
C105 C 0.951 0.31824 0.58655 0.0
C106 C 0.94777 0.28364 0.60633 0.0
C107 C 0.9669 0.19083 0.6671 0.0
C108 C 0.95694 0.22165 0.64588 0.0
H109 H 0.03053 0.35513 0.54329 0.0
H110 H 0.01849 0.29441 0.57194 0.0
H111 H 0.92239 0.32764 0.6356 0.0
H112 H 0.00957 0.19184 0.72723 0.0
H113 H 0.99327 0.2414 0.69237 0.0
C114 C 0.58826 0.95708 0.08647 0.0
C115 C 0.60361 0.94768 0.06185 0.0
C116 C 0.62008 0.9548 0.10672 0.0
C117 C 0.75089 0.95809 0.11854 0.0
H118 H 0.71161 0.94369 0.18808 0.0
C119 C 0.88252 0.95524 0.20219 0.0
C120 C 0.87456 0.98858 0.2201 0.0
C121 C 0.84816 0.9456 0.18398 0.0
C122 C 0.72289 0.94778 0.16871 0.0
H123 H 0.66302 0.9247 0.03942 0.0
H124 H 0.71779 0.91776 0.07488 0.0
H125 H 0.65446 0.93025 0.15416 0.0
H126 H 0.82354 0.03687 0.23349 0.0
H127 H 0.7626 0.01892 0.20186 0.0
H128 H 0.81973 0.97429 0.13333 0.0
C129 C 0.68189 0.92916 0.07853 0.0
C130 C 0.69019 0.94032 0.14922 0.0
C131 C 0.65033 0.9325 0.05817 0.0
C132 C 0.83074 1.01112 0.21989 0.0
C133 C 0.79586 1.00076 0.20193 0.0
C134 C 0.78372 0.96452 0.13799 0.0
C135 C 0.66784 0.94212 0.10294 0.0
C136 C 0.70352 0.94596 0.12381 0.0
C137 C 0.80469 0.96841 0.18359 0.0
C138 C 0.76987 0.95997 0.16321 0.0
H139 H 0.55254 0.96924 0.08994 0.0
H140 H 0.60767 0.96552 0.12502 0.0
H141 H 0.76256 0.964 0.09942 0.0
H142 H 0.91594 0.93735 0.20176 0.0
H143 H 0.85566 0.92047 0.17003 0.0
C144 C 0.08844 0.62982 0.57735 0.0
C145 C 0.04997 0.60137 0.57281 0.0
C146 C 0.08505 0.66275 0.59583 0.0
C147 C 0.01157 0.69773 0.65106 0.0
H148 H 0.06337 0.81292 0.6367 0.0
C149 C 0.00062 0.83734 0.72398 0.0
C150 C -0.00641 0.88058 0.71546 0.0
C151 C 0.01004 0.80336 0.707 0.0
C152 C 0.04821 0.78109 0.6409 0.0
H153 H 0.97823 0.58467 0.58467 0.0
H154 H 0.97201 0.64199 0.61602 0.0
H155 H 0.07599 0.75294 0.60693 0.0
H156 H 0.99051 0.92203 0.68233 0.0
H157 H 0.00502 0.86227 0.65243 0.0
H158 H 0.98165 0.72605 0.68426 0.0
C159 C 0.00523 0.6387 0.60584 0.0
C160 C 0.05618 0.74642 0.624 0.0
C161 C 0.00872 0.60581 0.58762 0.0
C162 C -0.00426 0.88902 0.68947 0.0
C163 C 0.00454 0.85478 0.67236 0.0
C164 C 0.00313 0.73239 0.66774 0.0
C165 C 0.04308 0.66795 0.61008 0.0
C166 C 0.03763 0.70432 0.62877 0.0
C167 C 0.01196 0.81145 0.68093 0.0
C168 C 0.02122 0.77463 0.66292 0.0
H169 H 0.12072 0.62733 0.56629 0.0
H170 H 0.1152 0.68425 0.59881 0.0
H171 H -0.00268 0.6657 0.65565 0.0
H172 H -0.00012 0.82974 0.74392 0.0
H173 H 0.01659 0.77079 0.71446 0.0
C174 C 0.37075 0.91982 0.95506 0.0
C175 C 0.3816 0.95829 0.9686 0.0
C176 C 0.33922 0.92135 0.93453 0.0
C177 C 0.29426 0.99811 0.88685 0.0
H178 H 0.18761 0.91854 0.87953 0.0
C179 C 0.13889 0.03308 0.81852 0.0
C180 C 0.11524 0.9975 0.80725 0.0
C181 C 0.17479 0.02581 0.83637 0.0
C182 C 0.21773 0.94055 0.88097 0.0
H183 H 0.36637 0.02821 0.97167 0.0
H184 H 0.31214 0.03066 0.93605 0.0
H185 H 0.24306 0.90907 0.91462 0.0
H186 H 0.1125 0.92634 0.80486 0.0
H187 H 0.17597 0.9137 0.83534 0.0
H188 H 0.26948 0.02956 0.85328 0.0
C189 C 0.32828 0.99948 0.94109 0.0
C190 C 0.24936 0.93513 0.90115 0.0
C191 C 0.35917 0.99791 0.96165 0.0
C192 C 0.12971 0.95452 0.81339 0.0
C193 C 0.16589 0.94725 0.83102 0.0
C194 C 0.26301 1.00326 0.86655 0.0
C195 C 0.31854 0.96145 0.92707 0.0
C196 C 0.28737 0.96441 0.90454 0.0
C197 C 0.18823 0.98277 0.84316 0.0
C198 C 0.22379 0.97507 0.86358 0.0
H199 H 0.3874 0.8888 0.95992 0.0
H200 H 0.33217 0.89152 0.92402 0.0
H201 H 0.32378 0.02073 0.88881 0.0
H202 H 0.12842 0.06659 0.81433 0.0
H203 H 0.1907 0.05402 0.84551 0.0
C204 C 0.05188 0.40008 0.45865 0.0
C205 C 0.03753 0.44078 0.44857 0.0
C206 C 0.05392 0.36259 0.44329 0.0
C207 C 0.05105 0.32507 0.37634 0.0
H208 H 0.98562 0.22345 0.4034 0.0
C209 C 0.97162 0.19329 0.31168 0.0
C210 C 0.97881 0.1489 0.318 0.0
C211 C 0.98311 0.22663 0.32872 0.0
C212 C 0.00455 0.2513 0.39567 0.0
H213 H 0.01754 0.47466 0.41422 0.0
H214 H 0.02124 0.40979 0.38758 0.0
H215 H 0.00303 0.28595 0.43083 0.0
H216 H 0.00222 0.10474 0.34762 0.0
H217 H 0.02195 0.16326 0.37758 0.0
H218 H 0.05137 0.29101 0.34105 0.0
C219 C 0.03096 0.40652 0.40725 0.0
C220 C 0.01473 0.28709 0.41141 0.0
C221 C 0.02867 0.44381 0.42257 0.0
C222 C -0.00388 0.1386 0.34219 0.0
C223 C 0.00746 0.1721 0.35934 0.0
C224 C 0.04074 0.28945 0.36064 0.0
C225 C 0.04207 0.36516 0.41755 0.0
C226 C 0.03719 0.32483 0.40179 0.0
C227 C 0.002 0.21653 0.35257 0.0
C228 C 0.01641 0.25256 0.36996 0.0
H229 H 0.05875 0.39658 0.47864 0.0
H230 H 0.06329 0.33134 0.45174 0.0
H231 H 0.06919 0.35321 0.36842 0.0
H232 H 0.95819 0.20247 0.29327 0.0
H233 H 0.97748 0.26047 0.32311 0.0
C234 C 0.58033 1.00316 0.93439 0.0
C235 C 0.57703 0.03198 0.95504 0.0
C236 C 0.61309 1.01052 0.91521 0.0
C237 C 0.727 0.06513 0.90244 0.0
H238 H 0.69763 0.03053 0.83375 0.0
C239 C 0.86528 0.0734 0.82179 0.0
C240 C 0.86978 0.03461 0.80749 0.0
C241 C 0.82716 0.07906 0.83839 0.0
C242 C 0.70634 0.04027 0.85285 0.0
H243 H 0.60488 0.09197 0.97139 0.0
H244 H 0.66231 0.10527 0.93744 0.0
H245 H 0.63449 0.03218 0.86524 0.0
H246 H 0.83689 0.97191 0.79893 0.0
H247 H 0.77002 0.98204 0.82777 0.0
H248 H 0.79903 0.07289 0.88993 0.0
C249 C 0.63966 0.07658 0.93638 0.0
C250 C 0.67024 0.04119 0.87092 0.0
C251 C 0.60664 0.06913 0.95574 0.0
C252 C 0.83453 1.00214 0.80967 0.0
C253 C 0.79611 1.00804 0.82609 0.0
C254 C 0.76306 0.0646 0.88428 0.0
C255 C 0.64346 0.04708 0.91597 0.0
C256 C 0.68035 0.05244 0.89611 0.0
C257 C 0.79237 0.04631 0.84085 0.0
C258 C 0.75329 0.05113 0.85945 0.0
H259 H 0.55811 0.97418 0.93317 0.0
H260 H 0.61553 0.9866 0.90013 0.0
H261 H 0.7362 0.07352 0.92168 0.0
H262 H 0.89178 0.09911 0.8206 0.0
H263 H 0.82496 0.10903 0.84938 0.0
C264 C 0.92697 0.6318 0.45474 0.0
C265 C 0.96523 0.63251 0.47185 0.0
C266 C 0.91985 0.66697 0.438 0.0
C267 C 0.95669 0.78297 0.42553 0.0
H268 H 0.93855 0.75145 0.35541 0.0
C269 C 0.96184 0.91269 0.34546 0.0
C270 C 0.9859 0.9001 0.32337 0.0
C271 C 0.95182 0.8817 0.36422 0.0
C272 C 0.94378 0.76083 0.37491 0.0
H273 H 0.02433 0.67153 0.48574 0.0
H274 H 0.01228 0.7319 0.45681 0.0
H275 H 0.93245 0.69503 0.38779 0.0
H276 H 0.01891 0.84523 0.30387 0.0
H277 H 0.00258 0.79172 0.33667 0.0
H278 H 0.97057 0.84824 0.41259 0.0
C279 C 0.98745 0.70474 0.45621 0.0
C280 C 0.93953 0.72855 0.39352 0.0
C281 C -0.00534 0.66977 0.4727 0.0
C282 C 0.00019 0.85605 0.32061 0.0
C283 C 0.99034 0.8252 0.33934 0.0
C284 C 0.9611 0.8152 0.40692 0.0
C285 C 0.95057 0.70356 0.43831 0.0
C286 C 0.94723 0.73898 0.41902 0.0
C287 C 0.96572 0.83748 0.36132 0.0
C288 C 0.95594 0.80431 0.38131 0.0
H289 H 0.90374 0.6035 0.45364 0.0
H290 H 0.89084 0.66521 0.42456 0.0
H291 H 0.96211 0.7923 0.44502 0.0
H292 H 0.95006 0.94631 0.3481 0.0
H293 H 0.93252 0.89229 0.38082 0.0
loop_
_geom_bond_atom_site_label_1
_geom_bond_atom_site_label_2
_geom_bond_distance
_geom_bond_site_symmetry_2
_ccdc_geom_bond_type
Mg0 O7 2.141 . S
Mg0 O8 2.048 1_554 S
Mg0 O9 2.048 1_554 S
Mg0 O12 2.141 . S
C1 O2 1.313 . S
C1 O8 1.195 1_565 S
O2 C1 1.313 . S
C3 O4 1.245 . S
C3 O12 1.289 1_565 S
O4 C3 1.245 . S
C5 O6 1.245 . S
C5 O7 1.289 1_565 S
O6 C5 1.245 . S
O7 Mg0 2.141 . S
O7 C5 1.289 1_545 S
O8 Mg0 2.048 1_556 S
O8 C1 1.195 1_545 S
O9 Mg0 2.048 1_556 S
O9 C10 1.195 1_545 S
C10 O9 1.195 1_565 S
C10 O11 1.313 . S
O11 C10 1.313 . S
O12 Mg0 2.141 . S
O12 C3 1.289 1_545 S
Mg13 O20 2.141 . S
Mg13 O21 2.048 . S
Mg13 O22 2.048 . S
Mg13 O25 2.141 . S
C14 O15 1.313 . S
C14 O21 1.195 1_455 S
O15 C14 1.313 . S
C16 O17 1.245 . S
C16 O25 1.289 1_455 S
O17 C16 1.245 . S
C18 O19 1.245 . S
C18 O20 1.289 1_455 S
O19 C18 1.245 . S
O20 Mg13 2.141 . S
O20 C18 1.289 1_655 S
O21 Mg13 2.048 . S
O21 C14 1.195 1_655 S
O22 Mg13 2.048 . S
O22 C23 1.195 1_655 S
C23 O22 1.195 1_455 S
C23 O24 1.313 . S
O24 C23 1.313 . S
O25 Mg13 2.141 . S
O25 C16 1.289 1_655 S
O26 Cd27 2.223 1_655 S
O26 C34 1.315 . S
Cd27 O26 2.223 1_455 S
Cd27 O30 2.297 1_455 S
Cd27 O31 2.439 1_455 S
Cd27 O37 2.240 1_565 S
Cd28 O29 2.240 1_545 S
Cd28 O36 2.223 1_655 S
Cd28 O38 2.297 1_655 S
Cd28 O39 2.439 1_655 S
O29 Cd28 2.240 1_565 S
O29 C34 1.279 . S
O30 Cd27 2.297 1_655 S
O30 C32 1.247 . S
O31 Cd27 2.439 1_655 S
O31 C32 1.208 . S
C32 O30 1.247 . S
C32 O31 1.208 . S
C33 O38 1.247 . S
C33 O39 1.208 . S
C34 O26 1.315 . S
C34 O29 1.279 . S
C35 O36 1.315 . S
C35 O37 1.279 . S
O36 Cd28 2.223 1_455 S
O36 C35 1.315 . S
O37 Cd27 2.240 1_545 S
O37 C35 1.279 . S
O38 Cd28 2.297 1_455 S
O38 C33 1.247 . S
O39 Cd28 2.439 1_455 S
O39 C33 1.208 . S
O40 Cd41 2.223 1_655 S
O40 C48 1.315 . S
Cd41 O40 2.223 1_455 S
Cd41 O44 2.297 1_455 S
Cd41 O45 2.439 1_455 S
Cd41 O51 2.240 1_545 S
Cd42 O43 2.240 1_565 S
Cd42 O50 2.223 1_655 S
Cd42 O52 2.297 1_655 S
Cd42 O53 2.439 1_655 S
O43 Cd42 2.240 1_545 S
O43 C48 1.279 . S
O44 Cd41 2.297 1_655 S
O44 C46 1.247 . S
O45 Cd41 2.439 1_655 S
O45 C46 1.208 . S
C46 O44 1.247 . S
C46 O45 1.208 . S
C47 O52 1.247 . S
C47 O53 1.208 . S
C48 O40 1.315 . S
C48 O43 1.279 . S
C49 O50 1.315 . S
C49 O51 1.279 . S
O50 Cd42 2.223 1_455 S
O50 C49 1.315 . S
O51 Cd41 2.240 1_565 S
O51 C49 1.279 . S
O52 Cd42 2.297 1_455 S
O52 C47 1.247 . S
O53 Cd42 2.439 1_455 S
O53 C47 1.208 . S
C54 C55 1.349 . S
C54 C56 1.327 . S
C54 H79 0.950 . S
C55 C54 1.349 . S
C55 C71 1.349 1_545 S
C56 C54 1.327 . S
C56 C75 1.429 . S
C56 H80 0.950 . S
C57 C74 1.574 . S
C57 C76 1.368 1_565 S
C57 H81 0.949 . S
H58 C62 0.949 . S
C59 C60 1.349 1_565 S
C59 C61 1.327 . S
C59 H82 0.950 . S
C60 C59 1.349 1_545 S
C60 C72 1.349 . S
C61 C59 1.327 . S
C61 C77 1.429 1_565 S
C61 H83 0.950 . S
C62 H58 0.949 . S
C62 C70 1.574 . S
C62 C78 1.368 . S
H63 C71 0.950 . S
H64 C69 0.950 . S
H65 C70 0.949 . S
H66 C72 0.950 . S
H67 C73 0.950 . S
H68 C74 0.949 . S
C69 H64 0.950 . S
C69 C71 1.327 . S
C69 C75 1.429 1_565 S
C70 C62 1.574 . S
C70 H65 0.949 . S
C70 C76 1.368 . S
C71 C55 1.349 1_565 S
C71 H63 0.950 . S
C71 C69 1.327 . S
C72 C60 1.349 . S
C72 H66 0.950 . S
C72 C73 1.327 . S
C73 H67 0.950 . S
C73 C72 1.327 . S
C73 C77 1.429 . S
C74 C57 1.574 . S
C74 H68 0.949 . S
C74 C78 1.368 1_565 S
C75 C56 1.429 . S
C75 C69 1.429 1_545 S
C75 C76 1.523 . S
C76 C57 1.368 1_545 S
C76 C70 1.368 . S
C76 C75 1.523 . S
C77 C61 1.429 1_545 S
C77 C73 1.429 . S
C77 C78 1.523 . S
C78 C62 1.368 . S
C78 C74 1.368 1_545 S
C78 C77 1.523 . S
H79 C54 0.950 . S
H80 C56 0.950 . S
H81 C57 0.949 . S
H82 C59 0.950 . S
H83 C61 0.950 . S
C84 C85 1.349 1_455 S
C84 C86 1.327 . S
C84 H109 0.950 . S
C85 C84 1.349 1_655 S
C85 C101 1.349 . S
C86 C84 1.327 . S
C86 C105 1.429 1_455 S
C86 H110 0.950 . S
C87 C104 1.574 . S
C87 C106 1.368 . S
C87 H111 0.949 . S
H88 C92 0.949 . S
C89 C90 1.349 . S
C89 C91 1.327 . S
C89 H112 0.950 . S
C90 C89 1.349 . S
C90 C102 1.349 . S
C91 C89 1.327 . S
C91 C107 1.429 . S
C91 H113 0.950 . S
C92 H88 0.949 . S
C92 C100 1.574 . S
C92 C108 1.368 1_455 S
H93 C101 0.950 . S
H94 C99 0.950 . S
H95 C100 0.949 . S
H96 C102 0.950 1_455 S
H97 C103 0.950 1_455 S
H98 C104 0.949 . S
C99 H94 0.950 . S
C99 C101 1.327 . S
C99 C105 1.429 . S
C100 C92 1.574 . S
C100 H95 0.949 . S
C100 C106 1.368 1_455 S
C101 C85 1.349 . S
C101 H93 0.950 . S
C101 C99 1.327 . S
C102 C90 1.349 . S
C102 H96 0.950 1_655 S
C102 C103 1.327 . S
C103 H97 0.950 1_655 S
C103 C102 1.327 . S
C103 C107 1.429 . S
C104 C87 1.574 . S
C104 H98 0.949 . S
C104 C108 1.368 . S
C105 C86 1.429 1_655 S
C105 C99 1.429 . S
C105 C106 1.523 . S
C106 C87 1.368 . S
C106 C100 1.368 1_655 S
C106 C105 1.523 . S
C107 C91 1.429 . S
C107 C103 1.429 . S
C107 C108 1.523 . S
C108 C92 1.368 1_655 S
C108 C104 1.368 . S
C108 C107 1.523 . S
H109 C84 0.950 . S
H110 C86 0.950 . S
H111 C87 0.949 . S
H112 C89 0.950 . S
H113 C91 0.950 . S
C114 C115 1.349 1_545 S
C114 C116 1.327 . S
C114 H139 0.950 . S
C115 C114 1.349 1_565 S
C115 C131 1.349 . S
C116 C114 1.327 . S
C116 C135 1.429 1_545 S
C116 H140 0.950 . S
C117 C134 1.574 . S
C117 C136 1.368 . S
C117 H141 0.949 . S
H118 C122 0.949 . S
C119 C120 1.349 . S
C119 C121 1.327 . S
C119 H142 0.950 . S
C120 C119 1.349 . S
C120 C132 1.349 1_565 S
C121 C119 1.327 . S
C121 C137 1.429 . S
C121 H143 0.950 . S
C122 H118 0.949 . S
C122 C130 1.574 . S
C122 C138 1.368 1_545 S
H123 C131 0.950 . S
H124 C129 0.950 . S
H125 C130 0.949 . S
H126 C132 0.950 . S
H127 C133 0.950 . S
H128 C134 0.949 . S
C129 H124 0.950 . S
C129 C131 1.327 . S
C129 C135 1.429 . S
C130 C122 1.574 . S
C130 H125 0.949 . S
C130 C136 1.368 1_545 S
C131 C115 1.349 . S
C131 H123 0.950 . S
C131 C129 1.327 . S
C132 C120 1.349 1_545 S
C132 H126 0.950 . S
C132 C133 1.327 . S
C133 H127 0.950 . S
C133 C132 1.327 . S
C133 C137 1.429 1_545 S
C134 C117 1.574 . S
C134 H128 0.949 . S
C134 C138 1.368 . S
C135 C116 1.429 1_565 S
C135 C129 1.429 . S
C135 C136 1.523 . S
C136 C117 1.368 . S
C136 C130 1.368 1_565 S
C136 C135 1.523 . S
C137 C121 1.429 . S
C137 C133 1.429 1_565 S
C137 C138 1.523 . S
C138 C122 1.368 1_565 S
C138 C134 1.368 . S
C138 C137 1.523 . S
H139 C114 0.950 . S
H140 C116 0.950 . S
H141 C117 0.949 . S
H142 C119 0.950 . S
H143 C121 0.950 . S
C144 C145 1.349 . S
C144 C146 1.327 . S
C144 H169 0.950 . S
C145 C144 1.349 . S
C145 C161 1.349 1_455 S
C146 C144 1.327 . S
C146 C165 1.429 . S
C146 H170 0.950 . S
C147 C164 1.574 . S
C147 C166 1.368 1_655 S
C147 H171 0.949 . S
H148 C152 0.949 . S
C149 C150 1.349 1_655 S
C149 C151 1.327 . S
C149 H172 0.950 . S
C150 C149 1.349 1_455 S
C150 C162 1.349 . S
C151 C149 1.327 . S
C151 C167 1.429 1_655 S
C151 H173 0.950 . S
C152 H148 0.949 . S
C152 C160 1.574 . S
C152 C168 1.368 . S
H153 C161 0.950 . S
H154 C159 0.950 . S
H155 C160 0.949 . S
H156 C162 0.950 . S
H157 C163 0.950 . S
H158 C164 0.949 . S
C159 H154 0.950 . S
C159 C161 1.327 . S
C159 C165 1.429 1_655 S
C160 C152 1.574 . S
C160 H155 0.949 . S
C160 C166 1.368 . S
C161 C145 1.349 1_655 S
C161 H153 0.950 . S
C161 C159 1.327 . S
C162 C150 1.349 . S
C162 H156 0.950 . S
C162 C163 1.327 . S
C163 H157 0.950 . S
C163 C162 1.327 . S
C163 C167 1.429 . S
C164 C147 1.574 . S
C164 H158 0.949 . S
C164 C168 1.368 1_655 S
C165 C146 1.429 . S
C165 C159 1.429 1_455 S
C165 C166 1.523 . S
C166 C147 1.368 1_455 S
C166 C160 1.368 . S
C166 C165 1.523 . S
C167 C151 1.429 1_455 S
C167 C163 1.429 . S
C167 C168 1.523 . S
C168 C152 1.368 . S
C168 C164 1.368 1_455 S
C168 C167 1.523 . S
H169 C144 0.950 . S
H170 C146 0.950 . S
H171 C147 0.949 . S
H172 C149 0.950 . S
H173 C151 0.950 . S
C174 C175 1.349 . S
C174 C176 1.327 . S
C174 H199 0.950 . S
C175 C174 1.349 . S
C175 C191 1.349 1_565 S
C176 C174 1.327 . S
C176 C195 1.429 . S
C176 H200 0.950 . S
C177 C194 1.574 . S
C177 C196 1.368 1_545 S
C177 H201 0.949 . S
H178 C182 0.949 . S
C179 C180 1.349 1_545 S
C179 C181 1.327 . S
C179 H202 0.950 . S
C180 C179 1.349 1_565 S
C180 C192 1.349 . S
C181 C179 1.327 . S
C181 C197 1.429 1_545 S
C181 H203 0.950 . S
C182 H178 0.949 . S
C182 C190 1.574 . S
C182 C198 1.368 . S
H183 C191 0.950 . S
H184 C189 0.950 . S
H185 C190 0.949 . S
H186 C192 0.950 . S
H187 C193 0.950 . S
H188 C194 0.949 . S
C189 H184 0.950 . S
C189 C191 1.327 . S
C189 C195 1.429 1_545 S
C190 C182 1.574 . S
C190 H185 0.949 . S
C190 C196 1.368 . S
C191 C175 1.349 1_545 S
C191 H183 0.950 . S
C191 C189 1.327 . S
C192 C180 1.349 . S
C192 H186 0.950 . S
C192 C193 1.327 . S
C193 H187 0.950 . S
C193 C192 1.327 . S
C193 C197 1.429 . S
C194 C177 1.574 . S
C194 H188 0.949 . S
C194 C198 1.368 1_545 S
C195 C176 1.429 . S
C195 C189 1.429 1_565 S
C195 C196 1.523 . S
C196 C177 1.368 1_565 S
C196 C190 1.368 . S
C196 C195 1.523 . S
C197 C181 1.429 1_565 S
C197 C193 1.429 . S
C197 C198 1.523 . S
C198 C182 1.368 . S
C198 C194 1.368 1_565 S
C198 C197 1.523 . S
H199 C174 0.950 . S
H200 C176 0.950 . S
H201 C177 0.949 . S
H202 C179 0.950 . S
H203 C181 0.950 . S
C204 C205 1.349 1_655 S
C204 C206 1.327 . S
C204 H229 0.950 . S
C205 C204 1.349 1_455 S
C205 C221 1.349 . S
C206 C204 1.327 . S
C206 C225 1.429 1_655 S
C206 H230 0.950 . S
C207 C224 1.574 . S
C207 C226 1.368 . S
C207 H231 0.949 . S
H208 C212 0.949 . S
C209 C210 1.349 . S
C209 C211 1.327 . S
C209 H232 0.950 . S
C210 C209 1.349 . S
C210 C222 1.349 1_455 S
C211 C209 1.327 . S
C211 C227 1.429 . S
C211 H233 0.950 . S
C212 H208 0.949 . S
C212 C220 1.574 . S
C212 C228 1.368 1_655 S
H213 C221 0.950 . S
H214 C219 0.950 . S
H215 C220 0.949 . S
H216 C222 0.950 . S
H217 C223 0.950 . S
H218 C224 0.949 . S
C219 H214 0.950 . S
C219 C221 1.327 . S
C219 C225 1.429 . S
C220 C212 1.574 . S
C220 H215 0.949 . S
C220 C226 1.368 1_655 S
C221 C205 1.349 . S
C221 H213 0.950 . S
C221 C219 1.327 . S
C222 C210 1.349 1_655 S
C222 H216 0.950 . S
C222 C223 1.327 . S
C223 H217 0.950 . S
C223 C222 1.327 . S
C223 C227 1.429 1_655 S
C224 C207 1.574 . S
C224 H218 0.949 . S
C224 C228 1.368 . S
C225 C206 1.429 1_455 S
C225 C219 1.429 . S
C225 C226 1.523 . S
C226 C207 1.368 . S
C226 C220 1.368 1_455 S
C226 C225 1.523 . S
C227 C211 1.429 . S
C227 C223 1.429 1_455 S
C227 C228 1.523 . S
C228 C212 1.368 1_455 S
C228 C224 1.368 . S
C228 C227 1.523 . S
H229 C204 0.950 . S
H230 C206 0.950 . S
H231 C207 0.949 . S
H232 C209 0.950 . S
H233 C211 0.950 . S
C234 C235 1.349 1_565 S
C234 C236 1.327 . S
C234 H259 0.950 . S
C235 C234 1.349 1_545 S
C235 C251 1.349 . S
C236 C234 1.327 . S
C236 C255 1.429 1_565 S
C236 H260 0.950 . S
C237 C254 1.574 . S
C237 C256 1.368 . S
C237 H261 0.949 . S
H238 C242 0.949 . S
C239 C240 1.349 . S
C239 C241 1.327 . S
C239 H262 0.950 . S
C240 C239 1.349 . S
C240 C252 1.349 1_545 S
C241 C239 1.327 . S
C241 C257 1.429 . S
C241 H263 0.950 . S
C242 H238 0.949 . S
C242 C250 1.574 . S
C242 C258 1.368 1_565 S
H243 C251 0.950 . S
H244 C249 0.950 . S
H245 C250 0.949 . S
H246 C252 0.950 . S
H247 C253 0.950 . S
H248 C254 0.949 . S
C249 H244 0.950 . S
C249 C251 1.327 . S
C249 C255 1.429 . S
C250 C242 1.574 . S
C250 H245 0.949 . S
C250 C256 1.368 1_565 S
C251 C235 1.349 . S
C251 H243 0.950 . S
C251 C249 1.327 . S
C252 C240 1.349 1_565 S
C252 H246 0.950 . S
C252 C253 1.327 . S
C253 H247 0.950 . S
C253 C252 1.327 . S
C253 C257 1.429 1_565 S
C254 C237 1.574 . S
C254 H248 0.949 . S
C254 C258 1.368 . S
C255 C236 1.429 1_545 S
C255 C249 1.429 . S
C255 C256 1.523 . S
C256 C237 1.368 . S
C256 C250 1.368 1_545 S
C256 C255 1.523 . S
C257 C241 1.429 . S
C257 C253 1.429 1_545 S
C257 C258 1.523 . S
C258 C242 1.368 1_545 S
C258 C254 1.368 . S
C258 C257 1.523 . S
H259 C234 0.950 . S
H260 C236 0.950 . S
H261 C237 0.949 . S
H262 C239 0.950 . S
H263 C241 0.950 . S
C264 C265 1.349 . S
C264 C266 1.327 . S
C264 H289 0.950 . S
C265 C264 1.349 . S
C265 C281 1.349 1_655 S
C266 C264 1.327 . S
C266 C285 1.429 . S
C266 H290 0.950 . S
C267 C284 1.574 . S
C267 C286 1.368 1_455 S
C267 H291 0.949 . S
H268 C272 0.949 . S
C269 C270 1.349 . S
C269 C271 1.327 . S
C269 H292 0.950 1_655 S
C270 C269 1.349 . S
C270 C282 1.349 . S
C271 C269 1.327 . S
C271 C287 1.429 . S
C271 H293 0.950 1_655 S
C272 H268 0.949 . S
C272 C280 1.574 . S
C272 C288 1.368 . S
H273 C281 0.950 . S
H274 C279 0.950 . S
H275 C280 0.949 . S
H276 C282 0.950 . S
H277 C283 0.950 . S
H278 C284 0.949 . S
C279 H274 0.950 . S
C279 C281 1.327 . S
C279 C285 1.429 1_455 S
C280 C272 1.574 . S
C280 H275 0.949 . S
C280 C286 1.368 . S
C281 C265 1.349 1_455 S
C281 H273 0.950 . S
C281 C279 1.327 . S
C282 C270 1.349 . S
C282 H276 0.950 . S
C282 C283 1.327 . S
C283 H277 0.950 . S
C283 C282 1.327 . S
C283 C287 1.429 . S
C284 C267 1.574 . S
C284 H278 0.949 . S
C284 C288 1.368 1_455 S
C285 C266 1.429 . S
C285 C279 1.429 1_655 S
C285 C286 1.523 . S
C286 C267 1.368 1_655 S
C286 C280 1.368 . S
C286 C285 1.523 . S
C287 C271 1.429 . S
C287 C283 1.429 . S
C287 C288 1.523 . S
C288 C272 1.368 . S
C288 C284 1.368 1_655 S
C288 C287 1.523 . S
H289 C264 0.950 . S
H290 C266 0.950 . S
H291 C267 0.949 . S
H292 C269 0.950 1_455 S
H293 C271 0.950 1_455 S
C60 C35 1.475 . S
C55 C5 1.468 1_545 S
C90 C46 1.520 . S
C85 C23 1.569 1_655 S
C120 C34 1.475 . S
C115 C3 1.462 . S
C150 C47 1.520 . S
C145 C14 1.564 . S
C180 C49 1.544 . S
C175 C1 1.532 . S
C210 C33 1.445 . S
C205 C16 1.474 . S
C240 C48 1.544 . S
C235 C10 1.544 1_545 S
C265 C18 1.489 1_655 S
C270 C32 1.447 . S
