# Generated by pormake.
# Topology tph, (6,8)-cn, num edge types: 1
# Building blocks:
#     Node 0, Type 0, BuildingBlock: IZENUY_clean_sbu_0, # of connection points: 6
#     Node 1, Type 0, BuildingBlock: IZENUY_clean_sbu_0, # of connection points: 6
#     Node 2, Type 0, BuildingBlock: IZENUY_clean_sbu_0, # of connection points: 6
#     Node 3, Type 0, BuildingBlock: IZENUY_clean_sbu_0, # of connection points: 6
#     Node 4, Type 0, BuildingBlock: IZENUY_clean_sbu_0, # of connection points: 6
#     Node 5, Type 0, BuildingBlock: IZENUY_clean_sbu_0, # of connection points: 6
#     Node 6, Type 0, BuildingBlock: IZENUY_clean_sbu_0, # of connection points: 6
#     Node 7, Type 0, BuildingBlock: IZENUY_clean_sbu_0, # of connection points: 6
#     Node 8, Type 0, BuildingBlock: IZENUY_clean_sbu_0, # of connection points: 6
#     Node 9, Type 0, BuildingBlock: IZENUY_clean_sbu_0, # of connection points: 6
#     Node 10, Type 0, BuildingBlock: IZENUY_clean_sbu_0, # of connection points: 6
#     Node 11, Type 0, BuildingBlock: IZENUY_clean_sbu_0, # of connection points: 6
#     Node 12, Type 0, BuildingBlock: IZENUY_clean_sbu_0, # of connection points: 6
#     Node 13, Type 0, BuildingBlock: IZENUY_clean_sbu_0, # of connection points: 6
#     Node 14, Type 0, BuildingBlock: IZENUY_clean_sbu_0, # of connection points: 6
#     Node 15, Type 0, BuildingBlock: IZENUY_clean_sbu_0, # of connection points: 6
#     Node 16, Type 1, BuildingBlock: TAGTUT_clean_sbu_1, # of connection points: 8
#     Node 17, Type 1, BuildingBlock: TAGTUT_clean_sbu_1, # of connection points: 8
#     Node 18, Type 1, BuildingBlock: TAGTUT_clean_sbu_1, # of connection points: 8
#     Node 19, Type 1, BuildingBlock: TAGTUT_clean_sbu_1, # of connection points: 8
#     Node 20, Type 1, BuildingBlock: TAGTUT_clean_sbu_1, # of connection points: 8
#     Node 21, Type 1, BuildingBlock: TAGTUT_clean_sbu_1, # of connection points: 8
#     Node 22, Type 1, BuildingBlock: TAGTUT_clean_sbu_1, # of connection points: 8
#     Node 23, Type 1, BuildingBlock: TAGTUT_clean_sbu_1, # of connection points: 8
#     Node 24, Type 1, BuildingBlock: TAGTUT_clean_sbu_1, # of connection points: 8
#     Node 25, Type 1, BuildingBlock: TAGTUT_clean_sbu_1, # of connection points: 8
#     Node 26, Type 1, BuildingBlock: TAGTUT_clean_sbu_1, # of connection points: 8
#     Node 27, Type 1, BuildingBlock: TAGTUT_clean_sbu_1, # of connection points: 8
#     Edge 28, Type (0, 1), BuildingBlock: AJUNOK_clean_linker_0, # of connection points: 2
#     Edge 29, Type (0, 1), BuildingBlock: AJUNOK_clean_linker_0, # of connection points: 2
#     Edge 30, Type (0, 1), BuildingBlock: AJUNOK_clean_linker_0, # of connection points: 2
#     Edge 31, Type (0, 1), BuildingBlock: AJUNOK_clean_linker_0, # of connection points: 2
#     Edge 32, Type (0, 1), BuildingBlock: AJUNOK_clean_linker_0, # of connection points: 2
#     Edge 33, Type (0, 1), BuildingBlock: AJUNOK_clean_linker_0, # of connection points: 2
#     Edge 34, Type (0, 1), BuildingBlock: AJUNOK_clean_linker_0, # of connection points: 2
#     Edge 35, Type (0, 1), BuildingBlock: AJUNOK_clean_linker_0, # of connection points: 2
#     Edge 36, Type (0, 1), BuildingBlock: AJUNOK_clean_linker_0, # of connection points: 2
#     Edge 37, Type (0, 1), BuildingBlock: AJUNOK_clean_linker_0, # of connection points: 2
#     Edge 38, Type (0, 1), BuildingBlock: AJUNOK_clean_linker_0, # of connection points: 2
#     Edge 39, Type (0, 1), BuildingBlock: AJUNOK_clean_linker_0, # of connection points: 2
#     Edge 40, Type (0, 1), BuildingBlock: AJUNOK_clean_linker_0, # of connection points: 2
#     Edge 41, Type (0, 1), BuildingBlock: AJUNOK_clean_linker_0, # of connection points: 2
#     Edge 42, Type (0, 1), BuildingBlock: AJUNOK_clean_linker_0, # of connection points: 2
#     Edge 43, Type (0, 1), BuildingBlock: AJUNOK_clean_linker_0, # of connection points: 2
#     Edge 44, Type (0, 1), BuildingBlock: AJUNOK_clean_linker_0, # of connection points: 2
#     Edge 45, Type (0, 1), BuildingBlock: AJUNOK_clean_linker_0, # of connection points: 2
#     Edge 46, Type (0, 1), BuildingBlock: AJUNOK_clean_linker_0, # of connection points: 2
#     Edge 47, Type (0, 1), BuildingBlock: AJUNOK_clean_linker_0, # of connection points: 2
#     Edge 48, Type (0, 1), BuildingBlock: AJUNOK_clean_linker_0, # of connection points: 2
#     Edge 49, Type (0, 1), BuildingBlock: AJUNOK_clean_linker_0, # of connection points: 2
#     Edge 50, Type (0, 1), BuildingBlock: AJUNOK_clean_linker_0, # of connection points: 2
#     Edge 51, Type (0, 1), BuildingBlock: AJUNOK_clean_linker_0, # of connection points: 2
#     Edge 52, Type (0, 1), BuildingBlock: AJUNOK_clean_linker_0, # of connection points: 2
#     Edge 53, Type (0, 1), BuildingBlock: AJUNOK_clean_linker_0, # of connection points: 2
#     Edge 54, Type (0, 1), BuildingBlock: AJUNOK_clean_linker_0, # of connection points: 2
#     Edge 55, Type (0, 1), BuildingBlock: AJUNOK_clean_linker_0, # of connection points: 2
#     Edge 56, Type (0, 1), BuildingBlock: AJUNOK_clean_linker_0, # of connection points: 2
#     Edge 57, Type (0, 1), BuildingBlock: AJUNOK_clean_linker_0, # of connection points: 2
#     Edge 58, Type (0, 1), BuildingBlock: AJUNOK_clean_linker_0, # of connection points: 2
#     Edge 59, Type (0, 1), BuildingBlock: AJUNOK_clean_linker_0, # of connection points: 2
#     Edge 60, Type (0, 1), BuildingBlock: AJUNOK_clean_linker_0, # of connection points: 2
#     Edge 61, Type (0, 1), BuildingBlock: AJUNOK_clean_linker_0, # of connection points: 2
#     Edge 62, Type (0, 1), BuildingBlock: AJUNOK_clean_linker_0, # of connection points: 2
#     Edge 63, Type (0, 1), BuildingBlock: AJUNOK_clean_linker_0, # of connection points: 2
#     Edge 64, Type (0, 1), BuildingBlock: AJUNOK_clean_linker_0, # of connection points: 2
#     Edge 65, Type (0, 1), BuildingBlock: AJUNOK_clean_linker_0, # of connection points: 2
#     Edge 66, Type (0, 1), BuildingBlock: AJUNOK_clean_linker_0, # of connection points: 2
#     Edge 67, Type (0, 1), BuildingBlock: AJUNOK_clean_linker_0, # of connection points: 2
#     Edge 68, Type (0, 1), BuildingBlock: AJUNOK_clean_linker_0, # of connection points: 2
#     Edge 69, Type (0, 1), BuildingBlock: AJUNOK_clean_linker_0, # of connection points: 2
#     Edge 70, Type (0, 1), BuildingBlock: AJUNOK_clean_linker_0, # of connection points: 2
#     Edge 71, Type (0, 1), BuildingBlock: AJUNOK_clean_linker_0, # of connection points: 2
#     Edge 72, Type (0, 1), BuildingBlock: AJUNOK_clean_linker_0, # of connection points: 2
#     Edge 73, Type (0, 1), BuildingBlock: AJUNOK_clean_linker_0, # of connection points: 2
#     Edge 74, Type (0, 1), BuildingBlock: AJUNOK_clean_linker_0, # of connection points: 2
#     Edge 75, Type (0, 1), BuildingBlock: AJUNOK_clean_linker_0, # of connection points: 2
#     Edge 76, Type (0, 1), BuildingBlock: AJUNOK_clean_linker_0, # of connection points: 2
#     Edge 77, Type (0, 1), BuildingBlock: AJUNOK_clean_linker_0, # of connection points: 2
#     Edge 78, Type (0, 1), BuildingBlock: AJUNOK_clean_linker_0, # of connection points: 2
#     Edge 79, Type (0, 1), BuildingBlock: AJUNOK_clean_linker_0, # of connection points: 2
#     Edge 80, Type (0, 1), BuildingBlock: AJUNOK_clean_linker_0, # of connection points: 2
#     Edge 81, Type (0, 1), BuildingBlock: AJUNOK_clean_linker_0, # of connection points: 2
#     Edge 82, Type (0, 1), BuildingBlock: AJUNOK_clean_linker_0, # of connection points: 2
#     Edge 83, Type (0, 1), BuildingBlock: AJUNOK_clean_linker_0, # of connection points: 2
#     Edge 84, Type (0, 1), BuildingBlock: AJUNOK_clean_linker_0, # of connection points: 2
#     Edge 85, Type (0, 1), BuildingBlock: AJUNOK_clean_linker_0, # of connection points: 2
#     Edge 86, Type (0, 1), BuildingBlock: AJUNOK_clean_linker_0, # of connection points: 2
#     Edge 87, Type (0, 1), BuildingBlock: AJUNOK_clean_linker_0, # of connection points: 2
#     Edge 88, Type (0, 1), BuildingBlock: AJUNOK_clean_linker_0, # of connection points: 2
#     Edge 89, Type (0, 1), BuildingBlock: AJUNOK_clean_linker_0, # of connection points: 2
#     Edge 90, Type (0, 1), BuildingBlock: AJUNOK_clean_linker_0, # of connection points: 2
#     Edge 91, Type (0, 1), BuildingBlock: AJUNOK_clean_linker_0, # of connection points: 2
#     Edge 92, Type (0, 1), BuildingBlock: AJUNOK_clean_linker_0, # of connection points: 2
#     Edge 93, Type (0, 1), BuildingBlock: AJUNOK_clean_linker_0, # of connection points: 2
#     Edge 94, Type (0, 1), BuildingBlock: AJUNOK_clean_linker_0, # of connection points: 2
#     Edge 95, Type (0, 1), BuildingBlock: AJUNOK_clean_linker_0, # of connection points: 2
#     Edge 96, Type (0, 1), BuildingBlock: AJUNOK_clean_linker_0, # of connection points: 2
#     Edge 97, Type (0, 1), BuildingBlock: AJUNOK_clean_linker_0, # of connection points: 2
#     Edge 98, Type (0, 1), BuildingBlock: AJUNOK_clean_linker_0, # of connection points: 2
#     Edge 99, Type (0, 1), BuildingBlock: AJUNOK_clean_linker_0, # of connection points: 2
#     Edge 100, Type (0, 1), BuildingBlock: AJUNOK_clean_linker_0, # of connection points: 2
#     Edge 101, Type (0, 1), BuildingBlock: AJUNOK_clean_linker_0, # of connection points: 2
#     Edge 102, Type (0, 1), BuildingBlock: AJUNOK_clean_linker_0, # of connection points: 2
#     Edge 103, Type (0, 1), BuildingBlock: AJUNOK_clean_linker_0, # of connection points: 2
#     Edge 104, Type (0, 1), BuildingBlock: AJUNOK_clean_linker_0, # of connection points: 2
#     Edge 105, Type (0, 1), BuildingBlock: AJUNOK_clean_linker_0, # of connection points: 2
#     Edge 106, Type (0, 1), BuildingBlock: AJUNOK_clean_linker_0, # of connection points: 2
#     Edge 107, Type (0, 1), BuildingBlock: AJUNOK_clean_linker_0, # of connection points: 2
#     Edge 108, Type (0, 1), BuildingBlock: AJUNOK_clean_linker_0, # of connection points: 2
#     Edge 109, Type (0, 1), BuildingBlock: AJUNOK_clean_linker_0, # of connection points: 2
#     Edge 110, Type (0, 1), BuildingBlock: AJUNOK_clean_linker_0, # of connection points: 2
#     Edge 111, Type (0, 1), BuildingBlock: AJUNOK_clean_linker_0, # of connection points: 2
#     Edge 112, Type (0, 1), BuildingBlock: AJUNOK_clean_linker_0, # of connection points: 2
#     Edge 113, Type (0, 1), BuildingBlock: AJUNOK_clean_linker_0, # of connection points: 2
#     Edge 114, Type (0, 1), BuildingBlock: AJUNOK_clean_linker_0, # of connection points: 2
#     Edge 115, Type (0, 1), BuildingBlock: AJUNOK_clean_linker_0, # of connection points: 2
#     Edge 116, Type (0, 1), BuildingBlock: AJUNOK_clean_linker_0, # of connection points: 2
#     Edge 117, Type (0, 1), BuildingBlock: AJUNOK_clean_linker_0, # of connection points: 2
#     Edge 118, Type (0, 1), BuildingBlock: AJUNOK_clean_linker_0, # of connection points: 2
#     Edge 119, Type (0, 1), BuildingBlock: AJUNOK_clean_linker_0, # of connection points: 2
#     Edge 120, Type (0, 1), BuildingBlock: AJUNOK_clean_linker_0, # of connection points: 2
#     Edge 121, Type (0, 1), BuildingBlock: AJUNOK_clean_linker_0, # of connection points: 2
#     Edge 122, Type (0, 1), BuildingBlock: AJUNOK_clean_linker_0, # of connection points: 2
#     Edge 123, Type (0, 1), BuildingBlock: AJUNOK_clean_linker_0, # of connection points: 2
# Relax obj value: 0.220
# Max RMSD: 0.316
# Mean RMSD: 0.273
data_MOF--net-tph--node1-IZENUY_clean_sbu_0--node2-TAGTUT_clean_sbu_1--edge1-AJUNOK_clean_linker_0
_symmetry_space_group_name_H-M    P1
_symmetry_Int_Tables_number       1
_symmetry_cell_setting            triclinic
loop_
_symmetry_equiv_pos_as_xyz
'x, y, z'
_cell_length_a     35.702567
_cell_length_b     35.627991
_cell_length_c     35.391237
_cell_angle_alpha  90.21773
_cell_angle_beta   91.613815
_cell_angle_gamma 90.045573
loop_
_atom_site_label
_atom_site_type_symbol
_atom_site_fract_x
_atom_site_fract_y
_atom_site_fract_z
_atom_type_partial_charge
Fe0 Fe 0.22815 0.21541 0.13908 0.0
Fe1 Fe 0.16503 0.21295 0.19472 0.0
O2 O 0.20696 0.19445 0.17778 0.0
Fe3 Fe 0.22677 0.15433 0.19941 0.0
O4 O 0.22003 0.128 0.15711 0.0
O5 O 0.24355 0.16974 0.11873 0.0
O6 O 0.18711 0.20898 0.10978 0.0
C7 C 0.15733 0.22627 0.11502 0.0
C8 C 0.29107 0.19611 0.17777 0.0
O9 O 0.14796 0.23362 0.14865 0.0
C10 C 0.20449 0.18881 0.26189 0.0
O11 O 0.21424 0.26421 0.1533 0.0
O12 O 0.18835 0.25521 0.20823 0.0
O13 O 0.27587 0.1657 0.18789 0.0
O14 O 0.27122 0.22276 0.16562 0.0
C15 C 0.14936 0.13964 0.19729 0.0
O16 O 0.17415 0.19696 0.24397 0.0
O17 O 0.23293 0.179 0.24383 0.0
C18 C 0.20181 0.27697 0.18443 0.0
O19 O 0.14067 0.17041 0.18198 0.0
O20 O 0.1814 0.13484 0.21289 0.0
C21 C 0.22952 0.1374 0.12473 0.0
Fe22 Fe 0.46249 0.57694 0.11905 0.0
Fe23 Fe 0.44615 0.62863 0.05154 0.0
O24 O 0.4375 0.58729 0.07681 0.0
Fe25 Fe 0.40025 0.55762 0.06085 0.0
O26 O 0.37388 0.57018 0.10117 0.0
O27 O 0.4195 0.55912 0.14327 0.0
O28 O 0.45044 0.62017 0.14019 0.0
C29 C 0.45265 0.65285 0.12804 0.0
C30 C 0.45219 0.50515 0.0967 0.0
O31 O 0.45772 0.65905 0.09326 0.0
C32 C 0.43128 0.57019 0.99491 0.0
O33 O 0.5085 0.59605 0.10149 0.0
O34 O 0.49427 0.61746 0.04435 0.0
O35 O 0.41919 0.51414 0.08502 0.0
O36 O 0.47605 0.53083 0.10213 0.0
C37 C 0.37409 0.6299 0.03663 0.0
O38 O 0.43579 0.60469 0.00481 0.0
O39 O 0.42594 0.54545 0.01968 0.0
C40 C 0.51844 0.60973 0.06963 0.0
O41 O 0.39865 0.64264 0.05866 0.0
O42 O 0.37306 0.59443 0.03267 0.0
C43 C 0.38479 0.56562 0.13503 0.0
Fe44 Fe 0.82514 0.30264 0.15366 0.0
Fe45 Fe 0.86866 0.28773 0.22753 0.0
O46 O 0.83851 0.31655 0.20011 0.0
Fe47 Fe 0.82168 0.35926 0.2177 0.0
O48 O 0.84195 0.38503 0.17955 0.0
O49 O 0.81546 0.35005 0.13602 0.0
O50 O 0.87236 0.3085 0.13952 0.0
C51 C 0.89978 0.29149 0.15466 0.0
C52 C 0.75838 0.32447 0.17908 0.0
O53 O 0.89683 0.27421 0.186 0.0
C54 C 0.81581 0.31589 0.28032 0.0
O55 O 0.8326 0.25214 0.16111 0.0
O56 O 0.83695 0.24824 0.22231 0.0
O57 O 0.77485 0.35365 0.19297 0.0
O58 O 0.77729 0.29713 0.16711 0.0
C59 C 0.89786 0.35635 0.24709 0.0
O60 O 0.8462 0.29877 0.27328 0.0
O61 O 0.80028 0.3367 0.25623 0.0
C62 C 0.83145 0.23268 0.19074 0.0
O63 O 0.90255 0.32395 0.23446 0.0
O64 O 0.86529 0.3712 0.24617 0.0
C65 C 0.82974 0.38094 0.14627 0.0
Fe66 Fe 0.55959 0.94043 0.12159 0.0
Fe67 Fe 0.5808 0.89461 0.05146 0.0
O68 O 0.59003 0.93253 0.08339 0.0
Fe69 Fe 0.63091 0.96076 0.07982 0.0
O70 O 0.64686 0.9479 0.12704 0.0
O71 O 0.5949 0.95992 0.15511 0.0
O72 O 0.57116 0.89502 0.14077 0.0
C73 C 0.56859 0.8642 0.12327 0.0
C74 C 0.5718 0.01287 0.10111 0.0
O75 O 0.56247 0.86309 0.08783 0.0
C76 C 0.61171 0.9525 0.00397 0.0
O77 O 0.51759 0.92122 0.09715 0.0
O78 O 0.53387 0.91146 0.03881 0.0
O79 O 0.60633 1.00455 0.09601 0.0
O80 O 0.54771 0.98695 0.1043 0.0
C81 C 0.65725 0.8869 0.06679 0.0
O82 O 0.59929 0.9195 0.00982 0.0
O83 O 0.61946 0.97444 0.03134 0.0
C84 C 0.50873 0.91266 0.06331 0.0
O85 O 0.62512 0.87306 0.06273 0.0
O86 O 0.66219 0.92213 0.06435 0.0
C87 C 0.62899 0.95106 0.15684 0.0
Fe88 Fe 0.20268 0.8633 0.30317 0.0
Fe89 Fe 0.2135 0.80782 0.36702 0.0
O90 O 0.18876 0.82241 0.32627 0.0
Fe91 Fe 0.15025 0.79622 0.30903 0.0
O92 O 0.11913 0.83524 0.31469 0.0
O93 O 0.15424 0.87555 0.28519 0.0
O94 O 0.19318 0.89089 0.34392 0.0
C95 C 0.21308 0.8882 0.37347 0.0
C96 C 0.18805 0.81979 0.24304 0.0
O97 O 0.22779 0.85659 0.38215 0.0
C98 C 0.19446 0.73859 0.32907 0.0
O99 O 0.25378 0.85789 0.31679 0.0
O100 O 0.25501 0.80116 0.34077 0.0
O101 O 0.15834 0.80788 0.25828 0.0
O102 O 0.21263 0.83736 0.26178 0.0
C103 C 0.14545 0.79258 0.39022 0.0
O104 O 0.20357 0.75623 0.35946 0.0
O105 O 0.17947 0.75605 0.30197 0.0
C106 C 0.27184 0.82826 0.32629 0.0
O107 O 0.17277 0.81437 0.39409 0.0
O108 O 0.13621 0.77993 0.35732 0.0
C109 C 0.12202 0.86487 0.29585 0.0
Fe110 Fe 0.1222 0.55645 0.94823 0.0
Fe111 Fe 0.06178 0.58574 0.89219 0.0
O112 O 0.08479 0.58769 0.93724 0.0
Fe113 Fe 0.07128 0.62205 0.97034 0.0
O114 O 0.11752 0.64201 0.9719 0.0
O115 O 0.14905 0.58965 0.9792 0.0
O116 O 0.14887 0.57398 0.90903 0.0
C117 C 0.13794 0.5753 0.87486 0.0
C118 C 0.09132 0.5585 0.01685 0.0
O119 O 0.10356 0.56975 0.86625 0.0
C120 C 1.00213 0.60327 0.9425 0.0
O121 O 0.10143 0.51706 0.92002 0.0
O122 O 0.04621 0.53794 0.90015 0.0
O123 O 0.08248 0.59269 0.01194 0.0
O124 O 0.09867 0.53785 0.98892 0.0
C125 C 0.07174 0.66149 0.9016 0.0
O126 O 0.01556 0.60245 0.90948 0.0
O127 O 0.02386 0.60408 0.97114 0.0
C128 C 0.06793 0.51086 0.90805 0.0
O129 O 0.07695 0.63275 0.88168 0.0
O130 O 0.05901 0.6584 0.93458 0.0
C131 C 0.1458 0.62468 0.98465 0.0
Fe132 Fe 0.79525 0.65994 0.28658 0.0
Fe133 Fe 0.86172 0.71316 0.29171 0.0
O134 O 0.81935 0.69686 0.30982 0.0
Fe135 Fe 0.80207 0.71716 0.35131 0.0
O136 O 0.75878 0.73051 0.32779 0.0
O137 O 0.74839 0.67607 0.30039 0.0
O138 O 0.79023 0.6871 0.24354 0.0
C139 C 0.81864 0.69659 0.22539 0.0
C140 C 0.78938 0.63922 0.3602 0.0
O141 O 0.84983 0.7012 0.24252 0.0
C142 C 0.87593 0.71494 0.36964 0.0
O143 O 0.83831 0.63636 0.2706 0.0
O144 O 0.88295 0.66859 0.30004 0.0
O145 O 0.78208 0.67292 0.36926 0.0
O146 O 0.79955 0.63094 0.32753 0.0
C147 C 0.8316 0.77891 0.30978 0.0
O148 O 0.88245 0.72798 0.33742 0.0
O149 O 0.84367 0.7044 0.37763 0.0
C150 C 0.87091 0.63842 0.28582 0.0
O151 O 0.84156 0.75815 0.28318 0.0
O152 O 0.82033 0.7647 0.34049 0.0
C153 C 0.73623 0.70636 0.31463 0.0
Fe154 Fe 0.90234 0.96758 0.93556 0.0
Fe155 Fe 0.97426 0.9514 0.89286 0.0
O156 O 0.9424 0.93882 0.92845 0.0
Fe157 Fe 0.9483 0.89656 0.95453 0.0
O158 O 0.90276 0.87943 0.93897 0.0
O159 O 0.87053 0.92976 0.95065 0.0
O160 O 0.88548 0.9575 0.88785 0.0
C161 C 0.90392 0.96148 0.85828 0.0
C162 C 0.92153 0.95152 0.00895 0.0
O163 O 0.93803 0.97122 0.86044 0.0
C164 C 0.02254 0.91805 0.95014 0.0
O165 O 0.92529 0.01185 0.92046 0.0
O166 O 0.9842 0.99649 0.91474 0.0
O167 O 0.92967 0.91797 0.99873 0.0
O168 O 0.91688 0.97733 0.98455 0.0
C169 C 0.96446 0.87547 0.87942 0.0
O170 O 0.01598 0.93215 0.91775 0.0
O171 O 0.99585 0.90868 0.97108 0.0
C172 C 0.95923 0.02145 0.91608 0.0
O173 O 0.96588 0.90863 0.86793 0.0
O174 O 0.96594 0.86827 0.91457 0.0
C175 C 0.8717 0.89548 0.94155 0.0
Fe176 Fe 0.39794 0.46867 0.43602 0.0
Fe177 Fe 0.46599 0.44786 0.38963 0.0
O178 O 0.43637 0.43825 0.42785 0.0
Fe179 Fe 0.4431 0.39729 0.45553 0.0
O180 O 0.39619 0.38048 0.44338 0.0
O181 O 0.36609 0.43259 0.45428 0.0
O182 O 0.37816 0.45751 0.38973 0.0
C183 C 0.39496 0.46035 0.35908 0.0
C184 C 0.42025 0.45502 0.50893 0.0
O185 O 0.42922 0.46913 0.35925 0.0
C186 C 0.51685 0.41579 0.44494 0.0
O187 O 0.42201 0.51127 0.41843 0.0
O188 O 0.47974 0.49276 0.40964 0.0
O189 O 0.42758 0.42094 0.49991 0.0
O190 O 0.4151 0.47971 0.48354 0.0
C191 C 0.45485 0.37239 0.38019 0.0
O192 O 0.50819 0.42662 0.41177 0.0
O193 O 0.49162 0.40993 0.46875 0.0
C194 C 0.45624 0.51897 0.41267 0.0
O195 O 0.45326 0.40491 0.36696 0.0
O196 O 0.4584 0.36698 0.41566 0.0
C197 C 0.36587 0.39787 0.44708 0.0
Fe198 Fe 0.32197 0.79713 0.65539 0.0
Fe199 Fe 0.32232 0.85874 0.71495 0.0
O200 O 0.33752 0.81441 0.7001 0.0
Fe201 Fe 0.36785 0.78695 0.72869 0.0
O202 O 0.33455 0.74883 0.72747 0.0
O203 O 0.3285 0.74703 0.66648 0.0
O204 O 0.2746 0.7943 0.67098 0.0
C205 C 0.25689 0.82325 0.68091 0.0
C206 C 0.39636 0.78446 0.65489 0.0
O207 O 0.2746 0.8528 0.69212 0.0
C208 C 0.39937 0.85605 0.74158 0.0
O209 O 0.31312 0.84333 0.63431 0.0
O210 O 0.34193 0.88076 0.67421 0.0
O211 O 0.39424 0.76949 0.68744 0.0
O212 O 0.36863 0.80039 0.63914 0.0
C213 C 0.31735 0.81977 0.78065 0.0
O214 O 0.36707 0.87145 0.74103 0.0
O215 O 0.40303 0.82246 0.7319 0.0
C216 C 0.32888 0.87432 0.64159 0.0
O217 O 0.30178 0.83983 0.75588 0.0
O218 O 0.34723 0.80177 0.77398 0.0
C219 C 0.32958 0.73009 0.69773 0.0
Fe220 Fe 0.07198 0.39992 0.54824 0.0
Fe221 Fe 0.12716 0.46144 0.57804 0.0
O222 O 0.08531 0.43493 0.58206 0.0
Fe223 Fe 0.05768 0.44161 0.62274 0.0
O224 O 0.07009 0.39528 0.63871 0.0
O225 O 0.05681 0.36631 0.58475 0.0
O226 O 0.11586 0.37651 0.55273 0.0
C227 C 0.14898 0.38791 0.55543 0.0
C228 C 1.00175 0.4184 0.56744 0.0
O229 O 0.15622 0.42261 0.5594 0.0
C230 C 0.07054 0.51413 0.60323 0.0
O231 O 0.08761 0.42726 0.50679 0.0
O232 O 0.11455 0.47807 0.53105 0.0
O233 O 0.01356 0.42388 0.60102 0.0
O234 O 0.02484 0.41888 0.54106 0.0
C235 C 0.12876 0.44922 0.65469 0.0
O236 O 0.10462 0.50501 0.59687 0.0
O237 O 0.04582 0.48901 0.60814 0.0
C238 C 0.10349 0.45904 0.50266 0.0
O239 O 0.14473 0.44576 0.62385 0.0
O240 O 0.09512 0.45948 0.65476 0.0
C241 C 0.06719 0.36546 0.61948 0.0
Fe242 Fe 0.95985 0.07771 0.62117 0.0
Fe243 Fe 0.94945 0.12533 0.55057 0.0
O244 O 0.93654 0.08634 0.57769 0.0
Fe245 Fe 0.89818 0.05802 0.5627 0.0
O246 O 0.87211 0.07193 0.60314 0.0
O247 O 0.91683 0.061 0.64526 0.0
O248 O 0.94594 0.12202 0.63855 0.0
C249 C 0.95384 0.15327 0.62549 0.0
C250 C 0.94988 1.0054 0.59998 0.0
O251 O 0.96433 0.15602 0.59157 0.0
C252 C 0.92843 0.06797 0.49541 0.0
O253 O 1.00691 0.09576 0.60466 0.0
O254 O 0.99569 0.10745 0.54458 0.0
O255 O 0.91707 0.01427 0.58695 0.0
O256 O 0.97354 0.03102 0.60687 0.0
C257 C 0.87573 0.13216 0.53995 0.0
O258 O 0.93583 0.102 0.5047 0.0
O259 O 0.92211 0.04408 0.52072 0.0
C260 C 0.01877 0.10439 0.57177 0.0
O261 O 0.90442 0.14534 0.55595 0.0
O262 O 0.87242 0.09665 0.53596 0.0
C263 C 0.88302 0.07058 0.6372 0.0
Fe264 Fe 0.73032 0.71431 0.63081 0.0
Fe265 Fe 0.72267 0.65002 0.68676 0.0
O266 O 0.70732 0.69346 0.66854 0.0
Fe267 Fe 0.66855 0.71582 0.68801 0.0
O268 O 0.69721 0.75432 0.70293 0.0
O269 O 0.72143 0.76367 0.64751 0.0
O270 O 0.77391 0.71604 0.65754 0.0
C271 C 0.79064 0.68722 0.66934 0.0
C272 C 0.66035 0.73289 0.60908 0.0
O273 O 0.77255 0.65719 0.67514 0.0
C274 C 0.64388 0.64508 0.68711 0.0
O275 O 0.7413 0.66823 0.60767 0.0
O276 O 0.71214 0.62745 0.64276 0.0
O277 O 0.65277 0.74 0.64332 0.0
O278 O 0.68857 0.71365 0.60191 0.0
C279 C 0.70639 0.68284 0.75231 0.0
O280 O 0.67569 0.63491 0.70016 0.0
O281 O 0.63865 0.67751 0.67419 0.0
C282 C 0.72437 0.63689 0.61144 0.0
O283 O 0.73267 0.67043 0.73273 0.0
O284 O 0.67709 0.69625 0.73604 0.0
C285 C 0.71178 0.77603 0.67984 0.0
Fe286 Fe 0.71043 0.36124 0.80471 0.0
Fe287 Fe 0.71952 0.304 0.86741 0.0
O288 O 0.69444 0.32107 0.82774 0.0
Fe289 Fe 0.65385 0.2979 0.81086 0.0
O290 O 0.62562 0.33897 0.81796 0.0
O291 O 0.66262 0.37665 0.78751 0.0
O292 O 0.70333 0.38899 0.84594 0.0
C293 C 0.72284 0.38436 0.87561 0.0
C294 C 0.69132 0.32084 0.74409 0.0
O295 O 0.73602 0.35184 0.88357 0.0
C296 C 0.69359 0.23666 0.82895 0.0
O297 O 0.76116 0.35333 0.8177 0.0
O298 O 0.76029 0.29615 0.83982 0.0
O299 O 0.66156 0.31005 0.76008 0.0
O300 O 0.71809 0.33469 0.76305 0.0
C301 C 0.6503 0.29347 0.89218 0.0
O302 O 0.70631 0.25327 0.85874 0.0
O303 O 0.67991 0.25579 0.80234 0.0
C304 C 0.77854 0.32356 0.82774 0.0
O305 O 0.68025 0.31152 0.89639 0.0
O306 O 0.63969 0.28211 0.85923 0.0
C307 C 0.63001 0.36819 0.79877 0.0
Fe308 Fe 0.61853 0.05068 0.45011 0.0
Fe309 Fe 0.55879 0.08181 0.39442 0.0
O310 O 0.58295 0.08379 0.43875 0.0
Fe311 Fe 0.5725 0.11993 0.47112 0.0
O312 O 0.61948 0.1373 0.46978 0.0
O313 O 0.64779 0.08354 0.47964 0.0
O314 O 0.64543 0.06513 0.41029 0.0
C315 C 0.6344 0.0662 0.37616 0.0
C316 C 0.59019 0.05675 0.51913 0.0
O317 O 0.59953 0.06377 0.3678 0.0
C318 C 0.50176 0.10354 0.44659 0.0
O319 O 0.59538 0.01152 0.4232 0.0
O320 O 0.54136 0.03518 0.40375 0.0
O321 O 0.58387 0.09143 0.51356 0.0
O322 O 0.59429 0.03499 0.49134 0.0
C323 C 0.5722 0.1573 0.40127 0.0
O324 O 0.5136 0.10039 0.41296 0.0
O325 O 0.52469 0.1045 0.47426 0.0
C326 C 0.56165 1.00703 0.4111 0.0
O327 O 0.57555 0.12775 0.38221 0.0
O328 O 0.56052 0.15573 0.43475 0.0
C329 C 0.64679 0.11903 0.48311 0.0
Fe330 Fe 0.30202 0.1564 0.78931 0.0
Fe331 Fe 0.36606 0.21283 0.78642 0.0
O332 O 0.32687 0.19463 0.80927 0.0
Fe333 Fe 0.31354 0.21441 0.85248 0.0
O334 O 0.26816 0.22665 0.83347 0.0
O335 O 0.25602 0.17161 0.80775 0.0
O336 O 0.29137 0.18226 0.74658 0.0
C337 C 0.31707 0.19262 0.72527 0.0
C338 C 0.30579 0.13686 0.86335 0.0
O339 O 0.34941 0.19978 0.73881 0.0
C340 C 0.38863 0.21509 0.86254 0.0
O341 O 0.34418 0.1342 0.76934 0.0
O342 O 0.39023 0.16943 0.79239 0.0
O343 O 0.2964 0.1699 0.87243 0.0
O344 O 0.31215 0.1283 0.82984 0.0
C345 C 0.33581 0.27707 0.8082 0.0
O346 O 0.39099 0.22876 0.82985 0.0
O347 O 0.35808 0.20276 0.87394 0.0
C348 C 0.37803 0.13825 0.78082 0.0
O349 O 0.34282 0.25678 0.78021 0.0
O350 O 0.32908 0.26226 0.83999 0.0
C351 C 0.24486 0.20256 0.82181 0.0
C352 C 0.98288 0.27632 0.02192 0.0
C353 C 0.08464 0.28026 0.97794 0.0
C354 C 0.02146 0.35866 0.8619 0.0
Mg355 Mg 0.02201 0.23127 0.95857 0.0
O356 O 0.99671 0.26547 0.92813 0.0
Mg357 Mg 1.00472 0.31998 0.9421 0.0
Mg358 Mg 1.01098 0.26655 0.87379 0.0
O359 O 0.02255 0.26935 0.82037 0.0
Mg360 Mg 0.99738 0.30669 0.79095 0.0
Mg361 Mg 0.013 0.21624 0.80576 0.0
C362 C 0.99936 0.1758 0.89133 0.0
C363 C 0.08855 0.22062 0.85609 0.0
O364 O 0.98119 0.30511 1.00013 0.0
O365 O 0.99693 0.24491 0.01165 0.0
O366 O 0.06213 0.30813 0.97458 0.0
O367 O 0.07797 0.24979 0.96031 0.0
O368 O 1.00975 0.1816 0.92584 0.0
O369 O 0.99358 0.20324 0.86772 0.0
C370 C 0.933 0.31313 0.88159 0.0
O371 O 0.9517 0.28897 0.86306 0.0
O372 O 0.94611 0.32816 0.91231 0.0
O373 O 0.03711 0.23684 0.74584 0.0
O374 O 0.0363 0.30026 0.74861 0.0
O375 O 0.9533 0.23297 0.78912 0.0
C376 C 0.04565 0.26951 0.73267 0.0
O377 O 0.95062 0.28378 0.75563 0.0
O378 O 1.00739 0.35631 0.82796 0.0
C379 C 0.94504 0.24851 0.75782 0.0
O380 O 0.02826 0.32906 0.88189 0.0
O381 O 0.07289 0.24385 0.87899 0.0
O382 O 0.07082 0.20606 0.82778 0.0
C383 C 0.47648 0.76967 0.52111 0.0
C384 C 0.57815 0.78179 0.47663 0.0
C385 C 0.51175 0.85671 0.36311 0.0
Mg386 Mg 0.51826 0.72873 0.45718 0.0
O387 O 0.49043 0.76203 0.42803 0.0
Mg388 Mg 0.49554 0.8168 0.44213 0.0
Mg389 Mg 0.50383 0.76393 0.37384 0.0
O390 O 0.51404 0.76752 0.32027 0.0
Mg391 Mg 0.48701 0.80522 0.29258 0.0
Mg392 Mg 0.50451 0.71422 0.30543 0.0
C393 C 0.49557 0.67335 0.3901 0.0
C394 C 0.58119 0.71941 0.35432 0.0
O395 O 0.47302 0.79906 0.50013 0.0
O396 O 0.49264 0.73961 0.51018 0.0
O397 O 0.55361 0.80788 0.47359 0.0
O398 O 0.57319 0.75038 0.46011 0.0
O399 O 0.5077 0.67895 0.42409 0.0
O400 O 0.48713 0.70081 0.36744 0.0
C401 C 0.42424 0.80722 0.38147 0.0
O402 O 0.44467 0.78375 0.36424 0.0
O403 O 0.43628 0.82397 0.41173 0.0
O404 O 0.52827 0.73502 0.24667 0.0
O405 O 0.52469 0.79843 0.24936 0.0
O406 O 0.4448 0.73229 0.29013 0.0
C407 C 0.53571 0.76801 0.2339 0.0
O408 O 0.43853 0.78427 0.25899 0.0
O409 O 0.4973 0.85468 0.32935 0.0
C410 C 0.43534 0.74865 0.25951 0.0
O411 O 0.51944 0.827 0.38248 0.0
O412 O 0.56619 0.74274 0.37755 0.0
O413 O 0.5627 0.7045 0.32665 0.0
C414 C 0.97025 0.74108 0.50067 0.0
C415 C 0.08103 0.75211 0.53004 0.0
C416 C 0.0377 0.66789 0.65437 0.0
Mg417 Mg 0.01289 0.79517 0.55453 0.0
O418 O 1.00444 0.75813 0.58943 0.0
Mg419 Mg 0.01429 0.70417 0.57606 0.0
Mg420 Mg 0.02072 0.75988 0.64333 0.0
O421 O 0.03469 0.75824 0.69672 0.0
Mg422 Mg 0.01442 0.71802 0.72502 0.0
Mg423 Mg 0.01942 0.80967 0.71144 0.0
C424 C 0.99198 0.84903 0.62307 0.0
C425 C 0.09508 0.81139 0.66296 0.0
O426 O 0.98155 0.71366 0.52117 0.0
O427 O 0.97775 0.77534 0.50878 0.0
O428 O 0.06603 0.7216 0.54147 0.0
O429 O 0.06847 0.78453 0.53839 0.0
O430 O 0.99636 0.84316 0.58769 0.0
O431 O 0.99877 0.82274 0.6481 0.0
C432 C 0.94636 0.70691 0.63538 0.0
O433 O 0.96302 0.73367 0.65329 0.0
O434 O 0.9608 0.69108 0.60676 0.0
O435 O 0.04377 0.78965 0.77343 0.0
O436 O 0.0541 0.72724 0.76827 0.0
O437 O 0.96194 0.78501 0.72255 0.0
C438 C 0.05762 0.7583 0.78621 0.0
O439 O 0.96586 0.73548 0.75799 0.0
O440 O 0.02488 0.66936 0.68802 0.0
C441 C 0.95481 0.76924 0.75361 0.0
O442 O 0.04308 0.69806 0.63511 0.0
O443 O 0.07978 0.78776 0.63925 0.0
O444 O 0.07757 0.82412 0.69158 0.0
C445 C 0.01907 0.0542 0.23295 0.0
C446 C 0.98798 0.94364 0.24793 0.0
C447 C 0.8634 0.98503 0.1602 0.0
Mg448 Mg 0.96575 0.01503 0.28658 0.0
O449 O 0.93094 0.02586 0.24896 0.0
Mg450 Mg 0.94301 0.01227 0.19577 0.0
Mg451 Mg 0.87873 0.00744 0.25127 0.0
O452 O 0.82677 0.99151 0.25196 0.0
Mg453 Mg 0.79274 1.00436 0.2129 0.0
Mg454 Mg 0.81336 1.00434 0.30469 0.0
C455 C 0.89902 0.03456 0.33981 0.0
C456 C 0.86969 0.93419 0.30381 0.0
O457 O 0.99771 0.04393 0.20513 0.0
O458 O 1.01157 0.04729 0.26734 0.0
O459 O 0.97836 0.95857 0.21597 0.0
O460 O 0.9793 0.9583 0.27929 0.0
O461 O 0.93408 0.0304 0.33446 0.0
O462 O 0.87396 0.03045 0.31285 0.0
C463 C 0.87976 0.07934 0.19712 0.0
O464 O 0.86384 0.06212 0.22384 0.0
O465 O 0.90968 0.06683 0.18204 0.0
O466 O 0.75435 0.97449 0.28784 0.0
O467 O 0.76058 0.95791 0.22677 0.0
O468 O 0.78926 0.05999 0.285 0.0
C469 C 0.74306 0.95648 0.25773 0.0
O470 O 0.75226 0.046 0.23626 0.0
O471 O 0.82827 0.99354 0.16224 0.0
C472 C 0.7571 0.06176 0.2687 0.0
O473 O 0.88492 0.98386 0.19011 0.0
O474 O 0.89006 0.95057 0.27933 0.0
O475 O 0.84082 0.94961 0.31785 0.0
C476 C 0.29101 0.99965 0.94501 0.0
C477 C 0.24552 0.99933 0.04378 0.0
C478 C 0.17609 0.86232 0.97827 0.0
Mg479 Mg 0.31125 0.95325 0.01171 0.0
O480 O 0.27192 0.92097 0.00537 0.0
Mg481 Mg 0.22759 0.93757 0.97418 0.0
Mg482 Mg 0.26387 0.86745 0.01531 0.0
O483 O 0.25356 0.81451 0.02107 0.0
Mg484 Mg 0.23045 0.78967 0.97967 0.0
Mg485 Mg 0.30286 0.79625 0.04045 0.0
C486 C 0.35631 0.87978 0.03528 0.0
C487 C 0.25737 0.84261 0.10274 0.0
O488 O 0.25756 0.98798 0.94897 0.0
O489 O 0.31899 0.98361 0.9611 0.0
O490 O 0.22022 0.98036 0.0248 0.0
O491 O 0.28052 0.9914 0.04401 0.0
O492 O 0.35388 0.91519 0.02993 0.0
O493 O 0.3274 0.85759 0.03224 0.0
C494 C 0.26661 0.87179 0.92455 0.0
O495 O 0.27814 0.85741 0.95537 0.0
O496 O 0.24485 0.90029 0.92393 0.0
O497 O 0.27017 0.73761 0.04878 0.0
O498 O 0.21583 0.74714 0.01602 0.0
O499 O 0.31878 0.78127 0.9805 0.0
C500 C 0.23603 0.72836 0.03964 0.0
O501 O 0.27113 0.75366 0.95099 0.0
O502 O 0.18202 0.82811 0.9678 0.0
C503 C 0.30583 0.75381 0.96112 0.0
O504 O 0.20132 0.88134 0.99688 0.0
O505 O 0.24908 0.86886 0.07885 0.0
O506 O 0.28003 0.816 0.09502 0.0
C507 C 1.00042 0.54618 0.26951 0.0
C508 C 0.03419 0.4389 0.27929 0.0
C509 C 0.15792 0.498 0.35179 0.0
Mg510 Mg 0.05654 0.49745 0.22548 0.0
O511 O 0.08989 0.52121 0.25872 0.0
Mg512 Mg 0.07893 0.51783 0.31413 0.0
Mg513 Mg 0.14355 0.50614 0.25882 0.0
O514 O 0.19673 0.49397 0.26087 0.0
Mg515 Mg 0.22654 0.51995 0.29798 0.0
Mg516 Mg 0.20864 0.50359 0.20697 0.0
C517 C 0.12257 0.51319 0.16889 0.0
C518 C 0.15946 0.4292 0.21093 0.0
O519 O 0.023 0.54548 0.29844 0.0
O520 O 1.00799 0.53044 0.238 0.0
O521 O 0.04314 0.4623 0.30569 0.0
O522 O 0.0456 0.443 0.24587 0.0
O523 O 0.08875 0.50337 0.17531 0.0
O524 O 0.14628 0.52232 0.19578 0.0
C525 C 0.14054 0.58643 0.30416 0.0
O526 O 0.15559 0.56573 0.27929 0.0
O527 O 0.11157 0.57511 0.32164 0.0
O528 O 0.26902 0.47957 0.22651 0.0
O529 O 0.2674 0.47922 0.29047 0.0
O530 O 0.22578 0.56283 0.22269 0.0
C531 C 0.28258 0.47003 0.25939 0.0
O532 O 0.26256 0.56394 0.27262 0.0
O533 O 0.19139 0.51157 0.3492 0.0
C534 C 0.25784 0.57001 0.23723 0.0
O535 O 0.13766 0.4903 0.32212 0.0
O536 O 0.13787 0.4442 0.23564 0.0
O537 O 0.18688 0.44668 0.19671 0.0
C538 C 0.78321 0.51479 0.06792 0.0
C539 C 0.76287 0.52181 0.95252 0.0
C540 C 0.85052 0.65356 0.97606 0.0
Mg541 Mg 0.72486 0.55834 0.02085 0.0
O542 O 0.76058 0.59403 0.01304 0.0
Mg543 Mg 0.8145 0.58017 0.00934 0.0
Mg544 Mg 0.75847 0.64559 0.99229 0.0
O545 O 0.76137 0.69749 0.97561 0.0
Mg546 Mg 0.80139 0.72363 0.99942 0.0
Mg547 Mg 0.70968 0.71535 0.98385 0.0
C548 C 0.67221 0.6317 0.02751 0.0
C549 C 0.71236 0.65665 0.91307 0.0
O550 O 0.8081 0.53142 0.04907 0.0
O551 O 0.74844 0.52304 0.06456 0.0
O552 O 0.79462 0.53767 0.96101 0.0
O553 O 0.73273 0.52845 0.97011 0.0
O554 O 0.67943 0.59662 0.03145 0.0
O555 O 0.69589 0.65492 0.01227 0.0
C556 C 0.80715 0.64865 0.07012 0.0
O557 O 0.78075 0.6618 0.04931 0.0
O558 O 0.82573 0.61953 0.06054 0.0
O559 O 0.7329 0.77265 0.95497 0.0
O560 O 0.79588 0.76753 0.96242 0.0
O561 O 0.72284 0.74469 0.03977 0.0
C562 C 0.76677 0.78457 0.94981 0.0
O563 O 0.78414 0.7559 0.04829 0.0
O564 O 0.85014 0.68791 0.98732 0.0
C565 C 0.75003 0.76147 0.05691 0.0
O566 O 0.82022 0.63389 0.97355 0.0
O567 O 0.73443 0.63415 0.9315 0.0
O568 O 0.69977 0.68678 0.92784 0.0
C569 C 0.28513 1.0067 0.55949 0.0
C570 C 0.25877 0.0255 0.4463 0.0
C571 C 0.34966 0.15401 0.48036 0.0
Mg572 Mg 0.22578 0.05538 0.51989 0.0
O573 O 0.26192 0.09121 0.51495 0.0
Mg574 Mg 0.31491 0.07707 0.50577 0.0
Mg575 Mg 0.2591 0.1441 0.49817 0.0
O576 O 0.26087 0.19685 0.48479 0.0
Mg577 Mg 0.30152 0.2244 0.50683 0.0
Mg578 Mg 0.21038 0.21297 0.49931 0.0
C579 C 0.17403 0.12672 0.53568 0.0
C580 C 0.20809 0.16177 0.42307 0.0
O581 O 0.30972 0.02465 0.54136 0.0
O582 O 0.25045 0.01554 0.55819 0.0
O583 O 0.29139 0.03951 0.45473 0.0
O584 O 0.22987 0.03123 0.46602 0.0
O585 O 0.18079 0.0914 0.53632 0.0
O586 O 0.19764 0.15076 0.52177 0.0
C587 C 0.31321 0.14021 0.57229 0.0
O588 O 0.28607 0.1559 0.55449 0.0
O589 O 0.32971 0.11096 0.55975 0.0
O590 O 0.23207 0.27321 0.47427 0.0
O591 O 0.29425 0.26557 0.46645 0.0
O592 O 0.23408 0.22824 0.55775 0.0
C593 C 0.26412 0.28442 0.4618 0.0
O594 O 0.28484 0.2614 0.55381 0.0
O595 O 0.34893 0.18723 0.49487 0.0
C596 C 0.25083 0.25924 0.56367 0.0
O597 O 0.31944 0.13453 0.47509 0.0
O598 O 0.23081 0.13802 0.43896 0.0
O599 O 0.19572 0.19073 0.44055 0.0
C600 C 0.5181 0.55981 0.73224 0.0
C601 C 0.49576 0.44774 0.75212 0.0
C602 C 0.36647 0.48818 0.66193 0.0
Mg603 Mg 0.46896 0.52078 0.78822 0.0
O604 O 0.43317 0.52357 0.75029 0.0
Mg605 Mg 0.44571 0.51067 0.69746 0.0
Mg606 Mg 0.38083 0.50649 0.75258 0.0
O607 O 0.32811 0.49233 0.7528 0.0
Mg608 Mg 0.2964 0.51081 0.71435 0.0
Mg609 Mg 0.31472 0.50238 0.80613 0.0
C610 C 0.40026 0.53682 0.84052 0.0
C611 C 0.37149 0.43241 0.80247 0.0
O612 O 0.49967 0.54342 0.7055 0.0
O613 O 0.50946 0.55807 0.76694 0.0
O614 O 0.48192 0.45804 0.71963 0.0
O615 O 0.49034 0.46616 0.78242 0.0
O616 O 0.43551 0.53548 0.83504 0.0
O617 O 0.37551 0.52883 0.81426 0.0
C618 C 0.38366 0.57845 0.6989 0.0
O619 O 0.36763 0.56178 0.72589 0.0
O620 O 0.41286 0.56519 0.68317 0.0
O621 O 0.25596 0.47284 0.78687 0.0
O622 O 0.25968 0.46673 0.72341 0.0
O623 O 0.2888 0.55942 0.79429 0.0
C624 C 0.24385 0.45963 0.75454 0.0
O625 O 0.25882 0.55419 0.73876 0.0
O626 O 0.3327 0.50119 0.66401 0.0
C627 C 0.26103 0.56756 0.77252 0.0
O628 O 0.38706 0.48283 0.69194 0.0
O629 O 0.39219 0.44948 0.77897 0.0
O630 O 0.34217 0.44717 0.81605 0.0
C631 C 0.77291 0.51091 0.45744 0.0
C632 C 0.72083 0.48778 0.55117 0.0
C633 C 0.67084 0.36121 0.4729 0.0
Mg634 Mg 0.79096 0.45914 0.52669 0.0
O635 O 0.76704 0.42359 0.49675 0.0
Mg636 Mg 0.71846 0.4365 0.46964 0.0
Mg637 Mg 0.75705 0.37057 0.51208 0.0
O638 O 0.74663 0.31761 0.52011 0.0
Mg639 Mg 0.72763 0.29133 0.47635 0.0
Mg640 Mg 0.7968 0.30245 0.54 0.0
C641 C 0.84573 0.38919 0.53964 0.0
C642 C 0.74838 0.34848 0.5997 0.0
O643 O 0.74671 0.48842 0.44669 0.0
O644 O 0.79333 0.5056 0.48727 0.0
O645 O 0.70396 0.47835 0.51991 0.0
O646 O 0.74745 0.4678 0.56465 0.0
O647 O 0.83929 0.42462 0.53934 0.0
O648 O 0.81936 0.36461 0.53281 0.0
C649 C 0.76139 0.37117 0.42145 0.0
O650 O 0.77261 0.35777 0.4529 0.0
O651 O 0.73893 0.39927 0.41966 0.0
O652 O 0.76551 0.24217 0.54681 0.0
O653 O 0.71261 0.24682 0.51058 0.0
O654 O 0.81338 0.29003 0.47974 0.0
C655 C 0.73317 0.2296 0.53508 0.0
O656 O 0.7716 0.25762 0.44837 0.0
O657 O 0.67861 0.32793 0.46078 0.0
C658 C 0.80434 0.25929 0.46385 0.0
O659 O 0.69493 0.38044 0.49261 0.0
O660 O 0.74085 0.37455 0.57529 0.0
O661 O 0.77148 0.32177 0.59346 0.0
C662 C 0.50562 0.0419 0.76862 0.0
C663 C 0.53945 0.93421 0.7735 0.0
C664 C 0.66416 0.99198 0.85205 0.0
Mg665 Mg 0.56311 0.99606 0.72392 0.0
O666 O 0.59622 0.01704 0.75914 0.0
Mg667 Mg 0.5836 0.01123 0.81364 0.0
Mg668 Mg 0.65081 1.00468 0.7593 0.0
O669 O 0.70455 0.9949 0.76102 0.0
Mg670 Mg 0.73335 0.01816 0.79997 0.0
Mg671 Mg 0.7169 0.00748 0.7076 0.0
C672 C 0.62988 0.01605 0.66954 0.0
C673 C 0.67172 0.92977 0.70949 0.0
O674 O 0.52711 0.03888 0.79822 0.0
O675 O 0.51442 0.02856 0.73642 0.0
O676 O 0.54878 0.95547 0.80162 0.0
O677 O 0.55116 0.94056 0.74053 0.0
O678 O 0.59614 1.0056 0.67531 0.0
O679 O 0.65364 0.02383 0.69685 0.0
C680 C 0.64292 0.08228 0.80818 0.0
O681 O 0.66049 0.06404 0.78309 0.0
O682 O 0.61362 0.0687 0.82328 0.0
O683 O 0.77837 0.98637 0.72598 0.0
O684 O 0.77657 0.98024 0.78965 0.0
O685 O 0.7323 0.06744 0.72426 0.0
C686 C 0.7925 0.9751 0.75802 0.0
O687 O 0.766 0.0655 0.77718 0.0
O688 O 0.69756 1.00599 0.85019 0.0
C689 C 0.76184 0.0767 0.74299 0.0
O690 O 0.64403 0.98568 0.82187 0.0
O691 O 0.64876 0.94325 0.73384 0.0
O692 O 0.69812 0.94918 0.69573 0.0
C693 C 0.47714 0.24385 0.99606 0.0
C694 C 0.58465 0.2526 0.03312 0.0
C695 C 0.53536 0.16661 0.15198 0.0
Mg696 Mg 0.51701 0.29618 0.05431 0.0
O697 O 0.50428 0.2592 0.08801 0.0
Mg698 Mg 0.51387 0.20525 0.0743 0.0
Mg699 Mg 0.52116 0.25949 0.14201 0.0
O700 O 0.53492 0.25665 0.19548 0.0
Mg701 Mg 0.51153 0.21684 0.22229 0.0
Mg702 Mg 0.52141 0.30857 0.21077 0.0
C703 C 0.4961 0.35001 0.12282 0.0
C704 C 0.59674 0.30915 0.16197 0.0
O705 O 0.48446 0.21647 0.01825 0.0
O706 O 0.48586 0.2778 0.00453 0.0
O707 O 0.56754 0.22216 0.04162 0.0
O708 O 0.57383 0.28468 0.04452 0.0
O709 O 0.50109 0.34441 0.08748 0.0
O710 O 0.50082 0.32299 0.14755 0.0
C711 C 0.44533 0.20886 0.13366 0.0
O712 O 0.46338 0.23446 0.15188 0.0
O713 O 0.45814 0.19352 0.10384 0.0
O714 O 0.54577 0.28674 0.27242 0.0
O715 O 0.54969 0.22356 0.2672 0.0
O716 O 0.46279 0.28662 0.22188 0.0
C717 C 0.5563 0.25415 0.28519 0.0
O718 O 0.46314 0.2354 0.2549 0.0
O719 O 0.52171 0.16787 0.1853 0.0
C720 C 0.45458 0.27 0.25217 0.0
O721 O 0.54174 0.19699 0.13335 0.0
O722 O 0.58101 0.28605 0.13799 0.0
O723 O 0.57964 0.32163 0.1909 0.0
C724 C 0.09711 0.32912 0.67164 0.0
C725 C 0.07219 0.32982 0.64016 0.0
C726 C 0.09461 0.30125 0.69911 0.0
C727 C 0.06556 0.2746 0.69712 0.0
H728 H 0.11621 0.35222 0.67703 0.0
H729 H 0.11104 0.30475 0.72513 0.0
S730 S 1.00498 0.25525 0.61259 0.0
N731 N 0.02695 0.29444 0.60215 0.0
N732 N 0.02047 0.24307 0.65532 0.0
C733 C 0.04567 0.27079 0.66245 0.0
C734 C 0.04907 0.29861 0.63369 0.0
C735 C 0.65479 0.74512 0.53974 0.0
C736 C 0.64097 0.75138 0.57629 0.0
C737 C 0.63675 0.75949 0.50744 0.0
C738 C 0.60402 0.78089 0.50996 0.0
H739 H 0.67914 0.72763 0.53557 0.0
H740 H 0.64699 0.75146 0.48002 0.0
S741 S 0.55888 0.81021 0.59871 0.0
N742 N 0.59479 0.78426 0.61315 0.0
N743 N 0.56036 0.81112 0.5521 0.0
C744 C 0.59143 0.79009 0.54633 0.0
C745 C 0.6099 0.77525 0.57952 0.0
C746 C 0.93599 0.2154 0.6545 0.0
C747 C 0.95816 0.18271 0.65477 0.0
C748 C 0.93252 0.23738 0.68764 0.0
C749 C 0.94821 0.22543 0.72267 0.0
H750 H 0.92077 0.22355 0.62893 0.0
H751 H 0.91621 0.26298 0.68618 0.0
S752 S 1.00508 0.13885 0.73829 0.0
N753 N 0.99711 0.14039 0.6923 0.0
N754 N 0.98319 0.17567 0.75512 0.0
C755 C 0.96865 0.19153 0.7231 0.0
C756 C 0.9756 0.17188 0.68909 0.0
C757 C 0.44206 0.80998 0.61226 0.0
C758 C 0.42807 0.77832 0.63066 0.0
C759 C 0.45898 0.80661 0.57743 0.0
C760 C 0.46277 0.7714 0.55998 0.0
H761 H 0.43674 0.83788 0.62322 0.0
H762 H 0.46767 0.83202 0.56339 0.0
S763 S 0.43582 0.67936 0.60012 0.0
N764 N 0.42261 0.71052 0.63173 0.0
N765 N 0.45551 0.70361 0.56625 0.0
C766 C 0.4523 0.73908 0.58004 0.0
C767 C 0.43476 0.74268 0.61557 0.0
C768 C 0.04781 0.72529 0.88259 0.0
C769 C 0.07658 0.69838 0.88313 0.0
C770 C 0.04609 0.753 0.85422 0.0
C771 C 0.07239 0.7538 0.82535 0.0
H772 H 0.02455 0.72242 0.90135 0.0
H773 H 0.02141 0.77021 0.85172 0.0
S774 S 0.15958 0.69775 0.82257 0.0
N775 N 0.13713 0.68083 0.85895 0.0
N776 N 0.13321 0.73221 0.8056 0.0
C777 C 0.10471 0.7317 0.83027 0.0
C778 C 0.10664 0.70367 0.85889 0.0
C779 C 0.92575 0.7511 0.40342 0.0
C780 C 0.90339 0.71878 0.40058 0.0
C781 C 0.94761 0.75805 0.43601 0.0
C782 C 0.94801 0.73261 0.4663 0.0
H783 H 0.92507 0.77189 0.38114 0.0
H784 H 0.96399 0.78365 0.43759 0.0
S785 S 0.89646 0.64218 0.47052 0.0
N786 N 0.88441 0.66003 0.42898 0.0
N787 N 0.92571 0.67279 0.49038 0.0
C788 C 0.92693 0.69933 0.46292 0.0
C789 C 0.90452 0.69249 0.42993 0.0
C790 C 0.96076 0.85801 0.81157 0.0
C791 C 0.96058 0.84601 0.84948 0.0
C792 C 0.9564 0.83312 0.78154 0.0
C793 C 0.9524 0.79433 0.78728 0.0
H794 H 0.96455 0.88728 0.80442 0.0
H795 H 0.95758 0.84476 0.75336 0.0
S796 S 0.94425 0.74809 0.88062 0.0
N797 N 0.95152 0.79282 0.89122 0.0
N798 N 0.94422 0.74518 0.83397 0.0
C799 C 0.95005 0.78167 0.82489 0.0
C800 C 0.95411 0.80759 0.85607 0.0
C801 C 0.09669 0.75769 0.42639 0.0
C802 C 0.13167 0.77559 0.42556 0.0
C803 C 0.0822 0.74564 0.46081 0.0
C804 C 0.10229 0.75099 0.49532 0.0
H805 H 0.07958 0.75486 0.40077 0.0
H806 H 0.0538 0.73484 0.46079 0.0
S807 S 0.19773 0.78955 0.50816 0.0
N808 N 0.18858 0.79235 0.46227 0.0
N809 N 0.15995 0.77106 0.52641 0.0
C810 C 0.13823 0.76601 0.49463 0.0
C811 C 0.1533 0.77791 0.45984 0.0
C812 C 0.70187 0.06823 0.35878 0.0
C813 C 0.66393 0.068 0.34666 0.0
C814 C 0.73107 0.06862 0.33327 0.0
C815 C 0.72438 0.06842 0.29379 0.0
H816 H 0.70956 0.06745 0.38861 0.0
H817 H 0.75935 0.06756 0.3451 0.0
S818 S 0.63038 0.07426 0.24651 0.0
N819 N 0.62124 0.07226 0.292 0.0
N820 N 0.67649 0.07245 0.24374 0.0
C821 C 0.68665 0.0704 0.28094 0.0
C822 C 0.65647 0.0702 0.30729 0.0
C823 C 0.27216 0.09763 0.90886 0.0
C824 C 0.30506 0.10585 0.88999 0.0
C825 C 0.26788 0.06288 0.92646 0.0
C826 C 0.29654 0.03566 0.92593 0.0
H827 H 0.24891 0.11718 0.90818 0.0
H828 H 0.2418 0.05722 0.94031 0.0
S829 S 0.3892 0.04568 0.88242 0.0
N830 N 0.3674 0.0856 0.87319 0.0
N831 N 0.35972 0.02043 0.90697 0.0
C832 C 0.33028 0.04451 0.9087 0.0
C833 C 0.33443 0.07964 0.89052 0.0
C834 C 0.34495 0.42616 0.32338 0.0
C835 C 0.37391 0.45282 0.32342 0.0
C836 C 0.31898 0.42366 0.29326 0.0
C837 C 0.31876 0.45082 0.26453 0.0
H838 H 0.34052 0.4092 0.34805 0.0
H839 H 0.29465 0.40589 0.29676 0.0
S840 S 0.39836 0.51305 0.24304 0.0
N841 N 0.40931 0.49591 0.28519 0.0
N842 N 0.3574 0.49448 0.23028 0.0
C843 C 0.35158 0.472 0.26038 0.0
C844 C 0.37951 0.47297 0.29012 0.0
C845 C 0.71754 0.45322 0.88613 0.0
C846 C 0.73616 0.41926 0.89488 0.0
C847 C 0.72941 0.48742 0.90163 0.0
C848 C 0.76048 0.48945 0.92663 0.0
H849 H 0.69282 0.45348 0.86766 0.0
H850 H 0.71275 0.51226 0.89573 0.0
S851 S 0.82049 0.40979 0.95779 0.0
N852 N 0.78875 0.39041 0.92895 0.0
N853 N 0.8106 0.45509 0.95892 0.0
C854 C 0.78042 0.45623 0.9347 0.0
C855 C 0.76826 0.42104 0.91884 0.0
C856 C 0.64846 0.97108 0.22272 0.0
C857 C 0.64887 0.94439 0.19341 0.0
C858 C 0.67587 0.97012 0.25218 0.0
C859 C 0.70431 0.94272 0.25255 0.0
H860 H 0.62957 0.99476 0.22075 0.0
H861 H 0.67816 0.99388 0.27117 0.0
S862 S 0.70875 0.85958 0.19005 0.0
N863 N 0.67395 0.88491 0.172 0.0
N864 N 0.72373 0.88235 0.22828 0.0
C865 C 0.69954 0.91181 0.22817 0.0
C866 C 0.67282 0.91335 0.19761 0.0
C867 C 0.2598 0.1001 0.07463 0.0
C868 C 0.22863 0.10698 0.09654 0.0
C869 C 0.26382 0.06545 0.05653 0.0
C870 C 0.23683 0.03654 0.05972 0.0
H871 H 0.28239 0.12038 0.07367 0.0
H872 H 0.2891 0.06083 0.04092 0.0
S873 S 0.14692 0.04372 0.10846 0.0
N874 N 0.16772 0.08456 0.11636 0.0
N875 N 0.1757 0.01922 0.0822 0.0
C876 C 0.20395 0.04441 0.07863 0.0
C877 C 0.19981 0.07972 0.09714 0.0
C878 C 0.3574 0.58163 0.19892 0.0
C879 C 0.35448 0.56382 0.16329 0.0
C880 C 0.32639 0.58338 0.22311 0.0
C881 C 0.29089 0.569 0.21176 0.0
H882 H 0.38363 0.59454 0.208 0.0
H883 H 0.33004 0.59671 0.25051 0.0
S884 S 0.26847 0.52094 0.12009 0.0
N885 N 0.31345 0.53085 0.11842 0.0
N886 N 0.25518 0.53755 0.16107 0.0
C887 C 0.28775 0.55211 0.17559 0.0
C888 C 0.31942 0.54875 0.15213 0.0
C889 C 0.78221 0.4188 0.11176 0.0
C890 C 0.81933 0.41475 0.1254 0.0
C891 C 0.7702 0.45215 0.09486 0.0
C892 C 0.79511 0.48225 0.09057 0.0
H893 H 0.7621 0.39628 0.1148 0.0
H894 H 0.74153 0.45391 0.08415 0.0
S895 S 0.89535 0.48503 0.12172 0.0
N896 N 0.88073 0.44303 0.13428 0.0
N897 N 0.85867 0.50589 0.10158 0.0
C898 C 0.83237 0.47848 0.1043 0.0
C899 C 0.84436 0.44464 0.12199 0.0
C900 C 0.3249 0.65242 0.988 0.0
C901 C 0.36002 0.65638 0.00655 0.0
C902 C 0.30772 0.68312 0.96913 0.0
C903 C 0.32662 0.71776 0.96586 0.0
H904 H 0.30993 0.62635 0.98972 0.0
H905 H 0.27875 0.68046 0.95959 0.0
S906 S 0.4262 0.73576 0.99281 0.0
N907 N 0.41751 0.69358 0.00948 0.0
N908 N 0.38684 0.74933 0.97156 0.0
C909 C 0.36464 0.71891 0.97719 0.0
C910 C 0.38114 0.68869 0.99795 0.0
C911 C 0.30373 0.37831 0.47298 0.0
C912 C 0.33015 0.37653 0.44424 0.0
C913 C 0.27457 0.35162 0.4746 0.0
C914 C 0.27095 0.32263 0.44751 0.0
H915 H 0.30765 0.398 0.49616 0.0
H916 H 0.25805 0.35074 0.49966 0.0
S917 S 0.32602 0.31307 0.36096 0.0
N918 N 0.34633 0.34804 0.38446 0.0
N919 N 0.29034 0.29994 0.3865 0.0
C920 C 0.2932 0.32501 0.41549 0.0
C921 C 0.3236 0.35096 0.41447 0.0
C922 C 0.56073 0.37938 0.80011 0.0
C923 C 0.59537 0.38697 0.78342 0.0
C924 C 0.52725 0.39573 0.78662 0.0
C925 C 0.52658 0.42005 0.75544 0.0
H926 H 0.55949 0.36151 0.82474 0.0
H927 H 0.50196 0.3911 0.80219 0.0
S928 S 0.60851 0.44711 0.69932 0.0
N929 N 0.62619 0.41882 0.73212 0.0
N930 N 0.56313 0.44962 0.70694 0.0
C931 C 0.56049 0.42639 0.73711 0.0
C932 C 0.59487 0.41002 0.75112 0.0
C933 C 0.65549 0.1681 0.53251 0.0
C934 C 0.671 0.13882 0.5112 0.0
C935 C 0.67846 0.19401 0.5517 0.0
C936 C 0.71748 0.19334 0.5472 0.0
H937 H 0.62549 0.17277 0.53204 0.0
H938 H 0.6653 0.21871 0.56342 0.0
S939 S 0.76983 0.10945 0.51646 0.0
N940 N 0.72612 0.10047 0.50304 0.0
N941 N 0.76988 0.15162 0.53632 0.0
C942 C 0.73288 0.15962 0.53389 0.0
C943 C 0.70933 0.13198 0.51587 0.0
C944 C 0.92454 0.60414 0.31258 0.0
C945 C 0.8982 0.6082 0.28276 0.0
C946 C 0.95685 0.58314 0.30812 0.0
C947 C 0.96416 0.56537 0.27356 0.0
H948 H 0.92104 0.61892 0.3391 0.0
H949 H 0.97677 0.5821 0.33175 0.0
S950 S 0.90044 0.56289 0.18867 0.0
N951 N 0.87867 0.5898 0.21913 0.0
N952 N 0.93978 0.54952 0.21031 0.0
C953 C 0.93649 0.56688 0.2443 0.0
C954 C 0.90328 0.58841 0.24906 0.0
C955 C 0.16652 0.32141 0.5449 0.0
C956 C 0.17831 0.35792 0.55519 0.0
C957 C 0.1899 0.29042 0.54897 0.0
C958 C 0.22718 0.29386 0.56236 0.0
H959 H 0.13829 0.31611 0.53416 0.0
H960 H 0.17828 0.26341 0.54079 0.0
S961 S 0.27358 0.38305 0.59177 0.0
N962 N 0.2305 0.39588 0.5792 0.0
N963 N 0.27558 0.33711 0.58518 0.0
C964 C 0.24017 0.3302 0.572 0.0
C965 C 0.21565 0.36225 0.56858 0.0
C966 C 0.60883 0.58567 0.68909 0.0
C967 C 0.61132 0.62394 0.69787 0.0
C968 C 0.57818 0.56481 0.70054 0.0
C969 C 0.55031 0.58164 0.72206 0.0
H970 H 0.6304 0.57205 0.67301 0.0
H971 H 0.57635 0.53537 0.69287 0.0
S972 S 0.54505 0.68059 0.75323 0.0
N973 N 0.58403 0.67793 0.7293 0.0
N974 N 0.52687 0.63794 0.75209 0.0
C975 C 0.55288 0.61962 0.73163 0.0
C976 C 0.58343 0.64108 0.71914 0.0
C977 C 0.46947 0.85942 0.74563 0.0
C978 C 0.4346 0.87587 0.75423 0.0
C979 C 0.50367 0.87677 0.7553 0.0
C980 C 0.50493 0.91106 0.77479 0.0
H981 H 0.47059 0.83335 0.72986 0.0
H982 H 0.52935 0.86409 0.74579 0.0
S983 S 0.42253 0.9658 0.80558 0.0
N984 N 0.40397 0.92834 0.78465 0.0
N985 N 0.46842 0.96083 0.80325 0.0
C986 C 0.47055 0.92726 0.7851 0.0
C987 C 0.43543 0.9098 0.77466 0.0
C988 C 0.5908 0.8295 0.17985 0.0
C989 C 0.56959 0.82964 0.14582 0.0
C990 C 0.58676 0.80087 0.20607 0.0
C991 C 0.55857 0.7737 0.20075 0.0
H992 H 0.60892 0.85287 0.18738 0.0
H993 H 0.60073 0.80413 0.23351 0.0
S994 S 0.50575 0.75443 0.11134 0.0
N995 N 0.52839 0.7939 0.1033 0.0
N996 N 0.51753 0.74204 0.15508 0.0
C997 C 0.54183 0.76998 0.16461 0.0
C998 C 0.54755 0.79809 0.13673 0.0
C999 C 0.15258 0.23406 0.04503 0.0
C1000 C 0.13925 0.24388 0.08096 0.0
C1001 C 0.13779 0.24992 0.01184 0.0
C1002 C 0.10856 0.27617 0.01263 0.0
H1003 H 0.17425 0.21306 0.04214 0.0
H1004 H 0.14768 0.23961 0.98505 0.0
S1005 S 0.06635 0.31527 0.09919 0.0
N1006 N 0.09755 0.28469 0.1154 0.0
N1007 N 0.06882 0.31403 0.05265 0.0
C1008 C 0.09636 0.28819 0.04834 0.0
C1009 C 0.11168 0.27198 0.08249 0.0
C1010 C 0.46692 0.67212 0.19349 0.0
C1011 C 0.45204 0.68224 0.15775 0.0
C1012 C 0.46021 0.69324 0.2256 0.0
C1013 C 0.44033 0.72724 0.22373 0.0
H1014 H 0.48272 0.64634 0.19717 0.0
H1015 H 0.47125 0.68251 0.25221 0.0
S1016 S 0.39613 0.76766 0.13679 0.0
N1017 N 0.4154 0.72819 0.12212 0.0
N1018 N 0.40619 0.7708 0.18262 0.0
C1019 C 0.42641 0.73891 0.18792 0.0
C1020 C 0.43163 0.71592 0.15495 0.0
C1021 C 0.93779 0.25079 0.11401 0.0
C1022 C 0.93168 0.28615 0.13027 0.0
C1023 C 0.95625 0.24756 0.07971 0.0
C1024 C 0.96848 0.27969 0.06049 0.0
H1025 H 0.92529 0.22594 0.12581 0.0
H1026 H 0.9586 0.22 0.06698 0.0
S1027 S 0.96474 0.37794 0.09559 0.0
N1028 N 0.94355 0.35309 0.12797 0.0
N1029 N 0.978 0.3474 0.0634 0.0
C1030 C 0.96538 0.31483 0.0784 0.0
C1031 C 0.94711 0.31792 0.11343 0.0
C1032 C 0.60457 0.19416 0.35252 0.0
C1033 C 0.57815 0.19329 0.38127 0.0
C1034 C 0.60308 0.22179 0.32451 0.0
C1035 C 0.57391 0.24838 0.32312 0.0
H1036 H 0.62437 0.17135 0.34958 0.0
H1037 H 0.62089 0.21833 0.30042 0.0
S1038 S 0.50947 0.26783 0.401 0.0
N1039 N 0.53094 0.22875 0.41399 0.0
N1040 N 0.5267 0.27978 0.35983 0.0
C1041 C 0.55226 0.25209 0.35553 0.0
C1042 C 0.55445 0.2244 0.38485 0.0
C1043 C 0.43039 0.25728 0.89974 0.0
C1044 C 0.41819 0.22082 0.89093 0.0
C1045 C 0.45044 0.26448 0.9335 0.0
C1046 C 0.45882 0.23532 0.95916 0.0
H1047 H 0.42221 0.28064 0.88179 0.0
H1048 H 0.45813 0.29323 0.94008 0.0
S1049 S 0.43709 0.1339 0.94484 0.0
N1050 N 0.41849 0.15494 0.90738 0.0
N1051 N 0.45688 0.16762 0.97053 0.0
C1052 C 0.44894 0.1982 0.94884 0.0
C1053 C 0.4284 0.19117 0.91472 0.0
C1054 C 0.47478 0.35171 0.31767 0.0
C1055 C 0.4575 0.34221 0.35152 0.0
C1056 C 0.47276 0.32843 0.28621 0.0
C1057 C 0.45488 0.2933 0.28712 0.0
H1058 H 0.48921 0.3783 0.31486 0.0
H1059 H 0.48578 0.33844 0.26093 0.0
S1060 S 0.40726 0.25323 0.36965 0.0
N1061 N 0.42188 0.29495 0.38458 0.0
N1062 N 0.42096 0.24896 0.32558 0.0
C1063 C 0.43873 0.2823 0.32125 0.0
C1064 C 0.43941 0.30717 0.35339 0.0
C1065 C 0.6499 0.29148 0.96273 0.0
C1066 C 0.63371 0.27953 0.92772 0.0
C1067 C 0.63662 0.279 0.99723 0.0
C1068 C 0.60669 0.25373 0.99857 0.0
H1069 H 0.6727 0.31157 0.96384 0.0
H1070 H 0.64847 0.29094 0.02314 0.0
S1071 S 0.55439 0.21282 0.91601 0.0
N1072 N 0.58627 0.24003 0.89711 0.0
N1073 N 0.56131 0.21632 0.96222 0.0
C1074 C 0.59102 0.24019 0.96408 0.0
C1075 C 0.60437 0.25328 0.92866 0.0
C1076 C 0.16158 0.56617 0.80811 0.0
C1077 C 0.16664 0.58074 0.84506 0.0
C1078 C 0.19106 0.56645 0.78212 0.0
C1079 C 0.22676 0.58109 0.79212 0.0
H1080 H 0.13551 0.55242 0.79994 0.0
H1081 H 0.18671 0.55241 0.75517 0.0
S1082 S 0.25118 0.63164 0.88148 0.0
N1083 N 0.20786 0.61696 0.88721 0.0
N1084 N 0.26262 0.61722 0.83895 0.0
C1085 C 0.23048 0.59962 0.8273 0.0
C1086 C 0.20075 0.5993 0.85364 0.0
C1087 C 0.77889 0.57156 0.37147 0.0
C1088 C 0.78397 0.6079 0.38657 0.0
C1089 C 0.7761 0.54042 0.39482 0.0
C1090 C 0.77878 0.54422 0.4342 0.0
H1091 H 0.77692 0.56696 0.34119 0.0
H1092 H 0.7719 0.51305 0.38188 0.0
S1093 S 0.79005 0.6329 0.48832 0.0
N1094 N 0.79021 0.64603 0.44359 0.0
N1095 N 0.78527 0.58678 0.48779 0.0
C1096 C 0.78363 0.5802 0.44997 0.0
C1097 C 0.78598 0.61225 0.42605 0.0
C1098 C 0.88722 0.98279 0.79237 0.0
C1099 C 0.88434 0.95619 0.82132 0.0
C1100 C 0.86057 0.9833 0.76231 0.0
C1101 C 0.83003 0.9584 0.76154 0.0
H1102 H 0.90762 1.00527 0.79479 0.0
H1103 H 0.86094 1.00612 0.74267 0.0
S1104 S 0.81913 0.87524 0.8214 0.0
N1105 N 0.8555 0.89776 0.84055 0.0
N1106 N 0.80616 0.89943 0.78372 0.0
C1107 C 0.83237 0.92709 0.78503 0.0
C1108 C 0.85872 0.92654 0.81591 0.0
C1109 C 0.26048 0.9263 0.41157 0.0
C1110 C 0.22643 0.92418 0.39058 0.0
C1111 C 0.27413 0.96091 0.42559 0.0
C1112 C 0.25423 0.9945 0.419 0.0
H1113 H 0.27642 0.90108 0.41768 0.0
H1114 H 0.29888 0.96095 0.44403 0.0
S1115 S 0.16504 1.00492 0.36418 0.0
N1116 N 0.17405 0.95954 0.3628 0.0
N1117 N 0.20023 0.02391 0.38868 0.0
C1118 C 0.22135 0.99298 0.39651 0.0
C1119 C 0.2072 0.95804 0.38265 0.0
C1120 C 0.14806 0.46708 0.7214 0.0
C1121 C 0.15054 0.44258 0.69028 0.0
C1122 C 0.17567 0.46657 0.75069 0.0
C1123 C 0.20663 0.44224 0.74896 0.0
H1124 H 0.12705 0.489 0.72132 0.0
H1125 H 0.17569 0.48877 0.77158 0.0
S1126 S 0.21786 0.3641 0.68105 0.0
N1127 N 0.18059 0.38706 0.66497 0.0
N1128 N 0.23139 0.38588 0.7204 0.0
C1129 C 0.20461 0.41287 0.72239 0.0
C1130 C 0.17736 0.41375 0.69223 0.0
C1131 C 0.6915 0.58861 0.57246 0.0
C1132 C 0.72564 0.60584 0.58389 0.0
C1133 C 0.68996 0.5508 0.56066 0.0
C1134 C 0.7224 0.52852 0.5611 0.0
H1135 H 0.6654 0.60375 0.57532 0.0
H1136 H 0.663 0.53843 0.55324 0.0
S1137 S 0.81937 0.56175 0.58469 0.0
N1138 N 0.79272 0.59877 0.59171 0.0
N1139 N 0.79055 0.52816 0.57007 0.0
C1140 C 0.75705 0.54629 0.57023 0.0
C1141 C 0.75849 0.58482 0.58142 0.0
C1142 C 0.86095 0.07124 0.70534 0.0
C1143 C 0.85461 0.07922 0.66671 0.0
C1144 C 0.83186 0.07456 0.73165 0.0
C1145 C 0.79544 0.08608 0.72026 0.0
H1146 H 0.88793 0.06053 0.71497 0.0
H1147 H 0.83725 0.06552 0.76046 0.0
S1148 S 0.76802 0.12333 0.6258 0.0
N1149 N 0.81146 0.10868 0.62104 0.0
N1150 N 0.75783 0.11459 0.67003 0.0
C1151 C 0.79053 0.09918 0.68305 0.0
C1152 C 0.81975 0.09574 0.65641 0.0
C1153 C 0.28416 0.90956 0.60076 0.0
C1154 C 0.32012 0.90662 0.61768 0.0
C1155 C 0.27276 0.9425 0.58268 0.0
C1156 C 0.2972 0.97324 0.58042 0.0
H1157 H 0.26416 0.88679 0.6027 0.0
H1158 H 0.24476 0.94376 0.57012 0.0
S1159 S 0.39483 0.9787 0.61897 0.0
N1160 N 0.38031 0.9364 0.63063 0.0
N1161 N 0.35929 0.99844 0.59572 0.0
C1162 C 0.33358 0.9703 0.59647 0.0
C1163 C 0.34494 0.93691 0.61537 0.0
C1164 C 0.85132 0.19642 0.53703 0.0
C1165 C 0.85217 0.1607 0.52014 0.0
C1166 C 0.83774 0.22758 0.51764 0.0
C1167 C 0.82071 0.22463 0.48138 0.0
H1168 H 0.86312 0.20089 0.56527 0.0
H1169 H 0.84029 0.25424 0.53208 0.0
S1170 S 0.81729 0.138 0.42291 0.0
N1171 N 0.83851 0.12471 0.46279 0.0
N1172 N 0.80686 0.1829 0.42828 0.0
C1173 C 0.82064 0.189 0.46391 0.0
C1174 C 0.83756 0.15723 0.48282 0.0
C1175 C 0.80407 0.87944 0.95483 0.0
C1176 C 0.83699 0.87284 0.93474 0.0
C1177 C 0.77427 0.85325 0.95357 0.0
C1178 C 0.77616 0.82033 0.93143 0.0
H1179 H 0.80279 0.9029 0.97431 0.0
H1180 H 0.7521 0.85635 0.97359 0.0
S1181 S 0.85201 0.79423 0.86744 0.0
N1182 N 0.86727 0.8328 0.88881 0.0
N1183 N 0.80938 0.78739 0.88281 0.0
C1184 C 0.80569 0.81751 0.90618 0.0
C1185 C 0.83713 0.8421 0.90958 0.0
C1186 C 0.08737 0.9095 0.2517 0.0
C1187 C 0.08662 0.88241 0.28062 0.0
C1188 C 0.05413 0.92593 0.2371 0.0
C1189 C 0.01885 0.91609 0.25097 0.0
H1190 H 0.11384 0.9189 0.24095 0.0
H1191 H 0.05636 0.94862 0.21698 0.0
S1192 S 1.00049 0.84522 0.32444 0.0
N1193 N 0.04648 0.84506 0.32078 0.0
N1194 N 0.98482 0.87642 0.29351 0.0
C1195 C 0.01749 0.88788 0.27839 0.0
C1196 C 0.05109 0.87106 0.29325 0.0
C1197 C 0.15522 0.676 0.0317 0.0
C1198 C 0.16996 0.64458 0.01295 0.0
C1199 C 0.17804 0.69861 0.05494 0.0
C1200 C 0.21722 0.69451 0.05412 0.0
H1201 H 0.12611 0.68397 0.0276 0.0
H1202 H 0.16607 0.72443 0.06551 0.0
S1203 S 0.26131 0.60196 0.0395 0.0
N1204 N 0.21997 0.59831 0.01756 0.0
N1205 N 0.26459 0.64564 0.0555 0.0
C1206 C 0.2304 0.65873 0.0444 0.0
C1207 C 0.20631 0.63319 0.02396 0.0
C1208 C 0.43234 0.10545 0.80846 0.0
C1209 C 0.40541 0.10794 0.77893 0.0
C1210 C 0.46379 0.08284 0.80527 0.0
C1211 C 0.46984 0.06218 0.77211 0.0
H1212 H 0.42984 0.12239 0.83377 0.0
H1213 H 0.48419 0.08297 0.82851 0.0
S1214 S 0.40504 0.05624 0.68818 0.0
N1215 N 0.38452 0.08593 0.71694 0.0
N1216 N 0.44411 0.04288 0.71036 0.0
C1217 C 0.44184 0.06267 0.74311 0.0
C1218 C 0.40941 0.08566 0.74669 0.0
C1219 C 0.72325 0.8622 0.05713 0.0
C1220 C 0.68847 0.85977 0.0747 0.0
C1221 C 0.74805 0.83121 0.05725 0.0
C1222 C 0.73892 0.79708 0.07517 0.0
H1223 H 0.72974 0.88656 0.04029 0.0
H1224 H 0.77216 0.83242 0.03939 0.0
S1225 S 0.65593 0.77957 0.13238 0.0
N1226 N 0.64972 0.82246 0.11585 0.0
N1227 N 0.69661 0.7656 0.11655 0.0
C1228 C 0.70705 0.79658 0.09714 0.0
C1229 C 0.68159 0.8274 0.09645 0.0
C1230 C 0.09025 0.10841 0.1788 0.0
C1231 C 0.11897 0.11422 0.20591 0.0
C1232 C 0.05824 0.08847 0.18782 0.0
C1233 C 0.05374 0.07419 0.22445 0.0
H1234 H 0.09227 0.11996 0.15063 0.0
H1235 H 0.03656 0.08505 0.16604 0.0
S1236 S 0.12175 0.08227 0.30548 0.0
N1237 N 0.14183 0.10432 0.27048 0.0
N1238 N 0.08136 0.06665 0.28783 0.0
C1239 C 0.08278 0.07934 0.2517 0.0
C1240 C 0.11558 0.09936 0.24229 0.0
C1241 C 0.93149 0.41425 0.27297 0.0
C1242 C 0.93216 0.37606 0.26271 0.0
C1243 C 0.96486 0.43368 0.28273 0.0
C1244 C 1.00009 0.41571 0.28249 0.0
H1245 H 0.90538 0.42971 0.27164 0.0
H1246 H 0.96335 0.46367 0.2877 0.0
S1247 S 0.01759 0.31552 0.26249 0.0
N1248 N 0.97174 0.32021 0.25741 0.0
N1249 N 0.03357 0.3576 0.27405 0.0
C1250 C 1.00104 0.37737 0.27453 0.0
C1251 C 0.96733 0.35734 0.26518 0.0
C1252 C 0.18044 0.1768 0.83142 0.0
C1253 C 0.20517 0.20754 0.83266 0.0
C1254 C 0.1434 0.1804 0.84301 0.0
C1255 C 0.1295 0.2148 0.8565 0.0
H1256 H 0.18955 0.14976 0.82104 0.0
H1257 H 0.1249 0.1564 0.83972 0.0
S1258 S 0.18272 0.30365 0.86708 0.0
N1259 N 0.21311 0.27355 0.85 0.0
N1260 N 0.14346 0.27982 0.87171 0.0
C1261 C 0.15417 0.24533 0.85953 0.0
C1262 C 0.1919 0.24188 0.84745 0.0
C1263 C 0.43922 0.58513 0.39313 0.0
C1264 C 0.46703 0.55795 0.40148 0.0
C1265 C 0.44865 0.62223 0.38345 0.0
C1266 C 0.48624 0.63371 0.38171 0.0
H1267 H 0.40983 0.57809 0.39519 0.0
H1268 H 0.42641 0.64278 0.38045 0.0
S1269 S 0.56979 0.57349 0.39756 0.0
N1270 N 0.53403 0.54508 0.40415 0.0
N1271 N 0.55129 0.61466 0.38677 0.0
C1272 C 0.51416 0.6064 0.38767 0.0
C1273 C 0.50472 0.56868 0.39741 0.0
C1274 C 0.82726 0.31717 0.87892 0.0
C1275 C 0.81829 0.32568 0.84082 0.0
C1276 C 0.86449 0.3155 0.89245 0.0
C1277 C 0.89426 0.32145 0.8682 0.0
H1278 H 0.80521 0.31105 0.89841 0.0
H1279 H 0.87 0.30772 0.92165 0.0
S1280 S 0.88605 0.34845 0.76712 0.0
N1281 N 0.84217 0.3434 0.77996 0.0
N1282 N 0.91252 0.33915 0.80503 0.0
C1283 C 0.88579 0.33143 0.83041 0.0
C1284 C 0.84769 0.33393 0.81682 0.0
C1285 C 0.56694 0.93599 0.4121 0.0
C1286 C 0.54679 0.96852 0.40147 0.0
C1287 C 0.55441 0.89979 0.40137 0.0
C1288 C 0.5215 0.89453 0.37899 0.0
H1289 H 0.59296 0.93846 0.42841 0.0
H1290 H 0.5715 0.87584 0.40938 0.0
S1291 S 0.45631 0.96949 0.3464 0.0
N1292 N 0.49023 0.99219 0.36945 0.0
N1293 N 0.46762 0.92465 0.34889 0.0
C1294 C 0.50042 0.92655 0.36927 0.0
C1295 C 0.51277 0.96331 0.38059 0.0
C1296 C 0.19875 0.79514 0.65113 0.0
C1297 C 0.21561 0.82384 0.67342 0.0
C1298 C 0.15983 0.7931 0.64522 0.0
C1299 C 0.13591 0.81943 0.66164 0.0
H1300 H 0.21565 0.77337 0.63868 0.0
H1301 H 0.1484 0.76943 0.62938 0.0
S1302 S 0.16572 0.90294 0.71821 0.0
N1303 N 0.20529 0.88134 0.7088 0.0
N1304 N 0.13208 0.87748 0.69789 0.0
C1305 C 0.15241 0.8496 0.68206 0.0
C1306 C 0.1922 0.85179 0.68791 0.0
C1307 C 0.03192 0.56182 0.63772 0.0
C1308 C 0.06086 0.5542 0.61246 0.0
C1309 C 0.0242 0.59853 0.65012 0.0
C1310 C 0.04443 0.62981 0.63735 0.0
H1311 H 0.01577 0.53902 0.64924 0.0
H1312 H 1.00231 0.60233 0.67038 0.0
S1313 S 0.12115 0.62607 0.56869 0.0
N1314 N 0.10878 0.58169 0.5737 0.0
N1315 N 0.09362 0.65067 0.59619 0.0
C1316 C 0.07241 0.62292 0.61082 0.0
C1317 C 0.08081 0.58525 0.5987 0.0
C1318 C 0.85768 0.69367 0.69111 0.0
C1319 C 0.83098 0.68571 0.66229 0.0
C1320 C 0.89554 0.69935 0.68258 0.0
C1321 C 0.90765 0.69687 0.64508 0.0
H1322 H 0.84902 0.69708 0.72001 0.0
H1323 H 0.91525 0.70648 0.70527 0.0
S1324 S 0.84787 0.67854 0.55965 0.0
N1325 N 0.8188 0.67719 0.59502 0.0
N1326 N 0.88964 0.6864 0.57914 0.0
C1327 C 0.88117 0.68801 0.61634 0.0
C1328 C 0.84285 0.68289 0.62492 0.0
C1329 C 0.93318 0.93614 0.60917 0.0
C1330 C 0.95978 0.96543 0.61178 0.0
C1331 C 0.94264 0.89858 0.61854 0.0
C1332 C 0.97901 0.88813 0.63153 0.0
H1333 H 0.90508 0.94192 0.59846 0.0
H1334 H 0.92187 0.87693 0.61288 0.0
S1335 S 0.05892 0.95352 0.64588 0.0
N1336 N 0.02427 0.98079 0.6308 0.0
N1337 N 0.04132 0.91071 0.64757 0.0
C1338 C 1.0053 0.91726 0.63605 0.0
C1339 C 0.99591 0.95554 0.62647 0.0
C1340 C 0.87987 0.18369 0.18457 0.0
C1341 C 0.84181 0.19303 0.18765 0.0
C1342 C 0.89168 0.14636 0.18426 0.0
C1343 C 0.86582 0.11711 0.18787 0.0
H1344 H 0.90103 0.20529 0.1839 0.0
H1345 H 0.92145 0.14055 0.18375 0.0
S1346 S 0.7625 0.12678 0.1924 0.0
N1347 N 0.77799 0.17044 0.19086 0.0
N1348 N 0.80002 0.09965 0.19117 0.0
C1349 C 0.8274 0.126 0.1892 0.0
C1350 C 0.81541 0.16417 0.18899 0.0
C1351 C 0.4461 0.89055 0.08606 0.0
C1352 C 0.47058 0.89577 0.05574 0.0
C1353 C 0.40941 0.87678 0.08033 0.0
C1354 C 0.39517 0.86774 0.04401 0.0
H1355 H 0.45461 0.89879 0.11452 0.0
H1356 H 0.39072 0.87738 0.10394 0.0
S1357 S 0.44905 0.86939 0.95591 0.0
N1358 N 0.47911 0.88508 0.98863 0.0
N1359 N 0.41002 0.86002 0.97804 0.0
C1360 C 0.42049 0.86891 0.01418 0.0
C1361 C 0.45796 0.88302 0.01987 0.0
C1362 C 0.18536 0.3298 0.2267 0.0
C1363 C 0.19146 0.31675 0.18963 0.0
C1364 C 0.16965 0.36504 0.23344 0.0
C1365 C 0.15974 0.38881 0.2034 0.0
H1366 H 0.19295 0.31257 0.25089 0.0
H1367 H 0.16778 0.37477 0.26238 0.0
S1368 S 0.16672 0.36749 0.10116 0.0
N1369 N 0.18348 0.32962 0.12245 0.0
N1370 N 0.15515 0.39669 0.13527 0.0
C1371 C 0.16444 0.37583 0.16621 0.0
C1372 C 0.18025 0.33976 0.15926 0.0
C1373 C 0.56749 0.62942 0.02319 0.0
C1374 C 0.55838 0.62038 0.06091 0.0
C1375 C 0.60412 0.63936 0.01292 0.0
C1376 C 0.63374 0.64135 0.03981 0.0
H1377 H 0.54636 0.62735 1.00071 0.0
H1378 H 0.60986 0.64241 0.98318 0.0
S1379 S 0.62528 0.62491 0.1429 0.0
N1380 N 0.58234 0.61775 0.1257 0.0
N1381 N 0.65094 0.63597 0.10642 0.0
C1382 C 0.62468 0.63476 0.07791 0.0
C1383 C 0.58734 0.62434 0.08842 0.0
C1384 C 0.84642 0.83997 0.34178 0.0
C1385 C 0.8437 0.81847 0.30841 0.0
C1386 C 0.85968 0.8769 0.34118 0.0
C1387 C 0.87107 0.89337 0.30733 0.0
H1388 H 0.83769 0.8285 0.36844 0.0
H1389 H 0.85893 0.89345 0.36691 0.0
S1390 S 0.8714 0.84873 0.21257 0.0
N1391 N 0.85483 0.81622 0.24066 0.0
N1392 N 0.88065 0.88518 0.24012 0.0
C1393 C 0.87066 0.87156 0.27427 0.0
C1394 C 0.85644 0.83432 0.2746 0.0
C1395 C 0.06931 0.87264 0.97936 0.0
C1396 C 0.06213 0.90678 0.96046 0.0
C1397 C 0.10609 0.85862 0.98457 0.0
C1398 C 0.13758 0.87846 0.972 0.0
H1399 H 0.0462 0.85578 0.98896 0.0
H1400 H 0.10993 0.83192 0.99869 0.0
S1401 S 0.13462 0.96967 0.92179 0.0
N1402 N 0.09016 0.96022 0.92941 0.0
N1403 N 0.15889 0.93443 0.94022 0.0
C1404 C 0.13095 0.91305 0.95396 0.0
C1405 C 0.09343 0.92698 0.9479 0.0
C1406 C 0.16885 0.6783 0.3548 0.0
C1407 C 0.18958 0.69717 0.32735 0.0
C1408 C 0.15323 0.6424 0.34747 0.0
C1409 C 0.15776 0.62409 0.31243 0.0
H1410 H 0.16256 0.69233 0.38108 0.0
H1411 H 0.13686 0.62928 0.36909 0.0
S1412 S 0.21042 0.66172 0.23159 0.0
N1413 N 0.21486 0.69439 0.26456 0.0
N1414 N 0.18525 0.62809 0.25038 0.0
C1415 C 0.17961 0.64237 0.28543 0.0
C1416 C 0.19559 0.67849 0.29302 0.0
C1417 C 0.94171 0.63652 0.92459 0.0
C1418 C 0.96147 0.61125 0.94833 0.0
C1419 C 0.90554 0.64932 0.93342 0.0
C1420 C 0.88722 0.63674 0.96581 0.0
H1421 H 0.95499 0.64799 0.90002 0.0
H1422 H 0.89204 0.66984 0.91508 0.0
S1423 S 0.92575 0.56919 0.03623 0.0
N1424 N 0.95922 0.57336 0.00521 0.0
N1425 N 0.89131 0.59665 0.02099 0.0
C1426 C 0.90605 0.61048 0.98898 0.0
C1427 C 0.94309 0.59796 0.98043 0.0
C1428 C 0.21406 0.79347 0.18582 0.0
C1429 C 0.19251 0.8215 0.20222 0.0
C1430 C 0.23471 0.80095 0.15378 0.0
C1431 C 0.2348 0.83693 0.13685 0.0
H1432 H 0.2175 0.76653 0.19964 0.0
H1433 H 0.25152 0.77827 0.14289 0.0
S1434 S 0.17952 0.91894 0.16764 0.0
N1435 N 0.16997 0.8857 0.19835 0.0
N1436 N 0.20839 0.89978 0.1374 0.0
C1437 C 0.21121 0.86448 0.15159 0.0
C1438 C 0.19013 0.85673 0.18438 0.0
C1439 C 0.2341 0.16186 0.32084 0.0
C1440 C 0.20358 0.18041 0.30299 0.0
C1441 C 0.23376 0.15248 0.35923 0.0
C1442 C 0.20309 0.16165 0.3815 0.0
H1443 H 0.25883 0.15485 0.30524 0.0
H1444 H 0.25872 0.14 0.37197 0.0
S1445 S 0.11449 0.2064 0.34821 0.0
N1446 N 0.14036 0.20463 0.31031 0.0
N1447 N 0.14021 0.18747 0.38261 0.0
C1448 C 0.1717 0.17856 0.36382 0.0
C1449 C 0.17186 0.18791 0.32462 0.0
C1450 C 0.41022 0.59003 0.92943 0.0
C1451 C 0.41855 0.56104 0.95535 0.0
C1452 C 0.39702 0.58209 0.89246 0.0
C1453 C 0.39133 0.54494 0.8799 0.0
H1454 H 0.41486 0.61911 0.93731 0.0
H1455 H 0.39452 0.60503 0.87253 0.0
S1456 S 0.40493 0.45892 0.93691 0.0
N1457 N 0.41691 0.49344 0.9661 0.0
N1458 N 0.39216 0.47921 0.89674 0.0
C1459 C 0.39676 0.51599 0.90616 0.0
C1460 C 0.41059 0.52381 0.94367 0.0
C1461 C 0.7635 0.33153 0.32224 0.0
C1462 C 0.80114 0.31991 0.31886 0.0
C1463 C 0.75082 0.34816 0.35539 0.0
C1464 C 0.77497 0.35293 0.38687 0.0
H1465 H 0.74417 0.32995 0.29811 0.0
H1466 H 0.72206 0.35778 0.35618 0.0
S1467 S 0.87473 0.32355 0.39468 0.0
N1468 N 0.86153 0.3119 0.35109 0.0
N1469 N 0.83739 0.34193 0.41411 0.0
C1470 C 0.81185 0.33889 0.38505 0.0
C1471 C 0.82496 0.32245 0.35095 0.0
C1472 C 0.10247 0.45236 0.43099 0.0
C1473 C 0.11394 0.4724 0.46381 0.0
C1474 C 0.11577 0.46169 0.39496 0.0
C1475 C 0.14179 0.49101 0.38996 0.0
H1476 H 0.08368 0.42866 0.43316 0.0
H1477 H 0.10652 0.44478 0.37093 0.0
S1478 S 0.17842 0.55481 0.46544 0.0
N1479 N 0.15107 0.52537 0.48774 0.0
N1480 N 0.17636 0.54179 0.42062 0.0
C1481 C 0.15258 0.51208 0.42215 0.0
C1482 C 0.13857 0.5031 0.45875 0.0
C1483 C 0.30342 0.14426 0.67675 0.0
C1484 C 0.31487 0.18112 0.68557 0.0
C1485 C 0.30613 0.1301 0.6401 0.0
C1486 C 0.31988 0.15252 0.61115 0.0
H1487 H 0.29303 0.12595 0.69849 0.0
H1488 H 0.29601 0.10195 0.63405 0.0
S1489 S 0.35426 0.25032 0.61978 0.0
N1490 N 0.3419 0.23915 0.66297 0.0
N1491 N 0.34525 0.21293 0.59322 0.0
C1492 C 0.33159 0.18927 0.6195 0.0
C1493 C 0.3296 0.20346 0.65704 0.0
C1494 C 0.38275 0.49287 0.5552 0.0
C1495 C 0.40975 0.46469 0.54881 0.0
C1496 C 0.36924 0.50039 0.59156 0.0
C1497 C 0.38261 0.48077 0.62369 0.0
H1498 H 0.37089 0.50859 0.53163 0.0
H1499 H 0.34799 0.52181 0.59444 0.0
S1500 S 0.45452 0.40533 0.62328 0.0
N1501 N 0.44982 0.41756 0.57841 0.0
N1502 N 0.42545 0.43235 0.6466 0.0
C1503 C 0.4104 0.45325 0.61797 0.0
C1504 C 0.42361 0.44503 0.58072 0.0
C1505 C 0.61733 0.07272 0.58352 0.0
C1506 C 0.60565 0.04514 0.55688 0.0
C1507 C 0.63244 0.06291 0.61919 0.0
C1508 C 0.63625 0.02516 0.62981 0.0
H1509 H 0.61386 0.10228 0.57729 0.0
H1510 H 0.63759 0.08498 0.63986 0.0
S1511 S 0.61491 0.94212 0.56954 0.0
N1512 N 0.60321 0.97827 0.54262 0.0
N1513 N 0.63089 0.96016 0.60992 0.0
C1514 C 0.62773 0.99745 0.6025 0.0
C1515 C 0.61237 0.0073 0.56615 0.0
C1516 C 0.68245 0.74286 0.34058 0.0
C1517 C 0.69656 0.70886 0.32606 0.0
C1518 C 0.64585 0.74538 0.35394 0.0
C1519 C 0.62206 0.71398 0.35335 0.0
H1520 H 0.69957 0.76798 0.34099 0.0
H1521 H 0.6354 0.77258 0.36248 0.0
S1522 S 0.64619 0.61749 0.32276 0.0
N1523 N 0.68433 0.64228 0.31536 0.0
N1524 N 0.6158 0.64734 0.34016 0.0
C1525 C 0.63636 0.67949 0.34084 0.0
C1526 C 0.67341 0.67687 0.32711 0.0
C1527 C 1.00659 0.07182 0.90203 0.0
C1528 C 0.96878 0.06078 0.90436 0.0
C1529 C 0.01658 0.1086 0.89196 0.0
C1530 C 0.98937 0.13609 0.8832 0.0
H1531 H 0.02884 0.05235 0.90955 0.0
H1532 H 0.04593 0.11642 0.89386 0.0
S1533 S 0.88662 0.12115 0.88017 0.0
N1534 N 0.90393 0.08001 0.89308 0.0
N1535 N 0.92308 0.14897 0.87463 0.0
C1536 C 0.95163 0.12488 0.88277 0.0
C1537 C 0.94127 0.08743 0.89334 0.0
C1538 C 0.33176 0.85553 0.35323 0.0
C1539 C 0.31304 0.82748 0.33178 0.0
C1540 C 0.36776 0.8491 0.36951 0.0
C1541 C 0.38607 0.81438 0.36491 0.0
H1542 H 0.31763 0.88165 0.35941 0.0
H1543 H 0.38104 0.87117 0.38623 0.0
S1544 S 0.34856 0.73221 0.31072 0.0
N1545 N 0.31586 0.76461 0.30568 0.0
N1546 N 0.38213 0.75182 0.33702 0.0
C1547 C 0.36778 0.78669 0.34253 0.0
C1548 C 0.33174 0.79347 0.3257 0.0
C1549 C 0.0254 0.46546 0.87259 0.0
C1550 C 0.05523 0.47159 0.89889 0.0
C1551 C 0.01404 0.42903 0.86178 0.0
C1552 C 0.03143 0.39682 0.87722 0.0
H1553 H 1.01122 0.48905 0.85933 0.0
H1554 H 0.99162 0.42615 0.84069 0.0
S1555 S 0.10941 0.397 0.94903 0.0
N1556 N 0.10091 0.44193 0.94136 0.0
N1557 N 0.07939 0.37371 0.9214 0.0
C1558 C 0.06046 0.40247 0.90453 0.0
C1559 C 0.07241 0.43966 0.91518 0.0
C1560 C 0.70069 0.29377 0.15092 0.0
C1561 C 0.71705 0.3238 0.17177 0.0
C1562 C 0.66177 0.29079 0.14517 0.0
C1563 C 0.63744 0.31749 0.16028 0.0
H1564 H 0.71795 0.27168 0.13961 0.0
H1565 H 0.65068 0.26621 0.13056 0.0
S1566 S 0.66565 0.40403 0.21278 0.0
N1567 N 0.70561 0.3827 0.20438 0.0
N1568 N 0.63252 0.37704 0.19375 0.0
C1569 C 0.65339 0.3488 0.1793 0.0
C1570 C 0.6931 0.35193 0.18502 0.0
C1571 C 0.5847 0.08359 0.10411 0.0
C1572 C 0.56039 0.05292 0.11009 0.0
C1573 C 0.57568 0.12061 0.11572 0.0
C1574 C 0.54231 0.12862 0.13465 0.0
H1575 H 0.61132 0.0789 0.09094 0.0
H1576 H 0.59579 0.14283 0.11129 0.0
S1577 S 0.46757 0.05987 0.1553 0.0
N1578 N 0.49983 0.03463 0.13445 0.0
N1579 N 0.48397 0.10317 0.15682 0.0
C1580 C 0.51735 0.09862 0.13984 0.0
C1581 C 0.52606 0.06121 0.12746 0.0
C1582 C 0.33995 0.20814 0.1309 0.0
C1583 C 0.33091 0.19642 0.16754 0.0
C1584 C 0.37713 0.20994 0.11959 0.0
C1585 C 0.40672 0.20076 0.1447 0.0
H1586 H 0.31802 0.21617 0.11074 0.0
H1587 H 0.38283 0.22002 0.09147 0.0
S1588 S 0.3983 0.166 0.24269 0.0
N1589 N 0.3545 0.17312 0.22801 0.0
N1590 N 0.42489 0.17766 0.20705 0.0
C1591 C 0.39824 0.18807 0.18106 0.0
C1592 C 0.36016 0.18547 0.19238 0.0
C1593 C 0.49982 0.45555 0.11771 0.0
C1594 C 0.46209 0.46546 0.1093 0.0
C1595 C 0.51043 0.41856 0.12798 0.0
C1596 C 0.48396 0.38941 0.13136 0.0
H1597 H 0.5218 0.47618 0.11468 0.0
H1598 H 0.54004 0.41208 0.13054 0.0
S1599 S 0.38118 0.40038 0.1164 0.0
N1600 N 0.39784 0.44278 0.10828 0.0
N1601 N 0.41786 0.3739 0.12731 0.0
C1602 C 0.44601 0.39942 0.12526 0.0
C1603 C 0.43511 0.43702 0.11437 0.0
C1604 C 0.32498 0.66346 0.67537 0.0
C1605 C 0.34314 0.6911 0.69767 0.0
C1606 C 0.33925 0.62675 0.67383 0.0
C1607 C 0.373 0.6175 0.69293 0.0
H1608 H 0.29924 0.67004 0.65986 0.0
H1609 H 0.32354 0.60536 0.65835 0.0
S1610 S 0.43254 0.67997 0.75288 0.0
N1611 N 0.39716 0.70659 0.73853 0.0
N1612 N 0.42467 0.63837 0.73359 0.0
C1613 C 0.39207 0.64513 0.71397 0.0
C1614 C 0.377 0.68183 0.71682 0.0
C1615 C 0.94784 0.39773 0.52373 0.0
C1616 C 0.96234 0.40409 0.56068 0.0
C1617 C 0.91041 0.38609 0.51704 0.0
C1618 C 0.88575 0.37993 0.54689 0.0
H1619 H 0.96495 0.40344 0.49962 0.0
H1620 H 0.89968 0.38524 0.48809 0.0
S1621 S 0.91056 0.38686 0.64896 0.0
N1622 N 0.94952 0.39854 0.62784 0.0
N1623 N 0.87955 0.37761 0.61469 0.0
C1624 C 0.90064 0.38328 0.58384 0.0
C1625 C 0.93865 0.39517 0.59086 0.0
C1626 C 0.69348 0.84038 0.65747 0.0
C1627 C 0.70468 0.81636 0.68712 0.0
C1628 C 0.6793 0.87637 0.66499 0.0
C1629 C 0.67488 0.88923 0.70234 0.0
H1630 H 0.69494 0.8311 0.62836 0.0
H1631 H 0.6726 0.89471 0.64141 0.0
S1632 S 0.70221 0.83834 0.78985 0.0
N1633 N 0.7121 0.80897 0.75534 0.0
N1634 N 0.68458 0.87604 0.76903 0.0
C1635 C 0.68587 0.86555 0.7321 0.0
C1636 C 0.7011 0.82938 0.72459 0.0
C1637 C 0.08761 0.11216 0.59216 0.0
C1638 C 0.05863 0.11686 0.56483 0.0
C1639 C 0.1252 0.12119 0.58426 0.0
C1640 C 0.13574 0.13584 0.54891 0.0
H1641 H 0.08161 0.09968 0.61918 0.0
H1642 H 0.14677 0.11373 0.60504 0.0
S1643 S 0.07071 0.15857 0.46912 0.0
N1644 N 0.04334 0.14157 0.50178 0.0
N1645 N 0.11358 0.15758 0.48777 0.0
C1646 C 0.10686 0.14347 0.52255 0.0
C1647 C 0.0686 0.13415 0.53024 0.0
C1648 C 0.35061 0.33792 0.84008 0.0
C1649 C 0.34748 0.31665 0.80658 0.0
C1650 C 0.36329 0.37496 0.8395 0.0
C1651 C 0.37361 0.39176 0.80553 0.0
H1652 H 0.34256 0.32624 0.86688 0.0
H1653 H 0.36283 0.39134 0.86537 0.0
S1654 S 0.37279 0.34799 0.71035 0.0
N1655 N 0.35734 0.31497 0.73853 0.0
N1656 N 0.38191 0.38441 0.73801 0.0
C1657 C 0.37283 0.37031 0.77225 0.0
C1658 C 0.35926 0.33287 0.77257 0.0
C1659 C 0.57452 0.38054 0.42616 0.0
C1660 C 0.55635 0.40323 0.45283 0.0
C1661 C 0.6114 0.36733 0.43259 0.0
C1662 C 0.63235 0.37717 0.46548 0.0
H1663 H 0.55974 0.37217 0.40031 0.0
H1664 H 0.62363 0.34932 0.41152 0.0
S1665 S 0.59813 0.43667 0.54392 0.0
N1666 N 0.56221 0.43485 0.51348 0.0
N1667 N 0.63178 0.41156 0.52506 0.0
C1668 C 0.61469 0.40048 0.49209 0.0
C1669 C 0.57671 0.41302 0.48596 0.0
C1670 C 0.70656 0.16669 0.83006 0.0
C1671 C 0.68105 0.19675 0.82958 0.0
C1672 C 0.69409 0.12941 0.82388 0.0
C1673 C 0.65567 0.12093 0.81807 0.0
H1674 H 0.73632 0.17214 0.83341 0.0
H1675 H 0.71466 0.10711 0.82316 0.0
S1676 S 0.57782 0.18943 0.8136 0.0
N1677 N 0.61566 0.21521 0.82165 0.0
N1678 N 0.59259 0.1456 0.81233 0.0
C1679 C 0.63 0.15058 0.81879 0.0
C1680 C 0.64261 0.18833 0.82393 0.0
C1681 C 0.45492 0.13718 0.48572 0.0
C1682 C 0.46198 0.11388 0.45437 0.0
C1683 C 0.41862 0.14898 0.49416 0.0
C1684 C 0.38718 0.13757 0.47219 0.0
H1685 H 0.47787 0.14733 0.50366 0.0
H1686 H 0.41526 0.16753 0.51816 0.0
S1687 S 0.38944 0.07519 0.38794 0.0
N1688 N 0.43394 0.07909 0.40161 0.0
N1689 N 0.36536 0.10052 0.41803 0.0
C1690 C 0.39345 0.1134 0.44129 0.0
C1691 C 0.43083 0.10189 0.43218 0.0
C1692 C 0.70087 0.36554 0.69219 0.0
C1693 C 0.69232 0.32854 0.70349 0.0
C1694 C 0.71672 0.37281 0.65716 0.0
C1695 C 0.72476 0.34313 0.63276 0.0
H1696 H 0.69831 0.38863 0.71197 0.0
H1697 H 0.72531 0.40115 0.65055 0.0
S1698 S 0.70041 0.2425 0.64595 0.0
N1699 N 0.68783 0.26312 0.6855 0.0
N1700 N 0.7168 0.27628 0.61917 0.0
C1701 C 0.71245 0.30661 0.64207 0.0
C1702 C 0.69633 0.29939 0.67764 0.0
C1703 C 0.73782 0.65635 0.81083 0.0
C1704 C 0.7061 0.67314 0.7932 0.0
C1705 C 0.73833 0.64681 0.84931 0.0
C1706 C 0.70715 0.65375 0.87164 0.0
H1707 H 0.76296 0.65144 0.79511 0.0
H1708 H 0.76419 0.63644 0.86217 0.0
S1709 S 0.61555 0.69249 0.83879 0.0
N1710 N 0.64139 0.69285 0.80086 0.0
N1711 N 0.64258 0.67491 0.87291 0.0
C1712 C 0.67454 0.66827 0.85396 0.0
C1713 C 0.67399 0.67812 0.81492 0.0
C1714 C 0.91207 0.08796 0.42871 0.0
C1715 C 0.91601 0.05901 0.45559 0.0
C1716 C 0.89955 0.08057 0.3914 0.0
C1717 C 0.89054 0.04396 0.37916 0.0
H1718 H 0.91951 0.11657 0.43619 0.0
H1719 H 0.9001 0.10324 0.37109 0.0
S1720 S 0.89337 0.95834 0.43812 0.0
N1721 N 0.90715 0.99221 0.46733 0.0
N1722 N 0.88459 0.97879 0.39704 0.0
C1723 C 0.89225 0.01516 0.40606 0.0
C1724 C 0.90493 0.0225 0.44414 0.0
C1725 C 0.26669 0.83946 0.82295 0.0
C1726 C 0.30309 0.8246 0.81916 0.0
C1727 C 0.25504 0.85451 0.85714 0.0
C1728 C 0.27895 0.85445 0.88915 0.0
H1729 H 0.24757 0.84133 0.79869 0.0
H1730 H 0.2273 0.8667 0.85835 0.0
S1731 S 0.3752 0.81489 0.89576 0.0
N1732 N 0.36175 0.80803 0.85126 0.0
N1733 N 0.33955 0.83547 0.91614 0.0
C1734 C 0.3144 0.83725 0.88665 0.0
C1735 C 0.32648 0.82231 0.85154 0.0
C1736 C 0.64944 0.99214 0.95935 0.0
C1737 C 0.62197 0.96417 0.96459 0.0
C1738 C 0.66249 1.00121 0.92318 0.0
C1739 C 0.64831 0.98331 0.89016 0.0
H1740 H 0.66196 1.00651 0.9836 0.0
H1741 H 0.68414 0.02237 0.92117 0.0
S1742 S 0.57491 0.90909 0.88755 0.0
N1743 N 0.58036 0.91934 0.93291 0.0
N1744 N 0.60432 0.93655 0.86537 0.0
C1745 C 0.62009 0.95599 0.89484 0.0
C1746 C 0.60715 0.94639 0.93177 0.0
C1747 C 0.78411 0.69275 0.16356 0.0
C1748 C 0.81816 0.69052 0.18415 0.0
C1749 C 0.78146 0.68072 0.126 0.0
C1750 C 0.81261 0.66529 0.10793 0.0
H1751 H 0.75902 0.70268 0.17693 0.0
H1752 H 0.75426 0.68186 0.11165 0.0
S1753 S 0.90926 0.65756 0.14768 0.0
N1754 N 0.88482 0.67534 0.18239 0.0
N1755 N 0.87917 0.65173 0.11187 0.0
C1756 C 0.84725 0.66464 0.12742 0.0
C1757 C 0.85022 0.67763 0.1655 0.0
C1758 C 0.92336 0.98808 0.0711 0.0
C1759 C 0.90854 0.95858 0.0485 0.0
C1760 C 0.90947 0.99601 0.10747 0.0
C1761 C 0.87913 0.9758 0.12218 0.0
H1762 H 0.94594 1.00511 0.06064 0.0
H1763 H 0.92198 0.0188 0.1237 0.0
S1764 S 0.8295 0.89668 0.07402 0.0
N1765 N 0.86179 0.90913 0.04396 0.0
N1766 N 0.83477 0.92512 0.11078 0.0
C1767 C 0.8639 0.94659 0.09964 0.0
C1768 C 0.87877 0.93774 0.0633 0.0
C1769 C 0.10573 0.5081 0.06469 0.0
C1770 C 0.10412 0.5464 0.05533 0.0
C1771 C 0.11722 0.4965 0.10112 0.0
C1772 C 0.12865 0.52265 0.12914 0.0
H1773 H 0.09635 0.48706 0.04435 0.0
H1774 H 0.1145 0.4671 0.1083 0.0
S1775 S 0.13529 0.62554 0.11774 0.0
N1776 N 0.11867 0.61017 0.07652 0.0
N1777 N 0.14153 0.58781 0.14405 0.0
C1778 C 0.13049 0.56053 0.11916 0.0
C1779 C 0.11769 0.57257 0.0826 0.0
loop_
_geom_bond_atom_site_label_1
_geom_bond_atom_site_label_2
_geom_bond_distance
_geom_bond_site_symmetry_2
_ccdc_geom_bond_type
Fe0 O2 1.918 . S
Fe0 O5 1.997 . S
Fe0 O6 2.002 . S
Fe0 O11 1.976 . S
Fe0 O14 1.996 . S
Fe1 O2 1.918 . S
Fe1 O9 1.997 . S
Fe1 O12 1.996 . S
Fe1 O16 1.976 . S
Fe1 O19 2.002 . S
O2 Fe0 1.918 . S
O2 Fe1 1.918 . S
O2 Fe3 1.918 . S
Fe3 O2 1.918 . S
Fe3 O4 2.002 . S
Fe3 O13 1.976 . S
Fe3 O17 1.996 . S
Fe3 O20 1.997 . S
O4 Fe3 2.002 . S
O4 C21 1.295 . S
O5 Fe0 1.997 . S
O5 C21 1.235 . S
O6 Fe0 2.002 . S
O6 C7 1.295 . S
C7 O6 1.295 . S
C7 O9 1.235 . S
C8 O13 1.287 . S
C8 O14 1.255 . S
O9 Fe1 1.997 . S
O9 C7 1.235 . S
C10 O16 1.287 . S
C10 O17 1.255 . S
O11 Fe0 1.976 . S
O11 C18 1.287 . S
O12 Fe1 1.996 . S
O12 C18 1.255 . S
O13 Fe3 1.976 . S
O13 C8 1.287 . S
O14 Fe0 1.996 . S
O14 C8 1.255 . S
C15 O19 1.295 . S
C15 O20 1.235 . S
O16 Fe1 1.976 . S
O16 C10 1.287 . S
O17 Fe3 1.996 . S
O17 C10 1.255 . S
C18 O11 1.287 . S
C18 O12 1.255 . S
O19 Fe1 2.002 . S
O19 C15 1.295 . S
O20 Fe3 1.997 . S
O20 C15 1.235 . S
C21 O4 1.295 . S
C21 O5 1.235 . S
Fe22 O24 1.918 . S
Fe22 O27 1.997 . S
Fe22 O28 2.002 . S
Fe22 O33 1.976 . S
Fe22 O36 1.996 . S
Fe23 O24 1.918 . S
Fe23 O31 1.997 . S
Fe23 O34 1.996 . S
Fe23 O38 1.976 1_554 S
Fe23 O41 2.002 . S
O24 Fe22 1.918 . S
O24 Fe23 1.918 . S
O24 Fe25 1.918 . S
Fe25 O24 1.918 . S
Fe25 O26 2.002 . S
Fe25 O35 1.976 . S
Fe25 O39 1.996 1_554 S
Fe25 O42 1.997 . S
O26 Fe25 2.002 . S
O26 C43 1.295 . S
O27 Fe22 1.997 . S
O27 C43 1.235 . S
O28 Fe22 2.002 . S
O28 C29 1.295 . S
C29 O28 1.295 . S
C29 O31 1.235 . S
C30 O35 1.287 . S
C30 O36 1.255 . S
O31 Fe23 1.997 . S
O31 C29 1.235 . S
C32 O38 1.287 . S
C32 O39 1.255 . S
O33 Fe22 1.976 . S
O33 C40 1.287 . S
O34 Fe23 1.996 . S
O34 C40 1.255 . S
O35 Fe25 1.976 . S
O35 C30 1.287 . S
O36 Fe22 1.996 . S
O36 C30 1.255 . S
C37 O41 1.295 . S
C37 O42 1.235 . S
O38 Fe23 1.976 1_556 S
O38 C32 1.287 . S
O39 Fe25 1.996 1_556 S
O39 C32 1.255 . S
C40 O33 1.287 . S
C40 O34 1.255 . S
O41 Fe23 2.002 . S
O41 C37 1.295 . S
O42 Fe25 1.997 . S
O42 C37 1.235 . S
C43 O26 1.295 . S
C43 O27 1.235 . S
Fe44 O46 1.918 . S
Fe44 O49 1.997 . S
Fe44 O50 2.002 . S
Fe44 O55 1.976 . S
Fe44 O58 1.996 . S
Fe45 O46 1.918 . S
Fe45 O53 1.997 . S
Fe45 O56 1.996 . S
Fe45 O60 1.976 . S
Fe45 O63 2.002 . S
O46 Fe44 1.918 . S
O46 Fe45 1.918 . S
O46 Fe47 1.918 . S
Fe47 O46 1.918 . S
Fe47 O48 2.002 . S
Fe47 O57 1.976 . S
Fe47 O61 1.996 . S
Fe47 O64 1.997 . S
O48 Fe47 2.002 . S
O48 C65 1.295 . S
O49 Fe44 1.997 . S
O49 C65 1.235 . S
O50 Fe44 2.002 . S
O50 C51 1.295 . S
C51 O50 1.295 . S
C51 O53 1.235 . S
C52 O57 1.287 . S
C52 O58 1.255 . S
O53 Fe45 1.997 . S
O53 C51 1.235 . S
C54 O60 1.287 . S
C54 O61 1.255 . S
O55 Fe44 1.976 . S
O55 C62 1.287 . S
O56 Fe45 1.996 . S
O56 C62 1.255 . S
O57 Fe47 1.976 . S
O57 C52 1.287 . S
O58 Fe44 1.996 . S
O58 C52 1.255 . S
C59 O63 1.295 . S
C59 O64 1.235 . S
O60 Fe45 1.976 . S
O60 C54 1.287 . S
O61 Fe47 1.996 . S
O61 C54 1.255 . S
C62 O55 1.287 . S
C62 O56 1.255 . S
O63 Fe45 2.002 . S
O63 C59 1.295 . S
O64 Fe47 1.997 . S
O64 C59 1.235 . S
C65 O48 1.295 . S
C65 O49 1.235 . S
Fe66 O68 1.918 . S
Fe66 O71 1.997 . S
Fe66 O72 2.002 . S
Fe66 O77 1.976 . S
Fe66 O80 1.996 . S
Fe67 O68 1.918 . S
Fe67 O75 1.997 . S
Fe67 O78 1.996 . S
Fe67 O82 1.976 . S
Fe67 O85 2.002 . S
O68 Fe66 1.918 . S
O68 Fe67 1.918 . S
O68 Fe69 1.918 . S
Fe69 O68 1.918 . S
Fe69 O70 2.002 . S
Fe69 O79 1.976 . S
Fe69 O83 1.996 . S
Fe69 O86 1.997 . S
O70 Fe69 2.002 . S
O70 C87 1.295 . S
O71 Fe66 1.997 . S
O71 C87 1.235 . S
O72 Fe66 2.002 . S
O72 C73 1.295 . S
C73 O72 1.295 . S
C73 O75 1.235 . S
C74 O79 1.287 1_545 S
C74 O80 1.255 1_545 S
O75 Fe67 1.997 . S
O75 C73 1.235 . S
C76 O82 1.287 1_556 S
C76 O83 1.255 1_556 S
O77 Fe66 1.976 . S
O77 C84 1.287 . S
O78 Fe67 1.996 . S
O78 C84 1.255 . S
O79 Fe69 1.976 . S
O79 C74 1.287 1_565 S
O80 Fe66 1.996 . S
O80 C74 1.255 1_565 S
C81 O85 1.295 . S
C81 O86 1.235 . S
O82 Fe67 1.976 . S
O82 C76 1.287 1_554 S
O83 Fe69 1.996 . S
O83 C76 1.255 1_554 S
C84 O77 1.287 . S
C84 O78 1.255 . S
O85 Fe67 2.002 . S
O85 C81 1.295 . S
O86 Fe69 1.997 . S
O86 C81 1.235 . S
C87 O70 1.295 . S
C87 O71 1.235 . S
Fe88 O90 1.918 . S
Fe88 O93 1.997 . S
Fe88 O94 2.002 . S
Fe88 O99 1.976 . S
Fe88 O102 1.996 . S
Fe89 O90 1.918 . S
Fe89 O97 1.997 . S
Fe89 O100 1.996 . S
Fe89 O104 1.976 . S
Fe89 O107 2.002 . S
O90 Fe88 1.918 . S
O90 Fe89 1.918 . S
O90 Fe91 1.918 . S
Fe91 O90 1.918 . S
Fe91 O92 2.002 . S
Fe91 O101 1.976 . S
Fe91 O105 1.996 . S
Fe91 O108 1.997 . S
O92 Fe91 2.002 . S
O92 C109 1.295 . S
O93 Fe88 1.997 . S
O93 C109 1.235 . S
O94 Fe88 2.002 . S
O94 C95 1.295 . S
C95 O94 1.295 . S
C95 O97 1.235 . S
C96 O101 1.287 . S
C96 O102 1.255 . S
O97 Fe89 1.997 . S
O97 C95 1.235 . S
C98 O104 1.287 . S
C98 O105 1.255 . S
O99 Fe88 1.976 . S
O99 C106 1.287 . S
O100 Fe89 1.996 . S
O100 C106 1.255 . S
O101 Fe91 1.976 . S
O101 C96 1.287 . S
O102 Fe88 1.996 . S
O102 C96 1.255 . S
C103 O107 1.295 . S
C103 O108 1.235 . S
O104 Fe89 1.976 . S
O104 C98 1.287 . S
O105 Fe91 1.996 . S
O105 C98 1.255 . S
C106 O99 1.287 . S
C106 O100 1.255 . S
O107 Fe89 2.002 . S
O107 C103 1.295 . S
O108 Fe91 1.997 . S
O108 C103 1.235 . S
C109 O92 1.295 . S
C109 O93 1.235 . S
Fe110 O112 1.918 . S
Fe110 O115 1.997 . S
Fe110 O116 2.002 . S
Fe110 O121 1.976 . S
Fe110 O124 1.996 1_556 S
Fe111 O112 1.918 . S
Fe111 O119 1.997 . S
Fe111 O122 1.996 . S
Fe111 O126 1.976 . S
Fe111 O129 2.002 . S
O112 Fe110 1.918 . S
O112 Fe111 1.918 . S
O112 Fe113 1.918 . S
Fe113 O112 1.918 . S
Fe113 O114 2.002 . S
Fe113 O123 1.976 1_556 S
Fe113 O127 1.996 . S
Fe113 O130 1.997 . S
O114 Fe113 2.002 . S
O114 C131 1.295 . S
O115 Fe110 1.997 . S
O115 C131 1.235 . S
O116 Fe110 2.002 . S
O116 C117 1.295 . S
C117 O116 1.295 . S
C117 O119 1.235 . S
C118 O123 1.287 . S
C118 O124 1.255 . S
O119 Fe111 1.997 . S
O119 C117 1.235 . S
C120 O126 1.287 1_655 S
C120 O127 1.255 1_655 S
O121 Fe110 1.976 . S
O121 C128 1.287 . S
O122 Fe111 1.996 . S
O122 C128 1.255 . S
O123 Fe113 1.976 1_554 S
O123 C118 1.287 . S
O124 Fe110 1.996 1_554 S
O124 C118 1.255 . S
C125 O129 1.295 . S
C125 O130 1.235 . S
O126 Fe111 1.976 . S
O126 C120 1.287 1_455 S
O127 Fe113 1.996 . S
O127 C120 1.255 1_455 S
C128 O121 1.287 . S
C128 O122 1.255 . S
O129 Fe111 2.002 . S
O129 C125 1.295 . S
O130 Fe113 1.997 . S
O130 C125 1.235 . S
C131 O114 1.295 . S
C131 O115 1.235 . S
Fe132 O134 1.918 . S
Fe132 O137 1.997 . S
Fe132 O138 2.002 . S
Fe132 O143 1.976 . S
Fe132 O146 1.996 . S
Fe133 O134 1.918 . S
Fe133 O141 1.997 . S
Fe133 O144 1.996 . S
Fe133 O148 1.976 . S
Fe133 O151 2.002 . S
O134 Fe132 1.918 . S
O134 Fe133 1.918 . S
O134 Fe135 1.918 . S
Fe135 O134 1.918 . S
Fe135 O136 2.002 . S
Fe135 O145 1.976 . S
Fe135 O149 1.996 . S
Fe135 O152 1.997 . S
O136 Fe135 2.002 . S
O136 C153 1.295 . S
O137 Fe132 1.997 . S
O137 C153 1.235 . S
O138 Fe132 2.002 . S
O138 C139 1.295 . S
C139 O138 1.295 . S
C139 O141 1.235 . S
C140 O145 1.287 . S
C140 O146 1.255 . S
O141 Fe133 1.997 . S
O141 C139 1.235 . S
C142 O148 1.287 . S
C142 O149 1.255 . S
O143 Fe132 1.976 . S
O143 C150 1.287 . S
O144 Fe133 1.996 . S
O144 C150 1.255 . S
O145 Fe135 1.976 . S
O145 C140 1.287 . S
O146 Fe132 1.996 . S
O146 C140 1.255 . S
C147 O151 1.295 . S
C147 O152 1.235 . S
O148 Fe133 1.976 . S
O148 C142 1.287 . S
O149 Fe135 1.996 . S
O149 C142 1.255 . S
C150 O143 1.287 . S
C150 O144 1.255 . S
O151 Fe133 2.002 . S
O151 C147 1.295 . S
O152 Fe135 1.997 . S
O152 C147 1.235 . S
C153 O136 1.295 . S
C153 O137 1.235 . S
Fe154 O156 1.918 . S
Fe154 O159 1.997 . S
Fe154 O160 2.002 . S
Fe154 O165 1.976 . S
Fe154 O168 1.996 . S
Fe155 O156 1.918 . S
Fe155 O163 1.997 . S
Fe155 O166 1.996 . S
Fe155 O170 1.976 . S
Fe155 O173 2.002 . S
O156 Fe154 1.918 . S
O156 Fe155 1.918 . S
O156 Fe157 1.918 . S
Fe157 O156 1.918 . S
Fe157 O158 2.002 . S
Fe157 O167 1.976 . S
Fe157 O171 1.996 . S
Fe157 O174 1.997 . S
O158 Fe157 2.002 . S
O158 C175 1.295 . S
O159 Fe154 1.997 . S
O159 C175 1.235 . S
O160 Fe154 2.002 . S
O160 C161 1.295 . S
C161 O160 1.295 . S
C161 O163 1.235 . S
C162 O167 1.287 1_554 S
C162 O168 1.255 1_554 S
O163 Fe155 1.997 . S
O163 C161 1.235 . S
C164 O170 1.287 1_455 S
C164 O171 1.255 1_455 S
O165 Fe154 1.976 . S
O165 C172 1.287 1_565 S
O166 Fe155 1.996 . S
O166 C172 1.255 1_565 S
O167 Fe157 1.976 . S
O167 C162 1.287 1_556 S
O168 Fe154 1.996 . S
O168 C162 1.255 1_556 S
C169 O173 1.295 . S
C169 O174 1.235 . S
O170 Fe155 1.976 . S
O170 C164 1.287 1_655 S
O171 Fe157 1.996 . S
O171 C164 1.255 1_655 S
C172 O165 1.287 1_545 S
C172 O166 1.255 1_545 S
O173 Fe155 2.002 . S
O173 C169 1.295 . S
O174 Fe157 1.997 . S
O174 C169 1.235 . S
C175 O158 1.295 . S
C175 O159 1.235 . S
Fe176 O178 1.918 . S
Fe176 O181 1.997 . S
Fe176 O182 2.002 . S
Fe176 O187 1.976 . S
Fe176 O190 1.996 . S
Fe177 O178 1.918 . S
Fe177 O185 1.997 . S
Fe177 O188 1.996 . S
Fe177 O192 1.976 . S
Fe177 O195 2.002 . S
O178 Fe176 1.918 . S
O178 Fe177 1.918 . S
O178 Fe179 1.918 . S
Fe179 O178 1.918 . S
Fe179 O180 2.002 . S
Fe179 O189 1.976 . S
Fe179 O193 1.996 . S
Fe179 O196 1.997 . S
O180 Fe179 2.002 . S
O180 C197 1.295 . S
O181 Fe176 1.997 . S
O181 C197 1.235 . S
O182 Fe176 2.002 . S
O182 C183 1.295 . S
C183 O182 1.295 . S
C183 O185 1.235 . S
C184 O189 1.287 . S
C184 O190 1.255 . S
O185 Fe177 1.997 . S
O185 C183 1.235 . S
C186 O192 1.287 . S
C186 O193 1.255 . S
O187 Fe176 1.976 . S
O187 C194 1.287 . S
O188 Fe177 1.996 . S
O188 C194 1.255 . S
O189 Fe179 1.976 . S
O189 C184 1.287 . S
O190 Fe176 1.996 . S
O190 C184 1.255 . S
C191 O195 1.295 . S
C191 O196 1.235 . S
O192 Fe177 1.976 . S
O192 C186 1.287 . S
O193 Fe179 1.996 . S
O193 C186 1.255 . S
C194 O187 1.287 . S
C194 O188 1.255 . S
O195 Fe177 2.002 . S
O195 C191 1.295 . S
O196 Fe179 1.997 . S
O196 C191 1.235 . S
C197 O180 1.295 . S
C197 O181 1.235 . S
Fe198 O200 1.918 . S
Fe198 O203 1.997 . S
Fe198 O204 2.002 . S
Fe198 O209 1.976 . S
Fe198 O212 1.996 . S
Fe199 O200 1.918 . S
Fe199 O207 1.997 . S
Fe199 O210 1.996 . S
Fe199 O214 1.976 . S
Fe199 O217 2.002 . S
O200 Fe198 1.918 . S
O200 Fe199 1.918 . S
O200 Fe201 1.918 . S
Fe201 O200 1.918 . S
Fe201 O202 2.002 . S
Fe201 O211 1.976 . S
Fe201 O215 1.996 . S
Fe201 O218 1.997 . S
O202 Fe201 2.002 . S
O202 C219 1.295 . S
O203 Fe198 1.997 . S
O203 C219 1.235 . S
O204 Fe198 2.002 . S
O204 C205 1.295 . S
C205 O204 1.295 . S
C205 O207 1.235 . S
C206 O211 1.287 . S
C206 O212 1.255 . S
O207 Fe199 1.997 . S
O207 C205 1.235 . S
C208 O214 1.287 . S
C208 O215 1.255 . S
O209 Fe198 1.976 . S
O209 C216 1.287 . S
O210 Fe199 1.996 . S
O210 C216 1.255 . S
O211 Fe201 1.976 . S
O211 C206 1.287 . S
O212 Fe198 1.996 . S
O212 C206 1.255 . S
C213 O217 1.295 . S
C213 O218 1.235 . S
O214 Fe199 1.976 . S
O214 C208 1.287 . S
O215 Fe201 1.996 . S
O215 C208 1.255 . S
C216 O209 1.287 . S
C216 O210 1.255 . S
O217 Fe199 2.002 . S
O217 C213 1.295 . S
O218 Fe201 1.997 . S
O218 C213 1.235 . S
C219 O202 1.295 . S
C219 O203 1.235 . S
Fe220 O222 1.918 . S
Fe220 O225 1.997 . S
Fe220 O226 2.002 . S
Fe220 O231 1.976 . S
Fe220 O234 1.996 . S
Fe221 O222 1.918 . S
Fe221 O229 1.997 . S
Fe221 O232 1.996 . S
Fe221 O236 1.976 . S
Fe221 O239 2.002 . S
O222 Fe220 1.918 . S
O222 Fe221 1.918 . S
O222 Fe223 1.918 . S
Fe223 O222 1.918 . S
Fe223 O224 2.002 . S
Fe223 O233 1.976 . S
Fe223 O237 1.996 . S
Fe223 O240 1.997 . S
O224 Fe223 2.002 . S
O224 C241 1.295 . S
O225 Fe220 1.997 . S
O225 C241 1.235 . S
O226 Fe220 2.002 . S
O226 C227 1.295 . S
C227 O226 1.295 . S
C227 O229 1.235 . S
C228 O233 1.287 1_655 S
C228 O234 1.255 1_655 S
O229 Fe221 1.997 . S
O229 C227 1.235 . S
C230 O236 1.287 . S
C230 O237 1.255 . S
O231 Fe220 1.976 . S
O231 C238 1.287 . S
O232 Fe221 1.996 . S
O232 C238 1.255 . S
O233 Fe223 1.976 . S
O233 C228 1.287 1_455 S
O234 Fe220 1.996 . S
O234 C228 1.255 1_455 S
C235 O239 1.295 . S
C235 O240 1.235 . S
O236 Fe221 1.976 . S
O236 C230 1.287 . S
O237 Fe223 1.996 . S
O237 C230 1.255 . S
C238 O231 1.287 . S
C238 O232 1.255 . S
O239 Fe221 2.002 . S
O239 C235 1.295 . S
O240 Fe223 1.997 . S
O240 C235 1.235 . S
C241 O224 1.295 . S
C241 O225 1.235 . S
Fe242 O244 1.918 . S
Fe242 O247 1.997 . S
Fe242 O248 2.002 . S
Fe242 O253 1.976 . S
Fe242 O256 1.996 . S
Fe243 O244 1.918 . S
Fe243 O251 1.997 . S
Fe243 O254 1.996 . S
Fe243 O258 1.976 . S
Fe243 O261 2.002 . S
O244 Fe242 1.918 . S
O244 Fe243 1.918 . S
O244 Fe245 1.918 . S
Fe245 O244 1.918 . S
Fe245 O246 2.002 . S
Fe245 O255 1.976 . S
Fe245 O259 1.996 . S
Fe245 O262 1.997 . S
O246 Fe245 2.002 . S
O246 C263 1.295 . S
O247 Fe242 1.997 . S
O247 C263 1.235 . S
O248 Fe242 2.002 . S
O248 C249 1.295 . S
C249 O248 1.295 . S
C249 O251 1.235 . S
C250 O255 1.282 1_565 S
C250 O256 1.251 1_565 S
O251 Fe243 1.997 . S
O251 C249 1.235 . S
C252 O258 1.287 . S
C252 O259 1.255 . S
O253 Fe242 1.976 . S
O253 C260 1.287 1_655 S
O254 Fe243 1.996 . S
O254 C260 1.255 1_655 S
O255 Fe245 1.976 . S
O255 C250 1.282 1_545 S
O256 Fe242 1.996 . S
O256 C250 1.251 1_545 S
C257 O261 1.295 . S
C257 O262 1.235 . S
O258 Fe243 1.976 . S
O258 C252 1.287 . S
O259 Fe245 1.996 . S
O259 C252 1.255 . S
C260 O253 1.287 1_455 S
C260 O254 1.255 1_455 S
O261 Fe243 2.002 . S
O261 C257 1.295 . S
O262 Fe245 1.997 . S
O262 C257 1.235 . S
C263 O246 1.295 . S
C263 O247 1.235 . S
Fe264 O266 1.918 . S
Fe264 O269 1.997 . S
Fe264 O270 2.002 . S
Fe264 O275 1.976 . S
Fe264 O278 1.996 . S
Fe265 O266 1.918 . S
Fe265 O273 1.997 . S
Fe265 O276 1.996 . S
Fe265 O280 1.976 . S
Fe265 O283 2.002 . S
O266 Fe264 1.918 . S
O266 Fe265 1.918 . S
O266 Fe267 1.918 . S
Fe267 O266 1.918 . S
Fe267 O268 2.002 . S
Fe267 O277 1.976 . S
Fe267 O281 1.996 . S
Fe267 O284 1.997 . S
O268 Fe267 2.002 . S
O268 C285 1.295 . S
O269 Fe264 1.997 . S
O269 C285 1.235 . S
O270 Fe264 2.002 . S
O270 C271 1.295 . S
C271 O270 1.295 . S
C271 O273 1.235 . S
C272 O277 1.287 . S
C272 O278 1.255 . S
O273 Fe265 1.997 . S
O273 C271 1.235 . S
C274 O280 1.287 . S
C274 O281 1.255 . S
O275 Fe264 1.976 . S
O275 C282 1.287 . S
O276 Fe265 1.996 . S
O276 C282 1.255 . S
O277 Fe267 1.976 . S
O277 C272 1.287 . S
O278 Fe264 1.996 . S
O278 C272 1.255 . S
C279 O283 1.295 . S
C279 O284 1.235 . S
O280 Fe265 1.976 . S
O280 C274 1.287 . S
O281 Fe267 1.996 . S
O281 C274 1.255 . S
C282 O275 1.287 . S
C282 O276 1.255 . S
O283 Fe265 2.002 . S
O283 C279 1.295 . S
O284 Fe267 1.997 . S
O284 C279 1.235 . S
C285 O268 1.295 . S
C285 O269 1.235 . S
Fe286 O288 1.918 . S
Fe286 O291 1.997 . S
Fe286 O292 2.002 . S
Fe286 O297 1.976 . S
Fe286 O300 1.996 . S
Fe287 O288 1.918 . S
Fe287 O295 1.997 . S
Fe287 O298 1.996 . S
Fe287 O302 1.976 . S
Fe287 O305 2.002 . S
O288 Fe286 1.918 . S
O288 Fe287 1.918 . S
O288 Fe289 1.918 . S
Fe289 O288 1.918 . S
Fe289 O290 2.002 . S
Fe289 O299 1.976 . S
Fe289 O303 1.996 . S
Fe289 O306 1.997 . S
O290 Fe289 2.002 . S
O290 C307 1.295 . S
O291 Fe286 1.997 . S
O291 C307 1.235 . S
O292 Fe286 2.002 . S
O292 C293 1.295 . S
C293 O292 1.295 . S
C293 O295 1.235 . S
C294 O299 1.287 . S
C294 O300 1.255 . S
O295 Fe287 1.997 . S
O295 C293 1.235 . S
C296 O302 1.287 . S
C296 O303 1.255 . S
O297 Fe286 1.976 . S
O297 C304 1.287 . S
O298 Fe287 1.996 . S
O298 C304 1.255 . S
O299 Fe289 1.976 . S
O299 C294 1.287 . S
O300 Fe286 1.996 . S
O300 C294 1.255 . S
C301 O305 1.295 . S
C301 O306 1.235 . S
O302 Fe287 1.976 . S
O302 C296 1.287 . S
O303 Fe289 1.996 . S
O303 C296 1.255 . S
C304 O297 1.287 . S
C304 O298 1.255 . S
O305 Fe287 2.002 . S
O305 C301 1.295 . S
O306 Fe289 1.997 . S
O306 C301 1.235 . S
C307 O290 1.295 . S
C307 O291 1.235 . S
Fe308 O310 1.918 . S
Fe308 O313 1.997 . S
Fe308 O314 2.002 . S
Fe308 O319 1.976 . S
Fe308 O322 1.996 . S
Fe309 O310 1.918 . S
Fe309 O317 1.997 . S
Fe309 O320 1.996 . S
Fe309 O324 1.976 . S
Fe309 O327 2.002 . S
O310 Fe308 1.918 . S
O310 Fe309 1.918 . S
O310 Fe311 1.918 . S
Fe311 O310 1.918 . S
Fe311 O312 2.002 . S
Fe311 O321 1.976 . S
Fe311 O325 1.996 . S
Fe311 O328 1.997 . S
O312 Fe311 2.002 . S
O312 C329 1.295 . S
O313 Fe308 1.997 . S
O313 C329 1.235 . S
O314 Fe308 2.002 . S
O314 C315 1.295 . S
C315 O314 1.295 . S
C315 O317 1.235 . S
C316 O321 1.287 . S
C316 O322 1.255 . S
O317 Fe309 1.997 . S
O317 C315 1.235 . S
C318 O324 1.287 . S
C318 O325 1.255 . S
O319 Fe308 1.976 . S
O319 C326 1.287 1_545 S
O320 Fe309 1.996 . S
O320 C326 1.255 1_545 S
O321 Fe311 1.976 . S
O321 C316 1.287 . S
O322 Fe308 1.996 . S
O322 C316 1.255 . S
C323 O327 1.295 . S
C323 O328 1.235 . S
O324 Fe309 1.976 . S
O324 C318 1.287 . S
O325 Fe311 1.996 . S
O325 C318 1.255 . S
C326 O319 1.287 1_565 S
C326 O320 1.255 1_565 S
O327 Fe309 2.002 . S
O327 C323 1.295 . S
O328 Fe311 1.997 . S
O328 C323 1.235 . S
C329 O312 1.295 . S
C329 O313 1.235 . S
Fe330 O332 1.918 . S
Fe330 O335 1.997 . S
Fe330 O336 2.002 . S
Fe330 O341 1.976 . S
Fe330 O344 1.996 . S
Fe331 O332 1.918 . S
Fe331 O339 1.997 . S
Fe331 O342 1.996 . S
Fe331 O346 1.976 . S
Fe331 O349 2.002 . S
O332 Fe330 1.918 . S
O332 Fe331 1.918 . S
O332 Fe333 1.918 . S
Fe333 O332 1.918 . S
Fe333 O334 2.002 . S
Fe333 O343 1.976 . S
Fe333 O347 1.996 . S
Fe333 O350 1.997 . S
O334 Fe333 2.002 . S
O334 C351 1.295 . S
O335 Fe330 1.997 . S
O335 C351 1.235 . S
O336 Fe330 2.002 . S
O336 C337 1.295 . S
C337 O336 1.295 . S
C337 O339 1.235 . S
C338 O343 1.287 . S
C338 O344 1.255 . S
O339 Fe331 1.997 . S
O339 C337 1.235 . S
C340 O346 1.287 . S
C340 O347 1.255 . S
O341 Fe330 1.976 . S
O341 C348 1.287 . S
O342 Fe331 1.996 . S
O342 C348 1.255 . S
O343 Fe333 1.976 . S
O343 C338 1.287 . S
O344 Fe330 1.996 . S
O344 C338 1.255 . S
C345 O349 1.295 . S
C345 O350 1.235 . S
O346 Fe331 1.976 . S
O346 C340 1.287 . S
O347 Fe333 1.996 . S
O347 C340 1.255 . S
C348 O341 1.287 . S
C348 O342 1.255 . S
O349 Fe331 2.002 . S
O349 C345 1.295 . S
O350 Fe333 1.997 . S
O350 C345 1.235 . S
C351 O334 1.295 . S
C351 O335 1.235 . S
C352 O364 1.241 1_554 S
C352 O365 1.280 1_554 S
C353 O366 1.277 . S
C353 O367 1.245 . S
C354 O378 1.256 . S
C354 O380 1.289 . S
Mg355 O356 1.926 1_455 S
Mg355 O365 1.984 1_455 S
Mg355 O367 1.988 . S
Mg355 O368 2.059 1_455 S
O356 Mg355 1.926 1_655 S
O356 Mg357 1.986 . S
O356 Mg358 1.916 1_655 S
Mg357 O356 1.986 . S
Mg357 O364 2.042 . S
Mg357 O366 2.041 1_655 S
Mg357 O372 2.038 . S
Mg357 O380 2.238 1_655 S
Mg358 O356 1.916 1_455 S
Mg358 O359 1.918 . S
Mg358 O369 2.106 1_455 S
Mg358 O371 2.073 1_455 S
Mg358 O380 2.107 . S
Mg358 O381 2.084 . S
O359 Mg358 1.918 . S
O359 Mg360 1.926 1_455 S
O359 Mg361 1.986 . S
Mg360 O359 1.926 1_655 S
Mg360 O374 1.984 1_655 S
Mg360 O377 1.988 . S
Mg360 O378 2.057 1_655 S
Mg361 O359 1.986 . S
Mg361 O369 2.238 1_455 S
Mg361 O373 2.042 . S
Mg361 O375 2.041 1_455 S
Mg361 O382 2.038 . S
C362 O368 1.251 . S
C362 O369 1.289 . S
C363 O381 1.245 . S
C363 O382 1.274 . S
O364 C352 1.241 1_556 S
O364 Mg357 2.042 . S
O365 C352 1.280 1_556 S
O365 Mg355 1.984 1_655 S
O366 C353 1.277 . S
O366 Mg357 2.041 1_455 S
O367 C353 1.245 . S
O367 Mg355 1.988 . S
O368 Mg355 2.059 1_655 S
O368 C362 1.251 . S
O369 Mg358 2.106 1_655 S
O369 Mg361 2.238 1_655 S
O369 C362 1.289 . S
C370 O371 1.245 . S
C370 O372 1.274 . S
O371 Mg358 2.073 1_655 S
O371 C370 1.245 . S
O372 Mg357 2.038 . S
O372 C370 1.274 . S
O373 Mg361 2.042 . S
O373 C376 1.241 . S
O374 Mg360 1.984 1_455 S
O374 C376 1.280 . S
O375 Mg361 2.041 1_655 S
O375 C379 1.277 . S
C376 O373 1.241 . S
C376 O374 1.280 . S
O377 Mg360 1.988 . S
O377 C379 1.245 . S
O378 C354 1.256 . S
O378 Mg360 2.057 1_455 S
C379 O375 1.277 . S
C379 O377 1.245 . S
O380 C354 1.289 . S
O380 Mg357 2.238 1_455 S
O380 Mg358 2.107 . S
O381 Mg358 2.084 . S
O381 C363 1.245 . S
O382 Mg361 2.038 . S
O382 C363 1.274 . S
C383 O395 1.241 . S
C383 O396 1.280 . S
C384 O397 1.277 . S
C384 O398 1.245 . S
C385 O409 1.247 . S
C385 O411 1.289 . S
Mg386 O387 1.926 . S
Mg386 O396 1.984 . S
Mg386 O398 1.988 . S
Mg386 O399 2.061 . S
O387 Mg386 1.926 . S
O387 Mg388 1.986 . S
O387 Mg389 1.917 . S
Mg388 O387 1.986 . S
Mg388 O395 2.042 . S
Mg388 O397 2.041 . S
Mg388 O403 2.038 . S
Mg388 O411 2.238 . S
Mg389 O387 1.917 . S
Mg389 O390 1.917 . S
Mg389 O400 2.106 . S
Mg389 O402 2.079 . S
Mg389 O411 2.106 . S
Mg389 O412 2.079 . S
O390 Mg389 1.917 . S
O390 Mg391 1.926 . S
O390 Mg392 1.986 . S
Mg391 O390 1.926 . S
Mg391 O405 1.984 . S
Mg391 O408 1.988 . S
Mg391 O409 2.061 . S
Mg392 O390 1.986 . S
Mg392 O400 2.238 . S
Mg392 O404 2.042 . S
Mg392 O406 2.041 . S
Mg392 O413 2.038 . S
C393 O399 1.247 . S
C393 O400 1.289 . S
C394 O412 1.245 . S
C394 O413 1.274 . S
O395 C383 1.241 . S
O395 Mg388 2.042 . S
O396 C383 1.280 . S
O396 Mg386 1.984 . S
O397 C384 1.277 . S
O397 Mg388 2.041 . S
O398 C384 1.245 . S
O398 Mg386 1.988 . S
O399 Mg386 2.061 . S
O399 C393 1.247 . S
O400 Mg389 2.106 . S
O400 Mg392 2.238 . S
O400 C393 1.289 . S
C401 O402 1.245 . S
C401 O403 1.274 . S
O402 Mg389 2.079 . S
O402 C401 1.245 . S
O403 Mg388 2.038 . S
O403 C401 1.274 . S
O404 Mg392 2.042 . S
O404 C407 1.241 . S
O405 Mg391 1.984 . S
O405 C407 1.280 . S
O406 Mg392 2.041 . S
O406 C410 1.277 . S
C407 O404 1.241 . S
C407 O405 1.280 . S
O408 Mg391 1.988 . S
O408 C410 1.245 . S
O409 C385 1.247 . S
O409 Mg391 2.061 . S
C410 O406 1.277 . S
C410 O408 1.245 . S
O411 C385 1.289 . S
O411 Mg388 2.238 . S
O411 Mg389 2.106 . S
O412 Mg389 2.079 . S
O412 C394 1.245 . S
O413 Mg392 2.038 . S
O413 C394 1.274 . S
C414 O426 1.241 . S
C414 O427 1.280 . S
C415 O428 1.277 . S
C415 O429 1.245 . S
C416 O440 1.247 . S
C416 O442 1.289 . S
Mg417 O418 1.926 1_455 S
Mg417 O427 1.984 1_455 S
Mg417 O429 1.988 . S
Mg417 O430 2.061 . S
O418 Mg417 1.926 1_655 S
O418 Mg419 1.986 . S
O418 Mg420 1.917 1_655 S
Mg419 O418 1.986 . S
Mg419 O426 2.042 . S
Mg419 O428 2.041 1_655 S
Mg419 O434 2.038 . S
Mg419 O442 2.238 1_655 S
Mg420 O418 1.917 1_455 S
Mg420 O421 1.917 . S
Mg420 O431 2.104 1_455 S
Mg420 O433 2.079 1_455 S
Mg420 O442 2.106 . S
Mg420 O443 2.079 . S
O421 Mg420 1.917 . S
O421 Mg422 1.926 1_455 S
O421 Mg423 1.986 . S
Mg422 O421 1.926 1_655 S
Mg422 O436 1.984 1_655 S
Mg422 O439 1.988 . S
Mg422 O440 2.061 1_655 S
Mg423 O421 1.986 . S
Mg423 O431 2.226 1_455 S
Mg423 O435 2.042 . S
Mg423 O437 2.041 1_455 S
Mg423 O444 2.038 . S
C424 O430 1.247 1_655 S
C424 O431 1.294 . S
C425 O443 1.245 . S
C425 O444 1.274 . S
O426 C414 1.241 . S
O426 Mg419 2.042 . S
O427 C414 1.280 . S
O427 Mg417 1.984 1_655 S
O428 C415 1.277 . S
O428 Mg419 2.041 1_455 S
O429 C415 1.245 . S
O429 Mg417 1.988 . S
O430 Mg417 2.061 . S
O430 C424 1.247 1_455 S
O431 Mg420 2.104 1_655 S
O431 Mg423 2.226 1_655 S
O431 C424 1.294 . S
C432 O433 1.245 . S
C432 O434 1.274 . S
O433 Mg420 2.079 1_655 S
O433 C432 1.245 . S
O434 Mg419 2.038 . S
O434 C432 1.274 . S
O435 Mg423 2.042 . S
O435 C438 1.241 . S
O436 Mg422 1.984 1_455 S
O436 C438 1.280 . S
O437 Mg423 2.041 1_655 S
O437 C441 1.277 . S
C438 O435 1.241 . S
C438 O436 1.280 . S
O439 Mg422 1.988 . S
O439 C441 1.245 . S
O440 C416 1.247 . S
O440 Mg422 2.061 1_455 S
C441 O437 1.277 . S
C441 O439 1.245 . S
O442 C416 1.289 . S
O442 Mg419 2.238 1_455 S
O442 Mg420 2.106 . S
O443 Mg420 2.079 . S
O443 C425 1.245 . S
O444 Mg423 2.038 . S
O444 C425 1.274 . S
C445 O457 1.241 . S
C445 O458 1.280 . S
C446 O459 1.277 . S
C446 O460 1.245 . S
C447 O471 1.247 . S
C447 O473 1.289 . S
Mg448 O449 1.926 1_565 S
Mg448 O458 1.984 1_565 S
Mg448 O460 1.988 . S
Mg448 O461 2.061 1_565 S
O449 Mg448 1.926 1_545 S
O449 Mg450 1.986 . S
O449 Mg451 1.920 . S
Mg450 O449 1.986 . S
Mg450 O457 2.042 . S
Mg450 O459 2.041 1_545 S
Mg450 O465 2.038 . S
Mg450 O473 2.238 1_545 S
Mg451 O449 1.920 . S
Mg451 O452 1.914 1_545 S
Mg451 O462 2.107 . S
Mg451 O464 2.092 . S
Mg451 O473 2.106 1_545 S
Mg451 O474 2.066 1_545 S
O452 Mg451 1.914 1_565 S
O452 Mg453 1.926 1_565 S
O452 Mg454 1.986 . S
Mg453 O452 1.926 1_545 S
Mg453 O467 1.984 1_545 S
Mg453 O470 1.988 . S
Mg453 O471 2.061 1_545 S
Mg454 O452 1.986 . S
Mg454 O462 2.238 1_565 S
Mg454 O466 2.042 . S
Mg454 O468 2.041 1_565 S
Mg454 O475 2.038 . S
C455 O461 1.247 . S
C455 O462 1.289 . S
C456 O474 1.245 . S
C456 O475 1.274 . S
O457 C445 1.241 . S
O457 Mg450 2.042 . S
O458 C445 1.280 . S
O458 Mg448 1.984 1_545 S
O459 C446 1.277 . S
O459 Mg450 2.041 1_565 S
O460 C446 1.245 . S
O460 Mg448 1.988 . S
O461 Mg448 2.061 1_545 S
O461 C455 1.247 . S
O462 Mg451 2.107 . S
O462 Mg454 2.238 1_545 S
O462 C455 1.289 . S
C463 O464 1.245 . S
C463 O465 1.274 . S
O464 Mg451 2.092 . S
O464 C463 1.245 . S
O465 Mg450 2.038 . S
O465 C463 1.274 . S
O466 Mg454 2.042 . S
O466 C469 1.241 . S
O467 Mg453 1.984 1_565 S
O467 C469 1.280 . S
O468 Mg454 2.041 1_545 S
O468 C472 1.277 . S
C469 O466 1.241 . S
C469 O467 1.280 . S
O470 Mg453 1.988 . S
O470 C472 1.245 . S
O471 C447 1.247 . S
O471 Mg453 2.061 1_565 S
C472 O468 1.277 . S
C472 O470 1.245 . S
O473 C447 1.289 . S
O473 Mg450 2.238 1_565 S
O473 Mg451 2.106 1_565 S
O474 Mg451 2.066 1_565 S
O474 C456 1.245 . S
O475 Mg454 2.038 . S
O475 C456 1.274 . S
C476 O488 1.241 1_545 S
C476 O489 1.280 1_545 S
C477 O490 1.277 . S
C477 O491 1.245 . S
C478 O502 1.247 . S
C478 O504 1.289 . S
Mg479 O480 1.926 1_554 S
Mg479 O489 1.984 1_554 S
Mg479 O491 1.988 . S
Mg479 O492 2.061 . S
O480 Mg479 1.926 1_556 S
O480 Mg481 1.986 . S
O480 Mg482 1.917 1_556 S
Mg481 O480 1.986 . S
Mg481 O488 2.042 . S
Mg481 O490 2.041 1_556 S
Mg481 O496 2.038 . S
Mg481 O504 2.238 . S
Mg482 O480 1.917 1_554 S
Mg482 O483 1.917 . S
Mg482 O493 2.106 . S
Mg482 O495 2.079 1_554 S
Mg482 O504 2.106 1_554 S
Mg482 O505 2.079 . S
O483 Mg482 1.917 . S
O483 Mg484 1.926 1_554 S
O483 Mg485 1.986 . S
Mg484 O483 1.926 1_556 S
Mg484 O498 1.984 1_556 S
Mg484 O501 1.988 . S
Mg484 O502 2.061 . S
Mg485 O483 1.986 . S
Mg485 O493 2.238 . S
Mg485 O497 2.042 . S
Mg485 O499 2.041 . S
Mg485 O506 2.038 . S
C486 O492 1.247 . S
C486 O493 1.289 . S
C487 O505 1.245 . S
C487 O506 1.274 . S
O488 C476 1.241 1_565 S
O488 Mg481 2.042 . S
O489 C476 1.280 1_565 S
O489 Mg479 1.984 1_556 S
O490 C477 1.277 . S
O490 Mg481 2.041 1_554 S
O491 C477 1.245 . S
O491 Mg479 1.988 . S
O492 Mg479 2.061 . S
O492 C486 1.247 . S
O493 Mg482 2.106 . S
O493 Mg485 2.238 . S
O493 C486 1.289 . S
C494 O495 1.245 . S
C494 O496 1.274 . S
O495 Mg482 2.079 1_556 S
O495 C494 1.245 . S
O496 Mg481 2.038 . S
O496 C494 1.274 . S
O497 Mg485 2.042 . S
O497 C500 1.241 . S
O498 Mg484 1.984 1_554 S
O498 C500 1.280 . S
O499 Mg485 2.041 . S
O499 C503 1.277 1_554 S
C500 O497 1.241 . S
C500 O498 1.280 . S
O501 Mg484 1.988 . S
O501 C503 1.245 . S
O502 C478 1.247 . S
O502 Mg484 2.061 . S
C503 O499 1.277 1_556 S
C503 O501 1.245 . S
O504 C478 1.289 . S
O504 Mg481 2.238 . S
O504 Mg482 2.106 1_556 S
O505 Mg482 2.079 . S
O505 C487 1.245 . S
O506 Mg485 2.038 . S
O506 C487 1.274 . S
C507 O519 1.241 . S
C507 O520 1.280 . S
C508 O521 1.277 . S
C508 O522 1.245 . S
C509 O533 1.247 . S
C509 O535 1.289 . S
Mg510 O511 1.926 . S
Mg510 O520 1.984 . S
Mg510 O522 1.988 . S
Mg510 O523 2.061 . S
O511 Mg510 1.926 . S
O511 Mg512 1.986 . S
O511 Mg513 1.917 . S
Mg512 O511 1.986 . S
Mg512 O519 2.042 . S
Mg512 O521 2.041 . S
Mg512 O527 2.038 . S
Mg512 O535 2.238 . S
Mg513 O511 1.917 . S
Mg513 O514 1.917 . S
Mg513 O524 2.106 . S
Mg513 O526 2.079 . S
Mg513 O535 2.106 . S
Mg513 O536 2.079 . S
O514 Mg513 1.917 . S
O514 Mg515 1.926 . S
O514 Mg516 1.986 . S
Mg515 O514 1.926 . S
Mg515 O529 1.984 . S
Mg515 O532 1.988 . S
Mg515 O533 2.061 . S
Mg516 O514 1.986 . S
Mg516 O524 2.238 . S
Mg516 O528 2.042 . S
Mg516 O530 2.041 . S
Mg516 O537 2.038 . S
C517 O523 1.247 . S
C517 O524 1.289 . S
C518 O536 1.245 . S
C518 O537 1.274 . S
O519 C507 1.241 . S
O519 Mg512 2.042 . S
O520 C507 1.280 . S
O520 Mg510 1.984 . S
O521 C508 1.277 . S
O521 Mg512 2.041 . S
O522 C508 1.245 . S
O522 Mg510 1.988 . S
O523 Mg510 2.061 . S
O523 C517 1.247 . S
O524 Mg513 2.106 . S
O524 Mg516 2.238 . S
O524 C517 1.289 . S
C525 O526 1.245 . S
C525 O527 1.274 . S
O526 Mg513 2.079 . S
O526 C525 1.245 . S
O527 Mg512 2.038 . S
O527 C525 1.274 . S
O528 Mg516 2.042 . S
O528 C531 1.241 . S
O529 Mg515 1.984 . S
O529 C531 1.280 . S
O530 Mg516 2.041 . S
O530 C534 1.277 . S
C531 O528 1.241 . S
C531 O529 1.280 . S
O532 Mg515 1.988 . S
O532 C534 1.245 . S
O533 C509 1.247 . S
O533 Mg515 2.061 . S
C534 O530 1.277 . S
C534 O532 1.245 . S
O535 C509 1.289 . S
O535 Mg512 2.238 . S
O535 Mg513 2.106 . S
O536 Mg513 2.079 . S
O536 C518 1.245 . S
O537 Mg516 2.038 . S
O537 C518 1.274 . S
C538 O550 1.241 . S
C538 O551 1.280 . S
C539 O552 1.277 . S
C539 O553 1.245 . S
C540 O564 1.240 1_556 S
C540 O566 1.289 . S
Mg541 O542 1.926 1_556 S
Mg541 O551 1.984 1_556 S
Mg541 O553 1.988 . S
Mg541 O554 2.065 . S
O542 Mg541 1.926 1_554 S
O542 Mg543 1.986 . S
O542 Mg544 1.917 . S
Mg543 O542 1.986 . S
Mg543 O550 2.042 . S
Mg543 O552 2.041 1_554 S
Mg543 O558 2.038 . S
Mg543 O566 2.238 1_554 S
Mg544 O542 1.917 . S
Mg544 O545 1.917 1_554 S
Mg544 O555 2.106 . S
Mg544 O557 2.079 . S
Mg544 O566 2.106 1_554 S
Mg544 O567 2.079 1_554 S
O545 Mg544 1.917 1_556 S
O545 Mg546 1.926 1_556 S
O545 Mg547 1.986 . S
Mg546 O545 1.926 1_554 S
Mg546 O560 1.984 1_554 S
Mg546 O563 1.988 . S
Mg546 O564 2.066 . S
Mg547 O545 1.986 . S
Mg547 O555 2.238 1_556 S
Mg547 O559 2.042 . S
Mg547 O561 2.041 1_556 S
Mg547 O568 2.038 . S
C548 O554 1.242 1_554 S
C548 O555 1.289 . S
C549 O567 1.245 . S
C549 O568 1.274 . S
O550 C538 1.241 . S
O550 Mg543 2.042 . S
O551 C538 1.280 . S
O551 Mg541 1.984 1_554 S
O552 C539 1.277 . S
O552 Mg543 2.041 1_556 S
O553 C539 1.245 . S
O553 Mg541 1.988 . S
O554 Mg541 2.065 . S
O554 C548 1.242 1_556 S
O555 Mg544 2.106 . S
O555 Mg547 2.238 1_554 S
O555 C548 1.289 . S
C556 O557 1.245 . S
C556 O558 1.274 . S
O557 Mg544 2.079 . S
O557 C556 1.245 . S
O558 Mg543 2.038 . S
O558 C556 1.274 . S
O559 Mg547 2.042 . S
O559 C562 1.241 . S
O560 Mg546 1.984 1_556 S
O560 C562 1.280 . S
O561 Mg547 2.041 1_554 S
O561 C565 1.277 . S
C562 O559 1.241 . S
C562 O560 1.280 . S
O563 Mg546 1.988 . S
O563 C565 1.245 . S
O564 C540 1.240 1_554 S
O564 Mg546 2.066 . S
C565 O561 1.277 . S
C565 O563 1.245 . S
O566 C540 1.289 . S
O566 Mg543 2.238 1_556 S
O566 Mg544 2.106 1_556 S
O567 Mg544 2.079 1_556 S
O567 C549 1.245 . S
O568 Mg547 2.038 . S
O568 C549 1.274 . S
C569 O581 1.241 . S
C569 O582 1.280 . S
C570 O583 1.277 . S
C570 O584 1.245 . S
C571 O595 1.247 . S
C571 O597 1.289 . S
Mg572 O573 1.926 . S
Mg572 O582 1.984 . S
Mg572 O584 1.988 . S
Mg572 O585 2.061 . S
O573 Mg572 1.926 . S
O573 Mg574 1.986 . S
O573 Mg575 1.917 . S
Mg574 O573 1.986 . S
Mg574 O581 2.042 . S
Mg574 O583 2.041 . S
Mg574 O589 2.038 . S
Mg574 O597 2.238 . S
Mg575 O573 1.917 . S
Mg575 O576 1.917 . S
Mg575 O586 2.106 . S
Mg575 O588 2.079 . S
Mg575 O597 2.106 . S
Mg575 O598 2.079 . S
O576 Mg575 1.917 . S
O576 Mg577 1.926 . S
O576 Mg578 1.986 . S
Mg577 O576 1.926 . S
Mg577 O591 1.984 . S
Mg577 O594 1.988 . S
Mg577 O595 2.061 . S
Mg578 O576 1.986 . S
Mg578 O586 2.238 . S
Mg578 O590 2.042 . S
Mg578 O592 2.041 . S
Mg578 O599 2.038 . S
C579 O585 1.247 . S
C579 O586 1.289 . S
C580 O598 1.245 . S
C580 O599 1.274 . S
O581 C569 1.241 . S
O581 Mg574 2.042 . S
O582 C569 1.280 . S
O582 Mg572 1.984 . S
O583 C570 1.277 . S
O583 Mg574 2.041 . S
O584 C570 1.245 . S
O584 Mg572 1.988 . S
O585 Mg572 2.061 . S
O585 C579 1.247 . S
O586 Mg575 2.106 . S
O586 Mg578 2.238 . S
O586 C579 1.289 . S
C587 O588 1.245 . S
C587 O589 1.274 . S
O588 Mg575 2.079 . S
O588 C587 1.245 . S
O589 Mg574 2.038 . S
O589 C587 1.274 . S
O590 Mg578 2.042 . S
O590 C593 1.241 . S
O591 Mg577 1.984 . S
O591 C593 1.280 . S
O592 Mg578 2.041 . S
O592 C596 1.277 . S
C593 O590 1.241 . S
C593 O591 1.280 . S
O594 Mg577 1.988 . S
O594 C596 1.245 . S
O595 C571 1.247 . S
O595 Mg577 2.061 . S
C596 O592 1.277 . S
C596 O594 1.245 . S
O597 C571 1.289 . S
O597 Mg574 2.238 . S
O597 Mg575 2.106 . S
O598 Mg575 2.079 . S
O598 C580 1.245 . S
O599 Mg578 2.038 . S
O599 C580 1.274 . S
C600 O612 1.241 . S
C600 O613 1.280 . S
C601 O614 1.277 . S
C601 O615 1.245 . S
C602 O626 1.247 . S
C602 O628 1.289 . S
Mg603 O604 1.926 . S
Mg603 O613 1.984 . S
Mg603 O615 1.988 . S
Mg603 O616 2.061 . S
O604 Mg603 1.926 . S
O604 Mg605 1.986 . S
O604 Mg606 1.917 . S
Mg605 O604 1.986 . S
Mg605 O612 2.042 . S
Mg605 O614 2.041 . S
Mg605 O620 2.038 . S
Mg605 O628 2.238 . S
Mg606 O604 1.917 . S
Mg606 O607 1.917 . S
Mg606 O617 2.106 . S
Mg606 O619 2.079 . S
Mg606 O628 2.106 . S
Mg606 O629 2.079 . S
O607 Mg606 1.917 . S
O607 Mg608 1.926 . S
O607 Mg609 1.986 . S
Mg608 O607 1.926 . S
Mg608 O622 1.984 . S
Mg608 O625 1.988 . S
Mg608 O626 2.061 . S
Mg609 O607 1.986 . S
Mg609 O617 2.238 . S
Mg609 O621 2.042 . S
Mg609 O623 2.041 . S
Mg609 O630 2.038 . S
C610 O616 1.247 . S
C610 O617 1.289 . S
C611 O629 1.245 . S
C611 O630 1.274 . S
O612 C600 1.241 . S
O612 Mg605 2.042 . S
O613 C600 1.280 . S
O613 Mg603 1.984 . S
O614 C601 1.277 . S
O614 Mg605 2.041 . S
O615 C601 1.245 . S
O615 Mg603 1.988 . S
O616 Mg603 2.061 . S
O616 C610 1.247 . S
O617 Mg606 2.106 . S
O617 Mg609 2.238 . S
O617 C610 1.289 . S
C618 O619 1.245 . S
C618 O620 1.274 . S
O619 Mg606 2.079 . S
O619 C618 1.245 . S
O620 Mg605 2.038 . S
O620 C618 1.274 . S
O621 Mg609 2.042 . S
O621 C624 1.241 . S
O622 Mg608 1.984 . S
O622 C624 1.280 . S
O623 Mg609 2.041 . S
O623 C627 1.277 . S
C624 O621 1.241 . S
C624 O622 1.280 . S
O625 Mg608 1.988 . S
O625 C627 1.245 . S
O626 C602 1.247 . S
O626 Mg608 2.061 . S
C627 O623 1.277 . S
C627 O625 1.245 . S
O628 C602 1.289 . S
O628 Mg605 2.238 . S
O628 Mg606 2.106 . S
O629 Mg606 2.079 . S
O629 C611 1.245 . S
O630 Mg609 2.038 . S
O630 C611 1.274 . S
C631 O643 1.241 . S
C631 O644 1.280 . S
C632 O645 1.277 . S
C632 O646 1.245 . S
C633 O657 1.247 . S
C633 O659 1.289 . S
Mg634 O635 1.926 . S
Mg634 O644 1.984 . S
Mg634 O646 1.988 . S
Mg634 O647 2.061 . S
O635 Mg634 1.926 . S
O635 Mg636 1.986 . S
O635 Mg637 1.917 . S
Mg636 O635 1.986 . S
Mg636 O643 2.042 . S
Mg636 O645 2.041 . S
Mg636 O651 2.038 . S
Mg636 O659 2.238 . S
Mg637 O635 1.917 . S
Mg637 O638 1.917 . S
Mg637 O648 2.106 . S
Mg637 O650 2.079 . S
Mg637 O659 2.106 . S
Mg637 O660 2.079 . S
O638 Mg637 1.917 . S
O638 Mg639 1.926 . S
O638 Mg640 1.986 . S
Mg639 O638 1.926 . S
Mg639 O653 1.984 . S
Mg639 O656 1.988 . S
Mg639 O657 2.061 . S
Mg640 O638 1.986 . S
Mg640 O648 2.238 . S
Mg640 O652 2.042 . S
Mg640 O654 2.041 . S
Mg640 O661 2.038 . S
C641 O647 1.247 . S
C641 O648 1.289 . S
C642 O660 1.245 . S
C642 O661 1.274 . S
O643 C631 1.241 . S
O643 Mg636 2.042 . S
O644 C631 1.280 . S
O644 Mg634 1.984 . S
O645 C632 1.277 . S
O645 Mg636 2.041 . S
O646 C632 1.245 . S
O646 Mg634 1.988 . S
O647 Mg634 2.061 . S
O647 C641 1.247 . S
O648 Mg637 2.106 . S
O648 Mg640 2.238 . S
O648 C641 1.289 . S
C649 O650 1.245 . S
C649 O651 1.274 . S
O650 Mg637 2.079 . S
O650 C649 1.245 . S
O651 Mg636 2.038 . S
O651 C649 1.274 . S
O652 Mg640 2.042 . S
O652 C655 1.241 . S
O653 Mg639 1.984 . S
O653 C655 1.280 . S
O654 Mg640 2.041 . S
O654 C658 1.277 . S
C655 O652 1.241 . S
C655 O653 1.280 . S
O656 Mg639 1.988 . S
O656 C658 1.245 . S
O657 C633 1.247 . S
O657 Mg639 2.061 . S
C658 O654 1.277 . S
C658 O656 1.245 . S
O659 C633 1.289 . S
O659 Mg636 2.238 . S
O659 Mg637 2.106 . S
O660 Mg637 2.079 . S
O660 C642 1.245 . S
O661 Mg640 2.038 . S
O661 C642 1.274 . S
C662 O674 1.241 . S
C662 O675 1.280 . S
C663 O676 1.277 . S
C663 O677 1.245 . S
C664 O688 1.247 . S
C664 O690 1.289 . S
Mg665 O666 1.926 1_565 S
Mg665 O675 1.984 1_565 S
Mg665 O677 1.988 . S
Mg665 O678 2.061 1_565 S
O666 Mg665 1.926 1_545 S
O666 Mg667 1.986 . S
O666 Mg668 1.921 . S
Mg667 O666 1.986 . S
Mg667 O674 2.042 . S
Mg667 O676 2.041 1_545 S
Mg667 O682 2.038 . S
Mg667 O690 2.238 1_545 S
Mg668 O666 1.921 . S
Mg668 O669 1.913 1_545 S
Mg668 O679 2.108 . S
Mg668 O681 2.098 . S
Mg668 O690 2.105 1_545 S
Mg668 O691 2.059 1_545 S
O669 Mg668 1.913 1_565 S
O669 Mg670 1.926 1_565 S
O669 Mg671 1.986 . S
Mg670 O669 1.926 1_545 S
Mg670 O684 1.984 1_545 S
Mg670 O687 1.988 . S
Mg670 O688 2.061 1_545 S
Mg671 O669 1.986 . S
Mg671 O679 2.238 1_565 S
Mg671 O683 2.042 . S
Mg671 O685 2.041 1_565 S
Mg671 O692 2.038 . S
C672 O678 1.247 . S
C672 O679 1.289 . S
C673 O691 1.245 . S
C673 O692 1.274 . S
O674 C662 1.241 . S
O674 Mg667 2.042 . S
O675 C662 1.280 . S
O675 Mg665 1.984 1_545 S
O676 C663 1.277 . S
O676 Mg667 2.041 1_565 S
O677 C663 1.245 . S
O677 Mg665 1.988 . S
O678 Mg665 2.061 1_545 S
O678 C672 1.247 . S
O679 Mg668 2.108 . S
O679 Mg671 2.238 1_545 S
O679 C672 1.289 . S
C680 O681 1.245 . S
C680 O682 1.274 . S
O681 Mg668 2.098 . S
O681 C680 1.245 . S
O682 Mg667 2.038 . S
O682 C680 1.274 . S
O683 Mg671 2.042 . S
O683 C686 1.241 . S
O684 Mg670 1.984 1_565 S
O684 C686 1.280 . S
O685 Mg671 2.041 1_545 S
O685 C689 1.277 . S
C686 O683 1.241 . S
C686 O684 1.280 . S
O687 Mg670 1.988 . S
O687 C689 1.245 . S
O688 C664 1.247 . S
O688 Mg670 2.061 1_565 S
C689 O685 1.277 . S
C689 O687 1.245 . S
O690 C664 1.289 . S
O690 Mg667 2.238 1_565 S
O690 Mg668 2.105 1_565 S
O691 Mg668 2.059 1_565 S
O691 C673 1.245 . S
O692 Mg671 2.038 . S
O692 C673 1.274 . S
C693 O705 1.243 . S
C693 O706 1.281 . S
C694 O707 1.277 . S
C694 O708 1.245 . S
C695 O719 1.247 . S
C695 O721 1.289 . S
Mg696 O697 1.926 . S
Mg696 O706 1.984 . S
Mg696 O708 1.988 . S
Mg696 O709 2.061 . S
O697 Mg696 1.926 . S
O697 Mg698 1.986 . S
O697 Mg699 1.917 . S
Mg698 O697 1.986 . S
Mg698 O705 2.042 . S
Mg698 O707 2.041 . S
Mg698 O713 2.038 . S
Mg698 O721 2.238 . S
Mg699 O697 1.917 . S
Mg699 O700 1.917 . S
Mg699 O710 2.106 . S
Mg699 O712 2.079 . S
Mg699 O721 2.106 . S
Mg699 O722 2.079 . S
O700 Mg699 1.917 . S
O700 Mg701 1.926 . S
O700 Mg702 1.986 . S
Mg701 O700 1.926 . S
Mg701 O715 1.984 . S
Mg701 O718 1.988 . S
Mg701 O719 2.061 . S
Mg702 O700 1.986 . S
Mg702 O710 2.238 . S
Mg702 O714 2.042 . S
Mg702 O716 2.041 . S
Mg702 O723 2.038 . S
C703 O709 1.247 . S
C703 O710 1.289 . S
C704 O722 1.245 . S
C704 O723 1.274 . S
O705 C693 1.243 . S
O705 Mg698 2.042 . S
O706 C693 1.281 . S
O706 Mg696 1.984 . S
O707 C694 1.277 . S
O707 Mg698 2.041 . S
O708 C694 1.245 . S
O708 Mg696 1.988 . S
O709 Mg696 2.061 . S
O709 C703 1.247 . S
O710 Mg699 2.106 . S
O710 Mg702 2.238 . S
O710 C703 1.289 . S
C711 O712 1.245 . S
C711 O713 1.274 . S
O712 Mg699 2.079 . S
O712 C711 1.245 . S
O713 Mg698 2.038 . S
O713 C711 1.274 . S
O714 Mg702 2.042 . S
O714 C717 1.241 . S
O715 Mg701 1.984 . S
O715 C717 1.280 . S
O716 Mg702 2.041 . S
O716 C720 1.277 . S
C717 O714 1.241 . S
C717 O715 1.280 . S
O718 Mg701 1.988 . S
O718 C720 1.245 . S
O719 C695 1.247 . S
O719 Mg701 2.061 . S
C720 O716 1.277 . S
C720 O718 1.245 . S
O721 C695 1.289 . S
O721 Mg698 2.238 . S
O721 Mg699 2.106 . S
O722 Mg699 2.079 . S
O722 C704 1.245 . S
O723 Mg702 2.038 . S
O723 C704 1.274 . S
C724 C725 1.369 . S
C724 C726 1.419 . S
C724 H728 0.930 . S
C725 C724 1.369 . S
C725 C734 1.429 . S
C726 C724 1.419 . S
C726 C727 1.363 . S
C726 H729 0.929 . S
C727 C726 1.363 . S
C727 C733 1.428 . S
H728 C724 0.930 . S
H729 C726 0.929 . S
S730 N731 1.613 1_655 S
S730 N732 1.610 1_655 S
N731 S730 1.613 1_455 S
N731 C734 1.350 . S
N732 S730 1.610 1_455 S
N732 C733 1.351 . S
C733 C727 1.428 . S
C733 N732 1.351 . S
C733 C734 1.434 . S
C734 C725 1.429 . S
C734 N731 1.350 . S
C734 C733 1.434 . S
C735 C736 1.369 . S
C735 C737 1.419 . S
C735 H739 0.930 . S
C736 C735 1.369 . S
C736 C745 1.429 . S
C737 C735 1.419 . S
C737 C738 1.363 . S
C737 H740 0.929 . S
C738 C737 1.363 . S
C738 C744 1.428 . S
H739 C735 0.930 . S
H740 C737 0.929 . S
S741 N742 1.613 . S
S741 N743 1.610 . S
N742 S741 1.613 . S
N742 C745 1.350 . S
N743 S741 1.610 . S
N743 C744 1.351 . S
C744 C738 1.428 . S
C744 N743 1.351 . S
C744 C745 1.434 . S
C745 C736 1.429 . S
C745 N742 1.350 . S
C745 C744 1.434 . S
C746 C747 1.369 . S
C746 C748 1.419 . S
C746 H750 0.930 . S
C747 C746 1.369 . S
C747 C756 1.429 . S
C748 C746 1.419 . S
C748 C749 1.363 . S
C748 H751 0.929 . S
C749 C748 1.363 . S
C749 C755 1.428 . S
H750 C746 0.930 . S
H751 C748 0.929 . S
S752 N753 1.613 . S
S752 N754 1.610 . S
N753 S752 1.613 . S
N753 C756 1.350 . S
N754 S752 1.610 . S
N754 C755 1.351 . S
C755 C749 1.428 . S
C755 N754 1.351 . S
C755 C756 1.434 . S
C756 C747 1.429 . S
C756 N753 1.350 . S
C756 C755 1.434 . S
C757 C758 1.369 . S
C757 C759 1.419 . S
C757 H761 0.930 . S
C758 C757 1.369 . S
C758 C767 1.429 . S
C759 C757 1.419 . S
C759 C760 1.363 . S
C759 H762 0.929 . S
C760 C759 1.363 . S
C760 C766 1.428 . S
H761 C757 0.930 . S
H762 C759 0.929 . S
S763 N764 1.613 . S
S763 N765 1.610 . S
N764 S763 1.613 . S
N764 C767 1.350 . S
N765 S763 1.610 . S
N765 C766 1.351 . S
C766 C760 1.428 . S
C766 N765 1.351 . S
C766 C767 1.434 . S
C767 C758 1.429 . S
C767 N764 1.350 . S
C767 C766 1.434 . S
C768 C769 1.369 . S
C768 C770 1.419 . S
C768 H772 0.930 . S
C769 C768 1.369 . S
C769 C778 1.429 . S
C770 C768 1.419 . S
C770 C771 1.363 . S
C770 H773 0.929 . S
C771 C770 1.363 . S
C771 C777 1.428 . S
H772 C768 0.930 . S
H773 C770 0.929 . S
S774 N775 1.613 . S
S774 N776 1.610 . S
N775 S774 1.613 . S
N775 C778 1.350 . S
N776 S774 1.610 . S
N776 C777 1.351 . S
C777 C771 1.428 . S
C777 N776 1.351 . S
C777 C778 1.434 . S
C778 C769 1.429 . S
C778 N775 1.350 . S
C778 C777 1.434 . S
C779 C780 1.369 . S
C779 C781 1.419 . S
C779 H783 0.930 . S
C780 C779 1.369 . S
C780 C789 1.429 . S
C781 C779 1.419 . S
C781 C782 1.363 . S
C781 H784 0.929 . S
C782 C781 1.363 . S
C782 C788 1.428 . S
H783 C779 0.930 . S
H784 C781 0.929 . S
S785 N786 1.613 . S
S785 N787 1.610 . S
N786 S785 1.613 . S
N786 C789 1.350 . S
N787 S785 1.610 . S
N787 C788 1.351 . S
C788 C782 1.428 . S
C788 N787 1.351 . S
C788 C789 1.434 . S
C789 C780 1.429 . S
C789 N786 1.350 . S
C789 C788 1.434 . S
C790 C791 1.369 . S
C790 C792 1.419 . S
C790 H794 0.930 . S
C791 C790 1.369 . S
C791 C800 1.429 . S
C792 C790 1.419 . S
C792 C793 1.363 . S
C792 H795 0.929 . S
C793 C792 1.363 . S
C793 C799 1.428 . S
H794 C790 0.930 . S
H795 C792 0.929 . S
S796 N797 1.613 . S
S796 N798 1.610 . S
N797 S796 1.613 . S
N797 C800 1.350 . S
N798 S796 1.610 . S
N798 C799 1.351 . S
C799 C793 1.428 . S
C799 N798 1.351 . S
C799 C800 1.434 . S
C800 C791 1.429 . S
C800 N797 1.350 . S
C800 C799 1.434 . S
C801 C802 1.369 . S
C801 C803 1.419 . S
C801 H805 0.930 . S
C802 C801 1.369 . S
C802 C811 1.429 . S
C803 C801 1.419 . S
C803 C804 1.363 . S
C803 H806 0.929 . S
C804 C803 1.363 . S
C804 C810 1.428 . S
H805 C801 0.930 . S
H806 C803 0.929 . S
S807 N808 1.613 . S
S807 N809 1.610 . S
N808 S807 1.613 . S
N808 C811 1.350 . S
N809 S807 1.610 . S
N809 C810 1.351 . S
C810 C804 1.428 . S
C810 N809 1.351 . S
C810 C811 1.434 . S
C811 C802 1.429 . S
C811 N808 1.350 . S
C811 C810 1.434 . S
C812 C813 1.369 . S
C812 C814 1.419 . S
C812 H816 0.930 . S
C813 C812 1.369 . S
C813 C822 1.429 . S
C814 C812 1.419 . S
C814 C815 1.363 . S
C814 H817 0.929 . S
C815 C814 1.363 . S
C815 C821 1.428 . S
H816 C812 0.930 . S
H817 C814 0.929 . S
S818 N819 1.613 . S
S818 N820 1.610 . S
N819 S818 1.613 . S
N819 C822 1.350 . S
N820 S818 1.610 . S
N820 C821 1.351 . S
C821 C815 1.428 . S
C821 N820 1.351 . S
C821 C822 1.434 . S
C822 C813 1.429 . S
C822 N819 1.350 . S
C822 C821 1.434 . S
C823 C824 1.369 . S
C823 C825 1.419 . S
C823 H827 0.930 . S
C824 C823 1.369 . S
C824 C833 1.429 . S
C825 C823 1.419 . S
C825 C826 1.363 . S
C825 H828 0.929 . S
C826 C825 1.363 . S
C826 C832 1.428 . S
H827 C823 0.930 . S
H828 C825 0.929 . S
S829 N830 1.613 . S
S829 N831 1.610 . S
N830 S829 1.613 . S
N830 C833 1.350 . S
N831 S829 1.610 . S
N831 C832 1.351 . S
C832 C826 1.428 . S
C832 N831 1.351 . S
C832 C833 1.434 . S
C833 C824 1.429 . S
C833 N830 1.350 . S
C833 C832 1.434 . S
C834 C835 1.369 . S
C834 C836 1.419 . S
C834 H838 0.930 . S
C835 C834 1.369 . S
C835 C844 1.429 . S
C836 C834 1.419 . S
C836 C837 1.363 . S
C836 H839 0.929 . S
C837 C836 1.363 . S
C837 C843 1.428 . S
H838 C834 0.930 . S
H839 C836 0.929 . S
S840 N841 1.613 . S
S840 N842 1.610 . S
N841 S840 1.613 . S
N841 C844 1.350 . S
N842 S840 1.610 . S
N842 C843 1.351 . S
C843 C837 1.428 . S
C843 N842 1.351 . S
C843 C844 1.434 . S
C844 C835 1.429 . S
C844 N841 1.350 . S
C844 C843 1.434 . S
C845 C846 1.369 . S
C845 C847 1.419 . S
C845 H849 0.930 . S
C846 C845 1.369 . S
C846 C855 1.429 . S
C847 C845 1.419 . S
C847 C848 1.363 . S
C847 H850 0.929 . S
C848 C847 1.363 . S
C848 C854 1.428 . S
H849 C845 0.930 . S
H850 C847 0.929 . S
S851 N852 1.613 . S
S851 N853 1.610 . S
N852 S851 1.613 . S
N852 C855 1.350 . S
N853 S851 1.610 . S
N853 C854 1.351 . S
C854 C848 1.428 . S
C854 N853 1.351 . S
C854 C855 1.434 . S
C855 C846 1.429 . S
C855 N852 1.350 . S
C855 C854 1.434 . S
C856 C857 1.369 . S
C856 C858 1.419 . S
C856 H860 0.930 . S
C857 C856 1.369 . S
C857 C866 1.429 . S
C858 C856 1.419 . S
C858 C859 1.363 . S
C858 H861 0.929 . S
C859 C858 1.363 . S
C859 C865 1.428 . S
H860 C856 0.930 . S
H861 C858 0.929 . S
S862 N863 1.613 . S
S862 N864 1.610 . S
N863 S862 1.613 . S
N863 C866 1.350 . S
N864 S862 1.610 . S
N864 C865 1.351 . S
C865 C859 1.428 . S
C865 N864 1.351 . S
C865 C866 1.434 . S
C866 C857 1.429 . S
C866 N863 1.350 . S
C866 C865 1.434 . S
C867 C868 1.369 . S
C867 C869 1.419 . S
C867 H871 0.930 . S
C868 C867 1.369 . S
C868 C877 1.429 . S
C869 C867 1.419 . S
C869 C870 1.363 . S
C869 H872 0.929 . S
C870 C869 1.363 . S
C870 C876 1.428 . S
H871 C867 0.930 . S
H872 C869 0.929 . S
S873 N874 1.613 . S
S873 N875 1.610 . S
N874 S873 1.613 . S
N874 C877 1.350 . S
N875 S873 1.610 . S
N875 C876 1.351 . S
C876 C870 1.428 . S
C876 N875 1.351 . S
C876 C877 1.434 . S
C877 C868 1.429 . S
C877 N874 1.350 . S
C877 C876 1.434 . S
C878 C879 1.369 . S
C878 C880 1.419 . S
C878 H882 0.930 . S
C879 C878 1.369 . S
C879 C888 1.429 . S
C880 C878 1.419 . S
C880 C881 1.363 . S
C880 H883 0.929 . S
C881 C880 1.363 . S
C881 C887 1.428 . S
H882 C878 0.930 . S
H883 C880 0.929 . S
S884 N885 1.613 . S
S884 N886 1.610 . S
N885 S884 1.613 . S
N885 C888 1.350 . S
N886 S884 1.610 . S
N886 C887 1.351 . S
C887 C881 1.428 . S
C887 N886 1.351 . S
C887 C888 1.434 . S
C888 C879 1.429 . S
C888 N885 1.350 . S
C888 C887 1.434 . S
C889 C890 1.369 . S
C889 C891 1.419 . S
C889 H893 0.930 . S
C890 C889 1.369 . S
C890 C899 1.429 . S
C891 C889 1.419 . S
C891 C892 1.363 . S
C891 H894 0.929 . S
C892 C891 1.363 . S
C892 C898 1.428 . S
H893 C889 0.930 . S
H894 C891 0.929 . S
S895 N896 1.613 . S
S895 N897 1.610 . S
N896 S895 1.613 . S
N896 C899 1.350 . S
N897 S895 1.610 . S
N897 C898 1.351 . S
C898 C892 1.428 . S
C898 N897 1.351 . S
C898 C899 1.434 . S
C899 C890 1.429 . S
C899 N896 1.350 . S
C899 C898 1.434 . S
C900 C901 1.369 1_556 S
C900 C902 1.419 . S
C900 H904 0.930 . S
C901 C900 1.369 1_554 S
C901 C910 1.429 . S
C902 C900 1.419 . S
C902 C903 1.363 . S
C902 H905 0.929 . S
C903 C902 1.363 . S
C903 C909 1.428 1_556 S
H904 C900 0.930 . S
H905 C902 0.929 . S
S906 N907 1.613 . S
S906 N908 1.610 . S
N907 S906 1.613 . S
N907 C910 1.350 . S
N908 S906 1.610 . S
N908 C909 1.351 . S
C909 C903 1.428 1_554 S
C909 N908 1.351 . S
C909 C910 1.434 . S
C910 C901 1.429 . S
C910 N907 1.350 . S
C910 C909 1.434 . S
C911 C912 1.369 . S
C911 C913 1.419 . S
C911 H915 0.930 . S
C912 C911 1.369 . S
C912 C921 1.429 . S
C913 C911 1.419 . S
C913 C914 1.363 . S
C913 H916 0.929 . S
C914 C913 1.363 . S
C914 C920 1.428 . S
H915 C911 0.930 . S
H916 C913 0.929 . S
S917 N918 1.613 . S
S917 N919 1.610 . S
N918 S917 1.613 . S
N918 C921 1.350 . S
N919 S917 1.610 . S
N919 C920 1.351 . S
C920 C914 1.428 . S
C920 N919 1.351 . S
C920 C921 1.434 . S
C921 C912 1.429 . S
C921 N918 1.350 . S
C921 C920 1.434 . S
C922 C923 1.369 . S
C922 C924 1.419 . S
C922 H926 0.930 . S
C923 C922 1.369 . S
C923 C932 1.429 . S
C924 C922 1.419 . S
C924 C925 1.363 . S
C924 H927 0.929 . S
C925 C924 1.363 . S
C925 C931 1.428 . S
H926 C922 0.930 . S
H927 C924 0.929 . S
S928 N929 1.613 . S
S928 N930 1.610 . S
N929 S928 1.613 . S
N929 C932 1.350 . S
N930 S928 1.610 . S
N930 C931 1.351 . S
C931 C925 1.428 . S
C931 N930 1.351 . S
C931 C932 1.434 . S
C932 C923 1.429 . S
C932 N929 1.350 . S
C932 C931 1.434 . S
C933 C934 1.369 . S
C933 C935 1.419 . S
C933 H937 0.930 . S
C934 C933 1.369 . S
C934 C943 1.429 . S
C935 C933 1.419 . S
C935 C936 1.363 . S
C935 H938 0.929 . S
C936 C935 1.363 . S
C936 C942 1.428 . S
H937 C933 0.930 . S
H938 C935 0.929 . S
S939 N940 1.613 . S
S939 N941 1.610 . S
N940 S939 1.613 . S
N940 C943 1.350 . S
N941 S939 1.610 . S
N941 C942 1.351 . S
C942 C936 1.428 . S
C942 N941 1.351 . S
C942 C943 1.434 . S
C943 C934 1.429 . S
C943 N940 1.350 . S
C943 C942 1.434 . S
C944 C945 1.369 . S
C944 C946 1.419 . S
C944 H948 0.930 . S
C945 C944 1.369 . S
C945 C954 1.429 . S
C946 C944 1.419 . S
C946 C947 1.363 . S
C946 H949 0.929 . S
C947 C946 1.363 . S
C947 C953 1.428 . S
H948 C944 0.930 . S
H949 C946 0.929 . S
S950 N951 1.613 . S
S950 N952 1.610 . S
N951 S950 1.613 . S
N951 C954 1.350 . S
N952 S950 1.610 . S
N952 C953 1.351 . S
C953 C947 1.428 . S
C953 N952 1.351 . S
C953 C954 1.434 . S
C954 C945 1.429 . S
C954 N951 1.350 . S
C954 C953 1.434 . S
C955 C956 1.369 . S
C955 C957 1.419 . S
C955 H959 0.930 . S
C956 C955 1.369 . S
C956 C965 1.429 . S
C957 C955 1.419 . S
C957 C958 1.363 . S
C957 H960 0.929 . S
C958 C957 1.363 . S
C958 C964 1.428 . S
H959 C955 0.930 . S
H960 C957 0.929 . S
S961 N962 1.613 . S
S961 N963 1.610 . S
N962 S961 1.613 . S
N962 C965 1.350 . S
N963 S961 1.610 . S
N963 C964 1.351 . S
C964 C958 1.428 . S
C964 N963 1.351 . S
C964 C965 1.434 . S
C965 C956 1.429 . S
C965 N962 1.350 . S
C965 C964 1.434 . S
C966 C967 1.369 . S
C966 C968 1.419 . S
C966 H970 0.930 . S
C967 C966 1.369 . S
C967 C976 1.429 . S
C968 C966 1.419 . S
C968 C969 1.363 . S
C968 H971 0.929 . S
C969 C968 1.363 . S
C969 C975 1.428 . S
H970 C966 0.930 . S
H971 C968 0.929 . S
S972 N973 1.613 . S
S972 N974 1.610 . S
N973 S972 1.613 . S
N973 C976 1.350 . S
N974 S972 1.610 . S
N974 C975 1.351 . S
C975 C969 1.428 . S
C975 N974 1.351 . S
C975 C976 1.434 . S
C976 C967 1.429 . S
C976 N973 1.350 . S
C976 C975 1.434 . S
C977 C978 1.369 . S
C977 C979 1.419 . S
C977 H981 0.930 . S
C978 C977 1.369 . S
C978 C987 1.429 . S
C979 C977 1.419 . S
C979 C980 1.363 . S
C979 H982 0.929 . S
C980 C979 1.363 . S
C980 C986 1.428 . S
H981 C977 0.930 . S
H982 C979 0.929 . S
S983 N984 1.613 . S
S983 N985 1.610 . S
N984 S983 1.613 . S
N984 C987 1.350 . S
N985 S983 1.610 . S
N985 C986 1.351 . S
C986 C980 1.428 . S
C986 N985 1.351 . S
C986 C987 1.434 . S
C987 C978 1.429 . S
C987 N984 1.350 . S
C987 C986 1.434 . S
C988 C989 1.369 . S
C988 C990 1.419 . S
C988 H992 0.930 . S
C989 C988 1.369 . S
C989 C998 1.429 . S
C990 C988 1.419 . S
C990 C991 1.363 . S
C990 H993 0.929 . S
C991 C990 1.363 . S
C991 C997 1.428 . S
H992 C988 0.930 . S
H993 C990 0.929 . S
S994 N995 1.613 . S
S994 N996 1.610 . S
N995 S994 1.613 . S
N995 C998 1.350 . S
N996 S994 1.610 . S
N996 C997 1.351 . S
C997 C991 1.428 . S
C997 N996 1.351 . S
C997 C998 1.434 . S
C998 C989 1.429 . S
C998 N995 1.350 . S
C998 C997 1.434 . S
C999 C1000 1.369 . S
C999 C1001 1.419 . S
C999 H1003 0.930 . S
C1000 C999 1.369 . S
C1000 C1009 1.429 . S
C1001 C999 1.419 . S
C1001 C1002 1.363 . S
C1001 H1004 0.929 . S
C1002 C1001 1.363 . S
C1002 C1008 1.428 . S
H1003 C999 0.930 . S
H1004 C1001 0.929 . S
S1005 N1006 1.613 . S
S1005 N1007 1.610 . S
N1006 S1005 1.613 . S
N1006 C1009 1.350 . S
N1007 S1005 1.610 . S
N1007 C1008 1.351 . S
C1008 C1002 1.428 . S
C1008 N1007 1.351 . S
C1008 C1009 1.434 . S
C1009 C1000 1.429 . S
C1009 N1006 1.350 . S
C1009 C1008 1.434 . S
C1010 C1011 1.369 . S
C1010 C1012 1.419 . S
C1010 H1014 0.930 . S
C1011 C1010 1.369 . S
C1011 C1020 1.429 . S
C1012 C1010 1.419 . S
C1012 C1013 1.363 . S
C1012 H1015 0.929 . S
C1013 C1012 1.363 . S
C1013 C1019 1.428 . S
H1014 C1010 0.930 . S
H1015 C1012 0.929 . S
S1016 N1017 1.613 . S
S1016 N1018 1.610 . S
N1017 S1016 1.613 . S
N1017 C1020 1.350 . S
N1018 S1016 1.610 . S
N1018 C1019 1.351 . S
C1019 C1013 1.428 . S
C1019 N1018 1.351 . S
C1019 C1020 1.434 . S
C1020 C1011 1.429 . S
C1020 N1017 1.350 . S
C1020 C1019 1.434 . S
C1021 C1022 1.369 . S
C1021 C1023 1.419 . S
C1021 H1025 0.930 . S
C1022 C1021 1.369 . S
C1022 C1031 1.429 . S
C1023 C1021 1.419 . S
C1023 C1024 1.363 . S
C1023 H1026 0.929 . S
C1024 C1023 1.363 . S
C1024 C1030 1.428 . S
H1025 C1021 0.930 . S
H1026 C1023 0.929 . S
S1027 N1028 1.613 . S
S1027 N1029 1.610 . S
N1028 S1027 1.613 . S
N1028 C1031 1.350 . S
N1029 S1027 1.610 . S
N1029 C1030 1.351 . S
C1030 C1024 1.428 . S
C1030 N1029 1.351 . S
C1030 C1031 1.434 . S
C1031 C1022 1.429 . S
C1031 N1028 1.350 . S
C1031 C1030 1.434 . S
C1032 C1033 1.369 . S
C1032 C1034 1.419 . S
C1032 H1036 0.930 . S
C1033 C1032 1.369 . S
C1033 C1042 1.429 . S
C1034 C1032 1.419 . S
C1034 C1035 1.363 . S
C1034 H1037 0.929 . S
C1035 C1034 1.363 . S
C1035 C1041 1.428 . S
H1036 C1032 0.930 . S
H1037 C1034 0.929 . S
S1038 N1039 1.613 . S
S1038 N1040 1.610 . S
N1039 S1038 1.613 . S
N1039 C1042 1.350 . S
N1040 S1038 1.610 . S
N1040 C1041 1.351 . S
C1041 C1035 1.428 . S
C1041 N1040 1.351 . S
C1041 C1042 1.434 . S
C1042 C1033 1.429 . S
C1042 N1039 1.350 . S
C1042 C1041 1.434 . S
C1043 C1044 1.369 . S
C1043 C1045 1.419 . S
C1043 H1047 0.930 . S
C1044 C1043 1.369 . S
C1044 C1053 1.429 . S
C1045 C1043 1.419 . S
C1045 C1046 1.363 . S
C1045 H1048 0.929 . S
C1046 C1045 1.363 . S
C1046 C1052 1.428 . S
H1047 C1043 0.930 . S
H1048 C1045 0.929 . S
S1049 N1050 1.613 . S
S1049 N1051 1.610 1_556 S
N1050 S1049 1.613 . S
N1050 C1053 1.350 . S
N1051 S1049 1.610 1_554 S
N1051 C1052 1.351 1_554 S
C1052 C1046 1.428 . S
C1052 N1051 1.351 1_556 S
C1052 C1053 1.434 . S
C1053 C1044 1.429 . S
C1053 N1050 1.350 . S
C1053 C1052 1.434 . S
C1054 C1055 1.369 . S
C1054 C1056 1.419 . S
C1054 H1058 0.930 . S
C1055 C1054 1.369 . S
C1055 C1064 1.429 . S
C1056 C1054 1.419 . S
C1056 C1057 1.363 . S
C1056 H1059 0.929 . S
C1057 C1056 1.363 . S
C1057 C1063 1.428 . S
H1058 C1054 0.930 . S
H1059 C1056 0.929 . S
S1060 N1061 1.613 . S
S1060 N1062 1.610 . S
N1061 S1060 1.613 . S
N1061 C1064 1.350 . S
N1062 S1060 1.610 . S
N1062 C1063 1.351 . S
C1063 C1057 1.428 . S
C1063 N1062 1.351 . S
C1063 C1064 1.434 . S
C1064 C1055 1.429 . S
C1064 N1061 1.350 . S
C1064 C1063 1.434 . S
C1065 C1066 1.369 . S
C1065 C1067 1.419 . S
C1065 H1069 0.930 . S
C1066 C1065 1.369 . S
C1066 C1075 1.429 . S
C1067 C1065 1.419 . S
C1067 C1068 1.363 . S
C1067 H1070 0.929 . S
C1068 C1067 1.363 . S
C1068 C1074 1.428 . S
H1069 C1065 0.930 . S
H1070 C1067 0.929 . S
S1071 N1072 1.613 . S
S1071 N1073 1.610 . S
N1072 S1071 1.613 . S
N1072 C1075 1.350 . S
N1073 S1071 1.610 . S
N1073 C1074 1.351 . S
C1074 C1068 1.428 . S
C1074 N1073 1.351 . S
C1074 C1075 1.434 . S
C1075 C1066 1.429 . S
C1075 N1072 1.350 . S
C1075 C1074 1.434 . S
C1076 C1077 1.369 . S
C1076 C1078 1.419 . S
C1076 H1080 0.930 . S
C1077 C1076 1.369 . S
C1077 C1086 1.429 . S
C1078 C1076 1.419 . S
C1078 C1079 1.363 . S
C1078 H1081 0.929 . S
C1079 C1078 1.363 . S
C1079 C1085 1.428 . S
H1080 C1076 0.930 . S
H1081 C1078 0.929 . S
S1082 N1083 1.613 . S
S1082 N1084 1.610 . S
N1083 S1082 1.613 . S
N1083 C1086 1.350 . S
N1084 S1082 1.610 . S
N1084 C1085 1.351 . S
C1085 C1079 1.428 . S
C1085 N1084 1.351 . S
C1085 C1086 1.434 . S
C1086 C1077 1.429 . S
C1086 N1083 1.350 . S
C1086 C1085 1.434 . S
C1087 C1088 1.369 . S
C1087 C1089 1.419 . S
C1087 H1091 0.930 . S
C1088 C1087 1.369 . S
C1088 C1097 1.429 . S
C1089 C1087 1.419 . S
C1089 C1090 1.363 . S
C1089 H1092 0.929 . S
C1090 C1089 1.363 . S
C1090 C1096 1.428 . S
H1091 C1087 0.930 . S
H1092 C1089 0.929 . S
S1093 N1094 1.613 . S
S1093 N1095 1.610 . S
N1094 S1093 1.613 . S
N1094 C1097 1.350 . S
N1095 S1093 1.610 . S
N1095 C1096 1.351 . S
C1096 C1090 1.428 . S
C1096 N1095 1.351 . S
C1096 C1097 1.434 . S
C1097 C1088 1.429 . S
C1097 N1094 1.350 . S
C1097 C1096 1.434 . S
C1098 C1099 1.369 . S
C1098 C1100 1.419 . S
C1098 H1102 0.930 . S
C1099 C1098 1.369 . S
C1099 C1108 1.429 . S
C1100 C1098 1.419 . S
C1100 C1101 1.363 . S
C1100 H1103 0.929 . S
C1101 C1100 1.363 . S
C1101 C1107 1.428 . S
H1102 C1098 0.930 . S
H1103 C1100 0.929 . S
S1104 N1105 1.613 . S
S1104 N1106 1.610 . S
N1105 S1104 1.613 . S
N1105 C1108 1.350 . S
N1106 S1104 1.610 . S
N1106 C1107 1.351 . S
C1107 C1101 1.428 . S
C1107 N1106 1.351 . S
C1107 C1108 1.434 . S
C1108 C1099 1.429 . S
C1108 N1105 1.350 . S
C1108 C1107 1.434 . S
C1109 C1110 1.369 . S
C1109 C1111 1.419 . S
C1109 H1113 0.930 . S
C1110 C1109 1.369 . S
C1110 C1119 1.429 . S
C1111 C1109 1.419 . S
C1111 C1112 1.363 . S
C1111 H1114 0.929 . S
C1112 C1111 1.363 . S
C1112 C1118 1.428 . S
H1113 C1109 0.930 . S
H1114 C1111 0.929 . S
S1115 N1116 1.613 . S
S1115 N1117 1.610 1_565 S
N1116 S1115 1.613 . S
N1116 C1119 1.350 . S
N1117 S1115 1.610 1_545 S
N1117 C1118 1.351 1_545 S
C1118 C1112 1.428 . S
C1118 N1117 1.351 1_565 S
C1118 C1119 1.434 . S
C1119 C1110 1.429 . S
C1119 N1116 1.350 . S
C1119 C1118 1.434 . S
C1120 C1121 1.369 . S
C1120 C1122 1.419 . S
C1120 H1124 0.930 . S
C1121 C1120 1.369 . S
C1121 C1130 1.429 . S
C1122 C1120 1.419 . S
C1122 C1123 1.363 . S
C1122 H1125 0.929 . S
C1123 C1122 1.363 . S
C1123 C1129 1.428 . S
H1124 C1120 0.930 . S
H1125 C1122 0.929 . S
S1126 N1127 1.613 . S
S1126 N1128 1.610 . S
N1127 S1126 1.613 . S
N1127 C1130 1.350 . S
N1128 S1126 1.610 . S
N1128 C1129 1.351 . S
C1129 C1123 1.428 . S
C1129 N1128 1.351 . S
C1129 C1130 1.434 . S
C1130 C1121 1.429 . S
C1130 N1127 1.350 . S
C1130 C1129 1.434 . S
C1131 C1132 1.369 . S
C1131 C1133 1.419 . S
C1131 H1135 0.930 . S
C1132 C1131 1.369 . S
C1132 C1141 1.429 . S
C1133 C1131 1.419 . S
C1133 C1134 1.363 . S
C1133 H1136 0.929 . S
C1134 C1133 1.363 . S
C1134 C1140 1.428 . S
H1135 C1131 0.930 . S
H1136 C1133 0.929 . S
S1137 N1138 1.613 . S
S1137 N1139 1.610 . S
N1138 S1137 1.613 . S
N1138 C1141 1.350 . S
N1139 S1137 1.610 . S
N1139 C1140 1.351 . S
C1140 C1134 1.428 . S
C1140 N1139 1.351 . S
C1140 C1141 1.434 . S
C1141 C1132 1.429 . S
C1141 N1138 1.350 . S
C1141 C1140 1.434 . S
C1142 C1143 1.369 . S
C1142 C1144 1.419 . S
C1142 H1146 0.930 . S
C1143 C1142 1.369 . S
C1143 C1152 1.429 . S
C1144 C1142 1.419 . S
C1144 C1145 1.363 . S
C1144 H1147 0.929 . S
C1145 C1144 1.363 . S
C1145 C1151 1.428 . S
H1146 C1142 0.930 . S
H1147 C1144 0.929 . S
S1148 N1149 1.613 . S
S1148 N1150 1.610 . S
N1149 S1148 1.613 . S
N1149 C1152 1.350 . S
N1150 S1148 1.610 . S
N1150 C1151 1.351 . S
C1151 C1145 1.428 . S
C1151 N1150 1.351 . S
C1151 C1152 1.434 . S
C1152 C1143 1.429 . S
C1152 N1149 1.350 . S
C1152 C1151 1.434 . S
C1153 C1154 1.369 . S
C1153 C1155 1.419 . S
C1153 H1157 0.930 . S
C1154 C1153 1.369 . S
C1154 C1163 1.429 . S
C1155 C1153 1.419 . S
C1155 C1156 1.363 . S
C1155 H1158 0.929 . S
C1156 C1155 1.363 . S
C1156 C1162 1.428 . S
H1157 C1153 0.930 . S
H1158 C1155 0.929 . S
S1159 N1160 1.613 . S
S1159 N1161 1.610 . S
N1160 S1159 1.613 . S
N1160 C1163 1.350 . S
N1161 S1159 1.610 . S
N1161 C1162 1.351 . S
C1162 C1156 1.428 . S
C1162 N1161 1.351 . S
C1162 C1163 1.434 . S
C1163 C1154 1.429 . S
C1163 N1160 1.350 . S
C1163 C1162 1.434 . S
C1164 C1165 1.369 . S
C1164 C1166 1.419 . S
C1164 H1168 0.930 . S
C1165 C1164 1.369 . S
C1165 C1174 1.429 . S
C1166 C1164 1.419 . S
C1166 C1167 1.363 . S
C1166 H1169 0.929 . S
C1167 C1166 1.363 . S
C1167 C1173 1.428 . S
H1168 C1164 0.930 . S
H1169 C1166 0.929 . S
S1170 N1171 1.613 . S
S1170 N1172 1.610 . S
N1171 S1170 1.613 . S
N1171 C1174 1.350 . S
N1172 S1170 1.610 . S
N1172 C1173 1.351 . S
C1173 C1167 1.428 . S
C1173 N1172 1.351 . S
C1173 C1174 1.434 . S
C1174 C1165 1.429 . S
C1174 N1171 1.350 . S
C1174 C1173 1.434 . S
C1175 C1176 1.369 . S
C1175 C1177 1.419 . S
C1175 H1179 0.930 . S
C1176 C1175 1.369 . S
C1176 C1185 1.429 . S
C1177 C1175 1.419 . S
C1177 C1178 1.363 . S
C1177 H1180 0.929 . S
C1178 C1177 1.363 . S
C1178 C1184 1.428 . S
H1179 C1175 0.930 . S
H1180 C1177 0.929 . S
S1181 N1182 1.613 . S
S1181 N1183 1.610 . S
N1182 S1181 1.613 . S
N1182 C1185 1.350 . S
N1183 S1181 1.610 . S
N1183 C1184 1.351 . S
C1184 C1178 1.428 . S
C1184 N1183 1.351 . S
C1184 C1185 1.434 . S
C1185 C1176 1.429 . S
C1185 N1182 1.350 . S
C1185 C1184 1.434 . S
C1186 C1187 1.369 . S
C1186 C1188 1.419 . S
C1186 H1190 0.930 . S
C1187 C1186 1.369 . S
C1187 C1196 1.429 . S
C1188 C1186 1.419 . S
C1188 C1189 1.363 . S
C1188 H1191 0.929 . S
C1189 C1188 1.363 . S
C1189 C1195 1.428 . S
H1190 C1186 0.930 . S
H1191 C1188 0.929 . S
S1192 N1193 1.613 . S
S1192 N1194 1.610 . S
N1193 S1192 1.613 . S
N1193 C1196 1.350 . S
N1194 S1192 1.610 . S
N1194 C1195 1.351 . S
C1195 C1189 1.428 . S
C1195 N1194 1.351 . S
C1195 C1196 1.434 . S
C1196 C1187 1.429 . S
C1196 N1193 1.350 . S
C1196 C1195 1.434 . S
C1197 C1198 1.369 . S
C1197 C1199 1.419 1_556 S
C1197 H1201 0.930 . S
C1198 C1197 1.369 . S
C1198 C1207 1.429 1_556 S
C1199 C1197 1.419 1_554 S
C1199 C1200 1.363 . S
C1199 H1202 0.929 . S
C1200 C1199 1.363 . S
C1200 C1206 1.428 . S
H1201 C1197 0.930 . S
H1202 C1199 0.929 . S
S1203 N1204 1.613 . S
S1203 N1205 1.610 . S
N1204 S1203 1.613 . S
N1204 C1207 1.350 . S
N1205 S1203 1.610 . S
N1205 C1206 1.351 . S
C1206 C1200 1.428 . S
C1206 N1205 1.351 . S
C1206 C1207 1.434 . S
C1207 C1198 1.429 1_554 S
C1207 N1204 1.350 . S
C1207 C1206 1.434 . S
C1208 C1209 1.369 . S
C1208 C1210 1.419 . S
C1208 H1212 0.930 . S
C1209 C1208 1.369 . S
C1209 C1218 1.429 . S
C1210 C1208 1.419 . S
C1210 C1211 1.363 . S
C1210 H1213 0.929 . S
C1211 C1210 1.363 . S
C1211 C1217 1.428 . S
H1212 C1208 0.930 . S
H1213 C1210 0.929 . S
S1214 N1215 1.613 . S
S1214 N1216 1.610 . S
N1215 S1214 1.613 . S
N1215 C1218 1.350 . S
N1216 S1214 1.610 . S
N1216 C1217 1.351 . S
C1217 C1211 1.428 . S
C1217 N1216 1.351 . S
C1217 C1218 1.434 . S
C1218 C1209 1.429 . S
C1218 N1215 1.350 . S
C1218 C1217 1.434 . S
C1219 C1220 1.369 . S
C1219 C1221 1.419 . S
C1219 H1223 0.930 . S
C1220 C1219 1.369 . S
C1220 C1229 1.429 . S
C1221 C1219 1.419 . S
C1221 C1222 1.363 . S
C1221 H1224 0.929 . S
C1222 C1221 1.363 . S
C1222 C1228 1.428 . S
H1223 C1219 0.930 . S
H1224 C1221 0.929 . S
S1225 N1226 1.613 . S
S1225 N1227 1.610 . S
N1226 S1225 1.613 . S
N1226 C1229 1.350 . S
N1227 S1225 1.610 . S
N1227 C1228 1.351 . S
C1228 C1222 1.428 . S
C1228 N1227 1.351 . S
C1228 C1229 1.434 . S
C1229 C1220 1.429 . S
C1229 N1226 1.350 . S
C1229 C1228 1.434 . S
C1230 C1231 1.369 . S
C1230 C1232 1.419 . S
C1230 H1234 0.930 . S
C1231 C1230 1.369 . S
C1231 C1240 1.429 . S
C1232 C1230 1.419 . S
C1232 C1233 1.363 . S
C1232 H1235 0.929 . S
C1233 C1232 1.363 . S
C1233 C1239 1.428 . S
H1234 C1230 0.930 . S
H1235 C1232 0.929 . S
S1236 N1237 1.613 . S
S1236 N1238 1.610 . S
N1237 S1236 1.613 . S
N1237 C1240 1.350 . S
N1238 S1236 1.610 . S
N1238 C1239 1.351 . S
C1239 C1233 1.428 . S
C1239 N1238 1.351 . S
C1239 C1240 1.434 . S
C1240 C1231 1.429 . S
C1240 N1237 1.350 . S
C1240 C1239 1.434 . S
C1241 C1242 1.369 . S
C1241 C1243 1.419 . S
C1241 H1245 0.930 . S
C1242 C1241 1.369 . S
C1242 C1251 1.429 . S
C1243 C1241 1.419 . S
C1243 C1244 1.363 . S
C1243 H1246 0.929 . S
C1244 C1243 1.363 . S
C1244 C1250 1.428 . S
H1245 C1241 0.930 . S
H1246 C1243 0.929 . S
S1247 N1248 1.613 . S
S1247 N1249 1.610 . S
N1248 S1247 1.613 . S
N1248 C1251 1.350 . S
N1249 S1247 1.610 . S
N1249 C1250 1.351 . S
C1250 C1244 1.428 . S
C1250 N1249 1.351 . S
C1250 C1251 1.434 . S
C1251 C1242 1.429 . S
C1251 N1248 1.350 . S
C1251 C1250 1.434 . S
C1252 C1253 1.369 . S
C1252 C1254 1.419 . S
C1252 H1256 0.930 . S
C1253 C1252 1.369 . S
C1253 C1262 1.429 . S
C1254 C1252 1.419 . S
C1254 C1255 1.363 . S
C1254 H1257 0.929 . S
C1255 C1254 1.363 . S
C1255 C1261 1.428 . S
H1256 C1252 0.930 . S
H1257 C1254 0.929 . S
S1258 N1259 1.613 . S
S1258 N1260 1.610 . S
N1259 S1258 1.613 . S
N1259 C1262 1.350 . S
N1260 S1258 1.610 . S
N1260 C1261 1.351 . S
C1261 C1255 1.428 . S
C1261 N1260 1.351 . S
C1261 C1262 1.434 . S
C1262 C1253 1.429 . S
C1262 N1259 1.350 . S
C1262 C1261 1.434 . S
C1263 C1264 1.369 . S
C1263 C1265 1.419 . S
C1263 H1267 0.930 . S
C1264 C1263 1.369 . S
C1264 C1273 1.429 . S
C1265 C1263 1.419 . S
C1265 C1266 1.363 . S
C1265 H1268 0.929 . S
C1266 C1265 1.363 . S
C1266 C1272 1.428 . S
H1267 C1263 0.930 . S
H1268 C1265 0.929 . S
S1269 N1270 1.613 . S
S1269 N1271 1.610 . S
N1270 S1269 1.613 . S
N1270 C1273 1.350 . S
N1271 S1269 1.610 . S
N1271 C1272 1.351 . S
C1272 C1266 1.428 . S
C1272 N1271 1.351 . S
C1272 C1273 1.434 . S
C1273 C1264 1.429 . S
C1273 N1270 1.350 . S
C1273 C1272 1.434 . S
C1274 C1275 1.369 . S
C1274 C1276 1.419 . S
C1274 H1278 0.930 . S
C1275 C1274 1.369 . S
C1275 C1284 1.429 . S
C1276 C1274 1.419 . S
C1276 C1277 1.363 . S
C1276 H1279 0.929 . S
C1277 C1276 1.363 . S
C1277 C1283 1.428 . S
H1278 C1274 0.930 . S
H1279 C1276 0.929 . S
S1280 N1281 1.613 . S
S1280 N1282 1.610 . S
N1281 S1280 1.613 . S
N1281 C1284 1.350 . S
N1282 S1280 1.610 . S
N1282 C1283 1.351 . S
C1283 C1277 1.428 . S
C1283 N1282 1.351 . S
C1283 C1284 1.434 . S
C1284 C1275 1.429 . S
C1284 N1281 1.350 . S
C1284 C1283 1.434 . S
C1285 C1286 1.369 . S
C1285 C1287 1.419 . S
C1285 H1289 0.930 . S
C1286 C1285 1.369 . S
C1286 C1295 1.429 . S
C1287 C1285 1.419 . S
C1287 C1288 1.363 . S
C1287 H1290 0.929 . S
C1288 C1287 1.363 . S
C1288 C1294 1.428 . S
H1289 C1285 0.930 . S
H1290 C1287 0.929 . S
S1291 N1292 1.613 . S
S1291 N1293 1.610 . S
N1292 S1291 1.613 . S
N1292 C1295 1.350 . S
N1293 S1291 1.610 . S
N1293 C1294 1.351 . S
C1294 C1288 1.428 . S
C1294 N1293 1.351 . S
C1294 C1295 1.434 . S
C1295 C1286 1.429 . S
C1295 N1292 1.350 . S
C1295 C1294 1.434 . S
C1296 C1297 1.369 . S
C1296 C1298 1.419 . S
C1296 H1300 0.930 . S
C1297 C1296 1.369 . S
C1297 C1306 1.429 . S
C1298 C1296 1.419 . S
C1298 C1299 1.363 . S
C1298 H1301 0.929 . S
C1299 C1298 1.363 . S
C1299 C1305 1.428 . S
H1300 C1296 0.930 . S
H1301 C1298 0.929 . S
S1302 N1303 1.613 . S
S1302 N1304 1.610 . S
N1303 S1302 1.613 . S
N1303 C1306 1.350 . S
N1304 S1302 1.610 . S
N1304 C1305 1.351 . S
C1305 C1299 1.428 . S
C1305 N1304 1.351 . S
C1305 C1306 1.434 . S
C1306 C1297 1.429 . S
C1306 N1303 1.350 . S
C1306 C1305 1.434 . S
C1307 C1308 1.369 . S
C1307 C1309 1.419 . S
C1307 H1311 0.930 . S
C1308 C1307 1.369 . S
C1308 C1317 1.429 . S
C1309 C1307 1.419 . S
C1309 C1310 1.363 . S
C1309 H1312 0.929 . S
C1310 C1309 1.363 . S
C1310 C1316 1.428 . S
H1311 C1307 0.930 . S
H1312 C1309 0.929 . S
S1313 N1314 1.613 . S
S1313 N1315 1.610 . S
N1314 S1313 1.613 . S
N1314 C1317 1.350 . S
N1315 S1313 1.610 . S
N1315 C1316 1.351 . S
C1316 C1310 1.428 . S
C1316 N1315 1.351 . S
C1316 C1317 1.434 . S
C1317 C1308 1.429 . S
C1317 N1314 1.350 . S
C1317 C1316 1.434 . S
C1318 C1319 1.369 . S
C1318 C1320 1.419 . S
C1318 H1322 0.930 . S
C1319 C1318 1.369 . S
C1319 C1328 1.429 . S
C1320 C1318 1.419 . S
C1320 C1321 1.363 . S
C1320 H1323 0.929 . S
C1321 C1320 1.363 . S
C1321 C1327 1.428 . S
H1322 C1318 0.930 . S
H1323 C1320 0.929 . S
S1324 N1325 1.613 . S
S1324 N1326 1.610 . S
N1325 S1324 1.613 . S
N1325 C1328 1.350 . S
N1326 S1324 1.610 . S
N1326 C1327 1.351 . S
C1327 C1321 1.428 . S
C1327 N1326 1.351 . S
C1327 C1328 1.434 . S
C1328 C1319 1.429 . S
C1328 N1325 1.350 . S
C1328 C1327 1.434 . S
C1329 C1330 1.369 . S
C1329 C1331 1.419 . S
C1329 H1333 0.930 . S
C1330 C1329 1.369 . S
C1330 C1339 1.429 . S
C1331 C1329 1.419 . S
C1331 C1332 1.363 . S
C1331 H1334 0.929 . S
C1332 C1331 1.363 . S
C1332 C1338 1.428 . S
H1333 C1329 0.930 . S
H1334 C1331 0.929 . S
S1335 N1336 1.613 1_455 S
S1335 N1337 1.610 . S
N1336 S1335 1.613 1_655 S
N1336 C1339 1.350 . S
N1337 S1335 1.610 . S
N1337 C1338 1.351 1_455 S
C1338 C1332 1.428 . S
C1338 N1337 1.351 1_655 S
C1338 C1339 1.434 . S
C1339 C1330 1.429 . S
C1339 N1336 1.350 . S
C1339 C1338 1.434 . S
C1340 C1341 1.369 . S
C1340 C1342 1.419 . S
C1340 H1344 0.930 . S
C1341 C1340 1.369 . S
C1341 C1350 1.429 . S
C1342 C1340 1.419 . S
C1342 C1343 1.363 . S
C1342 H1345 0.929 . S
C1343 C1342 1.363 . S
C1343 C1349 1.428 . S
H1344 C1340 0.930 . S
H1345 C1342 0.929 . S
S1346 N1347 1.613 . S
S1346 N1348 1.610 . S
N1347 S1346 1.613 . S
N1347 C1350 1.350 . S
N1348 S1346 1.610 . S
N1348 C1349 1.351 . S
C1349 C1343 1.428 . S
C1349 N1348 1.351 . S
C1349 C1350 1.434 . S
C1350 C1341 1.429 . S
C1350 N1347 1.350 . S
C1350 C1349 1.434 . S
C1351 C1352 1.369 . S
C1351 C1353 1.419 . S
C1351 H1355 0.930 . S
C1352 C1351 1.369 . S
C1352 C1361 1.429 . S
C1353 C1351 1.419 . S
C1353 C1354 1.363 . S
C1353 H1356 0.929 . S
C1354 C1353 1.363 . S
C1354 C1360 1.428 . S
H1355 C1351 0.930 . S
H1356 C1353 0.929 . S
S1357 N1358 1.613 . S
S1357 N1359 1.610 . S
N1358 S1357 1.613 . S
N1358 C1361 1.350 . S
N1359 S1357 1.610 . S
N1359 C1360 1.351 . S
C1360 C1354 1.428 . S
C1360 N1359 1.351 . S
C1360 C1361 1.434 . S
C1361 C1352 1.429 . S
C1361 N1358 1.350 . S
C1361 C1360 1.434 . S
C1362 C1363 1.369 . S
C1362 C1364 1.419 . S
C1362 H1366 0.930 . S
C1363 C1362 1.369 . S
C1363 C1372 1.429 . S
C1364 C1362 1.419 . S
C1364 C1365 1.363 . S
C1364 H1367 0.929 . S
C1365 C1364 1.363 . S
C1365 C1371 1.428 . S
H1366 C1362 0.930 . S
H1367 C1364 0.929 . S
S1368 N1369 1.613 . S
S1368 N1370 1.610 . S
N1369 S1368 1.613 . S
N1369 C1372 1.350 . S
N1370 S1368 1.610 . S
N1370 C1371 1.351 . S
C1371 C1365 1.428 . S
C1371 N1370 1.351 . S
C1371 C1372 1.434 . S
C1372 C1363 1.429 . S
C1372 N1369 1.350 . S
C1372 C1371 1.434 . S
C1373 C1374 1.369 . S
C1373 C1375 1.419 . S
C1373 H1377 0.930 . S
C1374 C1373 1.369 . S
C1374 C1383 1.429 . S
C1375 C1373 1.419 . S
C1375 C1376 1.363 . S
C1375 H1378 0.929 . S
C1376 C1375 1.363 . S
C1376 C1382 1.428 . S
H1377 C1373 0.930 . S
H1378 C1375 0.929 . S
S1379 N1380 1.613 . S
S1379 N1381 1.610 . S
N1380 S1379 1.613 . S
N1380 C1383 1.350 . S
N1381 S1379 1.610 . S
N1381 C1382 1.351 . S
C1382 C1376 1.428 . S
C1382 N1381 1.351 . S
C1382 C1383 1.434 . S
C1383 C1374 1.429 . S
C1383 N1380 1.350 . S
C1383 C1382 1.434 . S
C1384 C1385 1.369 . S
C1384 C1386 1.419 . S
C1384 H1388 0.930 . S
C1385 C1384 1.369 . S
C1385 C1394 1.429 . S
C1386 C1384 1.419 . S
C1386 C1387 1.363 . S
C1386 H1389 0.929 . S
C1387 C1386 1.363 . S
C1387 C1393 1.428 . S
H1388 C1384 0.930 . S
H1389 C1386 0.929 . S
S1390 N1391 1.613 . S
S1390 N1392 1.610 . S
N1391 S1390 1.613 . S
N1391 C1394 1.350 . S
N1392 S1390 1.610 . S
N1392 C1393 1.351 . S
C1393 C1387 1.428 . S
C1393 N1392 1.351 . S
C1393 C1394 1.434 . S
C1394 C1385 1.429 . S
C1394 N1391 1.350 . S
C1394 C1393 1.434 . S
C1395 C1396 1.369 . S
C1395 C1397 1.419 . S
C1395 H1399 0.930 . S
C1396 C1395 1.369 . S
C1396 C1405 1.429 . S
C1397 C1395 1.419 . S
C1397 C1398 1.363 . S
C1397 H1400 0.929 . S
C1398 C1397 1.363 . S
C1398 C1404 1.428 . S
H1399 C1395 0.930 . S
H1400 C1397 0.929 . S
S1401 N1402 1.613 . S
S1401 N1403 1.610 . S
N1402 S1401 1.613 . S
N1402 C1405 1.350 . S
N1403 S1401 1.610 . S
N1403 C1404 1.351 . S
C1404 C1398 1.428 . S
C1404 N1403 1.351 . S
C1404 C1405 1.434 . S
C1405 C1396 1.429 . S
C1405 N1402 1.350 . S
C1405 C1404 1.434 . S
C1406 C1407 1.369 . S
C1406 C1408 1.419 . S
C1406 H1410 0.930 . S
C1407 C1406 1.369 . S
C1407 C1416 1.429 . S
C1408 C1406 1.419 . S
C1408 C1409 1.363 . S
C1408 H1411 0.929 . S
C1409 C1408 1.363 . S
C1409 C1415 1.428 . S
H1410 C1406 0.930 . S
H1411 C1408 0.929 . S
S1412 N1413 1.613 . S
S1412 N1414 1.610 . S
N1413 S1412 1.613 . S
N1413 C1416 1.350 . S
N1414 S1412 1.610 . S
N1414 C1415 1.351 . S
C1415 C1409 1.428 . S
C1415 N1414 1.351 . S
C1415 C1416 1.434 . S
C1416 C1407 1.429 . S
C1416 N1413 1.350 . S
C1416 C1415 1.434 . S
C1417 C1418 1.369 . S
C1417 C1419 1.419 . S
C1417 H1421 0.930 . S
C1418 C1417 1.369 . S
C1418 C1427 1.429 . S
C1419 C1417 1.419 . S
C1419 C1420 1.363 . S
C1419 H1422 0.929 . S
C1420 C1419 1.363 . S
C1420 C1426 1.428 . S
H1421 C1417 0.930 . S
H1422 C1419 0.929 . S
S1423 N1424 1.613 . S
S1423 N1425 1.610 . S
N1424 S1423 1.613 . S
N1424 C1427 1.350 1_554 S
N1425 S1423 1.610 . S
N1425 C1426 1.351 1_554 S
C1426 C1420 1.428 . S
C1426 N1425 1.351 1_556 S
C1426 C1427 1.434 . S
C1427 C1418 1.429 . S
C1427 N1424 1.350 1_556 S
C1427 C1426 1.434 . S
C1428 C1429 1.369 . S
C1428 C1430 1.419 . S
C1428 H1432 0.930 . S
C1429 C1428 1.369 . S
C1429 C1438 1.429 . S
C1430 C1428 1.419 . S
C1430 C1431 1.363 . S
C1430 H1433 0.929 . S
C1431 C1430 1.363 . S
C1431 C1437 1.428 . S
H1432 C1428 0.930 . S
H1433 C1430 0.929 . S
S1434 N1435 1.613 . S
S1434 N1436 1.610 . S
N1435 S1434 1.613 . S
N1435 C1438 1.350 . S
N1436 S1434 1.610 . S
N1436 C1437 1.351 . S
C1437 C1431 1.428 . S
C1437 N1436 1.351 . S
C1437 C1438 1.434 . S
C1438 C1429 1.429 . S
C1438 N1435 1.350 . S
C1438 C1437 1.434 . S
C1439 C1440 1.369 . S
C1439 C1441 1.419 . S
C1439 H1443 0.930 . S
C1440 C1439 1.369 . S
C1440 C1449 1.429 . S
C1441 C1439 1.419 . S
C1441 C1442 1.363 . S
C1441 H1444 0.929 . S
C1442 C1441 1.363 . S
C1442 C1448 1.428 . S
H1443 C1439 0.930 . S
H1444 C1441 0.929 . S
S1445 N1446 1.613 . S
S1445 N1447 1.610 . S
N1446 S1445 1.613 . S
N1446 C1449 1.350 . S
N1447 S1445 1.610 . S
N1447 C1448 1.351 . S
C1448 C1442 1.428 . S
C1448 N1447 1.351 . S
C1448 C1449 1.434 . S
C1449 C1440 1.429 . S
C1449 N1446 1.350 . S
C1449 C1448 1.434 . S
C1450 C1451 1.369 . S
C1450 C1452 1.419 . S
C1450 H1454 0.930 . S
C1451 C1450 1.369 . S
C1451 C1460 1.429 . S
C1452 C1450 1.419 . S
C1452 C1453 1.363 . S
C1452 H1455 0.929 . S
C1453 C1452 1.363 . S
C1453 C1459 1.428 . S
H1454 C1450 0.930 . S
H1455 C1452 0.929 . S
S1456 N1457 1.613 . S
S1456 N1458 1.610 . S
N1457 S1456 1.613 . S
N1457 C1460 1.350 . S
N1458 S1456 1.610 . S
N1458 C1459 1.351 . S
C1459 C1453 1.428 . S
C1459 N1458 1.351 . S
C1459 C1460 1.434 . S
C1460 C1451 1.429 . S
C1460 N1457 1.350 . S
C1460 C1459 1.434 . S
C1461 C1462 1.369 . S
C1461 C1463 1.419 . S
C1461 H1465 0.930 . S
C1462 C1461 1.369 . S
C1462 C1471 1.429 . S
C1463 C1461 1.419 . S
C1463 C1464 1.363 . S
C1463 H1466 0.929 . S
C1464 C1463 1.363 . S
C1464 C1470 1.428 . S
H1465 C1461 0.930 . S
H1466 C1463 0.929 . S
S1467 N1468 1.613 . S
S1467 N1469 1.610 . S
N1468 S1467 1.613 . S
N1468 C1471 1.350 . S
N1469 S1467 1.610 . S
N1469 C1470 1.351 . S
C1470 C1464 1.428 . S
C1470 N1469 1.351 . S
C1470 C1471 1.434 . S
C1471 C1462 1.429 . S
C1471 N1468 1.350 . S
C1471 C1470 1.434 . S
C1472 C1473 1.369 . S
C1472 C1474 1.419 . S
C1472 H1476 0.930 . S
C1473 C1472 1.369 . S
C1473 C1482 1.429 . S
C1474 C1472 1.419 . S
C1474 C1475 1.363 . S
C1474 H1477 0.929 . S
C1475 C1474 1.363 . S
C1475 C1481 1.428 . S
H1476 C1472 0.930 . S
H1477 C1474 0.929 . S
S1478 N1479 1.613 . S
S1478 N1480 1.610 . S
N1479 S1478 1.613 . S
N1479 C1482 1.350 . S
N1480 S1478 1.610 . S
N1480 C1481 1.351 . S
C1481 C1475 1.428 . S
C1481 N1480 1.351 . S
C1481 C1482 1.434 . S
C1482 C1473 1.429 . S
C1482 N1479 1.350 . S
C1482 C1481 1.434 . S
C1483 C1484 1.369 . S
C1483 C1485 1.419 . S
C1483 H1487 0.930 . S
C1484 C1483 1.369 . S
C1484 C1493 1.429 . S
C1485 C1483 1.419 . S
C1485 C1486 1.363 . S
C1485 H1488 0.929 . S
C1486 C1485 1.363 . S
C1486 C1492 1.428 . S
H1487 C1483 0.930 . S
H1488 C1485 0.929 . S
S1489 N1490 1.613 . S
S1489 N1491 1.610 . S
N1490 S1489 1.613 . S
N1490 C1493 1.350 . S
N1491 S1489 1.610 . S
N1491 C1492 1.351 . S
C1492 C1486 1.428 . S
C1492 N1491 1.351 . S
C1492 C1493 1.434 . S
C1493 C1484 1.429 . S
C1493 N1490 1.350 . S
C1493 C1492 1.434 . S
C1494 C1495 1.369 . S
C1494 C1496 1.419 . S
C1494 H1498 0.930 . S
C1495 C1494 1.369 . S
C1495 C1504 1.429 . S
C1496 C1494 1.419 . S
C1496 C1497 1.363 . S
C1496 H1499 0.929 . S
C1497 C1496 1.363 . S
C1497 C1503 1.428 . S
H1498 C1494 0.930 . S
H1499 C1496 0.929 . S
S1500 N1501 1.613 . S
S1500 N1502 1.610 . S
N1501 S1500 1.613 . S
N1501 C1504 1.350 . S
N1502 S1500 1.610 . S
N1502 C1503 1.351 . S
C1503 C1497 1.428 . S
C1503 N1502 1.351 . S
C1503 C1504 1.434 . S
C1504 C1495 1.429 . S
C1504 N1501 1.350 . S
C1504 C1503 1.434 . S
C1505 C1506 1.369 . S
C1505 C1507 1.419 . S
C1505 H1509 0.930 . S
C1506 C1505 1.369 . S
C1506 C1515 1.429 . S
C1507 C1505 1.419 . S
C1507 C1508 1.363 . S
C1507 H1510 0.929 . S
C1508 C1507 1.363 . S
C1508 C1514 1.428 . S
H1509 C1505 0.930 . S
H1510 C1507 0.929 . S
S1511 N1512 1.613 1_565 S
S1511 N1513 1.610 . S
N1512 S1511 1.613 1_545 S
N1512 C1515 1.350 . S
N1513 S1511 1.610 . S
N1513 C1514 1.351 1_565 S
C1514 C1508 1.428 . S
C1514 N1513 1.351 1_545 S
C1514 C1515 1.434 . S
C1515 C1506 1.429 . S
C1515 N1512 1.350 . S
C1515 C1514 1.434 . S
C1516 C1517 1.369 . S
C1516 C1518 1.419 . S
C1516 H1520 0.930 . S
C1517 C1516 1.369 . S
C1517 C1526 1.429 . S
C1518 C1516 1.419 . S
C1518 C1519 1.363 . S
C1518 H1521 0.929 . S
C1519 C1518 1.363 . S
C1519 C1525 1.428 . S
H1520 C1516 0.930 . S
H1521 C1518 0.929 . S
S1522 N1523 1.613 . S
S1522 N1524 1.610 . S
N1523 S1522 1.613 . S
N1523 C1526 1.350 . S
N1524 S1522 1.610 . S
N1524 C1525 1.351 . S
C1525 C1519 1.428 . S
C1525 N1524 1.351 . S
C1525 C1526 1.434 . S
C1526 C1517 1.429 . S
C1526 N1523 1.350 . S
C1526 C1525 1.434 . S
C1527 C1528 1.369 . S
C1527 C1529 1.419 . S
C1527 H1531 0.930 . S
C1528 C1527 1.369 . S
C1528 C1537 1.429 . S
C1529 C1527 1.419 . S
C1529 C1530 1.363 . S
C1529 H1532 0.929 1_655 S
C1530 C1529 1.363 . S
C1530 C1536 1.428 . S
H1531 C1527 0.930 . S
H1532 C1529 0.929 1_455 S
S1533 N1534 1.613 . S
S1533 N1535 1.610 . S
N1534 S1533 1.613 . S
N1534 C1537 1.350 . S
N1535 S1533 1.610 . S
N1535 C1536 1.351 . S
C1536 C1530 1.428 . S
C1536 N1535 1.351 . S
C1536 C1537 1.434 . S
C1537 C1528 1.429 . S
C1537 N1534 1.350 . S
C1537 C1536 1.434 . S
C1538 C1539 1.369 . S
C1538 C1540 1.419 . S
C1538 H1542 0.930 . S
C1539 C1538 1.369 . S
C1539 C1548 1.429 . S
C1540 C1538 1.419 . S
C1540 C1541 1.363 . S
C1540 H1543 0.929 . S
C1541 C1540 1.363 . S
C1541 C1547 1.428 . S
H1542 C1538 0.930 . S
H1543 C1540 0.929 . S
S1544 N1545 1.613 . S
S1544 N1546 1.610 . S
N1545 S1544 1.613 . S
N1545 C1548 1.350 . S
N1546 S1544 1.610 . S
N1546 C1547 1.351 . S
C1547 C1541 1.428 . S
C1547 N1546 1.351 . S
C1547 C1548 1.434 . S
C1548 C1539 1.429 . S
C1548 N1545 1.350 . S
C1548 C1547 1.434 . S
C1549 C1550 1.369 . S
C1549 C1551 1.419 . S
C1549 H1553 0.930 . S
C1550 C1549 1.369 . S
C1550 C1559 1.429 . S
C1551 C1549 1.419 . S
C1551 C1552 1.363 . S
C1551 H1554 0.929 1_455 S
C1552 C1551 1.363 . S
C1552 C1558 1.428 . S
H1553 C1549 0.930 . S
H1554 C1551 0.929 1_655 S
S1555 N1556 1.613 . S
S1555 N1557 1.610 . S
N1556 S1555 1.613 . S
N1556 C1559 1.350 . S
N1557 S1555 1.610 . S
N1557 C1558 1.351 . S
C1558 C1552 1.428 . S
C1558 N1557 1.351 . S
C1558 C1559 1.434 . S
C1559 C1550 1.429 . S
C1559 N1556 1.350 . S
C1559 C1558 1.434 . S
C1560 C1561 1.369 . S
C1560 C1562 1.419 . S
C1560 H1564 0.930 . S
C1561 C1560 1.369 . S
C1561 C1570 1.429 . S
C1562 C1560 1.419 . S
C1562 C1563 1.363 . S
C1562 H1565 0.929 . S
C1563 C1562 1.363 . S
C1563 C1569 1.428 . S
H1564 C1560 0.930 . S
H1565 C1562 0.929 . S
S1566 N1567 1.613 . S
S1566 N1568 1.610 . S
N1567 S1566 1.613 . S
N1567 C1570 1.350 . S
N1568 S1566 1.610 . S
N1568 C1569 1.351 . S
C1569 C1563 1.428 . S
C1569 N1568 1.351 . S
C1569 C1570 1.434 . S
C1570 C1561 1.429 . S
C1570 N1567 1.350 . S
C1570 C1569 1.434 . S
C1571 C1572 1.369 . S
C1571 C1573 1.419 . S
C1571 H1575 0.930 . S
C1572 C1571 1.369 . S
C1572 C1581 1.429 . S
C1573 C1571 1.419 . S
C1573 C1574 1.363 . S
C1573 H1576 0.929 . S
C1574 C1573 1.363 . S
C1574 C1580 1.428 . S
H1575 C1571 0.930 . S
H1576 C1573 0.929 . S
S1577 N1578 1.613 . S
S1577 N1579 1.610 . S
N1578 S1577 1.613 . S
N1578 C1581 1.350 . S
N1579 S1577 1.610 . S
N1579 C1580 1.351 . S
C1580 C1574 1.428 . S
C1580 N1579 1.351 . S
C1580 C1581 1.434 . S
C1581 C1572 1.429 . S
C1581 N1578 1.350 . S
C1581 C1580 1.434 . S
C1582 C1583 1.369 . S
C1582 C1584 1.419 . S
C1582 H1586 0.930 . S
C1583 C1582 1.369 . S
C1583 C1592 1.429 . S
C1584 C1582 1.419 . S
C1584 C1585 1.363 . S
C1584 H1587 0.929 . S
C1585 C1584 1.363 . S
C1585 C1591 1.428 . S
H1586 C1582 0.930 . S
H1587 C1584 0.929 . S
S1588 N1589 1.613 . S
S1588 N1590 1.610 . S
N1589 S1588 1.613 . S
N1589 C1592 1.350 . S
N1590 S1588 1.610 . S
N1590 C1591 1.351 . S
C1591 C1585 1.428 . S
C1591 N1590 1.351 . S
C1591 C1592 1.434 . S
C1592 C1583 1.429 . S
C1592 N1589 1.350 . S
C1592 C1591 1.434 . S
C1593 C1594 1.369 . S
C1593 C1595 1.419 . S
C1593 H1597 0.930 . S
C1594 C1593 1.369 . S
C1594 C1603 1.429 . S
C1595 C1593 1.419 . S
C1595 C1596 1.363 . S
C1595 H1598 0.929 . S
C1596 C1595 1.363 . S
C1596 C1602 1.428 . S
H1597 C1593 0.930 . S
H1598 C1595 0.929 . S
S1599 N1600 1.613 . S
S1599 N1601 1.610 . S
N1600 S1599 1.613 . S
N1600 C1603 1.350 . S
N1601 S1599 1.610 . S
N1601 C1602 1.351 . S
C1602 C1596 1.428 . S
C1602 N1601 1.351 . S
C1602 C1603 1.434 . S
C1603 C1594 1.429 . S
C1603 N1600 1.350 . S
C1603 C1602 1.434 . S
C1604 C1605 1.369 . S
C1604 C1606 1.419 . S
C1604 H1608 0.930 . S
C1605 C1604 1.369 . S
C1605 C1614 1.429 . S
C1606 C1604 1.419 . S
C1606 C1607 1.363 . S
C1606 H1609 0.929 . S
C1607 C1606 1.363 . S
C1607 C1613 1.428 . S
H1608 C1604 0.930 . S
H1609 C1606 0.929 . S
S1610 N1611 1.613 . S
S1610 N1612 1.610 . S
N1611 S1610 1.613 . S
N1611 C1614 1.350 . S
N1612 S1610 1.610 . S
N1612 C1613 1.351 . S
C1613 C1607 1.428 . S
C1613 N1612 1.351 . S
C1613 C1614 1.434 . S
C1614 C1605 1.429 . S
C1614 N1611 1.350 . S
C1614 C1613 1.434 . S
C1615 C1616 1.369 . S
C1615 C1617 1.419 . S
C1615 H1619 0.930 . S
C1616 C1615 1.369 . S
C1616 C1625 1.429 . S
C1617 C1615 1.419 . S
C1617 C1618 1.363 . S
C1617 H1620 0.929 . S
C1618 C1617 1.363 . S
C1618 C1624 1.428 . S
H1619 C1615 0.930 . S
H1620 C1617 0.929 . S
S1621 N1622 1.613 . S
S1621 N1623 1.610 . S
N1622 S1621 1.613 . S
N1622 C1625 1.350 . S
N1623 S1621 1.610 . S
N1623 C1624 1.351 . S
C1624 C1618 1.428 . S
C1624 N1623 1.351 . S
C1624 C1625 1.434 . S
C1625 C1616 1.429 . S
C1625 N1622 1.350 . S
C1625 C1624 1.434 . S
C1626 C1627 1.369 . S
C1626 C1628 1.419 . S
C1626 H1630 0.930 . S
C1627 C1626 1.369 . S
C1627 C1636 1.429 . S
C1628 C1626 1.419 . S
C1628 C1629 1.363 . S
C1628 H1631 0.929 . S
C1629 C1628 1.363 . S
C1629 C1635 1.428 . S
H1630 C1626 0.930 . S
H1631 C1628 0.929 . S
S1632 N1633 1.613 . S
S1632 N1634 1.610 . S
N1633 S1632 1.613 . S
N1633 C1636 1.350 . S
N1634 S1632 1.610 . S
N1634 C1635 1.351 . S
C1635 C1629 1.428 . S
C1635 N1634 1.351 . S
C1635 C1636 1.434 . S
C1636 C1627 1.429 . S
C1636 N1633 1.350 . S
C1636 C1635 1.434 . S
C1637 C1638 1.369 . S
C1637 C1639 1.419 . S
C1637 H1641 0.930 . S
C1638 C1637 1.369 . S
C1638 C1647 1.429 . S
C1639 C1637 1.419 . S
C1639 C1640 1.363 . S
C1639 H1642 0.929 . S
C1640 C1639 1.363 . S
C1640 C1646 1.428 . S
H1641 C1637 0.930 . S
H1642 C1639 0.929 . S
S1643 N1644 1.613 . S
S1643 N1645 1.610 . S
N1644 S1643 1.613 . S
N1644 C1647 1.350 . S
N1645 S1643 1.610 . S
N1645 C1646 1.351 . S
C1646 C1640 1.428 . S
C1646 N1645 1.351 . S
C1646 C1647 1.434 . S
C1647 C1638 1.429 . S
C1647 N1644 1.350 . S
C1647 C1646 1.434 . S
C1648 C1649 1.369 . S
C1648 C1650 1.419 . S
C1648 H1652 0.930 . S
C1649 C1648 1.369 . S
C1649 C1658 1.429 . S
C1650 C1648 1.419 . S
C1650 C1651 1.363 . S
C1650 H1653 0.929 . S
C1651 C1650 1.363 . S
C1651 C1657 1.428 . S
H1652 C1648 0.930 . S
H1653 C1650 0.929 . S
S1654 N1655 1.613 . S
S1654 N1656 1.610 . S
N1655 S1654 1.613 . S
N1655 C1658 1.350 . S
N1656 S1654 1.610 . S
N1656 C1657 1.351 . S
C1657 C1651 1.428 . S
C1657 N1656 1.351 . S
C1657 C1658 1.434 . S
C1658 C1649 1.429 . S
C1658 N1655 1.350 . S
C1658 C1657 1.434 . S
C1659 C1660 1.369 . S
C1659 C1661 1.419 . S
C1659 H1663 0.930 . S
C1660 C1659 1.369 . S
C1660 C1669 1.429 . S
C1661 C1659 1.419 . S
C1661 C1662 1.363 . S
C1661 H1664 0.929 . S
C1662 C1661 1.363 . S
C1662 C1668 1.428 . S
H1663 C1659 0.930 . S
H1664 C1661 0.929 . S
S1665 N1666 1.613 . S
S1665 N1667 1.610 . S
N1666 S1665 1.613 . S
N1666 C1669 1.350 . S
N1667 S1665 1.610 . S
N1667 C1668 1.351 . S
C1668 C1662 1.428 . S
C1668 N1667 1.351 . S
C1668 C1669 1.434 . S
C1669 C1660 1.429 . S
C1669 N1666 1.350 . S
C1669 C1668 1.434 . S
C1670 C1671 1.369 . S
C1670 C1672 1.419 . S
C1670 H1674 0.930 . S
C1671 C1670 1.369 . S
C1671 C1680 1.429 . S
C1672 C1670 1.419 . S
C1672 C1673 1.363 . S
C1672 H1675 0.929 . S
C1673 C1672 1.363 . S
C1673 C1679 1.428 . S
H1674 C1670 0.930 . S
H1675 C1672 0.929 . S
S1676 N1677 1.613 . S
S1676 N1678 1.610 . S
N1677 S1676 1.613 . S
N1677 C1680 1.350 . S
N1678 S1676 1.610 . S
N1678 C1679 1.351 . S
C1679 C1673 1.428 . S
C1679 N1678 1.351 . S
C1679 C1680 1.434 . S
C1680 C1671 1.429 . S
C1680 N1677 1.350 . S
C1680 C1679 1.434 . S
C1681 C1682 1.369 . S
C1681 C1683 1.419 . S
C1681 H1685 0.930 . S
C1682 C1681 1.369 . S
C1682 C1691 1.429 . S
C1683 C1681 1.419 . S
C1683 C1684 1.363 . S
C1683 H1686 0.929 . S
C1684 C1683 1.363 . S
C1684 C1690 1.428 . S
H1685 C1681 0.930 . S
H1686 C1683 0.929 . S
S1687 N1688 1.613 . S
S1687 N1689 1.610 . S
N1688 S1687 1.613 . S
N1688 C1691 1.350 . S
N1689 S1687 1.610 . S
N1689 C1690 1.351 . S
C1690 C1684 1.428 . S
C1690 N1689 1.351 . S
C1690 C1691 1.434 . S
C1691 C1682 1.429 . S
C1691 N1688 1.350 . S
C1691 C1690 1.434 . S
C1692 C1693 1.369 . S
C1692 C1694 1.419 . S
C1692 H1696 0.930 . S
C1693 C1692 1.369 . S
C1693 C1702 1.429 . S
C1694 C1692 1.419 . S
C1694 C1695 1.363 . S
C1694 H1697 0.929 . S
C1695 C1694 1.363 . S
C1695 C1701 1.428 . S
H1696 C1692 0.930 . S
H1697 C1694 0.929 . S
S1698 N1699 1.613 . S
S1698 N1700 1.610 . S
N1699 S1698 1.613 . S
N1699 C1702 1.350 . S
N1700 S1698 1.610 . S
N1700 C1701 1.351 . S
C1701 C1695 1.428 . S
C1701 N1700 1.351 . S
C1701 C1702 1.434 . S
C1702 C1693 1.429 . S
C1702 N1699 1.350 . S
C1702 C1701 1.434 . S
C1703 C1704 1.369 . S
C1703 C1705 1.419 . S
C1703 H1707 0.930 . S
C1704 C1703 1.369 . S
C1704 C1713 1.429 . S
C1705 C1703 1.419 . S
C1705 C1706 1.363 . S
C1705 H1708 0.929 . S
C1706 C1705 1.363 . S
C1706 C1712 1.428 . S
H1707 C1703 0.930 . S
H1708 C1705 0.929 . S
S1709 N1710 1.613 . S
S1709 N1711 1.610 . S
N1710 S1709 1.613 . S
N1710 C1713 1.350 . S
N1711 S1709 1.610 . S
N1711 C1712 1.351 . S
C1712 C1706 1.428 . S
C1712 N1711 1.351 . S
C1712 C1713 1.434 . S
C1713 C1704 1.429 . S
C1713 N1710 1.350 . S
C1713 C1712 1.434 . S
C1714 C1715 1.369 . S
C1714 C1716 1.419 . S
C1714 H1718 0.930 . S
C1715 C1714 1.369 . S
C1715 C1724 1.429 . S
C1716 C1714 1.419 . S
C1716 C1717 1.363 . S
C1716 H1719 0.929 . S
C1717 C1716 1.363 . S
C1717 C1723 1.428 . S
H1718 C1714 0.930 . S
H1719 C1716 0.929 . S
S1720 N1721 1.613 1_565 S
S1720 N1722 1.610 . S
N1721 S1720 1.613 1_545 S
N1721 C1724 1.350 . S
N1722 S1720 1.610 . S
N1722 C1723 1.351 1_565 S
C1723 C1717 1.428 . S
C1723 N1722 1.351 1_545 S
C1723 C1724 1.434 . S
C1724 C1715 1.429 . S
C1724 N1721 1.350 . S
C1724 C1723 1.434 . S
C1725 C1726 1.369 . S
C1725 C1727 1.419 . S
C1725 H1729 0.930 . S
C1726 C1725 1.369 . S
C1726 C1735 1.429 . S
C1727 C1725 1.419 . S
C1727 C1728 1.363 . S
C1727 H1730 0.929 . S
C1728 C1727 1.363 . S
C1728 C1734 1.428 . S
H1729 C1725 0.930 . S
H1730 C1727 0.929 . S
S1731 N1732 1.613 . S
S1731 N1733 1.610 . S
N1732 S1731 1.613 . S
N1732 C1735 1.350 . S
N1733 S1731 1.610 . S
N1733 C1734 1.351 . S
C1734 C1728 1.428 . S
C1734 N1733 1.351 . S
C1734 C1735 1.434 . S
C1735 C1726 1.429 . S
C1735 N1732 1.350 . S
C1735 C1734 1.434 . S
C1736 C1737 1.369 . S
C1736 C1738 1.419 . S
C1736 H1740 0.930 . S
C1737 C1736 1.369 . S
C1737 C1746 1.429 . S
C1738 C1736 1.419 . S
C1738 C1739 1.363 . S
C1738 H1741 0.906 1_565 S
C1739 C1738 1.363 . S
C1739 C1745 1.428 . S
H1740 C1736 0.930 . S
H1741 C1738 0.906 1_545 S
S1742 N1743 1.613 . S
S1742 N1744 1.610 . S
N1743 S1742 1.613 . S
N1743 C1746 1.350 . S
N1744 S1742 1.610 . S
N1744 C1745 1.351 . S
C1745 C1739 1.428 . S
C1745 N1744 1.351 . S
C1745 C1746 1.434 . S
C1746 C1737 1.429 . S
C1746 N1743 1.350 . S
C1746 C1745 1.434 . S
C1747 C1748 1.369 . S
C1747 C1749 1.419 . S
C1747 H1751 0.930 . S
C1748 C1747 1.369 . S
C1748 C1757 1.429 . S
C1749 C1747 1.419 . S
C1749 C1750 1.363 . S
C1749 H1752 0.929 . S
C1750 C1749 1.363 . S
C1750 C1756 1.428 . S
H1751 C1747 0.930 . S
H1752 C1749 0.929 . S
S1753 N1754 1.613 . S
S1753 N1755 1.610 . S
N1754 S1753 1.613 . S
N1754 C1757 1.350 . S
N1755 S1753 1.610 . S
N1755 C1756 1.351 . S
C1756 C1750 1.428 . S
C1756 N1755 1.351 . S
C1756 C1757 1.434 . S
C1757 C1748 1.429 . S
C1757 N1754 1.350 . S
C1757 C1756 1.434 . S
C1758 C1759 1.369 . S
C1758 C1760 1.419 . S
C1758 H1762 0.930 . S
C1759 C1758 1.369 . S
C1759 C1768 1.429 . S
C1760 C1758 1.419 . S
C1760 C1761 1.363 . S
C1760 H1763 0.929 . S
C1761 C1760 1.363 . S
C1761 C1767 1.428 . S
H1762 C1758 0.930 . S
H1763 C1760 0.929 . S
S1764 N1765 1.613 . S
S1764 N1766 1.610 . S
N1765 S1764 1.613 . S
N1765 C1768 1.350 . S
N1766 S1764 1.610 . S
N1766 C1767 1.351 . S
C1767 C1761 1.428 . S
C1767 N1766 1.351 . S
C1767 C1768 1.434 . S
C1768 C1759 1.429 . S
C1768 N1765 1.350 . S
C1768 C1767 1.434 . S
C1769 C1770 1.369 . S
C1769 C1771 1.419 . S
C1769 H1773 0.930 . S
C1770 C1769 1.369 . S
C1770 C1779 1.429 . S
C1771 C1769 1.419 . S
C1771 C1772 1.363 . S
C1771 H1774 0.929 . S
C1772 C1771 1.363 . S
C1772 C1778 1.428 . S
H1773 C1769 0.930 . S
H1774 C1771 0.929 . S
S1775 N1776 1.613 . S
S1775 N1777 1.610 . S
N1776 S1775 1.613 . S
N1776 C1779 1.350 . S
N1777 S1775 1.610 . S
N1777 C1778 1.351 . S
C1778 C1772 1.428 . S
C1778 N1777 1.351 . S
C1778 C1779 1.434 . S
C1779 C1770 1.429 . S
C1779 N1776 1.350 . S
C1779 C1778 1.434 . S
C727 C376 1.175 . S
C725 C241 1.392 . S
C738 C384 1.221 . S
C736 C272 1.373 . S
C749 C379 1.350 . S
C747 C249 1.538 . S
C758 C206 1.644 . S
C760 C383 1.488 . S
C771 C438 1.390 . S
C769 C125 1.660 . S
C780 C142 1.307 . S
C782 C414 1.194 . S
C793 C441 1.227 . S
C791 C169 1.373 . S
C802 C103 1.748 . S
C804 C415 1.595 . S
C813 C315 1.846 . S
C815 C472 1.637 . S
C824 C338 1.494 . S
C826 C476 1.384 . S
C837 C531 1.097 . S
C835 C183 1.332 . S
C848 C539 1.609 . S
C846 C293 1.781 . S
C859 C469 1.160 . S
C857 C87 1.376 . S
C870 C477 1.563 1_545 S
C868 C21 1.698 . S
C879 C43 1.781 . S
C881 C534 1.590 . S
C890 C65 1.623 . S
C892 C538 1.493 . S
C901 C37 1.579 . S
C903 C503 1.352 . S
C914 C593 1.233 . S
C912 C197 1.472 . S
C923 C307 1.676 . S
C925 C601 1.536 . S
C936 C655 1.252 . S
C934 C329 1.557 . S
C945 C150 1.477 . S
C947 C507 1.348 1_655 S
C958 C596 1.253 . S
C956 C227 1.416 . S
C969 C600 1.421 . S
C967 C274 1.566 . S
C980 C663 1.403 . S
C978 C208 1.533 . S
C989 C73 1.383 . S
C991 C407 1.170 . S
C1000 C7 1.386 . S
C1002 C353 1.263 1_554 S
C1013 C410 1.347 . S
C1011 C29 1.534 . S
C1022 C51 1.663 . S
C1024 C352 1.519 . S
C1033 C323 1.670 . S
C1035 C717 1.388 . S
C1044 C340 1.299 . S
C1046 C693 1.179 1_556 S
C1057 C720 1.241 . S
C1055 C191 1.379 . S
C1066 C301 1.738 . S
C1068 C694 1.585 1_556 S
C1077 C117 1.834 . S
C1079 C627 1.633 . S
C1090 C631 1.388 . S
C1088 C140 1.507 . S
C1101 C686 1.098 . S
C1099 C161 1.319 . S
C1112 C570 1.612 1_565 S
C1110 C95 1.780 . S
C1123 C624 1.156 . S
C1121 C235 1.371 . S
C1132 C282 1.661 . S
C1134 C632 1.519 . S
C1143 C263 1.777 . S
C1145 C689 1.593 . S
C1156 C569 1.439 1_565 S
C1154 C216 1.597 . S
C1165 C257 1.575 . S
C1167 C658 1.357 . S
C1178 C562 1.227 . S
C1176 C175 1.469 . S
C1187 C109 1.660 . S
C1189 C446 1.525 1_455 S
C1198 C131 1.550 . S
C1200 C500 1.249 . S
C1209 C348 1.492 . S
C1211 C662 1.355 . S
C1220 C81 1.416 . S
C1222 C565 1.251 . S
C1231 C15 1.594 . S
C1233 C445 1.453 1_455 S
C1244 C508 1.439 1_655 S
C1242 C59 1.550 . S
C1255 C363 1.685 . S
C1253 C351 1.747 . S
C1266 C393 1.811 . S
C1264 C194 1.846 . S
C1277 C370 1.729 . S
C1275 C304 1.686 . S
C1288 C385 1.979 . S
C1286 C326 1.889 . S
C1299 C425 1.628 . S
C1297 C205 1.687 . S
C1308 C230 1.998 . S
C1310 C416 2.068 . S
C1319 C271 1.792 . S
C1321 C432 1.880 . S
C1330 C250 1.978 . S
C1332 C424 1.929 . S
C1343 C463 1.494 . S
C1341 C62 1.452 . S
C1354 C486 1.695 . S
C1352 C84 1.771 . S
C1363 C18 1.374 . S
C1365 C518 1.294 . S
C1376 C548 1.790 . S
C1374 C40 1.837 . S
C1385 C147 1.417 . S
C1387 C456 1.364 . S
C1398 C478 1.807 . S
C1396 C164 1.802 . S
C1409 C525 1.452 . S
C1407 C98 1.411 . S
C1418 C120 1.851 . S
C1420 C540 1.880 . S
C1431 C487 1.506 . S
C1429 C96 1.537 . S
C1440 C10 1.585 . S
C1442 C580 1.499 . S
C1451 C32 1.502 . S
C1453 C610 1.502 . S
C1462 C54 1.435 . S
C1464 C649 1.528 . S
C1475 C509 1.835 . S
C1473 C238 1.746 . S
C1486 C587 1.570 . S
C1484 C337 1.492 . S
C1495 C184 1.843 . S
C1497 C602 1.914 . S
C1508 C672 1.338 . S
C1506 C316 1.355 . S
C1519 C394 1.686 . S
C1517 C153 1.741 . S
C1528 C172 1.849 . S
C1530 C362 1.807 . S
C1539 C106 1.682 . S
C1541 C401 1.727 . S
C1550 C128 1.888 . S
C1552 C354 1.974 . S
C1563 C704 1.581 . S
C1561 C52 1.661 . S
C1574 C695 2.070 . S
C1572 C74 2.002 . S
C1583 C8 1.774 . S
C1585 C711 1.824 . S
C1594 C30 1.977 . S
C1596 C703 1.932 . S
C1605 C219 1.466 . S
C1607 C618 1.544 . S
C1618 C641 1.683 . S
C1616 C228 1.755 . S
C1629 C673 1.344 . S
C1627 C285 1.387 . S
C1638 C260 1.825 . S
C1640 C579 1.776 . S
C1651 C611 1.369 . S
C1649 C345 1.413 . S
C1660 C186 1.819 . S
C1662 C633 1.828 . S
C1673 C680 1.455 . S
C1671 C296 1.404 . S
C1682 C318 1.868 . S
C1684 C571 1.897 . S
C1693 C294 1.544 . S
C1695 C642 1.495 . S
C1704 C279 1.615 . S
C1706 C549 1.540 . S
C1717 C455 1.508 . S
C1715 C252 1.521 . S
C1726 C213 1.457 . S
C1728 C494 1.574 . S
C1737 C76 1.738 . S
C1739 C664 1.821 . S
C1748 C139 1.495 . S
C1750 C556 1.570 . S
C1761 C447 1.899 . S
C1759 C162 1.824 . S
C1770 C118 1.334 . S
C1772 C517 1.332 . S
