# Generated by pormake.
# Topology pth, (4,4)-cn, num edge types: 1
# Building blocks:
#     Node 0, Type 0, BuildingBlock: UXUYUI_clean_sbu_0, # of connection points: 4
#     Node 1, Type 0, BuildingBlock: UXUYUI_clean_sbu_0, # of connection points: 4
#     Node 2, Type 0, BuildingBlock: UXUYUI_clean_sbu_0, # of connection points: 4
#     Node 3, Type 1, BuildingBlock: NAWXER_clean_sbu_0, # of connection points: 4
#     Node 4, Type 1, BuildingBlock: NAWXER_clean_sbu_0, # of connection points: 4
#     Node 5, Type 1, BuildingBlock: NAWXER_clean_sbu_0, # of connection points: 4
#     Edge 6, Type (0, 1), BuildingBlock: KIFKEQ_clean_linker_1, # of connection points: 2
#     Edge 7, Type (0, 1), BuildingBlock: KIFKEQ_clean_linker_1, # of connection points: 2
#     Edge 8, Type (0, 1), BuildingBlock: KIFKEQ_clean_linker_1, # of connection points: 2
#     Edge 9, Type (0, 1), BuildingBlock: KIFKEQ_clean_linker_1, # of connection points: 2
#     Edge 10, Type (0, 1), BuildingBlock: KIFKEQ_clean_linker_1, # of connection points: 2
#     Edge 11, Type (0, 1), BuildingBlock: KIFKEQ_clean_linker_1, # of connection points: 2
#     Edge 12, Type (0, 1), BuildingBlock: KIFKEQ_clean_linker_1, # of connection points: 2
#     Edge 13, Type (0, 1), BuildingBlock: KIFKEQ_clean_linker_1, # of connection points: 2
#     Edge 14, Type (0, 1), BuildingBlock: KIFKEQ_clean_linker_1, # of connection points: 2
#     Edge 15, Type (0, 1), BuildingBlock: KIFKEQ_clean_linker_1, # of connection points: 2
#     Edge 16, Type (0, 1), BuildingBlock: KIFKEQ_clean_linker_1, # of connection points: 2
#     Edge 17, Type (0, 1), BuildingBlock: KIFKEQ_clean_linker_1, # of connection points: 2
# Relax obj value: 0.086
# Max RMSD: 0.218
# Mean RMSD: 0.120
data_MOF--net-pth--node1-UXUYUI_clean_sbu_0--node2-NAWXER_clean_sbu_0--edge1-KIFKEQ_clean_linker_1
_symmetry_space_group_name_H-M    P1
_symmetry_Int_Tables_number       1
_symmetry_cell_setting            triclinic
loop_
_symmetry_equiv_pos_as_xyz
'x, y, z'
_cell_length_a     28.572658
_cell_length_b     28.609864
_cell_length_c     71.506239
_cell_angle_alpha  90.011425
_cell_angle_beta   89.963406
_cell_angle_gamma 120.04247
loop_
_atom_site_label
_atom_site_type_symbol
_atom_site_fract_x
_atom_site_fract_y
_atom_site_fract_z
_atom_type_partial_charge
Li0 Li 0.05453 0.03866 0.07023 0.0
Li1 Li 0.99284 0.04028 0.0939 0.0
Li2 Li 0.01675 0.96675 0.09385 0.0
Li3 Li 0.95444 0.96814 0.07042 0.0
C4 C 0.11843 0.07567 0.10192 0.0
N5 N 0.22773 0.13681 0.10952 0.0
C6 C 0.13861 0.12388 0.11196 0.0
C7 C 0.15379 0.05833 0.09592 0.0
C8 C 0.19401 0.15428 0.11562 0.0
C9 C 0.20891 0.08984 0.09985 0.0
C10 C 0.97952 0.08807 0.0627 0.0
C11 C 0.91605 0.1189 0.05729 0.0
N12 N 0.9579 0.17037 0.05562 0.0
C13 C 0.0219 0.14115 0.06065 0.0
C14 C 0.92616 0.0767 0.06077 0.0
C15 C 0.01016 0.18225 0.0572 0.0
C16 C 0.11743 0.06034 0.03768 0.0
N17 N 0.11483 0.08176 0.05436 0.0
C18 C 0.19516 0.16483 0.04714 0.0
C19 C 0.15256 0.13298 0.05925 0.0
C20 C 0.19845 0.14407 0.0297 0.0
C21 C 0.15907 0.09095 0.02507 0.0
H22 H 0.08657 0.01972 0.03406 0.0
H23 H 0.14895 0.1497 0.07235 0.0
C24 C 0.93857 0.06822 0.12159 0.0
N25 N 0.98034 0.0877 0.10921 0.0
C26 C 0.93143 0.10346 0.13321 0.0
C27 C 0.01091 0.17805 0.11935 0.0
C28 C 0.01619 0.14147 0.10791 0.0
C29 C 0.96827 0.15911 0.13229 0.0
H30 H 0.91149 0.0253 0.12283 0.0
H31 H 0.04968 0.15589 0.09825 0.0
C32 C 0.02941 0.91881 0.06245 0.0
N33 N 0.05122 0.8368 0.05501 0.0
C34 C 0.98711 0.86567 0.06048 0.0
C35 C 0.08278 0.93039 0.06026 0.0
C36 C 0.99896 0.82472 0.05684 0.0
C37 C 0.09299 0.88834 0.0566 0.0
C38 C 0.8914 0.93114 0.10229 0.0
C39 C 0.87177 0.88312 0.11241 0.0
C40 C 0.8556 0.94798 0.09637 0.0
C41 C 0.81648 0.8524 0.11623 0.0
C42 C 0.8006 0.91617 0.10045 0.0
N43 N 0.78232 0.86939 0.1102 0.0
C44 C 0.07125 0.93891 0.12147 0.0
C45 C 0.99381 0.86563 0.10774 0.0
C46 C 0.07843 0.90365 0.13306 0.0
N47 N 0.02954 0.91942 0.10908 0.0
C48 C 0.99914 0.82904 0.11915 0.0
C49 C 0.04168 0.84798 0.13211 0.0
H50 H 0.09821 0.98184 0.12275 0.0
H51 H 0.96033 0.85121 0.0981 0.0
C52 C 0.89042 0.94616 0.03819 0.0
N53 N 0.8937 0.92482 0.05479 0.0
C54 C 0.84845 0.91539 0.02572 0.0
C55 C 0.81339 0.84153 0.0478 0.0
C56 C 0.85632 0.87354 0.05975 0.0
C57 C 0.80944 0.86219 0.03043 0.0
H58 H 0.92102 0.98685 0.0345 0.0
H59 H 0.86047 0.8569 0.07279 0.0
O60 O 0.06442 0.04585 0.09791 0.0
O61 O 0.9903 0.04733 0.06614 0.0
O62 O 0.01853 0.95941 0.06607 0.0
O63 O 0.94531 0.96127 0.09813 0.0
H64 H 0.11184 0.13768 0.11691 0.0
H65 H 0.13875 0.02084 0.08838 0.0
H66 H 0.21018 0.19175 0.12332 0.0
H67 H 0.23671 0.07692 0.09523 0.0
H68 H 0.87492 0.11068 0.05584 0.0
H69 H 0.06343 0.15064 0.06193 0.0
H70 H 0.89286 0.03574 0.06177 0.0
H71 H 0.04259 0.22358 0.05577 0.0
H72 H 0.22407 0.20594 0.0511 0.0
H73 H 0.16021 0.07341 0.01177 0.0
H74 H 0.89857 0.08721 0.14323 0.0
H75 H 0.04012 0.22071 0.11818 0.0
H76 H 0.94558 0.85601 0.06195 0.0
H77 H 0.116 0.97141 0.06119 0.0
H78 H 0.96659 0.78334 0.05546 0.0
H79 H 0.13412 0.89672 0.05494 0.0
H80 H 0.89889 0.86971 0.11731 0.0
H81 H 0.87021 0.9853 0.08875 0.0
H82 H 0.80073 0.81508 0.124 0.0
H83 H 0.77246 0.92869 0.09589 0.0
H84 H 0.11121 0.91991 0.1431 0.0
H85 H 0.97 0.78637 0.11796 0.0
H86 H 0.84679 0.93283 0.01247 0.0
H87 H 0.78479 0.80036 0.05181 0.0
Li88 Li 0.99053 0.95437 0.40424 0.0
Li89 Li 0.05498 0.01753 0.42776 0.0
Li90 Li 0.95546 0.98953 0.42878 0.0
Li91 Li 0.01669 0.05345 0.40485 0.0
C92 C 0.96949 0.89317 0.4378 0.0
N93 N 0.92679 0.78794 0.44994 0.0
C94 C 1.00317 0.87613 0.4457 0.0
C95 C 0.91406 0.85695 0.43627 0.0
C96 C 0.98081 0.82267 0.45169 0.0
C97 C 0.89325 0.80385 0.44244 0.0
C98 C 0.11399 0.03994 0.39406 0.0
C99 C 0.20456 0.11438 0.38968 0.0
N100 N 0.21919 0.07995 0.38211 0.0
C101 C 0.12973 0.00534 0.38607 0.0
C102 C 0.15149 0.09495 0.39575 0.0
C103 C 0.18319 0.02633 0.38018 0.0
C104 C 0.94953 0.8866 0.37225 0.0
N105 N 0.9758 0.89429 0.3888 0.0
C106 C 0.98675 0.81803 0.38312 0.0
C107 C 0.9945 0.8612 0.39433 0.0
C108 C 0.96073 0.80947 0.36572 0.0
C109 C 0.94152 0.84424 0.36043 0.0
H110 H 0.93591 0.91413 0.36803 0.0
H111 H 0.01654 0.86898 0.40729 0.0
C112 C 0.12534 0.05859 0.459 0.0
N113 N 0.11628 0.03189 0.44248 0.0
C114 C 0.16813 0.06613 0.47051 0.0
C115 C 0.19204 0.01958 0.44758 0.0
C116 C 0.14842 0.01228 0.43668 0.0
C117 C 0.20198 0.04603 0.46494 0.0
H118 H 0.09845 0.07279 0.46347 0.0
H119 H 0.13947 0.98981 0.42379 0.0
C120 C 0.89262 0.96957 0.3956 0.0
N121 N 0.78748 0.9327 0.38422 0.0
C122 C 0.87709 0.00599 0.38923 0.0
C123 C 0.85495 0.91436 0.39592 0.0
C124 C 0.82366 0.98656 0.38361 0.0
C125 C 0.80192 0.89652 0.39018 0.0
C126 C 0.0378 0.11309 0.43856 0.0
C127 C 1.00107 0.12641 0.44631 0.0
C128 C 0.09239 0.15245 0.43717 0.0
C129 C 0.0195 0.17933 0.45225 0.0
C130 C 0.10923 0.20491 0.44327 0.0
N131 N 0.07273 0.21717 0.4506 0.0
C132 C 0.89454 0.94983 0.46188 0.0
C133 C 0.85848 0.9865 0.44037 0.0
C134 C 0.85342 0.93923 0.47468 0.0
N135 N 0.89629 0.973 0.4451 0.0
C136 C 0.81634 0.9761 0.45265 0.0
C137 C 0.81371 0.95257 0.47013 0.0
H138 H 0.92564 0.94036 0.46545 0.0
H139 H 0.86171 0.00662 0.42728 0.0
C140 C 0.05581 0.12133 0.37303 0.0
N141 N 0.03045 0.11401 0.38977 0.0
C142 C 0.06385 0.16381 0.36129 0.0
C143 C 0.02036 0.19094 0.38438 0.0
C144 C 0.0126 0.14762 0.39554 0.0
C145 C 0.0456 0.19917 0.36684 0.0
H146 H 0.06872 0.0934 0.3686 0.0
H147 H 0.99119 0.14017 0.40862 0.0
O148 O 0.99079 0.94534 0.43186 0.0
O149 O 0.06186 0.02001 0.39992 0.0
O150 O 0.9448 0.98795 0.40109 0.0
O151 O 0.0204 0.06149 0.43269 0.0
H152 H 0.04615 0.90384 0.44708 0.0
H153 H 0.88735 0.8698 0.43053 0.0
H154 H 0.00641 0.80881 0.45774 0.0
H155 H 0.85042 0.77534 0.44132 0.0
H156 H 0.23407 0.15686 0.39094 0.0
H157 H 0.10103 0.96269 0.38456 0.0
H158 H 0.13967 0.12238 0.40156 0.0
H159 H 0.19606 0.99999 0.37408 0.0
H160 H 1.0017 0.79208 0.38797 0.0
H161 H 0.92213 0.84 0.34704 0.0
H162 H 0.17335 0.0858 0.4839 0.0
H163 H 0.21721 0.00391 0.44252 0.0
H164 H 0.90591 0.04883 0.38875 0.0
H165 H 0.8666 0.88555 0.40041 0.0
H166 H 0.81097 0.0143 0.37876 0.0
H167 H 0.77228 0.85391 0.3904 0.0
H168 H 0.95872 0.09626 0.4476 0.0
H169 H 0.12148 0.14253 0.43156 0.0
H170 H 0.99148 0.19032 0.45816 0.0
H171 H 0.15134 0.23584 0.44223 0.0
H172 H 0.85285 0.92109 0.48804 0.0
H173 H 0.78724 0.98813 0.44878 0.0
H174 H 0.08254 0.16773 0.34777 0.0
H175 H 0.00609 0.2173 0.38942 0.0
Li176 Li 0.03912 0.98829 0.73705 0.0
Li177 Li 0.0436 0.0544 0.76069 0.0
Li178 Li 0.96944 0.95549 0.76168 0.0
Li179 Li 0.97028 0.01788 0.73735 0.0
C180 C 0.08295 0.97322 0.77204 0.0
N181 N 0.1526 0.94301 0.78736 0.0
C182 C 0.13498 0.01252 0.77751 0.0
C183 C 0.06606 0.9186 0.77461 0.0
C184 C 0.16968 0.99641 0.78516 0.0
C185 C 0.10195 0.90414 0.78231 0.0
C186 C 0.07007 0.11314 0.72643 0.0
C187 C 0.06786 0.1962 0.72508 0.0
N188 N 0.11122 0.21729 0.71337 0.0
C189 C 0.11444 0.13549 0.71433 0.0
C190 C 0.04645 0.14358 0.73183 0.0
C191 C 0.13473 0.18828 0.7079 0.0
C192 C 0.06193 0.95234 0.70353 0.0
N193 N 0.08131 0.97041 0.72101 0.0
C194 C 0.16191 0.96779 0.71419 0.0
C195 C 0.13029 0.97828 0.72649 0.0
C196 C 0.14333 0.94987 0.69596 0.0
C197 C 0.0924 0.94175 0.69072 0.0
H198 H 0.02314 0.94708 0.69945 0.0
H199 H 0.14565 0.99406 0.74021 0.0
C200 C 0.07595 0.117 0.79356 0.0
N201 N 0.09047 0.11491 0.77562 0.0
C202 C 0.1105 0.15963 0.80523 0.0
C203 C 0.17387 0.19753 0.77961 0.0
C204 C 0.13831 0.15399 0.7685 0.0
C205 C 0.16052 0.20051 0.79834 0.0
H206 H 0.03788 0.08495 0.7989 0.0
H207 H 0.14937 0.15096 0.75429 0.0
C208 C 0.93481 0.89155 0.72846 0.0
N209 N 0.88509 0.78502 0.71716 0.0
C210 C 0.88583 0.86879 0.71876 0.0
C211 C 0.95873 0.86034 0.7323 0.0
C212 C 0.86124 0.81478 0.7132 0.0
C213 C 0.93292 0.80651 0.72649 0.0
C214 C 0.92911 0.03493 0.77269 0.0
C215 C 0.87732 0.99391 0.77767 0.0
C216 C 0.94419 0.08882 0.776 0.0
C217 C 0.84108 0.0076 0.78559 0.0
C218 C 0.90676 0.10084 0.78394 0.0
N219 N 0.8564 0.06033 0.78851 0.0
C220 C 0.94451 0.89987 0.7958 0.0
C221 C 0.87733 0.85575 0.77255 0.0
C222 C 0.9136 0.8595 0.80876 0.0
N223 N 0.92594 0.89734 0.77812 0.0
C224 C 0.84525 0.81432 0.78501 0.0
C225 C 0.86309 0.81613 0.80344 0.0
H226 H 0.98316 0.93365 0.79988 0.0
H227 H 0.86281 0.85527 0.75858 0.0
C228 C 0.94386 0.04789 0.70345 0.0
N229 N 0.92674 0.0343 0.72141 0.0
C230 C 0.9131 0.05796 0.69062 0.0
C231 C 0.84784 0.04047 0.71504 0.0
C232 C 0.87975 0.03051 0.72736 0.0
C233 C 0.8641 0.05383 0.69633 0.0
H234 H 0.98113 0.05013 0.69901 0.0
H235 H 0.86617 0.01854 0.74152 0.0
O236 O 0.04838 0.98835 0.76468 0.0
O237 O 0.05002 0.06165 0.7329 0.0
O238 O 0.95912 0.94425 0.73407 0.0
O239 O 0.96527 0.02224 0.76509 0.0
H240 H 0.14855 0.05498 0.77575 0.0
H241 H 0.02556 0.88768 0.77085 0.0
H242 H 0.21017 0.02636 0.78934 0.0
H243 H 0.08948 0.86202 0.78433 0.0
H244 H 0.04997 0.22024 0.72914 0.0
H245 H 0.13309 0.1123 0.71002 0.0
H246 H 0.0118 0.12662 0.74103 0.0
H247 H 0.16915 0.20618 0.69856 0.0
H248 H 0.2014 0.97563 0.71868 0.0
H249 H 0.07653 0.92786 0.67681 0.0
H250 H 0.09881 0.15959 0.81963 0.0
H251 H 0.21163 0.22829 0.77359 0.0
H252 H 0.86692 0.89258 0.71566 0.0
H253 H 0.99695 0.8776 0.73956 0.0
H254 H 0.82321 0.79654 0.70575 0.0
H255 H 0.95096 0.78185 0.72937 0.0
H256 H 0.86508 0.95199 0.77528 0.0
H257 H 0.98443 0.12104 0.7726 0.0
H258 H 0.80075 0.9763 0.7894 0.0
H259 H 0.91781 0.14238 0.78653 0.0
H260 H 0.92894 0.86231 0.82281 0.0
H261 H 0.80612 0.78217 0.78045 0.0
H262 H 0.92727 0.06839 0.67635 0.0
H263 H 0.80986 0.03582 0.71994 0.0
C264 C 0.96353 0.54575 0.27222 0.0
C265 C 0.96264 0.42324 0.22425 0.0
O266 O 0.01074 0.55598 0.26716 0.0
Zn267 Zn 0.04755 0.52536 0.24877 0.0
O268 O 0.92207 0.50537 0.26523 0.0
Zn269 Zn 0.96053 0.48177 0.24865 0.0
O270 O 0.99678 0.45158 0.26744 0.0
O271 O 0.08549 0.50208 0.26569 0.0
O272 O 0.92127 0.42019 0.23216 0.0
O273 O 0.01013 0.4599 0.22926 0.0
O274 O 0.08732 0.58669 0.23221 0.0
O275 O 0.99853 0.54699 0.22905 0.0
C276 C 0.04385 0.46193 0.27271 0.0
C277 C 0.04617 0.58356 0.22412 0.0
C278 C 0.58523 0.0424 0.6074 0.0
C279 C 0.46372 0.04015 0.5587 0.0
O280 O 0.54918 0.99478 0.60232 0.0
Zn281 Zn 0.48237 0.9569 0.58343 0.0
O282 O 0.58558 0.0832 0.60017 0.0
Zn283 Zn 0.52526 0.04342 0.58315 0.0
O284 O 0.45715 0.0065 0.60163 0.0
O285 O 0.42107 0.91801 0.60008 0.0
O286 O 0.50389 0.08168 0.56575 0.0
O287 O 0.45271 0.99304 0.56416 0.0
O288 O 0.50478 0.91758 0.56701 0.0
O289 O 0.55666 0.00611 0.56497 0.0
C290 C 0.42088 0.95907 0.60682 0.0
C291 C 0.54579 0.95859 0.56008 0.0
C292 C 0.46534 0.42036 0.94015 0.0
C293 C 0.58974 0.54698 0.89356 0.0
O294 O 0.45325 0.45593 0.93499 0.0
Zn295 Zn 0.48357 0.52419 0.91678 0.0
O296 O 0.50733 0.42174 0.93352 0.0
Zn297 Zn 0.5289 0.48304 0.91692 0.0
O298 O 0.55696 0.54974 0.93577 0.0
O299 O 0.50291 0.58391 0.93394 0.0
O300 O 0.59098 0.50671 0.90055 0.0
O301 O 0.5523 0.55674 0.89848 0.0
O302 O 0.42379 0.50212 0.89944 0.0
O303 O 0.46342 0.45301 0.8974 0.0
C304 C 0.54425 0.58484 0.94097 0.0
C305 C 0.42661 0.46316 0.89203 0.0
H306 H 0.04908 0.23848 0.15273 0.0
H307 H 0.87805 0.1646 0.1417 0.0
H308 H 0.04368 0.30117 0.1743 0.0
H309 H 0.87261 0.2287 0.16303 0.0
H310 H 0.8794 0.31978 0.21809 0.0
H311 H 0.87794 0.25471 0.19545 0.0
H312 H 0.03262 0.37747 0.1739 0.0
H313 H 0.0349 0.441 0.19684 0.0
C314 C 0.0104 0.23619 0.15475 0.0
C315 C 0.96412 0.19705 0.14539 0.0
C316 C 0.00724 0.27225 0.16708 0.0
C317 C 0.95781 0.27059 0.17024 0.0
C318 C 0.91124 0.23091 0.16104 0.0
C319 C 0.91435 0.19434 0.14879 0.0
C320 C 0.91273 0.33271 0.20837 0.0
C321 C 0.95759 0.38512 0.20939 0.0
C322 C 0.9119 0.29557 0.19537 0.0
C323 C 0.95567 0.31052 0.18305 0.0
C324 C 0.99901 0.36394 0.18353 0.0
C325 C 1.00016 0.40055 0.19661 0.0
H326 H 0.70516 0.91055 0.46429 0.0
H327 H 0.82794 0.97907 0.50711 0.0
H328 H 0.63803 0.90656 0.48658 0.0
H329 H 0.76098 0.97486 0.52931 0.0
H330 H 0.64809 0.03523 0.55092 0.0
H331 H 0.71055 0.02756 0.52981 0.0
H332 H 0.59088 0.86173 0.51835 0.0
H333 H 0.52769 0.86911 0.53984 0.0
C334 C 0.71763 0.92428 0.47849 0.0
C335 C 0.77181 0.94533 0.48395 0.0
C336 C 0.67918 0.92158 0.49126 0.0
C337 C 0.69445 0.94063 0.50962 0.0
C338 C 0.74825 0.96022 0.5152 0.0
C339 C 0.78645 0.96228 0.50253 0.0
C340 C 0.63484 0.99702 0.54394 0.0
C341 C 0.58282 0.95276 0.54704 0.0
C342 C 0.67087 0.99258 0.53194 0.0
C343 C 0.65566 0.94398 0.52255 0.0
C344 C 0.60351 0.89968 0.52543 0.0
C345 C 0.56751 0.90387 0.53774 0.0
H346 H 0.84233 0.83245 0.83933 0.0
H347 H 0.80365 0.70631 0.79878 0.0
H348 H 0.77954 0.7656 0.86148 0.0
H349 H 0.74006 0.63929 0.82098 0.0
H350 H 0.66623 0.53307 0.87483 0.0
H351 H 0.73608 0.59693 0.85332 0.0
H352 H 0.67799 0.70878 0.86124 0.0
H353 H 0.60876 0.64576 0.88246 0.0
C354 C 0.82098 0.79034 0.83524 0.0
C355 C 0.8278 0.77467 0.81729 0.0
C356 C 0.78471 0.75213 0.84787 0.0
C357 C 0.7547 0.69732 0.84289 0.0
C358 C 0.76286 0.68124 0.8252 0.0
C359 C 0.79885 0.71962 0.81247 0.0
C360 C 0.66848 0.57131 0.87194 0.0
C361 C 0.63193 0.58429 0.88035 0.0
C362 C 0.70827 0.60769 0.85961 0.0
C363 C 0.71265 0.65794 0.85574 0.0
C364 C 0.67608 0.6707 0.86416 0.0
C365 C 0.63613 0.63431 0.87623 0.0
H366 H 0.13196 0.84273 0.14164 0.0
H367 H 0.96071 0.76827 0.15242 0.0
H368 H 0.13727 0.77852 0.16295 0.0
H369 H 0.96598 0.70545 0.17394 0.0
H370 H 0.97475 0.56568 0.19642 0.0
H371 H 0.97741 0.6293 0.17345 0.0
H372 H 0.13133 0.75221 0.1954 0.0
H373 H 0.12948 0.68709 0.21809 0.0
C374 C 0.09558 0.81285 0.14866 0.0
C375 C 0.04579 0.81 0.14521 0.0
C376 C 0.09862 0.7762 0.1609 0.0
C377 C 0.05195 0.73631 0.17001 0.0
C378 C 1.00249 0.73453 0.16679 0.0
C379 C 0.99941 0.77066 0.15448 0.0
C380 C 0.00941 0.60617 0.19627 0.0
C381 C 0.05163 0.62164 0.20919 0.0
C382 C 0.01079 0.64283 0.18316 0.0
C383 C 0.054 0.69632 0.1828 0.0
C384 C 0.09748 0.7113 0.19524 0.0
C385 C 0.09642 0.67412 0.20827 0.0
H386 H 0.26805 0.1285 0.48892 0.0
H387 H 0.2335 0.9709 0.46989 0.0
H388 H 0.33319 0.1298 0.51131 0.0
H389 H 0.30077 0.974 0.49116 0.0
H390 H 0.36639 0.96013 0.54657 0.0
H391 H 0.30665 0.96514 0.52376 0.0
H392 H 0.42008 0.13495 0.51559 0.0
H393 H 0.47983 0.13025 0.53919 0.0
C394 C 0.27452 0.09433 0.48938 0.0
C395 C 0.24506 0.04946 0.4776 0.0
C396 C 0.31246 0.09544 0.50205 0.0
C397 C 0.32193 0.05179 0.50319 0.0
C398 C 0.29383 0.0079 0.49096 0.0
C399 C 0.2557 0.00654 0.47848 0.0
C400 C 0.37894 0.99865 0.53992 0.0
C401 C 0.42819 0.04474 0.54463 0.0
C402 C 0.34467 1.00143 0.5267 0.0
C403 C 0.35879 0.05025 0.51759 0.0
C404 C 0.40783 0.09673 0.52241 0.0
C405 C 0.44218 0.09402 0.53585 0.0
H406 H 0.13963 0.25429 0.82609 0.0
H407 H 0.27051 0.24573 0.79907 0.0
H408 H 0.20381 0.32058 0.84814 0.0
H409 H 0.33454 0.31379 0.82032 0.0
H410 H 0.42043 0.37449 0.8757 0.0
H411 H 0.3563 0.3151 0.85263 0.0
H412 H 0.27985 0.41267 0.85203 0.0
H413 H 0.34395 0.47211 0.87576 0.0
C414 C 0.18205 0.26677 0.82475 0.0
C415 C 0.19973 0.24426 0.81085 0.0
C416 C 0.21893 0.30531 0.83724 0.0
C417 C 0.27429 0.32221 0.8361 0.0
C418 C 0.29208 0.30105 0.82181 0.0
C419 C 0.25533 0.26245 0.80942 0.0
C420 C 0.39017 0.38366 0.87066 0.0
C421 C 0.38751 0.42828 0.87757 0.0
C422 C 0.3535 0.34965 0.85729 0.0
C423 C 0.31319 0.35934 0.85031 0.0
C424 C 0.31025 0.40391 0.85721 0.0
C425 C 0.3471 0.43809 0.87072 0.0
H426 H 0.83949 0.01307 0.66096 0.0
H427 H 0.80723 0.10708 0.70078 0.0
H428 H 0.77511 0.01572 0.63929 0.0
H429 H 0.74185 0.10893 0.67906 0.0
H430 H 0.66286 0.13481 0.62494 0.0
H431 H 0.73413 0.14302 0.6462 0.0
H432 H 0.6738 0.97184 0.64113 0.0
H433 H 0.60327 0.96344 0.62019 0.0
C434 C 0.81928 0.03502 0.66498 0.0
C435 C 0.82832 0.0597 0.68262 0.0
C436 C 0.78205 0.03612 0.65262 0.0
C437 C 0.75318 0.06215 0.65756 0.0
C438 C 0.76369 0.08874 0.67488 0.0
C439 C 0.80071 0.08726 0.68734 0.0
C440 C 0.66483 0.09901 0.62844 0.0
C441 C 0.62741 0.04853 0.62084 0.0
C442 C 0.70547 0.1037 0.64062 0.0
C443 C 0.70977 0.05814 0.64513 0.0
C444 C 0.67202 0.0078 0.63767 0.0
C445 C 0.63131 1.003 0.62575 0.0
H446 H 0.70141 0.7937 0.03687 0.0
H447 H 0.82238 0.85069 0.9933 0.0
H448 H 0.6342 0.72934 0.01486 0.0
H449 H 0.75539 0.78679 0.97142 0.0
H450 H 0.64675 0.61238 0.95047 0.0
H451 H 0.70788 0.68321 0.97159 0.0
H452 H 0.58524 0.72541 0.98293 0.0
H453 H 0.52331 0.65411 0.9614 0.0
C454 C 0.71343 0.79282 0.02256 0.0
C455 C 0.76718 0.82704 0.01681 0.0
C456 C 0.67494 0.75637 0.00997 0.0
C457 C 0.68977 0.753 0.9915 0.0
C458 C 0.74302 0.78838 0.98562 0.0
C459 C 0.78124 0.82518 0.99811 0.0
C460 C 0.63249 0.63654 0.95745 0.0
C461 C 0.58006 0.62755 0.95426 0.0
C462 C 0.66777 0.67741 0.96945 0.0
C463 C 0.65141 0.71 0.97876 0.0
C464 C 0.59875 0.70074 0.97588 0.0
C465 C 0.56347 0.66013 0.96356 0.0
H466 H 0.87782 0.745 0.3416 0.0
H467 H 0.03509 0.77719 0.36032 0.0
H468 H 0.87539 0.67968 0.31902 0.0
H469 H 0.03096 0.70997 0.33882 0.0
H470 H 0.04354 0.64395 0.28351 0.0
H471 H 0.03909 0.70463 0.30602 0.0
H472 H 0.86928 0.59179 0.31486 0.0
H473 H 0.87342 0.53092 0.29157 0.0
C474 C 0.91169 0.738 0.34102 0.0
C475 C 0.95676 0.76673 0.35279 0.0
C476 C 0.90993 0.7 0.32823 0.0
C477 C 0.95319 0.68988 0.32696 0.0
C478 C 0.99735 0.71741 0.33914 0.0
C479 C 0.99932 0.75552 0.35174 0.0
C480 C 0.00511 0.63175 0.29022 0.0
C481 C 0.9589 0.58224 0.28585 0.0
C482 C 1.00266 0.66658 0.30327 0.0
C483 C 0.95406 0.6528 0.31253 0.0
C484 C 0.90735 0.6037 0.30794 0.0
C485 C 0.90973 0.56875 0.29468 0.0
H486 H 0.16262 0.98471 0.65981 0.0
H487 H 0.20434 0.90134 0.70105 0.0
H488 H 0.2265 0.98168 0.63791 0.0
H489 H 0.26896 0.89889 0.67908 0.0
H490 H 0.34592 0.86816 0.62569 0.0
H491 H 0.27473 0.8604 0.6469 0.0
H492 H 0.32845 0.02927 0.6385 0.0
H493 H 0.39904 0.03724 0.61757 0.0
C494 C 0.1848 0.96497 0.66409 0.0
C495 C 0.17859 0.94342 0.68218 0.0
C496 C 0.2217 0.96364 0.65161 0.0
C497 C 0.25294 0.94039 0.65685 0.0
C498 C 0.24523 0.91686 0.67465 0.0
C499 C 0.20863 0.91866 0.68725 0.0
C500 C 0.34245 0.90354 0.62841 0.0
C501 C 0.37816 0.95328 0.61994 0.0
C502 C 0.30188 0.89913 0.64057 0.0
C503 C 0.29585 0.94415 0.6442 0.0
C504 C 0.33162 0.99371 0.63575 0.0
C505 C 0.37236 0.9983 0.62386 0.0
H506 H 0.18501 0.1554 0.99258 0.0
H507 H 0.30666 0.21218 0.03586 0.0
H508 H 0.25194 0.21862 0.97051 0.0
H509 H 0.37374 0.27593 0.01369 0.0
H510 H 0.48522 0.35079 0.96078 0.0
H511 H 0.42255 0.27963 0.98219 0.0
H512 H 0.30014 0.32143 0.96988 0.0
H513 H 0.36205 0.39211 0.94883 0.0
C514 C 0.22627 0.18074 0.99729 0.0
C515 C 0.24055 0.17898 0.01597 0.0
C516 C 0.26446 0.21718 0.98469 0.0
C517 C 0.31789 0.25233 0.99043 0.0
C518 C 0.33288 0.24909 0.00889 0.0
C519 C 0.29444 0.21299 0.02158 0.0
C520 C 0.44491 0.34464 0.96267 0.0
C521 C 0.42865 0.37714 0.95314 0.0
C522 C 0.4092 0.30412 0.97494 0.0
C523 C 0.35643 0.29485 0.97756 0.0
C524 C 0.34032 0.3272 0.96795 0.0
C525 C 0.37602 0.36799 0.95599 0.0
H526 H 0.97231 0.23312 0.36198 0.0
H527 H 0.12802 0.26266 0.34241 0.0
H528 H 0.97662 0.3004 0.34044 0.0
H529 H 0.13058 0.32798 0.31983 0.0
H530 H 0.134 0.47642 0.29191 0.0
H531 H 0.13787 0.41618 0.3155 0.0
H532 H 0.96724 0.30501 0.30767 0.0
H533 H 0.96307 0.3651 0.28484 0.0
C534 C 0.00779 0.25423 0.35321 0.0
C535 C 0.04981 0.2422 0.35401 0.0
C536 C 0.00985 0.29237 0.3406 0.0
C537 C 0.05358 0.31913 0.32818 0.0
C538 C 0.09638 0.30828 0.32923 0.0
C539 C 0.09454 0.27027 0.34202 0.0
C540 C 0.09743 0.43912 0.2953 0.0
C541 C 0.04816 0.4259 0.28663 0.0
C542 C 0.09966 0.40451 0.30874 0.0
C543 C 0.05269 0.35604 0.31368 0.0
C544 C 1.00391 0.3426 0.30464 0.0
C545 C 1.00162 0.37707 0.29141 0.0
loop_
_geom_bond_atom_site_label_1
_geom_bond_atom_site_label_2
_geom_bond_distance
_geom_bond_site_symmetry_2
_ccdc_geom_bond_type
Li0 N17 1.990 . S
Li0 O60 1.956 . S
Li0 O61 1.970 1_455 S
Li0 O62 1.961 1_545 S
Li1 N25 1.990 . S
Li1 O60 1.970 1_655 S
Li1 O61 1.956 . S
Li1 O63 1.961 1_545 S
Li2 N47 1.990 . S
Li2 O60 1.961 1_565 S
Li2 O62 1.956 . S
Li2 O63 1.970 1_455 S
Li3 N53 1.990 . S
Li3 O61 1.961 1_565 S
Li3 O62 1.970 1_655 S
Li3 O63 1.956 . S
C4 C6 1.348 . S
C4 C7 1.356 . S
C4 O60 1.325 . S
N5 C8 1.314 . S
N5 C9 1.279 . S
C6 C4 1.348 . S
C6 C8 1.353 . S
C6 H64 0.929 . S
C7 C4 1.356 . S
C7 C9 1.358 . S
C7 H65 0.930 . S
C8 N5 1.314 . S
C8 C6 1.353 . S
C8 H66 0.930 . S
C9 N5 1.279 . S
C9 C7 1.358 . S
C9 H67 0.930 . S
C10 C13 1.348 1_655 S
C10 C14 1.356 . S
C10 O61 1.325 . S
C11 N12 1.279 . S
C11 C14 1.358 . S
C11 H68 0.930 . S
N12 C11 1.279 . S
N12 C15 1.314 . S
C13 C10 1.348 1_455 S
C13 C15 1.353 1_455 S
C13 H69 0.929 . S
C14 C10 1.356 . S
C14 C11 1.358 . S
C14 H70 0.930 . S
C15 N12 1.314 . S
C15 C13 1.353 1_655 S
C15 H71 0.930 1_655 S
C16 N17 1.314 . S
C16 C21 1.353 . S
C16 H22 0.930 . S
N17 Li0 1.990 . S
N17 C16 1.314 . S
N17 C19 1.279 . S
C18 C19 1.358 . S
C18 C20 1.356 . S
C18 H72 0.930 . S
C19 N17 1.279 . S
C19 C18 1.358 . S
C19 H23 0.930 . S
C20 C18 1.356 . S
C20 C21 1.348 . S
C21 C16 1.353 . S
C21 C20 1.348 . S
C21 H73 0.929 . S
H22 C16 0.930 . S
H23 C19 0.930 . S
C24 N25 1.314 . S
C24 C26 1.353 . S
C24 H30 0.930 . S
N25 Li1 1.990 . S
N25 C24 1.314 . S
N25 C28 1.279 . S
C26 C24 1.353 . S
C26 C29 1.348 . S
C26 H74 0.929 . S
C27 C28 1.358 . S
C27 C29 1.356 . S
C27 H75 0.930 . S
C28 N25 1.279 . S
C28 C27 1.358 . S
C28 H31 0.930 . S
C29 C26 1.348 . S
C29 C27 1.356 . S
H30 C24 0.930 . S
H31 C28 0.930 . S
C32 C34 1.348 1_455 S
C32 C35 1.356 . S
C32 O62 1.325 . S
N33 C36 1.314 . S
N33 C37 1.279 . S
C34 C32 1.348 1_655 S
C34 C36 1.353 1_655 S
C34 H76 0.929 . S
C35 C32 1.356 . S
C35 C37 1.358 . S
C35 H77 0.930 . S
C36 N33 1.314 . S
C36 C34 1.353 1_455 S
C36 H78 0.930 1_455 S
C37 N33 1.279 . S
C37 C35 1.358 . S
C37 H79 0.930 . S
C38 C39 1.348 . S
C38 C40 1.356 . S
C38 O63 1.325 . S
C39 C38 1.348 . S
C39 C41 1.353 . S
C39 H80 0.929 . S
C40 C38 1.356 . S
C40 C42 1.358 . S
C40 H81 0.930 . S
C41 C39 1.353 . S
C41 N43 1.314 . S
C41 H82 0.930 . S
C42 C40 1.358 . S
C42 N43 1.279 . S
C42 H83 0.930 . S
N43 C41 1.314 . S
N43 C42 1.279 . S
C44 C46 1.353 . S
C44 N47 1.314 . S
C44 H50 0.930 . S
C45 N47 1.279 . S
C45 C48 1.358 . S
C45 H51 0.930 . S
C46 C44 1.353 . S
C46 C49 1.348 . S
C46 H84 0.929 . S
N47 Li2 1.990 . S
N47 C44 1.314 . S
N47 C45 1.279 . S
C48 C45 1.358 . S
C48 C49 1.356 . S
C48 H85 0.930 . S
C49 C46 1.348 . S
C49 C48 1.356 . S
H50 C44 0.930 . S
H51 C45 0.930 . S
C52 N53 1.314 . S
C52 C54 1.353 . S
C52 H58 0.930 . S
N53 Li3 1.990 . S
N53 C52 1.314 . S
N53 C56 1.279 . S
C54 C52 1.353 . S
C54 C57 1.348 . S
C54 H86 0.929 . S
C55 C56 1.358 . S
C55 C57 1.356 . S
C55 H87 0.930 . S
C56 N53 1.279 . S
C56 C55 1.358 . S
C56 H59 0.930 . S
C57 C54 1.348 . S
C57 C55 1.356 . S
H58 C52 0.930 . S
H59 C56 0.930 . S
O60 Li0 1.956 . S
O60 Li1 1.970 1_455 S
O60 Li2 1.961 1_545 S
O60 C4 1.325 . S
O61 Li0 1.970 1_655 S
O61 Li1 1.956 . S
O61 Li3 1.961 1_545 S
O61 C10 1.325 . S
O62 Li0 1.961 1_565 S
O62 Li2 1.956 . S
O62 Li3 1.970 1_455 S
O62 C32 1.325 . S
O63 Li1 1.961 1_565 S
O63 Li2 1.970 1_655 S
O63 Li3 1.956 . S
O63 C38 1.325 . S
H64 C6 0.929 . S
H65 C7 0.930 . S
H66 C8 0.930 . S
H67 C9 0.930 . S
H68 C11 0.930 . S
H69 C13 0.929 . S
H70 C14 0.930 . S
H71 C15 0.930 1_455 S
H72 C18 0.930 . S
H73 C21 0.929 . S
H74 C26 0.929 . S
H75 C27 0.930 . S
H76 C34 0.929 . S
H77 C35 0.930 . S
H78 C36 0.930 1_655 S
H79 C37 0.930 . S
H80 C39 0.929 . S
H81 C40 0.930 . S
H82 C41 0.930 . S
H83 C42 0.930 . S
H84 C46 0.929 . S
H85 C48 0.930 . S
H86 C54 0.929 . S
H87 C55 0.930 . S
Li88 N105 1.990 . S
Li88 O148 1.956 . S
Li88 O149 1.970 1_665 S
Li88 O150 1.961 . S
Li89 N113 1.990 . S
Li89 O148 1.970 1_445 S
Li89 O149 1.956 . S
Li89 O151 1.961 . S
Li90 N135 1.990 . S
Li90 O148 1.961 . S
Li90 O150 1.956 . S
Li90 O151 1.970 1_665 S
Li91 N141 1.990 . S
Li91 O149 1.961 . S
Li91 O150 1.970 1_445 S
Li91 O151 1.956 . S
C92 C94 1.348 1_655 S
C92 C95 1.356 . S
C92 O148 1.325 . S
N93 C96 1.314 . S
N93 C97 1.279 . S
C94 C92 1.348 1_455 S
C94 C96 1.353 1_455 S
C94 H152 0.929 . S
C95 C92 1.356 . S
C95 C97 1.358 . S
C95 H153 0.930 . S
C96 N93 1.314 . S
C96 C94 1.353 1_655 S
C96 H154 0.930 1_655 S
C97 N93 1.279 . S
C97 C95 1.358 . S
C97 H155 0.930 . S
C98 C101 1.348 1_545 S
C98 C102 1.356 . S
C98 O149 1.325 . S
C99 N100 1.279 . S
C99 C102 1.358 . S
C99 H156 0.930 . S
N100 C99 1.279 . S
N100 C103 1.314 . S
C101 C98 1.348 1_565 S
C101 C103 1.353 1_565 S
C101 H157 0.929 . S
C102 C98 1.356 . S
C102 C99 1.358 . S
C102 H158 0.930 . S
C103 N100 1.314 . S
C103 C101 1.353 1_545 S
C103 H159 0.930 1_545 S
C104 N105 1.314 . S
C104 C109 1.353 . S
C104 H110 0.930 . S
N105 Li88 1.990 . S
N105 C104 1.314 . S
N105 C107 1.279 . S
C106 C107 1.358 . S
C106 C108 1.356 . S
C106 H160 0.930 . S
C107 N105 1.279 . S
C107 C106 1.358 . S
C107 H111 0.930 . S
C108 C106 1.356 . S
C108 C109 1.348 . S
C109 C104 1.353 . S
C109 C108 1.348 . S
C109 H161 0.929 . S
H110 C104 0.930 . S
H111 C107 0.930 . S
C112 N113 1.314 . S
C112 C114 1.353 . S
C112 H118 0.930 . S
N113 Li89 1.990 . S
N113 C112 1.314 . S
N113 C116 1.279 . S
C114 C112 1.353 . S
C114 C117 1.348 . S
C114 H162 0.929 . S
C115 C116 1.358 . S
C115 C117 1.356 . S
C115 H163 0.930 . S
C116 N113 1.279 . S
C116 C115 1.358 . S
C116 H119 0.930 . S
C117 C114 1.348 . S
C117 C115 1.356 . S
H118 C112 0.930 . S
H119 C116 0.930 . S
C120 C122 1.348 1_565 S
C120 C123 1.356 . S
C120 O150 1.325 . S
N121 C124 1.314 . S
N121 C125 1.279 . S
C122 C120 1.348 1_545 S
C122 C124 1.353 1_545 S
C122 H164 0.929 . S
C123 C120 1.356 . S
C123 C125 1.358 . S
C123 H165 0.930 . S
C124 N121 1.314 . S
C124 C122 1.353 1_565 S
C124 H166 0.930 1_565 S
C125 N121 1.279 . S
C125 C123 1.358 . S
C125 H167 0.930 . S
C126 C127 1.348 1_455 S
C126 C128 1.356 . S
C126 O151 1.325 . S
C127 C126 1.348 1_655 S
C127 C129 1.353 1_655 S
C127 H168 0.929 . S
C128 C126 1.356 . S
C128 C130 1.358 . S
C128 H169 0.930 . S
C129 C127 1.353 1_455 S
C129 N131 1.314 . S
C129 H170 0.930 1_455 S
C130 C128 1.358 . S
C130 N131 1.279 . S
C130 H171 0.930 . S
N131 C129 1.314 . S
N131 C130 1.279 . S
C132 C134 1.353 . S
C132 N135 1.314 . S
C132 H138 0.930 . S
C133 N135 1.279 . S
C133 C136 1.358 . S
C133 H139 0.930 . S
C134 C132 1.353 . S
C134 C137 1.348 . S
C134 H172 0.929 . S
N135 Li90 1.990 . S
N135 C132 1.314 . S
N135 C133 1.279 . S
C136 C133 1.358 . S
C136 C137 1.356 . S
C136 H173 0.930 . S
C137 C134 1.348 . S
C137 C136 1.356 . S
H138 C132 0.930 . S
H139 C133 0.930 . S
C140 N141 1.314 . S
C140 C142 1.353 . S
C140 H146 0.930 . S
N141 Li91 1.990 . S
N141 C140 1.314 . S
N141 C144 1.279 . S
C142 C140 1.353 . S
C142 C145 1.348 . S
C142 H174 0.929 . S
C143 C144 1.358 . S
C143 C145 1.356 . S
C143 H175 0.930 . S
C144 N141 1.279 . S
C144 C143 1.358 . S
C144 H147 0.930 . S
C145 C142 1.348 . S
C145 C143 1.356 . S
H146 C140 0.930 . S
H147 C144 0.930 . S
O148 Li88 1.956 . S
O148 Li89 1.970 1_665 S
O148 Li90 1.961 . S
O148 C92 1.325 . S
O149 Li88 1.970 1_445 S
O149 Li89 1.956 . S
O149 Li91 1.961 . S
O149 C98 1.325 . S
O150 Li88 1.961 . S
O150 Li90 1.956 . S
O150 Li91 1.970 1_665 S
O150 C120 1.325 . S
O151 Li89 1.961 . S
O151 Li90 1.970 1_445 S
O151 Li91 1.956 . S
O151 C126 1.325 . S
H152 C94 0.929 . S
H153 C95 0.930 . S
H154 C96 0.930 1_455 S
H155 C97 0.930 . S
H156 C99 0.930 . S
H157 C101 0.929 . S
H158 C102 0.930 . S
H159 C103 0.930 1_565 S
H160 C106 0.930 . S
H161 C109 0.929 . S
H162 C114 0.929 . S
H163 C115 0.930 . S
H164 C122 0.929 . S
H165 C123 0.930 . S
H166 C124 0.930 1_545 S
H167 C125 0.930 . S
H168 C127 0.929 . S
H169 C128 0.930 . S
H170 C129 0.930 1_655 S
H171 C130 0.930 . S
H172 C134 0.929 . S
H173 C136 0.930 . S
H174 C142 0.929 . S
H175 C143 0.930 . S
Li176 N193 1.990 . S
Li176 O236 1.956 . S
Li176 O237 1.970 1_565 S
Li176 O238 1.961 1_455 S
Li177 N201 1.990 . S
Li177 O236 1.970 1_545 S
Li177 O237 1.956 . S
Li177 O239 1.961 1_455 S
Li178 N223 1.990 . S
Li178 O236 1.961 1_655 S
Li178 O238 1.956 . S
Li178 O239 1.970 1_565 S
Li179 N229 1.990 . S
Li179 O237 1.961 1_655 S
Li179 O238 1.970 1_545 S
Li179 O239 1.956 . S
C180 C182 1.348 1_565 S
C180 C183 1.356 . S
C180 O236 1.325 . S
N181 C184 1.314 . S
N181 C185 1.279 . S
C182 C180 1.348 1_545 S
C182 C184 1.353 1_545 S
C182 H240 0.929 . S
C183 C180 1.356 . S
C183 C185 1.358 . S
C183 H241 0.930 . S
C184 N181 1.314 . S
C184 C182 1.353 1_565 S
C184 H242 0.930 1_565 S
C185 N181 1.279 . S
C185 C183 1.358 . S
C185 H243 0.930 . S
C186 C189 1.348 . S
C186 C190 1.356 . S
C186 O237 1.325 . S
C187 N188 1.279 . S
C187 C190 1.358 . S
C187 H244 0.930 . S
N188 C187 1.279 . S
N188 C191 1.314 . S
C189 C186 1.348 . S
C189 C191 1.353 . S
C189 H245 0.929 . S
C190 C186 1.356 . S
C190 C187 1.358 . S
C190 H246 0.930 . S
C191 N188 1.314 . S
C191 C189 1.353 . S
C191 H247 0.930 . S
C192 N193 1.314 . S
C192 C197 1.353 . S
C192 H198 0.930 . S
N193 Li176 1.990 . S
N193 C192 1.314 . S
N193 C195 1.279 . S
C194 C195 1.358 . S
C194 C196 1.356 . S
C194 H248 0.930 . S
C195 N193 1.279 . S
C195 C194 1.358 . S
C195 H199 0.930 . S
C196 C194 1.356 . S
C196 C197 1.348 . S
C197 C192 1.353 . S
C197 C196 1.348 . S
C197 H249 0.929 . S
H198 C192 0.930 . S
H199 C195 0.930 . S
C200 N201 1.314 . S
C200 C202 1.353 . S
C200 H206 0.930 . S
N201 Li177 1.990 . S
N201 C200 1.314 . S
N201 C204 1.279 . S
C202 C200 1.353 . S
C202 C205 1.348 . S
C202 H250 0.929 . S
C203 C204 1.358 . S
C203 C205 1.356 . S
C203 H251 0.930 . S
C204 N201 1.279 . S
C204 C203 1.358 . S
C204 H207 0.930 . S
C205 C202 1.348 . S
C205 C203 1.356 . S
H206 C200 0.930 . S
H207 C204 0.930 . S
C208 C210 1.348 . S
C208 C211 1.356 . S
C208 O238 1.325 . S
N209 C212 1.314 . S
N209 C213 1.279 . S
C210 C208 1.348 . S
C210 C212 1.353 . S
C210 H252 0.929 . S
C211 C208 1.356 . S
C211 C213 1.358 . S
C211 H253 0.930 . S
C212 N209 1.314 . S
C212 C210 1.353 . S
C212 H254 0.930 . S
C213 N209 1.279 . S
C213 C211 1.358 . S
C213 H255 0.930 . S
C214 C215 1.348 1_545 S
C214 C216 1.356 . S
C214 O239 1.325 . S
C215 C214 1.348 1_565 S
C215 C217 1.353 1_565 S
C215 H256 0.929 . S
C216 C214 1.356 . S
C216 C218 1.358 . S
C216 H257 0.930 . S
C217 C215 1.353 1_545 S
C217 N219 1.314 . S
C217 H258 0.930 1_545 S
C218 C216 1.358 . S
C218 N219 1.279 . S
C218 H259 0.930 . S
N219 C217 1.314 . S
N219 C218 1.279 . S
C220 C222 1.353 . S
C220 N223 1.314 . S
C220 H226 0.930 . S
C221 N223 1.279 . S
C221 C224 1.358 . S
C221 H227 0.930 . S
C222 C220 1.353 . S
C222 C225 1.348 . S
C222 H260 0.929 . S
N223 Li178 1.990 . S
N223 C220 1.314 . S
N223 C221 1.279 . S
C224 C221 1.358 . S
C224 C225 1.356 . S
C224 H261 0.930 . S
C225 C222 1.348 . S
C225 C224 1.356 . S
H226 C220 0.930 . S
H227 C221 0.930 . S
C228 N229 1.314 . S
C228 C230 1.353 . S
C228 H234 0.930 . S
N229 Li179 1.990 . S
N229 C228 1.314 . S
N229 C232 1.279 . S
C230 C228 1.353 . S
C230 C233 1.348 . S
C230 H262 0.929 . S
C231 C232 1.358 . S
C231 C233 1.356 . S
C231 H263 0.930 . S
C232 N229 1.279 . S
C232 C231 1.358 . S
C232 H235 0.930 . S
C233 C230 1.348 . S
C233 C231 1.356 . S
H234 C228 0.930 . S
H235 C232 0.930 . S
O236 Li176 1.956 . S
O236 Li177 1.970 1_565 S
O236 Li178 1.961 1_455 S
O236 C180 1.325 . S
O237 Li176 1.970 1_545 S
O237 Li177 1.956 . S
O237 Li179 1.961 1_455 S
O237 C186 1.325 . S
O238 Li176 1.961 1_655 S
O238 Li178 1.956 . S
O238 Li179 1.970 1_565 S
O238 C208 1.325 . S
O239 Li177 1.961 1_655 S
O239 Li178 1.970 1_545 S
O239 Li179 1.956 . S
O239 C214 1.325 . S
H240 C182 0.929 . S
H241 C183 0.930 . S
H242 C184 0.930 1_545 S
H243 C185 0.930 . S
H244 C187 0.930 . S
H245 C189 0.929 . S
H246 C190 0.930 . S
H247 C191 0.930 . S
H248 C194 0.930 . S
H249 C197 0.929 . S
H250 C202 0.929 . S
H251 C203 0.930 . S
H252 C210 0.929 . S
H253 C211 0.930 . S
H254 C212 0.930 . S
H255 C213 0.930 . S
H256 C215 0.929 . S
H257 C216 0.930 . S
H258 C217 0.930 1_565 S
H259 C218 0.930 . S
H260 C222 0.929 . S
H261 C224 0.930 . S
H262 C230 0.929 . S
H263 C231 0.930 . S
C264 O266 1.252 . S
C264 O268 1.255 1_455 S
C265 O272 1.247 . S
C265 O273 1.258 1_655 S
O266 C264 1.252 . S
O266 Zn267 2.028 . S
Zn267 O266 2.028 . S
Zn267 O271 2.035 . S
Zn267 O273 2.035 . S
Zn267 O274 2.028 . S
O268 C264 1.255 1_655 S
O268 Zn269 2.035 . S
Zn269 O268 2.035 . S
Zn269 O270 2.028 . S
Zn269 O272 2.028 . S
Zn269 O275 2.035 . S
O270 Zn269 2.028 . S
O270 C276 1.247 . S
O271 Zn267 2.035 . S
O271 C276 1.258 1_455 S
O272 C265 1.247 . S
O272 Zn269 2.028 . S
O273 C265 1.258 1_455 S
O273 Zn267 2.035 . S
O274 Zn267 2.028 . S
O274 C277 1.252 . S
O275 Zn269 2.035 . S
O275 C277 1.255 1_655 S
C276 O270 1.247 . S
C276 O271 1.258 1_655 S
C277 O274 1.252 . S
C277 O275 1.255 1_455 S
C278 O280 1.247 . S
C278 O282 1.258 1_565 S
C279 O286 1.250 . S
C279 O287 1.253 1_545 S
O280 C278 1.247 . S
O280 Zn281 2.028 . S
Zn281 O280 2.028 . S
Zn281 O285 2.035 . S
Zn281 O287 2.035 . S
Zn281 O288 2.028 . S
O282 C278 1.258 1_545 S
O282 Zn283 2.035 . S
Zn283 O282 2.035 . S
Zn283 O284 2.028 . S
Zn283 O286 2.028 . S
Zn283 O289 2.035 . S
O284 Zn283 2.028 . S
O284 C290 1.250 . S
O285 Zn281 2.035 . S
O285 C290 1.253 1_565 S
O286 C279 1.250 . S
O286 Zn283 2.028 . S
O287 C279 1.253 1_565 S
O287 Zn281 2.035 . S
O288 Zn281 2.028 . S
O288 C291 1.247 . S
O289 Zn283 2.035 . S
O289 C291 1.258 1_545 S
C290 O284 1.250 . S
C290 O285 1.253 1_545 S
C291 O288 1.247 . S
C291 O289 1.258 1_565 S
C292 O294 1.247 . S
C292 O296 1.258 . S
C293 O300 1.247 . S
C293 O301 1.258 . S
O294 C292 1.247 . S
O294 Zn295 2.028 . S
Zn295 O294 2.028 . S
Zn295 O299 2.035 . S
Zn295 O301 2.035 . S
Zn295 O302 2.028 . S
O296 C292 1.258 . S
O296 Zn297 2.035 . S
Zn297 O296 2.035 . S
Zn297 O298 2.028 . S
Zn297 O300 2.028 . S
Zn297 O303 2.035 . S
O298 Zn297 2.028 . S
O298 C304 1.247 . S
O299 Zn295 2.035 . S
O299 C304 1.258 . S
O300 C293 1.247 . S
O300 Zn297 2.028 . S
O301 C293 1.258 . S
O301 Zn295 2.035 . S
O302 Zn295 2.028 . S
O302 C305 1.247 . S
O303 Zn297 2.035 . S
O303 C305 1.258 . S
C304 O298 1.247 . S
C304 O299 1.258 . S
C305 O302 1.247 . S
C305 O303 1.258 . S
H306 C314 0.950 . S
H307 C319 0.950 . S
H308 C316 0.950 . S
H309 C318 0.950 . S
H310 C320 0.950 . S
H311 C322 0.950 . S
H312 C324 0.950 . S
H313 C325 0.950 . S
C314 H306 0.950 . S
C314 C315 1.386 . S
C314 C316 1.391 . S
C315 C314 1.386 . S
C315 C319 1.393 . S
C316 H308 0.950 . S
C316 C314 1.391 . S
C316 C317 1.400 . S
C317 C316 1.400 . S
C317 C318 1.398 . S
C317 C323 1.491 . S
C318 H309 0.950 . S
C318 C317 1.398 . S
C318 C319 1.391 . S
C319 H307 0.950 . S
C319 C315 1.393 . S
C319 C318 1.391 . S
C320 H310 0.950 . S
C320 C321 1.386 . S
C320 C322 1.391 . S
C321 C320 1.386 . S
C321 C325 1.393 1_655 S
C322 H311 0.950 . S
C322 C320 1.391 . S
C322 C323 1.400 . S
C323 C317 1.491 . S
C323 C322 1.400 . S
C323 C324 1.398 1_655 S
C324 H312 0.950 . S
C324 C323 1.398 1_455 S
C324 C325 1.391 . S
C325 H313 0.950 . S
C325 C321 1.393 1_455 S
C325 C324 1.391 . S
H326 C334 0.950 . S
H327 C339 0.950 1_545 S
H328 C336 0.950 . S
H329 C338 0.950 1_545 S
H330 C340 0.950 . S
H331 C342 0.950 . S
H332 C344 0.950 . S
H333 C345 0.950 . S
C334 H326 0.950 . S
C334 C335 1.386 . S
C334 C336 1.391 . S
C335 C334 1.386 . S
C335 C339 1.393 . S
C336 H328 0.950 . S
C336 C334 1.391 . S
C336 C337 1.400 . S
C337 C336 1.400 . S
C337 C338 1.398 . S
C337 C343 1.491 . S
C338 H329 0.950 1_565 S
C338 C337 1.398 . S
C338 C339 1.391 . S
C339 H327 0.950 1_565 S
C339 C335 1.393 . S
C339 C338 1.391 . S
C340 H330 0.950 . S
C340 C341 1.386 1_545 S
C340 C342 1.391 . S
C341 C340 1.386 1_565 S
C341 C345 1.393 . S
C342 H331 0.950 . S
C342 C340 1.391 . S
C342 C343 1.400 1_545 S
C343 C337 1.491 . S
C343 C342 1.400 1_565 S
C343 C344 1.398 . S
C344 H332 0.950 . S
C344 C343 1.398 . S
C344 C345 1.391 . S
C345 H333 0.950 . S
C345 C341 1.393 . S
C345 C344 1.391 . S
H346 C354 0.950 . S
H347 C359 0.950 . S
H348 C356 0.950 . S
H349 C358 0.950 . S
H350 C360 0.950 . S
H351 C362 0.950 . S
H352 C364 0.950 . S
H353 C365 0.950 . S
C354 H346 0.950 . S
C354 C355 1.386 . S
C354 C356 1.391 . S
C355 C354 1.386 . S
C355 C359 1.393 . S
C356 H348 0.950 . S
C356 C354 1.391 . S
C356 C357 1.400 . S
C357 C356 1.400 . S
C357 C358 1.398 . S
C357 C363 1.491 . S
C358 H349 0.950 . S
C358 C357 1.398 . S
C358 C359 1.391 . S
C359 H347 0.950 . S
C359 C355 1.393 . S
C359 C358 1.391 . S
C360 H350 0.950 . S
C360 C361 1.386 . S
C360 C362 1.391 . S
C361 C360 1.386 . S
C361 C365 1.393 . S
C362 H351 0.950 . S
C362 C360 1.391 . S
C362 C363 1.400 . S
C363 C357 1.491 . S
C363 C362 1.400 . S
C363 C364 1.398 . S
C364 H352 0.950 . S
C364 C363 1.398 . S
C364 C365 1.391 . S
C365 H353 0.950 . S
C365 C361 1.393 . S
C365 C364 1.391 . S
H366 C374 0.950 . S
H367 C379 0.950 . S
H368 C376 0.950 . S
H369 C378 0.950 1_655 S
H370 C380 0.950 . S
H371 C382 0.950 . S
H372 C384 0.950 . S
H373 C385 0.950 . S
C374 H366 0.950 . S
C374 C375 1.386 . S
C374 C376 1.391 . S
C375 C374 1.386 . S
C375 C379 1.393 . S
C376 H368 0.950 . S
C376 C374 1.391 . S
C376 C377 1.400 . S
C377 C376 1.400 . S
C377 C378 1.398 . S
C377 C383 1.491 . S
C378 H369 0.950 1_455 S
C378 C377 1.398 . S
C378 C379 1.391 . S
C379 H367 0.950 . S
C379 C375 1.393 . S
C379 C378 1.391 . S
C380 H370 0.950 . S
C380 C381 1.386 1_655 S
C380 C382 1.391 . S
C381 C380 1.386 1_455 S
C381 C385 1.393 . S
C382 H371 0.950 . S
C382 C380 1.391 . S
C382 C383 1.400 1_655 S
C383 C377 1.491 . S
C383 C382 1.400 1_455 S
C383 C384 1.398 . S
C384 H372 0.950 . S
C384 C383 1.398 . S
C384 C385 1.391 . S
C385 H373 0.950 . S
C385 C381 1.393 . S
C385 C384 1.391 . S
H386 C394 0.950 . S
H387 C399 0.950 1_565 S
H388 C396 0.950 . S
H389 C398 0.950 . S
H390 C400 0.950 . S
H391 C402 0.950 . S
H392 C404 0.950 . S
H393 C405 0.950 . S
C394 H386 0.950 . S
C394 C395 1.386 . S
C394 C396 1.391 . S
C395 C394 1.386 . S
C395 C399 1.393 . S
C396 H388 0.950 . S
C396 C394 1.391 . S
C396 C397 1.400 . S
C397 C396 1.400 . S
C397 C398 1.398 1_545 S
C397 C403 1.491 . S
C398 H389 0.950 . S
C398 C397 1.398 1_565 S
C398 C399 1.391 1_565 S
C399 H387 0.950 1_545 S
C399 C395 1.393 . S
C399 C398 1.391 1_545 S
C400 H390 0.950 . S
C400 C401 1.386 1_565 S
C400 C402 1.391 . S
C401 C400 1.386 1_545 S
C401 C405 1.393 . S
C402 H391 0.950 . S
C402 C400 1.391 . S
C402 C403 1.400 1_565 S
C403 C397 1.491 . S
C403 C402 1.400 1_545 S
C403 C404 1.398 . S
C404 H392 0.950 . S
C404 C403 1.398 . S
C404 C405 1.391 . S
C405 H393 0.950 . S
C405 C401 1.393 . S
C405 C404 1.391 . S
H406 C414 0.950 . S
H407 C419 0.950 . S
H408 C416 0.950 . S
H409 C418 0.950 . S
H410 C420 0.950 . S
H411 C422 0.950 . S
H412 C424 0.950 . S
H413 C425 0.950 . S
C414 H406 0.950 . S
C414 C415 1.386 . S
C414 C416 1.391 . S
C415 C414 1.386 . S
C415 C419 1.393 . S
C416 H408 0.950 . S
C416 C414 1.391 . S
C416 C417 1.400 . S
C417 C416 1.400 . S
C417 C418 1.398 . S
C417 C423 1.491 . S
C418 H409 0.950 . S
C418 C417 1.398 . S
C418 C419 1.391 . S
C419 H407 0.950 . S
C419 C415 1.393 . S
C419 C418 1.391 . S
C420 H410 0.950 . S
C420 C421 1.386 . S
C420 C422 1.391 . S
C421 C420 1.386 . S
C421 C425 1.393 . S
C422 H411 0.950 . S
C422 C420 1.391 . S
C422 C423 1.400 . S
C423 C417 1.491 . S
C423 C422 1.400 . S
C423 C424 1.398 . S
C424 H412 0.950 . S
C424 C423 1.398 . S
C424 C425 1.391 . S
C425 H413 0.950 . S
C425 C421 1.393 . S
C425 C424 1.391 . S
H426 C434 0.950 1_565 S
H427 C439 0.950 . S
H428 C436 0.950 1_565 S
H429 C438 0.950 . S
H430 C440 0.950 . S
H431 C442 0.950 . S
H432 C444 0.950 . S
H433 C445 0.950 . S
C434 H426 0.950 1_545 S
C434 C435 1.386 . S
C434 C436 1.391 . S
C435 C434 1.386 . S
C435 C439 1.393 . S
C436 H428 0.950 1_545 S
C436 C434 1.391 . S
C436 C437 1.400 . S
C437 C436 1.400 . S
C437 C438 1.398 . S
C437 C443 1.491 . S
C438 H429 0.950 . S
C438 C437 1.398 . S
C438 C439 1.391 . S
C439 H427 0.950 . S
C439 C435 1.393 . S
C439 C438 1.391 . S
C440 H430 0.950 . S
C440 C441 1.386 . S
C440 C442 1.391 . S
C441 C440 1.386 . S
C441 C445 1.393 1_545 S
C442 H431 0.950 . S
C442 C440 1.391 . S
C442 C443 1.400 . S
C443 C437 1.491 . S
C443 C442 1.400 . S
C443 C444 1.398 1_545 S
C444 H432 0.950 . S
C444 C443 1.398 1_565 S
C444 C445 1.391 . S
C445 H433 0.950 . S
C445 C441 1.393 1_565 S
C445 C444 1.391 . S
H446 C454 0.950 . S
H447 C459 0.950 . S
H448 C456 0.950 . S
H449 C458 0.950 . S
H450 C460 0.950 . S
H451 C462 0.950 . S
H452 C464 0.950 . S
H453 C465 0.950 . S
C454 H446 0.950 . S
C454 C455 1.386 . S
C454 C456 1.391 . S
C455 C454 1.386 . S
C455 C459 1.393 1_554 S
C456 H448 0.950 . S
C456 C454 1.391 . S
C456 C457 1.400 1_554 S
C457 C456 1.400 1_556 S
C457 C458 1.398 . S
C457 C463 1.491 . S
C458 H449 0.950 . S
C458 C457 1.398 . S
C458 C459 1.391 . S
C459 H447 0.950 . S
C459 C455 1.393 1_556 S
C459 C458 1.391 . S
C460 H450 0.950 . S
C460 C461 1.386 . S
C460 C462 1.391 . S
C461 C460 1.386 . S
C461 C465 1.393 . S
C462 H451 0.950 . S
C462 C460 1.391 . S
C462 C463 1.400 . S
C463 C457 1.491 . S
C463 C462 1.400 . S
C463 C464 1.398 . S
C464 H452 0.950 . S
C464 C463 1.398 . S
C464 C465 1.391 . S
C465 H453 0.950 . S
C465 C461 1.393 . S
C465 C464 1.391 . S
H466 C474 0.950 . S
H467 C479 0.950 1_455 S
H468 C476 0.950 . S
H469 C478 0.950 . S
H470 C480 0.950 . S
H471 C482 0.950 . S
H472 C484 0.950 . S
H473 C485 0.950 . S
C474 H466 0.950 . S
C474 C475 1.386 . S
C474 C476 1.391 . S
C475 C474 1.386 . S
C475 C479 1.393 . S
C476 H468 0.950 . S
C476 C474 1.391 . S
C476 C477 1.400 . S
C477 C476 1.400 . S
C477 C478 1.398 1_655 S
C477 C483 1.491 . S
C478 H469 0.950 . S
C478 C477 1.398 1_455 S
C478 C479 1.391 1_455 S
C479 H467 0.950 1_655 S
C479 C475 1.393 . S
C479 C478 1.391 1_655 S
C480 H470 0.950 . S
C480 C481 1.386 1_455 S
C480 C482 1.391 . S
C481 C480 1.386 1_655 S
C481 C485 1.393 . S
C482 H471 0.950 . S
C482 C480 1.391 . S
C482 C483 1.400 1_455 S
C483 C477 1.491 . S
C483 C482 1.400 1_655 S
C483 C484 1.398 . S
C484 H472 0.950 . S
C484 C483 1.398 . S
C484 C485 1.391 . S
C485 H473 0.950 . S
C485 C481 1.393 . S
C485 C484 1.391 . S
H486 C494 0.950 1_545 S
H487 C499 0.950 . S
H488 C496 0.950 . S
H489 C498 0.950 . S
H490 C500 0.950 . S
H491 C502 0.950 . S
H492 C504 0.950 . S
H493 C505 0.950 . S
C494 H486 0.950 1_565 S
C494 C495 1.386 . S
C494 C496 1.391 1_565 S
C495 C494 1.386 . S
C495 C499 1.393 . S
C496 H488 0.950 . S
C496 C494 1.391 1_545 S
C496 C497 1.400 1_545 S
C497 C496 1.400 1_565 S
C497 C498 1.398 . S
C497 C503 1.491 . S
C498 H489 0.950 . S
C498 C497 1.398 . S
C498 C499 1.391 . S
C499 H487 0.950 . S
C499 C495 1.393 . S
C499 C498 1.391 . S
C500 H490 0.950 . S
C500 C501 1.386 . S
C500 C502 1.391 . S
C501 C500 1.386 . S
C501 C505 1.393 1_565 S
C502 H491 0.950 . S
C502 C500 1.391 . S
C502 C503 1.400 . S
C503 C497 1.491 . S
C503 C502 1.400 . S
C503 C504 1.398 1_565 S
C504 H492 0.950 . S
C504 C503 1.398 1_545 S
C504 C505 1.391 . S
C505 H493 0.950 . S
C505 C501 1.393 1_545 S
C505 C504 1.391 . S
H506 C514 0.951 . S
H507 C519 0.950 . S
H508 C516 0.950 . S
H509 C518 0.950 . S
H510 C520 0.950 . S
H511 C522 0.950 . S
H512 C524 0.950 . S
H513 C525 0.950 . S
C514 H506 0.951 . S
C514 C515 1.375 1_556 S
C514 C516 1.401 . S
C515 C514 1.375 1_554 S
C515 C519 1.393 . S
C516 H508 0.950 . S
C516 C514 1.401 . S
C516 C517 1.400 . S
C517 C516 1.400 . S
C517 C518 1.398 1_556 S
C517 C523 1.491 . S
C518 H509 0.950 . S
C518 C517 1.398 1_554 S
C518 C519 1.391 . S
C519 H507 0.950 . S
C519 C515 1.393 . S
C519 C518 1.391 . S
C520 H510 0.950 . S
C520 C521 1.386 . S
C520 C522 1.391 . S
C521 C520 1.386 . S
C521 C525 1.393 . S
C522 H511 0.950 . S
C522 C520 1.391 . S
C522 C523 1.400 . S
C523 C517 1.491 . S
C523 C522 1.400 . S
C523 C524 1.398 . S
C524 H512 0.950 . S
C524 C523 1.398 . S
C524 C525 1.391 . S
C525 H513 0.950 . S
C525 C521 1.393 . S
C525 C524 1.391 . S
H526 C534 0.950 1_655 S
H527 C539 0.950 . S
H528 C536 0.950 . S
H529 C538 0.950 . S
H530 C540 0.950 . S
H531 C542 0.950 . S
H532 C544 0.950 . S
H533 C545 0.950 . S
C534 H526 0.950 1_455 S
C534 C535 1.386 . S
C534 C536 1.391 1_455 S
C535 C534 1.386 . S
C535 C539 1.393 . S
C536 H528 0.950 . S
C536 C534 1.391 1_655 S
C536 C537 1.400 1_655 S
C537 C536 1.400 1_455 S
C537 C538 1.398 . S
C537 C543 1.491 . S
C538 H529 0.950 . S
C538 C537 1.398 . S
C538 C539 1.391 . S
C539 H527 0.950 . S
C539 C535 1.393 . S
C539 C538 1.391 . S
C540 H530 0.950 . S
C540 C541 1.386 . S
C540 C542 1.391 . S
C541 C540 1.386 . S
C541 C545 1.393 1_455 S
C542 H531 0.950 . S
C542 C540 1.391 . S
C542 C543 1.400 . S
C543 C537 1.491 . S
C543 C542 1.400 . S
C543 C544 1.398 1_455 S
C544 H532 0.950 . S
C544 C543 1.398 1_655 S
C544 C545 1.391 . S
C545 H533 0.950 . S
C545 C541 1.393 1_655 S
C545 C544 1.391 . S
C321 C265 1.461 . S
C315 C29 1.446 . S
C335 C137 1.441 . S
C341 C291 1.457 . S
C355 C225 1.437 . S
C361 C293 1.458 . S
C375 C49 1.430 . S
C381 C277 1.451 . S
C401 C279 1.454 . S
C395 C117 1.433 . S
C415 C205 1.431 . S
C421 C305 1.448 . S
C441 C278 1.456 1_545 S
C435 C233 1.438 . S
C455 C57 1.444 . S
C461 C304 1.459 . S
C481 C264 1.450 1_655 S
C475 C108 1.437 . S
C501 C290 1.460 1_565 S
C495 C196 1.438 . S
C521 C292 1.455 . S
C515 C20 1.432 . S
C535 C145 1.444 . S
C541 C276 1.458 1_455 S
