# Generated by pormake.
# Topology sit, (3,6)-cn, num edge types: 1
# Building blocks:
#     Node 0, Type 0, BuildingBlock: WUSLED_clean_sbu_0, # of connection points: 3
#     Node 1, Type 0, BuildingBlock: WUSLED_clean_sbu_0, # of connection points: 3
#     Node 2, Type 0, BuildingBlock: WUSLED_clean_sbu_0, # of connection points: 3
#     Node 3, Type 0, BuildingBlock: WUSLED_clean_sbu_0, # of connection points: 3
#     Node 4, Type 1, BuildingBlock: MIDCAF_clean_sbu_0, # of connection points: 6
#     Node 5, Type 1, BuildingBlock: MIDCAF_clean_sbu_0, # of connection points: 6
#     Edge 6, Type (0, 1), BuildingBlock: UVAHIK_clean_linker_0, # of connection points: 2
#     Edge 7, Type (0, 1), BuildingBlock: UVAHIK_clean_linker_0, # of connection points: 2
#     Edge 8, Type (0, 1), BuildingBlock: UVAHIK_clean_linker_0, # of connection points: 2
#     Edge 9, Type (0, 1), BuildingBlock: UVAHIK_clean_linker_0, # of connection points: 2
#     Edge 10, Type (0, 1), BuildingBlock: UVAHIK_clean_linker_0, # of connection points: 2
#     Edge 11, Type (0, 1), BuildingBlock: UVAHIK_clean_linker_0, # of connection points: 2
#     Edge 12, Type (0, 1), BuildingBlock: UVAHIK_clean_linker_0, # of connection points: 2
#     Edge 13, Type (0, 1), BuildingBlock: UVAHIK_clean_linker_0, # of connection points: 2
#     Edge 14, Type (0, 1), BuildingBlock: UVAHIK_clean_linker_0, # of connection points: 2
#     Edge 15, Type (0, 1), BuildingBlock: UVAHIK_clean_linker_0, # of connection points: 2
#     Edge 16, Type (0, 1), BuildingBlock: UVAHIK_clean_linker_0, # of connection points: 2
#     Edge 17, Type (0, 1), BuildingBlock: UVAHIK_clean_linker_0, # of connection points: 2
# Relax obj value: 0.107
# Max RMSD: 0.192
# Mean RMSD: 0.103
data_MOF--net-sit--node1-WUSLED_clean_sbu_0--node2-MIDCAF_clean_sbu_0--edge1-UVAHIK_clean_linker_0
_symmetry_space_group_name_H-M    P1
_symmetry_Int_Tables_number       1
_symmetry_cell_setting            triclinic
loop_
_symmetry_equiv_pos_as_xyz
'x, y, z'
_cell_length_a     36.777791
_cell_length_b     50.621405
_cell_length_c     56.352669
_cell_angle_alpha  89.765691
_cell_angle_beta   88.855405
_cell_angle_gamma 84.510747
loop_
_atom_site_label
_atom_site_type_symbol
_atom_site_fract_x
_atom_site_fract_y
_atom_site_fract_z
_atom_type_partial_charge
C0 C 0.97983 0.3275 0.03583 0.0
C1 C 0.98725 0.35074 0.02377 0.0
C2 C 0.92246 0.36136 0.01652 0.0
C3 C 0.95886 0.36752 0.01423 0.0
C4 C 0.91512 0.33827 0.02908 0.0
C5 C 0.94362 0.32146 0.03864 0.0
U6 U 0.08082 0.30943 0.03775 0.0
O7 O 0.11762 0.29469 0.06612 0.0
O8 O 0.1141 0.27104 0.03382 0.0
C9 C 0.12647 0.27181 0.0555 0.0
C10 C 0.01013 0.30907 0.0443 0.0
C11 C 0.12269 0.2479 0.07008 0.0
C12 C 0.09205 0.22479 0.10142 0.0
C13 C 0.09489 0.24744 0.08747 0.0
C14 C 0.14417 0.20243 0.0804 0.0
C15 C 0.11666 0.20195 0.09812 0.0
C16 C 0.14716 0.2252 0.06658 0.0
C17 C 0.13591 0.36001 0.0036 0.0
C18 C 0.19911 0.35534 0.98961 0.0
C19 C 0.16384 0.39826 0.98821 0.0
C20 C 0.13375 0.3871 0.99807 0.0
C21 C 0.19679 0.3825 0.98361 0.0
C22 C 0.16884 0.34416 0.99952 0.0
C23 C 0.10283 0.34901 0.01275 0.0
O24 O 0.02857 0.2955 0.02742 0.0
O25 O 0.03127 0.31907 0.05978 0.0
O26 O 0.09736 0.35007 0.03585 0.0
O27 O 0.09482 0.32665 0.00328 0.0
H28 H 0.01514 0.35559 0.02128 0.0
H29 H 0.96559 0.38486 0.00436 0.0
H30 H 0.88737 0.33308 0.03137 0.0
H31 H 0.93745 0.30357 0.04789 0.0
H32 H 0.07088 0.22541 0.11509 0.0
H33 H 0.07552 0.26467 0.09043 0.0
H34 H 0.16326 0.18515 0.07707 0.0
H35 H 0.16864 0.22509 0.05313 0.0
H36 H 0.22402 0.34263 0.98615 0.0
H37 H 0.1613 0.4193 0.98424 0.0
H38 H 0.10854 0.39964 0.00119 0.0
H39 H 0.17098 0.32316 0.0037 0.0
C40 C 0.93076 0.71399 0.0247 0.0
C41 C 0.94062 0.6979 0.00493 0.0
C42 C 0.88027 0.68212 0.00504 0.0
C43 C 0.91559 0.68226 0.99512 0.0
C44 C 0.87059 0.69788 0.02514 0.0
C45 C 0.89567 0.7138 0.03485 0.0
U46 U 0.02897 0.72424 0.03038 0.0
O47 O 0.05914 0.75969 0.02705 0.0
O48 O 0.06268 0.73567 0.05966 0.0
C49 C 0.07142 0.75728 0.04877 0.0
C50 C 0.95772 0.73019 0.03483 0.0
C51 C 0.06856 0.78166 0.06309 0.0
C52 C 0.03981 0.80968 0.09446 0.0
C53 C 0.03968 0.78769 0.07945 0.0
C54 C 0.09674 0.8204 0.07615 0.0
C55 C 0.06882 0.82593 0.09334 0.0
C56 C 0.09661 0.79846 0.06122 0.0
C57 C 0.0943 0.67142 0.9984 0.0
C58 C 0.15577 0.6757 0.98333 0.0
C59 C 0.13461 0.63208 0.98828 0.0
C60 C 0.10091 0.64375 0.99677 0.0
C61 C 0.16218 0.64796 0.98112 0.0
C62 C 0.12215 0.68735 0.992 0.0
C63 C 0.05781 0.68313 0.00599 0.0
O64 O 0.97879 0.7181 0.0509 0.0
O65 O 0.97592 0.74325 0.01907 0.0
O66 O 0.04632 0.70597 0.99622 0.0
O67 O 0.05045 0.68212 0.02887 0.0
H68 H 0.96779 0.69743 0.99704 0.0
H69 H 0.92402 0.67002 0.97989 0.0
H70 H 0.84349 0.6982 0.03307 0.0
H71 H 0.88771 0.72592 0.05023 0.0
H72 H 0.01803 0.81327 0.10761 0.0
H73 H 0.01767 0.77499 0.08108 0.0
H74 H 0.11915 0.83275 0.07455 0.0
H75 H 0.119 0.79421 0.0486 0.0
H76 H 0.17671 0.6884 0.97821 0.0
H77 H 0.13867 0.61069 0.9866 0.0
H78 H 0.07972 0.63116 0.00165 0.0
H79 H 0.11774 0.70876 0.99334 0.0
C80 C 0.47566 0.83334 0.53404 0.0
C81 C 0.48393 0.85701 0.52302 0.0
C82 C 0.41981 0.86794 0.51394 0.0
C83 C 0.45627 0.87418 0.51311 0.0
C84 C 0.41161 0.84435 0.52535 0.0
C85 C 0.43935 0.82719 0.53532 0.0
U86 U 0.57631 0.814 0.53861 0.0
O87 O 0.61032 0.79892 0.56839 0.0
O88 O 0.60924 0.7755 0.53573 0.0
C89 C 0.61983 0.77609 0.55788 0.0
C90 C 0.50517 0.81469 0.5432 0.0
C91 C 0.61559 0.75215 0.57244 0.0
C92 C 0.58939 0.7104 0.57984 0.0
C93 C 0.59247 0.73299 0.56579 0.0
C94 C 0.63208 0.7259 0.60753 0.0
C95 C 0.60917 0.70653 0.60093 0.0
C96 C 0.63535 0.74834 0.5934 0.0
C97 C 0.63626 0.86239 0.50594 0.0
C98 C 0.69885 0.85481 0.49104 0.0
C99 C 0.66866 0.89948 0.49254 0.0
C100 C 0.63731 0.88966 0.5021 0.0
C101 C 0.69965 0.88216 0.48656 0.0
C102 C 0.66738 0.84499 0.50066 0.0
C103 C 0.60167 0.85277 0.51416 0.0
O104 O 0.52433 0.80083 0.52681 0.0
O105 O 0.52559 0.82454 0.5592 0.0
O106 O 0.59462 0.85419 0.5371 0.0
O107 O 0.59287 0.83072 0.5045 0.0
H108 H 0.51192 0.86196 0.52171 0.0
H109 H 0.46363 0.89193 0.50415 0.0
H110 H 0.38377 0.83909 0.52648 0.0
H111 H 0.43253 0.80898 0.54374 0.0
H112 H 0.5718 0.69582 0.57402 0.0
H113 H 0.57681 0.73539 0.54972 0.0
H114 H 0.64719 0.72396 0.62384 0.0
H115 H 0.65327 0.76287 0.59893 0.0
H116 H 0.72214 0.84091 0.48648 0.0
H117 H 0.66855 0.92067 0.48975 0.0
H118 H 0.61356 0.90339 0.50613 0.0
H119 H 0.6671 0.82383 0.5035 0.0
C120 C 0.42864 0.21052 0.52835 0.0
C121 C 0.43741 0.19313 0.50932 0.0
C122 C 0.37472 0.18153 0.50869 0.0
C123 C 0.41073 0.17893 0.49951 0.0
C124 C 0.36619 0.19871 0.52807 0.0
C125 C 0.39296 0.21312 0.53779 0.0
U126 U 0.52821 0.21728 0.5341 0.0
O127 O 0.56039 0.25171 0.53077 0.0
O128 O 0.56226 0.2279 0.5635 0.0
C129 C 0.57221 0.24916 0.55259 0.0
C130 C 0.45702 0.22558 0.53825 0.0
C131 C 0.56987 0.27358 0.56683 0.0
C132 C 0.53966 0.30308 0.59663 0.0
C133 C 0.53951 0.28107 0.58163 0.0
C134 C 0.59975 0.31089 0.58135 0.0
C135 C 0.57017 0.31788 0.59703 0.0
C136 C 0.59959 0.28893 0.56645 0.0
C137 C 0.59146 0.16273 0.50295 0.0
C138 C 0.654 0.16555 0.48932 0.0
C139 C 0.63012 0.12266 0.49257 0.0
C140 C 0.5966 0.13504 0.50068 0.0
C141 C 0.65898 0.13783 0.48644 0.0
C142 C 0.62056 0.1779 0.4976 0.0
C143 C 0.55526 0.17531 0.51017 0.0
O144 O 0.47729 0.21291 0.55443 0.0
O145 O 0.47623 0.23764 0.52234 0.0
O146 O 0.54506 0.19827 0.50017 0.0
O147 O 0.54746 0.17473 0.53301 0.0
H148 H 0.46491 0.19074 0.50186 0.0
H149 H 0.41825 0.16632 0.48437 0.0
H150 H 0.33889 0.20094 0.53581 0.0
H151 H 0.38582 0.22627 0.55262 0.0
H152 H 0.51656 0.3078 0.60859 0.0
H153 H 0.51621 0.26949 0.58208 0.0
H154 H 0.62339 0.32212 0.58092 0.0
H155 H 0.62315 0.28354 0.55501 0.0
H156 H 0.67593 0.1777 0.48502 0.0
H157 H 0.63307 0.10131 0.49036 0.0
H158 H 0.57442 0.12303 0.50477 0.0
H159 H 0.61728 0.19929 0.49947 0.0
Zn160 Zn 0.04566 0.06725 0.34265 0.0
Zn161 Zn 0.08834 0.9647 0.35032 0.0
Zn162 Zn 0.06709 0.01644 0.34733 0.0
C163 C 0.08752 0.9774 0.30226 0.0
C164 C 0.01797 0.97276 0.37065 0.0
O165 O 0.10613 0.03815 0.36732 0.0
O166 O 0.08333 0.07999 0.36345 0.0
C167 C 0.06201 0.04966 0.29723 0.0
O168 O 0.07648 1.00043 0.3108 0.0
O169 O 0.09533 0.95795 0.31591 0.0
O170 O 0.04353 0.95466 0.36697 0.0
O171 O 0.02173 0.99689 0.36432 0.0
O172 O 0.05049 0.07074 0.30794 0.0
O173 O 0.06947 0.02793 0.30895 0.0
O174 O 0.01139 0.02442 0.36388 0.0
O175 O 0.99606 0.06684 0.35596 0.0
C176 C 0.98825 0.04523 0.36502 0.0
O177 O 0.11721 0.01083 0.36926 0.0
O178 O 0.13216 0.96734 0.36918 0.0
C179 C 0.10711 0.06303 0.37185 0.0
C180 C 0.13836 0.99029 0.37554 0.0
Zn181 Zn 0.55951 0.5656 0.8441 0.0
Zn182 Zn 0.58431 0.4619 0.85263 0.0
Zn183 Zn 0.5705 0.51429 0.84868 0.0
C184 C 0.58482 0.47362 0.80425 0.0
C185 C 0.51489 0.47587 0.87297 0.0
O186 O 0.61233 0.53241 0.8697 0.0
O187 O 0.5937 0.57525 0.86857 0.0
C188 C 0.57758 0.54711 0.79923 0.0
O189 O 0.57781 0.49742 0.81229 0.0
O190 O 0.58913 0.45415 0.8183 0.0
O191 O 0.53826 0.45614 0.87005 0.0
O192 O 0.52175 0.49912 0.86575 0.0
O193 O 0.5741 0.56877 0.81037 0.0
O194 O 0.57523 0.52496 0.81029 0.0
O195 O 0.51552 0.52707 0.86396 0.0
O196 O 0.50694 0.56911 0.85276 0.0
C197 C 0.49515 0.54921 0.86284 0.0
O198 O 0.62002 0.5048 0.87065 0.0
O199 O 0.62953 0.46088 0.87073 0.0
C200 C 0.61543 0.55649 0.87621 0.0
C201 C 0.63881 0.48314 0.87689 0.0
C202 C 0.07962 0.17064 0.12093 0.0
C203 C 0.11391 0.17801 0.11339 0.0
C204 C 0.07696 0.14933 0.13652 0.0
C205 C 0.13047 0.11036 0.18186 0.0
H206 H 0.04601 0.06998 0.18278 0.0
C207 C 0.1013 0.04221 0.26064 0.0
C208 C 0.06753 0.05103 0.27131 0.0
C209 C 0.10943 0.04992 0.23733 0.0
C210 C 0.06998 0.08087 0.18258 0.0
H211 H 0.17242 0.16795 0.11597 0.0
H212 H 0.16775 0.13023 0.14241 0.0
H213 H 0.05657 0.09897 0.14912 0.0
H214 H 0.01473 0.07264 0.2657 0.0
H215 H 0.02831 0.0853 0.22497 0.0
H216 H 0.14333 0.09259 0.2156 0.0
C217 C 0.14283 0.14132 0.13667 0.0
C218 C 0.07589 0.0977 0.16342 0.0
C219 C 0.1455 0.16282 0.12121 0.0
C220 C 0.04095 0.06558 0.25777 0.0
C221 C 0.04871 0.07275 0.23444 0.0
C222 C 0.12478 0.09328 0.20087 0.0
C223 C 0.10852 0.13454 0.14486 0.0
C224 C 0.10547 0.11344 0.16322 0.0
C225 C 0.08354 0.06601 0.22431 0.0
C226 C 0.09379 0.07907 0.20183 0.0
H227 H 0.05465 0.1815 0.11497 0.0
H228 H 0.05003 0.14506 0.14261 0.0
H229 H 0.15334 0.12228 0.18256 0.0
H230 H 0.12229 0.03112 0.27085 0.0
H231 H 0.13645 0.04438 0.22989 0.0
C232 C 0.04078 0.86385 0.11872 0.0
C233 C 0.07164 0.84718 0.1112 0.0
C234 C 0.04354 0.88253 0.13675 0.0
C235 C 0.09822 0.89201 0.18875 0.0
H236 H 0.05521 0.96502 0.18838 0.0
C237 C 0.12093 0.95742 0.26722 0.0
C238 C 0.09016 0.97264 0.27652 0.0
C239 C 0.12062 0.94697 0.2444 0.0
C240 C 0.06717 0.94463 0.18879 0.0
H241 H 0.12963 0.83733 0.11657 0.0
H242 H 0.13438 0.86983 0.14772 0.0
H243 H 0.04955 0.93681 0.15356 0.0
H244 H 0.03591 0.99064 0.26893 0.0
H245 H 0.03459 0.97145 0.22912 0.0
H246 H 0.11477 0.89902 0.22395 0.0
C247 C 0.10807 0.86849 0.13973 0.0
C248 C 0.06393 0.92852 0.16887 0.0
C249 C 0.10539 0.85003 0.1217 0.0
C250 C 0.06 0.97898 0.26201 0.0
C251 C 0.05932 0.96798 0.23922 0.0
C252 C 0.10117 0.9079 0.20859 0.0
C253 C 0.07711 0.88463 0.14774 0.0
C254 C 0.07973 0.90209 0.16863 0.0
C255 C 0.08905 0.95079 0.23062 0.0
C256 C 0.08605 0.93452 0.20887 0.0
H257 H 0.01446 0.86228 0.11084 0.0
H258 H 0.01918 0.89463 0.14266 0.0
H259 H 0.10993 0.87155 0.18933 0.0
H260 H 0.14465 0.95252 0.27807 0.0
H261 H 0.14453 0.93468 0.23805 0.0
C262 C 0.63604 0.67058 0.62823 0.0
C263 C 0.60566 0.68269 0.61619 0.0
C264 C 0.63239 0.6493 0.64371 0.0
C265 C 0.56238 0.61913 0.68021 0.0
H266 H 0.64272 0.56556 0.69181 0.0
C267 C 0.55477 0.54658 0.75805 0.0
C268 C 0.58394 0.54818 0.77346 0.0
C269 C 0.55722 0.55586 0.73467 0.0
C270 C 0.61994 0.58027 0.68864 0.0
H271 H 0.54769 0.68112 0.61063 0.0
H272 H 0.54163 0.64344 0.63689 0.0
H273 H 0.64664 0.59617 0.65844 0.0
H274 H 0.63907 0.55902 0.77654 0.0
H275 H 0.64388 0.57459 0.73564 0.0
H276 H 0.53603 0.60353 0.71066 0.0
C277 C 0.5682 0.6508 0.63478 0.0
C278 C 0.62226 0.59797 0.66963 0.0
C279 C 0.57178 0.67226 0.61943 0.0
C280 C 0.61652 0.55719 0.76476 0.0
C281 C 0.61919 0.56613 0.74136 0.0
C282 C 0.55993 0.60128 0.69903 0.0
C283 C 0.59833 0.63929 0.64744 0.0
C284 C 0.59396 0.61816 0.66558 0.0
C285 C 0.58898 0.56672 0.72639 0.0
C286 C 0.58909 0.58212 0.70387 0.0
H287 H 0.66273 0.67768 0.62588 0.0
H288 H 0.65618 0.64127 0.6533 0.0
H289 H 0.54022 0.63456 0.67795 0.0
H290 H 0.52916 0.54013 0.76459 0.0
H291 H 0.5336 0.55592 0.72348 0.0
C292 C 0.54213 0.35712 0.62084 0.0
C293 C 0.57254 0.33914 0.61495 0.0
C294 C 0.54425 0.37589 0.63887 0.0
C295 C 0.5944 0.38452 0.69322 0.0
H296 H 0.55675 0.45867 0.69002 0.0
C297 C 0.61823 0.45181 0.77012 0.0
C298 C 0.58793 0.46812 0.77867 0.0
C299 C 0.61798 0.44052 0.74763 0.0
C300 C 0.56717 0.43798 0.69121 0.0
H301 H 0.62907 0.32706 0.62327 0.0
H302 H 0.63278 0.35976 0.65435 0.0
H303 H 0.55194 0.42979 0.65552 0.0
H304 H 0.5345 0.48693 0.77013 0.0
H305 H 0.53343 0.46654 0.73073 0.0
H306 H 0.60881 0.39205 0.7288 0.0
C307 C 0.60728 0.35934 0.64512 0.0
C308 C 0.5644 0.42147 0.67149 0.0
C309 C 0.60524 0.34076 0.62712 0.0
C310 C 0.55832 0.47458 0.76372 0.0
C311 C 0.55774 0.46284 0.74122 0.0
C312 C 0.59696 0.40084 0.71283 0.0
C313 C 0.57669 0.37682 0.6515 0.0
C314 C 0.57839 0.39463 0.67226 0.0
C315 C 0.58694 0.44469 0.73342 0.0
C316 C 0.58385 0.42786 0.71205 0.0
H317 H 0.51664 0.35652 0.61166 0.0
H318 H 0.52019 0.38904 0.64347 0.0
H319 H 0.6046 0.36379 0.6946 0.0
H320 H 0.64142 0.44667 0.78137 0.0
H321 H 0.64144 0.42736 0.7419 0.0
C322 C 0.26402 0.38783 0.98026 0.0
C323 C 0.22829 0.39448 0.97237 0.0
C324 C 0.2934 0.39963 0.96996 0.0
C325 C 0.3215 0.43431 0.91577 0.0
H326 H 0.39901 0.45451 0.95555 0.0
C327 C 0.4466 0.48296 0.87732 0.0
C328 C 0.48037 0.47166 0.88552 0.0
C329 C 0.41403 0.47704 0.8886 0.0
C330 C 0.37761 0.44892 0.9442 0.0
H331 H 0.19559 0.41833 0.9471 0.0
H332 H 0.24671 0.43918 0.92945 0.0
H333 H 0.34582 0.43664 0.97375 0.0
H334 H 0.5069 0.44545 0.91173 0.0
H335 H 0.45042 0.43496 0.93127 0.0
H336 H 0.35364 0.44621 0.88618 0.0
C337 C 0.25206 0.42477 0.94351 0.0
C338 C 0.34721 0.43858 0.95461 0.0
C339 C 0.2227 0.41301 0.95381 0.0
C340 C 0.48115 0.45457 0.90519 0.0
C341 C 0.44881 0.44875 0.91649 0.0
C342 C 0.35193 0.44467 0.90534 0.0
C343 C 0.28776 0.4183 0.95151 0.0
C344 C 0.31907 0.43073 0.9405 0.0
C345 C 0.41483 0.45969 0.90823 0.0
C346 C 0.38064 0.45164 0.91941 0.0
H347 H 0.26923 0.37379 0.99462 0.0
H348 H 0.32063 0.39391 0.97633 0.0
H349 H 0.30046 0.42825 0.90436 0.0
H350 H 0.44536 0.49587 0.86192 0.0
H351 H 0.38826 0.48587 0.88189 0.0
C352 C 0.84996 0.66563 0.96938 0.0
C353 C 0.85381 0.66568 0.99413 0.0
C354 C 0.82594 0.64968 0.95883 0.0
C355 C 0.74499 0.6136 0.97182 0.0
H356 H 0.76906 0.58374 0.90956 0.0
C357 C 0.6355 0.58388 0.90906 0.0
C358 C 0.64351 0.56285 0.89308 0.0
C359 C 0.66232 0.59187 0.92384 0.0
C360 C 0.76207 0.59147 0.92712 0.0
H361 H 0.83566 0.64896 0.02725 0.0
H362 H 0.79392 0.6207 0.00881 0.0
H363 H 0.81437 0.60604 0.93064 0.0
H364 H 0.686 0.534 0.87966 0.0
H365 H 0.73286 0.54707 0.90634 0.0
H366 H 0.69284 0.59874 0.96842 0.0
C367 C 0.80907 0.63333 0.99756 0.0
C368 C 0.78789 0.60468 0.93908 0.0
C369 C 0.83295 0.64951 0.00814 0.0
C370 C 0.6788 0.54961 0.89243 0.0
C371 C 0.70576 0.55749 0.90738 0.0
C372 C 0.71927 0.6002 0.95995 0.0
C373 C 0.80532 0.63318 0.97274 0.0
C374 C 0.77933 0.61657 0.96128 0.0
C375 C 0.69794 0.57902 0.92304 0.0
C376 C 0.7271 0.58963 0.93716 0.0
H377 H 0.86529 0.6782 0.95816 0.0
H378 H 0.82313 0.65066 0.93975 0.0
H379 H 0.73732 0.62254 0.98884 0.0
H380 H 0.60853 0.59456 0.90984 0.0
H381 H 0.65538 0.60885 0.93524 0.0
C382 C 0.86555 0.36631 0.99246 0.0
C383 C 0.89273 0.37815 0.00463 0.0
C384 C 0.83935 0.38181 0.97958 0.0
C385 C 0.79575 0.45004 0.971 0.0
H386 H 0.774 0.42224 0.90943 0.0
C387 C 0.66861 0.48584 0.91589 0.0
C388 C 0.67166 0.48331 0.89116 0.0
C389 C 0.69879 0.47843 0.93005 0.0
C390 C 0.7801 0.43061 0.92639 0.0
H391 H 0.91266 0.41576 0.01361 0.0
H392 H 0.86713 0.44283 0.99076 0.0
H393 H 0.81915 0.39783 0.9339 0.0
H394 H 0.70848 0.47317 0.86152 0.0
H395 H 0.76159 0.4613 0.88602 0.0
H396 H 0.75651 0.48297 0.96325 0.0
C397 C 0.86607 0.42152 0.99129 0.0
C398 C 0.80561 0.41632 0.94062 0.0
C399 C 0.89236 0.40598 0.00419 0.0
C400 C 0.70572 0.47535 0.88061 0.0
C401 C 0.73592 0.46829 0.89467 0.0
C402 C 0.77005 0.46441 0.95669 0.0
C403 C 0.83967 0.40955 0.97848 0.0
C404 C 0.81341 0.42563 0.96322 0.0
C405 C 0.73236 0.46837 0.91958 0.0
C406 C 0.76175 0.45474 0.93426 0.0
H407 H 0.86517 0.34495 0.99221 0.0
H408 H 0.81902 0.37199 0.97022 0.0
H409 H 0.80112 0.45771 0.98836 0.0
H410 H 0.64233 0.49164 0.92431 0.0
H411 H 0.69501 0.47868 0.94915 0.0
C412 C 0.21555 0.61295 0.98031 0.0
C413 C 0.19684 0.63572 0.97033 0.0
C414 C 0.24794 0.60134 0.96974 0.0
C415 C 0.32129 0.61671 0.92716 0.0
H416 H 0.34206 0.54022 0.92308 0.0
C417 C 0.43152 0.5704 0.8641 0.0
C418 C 0.45858 0.55266 0.87421 0.0
C419 C 0.3989 0.57764 0.87639 0.0
C420 C 0.33663 0.56159 0.92429 0.0
H421 H 0.19671 0.66367 0.9411 0.0
H422 H 0.25259 0.64332 0.92247 0.0
H423 H 0.2865 0.55922 0.94391 0.0
H424 H 0.4725 0.52802 0.90484 0.0
H425 H 0.41453 0.54029 0.9263 0.0
H426 H 0.37076 0.61912 0.90707 0.0
C427 C 0.24302 0.63478 0.93883 0.0
C428 C 0.30496 0.5725 0.93626 0.0
C429 C 0.21093 0.64647 0.94948 0.0
C430 C 0.45174 0.54134 0.89647 0.0
C431 C 0.41875 0.54844 0.90876 0.0
C432 C 0.35254 0.60585 0.91505 0.0
C433 C 0.26211 0.61217 0.94888 0.0
C434 C 0.29667 0.60023 0.93752 0.0
C435 C 0.39261 0.56734 0.8991 0.0
C436 C 0.36025 0.57824 0.91318 0.0
H437 H 0.20539 0.60432 0.99646 0.0
H438 H 0.26212 0.58412 0.97809 0.0
H439 H 0.3164 0.63811 0.92834 0.0
H440 H 0.43613 0.57942 0.84696 0.0
H441 H 0.37897 0.59198 0.86843 0.0
C442 C 0.72786 0.91246 0.45756 0.0
C443 C 0.73218 0.8926 0.4751 0.0
C444 C 0.75829 0.92217 0.44655 0.0
C445 C 0.85624 0.90414 0.43391 0.0
H446 H 0.85831 0.97923 0.42055 0.0
C447 C 0.98734 0.94677 0.4013 0.0
C448 C 0.98451 0.96575 0.38305 0.0
C449 C 0.9561 0.93894 0.41268 0.0
C450 C 0.85795 0.95819 0.42394 0.0
H451 H 0.77201 0.86772 0.49507 0.0
H452 H 0.82515 0.88461 0.47583 0.0
H453 H 0.80478 0.96346 0.44047 0.0
H454 H 0.94689 0.99096 0.36189 0.0
H455 H 0.89183 0.97746 0.38199 0.0
H456 H 0.90923 0.89879 0.41739 0.0
C457 C 0.79816 0.89243 0.47038 0.0
C458 C 0.82732 0.94914 0.43536 0.0
C459 C 0.76771 0.88273 0.4814 0.0
C460 C 0.94977 0.97676 0.37631 0.0
C461 C 0.91834 0.96896 0.38777 0.0
C462 C 0.88677 0.91317 0.42252 0.0
C463 C 0.79381 0.9122 0.45275 0.0
C464 C 0.8262 0.922 0.44058 0.0
C465 C 0.92119 0.94973 0.40593 0.0
C466 C 0.88811 0.9403 0.41752 0.0
H467 H 0.70089 0.92019 0.45198 0.0
H468 H 0.75396 0.93708 0.4328 0.0
H469 H 0.85599 0.88307 0.43721 0.0
H470 H 0.01385 0.93798 0.40684 0.0
H471 H 0.95933 0.92443 0.42684 0.0
C472 C 0.35472 0.14123 0.48844 0.0
C473 C 0.34616 0.167 0.49749 0.0
C474 C 0.3288 0.12846 0.47615 0.0
C475 C 0.24341 0.14377 0.443 0.0
H476 H 0.23733 0.06776 0.44661 0.0
C477 C 0.1257 0.09499 0.40163 0.0
C478 C 0.13483 0.07236 0.3876 0.0
C479 C 0.15172 0.10504 0.41583 0.0
C480 C 0.23897 0.08897 0.44532 0.0
H481 H 0.30297 0.19913 0.50126 0.0
H482 H 0.25744 0.17649 0.48077 0.0
H483 H 0.28141 0.08819 0.47087 0.0
H484 H 0.17865 0.04314 0.37679 0.0
H485 H 0.22423 0.0601 0.40246 0.0
H486 H 0.20069 0.14462 0.41775 0.0
C487 C 0.28455 0.16639 0.48261 0.0
C488 C 0.26422 0.1007 0.45917 0.0
C489 C 0.31055 0.17925 0.49471 0.0
C490 C 0.17054 0.05986 0.3882 0.0
C491 C 0.19666 0.06978 0.40265 0.0
C492 C 0.21805 0.13211 0.42938 0.0
C493 C 0.29352 0.14104 0.47276 0.0
C494 C 0.26663 0.1283 0.45826 0.0
C495 C 0.18756 0.09272 0.41635 0.0
C496 C 0.21541 0.10464 0.43046 0.0
H497 H 0.38166 0.13096 0.4906 0.0
H498 H 0.33682 0.10903 0.46873 0.0
H499 H 0.24508 0.16494 0.44131 0.0
H500 H 0.09832 0.10503 0.40158 0.0
H501 H 0.1438 0.12255 0.42641 0.0
C502 C 0.3901 0.91312 0.50292 0.0
C503 C 0.3909 0.88529 0.50184 0.0
C504 C 0.36434 0.92931 0.49015 0.0
C505 C 0.30694 0.92726 0.43763 0.0
H506 H 0.25328 0.99065 0.46362 0.0
C507 C 0.20526 0.98718 0.37973 0.0
C508 C 0.17046 0.99242 0.39016 0.0
C509 C 0.2356 0.98073 0.39384 0.0
C510 C 0.26816 0.97305 0.45611 0.0
H511 H 0.36488 0.85273 0.48673 0.0
H512 H 0.31973 0.88088 0.46484 0.0
H513 H 0.29809 0.96454 0.48801 0.0
H514 H 0.13985 0.99668 0.42328 0.0
H515 H 0.1928 0.98486 0.44816 0.0
H516 H 0.27648 0.9349 0.40616 0.0
C517 C 0.33925 0.89021 0.47536 0.0
C518 C 0.29394 0.95819 0.47001 0.0
C519 C 0.36485 0.87407 0.48815 0.0
C520 C 0.16667 0.9931 0.41496 0.0
C521 C 0.19701 0.9863 0.42914 0.0
C522 C 0.28139 0.94205 0.42378 0.0
C523 C 0.33901 0.918 0.47592 0.0
C524 C 0.31312 0.93486 0.46103 0.0
C525 C 0.23148 0.97869 0.41864 0.0
C526 C 0.26134 0.96497 0.43289 0.0
H527 H 0.40957 0.92239 0.51351 0.0
H528 H 0.36492 0.95064 0.4909 0.0
H529 H 0.32166 0.90964 0.43003 0.0
H530 H 0.20861 0.98636 0.36059 0.0
H531 H 0.2619 0.97562 0.38521 0.0
C532 C 0.71064 0.10141 0.48561 0.0
C533 C 0.69353 0.12497 0.47598 0.0
C534 C 0.74309 0.08938 0.47541 0.0
C535 C 0.81945 0.10471 0.43527 0.0
H536 H 0.83651 0.02837 0.42732 0.0
C537 C 0.92241 0.06031 0.36776 0.0
C538 C 0.95256 0.04512 0.37732 0.0
C539 C 0.89036 0.0656 0.38113 0.0
C540 C 0.83213 0.04966 0.4297 0.0
H541 H 0.6962 0.15384 0.44766 0.0
H542 H 0.75214 0.13282 0.42969 0.0
H543 H 0.78129 0.0475 0.44863 0.0
H544 H 0.9724 0.02231 0.40781 0.0
H545 H 0.91534 0.03131 0.43134 0.0
H546 H 0.86935 0.10697 0.41558 0.0
C547 C 0.74132 0.12396 0.44553 0.0
C548 C 0.80068 0.06064 0.44191 0.0
C549 C 0.70918 0.13604 0.4558 0.0
C550 C 0.94929 0.03381 0.39999 0.0
C551 C 0.91684 0.03898 0.41341 0.0
C552 C 0.85042 0.09381 0.42292 0.0
C553 C 0.75891 0.10062 0.4553 0.0
C554 C 0.79362 0.08838 0.44435 0.0
C555 C 0.88776 0.05582 0.40435 0.0
C556 C 0.85667 0.0663 0.41963 0.0
H557 H 0.69922 0.0925 0.50124 0.0
H558 H 0.75606 0.07154 0.48348 0.0
H559 H 0.81551 0.12605 0.43739 0.0
H560 H 0.92427 0.06923 0.35032 0.0
H561 H 0.86814 0.07848 0.37376 0.0
loop_
_geom_bond_atom_site_label_1
_geom_bond_atom_site_label_2
_geom_bond_distance
_geom_bond_site_symmetry_2
_ccdc_geom_bond_type
C0 C1 1.264 . S
C0 C5 1.469 1_456 S
C0 C10 1.465 1_556 S
C1 C0 1.264 . S
C1 C3 1.339 1_455 S
C1 H28 0.931 . S
C2 C3 1.395 . S
C2 C4 1.320 . S
C3 C1 1.339 1_655 S
C3 C2 1.395 . S
C3 H29 0.929 . S
C4 C2 1.320 . S
C4 C5 1.379 1_556 S
C4 H30 0.930 . S
C5 C0 1.469 1_654 S
C5 C4 1.379 1_554 S
C5 H31 0.966 . S
U6 O7 2.454 . S
U6 O8 2.458 . S
U6 C9 2.984 . S
U6 C10 2.847 . S
U6 C23 2.882 . S
U6 O24 2.441 . S
U6 O25 2.420 . S
U6 O26 2.455 . S
U6 O27 2.449 . S
O7 U6 2.454 . S
O7 C9 1.353 . S
O8 U6 2.458 . S
O8 C9 1.286 . S
C9 U6 2.984 . S
C9 O7 1.353 . S
C9 O8 1.286 . S
C9 C11 1.363 . S
C10 C0 1.465 1_554 S
C10 U6 2.847 . S
C10 O24 1.249 . S
C10 O25 1.202 . S
C11 C9 1.363 . S
C11 C13 1.408 . S
C11 C16 1.342 . S
C12 C13 1.310 . S
C12 C15 1.461 . S
C12 H32 0.932 . S
C13 C11 1.408 . S
C13 C12 1.310 . S
C13 H33 0.930 . S
C14 C15 1.474 . S
C14 C16 1.285 . S
C14 H34 0.929 . S
C15 C12 1.461 . S
C15 C14 1.474 . S
C16 C11 1.342 . S
C16 C14 1.285 . S
C16 H35 0.930 . S
C17 C20 1.422 1_554 S
C17 C22 1.246 . S
C17 C23 1.429 . S
C18 C21 1.260 . S
C18 C22 1.477 1_556 S
C18 H36 0.927 1_556 S
C19 C20 1.384 . S
C19 C21 1.479 . S
C19 H37 0.929 . S
C20 C17 1.422 1_556 S
C20 C19 1.384 . S
C20 H38 0.928 . S
C21 C18 1.260 . S
C21 C19 1.479 . S
C22 C17 1.246 . S
C22 C18 1.477 1_554 S
C22 H39 0.932 . S
C23 U6 2.882 . S
C23 C17 1.429 . S
C23 O26 1.301 . S
C23 O27 1.282 . S
O24 U6 2.441 . S
O24 C10 1.249 . S
O25 U6 2.420 . S
O25 C10 1.202 . S
O26 U6 2.455 . S
O26 C23 1.301 . S
O27 U6 2.449 . S
O27 C23 1.282 . S
H28 C1 0.931 . S
H29 C3 0.929 . S
H30 C4 0.930 . S
H31 C5 0.966 . S
H32 C12 0.932 . S
H33 C13 0.930 . S
H34 C14 0.929 . S
H35 C16 0.930 . S
H36 C18 0.927 1_554 S
H37 C19 0.929 . S
H38 C20 0.928 . S
H39 C22 0.932 . S
C40 C41 1.264 . S
C40 C45 1.479 . S
C40 C50 1.465 . S
C41 C40 1.264 . S
C41 C43 1.339 . S
C41 H68 0.931 . S
C42 C43 1.395 . S
C42 C44 1.320 . S
C43 C41 1.339 . S
C43 C42 1.395 . S
C43 H69 0.929 . S
C44 C42 1.320 . S
C44 C45 1.405 . S
C44 H70 0.940 . S
C45 C40 1.479 . S
C45 C44 1.405 . S
C45 H71 0.931 1_556 S
U46 O47 2.455 1_455 S
U46 O48 2.456 . S
U46 C49 2.984 . S
U46 C50 2.850 1_454 S
U46 C63 2.880 1_554 S
U46 O64 2.444 1_455 S
U46 O65 2.422 1_454 S
U46 O66 2.452 . S
U46 O67 2.447 1_554 S
O47 U46 2.455 1_655 S
O47 C49 1.355 1_655 S
O48 U46 2.456 . S
O48 C49 1.285 . S
C49 U46 2.984 . S
C49 O47 1.355 1_455 S
C49 O48 1.285 . S
C49 C51 1.363 . S
C50 C40 1.465 . S
C50 U46 2.850 1_656 S
C50 O64 1.249 1_556 S
C50 O65 1.202 . S
C51 C49 1.363 . S
C51 C53 1.407 1_455 S
C51 C56 1.343 . S
C52 C53 1.310 . S
C52 C55 1.439 1_655 S
C52 H72 0.932 . S
C53 C51 1.407 1_655 S
C53 C52 1.310 . S
C53 H73 0.930 . S
C54 C55 1.493 . S
C54 C56 1.285 . S
C54 H74 0.929 . S
C55 C52 1.439 1_455 S
C55 C54 1.493 . S
C56 C51 1.343 . S
C56 C54 1.285 . S
C56 H75 0.930 . S
C57 C60 1.424 . S
C57 C62 1.245 . S
C57 C63 1.428 . S
C58 C61 1.260 . S
C58 C62 1.477 . S
C58 H76 0.932 . S
C59 C60 1.384 . S
C59 C61 1.479 . S
C59 H77 0.929 . S
C60 C57 1.424 . S
C60 C59 1.384 . S
C60 H78 0.928 . S
C61 C58 1.260 . S
C61 C59 1.479 . S
C62 C57 1.245 . S
C62 C58 1.477 . S
C62 H79 0.932 1_556 S
C63 U46 2.880 1_556 S
C63 C57 1.428 . S
C63 O66 1.301 1_556 S
C63 O67 1.282 . S
O64 U46 2.444 1_655 S
O64 C50 1.249 1_554 S
O65 U46 2.422 1_656 S
O65 C50 1.202 . S
O66 U46 2.452 . S
O66 C63 1.301 1_554 S
O67 U46 2.447 1_556 S
O67 C63 1.282 . S
H68 C41 0.931 . S
H69 C43 0.929 . S
H70 C44 0.940 . S
H71 C45 0.931 1_554 S
H72 C52 0.932 . S
H73 C53 0.930 . S
H74 C54 0.929 . S
H75 C56 0.930 . S
H76 C58 0.932 . S
H77 C59 0.929 . S
H78 C60 0.928 . S
H79 C62 0.932 1_554 S
C80 C81 1.264 . S
C80 C85 1.479 . S
C80 C90 1.465 . S
C81 C80 1.264 . S
C81 C83 1.339 . S
C81 H108 0.931 . S
C82 C83 1.395 . S
C82 C84 1.320 . S
C83 C81 1.339 . S
C83 C82 1.395 . S
C83 H109 0.929 . S
C84 C82 1.320 . S
C84 C85 1.405 . S
C84 H110 0.930 . S
C85 C80 1.479 . S
C85 C84 1.405 . S
C85 H111 0.931 . S
U86 O87 2.454 . S
U86 O88 2.458 . S
U86 C89 2.984 . S
U86 C90 2.847 . S
U86 C103 2.882 . S
U86 O104 2.441 . S
U86 O105 2.420 . S
U86 O106 2.455 . S
U86 O107 2.449 . S
O87 U86 2.454 . S
O87 C89 1.353 . S
O88 U86 2.458 . S
O88 C89 1.286 . S
C89 U86 2.984 . S
C89 O87 1.353 . S
C89 O88 1.286 . S
C89 C91 1.363 . S
C90 C80 1.465 . S
C90 U86 2.847 . S
C90 O104 1.249 . S
C90 O105 1.202 . S
C91 C89 1.363 . S
C91 C93 1.408 . S
C91 C96 1.342 . S
C92 C93 1.310 . S
C92 C95 1.461 . S
C92 H112 0.932 . S
C93 C91 1.408 . S
C93 C92 1.310 . S
C93 H113 0.930 . S
C94 C95 1.474 . S
C94 C96 1.285 . S
C94 H114 0.929 . S
C95 C92 1.461 . S
C95 C94 1.474 . S
C96 C91 1.342 . S
C96 C94 1.285 . S
C96 H115 0.930 . S
C97 C100 1.424 . S
C97 C102 1.245 . S
C97 C103 1.428 . S
C98 C101 1.260 . S
C98 C102 1.477 . S
C98 H116 0.932 . S
C99 C100 1.384 . S
C99 C101 1.479 . S
C99 H117 0.929 . S
C100 C97 1.424 . S
C100 C99 1.384 . S
C100 H118 0.928 . S
C101 C98 1.260 . S
C101 C99 1.479 . S
C102 C97 1.245 . S
C102 C98 1.477 . S
C102 H119 0.932 . S
C103 U86 2.882 . S
C103 C97 1.428 . S
C103 O106 1.301 . S
C103 O107 1.282 . S
O104 U86 2.441 . S
O104 C90 1.249 . S
O105 U86 2.420 . S
O105 C90 1.202 . S
O106 U86 2.455 . S
O106 C103 1.301 . S
O107 U86 2.449 . S
O107 C103 1.282 . S
H108 C81 0.931 . S
H109 C83 0.929 . S
H110 C84 0.930 . S
H111 C85 0.931 . S
H112 C92 0.932 . S
H113 C93 0.930 . S
H114 C94 0.929 . S
H115 C96 0.930 . S
H116 C98 0.932 . S
H117 C99 0.929 . S
H118 C100 0.928 . S
H119 C102 0.932 . S
C120 C121 1.264 . S
C120 C125 1.479 . S
C120 C130 1.465 . S
C121 C120 1.264 . S
C121 C123 1.339 . S
C121 H148 0.931 . S
C122 C123 1.395 . S
C122 C124 1.320 . S
C123 C121 1.339 . S
C123 C122 1.395 . S
C123 H149 0.929 . S
C124 C122 1.320 . S
C124 C125 1.405 . S
C124 H150 0.930 . S
C125 C120 1.479 . S
C125 C124 1.405 . S
C125 H151 0.931 . S
U126 O127 2.454 . S
U126 O128 2.458 . S
U126 C129 2.984 . S
U126 C130 2.847 . S
U126 C143 2.882 . S
U126 O144 2.441 . S
U126 O145 2.420 . S
U126 O146 2.455 . S
U126 O147 2.449 . S
O127 U126 2.454 . S
O127 C129 1.353 . S
O128 U126 2.458 . S
O128 C129 1.286 . S
C129 U126 2.984 . S
C129 O127 1.353 . S
C129 O128 1.286 . S
C129 C131 1.363 . S
C130 C120 1.465 . S
C130 U126 2.847 . S
C130 O144 1.249 . S
C130 O145 1.202 . S
C131 C129 1.363 . S
C131 C133 1.408 . S
C131 C136 1.342 . S
C132 C133 1.310 . S
C132 C135 1.461 . S
C132 H152 0.932 . S
C133 C131 1.408 . S
C133 C132 1.310 . S
C133 H153 0.930 . S
C134 C135 1.474 . S
C134 C136 1.285 . S
C134 H154 0.929 . S
C135 C132 1.461 . S
C135 C134 1.474 . S
C136 C131 1.342 . S
C136 C134 1.285 . S
C136 H155 0.930 . S
C137 C140 1.424 . S
C137 C142 1.245 . S
C137 C143 1.428 . S
C138 C141 1.260 . S
C138 C142 1.477 . S
C138 H156 0.932 . S
C139 C140 1.384 . S
C139 C141 1.479 . S
C139 H157 0.929 . S
C140 C137 1.424 . S
C140 C139 1.384 . S
C140 H158 0.928 . S
C141 C138 1.260 . S
C141 C139 1.479 . S
C142 C137 1.245 . S
C142 C138 1.477 . S
C142 H159 0.932 . S
C143 U126 2.882 . S
C143 C137 1.428 . S
C143 O146 1.301 . S
C143 O147 1.282 . S
O144 U126 2.441 . S
O144 C130 1.249 . S
O145 U126 2.420 . S
O145 C130 1.202 . S
O146 U126 2.455 . S
O146 C143 1.301 . S
O147 U126 2.449 . S
O147 C143 1.282 . S
H148 C121 0.931 . S
H149 C123 0.929 . S
H150 C124 0.930 . S
H151 C125 0.931 . S
H152 C132 0.932 . S
H153 C133 0.930 . S
H154 C134 0.929 . S
H155 C136 0.930 . S
H156 C138 0.932 . S
H157 C139 0.929 . S
H158 C140 0.928 . S
H159 C142 0.932 . S
Zn160 O166 1.920 . S
Zn160 O172 1.898 . S
Zn160 O175 1.905 . S
Zn161 O169 1.905 . S
Zn161 O170 1.898 . S
Zn161 O178 1.920 . S
Zn162 O165 2.080 . S
Zn162 O168 2.114 1_545 S
Zn162 O171 2.120 1_545 S
Zn162 O173 2.120 . S
Zn162 O174 2.114 . S
Zn162 O177 2.080 1_545 S
C163 O168 1.166 . S
C163 O169 1.182 . S
C164 O170 1.167 . S
C164 O171 1.299 . S
O165 Zn162 2.080 . S
O165 C179 1.305 . S
O166 Zn160 1.920 . S
O166 C179 1.234 . S
C167 O172 1.167 . S
C167 O173 1.299 . S
O168 Zn162 2.114 1_565 S
O168 C163 1.166 . S
O169 Zn161 1.905 . S
O169 C163 1.182 . S
O170 Zn161 1.898 . S
O170 C164 1.167 . S
O171 Zn162 2.120 1_565 S
O171 C164 1.299 . S
O172 Zn160 1.898 . S
O172 C167 1.167 . S
O173 Zn162 2.120 . S
O173 C167 1.299 . S
O174 Zn162 2.114 . S
O174 C176 1.166 . S
O175 Zn160 1.905 . S
O175 C176 1.182 . S
C176 O174 1.166 . S
C176 O175 1.182 . S
O177 Zn162 2.080 1_565 S
O177 C180 1.305 . S
O178 Zn161 1.920 . S
O178 C180 1.234 . S
C179 O165 1.305 . S
C179 O166 1.234 . S
C180 O177 1.305 . S
C180 O178 1.234 . S
Zn181 O187 1.920 . S
Zn181 O193 1.898 . S
Zn181 O196 1.905 . S
Zn182 O190 1.905 . S
Zn182 O191 1.898 . S
Zn182 O199 1.920 . S
Zn183 O186 2.080 . S
Zn183 O189 2.114 . S
Zn183 O192 2.120 . S
Zn183 O194 2.120 . S
Zn183 O195 2.114 . S
Zn183 O198 2.080 . S
C184 O189 1.166 . S
C184 O190 1.182 . S
C185 O191 1.167 . S
C185 O192 1.299 . S
O186 Zn183 2.080 . S
O186 C200 1.305 . S
O187 Zn181 1.920 . S
O187 C200 1.234 . S
C188 O193 1.167 . S
C188 O194 1.299 . S
O189 Zn183 2.114 . S
O189 C184 1.166 . S
O190 Zn182 1.905 . S
O190 C184 1.182 . S
O191 Zn182 1.898 . S
O191 C185 1.167 . S
O192 Zn183 2.120 . S
O192 C185 1.299 . S
O193 Zn181 1.898 . S
O193 C188 1.167 . S
O194 Zn183 2.120 . S
O194 C188 1.299 . S
O195 Zn183 2.114 . S
O195 C197 1.166 . S
O196 Zn181 1.905 . S
O196 C197 1.182 . S
C197 O195 1.166 . S
C197 O196 1.182 . S
O198 Zn183 2.080 . S
O198 C201 1.305 . S
O199 Zn182 1.920 . S
O199 C201 1.234 . S
C200 O186 1.305 . S
C200 O187 1.234 . S
C201 O198 1.305 . S
C201 O199 1.234 . S
C202 C203 1.349 . S
C202 C204 1.327 . S
C202 H227 0.950 . S
C203 C202 1.349 . S
C203 C219 1.349 . S
C204 C202 1.327 . S
C204 C223 1.429 . S
C204 H228 0.950 . S
C205 C222 1.574 . S
C205 C224 1.368 . S
C205 H229 0.949 . S
H206 C210 0.949 . S
C207 C208 1.349 . S
C207 C209 1.327 . S
C207 H230 0.950 . S
C208 C207 1.349 . S
C208 C220 1.349 . S
C209 C207 1.327 . S
C209 C225 1.429 . S
C209 H231 0.950 . S
C210 H206 0.949 . S
C210 C218 1.574 . S
C210 C226 1.368 . S
H211 C219 0.950 . S
H212 C217 0.950 . S
H213 C218 0.949 . S
H214 C220 0.950 . S
H215 C221 0.950 . S
H216 C222 0.949 . S
C217 H212 0.950 . S
C217 C219 1.327 . S
C217 C223 1.429 . S
C218 C210 1.574 . S
C218 H213 0.949 . S
C218 C224 1.368 . S
C219 C203 1.349 . S
C219 H211 0.950 . S
C219 C217 1.327 . S
C220 C208 1.349 . S
C220 H214 0.950 . S
C220 C221 1.327 . S
C221 H215 0.950 . S
C221 C220 1.327 . S
C221 C225 1.429 . S
C222 C205 1.574 . S
C222 H216 0.949 . S
C222 C226 1.368 . S
C223 C204 1.429 . S
C223 C217 1.429 . S
C223 C224 1.523 . S
C224 C205 1.368 . S
C224 C218 1.368 . S
C224 C223 1.523 . S
C225 C209 1.429 . S
C225 C221 1.429 . S
C225 C226 1.523 . S
C226 C210 1.368 . S
C226 C222 1.368 . S
C226 C225 1.523 . S
H227 C202 0.950 . S
H228 C204 0.950 . S
H229 C205 0.949 . S
H230 C207 0.950 . S
H231 C209 0.950 . S
C232 C233 1.349 1_655 S
C232 C234 1.327 . S
C232 H257 0.950 . S
C233 C232 1.349 1_455 S
C233 C249 1.349 . S
C234 C232 1.327 . S
C234 C253 1.429 1_655 S
C234 H258 0.950 . S
C235 C252 1.574 . S
C235 C254 1.368 . S
C235 H259 0.949 . S
H236 C240 0.946 1_655 S
C237 C238 1.349 . S
C237 C239 1.327 . S
C237 H260 0.950 . S
C238 C237 1.349 . S
C238 C250 1.349 . S
C239 C237 1.327 . S
C239 C255 1.429 . S
C239 H261 0.950 . S
C240 H236 0.946 1_455 S
C240 C248 1.574 . S
C240 C256 1.368 . S
H241 C249 0.950 . S
H242 C247 0.950 . S
H243 C248 0.949 1_655 S
H244 C250 0.950 . S
H245 C251 0.950 . S
H246 C252 0.949 . S
C247 H242 0.950 . S
C247 C249 1.327 . S
C247 C253 1.429 . S
C248 C240 1.574 . S
C248 H243 0.949 1_455 S
C248 C254 1.368 . S
C249 C233 1.349 . S
C249 H241 0.950 . S
C249 C247 1.327 . S
C250 C238 1.349 . S
C250 H244 0.950 . S
C250 C251 1.327 . S
C251 H245 0.950 . S
C251 C250 1.327 . S
C251 C255 1.429 . S
C252 C235 1.574 . S
C252 H246 0.949 . S
C252 C256 1.368 . S
C253 C234 1.429 1_455 S
C253 C247 1.429 . S
C253 C254 1.523 . S
C254 C235 1.368 . S
C254 C248 1.368 . S
C254 C253 1.523 . S
C255 C239 1.429 . S
C255 C251 1.429 . S
C255 C256 1.523 . S
C256 C240 1.368 . S
C256 C252 1.368 . S
C256 C255 1.523 . S
H257 C232 0.950 . S
H258 C234 0.950 . S
H259 C235 0.949 . S
H260 C237 0.950 . S
H261 C239 0.950 . S
C262 C263 1.349 . S
C262 C264 1.327 . S
C262 H287 0.950 . S
C263 C262 1.349 . S
C263 C279 1.349 . S
C264 C262 1.327 . S
C264 C283 1.429 . S
C264 H288 0.950 . S
C265 C282 1.574 . S
C265 C284 1.368 . S
C265 H289 0.949 . S
H266 C270 0.949 . S
C267 C268 1.349 . S
C267 C269 1.327 . S
C267 H290 0.950 . S
C268 C267 1.349 . S
C268 C280 1.349 . S
C269 C267 1.327 . S
C269 C285 1.429 . S
C269 H291 0.950 . S
C270 H266 0.949 . S
C270 C278 1.574 . S
C270 C286 1.368 . S
H271 C279 0.950 . S
H272 C277 0.950 . S
H273 C278 0.949 . S
H274 C280 0.950 . S
H275 C281 0.950 . S
H276 C282 0.949 . S
C277 H272 0.950 . S
C277 C279 1.327 . S
C277 C283 1.429 . S
C278 C270 1.574 . S
C278 H273 0.949 . S
C278 C284 1.368 . S
C279 C263 1.349 . S
C279 H271 0.950 . S
C279 C277 1.327 . S
C280 C268 1.349 . S
C280 H274 0.950 . S
C280 C281 1.327 . S
C281 H275 0.950 . S
C281 C280 1.327 . S
C281 C285 1.429 . S
C282 C265 1.574 . S
C282 H276 0.949 . S
C282 C286 1.368 . S
C283 C264 1.429 . S
C283 C277 1.429 . S
C283 C284 1.523 . S
C284 C265 1.368 . S
C284 C278 1.368 . S
C284 C283 1.523 . S
C285 C269 1.429 . S
C285 C281 1.429 . S
C285 C286 1.523 . S
C286 C270 1.368 . S
C286 C282 1.368 . S
C286 C285 1.523 . S
H287 C262 0.950 . S
H288 C264 0.950 . S
H289 C265 0.949 . S
H290 C267 0.950 . S
H291 C269 0.950 . S
C292 C293 1.349 . S
C292 C294 1.327 . S
C292 H317 0.950 . S
C293 C292 1.349 . S
C293 C309 1.349 . S
C294 C292 1.327 . S
C294 C313 1.429 . S
C294 H318 0.950 . S
C295 C312 1.574 . S
C295 C314 1.368 . S
C295 H319 0.949 . S
H296 C300 0.949 . S
C297 C298 1.349 . S
C297 C299 1.327 . S
C297 H320 0.950 . S
C298 C297 1.349 . S
C298 C310 1.349 . S
C299 C297 1.327 . S
C299 C315 1.429 . S
C299 H321 0.950 . S
C300 H296 0.949 . S
C300 C308 1.574 . S
C300 C316 1.368 . S
H301 C309 0.950 . S
H302 C307 0.950 . S
H303 C308 0.949 . S
H304 C310 0.950 . S
H305 C311 0.950 . S
H306 C312 0.949 . S
C307 H302 0.950 . S
C307 C309 1.327 . S
C307 C313 1.429 . S
C308 C300 1.574 . S
C308 H303 0.949 . S
C308 C314 1.368 . S
C309 C293 1.349 . S
C309 H301 0.950 . S
C309 C307 1.327 . S
C310 C298 1.349 . S
C310 H304 0.950 . S
C310 C311 1.327 . S
C311 H305 0.950 . S
C311 C310 1.327 . S
C311 C315 1.429 . S
C312 C295 1.574 . S
C312 H306 0.949 . S
C312 C316 1.368 . S
C313 C294 1.429 . S
C313 C307 1.429 . S
C313 C314 1.523 . S
C314 C295 1.368 . S
C314 C308 1.368 . S
C314 C313 1.523 . S
C315 C299 1.429 . S
C315 C311 1.429 . S
C315 C316 1.523 . S
C316 C300 1.368 . S
C316 C312 1.368 . S
C316 C315 1.523 . S
H317 C292 0.950 . S
H318 C294 0.950 . S
H319 C295 0.949 . S
H320 C297 0.950 . S
H321 C299 0.950 . S
C322 C323 1.349 . S
C322 C324 1.327 . S
C322 H347 0.950 . S
C323 C322 1.349 . S
C323 C339 1.349 . S
C324 C322 1.327 . S
C324 C343 1.429 . S
C324 H348 0.950 . S
C325 C342 1.574 . S
C325 C344 1.368 . S
C325 H349 0.949 . S
H326 C330 0.949 . S
C327 C328 1.349 . S
C327 C329 1.327 . S
C327 H350 0.950 . S
C328 C327 1.349 . S
C328 C340 1.349 . S
C329 C327 1.327 . S
C329 C345 1.429 . S
C329 H351 0.950 . S
C330 H326 0.949 . S
C330 C338 1.574 . S
C330 C346 1.368 . S
H331 C339 0.950 . S
H332 C337 0.950 . S
H333 C338 0.949 . S
H334 C340 0.950 . S
H335 C341 0.950 . S
H336 C342 0.949 . S
C337 H332 0.950 . S
C337 C339 1.327 . S
C337 C343 1.429 . S
C338 C330 1.574 . S
C338 H333 0.949 . S
C338 C344 1.368 . S
C339 C323 1.349 . S
C339 H331 0.950 . S
C339 C337 1.327 . S
C340 C328 1.349 . S
C340 H334 0.950 . S
C340 C341 1.327 . S
C341 H335 0.950 . S
C341 C340 1.327 . S
C341 C345 1.429 . S
C342 C325 1.574 . S
C342 H336 0.949 . S
C342 C346 1.368 . S
C343 C324 1.429 . S
C343 C337 1.429 . S
C343 C344 1.523 . S
C344 C325 1.368 . S
C344 C338 1.368 . S
C344 C343 1.523 . S
C345 C329 1.429 . S
C345 C341 1.429 . S
C345 C346 1.523 . S
C346 C330 1.368 . S
C346 C342 1.368 . S
C346 C345 1.523 . S
H347 C322 0.950 . S
H348 C324 0.950 . S
H349 C325 0.949 . S
H350 C327 0.950 . S
H351 C329 0.950 . S
C352 C353 1.349 . S
C352 C354 1.327 . S
C352 H377 0.950 . S
C353 C352 1.349 . S
C353 C369 1.349 . S
C354 C352 1.327 . S
C354 C373 1.429 . S
C354 H378 0.950 . S
C355 C372 1.574 . S
C355 C374 1.368 . S
C355 H379 0.949 . S
H356 C360 0.949 . S
C357 C358 1.349 . S
C357 C359 1.327 . S
C357 H380 0.950 . S
C358 C357 1.349 . S
C358 C370 1.349 . S
C359 C357 1.327 . S
C359 C375 1.429 . S
C359 H381 0.950 . S
C360 H356 0.949 . S
C360 C368 1.574 . S
C360 C376 1.368 . S
H361 C369 0.950 . S
H362 C367 0.950 . S
H363 C368 0.949 . S
H364 C370 0.950 . S
H365 C371 0.950 . S
H366 C372 0.949 . S
C367 H362 0.950 . S
C367 C369 1.327 . S
C367 C373 1.429 . S
C368 C360 1.574 . S
C368 H363 0.949 . S
C368 C374 1.368 . S
C369 C353 1.349 . S
C369 H361 0.950 . S
C369 C367 1.327 . S
C370 C358 1.349 . S
C370 H364 0.950 . S
C370 C371 1.327 . S
C371 H365 0.950 . S
C371 C370 1.327 . S
C371 C375 1.429 . S
C372 C355 1.574 . S
C372 H366 0.949 . S
C372 C376 1.368 . S
C373 C354 1.429 . S
C373 C367 1.429 . S
C373 C374 1.523 . S
C374 C355 1.368 . S
C374 C368 1.368 . S
C374 C373 1.523 . S
C375 C359 1.429 . S
C375 C371 1.429 . S
C375 C376 1.523 . S
C376 C360 1.368 . S
C376 C372 1.368 . S
C376 C375 1.523 . S
H377 C352 0.950 . S
H378 C354 0.950 . S
H379 C355 0.949 . S
H380 C357 0.950 . S
H381 C359 0.950 . S
C382 C383 1.349 . S
C382 C384 1.327 . S
C382 H407 0.950 . S
C383 C382 1.349 . S
C383 C399 1.349 . S
C384 C382 1.327 . S
C384 C403 1.429 . S
C384 H408 0.950 . S
C385 C402 1.574 . S
C385 C404 1.368 . S
C385 H409 0.949 . S
H386 C390 0.949 . S
C387 C388 1.349 . S
C387 C389 1.327 . S
C387 H410 0.950 . S
C388 C387 1.349 . S
C388 C400 1.349 . S
C389 C387 1.327 . S
C389 C405 1.429 . S
C389 H411 0.950 . S
C390 H386 0.949 . S
C390 C398 1.574 . S
C390 C406 1.368 . S
H391 C399 0.950 . S
H392 C397 0.950 . S
H393 C398 0.949 . S
H394 C400 0.950 . S
H395 C401 0.950 . S
H396 C402 0.949 . S
C397 H392 0.950 . S
C397 C399 1.327 . S
C397 C403 1.429 . S
C398 C390 1.574 . S
C398 H393 0.949 . S
C398 C404 1.368 . S
C399 C383 1.349 . S
C399 H391 0.950 . S
C399 C397 1.327 . S
C400 C388 1.349 . S
C400 H394 0.950 . S
C400 C401 1.327 . S
C401 H395 0.950 . S
C401 C400 1.327 . S
C401 C405 1.429 . S
C402 C385 1.574 . S
C402 H396 0.949 . S
C402 C406 1.368 . S
C403 C384 1.429 . S
C403 C397 1.429 . S
C403 C404 1.523 . S
C404 C385 1.368 . S
C404 C398 1.368 . S
C404 C403 1.523 . S
C405 C389 1.429 . S
C405 C401 1.429 . S
C405 C406 1.523 . S
C406 C390 1.368 . S
C406 C402 1.368 . S
C406 C405 1.523 . S
H407 C382 0.950 . S
H408 C384 0.950 . S
H409 C385 0.949 . S
H410 C387 0.950 . S
H411 C389 0.950 . S
C412 C413 1.349 . S
C412 C414 1.327 . S
C412 H437 0.950 . S
C413 C412 1.349 . S
C413 C429 1.349 . S
C414 C412 1.327 . S
C414 C433 1.429 . S
C414 H438 0.950 . S
C415 C432 1.574 . S
C415 C434 1.368 . S
C415 H439 0.949 . S
H416 C420 0.949 . S
C417 C418 1.349 . S
C417 C419 1.327 . S
C417 H440 0.950 . S
C418 C417 1.349 . S
C418 C430 1.349 . S
C419 C417 1.327 . S
C419 C435 1.429 . S
C419 H441 0.950 . S
C420 H416 0.949 . S
C420 C428 1.574 . S
C420 C436 1.368 . S
H421 C429 0.950 . S
H422 C427 0.950 . S
H423 C428 0.949 . S
H424 C430 0.950 . S
H425 C431 0.950 . S
H426 C432 0.949 . S
C427 H422 0.950 . S
C427 C429 1.327 . S
C427 C433 1.429 . S
C428 C420 1.574 . S
C428 H423 0.949 . S
C428 C434 1.368 . S
C429 C413 1.349 . S
C429 H421 0.950 . S
C429 C427 1.327 . S
C430 C418 1.349 . S
C430 H424 0.950 . S
C430 C431 1.327 . S
C431 H425 0.950 . S
C431 C430 1.327 . S
C431 C435 1.429 . S
C432 C415 1.574 . S
C432 H426 0.949 . S
C432 C436 1.368 . S
C433 C414 1.429 . S
C433 C427 1.429 . S
C433 C434 1.523 . S
C434 C415 1.368 . S
C434 C428 1.368 . S
C434 C433 1.523 . S
C435 C419 1.429 . S
C435 C431 1.429 . S
C435 C436 1.523 . S
C436 C420 1.368 . S
C436 C432 1.368 . S
C436 C435 1.523 . S
H437 C412 0.950 . S
H438 C414 0.950 . S
H439 C415 0.949 . S
H440 C417 0.950 . S
H441 C419 0.950 . S
C442 C443 1.349 . S
C442 C444 1.327 . S
C442 H467 0.950 . S
C443 C442 1.349 . S
C443 C459 1.349 . S
C444 C442 1.327 . S
C444 C463 1.429 . S
C444 H468 0.950 . S
C445 C462 1.574 . S
C445 C464 1.368 . S
C445 H469 0.949 . S
H446 C450 0.949 . S
C447 C448 1.349 . S
C447 C449 1.327 1_455 S
C447 H470 0.950 . S
C448 C447 1.349 . S
C448 C460 1.349 1_455 S
C449 C447 1.327 1_655 S
C449 C465 1.429 . S
C449 H471 0.944 1_655 S
C450 H446 0.949 . S
C450 C458 1.574 . S
C450 C466 1.368 . S
H451 C459 0.950 . S
H452 C457 0.950 . S
H453 C458 0.949 . S
H454 C460 0.950 . S
H455 C461 0.950 . S
H456 C462 0.949 . S
C457 H452 0.950 . S
C457 C459 1.327 . S
C457 C463 1.429 . S
C458 C450 1.574 . S
C458 H453 0.949 . S
C458 C464 1.368 . S
C459 C443 1.349 . S
C459 H451 0.950 . S
C459 C457 1.327 . S
C460 C448 1.349 1_655 S
C460 H454 0.950 . S
C460 C461 1.327 . S
C461 H455 0.950 . S
C461 C460 1.327 . S
C461 C465 1.429 . S
C462 C445 1.574 . S
C462 H456 0.949 . S
C462 C466 1.368 . S
C463 C444 1.429 . S
C463 C457 1.429 . S
C463 C464 1.523 . S
C464 C445 1.368 . S
C464 C458 1.368 . S
C464 C463 1.523 . S
C465 C449 1.429 . S
C465 C461 1.429 . S
C465 C466 1.523 . S
C466 C450 1.368 . S
C466 C462 1.368 . S
C466 C465 1.523 . S
H467 C442 0.950 . S
H468 C444 0.950 . S
H469 C445 0.949 . S
H470 C447 0.950 . S
H471 C449 0.944 1_455 S
C472 C473 1.349 . S
C472 C474 1.327 . S
C472 H497 0.950 . S
C473 C472 1.349 . S
C473 C489 1.349 . S
C474 C472 1.327 . S
C474 C493 1.429 . S
C474 H498 0.950 . S
C475 C492 1.574 . S
C475 C494 1.368 . S
C475 H499 0.949 . S
H476 C480 0.949 . S
C477 C478 1.349 . S
C477 C479 1.327 . S
C477 H500 0.950 . S
C478 C477 1.349 . S
C478 C490 1.349 . S
C479 C477 1.327 . S
C479 C495 1.429 . S
C479 H501 0.950 . S
C480 H476 0.949 . S
C480 C488 1.574 . S
C480 C496 1.368 . S
H481 C489 0.950 . S
H482 C487 0.950 . S
H483 C488 0.949 . S
H484 C490 0.950 . S
H485 C491 0.950 . S
H486 C492 0.949 . S
C487 H482 0.950 . S
C487 C489 1.327 . S
C487 C493 1.429 . S
C488 C480 1.574 . S
C488 H483 0.949 . S
C488 C494 1.368 . S
C489 C473 1.349 . S
C489 H481 0.950 . S
C489 C487 1.327 . S
C490 C478 1.349 . S
C490 H484 0.950 . S
C490 C491 1.327 . S
C491 H485 0.950 . S
C491 C490 1.327 . S
C491 C495 1.429 . S
C492 C475 1.574 . S
C492 H486 0.949 . S
C492 C496 1.368 . S
C493 C474 1.429 . S
C493 C487 1.429 . S
C493 C494 1.523 . S
C494 C475 1.368 . S
C494 C488 1.368 . S
C494 C493 1.523 . S
C495 C479 1.429 . S
C495 C491 1.429 . S
C495 C496 1.523 . S
C496 C480 1.368 . S
C496 C492 1.368 . S
C496 C495 1.523 . S
H497 C472 0.950 . S
H498 C474 0.950 . S
H499 C475 0.949 . S
H500 C477 0.950 . S
H501 C479 0.950 . S
C502 C503 1.349 . S
C502 C504 1.327 . S
C502 H527 0.950 . S
C503 C502 1.349 . S
C503 C519 1.349 . S
C504 C502 1.327 . S
C504 C523 1.429 . S
C504 H528 0.950 . S
C505 C522 1.574 . S
C505 C524 1.368 . S
C505 H529 0.949 . S
H506 C510 0.949 . S
C507 C508 1.349 . S
C507 C509 1.327 . S
C507 H530 0.950 . S
C508 C507 1.349 . S
C508 C520 1.349 . S
C509 C507 1.327 . S
C509 C525 1.429 . S
C509 H531 0.950 . S
C510 H506 0.949 . S
C510 C518 1.574 . S
C510 C526 1.368 . S
H511 C519 0.950 . S
H512 C517 0.950 . S
H513 C518 0.949 . S
H514 C520 0.950 . S
H515 C521 0.950 . S
H516 C522 0.949 . S
C517 H512 0.950 . S
C517 C519 1.327 . S
C517 C523 1.429 . S
C518 C510 1.574 . S
C518 H513 0.949 . S
C518 C524 1.368 . S
C519 C503 1.349 . S
C519 H511 0.950 . S
C519 C517 1.327 . S
C520 C508 1.349 . S
C520 H514 0.950 . S
C520 C521 1.327 . S
C521 H515 0.950 . S
C521 C520 1.327 . S
C521 C525 1.429 . S
C522 C505 1.574 . S
C522 H516 0.949 . S
C522 C526 1.368 . S
C523 C504 1.429 . S
C523 C517 1.429 . S
C523 C524 1.523 . S
C524 C505 1.368 . S
C524 C518 1.368 . S
C524 C523 1.523 . S
C525 C509 1.429 . S
C525 C521 1.429 . S
C525 C526 1.523 . S
C526 C510 1.368 . S
C526 C522 1.368 . S
C526 C525 1.523 . S
H527 C502 0.950 . S
H528 C504 0.950 . S
H529 C505 0.949 . S
H530 C507 0.950 . S
H531 C509 0.950 . S
C532 C533 1.349 . S
C532 C534 1.327 . S
C532 H557 0.950 . S
C533 C532 1.349 . S
C533 C549 1.349 . S
C534 C532 1.327 . S
C534 C553 1.429 . S
C534 H558 0.950 . S
C535 C552 1.574 . S
C535 C554 1.368 . S
C535 H559 0.949 . S
H536 C540 0.949 . S
C537 C538 1.349 . S
C537 C539 1.327 . S
C537 H560 0.950 . S
C538 C537 1.349 . S
C538 C550 1.349 . S
C539 C537 1.327 . S
C539 C555 1.429 . S
C539 H561 0.950 . S
C540 H536 0.949 . S
C540 C548 1.574 . S
C540 C556 1.368 . S
H541 C549 0.950 . S
H542 C547 0.950 . S
H543 C548 0.949 . S
H544 C550 0.950 . S
H545 C551 0.950 . S
H546 C552 0.949 . S
C547 H542 0.950 . S
C547 C549 1.327 . S
C547 C553 1.429 . S
C548 C540 1.574 . S
C548 H543 0.949 . S
C548 C554 1.368 . S
C549 C533 1.349 . S
C549 H541 0.950 . S
C549 C547 1.327 . S
C550 C538 1.349 . S
C550 H544 0.950 . S
C550 C551 1.327 . S
C551 H545 0.950 . S
C551 C550 1.327 . S
C551 C555 1.429 . S
C552 C535 1.574 . S
C552 H546 0.949 . S
C552 C556 1.368 . S
C553 C534 1.429 . S
C553 C547 1.429 . S
C553 C554 1.523 . S
C554 C535 1.368 . S
C554 C548 1.368 . S
C554 C553 1.523 . S
C555 C539 1.429 . S
C555 C551 1.429 . S
C555 C556 1.523 . S
C556 C540 1.368 . S
C556 C552 1.368 . S
C556 C555 1.523 . S
H557 C532 0.950 . S
H558 C534 0.950 . S
H559 C535 0.949 . S
H560 C537 0.950 . S
H561 C539 0.950 . S
C208 C167 1.439 . S
C203 C15 1.534 . S
C238 C163 1.436 . S
C233 C55 1.533 . S
C268 C188 1.439 . S
C263 C95 1.534 . S
C293 C135 1.529 . S
C298 C184 1.436 . S
C323 C21 1.068 . S
C328 C185 0.984 . S
C358 C200 0.999 . S
C353 C42 1.122 . S
C383 C2 1.726 . S
C388 C201 1.611 . S
C418 C197 1.640 . S
C413 C61 1.779 . S
C448 C164 0.984 . S
C443 C101 1.068 . S
C473 C122 1.122 . S
C478 C179 0.999 . S
C508 C180 1.611 . S
C503 C82 1.726 . S
C538 C176 1.640 1_655 S
C533 C141 1.779 . S
