# Generated by pormake.
# Topology llj, (12,3)-cn, num edge types: 1
# Building blocks:
#     Node 0, Type 0, BuildingBlock: QEWDON_clean_sbu_0, # of connection points: 12
#     Node 1, Type 0, BuildingBlock: QEWDON_clean_sbu_0, # of connection points: 12
#     Node 2, Type 1, BuildingBlock: OLANEW_clean_sbu_2, # of connection points: 3
#     Node 3, Type 1, BuildingBlock: OLANEW_clean_sbu_2, # of connection points: 3
#     Node 4, Type 1, BuildingBlock: OLANEW_clean_sbu_2, # of connection points: 3
#     Node 5, Type 1, BuildingBlock: OLANEW_clean_sbu_2, # of connection points: 3
#     Node 6, Type 1, BuildingBlock: OLANEW_clean_sbu_2, # of connection points: 3
#     Node 7, Type 1, BuildingBlock: OLANEW_clean_sbu_2, # of connection points: 3
#     Node 8, Type 1, BuildingBlock: OLANEW_clean_sbu_2, # of connection points: 3
#     Node 9, Type 1, BuildingBlock: OLANEW_clean_sbu_2, # of connection points: 3
#     Edge 10, Type (0, 1), BuildingBlock: OJICUG_clean_linker_0, # of connection points: 2
#     Edge 11, Type (0, 1), BuildingBlock: OJICUG_clean_linker_0, # of connection points: 2
#     Edge 12, Type (0, 1), BuildingBlock: OJICUG_clean_linker_0, # of connection points: 2
#     Edge 13, Type (0, 1), BuildingBlock: OJICUG_clean_linker_0, # of connection points: 2
#     Edge 14, Type (0, 1), BuildingBlock: OJICUG_clean_linker_0, # of connection points: 2
#     Edge 15, Type (0, 1), BuildingBlock: OJICUG_clean_linker_0, # of connection points: 2
#     Edge 16, Type (0, 1), BuildingBlock: OJICUG_clean_linker_0, # of connection points: 2
#     Edge 17, Type (0, 1), BuildingBlock: OJICUG_clean_linker_0, # of connection points: 2
#     Edge 18, Type (0, 1), BuildingBlock: OJICUG_clean_linker_0, # of connection points: 2
#     Edge 19, Type (0, 1), BuildingBlock: OJICUG_clean_linker_0, # of connection points: 2
#     Edge 20, Type (0, 1), BuildingBlock: OJICUG_clean_linker_0, # of connection points: 2
#     Edge 21, Type (0, 1), BuildingBlock: OJICUG_clean_linker_0, # of connection points: 2
#     Edge 22, Type (0, 1), BuildingBlock: OJICUG_clean_linker_0, # of connection points: 2
#     Edge 23, Type (0, 1), BuildingBlock: OJICUG_clean_linker_0, # of connection points: 2
#     Edge 24, Type (0, 1), BuildingBlock: OJICUG_clean_linker_0, # of connection points: 2
#     Edge 25, Type (0, 1), BuildingBlock: OJICUG_clean_linker_0, # of connection points: 2
#     Edge 26, Type (0, 1), BuildingBlock: OJICUG_clean_linker_0, # of connection points: 2
#     Edge 27, Type (0, 1), BuildingBlock: OJICUG_clean_linker_0, # of connection points: 2
#     Edge 28, Type (0, 1), BuildingBlock: OJICUG_clean_linker_0, # of connection points: 2
#     Edge 29, Type (0, 1), BuildingBlock: OJICUG_clean_linker_0, # of connection points: 2
#     Edge 30, Type (0, 1), BuildingBlock: OJICUG_clean_linker_0, # of connection points: 2
#     Edge 31, Type (0, 1), BuildingBlock: OJICUG_clean_linker_0, # of connection points: 2
#     Edge 32, Type (0, 1), BuildingBlock: OJICUG_clean_linker_0, # of connection points: 2
#     Edge 33, Type (0, 1), BuildingBlock: OJICUG_clean_linker_0, # of connection points: 2
# Relax obj value: 0.014
# Max RMSD: 0.099
# Mean RMSD: 0.079
data_MOF--net-llj--node1-QEWDON_clean_sbu_0--node2-OLANEW_clean_sbu_2--edge1-OJICUG_clean_linker_0
_symmetry_space_group_name_H-M    P1
_symmetry_Int_Tables_number       1
_symmetry_cell_setting            triclinic
loop_
_symmetry_equiv_pos_as_xyz
'x, y, z'
_cell_length_a     32.280556
_cell_length_b     32.320545
_cell_length_c     19.662784
_cell_angle_alpha  87.568538
_cell_angle_beta   92.782297
_cell_angle_gamma 89.704185
loop_
_atom_site_label
_atom_site_type_symbol
_atom_site_fract_x
_atom_site_fract_y
_atom_site_fract_z
_atom_type_partial_charge
Zn0 Zn 0.95984 0.11493 0.93812 0.0
Zn1 Zn 0.96271 0.10705 0.09587 0.0
O2 O 0.00126 0.11015 0.01921 0.0
H3 H 0.02882 0.12171 0.01996 0.0
C4 C 0.90834 0.01124 0.8057 0.0
O5 O 0.93853 0.03255 0.83427 0.0
Zn6 Zn 0.08169 0.92009 0.07715 0.0
Zn7 Zn 0.07834 0.91001 0.91354 0.0
O8 O 0.04817 0.93533 0.99097 0.0
H9 H 0.02754 0.95713 0.98534 0.0
Zn10 Zn 0.91892 0.95115 0.92706 0.0
O11 O 0.94141 0.99113 0.99792 0.0
Zn12 Zn 0.93755 0.95601 0.08354 0.0
H13 H 0.96154 0.01254 0.98951 0.0
Zn14 Zn 0.11313 0.07417 0.96149 0.0
O15 O 0.08296 0.0422 0.03348 0.0
H16 H 0.05802 0.02642 0.02515 0.0
Zn17 Zn 0.10028 0.06646 0.12102 0.0
C18 C 0.12985 0.00415 0.88214 0.0
O19 O 0.13913 0.98851 0.94382 0.0
O20 O 0.90777 0.14802 0.9602 0.0
O21 O 0.91114 0.14253 0.07365 0.0
O22 O 0.12173 0.86576 0.94854 0.0
O23 O 0.12291 0.87479 0.05982 0.0
O24 O 0.87635 0.90968 0.966 0.0
O25 O 0.88786 0.91893 0.07639 0.0
C26 C 0.02987 0.11198 0.19438 0.0
O27 O 0.16236 0.10763 8e-05 0.0
O28 O 0.14993 0.10431 0.11059 0.0
O29 O 0.04249 0.88809 0.83275 0.0
C30 C 0.89346 0.15598 0.01748 0.0
O31 O 0.9834 0.13041 0.84477 0.0
C32 C 0.00805 0.90818 0.15147 0.0
O33 O 0.89732 0.97728 0.83414 0.0
C34 C 0.13515 0.85574 0.00899 0.0
O35 O 0.11901 0.04196 0.87447 0.0
C36 C 0.93854 0.02831 0.1651 0.0
O37 O 0.99251 0.12376 0.18241 0.0
O38 O 0.0481 0.09512 0.14674 0.0
C39 C 0.86733 0.90255 0.02772 0.0
O40 O 0.04606 0.89829 0.15109 0.0
O41 O 0.99092 0.92492 0.09757 0.0
C42 C 0.11581 0.98272 0.17477 0.0
O43 O 0.93235 0.98964 0.16531 0.0
O44 O 0.94645 0.04752 0.1095 0.0
C45 C 0.17179 0.11674 0.06135 0.0
O46 O 0.11729 0.02072 0.18885 0.0
O47 O 0.10504 0.97339 0.11404 0.0
C48 C 0.0121 0.90376 0.79675 0.0
O49 O -0.00097 0.94131 0.80794 0.0
C50 C 0.01831 0.11796 0.82611 0.0
O51 O 0.04047 0.09201 0.86638 0.0
Zn52 Zn 0.47045 0.64866 0.50347 0.0
Zn53 Zn 0.43323 0.58581 0.59792 0.0
O54 O 0.47439 0.58699 0.52558 0.0
H55 H 0.47787 0.56602 0.4927 0.0
C56 C 0.38446 0.49242 0.30781 0.0
O57 O 0.41823 0.51142 0.32917 0.0
Zn58 Zn 0.56542 0.41709 0.58799 0.0
Zn59 Zn 0.56899 0.41127 0.42559 0.0
O60 O 0.53155 0.42818 0.50073 0.0
H61 H 0.50811 0.44689 0.49451 0.0
Zn62 Zn 0.39914 0.43216 0.42891 0.0
O63 O 0.41864 0.47101 0.50313 0.0
Zn64 Zn 0.41639 0.43506 0.58836 0.0
H65 H 0.43707 0.49408 0.49597 0.0
Zn66 Zn 0.58095 0.58047 0.46536 0.0
O67 O 0.56135 0.5398 0.53708 0.0
H68 H 0.54075 0.51878 0.52886 0.0
Zn69 Zn 0.57432 0.56538 0.62506 0.0
C70 C 0.60555 0.51652 0.38077 0.0
O71 O 0.61844 0.50195 0.44159 0.0
O72 O 0.41104 0.67283 0.50829 0.0
O73 O 0.38302 0.62094 0.56781 0.0
O74 O 0.61627 0.37172 0.46257 0.0
O75 O 0.61079 0.37553 0.57423 0.0
O76 O 0.36119 0.3861 0.46637 0.0
O77 O 0.37135 0.39238 0.57795 0.0
C78 C 0.49792 0.60104 0.69725 0.0
O79 O 0.62541 0.62014 0.50324 0.0
O80 O 0.61823 0.60975 0.61478 0.0
O81 O 0.54093 0.38864 0.33766 0.0
C82 C 0.37972 0.65563 0.53441 0.0
O83 O 0.51 0.67344 0.43263 0.0
C84 C 0.4918 0.39781 0.66094 0.0
O85 O 0.37285 0.45993 0.34004 0.0
C86 C 0.62757 0.36028 0.52348 0.0
O87 O 0.58907 0.55237 0.37481 0.0
C88 C 0.40941 0.50695 0.66902 0.0
O89 O 0.4593 0.60657 0.68479 0.0
O90 O 0.51872 0.58632 0.65057 0.0
C91 C 0.35273 0.37586 0.52739 0.0
O92 O 0.53092 0.39356 0.66205 0.0
O93 O 0.47312 0.4109 0.60577 0.0
C94 C 0.59579 0.48336 0.68078 0.0
O95 O 0.40526 0.46798 0.66934 0.0
O96 O 0.41766 0.52628 0.61375 0.0
C97 C 0.6359 0.62768 0.56486 0.0
O98 O 0.59562 0.52161 0.69333 0.0
O99 O 0.58494 0.47256 0.62097 0.0
C100 C 0.5075 0.39906 0.30431 0.0
O101 O 0.4852 0.43003 0.3242 0.0
C102 C 0.52015 0.65376 0.3812 0.0
O103 O 0.50517 0.61656 0.37227 0.0
O104 O 0.45033 0.23489 0.17691 0.0
Cd105 Cd 0.42554 0.1681 0.14117 0.0
O106 O 0.40908 0.26934 0.10259 0.0
Cd107 Cd 0.3876 0.32205 0.03677 0.0
O108 O 0.39212 0.34941 0.93381 0.0
C109 C 0.4249 0.37011 0.92554 0.0
O110 O 0.4497 0.37614 0.97919 0.0
C111 C 0.43749 0.26925 0.14974 0.0
C112 C 0.34003 0.16568 0.11808 0.0
O113 O 0.3568 0.15774 0.17767 0.0
O114 O 0.36378 0.17549 0.06964 0.0
O115 O 0.66012 0.34834 0.91724 0.0
Cd116 Cd 0.68229 0.31509 0.0273 0.0
O117 O 0.6029 0.37063 0.96053 0.0
Cd118 Cd 0.61435 0.34288 0.06215 0.0
O119 O 0.61785 0.37326 0.15843 0.0
C120 C 0.60326 0.40991 0.15259 0.0
O121 O 0.58759 0.4236 0.09285 0.0
C122 C 0.62655 0.36918 0.9109 0.0
C123 C 0.75004 0.26209 0.02205 0.0
O124 O 0.75457 0.30146 0.0187 0.0
O125 O 0.71344 0.24754 0.02726 0.0
O126 O 0.6026 0.78465 0.17795 0.0
Cd127 Cd 0.61921 0.83193 0.08397 0.0
O128 O 0.61473 0.73218 0.11543 0.0
Cd129 Cd 0.61807 0.67018 0.07562 0.0
O130 O 0.60236 0.63778 0.98272 0.0
C131 C 0.56399 0.63997 0.96542 0.0
O132 O 0.53895 0.65773 0.00636 0.0
C133 C 0.60302 0.74576 0.17125 0.0
C134 C 0.70389 0.84263 0.07332 0.0
O135 O 0.68358 0.8624 0.11615 0.0
O136 O 0.68418 0.81721 0.03555 0.0
O137 O 0.22594 0.56754 0.14092 0.0
Cd138 Cd 0.16771 0.60105 0.07786 0.0
O139 O 0.26938 0.60084 0.07689 0.0
Cd140 Cd 0.32777 0.61256 0.02866 0.0
O141 O 0.35787 0.60496 0.9332 0.0
C142 C 0.38166 0.5739 0.92892 0.0
O143 O 0.39023 0.55024 0.98388 0.0
C144 C 0.263 0.57468 0.1253 0.0
C145 C 0.17736 0.68612 0.05909 0.0
O146 O 0.16396 0.6701 0.11451 0.0
O147 O 0.18701 0.66174 0.01251 0.0
O148 O 0.91731 0.75202 0.66812 0.0
Cd149 Cd 0.88572 0.69251 0.61548 0.0
O150 O 0.89151 0.79583 0.58902 0.0
Cd151 Cd 0.88828 0.85222 0.52395 0.0
O152 O 0.90123 0.87762 0.42262 0.0
C153 C 0.93799 0.89021 0.41544 0.0
O154 O 0.96356 0.89043 0.46954 0.0
C155 C 0.9147 0.78871 0.64238 0.0
C156 C 0.79965 0.69035 0.6079 0.0
O157 O 0.82041 0.67689 0.66163 0.0
O158 O 0.81966 0.70633 0.55864 0.0
O159 O 0.13625 0.82184 0.38743 0.0
Cd160 Cd 0.14181 0.77358 0.48642 0.0
O161 O 0.1372 0.87303 0.45763 0.0
Cd162 Cd 0.14277 0.838 0.55444 0.0
O163 O 0.14211 0.864 0.65428 0.0
C164 C 0.12569 0.89989 0.65099 0.0
O165 O 0.11037 0.91475 0.59171 0.0
C166 C 0.13517 0.86044 0.3973 0.0
C167 C 0.21926 0.73527 0.50091 0.0
O168 O 0.21386 0.77202 0.52098 0.0
O169 O 0.18806 0.71659 0.47389 0.0
O170 O 0.07638 0.25963 0.62441 0.0
Cd171 Cd 0.10226 0.31713 0.55637 0.0
O172 O 0.12558 0.21771 0.5957 0.0
Cd173 Cd 0.15247 0.15719 0.57802 0.0
O174 O 0.13834 0.12743 0.48242 0.0
C175 C 0.0997 0.13007 0.46745 0.0
O176 O 0.07554 0.14516 0.51246 0.0
C177 C 0.09291 0.22382 0.62761 0.0
C178 C 0.18818 0.31812 0.55649 0.0
O179 O 0.1687 0.33382 0.60459 0.0
O180 O 0.16692 0.30122 0.50853 0.0
O181 O 0.75273 0.08025 0.62747 0.0
Cd182 Cd 0.69342 0.10969 0.56159 0.0
O183 O 0.79611 0.11662 0.56755 0.0
Cd184 Cd 0.85579 0.13072 0.52515 0.0
O185 O 0.88752 0.12407 0.43097 0.0
C186 C 0.91155 0.09322 0.42629 0.0
O187 O 0.91976 0.06895 0.48065 0.0
C188 C 0.78977 0.08964 0.61471 0.0
C189 C 0.69077 0.1957 0.55741 0.0
O190 O 0.67694 0.17432 0.60771 0.0
O191 O 0.70678 0.17634 0.50941 0.0
C192 C 0.23689 0.15061 0.02354 0.0
C193 C 0.21196 0.13707 0.07669 0.0
H194 H 0.29689 0.17068 0.99501 0.0
C195 C 0.22808 0.13833 0.14432 0.0
H196 H 0.22535 0.1504 0.9709 0.0
C197 C 0.26923 0.14971 0.15808 0.0
C198 C 0.29498 0.16034 0.10455 0.0
H199 H 0.2097 0.12834 0.18657 0.0
H200 H 0.28131 0.14842 0.2105 0.0
C201 C 0.27795 0.16222 0.03735 0.0
C202 C 0.85232 0.21769 0.97404 0.0
C203 C 0.85644 0.18262 0.01855 0.0
H204 H 0.81559 0.27105 0.94173 0.0
C205 C 0.82512 0.17352 0.06387 0.0
H206 H 0.87623 0.22538 0.93889 0.0
C207 C 0.78982 0.19883 0.0638 0.0
C208 C 0.7862 0.23438 0.02026 0.0
H209 H 0.8277 0.14655 0.09852 0.0
H210 H 0.76583 0.19119 0.0988 0.0
C211 C 0.81783 0.24379 0.97578 0.0
C212 C 0.81185 0.8831 0.10693 0.0
C213 C 0.82887 0.87998 0.04281 0.0
H214 H 0.75872 0.87394 0.16652 0.0
C215 C 0.80622 0.8596 0.99146 0.0
H216 H 0.82849 0.8984 0.1478 0.0
C217 C 0.76631 0.84502 0.00272 0.0
C218 C 0.7482 0.85123 0.06506 0.0
H219 H 0.81859 0.85648 0.94169 0.0
H220 H 0.7488 0.83105 0.96136 0.0
C221 C 0.77177 0.86925 0.11767 0.0
C222 C 0.16344 0.79947 0.08928 0.0
C223 C 0.15787 0.81605 0.0221 0.0
H224 H 0.17393 0.74506 0.15363 0.0
C225 C 0.16682 0.79094 0.96789 0.0
H226 H 0.15736 0.81798 0.13241 0.0
C227 C 0.17666 0.74901 0.9803 0.0
C228 C 0.17737 0.73153 0.04701 0.0
H229 H 0.16326 0.80282 0.91557 0.0
H230 H 0.18055 0.72976 0.93726 0.0
C231 C 0.17277 0.75754 0.10155 0.0
C232 C 0.69379 0.67248 0.52501 0.0
C233 C 0.67347 0.6526 0.57886 0.0
H234 H 0.74963 0.70068 0.49224 0.0
C235 C 0.69262 0.65173 0.64471 0.0
H236 H 0.67971 0.67414 0.47382 0.0
C237 C 0.73285 0.66668 0.65514 0.0
C238 C 0.75452 0.68316 0.60009 0.0
H239 H 0.67774 0.637 0.68752 0.0
H240 H 0.74773 0.66323 0.70565 0.0
C241 C 0.73389 0.68775 0.5356 0.0
C242 C 0.33552 0.7194 0.5184 0.0
C243 C 0.33872 0.67606 0.52557 0.0
H244 H 0.29496 0.77219 0.50631 0.0
C245 C 0.30236 0.65233 0.52429 0.0
H246 H 0.36307 0.7384 0.51946 0.0
C247 C 0.26352 0.67158 0.51516 0.0
C248 C 0.2603 0.71493 0.50904 0.0
H249 H 0.30398 0.61885 0.52943 0.0
H250 H 0.23597 0.65257 0.51397 0.0
C251 C 0.29661 0.7387 0.51115 0.0
C252 C 0.29755 0.35028 0.60304 0.0
C253 C 0.31537 0.35071 0.53915 0.0
H254 H 0.24298 0.33962 0.65856 0.0
C255 C 0.2933 0.33322 0.48414 0.0
H256 H 0.31378 0.36314 0.64671 0.0
C257 C 0.25272 0.31943 0.4912 0.0
C258 C 0.23344 0.32329 0.55317 0.0
H259 H 0.30631 0.33266 0.43443 0.0
H260 H 0.23556 0.30856 0.4468 0.0
C261 C 0.25684 0.33699 0.60983 0.0
C262 C 0.65734 0.30297 0.60033 0.0
C263 C 0.65423 0.323 0.53531 0.0
H264 H 0.67133 0.2467 0.65824 0.0
C265 C 0.67044 0.3031 0.48007 0.0
H266 H 0.64558 0.31749 0.64423 0.0
C267 C 0.68555 0.26249 0.48838 0.0
C268 C 0.68433 0.24102 0.55189 0.0
H269 H 0.66891 0.31779 0.42945 0.0
H270 H 0.69533 0.24702 0.444 0.0
C271 C 0.67194 0.26226 0.6084 0.0
C272 C 0.09108 0.10622 0.27948 0.0
C273 C 0.04898 0.1153 0.26381 0.0
H274 H 0.14049 0.10353 0.35683 0.0
C275 C 0.02391 0.12717 0.31618 0.0
H276 H 0.1112 0.09715 0.24022 0.0
C277 C 0.04028 0.13019 0.38241 0.0
C278 C 0.08247 0.12216 0.39819 0.0
H279 H 0.99138 0.13446 0.30613 0.0
H280 H 0.01981 0.13981 0.42094 0.0
C281 C 0.10777 0.10976 0.34624 0.0
C282 C 0.91444 0.08583 0.2348 0.0
C283 C 0.93724 0.04916 0.23 0.0
H284 H 0.88874 0.12903 0.30104 0.0
C285 C 0.95487 0.02939 0.28952 0.0
H286 H 0.89993 0.10111 0.18968 0.0
C287 C 0.9485 0.0451 0.3532 0.0
C288 C 0.92393 0.08069 0.35863 0.0
H289 H 0.97257 0.00098 0.28689 0.0
H290 H 0.96147 0.02837 0.39825 0.0
C291 C 0.90788 0.10156 0.29863 0.0
C292 C 0.01189 0.91417 0.27676 0.0
C293 C 0.98784 0.90652 0.21735 0.0
H294 H 0.01509 0.91613 0.38512 0.0
C295 C 0.94602 0.89598 0.22293 0.0
H296 H 0.04406 0.92246 0.2739 0.0
C297 C 0.92897 0.89228 0.28721 0.0
C298 C 0.95367 0.89891 0.34681 0.0
H299 H 0.92713 0.8888 0.17827 0.0
H300 H 0.89695 0.88284 0.29032 0.0
C301 C 0.99511 0.91067 0.34057 0.0
C302 C 0.1326 0.91011 0.21888 0.0
C303 C 0.12181 0.95112 0.23104 0.0
H304 H 0.14457 0.84873 0.26134 0.0
C305 C 0.11748 0.96238 0.29859 0.0
H306 H 0.13862 0.90132 0.16826 0.0
C307 C 0.12202 0.93286 0.35222 0.0
C308 C 0.13109 0.89133 0.33972 0.0
H309 H 0.10966 0.99389 0.31009 0.0
H310 H 0.11772 0.94258 0.40348 0.0
C311 C 0.13662 0.88025 0.27247 0.0
C312 C 0.14696 0.93758 0.829 0.0
C313 C 0.12935 0.9775 0.82307 0.0
H314 H 0.15923 0.88137 0.77946 0.0
C315 C 0.1101 0.99135 0.76062 0.0
H316 H 0.1622 0.92621 0.87645 0.0
C317 C 0.10843 0.96579 0.70522 0.0
C318 C 0.12608 0.92587 0.71098 0.0
H319 H 0.096 0.02186 0.75458 0.0
H320 H 0.09343 0.97749 0.65775 0.0
C321 C 0.14524 0.91192 0.7735 0.0
C322 C 0.012 0.16636 0.72407 0.0
C323 C 0.03631 0.13839 0.76576 0.0
H324 H 0.01107 0.21503 0.64706 0.0
C325 C 0.07874 0.13417 0.75382 0.0
H326 H 0.9791 0.16991 0.7311 0.0
C327 C 0.09707 0.16006 0.705 0.0
C328 C 0.0732 0.19043 0.66769 0.0
H329 H 0.09825 0.11273 0.78488 0.0
H330 H 0.13029 0.15825 0.70006 0.0
C331 C 0.03029 0.19223 0.67586 0.0
C332 C 0.8474 0.00772 0.72339 0.0
C333 C 0.88241 0.02932 0.7476 0.0
H334 H 0.79081 0.0101 0.66231 0.0
C335 C 0.8895 0.06955 0.72056 0.0
H336 H 0.84114 0.97654 0.74238 0.0
C337 C 0.86061 0.08867 0.67357 0.0
C338 C 0.82415 0.06793 0.65363 0.0
H339 H 0.91629 0.08695 0.73797 0.0
H340 H 0.86554 0.12043 0.65623 0.0
C341 C 0.81846 0.02694 0.67746 0.0
C342 C 0.95119 0.88988 0.71543 0.0
C343 C 0.98911 0.87717 0.74852 0.0
H344 H 0.89758 0.87168 0.65466 0.0
C345 C 0.00382 0.83687 0.7395 0.0
H346 H 0.93909 0.9208 0.72117 0.0
C347 C 0.98008 0.80905 0.70251 0.0
C348 C 0.94128 0.82085 0.6725 0.0
H349 H 0.03312 0.82611 0.76325 0.0
H350 H 0.99173 0.77776 0.69884 0.0
C351 C 0.9275 0.8619 0.67725 0.0
C352 C 0.48956 0.62119 0.81645 0.0
C353 C 0.51606 0.60944 0.76586 0.0
H354 H 0.48367 0.63906 0.91859 0.0
C355 C 0.55881 0.60577 0.78235 0.0
H356 H 0.45646 0.6243 0.80581 0.0
C357 C 0.57465 0.61448 0.84792 0.0
C358 C 0.54793 0.62699 0.89788 0.0
H359 H 0.58003 0.59687 0.74454 0.0
H360 H 0.6078 0.61226 0.85899 0.0
C361 C 0.50521 0.62967 0.88148 0.0
C362 C 0.38444 0.56482 0.73754 0.0
C363 C 0.40694 0.52786 0.73371 0.0
H364 H 0.35906 0.60887 0.80278 0.0
C365 C 0.42416 0.50837 0.79374 0.0
H366 H 0.37053 0.5801 0.69189 0.0
C367 C 0.41784 0.52466 0.85695 0.0
C368 C 0.39366 0.56058 0.8615 0.0
H369 H 0.44173 0.47986 0.79186 0.0
H370 H 0.43061 0.50815 0.90236 0.0
C371 C 0.37784 0.58111 0.80102 0.0
C372 C 0.49398 0.40477 0.78569 0.0
C373 C 0.47125 0.3942 0.72651 0.0
H374 H 0.49713 0.40678 0.89386 0.0
C375 C 0.43106 0.3785 0.7324 0.0
H376 H 0.52477 0.41703 0.78251 0.0
C377 C 0.41482 0.37209 0.79706 0.0
C378 C 0.43857 0.38155 0.85644 0.0
H379 H 0.41309 0.36948 0.68772 0.0
H380 H 0.38437 0.3585 0.80065 0.0
C381 C 0.47791 0.39893 0.84963 0.0
C382 C 0.62316 0.41493 0.72978 0.0
C383 C 0.60315 0.45292 0.73807 0.0
H384 H 0.64663 0.35813 0.77844 0.0
C385 C 0.59143 0.46299 0.80319 0.0
H386 H 0.63431 0.40752 0.68088 0.0
C387 C 0.59793 0.43492 0.85838 0.0
C388 C 0.61756 0.39669 0.85024 0.0
H389 H 0.57632 0.49227 0.8113 0.0
H390 H 0.58826 0.44357 0.90787 0.0
C391 C 0.63062 0.38704 0.78564 0.0
C392 C 0.62585 0.45078 0.32804 0.0
C393 C 0.60682 0.49006 0.32151 0.0
H394 H 0.63932 0.39436 0.28003 0.0
C395 C 0.58728 0.50296 0.25877 0.0
H396 H 0.64126 0.44001 0.37572 0.0
C397 C 0.58621 0.47684 0.20403 0.0
C398 C 0.60465 0.43729 0.21085 0.0
H399 H 0.57226 0.533 0.25214 0.0
H400 H 0.57061 0.48761 0.1565 0.0
C401 C 0.62469 0.42458 0.27329 0.0
C402 C 0.54927 0.65767 0.26482 0.0
C403 C 0.54593 0.6741 0.32949 0.0
H404 H 0.56942 0.6676 0.16329 0.0
C405 C 0.56544 0.71175 0.34317 0.0
H406 H 0.53461 0.62863 0.25278 0.0
C407 C 0.58585 0.73364 0.29235 0.0
C408 C 0.58726 0.71852 0.2265 0.0
H409 H 0.56397 0.725 0.39269 0.0
H410 H 0.59944 0.76323 0.30417 0.0
C411 C 0.56961 0.67981 0.21361 0.0
C412 C 0.36535 0.55004 0.22144 0.0
C413 C 0.35663 0.5113 0.25276 0.0
H414 H 0.34239 0.60076 0.15587 0.0
C415 C 0.31891 0.492 0.23525 0.0
H416 H 0.39418 0.56568 0.23373 0.0
C417 C 0.28947 0.51205 0.1912 0.0
C418 C 0.29717 0.55165 0.16275 0.0
H419 H 0.31125 0.462 0.25774 0.0
H420 H 0.26005 0.49699 0.18098 0.0
C421 C 0.33585 0.57003 0.17654 0.0
C422 C 0.44949 0.37396 0.22629 0.0
C423 C 0.49112 0.37149 0.25116 0.0
H424 H 0.39957 0.34321 0.17281 0.0
C425 C 0.51613 0.33888 0.23112 0.0
H426 H 0.4295 0.39889 0.24041 0.0
C427 C 0.49898 0.30717 0.19336 0.0
C428 C 0.45663 0.30767 0.17363 0.0
H429 H 0.54852 0.33642 0.24811 0.0
H430 H 0.51845 0.28106 0.18263 0.0
C431 C 0.43237 0.34225 0.1874 0.0
loop_
_geom_bond_atom_site_label_1
_geom_bond_atom_site_label_2
_geom_bond_distance
_geom_bond_site_symmetry_2
_ccdc_geom_bond_type
Zn0 O2 1.933 1_556 S
Zn0 O20 1.985 . S
Zn0 O31 1.955 . S
Zn1 O2 1.911 . S
Zn1 O21 1.970 . S
Zn1 O37 1.945 . S
Zn1 O44 1.981 . S
O2 Zn0 1.933 1_554 S
O2 Zn1 1.911 . S
O2 H3 0.841 1_655 S
H3 O2 0.841 1_455 S
C4 O5 1.246 . S
C4 O33 1.254 1_545 S
O5 C4 1.246 . S
Zn6 O8 1.911 . S
Zn6 O23 1.970 . S
Zn6 O40 1.945 . S
Zn6 O47 1.981 . S
Zn7 O8 1.933 1_556 S
Zn7 O22 1.985 . S
Zn7 O29 1.955 . S
O8 Zn6 1.911 . S
O8 Zn7 1.933 1_554 S
O8 H9 0.841 1_455 S
H9 O8 0.841 1_655 S
Zn10 O11 1.933 1_556 S
Zn10 O24 1.985 . S
Zn10 O33 1.963 . S
O11 Zn10 1.933 1_554 S
O11 Zn12 1.911 . S
O11 H13 0.841 1_565 S
Zn12 O11 1.911 . S
Zn12 O25 1.970 . S
Zn12 O41 1.981 . S
Zn12 O43 1.945 . S
H13 O11 0.841 1_545 S
Zn14 O15 1.933 1_556 S
Zn14 O27 1.985 . S
Zn14 O35 1.955 . S
O15 Zn14 1.933 1_554 S
O15 H16 0.841 1_545 S
O15 Zn17 1.911 . S
H16 O15 0.841 1_565 S
Zn17 O15 1.911 . S
Zn17 O28 1.970 . S
Zn17 O38 1.981 . S
Zn17 O46 1.945 . S
C18 O19 1.246 . S
C18 O35 1.276 1_565 S
O19 C18 1.246 . S
O20 Zn0 1.985 . S
O20 C30 1.245 1_556 S
O21 Zn1 1.970 . S
O21 C30 1.263 . S
O22 Zn7 1.985 . S
O22 C34 1.245 1_556 S
O23 Zn6 1.970 . S
O23 C34 1.263 . S
O24 Zn10 1.985 . S
O24 C39 1.245 1_556 S
O25 Zn12 1.970 . S
O25 C39 1.263 . S
C26 O37 1.262 1_455 S
C26 O38 1.245 . S
O27 Zn14 1.985 . S
O27 C45 1.245 1_556 S
O28 Zn17 1.970 . S
O28 C45 1.263 . S
O29 Zn7 1.955 . S
O29 C48 1.276 1_455 S
C30 O20 1.245 1_554 S
C30 O21 1.263 . S
O31 Zn0 1.955 . S
O31 C50 1.276 1_655 S
C32 O40 1.262 1_655 S
C32 O41 1.245 . S
O33 C4 1.254 1_565 S
O33 Zn10 1.963 . S
C34 O22 1.245 1_554 S
C34 O23 1.263 . S
O35 Zn14 1.955 . S
O35 C18 1.276 1_545 S
C36 O43 1.262 1_545 S
C36 O44 1.245 . S
O37 Zn1 1.945 . S
O37 C26 1.262 1_655 S
O38 Zn17 1.981 . S
O38 C26 1.245 . S
C39 O24 1.245 1_554 S
C39 O25 1.263 . S
O40 Zn6 1.945 . S
O40 C32 1.262 1_455 S
O41 Zn12 1.981 . S
O41 C32 1.245 . S
C42 O46 1.262 1_565 S
C42 O47 1.245 . S
O43 Zn12 1.945 . S
O43 C36 1.262 1_565 S
O44 Zn1 1.981 . S
O44 C36 1.245 . S
C45 O27 1.245 1_554 S
C45 O28 1.263 . S
O46 Zn17 1.945 . S
O46 C42 1.262 1_545 S
O47 Zn6 1.981 . S
O47 C42 1.245 . S
C48 O29 1.276 1_655 S
C48 O49 1.246 . S
O49 C48 1.246 . S
C50 O31 1.276 1_455 S
C50 O51 1.246 . S
O51 C50 1.246 . S
Zn52 O54 1.933 . S
Zn52 O72 1.985 . S
Zn52 O83 1.955 . S
Zn53 O54 1.911 . S
Zn53 O73 1.970 . S
Zn53 O89 1.945 . S
Zn53 O96 1.981 . S
O54 Zn52 1.933 . S
O54 Zn53 1.911 . S
O54 H55 0.841 . S
H55 O54 0.841 . S
C56 O57 1.246 . S
C56 O85 1.276 . S
O57 C56 1.246 . S
Zn58 O60 1.911 . S
Zn58 O75 1.970 . S
Zn58 O92 1.945 . S
Zn58 O99 1.981 . S
Zn59 O60 1.933 . S
Zn59 O74 1.985 . S
Zn59 O81 1.955 . S
O60 Zn58 1.911 . S
O60 Zn59 1.933 . S
O60 H61 0.841 . S
H61 O60 0.841 . S
Zn62 O63 1.933 . S
Zn62 O76 1.985 . S
Zn62 O85 1.955 . S
O63 Zn62 1.933 . S
O63 Zn64 1.911 . S
O63 H65 0.841 . S
Zn64 O63 1.911 . S
Zn64 O77 1.970 . S
Zn64 O93 1.981 . S
Zn64 O95 1.945 . S
H65 O63 0.841 . S
Zn66 O67 1.933 . S
Zn66 O79 1.985 . S
Zn66 O87 1.955 . S
O67 Zn66 1.933 . S
O67 H68 0.841 . S
O67 Zn69 1.911 . S
H68 O67 0.841 . S
Zn69 O67 1.911 . S
Zn69 O80 1.970 . S
Zn69 O90 1.981 . S
Zn69 O98 1.945 . S
C70 O71 1.246 . S
C70 O87 1.276 . S
O71 C70 1.246 . S
O72 Zn52 1.985 . S
O72 C82 1.245 . S
O73 Zn53 1.970 . S
O73 C82 1.263 . S
O74 Zn59 1.985 . S
O74 C86 1.245 . S
O75 Zn58 1.970 . S
O75 C86 1.263 . S
O76 Zn62 1.985 . S
O76 C91 1.245 . S
O77 Zn64 1.970 . S
O77 C91 1.263 . S
C78 O89 1.262 . S
C78 O90 1.245 . S
O79 Zn66 1.985 . S
O79 C97 1.245 . S
O80 Zn69 1.970 . S
O80 C97 1.263 . S
O81 Zn59 1.955 . S
O81 C100 1.276 . S
C82 O72 1.245 . S
C82 O73 1.263 . S
O83 Zn52 1.955 . S
O83 C102 1.276 . S
C84 O92 1.262 . S
C84 O93 1.245 . S
O85 C56 1.276 . S
O85 Zn62 1.955 . S
C86 O74 1.245 . S
C86 O75 1.263 . S
O87 Zn66 1.955 . S
O87 C70 1.276 . S
C88 O95 1.262 . S
C88 O96 1.245 . S
O89 Zn53 1.945 . S
O89 C78 1.262 . S
O90 Zn69 1.981 . S
O90 C78 1.245 . S
C91 O76 1.245 . S
C91 O77 1.263 . S
O92 Zn58 1.945 . S
O92 C84 1.262 . S
O93 Zn64 1.981 . S
O93 C84 1.245 . S
C94 O98 1.262 . S
C94 O99 1.245 . S
O95 Zn64 1.945 . S
O95 C88 1.262 . S
O96 Zn53 1.981 . S
O96 C88 1.245 . S
C97 O79 1.245 . S
C97 O80 1.263 . S
O98 Zn69 1.945 . S
O98 C94 1.262 . S
O99 Zn58 1.981 . S
O99 C94 1.245 . S
C100 O81 1.276 . S
C100 O101 1.246 . S
O101 C100 1.246 . S
C102 O83 1.276 . S
C102 O103 1.246 . S
O103 C102 1.246 . S
O104 Cd105 2.300 . S
O104 C111 1.275 . S
Cd105 O104 2.300 . S
Cd105 O113 2.381 . S
Cd105 O114 2.378 . S
O106 Cd107 2.385 . S
O106 C111 1.255 . S
Cd107 O106 2.385 . S
Cd107 O108 2.317 1_554 S
O108 Cd107 2.317 1_556 S
O108 C109 1.232 . S
C109 O108 1.232 . S
C109 O110 1.218 . S
O110 C109 1.218 . S
C111 O104 1.275 . S
C111 O106 1.255 . S
C112 O113 1.258 . S
C112 O114 1.256 . S
O113 Cd105 2.381 . S
O113 C112 1.258 . S
O114 Cd105 2.378 . S
O114 C112 1.256 . S
O115 Cd116 2.300 . S
O115 C122 1.275 . S
Cd116 O115 2.300 . S
Cd116 O124 2.381 . S
Cd116 O125 2.378 1_556 S
O117 Cd118 2.385 1_556 S
O117 C122 1.255 . S
Cd118 O117 2.385 1_554 S
Cd118 O119 2.317 . S
O119 Cd118 2.317 . S
O119 C120 1.232 . S
C120 O119 1.232 . S
C120 O121 1.218 . S
O121 C120 1.218 . S
C122 O115 1.275 . S
C122 O117 1.255 . S
C123 O124 1.267 . S
C123 O125 1.245 1_556 S
O124 Cd116 2.381 . S
O124 C123 1.267 . S
O125 Cd116 2.378 1_554 S
O125 C123 1.245 1_554 S
O126 Cd127 2.300 . S
O126 C133 1.275 . S
Cd127 O126 2.300 . S
Cd127 O135 2.381 . S
Cd127 O136 2.378 . S
O128 Cd129 2.385 . S
O128 C133 1.255 . S
Cd129 O128 2.385 . S
Cd129 O130 2.317 1_554 S
O130 Cd129 2.317 1_556 S
O130 C131 1.232 . S
C131 O130 1.232 . S
C131 O132 1.218 . S
O132 C131 1.218 . S
C133 O126 1.275 . S
C133 O128 1.255 . S
C134 O135 1.258 . S
C134 O136 1.256 . S
O135 Cd127 2.381 . S
O135 C134 1.258 . S
O136 Cd127 2.378 . S
O136 C134 1.256 . S
O137 Cd138 2.300 . S
O137 C144 1.275 . S
Cd138 O137 2.300 . S
Cd138 O146 2.381 . S
Cd138 O147 2.378 . S
O139 Cd140 2.392 . S
O139 C144 1.255 . S
Cd140 O139 2.392 . S
Cd140 O141 2.311 1_554 S
O141 Cd140 2.311 1_556 S
O141 C142 1.232 . S
C142 O141 1.232 . S
C142 O143 1.218 . S
O143 C142 1.218 . S
C144 O137 1.275 . S
C144 O139 1.255 . S
C145 O146 1.258 . S
C145 O147 1.256 . S
O146 Cd138 2.381 . S
O146 C145 1.258 . S
O147 Cd138 2.378 . S
O147 C145 1.256 . S
O148 Cd149 2.300 . S
O148 C155 1.275 . S
Cd149 O148 2.300 . S
Cd149 O157 2.381 . S
Cd149 O158 2.378 . S
O150 Cd151 2.385 . S
O150 C155 1.255 . S
Cd151 O150 2.385 . S
Cd151 O152 2.317 . S
O152 Cd151 2.317 . S
O152 C153 1.232 . S
C153 O152 1.232 . S
C153 O154 1.218 . S
O154 C153 1.218 . S
C155 O148 1.275 . S
C155 O150 1.255 . S
C156 O157 1.258 . S
C156 O158 1.256 . S
O157 Cd149 2.381 . S
O157 C156 1.258 . S
O158 Cd149 2.378 . S
O158 C156 1.256 . S
O159 Cd160 2.300 . S
O159 C166 1.275 . S
Cd160 O159 2.300 . S
Cd160 O168 2.381 . S
Cd160 O169 2.378 . S
O161 Cd162 2.385 . S
O161 C166 1.255 . S
Cd162 O161 2.385 . S
Cd162 O163 2.317 . S
O163 Cd162 2.317 . S
O163 C164 1.232 . S
C164 O163 1.232 . S
C164 O165 1.218 . S
O165 C164 1.218 . S
C166 O159 1.275 . S
C166 O161 1.255 . S
C167 O168 1.258 . S
C167 O169 1.256 . S
O168 Cd160 2.381 . S
O168 C167 1.258 . S
O169 Cd160 2.378 . S
O169 C167 1.256 . S
O170 Cd171 2.300 . S
O170 C177 1.275 . S
Cd171 O170 2.300 . S
Cd171 O179 2.381 . S
Cd171 O180 2.378 . S
O172 Cd173 2.385 . S
O172 C177 1.255 . S
Cd173 O172 2.385 . S
Cd173 O174 2.317 . S
O174 Cd173 2.317 . S
O174 C175 1.232 . S
C175 O174 1.232 . S
C175 O176 1.218 . S
O176 C175 1.218 . S
C177 O170 1.275 . S
C177 O172 1.255 . S
C178 O179 1.258 . S
C178 O180 1.256 . S
O179 Cd171 2.381 . S
O179 C178 1.258 . S
O180 Cd171 2.378 . S
O180 C178 1.256 . S
O181 Cd182 2.300 . S
O181 C188 1.275 . S
Cd182 O181 2.300 . S
Cd182 O190 2.381 . S
Cd182 O191 2.378 . S
O183 Cd184 2.385 . S
O183 C188 1.255 . S
Cd184 O183 2.385 . S
Cd184 O185 2.317 . S
O185 Cd184 2.317 . S
O185 C186 1.232 . S
C186 O185 1.232 . S
C186 O187 1.218 . S
O187 C186 1.218 . S
C188 O181 1.275 . S
C188 O183 1.255 . S
C189 O190 1.258 . S
C189 O191 1.256 . S
O190 Cd182 2.381 . S
O190 C189 1.258 . S
O191 Cd182 2.378 . S
O191 C189 1.256 . S
C192 C193 1.387 1_556 S
C192 H196 0.950 . S
C192 C201 1.392 . S
C193 C192 1.387 1_554 S
C193 C195 1.387 . S
H194 C201 0.958 . S
C195 C193 1.387 . S
C195 C197 1.390 . S
C195 H199 0.950 . S
H196 C192 0.950 . S
C197 C195 1.390 . S
C197 C198 1.387 . S
C197 H200 0.950 . S
C198 C197 1.387 . S
C198 C201 1.377 1_554 S
H199 C195 0.950 . S
H200 C197 0.950 . S
C201 C192 1.392 . S
C201 H194 0.958 . S
C201 C198 1.377 1_556 S
C202 C203 1.387 1_556 S
C202 H206 0.950 . S
C202 C211 1.390 . S
C203 C202 1.387 1_554 S
C203 C205 1.387 . S
H204 C211 0.950 . S
C205 C203 1.387 . S
C205 C207 1.390 . S
C205 H209 0.950 . S
H206 C202 0.950 . S
C207 C205 1.390 . S
C207 C208 1.387 . S
C207 H210 0.950 . S
C208 C207 1.387 . S
C208 C211 1.387 1_554 S
H209 C205 0.950 . S
H210 C207 0.950 . S
C211 C202 1.390 . S
C211 H204 0.950 . S
C211 C208 1.387 1_556 S
C212 C213 1.387 . S
C212 H216 0.950 . S
C212 C221 1.390 . S
C213 C212 1.387 . S
C213 C215 1.387 1_554 S
H214 C221 0.950 . S
C215 C213 1.387 1_556 S
C215 C217 1.390 . S
C215 H219 0.950 . S
H216 C212 0.950 . S
C217 C215 1.390 . S
C217 C218 1.387 1_556 S
C217 H220 0.950 . S
C218 C217 1.387 1_554 S
C218 C221 1.387 . S
H219 C215 0.950 . S
H220 C217 0.950 . S
C221 C212 1.390 . S
C221 H214 0.950 . S
C221 C218 1.387 . S
C222 C223 1.387 . S
C222 H226 0.950 . S
C222 C231 1.390 . S
C223 C222 1.387 . S
C223 C225 1.387 1_554 S
H224 C231 0.950 . S
C225 C223 1.387 1_556 S
C225 C227 1.390 . S
C225 H229 0.950 . S
H226 C222 0.950 . S
C227 C225 1.390 . S
C227 C228 1.387 1_556 S
C227 H230 0.950 . S
C228 C227 1.387 1_554 S
C228 C231 1.387 . S
H229 C225 0.950 . S
H230 C227 0.950 . S
C231 C222 1.390 . S
C231 H224 0.950 . S
C231 C228 1.387 . S
C232 C233 1.387 . S
C232 H236 0.950 . S
C232 C241 1.390 . S
C233 C232 1.387 . S
C233 C235 1.387 . S
H234 C241 0.950 . S
C235 C233 1.387 . S
C235 C237 1.390 . S
C235 H239 0.950 . S
H236 C232 0.950 . S
C237 C235 1.390 . S
C237 C238 1.387 . S
C237 H240 0.950 . S
C238 C237 1.387 . S
C238 C241 1.387 . S
H239 C235 0.950 . S
H240 C237 0.950 . S
C241 C232 1.390 . S
C241 H234 0.950 . S
C241 C238 1.387 . S
C242 C243 1.387 . S
C242 H246 0.950 . S
C242 C251 1.390 . S
C243 C242 1.387 . S
C243 C245 1.387 . S
H244 C251 0.950 . S
C245 C243 1.387 . S
C245 C247 1.390 . S
C245 H249 0.950 . S
H246 C242 0.950 . S
C247 C245 1.390 . S
C247 C248 1.387 . S
C247 H250 0.950 . S
C248 C247 1.387 . S
C248 C251 1.387 . S
H249 C245 0.950 . S
H250 C247 0.950 . S
C251 C242 1.390 . S
C251 H244 0.950 . S
C251 C248 1.387 . S
C252 C253 1.387 . S
C252 H256 0.950 . S
C252 C261 1.390 . S
C253 C252 1.387 . S
C253 C255 1.387 . S
H254 C261 0.950 . S
C255 C253 1.387 . S
C255 C257 1.390 . S
C255 H259 0.950 . S
H256 C252 0.950 . S
C257 C255 1.390 . S
C257 C258 1.387 . S
C257 H260 0.950 . S
C258 C257 1.387 . S
C258 C261 1.387 . S
H259 C255 0.950 . S
H260 C257 0.950 . S
C261 C252 1.390 . S
C261 H254 0.950 . S
C261 C258 1.387 . S
C262 C263 1.387 . S
C262 H266 0.950 . S
C262 C271 1.390 . S
C263 C262 1.387 . S
C263 C265 1.387 . S
H264 C271 0.950 . S
C265 C263 1.387 . S
C265 C267 1.390 . S
C265 H269 0.950 . S
H266 C262 0.950 . S
C267 C265 1.390 . S
C267 C268 1.387 . S
C267 H270 0.950 . S
C268 C267 1.387 . S
C268 C271 1.387 . S
H269 C265 0.950 . S
H270 C267 0.950 . S
C271 C262 1.390 . S
C271 H264 0.950 . S
C271 C268 1.387 . S
C272 C273 1.387 . S
C272 H276 0.950 . S
C272 C281 1.390 . S
C273 C272 1.387 . S
C273 C275 1.387 . S
H274 C281 0.950 . S
C275 C273 1.387 . S
C275 C277 1.390 . S
C275 H279 0.950 1_455 S
H276 C272 0.950 . S
C277 C275 1.390 . S
C277 C278 1.387 . S
C277 H280 0.950 1_455 S
C278 C277 1.387 . S
C278 C281 1.387 . S
H279 C275 0.950 1_655 S
H280 C277 0.950 1_655 S
C281 C272 1.390 . S
C281 H274 0.950 . S
C281 C278 1.387 . S
C282 C283 1.387 . S
C282 H286 0.950 . S
C282 C291 1.390 . S
C283 C282 1.387 . S
C283 C285 1.387 . S
H284 C291 0.950 . S
C285 C283 1.387 . S
C285 C287 1.390 . S
C285 H289 0.950 1_545 S
H286 C282 0.950 . S
C287 C285 1.390 . S
C287 C288 1.387 . S
C287 H290 0.950 1_545 S
C288 C287 1.387 . S
C288 C291 1.387 . S
H289 C285 0.950 1_565 S
H290 C287 0.950 1_565 S
C291 C282 1.390 . S
C291 H284 0.950 . S
C291 C288 1.387 . S
C292 C293 1.387 . S
C292 H296 0.950 1_655 S
C292 C301 1.390 . S
C293 C292 1.387 . S
C293 C295 1.387 . S
H294 C301 0.942 1_455 S
C295 C293 1.387 . S
C295 C297 1.390 . S
C295 H299 0.950 . S
H296 C292 0.950 1_455 S
C297 C295 1.390 . S
C297 C298 1.387 . S
C297 H300 0.950 . S
C298 C297 1.387 . S
C298 C301 1.387 . S
H299 C295 0.950 . S
H300 C297 0.950 . S
C301 C292 1.390 . S
C301 H294 0.942 1_655 S
C301 C298 1.387 . S
C302 C303 1.387 . S
C302 H306 0.950 . S
C302 C311 1.390 . S
C303 C302 1.387 . S
C303 C305 1.387 . S
H304 C311 0.950 . S
C305 C303 1.387 . S
C305 C307 1.390 . S
C305 H309 0.950 1_565 S
H306 C302 0.950 . S
C307 C305 1.390 . S
C307 C308 1.387 . S
C307 H310 0.950 . S
C308 C307 1.387 . S
C308 C311 1.387 . S
H309 C305 0.950 1_545 S
H310 C307 0.950 . S
C311 C302 1.390 . S
C311 H304 0.950 . S
C311 C308 1.387 . S
C312 C313 1.387 . S
C312 H316 0.950 . S
C312 C321 1.390 . S
C313 C312 1.387 . S
C313 C315 1.387 . S
H314 C321 0.950 . S
C315 C313 1.387 . S
C315 C317 1.390 . S
C315 H319 0.950 1_565 S
H316 C312 0.950 . S
C317 C315 1.390 . S
C317 C318 1.387 . S
C317 H320 0.950 1_565 S
C318 C317 1.387 . S
C318 C321 1.387 . S
H319 C315 0.950 1_545 S
H320 C317 0.950 1_545 S
C321 C312 1.390 . S
C321 H314 0.950 . S
C321 C318 1.387 . S
C322 C323 1.387 . S
C322 H326 0.950 1_455 S
C322 C331 1.390 . S
C323 C322 1.387 . S
C323 C325 1.387 . S
H324 C331 0.950 . S
C325 C323 1.387 . S
C325 C327 1.390 . S
C325 H329 0.950 . S
H326 C322 0.950 1_655 S
C327 C325 1.390 . S
C327 C328 1.387 . S
C327 H330 0.950 . S
C328 C327 1.387 . S
C328 C331 1.387 . S
H329 C325 0.950 . S
H330 C327 0.950 . S
C331 C322 1.390 . S
C331 H324 0.950 . S
C331 C328 1.387 . S
C332 C333 1.387 . S
C332 H336 0.950 1_545 S
C332 C341 1.390 . S
C333 C332 1.387 . S
C333 C335 1.387 . S
H334 C341 0.950 . S
C335 C333 1.387 . S
C335 C337 1.390 . S
C335 H339 0.950 . S
H336 C332 0.950 1_565 S
C337 C335 1.390 . S
C337 C338 1.387 . S
C337 H340 0.950 . S
C338 C337 1.387 . S
C338 C341 1.387 . S
H339 C335 0.950 . S
H340 C337 0.950 . S
C341 C332 1.390 . S
C341 H334 0.950 . S
C341 C338 1.387 . S
C342 C343 1.387 . S
C342 H346 0.950 . S
C342 C351 1.390 . S
C343 C342 1.387 . S
C343 C345 1.387 . S
H344 C351 0.950 . S
C345 C343 1.387 . S
C345 C347 1.390 . S
C345 H349 0.950 1_655 S
H346 C342 0.950 . S
C347 C345 1.390 . S
C347 C348 1.387 . S
C347 H350 0.950 . S
C348 C347 1.387 . S
C348 C351 1.387 . S
H349 C345 0.950 1_455 S
H350 C347 0.950 . S
C351 C342 1.390 . S
C351 H344 0.950 . S
C351 C348 1.387 . S
C352 C353 1.387 . S
C352 H356 0.950 . S
C352 C361 1.390 . S
C353 C352 1.387 . S
C353 C355 1.387 . S
H354 C361 0.950 . S
C355 C353 1.387 . S
C355 C357 1.390 . S
C355 H359 0.950 . S
H356 C352 0.950 . S
C357 C355 1.390 . S
C357 C358 1.387 . S
C357 H360 0.950 . S
C358 C357 1.387 . S
C358 C361 1.387 . S
H359 C355 0.950 . S
H360 C357 0.950 . S
C361 C352 1.390 . S
C361 H354 0.950 . S
C361 C358 1.387 . S
C362 C363 1.387 . S
C362 H366 0.950 . S
C362 C371 1.390 . S
C363 C362 1.387 . S
C363 C365 1.387 . S
H364 C371 0.950 . S
C365 C363 1.387 . S
C365 C367 1.390 . S
C365 H369 0.950 . S
H366 C362 0.950 . S
C367 C365 1.390 . S
C367 C368 1.387 . S
C367 H370 0.950 . S
C368 C367 1.387 . S
C368 C371 1.387 . S
H369 C365 0.950 . S
H370 C367 0.950 . S
C371 C362 1.390 . S
C371 H364 0.950 . S
C371 C368 1.387 . S
C372 C373 1.387 . S
C372 H376 0.950 . S
C372 C381 1.390 . S
C373 C372 1.387 . S
C373 C375 1.387 . S
H374 C381 0.950 . S
C375 C373 1.387 . S
C375 C377 1.390 . S
C375 H379 0.950 . S
H376 C372 0.950 . S
C377 C375 1.390 . S
C377 C378 1.387 . S
C377 H380 0.950 . S
C378 C377 1.387 . S
C378 C381 1.387 . S
H379 C375 0.950 . S
H380 C377 0.950 . S
C381 C372 1.390 . S
C381 H374 0.950 . S
C381 C378 1.387 . S
C382 C383 1.387 . S
C382 H386 0.950 . S
C382 C391 1.390 . S
C383 C382 1.387 . S
C383 C385 1.387 . S
H384 C391 0.950 . S
C385 C383 1.387 . S
C385 C387 1.390 . S
C385 H389 0.950 . S
H386 C382 0.950 . S
C387 C385 1.390 . S
C387 C388 1.387 . S
C387 H390 0.950 . S
C388 C387 1.387 . S
C388 C391 1.387 . S
H389 C385 0.950 . S
H390 C387 0.950 . S
C391 C382 1.390 . S
C391 H384 0.950 . S
C391 C388 1.387 . S
C392 C393 1.387 . S
C392 H396 0.950 . S
C392 C401 1.390 . S
C393 C392 1.387 . S
C393 C395 1.387 . S
H394 C401 0.950 . S
C395 C393 1.387 . S
C395 C397 1.390 . S
C395 H399 0.950 . S
H396 C392 0.950 . S
C397 C395 1.390 . S
C397 C398 1.387 . S
C397 H400 0.950 . S
C398 C397 1.387 . S
C398 C401 1.387 . S
H399 C395 0.950 . S
H400 C397 0.950 . S
C401 C392 1.390 . S
C401 H394 0.950 . S
C401 C398 1.387 . S
C402 C403 1.387 . S
C402 H406 0.950 . S
C402 C411 1.390 . S
C403 C402 1.387 . S
C403 C405 1.387 . S
H404 C411 0.950 . S
C405 C403 1.387 . S
C405 C407 1.390 . S
C405 H409 0.950 . S
H406 C402 0.950 . S
C407 C405 1.390 . S
C407 C408 1.387 . S
C407 H410 0.950 . S
C408 C407 1.387 . S
C408 C411 1.387 . S
H409 C405 0.950 . S
H410 C407 0.950 . S
C411 C402 1.390 . S
C411 H404 0.950 . S
C411 C408 1.387 . S
C412 C413 1.387 . S
C412 H416 0.950 . S
C412 C421 1.390 . S
C413 C412 1.387 . S
C413 C415 1.387 . S
H414 C421 0.950 . S
C415 C413 1.387 . S
C415 C417 1.390 . S
C415 H419 0.950 . S
H416 C412 0.950 . S
C417 C415 1.390 . S
C417 C418 1.387 . S
C417 H420 0.950 . S
C418 C417 1.387 . S
C418 C421 1.387 . S
H419 C415 0.950 . S
H420 C417 0.950 . S
C421 C412 1.390 . S
C421 H414 0.950 . S
C421 C418 1.387 . S
C422 C423 1.387 . S
C422 H426 0.950 . S
C422 C431 1.390 . S
C423 C422 1.387 . S
C423 C425 1.387 . S
H424 C431 0.950 . S
C425 C423 1.387 . S
C425 C427 1.390 . S
C425 H429 0.950 . S
H426 C422 0.950 . S
C427 C425 1.390 . S
C427 C428 1.387 . S
C427 H430 0.950 . S
C428 C427 1.387 . S
C428 C431 1.387 . S
H429 C425 0.950 . S
H430 C427 0.950 . S
C431 C422 1.390 . S
C431 H424 0.950 . S
C431 C428 1.387 . S
C193 C45 1.603 . S
C198 C112 1.573 . S
C203 C30 1.581 . S
C208 C123 1.614 1_554 S
C213 C39 1.607 . S
C218 C134 1.577 . S
C228 C145 1.554 . S
C223 C34 1.582 . S
C233 C97 1.603 . S
C238 C156 1.572 . S
C248 C167 1.614 . S
C243 C82 1.580 . S
C258 C178 1.577 . S
C253 C91 1.607 . S
C268 C189 1.554 . S
C263 C86 1.582 . S
C278 C175 1.112 . S
C273 C26 1.356 . S
C288 C186 1.220 . S
C283 C36 1.483 . S
C298 C153 1.113 . S
C293 C32 1.359 . S
C308 C166 1.572 . S
C303 C42 1.511 . S
C313 C18 1.527 . S
C318 C164 1.555 . S
C328 C177 1.704 . S
C323 C50 1.714 . S
C333 C4 1.567 . S
C338 C188 1.553 . S
C343 C48 1.706 . S
C348 C155 1.708 . S
C358 C131 1.106 . S
C353 C78 1.354 . S
C363 C88 1.483 . S
C368 C142 1.219 . S
C378 C109 1.114 . S
C373 C84 1.359 . S
C388 C122 1.572 . S
C383 C94 1.511 . S
C398 C120 1.556 . S
C393 C70 1.527 . S
C408 C133 1.704 . S
C403 C102 1.712 . S
C413 C56 1.563 . S
C418 C144 1.552 . S
C423 C100 1.706 . S
C428 C111 1.708 . S
