# Generated by pormake.
# Topology gar, (4,6)-cn, num edge types: 1
# Building blocks:
#     Node 0, Type 0, BuildingBlock: QUQFOY_clean_sbu_1, # of connection points: 4
#     Node 1, Type 0, BuildingBlock: QUQFOY_clean_sbu_1, # of connection points: 4
#     Node 2, Type 0, BuildingBlock: QUQFOY_clean_sbu_1, # of connection points: 4
#     Node 3, Type 0, BuildingBlock: QUQFOY_clean_sbu_1, # of connection points: 4
#     Node 4, Type 0, BuildingBlock: QUQFOY_clean_sbu_1, # of connection points: 4
#     Node 5, Type 0, BuildingBlock: QUQFOY_clean_sbu_1, # of connection points: 4
#     Node 6, Type 0, BuildingBlock: QUQFOY_clean_sbu_1, # of connection points: 4
#     Node 7, Type 0, BuildingBlock: QUQFOY_clean_sbu_1, # of connection points: 4
#     Node 8, Type 0, BuildingBlock: QUQFOY_clean_sbu_1, # of connection points: 4
#     Node 9, Type 0, BuildingBlock: QUQFOY_clean_sbu_1, # of connection points: 4
#     Node 10, Type 0, BuildingBlock: QUQFOY_clean_sbu_1, # of connection points: 4
#     Node 11, Type 0, BuildingBlock: QUQFOY_clean_sbu_1, # of connection points: 4
#     Node 12, Type 0, BuildingBlock: QUQFOY_clean_sbu_1, # of connection points: 4
#     Node 13, Type 0, BuildingBlock: QUQFOY_clean_sbu_1, # of connection points: 4
#     Node 14, Type 0, BuildingBlock: QUQFOY_clean_sbu_1, # of connection points: 4
#     Node 15, Type 0, BuildingBlock: QUQFOY_clean_sbu_1, # of connection points: 4
#     Node 16, Type 0, BuildingBlock: QUQFOY_clean_sbu_1, # of connection points: 4
#     Node 17, Type 0, BuildingBlock: QUQFOY_clean_sbu_1, # of connection points: 4
#     Node 18, Type 0, BuildingBlock: QUQFOY_clean_sbu_1, # of connection points: 4
#     Node 19, Type 0, BuildingBlock: QUQFOY_clean_sbu_1, # of connection points: 4
#     Node 20, Type 0, BuildingBlock: QUQFOY_clean_sbu_1, # of connection points: 4
#     Node 21, Type 0, BuildingBlock: QUQFOY_clean_sbu_1, # of connection points: 4
#     Node 22, Type 0, BuildingBlock: QUQFOY_clean_sbu_1, # of connection points: 4
#     Node 23, Type 0, BuildingBlock: QUQFOY_clean_sbu_1, # of connection points: 4
#     Node 24, Type 1, BuildingBlock: KUMJIN_clean_sbu_1, # of connection points: 6
#     Node 25, Type 1, BuildingBlock: KUMJIN_clean_sbu_1, # of connection points: 6
#     Node 26, Type 1, BuildingBlock: KUMJIN_clean_sbu_1, # of connection points: 6
#     Node 27, Type 1, BuildingBlock: KUMJIN_clean_sbu_1, # of connection points: 6
#     Node 28, Type 1, BuildingBlock: KUMJIN_clean_sbu_1, # of connection points: 6
#     Node 29, Type 1, BuildingBlock: KUMJIN_clean_sbu_1, # of connection points: 6
#     Node 30, Type 1, BuildingBlock: KUMJIN_clean_sbu_1, # of connection points: 6
#     Node 31, Type 1, BuildingBlock: KUMJIN_clean_sbu_1, # of connection points: 6
#     Node 32, Type 1, BuildingBlock: KUMJIN_clean_sbu_1, # of connection points: 6
#     Node 33, Type 1, BuildingBlock: KUMJIN_clean_sbu_1, # of connection points: 6
#     Node 34, Type 1, BuildingBlock: KUMJIN_clean_sbu_1, # of connection points: 6
#     Node 35, Type 1, BuildingBlock: KUMJIN_clean_sbu_1, # of connection points: 6
#     Node 36, Type 1, BuildingBlock: KUMJIN_clean_sbu_1, # of connection points: 6
#     Node 37, Type 1, BuildingBlock: KUMJIN_clean_sbu_1, # of connection points: 6
#     Node 38, Type 1, BuildingBlock: KUMJIN_clean_sbu_1, # of connection points: 6
#     Node 39, Type 1, BuildingBlock: KUMJIN_clean_sbu_1, # of connection points: 6
#     Edge 40, Type (0, 1), BuildingBlock: XIVTED_clean_linker_0, # of connection points: 2
#     Edge 41, Type (0, 1), BuildingBlock: XIVTED_clean_linker_0, # of connection points: 2
#     Edge 42, Type (0, 1), BuildingBlock: XIVTED_clean_linker_0, # of connection points: 2
#     Edge 43, Type (0, 1), BuildingBlock: XIVTED_clean_linker_0, # of connection points: 2
#     Edge 44, Type (0, 1), BuildingBlock: XIVTED_clean_linker_0, # of connection points: 2
#     Edge 45, Type (0, 1), BuildingBlock: XIVTED_clean_linker_0, # of connection points: 2
#     Edge 46, Type (0, 1), BuildingBlock: XIVTED_clean_linker_0, # of connection points: 2
#     Edge 47, Type (0, 1), BuildingBlock: XIVTED_clean_linker_0, # of connection points: 2
#     Edge 48, Type (0, 1), BuildingBlock: XIVTED_clean_linker_0, # of connection points: 2
#     Edge 49, Type (0, 1), BuildingBlock: XIVTED_clean_linker_0, # of connection points: 2
#     Edge 50, Type (0, 1), BuildingBlock: XIVTED_clean_linker_0, # of connection points: 2
#     Edge 51, Type (0, 1), BuildingBlock: XIVTED_clean_linker_0, # of connection points: 2
#     Edge 52, Type (0, 1), BuildingBlock: XIVTED_clean_linker_0, # of connection points: 2
#     Edge 53, Type (0, 1), BuildingBlock: XIVTED_clean_linker_0, # of connection points: 2
#     Edge 54, Type (0, 1), BuildingBlock: XIVTED_clean_linker_0, # of connection points: 2
#     Edge 55, Type (0, 1), BuildingBlock: XIVTED_clean_linker_0, # of connection points: 2
#     Edge 56, Type (0, 1), BuildingBlock: XIVTED_clean_linker_0, # of connection points: 2
#     Edge 57, Type (0, 1), BuildingBlock: XIVTED_clean_linker_0, # of connection points: 2
#     Edge 58, Type (0, 1), BuildingBlock: XIVTED_clean_linker_0, # of connection points: 2
#     Edge 59, Type (0, 1), BuildingBlock: XIVTED_clean_linker_0, # of connection points: 2
#     Edge 60, Type (0, 1), BuildingBlock: XIVTED_clean_linker_0, # of connection points: 2
#     Edge 61, Type (0, 1), BuildingBlock: XIVTED_clean_linker_0, # of connection points: 2
#     Edge 62, Type (0, 1), BuildingBlock: XIVTED_clean_linker_0, # of connection points: 2
#     Edge 63, Type (0, 1), BuildingBlock: XIVTED_clean_linker_0, # of connection points: 2
#     Edge 64, Type (0, 1), BuildingBlock: XIVTED_clean_linker_0, # of connection points: 2
#     Edge 65, Type (0, 1), BuildingBlock: XIVTED_clean_linker_0, # of connection points: 2
#     Edge 66, Type (0, 1), BuildingBlock: XIVTED_clean_linker_0, # of connection points: 2
#     Edge 67, Type (0, 1), BuildingBlock: XIVTED_clean_linker_0, # of connection points: 2
#     Edge 68, Type (0, 1), BuildingBlock: XIVTED_clean_linker_0, # of connection points: 2
#     Edge 69, Type (0, 1), BuildingBlock: XIVTED_clean_linker_0, # of connection points: 2
#     Edge 70, Type (0, 1), BuildingBlock: XIVTED_clean_linker_0, # of connection points: 2
#     Edge 71, Type (0, 1), BuildingBlock: XIVTED_clean_linker_0, # of connection points: 2
#     Edge 72, Type (0, 1), BuildingBlock: XIVTED_clean_linker_0, # of connection points: 2
#     Edge 73, Type (0, 1), BuildingBlock: XIVTED_clean_linker_0, # of connection points: 2
#     Edge 74, Type (0, 1), BuildingBlock: XIVTED_clean_linker_0, # of connection points: 2
#     Edge 75, Type (0, 1), BuildingBlock: XIVTED_clean_linker_0, # of connection points: 2
#     Edge 76, Type (0, 1), BuildingBlock: XIVTED_clean_linker_0, # of connection points: 2
#     Edge 77, Type (0, 1), BuildingBlock: XIVTED_clean_linker_0, # of connection points: 2
#     Edge 78, Type (0, 1), BuildingBlock: XIVTED_clean_linker_0, # of connection points: 2
#     Edge 79, Type (0, 1), BuildingBlock: XIVTED_clean_linker_0, # of connection points: 2
#     Edge 80, Type (0, 1), BuildingBlock: XIVTED_clean_linker_0, # of connection points: 2
#     Edge 81, Type (0, 1), BuildingBlock: XIVTED_clean_linker_0, # of connection points: 2
#     Edge 82, Type (0, 1), BuildingBlock: XIVTED_clean_linker_0, # of connection points: 2
#     Edge 83, Type (0, 1), BuildingBlock: XIVTED_clean_linker_0, # of connection points: 2
#     Edge 84, Type (0, 1), BuildingBlock: XIVTED_clean_linker_0, # of connection points: 2
#     Edge 85, Type (0, 1), BuildingBlock: XIVTED_clean_linker_0, # of connection points: 2
#     Edge 86, Type (0, 1), BuildingBlock: XIVTED_clean_linker_0, # of connection points: 2
#     Edge 87, Type (0, 1), BuildingBlock: XIVTED_clean_linker_0, # of connection points: 2
#     Edge 88, Type (0, 1), BuildingBlock: XIVTED_clean_linker_0, # of connection points: 2
#     Edge 89, Type (0, 1), BuildingBlock: XIVTED_clean_linker_0, # of connection points: 2
#     Edge 90, Type (0, 1), BuildingBlock: XIVTED_clean_linker_0, # of connection points: 2
#     Edge 91, Type (0, 1), BuildingBlock: XIVTED_clean_linker_0, # of connection points: 2
#     Edge 92, Type (0, 1), BuildingBlock: XIVTED_clean_linker_0, # of connection points: 2
#     Edge 93, Type (0, 1), BuildingBlock: XIVTED_clean_linker_0, # of connection points: 2
#     Edge 94, Type (0, 1), BuildingBlock: XIVTED_clean_linker_0, # of connection points: 2
#     Edge 95, Type (0, 1), BuildingBlock: XIVTED_clean_linker_0, # of connection points: 2
#     Edge 96, Type (0, 1), BuildingBlock: XIVTED_clean_linker_0, # of connection points: 2
#     Edge 97, Type (0, 1), BuildingBlock: XIVTED_clean_linker_0, # of connection points: 2
#     Edge 98, Type (0, 1), BuildingBlock: XIVTED_clean_linker_0, # of connection points: 2
#     Edge 99, Type (0, 1), BuildingBlock: XIVTED_clean_linker_0, # of connection points: 2
#     Edge 100, Type (0, 1), BuildingBlock: XIVTED_clean_linker_0, # of connection points: 2
#     Edge 101, Type (0, 1), BuildingBlock: XIVTED_clean_linker_0, # of connection points: 2
#     Edge 102, Type (0, 1), BuildingBlock: XIVTED_clean_linker_0, # of connection points: 2
#     Edge 103, Type (0, 1), BuildingBlock: XIVTED_clean_linker_0, # of connection points: 2
#     Edge 104, Type (0, 1), BuildingBlock: XIVTED_clean_linker_0, # of connection points: 2
#     Edge 105, Type (0, 1), BuildingBlock: XIVTED_clean_linker_0, # of connection points: 2
#     Edge 106, Type (0, 1), BuildingBlock: XIVTED_clean_linker_0, # of connection points: 2
#     Edge 107, Type (0, 1), BuildingBlock: XIVTED_clean_linker_0, # of connection points: 2
#     Edge 108, Type (0, 1), BuildingBlock: XIVTED_clean_linker_0, # of connection points: 2
#     Edge 109, Type (0, 1), BuildingBlock: XIVTED_clean_linker_0, # of connection points: 2
#     Edge 110, Type (0, 1), BuildingBlock: XIVTED_clean_linker_0, # of connection points: 2
#     Edge 111, Type (0, 1), BuildingBlock: XIVTED_clean_linker_0, # of connection points: 2
#     Edge 112, Type (0, 1), BuildingBlock: XIVTED_clean_linker_0, # of connection points: 2
#     Edge 113, Type (0, 1), BuildingBlock: XIVTED_clean_linker_0, # of connection points: 2
#     Edge 114, Type (0, 1), BuildingBlock: XIVTED_clean_linker_0, # of connection points: 2
#     Edge 115, Type (0, 1), BuildingBlock: XIVTED_clean_linker_0, # of connection points: 2
#     Edge 116, Type (0, 1), BuildingBlock: XIVTED_clean_linker_0, # of connection points: 2
#     Edge 117, Type (0, 1), BuildingBlock: XIVTED_clean_linker_0, # of connection points: 2
#     Edge 118, Type (0, 1), BuildingBlock: XIVTED_clean_linker_0, # of connection points: 2
#     Edge 119, Type (0, 1), BuildingBlock: XIVTED_clean_linker_0, # of connection points: 2
#     Edge 120, Type (0, 1), BuildingBlock: XIVTED_clean_linker_0, # of connection points: 2
#     Edge 121, Type (0, 1), BuildingBlock: XIVTED_clean_linker_0, # of connection points: 2
#     Edge 122, Type (0, 1), BuildingBlock: XIVTED_clean_linker_0, # of connection points: 2
#     Edge 123, Type (0, 1), BuildingBlock: XIVTED_clean_linker_0, # of connection points: 2
#     Edge 124, Type (0, 1), BuildingBlock: XIVTED_clean_linker_0, # of connection points: 2
#     Edge 125, Type (0, 1), BuildingBlock: XIVTED_clean_linker_0, # of connection points: 2
#     Edge 126, Type (0, 1), BuildingBlock: XIVTED_clean_linker_0, # of connection points: 2
#     Edge 127, Type (0, 1), BuildingBlock: XIVTED_clean_linker_0, # of connection points: 2
#     Edge 128, Type (0, 1), BuildingBlock: XIVTED_clean_linker_0, # of connection points: 2
#     Edge 129, Type (0, 1), BuildingBlock: XIVTED_clean_linker_0, # of connection points: 2
#     Edge 130, Type (0, 1), BuildingBlock: XIVTED_clean_linker_0, # of connection points: 2
#     Edge 131, Type (0, 1), BuildingBlock: XIVTED_clean_linker_0, # of connection points: 2
#     Edge 132, Type (0, 1), BuildingBlock: XIVTED_clean_linker_0, # of connection points: 2
#     Edge 133, Type (0, 1), BuildingBlock: XIVTED_clean_linker_0, # of connection points: 2
#     Edge 134, Type (0, 1), BuildingBlock: XIVTED_clean_linker_0, # of connection points: 2
#     Edge 135, Type (0, 1), BuildingBlock: XIVTED_clean_linker_0, # of connection points: 2
# Relax obj value: 0.092
# Max RMSD: 0.189
# Mean RMSD: 0.141
data_MOF--net-gar--node1-QUQFOY_clean_sbu_1--node2-KUMJIN_clean_sbu_1--edge1-XIVTED_clean_linker_0
_symmetry_space_group_name_H-M    P1
_symmetry_Int_Tables_number       1
_symmetry_cell_setting            triclinic
loop_
_symmetry_equiv_pos_as_xyz
'x, y, z'
_cell_length_a     60.873083
_cell_length_b     60.912857
_cell_length_c     57.432777
_cell_angle_alpha  96.587416
_cell_angle_beta   96.647858
_cell_angle_gamma 103.26149
loop_
_atom_site_label
_atom_site_type_symbol
_atom_site_fract_x
_atom_site_fract_y
_atom_site_fract_z
_atom_type_partial_charge
O0 O 0.06005 0.28863 0.37677 0.0
Cd1 Cd 0.06138 0.30776 0.3491 0.0
Cd2 Cd 0.04603 0.33631 0.39381 0.0
O3 O 0.05485 0.30976 0.40897 0.0
O4 O 0.0788 0.29175 0.32597 0.0
O5 O 0.09454 0.3253 0.34653 0.0
C6 C 0.09699 0.30811 0.33249 0.0
C7 C 0.04766 0.37071 0.41939 0.0
C8 C 0.05829 0.2914 0.39877 0.0
C9 C 1.01226 0.31659 0.34618 0.0
O10 O 0.01798 0.32605 0.36769 0.0
O11 O 0.0271 0.31006 0.33442 0.0
O12 O 0.03302 0.35195 0.42009 0.0
O13 O 0.06185 0.37009 0.40443 0.0
O14 O 1.01755 0.72654 0.70525 0.0
Cd15 Cd 0.02257 0.75492 0.73216 0.0
Cd16 Cd 0.04691 0.77787 0.697 0.0
O17 O 0.0348 0.74539 0.67902 0.0
O18 O 0.99704 0.74992 0.75397 0.0
O19 O 0.99859 0.77465 0.72915 0.0
C20 C 0.98775 0.76455 0.74461 0.0
C21 C 0.05083 0.80737 0.67339 0.0
C22 C 0.02438 0.72678 0.68501 0.0
C23 C 0.07637 0.7743 0.74204 0.0
O24 O 0.07468 0.78162 0.72227 0.0
O25 O 0.05823 0.76426 0.74994 0.0
O26 O 0.06309 0.79281 0.67245 0.0
O27 O 0.03576 0.8051 0.68755 0.0
O28 O 0.60013 0.82256 0.87561 0.0
Cd29 Cd 0.57433 0.82003 0.89632 0.0
Cd30 Cd 0.55088 0.83373 0.8554 0.0
O31 O 0.5813 0.82625 0.84148 0.0
O32 O 0.58345 0.80329 0.92248 0.0
O33 O 0.55235 0.78978 0.89617 0.0
C34 C 0.56544 0.78718 0.9145 0.0
C35 C 0.51024 0.82143 0.83933 0.0
C36 C 0.59969 0.82394 0.85363 0.0
C37 C 0.56228 0.86538 0.90348 0.0
O38 O 0.55639 0.86297 0.88107 0.0
O39 O 0.56875 0.84963 0.91297 0.0
O40 O 0.52441 0.83631 0.83049 0.0
O41 O 0.51926 0.81184 0.85565 0.0
O42 O 0.51913 0.21126 0.19874 0.0
Cd43 Cd 0.52376 0.24003 0.22543 0.0
Cd44 Cd 0.54401 0.26175 0.18938 0.0
O45 O 0.53213 0.22978 0.17027 0.0
O46 O 0.49801 0.23382 0.24677 0.0
O47 O 0.4997 0.25981 0.22342 0.0
C48 C 0.48873 0.24887 0.23827 0.0
C49 C 0.54175 0.29357 0.17058 0.0
C50 C 0.52383 0.21113 0.17757 0.0
C51 C 0.57685 0.26037 0.23305 0.0
O52 O 0.57337 0.26568 0.21243 0.0
O53 O 0.55962 0.25119 0.24285 0.0
O54 O 0.55498 0.28078 0.16482 0.0
O55 O 0.52926 0.288 0.18671 0.0
O56 O 0.06552 0.76634 0.12104 0.0
Cd57 Cd 0.06941 0.79674 0.14265 0.0
Cd58 Cd 0.08914 0.81437 0.10396 0.0
O59 O 0.07753 0.77793 0.0886 0.0
O60 O 0.05417 0.78586 0.16967 0.0
O61 O 0.04221 0.80972 0.14823 0.0
C62 C 0.03985 0.79798 0.1655 0.0
C63 C 0.08001 0.84926 0.09094 0.0
C64 C 0.06967 0.76153 0.10013 0.0
C65 C 0.12006 0.81694 0.15111 0.0
O66 O 0.11888 0.81942 0.12922 0.0
O67 O 0.10198 0.81027 0.16003 0.0
O68 O 0.09438 0.8395 0.08168 0.0
O69 O 0.06979 0.83877 0.10657 0.0
O70 O 0.55935 0.78305 0.46004 0.0
Cd71 Cd 0.54053 0.78146 0.48817 0.0
Cd72 Cd 0.50814 0.79339 0.44532 0.0
O73 O 0.53405 0.78424 0.42928 0.0
O74 O 0.55592 0.76331 0.511 0.0
O75 O 0.52224 0.74842 0.49027 0.0
C76 C 0.5392 0.74544 0.50431 0.0
C77 C 0.47354 0.79063 0.41938 0.0
C78 C 0.55385 0.78284 0.43789 0.0
C79 C 0.52918 0.82948 0.49101 0.0
O80 O 0.51836 0.82257 0.47011 0.0
O81 O 0.53755 0.81559 0.50269 0.0
O82 O 0.49213 0.8054 0.41847 0.0
O83 O 0.47432 0.77708 0.43498 0.0
O84 O 0.5766 0.26768 0.62433 0.0
Cd85 Cd 0.58071 0.2967 0.64793 0.0
Cd86 Cd 0.60181 0.31656 0.6107 0.0
O87 O 0.59007 0.28095 0.59324 0.0
O88 O 0.56438 0.28281 0.67291 0.0
O89 O 0.55345 0.30918 0.65463 0.0
C90 C 0.55011 0.29518 0.66984 0.0
C91 C 0.59279 0.35163 0.59806 0.0
C92 C 0.58122 0.26393 0.60347 0.0
C93 C 0.63156 0.3163 0.65823 0.0
O94 O 0.631 0.32036 0.63679 0.0
O95 O 0.61312 0.30886 0.66629 0.0
O96 O 0.60765 0.34228 0.58924 0.0
O97 O 0.58225 0.34082 0.61326 0.0
O98 O 0.02084 0.23664 0.9616 0.0
Cd99 Cd 0.02215 0.26275 0.94136 0.0
Cd100 Cd 1.00584 0.28342 0.98224 0.0
O101 O 1.01455 0.2531 0.99573 0.0
O102 O 0.03825 0.25358 0.91469 0.0
O103 O 0.05222 0.28482 0.9406 0.0
C104 C 0.05442 0.27162 0.9222 0.0
C105 C 0.01795 0.32424 0.99844 0.0
C106 C 0.01865 0.23577 0.98327 0.0
C107 C 0.97535 0.27236 0.93343 0.0
O108 O 0.97665 0.27722 0.95589 0.0
O109 O 0.99214 0.26752 0.92455 0.0
O110 O 1.00281 0.31001 0.00693 0.0
O111 O 0.02777 0.31522 0.98235 0.0
O112 O 0.38611 0.03392 0.27468 0.0
Cd113 Cd 0.37644 0.03917 0.30748 0.0
Cd114 Cd 0.41545 0.03604 0.32115 0.0
O115 O 0.42221 0.04664 0.28974 0.0
O116 O 0.35271 0.05569 0.30471 0.0
O117 O 0.38733 0.07006 0.32569 0.0
C118 C 0.36747 0.07263 0.31765 0.0
C119 C 0.44283 0.04861 0.35402 0.0
C120 C 0.4068 0.04067 0.27183 0.0
C121 C 0.37623 0.9972 0.32295 0.0
O122 O 0.39702 1.00304 0.32012 0.0
O123 O 0.36419 1.01152 0.32239 0.0
O124 O 0.44558 0.03484 0.33647 0.0
O125 O 0.42461 0.05612 0.35249 0.0
O126 O 0.2979 0.1974 0.57141 0.0
Cd127 Cd 0.29394 0.17287 0.54262 0.0
Cd128 Cd 0.27352 0.20423 0.5218 0.0
O129 O 0.28415 0.22377 0.55565 0.0
O130 O 0.30764 0.15061 0.55792 0.0
O131 O 0.32134 0.16673 0.52844 0.0
C132 C 0.32245 0.15284 0.54362 0.0
C133 C 0.28057 0.21746 0.48539 0.0
C134 C 0.293 0.21663 0.57367 0.0
C135 C 0.2437 0.15801 0.52498 0.0
O136 O 0.24463 0.17797 0.51995 0.0
O137 O 0.26172 0.15242 0.53266 0.0
O138 O 0.26601 0.22388 0.49755 0.0
O139 O 0.29204 0.20424 0.4944 0.0
O140 O 0.1371 0.0456 0.75793 0.0
Cd141 Cd 0.16266 0.04843 0.78552 0.0
Cd142 Cd 0.13253 0.06948 0.80976 0.0
O143 O 0.11361 0.06243 0.7756 0.0
O144 O 0.184 0.03535 0.76797 0.0
O145 O 0.16945 0.02034 0.79763 0.0
C146 C 0.18243 0.01981 0.78145 0.0
C147 C 0.11707 0.06122 0.84473 0.0
C148 C 0.11906 0.05276 0.75696 0.0
C149 C 0.17945 0.098 0.80761 0.0
O150 O 0.16019 0.09726 0.81442 0.0
O151 O 0.18353 0.08036 0.79676 0.0
O152 O 0.11254 0.07718 0.83347 0.0
O153 O 0.12964 0.04909 0.83557 0.0
O154 O 0.29324 0.95426 0.06466 0.0
Cd155 Cd 0.29539 0.96926 0.03464 0.0
Cd156 Cd 0.29805 0.93069 0.01476 0.0
O157 O 0.28347 0.92041 0.04311 0.0
O158 O 0.27734 0.99173 0.03399 0.0
O159 O 0.26893 0.95883 0.00932 0.0
C160 C 0.2639 0.97764 0.01685 0.0
C161 C 0.28923 0.9042 0.98087 0.0
C162 C 0.28586 0.93282 0.06294 0.0
C163 C 0.33946 0.97008 0.02329 0.0
O164 O 0.33152 0.94865 0.01978 0.0
O165 O 0.32661 0.98319 0.02747 0.0
O166 O 0.3016 0.90138 0.99945 0.0
O167 O 0.28118 0.92206 0.98166 0.0
O168 O 0.30427 0.39329 0.0964 0.0
Cd169 Cd 0.30668 0.41303 0.06968 0.0
Cd170 Cd 0.32041 0.37636 0.04787 0.0
O171 O 0.30995 0.36188 0.07746 0.0
O172 O 0.29003 0.43649 0.07834 0.0
O173 O 0.27943 0.41095 0.04584 0.0
C174 C 0.27598 0.42809 0.05914 0.0
C175 C 0.31091 0.3578 0.00833 0.0
C176 C 0.3053 0.37265 0.09593 0.0
C177 C 0.35406 0.42259 0.05872 0.0
O178 O 0.35077 0.40116 0.05315 0.0
O179 O 0.33807 0.43117 0.06468 0.0
O180 O 0.32518 0.35209 0.02348 0.0
O181 O 0.30078 0.37306 0.01603 0.0
O182 O 0.78472 0.13451 0.1114 0.0
Cd183 Cd 0.78014 0.11145 0.08191 0.0
Cd184 Cd 0.77158 0.14373 0.05603 0.0
O185 O 0.77928 0.16073 0.08946 0.0
O186 O 0.80235 0.09277 0.0817 0.0
O187 O 0.80059 0.11976 0.05879 0.0
C188 C 0.80998 0.10407 0.06534 0.0
C189 C 0.7783 0.16781 0.02805 0.0
C190 C 0.78353 0.15473 0.10952 0.0
C191 C 0.73523 0.10021 0.05369 0.0
O192 O 0.74182 0.11932 0.04674 0.0
O193 O 0.74811 0.09329 0.06859 0.0
O194 O 0.76278 0.16851 0.04126 0.0
O195 O 0.79039 0.15318 0.03063 0.0
O196 O 0.20505 0.55093 0.22805 0.0
Cd197 Cd 0.22697 0.55649 0.2586 0.0
Cd198 Cd 0.19217 0.56005 0.28007 0.0
O199 O 0.17581 0.54323 0.24752 0.0
O200 O 0.24901 0.53798 0.25644 0.0
O201 O 0.22255 0.53409 0.28063 0.0
C202 C 0.23949 0.52781 0.27261 0.0
C203 C 0.17043 0.55313 0.31015 0.0
C204 C 0.18387 0.54365 0.22818 0.0
C205 C 0.23076 0.60173 0.28095 0.0
O206 O 0.21023 0.59365 0.28371 0.0
O207 O 0.24229 0.58889 0.27224 0.0
O208 O 0.16486 0.56409 0.29352 0.0
O209 O 0.18866 0.54578 0.30987 0.0
O210 O 0.80931 0.8997 0.60386 0.0
Cd211 Cd 0.81252 0.91809 0.5766 0.0
Cd212 Cd 0.82789 0.88241 0.55611 0.0
O213 O 0.81947 0.86956 0.58776 0.0
O214 O 0.79456 0.9406 0.58322 0.0
O215 O 0.78624 0.91442 0.55119 0.0
C216 C 0.78152 0.93136 0.5636 0.0
C217 C 0.81651 0.86213 0.51731 0.0
C218 C 0.81262 0.88004 0.60504 0.0
C219 C 0.85936 0.93011 0.56491 0.0
O220 O 0.85666 0.90901 0.55761 0.0
O221 O 0.84368 0.93737 0.57348 0.0
O222 O 0.83211 0.85761 0.53188 0.0
O223 O 0.80606 0.87698 0.52535 0.0
O224 O 0.94665 0.03153 0.23766 0.0
Cd225 Cd 0.92802 0.02875 0.26514 0.0
Cd226 Cd 0.96372 0.01276 0.28383 0.0
O227 O 0.97775 0.02321 0.254 0.0
O228 O 0.90414 0.0443 0.25524 0.0
O229 O 0.92829 0.05569 0.28874 0.0
C230 C 0.91128 0.05832 0.27461 0.0
C231 C 0.98134 0.02415 0.32348 0.0
C232 C 0.96673 0.02927 0.2366 0.0
C233 C 0.91711 0.9807 0.27436 0.0
O234 O 0.93848 0.98267 0.27883 0.0
O235 O 0.90942 0.99756 0.26959 0.0
O236 O 0.98784 1.00959 0.3094 0.0
O237 O 0.96577 0.0334 0.31462 0.0
O238 O 0.29025 0.64266 0.60572 0.0
Cd239 Cd 0.2848 0.61764 0.57792 0.0
Cd240 Cd 0.27392 0.64759 0.55051 0.0
O241 O 0.28289 0.66752 0.58291 0.0
O242 O 0.30607 0.59858 0.58304 0.0
O243 O 0.30576 0.62031 0.55425 0.0
C244 C 0.31442 0.60595 0.56489 0.0
C245 C 0.276 0.66954 0.52002 0.0
C246 C 0.28847 0.66258 0.60322 0.0
C247 C 0.23897 0.6035 0.55274 0.0
O248 O 0.24466 0.62196 0.54427 0.0
O249 O 0.25283 0.59791 0.56774 0.0
O250 O 0.26178 0.67021 0.53474 0.0
O251 O 0.2895 0.65619 0.52244 0.0
O252 O 0.44602 0.53434 0.73713 0.0
Cd253 Cd 0.4259 0.53147 0.76346 0.0
Cd254 Cd 0.46168 0.51737 0.78527 0.0
O255 O 0.47699 0.52804 0.75638 0.0
O256 O 0.40285 0.54848 0.75474 0.0
O257 O 0.42788 0.55826 0.78772 0.0
C258 C 0.41107 0.56212 0.77423 0.0
C259 C 0.47944 0.5274 0.8249 0.0
C260 C 0.46665 0.53317 0.73794 0.0
C261 C 0.41552 0.48399 0.77367 0.0
O262 O 0.4369 0.48702 0.77958 0.0
O263 O 0.40726 0.50015 0.7677 0.0
O264 O 0.48551 0.51297 0.81028 0.0
O265 O 0.46416 0.53727 0.81664 0.0
O266 O 0.70345 0.04234 0.73079 0.0
Cd267 Cd 0.72638 0.04711 0.76074 0.0
Cd268 Cd 0.69398 0.05814 0.78462 0.0
O269 O 0.6763 0.04776 0.75138 0.0
O270 O 0.74394 0.02378 0.76139 0.0
O271 O 0.71777 0.0275 0.78473 0.0
C272 C 0.7326 0.01691 0.778 0.0
C273 C 0.67051 0.05507 0.81374 0.0
C274 C 0.68293 0.04311 0.73171 0.0
C275 C 0.73806 0.09369 0.7847 0.0
O276 O 0.71838 0.0882 0.79076 0.0
O277 O 0.74566 0.07924 0.77242 0.0
O278 O 0.66965 0.0689 0.7986 0.0
O279 O 0.68488 0.04254 0.81247 0.0
O280 O 0.79246 0.70359 0.07692 0.0
Cd281 Cd 0.78928 0.67957 0.04782 0.0
Cd282 Cd 0.76782 0.71188 0.02736 0.0
O283 O 0.77669 0.72942 0.06248 0.0
O284 O 0.80285 0.65702 0.06292 0.0
O285 O 0.81709 0.67387 0.03412 0.0
C286 C 0.81795 0.65961 0.04895 0.0
C287 C 0.77556 0.72815 0.99248 0.0
C288 C 0.78628 0.72214 0.08001 0.0
C289 C 0.73934 0.66394 0.02757 0.0
O290 O 0.73997 0.68389 0.02261 0.0
O291 O 0.75726 0.65899 0.03663 0.0
O292 O 0.75943 0.73204 0.00386 0.0
O293 O 0.78817 0.71591 1.0015 0.0
O294 O 0.89134 0.53651 0.77114 0.0
Cd295 Cd 0.87603 0.53318 0.80063 0.0
Cd296 Cd 0.91395 0.5304 0.82035 0.0
O297 O 0.92535 0.54454 0.79223 0.0
O298 O 0.85198 0.54909 0.80005 0.0
O299 O 0.88385 0.55886 0.82648 0.0
C300 C 0.86454 0.56248 0.8182 0.0
C301 C 0.93775 0.54056 0.85601 0.0
C302 C 0.91285 0.54282 0.77256 0.0
C303 C 0.87542 0.48883 0.81089 0.0
O304 O 0.89688 0.49668 0.81489 0.0
O305 O 0.86245 0.50177 0.80671 0.0
O306 O 0.94274 0.52864 0.83835 0.0
O307 O 0.91927 0.54752 0.85321 0.0
O308 O 0.80139 0.43942 0.57648 0.0
Cd309 Cd 0.80345 0.45724 0.54864 0.0
Cd310 Cd 0.80882 0.42161 0.52419 0.0
O311 O 0.79909 0.40753 0.55312 0.0
O312 O 0.78559 0.47979 0.55174 0.0
O313 O 0.77689 0.44966 0.52325 0.0
C314 C 0.77216 0.46775 0.53334 0.0
C315 C 0.7986 0.39725 0.4888 0.0
C316 C 0.79852 0.41797 0.57335 0.0
C317 C 0.84791 0.46308 0.53446 0.0
O318 O 0.84106 0.44201 0.52658 0.0
O319 O 0.8347 0.47371 0.54351 0.0
O320 O 0.81321 0.39439 0.50547 0.0
O321 O 0.78904 0.41393 0.49242 0.0
O322 O 0.63941 0.54523 0.26331 0.0
Cd323 Cd 0.66307 0.54866 0.29259 0.0
Cd324 Cd 0.63067 0.56744 0.3123 0.0
O325 O 0.61173 0.55725 0.27815 0.0
O326 O 0.68548 0.53609 0.27659 0.0
O327 O 0.66981 0.52113 0.30574 0.0
C328 C 0.68349 0.52071 0.29024 0.0
C329 C 0.61719 0.55947 0.34814 0.0
C330 C 0.61987 0.54937 0.2604 0.0
C331 C 0.67696 0.59822 0.31192 0.0
O332 O 0.65655 0.59679 0.31572 0.0
O333 O 0.68313 0.58061 0.30417 0.0
O334 O 0.61043 0.57394 0.33607 0.0
O335 O 0.63075 0.54842 0.33919 0.0
Eu336 Eu 0.07643 0.05886 0.0597 0.0
C337 C 1.01238 0.97706 1.00135 0.0
N338 N 0.01945 0.99869 0.99645 0.0
C339 C 0.02605 0.98406 0.95796 0.0
C340 C 1.01304 0.9581 0.98507 0.0
C341 C 0.0247 1.00224 0.97446 0.0
C342 C 0.02066 0.96192 0.96347 0.0
C343 C 0.99394 0.9515 0.02676 0.0
C344 C 1.00283 0.97369 0.02191 0.0
C345 C 0.99559 0.93266 0.01113 0.0
C346 C 1.00515 0.93596 0.99036 0.0
Eu347 Eu 1.01676 0.02804 0.02614 0.0
N348 N 1.00174 0.9922 0.03694 0.0
C349 C 0.98323 0.94891 0.04696 0.0
C350 C 0.9904 0.98988 0.056 0.0
C351 C 0.9812 0.96819 0.06147 0.0
H352 H 0.02712 0.01892 0.96914 0.0
H353 H 0.97257 0.96635 0.07685 0.0
H354 H 0.06247 0.08667 0.10684 0.0
H355 H 0.13553 0.09118 0.99928 0.0
H356 H 0.98872 1.00482 0.06707 0.0
H357 H 0.97613 0.93212 0.05126 0.0
H358 H 0.11362 0.06192 0.01952 0.0
H359 H 0.03072 0.98708 0.94077 0.0
H360 H 0.98906 0.91546 0.01467 0.0
H361 H 1.00572 0.92123 0.97815 0.0
H362 H 0.0673 0.12655 0.12552 0.0
H363 H 0.02138 0.94781 0.95048 0.0
H364 H 0.13715 0.13188 0.01138 0.0
N365 N 0.07929 0.0962 0.0778 0.0
C366 C 0.09176 0.1133 0.06805 0.0
C367 C 0.07405 0.12307 0.10924 0.0
C368 C 0.09489 0.13624 0.07801 0.0
C369 C 0.07125 0.10058 0.09864 0.0
C370 C 0.08568 0.141 0.09873 0.0
N371 N 0.1002 0.08537 0.04058 0.0
C372 C 0.11298 0.07943 0.02399 0.0
C373 C 0.11535 0.12515 0.0383 0.0
C374 C 0.10201 0.10773 0.04853 0.0
C375 C 0.12681 0.11901 0.01977 0.0
C376 C 0.12591 0.09605 0.01286 0.0
H377 H 0.0878 0.15841 0.10697 0.0
H378 H 0.10981 0.17137 0.07451 0.0
H379 H 0.12759 0.16168 0.03965 0.0
O380 O 0.11235 0.06625 0.07459 0.0
O381 O 0.05039 0.08114 0.05362 0.0
O382 O 0.02963 0.06449 0.01788 0.0
O383 O 0.08666 0.04997 0.09431 0.0
O384 O 0.07598 0.0409 0.02236 0.0
O385 O 0.04235 0.04557 0.00423 0.0
O386 O 0.98503 0.03729 0.03151 0.0
O387 O 0.03553 1.00801 0.05033 0.0
O388 O 0.07247 0.02091 0.04532 0.0
O389 O 0.98736 0.01746 0.99847 0.0
O390 O 1.01606 0.0455 0.06324 0.0
O391 O 0.05073 0.04406 0.08248 0.0
C392 C 0.03866 0.08299 0.0334 0.0
C393 C 0.11906 0.03591 0.09406 0.0
C394 C 0.13788 1.0088 0.07567 0.0
C395 C 0.13705 0.99763 0.09577 0.0
C396 C 0.11842 0.0248 0.11412 0.0
C397 C 0.12719 1.00556 0.11483 0.0
C398 C 0.1282 0.02741 0.07472 0.0
C399 C 0.06332 0.04382 0.0034 0.0
C400 C 0.10818 0.05484 0.09213 0.0
C401 C 0.10744 0.15362 0.06729 0.0
C402 C 0.11753 0.14809 0.04741 0.0
C403 C 0.05601 1.00434 0.04981 0.0
C404 C 0.96701 0.04559 0.9967 0.0
C405 C 0.93882 0.06756 0.99152 0.0
C406 C 0.95051 0.07845 0.97467 0.0
C407 C 0.97877 0.05653 0.9799 0.0
C408 C 0.94735 0.0513 1.00255 0.0
C409 C 0.97046 0.07291 0.96891 0.0
C410 C 0.02952 0.04506 0.08272 0.0
C411 C 0.97569 0.02942 0.00968 0.0
H412 H 0.14454 0.98324 0.09707 0.0
H413 H 0.11082 0.03077 0.129 0.0
H414 H 0.12661 0.99695 0.1303 0.0
H415 H 0.12781 0.0353 0.05874 0.0
H416 H 0.94422 0.09112 0.96594 0.0
H417 H 0.99443 0.05263 0.97551 0.0
H418 H 0.93905 0.04341 0.01631 0.0
H419 H 0.97953 0.08139 0.95603 0.0
Eu420 Eu 0.27393 0.78892 0.31109 0.0
C421 C 0.33217 0.7705 0.21816 0.0
N422 N 0.3367 0.77789 0.2419 0.0
C423 C 0.36353 0.75488 0.2465 0.0
C424 C 0.34305 0.75461 0.20774 0.0
C425 C 0.35244 0.77072 0.25606 0.0
C426 C 0.35876 0.7467 0.22227 0.0
C427 C 0.3121 0.77202 0.17953 0.0
C428 C 0.31652 0.77883 0.20428 0.0
C429 C 0.3227 0.75597 0.16914 0.0
C430 C 0.33806 0.74723 0.18321 0.0
Eu431 Eu 0.31717 0.80472 0.25603 0.0
N432 N 0.30637 0.79426 0.21477 0.0
C433 C 0.29764 0.78203 0.16584 0.0
C434 C 0.29358 0.80521 0.20136 0.0
C435 C 0.28865 0.79897 0.17678 0.0
H436 H 0.35644 0.77711 0.27472 0.0
H437 H 0.27818 0.80745 0.16626 0.0
H438 H 0.22177 0.79642 0.29892 0.0
H439 H 0.33554 0.82011 0.39302 0.0
H440 H 0.28743 0.81907 0.20951 0.0
H441 H 0.29391 0.77733 0.14677 0.0
H442 H 0.31887 0.79524 0.35584 0.0
H443 H 0.37584 0.74905 0.25782 0.0
H444 H 0.31937 0.75043 0.15018 0.0
H445 H 0.34622 0.73499 0.1749 0.0
H446 H 0.19774 0.82056 0.31461 0.0
H447 H 0.36745 0.73447 0.21492 0.0
H448 H 0.31571 0.8481 0.40959 0.0
N449 N 0.24963 0.81006 0.32648 0.0
C450 C 0.25763 0.82421 0.34723 0.0
C451 C 0.21461 0.82187 0.32391 0.0
C452 C 0.24455 0.83833 0.35688 0.0
C453 C 0.22829 0.80832 0.315 0.0
C454 C 0.22286 0.83712 0.34484 0.0
N455 N 0.2907 0.81002 0.34924 0.0
C456 C 0.3104 0.8079 0.3618 0.0
C457 C 0.28755 0.83859 0.38074 0.0
C458 C 0.27888 0.82433 0.35888 0.0
C459 C 0.30848 0.83746 0.39277 0.0
C460 C 0.31975 0.82177 0.38343 0.0
H461 H 0.21226 0.84766 0.35169 0.0
H462 H 0.2437 0.86411 0.38586 0.0
H463 H 0.28137 0.86432 0.40681 0.0
O464 O 0.26966 0.75873 0.32862 0.0
O465 O 0.28199 0.82624 0.30798 0.0
O466 O 0.31092 0.81859 0.29191 0.0
O467 O 0.24122 0.76371 0.30548 0.0
O468 O 0.30959 0.78077 0.3158 0.0
O469 O 0.33434 0.80191 0.29291 0.0
O470 O 0.32399 0.8385 0.24546 0.0
O471 O 0.30354 0.76649 0.25165 0.0
O472 O 0.28704 0.78067 0.27834 0.0
O473 O 0.35207 0.82341 0.25495 0.0
O474 O 0.27985 0.80773 0.24791 0.0
O475 O 0.25537 0.79378 0.27539 0.0
C476 C 0.29883 0.83312 0.29645 0.0
C477 C 0.23333 0.74758 0.34012 0.0
C478 C 0.22917 0.73548 0.37863 0.0
C479 C 0.208 0.74113 0.37764 0.0
C480 C 0.21203 0.753 0.33923 0.0
C481 C 0.19945 0.74972 0.35794 0.0
C482 C 0.24159 0.73856 0.35971 0.0
C483 C 0.33027 0.78942 0.31027 0.0
C484 C 0.24775 0.75218 0.32151 0.0
C485 C 0.25342 0.85301 0.37825 0.0
C486 C 0.27488 0.85315 0.39014 0.0
C487 C 0.28969 0.76231 0.26673 0.0
C488 C 0.35228 0.84136 0.22068 0.0
C489 C 0.34384 0.85284 0.18221 0.0
C490 C 0.3575 0.83946 0.17265 0.0
C491 C 0.36621 0.82823 0.21104 0.0
C492 C 0.34174 0.85411 0.20626 0.0
C493 C 0.36888 0.82745 0.18715 0.0
C494 C 0.25956 0.8022 0.25538 0.0
C495 C 0.34536 0.83892 0.24415 0.0
H496 H 0.19801 0.73875 0.39199 0.0
H497 H 0.20518 0.75997 0.32429 0.0
H498 H 0.18312 0.75402 0.35725 0.0
H499 H 0.25814 0.73463 0.36059 0.0
H500 H 0.35934 0.83832 0.15405 0.0
H501 H 0.37437 0.81791 0.22163 0.0
H502 H 0.33056 0.86385 0.21341 0.0
H503 H 0.37932 0.81706 0.17974 0.0
Eu504 Eu 0.5298 0.04253 0.5634 0.0
C505 C 0.6031 0.09156 0.50262 0.0
N506 N 0.58807 0.07075 0.49754 0.0
C507 C 0.5819 0.07507 0.45658 0.0
C508 C 0.60775 0.10519 0.48469 0.0
C509 C 0.57793 0.06211 0.4749 0.0
C510 C 0.59675 0.09677 0.46151 0.0
C511 C 0.62983 0.12065 0.53149 0.0
C512 C 0.61407 0.09921 0.52581 0.0
C513 C 0.63434 0.13432 0.51367 0.0
C514 C 0.62333 0.12662 0.49037 0.0
Eu515 Eu 0.58321 0.05024 0.52955 0.0
N516 N 0.60881 0.08598 0.54294 0.0
C517 C 0.64047 0.12779 0.55498 0.0
C518 C 0.61981 0.09241 0.56562 0.0
C519 C 0.63556 0.11352 0.57206 0.0
H520 H 0.56745 0.04491 0.47091 0.0
H521 H 0.64403 0.11871 0.59015 0.0
H522 H 0.54734 0.0355 0.61898 0.0
H523 H 0.46916 0.9837 0.4928 0.0
H524 H 0.61666 0.08126 0.57872 0.0
H525 H 0.65265 0.14416 0.56005 0.0
H526 H 0.49502 0.02026 0.51119 0.0
H527 H 0.57377 0.06819 0.43862 0.0
H528 H 0.64633 0.15088 0.51773 0.0
H529 H 0.62707 0.13735 0.47682 0.0
H530 H 0.54065 1.00559 0.64475 0.0
H531 H 0.5999 0.10673 0.44724 0.0
H532 H 0.46166 0.95156 0.51579 0.0
N533 N 0.52542 0.01498 0.58911 0.0
C534 C 0.51016 0.9948 0.58036 0.0
C535 C 0.53214 1.00226 0.62663 0.0
C536 C 0.50574 0.97727 0.59449 0.0
C537 C 0.53616 0.01907 0.61192 0.0
C538 C 0.51694 0.98124 0.61785 0.0
N539 N 0.50425 1.0085 0.54347 0.0
C540 C 0.49299 1.00617 0.52104 0.0
C541 C 0.48409 0.97036 0.54731 0.0
C542 C 0.49942 0.99142 0.55693 0.0
C543 C 0.47351 0.96749 0.52382 0.0
C544 C 0.47782 0.98554 0.51073 0.0
H545 H 0.51391 0.96823 0.62929 0.0
H546 H 0.48688 0.94269 0.59547 0.0
H547 H 0.46801 0.93662 0.55423 0.0
O548 O 0.49697 0.05204 0.55804 0.0
O549 O 0.54548 1.01144 0.55626 0.0
O550 O 0.55771 0.01516 0.52044 0.0
O551 O 0.51416 0.05208 0.59381 0.0
O552 O 0.52728 0.05564 0.52808 0.0
O553 O 0.54891 0.03632 0.50784 0.0
O554 O 0.61206 0.03655 0.54123 0.0
O555 O 0.57264 0.08388 0.53985 0.0
O556 O 0.5515 0.07933 0.57075 0.0
O557 O 0.60425 0.04005 0.50427 0.0
O558 O 0.58556 0.04032 0.56605 0.0
O559 O 0.56308 0.05792 0.58709 0.0
C560 C 0.55027 1.00212 0.53615 0.0
C561 C 0.47815 0.06253 0.59157 0.0
C562 C 0.44365 0.0763 0.58855 0.0
C563 C 0.44273 0.07489 0.61268 0.0
C564 C 0.47699 0.06128 0.61569 0.0
C565 C 0.45937 0.06749 0.62616 0.0
C566 C 0.46151 0.07027 0.57802 0.0
C567 C 0.5332 0.04773 0.50818 0.0
C568 C 0.49661 0.05543 0.58083 0.0
C569 C 0.49046 0.95635 0.58488 0.0
C570 C 0.47973 0.95289 0.56137 0.0
C571 C 0.56325 0.0924 0.55733 0.0
C572 C 0.61784 1.0085 0.51281 0.0
C573 C 0.63991 0.98008 0.51368 0.0
C574 C 0.62096 0.96363 0.5009 0.0
C575 C 0.59914 0.99205 0.49974 0.0
C576 C 0.63814 1.00251 0.51973 0.0
C577 C 0.6007 0.96966 0.49394 0.0
C578 C 0.58143 0.05036 0.58584 0.0
C579 C 0.61627 0.03185 0.51971 0.0
H580 H 0.42914 0.07965 0.62113 0.0
H581 H 0.4896 0.05533 0.62648 0.0
H582 H 0.45855 0.06647 0.64474 0.0
H583 H 0.4622 0.07127 0.55938 0.0
H584 H 0.62178 0.94611 0.49636 0.0
H585 H 0.58344 0.99657 0.49394 0.0
H586 H 0.65263 0.01544 0.52946 0.0
H587 H 0.58623 0.95697 0.48396 0.0
Eu588 Eu 0.32561 0.28028 0.79233 0.0
C589 C 0.24378 0.30031 0.73121 0.0
N590 N 0.25858 0.31469 0.74907 0.0
C591 C 0.26195 0.34516 0.72579 0.0
C592 C 0.23777 0.30787 0.70961 0.0
C593 C 0.26753 0.33688 0.74683 0.0
C594 C 0.24705 0.33059 0.70708 0.0
C595 C 0.22021 0.26239 0.71584 0.0
C596 C 0.23532 0.27772 0.73427 0.0
C597 C 0.21432 0.26984 0.69426 0.0
C598 C 0.22306 0.2925 0.69115 0.0
Eu599 Eu 0.26666 0.29942 0.78395 0.0
N600 N 0.24154 0.27084 0.75529 0.0
C601 C 0.21109 0.24011 0.71982 0.0
C602 C 0.23114 0.24976 0.75983 0.0
C603 C 0.21628 0.2339 0.74205 0.0
H604 H 0.27877 0.34824 0.76137 0.0
H605 H 0.20842 0.21706 0.74569 0.0
H606 H 0.31675 0.22491 0.79733 0.0
H607 H 0.3773 0.35507 0.8526 0.0
H608 H 0.23338 0.2453 0.77733 0.0
H609 H 0.19941 0.22783 0.70613 0.0
H610 H 0.35317 0.33439 0.81567 0.0
H611 H 0.26912 0.36277 0.72404 0.0
H612 H 0.20282 0.25825 0.6799 0.0
H613 H 0.21833 0.29798 0.6744 0.0
H614 H 0.32563 0.20082 0.82719 0.0
H615 H 0.24286 0.33704 0.69075 0.0
H616 H 0.38764 0.3338 0.88467 0.0
N617 N 0.33398 0.25595 0.81923 0.0
C618 C 0.34716 0.26618 0.84012 0.0
C619 C 0.33169 0.21918 0.8311 0.0
C620 C 0.35302 0.25313 0.8575 0.0
C621 C 0.32645 0.23283 0.81434 0.0
C622 C 0.34497 0.22937 0.85281 0.0
N623 N 0.34884 0.30194 0.827 0.0
C624 C 0.3571 0.32499 0.82962 0.0
C625 C 0.36904 0.30088 0.86537 0.0
C626 C 0.35505 0.28981 0.84403 0.0
C627 C 0.37687 0.32465 0.86852 0.0
C628 C 0.371 0.33673 0.85049 0.0
H629 H 0.34908 0.21874 0.86573 0.0
H630 H 0.37141 0.25438 0.89246 0.0
H631 H 0.38544 0.29615 0.89933 0.0
O632 O 0.35356 0.29378 0.77318 0.0
O633 O 0.31135 0.2894 0.82643 0.0
O634 O 0.29066 0.31546 0.8179 0.0
O635 O 0.34726 0.25883 0.77974 0.0
O636 O 0.32508 0.31293 0.77721 0.0
O637 O 0.29793 0.32888 0.79263 0.0
O638 O 0.23585 0.29271 0.80173 0.0
O639 O 0.28404 0.29347 0.75112 0.0
O640 O 0.29911 0.26422 0.76043 0.0
O641 O 0.24835 0.32562 0.78998 0.0
O642 O 0.26825 0.26861 0.80262 0.0
O643 O 0.29327 0.2523 0.78393 0.0
C644 C 0.301 0.30529 0.83318 0.0
C645 C 0.38531 0.27798 0.77858 0.0
C646 C 0.42341 0.28118 0.76794 0.0
C647 C 0.43197 0.28219 0.79196 0.0
C648 C 0.39424 0.27893 0.8024 0.0
C649 C 0.41745 0.28115 0.80905 0.0
C650 C 0.4 0.27938 0.76134 0.0
C651 C 0.31713 0.33062 0.78378 0.0
C652 C 0.36072 0.27515 0.77165 0.0
C653 C 0.36677 0.26413 0.87888 0.0
C654 C 0.37477 0.28793 0.88279 0.0
C655 C 0.29233 0.27601 0.7446 0.0
C656 C 0.21441 0.32198 0.80875 0.0
C657 C 0.18352 0.32045 0.83261 0.0
C658 C 0.18104 0.34146 0.82634 0.0
C659 C 0.21144 0.34294 0.80271 0.0
C660 C 0.20012 0.3105 0.82354 0.0
C661 C 0.19483 0.35253 0.8114 0.0
C662 C 0.27646 0.25093 0.79653 0.0
C663 C 0.23311 0.31313 0.80018 0.0
H664 H 0.44997 0.28382 0.79753 0.0
H665 H 0.38328 0.27772 0.81583 0.0
H666 H 0.42416 0.28186 0.82749 0.0
H667 H 0.39316 0.27846 0.74286 0.0
H668 H 0.16827 0.3493 0.83296 0.0
H669 H 0.22209 0.35208 0.79133 0.0
H670 H 0.20228 0.2944 0.82849 0.0
H671 H 0.19274 0.36869 0.80667 0.0
Eu672 Eu 0.05307 0.0196 0.54285 0.0
C673 C 0.02597 0.1028 0.59338 0.0
N674 N 1.01599 0.08907 0.57268 0.0
C675 C 0.97913 0.0858 0.5849 0.0
C676 C 1.01284 0.10783 0.61105 0.0
C677 C 0.99276 0.0817 0.56773 0.0
C678 C 0.98923 0.09861 0.60681 0.0
C679 C 0.05979 0.12853 0.61694 0.0
C680 C 0.04921 0.113 0.59643 0.0
C681 C 0.0469 0.1329 0.63489 0.0
C682 C 0.02351 0.12251 0.63199 0.0
Eu683 Eu 0.04116 0.08267 0.5455 0.0
N684 N 0.06145 0.10803 0.57909 0.0
C685 C 0.08301 0.13932 0.6187 0.0
C686 C 0.08377 0.11928 0.58009 0.0
C687 C 0.09499 0.13484 0.60009 0.0
H688 H 0.98445 0.07302 0.55043 0.0
H689 H 0.11282 0.14338 0.60111 0.0
H690 H 0.1024 0.02835 0.52107 0.0
H691 H 0.97141 0.95887 0.50814 0.0
H692 H 0.09289 0.11589 0.56556 0.0
H693 H 0.09175 0.15136 0.6342 0.0
H694 H 0.99955 0.98634 0.53831 0.0
H695 H 0.96077 0.07945 0.58104 0.0
H696 H 0.05478 0.14456 0.65092 0.0
H697 H 1.01369 0.12641 0.6458 0.0
H698 H 0.11724 0.01597 0.48484 0.0
H699 H 0.97857 0.10204 0.61995 0.0
H700 H 0.98222 0.94686 0.46933 0.0
N701 N 0.06861 1.00853 0.50901 0.0
C702 C 0.05439 0.99268 0.49195 0.0
C703 C 0.09949 1.00943 0.48653 0.0
C704 C 0.06209 0.98509 0.47098 0.0
C705 C 0.09102 0.01657 0.50693 0.0
C706 C 0.08493 0.99375 0.46839 0.0
N707 N 0.0252 0.99184 0.51598 0.0
C708 C 1.0041 0.98218 0.52106 0.0
C709 C 1.01668 0.96814 0.47786 0.0
C710 C 0.03194 0.98441 0.49536 0.0
C711 C 0.99447 0.95936 0.48233 0.0
C712 C 0.98827 0.96618 0.50417 0.0
H713 H 0.09152 0.98832 0.45255 0.0
H714 H 0.05235 0.96336 0.43699 0.0
H715 H 1.0126 0.94847 0.44302 0.0
O716 O 0.04695 0.9874 0.55676 0.0
O717 O 0.05053 0.0354 0.50855 0.0
O718 O 0.02415 0.0566 0.51304 0.0
O719 O 0.08114 1.00921 0.56241 0.0
O720 O 0.02093 0.02528 0.55634 0.0
O721 O 1.00981 0.0526 0.53621 0.0
O722 O 0.0571 0.10755 0.52415 0.0
O723 O 0.06197 0.07448 0.57804 0.0
O724 O 0.04359 0.03746 0.57529 0.0
O725 O 0.02532 0.1098 0.53602 0.0
O726 O 0.07203 0.07557 0.53086 0.0
O727 O 0.08442 0.04936 0.55155 0.0
C728 C 0.03401 0.04397 0.49955 0.0
C729 C 0.07668 0.96928 0.56129 0.0
C730 C 0.07918 0.93252 0.57279 0.0
C731 C 0.08967 0.92828 0.55269 0.0
C732 C 0.08708 0.96478 0.54136 0.0
C733 C 0.09361 0.94435 0.53717 0.0
C734 C 0.07277 0.9532 0.57693 0.0
C735 C 1.00511 0.03417 0.54647 0.0
C736 C 0.06818 0.98978 0.56539 0.0
C737 C 0.0468 0.96928 0.45331 0.0
C738 C 0.02414 0.96085 0.45672 0.0
C739 C 0.05705 0.05583 0.58775 0.0
C740 C 0.03206 0.12187 0.49946 0.0
C741 C 0.03217 0.14685 0.4692 0.0
C742 C 1.01703 0.1288 0.45357 0.0
C743 C 1.01683 0.10418 0.48371 0.0
C744 C 0.03961 0.14325 0.49226 0.0
C745 C 1.0094 0.10763 0.46084 0.0
C746 C 0.08847 0.06783 0.54125 0.0
C747 C 0.04062 0.11788 0.52313 0.0
H748 H 0.09449 0.91238 0.54871 0.0
H749 H 0.08992 0.97686 0.52897 0.0
H750 H 0.10153 0.94084 0.52169 0.0
H751 H 0.06471 0.95686 0.59231 0.0
H752 H 1.01086 0.13115 0.4358 0.0
H753 H 1.0107 0.08778 0.4892 0.0
H754 H 0.05154 0.15688 0.5044 0.0
H755 H 0.99767 0.09388 0.44873 0.0
Eu756 Eu 0.29528 0.81911 0.77464 0.0
C757 C 0.24425 0.74099 0.82507 0.0
N758 N 0.26509 0.75579 0.83167 0.0
C759 C 0.2582 0.76043 0.87198 0.0
C760 C 0.2292 0.736 0.84174 0.0
C761 C 0.27269 0.76445 0.85494 0.0
C762 C 0.23621 0.74643 0.86529 0.0
C763 C 0.21779 0.71281 0.7951 0.0
C764 C 0.2385 0.72956 0.80196 0.0
C765 C 0.20242 0.7085 0.81143 0.0
C766 C 0.20807 0.72011 0.83465 0.0
Eu767 Eu 0.28809 0.76106 0.80142 0.0
N768 N 0.25347 0.73433 0.78634 0.0
C769 C 0.21331 0.70065 0.77212 0.0
C770 C 0.24982 0.72174 0.76436 0.0
C771 C 0.22951 0.70499 0.75677 0.0
H772 H 0.29014 0.77389 0.86057 0.0
H773 H 0.22642 0.69536 0.73916 0.0
H774 H 0.31419 0.80435 0.7244 0.0
H775 H 0.33491 0.88667 0.84903 0.0
H776 H 0.26256 0.72482 0.75273 0.0
H777 H 0.1976 0.68764 0.76619 0.0
H778 H 0.30383 0.8564 0.82561 0.0
H779 H 0.26418 0.7677 0.89035 0.0
H780 H 0.1863 0.69588 0.8064 0.0
H781 H 0.19626 0.7162 0.84719 0.0
H782 H 0.34844 0.81603 0.7051 0.0
H783 H 0.22515 0.74303 0.87862 0.0
H784 H 0.37148 0.89862 0.83373 0.0
N785 N 0.32772 0.82794 0.75576 0.0
C786 C 0.34497 0.84564 0.76706 0.0
C787 C 0.34775 0.82435 0.7226 0.0
C788 C 0.3648 0.85288 0.75673 0.0
C789 C 0.32849 0.81763 0.73362 0.0
C790 C 0.36605 0.84196 0.73425 0.0
N791 N 0.32334 0.84908 0.79861 0.0
C792 C 0.32006 0.86036 0.81935 0.0
C793 C 0.36086 0.87413 0.80166 0.0
C794 C 0.34293 0.85614 0.78929 0.0
C795 C 0.35808 0.88478 0.82366 0.0
C796 C 0.33751 0.87801 0.83242 0.0
H797 H 0.38098 0.84708 0.72569 0.0
H798 H 0.39816 0.87637 0.76154 0.0
H799 H 0.39474 0.89492 0.80086 0.0
O800 O 0.2882 0.85233 0.77141 0.0
O801 O 0.32757 0.80519 0.78163 0.0
O802 O 0.32272 0.787 0.81422 0.0
O803 O 0.27849 0.82492 0.74098 0.0
O804 O 0.28212 0.8179 0.80972 0.0
O805 O 0.30007 0.79345 0.82742 0.0
O806 O 0.3044 0.73484 0.78793 0.0
O807 O 0.25555 0.76715 0.78013 0.0
O808 O 0.26058 0.80593 0.7864 0.0
O809 O 0.29603 0.73634 0.82351 0.0
O810 O 0.30186 0.76523 0.76745 0.0
O811 O 0.28206 0.78691 0.74838 0.0
C812 C 0.33631 0.79823 0.80081 0.0
C813 C 0.26958 0.86092 0.73506 0.0
C814 C 0.25403 0.89408 0.73229 0.0
C815 C 0.25194 0.88963 0.70746 0.0
C816 C 0.26725 0.85663 0.71026 0.0
C817 C 0.2585 0.87099 0.69656 0.0
C818 C 0.26286 0.87962 0.74605 0.0
C819 C 0.29006 0.81031 0.82859 0.0
C820 C 0.27886 0.84583 0.74938 0.0
C821 C 0.38273 0.87063 0.76914 0.0
C822 C 0.3808 0.88116 0.79156 0.0
C823 C 0.24697 0.78527 0.78122 0.0
C824 C 0.32903 0.72463 0.81668 0.0
C825 C 0.35694 0.70187 0.81809 0.0
C826 C 0.37284 0.72035 0.83236 0.0
C827 C 0.34485 0.74271 0.83136 0.0
C828 C 0.33506 0.70425 0.81006 0.0
C829 C 0.36675 0.74063 0.83899 0.0
C830 C 0.29059 0.76908 0.74832 0.0
C831 C 0.30632 0.72696 0.80798 0.0
H832 H 0.24496 0.90043 0.69647 0.0
H833 H 0.27234 0.84228 0.70148 0.0
H834 H 0.25676 0.86764 0.67743 0.0
H835 H 0.26459 0.88299 0.76521 0.0
H836 H 0.38999 0.71914 0.83841 0.0
H837 H 0.34012 0.7583 0.837 0.0
H838 H 0.32255 0.69018 0.7991 0.0
H839 H 0.37898 0.75468 0.85018 0.0
Eu840 Eu 0.55009 0.05963 0.0158 0.0
C841 C 0.55606 0.98583 0.10111 0.0
N842 N 0.54432 0.98256 0.07889 0.0
C843 C 0.54865 0.9443 0.0724 0.0
C844 C 0.5648 0.9683 0.10977 0.0
C845 C 0.54039 0.96216 0.06454 0.0
C846 C 0.56093 0.94738 0.09511 0.0
C847 C 0.57252 1.01094 0.138 0.0
C848 C 0.55977 1.0069 0.11512 0.0
C849 C 0.58109 0.99347 0.14671 0.0
C850 C 0.57722 0.97221 0.13265 0.0
Eu851 Eu 0.53024 0.01323 0.06744 0.0
N852 N 0.55168 0.0237 0.10602 0.0
C853 C 0.57655 0.03253 0.15139 0.0
C854 C 0.5556 0.04478 0.11909 0.0
C855 C 0.56807 0.04951 0.14187 0.0
H856 H 0.5305 0.95948 0.04713 0.0
H857 H 0.57118 0.06629 0.15205 0.0
H858 H 0.52415 0.10065 0.0316 0.0
H859 H 0.55492 0.02041 0.92648 0.0
H860 H 0.54941 0.0582 0.11219 0.0
H861 H 0.5863 0.0363 0.16901 0.0
H862 H 0.56705 0.03176 0.96948 0.0
H863 H 0.54545 0.92814 0.06098 0.0
H864 H 0.5909 0.99628 0.16425 0.0
H865 H 0.58406 0.95895 0.13958 0.0
H866 H 0.49506 0.11874 0.01392 0.0
H867 H 0.56734 0.9335 0.10114 0.0
H868 H 0.52251 0.03266 0.90645 0.0
N869 N 0.52349 0.07874 0.99987 0.0
C870 C 0.51522 0.07268 0.97645 0.0
C871 C 0.50052 0.10576 0.00321 0.0
C872 C 0.49867 0.08256 0.96557 0.0
C873 C 0.51701 0.09557 0.01317 0.0
C874 C 0.49113 0.09906 0.97936 0.0
N875 N 0.54046 0.04854 0.97424 0.0
C876 C 0.55237 0.03659 0.96114 0.0
C877 C 0.51666 0.05132 0.93862 0.0
C878 C 0.52388 0.05701 0.96327 0.0
C879 C 0.5275 0.03737 0.92542 0.0
C880 C 0.54578 0.0304 0.93667 0.0
H881 H 0.47839 0.10703 0.97167 0.0
H882 H 0.47769 0.08327 0.93263 0.0
H883 H 0.49362 0.05608 0.90896 0.0
O884 O 0.58431 0.06798 0.00638 0.0
O885 O 0.51212 0.05006 0.01587 0.0
O886 O 0.51928 0.0206 0.03134 0.0
O887 O 0.57044 0.09482 0.02191 0.0
O888 O 0.55396 0.02277 0.0064 0.0
O889 O 0.53887 0.99702 0.03222 0.0
O890 O 0.50018 0.01411 0.08438 0.0
O891 O 0.56856 0.02454 0.0733 0.0
O892 O 0.55681 0.04382 0.04755 0.0
O893 O 0.50267 0.98266 0.06442 0.0
O894 O 0.52563 0.05018 0.07483 0.0
O895 O 0.54722 0.07586 0.05297 0.0
C896 C 0.50482 0.03251 0.02616 0.0
C897 C 0.5918 0.1028 0.99088 0.0
C898 C 0.60183 0.10367 0.95114 0.0
C899 C 0.5987 0.12586 0.95177 0.0
C900 C 0.58904 0.12512 0.99142 0.0
C901 C 0.59245 0.13654 0.9719 0.0
C902 C 0.59843 0.09231 0.97074 0.0
C903 C 0.54855 1.00211 0.0131 0.0
C904 C 0.58634 0.08991 0.0105 0.0
C905 C 0.49054 0.076 0.94128 0.0
C906 C 0.49956 0.06046 0.92782 0.0
C907 C 0.57422 0.03908 0.05914 0.0
C908 C 0.48561 0.98003 0.09922 0.0
C909 C 0.46991 0.97978 0.13616 0.0
C910 C 0.4739 0.95823 0.13808 0.0
C911 C 0.48979 0.9585 0.10136 0.0
C912 C 0.47563 0.99049 0.11668 0.0
C913 C 0.48391 0.94769 0.12073 0.0
C914 C 0.53474 0.07111 0.07019 0.0
C915 C 0.49184 0.99211 0.07931 0.0
H916 H 0.6014 0.13504 0.93685 0.0
H917 H 0.5839 0.13361 0.00675 0.0
H918 H 0.59015 0.15368 0.97235 0.0
H919 H 0.6004 0.07501 0.96998 0.0
H920 H 0.46957 0.94974 0.1531 0.0
H921 H 0.49761 0.95003 0.08818 0.0
H922 H 0.4722 1.00701 0.11509 0.0
H923 H 0.48717 0.93116 0.12233 0.0
Eu924 Eu 0.28103 0.25505 0.26765 0.0
C925 C 0.36311 0.31578 0.32229 0.0
N926 N 0.34201 0.30753 0.3282 0.0
C927 C 0.35909 0.2965 0.36339 0.0
C928 C 0.38292 0.31345 0.33617 0.0
C929 C 0.34 0.29943 0.34927 0.0
C930 C 0.3806 0.30312 0.35658 0.0
C931 C 0.38675 0.33681 0.29678 0.0
C932 C 0.36511 0.32756 0.30289 0.0
C933 C 0.40636 0.3338 0.31014 0.0
C934 C 0.40446 0.32215 0.32975 0.0
Eu935 Eu 0.31129 0.3143 0.30301 0.0
N936 N 0.34584 0.32968 0.28975 0.0
C937 C 0.38801 0.34882 0.27738 0.0
C938 C 0.34692 0.342 0.27135 0.0
C939 C 0.36801 0.35157 0.26473 0.0
H940 H 0.32399 0.29628 0.356 0.0
H941 H 0.36885 0.36109 0.24992 0.0
H942 H 0.25008 0.26976 0.22317 0.0
H943 H 0.25712 0.18647 0.32061 0.0
H944 H 0.33149 0.3444 0.26182 0.0
H945 H 0.40432 0.35619 0.27214 0.0
H946 H 0.28377 0.21487 0.30344 0.0
H947 H 0.35726 0.28972 0.37987 0.0
H948 H 0.42312 0.34063 0.3056 0.0
H949 H 0.41981 0.32034 0.34013 0.0
H950 H 0.2098 0.2608 0.20415 0.0
H951 H 0.39541 0.30109 0.36774 0.0
H952 H 0.21552 0.17927 0.30805 0.0
N953 N 0.24302 0.24844 0.24955 0.0
C954 C 0.2274 0.23249 0.25757 0.0
C955 C 0.21448 0.25288 0.21929 0.0
C956 C 0.20427 0.22683 0.24731 0.0
C957 C 0.23719 0.258 0.2301 0.0
C958 C 0.19788 0.23742 0.22809 0.0
N959 N 0.25747 0.22564 0.28349 0.0
C960 C 0.26563 0.21273 0.29869 0.0
C961 C 0.21897 0.20432 0.28396 0.0
C962 C 0.23476 0.22119 0.27547 0.0
C963 C 0.22712 0.19227 0.30098 0.0
C964 C 0.25059 0.19628 0.30812 0.0
H965 H 0.18029 0.23349 0.21968 0.0
H966 H 0.17049 0.20624 0.24885 0.0
H967 H 0.18331 0.18669 0.28111 0.0
O968 O 0.27671 0.22116 0.24814 0.0
O969 O 0.25571 0.27719 0.27586 0.0
O970 O 0.27343 0.30441 0.30796 0.0
O971 O 0.2941 0.25081 0.23412 0.0
O972 O 0.29717 0.25551 0.30574 0.0
O973 O 0.29225 0.28888 0.32401 0.0
O974 O 0.30789 0.34935 0.30307 0.0
O975 O 0.32972 0.29535 0.27697 0.0
O976 O 0.3183 0.25905 0.28373 0.0
O977 O 0.3222 0.33854 0.33544 0.0
O978 O 0.29227 0.31757 0.26771 0.0
O979 O 0.29223 0.28338 0.24612 0.0
C980 C 0.25473 0.29232 0.29397 0.0
C981 C 0.30922 0.21901 0.23015 0.0
C982 C 0.3357 0.19826 0.24608 0.0
C983 C 0.34853 0.20281 0.22761 0.0
C984 C 0.32196 0.22336 0.21161 0.0
C985 C 0.34168 0.21542 0.2105 0.0
C986 C 0.3165 0.20694 0.24753 0.0
C987 C 0.29244 0.26745 0.32418 0.0
C988 C 0.28959 0.22873 0.23269 0.0
C989 C 0.1884 0.2106 0.25628 0.0
C990 C 0.1957 0.19949 0.27467 0.0
C991 C 0.33438 0.27541 0.27848 0.0
C992 C 0.31996 0.37771 0.33851 0.0
C993 C 0.31168 0.41485 0.34125 0.0
C994 C 0.32423 0.42081 0.36411 0.0
C995 C 0.33264 0.38377 0.36133 0.0
C996 C 0.30964 0.39333 0.32854 0.0
C997 C 0.33477 0.4053 0.37403 0.0
C998 C 0.29122 0.30475 0.2474 0.0
C999 C 0.31663 0.35491 0.3254 0.0
H1000 H 0.36347 0.19623 0.22611 0.0
H1001 H 0.31686 0.23316 0.19829 0.0
H1002 H 0.35156 0.21889 0.19625 0.0
H1003 H 0.30728 0.20435 0.26245 0.0
H1004 H 0.32603 0.43746 0.37414 0.0
H1005 H 0.34079 0.37188 0.36938 0.0
H1006 H 0.29948 0.38853 0.31111 0.0
H1007 H 0.34451 0.40992 0.39162 0.0
Eu1008 Eu 0.55749 0.51294 0.04023 0.0
C1009 C 0.53964 0.59316 0.10324 0.0
N1010 N 0.52477 0.57924 0.0851 0.0
C1011 C 0.49495 0.57493 0.10922 0.0
C1012 C 0.53271 0.59806 0.12544 0.0
C1013 C 0.50263 0.57037 0.08759 0.0
C1014 C 0.51007 0.58875 0.12826 0.0
C1015 C 0.57789 0.61607 0.1184 0.0
C1016 C 0.56207 0.60181 0.09978 0.0
C1017 C 0.57111 0.62078 0.14062 0.0
C1018 C 0.5486 0.61181 0.14413 0.0
Eu1019 Eu 0.53922 0.57225 0.04941 0.0
N1020 N 0.56829 0.59667 0.07815 0.0
C1021 C 0.59994 0.62559 0.11399 0.0
C1022 C 0.58905 0.60761 0.07327 0.0
C1023 C 0.60539 0.6217 0.09119 0.0
H1024 H 0.49088 0.55986 0.07286 0.0
H1025 H 0.62201 0.62994 0.08727 0.0
H1026 H 0.61345 0.5218 0.03744 0.0
H1027 H 0.48398 0.46426 0.97639 0.0
H1028 H 0.59285 0.60633 0.05545 0.0
H1029 H 0.61258 0.63665 0.12781 0.0
H1030 H 0.50363 0.48757 0.01417 0.0
H1031 H 0.47739 0.56777 0.1112 0.0
H1032 H 0.5831 0.63157 0.15516 0.0
H1033 H 0.54363 0.61566 0.16136 0.0
H1034 H 0.63853 0.51306 0.00863 0.0
H1035 H 0.5041 0.59212 0.14505 0.0
H1036 H 0.50646 0.45358 0.94563 0.0
N1037 N 0.58286 0.50494 0.01447 0.0
C1038 C 0.57319 0.49189 0.99335 0.0
C1039 C 0.62019 0.50713 0.00406 0.0
C1040 C 0.58684 0.48619 0.97652 0.0
C1041 C 0.60597 0.51231 0.02021 0.0
C1042 C 0.61059 0.49408 0.98208 0.0
N1043 N 0.53675 0.49089 0.00463 0.0
C1044 C 0.51357 0.48335 1.00083 0.0
C1045 C 0.53902 0.47097 0.96659 0.0
C1046 C 0.54952 0.48436 0.98842 0.0
C1047 C 0.51517 0.46387 0.9622 0.0
C1048 C 0.50241 0.46996 0.97947 0.0
H1049 H 0.62166 0.49008 0.96961 0.0
H1050 H 0.58663 0.46837 0.94157 0.0
H1051 H 0.54482 0.45506 0.93289 0.0
O1052 O 0.5419 0.48384 0.05679 0.0
O1053 O 0.54898 0.5279 0.00651 0.0
O1054 O 0.52354 0.54957 0.01463 0.0
O1055 O 0.57692 0.48873 0.05071 0.0
O1056 O 0.52456 0.51378 0.05476 0.0
O1057 O 0.50925 0.54153 0.03972 0.0
O1058 O 0.5461 0.60365 0.03261 0.0
O1059 O 0.54416 0.55317 0.08102 0.0
O1060 O 0.57393 0.53791 0.07337 0.0
O1061 O 0.51328 0.59111 0.04454 0.0
O1062 O 0.5702 0.57036 0.03116 0.0
O1063 O 0.5861 0.54486 0.04958 0.0
C1064 C 0.53346 0.53865 0.99961 0.0
C1065 C 0.56673 0.47158 0.08399 0.0
C1066 C 0.56488 0.44439 0.11221 0.0
C1067 C 0.5773 0.46216 0.13 0.0
C1068 C 0.57933 0.48895 0.10191 0.0
C1069 C 0.58451 0.48427 0.12482 0.0
C1070 C 0.55962 0.44926 0.08912 0.0
C1071 C 0.50707 0.52193 0.04785 0.0
C1072 C 0.56053 0.4768 0.06011 0.0
C1073 C 0.57641 0.47288 0.95474 0.0
C1074 C 0.55259 0.46528 0.9498 0.0
C1075 C 0.56251 0.54665 0.08847 0.0
C1076 C 0.51722 0.62577 0.02692 0.0
C1077 C 0.51888 0.65743 0.00406 0.0
C1078 C 0.49819 0.66015 0.01107 0.0
C1079 C 0.4966 0.62899 0.03368 0.0
C1080 C 0.52861 0.64032 0.01228 0.0
C1081 C 0.48724 0.64611 0.02586 0.0
C1082 C 0.58786 0.56226 0.03774 0.0
C1083 C 0.52583 0.6066 0.03466 0.0
H1084 H 0.58182 0.45888 0.14785 0.0
H1085 H 0.58523 0.50604 0.09803 0.0
H1086 H 0.59425 0.49777 0.13858 0.0
H1087 H 0.54981 0.43581 0.07528 0.0
H1088 H 0.49052 0.67332 0.00516 0.0
H1089 H 0.48754 0.61818 0.04498 0.0
H1090 H 0.54446 0.63797 0.00677 0.0
H1091 H 0.47132 0.6484 0.03117 0.0
Eu1092 Eu 0.79692 0.31419 0.2773 0.0
C1093 C 0.75147 0.23649 0.33528 0.0
N1094 N 0.77248 0.25117 0.34024 0.0
C1095 C 0.77006 0.25449 0.38176 0.0
C1096 C 0.73875 0.23047 0.3536 0.0
C1097 C 0.78214 0.25975 0.36305 0.0
C1098 C 0.74821 0.2399 0.37701 0.0
C1099 C 0.72147 0.21102 0.30631 0.0
C1100 C 0.74289 0.22682 0.31186 0.0
C1101 C 0.70864 0.20528 0.3245 0.0
C1102 C 0.71724 0.21499 0.34806 0.0
Eu1103 Eu 0.79146 0.25831 0.30749 0.0
N1104 N 0.7555 0.23294 0.29451 0.0
C1105 C 0.71361 0.2014 0.28261 0.0
C1106 C 0.7484 0.22296 0.27156 0.0
C1107 C 0.72721 0.20729 0.2652 0.0
H1108 H 0.79939 0.27019 0.36687 0.0
H1109 H 0.72147 0.19962 0.24691 0.0
H1110 H 0.79274 0.30141 0.21797 0.0
H1111 H 0.86522 0.37132 0.34118 0.0
H1112 H 0.75905 0.22701 0.2582 0.0
H1113 H 0.69722 0.18921 0.27762 0.0
H1114 H 0.82724 0.34513 0.32778 0.0
H1115 H 0.77773 0.26143 0.39984 0.0
H1116 H 0.69209 0.19324 0.32056 0.0
H1117 H 0.70721 0.21023 0.36191 0.0
H1118 H 0.81684 0.30962 0.1868 0.0
H1119 H 0.73897 0.23569 0.39158 0.0
H1120 H 0.89188 0.38073 0.31233 0.0
N1121 N 0.81828 0.32059 0.24597 0.0
C1122 C 0.83949 0.33482 0.2521 0.0
C1123 C 0.82346 0.31667 0.20511 0.0
C1124 C 0.85364 0.34034 0.23477 0.0
C1125 C 0.80996 0.31179 0.22286 0.0
C1126 C 0.84542 0.33091 0.21109 0.0
N1127 N 0.83296 0.33875 0.29218 0.0
C1128 C 0.83896 0.34867 0.31524 0.0
C1129 C 0.86865 0.3595 0.28255 0.0
C1130 C 0.84697 0.34435 0.27578 0.0
C1131 C 0.87534 0.36902 0.30642 0.0
C1132 C 0.86036 0.3637 0.32279 0.0
H1133 H 0.85577 0.33477 0.19726 0.0
H1134 H 0.88646 0.35966 0.22845 0.0
H1135 H 0.89958 0.37638 0.2702 0.0
O1136 O 0.78469 0.34314 0.29158 0.0
O1137 O 0.83056 0.30259 0.28616 0.0
O1138 O 0.82652 0.28321 0.3182 0.0
O1139 O 0.78471 0.33579 0.25373 0.0
O1140 O 0.78512 0.31245 0.31311 0.0
O1141 O 0.80528 0.29084 0.33222 0.0
O1142 O 0.80302 0.22965 0.29125 0.0
O1143 O 0.75733 0.26893 0.29843 0.0
O1144 O 0.76142 0.28995 0.26745 0.0
O1145 O 0.80628 0.23719 0.32956 0.0
O1146 O 0.80345 0.26265 0.2725 0.0
O1147 O 0.78253 0.28201 0.2518 0.0
C1148 C 0.83952 0.29406 0.30415 0.0
C1149 C 0.78941 0.37405 0.27019 0.0
C1150 C 0.78189 0.41154 0.27217 0.0
C1151 C 0.80442 0.42072 0.26855 0.0
C1152 C 0.81173 0.38331 0.26622 0.0
C1153 C 0.81925 0.4066 0.26563 0.0
C1154 C 0.77457 0.38819 0.27325 0.0
C1155 C 0.79599 0.30812 0.33236 0.0
C1156 C 0.78107 0.34973 0.27098 0.0
C1157 C 0.87536 0.35525 0.24153 0.0
C1158 C 0.88283 0.3648 0.26533 0.0
C1159 C 0.74845 0.2782 0.28095 0.0
C1160 C 0.80222 0.19911 0.31307 0.0
C1161 C 0.81251 0.1629 0.31032 0.0
C1162 C 0.79232 0.15306 0.31875 0.0
C1163 C 0.78197 0.18919 0.32132 0.0
C1164 C 0.81725 0.18588 0.30728 0.0
C1165 C 0.77701 0.16617 0.32401 0.0
C1166 C 0.79077 0.26417 0.25325 0.0
C1167 C 0.80886 0.22342 0.31157 0.0
H1168 H 0.81052 0.43877 0.26795 0.0
H1169 H 0.82322 0.37264 0.26329 0.0
H1170 H 0.83653 0.41369 0.26267 0.0
H1171 H 0.75717 0.38089 0.27584 0.0
H1172 H 0.78839 0.13526 0.32114 0.0
H1173 H 0.77028 0.19923 0.3261 0.0
H1174 H 0.83303 0.19366 0.30116 0.0
H1175 H 0.76144 0.15855 0.33048 0.0
Eu1176 Eu 0.04984 0.57295 0.5227 0.0
C1177 C 0.0683 0.5149 0.61309 0.0
N1178 N 0.05699 0.50835 0.59069 0.0
C1179 C 0.07521 0.47758 0.58528 0.0
C1180 C 0.08411 0.50331 0.62232 0.0
C1181 C 0.05973 0.48965 0.57691 0.0
C1182 C 0.08761 0.48455 0.60802 0.0
C1183 C 0.07488 0.5401 0.65035 0.0
C1184 C 0.06383 0.53316 0.62678 0.0
C1185 C 0.09109 0.52899 0.65949 0.0
C1186 C 0.0957 0.51064 0.6455 0.0
Eu1187 Eu 0.03185 0.52993 0.5772 0.0
N1188 N 0.04799 0.54347 0.61741 0.0
C1189 C 0.06888 0.5576 0.66423 0.0
C1190 C 0.04103 0.55946 0.63142 0.0
C1191 C 0.05161 0.56706 0.65482 0.0
H1192 H 0.05012 0.48423 0.55938 0.0
H1193 H 0.04621 0.57999 0.66569 0.0
H1194 H 0.04317 0.62497 0.54288 0.0
H1195 H 1.01765 0.5202 0.43638 0.0
H1196 H 0.02694 0.56608 0.62494 0.0
H1197 H 0.07694 0.5634 0.68242 0.0
H1198 H 0.03937 0.53038 0.47651 0.0
H1199 H 0.07757 0.46294 0.5742 0.0
H1200 H 0.09986 0.5342 0.6775 0.0
H1201 H 0.10802 0.50204 0.65288 0.0
H1202 H 0.0223 0.65249 0.52985 0.0
H1203 H 0.09961 0.47518 0.61446 0.0
H1204 H 0.99563 0.54602 0.42051 0.0
N1205 N 0.03024 0.60047 0.51202 0.0
C1206 C 0.01813 0.59609 0.48982 0.0
C1207 C 0.02073 0.63656 0.51854 0.0
C1208 C 1.0063 0.61166 0.48141 0.0
C1209 C 0.03222 0.62066 0.52609 0.0
C1210 C 1.00756 0.63197 0.49618 0.0
N1211 N 0.029 0.56116 0.48405 0.0
C1212 C 0.0295 0.54159 0.47016 0.0
C1213 C 1.00517 0.57094 0.45231 0.0
C1214 C 1.01768 0.57601 0.47534 0.0
C1215 C 1.00504 0.55052 0.43829 0.0
C1216 C 1.01736 0.53586 0.44722 0.0
H1217 H 0.99875 0.64438 0.49034 0.0
H1218 H 0.98456 0.61837 0.4518 0.0
H1219 H 0.98349 0.58269 0.42638 0.0
O1220 O 0.07909 0.57206 0.50426 0.0
O1221 O 1.01208 0.55628 0.5147 0.0
O1222 O 0.02476 0.54785 0.54779 0.0
O1223 O 0.07454 0.60435 0.52011 0.0
O1224 O 0.05465 0.53605 0.51805 0.0
O1225 O 0.03088 0.51228 0.5397 0.0
O1226 O 1.0009 0.52281 0.59325 0.0
O1227 O 0.06907 0.53704 0.57339 0.0
O1228 O 0.06443 0.56844 0.5593 0.0
O1229 O 1.00793 0.49639 0.56894 0.0
O1230 O 0.02636 0.56643 0.58368 0.0
O1231 O 0.04582 0.59111 0.55936 0.0
C1232 C 1.00716 0.54583 0.53221 0.0
C1233 C 0.08607 0.60261 0.48229 0.0
C1234 C 0.09465 0.59735 0.44204 0.0
C1235 C 0.08453 0.61509 0.43676 0.0
C1236 C 0.07604 0.62039 0.47677 0.0
C1237 C 0.07536 0.62658 0.45412 0.0
C1238 C 0.09555 0.59137 0.4649 0.0
C1239 C 0.04355 0.5157 0.52248 0.0
C1240 C 0.08484 0.59417 0.5052 0.0
C1241 C 0.99379 0.60662 0.45851 0.0
C1242 C 0.99321 0.58632 0.44401 0.0
C1243 C 0.07752 0.55483 0.56377 0.0
C1244 C 0.99181 0.48587 0.60275 0.0
C1245 C 0.97876 0.48049 0.64046 0.0
C1246 C 0.99031 0.4632 0.64258 0.0
C1247 C 1.00318 0.46834 0.60473 0.0
C1248 C 0.97905 0.49122 0.62025 0.0
C1249 C 1.00214 0.45688 0.62449 0.0
C1250 C 0.03456 0.58704 0.57779 0.0
C1251 C 0.99556 0.50116 0.58487 0.0
H1252 H 0.08387 0.62018 0.41928 0.0
H1253 H 0.06835 0.62928 0.48976 0.0
H1254 H 0.06753 0.64018 0.44995 0.0
H1255 H 0.10288 0.57736 0.46893 0.0
H1256 H 0.99041 0.45489 0.65827 0.0
H1257 H 1.01341 0.464 0.59153 0.0
H1258 H 0.97081 0.50516 0.61903 0.0
H1259 H 1.01115 0.44362 0.62616 0.0
Eu1260 Eu 0.82339 0.7819 0.29993 0.0
C1261 C 0.74077 0.8161 0.24897 0.0
N1262 N 0.75501 0.82656 0.26917 0.0
C1263 C 0.75616 0.86313 0.25721 0.0
C1264 C 0.73378 0.82894 0.23189 0.0
C1265 C 0.76258 0.84969 0.27365 0.0
C1266 C 0.74176 0.85271 0.23619 0.0
C1267 C 0.71812 0.78116 0.22471 0.0
C1268 C 0.733 0.79246 0.24543 0.0
C1269 C 0.71124 0.7939 0.20759 0.0
C1270 C 0.71905 0.8177 0.21117 0.0
Eu1271 Eu 0.76522 0.80259 0.29558 0.0
N1272 N 0.74042 0.78051 0.26205 0.0
C1273 C 0.71062 0.75737 0.22178 0.0
C1274 C 0.73246 0.75743 0.25971 0.0
C1275 C 0.71769 0.74549 0.23945 0.0
H1276 H 0.77324 0.85778 0.29013 0.0
H1277 H 0.71165 0.72713 0.23755 0.0
H1278 H 0.81138 0.73026 0.31701 0.0
H1279 H 0.88302 0.86134 0.34406 0.0
H1280 H 0.73721 0.74815 0.27344 0.0
H1281 H 0.6992 0.74805 0.20609 0.0
H1282 H 0.85634 0.83612 0.31129 0.0
H1283 H 0.76221 0.8815 0.26081 0.0
H1284 H 0.69986 0.7855 0.19153 0.0
H1285 H 0.71353 0.82729 0.19783 0.0
H1286 H 0.82157 0.71199 0.35154 0.0
H1287 H 0.73677 0.86318 0.2235 0.0
H1288 H 0.89388 0.84623 0.38071 0.0
N1289 N 0.83233 0.7629 0.33181 0.0
C1290 C 0.84791 0.77558 0.35012 0.0
C1291 C 0.829 0.72991 0.35143 0.0
C1292 C 0.85433 0.76583 0.37015 0.0
C1293 C 0.82305 0.74033 0.33201 0.0
C1294 C 0.84465 0.74272 0.37063 0.0
N1295 N 0.84998 0.80767 0.3298 0.0
C1296 C 0.85984 0.82962 0.32749 0.0
C1297 C 0.87264 0.81225 0.36819 0.0
C1298 C 0.85685 0.7986 0.34917 0.0
C1299 C 0.8817 0.8352 0.36649 0.0
C1300 C 0.87549 0.84383 0.34591 0.0
H1301 H 0.84914 0.73462 0.3857 0.0
H1302 H 0.87498 0.77228 0.40473 0.0
H1303 H 0.89106 0.81285 0.40298 0.0
O1304 O 0.8526 0.78944 0.27965 0.0
O1305 O 0.80913 0.78968 0.33447 0.0
O1306 O 0.79279 0.81877 0.3267 0.0
O1307 O 0.84058 0.75579 0.29012 0.0
O1308 O 0.82194 0.81338 0.28274 0.0
O1309 O 0.79769 0.83068 0.30192 0.0
O1310 O 0.7381 0.78913 0.31578 0.0
O1311 O 0.77786 0.79417 0.26017 0.0
O1312 O 0.79666 0.76673 0.26781 0.0
O1313 O 0.7446 0.82433 0.30995 0.0
O1314 O 0.76654 0.77023 0.31119 0.0
O1315 O 0.79121 0.75374 0.2921 0.0
C1316 C 0.80132 0.80729 0.34187 0.0
C1317 C 0.87129 0.75898 0.26695 0.0
C1318 C 0.90522 0.76292 0.24751 0.0
C1319 C 0.90171 0.73911 0.24401 0.0
C1320 C 0.86809 0.73515 0.26309 0.0
C1321 C 0.8832 0.72534 0.25167 0.0
C1322 C 0.88984 0.77294 0.25883 0.0
C1323 C 0.81457 0.83146 0.28939 0.0
C1324 C 0.8547 0.76853 0.27898 0.0
C1325 C 0.86991 0.77946 0.38916 0.0
C1326 C 0.87902 0.80258 0.38818 0.0
C1327 C 0.78772 0.77809 0.25281 0.0
C1328 C 0.70665 0.80566 0.31288 0.0
C1329 C 0.66884 0.79839 0.32532 0.0
C1330 C 0.6597 0.80188 0.30275 0.0
C1331 C 0.697 0.80873 0.2905 0.0
C1332 C 0.69253 0.80036 0.33025 0.0
C1333 C 0.67367 0.80685 0.2855 0.0
C1334 C 0.7737 0.75232 0.30365 0.0
C1335 C 0.73136 0.80798 0.31826 0.0
H1336 H 0.91338 0.73117 0.23529 0.0
H1337 H 0.85381 0.72398 0.26882 0.0
H1338 H 0.88057 0.707 0.2488 0.0
H1339 H 0.89252 0.79132 0.26159 0.0
H1340 H 0.64173 0.80115 0.29844 0.0
H1341 H 0.70748 0.81285 0.27694 0.0
H1342 H 0.69999 0.79764 0.34742 0.0
H1343 H 0.6664 0.80948 0.26823 0.0
Eu1344 Eu 0.78106 0.28114 0.81661 0.0
C1345 C 0.83996 0.26746 0.72214 0.0
N1346 N 0.84482 0.27149 0.74618 0.0
C1347 C 0.86895 0.24544 0.74558 0.0
C1348 C 0.8492 0.25177 0.70887 0.0
C1349 C 0.85956 0.26126 0.75798 0.0
C1350 C 0.86363 0.24055 0.72093 0.0
C1351 C 0.82189 0.27652 0.68577 0.0
C1352 C 0.82613 0.27946 0.71076 0.0
C1353 C 0.83055 0.26045 0.67253 0.0
C1354 C 0.8441 0.24806 0.68405 0.0
Eu1355 Eu 0.82797 0.29828 0.76551 0.0
N1356 N 0.818 0.29496 0.72399 0.0
C1357 C 0.80979 0.29042 0.67479 0.0
C1358 C 0.80775 0.3097 0.71333 0.0
C1359 C 0.80307 0.30737 0.68863 0.0
H1360 H 0.86364 0.2649 0.77699 0.0
H1361 H 0.79454 0.31883 0.6803 0.0
H1362 H 0.72741 0.28387 0.80126 0.0
H1363 H 0.84362 0.33069 0.89241 0.0
H1364 H 0.80325 0.32346 0.72382 0.0
H1365 H 0.80631 0.28878 0.65565 0.0
H1366 H 0.83148 0.30797 0.85331 0.0
H1367 H 0.8803 0.23706 0.75503 0.0
H1368 H 0.82728 0.25784 0.65334 0.0
H1369 H 0.85096 0.23599 0.67358 0.0
H1370 H 0.69783 0.29911 0.81878 0.0
H1371 H 0.87103 0.22835 0.71136 0.0
H1372 H 0.81534 0.34355 0.91459 0.0
N1373 N 0.75279 0.29708 0.83134 0.0
C1374 C 0.75814 0.30911 0.85346 0.0
C1375 C 0.71472 0.3021 0.82872 0.0
C1376 C 0.74177 0.31815 0.86417 0.0
C1377 C 0.73156 0.29363 0.81879 0.0
C1378 C 0.7198 0.31431 0.85158 0.0
N1379 N 0.79596 0.30539 0.8535 0.0
C1380 C 0.81857 0.31215 0.86289 0.0
C1381 C 0.78679 0.32722 0.88728 0.0
C1382 C 0.78035 0.31338 0.86492 0.0
C1383 C 0.80971 0.33291 0.89751 0.0
C1384 C 0.8257 0.32564 0.88508 0.0
H1385 H 0.70674 0.32094 0.85921 0.0
H1386 H 0.73553 0.33806 0.89537 0.0
H1387 H 0.77501 0.34614 0.91555 0.0
O1388 O 0.77792 0.25128 0.83455 0.0
O1389 O 0.78967 0.31874 0.81602 0.0
O1390 O 0.81825 0.30926 0.80068 0.0
O1391 O 0.7495 0.25435 0.80992 0.0
O1392 O 0.8166 0.274 0.82577 0.0
O1393 O 0.84298 0.28873 0.80053 0.0
O1394 O 0.83912 0.33378 0.76077 0.0
O1395 O 0.8142 0.25999 0.75931 0.0
O1396 O 0.79453 0.27267 0.78383 0.0
O1397 O 0.86427 0.31492 0.76894 0.0
O1398 O 0.79108 0.30268 0.7558 0.0
O1399 O 0.76445 0.28757 0.78077 0.0
C1400 C 0.80735 0.32481 0.80551 0.0
C1401 C 0.74109 0.2388 0.8446 0.0
C1402 C 0.7365 0.22902 0.88387 0.0
C1403 C 0.71439 0.23251 0.88108 0.0
C1404 C 0.71875 0.24179 0.84173 0.0
C1405 C 0.70554 0.23875 0.85999 0.0
C1406 C 0.74965 0.23216 0.86557 0.0
C1407 C 0.83748 0.27903 0.81948 0.0
C1408 C 0.75618 0.24362 0.82663 0.0
C1409 C 0.74791 0.33108 0.88682 0.0
C1410 C 0.77037 0.33564 0.89834 0.0
C1411 C 0.799 0.25485 0.7729 0.0
C1412 C 0.87027 0.33867 0.73947 0.0
C1413 C 0.86484 0.35032 0.70054 0.0
C1414 C 0.88357 0.34224 0.69458 0.0
C1415 C 0.88929 0.33101 0.7335 0.0
C1416 C 0.85871 0.34904 0.72313 0.0
C1417 C 0.89595 0.33296 0.71118 0.0
C1418 C 0.77007 0.29711 0.76176 0.0
C1419 C 0.86037 0.333 0.76091 0.0
H1420 H 0.70389 0.2301 0.89501 0.0
H1421 H 0.71156 0.24672 0.82559 0.0
H1422 H 0.68844 0.24128 0.8578 0.0
H1423 H 0.76693 0.22999 0.86794 0.0
H1424 H 0.88861 0.34315 0.67717 0.0
H1425 H 0.89853 0.32287 0.74574 0.0
H1426 H 0.84389 0.35485 0.72738 0.0
H1427 H 0.91039 0.32674 0.70655 0.0
Eu1428 Eu 0.77703 0.77018 0.77611 0.0
C1429 C 0.86305 0.84848 0.80864 0.0
N1430 N 0.85126 0.83573 0.82303 0.0
C1431 C 0.88608 0.83281 0.8451 0.0
C1432 C 0.88702 0.85295 0.81114 0.0
C1433 C 0.8623 0.82885 0.84187 0.0
C1434 C 0.89847 0.84446 0.82931 0.0
C1435 C 0.86314 0.87429 0.77963 0.0
C1436 C 0.85122 0.85895 0.79314 0.0
C1437 C 0.88683 0.87732 0.78049 0.0
C1438 C 0.89877 0.8667 0.79628 0.0
Eu1439 Eu 0.81122 0.8273 0.81493 0.0
N1440 N 0.8285 0.85623 0.79347 0.0
C1441 C 0.85113 0.88719 0.76688 0.0
C1442 C 0.81744 0.8708 0.78347 0.0
C1443 C 0.82833 0.88591 0.76937 0.0
H1444 H 0.85257 0.81956 0.85382 0.0
H1445 H 0.81918 0.89665 0.76056 0.0
H1446 H 0.79526 0.76943 0.7229 0.0
H1447 H 0.69189 0.73295 0.79467 0.0
H1448 H 0.79993 0.87025 0.78572 0.0
H1449 H 0.85962 0.89911 0.7562 0.0
H1450 H 0.73392 0.74729 0.80328 0.0
H1451 H 0.8948 0.82677 0.85964 0.0
H1452 H 0.89623 0.88875 0.76994 0.0
H1453 H 0.91717 0.87005 0.79762 0.0
H1454 H 0.77921 0.7663 0.68085 0.0
H1455 H 0.9169 0.84757 0.83188 0.0
H1456 H 0.67179 0.73216 0.75442 0.0
N1457 N 0.76304 0.76491 0.73507 0.0
C1458 C 0.74007 0.75903 0.72883 0.0
C1459 C 0.76798 0.76447 0.69419 0.0
C1460 C 0.73005 0.75639 0.70497 0.0
C1461 C 0.77704 0.76649 0.71807 0.0
C1462 C 0.74437 0.75977 0.68763 0.0
N1463 N 0.73718 0.75509 0.76855 0.0
C1464 C 0.72517 0.747 0.78572 0.0
C1465 C 0.70283 0.74567 0.74034 0.0
C1466 C 0.72668 0.75379 0.74617 0.0
C1467 C 0.69016 0.73855 0.75817 0.0
C1468 C 0.70144 0.7389 0.78089 0.0
H1469 H 0.73737 0.75794 0.66909 0.0
H1470 H 0.69812 0.74765 0.68094 0.0
H1471 H 0.67425 0.73821 0.71197 0.0
O1472 O 0.79219 0.74789 0.79608 0.0
O1473 O 0.75196 0.79077 0.78765 0.0
O1474 O 0.77224 0.82377 0.81269 0.0
O1475 O 0.77181 0.7346 0.76145 0.0
O1476 O 0.7737 0.7758 0.81553 0.0
O1477 O 0.81029 0.79407 0.82916 0.0
O1478 O 0.82169 0.85977 0.8386 0.0
O1479 O 0.83205 0.80056 0.80664 0.0
O1480 O 0.8147 0.78248 0.76982 0.0
O1481 O 0.80207 0.8301 0.85055 0.0
O1482 O 0.79106 0.82845 0.77872 0.0
O1483 O 0.79767 0.79716 0.75874 0.0
C1484 C 0.75273 0.80954 0.80213 0.0
C1485 C 0.80459 0.72194 0.77159 0.0
C1486 C 0.82946 0.69739 0.77973 0.0
C1487 C 0.84225 0.70536 0.7622 0.0
C1488 C 0.81706 0.72988 0.75385 0.0
C1489 C 0.83601 0.72166 0.74931 0.0
C1490 C 0.81104 0.70619 0.78461 0.0
C1491 C 0.79091 0.78145 0.83283 0.0
C1492 C 0.78604 0.73113 0.77857 0.0
C1493 C 0.70618 0.74956 0.69914 0.0
C1494 C 0.69258 0.74417 0.71681 0.0
C1495 C 0.83329 0.78956 0.78582 0.0
C1496 C 0.79456 0.86489 0.86377 0.0
C1497 C 0.77051 0.8913 0.85833 0.0
C1498 C 0.76251 0.88719 0.87981 0.0
C1499 C 0.78649 0.86102 0.88521 0.0
C1500 C 0.78636 0.87988 0.85028 0.0
C1501 C 0.77046 0.87207 0.89312 0.0
C1502 C 0.79445 0.81751 0.75891 0.0
C1503 C 0.81028 0.85202 0.855 0.0
H1504 H 0.85662 0.69867 0.75818 0.0
H1505 H 0.81237 0.7425 0.74381 0.0
H1506 H 0.84576 0.72783 0.73575 0.0
H1507 H 0.80164 0.70082 0.79879 0.0
H1508 H 0.75044 0.89596 0.88654 0.0
H1509 H 0.7924 0.84922 0.89566 0.0
H1510 H 0.79204 0.88241 0.83336 0.0
H1511 H 0.76424 0.86899 0.90964 0.0
Eu1512 Eu 0.58655 0.55793 0.56771 0.0
C1513 C 0.52293 0.47726 0.51444 0.0
N1514 N 0.53169 0.49813 0.50825 0.0
C1515 C 0.5416 0.48018 0.47289 0.0
C1516 C 0.5244 0.45711 0.5006 0.0
C1517 C 0.53956 0.49965 0.48702 0.0
C1518 C 0.53439 0.45884 0.47993 0.0
C1519 C 0.50208 0.45453 0.54078 0.0
C1520 C 0.51164 0.47589 0.53424 0.0
C1521 C 0.50418 0.43456 0.52738 0.0
C1522 C 0.5153 0.43584 0.50737 0.0
Eu1523 Eu 0.52633 0.52951 0.53347 0.0
N1524 N 0.51044 0.4955 0.54744 0.0
C1525 C 0.49072 0.45391 0.56066 0.0
C1526 C 0.49873 0.49504 0.5663 0.0
C1527 C 0.4889 0.47425 0.57336 0.0
H1528 H 0.54323 0.51559 0.4802 0.0
H1529 H 0.47987 0.47391 0.58853 0.0
H1530 H 0.57209 0.58903 0.6124 0.0
H1531 H 0.65549 0.58071 0.51503 0.0
H1532 H 0.49701 0.51073 0.57585 0.0
H1533 H 0.48315 0.43782 0.56623 0.0
H1534 H 0.62585 0.55448 0.53118 0.0
H1535 H 0.54818 0.48159 0.45626 0.0
H1536 H 0.49707 0.418 0.53222 0.0
H1537 H 0.51643 0.42022 0.497 0.0
H1538 H 0.58232 0.62899 0.63227 0.0
H1539 H 0.53576 0.44376 0.46878 0.0
H1540 H 0.66487 0.62212 0.52942 0.0
N1541 N 0.59439 0.5957 0.5868 0.0
C1542 C 0.61117 0.611 0.57946 0.0
C1543 C 0.59042 0.6242 0.61732 0.0
C1544 C 0.61762 0.63395 0.5903 0.0
C1545 C 0.58457 0.60166 0.606 0.0
C1546 C 0.60686 0.64048 0.6093 0.0
N1547 N 0.61675 0.58098 0.55254 0.0
C1548 C 0.62901 0.5726 0.53677 0.0
C1549 C 0.63979 0.61902 0.55348 0.0
C1550 C 0.62227 0.60353 0.56143 0.0
C1551 C 0.65138 0.61074 0.53609 0.0
C1552 C 0.64613 0.58738 0.5279 0.0
H1553 H 0.61136 0.65795 0.61811 0.0
H1554 H 0.63968 0.66728 0.58992 0.0
H1555 H 0.65896 0.65428 0.55755 0.0
O1556 O 0.62042 0.56042 0.58642 0.0
O1557 O 0.56642 0.58478 0.55916 0.0
O1558 O 0.53642 0.56759 0.52931 0.0
O1559 O 0.59052 0.54378 0.60065 0.0
O1560 O 0.58499 0.54215 0.52934 0.0
O1561 O 0.55155 0.54784 0.5119 0.0
O1562 O 0.4914 0.53315 0.53412 0.0
O1563 O 0.54526 0.5104 0.55889 0.0
O1564 O 0.5811 0.52081 0.55063 0.0
O1565 O 0.50176 0.51957 0.50118 0.0
O1566 O 0.52443 0.5494 0.5686 0.0
O1567 O 0.55831 0.54781 0.5897 0.0
C1568 C 0.55018 0.5861 0.54228 0.0
C1569 C 0.62105 0.52657 0.60246 0.0
C1570 C 0.64073 0.49982 0.58489 0.0
C1571 C 0.63503 0.4858 0.6022 0.0
C1572 C 0.61552 0.51256 0.61975 0.0
C1573 C 0.62232 0.49213 0.61944 0.0
C1574 C 0.63312 0.51978 0.58483 0.0
C1575 C 0.57283 0.54722 0.51125 0.0
C1576 C 0.61252 0.54712 0.60141 0.0
C1577 C 0.63466 0.64952 0.58199 0.0
C1578 C 0.64562 0.64211 0.56354 0.0
C1579 C 0.5648 0.50511 0.55651 0.0
C1580 C 0.46268 0.52215 0.49891 0.0
C1581 C 0.42628 0.53214 0.49618 0.0
C1582 C 0.41958 0.51883 0.47374 0.0
C1583 C 0.45587 0.50879 0.4765 0.0
C1584 C 0.44781 0.53366 0.5087 0.0
C1585 C 0.43434 0.50712 0.46401 0.0
C1586 C 0.53724 0.54978 0.58872 0.0
C1587 C 0.48559 0.52502 0.51167 0.0
H1588 H 0.64078 0.47029 0.60273 0.0
H1589 H 0.60566 0.51726 0.6332 0.0
H1590 H 0.61793 0.48129 0.63272 0.0
H1591 H 0.63655 0.52999 0.57079 0.0
H1592 H 0.40289 0.51733 0.46386 0.0
H1593 H 0.46719 0.49974 0.46861 0.0
H1594 H 0.45324 0.54436 0.5258 0.0
H1595 H 0.42912 0.49683 0.44674 0.0
Eu1596 Eu 0.02396 0.54221 0.0688 0.0
C1597 C 0.10027 0.59601 0.02031 0.0
N1598 N 0.08392 0.57674 0.01094 0.0
C1599 C 0.07859 0.59102 0.97414 0.0
C1600 C 0.10609 0.61384 0.0068 0.0
C1601 C 0.07322 0.57387 0.98823 0.0
C1602 C 0.09507 0.61111 0.98346 0.0
C1603 C 0.12686 0.61854 0.0541 0.0
C1604 C 0.1105 0.59833 0.04386 0.0
C1605 C 0.13265 0.63631 0.04063 0.0
C1606 C 0.12235 0.63394 0.01707 0.0
Eu1607 Eu 0.07799 0.54828 0.03534 0.0
N1608 N 0.10441 0.58096 0.05672 0.0
C1609 C 0.13716 0.62025 0.07753 0.0
C1610 C 0.11561 0.58196 0.07892 0.0
C1611 C 0.13171 0.60176 0.08988 0.0
H1612 H 0.061 0.55811 0.98081 0.0
H1613 H 0.14029 0.60256 0.10767 0.0
H1614 H 0.04378 0.54269 0.12624 0.0
H1615 H 0.95719 0.47952 0.00822 0.0
H1616 H 0.113 0.56731 0.0879 0.0
H1617 H 0.1498 0.6355 0.08603 0.0
H1618 H 0.98709 0.51527 0.02022 0.0
H1619 H 0.07014 0.58868 0.95607 0.0
H1620 H 0.14516 0.65195 0.04827 0.0
H1621 H 0.12699 0.64785 0.00698 0.0
H1622 H 0.03743 0.51759 0.15687 0.0
H1623 H 0.09912 0.62441 0.97252 0.0
H1624 H 0.94826 0.4527 0.03701 0.0
N1625 N 0.01989 0.51957 0.09939 0.0
C1626 C 1.00324 0.49982 0.09409 0.0
C1627 C 0.0279 0.51227 0.13922 0.0
C1628 C 0.99867 0.48522 0.11122 0.0
C1629 C 0.03179 0.52625 0.1217 0.0
C1630 C 1.01138 0.4916 0.13393 0.0
N1631 N 0.99588 0.50817 0.05495 0.0
C1632 C 0.98378 0.50346 0.03271 0.0
C1633 C 0.97352 0.47364 0.06539 0.0
C1634 C 0.99068 0.49412 0.0714 0.0
C1635 C 0.96154 0.4683 0.04232 0.0
C1636 C 0.96662 0.48333 0.02597 0.0
H1637 H 1.00835 0.48084 0.14758 0.0
H1638 H 0.97785 0.45338 0.11819 0.0
H1639 H 0.95594 0.44321 0.0781 0.0
O1640 O 0.99463 0.55758 0.06139 0.0
O1641 O 0.03204 0.50733 0.05679 0.0
O1642 O 0.05684 0.51119 0.0288 0.0
O1643 O 1.00793 0.55411 0.09758 0.0
O1644 O 0.02069 0.55129 0.03178 0.0
O1645 O 0.04433 0.53327 0.01261 0.0
O1646 O 0.11085 0.53873 0.03962 0.0
O1647 O 0.06264 0.57985 0.04105 0.0
O1648 O 0.04983 0.57693 0.07662 0.0
O1649 O 0.09248 0.53828 0.00423 0.0
O1650 O 0.0793 0.53392 0.06974 0.0
O1651 O 0.05894 0.55482 0.08938 0.0
C1652 C 0.04272 0.49841 0.0406 0.0
C1653 C 0.97604 0.57114 0.09421 0.0
C1654 C 0.94271 0.58677 0.09032 0.0
C1655 C 0.94342 0.58923 0.11503 0.0
C1656 C 0.97647 0.5738 0.11894 0.0
C1657 C 0.96029 0.58286 0.12923 0.0
C1658 C 0.9592 0.57792 0.07986 0.0
C1659 C 0.02644 0.54175 0.01251 0.0
C1660 C 0.99296 0.56077 0.08395 0.0
C1661 C 0.98156 0.46482 0.10525 0.0
C1662 C 0.96903 0.45905 0.08243 0.0
C1663 C 0.05702 0.58954 0.06055 0.0
C1664 C 0.12864 0.52838 0.00532 0.0
C1665 C 0.15901 0.50854 0.00479 0.0
C1666 C 0.16214 0.51436 0.9822 0.0
C1667 C 0.13194 0.53396 0.98273 0.0
C1668 C 0.14241 0.51592 0.01651 0.0
C1669 C 0.14873 0.52707 0.97132 0.0
C1670 C 0.07284 0.54148 0.08934 0.0
C1671 C 0.11048 0.53526 0.01672 0.0
H1672 H 0.93087 0.59615 0.12333 0.0
H1673 H 0.98926 0.56875 0.13043 0.0
H1674 H 0.96073 0.58481 0.14826 0.0
H1675 H 0.95856 0.57587 0.06077 0.0
H1676 H 0.17508 0.50915 0.97299 0.0
H1677 H 0.12158 0.54371 0.97391 0.0
H1678 H 0.13974 0.51135 0.03385 0.0
H1679 H 0.15127 0.53148 0.95393 0.0
H1680 H 1.01606 0.19448 0.95725 0.0
H1681 H 0.04494 0.12436 0.0633 0.0
H1682 H 0.02617 0.22533 0.03031 0.0
H1683 H 0.02466 0.09493 0.99 0.0
H1684 H 0.04025 0.16138 0.05279 0.0
H1685 H 0.02072 0.15892 0.9699 0.0
C1686 C 0.01926 0.19396 0.9761 0.0
C1687 C 0.02066 0.21356 0.99256 0.0
C1688 C 0.0368 0.14684 0.03898 0.0
C1689 C 0.02632 0.1715 0.00753 0.0
C1690 C 0.03972 0.12559 0.04497 0.0
C1691 C 0.03554 0.1061 0.02761 0.0
C1692 C 0.02956 0.14901 0.01529 0.0
C1693 C 0.02816 0.1091 0.00421 0.0
C1694 C 0.02192 0.17331 0.98334 0.0
C1695 C 0.02478 0.211 0.01676 0.0
N1696 N 0.02554 0.12984 0.99887 0.0
N1697 N 0.02757 0.19058 0.02342 0.0
H1698 H 0.16155 0.81513 0.13695 0.0
H1699 H 0.22443 0.8193 0.26882 0.0
H1700 H 0.12923 0.82185 0.19949 0.0
H1701 H 0.24895 0.79312 0.20671 0.0
H1702 H 0.19137 0.82456 0.24363 0.0
H1703 H 0.19612 0.81235 0.16203 0.0
C1704 C 0.16184 0.81649 0.15595 0.0
C1705 C 0.14239 0.81886 0.16606 0.0
C1706 C 0.20402 0.81774 0.23544 0.0
C1707 C 0.18187 0.81543 0.19487 0.0
C1708 C 0.2228 0.81447 0.2499 0.0
C1709 C 0.23958 0.80571 0.23996 0.0
C1710 C 0.20199 0.81248 0.21069 0.0
C1711 C 0.23686 0.80051 0.21514 0.0
C1712 C 0.1815 0.81465 0.17024 0.0
C1713 C 0.14374 0.8201 0.19083 0.0
N1714 N 0.21849 0.80399 0.20137 0.0
N1715 N 0.16303 0.81836 0.20429 0.0
H1716 H 0.52533 0.86288 0.46418 0.0
H1717 H 0.54768 0.97017 0.56743 0.0
H1718 H 0.54196 0.85515 0.53737 0.0
H1719 H 0.54444 0.97479 0.49291 0.0
H1720 H 0.5432 0.92861 0.55827 0.0
H1721 H 0.53023 0.90336 0.47575 0.0
C1722 C 0.52992 0.86954 0.48286 0.0
C1723 C 0.53299 0.8549 0.49972 0.0
C1724 C 0.54364 0.93873 0.54394 0.0
C1725 C 0.53874 0.90278 0.51336 0.0
C1726 C 0.5461 0.96256 0.54914 0.0
C1727 C 0.5469 0.97644 0.53099 0.0
C1728 C 0.54163 0.92834 0.52031 0.0
C1729 C 0.54449 0.96522 0.50766 0.0
C1730 C 0.53282 0.89302 0.48945 0.0
C1731 C 0.53931 0.86538 0.52359 0.0
N1732 N 0.542 0.94214 0.5031 0.0
N1733 N 0.5418 0.88852 0.52967 0.0
H1734 H 0.53869 0.26553 0.701 0.0
H1735 H 0.42899 0.30786 0.73244 0.0
H1736 H 0.51637 0.31867 0.66846 0.0
H1737 H 0.45365 0.25508 0.76311 0.0
H1738 H 0.45878 0.31071 0.70658 0.0
H1739 H 0.50607 0.26058 0.72222 0.0
C1740 C 0.52693 0.27624 0.69833 0.0
C1741 C 0.53036 0.29264 0.68298 0.0
C1742 C 0.45752 0.29841 0.71886 0.0
C1743 C 0.49266 0.28698 0.70734 0.0
C1744 C 0.44049 0.29669 0.73348 0.0
C1745 C 0.43916 0.28145 0.75012 0.0
C1746 C 0.47313 0.28467 0.72092 0.0
C1747 C 0.4544 0.26736 0.75083 0.0
C1748 C 0.5082 0.27334 0.71044 0.0
C1749 C 0.51441 0.30589 0.6802 0.0
N1750 N 0.47079 0.26941 0.73658 0.0
N1751 N 0.49625 0.30283 0.69234 0.0
H1752 H 0.08452 0.81816 0.64634 0.0
H1753 H 0.04156 0.91999 0.59536 0.0
H1754 H 0.02606 0.83952 0.66772 0.0
H1755 H 0.10694 0.90588 0.58785 0.0
H1756 H 0.03448 0.89034 0.62095 0.0
H1757 H 0.09149 0.84935 0.62316 0.0
C1758 C 0.07308 0.8294 0.64614 0.0
C1759 C 0.05465 0.8262 0.65902 0.0
C1760 C 0.05038 0.89382 0.61372 0.0
C1761 C 0.06261 0.86216 0.63237 0.0
C1762 C 0.05451 0.91082 0.5992 0.0
C1763 C 0.07482 0.9153 0.58918 0.0
C1764 C 0.06662 0.88116 0.61813 0.0
C1765 C 0.09083 0.90269 0.59466 0.0
C1766 C 0.07714 0.84731 0.63293 0.0
C1767 C 0.04047 0.84139 0.65807 0.0
N1768 N 0.08633 0.88617 0.60862 0.0
N1769 N 0.0447 0.85872 0.64489 0.0
H1770 H 0.48581 0.83436 0.80151 0.0
H1771 H 0.36227 0.79554 0.84303 0.0
H1772 H 0.47534 0.79894 0.86159 0.0
H1773 H 0.37 0.81014 0.77243 0.0
H1774 H 0.40363 0.79985 0.85158 0.0
H1775 H 0.44424 0.82898 0.79209 0.0
C1776 C 0.47486 0.8253 0.81269 0.0
C1777 C 0.4845 0.81694 0.83234 0.0
C1778 C 0.39633 0.80213 0.83418 0.0
C1779 C 0.43621 0.8111 0.82179 0.0
C1780 C 0.37251 0.79946 0.82917 0.0
C1781 C 0.36209 0.80203 0.80674 0.0
C1782 C 0.41042 0.80802 0.8169 0.0
C1783 C 0.37689 0.80807 0.79002 0.0
C1784 C 0.45098 0.82226 0.80727 0.0
C1785 C 0.46902 0.80554 0.84613 0.0
N1786 N 0.40004 0.8109 0.79542 0.0
N1787 N 0.44593 0.80314 0.84073 0.0
H1788 H 0.50962 0.16621 0.1858 0.0
H1789 H 0.55181 0.11656 0.06813 0.0
H1790 H 0.53524 0.2062 0.13294 0.0
H1791 H 0.51203 0.07214 0.10957 0.0
H1792 H 0.54747 0.14933 0.09375 0.0
H1793 H 0.51137 0.1315 0.16008 0.0
C1794 C 0.51534 0.16774 0.16876 0.0
C1795 C 0.52221 0.18934 0.16165 0.0
C1796 C 0.53959 0.13245 0.09729 0.0
C1797 C 0.52465 0.14967 0.13231 0.0
C1798 C 0.54204 0.11355 0.08255 0.0
C1799 C 0.5321 0.09125 0.08635 0.0
C1800 C 0.52731 0.1294 0.11643 0.0
C1801 C 0.51994 0.08889 0.10575 0.0
C1802 C 0.51642 0.14791 0.15412 0.0
C1803 C 0.52968 0.19011 0.13937 0.0
N1804 N 0.51796 0.10768 0.12008 0.0
N1805 N 0.53082 0.17074 0.12573 0.0
H1806 H 0.10712 0.27618 0.2994 0.0
H1807 H 0.24463 0.321 0.33046 0.0
H1808 H 0.14031 0.33563 0.35014 0.0
H1809 H 0.21105 0.2712 0.27011 0.0
H1810 H 0.20712 0.32524 0.33932 0.0
H1811 H 0.14471 0.27265 0.28999 0.0
C1812 C 0.12222 0.28864 0.30851 0.0
C1813 C 0.1201 0.30643 0.32551 0.0
C1814 C 0.20789 0.31329 0.32413 0.0
C1815 C 0.16399 0.30215 0.31494 0.0
C1816 C 0.22948 0.31083 0.31899 0.0
C1817 C 0.23151 0.29546 0.29942 0.0
C1818 C 0.18766 0.30019 0.30984 0.0
C1819 C 0.21078 0.28295 0.28549 0.0
C1820 C 0.14384 0.28656 0.30312 0.0
C1821 C 0.14072 0.32177 0.33674 0.0
N1822 N 0.19003 0.28547 0.29097 0.0
N1823 N 0.16153 0.31922 0.33139 0.0
H1824 H 0.94648 0.04076 0.19622 0.0
H1825 H 0.05182 0.0398 0.12512 0.0
H1826 H 1.00902 0.0259 0.22585 0.0
H1827 H 0.98665 0.04706 0.09293 0.0
H1828 H 0.03707 0.03667 0.1625 0.0
H1829 H 0.96159 0.04516 0.15911 0.0
C1830 C 0.96347 0.0385 0.19502 0.0
C1831 C 0.97649 0.03292 0.21435 0.0
C1832 C 0.02597 0.03898 0.14731 0.0
C1833 C 0.99392 0.03795 0.17152 0.0
C1834 C 0.03438 0.04083 0.12584 0.0
C1835 C 0.02047 0.04373 0.10565 0.0
C1836 C 1.00343 0.04012 0.14886 0.0
C1837 C 0.99802 0.04486 0.10794 0.0
C1838 C 0.97205 0.04098 0.1737 0.0
C1839 C 0.99836 0.03022 0.21152 0.0
N1840 N 0.99021 0.04306 0.12913 0.0
N1841 N 1.00636 0.03275 0.19053 0.0
H1842 H 0.26254 0.70876 0.51975 0.0
H1843 H 0.25082 0.7008 0.3796 0.0
H1844 H 0.2874 0.66024 0.47583 0.0
H1845 H 0.23013 0.75141 0.4252 0.0
H1846 H 0.26752 0.68775 0.41457 0.0
H1847 H 0.25458 0.7272 0.48549 0.0
C1848 C 0.26663 0.70221 0.50286 0.0
C1849 C 0.2754 0.68287 0.50043 0.0
C1850 C 0.25942 0.70177 0.41691 0.0
C1851 C 0.26592 0.70355 0.46105 0.0
C1852 C 0.24988 0.70921 0.397 0.0
C1853 C 0.23888 0.72706 0.39958 0.0
C1854 C 0.25787 0.71221 0.43952 0.0
C1855 C 0.23802 0.73728 0.42245 0.0
C1856 C 0.26204 0.71271 0.4833 0.0
C1857 C 0.28062 0.67515 0.47832 0.0
N1858 N 0.24732 0.72964 0.44156 0.0
N1859 N 0.27544 0.68534 0.45928 0.0
H1860 H 0.68988 0.03259 0.68598 0.0
H1861 H 0.57985 0.06908 0.63128 0.0
H1862 H 0.64024 0.05032 0.72796 0.0
H1863 H 0.61713 0.03058 0.58991 0.0
H1864 H 0.60404 0.06581 0.66718 0.0
H1865 H 0.66492 0.03452 0.6502 0.0
C1866 C 0.67365 0.03661 0.68765 0.0
C1867 C 0.66713 0.04132 0.70991 0.0
C1868 C 0.60677 0.05804 0.65018 0.0
C1869 C 0.63883 0.04391 0.66933 0.0
C1870 C 0.59303 0.05991 0.62975 0.0
C1871 C 0.59625 0.04978 0.60766 0.0
C1872 C 0.62399 0.04632 0.6483 0.0
C1873 C 0.61388 0.03851 0.60658 0.0
C1874 C 0.65946 0.03777 0.66728 0.0
C1875 C 0.64594 0.04653 0.71112 0.0
N1876 N 0.6271 0.03709 0.62665 0.0
N1877 N 0.63259 0.04788 0.69107 0.0
H1878 H 0.32863 0.3243 0.98732 0.0
H1879 H 0.28517 0.34017 0.85447 0.0
H1880 H 0.28654 0.37016 0.97069 0.0
H1881 H 0.31846 0.28735 0.87114 0.0
H1882 H 0.2865 0.35208 0.89682 0.0
H1883 H 0.32595 0.3112 0.94496 0.0
C1884 C 0.31864 0.33149 0.97479 0.0
C1885 C 0.30772 0.34834 0.9827 0.0
C1886 C 0.2936 0.33794 0.89123 0.0
C1887 C 0.30481 0.33353 0.93391 0.0
C1888 C 0.2929 0.33112 0.86697 0.0
C1889 C 0.30201 0.31286 0.85903 0.0
C1890 C 0.30356 0.32652 0.90786 0.0
C1891 C 0.31163 0.30177 0.87626 0.0
C1892 C 0.31716 0.32402 0.95055 0.0
C1893 C 0.29515 0.35708 0.96551 0.0
N1894 N 0.31223 0.30882 0.89977 0.0
N1895 N 0.29414 0.34967 0.94199 0.0
H1896 H 0.96605 0.04785 0.35927 0.0
H1897 H 0.05713 0.03098 0.46392 0.0
H1898 H 1.01673 1.01037 0.34677 0.0
H1899 H 0.99399 0.0482 0.47549 0.0
H1900 H 0.04491 0.02625 0.42103 0.0
H1901 H 0.97898 0.05232 0.40194 0.0
C1902 C 0.98005 0.04074 0.36544 0.0
C1903 C 0.99031 0.02873 0.34931 0.0
C1904 C 0.03376 0.0311 0.43298 0.0
C1905 C 1.00515 0.03368 0.39832 0.0
C1906 C 0.04065 0.03363 0.4575 0.0
C1907 C 0.02667 0.04017 0.47344 0.0
C1908 C 1.01286 0.03549 0.42427 0.0
C1909 C 1.0056 0.04365 0.46396 0.0
C1910 C 0.98732 0.04316 0.38985 0.0
C1911 C 1.0083 0.01978 0.35849 0.0
N1912 N 0.99946 0.04147 0.44009 0.0
N1913 N 1.01515 0.02245 0.38232 0.0
H1914 H 0.30482 0.65996 0.64868 0.0
H1915 H 0.27018 0.7711 0.70354 0.0
H1916 H 0.27757 0.70371 0.60521 0.0
H1917 H 0.31183 0.7348 0.74243 0.0
H1918 H 0.27089 0.74603 0.66712 0.0
H1919 H 0.30585 0.68695 0.68363 0.0
C1920 C 0.29924 0.67535 0.6465 0.0
C1921 C 0.2911 0.67964 0.62411 0.0
C1922 C 0.27991 0.74375 0.6837 0.0
C1923 C 0.29206 0.71048 0.66392 0.0
C1924 C 0.27946 0.75795 0.70441 0.0
C1925 C 0.29083 0.75492 0.726 0.0
C1926 C 0.29169 0.7265 0.68488 0.0
C1927 C 0.30265 0.7377 0.72624 0.0
C1928 C 0.29982 0.69076 0.66643 0.0
C1929 C 0.28405 0.69984 0.62222 0.0
N1930 N 0.30269 0.72411 0.70601 0.0
N1931 N 0.28454 0.71452 0.64198 0.0
H1932 H 0.67727 0.04102 0.85706 0.0
H1933 H 0.5847 0.10168 0.90468 0.0
H1934 H 0.63177 0.0697 0.81339 0.0
H1935 H 0.63419 0.07924 0.95008 0.0
H1936 H 0.59748 0.08392 0.87015 0.0
H1937 H 0.65695 0.04816 0.8905 0.0
C1938 C 0.66272 0.04836 0.85442 0.0
C1939 C 0.65633 0.05512 0.83267 0.0
C1940 C 0.60545 0.08274 0.88767 0.0
C1941 C 0.63331 0.06347 0.87053 0.0
C1942 C 0.59828 0.09303 0.90732 0.0
C1943 C 0.60868 0.09221 0.93015 0.0
C1944 C 0.62324 0.0717 0.89092 0.0
C1945 C 0.62578 0.08028 0.93271 0.0
C1946 C 0.65123 0.05255 0.87348 0.0
C1947 C 0.63743 0.06459 0.83005 0.0
N1948 N 0.63271 0.07066 0.91329 0.0
N1949 N 0.62672 0.0687 0.84885 0.0
H1950 H 0.3065 0.32892 0.10319 0.0
H1951 H 0.29007 0.34866 0.24032 0.0
H1952 H 0.29641 0.39163 0.13835 0.0
H1953 H 0.29383 0.28416 0.20314 0.0
H1954 H 0.29267 0.36489 0.20327 0.0
H1955 H 0.3022 0.3123 0.13979 0.0
C1956 C 0.30329 0.33917 0.11852 0.0
C1957 C 0.30183 0.36172 0.11757 0.0
C1958 C 0.29284 0.34715 0.20325 0.0
C1959 C 0.29699 0.34283 0.15969 0.0
C1960 C 0.29132 0.33787 0.22442 0.0
C1961 C 0.29171 0.31498 0.22502 0.0
C1962 C 0.29482 0.33349 0.18246 0.0
C1963 C 0.29343 0.30188 0.20373 0.0
C1964 C 0.30085 0.32968 0.13946 0.0
C1965 C 0.29768 0.37417 0.13813 0.0
N1966 N 0.29499 0.31131 0.18346 0.0
N1967 N 0.29549 0.36461 0.15827 0.0
H1968 H 0.2535 0.01813 0.01358 0.0
H1969 H 0.13947 0.96607 0.05557 0.0
H1970 H 0.2238 0.94572 0.00446 0.0
H1971 H 0.16512 0.03771 0.05208 0.0
H1972 H 0.16487 0.95729 0.0278 0.0
H1973 H 0.21607 0.02496 0.01649 0.0
C1974 C 0.23884 1.00367 0.01129 0.0
C1975 C 0.24157 0.98141 0.0093 0.0
C1976 C 0.16444 0.97488 0.03263 0.0
C1977 C 0.19904 0.98892 0.01373 0.0
C1978 C 0.15015 0.97988 0.04869 0.0
C1979 C 0.15046 1.00262 0.05647 0.0
C1980 C 0.1793 0.99281 0.02468 0.0
C1981 C 0.16424 0.01989 0.04661 0.0
C1982 C 0.21746 1.00751 0.01308 0.0
C1983 C 0.22223 0.96317 0.00625 0.0
N1984 N 0.17834 0.01463 0.03154 0.0
N1985 N 0.20175 0.96733 0.00937 0.0
H1986 H 0.69743 0.66634 0.0061 0.0
H1987 H 0.62977 0.56006 0.05923 0.0
H1988 H 0.73078 0.62282 0.04399 0.0
H1989 H 0.59772 0.59297 0.00702 0.0
H1990 H 0.66699 0.58288 0.05399 0.0
H1991 H 0.66066 0.63975 0.00629 0.0
C1992 C 0.69706 0.65109 0.01422 0.0
C1993 C 0.71723 0.64687 0.02508 0.0
C1994 C 0.65183 0.58492 0.04348 0.0
C1995 C 0.67521 0.61651 0.02561 0.0
C1996 C 0.63057 0.57179 0.04636 0.0
C1997 C 0.61061 0.57451 0.03343 0.0
C1998 C 0.6531 0.60108 0.02777 0.0
C1999 C 0.61268 0.59034 0.01738 0.0
C2000 C 0.67606 0.63592 0.01433 0.0
C2001 C 0.71569 0.6268 0.03537 0.0
N2002 N 0.63352 0.60317 0.01515 0.0
N2003 N 0.69504 0.6125 0.03558 0.0
H2004 H 0.68515 0.48619 0.31682 0.0
H2005 H 0.77538 0.44308 0.24413 0.0
H2006 H 0.71156 0.51562 0.2577 0.0
H2007 H 0.75164 0.41282 0.30386 0.0
H2008 H 0.75005 0.46844 0.24796 0.0
H2009 H 0.70769 0.45781 0.31173 0.0
C2010 C 0.69562 0.48664 0.30279 0.0
C2011 C 0.69655 0.50327 0.28772 0.0
C2012 C 0.75031 0.45628 0.26027 0.0
C2013 C 0.72213 0.47107 0.28177 0.0
C2014 C 0.76488 0.44191 0.25816 0.0
C2015 C 0.76585 0.42621 0.27397 0.0
C2016 C 0.73663 0.45497 0.27838 0.0
C2017 C 0.75141 0.42484 0.29139 0.0
C2018 C 0.70843 0.47047 0.29988 0.0
C2019 C 0.71035 0.50315 0.2698 0.0
N2020 N 0.73744 0.43922 0.29327 0.0
N2021 N 0.7226 0.48733 0.26737 0.0
H2022 H 0.87122 0.50369 0.56007 0.0
H2023 H 0.98236 0.51118 0.49921 0.0
H2024 H 0.8782 0.44928 0.5083 0.0
H2025 H 0.98165 0.54969 0.5668 0.0
H2026 H 0.94318 0.48948 0.50003 0.0
H2027 H 0.91106 0.52271 0.56039 0.0
C2028 C 0.88114 0.49582 0.54869 0.0
C2029 C 0.87154 0.47496 0.53412 0.0
C2030 C 0.95175 0.50246 0.51481 0.0
C2031 C 0.91689 0.49648 0.53447 0.0
C2032 C 0.97389 0.51476 0.51429 0.0
C2033 C 0.98486 0.53174 0.53314 0.0
C2034 C 0.94072 0.50778 0.53408 0.0
C2035 C 0.97361 0.53626 0.55226 0.0
C2036 C 0.90387 0.50657 0.54903 0.0
C2037 C 0.88509 0.46536 0.51984 0.0
N2038 N 0.95194 0.52437 0.55222 0.0
N2039 N 0.90719 0.47631 0.52027 0.0
H2040 H 0.32605 0.08227 0.31448 0.0
H2041 H 0.37773 0.19772 0.26898 0.0
H2042 H 0.39824 0.11374 0.32405 0.0
H2043 H 0.30586 0.1653 0.26245 0.0
H2044 H 0.38573 0.17141 0.2962 0.0
H2045 H 0.31825 0.11766 0.30441 0.0
C2046 C 0.34023 0.09693 0.31517 0.0
C2047 C 0.36278 0.09513 0.31962 0.0
C2048 C 0.3682 0.1704 0.28911 0.0
C2049 C 0.35414 0.1353 0.30737 0.0
C2050 C 0.36369 0.18518 0.27339 0.0
C2051 C 0.34118 0.18351 0.26334 0.0
C2052 C 0.35004 0.15388 0.29457 0.0
C2053 C 0.3235 0.16729 0.26991 0.0
C2054 C 0.33582 0.1171 0.30929 0.0
C2055 C 0.3806 0.11452 0.32051 0.0
N2056 N 0.32834 0.15301 0.28496 0.0
N2057 N 0.37591 0.13376 0.31375 0.0
H2058 H 0.36331 0.16073 0.52601 0.0
H2059 H 0.39829 0.05789 0.58351 0.0
H2060 H 0.32142 0.1152 0.56477 0.0
H2061 H 0.44805 0.11191 0.56278 0.0
H2062 H 0.36799 0.07441 0.56749 0.0
H2063 H 0.39294 0.13947 0.53155 0.0
C2064 C 0.36026 0.14615 0.53541 0.0
C2065 C 0.33999 0.13975 0.54505 0.0
C2066 C 0.38549 0.0826 0.56617 0.0
C2067 C 0.37338 0.11542 0.55115 0.0
C2068 C 0.40272 0.07311 0.57523 0.0
C2069 C 0.42555 0.08384 0.57476 0.0
C2070 C 0.39113 0.1031 0.55676 0.0
C2071 C 0.43054 0.10331 0.56355 0.0
C2072 C 0.37713 0.1341 0.53858 0.0
C2073 C 0.33686 0.12083 0.55717 0.0
N2074 N 0.41341 0.11261 0.55527 0.0
N2075 N 0.35337 0.10939 0.55988 0.0
H2076 H 0.71957 0.60781 0.29895 0.0
H2077 H 0.73848 0.74261 0.32931 0.0
H2078 H 0.67114 0.63987 0.32966 0.0
H2079 H 0.77884 0.71046 0.28561 0.0
H2080 H 0.71616 0.70504 0.33376 0.0
H2081 H 0.74434 0.64537 0.29871 0.0
C2082 C 0.71424 0.62273 0.30592 0.0
C2083 C 0.69316 0.6207 0.31425 0.0
C2084 C 0.73 0.70623 0.32333 0.0
C2085 C 0.72143 0.66371 0.31387 0.0
C2086 C 0.74277 0.72767 0.32077 0.0
C2087 C 0.76067 0.72969 0.30719 0.0
C2088 C 0.73521 0.68668 0.31232 0.0
C2089 C 0.76536 0.70972 0.29647 0.0
C2090 C 0.72836 0.64417 0.30565 0.0
C2091 C 0.68718 0.64064 0.32299 0.0
N2092 N 0.7527 0.68902 0.29928 0.0
N2093 N 0.70122 0.66135 0.32249 0.0
H2094 H 0.89812 0.45567 0.81603 0.0
H2095 H 0.78398 0.35622 0.7955 0.0
H2096 H 0.83043 0.46687 0.8027 0.0
H2097 H 0.85169 0.34629 0.81176 0.0
H2098 H 0.80066 0.39682 0.79536 0.0
H2099 H 0.88129 0.41497 0.81219 0.0
C2100 C 0.87972 0.44955 0.8124 0.0
C2101 C 0.8656 0.46453 0.80973 0.0
C2102 C 0.81186 0.38569 0.79868 0.0
C2103 C 0.84632 0.41825 0.80522 0.0
C2104 C 0.80236 0.3627 0.79873 0.0
C2105 C 0.81667 0.3483 0.80322 0.0
C2106 C 0.83568 0.39398 0.8035 0.0
C2107 C 0.84028 0.35707 0.80773 0.0
C2108 C 0.87013 0.42635 0.81011 0.0
C2109 C 0.84189 0.45581 0.80493 0.0
N2110 N 0.84912 0.37948 0.80775 0.0
N2111 N 0.83295 0.43312 0.80284 0.0
H2112 H 0.04751 0.87227 0.10377 0.0
H2113 H 0.09226 0.98456 0.04175 0.0
H2114 H 0.10364 0.87919 0.06369 0.0
H2115 H 0.03025 0.97199 0.07261 0.0
H2116 H 0.09798 0.94753 0.05121 0.0
H2117 H 0.04207 0.90919 0.09406 0.0
C2118 C 0.05873 0.88141 0.09288 0.0
C2119 C 0.07604 0.87202 0.08454 0.0
C2120 C 0.08306 0.95281 0.05588 0.0
C2121 C 0.06997 0.91539 0.07339 0.0
C2122 C 0.07978 0.97414 0.05049 0.0
C2123 C 0.06048 0.98174 0.05596 0.0
C2124 C 0.06713 0.93862 0.0672 0.0
C2125 C 0.04513 0.96703 0.06744 0.0
C2126 C 0.05558 0.9027 0.08731 0.0
C2127 C 0.08994 0.88527 0.07053 0.0
N2128 N 0.04876 0.94654 0.07261 0.0
N2129 N 0.08669 0.906 0.06556 0.0
H2130 H 0.97067 0.27101 0.88529 0.0
H2131 H 0.83736 0.26733 0.86478 0.0
H2132 H 0.93236 0.27476 0.94369 0.0
H2133 H 0.88278 0.28568 0.81387 0.0
H2134 H 0.87032 0.26584 0.89306 0.0
H2135 H 0.93714 0.27198 0.85818 0.0
C2136 C 0.95518 0.27197 0.8925 0.0
C2137 C 0.9545 0.27279 0.91699 0.0
C2138 C 0.87296 0.27002 0.87561 0.0
C2139 C 0.91559 0.27378 0.88559 0.0
C2140 C 0.85411 0.27073 0.85932 0.0
C2141 C 0.857 0.2763 0.83653 0.0
C2142 C 0.89493 0.27455 0.86905 0.0
C2143 C 0.87936 0.28089 0.83088 0.0
C2144 C 0.93599 0.2726 0.87691 0.0
C2145 C 0.93379 0.27412 0.92503 0.0
N2146 N 0.89728 0.27979 0.84688 0.0
N2147 N 0.91515 0.27446 0.9094 0.0
H2148 H 0.55373 0.22732 0.61745 0.0
H2149 H 0.5842 0.12686 0.53311 0.0
H2150 H 0.59942 0.24265 0.56624 0.0
H2151 H 0.54889 0.11723 0.5934 0.0
H2152 H 0.58895 0.16826 0.54253 0.0
H2153 H 0.55006 0.18695 0.60591 0.0
C2154 C 0.56291 0.22231 0.6035 0.0
C2155 C 0.57695 0.23898 0.59291 0.0
C2156 C 0.58023 0.1571 0.55373 0.0
C2157 C 0.57276 0.19142 0.57941 0.0
C2158 C 0.57766 0.13329 0.54849 0.0
C2159 C 0.56642 0.11806 0.56262 0.0
C2160 C 0.57111 0.16607 0.57308 0.0
C2161 C 0.55777 0.12789 0.58189 0.0
C2162 C 0.56083 0.19896 0.59697 0.0
C2163 C 0.58822 0.23075 0.57487 0.0
N2164 N 0.56023 0.15095 0.5864 0.0
N2165 N 0.58594 0.20768 0.56879 0.0
H2166 H 0.54685 0.77371 0.38947 0.0
H2167 H 0.67741 0.81286 0.3737 0.0
H2168 H 0.60044 0.79147 0.44955 0.0
H2169 H 0.62508 0.77175 0.31848 0.0
H2170 H 0.65011 0.8069 0.402 0.0
H2171 H 0.57564 0.77542 0.36308 0.0
C2172 C 0.56467 0.7778 0.39715 0.0
C2173 C 0.57119 0.78234 0.42181 0.0
C2174 C 0.64473 0.79911 0.38369 0.0
C2175 C 0.60436 0.78456 0.39157 0.0
C2176 C 0.66032 0.80239 0.36752 0.0
C2177 C 0.65348 0.79315 0.34347 0.0
C2178 C 0.6221 0.78671 0.3757 0.0
C2179 C 0.63102 0.77983 0.33661 0.0
C2180 C 0.58112 0.77873 0.38205 0.0
C2181 C 0.59461 0.78766 0.43067 0.0
N2182 N 0.61613 0.77726 0.35252 0.0
N2183 N 0.61038 0.78882 0.41555 0.0
H2184 H 0.0486 0.287 0.44407 0.0
H2185 H 0.04804 0.15481 0.42782 0.0
H2186 H 0.06814 0.25113 0.3836 0.0
H2187 H 0.03429 0.18965 0.49218 0.0
H2188 H 0.05751 0.19103 0.41269 0.0
H2189 H 0.04531 0.25274 0.46343 0.0
C2190 C 0.0525 0.27208 0.43498 0.0
C2191 C 0.05857 0.27197 0.41209 0.0
C2192 C 0.05258 0.19089 0.43021 0.0
C2193 C 0.05468 0.23275 0.43406 0.0
C2194 C 0.04709 0.17017 0.4388 0.0
C2195 C 0.04009 0.16921 0.46113 0.0
C2196 C 0.05092 0.21092 0.44394 0.0
C2197 C 0.03959 0.18969 0.47483 0.0
C2198 C 0.05056 0.25252 0.44603 0.0
C2199 C 0.06329 0.25208 0.40117 0.0
N2200 N 0.04468 0.20973 0.4659 0.0
N2201 N 0.0611 0.23332 0.41217 0.0
H2202 H 0.61387 0.28825 0.22014 0.0
H2203 H 0.71364 0.25574 0.30409 0.0
H2204 H 0.59764 0.24113 0.26984 0.0
H2205 H 0.72378 0.29335 0.24546 0.0
H2206 H 0.67215 0.25093 0.29428 0.0
H2207 H 0.65415 0.29172 0.23215 0.0
C2208 C 0.61865 0.27869 0.23385 0.0
C2209 C 0.60175 0.26433 0.24387 0.0
C2210 C 0.68345 0.26018 0.28354 0.0
C2211 C 0.64927 0.26829 0.25794 0.0
C2212 C 0.70731 0.26281 0.28902 0.0
C2213 C 0.72271 0.27474 0.27548 0.0
C2214 C 0.67463 0.2699 0.26454 0.0
C2215 C 0.713 0.28392 0.25653 0.0
C2216 C 0.64197 0.28067 0.24067 0.0
C2217 C 0.60972 0.25259 0.26163 0.0
N2218 N 0.68993 0.28139 0.2518 0.0
N2219 N 0.63278 0.25477 0.26801 0.0
H2220 H 0.54724 0.90247 0.89094 0.0
H2221 H 0.56591 0.96662 0.02484 0.0
H2222 H 0.57419 0.87613 0.95176 0.0
H2223 H 0.53703 0.99227 0.96479 0.0
H2224 H 0.56948 0.93356 0.99823 0.0
H2225 H 0.54429 0.93596 0.91734 0.0
C2226 C 0.55264 0.90373 0.90979 0.0
C2227 C 0.56102 0.88635 0.91902 0.0
C2228 C 0.56259 0.94654 0.99078 0.0
C2229 C 0.5576 0.92476 0.94947 0.0
C2230 C 0.56047 0.96537 0.00601 0.0
C2231 C 0.55167 0.98254 0.99696 0.0
C2232 C 0.55576 0.94473 0.96622 0.0
C2233 C 0.54485 0.98002 0.9724 0.0
C2234 C 0.55091 0.92287 0.92489 0.0
C2235 C 0.56765 0.88901 0.9437 0.0
N2236 N 0.54704 0.96153 0.95791 0.0
N2237 N 0.56578 0.90774 0.95798 0.0
H2238 H 0.95639 0.7827 0.71875 0.0
H2239 H 0.87123 0.78667 0.8162 0.0
H2240 H 0.96653 0.75617 0.78441 0.0
H2241 H 0.84823 0.78364 0.74191 0.0
H2242 H 0.90808 0.7809 0.80653 0.0
H2243 H 0.91936 0.78831 0.72821 0.0
C2244 C 0.95104 0.77819 0.73527 0.0
C2245 C 0.96509 0.76893 0.75073 0.0
C2246 C 0.89503 0.7815 0.79229 0.0
C2247 C 0.92207 0.77575 0.76201 0.0
C2248 C 0.87386 0.78496 0.79783 0.0
C2249 C 0.8562 0.7858 0.77998 0.0
C2250 C 0.89922 0.77922 0.76858 0.0
C2251 C 0.86103 0.78313 0.75644 0.0
C2252 C 0.92968 0.78133 0.74063 0.0
C2253 C 0.95663 0.76335 0.77179 0.0
N2254 N 0.88189 0.78021 0.75153 0.0
N2255 N 0.93607 0.76701 0.77683 0.0
H2256 H 0.08706 0.08136 0.86566 0.0
H2257 H 0.098 0.0271 0.98644 0.0
H2258 H 0.12843 0.03368 0.87689 0.0
H2259 H 0.0493 0.06602 0.9681 0.0
H2260 H 0.11126 0.03074 0.94779 0.0
H2261 H 0.07471 0.07717 0.90418 0.0
C2262 C 0.0935 0.0699 0.87617 0.0
C2263 C 0.10876 0.05777 0.86784 0.0
C2264 C 0.09769 0.03849 0.95228 0.0
C2265 C 0.09475 0.05302 0.91249 0.0
C2266 C 0.09023 0.03654 0.9744 0.0
C2267 C 0.07256 0.04632 0.98061 0.0
C2268 C 0.08751 0.05044 0.93629 0.0
C2269 C 0.06293 0.05813 0.96413 0.0
C2270 C 0.08643 0.06752 0.89827 0.0
C2271 C 0.11654 0.04326 0.88246 0.0
N2272 N 0.07052 0.05987 0.94289 0.0
N2273 N 0.10953 0.04135 0.90406 0.0
H2274 H 0.79159 0.37204 0.57269 0.0
H2275 H 0.84949 0.38888 0.70692 0.0
H2276 H 0.80626 0.43554 0.62034 0.0
H2277 H 0.84726 0.33095 0.65503 0.0
H2278 H 0.82527 0.40272 0.67802 0.0
H2279 H 0.80235 0.35313 0.60578 0.0
C2280 C 0.79656 0.38191 0.59022 0.0
C2281 C 0.79861 0.40551 0.59373 0.0
C2282 C 0.82999 0.38692 0.673 0.0
C2283 C 0.81119 0.38407 0.63142 0.0
C2284 C 0.84384 0.37909 0.6894 0.0
C2285 C 0.8507 0.35904 0.68307 0.0
C2286 C 0.82296 0.37458 0.65016 0.0
C2287 C 0.84284 0.34684 0.6603 0.0
C2288 C 0.8028 0.37111 0.60906 0.0
C2289 C 0.80477 0.41737 0.61682 0.0
N2290 N 0.82945 0.3549 0.64456 0.0
N2291 N 0.81129 0.40658 0.63479 0.0
H2292 H 0.48282 0.03611 0.36115 0.0
H2293 H 0.50811 0.07864 0.50007 0.0
H2294 H 0.43972 0.07187 0.39684 0.0
H2295 H 0.52932 0.02188 0.4654 0.0
H2296 H 0.48796 0.08262 0.46183 0.0
H2297 H 0.5065 0.03851 0.39889 0.0
C2298 C 0.47851 0.04477 0.37689 0.0
C2299 C 0.45913 0.05357 0.37597 0.0
C2300 C 0.49722 0.06945 0.46269 0.0
C2301 C 0.48603 0.05615 0.41914 0.0
C2302 C 0.50859 0.06712 0.4844 0.0
C2303 C 0.52068 0.05019 0.48568 0.0
C2304 C 0.4982 0.05485 0.44233 0.0
C2305 C 0.52071 0.03557 0.46503 0.0
C2306 C 0.49197 0.04601 0.39842 0.0
C2307 C 0.45447 0.06476 0.39687 0.0
N2308 N 0.50975 0.03833 0.44413 0.0
N2309 N 0.46777 0.06556 0.41779 0.0
H2310 H 0.81212 0.71468 0.11897 0.0
H2311 H 0.76762 0.79429 0.21465 0.0
H2312 H 0.76562 0.75523 0.09833 0.0
H2313 H 0.80759 0.74665 0.23159 0.0
H2314 H 0.76789 0.78247 0.17235 0.0
H2315 H 0.81258 0.72908 0.16026 0.0
C2316 C 0.80213 0.72684 0.12306 0.0
C2317 C 0.78876 0.73368 0.10492 0.0
C2318 C 0.77656 0.77461 0.18536 0.0
C2319 C 0.78906 0.75025 0.15286 0.0
C2320 C 0.77632 0.78127 0.20957 0.0
C2321 C 0.78735 0.77129 0.2269 0.0
C2322 C 0.78817 0.75806 0.17837 0.0
C2323 C 0.79866 0.75476 0.21906 0.0
C2324 C 0.80234 0.73502 0.1468 0.0
C2325 C 0.77628 0.74956 0.11161 0.0
N2326 N 0.79879 0.74876 0.19553 0.0
N2327 N 0.77662 0.75721 0.13504 0.0
H2328 H 0.09785 0.08447 0.74093 0.0
H2329 H 0.0563 0.01828 0.60974 0.0
H2330 H 0.11243 0.01996 0.71852 0.0
H2331 H 0.07821 0.09163 0.62324 0.0
H2332 H 0.06959 0.01697 0.65126 0.0
H2333 H 0.0825 0.08564 0.6996 0.0
C2334 C 0.09728 0.0703 0.72744 0.0
C2335 C 0.10617 0.05196 0.7332 0.0
C2336 C 0.07133 0.03337 0.64514 0.0
C2337 C 0.08882 0.05325 0.68607 0.0
C2338 C 0.06373 0.03418 0.62143 0.0
C2339 C 0.06578 0.0552 0.61293 0.0
C2340 C 0.08063 0.05372 0.66076 0.0
C2341 C 0.07583 0.07515 0.629 0.0
C2342 C 0.08883 0.07113 0.70387 0.0
C2343 C 0.10558 0.03433 0.71489 0.0
N2344 N 0.08266 0.07396 0.6522 0.0
N2345 N 0.09696 0.03534 0.69221 0.0
H2346 H 0.77452 0.40205 0.44702 0.0
H2347 H 0.82236 0.309 0.37406 0.0
H2348 H 0.81383 0.35939 0.4785 0.0
H2349 H 0.76941 0.33756 0.34237 0.0
H2350 H 0.82048 0.32926 0.41237 0.0
H2351 H 0.77259 0.37972 0.40815 0.0
C2352 C 0.78244 0.38782 0.44579 0.0
C2353 C 0.79449 0.38262 0.46587 0.0
C2354 C 0.80914 0.33101 0.39709 0.0
C2355 C 0.79262 0.35746 0.42188 0.0
C2356 C 0.81017 0.31941 0.37523 0.0
C2357 C 0.79567 0.32128 0.3552 0.0
C2358 C 0.79374 0.34487 0.39887 0.0
C2359 C 0.78075 0.33557 0.35752 0.0
C2360 C 0.7814 0.37518 0.42367 0.0
C2361 C 0.80452 0.36412 0.46342 0.0
N2362 N 0.78015 0.3469 0.37909 0.0
N2363 N 0.80351 0.35232 0.44177 0.0
H2364 H 0.38105 0.01485 0.2318 0.0
H2365 H 0.48621 0.02287 0.15986 0.0
H2366 H 0.44793 0.05863 0.25839 0.0
H2367 H 0.4305 0.9631 0.1531 0.0
H2368 H 0.4687 0.04213 0.18986 0.0
H2369 H 0.39525 1.00256 0.19571 0.0
C2370 C 0.39854 0.02234 0.22978 0.0
C2371 C 0.41347 0.03753 0.24818 0.0
C2372 C 0.46031 0.02485 0.18168 0.0
C2373 C 0.4297 0.02344 0.20724 0.0
C2374 C 0.47024 0.0139 0.1647 0.0
C2375 C 0.45978 0.99137 0.15437 0.0
C2376 C 0.43967 0.01324 0.18797 0.0
C2377 C 0.43916 0.98038 0.16103 0.0
C2378 C 0.40665 0.01516 0.20931 0.0
C2379 C 0.43598 0.04667 0.24469 0.0
N2380 N 0.42971 0.99146 0.17748 0.0
N2381 N 0.44352 0.03927 0.22465 0.0
H2382 H 0.81291 0.73218 0.96871 0.0
H2383 H 0.75152 0.76439 0.85084 0.0
H2384 H 0.74507 0.74305 0.96301 0.0
H2385 H 0.82476 0.78068 0.86874 0.0
H2386 H 0.74801 0.75188 0.88969 0.0
H2387 H 0.81686 0.74535 0.93012 0.0
C2388 C 0.79886 0.73737 0.95941 0.0
C2389 C 0.77868 0.73664 0.96932 0.0
C2390 C 0.76485 0.75819 0.88511 0.0
C2391 C 0.78295 0.75134 0.92479 0.0
C2392 C 0.76688 0.76525 0.86286 0.0
C2393 C 0.78848 0.77359 0.85637 0.0
C2394 C 0.78455 0.75902 0.90099 0.0
C2395 C 0.80775 0.77442 0.8729 0.0
C2396 C 0.80115 0.74492 0.93738 0.0
C2397 C 0.76103 0.7435 0.95627 0.0
N2398 N 0.80534 0.76709 0.89428 0.0
N2399 N 0.7635 0.75036 0.93471 0.0
H2400 H 0.82653 0.06641 0.0667 0.0
H2401 H 0.93064 0.1099 0.99974 0.0
H2402 H 0.83567 0.12987 0.03791 0.0
H2403 H 0.90046 0.03845 1.00013 0.0
H2404 H 0.89831 0.1192 0.01686 0.0
H2405 H 0.85722 0.05752 0.04654 0.0
C2406 C 0.83508 0.07848 0.05621 0.0
C2407 C 0.82871 0.09886 0.05391 0.0
C2408 C 0.89878 0.1015 0.01293 0.0
C2409 C 0.8635 0.08886 0.03092 0.0
C2410 C 0.91704 0.09619 0.00301 0.0
C2411 C 0.91823 0.07341 0.99868 0.0
C2412 C 0.88196 0.08391 0.01874 0.0
C2413 C 0.90039 0.05628 0.00362 0.0
C2414 C 0.85241 0.07335 0.04461 0.0
C2415 C 0.84015 0.11393 0.04003 0.0
N2416 N 0.88308 0.06191 0.01369 0.0
N2417 N 0.85719 0.10866 0.02908 0.0
H2418 H 0.39432 0.41056 0.05683 0.0
H2419 H 0.46563 0.53271 0.03841 0.0
H2420 H 0.36502 0.46882 0.05842 0.0
H2421 H 0.49608 0.48017 0.06221 0.0
H2422 H 0.42796 0.50911 0.04181 0.0
H2423 H 0.43136 0.43541 0.05458 0.0
C2424 C 0.39569 0.4286 0.05672 0.0
C2425 C 0.37659 0.43764 0.05786 0.0
C2426 C 0.44298 0.50291 0.04637 0.0
C2427 C 0.41891 0.46617 0.05513 0.0
C2428 C 0.46446 0.51633 0.04444 0.0
C2429 C 0.4841 0.50848 0.05011 0.0
C2430 C 0.44121 0.4814 0.05363 0.0
C2431 C 0.48151 0.48703 0.05768 0.0
C2432 C 0.41684 0.44279 0.05551 0.0
C2433 C 0.37937 0.46118 0.05769 0.0
N2434 N 0.46049 0.47423 0.05907 0.0
N2435 N 0.40016 0.47466 0.05621 0.0
H2436 H 0.37858 0.57682 0.74765 0.0
H2437 H 0.38079 0.68046 0.8472 0.0
H2438 H 0.42175 0.59183 0.81555 0.0
H2439 H 0.34665 0.67336 0.77552 0.0
H2440 H 0.39258 0.64549 0.83686 0.0
H2441 H 0.36347 0.60981 0.75854 0.0
C2442 C 0.38483 0.58702 0.76488 0.0
C2443 C 0.40151 0.58167 0.78072 0.0
C2444 C 0.38251 0.65155 0.82338 0.0
C2445 C 0.38426 0.61925 0.79325 0.0
C2446 C 0.37589 0.67159 0.82923 0.0
C2447 C 0.36309 0.68004 0.81209 0.0
C2448 C 0.37622 0.63978 0.80022 0.0
C2449 C 0.35655 0.66745 0.78928 0.0
C2450 C 0.37621 0.60583 0.77105 0.0
C2451 C 0.40899 0.59541 0.80277 0.0
N2452 N 0.36331 0.64795 0.78395 0.0
N2453 N 0.4003 0.6136 0.80838 0.0
H2454 H 0.21887 0.56539 0.57076 0.0
H2455 H 0.1025 0.59407 0.55331 0.0
H2456 H 0.2049 0.61178 0.52263 0.0
H2457 H 0.10473 0.52496 0.56104 0.0
H2458 H 0.14094 0.6012 0.54323 0.0
H2459 H 0.17782 0.54939 0.56813 0.0
C2460 C 0.20723 0.57181 0.5592 0.0
C2461 C 0.21521 0.59025 0.5473 0.0
C2462 C 0.13285 0.58431 0.54662 0.0
C2463 C 0.16871 0.57228 0.54446 0.0
C2464 C 0.11092 0.58023 0.55223 0.0
C2465 C 0.10034 0.55876 0.5572 0.0
C2466 C 0.14455 0.56703 0.547 0.0
C2467 C 0.11237 0.5417 0.55699 0.0
C2468 C 0.18389 0.56265 0.55769 0.0
C2469 C 0.19945 0.59785 0.53246 0.0
N2470 N 0.13414 0.5463 0.55224 0.0
N2471 N 0.17685 0.58913 0.53185 0.0
H2472 H 0.70916 0.99625 0.81048 0.0
H2473 H 0.72731 0.89724 0.84913 0.0
H2474 H 0.76491 0.99335 0.77097 0.0
H2475 H 0.79634 0.92297 0.83607 0.0
H2476 H 0.71563 0.92645 0.82842 0.0
H2477 H 0.71619 0.96414 0.82919 0.0
C2478 C 0.72272 0.98867 0.80556 0.0
C2479 C 0.73641 0.99733 0.78908 0.0
C2480 C 0.73338 0.92591 0.83039 0.0
C2481 C 0.74416 0.96029 0.80991 0.0
C2482 C 0.74003 0.9092 0.84211 0.0
C2483 C 0.76288 0.90797 0.84467 0.0
C2484 C 0.74977 0.9415 0.8213 0.0
C2485 C 0.77854 0.92333 0.8345 0.0
C2486 C 0.72654 0.97016 0.81604 0.0
C2487 C 0.75388 0.98706 0.78349 0.0
N2488 N 0.77169 0.93954 0.8233 0.0
N2489 N 0.75736 0.96911 0.79404 0.0
H2490 H 0.766 0.96473 0.5874 0.0
H2491 H 0.66044 0.95336 0.48669 0.0
H2492 H 0.75178 0.9174 0.52232 0.0
H2493 H 0.66888 0.9933 0.55574 0.0
H2494 H 0.69583 0.94256 0.49826 0.0
H2495 H 0.73232 0.97806 0.57478 0.0
C2496 C 0.75582 0.95719 0.57041 0.0
C2497 C 0.7616 0.93988 0.55587 0.0
C2498 C 0.68994 0.95369 0.51088 0.0
C2499 C 0.72316 0.95505 0.5414 0.0
C2500 C 0.66969 0.95973 0.50434 0.0
C2501 C 0.6616 0.97397 0.52039 0.0
C2502 C 0.70222 0.96202 0.5336 0.0
C2503 C 0.67456 0.98231 0.5428 0.0
C2504 C 0.7366 0.96479 0.56325 0.0
C2505 C 0.74787 0.93073 0.53408 0.0
N2506 N 0.69425 0.97613 0.5488 0.0
N2507 N 0.72922 0.93842 0.5275 0.0
H2508 H 0.36933 0.47387 0.77404 0.0
H2509 H 0.35799 0.3406 0.7673 0.0
H2510 H 0.4267 0.44324 0.77467 0.0
H2511 H 0.30768 0.37249 0.79427 0.0
H2512 H 0.38125 0.37793 0.76418 0.0
H2513 H 0.34439 0.43648 0.7759 0.0
C2514 C 0.37666 0.45927 0.77445 0.0
C2515 C 0.40013 0.4616 0.77421 0.0
C2516 C 0.36509 0.37676 0.77072 0.0
C2517 C 0.37177 0.41905 0.77619 0.0
C2518 C 0.3517 0.35542 0.77245 0.0
C2519 C 0.33075 0.35334 0.78104 0.0
C2520 C 0.35746 0.39625 0.77735 0.0
C2521 C 0.32364 0.37327 0.78745 0.0
C2522 C 0.36245 0.43804 0.77563 0.0
C2523 C 0.40874 0.44221 0.77491 0.0
N2524 N 0.33698 0.39397 0.78541 0.0
N2525 N 0.39453 0.42172 0.77577 0.0
H2526 H 0.20887 0.63516 0.29162 0.0
H2527 H 0.31601 0.7346 0.27994 0.0
H2528 H 0.27487 0.62423 0.28076 0.0
H2529 H 0.24628 0.73949 0.2671 0.0
H2530 H 0.30271 0.69609 0.28972 0.0
H2531 H 0.22433 0.67608 0.29319 0.0
C2532 C 0.22669 0.6414 0.28995 0.0
C2533 C 0.24056 0.62636 0.28567 0.0
C2534 C 0.29035 0.70572 0.2851 0.0
C2535 C 0.25814 0.67278 0.28734 0.0
C2536 C 0.2979 0.72748 0.27945 0.0
C2537 C 0.28205 0.73989 0.27319 0.0
C2538 C 0.26686 0.69656 0.28422 0.0
C2539 C 0.25884 0.73035 0.27253 0.0
C2540 C 0.23543 0.66467 0.29075 0.0
C2541 C 0.26353 0.63527 0.28376 0.0
N2542 N 0.25183 0.70907 0.27799 0.0
N2543 N 0.27158 0.65798 0.28437 0.0
H2544 H 0.57173 0.73402 0.5357 0.0
H2545 H 0.51893 0.59717 0.50891 0.0
H2546 H 0.50944 0.70281 0.48818 0.0
H2547 H 0.57566 0.62948 0.56321 0.0
H2548 H 0.51584 0.63505 0.50019 0.0
H2549 H 0.57412 0.69612 0.54495 0.0
C2550 C 0.5584 0.7193 0.52727 0.0
C2551 C 0.5402 0.7221 0.5112 0.0
C2552 C 0.52902 0.63391 0.51403 0.0
C2553 C 0.54308 0.67776 0.52164 0.0
C2554 C 0.53083 0.6121 0.5191 0.0
C2555 C 0.54774 0.60958 0.53695 0.0
C2556 C 0.5443 0.65387 0.5267 0.0
C2557 C 0.56249 0.63007 0.54926 0.0
C2558 C 0.55983 0.69748 0.53256 0.0
C2559 C 0.52372 0.7019 0.50083 0.0
N2560 N 0.5605 0.65102 0.54392 0.0
N2561 N 0.52559 0.68088 0.50612 0.0
H2562 H 0.63912 0.31838 0.70641 0.0
H2563 H 0.76279 0.29275 0.71281 0.0
H2564 H 0.67396 0.31569 0.64529 0.0
H2565 H 0.733 0.31127 0.77426 0.0
H2566 H 0.73076 0.30021 0.68746 0.0
H2567 H 0.67318 0.31485 0.73108 0.0
C2568 C 0.65406 0.31738 0.69816 0.0
C2569 C 0.65357 0.31754 0.67362 0.0
C2570 C 0.7313 0.30278 0.70651 0.0
C2571 C 0.69292 0.31299 0.70205 0.0
C2572 C 0.74979 0.29879 0.72104 0.0
C2573 C 0.75089 0.30166 0.74582 0.0
C2574 C 0.7135 0.30942 0.71678 0.0
C2575 C 0.73283 0.30849 0.75531 0.0
C2576 C 0.67356 0.31528 0.71233 0.0
C2577 C 0.67355 0.31596 0.66411 0.0
N2578 N 0.71497 0.31205 0.74087 0.0
N2579 N 0.69229 0.31355 0.67826 0.0
H2580 H 0.04644 0.35913 0.98101 0.0
H2581 H 1.01766 0.4639 0.06218 0.0
H2582 H 0.99981 0.34894 0.03199 0.0
H2583 H 0.05888 0.4729 0.00625 0.0
H2584 H 1.01147 0.42241 0.05234 0.0
H2585 H 0.05209 0.40055 0.99111 0.0
C2586 C 0.03748 0.36547 0.99449 0.0
C2587 C 0.02268 0.35003 0.00566 0.0
C2588 C 0.02183 0.43342 0.04213 0.0
C2589 C 0.02908 0.39836 0.01742 0.0
C2590 C 0.02524 0.45734 0.04766 0.0
C2591 C 0.03857 0.47251 0.03492 0.0
C2592 C 0.03203 0.42408 0.02381 0.0
C2593 C 0.04837 0.46233 0.01668 0.0
C2594 C 0.04067 0.38933 1.00021 0.0
C2595 C 1.0115 0.35983 0.02287 0.0
N2596 N 0.04496 0.43909 0.01181 0.0
N2597 N 1.01492 0.38308 0.02815 0.0
H2598 H 0.03669 0.78279 0.208 0.0
H2599 H 0.90718 0.78647 0.20967 0.0
H2600 H 1.00055 0.8125 0.15589 0.0
H2601 H 0.94914 0.76859 0.26655 0.0
H2602 H 0.9414 0.79962 0.1911 0.0
H2603 H 1.00511 0.78003 0.23072 0.0
C2604 C 0.02212 0.78888 0.20139 0.0
C2605 C 0.02122 0.79782 0.17996 0.0
C2606 C 0.94319 0.79334 0.20794 0.0
C2607 C 0.98471 0.79457 0.20593 0.0
C2608 C 0.92374 0.78607 0.21859 0.0
C2609 C 0.92555 0.77657 0.23963 0.0
C2610 C 0.96439 0.79082 0.21839 0.0
C2611 C 0.94718 0.77591 0.25035 0.0
C2612 C 1.00408 0.78738 0.21445 0.0
C2613 C 1.00193 0.80553 0.17235 0.0
N2614 N 0.96571 0.78266 0.23948 0.0
N2615 N 0.98428 0.80349 0.1852 0.0
H2616 H 0.5224 0.32833 0.18447 0.0
H2617 H 0.56898 0.4046 0.08741 0.0
H2618 H 0.56165 0.30664 0.1323 0.0
H2619 H 0.54513 0.43079 0.15018 0.0
H2620 H 0.5608 0.36658 0.09961 0.0
H2621 H 0.52524 0.36408 0.16821 0.0
C2622 C 0.5314 0.33098 0.16943 0.0
C2623 C 0.54184 0.3145 0.15978 0.0
C2624 C 0.55724 0.38064 0.11062 0.0
C2625 C 0.54517 0.3554 0.14106 0.0
C2626 C 0.56175 0.40227 0.10359 0.0
C2627 C 0.55792 0.42088 0.11794 0.0
C2628 C 0.54861 0.37761 0.13201 0.0
C2629 C 0.54865 0.41697 0.13879 0.0
C2630 C 0.5331 0.35143 0.16021 0.0
C2631 C 0.55341 0.31892 0.14036 0.0
N2632 N 0.54438 0.39581 0.14522 0.0
N2633 N 0.5548 0.33897 0.13166 0.0
H2634 H 0.98881 0.31417 0.29983 0.0
H2635 H 0.86502 0.28651 0.3439 0.0
H2636 H 0.97727 0.30775 0.37167 0.0
H2637 H 0.87309 0.30865 0.27607 0.0
H2638 H 0.90618 0.29096 0.35211 0.0
H2639 H 0.94705 0.30888 0.28847 0.0
C2640 C 0.97766 0.31146 0.31316 0.0
C2641 C 0.98695 0.31159 0.33686 0.0
C2642 C 0.89909 0.29493 0.33539 0.0
C2643 C 0.93893 0.3054 0.32393 0.0
C2644 C 0.87537 0.29235 0.33065 0.0
C2645 C 0.86517 0.29729 0.30925 0.0
C2646 C 0.91325 0.30235 0.31863 0.0
C2647 C 0.87996 0.30481 0.29293 0.0
C2648 C 0.95377 0.30859 0.30669 0.0
C2649 C 0.97131 0.30809 0.35323 0.0
N2650 N 0.90308 0.30703 0.29789 0.0
N2651 N 0.94847 0.30514 0.34652 0.0
H2652 H 1.00435 0.68181 0.68957 0.0
H2653 H 0.06019 0.63107 0.5829 0.0
H2654 H 0.04161 0.72249 0.64336 0.0
H2655 H 1.00396 0.58935 0.60951 0.0
H2656 H 0.05598 0.66426 0.60828 0.0
H2657 H 1.00597 0.64717 0.66363 0.0
C2658 C 1.01263 0.68353 0.67395 0.0
C2659 C 0.02279 0.70525 0.66876 0.0
C2660 C 0.0445 0.64786 0.60859 0.0
C2661 C 0.0251 0.66572 0.63934 0.0
C2662 C 0.04679 0.62884 0.5939 0.0
C2663 C 0.03224 0.60728 0.59372 0.0
C2664 C 0.02778 0.64545 0.62369 0.0
C2665 C 1.01572 0.60554 0.60913 0.0
C2666 C 1.0136 0.66375 0.65919 0.0
C2667 C 0.03344 0.70628 0.64826 0.0
N2668 N 1.01398 0.62433 0.62355 0.0
N2669 N 0.03446 0.68693 0.63455 0.0
H2670 H 0.6068 0.8092 0.8072 0.0
H2671 H 0.74455 0.83736 0.84033 0.0
H2672 H 0.64344 0.83688 0.87706 0.0
H2673 H 0.70865 0.79083 0.77824 0.0
H2674 H 0.70778 0.84152 0.85138 0.0
H2675 H 0.64344 0.80624 0.79377 0.0
C2676 C 0.62243 0.81492 0.81967 0.0
C2677 C 0.62165 0.82335 0.84342 0.0
C2678 C 0.70786 0.83045 0.83524 0.0
C2679 C 0.66409 0.82014 0.82799 0.0
C2680 C 0.72904 0.82818 0.82879 0.0
C2681 C 0.73014 0.81374 0.80816 0.0
C2682 C 0.68717 0.81844 0.82096 0.0
C2683 C 0.70899 0.80213 0.79431 0.0
C2684 C 0.64342 0.81308 0.81201 0.0
C2685 C 0.6428 0.8302 0.85863 0.0
N2686 N 0.68861 0.80476 0.80086 0.0
N2687 N 0.66281 0.82856 0.85072 0.0
H2688 H 0.51031 0.53109 0.73133 0.0
H2689 H 0.49412 0.55343 0.59596 0.0
H2690 H 0.44901 0.54414 0.69603 0.0
H2691 H 0.55697 0.54476 0.63255 0.0
H2692 H 0.4774 0.55037 0.63259 0.0
H2693 H 0.52786 0.53631 0.69541 0.0
C2694 C 0.50057 0.53515 0.71611 0.0
C2695 C 0.47813 0.53714 0.71678 0.0
C2696 C 0.49489 0.54925 0.63261 0.0
C2697 C 0.49809 0.54306 0.67551 0.0
C2698 C 0.50446 0.55103 0.61167 0.0
C2699 C 0.52701 0.54935 0.61103 0.0
C2700 C 0.50791 0.54572 0.65311 0.0
C2701 C 0.53953 0.54619 0.63205 0.0
C2702 C 0.5106 0.53811 0.69558 0.0
C2703 C 0.46634 0.54239 0.69642 0.0
N2704 N 0.52981 0.5444 0.65213 0.0
N2705 N 0.47642 0.54509 0.67667 0.0
H2706 H 0.76625 0.20779 0.02719 0.0
H2707 H 0.76077 0.19687 0.88784 0.0
H2708 H 0.79411 0.15975 0.98613 0.0
H2709 H 0.73505 0.24634 0.92954 0.0
H2710 H 0.77796 0.18667 0.92416 0.0
H2711 H 0.76073 0.22649 0.99251 0.0
C2712 C 0.77162 0.20149 0.01091 0.0
C2713 C 0.78026 0.18203 0.00923 0.0
C2714 C 0.7687 0.19986 0.9254 0.0
C2715 C 0.77356 0.20293 0.96949 0.0
C2716 C 0.75885 0.20566 0.9047 0.0
C2717 C 0.74633 0.22234 0.90579 0.0
C2718 C 0.76583 0.21067 0.94733 0.0
C2719 C 0.74419 0.23307 0.928 0.0
C2720 C 0.76841 0.21211 0.99112 0.0
C2721 C 0.78726 0.17466 0.98798 0.0
N2722 N 0.75376 0.22694 0.94796 0.0
N2723 N 0.78332 0.18489 0.96869 0.0
H2724 H 0.18839 0.56679 0.19096 0.0
H2725 H 0.08513 0.50373 0.10073 0.0
H2726 H 0.14315 0.51223 0.21654 0.0
H2727 H 0.08994 0.57409 0.12748 0.0
H2728 H 0.11189 0.50176 0.13556 0.0
H2729 H 0.1585 0.56493 0.15778 0.0
C2730 C 0.1724 0.55401 0.18917 0.0
C2731 C 0.16806 0.53952 0.20621 0.0
C2732 C 0.10672 0.51743 0.13379 0.0
C2733 C 0.1344 0.53742 0.16886 0.0
C2734 C 0.09164 0.51859 0.11414 0.0
C2735 C 0.08566 0.53911 0.11149 0.0
C2736 C 0.11618 0.53714 0.15012 0.0
C2737 C 0.09424 0.55798 0.12915 0.0
C2738 C 0.15541 0.5532 0.17056 0.0
C2739 C 0.14697 0.52357 0.20355 0.0
N2740 N 0.10965 0.55673 0.14762 0.0
N2741 N 0.13076 0.52281 0.18498 0.0
H2742 H 0.8337 0.82837 0.49585 0.0
H2743 H 0.78729 0.84318 0.36362 0.0
H2744 H 0.79029 0.8733 0.48023 0.0
H2745 H 0.81796 0.78844 0.37959 0.0
H2746 H 0.78966 0.85544 0.40608 0.0
H2747 H 0.82946 0.81447 0.45345 0.0
C2748 C 0.82307 0.83517 0.48356 0.0
C2749 C 0.81225 0.852 0.49177 0.0
C2750 C 0.79594 0.84077 0.40031 0.0
C2751 C 0.8076 0.83631 0.4429 0.0
C2752 C 0.79466 0.83376 0.37599 0.0
C2753 C 0.80275 0.81486 0.36781 0.0
C2754 C 0.80554 0.82897 0.41679 0.0
C2755 C 0.81192 0.80332 0.38489 0.0
C2756 C 0.8207 0.82723 0.45929 0.0
C2757 C 0.79885 0.86023 0.47484 0.0
N2758 N 0.81318 0.81061 0.40847 0.0
N2759 N 0.79703 0.85243 0.45129 0.0
H2760 H 0.46642 0.5523 0.86156 0.0
H2761 H 0.55223 0.52145 0.9624 0.0
H2762 H 0.51305 0.51051 0.84698 0.0
H2763 H 0.49829 0.5537 0.97756 0.0
H2764 H 0.5396 0.51919 0.92012 0.0
H2765 H 0.47977 0.55551 0.90402 0.0
C2766 C 0.47961 0.54398 0.86724 0.0
C2767 C 0.48864 0.53115 0.85059 0.0
C2768 C 0.53048 0.52672 0.93268 0.0
C2769 C 0.50392 0.53463 0.89929 0.0
C2770 C 0.53758 0.52786 0.95692 0.0
C2771 C 0.5261 0.53742 0.97374 0.0
C2772 C 0.51193 0.53555 0.92503 0.0
C2773 C 0.50763 0.54606 0.96534 0.0
C2774 C 0.48715 0.54572 0.89152 0.0
C2775 C 0.5056 0.52061 0.85909 0.0
N2776 N 0.50116 0.54494 0.94164 0.0
N2777 N 0.51265 0.52256 0.88278 0.0
H2778 H 0.77214 0.19532 0.11126 0.0
H2779 H 0.81417 0.23139 0.24853 0.0
H2780 H 0.79887 0.15169 0.15537 0.0
H2781 H 0.76597 0.26108 0.20968 0.0
H2782 H 0.81242 0.20449 0.2135 0.0
H2783 H 0.77379 0.22231 0.14635 0.0
C2784 C 0.7785 0.19148 0.12834 0.0
C2785 C 0.78546 0.1713 0.13054 0.0
C2786 C 0.80218 0.21684 0.21268 0.0
C2787 C 0.78724 0.20201 0.1705 0.0
C2788 C 0.80313 0.23222 0.23264 0.0
C2789 C 0.79011 0.24842 0.23194 0.0
C2790 C 0.78834 0.21789 0.19186 0.0
C2791 C 0.77637 0.24891 0.21083 0.0
C2792 C 0.77926 0.20682 0.14832 0.0
C2793 C 0.79335 0.16708 0.15302 0.0
N2794 N 0.77589 0.2338 0.19144 0.0
N2795 N 0.7941 0.18243 0.17227 0.0
H2796 H 0.12537 0.55073 0.30758 0.0
H2797 H 0.13501 0.58457 0.44633 0.0
H2798 H 0.18475 0.55086 0.35656 0.0
H2799 H 0.0754 0.58141 0.39618 0.0
H2800 H 0.15129 0.56615 0.41483 0.0
H2801 H 0.10444 0.5551 0.34067 0.0
C2802 C 0.13384 0.55127 0.32538 0.0
C2803 C 0.15682 0.55075 0.32951 0.0
C2804 C 0.13455 0.56925 0.41079 0.0
C2805 C 0.13323 0.55632 0.3675 0.0
C2806 C 0.12526 0.57975 0.42873 0.0
C2807 C 0.10404 0.58488 0.42366 0.0
C2808 C 0.12252 0.56394 0.38769 0.0
C2809 C 0.09208 0.57829 0.40065 0.0
C2810 C 0.12192 0.55381 0.34428 0.0
C2811 C 0.16701 0.55127 0.35277 0.0
N2812 N 0.1016 0.56835 0.38345 0.0
N2813 N 0.15524 0.55451 0.37105 0.0
H2814 H 0.79166 0.89541 0.64095 0.0
H2815 H 0.82057 0.80765 0.7259 0.0
H2816 H 0.82513 0.84254 0.62029 0.0
H2817 H 0.7765 0.85176 0.74213 0.0
H2818 H 0.82402 0.82184 0.68831 0.0
H2819 H 0.78738 0.88112 0.67853 0.0
C2820 C 0.79806 0.88069 0.64422 0.0
C2821 C 0.80884 0.87018 0.62726 0.0
C2822 C 0.81361 0.82852 0.70002 0.0
C2823 C 0.80403 0.85379 0.67073 0.0
C2824 C 0.81157 0.82039 0.72158 0.0
C2825 C 0.79801 0.82835 0.73723 0.0
C2826 C 0.80225 0.84506 0.69389 0.0
C2827 C 0.78719 0.8452 0.73071 0.0
C2828 C 0.79557 0.87256 0.66578 0.0
C2829 C 0.81667 0.85116 0.63269 0.0
N2830 N 0.78954 0.853 0.70952 0.0
N2831 N 0.81422 0.84367 0.65396 0.0
H2832 H 0.76418 0.50963 0.5344 0.0
H2833 H 0.64132 0.45832 0.56065 0.0
H2834 H 0.73105 0.43796 0.51813 0.0
H2835 H 0.67459 0.53015 0.57009 0.0
H2836 H 0.6698 0.45075 0.53606 0.0
H2837 H 0.72728 0.51805 0.53654 0.0
C2838 C 0.74893 0.49575 0.5305 0.0
C2839 C 0.75044 0.47312 0.5265 0.0
C2840 C 0.67047 0.4682 0.54308 0.0
C2841 C 0.70841 0.48235 0.52997 0.0
C2842 C 0.65442 0.47247 0.55734 0.0
C2843 C 0.65584 0.4948 0.56777 0.0
C2844 C 0.68803 0.48642 0.53948 0.0
C2845 C 0.67275 0.51263 0.56242 0.0
C2846 C 0.72786 0.50048 0.53183 0.0
C2847 C 0.73039 0.45565 0.52141 0.0
N2848 N 0.68832 0.50799 0.54891 0.0
N2849 N 0.71011 0.46057 0.52402 0.0
H2850 H 0.23541 0.11468 0.53646 0.0
H2851 H 0.12842 0.05835 0.5599 0.0
H2852 H 0.20108 0.16469 0.51312 0.0
H2853 H 0.10242 0.10305 0.51681 0.0
H2854 H 0.16712 0.07775 0.55538 0.0
H2855 H 0.19873 0.09021 0.54019 0.0
C2856 C 0.22012 0.1205 0.53203 0.0
C2857 C 0.22138 0.1419 0.52459 0.0
C2858 C 0.153 0.08308 0.5465 0.0
C2859 C 0.17919 0.11419 0.52965 0.0
C2860 C 0.13085 0.07208 0.54931 0.0
C2861 C 0.11212 0.07898 0.53866 0.0
C2862 C 0.15637 0.10103 0.53286 0.0
C2863 C 0.11627 0.09704 0.52532 0.0
C2864 C 0.19911 0.10658 0.5345 0.0
C2865 C 0.20099 0.14841 0.51898 0.0
N2866 N 0.1379 0.10742 0.52288 0.0
N2867 N 0.18079 0.13465 0.52172 0.0
H2868 H 0.1792 0.98079 0.80215 0.0
H2869 H 0.26501 0.93757 0.72289 0.0
H2870 H 0.2143 0.01834 0.75235 0.0
H2871 H 0.22703 0.89539 0.76733 0.0
H2872 H 0.24986 0.96915 0.73798 0.0
H2873 H 0.19931 0.95078 0.79358 0.0
C2874 C 0.19123 0.9828 0.78959 0.0
C2875 C 0.195 1.002 0.77785 0.0
C2876 C 0.24486 0.95306 0.74459 0.0
C2877 C 0.21798 0.96801 0.7681 0.0
C2878 C 0.25349 0.93504 0.73592 0.0
C2879 C 0.2469 0.91382 0.74356 0.0
C2880 C 0.22936 0.94984 0.76094 0.0
C2881 C 0.23239 0.91153 0.76091 0.0
C2882 C 0.20267 0.9657 0.78471 0.0
C2883 C 0.21073 1.00378 0.76174 0.0
N2884 N 0.22383 0.9293 0.76885 0.0
N2885 N 0.22155 0.987 0.75731 0.0
H2886 H 0.37196 0.94663 0.01831 0.0
H2887 H 0.47389 0.05793 0.03147 0.0
H2888 H 0.36234 0.01498 0.02995 0.0
H2889 H 0.48184 0.98901 0.02452 0.0
H2890 H 0.43293 0.04309 0.0319 0.0
H2891 H 0.41267 0.96243 0.02114 0.0
C2892 C 0.37843 0.96499 0.02136 0.0
C2893 C 0.36384 0.97956 0.02387 0.0
C2894 C 0.44375 0.03129 0.03065 0.0
C2895 C 0.41036 0.99775 0.02724 0.0
C2896 C 0.46696 0.03973 0.03041 0.0
C2897 C 0.48098 0.02457 0.02848 0.0
C2898 C 0.43484 1.00763 0.02863 0.0
C2899 C 0.47155 1.00119 0.02683 0.0
C2900 C 0.40169 0.97401 0.02309 0.0
C2901 C 0.37309 1.00319 0.02789 0.0
N2902 N 0.44897 0.99339 0.0269 0.0
N2903 N 0.39589 1.01162 0.02943 0.0
H2904 H 0.89312 0.60293 0.83855 0.0
H2905 H 0.79853 0.66109 0.78904 0.0
H2906 H 0.82205 0.56919 0.81597 0.0
H2907 H 0.87079 0.69288 0.80009 0.0
H2908 H 0.80576 0.63148 0.81132 0.0
H2909 H 0.88361 0.63973 0.8383 0.0
C2910 C 0.87539 0.60333 0.83453 0.0
C2911 C 0.85834 0.58327 0.82665 0.0
C2912 C 0.82006 0.64502 0.80914 0.0
C2913 C 0.84756 0.62475 0.82595 0.0
C2914 C 0.81597 0.66189 0.79637 0.0
C2915 C 0.83419 0.67927 0.79265 0.0
C2916 C 0.84259 0.64514 0.81767 0.0
C2917 C 0.85641 0.67943 0.80224 0.0
C2918 C 0.87002 0.62427 0.83419 0.0
C2919 C 0.83568 0.58446 0.82164 0.0
N2920 N 0.86006 0.66233 0.81414 0.0
N2921 N 0.83097 0.60497 0.82086 0.0
H2922 H 0.81729 0.62219 0.07053 0.0
H2923 H 0.94591 0.62053 0.06235 0.0
H2924 H 0.85848 0.66713 0.03068 0.0
H2925 H 0.89762 0.56809 0.08708 0.0
H2926 H 0.91433 0.63661 0.04748 0.0
H2927 H 0.84673 0.60145 0.07484 0.0
C2928 C 0.83254 0.62764 0.06256 0.0
C2929 C 0.83549 0.64647 0.05029 0.0
C2930 C 0.91062 0.62128 0.05567 0.0
C2931 C 0.8695 0.62271 0.05522 0.0
C2932 C 0.92856 0.61207 0.06397 0.0
C2933 C 0.92417 0.59317 0.07605 0.0
C2934 C 0.88837 0.61146 0.0597 0.0
C2935 C 0.90158 0.58282 0.07799 0.0
C2936 C 0.84934 0.61568 0.06491 0.0
C2937 C 0.85556 0.65266 0.04024 0.0
N2938 N 0.88455 0.59227 0.07019 0.0
N2939 N 0.872 0.64094 0.04316 0.0
H2940 H 0.22003 0.10669 0.79013 0.0
H2941 H 0.24626 0.24159 0.82787 0.0
H2942 H 0.17755 0.13963 0.83005 0.0
H2943 H 0.2789 0.20897 0.77584 0.0
H2944 H 0.22439 0.20407 0.8335 0.0
H2945 H 0.24559 0.14384 0.7899 0.0
C2946 C 0.21621 0.12169 0.79914 0.0
C2947 C 0.1965 0.12004 0.81003 0.0
C2948 C 0.23653 0.20514 0.82106 0.0
C2949 C 0.2257 0.16264 0.80968 0.0
C2950 C 0.24903 0.22653 0.81785 0.0
C2951 C 0.26453 0.22839 0.80149 0.0
C2952 C 0.23968 0.18551 0.80791 0.0
C2953 C 0.26741 0.20834 0.78893 0.0
C2954 C 0.23078 0.14291 0.79888 0.0
C2955 C 0.19247 0.1401 0.82136 0.0
N2956 N 0.25506 0.18772 0.79237 0.0
N2957 N 0.20689 0.1606 0.82078 0.0
H2958 H 0.39623 0.96154 0.32121 0.0
H2959 H 0.27803 0.8678 0.30382 0.0
H2960 H 0.33115 0.97826 0.32353 0.0
H2961 H 0.34278 0.85334 0.29368 0.0
H2962 H 0.29697 0.90847 0.31235 0.0
H2963 H 0.37674 0.92131 0.31392 0.0
C2964 C 0.37787 0.95672 0.32053 0.0
C2965 C 0.36525 0.97318 0.3228 0.0
C2966 C 0.30691 0.89636 0.30793 0.0
C2967 C 0.34285 0.92735 0.31408 0.0
C2968 C 0.29612 0.87327 0.30294 0.0
C2969 C 0.30887 0.8574 0.29776 0.0
C2970 C 0.33055 0.90334 0.30788 0.0
C2971 C 0.33225 0.86512 0.29709 0.0
C2972 C 0.36673 0.93378 0.31617 0.0
C2973 C 0.34151 0.96606 0.32181 0.0
N2974 N 0.34239 0.8876 0.30221 0.0
N2975 N 0.331 0.94357 0.31731 0.0
H2976 H 0.61562 0.38085 0.56987 0.0
H2977 H 0.54061 0.47484 0.58264 0.0
H2978 H 0.56044 0.37491 0.61121 0.0
H2979 H 0.59858 0.48307 0.54522 0.0
H2980 H 0.54686 0.43823 0.59222 0.0
H2981 H 0.60925 0.41743 0.56012 0.0
C2982 C 0.60205 0.38705 0.57688 0.0
C2983 C 0.58856 0.37422 0.59144 0.0
C2984 C 0.55829 0.44796 0.58192 0.0
C2985 C 0.581 0.41699 0.58005 0.0
C2986 C 0.55464 0.46901 0.57626 0.0
C2987 C 0.56893 0.48247 0.56285 0.0
C2988 C 0.57653 0.43977 0.57426 0.0
C2989 C 0.58701 0.47365 0.5556 0.0
C2990 C 0.59844 0.40816 0.57128 0.0
C2991 C 0.57136 0.38378 0.59991 0.0
N2992 N 0.5902 0.45312 0.56129 0.0
N2993 N 0.56811 0.40426 0.5941 0.0
H2994 H 0.46801 0.81667 0.38441 0.0
H2995 H 0.33389 0.76082 0.34415 0.0
H2996 H 0.43041 0.76251 0.41715 0.0
H2997 H 0.3741 0.81469 0.31296 0.0
H2998 H 0.36839 0.76057 0.37099 0.0
H2999 H 0.43328 0.81554 0.35807 0.0
C3000 C 0.45244 0.80448 0.38609 0.0
C3001 C 0.45224 0.78965 0.40312 0.0
C3002 C 0.36959 0.77236 0.35819 0.0
C3003 C 0.41202 0.78827 0.37273 0.0
C3004 C 0.34989 0.77253 0.34286 0.0
C3005 C 0.3509 0.78786 0.32625 0.0
C3006 C 0.39052 0.7875 0.35677 0.0
C3007 C 0.37226 0.8025 0.32535 0.0
C3008 C 0.43253 0.80385 0.37096 0.0
C3009 C 0.43142 0.77425 0.40431 0.0
N3010 N 0.39104 0.80195 0.34033 0.0
N3011 N 0.41216 0.77397 0.38936 0.0
H3012 H 0.04783 0.72525 0.11965 0.0
H3013 H 0.07075 0.62267 0.03167 0.0
H3014 H 0.08424 0.73897 0.06073 0.0
H3015 H 0.04743 0.61563 0.09902 0.0
H3016 H 0.07441 0.66403 0.03965 0.0
H3017 H 0.04539 0.68493 0.10965 0.0
C3018 C 0.05524 0.71992 0.10437 0.0
C3019 C 0.06629 0.7362 0.09112 0.0
C3020 C 0.06856 0.65347 0.05272 0.0
C3021 C 0.06346 0.68854 0.07937 0.0
C3022 C 0.06664 0.62968 0.04826 0.0
C3023 C 0.05917 0.61518 0.0648 0.0
C3024 C 0.06245 0.66316 0.07374 0.0
C3025 C 0.05342 0.62572 0.08565 0.0
C3026 C 0.05386 0.69656 0.09871 0.0
C3027 C 0.07538 0.72744 0.0715 0.0
N3028 N 0.05509 0.64872 0.08937 0.0
N3029 N 0.07379 0.70437 0.06629 0.0
H3030 H 0.06355 0.24725 0.88278 0.0
H3031 H 0.17969 0.33852 0.87684 0.0
H3032 H 0.09186 0.30777 0.93396 0.0
H3033 H 0.15284 0.2786 0.82479 0.0
H3034 H 0.14963 0.32496 0.90017 0.0
H3035 H 0.09728 0.25641 0.86289 0.0
C3036 C 0.07688 0.26244 0.88989 0.0
C3037 C 0.07483 0.27682 0.91007 0.0
C3038 C 0.15038 0.31455 0.88383 0.0
C3039 C 0.11356 0.2873 0.88742 0.0
C3040 C 0.16764 0.32224 0.8706 0.0
C3041 C 0.1686 0.30969 0.84888 0.0
C3042 C 0.13375 0.29422 0.87517 0.0
C3043 C 0.15265 0.28871 0.84152 0.0
C3044 C 0.09617 0.2676 0.87855 0.0
C3045 C 0.09265 0.29622 0.91846 0.0
N3046 N 0.13564 0.28174 0.85451 0.0
N3047 N 0.11119 0.3009 0.90708 0.0
H3048 H 0.52894 0.75021 0.90201 0.0
H3049 H 0.56157 0.68669 0.0111 0.0
H3050 H 0.58973 0.77676 0.95331 0.0
H3051 H 0.49978 0.66338 0.96094 0.0
H3052 H 0.57485 0.71733 0.98777 0.0
H3053 H 0.5201 0.71635 0.92147 0.0
C3054 C 0.54048 0.7489 0.91734 0.0
C3055 C 0.56007 0.7664 0.92604 0.0
C3056 C 0.55853 0.7053 0.9817 0.0
C3057 C 0.55007 0.72751 0.9485 0.0
C3058 C 0.55109 0.68772 0.99488 0.0
C3059 C 0.52951 0.67266 0.98795 0.0
C3060 C 0.54427 0.70767 0.9615 0.0
C3061 C 0.51646 0.67479 0.96694 0.0
C3062 C 0.53545 0.72951 0.92845 0.0
C3063 C 0.5744 0.76371 0.946 0.0
N3064 N 0.52393 0.69206 0.9546 0.0
N3065 N 0.56908 0.74468 0.9566 0.0
H3066 H 0.11188 0.81224 0.75138 0.0
H3067 H 0.21135 0.74614 0.7673 0.0
H3068 H 0.09665 0.74062 0.75679 0.0
H3069 H 0.22326 0.81895 0.78411 0.0
H3070 H 0.17001 0.74297 0.76164 0.0
H3071 H 0.15262 0.81448 0.76175 0.0
C3072 C 0.11702 0.79705 0.75545 0.0
C3073 C 0.10043 0.77638 0.75396 0.0
C3074 C 0.18164 0.75964 0.76676 0.0
C3075 C 0.14792 0.77857 0.7648 0.0
C3076 C 0.20542 0.76144 0.77024 0.0
C3077 C 0.22129 0.78276 0.77691 0.0
C3078 C 0.17328 0.7794 0.76931 0.0
C3079 C 0.21207 0.80203 0.77926 0.0
C3080 C 0.14045 0.7983 0.76115 0.0
C3081 C 0.10854 0.75713 0.75853 0.0
N3082 N 0.18899 0.79989 0.77538 0.0
N3083 N 0.13156 0.75863 0.76346 0.0
H3084 H 0.02032 0.37625 0.45321 0.0
H3085 H 0.07187 0.51148 0.48865 0.0
H3086 H 0.07475 0.41412 0.42101 0.0
H3087 H 0.018 0.47186 0.52032 0.0
H3088 H 0.07326 0.47655 0.4635 0.0
H3089 H 0.01956 0.4114 0.47786 0.0
C3090 C 0.03218 0.39195 0.45132 0.0
C3091 C 0.04765 0.39212 0.43492 0.0
C3092 C 0.06117 0.47555 0.47599 0.0
C3093 C 0.0468 0.43278 0.46327 0.0
C3094 C 0.06032 0.49553 0.49034 0.0
C3095 C 0.0448 0.49481 0.50676 0.0
C3096 C 0.04647 0.45458 0.47806 0.0
C3097 C 0.03036 0.47347 0.50811 0.0
C3098 C 0.03172 0.4121 0.46545 0.0
C3099 C 0.06256 0.41311 0.43339 0.0
N3100 N 0.03157 0.45435 0.49405 0.0
N3101 N 0.06175 0.43256 0.44733 0.0
H3102 H 0.45884 0.22481 0.26506 0.0
H3103 H 0.36546 0.30055 0.25395 0.0
H3104 H 0.46576 0.28171 0.22605 0.0
H3105 H 0.35534 0.24026 0.28776 0.0
H3106 H 0.40227 0.29463 0.24482 0.0
H3107 H 0.42191 0.23062 0.27432 0.0
C3108 C 0.45279 0.23865 0.25848 0.0
C3109 C 0.46599 0.25279 0.24471 0.0
C3110 C 0.39209 0.28262 0.25423 0.0
C3111 C 0.42282 0.25968 0.25553 0.0
C3112 C 0.37093 0.28609 0.25966 0.0
C3113 C 0.35694 0.27114 0.27206 0.0
C3114 C 0.39985 0.26384 0.26102 0.0
C3115 C 0.36523 0.25241 0.27829 0.0
C3116 C 0.43147 0.24193 0.26379 0.0
C3117 C 0.4566 0.27029 0.23674 0.0
N3118 N 0.38591 0.2494 0.27283 0.0
N3119 N 0.43593 0.27321 0.24227 0.0
H3120 H 0.58708 0.57875 0.36984 0.0
H3121 H 0.60697 0.53034 0.49308 0.0
H3122 H 0.63221 0.53454 0.38129 0.0
H3123 H 0.558 0.5695 0.47657 0.0
H3124 H 0.61818 0.53285 0.45342 0.0
H3125 H 0.57752 0.57624 0.40964 0.0
C3126 C 0.59492 0.56837 0.38066 0.0
C3127 C 0.61042 0.55675 0.37202 0.0
C3128 C 0.60508 0.54098 0.45858 0.0
C3129 C 0.59963 0.55396 0.41816 0.0
C3130 C 0.59885 0.53976 0.48131 0.0
C3131 C 0.58165 0.54989 0.48831 0.0
C3132 C 0.59407 0.55247 0.44275 0.0
C3133 C 0.57135 0.56141 0.47204 0.0
C3134 C 0.58947 0.56698 0.40351 0.0
C3135 C 0.62006 0.54368 0.38709 0.0
N3136 N 0.57768 0.56236 0.45017 0.0
N3137 N 0.61457 0.54268 0.40942 0.0
H3138 H 0.2668 0.88821 0.06519 0.0
H3139 H 0.3404 0.89671 0.19085 0.0
H3140 H 0.30256 0.95176 0.10887 0.0
H3141 H 0.31673 0.83539 0.13995 0.0
H3142 H 0.31824 0.91604 0.16564 0.0
H3143 H 0.27542 0.86785 0.09779 0.0
C3144 C 0.27593 0.89794 0.08188 0.0
C3145 C 0.2845 0.92164 0.08421 0.0
C3146 C 0.31777 0.89832 0.16008 0.0
C3147 C 0.29469 0.89846 0.12127 0.0
C3148 C 0.33045 0.88734 0.17436 0.0
C3149 C 0.33069 0.86464 0.16711 0.0
C3150 C 0.30527 0.88645 0.13847 0.0
C3151 C 0.31743 0.85312 0.14577 0.0
C3152 C 0.28095 0.88629 0.10041 0.0
C3153 C 0.29591 0.93344 0.10627 0.0
N3154 N 0.30534 0.86423 0.13207 0.0
N3155 N 0.30113 0.92164 0.12387 0.0
H3156 H 0.92984 0.56015 0.89862 0.0
H3157 H 0.02947 0.51928 0.96969 0.0
H3158 H 0.97792 0.52911 0.86589 0.0
H3159 H 0.99321 0.56436 0.0033 0.0
H3160 H 1.0089 0.52128 0.93151 0.0
H3161 H 0.95184 0.56145 0.93746 0.0
C3162 C 0.94517 0.55392 0.8996 0.0
C3163 C 0.95203 0.54438 0.87912 0.0
C3164 C 1.00548 0.53081 0.94722 0.0
C3165 C 0.97688 0.54551 0.92312 0.0
C3166 C 1.01717 0.52961 0.96903 0.0
C3167 C 1.01318 0.54187 0.98961 0.0
C3168 C 0.98952 0.54414 0.94603 0.0
C3169 C 0.99684 0.55473 0.98779 0.0
C3170 C 0.95763 0.55459 0.9217 0.0
C3171 C 0.97194 0.53647 0.88127 0.0
N3172 N 0.98554 0.55555 0.96627 0.0
N3173 N 0.98357 0.53705 0.90292 0.0
H3174 H 0.27585 0.25321 0.58947 0.0
H3175 H 0.30805 0.24039 0.72572 0.0
H3176 H 0.31553 0.20784 0.61407 0.0
H3177 H 0.27978 0.29532 0.70528 0.0
H3178 H 0.30977 0.22815 0.68433 0.0
H3179 H 0.27635 0.26915 0.631 0.0
C3180 C 0.28497 0.24686 0.60349 0.0
C3181 C 0.29563 0.2291 0.59814 0.0
C3182 C 0.3031 0.24287 0.68878 0.0
C3183 C 0.29593 0.24698 0.64565 0.0
C3184 C 0.30205 0.24987 0.71254 0.0
C3185 C 0.2934 0.26878 0.71914 0.0
C3186 C 0.29534 0.25468 0.67118 0.0
C3187 C 0.28611 0.2804 0.70107 0.0
C3188 C 0.28513 0.25587 0.6272 0.0
C3189 C 0.30696 0.22142 0.61716 0.0
N3190 N 0.28711 0.2731 0.67791 0.0
N3191 N 0.30666 0.23025 0.6399 0.0
H3192 H 0.58026 0.56155 0.24379 0.0
H3193 H 0.60518 0.54813 0.1101 0.0
H3194 H 0.63363 0.53249 0.22007 0.0
H3195 H 0.5379 0.54982 0.12566 0.0
H3196 H 0.6175 0.54808 0.15201 0.0
H3197 H 0.56531 0.56173 0.20202 0.0
C3198 C 0.58865 0.55496 0.22992 0.0
C3199 C 0.6083 0.54708 0.2356 0.0
C3200 C 0.60003 0.54853 0.14633 0.0
C3201 C 0.59166 0.54775 0.188 0.0
C3202 C 0.59298 0.54857 0.12237 0.0
C3203 C 0.57037 0.54859 0.11426 0.0
C3204 C 0.58451 0.54891 0.16258 0.0
C3205 C 0.55548 0.5497 0.13113 0.0
C3206 C 0.58018 0.55516 0.20612 0.0
C3207 C 0.61853 0.53887 0.21677 0.0
N3208 N 0.56279 0.54977 0.15453 0.0
N3209 N 0.61025 0.53964 0.194 0.0
H3210 H 0.26419 0.90457 0.93819 0.0
H3211 H 0.31641 0.81215 0.87083 0.0
H3212 H 0.30691 0.86729 0.97393 0.0
H3213 H 0.25919 0.83447 0.8387 0.0
H3214 H 0.31346 0.83268 0.90892 0.0
H3215 H 0.26219 0.87937 0.90125 0.0
C3216 C 0.27291 0.89094 0.9383 0.0
C3217 C 0.28581 0.88804 0.95903 0.0
C3218 C 0.3014 0.83289 0.89358 0.0
C3219 C 0.28379 0.85948 0.9171 0.0
C3220 C 0.30306 0.82115 0.87191 0.0
C3221 C 0.28796 0.82163 0.85177 0.0
C3222 C 0.28477 0.84542 0.8949 0.0
C3223 C 0.27122 0.83385 0.85389 0.0
C3224 C 0.27176 0.87659 0.91728 0.0
C3225 C 0.29683 0.87017 0.95829 0.0
N3226 N 0.27016 0.84544 0.87512 0.0
N3227 N 0.29573 0.85667 0.93757 0.0
H3228 H 0.89153 0.53278 0.72676 0.0
H3229 H 0.99896 0.49521 0.68601 0.0
H3230 H 0.95826 0.55146 0.76916 0.0
H3231 H 0.93651 0.48838 0.63879 0.0
H3232 H 0.98435 0.51672 0.71668 0.0
H3233 H 0.9084 0.51976 0.69302 0.0
C3234 C 0.90983 0.53478 0.72879 0.0
C3235 C 0.92343 0.5426 0.75091 0.0
C3236 C 0.97383 0.51049 0.69962 0.0
C3237 C 0.94266 0.52724 0.71271 0.0
C3238 C 0.98197 0.49786 0.68236 0.0
C3239 C 0.96869 0.4898 0.66015 0.0
C3240 C 0.95225 0.51491 0.69453 0.0
C3241 C 0.94709 0.4942 0.65588 0.0
C3242 C 0.91942 0.52714 0.70958 0.0
C3243 C 0.94707 0.54505 0.75251 0.0
N3244 N 0.93949 0.50646 0.67298 0.0
N3245 N 0.95589 0.53687 0.73375 0.0
H3246 H 0.30625 0.2035 0.45249 0.0
H3247 H 0.26965 0.28156 0.35868 0.0
H3248 H 0.26045 0.24701 0.46341 0.0
H3249 H 0.30892 0.23281 0.34199 0.0
H3250 H 0.2671 0.2693 0.39739 0.0
H3251 H 0.30867 0.21431 0.41271 0.0
C3252 C 0.2968 0.2154 0.44663 0.0
C3253 C 0.28318 0.2244 0.4615 0.0
C3254 C 0.27615 0.26108 0.38529 0.0
C3255 C 0.28581 0.23678 0.41581 0.0
C3256 C 0.2776 0.26808 0.36307 0.0
C3257 C 0.28937 0.25809 0.34685 0.0
C3258 C 0.28669 0.24398 0.39174 0.0
C3259 C 0.29936 0.24074 0.35372 0.0
C3260 C 0.29812 0.22149 0.42385 0.0
C3261 C 0.27122 0.23964 0.45275 0.0
N3262 N 0.2979 0.23432 0.37567 0.0
N3263 N 0.27285 0.24532 0.43064 0.0
H3264 H 0.33901 0.57977 0.58606 0.0
H3265 H 0.4018 0.55841 0.47477 0.0
H3266 H 0.33183 0.61275 0.52387 0.0
H3267 H 0.41678 0.53473 0.54144 0.0
H3268 H 0.37625 0.57886 0.49249 0.0
H3269 H 0.36811 0.56361 0.57014 0.0
C3270 C 0.34368 0.58372 0.56911 0.0
C3271 C 0.33299 0.59749 0.55616 0.0
C3272 C 0.38522 0.56928 0.50326 0.0
C3273 C 0.36611 0.57903 0.53785 0.0
C3274 C 0.39958 0.55747 0.4931 0.0
C3275 C 0.41106 0.54471 0.50662 0.0
C3276 C 0.38233 0.56812 0.52701 0.0
C3277 C 0.40815 0.5444 0.53044 0.0
C3278 C 0.36032 0.57454 0.56006 0.0
C3279 C 0.3397 0.60217 0.53437 0.0
N3280 N 0.39391 0.55585 0.53987 0.0
N3281 N 0.35578 0.59278 0.52576 0.0
H3282 H 0.87971 0.97001 0.59371 0.0
H3283 H 0.96995 0.01615 0.51077 0.0
H3284 H 0.88616 0.92821 0.53014 0.0
H3285 H 0.98766 0.02688 0.58676 0.0
H3286 H 0.93291 0.9911 0.51469 0.0
H3287 H 0.91399 0.99827 0.58855 0.0
C3288 C 0.88838 0.96681 0.5787 0.0
C3289 C 0.8804 0.94668 0.56249 0.0
C3290 C 0.9448 0.99936 0.53045 0.0
C3291 C 0.91883 0.97909 0.55614 0.0
C3292 C 0.96564 0.01378 0.52825 0.0
C3293 C 0.98149 0.02352 0.54852 0.0
C3294 C 0.93979 0.99541 0.55309 0.0
C3295 C 0.97564 0.01963 0.57081 0.0
C3296 C 0.9078 0.9829 0.57577 0.0
C3297 C 0.89207 0.94338 0.54322 0.0
N3298 N 0.95514 1.00589 0.57255 0.0
N3299 N 0.9107 0.95955 0.54044 0.0
H3300 H 0.91078 0.08098 0.31834 0.0
H3301 H 0.83126 0.158 0.26984 0.0
H3302 H 0.88512 0.07625 0.24417 0.0
H3303 H 0.83147 0.13801 0.33952 0.0
H3304 H 0.8582 0.13476 0.26147 0.0
H3305 H 0.88856 0.10887 0.32769 0.0
C3306 C 0.90072 0.08605 0.30405 0.0
C3307 C 0.89966 0.07636 0.2805 0.0
C3308 C 0.85235 0.13553 0.27859 0.0
C3309 C 0.87456 0.10805 0.29097 0.0
C3310 C 0.83709 0.14873 0.28335 0.0
C3311 C 0.829 0.14945 0.30521 0.0
C3312 C 0.85975 0.12339 0.29599 0.0
C3313 C 0.83707 0.13741 0.32228 0.0
C3314 C 0.88801 0.1018 0.30938 0.0
C3315 C 0.88626 0.08329 0.26259 0.0
N3316 N 0.85208 0.12481 0.31731 0.0
N3317 N 0.87421 0.09878 0.26819 0.0
H3318 H 0.70119 0.11431 0.02935 0.0
H3319 H 0.60231 1.01179 0.0504 0.0
H3320 H 0.71508 0.05776 0.06265 0.0
H3321 H 0.59801 0.08181 0.0577 0.0
H3322 H 0.64181 0.02398 0.04257 0.0
H3323 H 0.66047 0.09688 0.02561 0.0
C3324 C 0.69572 0.09798 0.03539 0.0
C3325 C 0.71143 0.08761 0.04677 0.0
C3326 C 0.63199 0.03654 0.04547 0.0
C3327 C 0.66524 0.06786 0.04245 0.0
C3328 C 0.60974 0.02969 0.05004 0.0
C3329 C 0.59722 0.04597 0.05403 0.0
C3330 C 0.64134 0.05969 0.04489 0.0
C3331 C 0.60721 0.0689 0.05386 0.0
C3332 C 0.67255 0.08818 0.03332 0.0
C3333 C 0.70345 0.06642 0.05409 0.0
N3334 N 0.62885 0.07519 0.04918 0.0
N3335 N 0.68073 0.05729 0.05206 0.0
H3336 H 0.22869 0.50799 0.31138 0.0
H3337 H 0.312 0.42544 0.29654 0.0
H3338 H 0.27004 0.50659 0.25517 0.0
H3339 H 0.28507 0.43968 0.3614 0.0
H3340 H 0.29215 0.45121 0.27857 0.0
H3341 H 0.24494 0.47885 0.32761 0.0
C3342 C 0.24107 0.50144 0.3024 0.0
C3343 C 0.24817 0.50968 0.28201 0.0
C3344 C 0.29065 0.44876 0.29676 0.0
C3345 C 0.26665 0.47664 0.30035 0.0
C3346 C 0.30189 0.43406 0.30697 0.0
C3347 C 0.30029 0.43077 0.33052 0.0
C3348 C 0.27772 0.46012 0.31023 0.0
C3349 C 0.28702 0.44222 0.34333 0.0
C3350 C 0.25035 0.48492 0.31169 0.0
C3351 C 0.26424 0.50074 0.27102 0.0
N3352 N 0.27619 0.45648 0.33298 0.0
N3353 N 0.27299 0.48466 0.28039 0.0
H3354 H 0.24416 0.41536 0.01937 0.0
H3355 H 0.18257 0.51566 0.04986 0.0
H3356 H 0.26392 0.46355 0.08391 0.0
H3357 H 0.16688 0.46931 0.98416 0.0
H3358 H 0.20934 0.49422 0.06509 0.0
H3359 H 0.21303 0.43282 0.0082 0.0
C3360 C 0.24188 0.42955 0.03125 0.0
C3361 C 0.25667 0.43806 0.05254 0.0
C3362 C 0.19989 0.48868 0.04741 0.0
C3363 C 0.22107 0.45817 0.03989 0.0
C3364 C 0.18457 0.5008 0.0388 0.0
C3365 C 0.17293 0.49443 0.01558 0.0
C3366 C 0.20335 0.47006 0.03267 0.0
C3367 C 0.17597 0.47506 1.00196 0.0
C3368 C 0.22408 0.43952 0.02488 0.0
C3369 C 0.25292 0.4565 0.06727 0.0
N3370 N 0.19101 0.46367 0.01063 0.0
N3371 N 0.23551 0.46602 0.06062 0.0
H3372 H 0.87248 0.97383 0.28094 0.0
H3373 H 0.84789 0.83903 0.2613 0.0
H3374 H 0.92494 0.93813 0.27009 0.0
H3375 H 0.81164 0.87447 0.30712 0.0
H3376 H 0.8723 0.87556 0.2568 0.0
H3377 H 0.84599 0.93749 0.28329 0.0
C3378 C 0.87838 0.95833 0.27892 0.0
C3379 C 0.90093 0.95891 0.27533 0.0
C3380 C 0.85883 0.87528 0.26764 0.0
C3381 C 0.87074 0.91756 0.27772 0.0
C3382 C 0.84481 0.85448 0.27016 0.0
C3383 C 0.8276 0.85366 0.2846 0.0
C3384 C 0.85538 0.89545 0.27922 0.0
C3385 C 0.82445 0.87429 0.29558 0.0
C3386 C 0.8633 0.9377 0.28037 0.0
C3387 C 0.90773 0.93841 0.27297 0.0
N3388 N 0.83824 0.89443 0.29263 0.0
N3389 N 0.89262 0.91849 0.27406 0.0
H3390 H 0.78072 0.11263 0.7749 0.0
H3391 H 0.75569 0.23182 0.77282 0.0
H3392 H 0.7236 0.12951 0.80471 0.0
H3393 H 0.82518 0.22597 0.78348 0.0
H3394 H 0.74287 0.1931 0.78202 0.0
H3395 H 0.79764 0.15334 0.77611 0.0
C3396 C 0.77198 0.12487 0.78212 0.0
C3397 C 0.75061 0.11772 0.78941 0.0
C3398 C 0.76096 0.20044 0.7828 0.0
C3399 C 0.76958 0.16385 0.79048 0.0
C3400 C 0.7682 0.22247 0.7778 0.0
C3401 C 0.79139 0.23201 0.77847 0.0
C3402 C 0.77713 0.1878 0.78752 0.0
C3403 C 0.8071 0.21899 0.78325 0.0
C3404 C 0.78164 0.14801 0.78282 0.0
C3405 C 0.74001 0.13426 0.79868 0.0
N3406 N 0.79965 0.1973 0.7875 0.0
N3407 N 0.74943 0.15661 0.79854 0.0
loop_
_geom_bond_atom_site_label_1
_geom_bond_atom_site_label_2
_geom_bond_distance
_geom_bond_site_symmetry_2
_ccdc_geom_bond_type
O0 Cd1 2.223 . S
O0 C8 1.315 . S
Cd1 O0 2.223 . S
Cd1 O4 2.297 . S
Cd1 O5 2.439 . S
Cd1 O11 2.240 . S
Cd2 O3 2.240 . S
Cd2 O10 2.223 1_455 S
Cd2 O12 2.297 . S
Cd2 O13 2.439 . S
O3 Cd2 2.240 . S
O3 C8 1.279 . S
O4 Cd1 2.297 . S
O4 C6 1.247 . S
O5 Cd1 2.439 . S
O5 C6 1.208 . S
C6 O4 1.247 . S
C6 O5 1.208 . S
C7 O12 1.247 . S
C7 O13 1.208 . S
C8 O0 1.315 . S
C8 O3 1.279 . S
C9 O10 1.326 . S
C9 O11 1.238 1_655 S
O10 Cd2 2.223 1_655 S
O10 C9 1.326 . S
O11 Cd1 2.240 . S
O11 C9 1.238 1_455 S
O12 Cd2 2.297 . S
O12 C7 1.247 . S
O13 Cd2 2.439 . S
O13 C7 1.208 . S
O14 Cd15 2.223 . S
O14 C22 1.315 . S
Cd15 O14 2.223 . S
Cd15 O18 2.297 1_455 S
Cd15 O19 2.439 1_455 S
Cd15 O25 2.240 . S
Cd16 O17 2.240 . S
Cd16 O24 2.223 . S
Cd16 O26 2.297 . S
Cd16 O27 2.439 . S
O17 Cd16 2.240 . S
O17 C22 1.279 . S
O18 Cd15 2.297 1_655 S
O18 C20 1.247 . S
O19 Cd15 2.439 1_655 S
O19 C20 1.208 . S
C20 O18 1.247 . S
C20 O19 1.208 . S
C21 O26 1.247 . S
C21 O27 1.208 . S
C22 O14 1.315 . S
C22 O17 1.279 . S
C23 O24 1.315 . S
C23 O25 1.279 . S
O24 Cd16 2.223 . S
O24 C23 1.315 . S
O25 Cd15 2.240 . S
O25 C23 1.279 . S
O26 Cd16 2.297 . S
O26 C21 1.247 . S
O27 Cd16 2.439 . S
O27 C21 1.208 . S
O28 Cd29 2.223 . S
O28 C36 1.315 . S
Cd29 O28 2.223 . S
Cd29 O32 2.297 . S
Cd29 O33 2.439 . S
Cd29 O39 2.240 . S
Cd30 O31 2.240 . S
Cd30 O38 2.223 . S
Cd30 O40 2.297 . S
Cd30 O41 2.439 . S
O31 Cd30 2.240 . S
O31 C36 1.279 . S
O32 Cd29 2.297 . S
O32 C34 1.247 . S
O33 Cd29 2.439 . S
O33 C34 1.208 . S
C34 O32 1.247 . S
C34 O33 1.208 . S
C35 O40 1.247 . S
C35 O41 1.208 . S
C36 O28 1.315 . S
C36 O31 1.279 . S
C37 O38 1.315 . S
C37 O39 1.279 . S
O38 Cd30 2.223 . S
O38 C37 1.315 . S
O39 Cd29 2.240 . S
O39 C37 1.279 . S
O40 Cd30 2.297 . S
O40 C35 1.247 . S
O41 Cd30 2.439 . S
O41 C35 1.208 . S
O42 Cd43 2.223 . S
O42 C50 1.315 . S
Cd43 O42 2.223 . S
Cd43 O46 2.297 . S
Cd43 O47 2.439 . S
Cd43 O53 2.240 . S
Cd44 O45 2.240 . S
Cd44 O52 2.223 . S
Cd44 O54 2.297 . S
Cd44 O55 2.439 . S
O45 Cd44 2.240 . S
O45 C50 1.279 . S
O46 Cd43 2.297 . S
O46 C48 1.247 . S
O47 Cd43 2.439 . S
O47 C48 1.208 . S
C48 O46 1.247 . S
C48 O47 1.208 . S
C49 O54 1.247 . S
C49 O55 1.208 . S
C50 O42 1.315 . S
C50 O45 1.279 . S
C51 O52 1.315 . S
C51 O53 1.279 . S
O52 Cd44 2.223 . S
O52 C51 1.315 . S
O53 Cd43 2.240 . S
O53 C51 1.279 . S
O54 Cd44 2.297 . S
O54 C49 1.247 . S
O55 Cd44 2.439 . S
O55 C49 1.208 . S
O56 Cd57 2.223 . S
O56 C64 1.315 . S
Cd57 O56 2.223 . S
Cd57 O60 2.297 . S
Cd57 O61 2.439 . S
Cd57 O67 2.240 . S
Cd58 O59 2.240 . S
Cd58 O66 2.223 . S
Cd58 O68 2.297 . S
Cd58 O69 2.439 . S
O59 Cd58 2.240 . S
O59 C64 1.279 . S
O60 Cd57 2.297 . S
O60 C62 1.247 . S
O61 Cd57 2.439 . S
O61 C62 1.208 . S
C62 O60 1.247 . S
C62 O61 1.208 . S
C63 O68 1.247 . S
C63 O69 1.208 . S
C64 O56 1.315 . S
C64 O59 1.279 . S
C65 O66 1.315 . S
C65 O67 1.279 . S
O66 Cd58 2.223 . S
O66 C65 1.315 . S
O67 Cd57 2.240 . S
O67 C65 1.279 . S
O68 Cd58 2.297 . S
O68 C63 1.247 . S
O69 Cd58 2.439 . S
O69 C63 1.208 . S
O70 Cd71 2.223 . S
O70 C78 1.315 . S
Cd71 O70 2.223 . S
Cd71 O74 2.297 . S
Cd71 O75 2.439 . S
Cd71 O81 2.240 . S
Cd72 O73 2.240 . S
Cd72 O80 2.223 . S
Cd72 O82 2.297 . S
Cd72 O83 2.439 . S
O73 Cd72 2.240 . S
O73 C78 1.279 . S
O74 Cd71 2.297 . S
O74 C76 1.247 . S
O75 Cd71 2.439 . S
O75 C76 1.208 . S
C76 O74 1.247 . S
C76 O75 1.208 . S
C77 O82 1.247 . S
C77 O83 1.208 . S
C78 O70 1.315 . S
C78 O73 1.279 . S
C79 O80 1.315 . S
C79 O81 1.279 . S
O80 Cd72 2.223 . S
O80 C79 1.315 . S
O81 Cd71 2.240 . S
O81 C79 1.279 . S
O82 Cd72 2.297 . S
O82 C77 1.247 . S
O83 Cd72 2.439 . S
O83 C77 1.208 . S
O84 Cd85 2.223 . S
O84 C92 1.315 . S
Cd85 O84 2.223 . S
Cd85 O88 2.297 . S
Cd85 O89 2.439 . S
Cd85 O95 2.240 . S
Cd86 O87 2.240 . S
Cd86 O94 2.223 . S
Cd86 O96 2.297 . S
Cd86 O97 2.439 . S
O87 Cd86 2.240 . S
O87 C92 1.279 . S
O88 Cd85 2.297 . S
O88 C90 1.247 . S
O89 Cd85 2.439 . S
O89 C90 1.208 . S
C90 O88 1.247 . S
C90 O89 1.208 . S
C91 O96 1.247 . S
C91 O97 1.208 . S
C92 O84 1.315 . S
C92 O87 1.279 . S
C93 O94 1.315 . S
C93 O95 1.279 . S
O94 Cd86 2.223 . S
O94 C93 1.315 . S
O95 Cd85 2.240 . S
O95 C93 1.279 . S
O96 Cd86 2.297 . S
O96 C91 1.247 . S
O97 Cd86 2.439 . S
O97 C91 1.208 . S
O98 Cd99 2.223 1_655 S
O98 C106 1.315 . S
Cd99 O98 2.223 1_455 S
Cd99 O102 2.297 . S
Cd99 O103 2.439 . S
Cd99 O109 2.240 1_455 S
Cd100 O101 2.240 1_655 S
Cd100 O108 2.223 . S
Cd100 O110 2.297 . S
Cd100 O111 2.439 1_655 S
O101 Cd100 2.240 1_455 S
O101 C106 1.279 1_455 S
O102 Cd99 2.297 . S
O102 C104 1.247 . S
O103 Cd99 2.439 . S
O103 C104 1.208 . S
C104 O102 1.247 . S
C104 O103 1.208 . S
C105 O110 1.225 1_455 S
C105 O111 1.231 . S
C106 O98 1.315 . S
C106 O101 1.279 1_655 S
C107 O108 1.315 . S
C107 O109 1.279 . S
O108 Cd100 2.223 . S
O108 C107 1.315 . S
O109 Cd99 2.240 1_655 S
O109 C107 1.279 . S
O110 Cd100 2.297 . S
O110 C105 1.225 1_655 S
O111 Cd100 2.439 1_455 S
O111 C105 1.231 . S
O112 Cd113 2.223 . S
O112 C120 1.315 . S
Cd113 O112 2.223 . S
Cd113 O116 2.297 . S
Cd113 O117 2.439 . S
Cd113 O123 2.240 1_545 S
Cd114 O115 2.240 . S
Cd114 O122 2.223 1_545 S
Cd114 O124 2.297 1_545 S
Cd114 O125 2.439 . S
O115 Cd114 2.240 . S
O115 C120 1.279 . S
O116 Cd113 2.297 . S
O116 C118 1.247 . S
O117 Cd113 2.439 . S
O117 C118 1.208 . S
C118 O116 1.247 . S
C118 O117 1.208 . S
C119 O124 1.247 1_545 S
C119 O125 1.208 . S
C120 O112 1.315 . S
C120 O115 1.279 . S
C121 O122 1.315 . S
C121 O123 1.279 . S
O122 Cd114 2.223 1_565 S
O122 C121 1.315 . S
O123 Cd113 2.240 1_565 S
O123 C121 1.279 . S
O124 Cd114 2.297 1_565 S
O124 C119 1.247 1_565 S
O125 Cd114 2.439 . S
O125 C119 1.208 . S
O126 Cd127 2.223 . S
O126 C134 1.315 . S
Cd127 O126 2.223 . S
Cd127 O130 2.297 . S
Cd127 O131 2.439 . S
Cd127 O137 2.240 . S
Cd128 O129 2.240 . S
Cd128 O136 2.223 . S
Cd128 O138 2.297 . S
Cd128 O139 2.439 . S
O129 Cd128 2.240 . S
O129 C134 1.279 . S
O130 Cd127 2.297 . S
O130 C132 1.247 . S
O131 Cd127 2.439 . S
O131 C132 1.208 . S
C132 O130 1.247 . S
C132 O131 1.208 . S
C133 O138 1.247 . S
C133 O139 1.208 . S
C134 O126 1.315 . S
C134 O129 1.279 . S
C135 O136 1.315 . S
C135 O137 1.279 . S
O136 Cd128 2.223 . S
O136 C135 1.315 . S
O137 Cd127 2.240 . S
O137 C135 1.279 . S
O138 Cd128 2.297 . S
O138 C133 1.247 . S
O139 Cd128 2.439 . S
O139 C133 1.208 . S
O140 Cd141 2.223 . S
O140 C148 1.315 . S
Cd141 O140 2.223 . S
Cd141 O144 2.297 . S
Cd141 O145 2.439 . S
Cd141 O151 2.240 . S
Cd142 O143 2.240 . S
Cd142 O150 2.223 . S
Cd142 O152 2.297 . S
Cd142 O153 2.439 . S
O143 Cd142 2.240 . S
O143 C148 1.279 . S
O144 Cd141 2.297 . S
O144 C146 1.247 1_545 S
O145 Cd141 2.439 . S
O145 C146 1.208 1_545 S
C146 O144 1.247 1_565 S
C146 O145 1.208 1_565 S
C147 O152 1.247 . S
C147 O153 1.208 . S
C148 O140 1.315 . S
C148 O143 1.279 . S
C149 O150 1.315 . S
C149 O151 1.279 . S
O150 Cd142 2.223 . S
O150 C149 1.315 . S
O151 Cd141 2.240 . S
O151 C149 1.279 . S
O152 Cd142 2.297 . S
O152 C147 1.247 . S
O153 Cd142 2.439 . S
O153 C147 1.208 . S
O154 Cd155 2.223 . S
O154 C162 1.315 . S
Cd155 O154 2.223 . S
Cd155 O158 2.297 . S
Cd155 O159 2.439 1_554 S
Cd155 O165 2.240 1_554 S
Cd156 O157 2.240 1_556 S
Cd156 O164 2.223 1_556 S
Cd156 O166 2.297 . S
Cd156 O167 2.439 . S
O157 Cd156 2.240 1_554 S
O157 C162 1.279 . S
O158 Cd155 2.297 . S
O158 C160 1.247 . S
O159 Cd155 2.439 1_556 S
O159 C160 1.208 1_556 S
C160 O158 1.247 . S
C160 O159 1.208 1_554 S
C161 O166 1.247 . S
C161 O167 1.208 . S
C162 O154 1.315 . S
C162 O157 1.279 . S
C163 O164 1.315 . S
C163 O165 1.279 1_554 S
O164 Cd156 2.223 1_554 S
O164 C163 1.315 . S
O165 Cd155 2.240 1_556 S
O165 C163 1.279 1_556 S
O166 Cd156 2.297 . S
O166 C161 1.247 . S
O167 Cd156 2.439 . S
O167 C161 1.208 . S
O168 Cd169 2.223 . S
O168 C176 1.315 . S
Cd169 O168 2.223 . S
Cd169 O172 2.297 . S
Cd169 O173 2.439 . S
Cd169 O179 2.240 . S
Cd170 O171 2.240 . S
Cd170 O178 2.223 . S
Cd170 O180 2.297 . S
Cd170 O181 2.439 . S
O171 Cd170 2.240 . S
O171 C176 1.279 . S
O172 Cd169 2.297 . S
O172 C174 1.247 . S
O173 Cd169 2.439 . S
O173 C174 1.208 . S
C174 O172 1.247 . S
C174 O173 1.208 . S
C175 O180 1.247 1_556 S
C175 O181 1.208 1_556 S
C176 O168 1.315 . S
C176 O171 1.279 . S
C177 O178 1.315 . S
C177 O179 1.279 . S
O178 Cd170 2.223 . S
O178 C177 1.315 . S
O179 Cd169 2.240 . S
O179 C177 1.279 . S
O180 Cd170 2.297 . S
O180 C175 1.247 1_554 S
O181 Cd170 2.439 . S
O181 C175 1.208 1_554 S
O182 Cd183 2.223 . S
O182 C190 1.315 . S
Cd183 O182 2.223 . S
Cd183 O186 2.297 . S
Cd183 O187 2.439 . S
Cd183 O193 2.240 . S
Cd184 O185 2.240 . S
Cd184 O192 2.223 . S
Cd184 O194 2.297 . S
Cd184 O195 2.439 . S
O185 Cd184 2.240 . S
O185 C190 1.279 . S
O186 Cd183 2.297 . S
O186 C188 1.247 . S
O187 Cd183 2.439 . S
O187 C188 1.208 . S
C188 O186 1.247 . S
C188 O187 1.208 . S
C189 O194 1.247 . S
C189 O195 1.208 . S
C190 O182 1.315 . S
C190 O185 1.279 . S
C191 O192 1.315 . S
C191 O193 1.279 . S
O192 Cd184 2.223 . S
O192 C191 1.315 . S
O193 Cd183 2.240 . S
O193 C191 1.279 . S
O194 Cd184 2.297 . S
O194 C189 1.247 . S
O195 Cd184 2.439 . S
O195 C189 1.208 . S
O196 Cd197 2.223 . S
O196 C204 1.315 . S
Cd197 O196 2.223 . S
Cd197 O200 2.297 . S
Cd197 O201 2.439 . S
Cd197 O207 2.240 . S
Cd198 O199 2.240 . S
Cd198 O206 2.223 . S
Cd198 O208 2.297 . S
Cd198 O209 2.439 . S
O199 Cd198 2.240 . S
O199 C204 1.279 . S
O200 Cd197 2.297 . S
O200 C202 1.247 . S
O201 Cd197 2.439 . S
O201 C202 1.208 . S
C202 O200 1.247 . S
C202 O201 1.208 . S
C203 O208 1.247 . S
C203 O209 1.208 . S
C204 O196 1.315 . S
C204 O199 1.279 . S
C205 O206 1.315 . S
C205 O207 1.279 . S
O206 Cd198 2.223 . S
O206 C205 1.315 . S
O207 Cd197 2.240 . S
O207 C205 1.279 . S
O208 Cd198 2.297 . S
O208 C203 1.247 . S
O209 Cd198 2.439 . S
O209 C203 1.208 . S
O210 Cd211 2.223 . S
O210 C218 1.315 . S
Cd211 O210 2.223 . S
Cd211 O214 2.297 . S
Cd211 O215 2.439 . S
Cd211 O221 2.240 . S
Cd212 O213 2.240 . S
Cd212 O220 2.223 . S
Cd212 O222 2.297 . S
Cd212 O223 2.439 . S
O213 Cd212 2.240 . S
O213 C218 1.279 . S
O214 Cd211 2.297 . S
O214 C216 1.247 . S
O215 Cd211 2.439 . S
O215 C216 1.208 . S
C216 O214 1.247 . S
C216 O215 1.208 . S
C217 O222 1.247 . S
C217 O223 1.208 . S
C218 O210 1.315 . S
C218 O213 1.279 . S
C219 O220 1.315 . S
C219 O221 1.279 . S
O220 Cd212 2.223 . S
O220 C219 1.315 . S
O221 Cd211 2.240 . S
O221 C219 1.279 . S
O222 Cd212 2.297 . S
O222 C217 1.247 . S
O223 Cd212 2.439 . S
O223 C217 1.208 . S
O224 Cd225 2.223 . S
O224 C232 1.315 . S
Cd225 O224 2.223 . S
Cd225 O228 2.297 . S
Cd225 O229 2.439 . S
Cd225 O235 2.240 1_545 S
Cd226 O227 2.240 . S
Cd226 O234 2.223 1_545 S
Cd226 O236 2.297 1_545 S
Cd226 O237 2.439 . S
O227 Cd226 2.240 . S
O227 C232 1.279 . S
O228 Cd225 2.297 . S
O228 C230 1.247 . S
O229 Cd225 2.439 . S
O229 C230 1.208 . S
C230 O228 1.247 . S
C230 O229 1.208 . S
C231 O236 1.247 1_545 S
C231 O237 1.208 . S
C232 O224 1.315 . S
C232 O227 1.279 . S
C233 O234 1.315 . S
C233 O235 1.279 . S
O234 Cd226 2.223 1_565 S
O234 C233 1.315 . S
O235 Cd225 2.240 1_565 S
O235 C233 1.279 . S
O236 Cd226 2.297 1_565 S
O236 C231 1.247 1_565 S
O237 Cd226 2.439 . S
O237 C231 1.208 . S
O238 Cd239 2.223 . S
O238 C246 1.315 . S
Cd239 O238 2.223 . S
Cd239 O242 2.297 . S
Cd239 O243 2.439 . S
Cd239 O249 2.240 . S
Cd240 O241 2.240 . S
Cd240 O248 2.223 . S
Cd240 O250 2.297 . S
Cd240 O251 2.439 . S
O241 Cd240 2.240 . S
O241 C246 1.279 . S
O242 Cd239 2.297 . S
O242 C244 1.247 . S
O243 Cd239 2.439 . S
O243 C244 1.208 . S
C244 O242 1.247 . S
C244 O243 1.208 . S
C245 O250 1.247 . S
C245 O251 1.208 . S
C246 O238 1.315 . S
C246 O241 1.279 . S
C247 O248 1.315 . S
C247 O249 1.279 . S
O248 Cd240 2.223 . S
O248 C247 1.315 . S
O249 Cd239 2.240 . S
O249 C247 1.279 . S
O250 Cd240 2.297 . S
O250 C245 1.247 . S
O251 Cd240 2.439 . S
O251 C245 1.208 . S
O252 Cd253 2.223 . S
O252 C260 1.315 . S
Cd253 O252 2.223 . S
Cd253 O256 2.297 . S
Cd253 O257 2.439 . S
Cd253 O263 2.240 . S
Cd254 O255 2.240 . S
Cd254 O262 2.223 . S
Cd254 O264 2.297 . S
Cd254 O265 2.439 . S
O255 Cd254 2.240 . S
O255 C260 1.279 . S
O256 Cd253 2.297 . S
O256 C258 1.247 . S
O257 Cd253 2.439 . S
O257 C258 1.208 . S
C258 O256 1.247 . S
C258 O257 1.208 . S
C259 O264 1.247 . S
C259 O265 1.208 . S
C260 O252 1.315 . S
C260 O255 1.279 . S
C261 O262 1.315 . S
C261 O263 1.279 . S
O262 Cd254 2.223 . S
O262 C261 1.315 . S
O263 Cd253 2.240 . S
O263 C261 1.279 . S
O264 Cd254 2.297 . S
O264 C259 1.247 . S
O265 Cd254 2.439 . S
O265 C259 1.208 . S
O266 Cd267 2.223 . S
O266 C274 1.315 . S
Cd267 O266 2.223 . S
Cd267 O270 2.297 . S
Cd267 O271 2.439 . S
Cd267 O277 2.240 . S
Cd268 O269 2.240 . S
Cd268 O276 2.223 . S
Cd268 O278 2.297 . S
Cd268 O279 2.439 . S
O269 Cd268 2.240 . S
O269 C274 1.279 . S
O270 Cd267 2.297 . S
O270 C272 1.247 . S
O271 Cd267 2.439 . S
O271 C272 1.208 . S
C272 O270 1.247 . S
C272 O271 1.208 . S
C273 O278 1.247 . S
C273 O279 1.208 . S
C274 O266 1.315 . S
C274 O269 1.279 . S
C275 O276 1.315 . S
C275 O277 1.279 . S
O276 Cd268 2.223 . S
O276 C275 1.315 . S
O277 Cd267 2.240 . S
O277 C275 1.279 . S
O278 Cd268 2.297 . S
O278 C273 1.247 . S
O279 Cd268 2.439 . S
O279 C273 1.208 . S
O280 Cd281 2.223 . S
O280 C288 1.315 . S
Cd281 O280 2.223 . S
Cd281 O284 2.297 . S
Cd281 O285 2.439 . S
Cd281 O291 2.240 . S
Cd282 O283 2.240 . S
Cd282 O290 2.223 . S
Cd282 O292 2.297 1_554 S
Cd282 O293 2.439 1_554 S
O283 Cd282 2.240 . S
O283 C288 1.279 . S
O284 Cd281 2.297 . S
O284 C286 1.247 . S
O285 Cd281 2.439 . S
O285 C286 1.208 . S
C286 O284 1.247 . S
C286 O285 1.208 . S
C287 O292 1.247 . S
C287 O293 1.208 . S
C288 O280 1.315 . S
C288 O283 1.279 . S
C289 O290 1.315 . S
C289 O291 1.279 . S
O290 Cd282 2.223 . S
O290 C289 1.315 . S
O291 Cd281 2.240 . S
O291 C289 1.279 . S
O292 Cd282 2.297 1_556 S
O292 C287 1.247 . S
O293 Cd282 2.439 1_556 S
O293 C287 1.208 . S
O294 Cd295 2.223 . S
O294 C302 1.315 . S
Cd295 O294 2.223 . S
Cd295 O298 2.297 . S
Cd295 O299 2.439 . S
Cd295 O305 2.240 . S
Cd296 O297 2.240 . S
Cd296 O304 2.223 . S
Cd296 O306 2.297 . S
Cd296 O307 2.439 . S
O297 Cd296 2.240 . S
O297 C302 1.279 . S
O298 Cd295 2.297 . S
O298 C300 1.247 . S
O299 Cd295 2.439 . S
O299 C300 1.208 . S
C300 O298 1.247 . S
C300 O299 1.208 . S
C301 O306 1.247 . S
C301 O307 1.208 . S
C302 O294 1.315 . S
C302 O297 1.279 . S
C303 O304 1.315 . S
C303 O305 1.279 . S
O304 Cd296 2.223 . S
O304 C303 1.315 . S
O305 Cd295 2.240 . S
O305 C303 1.279 . S
O306 Cd296 2.297 . S
O306 C301 1.247 . S
O307 Cd296 2.439 . S
O307 C301 1.208 . S
O308 Cd309 2.223 . S
O308 C316 1.315 . S
Cd309 O308 2.223 . S
Cd309 O312 2.297 . S
Cd309 O313 2.439 . S
Cd309 O319 2.240 . S
Cd310 O311 2.240 . S
Cd310 O318 2.223 . S
Cd310 O320 2.297 . S
Cd310 O321 2.439 . S
O311 Cd310 2.240 . S
O311 C316 1.279 . S
O312 Cd309 2.297 . S
O312 C314 1.247 . S
O313 Cd309 2.439 . S
O313 C314 1.208 . S
C314 O312 1.247 . S
C314 O313 1.208 . S
C315 O320 1.247 . S
C315 O321 1.208 . S
C316 O308 1.315 . S
C316 O311 1.279 . S
C317 O318 1.315 . S
C317 O319 1.279 . S
O318 Cd310 2.223 . S
O318 C317 1.315 . S
O319 Cd309 2.240 . S
O319 C317 1.279 . S
O320 Cd310 2.297 . S
O320 C315 1.247 . S
O321 Cd310 2.439 . S
O321 C315 1.208 . S
O322 Cd323 2.223 . S
O322 C330 1.315 . S
Cd323 O322 2.223 . S
Cd323 O326 2.297 . S
Cd323 O327 2.439 . S
Cd323 O333 2.240 . S
Cd324 O325 2.240 . S
Cd324 O332 2.223 . S
Cd324 O334 2.297 . S
Cd324 O335 2.439 . S
O325 Cd324 2.240 . S
O325 C330 1.279 . S
O326 Cd323 2.297 . S
O326 C328 1.247 . S
O327 Cd323 2.439 . S
O327 C328 1.208 . S
C328 O326 1.247 . S
C328 O327 1.208 . S
C329 O334 1.247 . S
C329 O335 1.208 . S
C330 O322 1.315 . S
C330 O325 1.279 . S
C331 O332 1.315 . S
C331 O333 1.279 . S
O332 Cd324 2.223 . S
O332 C331 1.315 . S
O333 Cd323 2.240 . S
O333 C331 1.279 . S
O334 Cd324 2.297 . S
O334 C329 1.247 . S
O335 Cd324 2.439 . S
O335 C329 1.208 . S
Eu336 N365 2.600 . S
Eu336 N371 2.562 . S
Eu336 O380 2.462 . S
Eu336 O381 2.373 . S
Eu336 O383 2.432 . S
Eu336 O384 2.291 . S
Eu336 O388 2.335 . S
Eu336 O391 2.372 . S
Eu336 C400 2.787 . S
C337 N338 1.365 1_554 S
C337 C340 1.405 1_554 S
C337 C344 1.448 . S
N338 C337 1.365 1_556 S
N338 C341 1.319 . S
N338 Eu347 2.600 1_566 S
C339 C341 1.397 . S
C339 C342 1.367 . S
C339 H359 0.931 . S
C340 C337 1.405 1_556 S
C340 C342 1.403 . S
C340 C346 1.439 . S
C341 N338 1.319 . S
C341 C339 1.397 . S
C341 H352 0.930 1_565 S
C342 C339 1.367 . S
C342 C340 1.403 . S
C342 H363 0.929 . S
C343 C344 1.430 . S
C343 C345 1.387 . S
C343 C349 1.404 . S
C344 C337 1.448 . S
C344 C343 1.430 . S
C344 N348 1.351 . S
C345 C343 1.387 . S
C345 C346 1.374 1_554 S
C345 H360 0.931 . S
C346 C340 1.439 . S
C346 C345 1.374 1_556 S
C346 H361 0.931 . S
Eu347 N338 2.600 1_544 S
Eu347 N348 2.562 1_545 S
Eu347 O382 2.335 1_655 S
Eu347 O385 2.372 1_655 S
Eu347 O386 2.462 . S
Eu347 O387 2.328 1_645 S
Eu347 O389 2.432 . S
Eu347 O390 2.291 1_655 S
Eu347 C411 2.787 . S
N348 C344 1.351 . S
N348 Eu347 2.562 1_565 S
N348 C350 1.325 . S
C349 C343 1.404 . S
C349 C351 1.366 . S
C349 H357 0.930 . S
C350 N348 1.325 . S
C350 C351 1.416 . S
C350 H356 0.929 1_565 S
C351 C349 1.366 . S
C351 C350 1.416 . S
C351 H353 0.930 . S
H352 C341 0.930 1_545 S
H353 C351 0.930 . S
H354 C369 0.930 . S
H355 C376 0.930 . S
H356 C350 0.929 1_545 S
H357 C349 0.930 . S
H358 C372 0.929 . S
H359 C339 0.931 . S
H360 C345 0.931 . S
H361 C346 0.931 . S
H362 C367 0.931 . S
H363 C342 0.929 . S
H364 C375 0.930 . S
N365 Eu336 2.600 . S
N365 C366 1.365 . S
N365 C369 1.319 . S
C366 N365 1.365 . S
C366 C368 1.405 . S
C366 C374 1.448 . S
C367 H362 0.931 . S
C367 C369 1.397 . S
C367 C370 1.367 . S
C368 C366 1.405 . S
C368 C370 1.403 . S
C368 C401 1.439 . S
C369 H354 0.930 . S
C369 N365 1.319 . S
C369 C367 1.397 . S
C370 C367 1.367 . S
C370 C368 1.403 . S
C370 H377 0.929 . S
N371 Eu336 2.562 . S
N371 C372 1.325 . S
N371 C374 1.351 . S
C372 H358 0.929 . S
C372 N371 1.325 . S
C372 C376 1.416 . S
C373 C374 1.430 . S
C373 C375 1.404 . S
C373 C402 1.387 . S
C374 C366 1.448 . S
C374 N371 1.351 . S
C374 C373 1.430 . S
C375 H364 0.930 . S
C375 C373 1.404 . S
C375 C376 1.366 . S
C376 H355 0.930 . S
C376 C372 1.416 . S
C376 C375 1.366 . S
H377 C370 0.929 . S
H378 C401 0.931 . S
H379 C402 0.931 . S
O380 Eu336 2.462 . S
O380 C400 1.252 . S
O381 Eu336 2.373 . S
O381 C392 1.249 . S
O382 Eu347 2.335 1_455 S
O382 C392 1.264 . S
O383 Eu336 2.432 . S
O383 C400 1.268 . S
O384 Eu336 2.291 . S
O384 C399 1.255 . S
O385 Eu347 2.372 1_455 S
O385 C399 1.257 . S
O386 Eu347 2.462 . S
O386 C411 1.252 . S
O387 Eu347 2.328 1_465 S
O387 C403 1.269 . S
O388 Eu336 2.335 . S
O388 C403 1.264 1_545 S
O389 Eu347 2.432 . S
O389 C411 1.268 . S
O390 Eu347 2.291 1_455 S
O390 C410 1.255 . S
O391 Eu336 2.372 . S
O391 C410 1.257 . S
C392 O381 1.249 . S
C392 O382 1.264 . S
C393 C396 1.382 . S
C393 C398 1.390 . S
C393 C400 1.506 . S
C394 C395 1.398 . S
C394 C398 1.392 . S
C395 C394 1.398 . S
C395 C397 1.372 . S
C395 H412 0.931 . S
C396 C393 1.382 . S
C396 C397 1.390 . S
C396 H413 0.931 . S
C397 C395 1.372 . S
C397 C396 1.390 . S
C397 H414 0.929 . S
C398 C393 1.390 . S
C398 C394 1.392 . S
C398 H415 0.930 . S
C399 O384 1.255 . S
C399 O385 1.257 . S
C400 Eu336 2.787 . S
C400 O380 1.252 . S
C400 O383 1.268 . S
C400 C393 1.506 . S
C401 C368 1.439 . S
C401 H378 0.931 . S
C401 C402 1.374 . S
C402 C373 1.387 . S
C402 H379 0.931 . S
C402 C401 1.374 . S
C403 O387 1.269 . S
C403 O388 1.264 1_565 S
C404 C407 1.382 1_554 S
C404 C408 1.390 . S
C404 C411 1.506 . S
C405 C406 1.398 . S
C405 C408 1.392 . S
C406 C405 1.398 . S
C406 C409 1.372 1_554 S
C406 H416 0.931 . S
C407 C404 1.382 1_556 S
C407 C409 1.390 . S
C407 H417 0.931 . S
C408 C404 1.390 . S
C408 C405 1.392 . S
C408 H418 0.930 . S
C409 C406 1.372 1_556 S
C409 C407 1.390 . S
C409 H419 0.929 . S
C410 O390 1.255 . S
C410 O391 1.257 . S
C411 Eu347 2.787 . S
C411 O386 1.252 . S
C411 O389 1.268 . S
C411 C404 1.506 . S
H412 C395 0.931 . S
H413 C396 0.931 . S
H414 C397 0.929 . S
H415 C398 0.930 . S
H416 C406 0.931 . S
H417 C407 0.931 . S
H418 C408 0.930 . S
H419 C409 0.929 . S
Eu420 N449 2.600 . S
Eu420 N455 2.562 . S
Eu420 O464 2.462 . S
Eu420 O465 2.373 . S
Eu420 O467 2.432 . S
Eu420 O468 2.291 . S
Eu420 O472 2.335 . S
Eu420 O475 2.372 . S
Eu420 C484 2.787 . S
C421 N422 1.365 . S
C421 C424 1.405 . S
C421 C428 1.448 . S
N422 C421 1.365 . S
N422 C425 1.319 . S
N422 Eu431 2.600 . S
C423 C425 1.397 . S
C423 C426 1.367 . S
C423 H443 0.931 . S
C424 C421 1.405 . S
C424 C426 1.403 . S
C424 C430 1.439 . S
C425 N422 1.319 . S
C425 C423 1.397 . S
C425 H436 0.930 . S
C426 C423 1.367 . S
C426 C424 1.403 . S
C426 H447 0.929 . S
C427 C428 1.430 . S
C427 C429 1.387 . S
C427 C433 1.404 . S
C428 C421 1.448 . S
C428 C427 1.430 . S
C428 N432 1.351 . S
C429 C427 1.387 . S
C429 C430 1.374 . S
C429 H444 0.931 . S
C430 C424 1.439 . S
C430 C429 1.374 . S
C430 H445 0.931 . S
Eu431 N422 2.600 . S
Eu431 N432 2.562 . S
Eu431 O466 2.335 . S
Eu431 O469 2.372 . S
Eu431 O470 2.462 . S
Eu431 O471 2.373 . S
Eu431 O473 2.432 . S
Eu431 O474 2.291 . S
Eu431 C495 2.787 . S
N432 C428 1.351 . S
N432 Eu431 2.562 . S
N432 C434 1.325 . S
C433 C427 1.404 . S
C433 C435 1.366 . S
C433 H441 0.930 . S
C434 N432 1.325 . S
C434 C435 1.416 . S
C434 H440 0.929 . S
C435 C433 1.366 . S
C435 C434 1.416 . S
C435 H437 0.930 . S
H436 C425 0.930 . S
H437 C435 0.930 . S
H438 C453 0.930 . S
H439 C460 0.930 . S
H440 C434 0.929 . S
H441 C433 0.930 . S
H442 C456 0.929 . S
H443 C423 0.931 . S
H444 C429 0.931 . S
H445 C430 0.931 . S
H446 C451 0.931 . S
H447 C426 0.929 . S
H448 C459 0.930 . S
N449 Eu420 2.600 . S
N449 C450 1.365 . S
N449 C453 1.319 . S
C450 N449 1.365 . S
C450 C452 1.405 . S
C450 C458 1.448 . S
C451 H446 0.931 . S
C451 C453 1.397 . S
C451 C454 1.367 . S
C452 C450 1.405 . S
C452 C454 1.403 . S
C452 C485 1.439 . S
C453 H438 0.930 . S
C453 N449 1.319 . S
C453 C451 1.397 . S
C454 C451 1.367 . S
C454 C452 1.403 . S
C454 H461 0.929 . S
N455 Eu420 2.562 . S
N455 C456 1.325 . S
N455 C458 1.351 . S
C456 H442 0.929 . S
C456 N455 1.325 . S
C456 C460 1.416 . S
C457 C458 1.430 . S
C457 C459 1.404 . S
C457 C486 1.387 . S
C458 C450 1.448 . S
C458 N455 1.351 . S
C458 C457 1.430 . S
C459 H448 0.930 . S
C459 C457 1.404 . S
C459 C460 1.366 . S
C460 H439 0.930 . S
C460 C456 1.416 . S
C460 C459 1.366 . S
H461 C454 0.929 . S
H462 C485 0.931 . S
H463 C486 0.931 . S
O464 Eu420 2.462 . S
O464 C484 1.252 . S
O465 Eu420 2.373 . S
O465 C476 1.249 . S
O466 Eu431 2.335 . S
O466 C476 1.264 . S
O467 Eu420 2.432 . S
O467 C484 1.268 . S
O468 Eu420 2.291 . S
O468 C483 1.255 . S
O469 Eu431 2.372 . S
O469 C483 1.257 . S
O470 Eu431 2.462 . S
O470 C495 1.252 . S
O471 Eu431 2.373 . S
O471 C487 1.249 . S
O472 Eu420 2.335 . S
O472 C487 1.264 . S
O473 Eu431 2.432 . S
O473 C495 1.268 . S
O474 Eu431 2.291 . S
O474 C494 1.255 . S
O475 Eu420 2.372 . S
O475 C494 1.257 . S
C476 O465 1.249 . S
C476 O466 1.264 . S
C477 C480 1.382 . S
C477 C482 1.390 . S
C477 C484 1.506 . S
C478 C479 1.398 . S
C478 C482 1.392 . S
C479 C478 1.398 . S
C479 C481 1.372 . S
C479 H496 0.931 . S
C480 C477 1.382 . S
C480 C481 1.390 . S
C480 H497 0.931 . S
C481 C479 1.372 . S
C481 C480 1.390 . S
C481 H498 0.929 . S
C482 C477 1.390 . S
C482 C478 1.392 . S
C482 H499 0.930 . S
C483 O468 1.255 . S
C483 O469 1.257 . S
C484 Eu420 2.787 . S
C484 O464 1.252 . S
C484 O467 1.268 . S
C484 C477 1.506 . S
C485 C452 1.439 . S
C485 H462 0.931 . S
C485 C486 1.374 . S
C486 C457 1.387 . S
C486 H463 0.931 . S
C486 C485 1.374 . S
C487 O471 1.249 . S
C487 O472 1.264 . S
C488 C491 1.382 . S
C488 C492 1.390 . S
C488 C495 1.506 . S
C489 C490 1.398 . S
C489 C492 1.392 . S
C490 C489 1.398 . S
C490 C493 1.372 . S
C490 H500 0.931 . S
C491 C488 1.382 . S
C491 C493 1.390 . S
C491 H501 0.931 . S
C492 C488 1.390 . S
C492 C489 1.392 . S
C492 H502 0.930 . S
C493 C490 1.372 . S
C493 C491 1.390 . S
C493 H503 0.929 . S
C494 O474 1.255 . S
C494 O475 1.257 . S
C495 Eu431 2.787 . S
C495 O470 1.252 . S
C495 O473 1.268 . S
C495 C488 1.506 . S
H496 C479 0.931 . S
H497 C480 0.931 . S
H498 C481 0.929 . S
H499 C482 0.930 . S
H500 C490 0.931 . S
H501 C491 0.931 . S
H502 C492 0.930 . S
H503 C493 0.929 . S
Eu504 N533 2.592 1_545 S
Eu504 N539 2.562 1_545 S
Eu504 O548 2.462 . S
Eu504 O549 2.373 1_545 S
Eu504 O551 2.432 . S
Eu504 O552 2.291 . S
Eu504 O556 2.335 . S
Eu504 O559 2.372 . S
Eu504 C568 2.787 . S
C505 N506 1.365 . S
C505 C508 1.405 . S
C505 C512 1.448 . S
N506 C505 1.365 . S
N506 C509 1.319 . S
N506 Eu515 2.600 . S
C507 C509 1.397 . S
C507 C510 1.367 . S
C507 H527 0.931 . S
C508 C505 1.405 . S
C508 C510 1.403 . S
C508 C514 1.439 . S
C509 N506 1.319 . S
C509 C507 1.397 . S
C509 H520 0.930 . S
C510 C507 1.367 . S
C510 C508 1.403 . S
C510 H531 0.929 . S
C511 C512 1.430 . S
C511 C513 1.387 . S
C511 C517 1.404 . S
C512 C505 1.448 . S
C512 C511 1.430 . S
C512 N516 1.351 . S
C513 C511 1.387 . S
C513 C514 1.374 . S
C513 H528 0.931 . S
C514 C508 1.439 . S
C514 C513 1.374 . S
C514 H529 0.931 . S
Eu515 N506 2.600 . S
Eu515 N516 2.562 . S
Eu515 O550 2.335 1_545 S
Eu515 O553 2.372 . S
Eu515 O554 2.462 . S
Eu515 O555 2.373 . S
Eu515 O557 2.432 . S
Eu515 O558 2.291 . S
Eu515 C579 2.787 . S
N516 C512 1.351 . S
N516 Eu515 2.562 . S
N516 C518 1.325 . S
C517 C511 1.404 . S
C517 C519 1.366 . S
C517 H525 0.930 . S
C518 N516 1.325 . S
C518 C519 1.416 . S
C518 H524 0.929 . S
C519 C517 1.366 . S
C519 C518 1.416 . S
C519 H521 0.930 . S
H520 C509 0.930 . S
H521 C519 0.930 . S
H522 C537 0.930 . S
H523 C544 0.930 . S
H524 C518 0.929 . S
H525 C517 0.930 . S
H526 C540 0.929 . S
H527 C507 0.931 . S
H528 C513 0.931 . S
H529 C514 0.931 . S
H530 C535 0.931 . S
H531 C510 0.929 . S
H532 C543 0.930 . S
N533 Eu504 2.592 1_565 S
N533 C534 1.374 . S
N533 C537 1.319 1_565 S
C534 N533 1.374 . S
C534 C536 1.405 . S
C534 C542 1.448 . S
C535 H530 0.931 . S
C535 C537 1.397 1_565 S
C535 C538 1.367 . S
C536 C534 1.405 . S
C536 C538 1.403 . S
C536 C569 1.439 . S
C537 H522 0.930 . S
C537 N533 1.319 1_545 S
C537 C535 1.397 1_545 S
C538 C535 1.367 . S
C538 C536 1.403 . S
C538 H545 0.929 . S
N539 Eu504 2.562 1_565 S
N539 C540 1.325 . S
N539 C542 1.351 . S
C540 H526 0.929 . S
C540 N539 1.325 . S
C540 C544 1.416 . S
C541 C542 1.430 . S
C541 C543 1.404 . S
C541 C570 1.387 . S
C542 C534 1.448 . S
C542 N539 1.351 . S
C542 C541 1.430 . S
C543 H532 0.930 . S
C543 C541 1.404 . S
C543 C544 1.366 . S
C544 H523 0.930 . S
C544 C540 1.416 . S
C544 C543 1.366 . S
H545 C538 0.929 . S
H546 C569 0.931 . S
H547 C570 0.931 . S
O548 Eu504 2.462 . S
O548 C568 1.252 . S
O549 Eu504 2.373 1_565 S
O549 C560 1.249 . S
O550 Eu515 2.335 1_565 S
O550 C560 1.264 . S
O551 Eu504 2.432 . S
O551 C568 1.268 . S
O552 Eu504 2.291 . S
O552 C567 1.255 . S
O553 Eu515 2.372 . S
O553 C567 1.257 . S
O554 Eu515 2.462 . S
O554 C579 1.252 . S
O555 Eu515 2.373 . S
O555 C571 1.249 . S
O556 Eu504 2.335 . S
O556 C571 1.264 . S
O557 Eu515 2.432 . S
O557 C579 1.268 . S
O558 Eu515 2.291 . S
O558 C578 1.255 . S
O559 Eu504 2.372 . S
O559 C578 1.257 . S
C560 O549 1.249 . S
C560 O550 1.264 . S
C561 C564 1.382 . S
C561 C566 1.390 . S
C561 C568 1.506 . S
C562 C563 1.398 . S
C562 C566 1.392 . S
C563 C562 1.398 . S
C563 C565 1.372 . S
C563 H580 0.931 . S
C564 C561 1.382 . S
C564 C565 1.390 . S
C564 H581 0.931 . S
C565 C563 1.372 . S
C565 C564 1.390 . S
C565 H582 0.929 . S
C566 C561 1.390 . S
C566 C562 1.392 . S
C566 H583 0.930 . S
C567 O552 1.255 . S
C567 O553 1.257 . S
C568 Eu504 2.787 . S
C568 O548 1.252 . S
C568 O551 1.268 . S
C568 C561 1.506 . S
C569 C536 1.439 . S
C569 H546 0.931 . S
C569 C570 1.374 . S
C570 C541 1.387 . S
C570 H547 0.931 . S
C570 C569 1.374 . S
C571 O555 1.249 . S
C571 O556 1.264 . S
C572 C575 1.378 1_545 S
C572 C576 1.378 1_545 S
C572 C579 1.523 . S
C573 C574 1.398 . S
C573 C576 1.392 . S
C574 C573 1.398 . S
C574 C577 1.372 . S
C574 H584 0.931 . S
C575 C572 1.378 1_565 S
C575 C577 1.390 . S
C575 H585 0.958 . S
C576 C572 1.378 1_565 S
C576 C573 1.392 . S
C576 H586 0.930 . S
C577 C574 1.372 . S
C577 C575 1.390 . S
C577 H587 0.929 . S
C578 O558 1.255 . S
C578 O559 1.257 . S
C579 Eu515 2.787 . S
C579 O554 1.252 . S
C579 O557 1.268 . S
C579 C572 1.523 . S
H580 C563 0.931 . S
H581 C564 0.931 . S
H582 C565 0.929 . S
H583 C566 0.930 . S
H584 C574 0.931 . S
H585 C575 0.958 . S
H586 C576 0.930 . S
H587 C577 0.929 . S
Eu588 N617 2.600 . S
Eu588 N623 2.562 . S
Eu588 O632 2.462 . S
Eu588 O633 2.373 . S
Eu588 O635 2.432 . S
Eu588 O636 2.291 . S
Eu588 O640 2.335 . S
Eu588 O643 2.372 . S
Eu588 C652 2.787 . S
C589 N590 1.365 . S
C589 C592 1.405 . S
C589 C596 1.448 . S
N590 C589 1.365 . S
N590 C593 1.319 . S
N590 Eu599 2.600 . S
C591 C593 1.397 . S
C591 C594 1.367 . S
C591 H611 0.931 . S
C592 C589 1.405 . S
C592 C594 1.403 . S
C592 C598 1.439 . S
C593 N590 1.319 . S
C593 C591 1.397 . S
C593 H604 0.930 . S
C594 C591 1.367 . S
C594 C592 1.403 . S
C594 H615 0.929 . S
C595 C596 1.430 . S
C595 C597 1.387 . S
C595 C601 1.404 . S
C596 C589 1.448 . S
C596 C595 1.430 . S
C596 N600 1.351 . S
C597 C595 1.387 . S
C597 C598 1.374 . S
C597 H612 0.931 . S
C598 C592 1.439 . S
C598 C597 1.374 . S
C598 H613 0.931 . S
Eu599 N590 2.600 . S
Eu599 N600 2.562 . S
Eu599 O634 2.335 . S
Eu599 O637 2.372 . S
Eu599 O638 2.462 . S
Eu599 O639 2.373 . S
Eu599 O641 2.432 . S
Eu599 O642 2.291 . S
Eu599 C663 2.787 . S
N600 C596 1.351 . S
N600 Eu599 2.562 . S
N600 C602 1.325 . S
C601 C595 1.404 . S
C601 C603 1.366 . S
C601 H609 0.930 . S
C602 N600 1.325 . S
C602 C603 1.416 . S
C602 H608 0.929 . S
C603 C601 1.366 . S
C603 C602 1.416 . S
C603 H605 0.930 . S
H604 C593 0.930 . S
H605 C603 0.930 . S
H606 C621 0.930 . S
H607 C628 0.930 . S
H608 C602 0.929 . S
H609 C601 0.930 . S
H610 C624 0.929 . S
H611 C591 0.931 . S
H612 C597 0.931 . S
H613 C598 0.931 . S
H614 C619 0.931 . S
H615 C594 0.929 . S
H616 C627 0.930 . S
N617 Eu588 2.600 . S
N617 C618 1.365 . S
N617 C621 1.319 . S
C618 N617 1.365 . S
C618 C620 1.405 . S
C618 C626 1.448 . S
C619 H614 0.931 . S
C619 C621 1.397 . S
C619 C622 1.367 . S
C620 C618 1.405 . S
C620 C622 1.403 . S
C620 C653 1.439 . S
C621 H606 0.930 . S
C621 N617 1.319 . S
C621 C619 1.397 . S
C622 C619 1.367 . S
C622 C620 1.403 . S
C622 H629 0.929 . S
N623 Eu588 2.562 . S
N623 C624 1.325 . S
N623 C626 1.351 . S
C624 H610 0.929 . S
C624 N623 1.325 . S
C624 C628 1.416 . S
C625 C626 1.430 . S
C625 C627 1.404 . S
C625 C654 1.387 . S
C626 C618 1.448 . S
C626 N623 1.351 . S
C626 C625 1.430 . S
C627 H616 0.930 . S
C627 C625 1.404 . S
C627 C628 1.366 . S
C628 H607 0.930 . S
C628 C624 1.416 . S
C628 C627 1.366 . S
H629 C622 0.929 . S
H630 C653 0.931 . S
H631 C654 0.931 . S
O632 Eu588 2.462 . S
O632 C652 1.252 . S
O633 Eu588 2.373 . S
O633 C644 1.249 . S
O634 Eu599 2.335 . S
O634 C644 1.264 . S
O635 Eu588 2.432 . S
O635 C652 1.268 . S
O636 Eu588 2.291 . S
O636 C651 1.255 . S
O637 Eu599 2.372 . S
O637 C651 1.257 . S
O638 Eu599 2.462 . S
O638 C663 1.252 . S
O639 Eu599 2.373 . S
O639 C655 1.249 . S
O640 Eu588 2.335 . S
O640 C655 1.264 . S
O641 Eu599 2.432 . S
O641 C663 1.268 . S
O642 Eu599 2.291 . S
O642 C662 1.255 . S
O643 Eu588 2.372 . S
O643 C662 1.257 . S
C644 O633 1.249 . S
C644 O634 1.264 . S
C645 C648 1.382 . S
C645 C650 1.390 . S
C645 C652 1.506 . S
C646 C647 1.398 . S
C646 C650 1.392 . S
C647 C646 1.398 . S
C647 C649 1.372 . S
C647 H664 0.931 . S
C648 C645 1.382 . S
C648 C649 1.390 . S
C648 H665 0.931 . S
C649 C647 1.372 . S
C649 C648 1.390 . S
C649 H666 0.929 . S
C650 C645 1.390 . S
C650 C646 1.392 . S
C650 H667 0.930 . S
C651 O636 1.255 . S
C651 O637 1.257 . S
C652 Eu588 2.787 . S
C652 O632 1.252 . S
C652 O635 1.268 . S
C652 C645 1.506 . S
C653 C620 1.439 . S
C653 H630 0.931 . S
C653 C654 1.374 . S
C654 C625 1.387 . S
C654 H631 0.931 . S
C654 C653 1.374 . S
C655 O639 1.249 . S
C655 O640 1.264 . S
C656 C659 1.382 . S
C656 C660 1.390 . S
C656 C663 1.506 . S
C657 C658 1.398 . S
C657 C660 1.392 . S
C658 C657 1.398 . S
C658 C661 1.372 . S
C658 H668 0.931 . S
C659 C656 1.382 . S
C659 C661 1.390 . S
C659 H669 0.931 . S
C660 C656 1.390 . S
C660 C657 1.392 . S
C660 H670 0.930 . S
C661 C658 1.372 . S
C661 C659 1.390 . S
C661 H671 0.929 . S
C662 O642 1.255 . S
C662 O643 1.257 . S
C663 Eu599 2.787 . S
C663 O638 1.252 . S
C663 O641 1.268 . S
C663 C656 1.506 . S
H664 C647 0.931 . S
H665 C648 0.931 . S
H666 C649 0.929 . S
H667 C650 0.930 . S
H668 C658 0.931 . S
H669 C659 0.931 . S
H670 C660 0.930 . S
H671 C661 0.929 . S
Eu672 N701 2.600 1_545 S
Eu672 N707 2.562 1_545 S
Eu672 O716 2.462 1_545 S
Eu672 O717 2.373 . S
Eu672 O719 2.432 1_545 S
Eu672 O720 2.291 . S
Eu672 O724 2.335 . S
Eu672 O727 2.372 . S
Eu672 C736 2.787 1_545 S
C673 N674 1.365 . S
C673 C676 1.405 . S
C673 C680 1.448 . S
N674 C673 1.365 . S
N674 C677 1.319 1_455 S
N674 Eu683 2.600 . S
C675 C677 1.397 . S
C675 C678 1.367 . S
C675 H695 0.931 . S
C676 C673 1.405 . S
C676 C678 1.403 1_455 S
C676 C682 1.439 . S
C677 N674 1.319 1_655 S
C677 C675 1.397 . S
C677 H688 0.930 . S
C678 C675 1.367 . S
C678 C676 1.403 1_655 S
C678 H699 0.929 . S
C679 C680 1.430 . S
C679 C681 1.387 . S
C679 C685 1.404 . S
C680 C673 1.448 . S
C680 C679 1.430 . S
C680 N684 1.351 . S
C681 C679 1.387 . S
C681 C682 1.374 . S
C681 H696 0.931 . S
C682 C676 1.439 . S
C682 C681 1.374 . S
C682 H697 0.931 . S
Eu683 N674 2.600 . S
Eu683 N684 2.562 . S
Eu683 O718 2.335 . S
Eu683 O721 2.372 1_455 S
Eu683 O722 2.462 . S
Eu683 O723 2.373 . S
Eu683 O725 2.432 . S
Eu683 O726 2.291 . S
Eu683 C747 2.787 . S
N684 C680 1.351 . S
N684 Eu683 2.562 . S
N684 C686 1.325 . S
C685 C679 1.404 . S
C685 C687 1.366 . S
C685 H693 0.930 . S
C686 N684 1.325 . S
C686 C687 1.416 . S
C686 H692 0.929 . S
C687 C685 1.366 . S
C687 C686 1.416 . S
C687 H689 0.930 . S
H688 C677 0.930 . S
H689 C687 0.930 . S
H690 C705 0.930 1_545 S
H691 C712 0.930 . S
H692 C686 0.929 . S
H693 C685 0.930 . S
H694 C708 0.929 1_655 S
H695 C675 0.931 . S
H696 C681 0.931 . S
H697 C682 0.931 . S
H698 C703 0.931 1_545 S
H699 C678 0.929 . S
H700 C711 0.936 . S
N701 Eu672 2.600 1_565 S
N701 C702 1.365 . S
N701 C705 1.319 . S
C702 N701 1.365 . S
C702 C704 1.405 . S
C702 C710 1.448 . S
C703 H698 0.931 1_565 S
C703 C705 1.397 . S
C703 C706 1.367 . S
C704 C702 1.405 . S
C704 C706 1.403 . S
C704 C737 1.439 . S
C705 H690 0.930 1_565 S
C705 N701 1.319 . S
C705 C703 1.397 . S
C706 C703 1.367 . S
C706 C704 1.403 . S
C706 H713 0.929 . S
N707 Eu672 2.562 1_565 S
N707 C708 1.325 . S
N707 C710 1.351 . S
C708 H694 0.929 1_455 S
C708 N707 1.325 . S
C708 C712 1.416 1_455 S
C709 C710 1.430 . S
C709 C711 1.386 1_455 S
C709 C738 1.387 . S
C710 C702 1.448 . S
C710 N707 1.351 . S
C710 C709 1.430 . S
C711 H700 0.936 . S
C711 C709 1.386 1_655 S
C711 C712 1.378 . S
C712 H691 0.930 . S
C712 C708 1.416 1_655 S
C712 C711 1.378 . S
H713 C706 0.929 . S
H714 C737 0.931 . S
H715 C738 0.931 . S
O716 Eu672 2.462 1_565 S
O716 C736 1.252 . S
O717 Eu672 2.373 . S
O717 C728 1.249 . S
O718 Eu683 2.335 . S
O718 C728 1.264 . S
O719 Eu672 2.432 1_565 S
O719 C736 1.268 . S
O720 Eu672 2.291 . S
O720 C735 1.255 1_455 S
O721 Eu683 2.372 1_655 S
O721 C735 1.257 . S
O722 Eu683 2.462 . S
O722 C747 1.252 . S
O723 Eu683 2.373 . S
O723 C739 1.249 . S
O724 Eu672 2.335 . S
O724 C739 1.264 . S
O725 Eu683 2.432 . S
O725 C747 1.268 . S
O726 Eu683 2.291 . S
O726 C746 1.255 . S
O727 Eu672 2.372 . S
O727 C746 1.257 . S
C728 O717 1.249 . S
C728 O718 1.264 . S
C729 C732 1.382 . S
C729 C734 1.390 . S
C729 C736 1.506 . S
C730 C731 1.398 . S
C730 C734 1.392 . S
C731 C730 1.398 . S
C731 C733 1.372 . S
C731 H748 0.931 . S
C732 C729 1.382 . S
C732 C733 1.390 . S
C732 H749 0.931 . S
C733 C731 1.372 . S
C733 C732 1.390 . S
C733 H750 0.929 . S
C734 C729 1.390 . S
C734 C730 1.392 . S
C734 H751 0.930 . S
C735 O720 1.255 1_655 S
C735 O721 1.257 . S
C736 Eu672 2.787 1_565 S
C736 O716 1.252 . S
C736 O719 1.268 . S
C736 C729 1.506 . S
C737 C704 1.439 . S
C737 H714 0.931 . S
C737 C738 1.374 . S
C738 C709 1.387 . S
C738 H715 0.931 . S
C738 C737 1.374 . S
C739 O723 1.249 . S
C739 O724 1.264 . S
C740 C743 1.382 1_455 S
C740 C744 1.390 . S
C740 C747 1.506 . S
C741 C742 1.398 . S
C741 C744 1.392 . S
C742 C741 1.398 . S
C742 C745 1.372 1_455 S
C742 H752 0.931 . S
C743 C740 1.382 1_655 S
C743 C745 1.390 . S
C743 H753 0.931 . S
C744 C740 1.390 . S
C744 C741 1.392 . S
C744 H754 0.930 . S
C745 C742 1.372 1_655 S
C745 C743 1.390 . S
C745 H755 0.929 . S
C746 O726 1.255 . S
C746 O727 1.257 . S
C747 Eu683 2.787 . S
C747 O722 1.252 . S
C747 O725 1.268 . S
C747 C740 1.506 . S
H748 C731 0.931 . S
H749 C732 0.931 . S
H750 C733 0.929 . S
H751 C734 0.930 . S
H752 C742 0.931 . S
H753 C743 0.931 . S
H754 C744 0.930 . S
H755 C745 0.929 . S
Eu756 N785 2.600 . S
Eu756 N791 2.562 . S
Eu756 O800 2.462 . S
Eu756 O801 2.373 . S
Eu756 O803 2.432 . S
Eu756 O804 2.291 . S
Eu756 O808 2.335 . S
Eu756 O811 2.372 . S
Eu756 C820 2.787 . S
C757 N758 1.365 . S
C757 C760 1.405 . S
C757 C764 1.448 . S
N758 C757 1.365 . S
N758 C761 1.319 . S
N758 Eu767 2.600 . S
C759 C761 1.397 . S
C759 C762 1.367 . S
C759 H779 0.931 . S
C760 C757 1.405 . S
C760 C762 1.403 . S
C760 C766 1.439 . S
C761 N758 1.319 . S
C761 C759 1.397 . S
C761 H772 0.930 . S
C762 C759 1.367 . S
C762 C760 1.403 . S
C762 H783 0.929 . S
C763 C764 1.430 . S
C763 C765 1.387 . S
C763 C769 1.404 . S
C764 C757 1.448 . S
C764 C763 1.430 . S
C764 N768 1.351 . S
C765 C763 1.387 . S
C765 C766 1.374 . S
C765 H780 0.931 . S
C766 C760 1.439 . S
C766 C765 1.374 . S
C766 H781 0.931 . S
Eu767 N758 2.600 . S
Eu767 N768 2.562 . S
Eu767 O802 2.335 . S
Eu767 O805 2.372 . S
Eu767 O806 2.462 . S
Eu767 O807 2.373 . S
Eu767 O809 2.432 . S
Eu767 O810 2.291 . S
Eu767 C831 2.787 . S
N768 C764 1.351 . S
N768 Eu767 2.562 . S
N768 C770 1.325 . S
C769 C763 1.404 . S
C769 C771 1.366 . S
C769 H777 0.930 . S
C770 N768 1.325 . S
C770 C771 1.416 . S
C770 H776 0.929 . S
C771 C769 1.366 . S
C771 C770 1.416 . S
C771 H773 0.930 . S
H772 C761 0.930 . S
H773 C771 0.930 . S
H774 C789 0.930 . S
H775 C796 0.930 . S
H776 C770 0.929 . S
H777 C769 0.930 . S
H778 C792 0.929 . S
H779 C759 0.931 . S
H780 C765 0.931 . S
H781 C766 0.931 . S
H782 C787 0.931 . S
H783 C762 0.929 . S
H784 C795 0.930 . S
N785 Eu756 2.600 . S
N785 C786 1.365 . S
N785 C789 1.319 . S
C786 N785 1.365 . S
C786 C788 1.405 . S
C786 C794 1.448 . S
C787 H782 0.931 . S
C787 C789 1.397 . S
C787 C790 1.367 . S
C788 C786 1.405 . S
C788 C790 1.403 . S
C788 C821 1.439 . S
C789 H774 0.930 . S
C789 N785 1.319 . S
C789 C787 1.397 . S
C790 C787 1.367 . S
C790 C788 1.403 . S
C790 H797 0.929 . S
N791 Eu756 2.562 . S
N791 C792 1.325 . S
N791 C794 1.351 . S
C792 H778 0.929 . S
C792 N791 1.325 . S
C792 C796 1.416 . S
C793 C794 1.430 . S
C793 C795 1.404 . S
C793 C822 1.387 . S
C794 C786 1.448 . S
C794 N791 1.351 . S
C794 C793 1.430 . S
C795 H784 0.930 . S
C795 C793 1.404 . S
C795 C796 1.366 . S
C796 H775 0.930 . S
C796 C792 1.416 . S
C796 C795 1.366 . S
H797 C790 0.929 . S
H798 C821 0.931 . S
H799 C822 0.931 . S
O800 Eu756 2.462 . S
O800 C820 1.252 . S
O801 Eu756 2.373 . S
O801 C812 1.249 . S
O802 Eu767 2.335 . S
O802 C812 1.264 . S
O803 Eu756 2.432 . S
O803 C820 1.268 . S
O804 Eu756 2.291 . S
O804 C819 1.255 . S
O805 Eu767 2.372 . S
O805 C819 1.257 . S
O806 Eu767 2.462 . S
O806 C831 1.252 . S
O807 Eu767 2.373 . S
O807 C823 1.249 . S
O808 Eu756 2.335 . S
O808 C823 1.264 . S
O809 Eu767 2.432 . S
O809 C831 1.268 . S
O810 Eu767 2.291 . S
O810 C830 1.255 . S
O811 Eu756 2.372 . S
O811 C830 1.257 . S
C812 O801 1.249 . S
C812 O802 1.264 . S
C813 C816 1.382 . S
C813 C818 1.390 . S
C813 C820 1.506 . S
C814 C815 1.398 . S
C814 C818 1.392 . S
C815 C814 1.398 . S
C815 C817 1.372 . S
C815 H832 0.931 . S
C816 C813 1.382 . S
C816 C817 1.390 . S
C816 H833 0.931 . S
C817 C815 1.372 . S
C817 C816 1.390 . S
C817 H834 0.929 . S
C818 C813 1.390 . S
C818 C814 1.392 . S
C818 H835 0.930 . S
C819 O804 1.255 . S
C819 O805 1.257 . S
C820 Eu756 2.787 . S
C820 O800 1.252 . S
C820 O803 1.268 . S
C820 C813 1.506 . S
C821 C788 1.439 . S
C821 H798 0.931 . S
C821 C822 1.374 . S
C822 C793 1.387 . S
C822 H799 0.931 . S
C822 C821 1.374 . S
C823 O807 1.249 . S
C823 O808 1.264 . S
C824 C827 1.382 . S
C824 C828 1.390 . S
C824 C831 1.506 . S
C825 C826 1.398 . S
C825 C828 1.392 . S
C826 C825 1.398 . S
C826 C829 1.372 . S
C826 H836 0.931 . S
C827 C824 1.382 . S
C827 C829 1.390 . S
C827 H837 0.931 . S
C828 C824 1.390 . S
C828 C825 1.392 . S
C828 H838 0.930 . S
C829 C826 1.372 . S
C829 C827 1.390 . S
C829 H839 0.929 . S
C830 O810 1.255 . S
C830 O811 1.257 . S
C831 Eu767 2.787 . S
C831 O806 1.252 . S
C831 O809 1.268 . S
C831 C824 1.506 . S
H832 C815 0.931 . S
H833 C816 0.931 . S
H834 C817 0.929 . S
H835 C818 0.930 . S
H836 C826 0.931 . S
H837 C827 0.931 . S
H838 C828 0.930 . S
H839 C829 0.929 . S
Eu840 N869 2.588 1_554 S
Eu840 N875 2.562 1_554 S
Eu840 O884 2.462 1_554 S
Eu840 O885 2.373 . S
Eu840 O887 2.432 1_554 S
Eu840 O888 2.291 . S
Eu840 O892 2.335 . S
Eu840 O895 2.372 . S
Eu840 C904 2.787 1_554 S
C841 N842 1.365 1_545 S
C841 C844 1.405 1_545 S
C841 C848 1.448 . S
N842 C841 1.365 1_565 S
N842 C845 1.319 . S
N842 Eu851 2.600 1_565 S
C843 C845 1.397 . S
C843 C846 1.367 . S
C843 H863 0.931 . S
C844 C841 1.405 1_565 S
C844 C846 1.403 . S
C844 C850 1.439 1_565 S
C845 N842 1.319 . S
C845 C843 1.397 . S
C845 H856 0.930 . S
C846 C843 1.367 . S
C846 C844 1.403 . S
C846 H867 0.929 . S
C847 C848 1.430 . S
C847 C849 1.387 . S
C847 C853 1.404 . S
C848 C841 1.448 . S
C848 C847 1.430 . S
C848 N852 1.351 . S
C849 C847 1.387 . S
C849 C850 1.374 . S
C849 H864 0.931 . S
C850 C844 1.439 1_545 S
C850 C849 1.374 . S
C850 H865 0.931 1_545 S
Eu851 N842 2.600 1_545 S
Eu851 N852 2.562 . S
Eu851 O886 2.335 . S
Eu851 O889 2.372 1_545 S
Eu851 O890 2.462 . S
Eu851 O891 2.373 . S
Eu851 O893 2.432 1_545 S
Eu851 O894 2.291 . S
Eu851 C915 2.787 . S
N852 C848 1.351 . S
N852 Eu851 2.562 . S
N852 C854 1.325 . S
C853 C847 1.404 . S
C853 C855 1.366 . S
C853 H861 0.930 . S
C854 N852 1.325 . S
C854 C855 1.416 . S
C854 H860 0.929 . S
C855 C853 1.366 . S
C855 C854 1.416 . S
C855 H857 0.930 . S
H856 C845 0.930 . S
H857 C855 0.930 . S
H858 C873 0.930 . S
H859 C880 0.930 . S
H860 C854 0.929 . S
H861 C853 0.930 . S
H862 C876 0.929 . S
H863 C843 0.931 . S
H864 C849 0.931 . S
H865 C850 0.931 1_565 S
H866 C871 0.931 . S
H867 C846 0.929 . S
H868 C879 0.930 1_565 S
N869 Eu840 2.588 1_556 S
N869 C870 1.389 . S
N869 C873 1.306 1_556 S
C870 N869 1.389 . S
C870 C872 1.405 . S
C870 C878 1.448 . S
C871 H866 0.931 . S
C871 C873 1.397 . S
C871 C874 1.367 1_554 S
C872 C870 1.405 . S
C872 C874 1.403 . S
C872 C905 1.439 . S
C873 H858 0.930 . S
C873 N869 1.306 1_554 S
C873 C871 1.397 . S
C874 C871 1.367 1_556 S
C874 C872 1.403 . S
C874 H881 0.929 . S
N875 Eu840 2.562 1_556 S
N875 C876 1.325 . S
N875 C878 1.351 . S
C876 H862 0.929 . S
C876 N875 1.325 . S
C876 C880 1.416 1_545 S
C877 C878 1.430 . S
C877 C879 1.404 . S
C877 C906 1.387 . S
C878 C870 1.448 . S
C878 N875 1.351 . S
C878 C877 1.430 . S
C879 H868 0.930 1_545 S
C879 C877 1.404 . S
C879 C880 1.366 1_545 S
C880 H859 0.930 . S
C880 C876 1.416 1_565 S
C880 C879 1.366 1_565 S
H881 C874 0.929 . S
H882 C905 0.931 . S
H883 C906 0.931 . S
O884 Eu840 2.462 1_556 S
O884 C904 1.252 . S
O885 Eu840 2.373 . S
O885 C896 1.249 . S
O886 Eu851 2.335 . S
O886 C896 1.264 . S
O887 Eu840 2.432 1_556 S
O887 C904 1.268 . S
O888 Eu840 2.291 . S
O888 C903 1.255 1_545 S
O889 Eu851 2.372 1_565 S
O889 C903 1.257 . S
O890 Eu851 2.462 . S
O890 C915 1.252 . S
O891 Eu851 2.373 . S
O891 C907 1.249 . S
O892 Eu840 2.335 . S
O892 C907 1.264 . S
O893 Eu851 2.432 1_565 S
O893 C915 1.268 1_565 S
O894 Eu851 2.291 . S
O894 C914 1.255 . S
O895 Eu840 2.372 . S
O895 C914 1.257 . S
C896 O885 1.249 . S
C896 O886 1.264 . S
C897 C900 1.382 . S
C897 C902 1.390 . S
C897 C904 1.506 . S
C898 C899 1.398 . S
C898 C902 1.392 . S
C899 C898 1.398 . S
C899 C901 1.372 . S
C899 H916 0.931 . S
C900 C897 1.382 . S
C900 C901 1.390 . S
C900 H917 0.931 . S
C901 C899 1.372 . S
C901 C900 1.390 . S
C901 H918 0.929 . S
C902 C897 1.390 . S
C902 C898 1.392 . S
C902 H919 0.930 . S
C903 O888 1.255 1_565 S
C903 O889 1.257 . S
C904 Eu840 2.787 1_556 S
C904 O884 1.252 . S
C904 O887 1.268 . S
C904 C897 1.506 . S
C905 C872 1.439 . S
C905 H882 0.931 . S
C905 C906 1.374 . S
C906 C877 1.387 . S
C906 H883 0.931 . S
C906 C905 1.374 . S
C907 O891 1.249 . S
C907 O892 1.264 . S
C908 C911 1.382 . S
C908 C912 1.390 1_565 S
C908 C915 1.506 1_565 S
C909 C910 1.398 1_545 S
C909 C912 1.392 . S
C910 C909 1.398 1_565 S
C910 C913 1.372 . S
C910 H920 0.931 . S
C911 C908 1.382 . S
C911 C913 1.390 . S
C911 H921 0.931 . S
C912 C908 1.390 1_545 S
C912 C909 1.392 . S
C912 H922 0.930 . S
C913 C910 1.372 . S
C913 C911 1.390 . S
C913 H923 0.929 . S
C914 O894 1.255 . S
C914 O895 1.257 . S
C915 Eu851 2.787 . S
C915 O890 1.252 . S
C915 O893 1.268 1_545 S
C915 C908 1.506 1_545 S
H916 C899 0.931 . S
H917 C900 0.931 . S
H918 C901 0.929 . S
H919 C902 0.930 . S
H920 C910 0.931 . S
H921 C911 0.931 . S
H922 C912 0.930 . S
H923 C913 0.929 . S
Eu924 N953 2.600 . S
Eu924 N959 2.562 . S
Eu924 O968 2.462 . S
Eu924 O969 2.373 . S
Eu924 O971 2.432 . S
Eu924 O972 2.291 . S
Eu924 O976 2.335 . S
Eu924 O979 2.372 . S
Eu924 C988 2.787 . S
C925 N926 1.365 . S
C925 C928 1.405 . S
C925 C932 1.448 . S
N926 C925 1.365 . S
N926 C929 1.319 . S
N926 Eu935 2.600 . S
C927 C929 1.397 . S
C927 C930 1.367 . S
C927 H947 0.931 . S
C928 C925 1.405 . S
C928 C930 1.403 . S
C928 C934 1.439 . S
C929 N926 1.319 . S
C929 C927 1.397 . S
C929 H940 0.930 . S
C930 C927 1.367 . S
C930 C928 1.403 . S
C930 H951 0.929 . S
C931 C932 1.430 . S
C931 C933 1.387 . S
C931 C937 1.404 . S
C932 C925 1.448 . S
C932 C931 1.430 . S
C932 N936 1.351 . S
C933 C931 1.387 . S
C933 C934 1.374 . S
C933 H948 0.931 . S
C934 C928 1.439 . S
C934 C933 1.374 . S
C934 H949 0.931 . S
Eu935 N926 2.600 . S
Eu935 N936 2.562 . S
Eu935 O970 2.335 . S
Eu935 O973 2.372 . S
Eu935 O974 2.462 . S
Eu935 O975 2.373 . S
Eu935 O977 2.432 . S
Eu935 O978 2.291 . S
Eu935 C999 2.787 . S
N936 C932 1.351 . S
N936 Eu935 2.562 . S
N936 C938 1.325 . S
C937 C931 1.404 . S
C937 C939 1.366 . S
C937 H945 0.930 . S
C938 N936 1.325 . S
C938 C939 1.416 . S
C938 H944 0.929 . S
C939 C937 1.366 . S
C939 C938 1.416 . S
C939 H941 0.930 . S
H940 C929 0.930 . S
H941 C939 0.930 . S
H942 C957 0.930 . S
H943 C964 0.930 . S
H944 C938 0.929 . S
H945 C937 0.930 . S
H946 C960 0.929 . S
H947 C927 0.931 . S
H948 C933 0.931 . S
H949 C934 0.931 . S
H950 C955 0.931 . S
H951 C930 0.929 . S
H952 C963 0.930 . S
N953 Eu924 2.600 . S
N953 C954 1.365 . S
N953 C957 1.319 . S
C954 N953 1.365 . S
C954 C956 1.405 . S
C954 C962 1.448 . S
C955 H950 0.931 . S
C955 C957 1.397 . S
C955 C958 1.367 . S
C956 C954 1.405 . S
C956 C958 1.403 . S
C956 C989 1.439 . S
C957 H942 0.930 . S
C957 N953 1.319 . S
C957 C955 1.397 . S
C958 C955 1.367 . S
C958 C956 1.403 . S
C958 H965 0.929 . S
N959 Eu924 2.562 . S
N959 C960 1.325 . S
N959 C962 1.351 . S
C960 H946 0.929 . S
C960 N959 1.325 . S
C960 C964 1.416 . S
C961 C962 1.430 . S
C961 C963 1.404 . S
C961 C990 1.387 . S
C962 C954 1.448 . S
C962 N959 1.351 . S
C962 C961 1.430 . S
C963 H952 0.930 . S
C963 C961 1.404 . S
C963 C964 1.366 . S
C964 H943 0.930 . S
C964 C960 1.416 . S
C964 C963 1.366 . S
H965 C958 0.929 . S
H966 C989 0.931 . S
H967 C990 0.931 . S
O968 Eu924 2.462 . S
O968 C988 1.252 . S
O969 Eu924 2.373 . S
O969 C980 1.249 . S
O970 Eu935 2.335 . S
O970 C980 1.264 . S
O971 Eu924 2.432 . S
O971 C988 1.268 . S
O972 Eu924 2.291 . S
O972 C987 1.255 . S
O973 Eu935 2.372 . S
O973 C987 1.257 . S
O974 Eu935 2.462 . S
O974 C999 1.252 . S
O975 Eu935 2.373 . S
O975 C991 1.249 . S
O976 Eu924 2.335 . S
O976 C991 1.264 . S
O977 Eu935 2.432 . S
O977 C999 1.268 . S
O978 Eu935 2.291 . S
O978 C998 1.255 . S
O979 Eu924 2.372 . S
O979 C998 1.257 . S
C980 O969 1.249 . S
C980 O970 1.264 . S
C981 C984 1.382 . S
C981 C986 1.390 . S
C981 C988 1.506 . S
C982 C983 1.398 . S
C982 C986 1.392 . S
C983 C982 1.398 . S
C983 C985 1.372 . S
C983 H1000 0.931 . S
C984 C981 1.382 . S
C984 C985 1.390 . S
C984 H1001 0.931 . S
C985 C983 1.372 . S
C985 C984 1.390 . S
C985 H1002 0.929 . S
C986 C981 1.390 . S
C986 C982 1.392 . S
C986 H1003 0.930 . S
C987 O972 1.255 . S
C987 O973 1.257 . S
C988 Eu924 2.787 . S
C988 O968 1.252 . S
C988 O971 1.268 . S
C988 C981 1.506 . S
C989 C956 1.439 . S
C989 H966 0.931 . S
C989 C990 1.374 . S
C990 C961 1.387 . S
C990 H967 0.931 . S
C990 C989 1.374 . S
C991 O975 1.249 . S
C991 O976 1.264 . S
C992 C995 1.382 . S
C992 C996 1.390 . S
C992 C999 1.506 . S
C993 C994 1.398 . S
C993 C996 1.392 . S
C994 C993 1.398 . S
C994 C997 1.372 . S
C994 H1004 0.931 . S
C995 C992 1.382 . S
C995 C997 1.390 . S
C995 H1005 0.931 . S
C996 C992 1.390 . S
C996 C993 1.392 . S
C996 H1006 0.930 . S
C997 C994 1.372 . S
C997 C995 1.390 . S
C997 H1007 0.929 . S
C998 O978 1.255 . S
C998 O979 1.257 . S
C999 Eu935 2.787 . S
C999 O974 1.252 . S
C999 O977 1.268 . S
C999 C992 1.506 . S
H1000 C983 0.931 . S
H1001 C984 0.931 . S
H1002 C985 0.929 . S
H1003 C986 0.930 . S
H1004 C994 0.931 . S
H1005 C995 0.931 . S
H1006 C996 0.930 . S
H1007 C997 0.929 . S
Eu1008 N1037 2.600 . S
Eu1008 N1043 2.562 . S
Eu1008 O1052 2.462 . S
Eu1008 O1053 2.373 . S
Eu1008 O1055 2.432 . S
Eu1008 O1056 2.291 . S
Eu1008 O1060 2.335 . S
Eu1008 O1063 2.372 . S
Eu1008 C1072 2.787 . S
C1009 N1010 1.365 . S
C1009 C1012 1.405 . S
C1009 C1016 1.448 . S
N1010 C1009 1.365 . S
N1010 C1013 1.319 . S
N1010 Eu1019 2.600 . S
C1011 C1013 1.397 . S
C1011 C1014 1.367 . S
C1011 H1031 0.931 . S
C1012 C1009 1.405 . S
C1012 C1014 1.403 . S
C1012 C1018 1.439 . S
C1013 N1010 1.319 . S
C1013 C1011 1.397 . S
C1013 H1024 0.930 . S
C1014 C1011 1.367 . S
C1014 C1012 1.403 . S
C1014 H1035 0.929 . S
C1015 C1016 1.430 . S
C1015 C1017 1.387 . S
C1015 C1021 1.404 . S
C1016 C1009 1.448 . S
C1016 C1015 1.430 . S
C1016 N1020 1.351 . S
C1017 C1015 1.387 . S
C1017 C1018 1.374 . S
C1017 H1032 0.931 . S
C1018 C1012 1.439 . S
C1018 C1017 1.374 . S
C1018 H1033 0.931 . S
Eu1019 N1010 2.600 . S
Eu1019 N1020 2.562 . S
Eu1019 O1054 2.335 . S
Eu1019 O1057 2.372 . S
Eu1019 O1058 2.462 . S
Eu1019 O1059 2.373 . S
Eu1019 O1061 2.432 . S
Eu1019 O1062 2.291 . S
Eu1019 C1083 2.787 . S
N1020 C1016 1.351 . S
N1020 Eu1019 2.562 . S
N1020 C1022 1.325 . S
C1021 C1015 1.404 . S
C1021 C1023 1.366 . S
C1021 H1029 0.930 . S
C1022 N1020 1.325 . S
C1022 C1023 1.416 . S
C1022 H1028 0.929 . S
C1023 C1021 1.366 . S
C1023 C1022 1.416 . S
C1023 H1025 0.930 . S
H1024 C1013 0.930 . S
H1025 C1023 0.930 . S
H1026 C1041 0.930 . S
H1027 C1048 0.930 . S
H1028 C1022 0.929 . S
H1029 C1021 0.930 . S
H1030 C1044 0.929 . S
H1031 C1011 0.931 . S
H1032 C1017 0.931 . S
H1033 C1018 0.931 . S
H1034 C1039 0.931 . S
H1035 C1014 0.929 . S
H1036 C1047 0.930 . S
N1037 Eu1008 2.600 . S
N1037 C1038 1.365 1_554 S
N1037 C1041 1.319 . S
C1038 N1037 1.365 1_556 S
C1038 C1040 1.405 . S
C1038 C1046 1.448 . S
C1039 H1034 0.931 . S
C1039 C1041 1.397 1_556 S
C1039 C1042 1.367 . S
C1040 C1038 1.405 . S
C1040 C1042 1.403 . S
C1040 C1073 1.439 . S
C1041 H1026 0.930 . S
C1041 N1037 1.319 . S
C1041 C1039 1.397 1_554 S
C1042 C1039 1.367 . S
C1042 C1040 1.403 . S
C1042 H1049 0.929 . S
N1043 Eu1008 2.562 . S
N1043 C1044 1.325 . S
N1043 C1046 1.351 1_554 S
C1044 H1030 0.929 . S
C1044 N1043 1.325 . S
C1044 C1048 1.416 1_554 S
C1045 C1046 1.430 . S
C1045 C1047 1.404 . S
C1045 C1074 1.387 . S
C1046 C1038 1.448 . S
C1046 N1043 1.351 1_556 S
C1046 C1045 1.430 . S
C1047 H1036 0.930 . S
C1047 C1045 1.404 . S
C1047 C1048 1.366 . S
C1048 H1027 0.930 . S
C1048 C1044 1.416 1_556 S
C1048 C1047 1.366 . S
H1049 C1042 0.929 . S
H1050 C1073 0.931 . S
H1051 C1074 0.931 . S
O1052 Eu1008 2.462 . S
O1052 C1072 1.252 . S
O1053 Eu1008 2.373 . S
O1053 C1064 1.249 1_554 S
O1054 Eu1019 2.335 . S
O1054 C1064 1.264 1_554 S
O1055 Eu1008 2.432 . S
O1055 C1072 1.268 . S
O1056 Eu1008 2.291 . S
O1056 C1071 1.255 . S
O1057 Eu1019 2.372 . S
O1057 C1071 1.257 . S
O1058 Eu1019 2.462 . S
O1058 C1083 1.252 . S
O1059 Eu1019 2.373 . S
O1059 C1075 1.249 . S
O1060 Eu1008 2.335 . S
O1060 C1075 1.264 . S
O1061 Eu1019 2.432 . S
O1061 C1083 1.268 . S
O1062 Eu1019 2.291 . S
O1062 C1082 1.255 . S
O1063 Eu1008 2.372 . S
O1063 C1082 1.257 . S
C1064 O1053 1.249 1_556 S
C1064 O1054 1.264 1_556 S
C1065 C1068 1.382 . S
C1065 C1070 1.390 . S
C1065 C1072 1.506 . S
C1066 C1067 1.398 . S
C1066 C1070 1.392 . S
C1067 C1066 1.398 . S
C1067 C1069 1.372 . S
C1067 H1084 0.931 . S
C1068 C1065 1.382 . S
C1068 C1069 1.390 . S
C1068 H1085 0.931 . S
C1069 C1067 1.372 . S
C1069 C1068 1.390 . S
C1069 H1086 0.929 . S
C1070 C1065 1.390 . S
C1070 C1066 1.392 . S
C1070 H1087 0.930 . S
C1071 O1056 1.255 . S
C1071 O1057 1.257 . S
C1072 Eu1008 2.787 . S
C1072 O1052 1.252 . S
C1072 O1055 1.268 . S
C1072 C1065 1.506 . S
C1073 C1040 1.439 . S
C1073 H1050 0.931 . S
C1073 C1074 1.374 . S
C1074 C1045 1.387 . S
C1074 H1051 0.931 . S
C1074 C1073 1.374 . S
C1075 O1059 1.249 . S
C1075 O1060 1.264 . S
C1076 C1079 1.382 . S
C1076 C1080 1.390 . S
C1076 C1083 1.506 . S
C1077 C1078 1.398 . S
C1077 C1080 1.392 1_556 S
C1078 C1077 1.398 . S
C1078 C1081 1.372 1_556 S
C1078 H1088 0.931 . S
C1079 C1076 1.382 . S
C1079 C1081 1.390 . S
C1079 H1089 0.931 . S
C1080 C1076 1.390 . S
C1080 C1077 1.392 1_554 S
C1080 H1090 0.930 . S
C1081 C1078 1.372 1_554 S
C1081 C1079 1.390 . S
C1081 H1091 0.929 1_554 S
C1082 O1062 1.255 . S
C1082 O1063 1.257 . S
C1083 Eu1019 2.787 . S
C1083 O1058 1.252 . S
C1083 O1061 1.268 . S
C1083 C1076 1.506 . S
H1084 C1067 0.931 . S
H1085 C1068 0.931 . S
H1086 C1069 0.929 . S
H1087 C1070 0.930 . S
H1088 C1078 0.931 . S
H1089 C1079 0.931 . S
H1090 C1080 0.930 . S
H1091 C1081 0.929 1_556 S
Eu1092 N1121 2.600 . S
Eu1092 N1127 2.562 . S
Eu1092 O1136 2.462 . S
Eu1092 O1137 2.373 . S
Eu1092 O1139 2.432 . S
Eu1092 O1140 2.291 . S
Eu1092 O1144 2.335 . S
Eu1092 O1147 2.372 . S
Eu1092 C1156 2.787 . S
C1093 N1094 1.365 . S
C1093 C1096 1.405 . S
C1093 C1100 1.448 . S
N1094 C1093 1.365 . S
N1094 C1097 1.319 . S
N1094 Eu1103 2.600 . S
C1095 C1097 1.397 . S
C1095 C1098 1.367 . S
C1095 H1115 0.931 . S
C1096 C1093 1.405 . S
C1096 C1098 1.403 . S
C1096 C1102 1.439 . S
C1097 N1094 1.319 . S
C1097 C1095 1.397 . S
C1097 H1108 0.930 . S
C1098 C1095 1.367 . S
C1098 C1096 1.403 . S
C1098 H1119 0.929 . S
C1099 C1100 1.430 . S
C1099 C1101 1.387 . S
C1099 C1105 1.404 . S
C1100 C1093 1.448 . S
C1100 C1099 1.430 . S
C1100 N1104 1.351 . S
C1101 C1099 1.387 . S
C1101 C1102 1.374 . S
C1101 H1116 0.931 . S
C1102 C1096 1.439 . S
C1102 C1101 1.374 . S
C1102 H1117 0.931 . S
Eu1103 N1094 2.600 . S
Eu1103 N1104 2.562 . S
Eu1103 O1138 2.335 . S
Eu1103 O1141 2.372 . S
Eu1103 O1142 2.462 . S
Eu1103 O1143 2.373 . S
Eu1103 O1145 2.432 . S
Eu1103 O1146 2.291 . S
Eu1103 C1167 2.787 . S
N1104 C1100 1.351 . S
N1104 Eu1103 2.562 . S
N1104 C1106 1.325 . S
C1105 C1099 1.404 . S
C1105 C1107 1.366 . S
C1105 H1113 0.930 . S
C1106 N1104 1.325 . S
C1106 C1107 1.416 . S
C1106 H1112 0.929 . S
C1107 C1105 1.366 . S
C1107 C1106 1.416 . S
C1107 H1109 0.930 . S
H1108 C1097 0.930 . S
H1109 C1107 0.930 . S
H1110 C1125 0.930 . S
H1111 C1132 0.930 . S
H1112 C1106 0.929 . S
H1113 C1105 0.930 . S
H1114 C1128 0.929 . S
H1115 C1095 0.931 . S
H1116 C1101 0.931 . S
H1117 C1102 0.931 . S
H1118 C1123 0.931 . S
H1119 C1098 0.929 . S
H1120 C1131 0.930 . S
N1121 Eu1092 2.600 . S
N1121 C1122 1.365 . S
N1121 C1125 1.319 . S
C1122 N1121 1.365 . S
C1122 C1124 1.405 . S
C1122 C1130 1.448 . S
C1123 H1118 0.931 . S
C1123 C1125 1.397 . S
C1123 C1126 1.367 . S
C1124 C1122 1.405 . S
C1124 C1126 1.403 . S
C1124 C1157 1.439 . S
C1125 H1110 0.930 . S
C1125 N1121 1.319 . S
C1125 C1123 1.397 . S
C1126 C1123 1.367 . S
C1126 C1124 1.403 . S
C1126 H1133 0.929 . S
N1127 Eu1092 2.562 . S
N1127 C1128 1.325 . S
N1127 C1130 1.351 . S
C1128 H1114 0.929 . S
C1128 N1127 1.325 . S
C1128 C1132 1.416 . S
C1129 C1130 1.430 . S
C1129 C1131 1.404 . S
C1129 C1158 1.387 . S
C1130 C1122 1.448 . S
C1130 N1127 1.351 . S
C1130 C1129 1.430 . S
C1131 H1120 0.930 . S
C1131 C1129 1.404 . S
C1131 C1132 1.366 . S
C1132 H1111 0.930 . S
C1132 C1128 1.416 . S
C1132 C1131 1.366 . S
H1133 C1126 0.929 . S
H1134 C1157 0.931 . S
H1135 C1158 0.931 . S
O1136 Eu1092 2.462 . S
O1136 C1156 1.252 . S
O1137 Eu1092 2.373 . S
O1137 C1148 1.249 . S
O1138 Eu1103 2.335 . S
O1138 C1148 1.264 . S
O1139 Eu1092 2.432 . S
O1139 C1156 1.268 . S
O1140 Eu1092 2.291 . S
O1140 C1155 1.255 . S
O1141 Eu1103 2.372 . S
O1141 C1155 1.257 . S
O1142 Eu1103 2.462 . S
O1142 C1167 1.252 . S
O1143 Eu1103 2.373 . S
O1143 C1159 1.249 . S
O1144 Eu1092 2.335 . S
O1144 C1159 1.264 . S
O1145 Eu1103 2.432 . S
O1145 C1167 1.268 . S
O1146 Eu1103 2.291 . S
O1146 C1166 1.255 . S
O1147 Eu1092 2.372 . S
O1147 C1166 1.257 . S
C1148 O1137 1.249 . S
C1148 O1138 1.264 . S
C1149 C1152 1.382 . S
C1149 C1154 1.390 . S
C1149 C1156 1.506 . S
C1150 C1151 1.398 . S
C1150 C1154 1.392 . S
C1151 C1150 1.398 . S
C1151 C1153 1.372 . S
C1151 H1168 0.931 . S
C1152 C1149 1.382 . S
C1152 C1153 1.390 . S
C1152 H1169 0.931 . S
C1153 C1151 1.372 . S
C1153 C1152 1.390 . S
C1153 H1170 0.929 . S
C1154 C1149 1.390 . S
C1154 C1150 1.392 . S
C1154 H1171 0.930 . S
C1155 O1140 1.255 . S
C1155 O1141 1.257 . S
C1156 Eu1092 2.787 . S
C1156 O1136 1.252 . S
C1156 O1139 1.268 . S
C1156 C1149 1.506 . S
C1157 C1124 1.439 . S
C1157 H1134 0.931 . S
C1157 C1158 1.374 . S
C1158 C1129 1.387 . S
C1158 H1135 0.931 . S
C1158 C1157 1.374 . S
C1159 O1143 1.249 . S
C1159 O1144 1.264 . S
C1160 C1163 1.382 . S
C1160 C1164 1.390 . S
C1160 C1167 1.506 . S
C1161 C1162 1.398 . S
C1161 C1164 1.392 . S
C1162 C1161 1.398 . S
C1162 C1165 1.372 . S
C1162 H1172 0.931 . S
C1163 C1160 1.382 . S
C1163 C1165 1.390 . S
C1163 H1173 0.931 . S
C1164 C1160 1.390 . S
C1164 C1161 1.392 . S
C1164 H1174 0.930 . S
C1165 C1162 1.372 . S
C1165 C1163 1.390 . S
C1165 H1175 0.929 . S
C1166 O1146 1.255 . S
C1166 O1147 1.257 . S
C1167 Eu1103 2.787 . S
C1167 O1142 1.252 . S
C1167 O1145 1.268 . S
C1167 C1160 1.506 . S
H1168 C1151 0.931 . S
H1169 C1152 0.931 . S
H1170 C1153 0.929 . S
H1171 C1154 0.930 . S
H1172 C1162 0.931 . S
H1173 C1163 0.931 . S
H1174 C1164 0.930 . S
H1175 C1165 0.929 . S
Eu1176 N1205 2.600 1_455 S
Eu1176 N1211 2.562 1_455 S
Eu1176 O1220 2.462 . S
Eu1176 O1221 2.373 1_455 S
Eu1176 O1223 2.432 . S
Eu1176 O1224 2.291 . S
Eu1176 O1228 2.335 . S
Eu1176 O1231 2.372 . S
Eu1176 C1240 2.787 . S
C1177 N1178 1.365 . S
C1177 C1180 1.405 . S
C1177 C1184 1.448 . S
N1178 C1177 1.365 . S
N1178 C1181 1.319 . S
N1178 Eu1187 2.600 . S
C1179 C1181 1.397 . S
C1179 C1182 1.367 . S
C1179 H1199 0.931 . S
C1180 C1177 1.405 . S
C1180 C1182 1.403 . S
C1180 C1186 1.439 . S
C1181 N1178 1.319 . S
C1181 C1179 1.397 . S
C1181 H1192 0.930 . S
C1182 C1179 1.367 . S
C1182 C1180 1.403 . S
C1182 H1203 0.929 . S
C1183 C1184 1.430 . S
C1183 C1185 1.387 . S
C1183 C1189 1.404 . S
C1184 C1177 1.448 . S
C1184 C1183 1.430 . S
C1184 N1188 1.351 . S
C1185 C1183 1.387 . S
C1185 C1186 1.374 . S
C1185 H1200 0.931 . S
C1186 C1180 1.439 . S
C1186 C1185 1.374 . S
C1186 H1201 0.931 . S
Eu1187 N1178 2.600 . S
Eu1187 N1188 2.562 . S
Eu1187 O1222 2.335 1_455 S
Eu1187 O1225 2.372 . S
Eu1187 O1226 2.462 . S
Eu1187 O1227 2.373 . S
Eu1187 O1229 2.432 . S
Eu1187 O1230 2.291 . S
Eu1187 C1251 2.787 . S
N1188 C1184 1.351 . S
N1188 Eu1187 2.562 . S
N1188 C1190 1.325 . S
C1189 C1183 1.404 . S
C1189 C1191 1.366 . S
C1189 H1197 0.930 . S
C1190 N1188 1.325 . S
C1190 C1191 1.416 . S
C1190 H1196 0.929 . S
C1191 C1189 1.366 . S
C1191 C1190 1.416 . S
C1191 H1193 0.930 . S
H1192 C1181 0.930 . S
H1193 C1191 0.930 . S
H1194 C1209 0.930 1_455 S
H1195 C1216 0.930 . S
H1196 C1190 0.929 . S
H1197 C1189 0.930 . S
H1198 C1212 0.940 . S
H1199 C1179 0.931 . S
H1200 C1185 0.931 . S
H1201 C1186 0.931 . S
H1202 C1207 0.931 . S
H1203 C1182 0.929 . S
H1204 C1215 0.930 . S
N1205 Eu1176 2.600 1_655 S
N1205 C1206 1.365 . S
N1205 C1209 1.319 . S
C1206 N1205 1.365 . S
C1206 C1208 1.405 . S
C1206 C1214 1.448 . S
C1207 H1202 0.931 . S
C1207 C1209 1.397 . S
C1207 C1210 1.367 . S
C1208 C1206 1.405 . S
C1208 C1210 1.403 . S
C1208 C1241 1.439 . S
C1209 H1194 0.930 1_655 S
C1209 N1205 1.319 . S
C1209 C1207 1.397 . S
C1210 C1207 1.367 . S
C1210 C1208 1.403 . S
C1210 H1217 0.929 . S
N1211 Eu1176 2.562 1_655 S
N1211 C1212 1.325 . S
N1211 C1214 1.351 . S
C1212 H1198 0.940 . S
C1212 N1211 1.325 . S
C1212 C1216 1.416 . S
C1213 C1214 1.430 . S
C1213 C1215 1.404 . S
C1213 C1242 1.387 . S
C1214 C1206 1.448 . S
C1214 N1211 1.351 . S
C1214 C1213 1.430 . S
C1215 H1204 0.930 . S
C1215 C1213 1.404 . S
C1215 C1216 1.366 . S
C1216 H1195 0.930 . S
C1216 C1212 1.416 . S
C1216 C1215 1.366 . S
H1217 C1210 0.929 . S
H1218 C1241 0.931 . S
H1219 C1242 0.931 . S
O1220 Eu1176 2.462 . S
O1220 C1240 1.252 . S
O1221 Eu1176 2.373 1_655 S
O1221 C1232 1.249 . S
O1222 Eu1187 2.335 1_655 S
O1222 C1232 1.264 . S
O1223 Eu1176 2.432 . S
O1223 C1240 1.268 . S
O1224 Eu1176 2.291 . S
O1224 C1239 1.255 . S
O1225 Eu1187 2.372 . S
O1225 C1239 1.257 . S
O1226 Eu1187 2.462 . S
O1226 C1251 1.252 . S
O1227 Eu1187 2.373 . S
O1227 C1243 1.249 . S
O1228 Eu1176 2.335 . S
O1228 C1243 1.264 . S
O1229 Eu1187 2.432 . S
O1229 C1251 1.268 . S
O1230 Eu1187 2.291 . S
O1230 C1250 1.255 . S
O1231 Eu1176 2.372 . S
O1231 C1250 1.257 . S
C1232 O1221 1.249 . S
C1232 O1222 1.264 . S
C1233 C1236 1.382 . S
C1233 C1238 1.390 . S
C1233 C1240 1.506 . S
C1234 C1235 1.398 . S
C1234 C1238 1.392 . S
C1235 C1234 1.398 . S
C1235 C1237 1.372 . S
C1235 H1252 0.931 . S
C1236 C1233 1.382 . S
C1236 C1237 1.390 . S
C1236 H1253 0.931 . S
C1237 C1235 1.372 . S
C1237 C1236 1.390 . S
C1237 H1254 0.929 . S
C1238 C1233 1.390 . S
C1238 C1234 1.392 . S
C1238 H1255 0.930 . S
C1239 O1224 1.255 . S
C1239 O1225 1.257 . S
C1240 Eu1176 2.787 . S
C1240 O1220 1.252 . S
C1240 O1223 1.268 . S
C1240 C1233 1.506 . S
C1241 C1208 1.439 . S
C1241 H1218 0.931 . S
C1241 C1242 1.374 . S
C1242 C1213 1.387 . S
C1242 H1219 0.931 . S
C1242 C1241 1.374 . S
C1243 O1227 1.249 . S
C1243 O1228 1.264 . S
C1244 C1247 1.382 . S
C1244 C1248 1.390 . S
C1244 C1251 1.506 1_655 S
C1245 C1246 1.398 . S
C1245 C1248 1.392 . S
C1246 C1245 1.398 . S
C1246 C1249 1.372 . S
C1246 H1256 0.931 . S
C1247 C1244 1.382 . S
C1247 C1249 1.390 . S
C1247 H1257 0.931 . S
C1248 C1244 1.390 . S
C1248 C1245 1.392 . S
C1248 H1258 0.930 . S
C1249 C1246 1.372 . S
C1249 C1247 1.390 . S
C1249 H1259 0.929 . S
C1250 O1230 1.255 . S
C1250 O1231 1.257 . S
C1251 Eu1187 2.787 . S
C1251 O1226 1.252 . S
C1251 O1229 1.268 . S
C1251 C1244 1.506 1_455 S
H1252 C1235 0.931 . S
H1253 C1236 0.931 . S
H1254 C1237 0.929 . S
H1255 C1238 0.930 . S
H1256 C1246 0.931 . S
H1257 C1247 0.931 . S
H1258 C1248 0.930 . S
H1259 C1249 0.929 . S
Eu1260 N1289 2.600 . S
Eu1260 N1295 2.562 . S
Eu1260 O1304 2.462 . S
Eu1260 O1305 2.373 . S
Eu1260 O1307 2.432 . S
Eu1260 O1308 2.291 . S
Eu1260 O1312 2.335 . S
Eu1260 O1315 2.372 . S
Eu1260 C1324 2.787 . S
C1261 N1262 1.365 . S
C1261 C1264 1.405 . S
C1261 C1268 1.448 . S
N1262 C1261 1.365 . S
N1262 C1265 1.319 . S
N1262 Eu1271 2.600 . S
C1263 C1265 1.397 . S
C1263 C1266 1.367 . S
C1263 H1283 0.931 . S
C1264 C1261 1.405 . S
C1264 C1266 1.403 . S
C1264 C1270 1.439 . S
C1265 N1262 1.319 . S
C1265 C1263 1.397 . S
C1265 H1276 0.930 . S
C1266 C1263 1.367 . S
C1266 C1264 1.403 . S
C1266 H1287 0.929 . S
C1267 C1268 1.430 . S
C1267 C1269 1.387 . S
C1267 C1273 1.404 . S
C1268 C1261 1.448 . S
C1268 C1267 1.430 . S
C1268 N1272 1.351 . S
C1269 C1267 1.387 . S
C1269 C1270 1.374 . S
C1269 H1284 0.931 . S
C1270 C1264 1.439 . S
C1270 C1269 1.374 . S
C1270 H1285 0.931 . S
Eu1271 N1262 2.600 . S
Eu1271 N1272 2.562 . S
Eu1271 O1306 2.335 . S
Eu1271 O1309 2.372 . S
Eu1271 O1310 2.462 . S
Eu1271 O1311 2.373 . S
Eu1271 O1313 2.432 . S
Eu1271 O1314 2.291 . S
Eu1271 C1335 2.787 . S
N1272 C1268 1.351 . S
N1272 Eu1271 2.562 . S
N1272 C1274 1.325 . S
C1273 C1267 1.404 . S
C1273 C1275 1.366 . S
C1273 H1281 0.930 . S
C1274 N1272 1.325 . S
C1274 C1275 1.416 . S
C1274 H1280 0.929 . S
C1275 C1273 1.366 . S
C1275 C1274 1.416 . S
C1275 H1277 0.930 . S
H1276 C1265 0.930 . S
H1277 C1275 0.930 . S
H1278 C1293 0.930 . S
H1279 C1300 0.930 . S
H1280 C1274 0.929 . S
H1281 C1273 0.930 . S
H1282 C1296 0.929 . S
H1283 C1263 0.931 . S
H1284 C1269 0.931 . S
H1285 C1270 0.931 . S
H1286 C1291 0.931 . S
H1287 C1266 0.929 . S
H1288 C1299 0.930 . S
N1289 Eu1260 2.600 . S
N1289 C1290 1.365 . S
N1289 C1293 1.319 . S
C1290 N1289 1.365 . S
C1290 C1292 1.405 . S
C1290 C1298 1.448 . S
C1291 H1286 0.931 . S
C1291 C1293 1.397 . S
C1291 C1294 1.367 . S
C1292 C1290 1.405 . S
C1292 C1294 1.403 . S
C1292 C1325 1.439 . S
C1293 H1278 0.930 . S
C1293 N1289 1.319 . S
C1293 C1291 1.397 . S
C1294 C1291 1.367 . S
C1294 C1292 1.403 . S
C1294 H1301 0.929 . S
N1295 Eu1260 2.562 . S
N1295 C1296 1.325 . S
N1295 C1298 1.351 . S
C1296 H1282 0.929 . S
C1296 N1295 1.325 . S
C1296 C1300 1.416 . S
C1297 C1298 1.430 . S
C1297 C1299 1.404 . S
C1297 C1326 1.387 . S
C1298 C1290 1.448 . S
C1298 N1295 1.351 . S
C1298 C1297 1.430 . S
C1299 H1288 0.930 . S
C1299 C1297 1.404 . S
C1299 C1300 1.366 . S
C1300 H1279 0.930 . S
C1300 C1296 1.416 . S
C1300 C1299 1.366 . S
H1301 C1294 0.929 . S
H1302 C1325 0.931 . S
H1303 C1326 0.931 . S
O1304 Eu1260 2.462 . S
O1304 C1324 1.252 . S
O1305 Eu1260 2.373 . S
O1305 C1316 1.249 . S
O1306 Eu1271 2.335 . S
O1306 C1316 1.264 . S
O1307 Eu1260 2.432 . S
O1307 C1324 1.268 . S
O1308 Eu1260 2.291 . S
O1308 C1323 1.255 . S
O1309 Eu1271 2.372 . S
O1309 C1323 1.257 . S
O1310 Eu1271 2.462 . S
O1310 C1335 1.252 . S
O1311 Eu1271 2.373 . S
O1311 C1327 1.249 . S
O1312 Eu1260 2.335 . S
O1312 C1327 1.264 . S
O1313 Eu1271 2.432 . S
O1313 C1335 1.268 . S
O1314 Eu1271 2.291 . S
O1314 C1334 1.255 . S
O1315 Eu1260 2.372 . S
O1315 C1334 1.257 . S
C1316 O1305 1.249 . S
C1316 O1306 1.264 . S
C1317 C1320 1.382 . S
C1317 C1322 1.390 . S
C1317 C1324 1.506 . S
C1318 C1319 1.398 . S
C1318 C1322 1.392 . S
C1319 C1318 1.398 . S
C1319 C1321 1.372 . S
C1319 H1336 0.931 . S
C1320 C1317 1.382 . S
C1320 C1321 1.390 . S
C1320 H1337 0.931 . S
C1321 C1319 1.372 . S
C1321 C1320 1.390 . S
C1321 H1338 0.929 . S
C1322 C1317 1.390 . S
C1322 C1318 1.392 . S
C1322 H1339 0.930 . S
C1323 O1308 1.255 . S
C1323 O1309 1.257 . S
C1324 Eu1260 2.787 . S
C1324 O1304 1.252 . S
C1324 O1307 1.268 . S
C1324 C1317 1.506 . S
C1325 C1292 1.439 . S
C1325 H1302 0.931 . S
C1325 C1326 1.374 . S
C1326 C1297 1.387 . S
C1326 H1303 0.931 . S
C1326 C1325 1.374 . S
C1327 O1311 1.249 . S
C1327 O1312 1.264 . S
C1328 C1331 1.382 . S
C1328 C1332 1.390 . S
C1328 C1335 1.506 . S
C1329 C1330 1.398 . S
C1329 C1332 1.392 . S
C1330 C1329 1.398 . S
C1330 C1333 1.372 . S
C1330 H1340 0.931 . S
C1331 C1328 1.382 . S
C1331 C1333 1.390 . S
C1331 H1341 0.931 . S
C1332 C1328 1.390 . S
C1332 C1329 1.392 . S
C1332 H1342 0.930 . S
C1333 C1330 1.372 . S
C1333 C1331 1.390 . S
C1333 H1343 0.929 . S
C1334 O1314 1.255 . S
C1334 O1315 1.257 . S
C1335 Eu1271 2.787 . S
C1335 O1310 1.252 . S
C1335 O1313 1.268 . S
C1335 C1328 1.506 . S
H1336 C1319 0.931 . S
H1337 C1320 0.931 . S
H1338 C1321 0.929 . S
H1339 C1322 0.930 . S
H1340 C1330 0.931 . S
H1341 C1331 0.931 . S
H1342 C1332 0.930 . S
H1343 C1333 0.929 . S
Eu1344 N1373 2.600 . S
Eu1344 N1379 2.562 . S
Eu1344 O1388 2.462 . S
Eu1344 O1389 2.373 . S
Eu1344 O1391 2.432 . S
Eu1344 O1392 2.291 . S
Eu1344 O1396 2.335 . S
Eu1344 O1399 2.372 . S
Eu1344 C1408 2.787 . S
C1345 N1346 1.365 . S
C1345 C1348 1.405 . S
C1345 C1352 1.448 . S
N1346 C1345 1.365 . S
N1346 C1349 1.319 . S
N1346 Eu1355 2.600 . S
C1347 C1349 1.397 . S
C1347 C1350 1.367 . S
C1347 H1367 0.931 . S
C1348 C1345 1.405 . S
C1348 C1350 1.403 . S
C1348 C1354 1.439 . S
C1349 N1346 1.319 . S
C1349 C1347 1.397 . S
C1349 H1360 0.930 . S
C1350 C1347 1.367 . S
C1350 C1348 1.403 . S
C1350 H1371 0.929 . S
C1351 C1352 1.430 . S
C1351 C1353 1.387 . S
C1351 C1357 1.404 . S
C1352 C1345 1.448 . S
C1352 C1351 1.430 . S
C1352 N1356 1.351 . S
C1353 C1351 1.387 . S
C1353 C1354 1.374 . S
C1353 H1368 0.931 . S
C1354 C1348 1.439 . S
C1354 C1353 1.374 . S
C1354 H1369 0.931 . S
Eu1355 N1346 2.600 . S
Eu1355 N1356 2.562 . S
Eu1355 O1390 2.335 . S
Eu1355 O1393 2.372 . S
Eu1355 O1394 2.462 . S
Eu1355 O1395 2.373 . S
Eu1355 O1397 2.432 . S
Eu1355 O1398 2.291 . S
Eu1355 C1419 2.787 . S
N1356 C1352 1.351 . S
N1356 Eu1355 2.562 . S
N1356 C1358 1.325 . S
C1357 C1351 1.404 . S
C1357 C1359 1.366 . S
C1357 H1365 0.930 . S
C1358 N1356 1.325 . S
C1358 C1359 1.416 . S
C1358 H1364 0.929 . S
C1359 C1357 1.366 . S
C1359 C1358 1.416 . S
C1359 H1361 0.930 . S
H1360 C1349 0.930 . S
H1361 C1359 0.930 . S
H1362 C1377 0.930 . S
H1363 C1384 0.930 . S
H1364 C1358 0.929 . S
H1365 C1357 0.930 . S
H1366 C1380 0.929 . S
H1367 C1347 0.931 . S
H1368 C1353 0.931 . S
H1369 C1354 0.931 . S
H1370 C1375 0.931 . S
H1371 C1350 0.929 . S
H1372 C1383 0.930 . S
N1373 Eu1344 2.600 . S
N1373 C1374 1.365 . S
N1373 C1377 1.319 . S
C1374 N1373 1.365 . S
C1374 C1376 1.405 . S
C1374 C1382 1.448 . S
C1375 H1370 0.931 . S
C1375 C1377 1.397 . S
C1375 C1378 1.367 . S
C1376 C1374 1.405 . S
C1376 C1378 1.403 . S
C1376 C1409 1.439 . S
C1377 H1362 0.930 . S
C1377 N1373 1.319 . S
C1377 C1375 1.397 . S
C1378 C1375 1.367 . S
C1378 C1376 1.403 . S
C1378 H1385 0.929 . S
N1379 Eu1344 2.562 . S
N1379 C1380 1.325 . S
N1379 C1382 1.351 . S
C1380 H1366 0.929 . S
C1380 N1379 1.325 . S
C1380 C1384 1.416 . S
C1381 C1382 1.430 . S
C1381 C1383 1.404 . S
C1381 C1410 1.387 . S
C1382 C1374 1.448 . S
C1382 N1379 1.351 . S
C1382 C1381 1.430 . S
C1383 H1372 0.930 . S
C1383 C1381 1.404 . S
C1383 C1384 1.366 . S
C1384 H1363 0.930 . S
C1384 C1380 1.416 . S
C1384 C1383 1.366 . S
H1385 C1378 0.929 . S
H1386 C1409 0.931 . S
H1387 C1410 0.931 . S
O1388 Eu1344 2.462 . S
O1388 C1408 1.252 . S
O1389 Eu1344 2.373 . S
O1389 C1400 1.249 . S
O1390 Eu1355 2.335 . S
O1390 C1400 1.264 . S
O1391 Eu1344 2.432 . S
O1391 C1408 1.268 . S
O1392 Eu1344 2.291 . S
O1392 C1407 1.255 . S
O1393 Eu1355 2.372 . S
O1393 C1407 1.257 . S
O1394 Eu1355 2.462 . S
O1394 C1419 1.252 . S
O1395 Eu1355 2.373 . S
O1395 C1411 1.249 . S
O1396 Eu1344 2.335 . S
O1396 C1411 1.264 . S
O1397 Eu1355 2.432 . S
O1397 C1419 1.268 . S
O1398 Eu1355 2.291 . S
O1398 C1418 1.255 . S
O1399 Eu1344 2.372 . S
O1399 C1418 1.257 . S
C1400 O1389 1.249 . S
C1400 O1390 1.264 . S
C1401 C1404 1.382 . S
C1401 C1406 1.390 . S
C1401 C1408 1.506 . S
C1402 C1403 1.398 . S
C1402 C1406 1.392 . S
C1403 C1402 1.398 . S
C1403 C1405 1.372 . S
C1403 H1420 0.931 . S
C1404 C1401 1.382 . S
C1404 C1405 1.390 . S
C1404 H1421 0.931 . S
C1405 C1403 1.372 . S
C1405 C1404 1.390 . S
C1405 H1422 0.929 . S
C1406 C1401 1.390 . S
C1406 C1402 1.392 . S
C1406 H1423 0.930 . S
C1407 O1392 1.255 . S
C1407 O1393 1.257 . S
C1408 Eu1344 2.787 . S
C1408 O1388 1.252 . S
C1408 O1391 1.268 . S
C1408 C1401 1.506 . S
C1409 C1376 1.439 . S
C1409 H1386 0.931 . S
C1409 C1410 1.374 . S
C1410 C1381 1.387 . S
C1410 H1387 0.931 . S
C1410 C1409 1.374 . S
C1411 O1395 1.249 . S
C1411 O1396 1.264 . S
C1412 C1415 1.382 . S
C1412 C1416 1.390 . S
C1412 C1419 1.506 . S
C1413 C1414 1.398 . S
C1413 C1416 1.392 . S
C1414 C1413 1.398 . S
C1414 C1417 1.372 . S
C1414 H1424 0.931 . S
C1415 C1412 1.382 . S
C1415 C1417 1.390 . S
C1415 H1425 0.931 . S
C1416 C1412 1.390 . S
C1416 C1413 1.392 . S
C1416 H1426 0.930 . S
C1417 C1414 1.372 . S
C1417 C1415 1.390 . S
C1417 H1427 0.929 . S
C1418 O1398 1.255 . S
C1418 O1399 1.257 . S
C1419 Eu1355 2.787 . S
C1419 O1394 1.252 . S
C1419 O1397 1.268 . S
C1419 C1412 1.506 . S
H1420 C1403 0.931 . S
H1421 C1404 0.931 . S
H1422 C1405 0.929 . S
H1423 C1406 0.930 . S
H1424 C1414 0.931 . S
H1425 C1415 0.931 . S
H1426 C1416 0.930 . S
H1427 C1417 0.929 . S
Eu1428 N1457 2.600 . S
Eu1428 N1463 2.562 . S
Eu1428 O1472 2.462 . S
Eu1428 O1473 2.373 . S
Eu1428 O1475 2.432 . S
Eu1428 O1476 2.291 . S
Eu1428 O1480 2.335 . S
Eu1428 O1483 2.372 . S
Eu1428 C1492 2.787 . S
C1429 N1430 1.365 . S
C1429 C1432 1.405 . S
C1429 C1436 1.448 . S
N1430 C1429 1.365 . S
N1430 C1433 1.319 . S
N1430 Eu1439 2.600 . S
C1431 C1433 1.397 . S
C1431 C1434 1.367 . S
C1431 H1451 0.931 . S
C1432 C1429 1.405 . S
C1432 C1434 1.403 . S
C1432 C1438 1.439 . S
C1433 N1430 1.319 . S
C1433 C1431 1.397 . S
C1433 H1444 0.930 . S
C1434 C1431 1.367 . S
C1434 C1432 1.403 . S
C1434 H1455 0.929 . S
C1435 C1436 1.430 . S
C1435 C1437 1.387 . S
C1435 C1441 1.404 . S
C1436 C1429 1.448 . S
C1436 C1435 1.430 . S
C1436 N1440 1.351 . S
C1437 C1435 1.387 . S
C1437 C1438 1.374 . S
C1437 H1452 0.931 . S
C1438 C1432 1.439 . S
C1438 C1437 1.374 . S
C1438 H1453 0.931 . S
Eu1439 N1430 2.600 . S
Eu1439 N1440 2.562 . S
Eu1439 O1474 2.335 . S
Eu1439 O1477 2.372 . S
Eu1439 O1478 2.462 . S
Eu1439 O1479 2.373 . S
Eu1439 O1481 2.432 . S
Eu1439 O1482 2.291 . S
Eu1439 C1503 2.787 . S
N1440 C1436 1.351 . S
N1440 Eu1439 2.562 . S
N1440 C1442 1.325 . S
C1441 C1435 1.404 . S
C1441 C1443 1.366 . S
C1441 H1449 0.930 . S
C1442 N1440 1.325 . S
C1442 C1443 1.416 . S
C1442 H1448 0.929 . S
C1443 C1441 1.366 . S
C1443 C1442 1.416 . S
C1443 H1445 0.930 . S
H1444 C1433 0.930 . S
H1445 C1443 0.930 . S
H1446 C1461 0.930 . S
H1447 C1468 0.930 . S
H1448 C1442 0.929 . S
H1449 C1441 0.930 . S
H1450 C1464 0.929 . S
H1451 C1431 0.931 . S
H1452 C1437 0.931 . S
H1453 C1438 0.931 . S
H1454 C1459 0.931 . S
H1455 C1434 0.929 . S
H1456 C1467 0.930 . S
N1457 Eu1428 2.600 . S
N1457 C1458 1.365 . S
N1457 C1461 1.319 . S
C1458 N1457 1.365 . S
C1458 C1460 1.405 . S
C1458 C1466 1.448 . S
C1459 H1454 0.931 . S
C1459 C1461 1.397 . S
C1459 C1462 1.367 . S
C1460 C1458 1.405 . S
C1460 C1462 1.403 . S
C1460 C1493 1.439 . S
C1461 H1446 0.930 . S
C1461 N1457 1.319 . S
C1461 C1459 1.397 . S
C1462 C1459 1.367 . S
C1462 C1460 1.403 . S
C1462 H1469 0.929 . S
N1463 Eu1428 2.562 . S
N1463 C1464 1.325 . S
N1463 C1466 1.351 . S
C1464 H1450 0.929 . S
C1464 N1463 1.325 . S
C1464 C1468 1.416 . S
C1465 C1466 1.430 . S
C1465 C1467 1.404 . S
C1465 C1494 1.387 . S
C1466 C1458 1.448 . S
C1466 N1463 1.351 . S
C1466 C1465 1.430 . S
C1467 H1456 0.930 . S
C1467 C1465 1.404 . S
C1467 C1468 1.366 . S
C1468 H1447 0.930 . S
C1468 C1464 1.416 . S
C1468 C1467 1.366 . S
H1469 C1462 0.929 . S
H1470 C1493 0.931 . S
H1471 C1494 0.931 . S
O1472 Eu1428 2.462 . S
O1472 C1492 1.252 . S
O1473 Eu1428 2.373 . S
O1473 C1484 1.249 . S
O1474 Eu1439 2.335 . S
O1474 C1484 1.264 . S
O1475 Eu1428 2.432 . S
O1475 C1492 1.268 . S
O1476 Eu1428 2.291 . S
O1476 C1491 1.255 . S
O1477 Eu1439 2.372 . S
O1477 C1491 1.257 . S
O1478 Eu1439 2.462 . S
O1478 C1503 1.252 . S
O1479 Eu1439 2.373 . S
O1479 C1495 1.249 . S
O1480 Eu1428 2.335 . S
O1480 C1495 1.264 . S
O1481 Eu1439 2.432 . S
O1481 C1503 1.268 . S
O1482 Eu1439 2.291 . S
O1482 C1502 1.255 . S
O1483 Eu1428 2.372 . S
O1483 C1502 1.257 . S
C1484 O1473 1.249 . S
C1484 O1474 1.264 . S
C1485 C1488 1.382 . S
C1485 C1490 1.390 . S
C1485 C1492 1.506 . S
C1486 C1487 1.398 . S
C1486 C1490 1.392 . S
C1487 C1486 1.398 . S
C1487 C1489 1.372 . S
C1487 H1504 0.931 . S
C1488 C1485 1.382 . S
C1488 C1489 1.390 . S
C1488 H1505 0.931 . S
C1489 C1487 1.372 . S
C1489 C1488 1.390 . S
C1489 H1506 0.929 . S
C1490 C1485 1.390 . S
C1490 C1486 1.392 . S
C1490 H1507 0.930 . S
C1491 O1476 1.255 . S
C1491 O1477 1.257 . S
C1492 Eu1428 2.787 . S
C1492 O1472 1.252 . S
C1492 O1475 1.268 . S
C1492 C1485 1.506 . S
C1493 C1460 1.439 . S
C1493 H1470 0.931 . S
C1493 C1494 1.374 . S
C1494 C1465 1.387 . S
C1494 H1471 0.931 . S
C1494 C1493 1.374 . S
C1495 O1479 1.249 . S
C1495 O1480 1.264 . S
C1496 C1499 1.382 . S
C1496 C1500 1.390 . S
C1496 C1503 1.506 . S
C1497 C1498 1.398 . S
C1497 C1500 1.392 . S
C1498 C1497 1.398 . S
C1498 C1501 1.372 . S
C1498 H1508 0.931 . S
C1499 C1496 1.382 . S
C1499 C1501 1.390 . S
C1499 H1509 0.931 . S
C1500 C1496 1.390 . S
C1500 C1497 1.392 . S
C1500 H1510 0.930 . S
C1501 C1498 1.372 . S
C1501 C1499 1.390 . S
C1501 H1511 0.929 . S
C1502 O1482 1.255 . S
C1502 O1483 1.257 . S
C1503 Eu1439 2.787 . S
C1503 O1478 1.252 . S
C1503 O1481 1.268 . S
C1503 C1496 1.506 . S
H1504 C1487 0.931 . S
H1505 C1488 0.931 . S
H1506 C1489 0.929 . S
H1507 C1490 0.930 . S
H1508 C1498 0.931 . S
H1509 C1499 0.931 . S
H1510 C1500 0.930 . S
H1511 C1501 0.929 . S
Eu1512 N1541 2.600 . S
Eu1512 N1547 2.562 . S
Eu1512 O1556 2.462 . S
Eu1512 O1557 2.373 . S
Eu1512 O1559 2.432 . S
Eu1512 O1560 2.291 . S
Eu1512 O1564 2.335 . S
Eu1512 O1567 2.372 . S
Eu1512 C1576 2.787 . S
C1513 N1514 1.365 . S
C1513 C1516 1.405 . S
C1513 C1520 1.448 . S
N1514 C1513 1.365 . S
N1514 C1517 1.319 . S
N1514 Eu1523 2.600 . S
C1515 C1517 1.397 . S
C1515 C1518 1.367 . S
C1515 H1535 0.931 . S
C1516 C1513 1.405 . S
C1516 C1518 1.403 . S
C1516 C1522 1.439 . S
C1517 N1514 1.319 . S
C1517 C1515 1.397 . S
C1517 H1528 0.930 . S
C1518 C1515 1.367 . S
C1518 C1516 1.403 . S
C1518 H1539 0.929 . S
C1519 C1520 1.430 . S
C1519 C1521 1.387 . S
C1519 C1525 1.404 . S
C1520 C1513 1.448 . S
C1520 C1519 1.430 . S
C1520 N1524 1.351 . S
C1521 C1519 1.387 . S
C1521 C1522 1.374 . S
C1521 H1536 0.931 . S
C1522 C1516 1.439 . S
C1522 C1521 1.374 . S
C1522 H1537 0.931 . S
Eu1523 N1514 2.600 . S
Eu1523 N1524 2.562 . S
Eu1523 O1558 2.335 . S
Eu1523 O1561 2.372 . S
Eu1523 O1562 2.462 . S
Eu1523 O1563 2.373 . S
Eu1523 O1565 2.432 . S
Eu1523 O1566 2.291 . S
Eu1523 C1587 2.787 . S
N1524 C1520 1.351 . S
N1524 Eu1523 2.562 . S
N1524 C1526 1.325 . S
C1525 C1519 1.404 . S
C1525 C1527 1.366 . S
C1525 H1533 0.930 . S
C1526 N1524 1.325 . S
C1526 C1527 1.416 . S
C1526 H1532 0.929 . S
C1527 C1525 1.366 . S
C1527 C1526 1.416 . S
C1527 H1529 0.930 . S
H1528 C1517 0.930 . S
H1529 C1527 0.930 . S
H1530 C1545 0.930 . S
H1531 C1552 0.930 . S
H1532 C1526 0.929 . S
H1533 C1525 0.930 . S
H1534 C1548 0.929 . S
H1535 C1515 0.931 . S
H1536 C1521 0.931 . S
H1537 C1522 0.931 . S
H1538 C1543 0.931 . S
H1539 C1518 0.929 . S
H1540 C1551 0.930 . S
N1541 Eu1512 2.600 . S
N1541 C1542 1.365 . S
N1541 C1545 1.319 . S
C1542 N1541 1.365 . S
C1542 C1544 1.405 . S
C1542 C1550 1.448 . S
C1543 H1538 0.931 . S
C1543 C1545 1.397 . S
C1543 C1546 1.367 . S
C1544 C1542 1.405 . S
C1544 C1546 1.403 . S
C1544 C1577 1.439 . S
C1545 H1530 0.930 . S
C1545 N1541 1.319 . S
C1545 C1543 1.397 . S
C1546 C1543 1.367 . S
C1546 C1544 1.403 . S
C1546 H1553 0.929 . S
N1547 Eu1512 2.562 . S
N1547 C1548 1.325 . S
N1547 C1550 1.351 . S
C1548 H1534 0.929 . S
C1548 N1547 1.325 . S
C1548 C1552 1.416 . S
C1549 C1550 1.430 . S
C1549 C1551 1.404 . S
C1549 C1578 1.387 . S
C1550 C1542 1.448 . S
C1550 N1547 1.351 . S
C1550 C1549 1.430 . S
C1551 H1540 0.930 . S
C1551 C1549 1.404 . S
C1551 C1552 1.366 . S
C1552 H1531 0.930 . S
C1552 C1548 1.416 . S
C1552 C1551 1.366 . S
H1553 C1546 0.929 . S
H1554 C1577 0.931 . S
H1555 C1578 0.931 . S
O1556 Eu1512 2.462 . S
O1556 C1576 1.252 . S
O1557 Eu1512 2.373 . S
O1557 C1568 1.249 . S
O1558 Eu1523 2.335 . S
O1558 C1568 1.264 . S
O1559 Eu1512 2.432 . S
O1559 C1576 1.268 . S
O1560 Eu1512 2.291 . S
O1560 C1575 1.255 . S
O1561 Eu1523 2.372 . S
O1561 C1575 1.257 . S
O1562 Eu1523 2.462 . S
O1562 C1587 1.252 . S
O1563 Eu1523 2.373 . S
O1563 C1579 1.249 . S
O1564 Eu1512 2.335 . S
O1564 C1579 1.264 . S
O1565 Eu1523 2.432 . S
O1565 C1587 1.268 . S
O1566 Eu1523 2.291 . S
O1566 C1586 1.255 . S
O1567 Eu1512 2.372 . S
O1567 C1586 1.257 . S
C1568 O1557 1.249 . S
C1568 O1558 1.264 . S
C1569 C1572 1.382 . S
C1569 C1574 1.390 . S
C1569 C1576 1.506 . S
C1570 C1571 1.398 . S
C1570 C1574 1.392 . S
C1571 C1570 1.398 . S
C1571 C1573 1.372 . S
C1571 H1588 0.931 . S
C1572 C1569 1.382 . S
C1572 C1573 1.390 . S
C1572 H1589 0.931 . S
C1573 C1571 1.372 . S
C1573 C1572 1.390 . S
C1573 H1590 0.929 . S
C1574 C1569 1.390 . S
C1574 C1570 1.392 . S
C1574 H1591 0.930 . S
C1575 O1560 1.255 . S
C1575 O1561 1.257 . S
C1576 Eu1512 2.787 . S
C1576 O1556 1.252 . S
C1576 O1559 1.268 . S
C1576 C1569 1.506 . S
C1577 C1544 1.439 . S
C1577 H1554 0.931 . S
C1577 C1578 1.374 . S
C1578 C1549 1.387 . S
C1578 H1555 0.931 . S
C1578 C1577 1.374 . S
C1579 O1563 1.249 . S
C1579 O1564 1.264 . S
C1580 C1583 1.382 . S
C1580 C1584 1.390 . S
C1580 C1587 1.506 . S
C1581 C1582 1.398 . S
C1581 C1584 1.392 . S
C1582 C1581 1.398 . S
C1582 C1585 1.372 . S
C1582 H1592 0.931 . S
C1583 C1580 1.382 . S
C1583 C1585 1.390 . S
C1583 H1593 0.931 . S
C1584 C1580 1.390 . S
C1584 C1581 1.392 . S
C1584 H1594 0.930 . S
C1585 C1582 1.372 . S
C1585 C1583 1.390 . S
C1585 H1595 0.929 . S
C1586 O1566 1.255 . S
C1586 O1567 1.257 . S
C1587 Eu1523 2.787 . S
C1587 O1562 1.252 . S
C1587 O1565 1.268 . S
C1587 C1580 1.506 . S
H1588 C1571 0.931 . S
H1589 C1572 0.931 . S
H1590 C1573 0.929 . S
H1591 C1574 0.930 . S
H1592 C1582 0.931 . S
H1593 C1583 0.931 . S
H1594 C1584 0.930 . S
H1595 C1585 0.929 . S
Eu1596 N1625 2.594 1_455 S
Eu1596 N1631 2.547 1_455 S
Eu1596 O1640 2.441 1_455 S
Eu1596 O1641 2.386 . S
Eu1596 O1643 2.415 1_455 S
Eu1596 O1644 2.296 . S
Eu1596 O1648 2.341 . S
Eu1596 O1651 2.388 . S
Eu1596 C1660 2.766 1_455 S
C1597 N1598 1.365 . S
C1597 C1600 1.405 . S
C1597 C1604 1.448 . S
N1598 C1597 1.365 . S
N1598 C1601 1.319 1_554 S
N1598 Eu1607 2.600 . S
C1599 C1601 1.397 . S
C1599 C1602 1.367 . S
C1599 H1619 0.931 . S
C1600 C1597 1.405 . S
C1600 C1602 1.403 1_554 S
C1600 C1606 1.439 . S
C1601 N1598 1.319 1_556 S
C1601 C1599 1.397 . S
C1601 H1612 0.930 . S
C1602 C1599 1.367 . S
C1602 C1600 1.403 1_556 S
C1602 H1623 0.929 . S
C1603 C1604 1.430 . S
C1603 C1605 1.387 . S
C1603 C1609 1.404 . S
C1604 C1597 1.448 . S
C1604 C1603 1.430 . S
C1604 N1608 1.351 . S
C1605 C1603 1.387 . S
C1605 C1606 1.374 . S
C1605 H1620 0.931 . S
C1606 C1600 1.439 . S
C1606 C1605 1.374 . S
C1606 H1621 0.931 . S
Eu1607 N1598 2.600 . S
Eu1607 N1608 2.562 . S
Eu1607 O1642 2.335 . S
Eu1607 O1645 2.372 . S
Eu1607 O1646 2.462 . S
Eu1607 O1647 2.373 . S
Eu1607 O1649 2.432 . S
Eu1607 O1650 2.291 . S
Eu1607 C1671 2.787 . S
N1608 C1604 1.351 . S
N1608 Eu1607 2.562 . S
N1608 C1610 1.325 . S
C1609 C1603 1.404 . S
C1609 C1611 1.366 . S
C1609 H1617 0.930 . S
C1610 N1608 1.325 . S
C1610 C1611 1.416 . S
C1610 H1616 0.929 . S
C1611 C1609 1.366 . S
C1611 C1610 1.416 . S
C1611 H1613 0.930 . S
H1612 C1601 0.930 . S
H1613 C1611 0.930 . S
H1614 C1629 0.930 1_455 S
H1615 C1636 0.930 . S
H1616 C1610 0.929 . S
H1617 C1609 0.930 . S
H1618 C1632 0.929 . S
H1619 C1599 0.931 . S
H1620 C1605 0.931 . S
H1621 C1606 0.931 . S
H1622 C1627 0.925 1_455 S
H1623 C1602 0.929 . S
H1624 C1635 0.930 . S
N1625 Eu1596 2.594 1_655 S
N1625 C1626 1.365 . S
N1625 C1629 1.319 . S
C1626 N1625 1.365 . S
C1626 C1628 1.405 . S
C1626 C1634 1.448 . S
C1627 H1622 0.925 1_655 S
C1627 C1629 1.397 . S
C1627 C1630 1.367 . S
C1628 C1626 1.405 . S
C1628 C1630 1.403 . S
C1628 C1661 1.439 . S
C1629 H1614 0.930 1_655 S
C1629 N1625 1.319 . S
C1629 C1627 1.397 . S
C1630 C1627 1.367 . S
C1630 C1628 1.403 . S
C1630 H1637 0.929 . S
N1631 Eu1596 2.547 1_655 S
N1631 C1632 1.325 . S
N1631 C1634 1.351 . S
C1632 H1618 0.929 . S
C1632 N1631 1.325 . S
C1632 C1636 1.416 . S
C1633 C1634 1.430 . S
C1633 C1635 1.404 . S
C1633 C1662 1.387 . S
C1634 C1626 1.448 . S
C1634 N1631 1.351 . S
C1634 C1633 1.430 . S
C1635 H1624 0.930 . S
C1635 C1633 1.404 . S
C1635 C1636 1.366 . S
C1636 H1615 0.930 . S
C1636 C1632 1.416 . S
C1636 C1635 1.366 . S
H1637 C1630 0.929 . S
H1638 C1661 0.931 . S
H1639 C1662 0.931 . S
O1640 Eu1596 2.441 1_655 S
O1640 C1660 1.252 . S
O1641 Eu1596 2.386 . S
O1641 C1652 1.249 . S
O1642 Eu1607 2.335 . S
O1642 C1652 1.264 . S
O1643 Eu1596 2.415 1_655 S
O1643 C1660 1.268 . S
O1644 Eu1596 2.296 . S
O1644 C1659 1.255 . S
O1645 Eu1607 2.372 . S
O1645 C1659 1.257 . S
O1646 Eu1607 2.462 . S
O1646 C1671 1.252 . S
O1647 Eu1607 2.373 . S
O1647 C1663 1.249 . S
O1648 Eu1596 2.341 . S
O1648 C1663 1.264 . S
O1649 Eu1607 2.432 . S
O1649 C1671 1.268 . S
O1650 Eu1607 2.291 . S
O1650 C1670 1.255 . S
O1651 Eu1596 2.388 . S
O1651 C1670 1.257 . S
C1652 O1641 1.249 . S
C1652 O1642 1.264 . S
C1653 C1656 1.382 . S
C1653 C1658 1.390 . S
C1653 C1660 1.506 . S
C1654 C1655 1.398 . S
C1654 C1658 1.392 . S
C1655 C1654 1.398 . S
C1655 C1657 1.372 . S
C1655 H1672 0.931 . S
C1656 C1653 1.382 . S
C1656 C1657 1.390 . S
C1656 H1673 0.931 . S
C1657 C1655 1.372 . S
C1657 C1656 1.390 . S
C1657 H1674 0.929 . S
C1658 C1653 1.390 . S
C1658 C1654 1.392 . S
C1658 H1675 0.930 . S
C1659 O1644 1.255 . S
C1659 O1645 1.257 . S
C1660 Eu1596 2.766 1_655 S
C1660 O1640 1.252 . S
C1660 O1643 1.268 . S
C1660 C1653 1.506 . S
C1661 C1628 1.439 . S
C1661 H1638 0.931 . S
C1661 C1662 1.374 . S
C1662 C1633 1.387 . S
C1662 H1639 0.931 . S
C1662 C1661 1.374 . S
C1663 O1647 1.249 . S
C1663 O1648 1.264 . S
C1664 C1667 1.382 . S
C1664 C1668 1.390 . S
C1664 C1671 1.506 . S
C1665 C1666 1.398 . S
C1665 C1668 1.392 . S
C1666 C1665 1.398 . S
C1666 C1669 1.372 . S
C1666 H1676 0.931 . S
C1667 C1664 1.382 . S
C1667 C1669 1.390 . S
C1667 H1677 0.931 1_554 S
C1668 C1664 1.390 . S
C1668 C1665 1.392 . S
C1668 H1678 0.930 . S
C1669 C1666 1.372 . S
C1669 C1667 1.390 . S
C1669 H1679 0.929 1_554 S
C1670 O1650 1.255 . S
C1670 O1651 1.257 . S
C1671 Eu1607 2.787 . S
C1671 O1646 1.252 . S
C1671 O1649 1.268 . S
C1671 C1664 1.506 . S
H1672 C1655 0.931 . S
H1673 C1656 0.931 . S
H1674 C1657 0.929 . S
H1675 C1658 0.930 . S
H1676 C1666 0.931 . S
H1677 C1667 0.931 1_556 S
H1678 C1668 0.930 . S
H1679 C1669 0.929 1_556 S
H1680 C1686 0.930 . S
H1681 C1690 0.930 . S
H1682 C1695 0.929 1_554 S
H1683 C1693 0.929 . S
H1684 C1688 0.929 1_655 S
H1685 C1694 0.929 . S
C1686 H1680 0.930 . S
C1686 C1687 1.367 1_455 S
C1686 C1694 1.378 . S
C1687 C1686 1.367 1_655 S
C1687 C1695 1.433 . S
C1688 H1684 0.929 1_455 S
C1688 C1690 1.378 . S
C1688 C1692 1.350 . S
C1689 C1692 1.463 1_556 S
C1689 C1694 1.350 . S
C1689 N1697 1.427 1_456 S
C1690 H1681 0.930 . S
C1690 C1688 1.378 . S
C1690 C1691 1.367 . S
C1691 C1690 1.367 . S
C1691 C1693 1.433 . S
C1692 C1688 1.350 . S
C1692 C1689 1.463 1_554 S
C1692 N1696 1.418 1_554 S
C1693 H1683 0.929 . S
C1693 C1691 1.433 . S
C1693 N1696 1.373 1_554 S
C1694 H1685 0.929 . S
C1694 C1686 1.378 . S
C1694 C1689 1.350 . S
C1695 H1682 0.929 1_556 S
C1695 C1687 1.433 . S
C1695 N1697 1.384 1_556 S
N1696 C1692 1.418 1_556 S
N1696 C1693 1.373 1_556 S
N1697 C1689 1.427 1_654 S
N1697 C1695 1.384 1_554 S
H1698 C1704 0.930 . S
H1699 C1708 0.930 . S
H1700 C1713 0.929 . S
H1701 C1711 0.929 . S
H1702 C1706 0.929 . S
H1703 C1712 0.929 . S
C1704 H1698 0.930 . S
C1704 C1705 1.367 . S
C1704 C1712 1.378 . S
C1705 C1704 1.367 . S
C1705 C1713 1.433 . S
C1706 H1702 0.929 . S
C1706 C1708 1.378 . S
C1706 C1710 1.350 . S
C1707 C1710 1.463 . S
C1707 C1712 1.350 . S
C1707 N1715 1.427 . S
C1708 H1699 0.930 . S
C1708 C1706 1.378 . S
C1708 C1709 1.367 . S
C1709 C1708 1.367 . S
C1709 C1711 1.433 . S
C1710 C1706 1.350 . S
C1710 C1707 1.463 . S
C1710 N1714 1.427 . S
C1711 H1701 0.929 . S
C1711 C1709 1.433 . S
C1711 N1714 1.384 . S
C1712 H1703 0.929 . S
C1712 C1704 1.378 . S
C1712 C1707 1.350 . S
C1713 H1700 0.929 . S
C1713 C1705 1.433 . S
C1713 N1715 1.384 . S
N1714 C1710 1.427 . S
N1714 C1711 1.384 . S
N1715 C1707 1.427 . S
N1715 C1713 1.384 . S
H1716 C1722 0.930 . S
H1717 C1726 0.930 . S
H1718 C1731 0.929 . S
H1719 C1729 0.929 . S
H1720 C1724 0.929 . S
H1721 C1730 0.929 . S
C1722 H1716 0.930 . S
C1722 C1723 1.367 . S
C1722 C1730 1.378 . S
C1723 C1722 1.367 . S
C1723 C1731 1.433 . S
C1724 H1720 0.929 . S
C1724 C1726 1.378 . S
C1724 C1728 1.350 . S
C1725 C1728 1.463 . S
C1725 C1730 1.350 . S
C1725 N1733 1.427 . S
C1726 H1717 0.930 . S
C1726 C1724 1.378 . S
C1726 C1727 1.367 . S
C1727 C1726 1.367 . S
C1727 C1729 1.433 . S
C1728 C1724 1.350 . S
C1728 C1725 1.463 . S
C1728 N1732 1.427 . S
C1729 H1719 0.929 . S
C1729 C1727 1.433 . S
C1729 N1732 1.384 . S
C1730 H1721 0.929 . S
C1730 C1722 1.378 . S
C1730 C1725 1.350 . S
C1731 H1718 0.929 . S
C1731 C1723 1.433 . S
C1731 N1733 1.384 . S
N1732 C1728 1.427 . S
N1732 C1729 1.384 . S
N1733 C1725 1.427 . S
N1733 C1731 1.384 . S
H1734 C1740 0.930 . S
H1735 C1744 0.930 . S
H1736 C1749 0.929 . S
H1737 C1747 0.929 . S
H1738 C1742 0.929 . S
H1739 C1748 0.929 . S
C1740 H1734 0.930 . S
C1740 C1741 1.367 . S
C1740 C1748 1.378 . S
C1741 C1740 1.367 . S
C1741 C1749 1.433 . S
C1742 H1738 0.929 . S
C1742 C1744 1.378 . S
C1742 C1746 1.350 . S
C1743 C1746 1.463 . S
C1743 C1748 1.350 . S
C1743 N1751 1.427 . S
C1744 H1735 0.930 . S
C1744 C1742 1.378 . S
C1744 C1745 1.367 . S
C1745 C1744 1.367 . S
C1745 C1747 1.433 . S
C1746 C1742 1.350 . S
C1746 C1743 1.463 . S
C1746 N1750 1.427 . S
C1747 H1737 0.929 . S
C1747 C1745 1.433 . S
C1747 N1750 1.384 . S
C1748 H1739 0.929 . S
C1748 C1740 1.378 . S
C1748 C1743 1.350 . S
C1749 H1736 0.929 . S
C1749 C1741 1.433 . S
C1749 N1751 1.384 . S
N1750 C1746 1.427 . S
N1750 C1747 1.384 . S
N1751 C1743 1.427 . S
N1751 C1749 1.384 . S
H1752 C1758 0.930 . S
H1753 C1762 0.935 1_655 S
H1754 C1767 0.929 1_655 S
H1755 C1765 0.929 . S
H1756 C1760 0.929 1_655 S
H1757 C1766 0.929 . S
C1758 H1752 0.930 . S
C1758 C1759 1.367 . S
C1758 C1766 1.378 . S
C1759 C1758 1.367 . S
C1759 C1767 1.433 . S
C1760 H1756 0.929 1_455 S
C1760 C1762 1.378 . S
C1760 C1764 1.350 . S
C1761 C1764 1.463 . S
C1761 C1766 1.350 . S
C1761 N1769 1.427 . S
C1762 H1753 0.935 1_455 S
C1762 C1760 1.378 . S
C1762 C1763 1.367 . S
C1763 C1762 1.367 . S
C1763 C1765 1.433 . S
C1764 C1760 1.350 . S
C1764 C1761 1.463 . S
C1764 N1768 1.427 . S
C1765 H1755 0.929 . S
C1765 C1763 1.433 . S
C1765 N1768 1.384 . S
C1766 H1757 0.929 . S
C1766 C1758 1.378 . S
C1766 C1761 1.350 . S
C1767 H1754 0.929 1_455 S
C1767 C1759 1.433 . S
C1767 N1769 1.384 . S
N1768 C1764 1.427 . S
N1768 C1765 1.384 . S
N1769 C1761 1.427 . S
N1769 C1767 1.384 . S
H1770 C1776 0.930 . S
H1771 C1780 0.930 . S
H1772 C1785 0.929 . S
H1773 C1783 0.929 . S
H1774 C1778 0.929 . S
H1775 C1784 0.929 . S
C1776 H1770 0.930 . S
C1776 C1777 1.367 . S
C1776 C1784 1.378 . S
C1777 C1776 1.367 . S
C1777 C1785 1.433 . S
C1778 H1774 0.929 . S
C1778 C1780 1.378 . S
C1778 C1782 1.350 . S
C1779 C1782 1.463 . S
C1779 C1784 1.350 . S
C1779 N1787 1.427 . S
C1780 H1771 0.930 . S
C1780 C1778 1.378 . S
C1780 C1781 1.367 . S
C1781 C1780 1.367 . S
C1781 C1783 1.433 . S
C1782 C1778 1.350 . S
C1782 C1779 1.463 . S
C1782 N1786 1.427 . S
C1783 H1773 0.929 . S
C1783 C1781 1.433 . S
C1783 N1786 1.384 . S
C1784 H1775 0.929 . S
C1784 C1776 1.378 . S
C1784 C1779 1.350 . S
C1785 H1772 0.929 . S
C1785 C1777 1.433 . S
C1785 N1787 1.384 . S
N1786 C1782 1.427 . S
N1786 C1783 1.384 . S
N1787 C1779 1.427 . S
N1787 C1785 1.384 . S
H1788 C1794 0.930 . S
H1789 C1798 0.930 . S
H1790 C1803 0.929 . S
H1791 C1801 0.929 . S
H1792 C1796 0.929 . S
H1793 C1802 0.929 . S
C1794 H1788 0.930 . S
C1794 C1795 1.367 . S
C1794 C1802 1.378 . S
C1795 C1794 1.367 . S
C1795 C1803 1.433 . S
C1796 H1792 0.929 . S
C1796 C1798 1.378 . S
C1796 C1800 1.350 . S
C1797 C1800 1.463 . S
C1797 C1802 1.350 . S
C1797 N1805 1.427 . S
C1798 H1789 0.930 . S
C1798 C1796 1.378 . S
C1798 C1799 1.367 . S
C1799 C1798 1.367 . S
C1799 C1801 1.433 . S
C1800 C1796 1.350 . S
C1800 C1797 1.463 . S
C1800 N1804 1.427 . S
C1801 H1791 0.929 . S
C1801 C1799 1.433 . S
C1801 N1804 1.384 . S
C1802 H1793 0.929 . S
C1802 C1794 1.378 . S
C1802 C1797 1.350 . S
C1803 H1790 0.929 . S
C1803 C1795 1.433 . S
C1803 N1805 1.384 . S
N1804 C1800 1.427 . S
N1804 C1801 1.384 . S
N1805 C1797 1.427 . S
N1805 C1803 1.384 . S
H1806 C1812 0.930 . S
H1807 C1816 0.930 . S
H1808 C1821 0.929 . S
H1809 C1819 0.929 . S
H1810 C1814 0.929 . S
H1811 C1820 0.929 . S
C1812 H1806 0.930 . S
C1812 C1813 1.367 . S
C1812 C1820 1.378 . S
C1813 C1812 1.367 . S
C1813 C1821 1.433 . S
C1814 H1810 0.929 . S
C1814 C1816 1.378 . S
C1814 C1818 1.350 . S
C1815 C1818 1.463 . S
C1815 C1820 1.350 . S
C1815 N1823 1.427 . S
C1816 H1807 0.930 . S
C1816 C1814 1.378 . S
C1816 C1817 1.367 . S
C1817 C1816 1.367 . S
C1817 C1819 1.433 . S
C1818 C1814 1.350 . S
C1818 C1815 1.463 . S
C1818 N1822 1.427 . S
C1819 H1809 0.929 . S
C1819 C1817 1.433 . S
C1819 N1822 1.384 . S
C1820 H1811 0.929 . S
C1820 C1812 1.378 . S
C1820 C1815 1.350 . S
C1821 H1808 0.929 . S
C1821 C1813 1.433 . S
C1821 N1823 1.384 . S
N1822 C1818 1.427 . S
N1822 C1819 1.384 . S
N1823 C1815 1.427 . S
N1823 C1821 1.384 . S
H1824 C1830 0.930 1_565 S
H1825 C1834 0.930 . S
H1826 C1839 0.929 . S
H1827 C1837 0.929 . S
H1828 C1832 0.929 . S
H1829 C1838 0.929 . S
C1830 H1824 0.930 1_545 S
C1830 C1831 1.367 . S
C1830 C1838 1.378 . S
C1831 C1830 1.367 . S
C1831 C1839 1.433 . S
C1832 H1828 0.929 . S
C1832 C1834 1.378 . S
C1832 C1836 1.350 1_455 S
C1833 C1836 1.463 . S
C1833 C1838 1.350 . S
C1833 N1841 1.427 . S
C1834 H1825 0.930 . S
C1834 C1832 1.378 . S
C1834 C1835 1.367 . S
C1835 C1834 1.367 . S
C1835 C1837 1.433 1_455 S
C1836 C1832 1.350 1_655 S
C1836 C1833 1.463 . S
C1836 N1840 1.427 . S
C1837 H1827 0.929 . S
C1837 C1835 1.433 1_655 S
C1837 N1840 1.384 . S
C1838 H1829 0.929 . S
C1838 C1830 1.378 . S
C1838 C1833 1.350 . S
C1839 H1826 0.929 . S
C1839 C1831 1.433 . S
C1839 N1841 1.384 . S
N1840 C1836 1.427 . S
N1840 C1837 1.384 . S
N1841 C1833 1.427 . S
N1841 C1839 1.384 . S
H1842 C1848 0.930 . S
H1843 C1852 0.930 . S
H1844 C1857 0.929 . S
H1845 C1855 0.929 . S
H1846 C1850 0.929 . S
H1847 C1856 0.929 . S
C1848 H1842 0.930 . S
C1848 C1849 1.367 . S
C1848 C1856 1.378 . S
C1849 C1848 1.367 . S
C1849 C1857 1.433 . S
C1850 H1846 0.929 . S
C1850 C1852 1.378 . S
C1850 C1854 1.350 . S
C1851 C1854 1.463 . S
C1851 C1856 1.350 . S
C1851 N1859 1.427 . S
C1852 H1843 0.930 . S
C1852 C1850 1.378 . S
C1852 C1853 1.367 . S
C1853 C1852 1.367 . S
C1853 C1855 1.433 . S
C1854 C1850 1.350 . S
C1854 C1851 1.463 . S
C1854 N1858 1.427 . S
C1855 H1845 0.929 . S
C1855 C1853 1.433 . S
C1855 N1858 1.384 . S
C1856 H1847 0.929 . S
C1856 C1848 1.378 . S
C1856 C1851 1.350 . S
C1857 H1844 0.929 . S
C1857 C1849 1.433 . S
C1857 N1859 1.384 . S
N1858 C1854 1.427 . S
N1858 C1855 1.384 . S
N1859 C1851 1.427 . S
N1859 C1857 1.384 . S
H1860 C1866 0.930 . S
H1861 C1870 0.930 . S
H1862 C1875 0.929 . S
H1863 C1873 0.929 . S
H1864 C1868 0.929 . S
H1865 C1874 0.929 . S
C1866 H1860 0.930 . S
C1866 C1867 1.367 . S
C1866 C1874 1.378 . S
C1867 C1866 1.367 . S
C1867 C1875 1.433 . S
C1868 H1864 0.929 . S
C1868 C1870 1.378 . S
C1868 C1872 1.350 . S
C1869 C1872 1.463 . S
C1869 C1874 1.350 . S
C1869 N1877 1.427 . S
C1870 H1861 0.930 . S
C1870 C1868 1.378 . S
C1870 C1871 1.367 . S
C1871 C1870 1.367 . S
C1871 C1873 1.433 . S
C1872 C1868 1.350 . S
C1872 C1869 1.463 . S
C1872 N1876 1.427 . S
C1873 H1863 0.929 . S
C1873 C1871 1.433 . S
C1873 N1876 1.384 . S
C1874 H1865 0.929 . S
C1874 C1866 1.378 . S
C1874 C1869 1.350 . S
C1875 H1862 0.929 . S
C1875 C1867 1.433 . S
C1875 N1877 1.384 . S
N1876 C1872 1.427 . S
N1876 C1873 1.384 . S
N1877 C1869 1.427 . S
N1877 C1875 1.384 . S
H1878 C1884 0.930 . S
H1879 C1888 0.930 . S
H1880 C1893 0.929 . S
H1881 C1891 0.929 . S
H1882 C1886 0.929 . S
H1883 C1892 0.929 . S
C1884 H1878 0.930 . S
C1884 C1885 1.367 . S
C1884 C1892 1.378 . S
C1885 C1884 1.367 . S
C1885 C1893 1.433 . S
C1886 H1882 0.929 . S
C1886 C1888 1.378 . S
C1886 C1890 1.350 . S
C1887 C1890 1.463 . S
C1887 C1892 1.350 . S
C1887 N1895 1.427 . S
C1888 H1879 0.930 . S
C1888 C1886 1.378 . S
C1888 C1889 1.367 . S
C1889 C1888 1.367 . S
C1889 C1891 1.433 . S
C1890 C1886 1.350 . S
C1890 C1887 1.463 . S
C1890 N1894 1.427 . S
C1891 H1881 0.929 . S
C1891 C1889 1.433 . S
C1891 N1894 1.384 . S
C1892 H1883 0.929 . S
C1892 C1884 1.378 . S
C1892 C1887 1.350 . S
C1893 H1880 0.929 . S
C1893 C1885 1.433 . S
C1893 N1895 1.384 . S
N1894 C1890 1.427 . S
N1894 C1891 1.384 . S
N1895 C1887 1.427 . S
N1895 C1893 1.384 . S
H1896 C1902 0.930 . S
H1897 C1906 0.930 1_565 S
H1898 C1911 0.929 . S
H1899 C1909 0.929 . S
H1900 C1904 0.929 1_565 S
H1901 C1910 0.929 . S
C1902 H1896 0.930 . S
C1902 C1903 1.367 . S
C1902 C1910 1.378 . S
C1903 C1902 1.367 . S
C1903 C1911 1.433 1_545 S
C1904 H1900 0.929 1_545 S
C1904 C1906 1.378 1_655 S
C1904 C1908 1.350 . S
C1905 C1908 1.463 . S
C1905 C1910 1.350 . S
C1905 N1913 1.427 1_545 S
C1906 H1897 0.930 1_545 S
C1906 C1904 1.378 1_455 S
C1906 C1907 1.367 . S
C1907 C1906 1.367 . S
C1907 C1909 1.433 . S
C1908 C1904 1.350 . S
C1908 C1905 1.463 . S
C1908 N1912 1.427 . S
C1909 H1899 0.929 . S
C1909 C1907 1.433 . S
C1909 N1912 1.384 1_455 S
C1910 H1901 0.929 . S
C1910 C1902 1.378 . S
C1910 C1905 1.350 . S
C1911 H1898 0.929 . S
C1911 C1903 1.433 1_565 S
C1911 N1913 1.384 . S
N1912 C1908 1.427 . S
N1912 C1909 1.384 1_655 S
N1913 C1905 1.427 1_565 S
N1913 C1911 1.384 . S
H1914 C1920 0.930 . S
H1915 C1924 0.930 . S
H1916 C1929 0.929 . S
H1917 C1927 0.929 . S
H1918 C1922 0.929 . S
H1919 C1928 0.929 . S
C1920 H1914 0.930 . S
C1920 C1921 1.367 . S
C1920 C1928 1.378 . S
C1921 C1920 1.367 . S
C1921 C1929 1.433 . S
C1922 H1918 0.929 . S
C1922 C1924 1.378 . S
C1922 C1926 1.350 . S
C1923 C1926 1.463 . S
C1923 C1928 1.350 . S
C1923 N1931 1.427 . S
C1924 H1915 0.930 . S
C1924 C1922 1.378 . S
C1924 C1925 1.367 . S
C1925 C1924 1.367 . S
C1925 C1927 1.433 . S
C1926 C1922 1.350 . S
C1926 C1923 1.463 . S
C1926 N1930 1.427 . S
C1927 H1917 0.929 . S
C1927 C1925 1.433 . S
C1927 N1930 1.384 . S
C1928 H1919 0.929 . S
C1928 C1920 1.378 . S
C1928 C1923 1.350 . S
C1929 H1916 0.929 . S
C1929 C1921 1.433 . S
C1929 N1931 1.384 . S
N1930 C1926 1.427 . S
N1930 C1927 1.384 . S
N1931 C1923 1.427 . S
N1931 C1929 1.384 . S
H1932 C1938 0.930 . S
H1933 C1942 0.930 . S
H1934 C1947 0.929 . S
H1935 C1945 0.929 . S
H1936 C1940 0.929 . S
H1937 C1946 0.929 . S
C1938 H1932 0.930 . S
C1938 C1939 1.367 . S
C1938 C1946 1.378 . S
C1939 C1938 1.367 . S
C1939 C1947 1.433 . S
C1940 H1936 0.929 . S
C1940 C1942 1.378 . S
C1940 C1944 1.350 . S
C1941 C1944 1.463 . S
C1941 C1946 1.350 . S
C1941 N1949 1.427 . S
C1942 H1933 0.930 . S
C1942 C1940 1.378 . S
C1942 C1943 1.367 . S
C1943 C1942 1.367 . S
C1943 C1945 1.433 . S
C1944 C1940 1.350 . S
C1944 C1941 1.463 . S
C1944 N1948 1.427 . S
C1945 H1935 0.929 . S
C1945 C1943 1.433 . S
C1945 N1948 1.384 . S
C1946 H1937 0.929 . S
C1946 C1938 1.378 . S
C1946 C1941 1.350 . S
C1947 H1934 0.929 . S
C1947 C1939 1.433 . S
C1947 N1949 1.384 . S
N1948 C1944 1.427 . S
N1948 C1945 1.384 . S
N1949 C1941 1.427 . S
N1949 C1947 1.384 . S
H1950 C1956 0.930 . S
H1951 C1960 0.930 . S
H1952 C1965 0.929 . S
H1953 C1963 0.929 . S
H1954 C1958 0.929 . S
H1955 C1964 0.929 . S
C1956 H1950 0.930 . S
C1956 C1957 1.367 . S
C1956 C1964 1.378 . S
C1957 C1956 1.367 . S
C1957 C1965 1.433 . S
C1958 H1954 0.929 . S
C1958 C1960 1.378 . S
C1958 C1962 1.350 . S
C1959 C1962 1.463 . S
C1959 C1964 1.350 . S
C1959 N1967 1.427 . S
C1960 H1951 0.930 . S
C1960 C1958 1.378 . S
C1960 C1961 1.367 . S
C1961 C1960 1.367 . S
C1961 C1963 1.433 . S
C1962 C1958 1.350 . S
C1962 C1959 1.463 . S
C1962 N1966 1.427 . S
C1963 H1953 0.929 . S
C1963 C1961 1.433 . S
C1963 N1966 1.384 . S
C1964 H1955 0.929 . S
C1964 C1956 1.378 . S
C1964 C1959 1.350 . S
C1965 H1952 0.929 . S
C1965 C1957 1.433 . S
C1965 N1967 1.384 . S
N1966 C1962 1.427 . S
N1966 C1963 1.384 . S
N1967 C1959 1.427 . S
N1967 C1965 1.384 . S
H1968 C1974 0.954 . S
H1969 C1978 0.930 . S
H1970 C1983 0.929 . S
H1971 C1981 0.929 . S
H1972 C1976 0.929 . S
H1973 C1982 0.929 1_545 S
C1974 H1968 0.954 . S
C1974 C1975 1.367 . S
C1974 C1982 1.378 . S
C1975 C1974 1.367 . S
C1975 C1983 1.433 . S
C1976 H1972 0.929 . S
C1976 C1978 1.378 . S
C1976 C1980 1.350 . S
C1977 C1980 1.463 . S
C1977 C1982 1.350 . S
C1977 N1985 1.427 . S
C1978 H1969 0.930 . S
C1978 C1976 1.378 . S
C1978 C1979 1.367 1_565 S
C1979 C1978 1.367 1_545 S
C1979 C1981 1.433 . S
C1980 C1976 1.350 . S
C1980 C1977 1.463 . S
C1980 N1984 1.427 1_565 S
C1981 H1971 0.929 . S
C1981 C1979 1.433 . S
C1981 N1984 1.384 . S
C1982 H1973 0.929 1_565 S
C1982 C1974 1.378 . S
C1982 C1977 1.350 . S
C1983 H1970 0.929 . S
C1983 C1975 1.433 . S
C1983 N1985 1.384 . S
N1984 C1980 1.427 1_545 S
N1984 C1981 1.384 . S
N1985 C1977 1.427 . S
N1985 C1983 1.384 . S
H1986 C1992 0.930 . S
H1987 C1996 0.930 . S
H1988 C2001 0.929 . S
H1989 C1999 0.929 . S
H1990 C1994 0.929 . S
H1991 C2000 0.929 . S
C1992 H1986 0.930 . S
C1992 C1993 1.367 . S
C1992 C2000 1.378 . S
C1993 C1992 1.367 . S
C1993 C2001 1.433 . S
C1994 H1990 0.929 . S
C1994 C1996 1.378 . S
C1994 C1998 1.350 . S
C1995 C1998 1.463 . S
C1995 C2000 1.350 . S
C1995 N2003 1.427 . S
C1996 H1987 0.930 . S
C1996 C1994 1.378 . S
C1996 C1997 1.367 . S
C1997 C1996 1.367 . S
C1997 C1999 1.433 . S
C1998 C1994 1.350 . S
C1998 C1995 1.463 . S
C1998 N2002 1.427 . S
C1999 H1989 0.929 . S
C1999 C1997 1.433 . S
C1999 N2002 1.384 . S
C2000 H1991 0.929 . S
C2000 C1992 1.378 . S
C2000 C1995 1.350 . S
C2001 H1988 0.929 . S
C2001 C1993 1.433 . S
C2001 N2003 1.384 . S
N2002 C1998 1.427 . S
N2002 C1999 1.384 . S
N2003 C1995 1.427 . S
N2003 C2001 1.384 . S
H2004 C2010 0.930 . S
H2005 C2014 0.930 . S
H2006 C2019 0.929 . S
H2007 C2017 0.929 . S
H2008 C2012 0.929 . S
H2009 C2018 0.929 . S
C2010 H2004 0.930 . S
C2010 C2011 1.367 . S
C2010 C2018 1.378 . S
C2011 C2010 1.367 . S
C2011 C2019 1.433 . S
C2012 H2008 0.929 . S
C2012 C2014 1.378 . S
C2012 C2016 1.350 . S
C2013 C2016 1.463 . S
C2013 C2018 1.350 . S
C2013 N2021 1.427 . S
C2014 H2005 0.930 . S
C2014 C2012 1.378 . S
C2014 C2015 1.367 . S
C2015 C2014 1.367 . S
C2015 C2017 1.433 . S
C2016 C2012 1.350 . S
C2016 C2013 1.463 . S
C2016 N2020 1.427 . S
C2017 H2007 0.929 . S
C2017 C2015 1.433 . S
C2017 N2020 1.384 . S
C2018 H2009 0.929 . S
C2018 C2010 1.378 . S
C2018 C2013 1.350 . S
C2019 H2006 0.929 . S
C2019 C2011 1.433 . S
C2019 N2021 1.384 . S
N2020 C2016 1.427 . S
N2020 C2017 1.384 . S
N2021 C2013 1.427 . S
N2021 C2019 1.384 . S
H2022 C2028 0.930 . S
H2023 C2032 0.930 . S
H2024 C2037 0.929 . S
H2025 C2035 0.929 . S
H2026 C2030 0.929 . S
H2027 C2036 0.929 . S
C2028 H2022 0.930 . S
C2028 C2029 1.367 . S
C2028 C2036 1.378 . S
C2029 C2028 1.367 . S
C2029 C2037 1.433 . S
C2030 H2026 0.929 . S
C2030 C2032 1.378 . S
C2030 C2034 1.350 . S
C2031 C2034 1.463 . S
C2031 C2036 1.350 . S
C2031 N2039 1.427 . S
C2032 H2023 0.930 . S
C2032 C2030 1.378 . S
C2032 C2033 1.367 . S
C2033 C2032 1.367 . S
C2033 C2035 1.433 . S
C2034 C2030 1.350 . S
C2034 C2031 1.463 . S
C2034 N2038 1.427 . S
C2035 H2025 0.929 . S
C2035 C2033 1.433 . S
C2035 N2038 1.384 . S
C2036 H2027 0.929 . S
C2036 C2028 1.378 . S
C2036 C2031 1.350 . S
C2037 H2024 0.929 . S
C2037 C2029 1.433 . S
C2037 N2039 1.384 . S
N2038 C2034 1.427 . S
N2038 C2035 1.384 . S
N2039 C2031 1.427 . S
N2039 C2037 1.384 . S
H2040 C2046 0.930 . S
H2041 C2050 0.930 . S
H2042 C2055 0.929 . S
H2043 C2053 0.929 . S
H2044 C2048 0.929 . S
H2045 C2054 0.929 . S
C2046 H2040 0.930 . S
C2046 C2047 1.367 . S
C2046 C2054 1.378 . S
C2047 C2046 1.367 . S
C2047 C2055 1.433 . S
C2048 H2044 0.929 . S
C2048 C2050 1.378 . S
C2048 C2052 1.350 . S
C2049 C2052 1.463 . S
C2049 C2054 1.350 . S
C2049 N2057 1.427 . S
C2050 H2041 0.930 . S
C2050 C2048 1.378 . S
C2050 C2051 1.367 . S
C2051 C2050 1.367 . S
C2051 C2053 1.433 . S
C2052 C2048 1.350 . S
C2052 C2049 1.463 . S
C2052 N2056 1.427 . S
C2053 H2043 0.929 . S
C2053 C2051 1.433 . S
C2053 N2056 1.384 . S
C2054 H2045 0.929 . S
C2054 C2046 1.378 . S
C2054 C2049 1.350 . S
C2055 H2042 0.929 . S
C2055 C2047 1.433 . S
C2055 N2057 1.384 . S
N2056 C2052 1.427 . S
N2056 C2053 1.384 . S
N2057 C2049 1.427 . S
N2057 C2055 1.384 . S
H2058 C2064 0.930 . S
H2059 C2068 0.930 . S
H2060 C2073 0.929 . S
H2061 C2071 0.929 . S
H2062 C2066 0.929 . S
H2063 C2072 0.929 . S
C2064 H2058 0.930 . S
C2064 C2065 1.367 . S
C2064 C2072 1.378 . S
C2065 C2064 1.367 . S
C2065 C2073 1.433 . S
C2066 H2062 0.929 . S
C2066 C2068 1.378 . S
C2066 C2070 1.350 . S
C2067 C2070 1.463 . S
C2067 C2072 1.350 . S
C2067 N2075 1.427 . S
C2068 H2059 0.930 . S
C2068 C2066 1.378 . S
C2068 C2069 1.367 . S
C2069 C2068 1.367 . S
C2069 C2071 1.433 . S
C2070 C2066 1.350 . S
C2070 C2067 1.463 . S
C2070 N2074 1.427 . S
C2071 H2061 0.929 . S
C2071 C2069 1.433 . S
C2071 N2074 1.384 . S
C2072 H2063 0.929 . S
C2072 C2064 1.378 . S
C2072 C2067 1.350 . S
C2073 H2060 0.929 . S
C2073 C2065 1.433 . S
C2073 N2075 1.384 . S
N2074 C2070 1.427 . S
N2074 C2071 1.384 . S
N2075 C2067 1.427 . S
N2075 C2073 1.384 . S
H2076 C2082 0.930 . S
H2077 C2086 0.930 . S
H2078 C2091 0.929 . S
H2079 C2089 0.929 . S
H2080 C2084 0.929 . S
H2081 C2090 0.929 . S
C2082 H2076 0.930 . S
C2082 C2083 1.367 . S
C2082 C2090 1.378 . S
C2083 C2082 1.367 . S
C2083 C2091 1.433 . S
C2084 H2080 0.929 . S
C2084 C2086 1.378 . S
C2084 C2088 1.350 . S
C2085 C2088 1.463 . S
C2085 C2090 1.350 . S
C2085 N2093 1.427 . S
C2086 H2077 0.930 . S
C2086 C2084 1.378 . S
C2086 C2087 1.367 . S
C2087 C2086 1.367 . S
C2087 C2089 1.433 . S
C2088 C2084 1.350 . S
C2088 C2085 1.463 . S
C2088 N2092 1.427 . S
C2089 H2079 0.929 . S
C2089 C2087 1.433 . S
C2089 N2092 1.384 . S
C2090 H2081 0.929 . S
C2090 C2082 1.378 . S
C2090 C2085 1.350 . S
C2091 H2078 0.929 . S
C2091 C2083 1.433 . S
C2091 N2093 1.384 . S
N2092 C2088 1.427 . S
N2092 C2089 1.384 . S
N2093 C2085 1.427 . S
N2093 C2091 1.384 . S
H2094 C2100 0.930 . S
H2095 C2104 0.930 . S
H2096 C2109 0.929 . S
H2097 C2107 0.929 . S
H2098 C2102 0.929 . S
H2099 C2108 0.929 . S
C2100 H2094 0.930 . S
C2100 C2101 1.367 . S
C2100 C2108 1.378 . S
C2101 C2100 1.367 . S
C2101 C2109 1.433 . S
C2102 H2098 0.929 . S
C2102 C2104 1.378 . S
C2102 C2106 1.350 . S
C2103 C2106 1.463 . S
C2103 C2108 1.350 . S
C2103 N2111 1.427 . S
C2104 H2095 0.930 . S
C2104 C2102 1.378 . S
C2104 C2105 1.367 . S
C2105 C2104 1.367 . S
C2105 C2107 1.433 . S
C2106 C2102 1.350 . S
C2106 C2103 1.463 . S
C2106 N2110 1.427 . S
C2107 H2097 0.929 . S
C2107 C2105 1.433 . S
C2107 N2110 1.384 . S
C2108 H2099 0.929 . S
C2108 C2100 1.378 . S
C2108 C2103 1.350 . S
C2109 H2096 0.929 . S
C2109 C2101 1.433 . S
C2109 N2111 1.384 . S
N2110 C2106 1.427 . S
N2110 C2107 1.384 . S
N2111 C2103 1.427 . S
N2111 C2109 1.384 . S
H2112 C2118 0.930 . S
H2113 C2122 0.930 . S
H2114 C2127 0.929 . S
H2115 C2125 0.929 . S
H2116 C2120 0.929 . S
H2117 C2126 0.929 . S
C2118 H2112 0.930 . S
C2118 C2119 1.367 . S
C2118 C2126 1.378 . S
C2119 C2118 1.367 . S
C2119 C2127 1.433 . S
C2120 H2116 0.929 . S
C2120 C2122 1.378 . S
C2120 C2124 1.350 . S
C2121 C2124 1.463 . S
C2121 C2126 1.350 . S
C2121 N2129 1.427 . S
C2122 H2113 0.930 . S
C2122 C2120 1.378 . S
C2122 C2123 1.367 . S
C2123 C2122 1.367 . S
C2123 C2125 1.433 . S
C2124 C2120 1.350 . S
C2124 C2121 1.463 . S
C2124 N2128 1.427 . S
C2125 H2115 0.929 . S
C2125 C2123 1.433 . S
C2125 N2128 1.384 . S
C2126 H2117 0.929 . S
C2126 C2118 1.378 . S
C2126 C2121 1.350 . S
C2127 H2114 0.929 . S
C2127 C2119 1.433 . S
C2127 N2129 1.384 . S
N2128 C2124 1.427 . S
N2128 C2125 1.384 . S
N2129 C2121 1.427 . S
N2129 C2127 1.384 . S
H2130 C2136 0.930 . S
H2131 C2140 0.930 . S
H2132 C2145 0.929 . S
H2133 C2143 0.929 . S
H2134 C2138 0.929 . S
H2135 C2144 0.929 . S
C2136 H2130 0.930 . S
C2136 C2137 1.367 . S
C2136 C2144 1.378 . S
C2137 C2136 1.367 . S
C2137 C2145 1.433 . S
C2138 H2134 0.929 . S
C2138 C2140 1.378 . S
C2138 C2142 1.350 . S
C2139 C2142 1.463 . S
C2139 C2144 1.350 . S
C2139 N2147 1.427 . S
C2140 H2131 0.930 . S
C2140 C2138 1.378 . S
C2140 C2141 1.367 . S
C2141 C2140 1.367 . S
C2141 C2143 1.433 . S
C2142 C2138 1.350 . S
C2142 C2139 1.463 . S
C2142 N2146 1.427 . S
C2143 H2133 0.929 . S
C2143 C2141 1.433 . S
C2143 N2146 1.384 . S
C2144 H2135 0.929 . S
C2144 C2136 1.378 . S
C2144 C2139 1.350 . S
C2145 H2132 0.929 . S
C2145 C2137 1.433 . S
C2145 N2147 1.384 . S
N2146 C2142 1.427 . S
N2146 C2143 1.384 . S
N2147 C2139 1.427 . S
N2147 C2145 1.384 . S
H2148 C2154 0.930 . S
H2149 C2158 0.930 . S
H2150 C2163 0.929 . S
H2151 C2161 0.929 . S
H2152 C2156 0.929 . S
H2153 C2162 0.929 . S
C2154 H2148 0.930 . S
C2154 C2155 1.367 . S
C2154 C2162 1.378 . S
C2155 C2154 1.367 . S
C2155 C2163 1.433 . S
C2156 H2152 0.929 . S
C2156 C2158 1.378 . S
C2156 C2160 1.350 . S
C2157 C2160 1.463 . S
C2157 C2162 1.350 . S
C2157 N2165 1.427 . S
C2158 H2149 0.930 . S
C2158 C2156 1.378 . S
C2158 C2159 1.367 . S
C2159 C2158 1.367 . S
C2159 C2161 1.433 . S
C2160 C2156 1.350 . S
C2160 C2157 1.463 . S
C2160 N2164 1.427 . S
C2161 H2151 0.929 . S
C2161 C2159 1.433 . S
C2161 N2164 1.384 . S
C2162 H2153 0.929 . S
C2162 C2154 1.378 . S
C2162 C2157 1.350 . S
C2163 H2150 0.929 . S
C2163 C2155 1.433 . S
C2163 N2165 1.384 . S
N2164 C2160 1.427 . S
N2164 C2161 1.384 . S
N2165 C2157 1.427 . S
N2165 C2163 1.384 . S
H2166 C2172 0.930 . S
H2167 C2176 0.930 . S
H2168 C2181 0.929 . S
H2169 C2179 0.929 . S
H2170 C2174 0.929 . S
H2171 C2180 0.929 . S
C2172 H2166 0.930 . S
C2172 C2173 1.367 . S
C2172 C2180 1.378 . S
C2173 C2172 1.367 . S
C2173 C2181 1.433 . S
C2174 H2170 0.929 . S
C2174 C2176 1.378 . S
C2174 C2178 1.350 . S
C2175 C2178 1.463 . S
C2175 C2180 1.350 . S
C2175 N2183 1.427 . S
C2176 H2167 0.930 . S
C2176 C2174 1.378 . S
C2176 C2177 1.367 . S
C2177 C2176 1.367 . S
C2177 C2179 1.433 . S
C2178 C2174 1.350 . S
C2178 C2175 1.463 . S
C2178 N2182 1.427 . S
C2179 H2169 0.929 . S
C2179 C2177 1.433 . S
C2179 N2182 1.384 . S
C2180 H2171 0.929 . S
C2180 C2172 1.378 . S
C2180 C2175 1.350 . S
C2181 H2168 0.929 . S
C2181 C2173 1.433 . S
C2181 N2183 1.384 . S
N2182 C2178 1.427 . S
N2182 C2179 1.384 . S
N2183 C2175 1.427 . S
N2183 C2181 1.384 . S
H2184 C2190 0.930 . S
H2185 C2194 0.930 . S
H2186 C2199 0.929 . S
H2187 C2197 0.929 . S
H2188 C2192 0.929 . S
H2189 C2198 0.929 . S
C2190 H2184 0.930 . S
C2190 C2191 1.367 . S
C2190 C2198 1.378 . S
C2191 C2190 1.367 . S
C2191 C2199 1.433 . S
C2192 H2188 0.929 . S
C2192 C2194 1.378 . S
C2192 C2196 1.350 . S
C2193 C2196 1.463 . S
C2193 C2198 1.350 . S
C2193 N2201 1.427 . S
C2194 H2185 0.930 . S
C2194 C2192 1.378 . S
C2194 C2195 1.367 . S
C2195 C2194 1.367 . S
C2195 C2197 1.433 . S
C2196 C2192 1.350 . S
C2196 C2193 1.463 . S
C2196 N2200 1.427 . S
C2197 H2187 0.929 . S
C2197 C2195 1.433 . S
C2197 N2200 1.384 . S
C2198 H2189 0.929 . S
C2198 C2190 1.378 . S
C2198 C2193 1.350 . S
C2199 H2186 0.929 . S
C2199 C2191 1.433 . S
C2199 N2201 1.384 . S
N2200 C2196 1.427 . S
N2200 C2197 1.384 . S
N2201 C2193 1.427 . S
N2201 C2199 1.384 . S
H2202 C2208 0.930 . S
H2203 C2212 0.930 . S
H2204 C2217 0.929 . S
H2205 C2215 0.929 . S
H2206 C2210 0.929 . S
H2207 C2216 0.929 . S
C2208 H2202 0.930 . S
C2208 C2209 1.367 . S
C2208 C2216 1.378 . S
C2209 C2208 1.367 . S
C2209 C2217 1.433 . S
C2210 H2206 0.929 . S
C2210 C2212 1.378 . S
C2210 C2214 1.350 . S
C2211 C2214 1.463 . S
C2211 C2216 1.350 . S
C2211 N2219 1.427 . S
C2212 H2203 0.930 . S
C2212 C2210 1.378 . S
C2212 C2213 1.367 . S
C2213 C2212 1.367 . S
C2213 C2215 1.433 . S
C2214 C2210 1.350 . S
C2214 C2211 1.463 . S
C2214 N2218 1.427 . S
C2215 H2205 0.929 . S
C2215 C2213 1.433 . S
C2215 N2218 1.384 . S
C2216 H2207 0.929 . S
C2216 C2208 1.378 . S
C2216 C2211 1.350 . S
C2217 H2204 0.929 . S
C2217 C2209 1.433 . S
C2217 N2219 1.384 . S
N2218 C2214 1.427 . S
N2218 C2215 1.384 . S
N2219 C2211 1.427 . S
N2219 C2217 1.384 . S
H2220 C2226 0.930 . S
H2221 C2230 0.930 . S
H2222 C2235 0.929 . S
H2223 C2233 0.929 . S
H2224 C2228 0.929 . S
H2225 C2234 0.929 . S
C2226 H2220 0.930 . S
C2226 C2227 1.367 . S
C2226 C2234 1.378 . S
C2227 C2226 1.367 . S
C2227 C2235 1.433 . S
C2228 H2224 0.929 . S
C2228 C2230 1.378 1_556 S
C2228 C2232 1.350 . S
C2229 C2232 1.463 . S
C2229 C2234 1.350 . S
C2229 N2237 1.427 . S
C2230 H2221 0.930 . S
C2230 C2228 1.378 1_554 S
C2230 C2231 1.367 1_554 S
C2231 C2230 1.367 1_556 S
C2231 C2233 1.433 . S
C2232 C2228 1.350 . S
C2232 C2229 1.463 . S
C2232 N2236 1.427 . S
C2233 H2223 0.929 . S
C2233 C2231 1.433 . S
C2233 N2236 1.384 . S
C2234 H2225 0.929 . S
C2234 C2226 1.378 . S
C2234 C2229 1.350 . S
C2235 H2222 0.929 . S
C2235 C2227 1.433 . S
C2235 N2237 1.384 . S
N2236 C2232 1.427 . S
N2236 C2233 1.384 . S
N2237 C2229 1.427 . S
N2237 C2235 1.384 . S
H2238 C2244 0.930 . S
H2239 C2248 0.930 . S
H2240 C2253 0.929 . S
H2241 C2251 0.929 . S
H2242 C2246 0.929 . S
H2243 C2252 0.929 . S
C2244 H2238 0.930 . S
C2244 C2245 1.367 . S
C2244 C2252 1.378 . S
C2245 C2244 1.367 . S
C2245 C2253 1.433 . S
C2246 H2242 0.929 . S
C2246 C2248 1.378 . S
C2246 C2250 1.350 . S
C2247 C2250 1.463 . S
C2247 C2252 1.350 . S
C2247 N2255 1.427 . S
C2248 H2239 0.930 . S
C2248 C2246 1.378 . S
C2248 C2249 1.367 . S
C2249 C2248 1.367 . S
C2249 C2251 1.433 . S
C2250 C2246 1.350 . S
C2250 C2247 1.463 . S
C2250 N2254 1.427 . S
C2251 H2241 0.929 . S
C2251 C2249 1.433 . S
C2251 N2254 1.384 . S
C2252 H2243 0.929 . S
C2252 C2244 1.378 . S
C2252 C2247 1.350 . S
C2253 H2240 0.929 . S
C2253 C2245 1.433 . S
C2253 N2255 1.384 . S
N2254 C2250 1.427 . S
N2254 C2251 1.384 . S
N2255 C2247 1.427 . S
N2255 C2253 1.384 . S
H2256 C2262 0.930 . S
H2257 C2266 0.930 . S
H2258 C2271 0.929 . S
H2259 C2269 0.929 . S
H2260 C2264 0.929 . S
H2261 C2270 0.929 . S
C2262 H2256 0.930 . S
C2262 C2263 1.367 . S
C2262 C2270 1.378 . S
C2263 C2262 1.367 . S
C2263 C2271 1.433 . S
C2264 H2260 0.929 . S
C2264 C2266 1.378 . S
C2264 C2268 1.350 . S
C2265 C2268 1.463 . S
C2265 C2270 1.350 . S
C2265 N2273 1.427 . S
C2266 H2257 0.930 . S
C2266 C2264 1.378 . S
C2266 C2267 1.367 . S
C2267 C2266 1.367 . S
C2267 C2269 1.433 . S
C2268 C2264 1.350 . S
C2268 C2265 1.463 . S
C2268 N2272 1.427 . S
C2269 H2259 0.929 . S
C2269 C2267 1.433 . S
C2269 N2272 1.384 . S
C2270 H2261 0.929 . S
C2270 C2262 1.378 . S
C2270 C2265 1.350 . S
C2271 H2258 0.929 . S
C2271 C2263 1.433 . S
C2271 N2273 1.384 . S
N2272 C2268 1.427 . S
N2272 C2269 1.384 . S
N2273 C2265 1.427 . S
N2273 C2271 1.384 . S
H2274 C2280 0.930 . S
H2275 C2284 0.930 . S
H2276 C2289 0.929 . S
H2277 C2287 0.929 . S
H2278 C2282 0.929 . S
H2279 C2288 0.929 . S
C2280 H2274 0.930 . S
C2280 C2281 1.367 . S
C2280 C2288 1.378 . S
C2281 C2280 1.367 . S
C2281 C2289 1.433 . S
C2282 H2278 0.929 . S
C2282 C2284 1.378 . S
C2282 C2286 1.350 . S
C2283 C2286 1.463 . S
C2283 C2288 1.350 . S
C2283 N2291 1.427 . S
C2284 H2275 0.930 . S
C2284 C2282 1.378 . S
C2284 C2285 1.367 . S
C2285 C2284 1.367 . S
C2285 C2287 1.433 . S
C2286 C2282 1.350 . S
C2286 C2283 1.463 . S
C2286 N2290 1.427 . S
C2287 H2277 0.929 . S
C2287 C2285 1.433 . S
C2287 N2290 1.384 . S
C2288 H2279 0.929 . S
C2288 C2280 1.378 . S
C2288 C2283 1.350 . S
C2289 H2276 0.929 . S
C2289 C2281 1.433 . S
C2289 N2291 1.384 . S
N2290 C2286 1.427 . S
N2290 C2287 1.384 . S
N2291 C2283 1.427 . S
N2291 C2289 1.384 . S
H2292 C2298 0.930 . S
H2293 C2302 0.930 . S
H2294 C2307 0.929 . S
H2295 C2305 0.885 1_565 S
H2296 C2300 0.929 . S
H2297 C2306 0.937 . S
C2298 H2292 0.930 . S
C2298 C2299 1.367 1_565 S
C2298 C2306 1.377 . S
C2299 C2298 1.367 1_545 S
C2299 C2307 1.433 . S
C2300 H2296 0.929 . S
C2300 C2302 1.378 . S
C2300 C2304 1.350 . S
C2301 C2304 1.463 . S
C2301 C2306 1.343 1_545 S
C2301 N2309 1.427 . S
C2302 H2293 0.930 . S
C2302 C2300 1.378 . S
C2302 C2303 1.367 . S
C2303 C2302 1.367 . S
C2303 C2305 1.433 . S
C2304 C2300 1.350 . S
C2304 C2301 1.463 . S
C2304 N2308 1.427 . S
C2305 H2295 0.885 1_545 S
C2305 C2303 1.433 . S
C2305 N2308 1.384 . S
C2306 H2297 0.937 . S
C2306 C2298 1.377 . S
C2306 C2301 1.343 1_565 S
C2307 H2294 0.929 . S
C2307 C2299 1.433 . S
C2307 N2309 1.384 . S
N2308 C2304 1.427 . S
N2308 C2305 1.384 . S
N2309 C2301 1.427 . S
N2309 C2307 1.384 . S
H2310 C2316 0.930 . S
H2311 C2320 0.930 . S
H2312 C2325 0.929 . S
H2313 C2323 0.929 . S
H2314 C2318 0.929 . S
H2315 C2324 0.929 . S
C2316 H2310 0.930 . S
C2316 C2317 1.367 . S
C2316 C2324 1.378 . S
C2317 C2316 1.367 . S
C2317 C2325 1.433 . S
C2318 H2314 0.929 . S
C2318 C2320 1.378 . S
C2318 C2322 1.350 . S
C2319 C2322 1.463 . S
C2319 C2324 1.350 . S
C2319 N2327 1.427 . S
C2320 H2311 0.930 . S
C2320 C2318 1.378 . S
C2320 C2321 1.367 . S
C2321 C2320 1.367 . S
C2321 C2323 1.433 . S
C2322 C2318 1.350 . S
C2322 C2319 1.463 . S
C2322 N2326 1.427 . S
C2323 H2313 0.929 . S
C2323 C2321 1.433 . S
C2323 N2326 1.384 . S
C2324 H2315 0.929 . S
C2324 C2316 1.378 . S
C2324 C2319 1.350 . S
C2325 H2312 0.929 . S
C2325 C2317 1.433 . S
C2325 N2327 1.384 . S
N2326 C2322 1.427 . S
N2326 C2323 1.384 . S
N2327 C2319 1.427 . S
N2327 C2325 1.384 . S
H2328 C2334 0.930 . S
H2329 C2338 0.930 . S
H2330 C2343 0.929 . S
H2331 C2341 0.929 . S
H2332 C2336 0.929 . S
H2333 C2342 0.929 . S
C2334 H2328 0.930 . S
C2334 C2335 1.367 . S
C2334 C2342 1.378 . S
C2335 C2334 1.367 . S
C2335 C2343 1.433 . S
C2336 H2332 0.929 . S
C2336 C2338 1.378 . S
C2336 C2340 1.350 . S
C2337 C2340 1.463 . S
C2337 C2342 1.350 . S
C2337 N2345 1.427 . S
C2338 H2329 0.930 . S
C2338 C2336 1.378 . S
C2338 C2339 1.367 . S
C2339 C2338 1.367 . S
C2339 C2341 1.433 . S
C2340 C2336 1.350 . S
C2340 C2337 1.463 . S
C2340 N2344 1.427 . S
C2341 H2331 0.929 . S
C2341 C2339 1.433 . S
C2341 N2344 1.384 . S
C2342 H2333 0.929 . S
C2342 C2334 1.378 . S
C2342 C2337 1.350 . S
C2343 H2330 0.929 . S
C2343 C2335 1.433 . S
C2343 N2345 1.384 . S
N2344 C2340 1.427 . S
N2344 C2341 1.384 . S
N2345 C2337 1.427 . S
N2345 C2343 1.384 . S
H2346 C2352 0.930 . S
H2347 C2356 0.930 . S
H2348 C2361 0.929 . S
H2349 C2359 0.929 . S
H2350 C2354 0.929 . S
H2351 C2360 0.929 . S
C2352 H2346 0.930 . S
C2352 C2353 1.367 . S
C2352 C2360 1.378 . S
C2353 C2352 1.367 . S
C2353 C2361 1.433 . S
C2354 H2350 0.929 . S
C2354 C2356 1.378 . S
C2354 C2358 1.350 . S
C2355 C2358 1.463 . S
C2355 C2360 1.350 . S
C2355 N2363 1.427 . S
C2356 H2347 0.930 . S
C2356 C2354 1.378 . S
C2356 C2357 1.367 . S
C2357 C2356 1.367 . S
C2357 C2359 1.433 . S
C2358 C2354 1.350 . S
C2358 C2355 1.463 . S
C2358 N2362 1.427 . S
C2359 H2349 0.929 . S
C2359 C2357 1.433 . S
C2359 N2362 1.384 . S
C2360 H2351 0.929 . S
C2360 C2352 1.378 . S
C2360 C2355 1.350 . S
C2361 H2348 0.929 . S
C2361 C2353 1.433 . S
C2361 N2363 1.384 . S
N2362 C2358 1.427 . S
N2362 C2359 1.384 . S
N2363 C2355 1.427 . S
N2363 C2361 1.384 . S
H2364 C2370 0.930 . S
H2365 C2374 0.930 . S
H2366 C2379 0.929 . S
H2367 C2377 0.929 . S
H2368 C2372 0.929 . S
H2369 C2378 0.929 . S
C2370 H2364 0.930 . S
C2370 C2371 1.367 1_565 S
C2370 C2378 1.378 . S
C2371 C2370 1.367 1_545 S
C2371 C2379 1.433 . S
C2372 H2368 0.929 . S
C2372 C2374 1.378 . S
C2372 C2376 1.350 . S
C2373 C2376 1.463 . S
C2373 C2378 1.350 1_545 S
C2373 N2381 1.427 . S
C2374 H2365 0.930 . S
C2374 C2372 1.378 . S
C2374 C2375 1.367 . S
C2375 C2374 1.367 . S
C2375 C2377 1.433 1_545 S
C2376 C2372 1.350 . S
C2376 C2373 1.463 . S
C2376 N2380 1.427 1_545 S
C2377 H2367 0.929 . S
C2377 C2375 1.433 1_565 S
C2377 N2380 1.384 . S
C2378 H2369 0.929 . S
C2378 C2370 1.378 . S
C2378 C2373 1.350 1_565 S
C2379 H2366 0.929 . S
C2379 C2371 1.433 . S
C2379 N2381 1.384 . S
N2380 C2376 1.427 1_565 S
N2380 C2377 1.384 . S
N2381 C2373 1.427 . S
N2381 C2379 1.384 . S
H2382 C2388 0.930 . S
H2383 C2392 0.930 . S
H2384 C2397 0.929 . S
H2385 C2395 0.929 . S
H2386 C2390 0.929 . S
H2387 C2396 0.929 . S
C2388 H2382 0.930 . S
C2388 C2389 1.367 . S
C2388 C2396 1.378 . S
C2389 C2388 1.367 . S
C2389 C2397 1.433 . S
C2390 H2386 0.929 . S
C2390 C2392 1.378 . S
C2390 C2394 1.350 . S
C2391 C2394 1.463 . S
C2391 C2396 1.350 . S
C2391 N2399 1.427 . S
C2392 H2383 0.930 . S
C2392 C2390 1.378 . S
C2392 C2393 1.367 . S
C2393 C2392 1.367 . S
C2393 C2395 1.433 . S
C2394 C2390 1.350 . S
C2394 C2391 1.463 . S
C2394 N2398 1.427 . S
C2395 H2385 0.929 . S
C2395 C2393 1.433 . S
C2395 N2398 1.384 . S
C2396 H2387 0.929 . S
C2396 C2388 1.378 . S
C2396 C2391 1.350 . S
C2397 H2384 0.929 . S
C2397 C2389 1.433 . S
C2397 N2399 1.384 . S
N2398 C2394 1.427 . S
N2398 C2395 1.384 . S
N2399 C2391 1.427 . S
N2399 C2397 1.384 . S
H2400 C2406 0.930 . S
H2401 C2410 0.930 . S
H2402 C2415 0.929 . S
H2403 C2413 0.929 . S
H2404 C2408 0.929 . S
H2405 C2414 0.929 . S
C2406 H2400 0.930 . S
C2406 C2407 1.367 . S
C2406 C2414 1.378 . S
C2407 C2406 1.367 . S
C2407 C2415 1.433 . S
C2408 H2404 0.929 . S
C2408 C2410 1.378 . S
C2408 C2412 1.350 . S
C2409 C2412 1.463 . S
C2409 C2414 1.350 . S
C2409 N2417 1.427 . S
C2410 H2401 0.930 . S
C2410 C2408 1.378 . S
C2410 C2411 1.367 . S
C2411 C2410 1.367 . S
C2411 C2413 1.433 . S
C2412 C2408 1.350 . S
C2412 C2409 1.463 . S
C2412 N2416 1.427 . S
C2413 H2403 0.929 . S
C2413 C2411 1.433 . S
C2413 N2416 1.384 . S
C2414 H2405 0.929 . S
C2414 C2406 1.378 . S
C2414 C2409 1.350 . S
C2415 H2402 0.929 . S
C2415 C2407 1.433 . S
C2415 N2417 1.384 . S
N2416 C2412 1.427 . S
N2416 C2413 1.384 . S
N2417 C2409 1.427 . S
N2417 C2415 1.384 . S
H2418 C2424 0.930 . S
H2419 C2428 0.930 . S
H2420 C2433 0.929 . S
H2421 C2431 0.929 . S
H2422 C2426 0.929 . S
H2423 C2432 0.929 . S
C2424 H2418 0.930 . S
C2424 C2425 1.367 . S
C2424 C2432 1.378 . S
C2425 C2424 1.367 . S
C2425 C2433 1.433 . S
C2426 H2422 0.929 . S
C2426 C2428 1.378 . S
C2426 C2430 1.350 . S
C2427 C2430 1.463 . S
C2427 C2432 1.350 . S
C2427 N2435 1.427 . S
C2428 H2419 0.930 . S
C2428 C2426 1.378 . S
C2428 C2429 1.367 . S
C2429 C2428 1.367 . S
C2429 C2431 1.433 . S
C2430 C2426 1.350 . S
C2430 C2427 1.463 . S
C2430 N2434 1.427 . S
C2431 H2421 0.929 . S
C2431 C2429 1.433 . S
C2431 N2434 1.384 . S
C2432 H2423 0.929 . S
C2432 C2424 1.378 . S
C2432 C2427 1.350 . S
C2433 H2420 0.929 . S
C2433 C2425 1.433 . S
C2433 N2435 1.384 . S
N2434 C2430 1.427 . S
N2434 C2431 1.384 . S
N2435 C2427 1.427 . S
N2435 C2433 1.384 . S
H2436 C2442 0.930 . S
H2437 C2446 0.930 . S
H2438 C2451 0.929 . S
H2439 C2449 0.929 . S
H2440 C2444 0.929 . S
H2441 C2450 0.929 . S
C2442 H2436 0.930 . S
C2442 C2443 1.367 . S
C2442 C2450 1.378 . S
C2443 C2442 1.367 . S
C2443 C2451 1.433 . S
C2444 H2440 0.929 . S
C2444 C2446 1.378 . S
C2444 C2448 1.350 . S
C2445 C2448 1.463 . S
C2445 C2450 1.350 . S
C2445 N2453 1.427 . S
C2446 H2437 0.930 . S
C2446 C2444 1.378 . S
C2446 C2447 1.367 . S
C2447 C2446 1.367 . S
C2447 C2449 1.433 . S
C2448 C2444 1.350 . S
C2448 C2445 1.463 . S
C2448 N2452 1.427 . S
C2449 H2439 0.929 . S
C2449 C2447 1.433 . S
C2449 N2452 1.384 . S
C2450 H2441 0.929 . S
C2450 C2442 1.378 . S
C2450 C2445 1.350 . S
C2451 H2438 0.929 . S
C2451 C2443 1.433 . S
C2451 N2453 1.384 . S
N2452 C2448 1.427 . S
N2452 C2449 1.384 . S
N2453 C2445 1.427 . S
N2453 C2451 1.384 . S
H2454 C2460 0.930 . S
H2455 C2464 0.930 . S
H2456 C2469 0.929 . S
H2457 C2467 0.929 . S
H2458 C2462 0.929 . S
H2459 C2468 0.929 . S
C2460 H2454 0.930 . S
C2460 C2461 1.367 . S
C2460 C2468 1.378 . S
C2461 C2460 1.367 . S
C2461 C2469 1.433 . S
C2462 H2458 0.929 . S
C2462 C2464 1.378 . S
C2462 C2466 1.350 . S
C2463 C2466 1.463 . S
C2463 C2468 1.350 . S
C2463 N2471 1.427 . S
C2464 H2455 0.930 . S
C2464 C2462 1.378 . S
C2464 C2465 1.367 . S
C2465 C2464 1.367 . S
C2465 C2467 1.433 . S
C2466 C2462 1.350 . S
C2466 C2463 1.463 . S
C2466 N2470 1.427 . S
C2467 H2457 0.929 . S
C2467 C2465 1.433 . S
C2467 N2470 1.384 . S
C2468 H2459 0.929 . S
C2468 C2460 1.378 . S
C2468 C2463 1.350 . S
C2469 H2456 0.929 . S
C2469 C2461 1.433 . S
C2469 N2471 1.384 . S
N2470 C2466 1.427 . S
N2470 C2467 1.384 . S
N2471 C2463 1.427 . S
N2471 C2469 1.384 . S
H2472 C2478 0.930 1_545 S
H2473 C2482 0.930 . S
H2474 C2487 0.929 . S
H2475 C2485 0.929 . S
H2476 C2480 0.929 . S
H2477 C2486 0.929 . S
C2478 H2472 0.930 1_565 S
C2478 C2479 1.367 . S
C2478 C2486 1.378 . S
C2479 C2478 1.367 . S
C2479 C2487 1.433 . S
C2480 H2476 0.929 . S
C2480 C2482 1.378 . S
C2480 C2484 1.350 . S
C2481 C2484 1.463 . S
C2481 C2486 1.350 . S
C2481 N2489 1.427 . S
C2482 H2473 0.930 . S
C2482 C2480 1.378 . S
C2482 C2483 1.367 . S
C2483 C2482 1.367 . S
C2483 C2485 1.433 . S
C2484 C2480 1.350 . S
C2484 C2481 1.463 . S
C2484 N2488 1.427 . S
C2485 H2475 0.929 . S
C2485 C2483 1.433 . S
C2485 N2488 1.384 . S
C2486 H2477 0.929 . S
C2486 C2478 1.378 . S
C2486 C2481 1.350 . S
C2487 H2474 0.929 . S
C2487 C2479 1.433 . S
C2487 N2489 1.384 . S
N2488 C2484 1.427 . S
N2488 C2485 1.384 . S
N2489 C2481 1.427 . S
N2489 C2487 1.384 . S
H2490 C2496 0.930 . S
H2491 C2500 0.930 . S
H2492 C2505 0.929 . S
H2493 C2503 0.929 . S
H2494 C2498 0.929 . S
H2495 C2504 0.929 . S
C2496 H2490 0.930 . S
C2496 C2497 1.367 . S
C2496 C2504 1.378 . S
C2497 C2496 1.367 . S
C2497 C2505 1.433 . S
C2498 H2494 0.929 . S
C2498 C2500 1.378 . S
C2498 C2502 1.350 . S
C2499 C2502 1.463 . S
C2499 C2504 1.350 . S
C2499 N2507 1.427 . S
C2500 H2491 0.930 . S
C2500 C2498 1.378 . S
C2500 C2501 1.367 . S
C2501 C2500 1.367 . S
C2501 C2503 1.433 . S
C2502 C2498 1.350 . S
C2502 C2499 1.463 . S
C2502 N2506 1.427 . S
C2503 H2493 0.929 . S
C2503 C2501 1.433 . S
C2503 N2506 1.384 . S
C2504 H2495 0.929 . S
C2504 C2496 1.378 . S
C2504 C2499 1.350 . S
C2505 H2492 0.929 . S
C2505 C2497 1.433 . S
C2505 N2507 1.384 . S
N2506 C2502 1.427 . S
N2506 C2503 1.384 . S
N2507 C2499 1.427 . S
N2507 C2505 1.384 . S
H2508 C2514 0.930 . S
H2509 C2518 0.930 . S
H2510 C2523 0.929 . S
H2511 C2521 0.929 . S
H2512 C2516 0.929 . S
H2513 C2522 0.929 . S
C2514 H2508 0.930 . S
C2514 C2515 1.367 . S
C2514 C2522 1.378 . S
C2515 C2514 1.367 . S
C2515 C2523 1.433 . S
C2516 H2512 0.929 . S
C2516 C2518 1.378 . S
C2516 C2520 1.350 . S
C2517 C2520 1.463 . S
C2517 C2522 1.350 . S
C2517 N2525 1.427 . S
C2518 H2509 0.930 . S
C2518 C2516 1.378 . S
C2518 C2519 1.367 . S
C2519 C2518 1.367 . S
C2519 C2521 1.433 . S
C2520 C2516 1.350 . S
C2520 C2517 1.463 . S
C2520 N2524 1.427 . S
C2521 H2511 0.929 . S
C2521 C2519 1.433 . S
C2521 N2524 1.384 . S
C2522 H2513 0.929 . S
C2522 C2514 1.378 . S
C2522 C2517 1.350 . S
C2523 H2510 0.929 . S
C2523 C2515 1.433 . S
C2523 N2525 1.384 . S
N2524 C2520 1.427 . S
N2524 C2521 1.384 . S
N2525 C2517 1.427 . S
N2525 C2523 1.384 . S
H2526 C2532 0.930 . S
H2527 C2536 0.930 . S
H2528 C2541 0.929 . S
H2529 C2539 0.929 . S
H2530 C2534 0.929 . S
H2531 C2540 0.929 . S
C2532 H2526 0.930 . S
C2532 C2533 1.367 . S
C2532 C2540 1.378 . S
C2533 C2532 1.367 . S
C2533 C2541 1.433 . S
C2534 H2530 0.929 . S
C2534 C2536 1.378 . S
C2534 C2538 1.350 . S
C2535 C2538 1.463 . S
C2535 C2540 1.350 . S
C2535 N2543 1.427 . S
C2536 H2527 0.930 . S
C2536 C2534 1.378 . S
C2536 C2537 1.367 . S
C2537 C2536 1.367 . S
C2537 C2539 1.433 . S
C2538 C2534 1.350 . S
C2538 C2535 1.463 . S
C2538 N2542 1.427 . S
C2539 H2529 0.929 . S
C2539 C2537 1.433 . S
C2539 N2542 1.384 . S
C2540 H2531 0.929 . S
C2540 C2532 1.378 . S
C2540 C2535 1.350 . S
C2541 H2528 0.929 . S
C2541 C2533 1.433 . S
C2541 N2543 1.384 . S
N2542 C2538 1.427 . S
N2542 C2539 1.384 . S
N2543 C2535 1.427 . S
N2543 C2541 1.384 . S
H2544 C2550 0.930 . S
H2545 C2554 0.930 . S
H2546 C2559 0.929 . S
H2547 C2557 0.929 . S
H2548 C2552 0.929 . S
H2549 C2558 0.929 . S
C2550 H2544 0.930 . S
C2550 C2551 1.367 . S
C2550 C2558 1.378 . S
C2551 C2550 1.367 . S
C2551 C2559 1.433 . S
C2552 H2548 0.929 . S
C2552 C2554 1.378 . S
C2552 C2556 1.350 . S
C2553 C2556 1.463 . S
C2553 C2558 1.350 . S
C2553 N2561 1.427 . S
C2554 H2545 0.930 . S
C2554 C2552 1.378 . S
C2554 C2555 1.367 . S
C2555 C2554 1.367 . S
C2555 C2557 1.433 . S
C2556 C2552 1.350 . S
C2556 C2553 1.463 . S
C2556 N2560 1.427 . S
C2557 H2547 0.929 . S
C2557 C2555 1.433 . S
C2557 N2560 1.384 . S
C2558 H2549 0.929 . S
C2558 C2550 1.378 . S
C2558 C2553 1.350 . S
C2559 H2546 0.929 . S
C2559 C2551 1.433 . S
C2559 N2561 1.384 . S
N2560 C2556 1.427 . S
N2560 C2557 1.384 . S
N2561 C2553 1.427 . S
N2561 C2559 1.384 . S
H2562 C2568 0.930 . S
H2563 C2572 0.930 . S
H2564 C2577 0.929 . S
H2565 C2575 0.929 . S
H2566 C2570 0.929 . S
H2567 C2576 0.929 . S
C2568 H2562 0.930 . S
C2568 C2569 1.367 . S
C2568 C2576 1.378 . S
C2569 C2568 1.367 . S
C2569 C2577 1.433 . S
C2570 H2566 0.929 . S
C2570 C2572 1.378 . S
C2570 C2574 1.350 . S
C2571 C2574 1.463 . S
C2571 C2576 1.350 . S
C2571 N2579 1.427 . S
C2572 H2563 0.930 . S
C2572 C2570 1.378 . S
C2572 C2573 1.367 . S
C2573 C2572 1.367 . S
C2573 C2575 1.433 . S
C2574 C2570 1.350 . S
C2574 C2571 1.463 . S
C2574 N2578 1.427 . S
C2575 H2565 0.929 . S
C2575 C2573 1.433 . S
C2575 N2578 1.384 . S
C2576 H2567 0.929 . S
C2576 C2568 1.378 . S
C2576 C2571 1.350 . S
C2577 H2564 0.929 . S
C2577 C2569 1.433 . S
C2577 N2579 1.384 . S
N2578 C2574 1.427 . S
N2578 C2575 1.384 . S
N2579 C2571 1.427 . S
N2579 C2577 1.384 . S
H2580 C2586 0.930 . S
H2581 C2590 0.930 . S
H2582 C2595 0.929 . S
H2583 C2593 0.929 . S
H2584 C2588 0.929 . S
H2585 C2594 0.929 . S
C2586 H2580 0.930 . S
C2586 C2587 1.367 . S
C2586 C2594 1.378 . S
C2587 C2586 1.367 . S
C2587 C2595 1.433 1_556 S
C2588 H2584 0.929 . S
C2588 C2590 1.378 . S
C2588 C2592 1.350 . S
C2589 C2592 1.463 . S
C2589 C2594 1.350 1_554 S
C2589 N2597 1.427 . S
C2590 H2581 0.930 . S
C2590 C2588 1.378 . S
C2590 C2591 1.367 . S
C2591 C2590 1.367 . S
C2591 C2593 1.433 . S
C2592 C2588 1.350 . S
C2592 C2589 1.463 . S
C2592 N2596 1.427 . S
C2593 H2583 0.929 . S
C2593 C2591 1.433 . S
C2593 N2596 1.384 . S
C2594 H2585 0.929 . S
C2594 C2586 1.378 . S
C2594 C2589 1.350 1_556 S
C2595 H2582 0.929 . S
C2595 C2587 1.433 1_554 S
C2595 N2597 1.384 . S
N2596 C2592 1.427 . S
N2596 C2593 1.384 . S
N2597 C2589 1.427 . S
N2597 C2595 1.384 . S
H2598 C2604 0.930 1_455 S
H2599 C2608 0.930 . S
H2600 C2613 0.929 . S
H2601 C2611 0.929 . S
H2602 C2606 0.929 . S
H2603 C2612 0.929 . S
C2604 H2598 0.930 1_655 S
C2604 C2605 1.367 . S
C2604 C2612 1.378 . S
C2605 C2604 1.367 . S
C2605 C2613 1.433 . S
C2606 H2602 0.929 . S
C2606 C2608 1.378 . S
C2606 C2610 1.350 . S
C2607 C2610 1.463 . S
C2607 C2612 1.350 . S
C2607 N2615 1.427 . S
C2608 H2599 0.930 . S
C2608 C2606 1.378 . S
C2608 C2609 1.367 . S
C2609 C2608 1.367 . S
C2609 C2611 1.433 . S
C2610 C2606 1.350 . S
C2610 C2607 1.463 . S
C2610 N2614 1.427 . S
C2611 H2601 0.929 . S
C2611 C2609 1.433 . S
C2611 N2614 1.384 . S
C2612 H2603 0.929 . S
C2612 C2604 1.378 . S
C2612 C2607 1.350 . S
C2613 H2600 0.929 . S
C2613 C2605 1.433 . S
C2613 N2615 1.384 . S
N2614 C2610 1.427 . S
N2614 C2611 1.384 . S
N2615 C2607 1.427 . S
N2615 C2613 1.384 . S
H2616 C2622 0.930 . S
H2617 C2626 0.930 . S
H2618 C2631 0.929 . S
H2619 C2629 0.929 . S
H2620 C2624 0.929 . S
H2621 C2630 0.929 . S
C2622 H2616 0.930 . S
C2622 C2623 1.367 . S
C2622 C2630 1.378 . S
C2623 C2622 1.367 . S
C2623 C2631 1.433 . S
C2624 H2620 0.929 . S
C2624 C2626 1.378 . S
C2624 C2628 1.350 . S
C2625 C2628 1.463 . S
C2625 C2630 1.350 . S
C2625 N2633 1.427 . S
C2626 H2617 0.930 . S
C2626 C2624 1.378 . S
C2626 C2627 1.367 . S
C2627 C2626 1.367 . S
C2627 C2629 1.433 . S
C2628 C2624 1.350 . S
C2628 C2625 1.463 . S
C2628 N2632 1.427 . S
C2629 H2619 0.929 . S
C2629 C2627 1.433 . S
C2629 N2632 1.384 . S
C2630 H2621 0.929 . S
C2630 C2622 1.378 . S
C2630 C2625 1.350 . S
C2631 H2618 0.929 . S
C2631 C2623 1.433 . S
C2631 N2633 1.384 . S
N2632 C2628 1.427 . S
N2632 C2629 1.384 . S
N2633 C2625 1.427 . S
N2633 C2631 1.384 . S
H2634 C2640 0.930 . S
H2635 C2644 0.930 . S
H2636 C2649 0.929 . S
H2637 C2647 0.929 . S
H2638 C2642 0.929 . S
H2639 C2648 0.929 . S
C2640 H2634 0.930 . S
C2640 C2641 1.367 . S
C2640 C2648 1.378 . S
C2641 C2640 1.367 . S
C2641 C2649 1.433 . S
C2642 H2638 0.929 . S
C2642 C2644 1.378 . S
C2642 C2646 1.350 . S
C2643 C2646 1.463 . S
C2643 C2648 1.350 . S
C2643 N2651 1.427 . S
C2644 H2635 0.930 . S
C2644 C2642 1.378 . S
C2644 C2645 1.367 . S
C2645 C2644 1.367 . S
C2645 C2647 1.433 . S
C2646 C2642 1.350 . S
C2646 C2643 1.463 . S
C2646 N2650 1.427 . S
C2647 H2637 0.929 . S
C2647 C2645 1.433 . S
C2647 N2650 1.384 . S
C2648 H2639 0.929 . S
C2648 C2640 1.378 . S
C2648 C2643 1.350 . S
C2649 H2636 0.929 . S
C2649 C2641 1.433 . S
C2649 N2651 1.384 . S
N2650 C2646 1.427 . S
N2650 C2647 1.384 . S
N2651 C2643 1.427 . S
N2651 C2649 1.384 . S
H2652 C2658 0.930 . S
H2653 C2662 0.930 . S
H2654 C2667 0.929 . S
H2655 C2665 0.929 . S
H2656 C2660 0.929 . S
H2657 C2666 0.929 . S
C2658 H2652 0.930 . S
C2658 C2659 1.367 1_655 S
C2658 C2666 1.378 . S
C2659 C2658 1.367 1_455 S
C2659 C2667 1.433 . S
C2660 H2656 0.929 . S
C2660 C2662 1.378 . S
C2660 C2664 1.350 . S
C2661 C2664 1.463 . S
C2661 C2666 1.350 1_455 S
C2661 N2669 1.427 . S
C2662 H2653 0.930 . S
C2662 C2660 1.378 . S
C2662 C2663 1.367 . S
C2663 C2662 1.367 . S
C2663 C2665 1.433 1_455 S
C2664 C2660 1.350 . S
C2664 C2661 1.463 . S
C2664 N2668 1.427 1_455 S
C2665 H2655 0.929 . S
C2665 C2663 1.433 1_655 S
C2665 N2668 1.384 . S
C2666 H2657 0.929 . S
C2666 C2658 1.378 . S
C2666 C2661 1.350 1_655 S
C2667 H2654 0.929 . S
C2667 C2659 1.433 . S
C2667 N2669 1.384 . S
N2668 C2664 1.427 1_655 S
N2668 C2665 1.384 . S
N2669 C2661 1.427 . S
N2669 C2667 1.384 . S
H2670 C2676 0.930 . S
H2671 C2680 0.930 . S
H2672 C2685 0.929 . S
H2673 C2683 0.929 . S
H2674 C2678 0.929 . S
H2675 C2684 0.929 . S
C2676 H2670 0.930 . S
C2676 C2677 1.367 . S
C2676 C2684 1.378 . S
C2677 C2676 1.367 . S
C2677 C2685 1.433 . S
C2678 H2674 0.929 . S
C2678 C2680 1.378 . S
C2678 C2682 1.350 . S
C2679 C2682 1.463 . S
C2679 C2684 1.350 . S
C2679 N2687 1.427 . S
C2680 H2671 0.930 . S
C2680 C2678 1.378 . S
C2680 C2681 1.367 . S
C2681 C2680 1.367 . S
C2681 C2683 1.433 . S
C2682 C2678 1.350 . S
C2682 C2679 1.463 . S
C2682 N2686 1.427 . S
C2683 H2673 0.929 . S
C2683 C2681 1.433 . S
C2683 N2686 1.384 . S
C2684 H2675 0.929 . S
C2684 C2676 1.378 . S
C2684 C2679 1.350 . S
C2685 H2672 0.929 . S
C2685 C2677 1.433 . S
C2685 N2687 1.384 . S
N2686 C2682 1.427 . S
N2686 C2683 1.384 . S
N2687 C2679 1.427 . S
N2687 C2685 1.384 . S
H2688 C2694 0.930 . S
H2689 C2698 0.930 . S
H2690 C2703 0.929 . S
H2691 C2701 0.929 . S
H2692 C2696 0.929 . S
H2693 C2702 0.929 . S
C2694 H2688 0.930 . S
C2694 C2695 1.367 . S
C2694 C2702 1.378 . S
C2695 C2694 1.367 . S
C2695 C2703 1.433 . S
C2696 H2692 0.929 . S
C2696 C2698 1.378 . S
C2696 C2700 1.350 . S
C2697 C2700 1.463 . S
C2697 C2702 1.350 . S
C2697 N2705 1.427 . S
C2698 H2689 0.930 . S
C2698 C2696 1.378 . S
C2698 C2699 1.367 . S
C2699 C2698 1.367 . S
C2699 C2701 1.433 . S
C2700 C2696 1.350 . S
C2700 C2697 1.463 . S
C2700 N2704 1.427 . S
C2701 H2691 0.929 . S
C2701 C2699 1.433 . S
C2701 N2704 1.384 . S
C2702 H2693 0.929 . S
C2702 C2694 1.378 . S
C2702 C2697 1.350 . S
C2703 H2690 0.929 . S
C2703 C2695 1.433 . S
C2703 N2705 1.384 . S
N2704 C2700 1.427 . S
N2704 C2701 1.384 . S
N2705 C2697 1.427 . S
N2705 C2703 1.384 . S
H2706 C2712 0.930 . S
H2707 C2716 0.930 . S
H2708 C2721 0.929 . S
H2709 C2719 0.929 . S
H2710 C2714 0.929 . S
H2711 C2720 0.929 . S
C2712 H2706 0.930 . S
C2712 C2713 1.371 1_554 S
C2712 C2720 1.378 1_554 S
C2713 C2712 1.371 1_556 S
C2713 C2721 1.471 . S
C2714 H2710 0.929 . S
C2714 C2716 1.378 . S
C2714 C2718 1.350 . S
C2715 C2718 1.463 . S
C2715 C2720 1.350 . S
C2715 N2723 1.427 . S
C2716 H2707 0.930 . S
C2716 C2714 1.378 . S
C2716 C2717 1.367 . S
C2717 C2716 1.367 . S
C2717 C2719 1.433 . S
C2718 C2714 1.350 . S
C2718 C2715 1.463 . S
C2718 N2722 1.427 . S
C2719 H2709 0.929 . S
C2719 C2717 1.433 . S
C2719 N2722 1.384 . S
C2720 H2711 0.929 . S
C2720 C2712 1.378 1_556 S
C2720 C2715 1.350 . S
C2721 H2708 0.929 . S
C2721 C2713 1.471 . S
C2721 N2723 1.384 . S
N2722 C2718 1.427 . S
N2722 C2719 1.384 . S
N2723 C2715 1.427 . S
N2723 C2721 1.384 . S
H2724 C2730 0.930 . S
H2725 C2734 0.930 . S
H2726 C2739 0.929 . S
H2727 C2737 0.929 . S
H2728 C2732 0.929 . S
H2729 C2738 0.929 . S
C2730 H2724 0.930 . S
C2730 C2731 1.367 . S
C2730 C2738 1.378 . S
C2731 C2730 1.367 . S
C2731 C2739 1.433 . S
C2732 H2728 0.929 . S
C2732 C2734 1.378 . S
C2732 C2736 1.350 . S
C2733 C2736 1.463 . S
C2733 C2738 1.350 . S
C2733 N2741 1.427 . S
C2734 H2725 0.930 . S
C2734 C2732 1.378 . S
C2734 C2735 1.367 . S
C2735 C2734 1.367 . S
C2735 C2737 1.433 . S
C2736 C2732 1.350 . S
C2736 C2733 1.463 . S
C2736 N2740 1.427 . S
C2737 H2727 0.929 . S
C2737 C2735 1.433 . S
C2737 N2740 1.384 . S
C2738 H2729 0.929 . S
C2738 C2730 1.378 . S
C2738 C2733 1.350 . S
C2739 H2726 0.929 . S
C2739 C2731 1.433 . S
C2739 N2741 1.384 . S
N2740 C2736 1.427 . S
N2740 C2737 1.384 . S
N2741 C2733 1.427 . S
N2741 C2739 1.384 . S
H2742 C2748 0.930 . S
H2743 C2752 0.930 . S
H2744 C2757 0.929 . S
H2745 C2755 0.929 . S
H2746 C2750 0.929 . S
H2747 C2756 0.929 . S
C2748 H2742 0.930 . S
C2748 C2749 1.367 . S
C2748 C2756 1.378 . S
C2749 C2748 1.367 . S
C2749 C2757 1.433 . S
C2750 H2746 0.929 . S
C2750 C2752 1.378 . S
C2750 C2754 1.350 . S
C2751 C2754 1.463 . S
C2751 C2756 1.350 . S
C2751 N2759 1.427 . S
C2752 H2743 0.930 . S
C2752 C2750 1.378 . S
C2752 C2753 1.367 . S
C2753 C2752 1.367 . S
C2753 C2755 1.433 . S
C2754 C2750 1.350 . S
C2754 C2751 1.463 . S
C2754 N2758 1.427 . S
C2755 H2745 0.929 . S
C2755 C2753 1.433 . S
C2755 N2758 1.384 . S
C2756 H2747 0.929 . S
C2756 C2748 1.378 . S
C2756 C2751 1.350 . S
C2757 H2744 0.929 . S
C2757 C2749 1.433 . S
C2757 N2759 1.384 . S
N2758 C2754 1.427 . S
N2758 C2755 1.384 . S
N2759 C2751 1.427 . S
N2759 C2757 1.384 . S
H2760 C2766 0.930 . S
H2761 C2770 0.930 . S
H2762 C2775 0.929 . S
H2763 C2773 0.929 . S
H2764 C2768 0.929 . S
H2765 C2774 0.929 . S
C2766 H2760 0.930 . S
C2766 C2767 1.367 . S
C2766 C2774 1.378 . S
C2767 C2766 1.367 . S
C2767 C2775 1.433 . S
C2768 H2764 0.929 . S
C2768 C2770 1.378 . S
C2768 C2772 1.350 . S
C2769 C2772 1.463 . S
C2769 C2774 1.350 . S
C2769 N2777 1.427 . S
C2770 H2761 0.930 . S
C2770 C2768 1.378 . S
C2770 C2771 1.367 . S
C2771 C2770 1.367 . S
C2771 C2773 1.433 . S
C2772 C2768 1.350 . S
C2772 C2769 1.463 . S
C2772 N2776 1.427 . S
C2773 H2763 0.929 . S
C2773 C2771 1.433 . S
C2773 N2776 1.384 . S
C2774 H2765 0.929 . S
C2774 C2766 1.378 . S
C2774 C2769 1.350 . S
C2775 H2762 0.929 . S
C2775 C2767 1.433 . S
C2775 N2777 1.384 . S
N2776 C2772 1.427 . S
N2776 C2773 1.384 . S
N2777 C2769 1.427 . S
N2777 C2775 1.384 . S
H2778 C2784 0.930 . S
H2779 C2788 0.930 . S
H2780 C2793 0.929 . S
H2781 C2791 0.929 . S
H2782 C2786 0.929 . S
H2783 C2792 0.929 . S
C2784 H2778 0.930 . S
C2784 C2785 1.367 . S
C2784 C2792 1.378 . S
C2785 C2784 1.367 . S
C2785 C2793 1.433 . S
C2786 H2782 0.929 . S
C2786 C2788 1.378 . S
C2786 C2790 1.350 . S
C2787 C2790 1.463 . S
C2787 C2792 1.350 . S
C2787 N2795 1.427 . S
C2788 H2779 0.930 . S
C2788 C2786 1.378 . S
C2788 C2789 1.367 . S
C2789 C2788 1.367 . S
C2789 C2791 1.433 . S
C2790 C2786 1.350 . S
C2790 C2787 1.463 . S
C2790 N2794 1.427 . S
C2791 H2781 0.929 . S
C2791 C2789 1.433 . S
C2791 N2794 1.384 . S
C2792 H2783 0.929 . S
C2792 C2784 1.378 . S
C2792 C2787 1.350 . S
C2793 H2780 0.929 . S
C2793 C2785 1.433 . S
C2793 N2795 1.384 . S
N2794 C2790 1.427 . S
N2794 C2791 1.384 . S
N2795 C2787 1.427 . S
N2795 C2793 1.384 . S
H2796 C2802 0.930 . S
H2797 C2806 0.930 . S
H2798 C2811 0.929 . S
H2799 C2809 0.929 . S
H2800 C2804 0.929 . S
H2801 C2810 0.929 . S
C2802 H2796 0.930 . S
C2802 C2803 1.367 . S
C2802 C2810 1.378 . S
C2803 C2802 1.367 . S
C2803 C2811 1.433 . S
C2804 H2800 0.929 . S
C2804 C2806 1.378 . S
C2804 C2808 1.350 . S
C2805 C2808 1.463 . S
C2805 C2810 1.350 . S
C2805 N2813 1.427 . S
C2806 H2797 0.930 . S
C2806 C2804 1.378 . S
C2806 C2807 1.367 . S
C2807 C2806 1.367 . S
C2807 C2809 1.433 . S
C2808 C2804 1.350 . S
C2808 C2805 1.463 . S
C2808 N2812 1.427 . S
C2809 H2799 0.929 . S
C2809 C2807 1.433 . S
C2809 N2812 1.384 . S
C2810 H2801 0.929 . S
C2810 C2802 1.378 . S
C2810 C2805 1.350 . S
C2811 H2798 0.929 . S
C2811 C2803 1.433 . S
C2811 N2813 1.384 . S
N2812 C2808 1.427 . S
N2812 C2809 1.384 . S
N2813 C2805 1.427 . S
N2813 C2811 1.384 . S
H2814 C2820 0.930 . S
H2815 C2824 0.930 . S
H2816 C2829 0.929 . S
H2817 C2827 0.929 . S
H2818 C2822 0.929 . S
H2819 C2828 0.929 . S
C2820 H2814 0.930 . S
C2820 C2821 1.367 . S
C2820 C2828 1.378 . S
C2821 C2820 1.367 . S
C2821 C2829 1.433 . S
C2822 H2818 0.929 . S
C2822 C2824 1.378 . S
C2822 C2826 1.350 . S
C2823 C2826 1.463 . S
C2823 C2828 1.350 . S
C2823 N2831 1.427 . S
C2824 H2815 0.930 . S
C2824 C2822 1.378 . S
C2824 C2825 1.367 . S
C2825 C2824 1.367 . S
C2825 C2827 1.433 . S
C2826 C2822 1.350 . S
C2826 C2823 1.463 . S
C2826 N2830 1.427 . S
C2827 H2817 0.929 . S
C2827 C2825 1.433 . S
C2827 N2830 1.384 . S
C2828 H2819 0.929 . S
C2828 C2820 1.378 . S
C2828 C2823 1.350 . S
C2829 H2816 0.929 . S
C2829 C2821 1.433 . S
C2829 N2831 1.384 . S
N2830 C2826 1.427 . S
N2830 C2827 1.384 . S
N2831 C2823 1.427 . S
N2831 C2829 1.384 . S
H2832 C2838 0.930 . S
H2833 C2842 0.930 . S
H2834 C2847 0.929 . S
H2835 C2845 0.929 . S
H2836 C2840 0.929 . S
H2837 C2846 0.929 . S
C2838 H2832 0.930 . S
C2838 C2839 1.367 . S
C2838 C2846 1.378 . S
C2839 C2838 1.367 . S
C2839 C2847 1.433 . S
C2840 H2836 0.929 . S
C2840 C2842 1.378 . S
C2840 C2844 1.350 . S
C2841 C2844 1.463 . S
C2841 C2846 1.350 . S
C2841 N2849 1.427 . S
C2842 H2833 0.930 . S
C2842 C2840 1.378 . S
C2842 C2843 1.367 . S
C2843 C2842 1.367 . S
C2843 C2845 1.433 . S
C2844 C2840 1.350 . S
C2844 C2841 1.463 . S
C2844 N2848 1.427 . S
C2845 H2835 0.929 . S
C2845 C2843 1.433 . S
C2845 N2848 1.384 . S
C2846 H2837 0.929 . S
C2846 C2838 1.378 . S
C2846 C2841 1.350 . S
C2847 H2834 0.929 . S
C2847 C2839 1.433 . S
C2847 N2849 1.384 . S
N2848 C2844 1.427 . S
N2848 C2845 1.384 . S
N2849 C2841 1.427 . S
N2849 C2847 1.384 . S
H2850 C2856 0.930 . S
H2851 C2860 0.930 . S
H2852 C2865 0.929 . S
H2853 C2863 0.929 . S
H2854 C2858 0.929 . S
H2855 C2864 0.929 . S
C2856 H2850 0.930 . S
C2856 C2857 1.367 . S
C2856 C2864 1.378 . S
C2857 C2856 1.367 . S
C2857 C2865 1.433 . S
C2858 H2854 0.929 . S
C2858 C2860 1.378 . S
C2858 C2862 1.350 . S
C2859 C2862 1.463 . S
C2859 C2864 1.350 . S
C2859 N2867 1.427 . S
C2860 H2851 0.930 . S
C2860 C2858 1.378 . S
C2860 C2861 1.367 . S
C2861 C2860 1.367 . S
C2861 C2863 1.433 . S
C2862 C2858 1.350 . S
C2862 C2859 1.463 . S
C2862 N2866 1.427 . S
C2863 H2853 0.929 . S
C2863 C2861 1.433 . S
C2863 N2866 1.384 . S
C2864 H2855 0.929 . S
C2864 C2856 1.378 . S
C2864 C2859 1.350 . S
C2865 H2852 0.929 . S
C2865 C2857 1.433 . S
C2865 N2867 1.384 . S
N2866 C2862 1.427 . S
N2866 C2863 1.384 . S
N2867 C2859 1.427 . S
N2867 C2865 1.384 . S
H2868 C2874 0.930 . S
H2869 C2878 0.930 . S
H2870 C2883 0.929 1_545 S
H2871 C2881 0.929 . S
H2872 C2876 0.929 . S
H2873 C2882 0.929 . S
C2874 H2868 0.930 . S
C2874 C2875 1.367 . S
C2874 C2882 1.378 . S
C2875 C2874 1.367 . S
C2875 C2883 1.433 . S
C2876 H2872 0.929 . S
C2876 C2878 1.378 . S
C2876 C2880 1.350 . S
C2877 C2880 1.463 . S
C2877 C2882 1.350 . S
C2877 N2885 1.427 . S
C2878 H2869 0.930 . S
C2878 C2876 1.378 . S
C2878 C2879 1.367 . S
C2879 C2878 1.367 . S
C2879 C2881 1.433 . S
C2880 C2876 1.350 . S
C2880 C2877 1.463 . S
C2880 N2884 1.427 . S
C2881 H2871 0.929 . S
C2881 C2879 1.433 . S
C2881 N2884 1.384 . S
C2882 H2873 0.929 . S
C2882 C2874 1.378 . S
C2882 C2877 1.350 . S
C2883 H2870 0.929 1_565 S
C2883 C2875 1.433 . S
C2883 N2885 1.384 . S
N2884 C2880 1.427 . S
N2884 C2881 1.384 . S
N2885 C2877 1.427 . S
N2885 C2883 1.384 . S
H2886 C2892 0.930 1_556 S
H2887 C2896 0.930 . S
H2888 C2901 0.929 . S
H2889 C2899 0.929 . S
H2890 C2894 0.929 . S
H2891 C2900 0.929 . S
C2892 H2886 0.930 1_554 S
C2892 C2893 1.367 . S
C2892 C2900 1.378 . S
C2893 C2892 1.367 . S
C2893 C2901 1.433 . S
C2894 H2890 0.929 . S
C2894 C2896 1.378 . S
C2894 C2898 1.350 1_545 S
C2895 C2898 1.463 . S
C2895 C2900 1.350 . S
C2895 N2903 1.427 . S
C2896 H2887 0.930 . S
C2896 C2894 1.378 . S
C2896 C2897 1.367 . S
C2897 C2896 1.367 . S
C2897 C2899 1.433 1_545 S
C2898 C2894 1.350 1_565 S
C2898 C2895 1.463 . S
C2898 N2902 1.427 . S
C2899 H2889 0.929 . S
C2899 C2897 1.433 1_565 S
C2899 N2902 1.384 . S
C2900 H2891 0.929 . S
C2900 C2892 1.378 . S
C2900 C2895 1.350 . S
C2901 H2888 0.929 . S
C2901 C2893 1.433 . S
C2901 N2903 1.384 . S
N2902 C2898 1.427 . S
N2902 C2899 1.384 . S
N2903 C2895 1.427 . S
N2903 C2901 1.384 . S
H2904 C2910 0.930 . S
H2905 C2914 0.930 . S
H2906 C2919 0.929 . S
H2907 C2917 0.929 . S
H2908 C2912 0.929 . S
H2909 C2918 0.929 . S
C2910 H2904 0.930 . S
C2910 C2911 1.367 . S
C2910 C2918 1.378 . S
C2911 C2910 1.367 . S
C2911 C2919 1.433 . S
C2912 H2908 0.929 . S
C2912 C2914 1.378 . S
C2912 C2916 1.350 . S
C2913 C2916 1.463 . S
C2913 C2918 1.350 . S
C2913 N2921 1.427 . S
C2914 H2905 0.930 . S
C2914 C2912 1.378 . S
C2914 C2915 1.367 . S
C2915 C2914 1.367 . S
C2915 C2917 1.433 . S
C2916 C2912 1.350 . S
C2916 C2913 1.463 . S
C2916 N2920 1.427 . S
C2917 H2907 0.929 . S
C2917 C2915 1.433 . S
C2917 N2920 1.384 . S
C2918 H2909 0.929 . S
C2918 C2910 1.378 . S
C2918 C2913 1.350 . S
C2919 H2906 0.929 . S
C2919 C2911 1.433 . S
C2919 N2921 1.384 . S
N2920 C2916 1.427 . S
N2920 C2917 1.384 . S
N2921 C2913 1.427 . S
N2921 C2919 1.384 . S
H2922 C2928 0.930 . S
H2923 C2932 0.930 . S
H2924 C2937 0.929 . S
H2925 C2935 0.929 . S
H2926 C2930 0.929 . S
H2927 C2936 0.929 . S
C2928 H2922 0.930 . S
C2928 C2929 1.367 . S
C2928 C2936 1.378 . S
C2929 C2928 1.367 . S
C2929 C2937 1.433 . S
C2930 H2926 0.929 . S
C2930 C2932 1.378 . S
C2930 C2934 1.350 . S
C2931 C2934 1.463 . S
C2931 C2936 1.350 . S
C2931 N2939 1.427 . S
C2932 H2923 0.930 . S
C2932 C2930 1.378 . S
C2932 C2933 1.367 . S
C2933 C2932 1.367 . S
C2933 C2935 1.433 . S
C2934 C2930 1.350 . S
C2934 C2931 1.463 . S
C2934 N2938 1.427 . S
C2935 H2925 0.929 . S
C2935 C2933 1.433 . S
C2935 N2938 1.384 . S
C2936 H2927 0.929 . S
C2936 C2928 1.378 . S
C2936 C2931 1.350 . S
C2937 H2924 0.929 . S
C2937 C2929 1.433 . S
C2937 N2939 1.384 . S
N2938 C2934 1.427 . S
N2938 C2935 1.384 . S
N2939 C2931 1.427 . S
N2939 C2937 1.384 . S
H2940 C2946 0.930 . S
H2941 C2950 0.930 . S
H2942 C2955 0.929 . S
H2943 C2953 0.929 . S
H2944 C2948 0.929 . S
H2945 C2954 0.929 . S
C2946 H2940 0.930 . S
C2946 C2947 1.367 . S
C2946 C2954 1.378 . S
C2947 C2946 1.367 . S
C2947 C2955 1.433 . S
C2948 H2944 0.929 . S
C2948 C2950 1.378 . S
C2948 C2952 1.350 . S
C2949 C2952 1.463 . S
C2949 C2954 1.350 . S
C2949 N2957 1.427 . S
C2950 H2941 0.930 . S
C2950 C2948 1.378 . S
C2950 C2951 1.367 . S
C2951 C2950 1.367 . S
C2951 C2953 1.433 . S
C2952 C2948 1.350 . S
C2952 C2949 1.463 . S
C2952 N2956 1.427 . S
C2953 H2943 0.929 . S
C2953 C2951 1.433 . S
C2953 N2956 1.384 . S
C2954 H2945 0.929 . S
C2954 C2946 1.378 . S
C2954 C2949 1.350 . S
C2955 H2942 0.929 . S
C2955 C2947 1.433 . S
C2955 N2957 1.384 . S
N2956 C2952 1.427 . S
N2956 C2953 1.384 . S
N2957 C2949 1.427 . S
N2957 C2955 1.384 . S
H2958 C2964 0.930 . S
H2959 C2968 0.930 . S
H2960 C2973 0.929 . S
H2961 C2971 0.929 . S
H2962 C2966 0.929 . S
H2963 C2972 0.929 . S
C2964 H2958 0.930 . S
C2964 C2965 1.367 . S
C2964 C2972 1.378 . S
C2965 C2964 1.367 . S
C2965 C2973 1.433 . S
C2966 H2962 0.929 . S
C2966 C2968 1.378 . S
C2966 C2970 1.350 . S
C2967 C2970 1.463 . S
C2967 C2972 1.350 . S
C2967 N2975 1.427 . S
C2968 H2959 0.930 . S
C2968 C2966 1.378 . S
C2968 C2969 1.367 . S
C2969 C2968 1.367 . S
C2969 C2971 1.433 . S
C2970 C2966 1.350 . S
C2970 C2967 1.463 . S
C2970 N2974 1.427 . S
C2971 H2961 0.929 . S
C2971 C2969 1.433 . S
C2971 N2974 1.384 . S
C2972 H2963 0.929 . S
C2972 C2964 1.378 . S
C2972 C2967 1.350 . S
C2973 H2960 0.929 . S
C2973 C2965 1.433 . S
C2973 N2975 1.384 . S
N2974 C2970 1.427 . S
N2974 C2971 1.384 . S
N2975 C2967 1.427 . S
N2975 C2973 1.384 . S
H2976 C2982 0.930 . S
H2977 C2986 0.930 . S
H2978 C2991 0.929 . S
H2979 C2989 0.929 . S
H2980 C2984 0.929 . S
H2981 C2990 0.929 . S
C2982 H2976 0.930 . S
C2982 C2983 1.367 . S
C2982 C2990 1.378 . S
C2983 C2982 1.367 . S
C2983 C2991 1.433 . S
C2984 H2980 0.929 . S
C2984 C2986 1.378 . S
C2984 C2988 1.350 . S
C2985 C2988 1.463 . S
C2985 C2990 1.350 . S
C2985 N2993 1.427 . S
C2986 H2977 0.930 . S
C2986 C2984 1.378 . S
C2986 C2987 1.367 . S
C2987 C2986 1.367 . S
C2987 C2989 1.433 . S
C2988 C2984 1.350 . S
C2988 C2985 1.463 . S
C2988 N2992 1.427 . S
C2989 H2979 0.929 . S
C2989 C2987 1.433 . S
C2989 N2992 1.384 . S
C2990 H2981 0.929 . S
C2990 C2982 1.378 . S
C2990 C2985 1.350 . S
C2991 H2978 0.929 . S
C2991 C2983 1.433 . S
C2991 N2993 1.384 . S
N2992 C2988 1.427 . S
N2992 C2989 1.384 . S
N2993 C2985 1.427 . S
N2993 C2991 1.384 . S
H2994 C3000 0.930 . S
H2995 C3004 0.930 . S
H2996 C3009 0.929 . S
H2997 C3007 0.929 . S
H2998 C3002 0.929 . S
H2999 C3008 0.929 . S
C3000 H2994 0.930 . S
C3000 C3001 1.367 . S
C3000 C3008 1.378 . S
C3001 C3000 1.367 . S
C3001 C3009 1.433 . S
C3002 H2998 0.929 . S
C3002 C3004 1.378 . S
C3002 C3006 1.350 . S
C3003 C3006 1.463 . S
C3003 C3008 1.350 . S
C3003 N3011 1.427 . S
C3004 H2995 0.930 . S
C3004 C3002 1.378 . S
C3004 C3005 1.367 . S
C3005 C3004 1.367 . S
C3005 C3007 1.433 . S
C3006 C3002 1.350 . S
C3006 C3003 1.463 . S
C3006 N3010 1.427 . S
C3007 H2997 0.929 . S
C3007 C3005 1.433 . S
C3007 N3010 1.384 . S
C3008 H2999 0.929 . S
C3008 C3000 1.378 . S
C3008 C3003 1.350 . S
C3009 H2996 0.929 . S
C3009 C3001 1.433 . S
C3009 N3011 1.384 . S
N3010 C3006 1.427 . S
N3010 C3007 1.384 . S
N3011 C3003 1.427 . S
N3011 C3009 1.384 . S
H3012 C3018 0.930 . S
H3013 C3022 0.930 . S
H3014 C3027 0.929 . S
H3015 C3025 0.929 . S
H3016 C3020 0.929 . S
H3017 C3026 0.929 . S
C3018 H3012 0.930 . S
C3018 C3019 1.367 . S
C3018 C3026 1.378 . S
C3019 C3018 1.367 . S
C3019 C3027 1.433 . S
C3020 H3016 0.929 . S
C3020 C3022 1.378 . S
C3020 C3024 1.350 . S
C3021 C3024 1.463 . S
C3021 C3026 1.350 . S
C3021 N3029 1.427 . S
C3022 H3013 0.930 . S
C3022 C3020 1.378 . S
C3022 C3023 1.367 . S
C3023 C3022 1.367 . S
C3023 C3025 1.433 . S
C3024 C3020 1.350 . S
C3024 C3021 1.463 . S
C3024 N3028 1.427 . S
C3025 H3015 0.929 . S
C3025 C3023 1.433 . S
C3025 N3028 1.384 . S
C3026 H3017 0.929 . S
C3026 C3018 1.378 . S
C3026 C3021 1.350 . S
C3027 H3014 0.929 . S
C3027 C3019 1.433 . S
C3027 N3029 1.384 . S
N3028 C3024 1.427 . S
N3028 C3025 1.384 . S
N3029 C3021 1.427 . S
N3029 C3027 1.384 . S
H3030 C3036 0.930 . S
H3031 C3040 0.930 . S
H3032 C3045 0.929 . S
H3033 C3043 0.929 . S
H3034 C3038 0.929 . S
H3035 C3044 0.929 . S
C3036 H3030 0.930 . S
C3036 C3037 1.367 . S
C3036 C3044 1.378 . S
C3037 C3036 1.367 . S
C3037 C3045 1.433 . S
C3038 H3034 0.929 . S
C3038 C3040 1.378 . S
C3038 C3042 1.350 . S
C3039 C3042 1.463 . S
C3039 C3044 1.350 . S
C3039 N3047 1.427 . S
C3040 H3031 0.930 . S
C3040 C3038 1.378 . S
C3040 C3041 1.367 . S
C3041 C3040 1.367 . S
C3041 C3043 1.433 . S
C3042 C3038 1.350 . S
C3042 C3039 1.463 . S
C3042 N3046 1.427 . S
C3043 H3033 0.929 . S
C3043 C3041 1.433 . S
C3043 N3046 1.384 . S
C3044 H3035 0.929 . S
C3044 C3036 1.378 . S
C3044 C3039 1.350 . S
C3045 H3032 0.929 . S
C3045 C3037 1.433 . S
C3045 N3047 1.384 . S
N3046 C3042 1.427 . S
N3046 C3043 1.384 . S
N3047 C3039 1.427 . S
N3047 C3045 1.384 . S
H3048 C3054 0.930 . S
H3049 C3058 0.930 1_554 S
H3050 C3063 0.929 . S
H3051 C3061 0.929 . S
H3052 C3056 0.929 . S
H3053 C3062 0.929 . S
C3054 H3048 0.930 . S
C3054 C3055 1.367 . S
C3054 C3062 1.378 . S
C3055 C3054 1.367 . S
C3055 C3063 1.433 . S
C3056 H3052 0.929 . S
C3056 C3058 1.378 . S
C3056 C3060 1.350 . S
C3057 C3060 1.463 . S
C3057 C3062 1.350 . S
C3057 N3065 1.427 . S
C3058 H3049 0.930 1_556 S
C3058 C3056 1.378 . S
C3058 C3059 1.367 . S
C3059 C3058 1.367 . S
C3059 C3061 1.433 . S
C3060 C3056 1.350 . S
C3060 C3057 1.463 . S
C3060 N3064 1.427 . S
C3061 H3051 0.929 . S
C3061 C3059 1.433 . S
C3061 N3064 1.384 . S
C3062 H3053 0.929 . S
C3062 C3054 1.378 . S
C3062 C3057 1.350 . S
C3063 H3050 0.929 . S
C3063 C3055 1.433 . S
C3063 N3065 1.384 . S
N3064 C3060 1.427 . S
N3064 C3061 1.384 . S
N3065 C3057 1.427 . S
N3065 C3063 1.384 . S
H3066 C3072 0.930 . S
H3067 C3076 0.930 . S
H3068 C3081 0.929 . S
H3069 C3079 0.929 . S
H3070 C3074 0.929 . S
H3071 C3080 0.929 . S
C3072 H3066 0.930 . S
C3072 C3073 1.367 . S
C3072 C3080 1.378 . S
C3073 C3072 1.367 . S
C3073 C3081 1.433 . S
C3074 H3070 0.929 . S
C3074 C3076 1.378 . S
C3074 C3078 1.350 . S
C3075 C3078 1.463 . S
C3075 C3080 1.350 . S
C3075 N3083 1.427 . S
C3076 H3067 0.930 . S
C3076 C3074 1.378 . S
C3076 C3077 1.367 . S
C3077 C3076 1.367 . S
C3077 C3079 1.433 . S
C3078 C3074 1.350 . S
C3078 C3075 1.463 . S
C3078 N3082 1.427 . S
C3079 H3069 0.929 . S
C3079 C3077 1.433 . S
C3079 N3082 1.384 . S
C3080 H3071 0.929 . S
C3080 C3072 1.378 . S
C3080 C3075 1.350 . S
C3081 H3068 0.929 . S
C3081 C3073 1.433 . S
C3081 N3083 1.384 . S
N3082 C3078 1.427 . S
N3082 C3079 1.384 . S
N3083 C3075 1.427 . S
N3083 C3081 1.384 . S
H3084 C3090 0.930 . S
H3085 C3094 0.930 . S
H3086 C3099 0.929 . S
H3087 C3097 0.929 . S
H3088 C3092 0.929 . S
H3089 C3098 0.929 . S
C3090 H3084 0.930 . S
C3090 C3091 1.367 . S
C3090 C3098 1.378 . S
C3091 C3090 1.367 . S
C3091 C3099 1.433 . S
C3092 H3088 0.929 . S
C3092 C3094 1.378 . S
C3092 C3096 1.350 . S
C3093 C3096 1.463 . S
C3093 C3098 1.350 . S
C3093 N3101 1.427 . S
C3094 H3085 0.930 . S
C3094 C3092 1.378 . S
C3094 C3095 1.367 . S
C3095 C3094 1.367 . S
C3095 C3097 1.433 . S
C3096 C3092 1.350 . S
C3096 C3093 1.463 . S
C3096 N3100 1.427 . S
C3097 H3087 0.929 . S
C3097 C3095 1.433 . S
C3097 N3100 1.384 . S
C3098 H3089 0.929 . S
C3098 C3090 1.378 . S
C3098 C3093 1.350 . S
C3099 H3086 0.929 . S
C3099 C3091 1.433 . S
C3099 N3101 1.384 . S
N3100 C3096 1.427 . S
N3100 C3097 1.384 . S
N3101 C3093 1.427 . S
N3101 C3099 1.384 . S
H3102 C3108 0.930 . S
H3103 C3112 0.930 . S
H3104 C3117 0.929 . S
H3105 C3115 0.929 . S
H3106 C3110 0.929 . S
H3107 C3116 0.929 . S
C3108 H3102 0.930 . S
C3108 C3109 1.367 . S
C3108 C3116 1.378 . S
C3109 C3108 1.367 . S
C3109 C3117 1.433 . S
C3110 H3106 0.929 . S
C3110 C3112 1.378 . S
C3110 C3114 1.350 . S
C3111 C3114 1.463 . S
C3111 C3116 1.350 . S
C3111 N3119 1.427 . S
C3112 H3103 0.930 . S
C3112 C3110 1.378 . S
C3112 C3113 1.367 . S
C3113 C3112 1.367 . S
C3113 C3115 1.433 . S
C3114 C3110 1.350 . S
C3114 C3111 1.463 . S
C3114 N3118 1.427 . S
C3115 H3105 0.929 . S
C3115 C3113 1.433 . S
C3115 N3118 1.384 . S
C3116 H3107 0.929 . S
C3116 C3108 1.378 . S
C3116 C3111 1.350 . S
C3117 H3104 0.929 . S
C3117 C3109 1.433 . S
C3117 N3119 1.384 . S
N3118 C3114 1.427 . S
N3118 C3115 1.384 . S
N3119 C3111 1.427 . S
N3119 C3117 1.384 . S
H3120 C3126 0.930 . S
H3121 C3130 0.930 . S
H3122 C3135 0.929 . S
H3123 C3133 0.929 . S
H3124 C3128 0.929 . S
H3125 C3134 0.929 . S
C3126 H3120 0.930 . S
C3126 C3127 1.367 . S
C3126 C3134 1.378 . S
C3127 C3126 1.367 . S
C3127 C3135 1.433 . S
C3128 H3124 0.929 . S
C3128 C3130 1.378 . S
C3128 C3132 1.350 . S
C3129 C3132 1.463 . S
C3129 C3134 1.350 . S
C3129 N3137 1.427 . S
C3130 H3121 0.930 . S
C3130 C3128 1.378 . S
C3130 C3131 1.367 . S
C3131 C3130 1.367 . S
C3131 C3133 1.433 . S
C3132 C3128 1.350 . S
C3132 C3129 1.463 . S
C3132 N3136 1.427 . S
C3133 H3123 0.929 . S
C3133 C3131 1.433 . S
C3133 N3136 1.384 . S
C3134 H3125 0.929 . S
C3134 C3126 1.378 . S
C3134 C3129 1.350 . S
C3135 H3122 0.929 . S
C3135 C3127 1.433 . S
C3135 N3137 1.384 . S
N3136 C3132 1.427 . S
N3136 C3133 1.384 . S
N3137 C3129 1.427 . S
N3137 C3135 1.384 . S
H3138 C3144 0.930 . S
H3139 C3148 0.930 . S
H3140 C3153 0.929 . S
H3141 C3151 0.929 . S
H3142 C3146 0.929 . S
H3143 C3152 0.929 . S
C3144 H3138 0.930 . S
C3144 C3145 1.367 . S
C3144 C3152 1.378 . S
C3145 C3144 1.367 . S
C3145 C3153 1.433 . S
C3146 H3142 0.929 . S
C3146 C3148 1.378 . S
C3146 C3150 1.350 . S
C3147 C3150 1.463 . S
C3147 C3152 1.350 . S
C3147 N3155 1.427 . S
C3148 H3139 0.930 . S
C3148 C3146 1.378 . S
C3148 C3149 1.367 . S
C3149 C3148 1.367 . S
C3149 C3151 1.433 . S
C3150 C3146 1.350 . S
C3150 C3147 1.463 . S
C3150 N3154 1.427 . S
C3151 H3141 0.929 . S
C3151 C3149 1.433 . S
C3151 N3154 1.384 . S
C3152 H3143 0.929 . S
C3152 C3144 1.378 . S
C3152 C3147 1.350 . S
C3153 H3140 0.929 . S
C3153 C3145 1.433 . S
C3153 N3155 1.384 . S
N3154 C3150 1.427 . S
N3154 C3151 1.384 . S
N3155 C3147 1.427 . S
N3155 C3153 1.384 . S
H3156 C3162 0.930 . S
H3157 C3166 0.930 1_455 S
H3158 C3171 0.929 . S
H3159 C3169 0.929 . S
H3160 C3164 0.929 . S
H3161 C3170 0.929 . S
C3162 H3156 0.930 . S
C3162 C3163 1.367 . S
C3162 C3170 1.378 . S
C3163 C3162 1.367 . S
C3163 C3171 1.433 . S
C3164 H3160 0.929 . S
C3164 C3166 1.378 . S
C3164 C3168 1.350 . S
C3165 C3168 1.463 . S
C3165 C3170 1.350 . S
C3165 N3173 1.427 . S
C3166 H3157 0.930 1_655 S
C3166 C3164 1.378 . S
C3166 C3167 1.367 1_556 S
C3167 C3166 1.367 1_554 S
C3167 C3169 1.433 . S
C3168 C3164 1.350 . S
C3168 C3165 1.463 . S
C3168 N3172 1.427 . S
C3169 H3159 0.929 . S
C3169 C3167 1.433 . S
C3169 N3172 1.384 1_554 S
C3170 H3161 0.929 . S
C3170 C3162 1.378 . S
C3170 C3165 1.350 . S
C3171 H3158 0.929 . S
C3171 C3163 1.433 . S
C3171 N3173 1.384 . S
N3172 C3168 1.427 . S
N3172 C3169 1.384 1_556 S
N3173 C3165 1.427 . S
N3173 C3171 1.384 . S
H3174 C3180 0.930 . S
H3175 C3184 0.930 . S
H3176 C3189 0.929 . S
H3177 C3187 0.929 . S
H3178 C3182 0.929 . S
H3179 C3188 0.929 . S
C3180 H3174 0.930 . S
C3180 C3181 1.367 . S
C3180 C3188 1.378 . S
C3181 C3180 1.367 . S
C3181 C3189 1.433 . S
C3182 H3178 0.929 . S
C3182 C3184 1.378 . S
C3182 C3186 1.350 . S
C3183 C3186 1.463 . S
C3183 C3188 1.350 . S
C3183 N3191 1.427 . S
C3184 H3175 0.930 . S
C3184 C3182 1.378 . S
C3184 C3185 1.367 . S
C3185 C3184 1.367 . S
C3185 C3187 1.433 . S
C3186 C3182 1.350 . S
C3186 C3183 1.463 . S
C3186 N3190 1.427 . S
C3187 H3177 0.929 . S
C3187 C3185 1.433 . S
C3187 N3190 1.384 . S
C3188 H3179 0.929 . S
C3188 C3180 1.378 . S
C3188 C3183 1.350 . S
C3189 H3176 0.929 . S
C3189 C3181 1.433 . S
C3189 N3191 1.384 . S
N3190 C3186 1.427 . S
N3190 C3187 1.384 . S
N3191 C3183 1.427 . S
N3191 C3189 1.384 . S
H3192 C3198 0.930 . S
H3193 C3202 0.930 . S
H3194 C3207 0.929 . S
H3195 C3205 0.929 . S
H3196 C3200 0.929 . S
H3197 C3206 0.929 . S
C3198 H3192 0.930 . S
C3198 C3199 1.367 . S
C3198 C3206 1.378 . S
C3199 C3198 1.367 . S
C3199 C3207 1.433 . S
C3200 H3196 0.929 . S
C3200 C3202 1.378 . S
C3200 C3204 1.350 . S
C3201 C3204 1.463 . S
C3201 C3206 1.350 . S
C3201 N3209 1.427 . S
C3202 H3193 0.930 . S
C3202 C3200 1.378 . S
C3202 C3203 1.367 . S
C3203 C3202 1.367 . S
C3203 C3205 1.433 . S
C3204 C3200 1.350 . S
C3204 C3201 1.463 . S
C3204 N3208 1.427 . S
C3205 H3195 0.929 . S
C3205 C3203 1.433 . S
C3205 N3208 1.384 . S
C3206 H3197 0.929 . S
C3206 C3198 1.378 . S
C3206 C3201 1.350 . S
C3207 H3194 0.929 . S
C3207 C3199 1.433 . S
C3207 N3209 1.384 . S
N3208 C3204 1.427 . S
N3208 C3205 1.384 . S
N3209 C3201 1.427 . S
N3209 C3207 1.384 . S
H3210 C3216 0.930 . S
H3211 C3220 0.930 . S
H3212 C3225 0.929 . S
H3213 C3223 0.929 . S
H3214 C3218 0.929 . S
H3215 C3224 0.929 . S
C3216 H3210 0.930 . S
C3216 C3217 1.367 . S
C3216 C3224 1.378 . S
C3217 C3216 1.367 . S
C3217 C3225 1.433 . S
C3218 H3214 0.929 . S
C3218 C3220 1.378 . S
C3218 C3222 1.350 . S
C3219 C3222 1.463 . S
C3219 C3224 1.350 . S
C3219 N3227 1.427 . S
C3220 H3211 0.930 . S
C3220 C3218 1.378 . S
C3220 C3221 1.367 . S
C3221 C3220 1.367 . S
C3221 C3223 1.433 . S
C3222 C3218 1.350 . S
C3222 C3219 1.463 . S
C3222 N3226 1.427 . S
C3223 H3213 0.929 . S
C3223 C3221 1.433 . S
C3223 N3226 1.384 . S
C3224 H3215 0.929 . S
C3224 C3216 1.378 . S
C3224 C3219 1.350 . S
C3225 H3212 0.929 . S
C3225 C3217 1.433 . S
C3225 N3227 1.384 . S
N3226 C3222 1.427 . S
N3226 C3223 1.384 . S
N3227 C3219 1.427 . S
N3227 C3225 1.384 . S
H3228 C3234 0.930 . S
H3229 C3238 0.930 . S
H3230 C3243 0.929 . S
H3231 C3241 0.929 . S
H3232 C3236 0.929 . S
H3233 C3242 0.929 . S
C3234 H3228 0.930 . S
C3234 C3235 1.367 . S
C3234 C3242 1.378 . S
C3235 C3234 1.367 . S
C3235 C3243 1.433 . S
C3236 H3232 0.929 . S
C3236 C3238 1.378 . S
C3236 C3240 1.350 . S
C3237 C3240 1.463 . S
C3237 C3242 1.350 . S
C3237 N3245 1.427 . S
C3238 H3229 0.930 . S
C3238 C3236 1.378 . S
C3238 C3239 1.367 . S
C3239 C3238 1.367 . S
C3239 C3241 1.433 . S
C3240 C3236 1.350 . S
C3240 C3237 1.463 . S
C3240 N3244 1.427 . S
C3241 H3231 0.929 . S
C3241 C3239 1.433 . S
C3241 N3244 1.384 . S
C3242 H3233 0.929 . S
C3242 C3234 1.378 . S
C3242 C3237 1.350 . S
C3243 H3230 0.929 . S
C3243 C3235 1.433 . S
C3243 N3245 1.384 . S
N3244 C3240 1.427 . S
N3244 C3241 1.384 . S
N3245 C3237 1.427 . S
N3245 C3243 1.384 . S
H3246 C3252 0.930 . S
H3247 C3256 0.930 . S
H3248 C3261 0.929 . S
H3249 C3259 0.929 . S
H3250 C3254 0.929 . S
H3251 C3260 0.929 . S
C3252 H3246 0.930 . S
C3252 C3253 1.367 . S
C3252 C3260 1.378 . S
C3253 C3252 1.367 . S
C3253 C3261 1.433 . S
C3254 H3250 0.929 . S
C3254 C3256 1.378 . S
C3254 C3258 1.350 . S
C3255 C3258 1.463 . S
C3255 C3260 1.350 . S
C3255 N3263 1.427 . S
C3256 H3247 0.930 . S
C3256 C3254 1.378 . S
C3256 C3257 1.367 . S
C3257 C3256 1.367 . S
C3257 C3259 1.433 . S
C3258 C3254 1.350 . S
C3258 C3255 1.463 . S
C3258 N3262 1.427 . S
C3259 H3249 0.929 . S
C3259 C3257 1.433 . S
C3259 N3262 1.384 . S
C3260 H3251 0.929 . S
C3260 C3252 1.378 . S
C3260 C3255 1.350 . S
C3261 H3248 0.929 . S
C3261 C3253 1.433 . S
C3261 N3263 1.384 . S
N3262 C3258 1.427 . S
N3262 C3259 1.384 . S
N3263 C3255 1.427 . S
N3263 C3261 1.384 . S
H3264 C3270 0.930 . S
H3265 C3274 0.930 . S
H3266 C3279 0.929 . S
H3267 C3277 0.929 . S
H3268 C3272 0.929 . S
H3269 C3278 0.929 . S
C3270 H3264 0.930 . S
C3270 C3271 1.367 . S
C3270 C3278 1.378 . S
C3271 C3270 1.367 . S
C3271 C3279 1.433 . S
C3272 H3268 0.929 . S
C3272 C3274 1.378 . S
C3272 C3276 1.350 . S
C3273 C3276 1.463 . S
C3273 C3278 1.350 . S
C3273 N3281 1.427 . S
C3274 H3265 0.930 . S
C3274 C3272 1.378 . S
C3274 C3275 1.367 . S
C3275 C3274 1.367 . S
C3275 C3277 1.433 . S
C3276 C3272 1.350 . S
C3276 C3273 1.463 . S
C3276 N3280 1.427 . S
C3277 H3267 0.929 . S
C3277 C3275 1.433 . S
C3277 N3280 1.384 . S
C3278 H3269 0.929 . S
C3278 C3270 1.378 . S
C3278 C3273 1.350 . S
C3279 H3266 0.929 . S
C3279 C3271 1.433 . S
C3279 N3281 1.384 . S
N3280 C3276 1.427 . S
N3280 C3277 1.384 . S
N3281 C3273 1.427 . S
N3281 C3279 1.384 . S
H3282 C3288 0.930 . S
H3283 C3292 0.930 . S
H3284 C3297 0.929 . S
H3285 C3295 0.929 1_545 S
H3286 C3290 0.929 . S
H3287 C3296 0.929 . S
C3288 H3282 0.930 . S
C3288 C3289 1.367 . S
C3288 C3296 1.378 . S
C3289 C3288 1.367 . S
C3289 C3297 1.433 . S
C3290 H3286 0.929 . S
C3290 C3292 1.378 . S
C3290 C3294 1.350 . S
C3291 C3294 1.463 . S
C3291 C3296 1.350 . S
C3291 N3299 1.427 . S
C3292 H3283 0.930 . S
C3292 C3290 1.378 . S
C3292 C3293 1.367 . S
C3293 C3292 1.367 . S
C3293 C3295 1.433 . S
C3294 C3290 1.350 . S
C3294 C3291 1.463 . S
C3294 N3298 1.427 . S
C3295 H3285 0.929 1_565 S
C3295 C3293 1.433 . S
C3295 N3298 1.384 . S
C3296 H3287 0.929 . S
C3296 C3288 1.378 . S
C3296 C3291 1.350 . S
C3297 H3284 0.929 . S
C3297 C3289 1.433 . S
C3297 N3299 1.384 . S
N3298 C3294 1.427 . S
N3298 C3295 1.384 . S
N3299 C3291 1.427 . S
N3299 C3297 1.384 . S
H3300 C3306 0.930 . S
H3301 C3310 0.930 . S
H3302 C3315 0.929 . S
H3303 C3313 0.929 . S
H3304 C3308 0.929 . S
H3305 C3314 0.929 . S
C3306 H3300 0.930 . S
C3306 C3307 1.367 . S
C3306 C3314 1.378 . S
C3307 C3306 1.367 . S
C3307 C3315 1.433 . S
C3308 H3304 0.929 . S
C3308 C3310 1.378 . S
C3308 C3312 1.350 . S
C3309 C3312 1.463 . S
C3309 C3314 1.350 . S
C3309 N3317 1.427 . S
C3310 H3301 0.930 . S
C3310 C3308 1.378 . S
C3310 C3311 1.367 . S
C3311 C3310 1.367 . S
C3311 C3313 1.433 . S
C3312 C3308 1.350 . S
C3312 C3309 1.463 . S
C3312 N3316 1.427 . S
C3313 H3303 0.929 . S
C3313 C3311 1.433 . S
C3313 N3316 1.384 . S
C3314 H3305 0.929 . S
C3314 C3306 1.378 . S
C3314 C3309 1.350 . S
C3315 H3302 0.929 . S
C3315 C3307 1.433 . S
C3315 N3317 1.384 . S
N3316 C3312 1.427 . S
N3316 C3313 1.384 . S
N3317 C3309 1.427 . S
N3317 C3315 1.384 . S
H3318 C3324 0.930 . S
H3319 C3328 0.930 . S
H3320 C3333 0.929 . S
H3321 C3331 0.929 . S
H3322 C3326 0.929 . S
H3323 C3332 0.929 . S
C3324 H3318 0.930 . S
C3324 C3325 1.367 . S
C3324 C3332 1.378 . S
C3325 C3324 1.367 . S
C3325 C3333 1.433 . S
C3326 H3322 0.929 . S
C3326 C3328 1.378 . S
C3326 C3330 1.350 . S
C3327 C3330 1.463 . S
C3327 C3332 1.350 . S
C3327 N3335 1.427 . S
C3328 H3319 0.930 . S
C3328 C3326 1.378 . S
C3328 C3329 1.367 . S
C3329 C3328 1.367 . S
C3329 C3331 1.433 . S
C3330 C3326 1.350 . S
C3330 C3327 1.463 . S
C3330 N3334 1.427 . S
C3331 H3321 0.929 . S
C3331 C3329 1.433 . S
C3331 N3334 1.384 . S
C3332 H3323 0.929 . S
C3332 C3324 1.378 . S
C3332 C3327 1.350 . S
C3333 H3320 0.929 . S
C3333 C3325 1.433 . S
C3333 N3335 1.384 . S
N3334 C3330 1.427 . S
N3334 C3331 1.384 . S
N3335 C3327 1.427 . S
N3335 C3333 1.384 . S
H3336 C3342 0.930 . S
H3337 C3346 0.930 . S
H3338 C3351 0.929 . S
H3339 C3349 0.929 . S
H3340 C3344 0.929 . S
H3341 C3350 0.929 . S
C3342 H3336 0.930 . S
C3342 C3343 1.367 . S
C3342 C3350 1.378 . S
C3343 C3342 1.367 . S
C3343 C3351 1.433 . S
C3344 H3340 0.929 . S
C3344 C3346 1.378 . S
C3344 C3348 1.350 . S
C3345 C3348 1.463 . S
C3345 C3350 1.350 . S
C3345 N3353 1.427 . S
C3346 H3337 0.930 . S
C3346 C3344 1.378 . S
C3346 C3347 1.367 . S
C3347 C3346 1.367 . S
C3347 C3349 1.433 . S
C3348 C3344 1.350 . S
C3348 C3345 1.463 . S
C3348 N3352 1.427 . S
C3349 H3339 0.929 . S
C3349 C3347 1.433 . S
C3349 N3352 1.384 . S
C3350 H3341 0.929 . S
C3350 C3342 1.378 . S
C3350 C3345 1.350 . S
C3351 H3338 0.929 . S
C3351 C3343 1.433 . S
C3351 N3353 1.384 . S
N3352 C3348 1.427 . S
N3352 C3349 1.384 . S
N3353 C3345 1.427 . S
N3353 C3351 1.384 . S
H3354 C3360 0.930 . S
H3355 C3364 0.930 . S
H3356 C3369 0.929 . S
H3357 C3367 0.929 . S
H3358 C3362 0.929 . S
H3359 C3368 0.929 . S
C3360 H3354 0.930 . S
C3360 C3361 1.367 . S
C3360 C3368 1.378 . S
C3361 C3360 1.367 . S
C3361 C3369 1.433 . S
C3362 H3358 0.929 . S
C3362 C3364 1.378 . S
C3362 C3366 1.350 . S
C3363 C3366 1.463 . S
C3363 C3368 1.350 . S
C3363 N3371 1.427 . S
C3364 H3355 0.930 . S
C3364 C3362 1.378 . S
C3364 C3365 1.367 . S
C3365 C3364 1.367 . S
C3365 C3367 1.433 . S
C3366 C3362 1.350 . S
C3366 C3363 1.463 . S
C3366 N3370 1.427 . S
C3367 H3357 0.929 . S
C3367 C3365 1.433 . S
C3367 N3370 1.384 . S
C3368 H3359 0.929 . S
C3368 C3360 1.378 . S
C3368 C3363 1.350 . S
C3369 H3356 0.929 . S
C3369 C3361 1.433 . S
C3369 N3371 1.384 . S
N3370 C3366 1.427 . S
N3370 C3367 1.384 . S
N3371 C3363 1.427 . S
N3371 C3369 1.384 . S
H3372 C3378 0.930 . S
H3373 C3382 0.930 . S
H3374 C3387 0.929 . S
H3375 C3385 0.929 . S
H3376 C3380 0.929 . S
H3377 C3386 0.929 . S
C3378 H3372 0.930 . S
C3378 C3379 1.367 . S
C3378 C3386 1.378 . S
C3379 C3378 1.367 . S
C3379 C3387 1.433 . S
C3380 H3376 0.929 . S
C3380 C3382 1.378 . S
C3380 C3384 1.350 . S
C3381 C3384 1.463 . S
C3381 C3386 1.350 . S
C3381 N3389 1.427 . S
C3382 H3373 0.930 . S
C3382 C3380 1.378 . S
C3382 C3383 1.367 . S
C3383 C3382 1.367 . S
C3383 C3385 1.433 . S
C3384 C3380 1.350 . S
C3384 C3381 1.463 . S
C3384 N3388 1.427 . S
C3385 H3375 0.929 . S
C3385 C3383 1.433 . S
C3385 N3388 1.384 . S
C3386 H3377 0.929 . S
C3386 C3378 1.378 . S
C3386 C3381 1.350 . S
C3387 H3374 0.929 . S
C3387 C3379 1.433 . S
C3387 N3389 1.384 . S
N3388 C3384 1.427 . S
N3388 C3385 1.384 . S
N3389 C3381 1.427 . S
N3389 C3387 1.384 . S
H3390 C3396 0.930 . S
H3391 C3400 0.930 . S
H3392 C3405 0.929 . S
H3393 C3403 0.929 . S
H3394 C3398 0.929 . S
H3395 C3404 0.929 . S
C3396 H3390 0.930 . S
C3396 C3397 1.367 . S
C3396 C3404 1.378 . S
C3397 C3396 1.367 . S
C3397 C3405 1.433 . S
C3398 H3394 0.929 . S
C3398 C3400 1.378 . S
C3398 C3402 1.350 . S
C3399 C3402 1.463 . S
C3399 C3404 1.350 . S
C3399 N3407 1.427 . S
C3400 H3391 0.930 . S
C3400 C3398 1.378 . S
C3400 C3401 1.367 . S
C3401 C3400 1.367 . S
C3401 C3403 1.433 . S
C3402 C3398 1.350 . S
C3402 C3399 1.463 . S
C3402 N3406 1.427 . S
C3403 H3393 0.929 . S
C3403 C3401 1.433 . S
C3403 N3406 1.384 . S
C3404 H3395 0.929 . S
C3404 C3396 1.378 . S
C3404 C3399 1.350 . S
C3405 H3392 0.929 . S
C3405 C3397 1.433 . S
C3405 N3407 1.384 . S
N3406 C3402 1.427 . S
N3406 C3403 1.384 . S
N3407 C3399 1.427 . S
N3407 C3405 1.384 . S
C1687 C106 2.401 . S
C1691 C392 2.462 . S
C1705 C65 1.861 . S
C1709 C494 1.846 . S
C1723 C79 2.127 . S
C1727 C560 2.161 . S
C1745 C646 1.211 . S
C1741 C90 1.253 . S
C1759 C21 1.293 . S
C1763 C730 1.245 . S
C1781 C812 1.793 . S
C1777 C35 1.773 . S
C1799 C914 1.910 . S
C1795 C50 1.930 . S
C1813 C6 2.016 . S
C1817 C980 2.074 . S
C1835 C410 1.901 . S
C1831 C232 1.926 . S
C1849 C245 0.917 . S
C1853 C478 0.899 . S
C1871 C578 1.201 . S
C1867 C274 1.217 . S
C1889 C644 1.635 . S
C1885 C175 1.592 . S
C1903 C231 1.456 . S
C1907 C728 1.483 . S
C1925 C830 1.125 . S
C1921 C246 1.139 . S
C1943 C898 0.823 . S
C1939 C273 0.856 . S
C1961 C998 1.821 . S
C1957 C176 1.847 . S
C1979 C394 1.041 . S
C1975 C160 1.023 . S
C1993 C289 1.670 . S
C1997 C1082 1.653 . S
C2015 C1150 1.346 . S
C2011 C328 1.362 . S
C2033 C1232 0.987 . S
C2029 C317 0.989 . S
C2047 C118 1.000 . S
C2051 C982 1.045 . S
C2065 C132 1.367 . S
C2069 C562 1.356 . S
C2083 C331 1.746 . S
C2087 C1334 1.726 . S
C2105 C1400 1.058 . S
C2101 C303 1.050 . S
C2123 C403 2.085 . S
C2119 C63 2.076 . S
C2141 C1407 2.300 . S
C2137 C107 2.247 . S
C2155 C92 1.997 . S
C2159 C571 2.050 . S
C2173 C78 1.816 . S
C2177 C1329 1.656 . S
C2195 C741 1.674 . S
C2191 C8 1.822 . S
C2209 C51 2.003 . S
C2213 C1159 2.052 . S
C2231 C903 2.299 1_556 S
C2227 C37 2.249 . S
C2249 C1495 2.089 . S
C2245 C20 2.081 . S
C2267 C399 1.738 1_556 S
C2263 C147 1.744 . S
C2285 C1413 1.083 . S
C2281 C316 1.144 . S
C2299 C119 1.145 . S
C2303 C567 1.207 . S
C2317 C288 1.799 . S
C2321 C1327 1.817 . S
C2335 C148 1.802 . S
C2339 C739 1.816 . S
C2357 C1155 1.198 . S
C2353 C315 1.144 . S
C2371 C120 1.143 . S
C2375 C909 1.085 . S
C2389 C287 1.739 . S
C2393 C1491 1.732 . S
C2407 C188 0.916 . S
C2411 C405 0.887 . S
C2425 C177 1.990 . S
C2429 C1071 1.993 . S
C2443 C258 1.456 . S
C2447 C825 1.393 . S
C2461 C247 1.037 . S
C2465 C1243 1.043 . S
C2483 C1497 0.913 . S
C2479 C272 0.907 1_565 S
C2497 C216 1.259 . S
C2501 C573 1.220 . S
C2519 C651 2.000 . S
C2515 C261 1.986 . S
C2537 C487 1.038 . S
C2533 C205 1.028 . S
C2551 C76 2.018 . S
C2555 C1568 2.075 . S
C2573 C1418 1.910 . S
C2569 C93 1.929 . S
C2587 C105 1.776 . S
C2591 C1652 1.796 . S
C2605 C62 1.282 1_655 S
C2609 C1318 1.229 . S
C2623 C49 1.258 . S
C2627 C1066 1.205 . S
C2645 C1148 2.159 . S
C2641 C9 2.174 . S
C2663 C1250 1.841 . S
C2659 C22 1.861 . S
C2681 C1484 2.460 . S
C2677 C36 2.407 . S
C2699 C1586 1.825 . S
C2695 C260 1.848 . S
C2713 C189 0.783 1_556 S
C2717 C1402 0.813 . S
C2735 C1670 1.134 . S
C2731 C204 1.142 . S
C2753 C1316 1.482 . S
C2749 C217 1.450 . S
C2771 C1064 1.637 . S
C2767 C259 1.602 . S
C2785 C190 1.217 . S
C2789 C1166 1.206 . S
C2807 C1234 0.917 . S
C2803 C203 0.914 . S
C2821 C218 1.921 . S
C2825 C1502 1.894 . S
C2843 C1570 1.032 . S
C2839 C314 1.004 . S
C2857 C135 1.746 . S
C2861 C746 1.723 . S
C2879 C814 1.343 . S
C2875 C146 1.336 . S
C2897 C896 1.057 . S
C2893 C163 1.046 . S
C2915 C1486 1.039 . S
C2911 C300 1.041 . S
C2929 C286 1.317 . S
C2933 C1654 1.347 . S
C2951 C662 1.654 . S
C2947 C149 1.670 . S
C2969 C476 0.988 . S
C2965 C121 0.988 . S
C2983 C91 2.073 . S
C2987 C1579 2.080 . S
C3005 C483 1.924 . S
C3001 C77 1.814 . S
C3019 C64 1.981 . S
C3023 C1663 2.037 . S
C3037 C104 1.457 . S
C3041 C657 1.396 . S
C3055 C34 1.471 . S
C3059 C1077 1.394 . S
C3077 C823 2.040 . S
C3073 C23 1.989 . S
C3091 C7 1.813 . S
C3095 C1239 1.924 . S
C3109 C48 2.073 . S
C3113 C991 2.080 . S
C3131 C1575 1.719 . S
C3127 C329 1.728 . S
C3145 C162 1.176 . S
C3149 C489 1.096 . S
C3167 C1659 1.187 1_655 S
C3163 C301 1.157 . S
C3181 C134 1.822 . S
C3185 C655 1.836 . S
C3199 C330 1.821 . S
C3203 C1075 1.837 . S
C3221 C819 1.188 . S
C3217 C161 1.149 . S
C3235 C302 1.172 . S
C3239 C1245 1.097 . S
C3257 C987 1.712 . S
C3253 C133 1.724 . S
C3275 C1581 1.029 . S
C3271 C244 1.073 . S
C3293 C735 1.953 1_565 S
C3289 C219 1.937 . S
C3307 C230 1.257 . S
C3311 C1161 1.241 . S
C3329 C907 1.006 . S
C3325 C191 0.994 . S
C3343 C202 1.072 . S
C3347 C993 1.053 . S
C3361 C174 1.458 . S
C3365 C1665 1.413 . S
C3383 C1323 1.958 . S
C3379 C233 1.930 . S
C3401 C1411 1.010 . S
C3397 C275 0.996 . S
