# Generated by pormake.
# Topology pth, (4,4)-cn, num edge types: 1
# Building blocks:
#     Node 0, Type 0, BuildingBlock: QUQFOY_clean_sbu_3, # of connection points: 4
#     Node 1, Type 0, BuildingBlock: QUQFOY_clean_sbu_3, # of connection points: 4
#     Node 2, Type 0, BuildingBlock: QUQFOY_clean_sbu_3, # of connection points: 4
#     Node 3, Type 1, BuildingBlock: KOZSID_clean_sbu_0, # of connection points: 4
#     Node 4, Type 1, BuildingBlock: KOZSID_clean_sbu_0, # of connection points: 4
#     Node 5, Type 1, BuildingBlock: KOZSID_clean_sbu_0, # of connection points: 4
#     Edge 6, Type (0, 1), BuildingBlock: OJICUG_clean_linker_0, # of connection points: 2
#     Edge 7, Type (0, 1), BuildingBlock: OJICUG_clean_linker_0, # of connection points: 2
#     Edge 8, Type (0, 1), BuildingBlock: OJICUG_clean_linker_0, # of connection points: 2
#     Edge 9, Type (0, 1), BuildingBlock: OJICUG_clean_linker_0, # of connection points: 2
#     Edge 10, Type (0, 1), BuildingBlock: OJICUG_clean_linker_0, # of connection points: 2
#     Edge 11, Type (0, 1), BuildingBlock: OJICUG_clean_linker_0, # of connection points: 2
#     Edge 12, Type (0, 1), BuildingBlock: OJICUG_clean_linker_0, # of connection points: 2
#     Edge 13, Type (0, 1), BuildingBlock: OJICUG_clean_linker_0, # of connection points: 2
#     Edge 14, Type (0, 1), BuildingBlock: OJICUG_clean_linker_0, # of connection points: 2
#     Edge 15, Type (0, 1), BuildingBlock: OJICUG_clean_linker_0, # of connection points: 2
#     Edge 16, Type (0, 1), BuildingBlock: OJICUG_clean_linker_0, # of connection points: 2
#     Edge 17, Type (0, 1), BuildingBlock: OJICUG_clean_linker_0, # of connection points: 2
# Relax obj value: 0.008
# Max RMSD: 0.073
# Mean RMSD: 0.045
data_MOF--net-pth--node1-QUQFOY_clean_sbu_3--node2-KOZSID_clean_sbu_0--edge1-OJICUG_clean_linker_0
_symmetry_space_group_name_H-M    P1
_symmetry_Int_Tables_number       1
_symmetry_cell_setting            triclinic
loop_
_symmetry_equiv_pos_as_xyz
'x, y, z'
_cell_length_a     20.334645
_cell_length_b     20.190791
_cell_length_c     47.610844
_cell_angle_alpha  86.351922
_cell_angle_beta   87.329481
_cell_angle_gamma 120.78355
loop_
_atom_site_label
_atom_site_type_symbol
_atom_site_fract_x
_atom_site_fract_y
_atom_site_fract_z
_atom_type_partial_charge
C0 C 0.03416 0.20465 0.06745 0.0
O1 O 0.99649 0.19829 0.04623 0.0
Cd2 Cd 0.98919 0.1203 0.00915 0.0
O3 O 0.06651 0.16523 0.07077 0.0
Cd4 Cd 0.07799 0.06699 0.04616 0.0
C5 C 0.18213 0.20034 0.99186 0.0
O6 O 0.95022 0.99245 0.02922 0.0
O7 O 0.03997 0.97838 0.00995 0.0
O8 O 0.05521 0.99627 0.09231 0.0
C9 C 0.96915 0.95584 0.01322 0.0
O10 O 0.11773 0.18733 0.98419 0.0
C11 C 0.10768 0.98082 0.08774 0.0
O12 O 0.18594 0.16849 0.01518 0.0
O13 O 0.14916 0.00916 0.06439 0.0
C14 C 0.23803 0.15798 0.40639 0.0
O15 O 0.27479 0.20983 0.38588 0.0
Cd16 Cd 0.21409 0.22544 0.34653 0.0
O17 O 0.16479 0.11774 0.40827 0.0
Cd18 Cd 0.0606 0.11315 0.38111 0.0
C19 C 0.1162 0.03428 0.33317 0.0
O20 O 0.11384 0.24768 0.36179 0.0
O21 O 0.0256 0.15969 0.33944 0.0
O22 O 0.99643 0.11545 0.42502 0.0
C23 C 0.06617 0.23067 0.34329 0.0
O24 O 0.16934 0.10393 0.3254 0.0
C25 C 0.92922 0.06523 0.41956 0.0
O26 O 0.06838 0.01868 0.3544 0.0
O27 O 0.92334 0.03315 0.39696 0.0
C28 C 0.96809 0.11686 0.68325 0.0
O29 O 0.97649 0.16029 0.70261 0.0
Cd30 Cd 0.06323 0.18065 0.73843 0.0
O31 O 0.01074 0.08815 0.68072 0.0
Cd32 Cd 0.11726 0.08962 0.70343 0.0
C33 C 0.99052 0.98909 0.75958 0.0
O34 O 0.19034 0.22029 0.71865 0.0
O35 O 0.20731 0.13182 0.73883 0.0
O36 O 0.18532 0.10973 0.65727 0.0
C37 C 0.22795 0.20277 0.73504 0.0
O38 O 0.00198 0.05422 0.76604 0.0
C39 C 0.19697 0.05418 0.66224 0.0
O40 O 0.02149 0.98398 0.73661 0.0
O41 O 0.16888 0.0136 0.68594 0.0
C42 C 0.1724 0.74086 0.16843 0.0
C43 C 0.24616 0.79721 0.15717 0.0
C44 C 0.29546 0.78037 0.16966 0.0
C45 C 0.24945 0.71557 0.18796 0.0
N46 N 0.17345 0.68916 0.18774 0.0
Co47 Co 0.08699 0.6008 0.21297 0.0
N48 N 0.16081 0.58262 0.23381 0.0
C49 C 0.23828 0.62144 0.22862 0.0
C50 C 0.2735 0.5941 0.24557 0.0
C51 C 0.21518 0.53392 0.26263 0.0
C52 C 0.14732 0.52841 0.25521 0.0
N53 N 0.00059 0.51289 0.23832 0.0
C54 C 0.00239 0.46633 0.25969 0.0
C55 C 0.92918 0.41322 0.27233 0.0
C56 C 0.87916 0.4257 0.25814 0.0
C57 C 0.92444 0.48577 0.23786 0.0
N58 N 0.01333 0.61914 0.19214 0.0
C59 C 0.93558 0.5777 0.19617 0.0
C60 C 0.90077 0.60442 0.17865 0.0
C61 C 0.95971 0.66748 0.16279 0.0
C62 C 0.02742 0.67601 0.17178 0.0
N63 N 0.07965 0.52687 0.18586 0.0
C64 C 0.06744 0.42216 0.1471 0.0
C65 C 0.00218 0.4191 0.15927 0.0
C66 C 0.00951 0.47119 0.17846 0.0
C67 C 0.1391 0.47797 0.15482 0.0
C68 C 0.14387 0.52959 0.17401 0.0
N69 N 0.09379 0.67445 0.23985 0.0
C70 C 0.03213 0.72779 0.26714 0.0
C71 C 0.10311 0.78762 0.27366 0.0
C72 C 0.16934 0.78825 0.26388 0.0
C73 C 0.16336 0.73121 0.24723 0.0
C74 C 0.02882 0.67225 0.25042 0.0
H75 H 0.21575 0.73485 0.24018 0.0
H76 H 0.97306 0.62918 0.24581 0.0
H77 H 0.9573 0.46477 0.18702 0.0
H78 H 0.20009 0.57118 0.17883 0.0
C79 C 0.27637 0.68234 0.20726 0.0
C80 C 0.10349 0.74082 0.16116 0.0
C81 C 0.07152 0.46916 0.26844 0.0
C82 C 0.89712 0.51717 0.21781 0.0
H83 H 0.26324 0.84685 0.14211 0.0
H84 H 0.35764 0.81325 0.16661 0.0
H85 H 0.33428 0.61472 0.24527 0.0
H86 H 0.22222 0.49762 0.2784 0.0
H87 H 0.91349 0.36956 0.28989 0.0
H88 H 0.81714 0.39441 0.26203 0.0
H89 H 0.83984 0.58197 0.17801 0.0
H90 H 0.95351 0.70406 0.14684 0.0
H91 H 0.94528 0.37594 0.15428 0.0
H92 H 0.19138 0.48268 0.14576 0.0
H93 H 0.97923 0.72509 0.27408 0.0
H94 H 0.22559 0.83279 0.26888 0.0
C95 C 0.4053 0.95417 0.58203 0.0
C96 C 0.34291 0.88143 0.59168 0.0
C97 C 0.35912 0.82829 0.5822 0.0
C98 C 0.42972 0.87126 0.56707 0.0
N99 N 0.45894 0.94812 0.5664 0.0
Co100 Co 0.55647 0.03106 0.54531 0.0
N101 N 0.56171 0.95618 0.52141 0.0
C102 C 0.52067 0.87835 0.52678 0.0
C103 C 0.53784 0.84108 0.50729 0.0
C104 C 0.59429 0.8989 0.48869 0.0
C105 C 0.60848 0.96867 0.49791 0.0
N106 N 0.6543 0.11442 0.52443 0.0
C107 C 0.69205 0.11394 0.50032 0.0
C108 C 0.75842 0.1857 0.49298 0.0
C109 C 0.76402 0.23131 0.51389 0.0
C110 C 0.70057 0.18554 0.53258 0.0
N111 N 0.551 0.10532 0.56928 0.0
C112 C 0.60964 0.17583 0.57352 0.0
C113 C 0.58835 0.21332 0.59159 0.0
C114 C 0.51153 0.16314 0.59919 0.0
C115 C 0.49023 0.09779 0.58515 0.0
N116 N 0.61542 0.01305 0.57284 0.0
C117 C 0.72012 0.02663 0.61132 0.0
C118 C 0.64918 0.01721 0.62068 0.0
C119 C 0.59731 0.00977 0.60111 0.0
C120 C 0.73425 0.02185 0.58269 0.0
C121 C 0.68103 0.01453 0.56389 0.0
N122 N 0.49833 0.05103 0.51804 0.0
C123 C 0.47558 0.1431 0.49268 0.0
C124 C 0.41127 0.08327 0.48193 0.0
C125 C 0.39168 0.0066 0.48948 0.0
C126 C 0.4362 0.99174 0.50749 0.0
C127 C 0.51816 0.12586 0.51053 0.0
H128 H 0.41994 0.93241 0.51311 0.0
H129 H 0.5665 0.17346 0.51866 0.0
H130 H 0.54459 0.00602 0.6087 0.0
H131 H 0.69565 0.01507 0.54188 0.0
C132 C 0.46191 0.84217 0.54872 0.0
C133 C 0.41359 0.0277 0.58889 0.0
C134 C 0.67449 0.04429 0.48653 0.0
C135 C 0.6786 0.20992 0.55622 0.0
H136 H 0.29063 0.86782 0.60395 0.0
H137 H 0.32179 0.76587 0.58463 0.0
H138 H 0.51227 0.77926 0.50663 0.0
H139 H 0.62352 0.89034 0.471 0.0
H140 H 0.80019 0.20226 0.47499 0.0
H141 H 0.8087 0.29087 0.51516 0.0
H142 H 0.62352 0.27144 0.59755 0.0
H143 H 0.47546 0.17345 0.61347 0.0
H144 H 0.63492 0.01824 0.64279 0.0
H145 H 0.78808 0.02851 0.57444 0.0
H146 H 0.49234 0.20313 0.48778 0.0
H147 H 0.34285 0.95858 0.48138 0.0
C148 C 0.75345 0.65048 0.83709 0.0
C149 C 0.81532 0.64139 0.83018 0.0
C150 C 0.79915 0.57299 0.84419 0.0
C151 C 0.72908 0.54473 0.85898 0.0
N152 N 0.69877 0.59029 0.85499 0.0
Co153 Co 0.60168 0.57501 0.87463 0.0
N154 N 0.58022 0.47653 0.89647 0.0
C155 C 0.62178 0.44166 0.89425 0.0
C156 C 0.59024 0.37209 0.91046 0.0
C157 C 0.52402 0.36123 0.92366 0.0
C158 C 0.51937 0.42553 0.91485 0.0
N159 N 0.50655 0.56167 0.89507 0.0
C160 C 0.45528 0.505 0.91483 0.0
C161 C 0.39925 0.51989 0.92477 0.0
C162 C 0.41456 0.58737 0.91023 0.0
C163 C 0.4792 0.6102 0.89256 0.0
N164 N 0.6214 0.67166 0.85208 0.0
C165 C 0.5758 0.70235 0.85214 0.0
C166 C 0.60335 0.76768 0.83369 0.0
C167 C 0.67099 0.77997 0.82128 0.0
C168 C 0.68117 0.72156 0.83318 0.0
N169 N 0.54084 0.51349 0.84461 0.0
C170 C 0.44897 0.42033 0.80419 0.0
C171 C 0.43368 0.4729 0.81616 0.0
C172 C 0.48004 0.51864 0.83606 0.0
C173 C 0.5125 0.41686 0.81217 0.0
C174 C 0.5572 0.46347 0.83227 0.0
N175 N 0.66233 0.63666 0.90456 0.0
C176 C 0.70463 0.747 0.93134 0.0
C177 C 0.75517 0.73049 0.94454 0.0
C178 C 0.75693 0.66492 0.93798 0.0
C179 C 0.71025 0.61903 0.91812 0.0
C180 C 0.65908 0.69969 0.91164 0.0
H181 H 0.71465 0.57025 0.91382 0.0
H182 H 0.62277 0.71626 0.90204 0.0
H183 H 0.46447 0.55665 0.84455 0.0
H184 H 0.60403 0.4572 0.8377 0.0
C185 C 0.69063 0.47608 0.87697 0.0
C186 C 0.75028 0.71832 0.82694 0.0
C187 C 0.45508 0.4345 0.92384 0.0
C188 C 0.51184 0.67323 0.87182 0.0
H189 H 0.86742 0.6806 0.81679 0.0
H190 H 0.83487 0.54759 0.84402 0.0
H191 H 0.61237 0.33348 0.91226 0.0
H192 H 0.4834 0.31109 0.93787 0.0
H193 H 0.35126 0.48474 0.94048 0.0
H194 H 0.38141 0.6154 0.91183 0.0
H195 H 0.57852 0.80354 0.83035 0.0
H196 H 0.70944 0.8277 0.80574 0.0
H197 H 0.38463 0.4772 0.81094 0.0
H198 H 0.52749 0.3779 0.80313 0.0
H199 H 0.70183 0.79769 0.93546 0.0
H200 H 0.79447 0.6492 0.948 0.0
C201 C 0.09251 0.27571 0.10936 0.0
C202 C 0.04238 0.25983 0.08799 0.0
H203 H 0.13991 0.33975 0.14475 0.0
C204 C 0.00145 0.29851 0.08606 0.0
H205 H 0.12512 0.24712 0.11137 0.0
C206 C 0.01005 0.35147 0.10515 0.0
C207 C 0.06008 0.3673 0.12649 0.0
H208 H 0.96262 0.2879 0.06981 0.0
H209 H 0.97797 0.38063 0.10306 0.0
C210 C 0.10151 0.32918 0.12834 0.0
C211 C 0.79222 0.03114 0.42524 0.0
C212 C 0.86113 0.05131 0.43729 0.0
H213 H 0.67939 0.01534 0.43133 0.0
C214 C 0.86695 0.06596 0.46575 0.0
H215 H 0.78661 0.02029 0.40323 0.0
C216 C 0.80554 0.06183 0.48176 0.0
C217 C 0.73804 0.04526 0.46939 0.0
H218 H 0.91937 0.08153 0.47553 0.0
H219 H 0.81133 0.07324 0.50372 0.0
C220 C 0.73132 0.02893 0.44112 0.0
C221 C 0.91368 0.92284 0.80579 0.0
C222 C 0.93551 0.91812 0.77789 0.0
H223 H 0.83826 0.86199 0.84338 0.0
C224 C 0.89984 0.84578 0.76696 0.0
H225 H 0.94037 0.97773 0.81481 0.0
C226 C 0.84085 0.78013 0.78319 0.0
C227 C 0.81786 0.78565 0.81071 0.0
H228 H 0.91513 0.84047 0.74547 0.0
H229 H 0.81174 0.72552 0.77402 0.0
C230 C 0.85555 0.85695 0.82213 0.0
C231 C 0.08456 0.91112 0.13573 0.0
C232 C 0.11438 0.92561 0.10734 0.0
H233 H 0.0595 0.8417 0.17524 0.0
C234 C 0.1438 0.88131 0.09705 0.0
H235 H 0.06128 0.94431 0.14411 0.0
C236 C 0.14063 0.82148 0.11458 0.0
C237 C 0.11022 0.80663 0.14286 0.0
H238 H 0.1661 0.89059 0.07514 0.0
H239 H 0.16083 0.78596 0.10597 0.0
C240 C 0.08324 0.85252 0.15345 0.0
C241 C 0.2432 0.07754 0.44786 0.0
C242 C 0.28131 0.14055 0.4268 0.0
H243 H 0.25435 0.00987 0.48183 0.0
C244 C 0.36209 0.18417 0.42415 0.0
H245 H 0.18102 0.04251 0.4504 0.0
C246 C 0.40381 0.16499 0.44188 0.0
C247 C 0.36596 0.10183 0.46282 0.0
H248 H 0.39347 0.23271 0.40806 0.0
H249 H 0.46601 0.19916 0.43888 0.0
C250 C 0.28515 0.05829 0.46566 0.0
C251 C 0.30847 0.33826 0.74825 0.0
C252 C 0.28767 0.26012 0.7513 0.0
H253 H 0.37717 0.45085 0.76218 0.0
C254 C 0.32308 0.23612 0.77076 0.0
H255 H 0.28247 0.3585 0.73329 0.0
C256 C 0.37661 0.28857 0.7874 0.0
C257 C 0.39635 0.36643 0.78489 0.0
H258 H 0.30835 0.17626 0.77361 0.0
H259 H 0.40069 0.26739 0.80287 0.0
C260 C 0.36239 0.39098 0.76488 0.0
C261 C 0.89075 0.04003 0.64535 0.0
C262 C 0.90514 0.09478 0.66468 0.0
H263 H 0.81987 0.97385 0.61401 0.0
C264 C 0.85662 0.12506 0.66696 0.0
H265 H 0.92644 0.01483 0.64325 0.0
C266 C 0.79547 0.10152 0.6501 0.0
C267 C 0.78143 0.04709 0.63066 0.0
H268 H 0.86592 0.1671 0.6817 0.0
H269 H 0.76029 0.12736 0.65185 0.0
C270 C 0.82956 0.01638 0.62858 0.0
C271 C 0.93741 0.85871 0.97842 0.0
C272 C 0.91308 0.89487 -0.00296 0.0
H273 H 0.90674 0.77893 0.94714 0.0
C274 C 0.83544 0.87346 -0.00053 0.0
H275 H 0.9969 0.87385 0.97614 0.0
C276 C 0.78354 0.81844 0.983 0.0
C277 C 0.80835 0.78382 0.9638 0.0
H278 H 0.81493 0.89994 0.0138 0.0
H279 H 0.72409 0.8034 0.98514 0.0
C280 C 0.88562 0.80381 0.96197 0.0
C281 C 0.05642 0.89326 0.32672 0.0
C282 C 0.11238 0.97096 0.31796 0.0
H283 H 0.01058 0.77427 0.31995 0.0
C284 C 0.16619 0.98764 0.29493 0.0
H285 H 0.01445 0.87837 0.3445 0.0
C286 C 0.16392 0.92802 0.28089 0.0
C287 C 0.10775 0.85042 0.28954 0.0
H288 H 0.21015 0.04685 0.28763 0.0
H289 H 0.20524 0.94286 0.26288 0.0
C290 C 0.05413 0.83362 0.31264 0.0
C291 C 0.26716 0.07776 0.61461 0.0
C292 C 0.24625 0.04129 0.64241 0.0
H293 H 0.33627 0.10061 0.57562 0.0
C294 C 0.27769 0.99704 0.65191 0.0
H295 H 0.24408 0.11257 0.60681 0.0
C296 C 0.33101 0.99149 0.63431 0.0
C297 C 0.3521 0.02816 0.60663 0.0
H298 H 0.26349 0.96919 0.67334 0.0
H299 H 0.35717 0.95999 0.64251 0.0
C300 C 0.31961 0.07098 0.59681 0.0
C301 C 0.32464 0.29169 0.98541 0.0
C302 C 0.25322 0.25586 0.97397 0.0
H303 H 0.44489 0.37779 0.97838 0.0
C304 C 0.24968 0.27635 0.94554 0.0
H305 H 0.32905 0.27734 0.00728 0.0
C306 C 0.31594 0.33266 0.92905 0.0
C307 C 0.38657 0.37005 0.9408 0.0
H308 H 0.19557 0.24945 0.9361 0.0
H309 H 0.31189 0.34838 0.90729 0.0
C310 C 0.39076 0.34895 0.96898 0.0
C311 C 0.09502 0.36632 0.33294 0.0
C312 C 0.06379 0.29087 0.32499 0.0
H313 H 0.11977 0.48187 0.32135 0.0
C314 C 0.0309 0.27344 0.29915 0.0
H315 H 0.11997 0.38101 0.35288 0.0
C316 C 0.03193 0.33118 0.28108 0.0
C317 C 0.06463 0.4068 0.28878 0.0
H318 H 0.00625 0.2157 0.29252 0.0
H319 H 0.00864 0.31728 0.26082 0.0
C320 C 0.09465 0.42372 0.31507 0.0
loop_
_geom_bond_atom_site_label_1
_geom_bond_atom_site_label_2
_geom_bond_distance
_geom_bond_site_symmetry_2
_ccdc_geom_bond_type
C0 O1 1.306 . S
C0 O3 1.160 . S
O1 C0 1.306 . S
O1 Cd2 2.228 . S
Cd2 O1 2.228 . S
Cd2 O6 2.273 . S
Cd2 O10 2.277 . S
O3 C0 1.160 . S
O3 Cd4 2.203 . S
Cd4 O3 2.203 . S
Cd4 O6 2.411 . S
Cd4 O7 2.333 1_545 S
Cd4 O8 2.352 1_545 S
Cd4 O12 2.277 . S
Cd4 O13 2.356 1_545 S
C5 O10 1.209 . S
C5 O12 1.226 . S
O6 Cd2 2.273 . S
O6 Cd4 2.411 . S
O6 C9 1.320 1_545 S
O7 Cd4 2.333 1_565 S
O7 C9 1.214 . S
O8 Cd4 2.352 1_565 S
O8 C11 1.258 . S
C9 O6 1.320 1_565 S
C9 O7 1.214 . S
O10 Cd2 2.277 . S
O10 C5 1.209 . S
C11 O8 1.258 . S
C11 O13 1.282 . S
O12 Cd4 2.277 . S
O12 C5 1.226 . S
O13 Cd4 2.356 1_565 S
O13 C11 1.282 . S
C14 O15 1.306 . S
C14 O17 1.160 . S
O15 C14 1.306 . S
O15 Cd16 2.228 . S
Cd16 O15 2.228 . S
Cd16 O20 2.273 . S
Cd16 O24 2.277 . S
O17 C14 1.160 . S
O17 Cd18 2.203 . S
Cd18 O17 2.203 . S
Cd18 O20 2.411 . S
Cd18 O21 2.325 1_455 S
Cd18 O22 2.352 . S
Cd18 O26 2.277 1_545 S
Cd18 O27 2.356 1_455 S
C19 O24 1.209 1_565 S
C19 O26 1.227 . S
O20 Cd16 2.273 . S
O20 Cd18 2.411 . S
O20 C23 1.320 . S
O21 Cd18 2.325 1_655 S
O21 C23 1.206 1_655 S
O22 Cd18 2.352 . S
O22 C25 1.258 1_455 S
C23 O20 1.320 . S
C23 O21 1.206 1_455 S
O24 Cd16 2.277 . S
O24 C19 1.209 1_545 S
C25 O22 1.258 1_655 S
C25 O27 1.282 . S
O26 Cd18 2.277 1_565 S
O26 C19 1.227 . S
O27 Cd18 2.356 1_655 S
O27 C25 1.282 . S
C28 O29 1.306 . S
C28 O31 1.160 1_655 S
O29 C28 1.306 . S
O29 Cd30 2.228 1_655 S
Cd30 O29 2.228 1_455 S
Cd30 O34 2.273 . S
Cd30 O38 2.277 1_455 S
O31 C28 1.160 1_455 S
O31 Cd32 2.203 . S
Cd32 O31 2.203 . S
Cd32 O34 2.411 . S
Cd32 O35 2.333 . S
Cd32 O36 2.352 . S
Cd32 O40 2.277 1_545 S
Cd32 O41 2.356 . S
C33 O38 1.209 1_565 S
C33 O40 1.226 1_655 S
O34 Cd30 2.273 . S
O34 Cd32 2.411 . S
O34 C37 1.320 . S
O35 Cd32 2.333 . S
O35 C37 1.214 . S
O36 Cd32 2.352 . S
O36 C39 1.258 . S
C37 O34 1.320 . S
C37 O35 1.214 . S
O38 Cd30 2.277 1_655 S
O38 C33 1.209 1_545 S
C39 O36 1.258 . S
C39 O41 1.282 . S
O40 Cd32 2.277 1_565 S
O40 C33 1.226 1_455 S
O41 Cd32 2.356 . S
O41 C39 1.282 . S
C42 C43 1.443 . S
C42 N46 1.376 . S
C42 C80 1.389 . S
C43 C42 1.443 . S
C43 C44 1.340 . S
C43 H83 0.951 . S
C44 C43 1.340 . S
C44 C45 1.439 . S
C44 H84 0.950 . S
C45 C44 1.439 . S
C45 N46 1.374 . S
C45 C79 1.395 . S
N46 C42 1.376 . S
N46 C45 1.374 . S
N46 Co47 2.008 . S
Co47 N46 2.008 . S
Co47 N48 1.995 . S
Co47 N53 2.008 1_455 S
Co47 N58 1.995 1_455 S
Co47 N63 2.282 . S
Co47 N69 2.282 . S
N48 Co47 1.995 . S
N48 C49 1.376 . S
N48 C52 1.383 . S
C49 N48 1.376 . S
C49 C50 1.446 . S
C49 C79 1.391 . S
C50 C49 1.446 . S
C50 C51 1.339 . S
C50 H85 0.949 . S
C51 C50 1.339 . S
C51 C52 1.439 . S
C51 H86 0.950 . S
C52 N48 1.383 . S
C52 C51 1.439 . S
C52 C81 1.392 . S
N53 Co47 2.008 1_655 S
N53 C54 1.367 1_655 S
N53 C57 1.374 . S
C54 N53 1.367 1_455 S
C54 C55 1.435 1_455 S
C54 C81 1.405 . S
C55 C54 1.435 1_655 S
C55 C56 1.340 . S
C55 H87 0.951 . S
C56 C55 1.340 . S
C56 C57 1.439 . S
C56 H88 0.950 . S
C57 N53 1.374 . S
C57 C56 1.439 . S
C57 C82 1.395 . S
N58 Co47 1.995 1_655 S
N58 C59 1.375 . S
N58 C62 1.383 1_655 S
C59 N58 1.375 . S
C59 C60 1.446 . S
C59 C82 1.391 . S
C60 C59 1.446 . S
C60 C61 1.339 . S
C60 H89 0.949 . S
C61 C60 1.339 . S
C61 C62 1.439 1_655 S
C61 H90 0.950 . S
C62 N58 1.383 1_455 S
C62 C61 1.439 1_455 S
C62 C80 1.392 . S
N63 Co47 2.282 . S
N63 C66 1.332 . S
N63 C68 1.332 . S
C64 C65 1.386 . S
C64 C67 1.388 . S
C65 C64 1.386 . S
C65 C66 1.382 . S
C65 H91 0.950 1_455 S
C66 N63 1.332 . S
C66 C65 1.382 . S
C66 H77 0.952 1_455 S
C67 C64 1.388 . S
C67 C68 1.382 . S
C67 H92 0.950 . S
C68 N63 1.332 . S
C68 C67 1.382 . S
C68 H78 0.948 . S
N69 Co47 2.282 . S
N69 C73 1.332 . S
N69 C74 1.332 . S
C70 C71 1.388 . S
C70 C74 1.382 . S
C70 H93 0.950 1_455 S
C71 C70 1.388 . S
C71 C72 1.386 . S
C72 C71 1.386 . S
C72 C73 1.382 . S
C72 H94 0.950 . S
C73 N69 1.332 . S
C73 C72 1.382 . S
C73 H75 0.952 . S
C74 N69 1.332 . S
C74 C70 1.382 . S
C74 H76 0.948 1_455 S
H75 C73 0.952 . S
H76 C74 0.948 1_655 S
H77 C66 0.952 1_655 S
H78 C68 0.948 . S
C79 C45 1.395 . S
C79 C49 1.391 . S
C80 C42 1.389 . S
C80 C62 1.392 . S
C81 C52 1.392 . S
C81 C54 1.405 . S
C82 C57 1.395 . S
C82 C59 1.391 . S
H83 C43 0.951 . S
H84 C44 0.950 . S
H85 C50 0.949 . S
H86 C51 0.950 . S
H87 C55 0.951 . S
H88 C56 0.950 . S
H89 C60 0.949 . S
H90 C61 0.950 . S
H91 C65 0.950 1_655 S
H92 C67 0.950 . S
H93 C70 0.950 1_655 S
H94 C72 0.950 . S
C95 C96 1.443 1_545 S
C95 N99 1.376 . S
C95 C133 1.389 . S
C96 C95 1.443 1_565 S
C96 C97 1.340 . S
C96 H136 0.951 . S
C97 C96 1.340 . S
C97 C98 1.439 . S
C97 H137 0.950 . S
C98 C97 1.439 . S
C98 N99 1.374 1_565 S
C98 C132 1.395 . S
N99 C95 1.376 . S
N99 C98 1.374 1_545 S
N99 Co100 2.008 . S
Co100 N99 2.008 . S
Co100 N101 1.995 . S
Co100 N106 2.008 . S
Co100 N111 1.995 . S
Co100 N116 2.282 . S
Co100 N122 2.282 . S
N101 Co100 1.995 . S
N101 C102 1.376 1_545 S
N101 C105 1.383 . S
C102 N101 1.376 1_565 S
C102 C103 1.446 . S
C102 C132 1.391 . S
C103 C102 1.446 . S
C103 C104 1.339 . S
C103 H138 0.949 . S
C104 C103 1.339 . S
C104 C105 1.439 1_565 S
C104 H139 0.950 . S
C105 N101 1.383 . S
C105 C104 1.439 1_545 S
C105 C134 1.392 . S
N106 Co100 2.008 . S
N106 C107 1.376 . S
N106 C110 1.374 . S
C107 N106 1.376 . S
C107 C108 1.443 . S
C107 C134 1.389 . S
C108 C107 1.443 . S
C108 C109 1.340 . S
C108 H140 0.951 . S
C109 C108 1.340 . S
C109 C110 1.439 . S
C109 H141 0.950 . S
C110 N106 1.374 . S
C110 C109 1.439 . S
C110 C135 1.395 . S
N111 Co100 1.995 . S
N111 C112 1.376 . S
N111 C115 1.383 . S
C112 N111 1.376 . S
C112 C113 1.446 . S
C112 C135 1.391 . S
C113 C112 1.446 . S
C113 C114 1.339 . S
C113 H142 0.949 . S
C114 C113 1.339 . S
C114 C115 1.439 . S
C114 H143 0.950 . S
C115 N111 1.383 . S
C115 C114 1.439 . S
C115 C133 1.392 . S
N116 Co100 2.282 . S
N116 C119 1.332 . S
N116 C121 1.332 . S
C117 C118 1.386 . S
C117 C120 1.388 . S
C118 C117 1.386 . S
C118 C119 1.382 . S
C118 H144 0.950 . S
C119 N116 1.332 . S
C119 C118 1.382 . S
C119 H130 0.952 . S
C120 C117 1.388 . S
C120 C121 1.382 . S
C120 H145 0.950 1_545 S
C121 N116 1.332 . S
C121 C120 1.382 . S
C121 H131 0.948 1_545 S
N122 Co100 2.282 . S
N122 C126 1.332 . S
N122 C127 1.332 . S
C123 C124 1.388 . S
C123 C127 1.382 . S
C123 H146 0.950 . S
C124 C123 1.388 . S
C124 C125 1.386 . S
C125 C124 1.386 . S
C125 C126 1.382 . S
C125 H147 0.950 1_545 S
C126 N122 1.332 . S
C126 C125 1.382 . S
C126 H128 0.934 1_545 S
C127 N122 1.332 . S
C127 C123 1.382 . S
C127 H129 0.948 . S
H128 C126 0.934 1_565 S
H129 C127 0.948 . S
H130 C119 0.952 . S
H131 C121 0.948 1_565 S
C132 C98 1.395 . S
C132 C102 1.391 . S
C133 C95 1.389 . S
C133 C115 1.392 . S
C134 C105 1.392 . S
C134 C107 1.389 . S
C135 C110 1.395 . S
C135 C112 1.391 . S
H136 C96 0.951 . S
H137 C97 0.950 . S
H138 C103 0.949 . S
H139 C104 0.950 . S
H140 C108 0.951 . S
H141 C109 0.950 . S
H142 C113 0.949 . S
H143 C114 0.950 . S
H144 C118 0.950 . S
H145 C120 0.950 1_565 S
H146 C123 0.950 . S
H147 C125 0.950 1_565 S
C148 C149 1.443 . S
C148 N152 1.376 . S
C148 C186 1.389 . S
C149 C148 1.443 . S
C149 C150 1.340 . S
C149 H189 0.951 . S
C150 C149 1.340 . S
C150 C151 1.439 . S
C150 H190 0.950 . S
C151 C150 1.439 . S
C151 N152 1.374 . S
C151 C185 1.395 . S
N152 C148 1.376 . S
N152 C151 1.374 . S
N152 Co153 2.008 . S
Co153 N152 2.008 . S
Co153 N154 1.995 . S
Co153 N159 2.008 . S
Co153 N164 1.995 . S
Co153 N169 2.282 . S
Co153 N175 2.282 . S
N154 Co153 1.995 . S
N154 C155 1.376 . S
N154 C158 1.383 . S
C155 N154 1.376 . S
C155 C156 1.446 . S
C155 C185 1.391 . S
C156 C155 1.446 . S
C156 C157 1.339 . S
C156 H191 0.949 . S
C157 C156 1.339 . S
C157 C158 1.439 . S
C157 H192 0.950 . S
C158 N154 1.383 . S
C158 C157 1.439 . S
C158 C187 1.392 . S
N159 Co153 2.008 . S
N159 C160 1.376 . S
N159 C163 1.374 . S
C160 N159 1.376 . S
C160 C161 1.443 . S
C160 C187 1.389 . S
C161 C160 1.443 . S
C161 C162 1.340 . S
C161 H193 0.951 . S
C162 C161 1.340 . S
C162 C163 1.439 . S
C162 H194 0.950 . S
C163 N159 1.374 . S
C163 C162 1.439 . S
C163 C188 1.395 . S
N164 Co153 1.995 . S
N164 C165 1.376 . S
N164 C168 1.383 . S
C165 N164 1.376 . S
C165 C166 1.446 . S
C165 C188 1.391 . S
C166 C165 1.446 . S
C166 C167 1.339 . S
C166 H195 0.949 . S
C167 C166 1.339 . S
C167 C168 1.439 . S
C167 H196 0.950 . S
C168 N164 1.383 . S
C168 C167 1.439 . S
C168 C186 1.392 . S
N169 Co153 2.282 . S
N169 C172 1.332 . S
N169 C174 1.332 . S
C170 C171 1.386 . S
C170 C173 1.388 . S
C171 C170 1.386 . S
C171 C172 1.382 . S
C171 H197 0.950 . S
C172 N169 1.332 . S
C172 C171 1.382 . S
C172 H183 0.952 . S
C173 C170 1.388 . S
C173 C174 1.382 . S
C173 H198 0.950 . S
C174 N169 1.332 . S
C174 C173 1.382 . S
C174 H184 0.948 . S
N175 Co153 2.282 . S
N175 C179 1.332 . S
N175 C180 1.332 . S
C176 C177 1.388 . S
C176 C180 1.382 . S
C176 H199 0.950 . S
C177 C176 1.388 . S
C177 C178 1.386 . S
C178 C177 1.386 . S
C178 C179 1.382 . S
C178 H200 0.950 . S
C179 N175 1.332 . S
C179 C178 1.382 . S
C179 H181 0.952 . S
C180 N175 1.332 . S
C180 C176 1.382 . S
C180 H182 0.948 . S
H181 C179 0.952 . S
H182 C180 0.948 . S
H183 C172 0.952 . S
H184 C174 0.948 . S
C185 C151 1.395 . S
C185 C155 1.391 . S
C186 C148 1.389 . S
C186 C168 1.392 . S
C187 C158 1.392 . S
C187 C160 1.389 . S
C188 C163 1.395 . S
C188 C165 1.391 . S
H189 C149 0.951 . S
H190 C150 0.950 . S
H191 C156 0.949 . S
H192 C157 0.950 . S
H193 C161 0.951 . S
H194 C162 0.950 . S
H195 C166 0.949 . S
H196 C167 0.950 . S
H197 C171 0.950 . S
H198 C173 0.950 . S
H199 C176 0.950 . S
H200 C178 0.950 . S
C201 C202 1.387 . S
C201 H205 0.950 . S
C201 C210 1.390 . S
C202 C201 1.387 . S
C202 C204 1.387 . S
H203 C210 0.950 . S
C204 C202 1.387 . S
C204 C206 1.390 . S
C204 H208 0.950 . S
H205 C201 0.950 . S
C206 C204 1.390 . S
C206 C207 1.387 . S
C206 H209 0.950 . S
C207 C206 1.387 . S
C207 C210 1.387 . S
H208 C204 0.950 . S
H209 C206 0.950 . S
C210 C201 1.390 . S
C210 H203 0.950 . S
C210 C207 1.387 . S
C211 C212 1.387 . S
C211 H215 0.950 . S
C211 C220 1.390 . S
C212 C211 1.387 . S
C212 C214 1.387 . S
H213 C220 0.950 . S
C214 C212 1.387 . S
C214 C216 1.390 . S
C214 H218 0.950 1_545 S
H215 C211 0.950 . S
C216 C214 1.390 . S
C216 C217 1.387 . S
C216 H219 0.950 1_545 S
C217 C216 1.387 . S
C217 C220 1.387 . S
H218 C214 0.950 1_565 S
H219 C216 0.950 1_565 S
C220 C211 1.390 . S
C220 H213 0.950 . S
C220 C217 1.387 . S
C221 C222 1.387 . S
C221 H225 0.950 . S
C221 C230 1.390 . S
C222 C221 1.387 . S
C222 C224 1.387 . S
H223 C230 0.950 . S
C224 C222 1.387 . S
C224 C226 1.390 . S
C224 H228 0.950 . S
H225 C221 0.950 . S
C226 C224 1.390 . S
C226 C227 1.387 . S
C226 H229 0.950 . S
C227 C226 1.387 . S
C227 C230 1.387 . S
H228 C224 0.950 . S
H229 C226 0.950 . S
C230 C221 1.390 . S
C230 H223 0.950 . S
C230 C227 1.387 . S
C231 C232 1.387 . S
C231 H235 0.950 1_455 S
C231 C240 1.390 . S
C232 C231 1.387 . S
C232 C234 1.387 . S
H233 C240 0.950 1_655 S
C234 C232 1.387 . S
C234 C236 1.390 . S
C234 H238 0.950 . S
H235 C231 0.950 1_655 S
C236 C234 1.390 . S
C236 C237 1.387 . S
C236 H239 0.950 . S
C237 C236 1.387 . S
C237 C240 1.387 . S
H238 C234 0.950 . S
H239 C236 0.950 . S
C240 C231 1.390 . S
C240 H233 0.950 1_455 S
C240 C237 1.387 . S
C241 C242 1.387 . S
C241 H245 0.950 1_545 S
C241 C250 1.390 . S
C242 C241 1.387 . S
C242 C244 1.387 . S
H243 C250 0.950 1_565 S
C244 C242 1.387 . S
C244 C246 1.390 . S
C244 H248 0.950 . S
H245 C241 0.950 1_565 S
C246 C244 1.390 . S
C246 C247 1.387 . S
C246 H249 0.950 . S
C247 C246 1.387 . S
C247 C250 1.387 . S
H248 C244 0.950 . S
H249 C246 0.950 . S
C250 C241 1.390 . S
C250 H243 0.950 1_545 S
C250 C247 1.387 . S
C251 C252 1.387 . S
C251 H255 0.950 . S
C251 C260 1.390 . S
C252 C251 1.387 . S
C252 C254 1.387 . S
H253 C260 0.950 . S
C254 C252 1.387 . S
C254 C256 1.390 . S
C254 H258 0.950 . S
H255 C251 0.950 . S
C256 C254 1.390 . S
C256 C257 1.387 . S
C256 H259 0.950 . S
C257 C256 1.387 . S
C257 C260 1.387 . S
H258 C254 0.950 . S
H259 C256 0.950 . S
C260 C251 1.390 . S
C260 H253 0.950 . S
C260 C257 1.387 . S
C261 C262 1.387 . S
C261 H265 0.950 1_545 S
C261 C270 1.390 . S
C262 C261 1.387 . S
C262 C264 1.387 . S
H263 C270 0.950 1_565 S
C264 C262 1.387 . S
C264 C266 1.390 . S
C264 H268 0.950 . S
H265 C261 0.950 1_565 S
C266 C264 1.390 . S
C266 C267 1.387 . S
C266 H269 0.950 . S
C267 C266 1.387 . S
C267 C270 1.387 . S
H268 C264 0.950 . S
H269 C266 0.950 . S
C270 C261 1.390 . S
C270 H263 0.950 1_545 S
C270 C267 1.387 . S
C271 C272 1.387 . S
C271 H275 0.950 1_655 S
C271 C280 1.390 . S
C272 C271 1.387 . S
C272 C274 1.387 1_556 S
H273 C280 0.950 . S
C274 C272 1.387 1_554 S
C274 C276 1.390 1_554 S
C274 H278 0.950 . S
H275 C271 0.950 1_455 S
C276 C274 1.390 1_556 S
C276 C277 1.387 . S
C276 H279 0.950 . S
C277 C276 1.387 . S
C277 C280 1.387 . S
H278 C274 0.950 . S
H279 C276 0.950 . S
C280 C271 1.390 . S
C280 H273 0.950 . S
C280 C277 1.387 . S
C281 C282 1.387 . S
C281 H285 0.950 . S
C281 C290 1.390 . S
C282 C281 1.387 . S
C282 C284 1.387 . S
H283 C290 0.950 . S
C284 C282 1.387 . S
C284 C286 1.390 . S
C284 H288 0.950 1_565 S
H285 C281 0.950 . S
C286 C284 1.390 . S
C286 C287 1.387 . S
C286 H289 0.950 . S
C287 C286 1.387 . S
C287 C290 1.387 . S
H288 C284 0.950 1_545 S
H289 C286 0.950 . S
C290 C281 1.390 . S
C290 H283 0.950 . S
C290 C287 1.387 . S
C291 C292 1.387 . S
C291 H295 0.950 . S
C291 C300 1.390 . S
C292 C291 1.387 . S
C292 C294 1.387 . S
H293 C300 0.950 . S
C294 C292 1.387 . S
C294 C296 1.390 . S
C294 H298 0.950 1_545 S
H295 C291 0.950 . S
C296 C294 1.390 . S
C296 C297 1.387 . S
C296 H299 0.950 1_545 S
C297 C296 1.387 . S
C297 C300 1.387 . S
H298 C294 0.950 1_565 S
H299 C296 0.950 1_565 S
C300 C291 1.390 . S
C300 H293 0.950 . S
C300 C297 1.387 . S
C301 C302 1.387 . S
C301 H305 0.950 1_556 S
C301 C310 1.390 . S
C302 C301 1.387 . S
C302 C304 1.387 . S
H303 C310 0.950 . S
C304 C302 1.387 . S
C304 C306 1.390 . S
C304 H308 0.950 . S
H305 C301 0.950 1_554 S
C306 C304 1.390 . S
C306 C307 1.387 . S
C306 H309 0.950 . S
C307 C306 1.387 . S
C307 C310 1.387 . S
H308 C304 0.950 . S
H309 C306 0.950 . S
C310 C301 1.390 . S
C310 H303 0.950 . S
C310 C307 1.387 . S
C311 C312 1.387 . S
C311 H315 0.950 . S
C311 C320 1.390 . S
C312 C311 1.387 . S
C312 C314 1.387 . S
H313 C320 0.950 . S
C314 C312 1.387 . S
C314 C316 1.390 . S
C314 H318 0.950 . S
H315 C311 0.950 . S
C316 C314 1.390 . S
C316 C317 1.387 . S
C316 H319 0.950 . S
C317 C316 1.387 . S
C317 C320 1.387 . S
H318 C314 0.950 . S
H319 C316 0.950 . S
C320 C311 1.390 . S
C320 H313 0.950 . S
C320 C317 1.387 . S
C207 C64 1.464 . S
C202 C0 1.463 . S
C212 C25 1.497 . S
C217 C134 1.497 . S
C222 C33 1.509 . S
C227 C186 1.510 . S
C232 C11 1.453 . S
C237 C80 1.451 . S
C247 C124 1.488 . S
C242 C14 1.486 . S
C252 C37 1.498 . S
C257 C170 1.504 . S
C267 C117 1.487 . S
C262 C28 1.485 . S
C272 C9 1.499 1_656 S
C277 C177 1.503 . S
C287 C71 1.526 . S
C282 C19 1.524 . S
C297 C133 1.493 . S
C292 C39 1.496 . S
C307 C187 1.509 . S
C302 C5 1.507 1_556 S
C312 C23 1.535 . S
C317 C81 1.548 . S
