# Generated by pormake.
# Topology pth, (4,4)-cn, num edge types: 1
# Building blocks:
#     Node 0, Type 0, BuildingBlock: UXUYUI_clean_sbu_0, # of connection points: 4
#     Node 1, Type 0, BuildingBlock: UXUYUI_clean_sbu_0, # of connection points: 4
#     Node 2, Type 0, BuildingBlock: UXUYUI_clean_sbu_0, # of connection points: 4
#     Node 3, Type 1, BuildingBlock: MUDLON_clean_sbu_0, # of connection points: 4
#     Node 4, Type 1, BuildingBlock: MUDLON_clean_sbu_0, # of connection points: 4
#     Node 5, Type 1, BuildingBlock: MUDLON_clean_sbu_0, # of connection points: 4
#     Edge 6, Type (0, 1), BuildingBlock: FUNLAD_clean_linker_1, # of connection points: 2
#     Edge 7, Type (0, 1), BuildingBlock: FUNLAD_clean_linker_1, # of connection points: 2
#     Edge 8, Type (0, 1), BuildingBlock: FUNLAD_clean_linker_1, # of connection points: 2
#     Edge 9, Type (0, 1), BuildingBlock: FUNLAD_clean_linker_1, # of connection points: 2
#     Edge 10, Type (0, 1), BuildingBlock: FUNLAD_clean_linker_1, # of connection points: 2
#     Edge 11, Type (0, 1), BuildingBlock: FUNLAD_clean_linker_1, # of connection points: 2
#     Edge 12, Type (0, 1), BuildingBlock: FUNLAD_clean_linker_1, # of connection points: 2
#     Edge 13, Type (0, 1), BuildingBlock: FUNLAD_clean_linker_1, # of connection points: 2
#     Edge 14, Type (0, 1), BuildingBlock: FUNLAD_clean_linker_1, # of connection points: 2
#     Edge 15, Type (0, 1), BuildingBlock: FUNLAD_clean_linker_1, # of connection points: 2
#     Edge 16, Type (0, 1), BuildingBlock: FUNLAD_clean_linker_1, # of connection points: 2
#     Edge 17, Type (0, 1), BuildingBlock: FUNLAD_clean_linker_1, # of connection points: 2
# Relax obj value: 0.110
# Max RMSD: 0.229
# Mean RMSD: 0.139
data_MOF--net-pth--node1-UXUYUI_clean_sbu_0--node2-MUDLON_clean_sbu_0--edge1-FUNLAD_clean_linker_1
_symmetry_space_group_name_H-M    P1
_symmetry_Int_Tables_number       1
_symmetry_cell_setting            triclinic
loop_
_symmetry_equiv_pos_as_xyz
'x, y, z'
_cell_length_a     28.713397
_cell_length_b     28.715509
_cell_length_c     75.736916
_cell_angle_alpha  90.005466
_cell_angle_beta   89.825605
_cell_angle_gamma 120.00563
loop_
_atom_site_label
_atom_site_type_symbol
_atom_site_fract_x
_atom_site_fract_y
_atom_site_fract_z
_atom_type_partial_charge
Li0 Li 0.07322 0.05109 0.09764 0.0
Li1 Li 1.00693 0.05317 0.121 0.0
Li2 Li 0.03289 0.98338 0.12088 0.0
Li3 Li 0.97683 0.98307 0.09854 0.0
C4 C 0.11562 0.06588 0.13649 0.0
N5 N 0.18389 0.06857 0.16258 0.0
C6 C 0.09953 0.05928 0.15417 0.0
C7 C 0.16652 0.07423 0.13205 0.0
C8 C 0.13459 0.0606 0.16717 0.0
C9 C 0.20045 0.07542 0.14545 0.0
C10 C 0.97701 0.06543 0.08253 0.0
C11 C 0.9013 0.07575 0.07475 0.0
N12 N 0.9087 0.06809 0.05747 0.0
C13 C 0.98412 0.05802 0.0647 0.0
C14 C 0.93543 0.07456 0.08763 0.0
C15 C 0.94903 0.05934 0.05223 0.0
C16 C 0.13001 0.07497 0.06571 0.0
N17 N 0.13218 0.09385 0.08232 0.0
C18 C 0.21419 0.1747 0.07551 0.0
C19 C 0.17318 0.14256 0.08743 0.0
C20 C 0.21267 0.1564 0.05814 0.0
C21 C 0.16986 0.10582 0.05336 0.0
H22 H 0.09671 0.03619 0.06199 0.0
H23 H 0.17342 0.15692 0.10066 0.0
C24 C 0.97314 0.08191 0.15202 0.0
N25 N 0.99286 0.09905 0.13549 0.0
C26 C 0.96474 0.11517 0.16349 0.0
C27 C 0.99694 0.18314 0.14067 0.0
C28 C 1.00475 0.14854 0.12964 0.0
C29 C 0.97674 0.16678 0.15786 0.0
H30 H 0.96466 0.04254 0.15638 0.0
H31 H 0.02095 0.16136 0.11649 0.0
C32 C 0.05845 0.93803 0.09512 0.0
N33 N 0.09751 0.86751 0.09516 0.0
C34 C 0.0238 0.88335 0.09841 0.0
C35 C 0.11285 0.9568 0.09167 0.0
C36 C 0.04438 0.84837 0.09844 0.0
C37 C 0.13183 0.9205 0.09178 0.0
C38 C 0.90678 0.9412 0.12461 0.0
C39 C 0.88575 0.88618 0.12177 0.0
C40 C 0.87198 0.96112 0.12777 0.0
C41 C 0.83005 0.85199 0.12194 0.0
C42 C 0.81651 0.92559 0.12789 0.0
N43 N 0.79688 0.87224 0.12497 0.0
C44 C 1.00596 0.91001 0.1489 0.0
C45 C 0.09256 0.93752 0.13732 0.0
C46 C 0.01126 0.8767 0.16115 0.0
N47 N 0.04601 0.93922 0.13715 0.0
C48 C 0.0996 0.90461 0.14938 0.0
C49 C 0.05823 0.87312 0.16144 0.0
H50 H 0.96973 0.91263 0.14882 0.0
H51 H 0.12446 0.96184 0.12816 0.0
C52 C 0.93016 0.91017 0.07062 0.0
N53 N 0.91914 0.939 0.08244 0.0
C54 C 0.89237 0.87856 0.05794 0.0
C55 C 0.83212 0.90685 0.06958 0.0
C56 C 0.87124 0.93802 0.08208 0.0
C57 C 0.8425 0.87638 0.05727 0.0
H58 H 0.96873 0.91221 0.07085 0.0
H59 H 0.86355 0.96208 0.09129 0.0
O60 O 0.08156 0.06378 0.12355 0.0
O61 O 0.01026 0.06326 0.09497 0.0
O62 O 0.03908 0.97291 0.09508 0.0
O63 O 0.9612 0.97528 0.12449 0.0
H64 H 0.06016 0.05258 0.15779 0.0
H65 H 0.17939 0.07906 0.1184 0.0
H66 H 0.12256 0.05519 0.18091 0.0
H67 H 0.23985 0.08154 0.14221 0.0
H68 H 0.86875 0.08247 0.0785 0.0
H69 H 0.01597 0.05068 0.06057 0.0
H70 H 0.92917 0.07998 0.1014 0.0
H71 H 0.95379 0.05327 0.0384 0.0
H72 H 0.24538 0.21399 0.07976 0.0
H73 H 0.16695 0.09046 0.0401 0.0
H74 H 0.95047 0.10067 0.17668 0.0
H75 H 1.00717 0.22267 0.13585 0.0
H76 H 0.98155 0.86818 0.10099 0.0
H77 H 0.14025 0.99902 0.08916 0.0
H78 H 0.0181 0.806 0.10108 0.0
H79 H 0.17389 0.93448 0.08924 0.0
H80 H 0.91218 0.87012 0.11939 0.0
H81 H 0.88754 1.00361 0.1299 0.0
H82 H 0.81319 0.80936 0.11967 0.0
H83 H 0.78907 0.94046 0.13022 0.0
H84 H 0.97858 0.85359 0.1703 0.0
H85 H 0.13723 0.9046 0.14922 0.0
H86 H 0.9023 0.85615 0.04864 0.0
H87 H 0.79495 0.90775 0.06949 0.0
Li88 Li 0.98479 0.95126 0.42646 0.0
Li89 Li 0.044 0.0086 0.44858 0.0
Li90 Li 0.95215 0.99031 0.4481 0.0
Li91 Li 0.01926 0.05162 0.42521 0.0
C92 C 0.96092 0.88541 0.45212 0.0
N93 N 0.92785 0.77708 0.45031 0.0
C94 C 0.99879 0.86862 0.4504 0.0
C95 C 0.9062 0.84702 0.45295 0.0
C96 C 0.98128 0.81371 0.44948 0.0
C97 C 0.8903 0.79247 0.45204 0.0
C98 C 0.11434 0.03298 0.42247 0.0
C99 C 0.20414 0.10757 0.418 0.0
N100 N 0.22448 0.07501 0.4219 0.0
C101 C 0.13615 1.0002 0.42635 0.0
C102 C 0.14859 0.0871 0.41822 0.0
C103 C 0.19192 0.02223 0.42604 0.0
C104 C 0.9149 0.85025 0.4094 0.0
N105 N 0.96676 0.89013 0.41154 0.0
C106 C 0.99784 0.84287 0.3934 0.0
C107 C 0.00788 0.88742 0.40362 0.0
C108 C 0.94469 0.8006 0.39116 0.0
C109 C 0.90301 0.80469 0.39938 0.0
H110 H 0.88276 0.85322 0.41574 0.0
H111 H 0.04871 0.91959 0.40542 0.0
C112 C 0.0849 0.98077 0.4778 0.0
N113 N 0.09975 0.01938 0.4652 0.0
C114 C 0.12188 0.98362 0.49026 0.0
C115 C 0.18877 0.06749 0.47723 0.0
C116 C 0.15038 0.06283 0.46491 0.0
C117 C 0.17463 0.02718 0.49009 0.0
H118 H 0.04414 0.94749 0.47823 0.0
H119 H 0.16121 0.09385 0.45509 0.0
C120 C 0.89503 0.98532 0.42 0.0
N121 N 0.79567 0.97811 0.41733 0.0
C122 C 0.89099 0.02864 0.41341 0.0
C123 C 0.84851 0.93822 0.42512 0.0
C124 C 0.84039 0.02421 0.41218 0.0
C125 C 0.79867 0.93542 0.42371 0.0
C126 C 0.04768 0.09243 0.46457 0.0
C127 C 0.03235 0.07413 0.48188 0.0
C128 C 0.09423 0.14175 0.46148 0.0
C129 C 0.06425 0.10547 0.49586 0.0
C130 C 0.125 0.17194 0.47582 0.0
N131 N 0.10953 0.15329 0.49257 0.0
C132 C 0.87381 0.94623 0.47576 0.0
C133 C 0.88047 0.02238 0.46123 0.0
C134 C 0.83537 0.94487 0.48747 0.0
N135 N 0.89514 0.98433 0.46288 0.0
C136 C 0.84234 0.02262 0.47266 0.0
C137 C 0.81923 0.98362 0.48601 0.0
H138 H 0.88797 0.91801 0.47736 0.0
H139 H 0.89939 0.05336 0.45128 0.0
C140 C 0.04571 0.10534 0.39255 0.0
N141 N 0.03774 0.11119 0.40991 0.0
C142 C 0.05494 0.1458 0.38045 0.0
C143 C 0.04813 0.19795 0.40432 0.0
C144 C 0.03899 0.15637 0.41598 0.0
C145 C 0.05602 0.19282 0.3862 0.0
H146 H 0.04383 0.06866 0.38808 0.0
H147 H 0.03138 0.15945 0.42981 0.0
O148 O 0.97736 0.93913 0.45262 0.0
O149 O 0.05981 0.0122 0.42267 0.0
O150 O 0.94429 0.98916 0.42152 0.0
O151 O 0.01769 0.06175 0.45072 0.0
H152 H 0.04125 0.8977 0.44962 0.0
H153 H 0.87618 0.85911 0.45396 0.0
H154 H 0.01016 0.80022 0.44806 0.0
H155 H 0.84808 0.76237 0.45256 0.0
H156 H 0.2311 0.14941 0.4148 0.0
H157 H 0.11039 0.95833 0.42974 0.0
H158 H 0.13259 0.1132 0.41527 0.0
H159 H 0.20933 0.9974 0.42912 0.0
H160 H 0.03168 0.84122 0.38779 0.0
H161 H 0.86157 0.77286 0.39809 0.0
H162 H 0.10922 0.95186 0.49999 0.0
H163 H 0.22906 0.10165 0.47637 0.0
H164 H 0.9265 0.06535 0.40935 0.0
H165 H 0.85094 0.90459 0.43044 0.0
H166 H 0.83668 0.05747 0.40715 0.0
H167 H 0.7624 0.89938 0.42777 0.0
H168 H 0.99651 0.03587 0.48445 0.0
H169 H 0.10681 0.1562 0.44814 0.0
H170 H 0.05309 0.09171 0.50932 0.0
H171 H 0.16131 0.21006 0.47364 0.0
H172 H 0.8204 0.91512 0.4979 0.0
H173 H 0.83171 0.0537 0.47126 0.0
H174 H 0.06034 0.13997 0.36662 0.0
H175 H 0.04711 0.23253 0.40947 0.0
Li176 Li 0.02896 0.97989 0.77 0.0
Li177 Li 0.02736 0.04575 0.79179 0.0
Li178 Li 0.95758 0.94638 0.79165 0.0
Li179 Li 0.95915 1.00354 0.76857 0.0
C180 C 0.08016 0.97529 0.79803 0.0
N181 N 0.16983 0.96359 0.80028 0.0
C182 C 0.13009 0.01925 0.80245 0.0
C183 C 0.07577 0.92527 0.79491 0.0
C184 C 0.17496 0.01254 0.80349 0.0
C185 C 0.12159 0.9202 0.79605 0.0
C186 C 0.04166 0.08446 0.75248 0.0
C187 C 0.04518 0.16482 0.74137 0.0
N188 N 0.04401 0.14746 0.72457 0.0
C189 C 0.04074 0.06748 0.73513 0.0
C190 C 0.04406 0.13354 0.75567 0.0
C191 C 0.04185 0.09989 0.72119 0.0
C192 C 0.06136 0.92589 0.74512 0.0
N193 N 0.07823 0.96931 0.75587 0.0
C194 C 0.1681 0.00683 0.74493 0.0
C195 C 0.13042 0.00938 0.75596 0.0
C196 C 0.15194 0.96313 0.73341 0.0
C197 C 0.09775 0.92172 0.73381 0.0
H198 H 0.01943 0.89507 0.74502 0.0
H199 H 0.14255 0.044 0.76437 0.0
C200 C 0.05914 0.10582 0.82345 0.0
N201 N 0.07157 0.10665 0.80607 0.0
C202 C 0.09365 0.14768 0.83461 0.0
C203 C 0.15302 0.19045 0.80977 0.0
C204 C 0.11719 0.14798 0.79906 0.0
C205 C 0.14164 0.19065 0.8278 0.0
H206 H 0.02303 0.07188 0.82871 0.0
H207 H 0.1266 0.14705 0.78528 0.0
C208 C 0.91217 0.87881 0.76647 0.0
N209 N 0.83204 0.77227 0.76887 0.0
C210 C 0.85819 0.86466 0.76475 0.0
C211 C 0.92533 0.8387 0.76938 0.0
C212 C 0.81829 0.81059 0.76599 0.0
C213 C 0.88427 0.7851 0.77057 0.0
C214 C 0.91523 0.03262 0.79447 0.0
C215 C 0.86096 1.0018 0.78989 0.0
C216 C 0.93619 0.08641 0.79933 0.0
C217 C 0.82857 0.02536 0.79024 0.0
C218 C 0.90246 0.10846 0.79954 0.0
N219 N 0.84981 0.07775 0.79502 0.0
C220 C 0.93461 0.86464 0.8176 0.0
C221 C 0.85962 0.87143 0.80828 0.0
C222 C 0.90218 0.82305 0.82931 0.0
N223 N 0.91293 0.8879 0.80737 0.0
C224 C 0.82575 0.82984 0.81965 0.0
C225 C 0.84687 0.80544 0.83053 0.0
H226 H 0.97714 0.87856 0.81676 0.0
H227 H 0.84323 0.89053 0.80016 0.0
C228 C 0.89684 0.98044 0.73795 0.0
N229 N 0.91732 0.01672 0.75131 0.0
C230 C 0.86437 0.98451 0.7251 0.0
C231 C 0.87694 0.06532 0.73924 0.0
C232 C 0.90925 0.05958 0.75187 0.0
C233 C 0.85345 0.02694 0.7257 0.0
H234 H 0.90544 0.9479 0.73729 0.0
H235 H 0.92743 0.0892 0.76219 0.0
O236 O 0.03596 0.98131 0.79657 0.0
O237 O 0.03923 0.0527 0.76627 0.0
O238 O 0.95181 0.93166 0.76562 0.0
O239 O 0.94758 0.01022 0.7944 0.0
H240 H 0.1343 0.05821 0.80495 0.0
H241 H 0.03751 0.89082 0.79148 0.0
H242 H 0.21388 0.04628 0.80682 0.0
H243 H 0.1188 0.8818 0.79356 0.0
H244 H 0.04672 0.20276 0.74362 0.0
H245 H 0.03866 0.02943 0.73248 0.0
H246 H 0.04431 0.14695 0.76904 0.0
H247 H 0.04087 0.08717 0.70769 0.0
H248 H 0.20935 0.03959 0.74506 0.0
H249 H 0.08308 0.88663 0.72547 0.0
H250 H 0.08368 0.14492 0.8485 0.0
H251 H 0.18985 0.22241 0.80407 0.0
H252 H 0.84704 0.89511 0.7628 0.0
H253 H 0.96676 0.84881 0.77084 0.0
H254 H 0.77638 0.79914 0.76478 0.0
H255 H 0.89392 0.75371 0.77289 0.0
H256 H 0.84421 0.96054 0.78573 0.0
H257 H 0.97808 0.11105 0.8028 0.0
H258 H 0.78662 1.00208 0.7866 0.0
H259 H 0.91819 0.15005 0.80325 0.0
H260 H 0.92038 0.8049 0.83713 0.0
H261 H 0.78338 0.8174 0.82011 0.0
H262 H 0.84754 0.95435 0.71482 0.0
H263 H 0.86977 0.09873 0.74043 0.0
Mg264 Mg 0.02111 0.50991 0.27453 0.0
C265 C 0.07851 0.50389 0.30821 0.0
O266 O 0.0822 0.55016 0.31211 0.0
C267 C 0.04826 0.58955 0.24712 0.0
O268 O 0.99553 0.55981 0.24709 0.0
C269 C 0.95496 0.39495 0.2615 0.0
O270 O 0.95108 0.38473 0.27851 0.0
O271 O 0.97807 0.44352 0.25625 0.0
O272 O 0.05853 0.48166 0.29349 0.0
O273 O 0.97395 0.53883 0.28847 0.0
C274 C 0.95705 0.52641 0.30425 0.0
O275 O 0.96138 0.48837 0.31241 0.0
O276 O 0.07469 0.57803 0.258 0.0
Mg277 Mg 0.5019 0.01025 0.60936 0.0
C278 C 0.43598 0.02792 0.58393 0.0
O279 O 0.40956 0.97577 0.58681 0.0
C280 C 0.58814 0.02868 0.6338 0.0
O281 O 0.56638 0.97769 0.62946 0.0
C282 C 0.42053 0.99055 0.6362 0.0
O283 O 0.45042 0.04321 0.6355 0.0
O284 O 0.43242 0.96239 0.62621 0.0
O285 O 0.47975 0.05674 0.59216 0.0
O286 O 0.52578 0.96511 0.5921 0.0
C287 C 0.56079 0.99402 0.58062 0.0
O288 O 0.57725 0.04573 0.58002 0.0
O289 O 0.56953 0.05641 0.62694 0.0
Mg290 Mg 0.49896 0.51581 0.94571 0.0
C291 C 0.41804 0.45128 0.91944 0.0
O292 O 0.45293 0.43437 0.91878 0.0
C293 C 0.56932 0.61171 0.96703 0.0
O294 O 0.60329 0.59947 0.95967 0.0
C295 C 0.5048 0.45212 0.97719 0.0
O296 O 0.54711 0.49834 0.98124 0.0
O297 O 0.48083 0.44735 0.96263 0.0
O298 O 0.42659 0.48906 0.93004 0.0
O299 O 0.565 0.54263 0.92689 0.0
C300 C 0.60325 0.53239 0.92665 0.0
O301 O 0.60458 0.49951 0.93841 0.0
O302 O 0.51965 0.58378 0.96323 0.0
H303 H 0.99204 0.24768 0.16559 0.0
C304 C 0.97186 0.20572 0.16968 0.0
H305 H 0.92386 0.15141 0.18989 0.0
H306 H 0.0257 0.33764 0.24728 0.0
H307 H 0.07485 0.2914 0.25339 0.0
H308 H 0.06583 0.21816 0.23409 0.0
H309 H 0.00797 0.19126 0.20841 0.0
C310 C 0.94493 0.19253 0.18515 0.0
C311 C 0.94733 0.23468 0.19722 0.0
C312 C 0.97978 0.24868 0.21254 0.0
C313 C 0.98379 0.28995 0.22394 0.0
C314 C 0.01922 0.30521 0.23854 0.0
C315 C 0.04818 0.27929 0.24213 0.0
C316 C 0.04319 0.23814 0.23125 0.0
C317 C 0.00969 0.22303 0.21657 0.0
H318 H 0.92106 0.30981 0.25396 0.0
C319 C 0.94096 0.3507 0.24886 0.0
H320 H 0.97843 0.4005 0.2267 0.0
H321 H 0.87953 0.21576 0.16944 0.0
H322 H 0.82966 0.26163 0.16329 0.0
H323 H 0.8359 0.33263 0.18315 0.0
H324 H 0.89194 0.35816 0.20931 0.0
C325 C 0.95848 0.3599 0.23202 0.0
C326 C 0.95375 0.31592 0.22031 0.0
C327 C 0.92116 0.30172 0.205 0.0
C328 C 0.9178 0.26096 0.19348 0.0
C329 C 0.88415 0.24695 0.17848 0.0
C330 C 0.85515 0.27281 0.17484 0.0
C331 C 0.85864 0.31278 0.18602 0.0
C332 C 0.89106 0.32713 0.20097 0.0
H333 H 0.78253 0.02562 0.49962 0.0
C334 C 0.78201 0.98751 0.49887 0.0
H335 H 0.74355 0.90757 0.50874 0.0
H336 H 0.71161 0.04645 0.57327 0.0
H337 H 0.80658 0.08104 0.57862 0.0
H338 H 0.86024 0.05793 0.55876 0.0
H339 H 0.81931 1.00028 0.53338 0.0
C340 C 0.74822 0.94738 0.50965 0.0
C341 C 0.71459 0.95623 0.52277 0.0
C342 C 0.73894 0.98928 0.5377 0.0
C343 C 0.70788 1.0022 0.54924 0.0
C344 C 0.73338 0.03568 0.56398 0.0
C345 C 0.78782 0.05563 0.56726 0.0
C346 C 0.81804 0.04264 0.55608 0.0
C347 C 0.79409 0.00976 0.54149 0.0
H348 H 0.57297 0.92861 0.5702 0.0
C349 C 0.58489 0.97079 0.56876 0.0
H350 H 0.63571 0.04407 0.55571 0.0
H351 H 0.65467 0.88732 0.49644 0.0
H352 H 0.55915 0.85089 0.49142 0.0
H353 H 0.50545 0.87446 0.5111 0.0
H354 H 0.54671 0.93422 0.53598 0.0
C355 C 0.62247 1.00148 0.55675 0.0
C356 C 0.65236 0.98157 0.54596 0.0
C357 C 0.62742 0.94635 0.53151 0.0
C358 C 0.65856 0.93331 0.51999 0.0
C359 C 0.63289 0.89857 0.50556 0.0
C360 C 0.57814 0.87744 0.50251 0.0
C361 C 0.54789 0.89067 0.51361 0.0
C362 C 0.57206 0.92489 0.5279 0.0
H363 H 0.76677 0.7435 0.84024 0.0
C364 C 0.80969 0.76201 0.84277 0.0
H365 H 0.8674 0.76689 0.86118 0.0
H366 H 0.69545 0.68324 0.92342 0.0
H367 H 0.75326 0.77659 0.93169 0.0
H368 H 0.82607 0.83938 0.91186 0.0
H369 H 0.84164 0.80924 0.88368 0.0
C370 C 0.82539 0.74695 0.85738 0.0
C371 C 0.78468 0.70762 0.86999 0.0
C372 C 0.77655 0.72578 0.8865 0.0
C373 C 0.7342 0.68971 0.89786 0.0
C374 C 0.72665 0.70907 0.91421 0.0
C375 C 0.75963 0.76252 0.91914 0.0
C376 C 0.80065 0.79785 0.90799 0.0
C377 C 0.80917 0.77997 0.89184 0.0
H378 H 0.68148 0.55285 0.91438 0.0
C379 C 0.64873 0.56152 0.91422 0.0
H380 H 0.62018 0.61094 0.90392 0.0
H381 H 0.79432 0.658 0.84052 0.0
H382 H 0.73658 0.56453 0.83228 0.0
H383 H 0.6611 0.50278 0.85145 0.0
H384 H 0.64322 0.53389 0.87907 0.0
C385 C 0.6517 0.60049 0.90359 0.0
C386 C 0.70012 0.6355 0.89272 0.0
C387 C 0.70967 0.61672 0.87656 0.0
C388 C 0.75235 0.65271 0.86527 0.0
C389 C 0.76163 0.63271 0.84935 0.0
C390 C 0.72896 0.57912 0.84451 0.0
C391 C 0.68652 0.54432 0.85533 0.0
C392 C 0.67675 0.56268 0.87117 0.0
H393 H 0.03008 0.81855 0.1845 0.0
C394 C 0.06177 0.83635 0.17457 0.0
H395 H 0.13031 0.83543 0.16444 0.0
H396 H 0.08081 0.72828 0.24607 0.0
H397 H 0.11058 0.81888 0.2563 0.0
H398 H 0.1358 0.89305 0.2351 0.0
H399 H 0.13057 0.87677 0.2035 0.0
C400 C 0.09943 0.82145 0.17456 0.0
C401 C 0.09546 0.77989 0.18727 0.0
C402 C 0.10101 0.79044 0.20568 0.0
C403 C 0.08811 0.74796 0.2179 0.0
C404 C 0.09117 0.75914 0.2362 0.0
C405 C 0.10815 0.81101 0.24226 0.0
C406 C 0.12223 0.85275 0.23032 0.0
C407 C 0.11877 0.84282 0.21223 0.0
H408 H 0.11897 0.66155 0.23562 0.0
C409 C 0.07548 0.63639 0.23512 0.0
H410 H 1.0034 0.6226 0.2231 0.0
H411 H 0.08721 0.74741 0.15285 0.0
H412 H 0.06267 0.65801 0.1426 0.0
H413 H 0.04261 0.58499 0.16378 0.0
H414 H 0.04685 0.60097 0.19538 0.0
C415 C 0.04673 0.64859 0.22395 0.0
C416 C 0.07114 0.69531 0.21164 0.0
C417 C 0.06994 0.68586 0.19323 0.0
C418 C 0.08211 0.72815 0.18103 0.0
C419 C 0.07885 0.71695 0.16272 0.0
C420 C 0.06477 0.66578 0.15665 0.0
C421 C 0.05341 0.62465 0.16857 0.0
C422 C 0.05582 0.6343 0.18666 0.0
H423 H 0.20266 0.98933 0.50951 0.0
C424 C 0.21352 0.02731 0.50305 0.0
H425 H 0.2717 0.1105 0.50248 0.0
H426 H 0.3455 0.08418 0.57992 0.0
H427 H 0.30401 0.13805 0.5862 0.0
H428 H 0.25899 0.16022 0.56269 0.0
H429 H 0.25487 0.12827 0.53273 0.0
C430 C 0.26029 0.07093 0.50761 0.0
C431 C 0.2957 0.06593 0.52094 0.0
C432 C 0.29952 0.08655 0.53821 0.0
C433 C 0.32616 0.07433 0.55174 0.0
C434 C 0.32678 0.09305 0.56908 0.0
C435 C 0.30293 0.12388 0.57288 0.0
C436 C 0.27752 0.13632 0.55964 0.0
C437 C 0.27548 0.11777 0.54251 0.0
H438 H 0.43952 0.09477 0.56812 0.0
C439 C 0.41586 0.05195 0.57089 0.0
H440 H 0.34678 0.97822 0.56454 0.0
H441 H 0.304 0.02859 0.48854 0.0
H442 H 0.34806 0.97718 0.48193 0.0
H443 H 0.39374 0.95543 0.50534 0.0
H444 H 0.39585 0.98515 0.53548 0.0
C445 C 0.36955 0.02132 0.56219 0.0
C446 C 0.34975 0.04232 0.54782 0.0
C447 C 0.34904 0.02486 0.53026 0.0
C448 C 0.3223 0.03694 0.51679 0.0
C449 C 0.32273 0.01946 0.49934 0.0
C450 C 0.34816 0.99023 0.49535 0.0
C451 C 0.37389 0.97801 0.50853 0.0
C452 C 0.37458 0.99511 0.52579 0.0
H453 H 0.22415 0.25424 0.83458 0.0
C454 C 0.18274 0.23354 0.83926 0.0
H455 H 0.1311 0.22804 0.86018 0.0
H456 H 0.31249 0.30168 0.91812 0.0
H457 H 0.25078 0.20944 0.9268 0.0
H458 H 0.17274 0.15056 0.90824 0.0
H459 H 0.15577 0.18351 0.88096 0.0
C460 C 0.17195 0.24728 0.85512 0.0
C461 C 0.21625 0.28477 0.86703 0.0
C462 C 0.22532 0.26489 0.88302 0.0
C463 C 0.27074 0.29858 0.8936 0.0
C464 C 0.27902 0.27759 0.90946 0.0
C465 C 0.24382 0.22477 0.91464 0.0
C466 C 0.19986 0.19165 0.9042 0.0
C467 C 0.19056 0.21117 0.88856 0.0
H468 H 0.33942 0.43826 0.90981 0.0
C469 C 0.36862 0.42486 0.90863 0.0
H470 H 0.38694 0.36887 0.89717 0.0
H471 H 0.20512 0.33843 0.83898 0.0
H472 H 0.2669 0.43075 0.83031 0.0
H473 H 0.34831 0.48766 0.8478 0.0
H474 H 0.36803 0.45296 0.8742 0.0
C475 C 0.35867 0.38355 0.8979 0.0
C476 C 0.30715 0.35203 0.88819 0.0
C477 C 0.29674 0.37277 0.87264 0.0
C478 C 0.25075 0.33933 0.8622 0.0
C479 C 0.24041 0.3615 0.84704 0.0
C480 C 0.27535 0.41451 0.84198 0.0
C481 C 0.32112 0.4466 0.85185 0.0
C482 C 0.33192 0.4262 0.86701 0.0
H483 H 0.79172 0.99097 0.70491 0.0
C484 C 0.81545 0.02755 0.7125 0.0
H485 H 0.83252 0.1081 0.71568 0.0
H486 H 0.73694 0.09731 0.63846 0.0
H487 H 0.83161 0.16065 0.63362 0.0
H488 H 0.8978 0.18121 0.65734 0.0
H489 H 0.8697 0.13821 0.68606 0.0
C490 C 0.80808 0.06955 0.70931 0.0
C491 C 0.76733 0.06439 0.6961 0.0
C492 C 0.7841 0.0912 0.67961 0.0
C493 C 0.74575 0.07981 0.66599 0.0
C494 C 0.76406 0.10513 0.64937 0.0
C495 C 0.81837 0.14147 0.64639 0.0
C496 C 0.85566 0.15301 0.65974 0.0
C497 C 0.839 0.12809 0.67616 0.0
H498 H 0.64676 0.09348 0.6513 0.0
C499 C 0.63164 0.05224 0.64705 0.0
H500 H 0.63495 0.981 0.65041 0.0
H501 H 0.72072 0.01407 0.72724 0.0
H502 H 0.62566 0.95299 0.73249 0.0
H503 H 0.55926 0.93239 0.70884 0.0
H504 H 0.58748 0.97296 0.67982 0.0
C505 C 0.65128 0.02276 0.65426 0.0
C506 C 0.69062 0.04225 0.66903 0.0
C507 C 0.6735 0.0183 0.68593 0.0
C508 C 0.7118 0.02967 0.69951 0.0
C509 C 0.69344 0.00576 0.71633 0.0
C510 C 0.63895 0.97093 0.71956 0.0
C511 C 0.60157 0.95936 0.70625 0.0
C512 C 0.61836 0.98274 0.68962 0.0
H513 H 0.81868 0.82649 0.03316 0.0
C514 C 0.80391 0.843 0.04323 0.0
H515 H 0.73409 0.84337 0.05238 0.0
H516 H 0.69084 0.76465 0.96766 0.0
H517 H 0.75716 0.8573 0.96089 0.0
H518 H 0.80434 0.92262 0.98475 0.0
H519 H 0.78585 0.89552 0.01552 0.0
C520 C 0.75213 0.83064 0.04228 0.0
C521 C 0.71686 0.79444 0.02801 0.0
C522 C 0.72698 0.81127 1.01012 0.0
C523 C 0.6992 0.77382 0.99638 0.0
C524 C 0.71098 0.79142 0.97861 0.0
C525 C 0.74875 0.84453 0.97454 0.0
C526 C 0.77536 0.88128 0.98798 0.0
C527 C 0.76465 0.86513 1.00557 0.0
H528 H 0.55947 0.66296 0.98694 0.0
C529 C 0.58821 0.654 0.98071 0.0
H530 H 0.66875 0.67105 0.97966 0.0
H531 H 0.68294 0.75118 0.06092 0.0
H532 H 0.61505 0.65923 0.06776 0.0
H533 H 0.56783 0.59374 0.04397 0.0
H534 H 0.58785 0.61974 0.01327 0.0
C535 C 0.6397 0.67913 0.98614 0.0
C536 C 0.66067 0.71983 1.00053 0.0
C537 C 0.64795 0.70388 0.01845 0.0
C538 C 0.67576 0.74146 0.0322 0.0
C539 C 0.6631 0.7243 0.04998 0.0
C540 C 0.62425 0.67162 0.05409 0.0
C541 C 0.59763 0.63477 0.0407 0.0
C542 C 0.60937 0.65036 0.02308 0.0
H543 H 0.89501 0.71403 0.38452 0.0
C544 C 0.93183 0.75093 0.38116 0.0
H545 H 0.99993 0.78595 0.36435 0.0
H546 H 0.01891 0.582 0.35013 0.0
H547 H 0.09247 0.63055 0.37046 0.0
H548 H 0.10273 0.71001 0.38642 0.0
H549 H 0.03962 0.74164 0.38198 0.0
C550 C 0.96334 0.74967 0.36819 0.0
C551 C 0.95298 0.6984 0.35978 0.0
C552 C 0.98949 0.67958 0.36279 0.0
C553 C 0.98287 0.63305 0.35386 0.0
C554 C 0.02114 0.6164 0.35676 0.0
C555 C 0.06379 0.64403 0.36839 0.0
C556 C 0.06962 0.6888 0.37734 0.0
C557 C 0.03312 0.70659 0.37463 0.0
H558 H 0.94709 0.59728 0.30715 0.0
C559 C 0.94381 0.56268 0.31414 0.0
H560 H 0.93448 0.52558 0.33892 0.0
H561 H 0.87673 0.72449 0.3504 0.0
H562 H 0.8004 0.67336 0.33118 0.0
H563 H 0.78547 0.58928 0.31729 0.0
H564 H 0.84742 0.55631 0.32231 0.0
C565 C 0.93563 0.55884 0.3317 0.0
C566 C 0.93932 0.60492 0.34202 0.0
C567 C 0.90149 0.62243 0.33958 0.0
C568 C 0.90888 0.66979 0.34819 0.0
C569 C 0.87214 0.68791 0.3447 0.0
C570 C 0.82825 0.65906 0.33362 0.0
C571 C 0.81994 0.61181 0.32575 0.0
C572 C 0.85598 0.5935 0.32865 0.0
H573 H 0.23453 0.99388 0.7232 0.0
C574 C 0.19265 0.96363 0.72101 0.0
H575 H 0.13957 0.90381 0.70315 0.0
H576 H 0.29761 0.01038 0.63837 0.0
H577 H 0.22292 0.02312 0.6304 0.0
H578 H 0.14782 0.99887 0.65116 0.0
H579 H 0.14677 0.96161 0.67997 0.0
C580 C 0.18087 0.93232 0.70658 0.0
C581 C 0.22363 0.94169 0.69347 0.0
C582 C 0.22328 0.96294 0.67659 0.0
C583 C 0.26691 0.97759 0.6647 0.0
C584 C 0.26579 0.9992 0.648 0.0
C585 C 0.22311 0.00658 0.64323 0.0
C586 C 0.18079 0.99286 0.65491 0.0
C587 C 0.18069 0.9714 0.67141 0.0
H588 H 0.34892 0.92132 0.64838 0.0
C589 C 0.37335 0.96491 0.64813 0.0
H590 H 0.38323 0.03838 0.6577 0.0
H591 H 0.23236 0.8935 0.72344 0.0
H592 H 0.307 0.88056 0.73136 0.0
H593 H 0.3846 0.90971 0.7113 0.0
H594 H 0.38774 0.95127 0.6831 0.0
C595 C 0.35992 0.99475 0.65835 0.0
C596 C 0.31085 0.97104 0.66966 0.0
C597 C 0.31 0.94734 0.68617 0.0
C598 C 0.26599 0.93202 0.69799 0.0
C599 C 0.26554 0.90733 0.71422 0.0
C600 C 0.30796 0.89939 0.71888 0.0
C601 C 0.3516 0.9157 0.70756 0.0
C602 C 0.35286 0.93946 0.69139 0.0
H603 H 0.24024 0.18066 0.03062 0.0
C604 C 0.25243 0.19 0.04434 0.0
H605 H 0.31615 0.24144 0.06128 0.0
H606 H 0.43205 0.2833 0.98166 0.0
H607 H 0.41448 0.1915 0.98387 0.0
H608 H 0.36298 0.13375 1.00899 0.0
H609 H 0.32832 0.16718 0.03198 0.0
C610 C 0.30212 0.231 0.0478 0.0
C611 C 0.33744 0.26671 0.03337 0.0
C612 C 0.35833 0.24685 0.02022 0.0
C613 C 0.38894 0.28049 1.00589 0.0
C614 C 0.40868 0.25945 0.99283 0.0
C615 C 0.399 0.20691 0.99396 0.0
C616 C 0.36993 0.17437 1.00809 0.0
C617 C 0.34992 0.19394 0.02114 0.0
H618 H 0.50052 0.41715 1.00351 0.0
C619 C 0.47972 0.41023 0.99097 0.0
H620 H 0.40758 0.36107 0.9771 0.0
H621 H 0.30559 0.31825 0.05675 0.0
H622 H 0.32387 0.41008 0.05466 0.0
H623 H 0.37598 0.46801 0.02967 0.0
H624 H 0.4103 0.4346 1.00669 0.0
C625 C 0.42931 0.36854 0.98945 0.0
C626 C 0.39962 0.33422 1.00491 0.0
C627 C 0.37965 0.35445 0.01825 0.0
C628 C 0.349 0.32082 0.03257 0.0
C629 C 0.32923 0.34197 0.04561 0.0
C630 C 0.33931 0.39463 0.04456 0.0
C631 C 0.36868 0.42725 0.03051 0.0
C632 C 0.38846 0.40758 0.01744 0.0
H633 H 0.05608 0.22084 0.35897 0.0
C634 C 0.06174 0.23327 0.37274 0.0
H635 H 0.08174 0.29929 0.38977 0.0
H636 H 0.18117 0.47064 0.32762 0.0
H637 H 0.26186 0.4889 0.34344 0.0
H638 H 0.25774 0.43057 0.36802 0.0
H639 H 0.17287 0.35335 0.37686 0.0
C640 C 0.07251 0.28358 0.37643 0.0
C641 C 0.07439 0.32035 0.36215 0.0
C642 C 0.12407 0.36604 0.35738 0.0
C643 C 0.12633 0.40021 0.34335 0.0
C644 C 0.17687 0.44421 0.33844 0.0
C645 C 0.22359 0.45496 0.34735 0.0
C646 C 0.22128 0.42208 0.36117 0.0
C647 C 0.17227 0.37795 0.36614 0.0
H648 H 0.10109 0.49211 0.33503 0.0
C649 C 0.08939 0.47411 0.32201 0.0
H650 H 0.06622 0.40477 0.30659 0.0
H651 H 0.97152 0.23981 0.36923 0.0
H652 H 0.89075 0.22203 0.35366 0.0
H653 H 0.89474 0.28033 0.3291 0.0
H654 H 0.97945 0.3569 0.32005 0.0
C655 C 0.08003 0.42377 0.3194 0.0
C656 C 0.07866 0.38914 0.33431 0.0
C657 C 0.02882 0.34387 0.33928 0.0
C658 C 0.02659 0.30978 0.35329 0.0
C659 C 0.97591 0.26613 0.35836 0.0
C660 C 0.92907 0.25567 0.34962 0.0
C661 C 0.93131 0.28851 0.33581 0.0
C662 C 0.98036 0.33226 0.3307 0.0
loop_
_geom_bond_atom_site_label_1
_geom_bond_atom_site_label_2
_geom_bond_distance
_geom_bond_site_symmetry_2
_ccdc_geom_bond_type
Li0 N17 1.990 . S
Li0 O60 1.956 . S
Li0 O61 1.970 1_455 S
Li0 O62 1.961 1_545 S
Li1 N25 1.990 . S
Li1 O60 1.970 1_655 S
Li1 O61 1.956 . S
Li1 O63 1.961 1_545 S
Li2 N47 1.990 . S
Li2 O60 1.961 1_565 S
Li2 O62 1.956 . S
Li2 O63 1.970 1_455 S
Li3 N53 1.990 . S
Li3 O61 1.961 1_565 S
Li3 O62 1.970 1_655 S
Li3 O63 1.956 . S
C4 C6 1.348 . S
C4 C7 1.356 . S
C4 O60 1.325 . S
N5 C8 1.314 . S
N5 C9 1.279 . S
C6 C4 1.348 . S
C6 C8 1.353 . S
C6 H64 0.929 . S
C7 C4 1.356 . S
C7 C9 1.358 . S
C7 H65 0.930 . S
C8 N5 1.314 . S
C8 C6 1.353 . S
C8 H66 0.930 . S
C9 N5 1.279 . S
C9 C7 1.358 . S
C9 H67 0.930 . S
C10 C13 1.348 1_655 S
C10 C14 1.356 . S
C10 O61 1.325 . S
C11 N12 1.279 . S
C11 C14 1.358 . S
C11 H68 0.930 . S
N12 C11 1.279 . S
N12 C15 1.314 . S
C13 C10 1.348 1_455 S
C13 C15 1.353 1_455 S
C13 H69 0.929 . S
C14 C10 1.356 . S
C14 C11 1.358 . S
C14 H70 0.930 . S
C15 N12 1.314 . S
C15 C13 1.353 1_655 S
C15 H71 0.930 1_655 S
C16 N17 1.314 . S
C16 C21 1.353 . S
C16 H22 0.930 . S
N17 Li0 1.990 . S
N17 C16 1.314 . S
N17 C19 1.279 . S
C18 C19 1.358 . S
C18 C20 1.356 . S
C18 H72 0.930 . S
C19 N17 1.279 . S
C19 C18 1.358 . S
C19 H23 0.930 . S
C20 C18 1.356 . S
C20 C21 1.348 . S
C21 C16 1.353 . S
C21 C20 1.348 . S
C21 H73 0.929 . S
H22 C16 0.930 . S
H23 C19 0.930 . S
C24 N25 1.314 . S
C24 C26 1.353 . S
C24 H30 0.930 . S
N25 Li1 1.990 . S
N25 C24 1.314 . S
N25 C28 1.279 . S
C26 C24 1.353 . S
C26 C29 1.348 . S
C26 H74 0.929 . S
C27 C28 1.358 . S
C27 C29 1.356 . S
C27 H75 0.930 . S
C28 N25 1.279 . S
C28 C27 1.358 . S
C28 H31 0.930 . S
C29 C26 1.348 . S
C29 C27 1.356 . S
H30 C24 0.930 . S
H31 C28 0.930 . S
C32 C34 1.348 1_455 S
C32 C35 1.356 . S
C32 O62 1.325 . S
N33 C36 1.314 . S
N33 C37 1.279 . S
C34 C32 1.348 1_655 S
C34 C36 1.353 1_655 S
C34 H76 0.929 . S
C35 C32 1.356 . S
C35 C37 1.358 . S
C35 H77 0.930 . S
C36 N33 1.314 . S
C36 C34 1.353 1_455 S
C36 H78 0.930 1_455 S
C37 N33 1.279 . S
C37 C35 1.358 . S
C37 H79 0.930 . S
C38 C39 1.348 . S
C38 C40 1.356 . S
C38 O63 1.325 . S
C39 C38 1.348 . S
C39 C41 1.353 . S
C39 H80 0.929 . S
C40 C38 1.356 . S
C40 C42 1.358 . S
C40 H81 0.930 . S
C41 C39 1.353 . S
C41 N43 1.314 . S
C41 H82 0.930 . S
C42 C40 1.358 . S
C42 N43 1.279 . S
C42 H83 0.930 . S
N43 C41 1.314 . S
N43 C42 1.279 . S
C44 C46 1.353 . S
C44 N47 1.314 . S
C44 H50 0.930 . S
C45 N47 1.279 . S
C45 C48 1.358 . S
C45 H51 0.930 . S
C46 C44 1.353 . S
C46 C49 1.348 . S
C46 H84 0.929 . S
N47 Li2 1.990 . S
N47 C44 1.314 . S
N47 C45 1.279 . S
C48 C45 1.358 . S
C48 C49 1.356 . S
C48 H85 0.930 . S
C49 C46 1.348 . S
C49 C48 1.356 . S
H50 C44 0.930 . S
H51 C45 0.930 . S
C52 N53 1.314 . S
C52 C54 1.353 . S
C52 H58 0.930 . S
N53 Li3 1.990 . S
N53 C52 1.314 . S
N53 C56 1.279 . S
C54 C52 1.353 . S
C54 C57 1.348 . S
C54 H86 0.929 . S
C55 C56 1.358 . S
C55 C57 1.356 . S
C55 H87 0.930 . S
C56 N53 1.279 . S
C56 C55 1.358 . S
C56 H59 0.930 . S
C57 C54 1.348 . S
C57 C55 1.356 . S
H58 C52 0.930 . S
H59 C56 0.930 . S
O60 Li0 1.956 . S
O60 Li1 1.970 1_455 S
O60 Li2 1.961 1_545 S
O60 C4 1.325 . S
O61 Li0 1.970 1_655 S
O61 Li1 1.956 . S
O61 Li3 1.961 1_545 S
O61 C10 1.325 . S
O62 Li0 1.961 1_565 S
O62 Li2 1.956 . S
O62 Li3 1.970 1_455 S
O62 C32 1.325 . S
O63 Li1 1.961 1_565 S
O63 Li2 1.970 1_655 S
O63 Li3 1.956 . S
O63 C38 1.325 . S
H64 C6 0.929 . S
H65 C7 0.930 . S
H66 C8 0.930 . S
H67 C9 0.930 . S
H68 C11 0.930 . S
H69 C13 0.929 . S
H70 C14 0.930 . S
H71 C15 0.930 1_455 S
H72 C18 0.930 . S
H73 C21 0.929 . S
H74 C26 0.929 . S
H75 C27 0.930 . S
H76 C34 0.929 . S
H77 C35 0.930 . S
H78 C36 0.930 1_655 S
H79 C37 0.930 . S
H80 C39 0.929 . S
H81 C40 0.930 . S
H82 C41 0.930 . S
H83 C42 0.930 . S
H84 C46 0.929 . S
H85 C48 0.930 . S
H86 C54 0.929 . S
H87 C55 0.930 . S
Li88 N105 1.990 . S
Li88 O148 1.956 . S
Li88 O149 1.970 1_665 S
Li88 O150 1.961 . S
Li89 N113 1.990 . S
Li89 O148 1.970 1_445 S
Li89 O149 1.956 . S
Li89 O151 1.961 . S
Li90 N135 1.990 . S
Li90 O148 1.961 . S
Li90 O150 1.956 . S
Li90 O151 1.970 1_665 S
Li91 N141 1.990 . S
Li91 O149 1.961 . S
Li91 O150 1.970 1_445 S
Li91 O151 1.956 . S
C92 C94 1.348 1_655 S
C92 C95 1.356 . S
C92 O148 1.325 . S
N93 C96 1.314 . S
N93 C97 1.279 . S
C94 C92 1.348 1_455 S
C94 C96 1.353 1_455 S
C94 H152 0.929 . S
C95 C92 1.356 . S
C95 C97 1.358 . S
C95 H153 0.930 . S
C96 N93 1.314 . S
C96 C94 1.353 1_655 S
C96 H154 0.930 1_655 S
C97 N93 1.279 . S
C97 C95 1.358 . S
C97 H155 0.930 . S
C98 C101 1.348 1_545 S
C98 C102 1.356 . S
C98 O149 1.325 . S
C99 N100 1.279 . S
C99 C102 1.358 . S
C99 H156 0.930 . S
N100 C99 1.279 . S
N100 C103 1.314 . S
C101 C98 1.348 1_565 S
C101 C103 1.353 1_565 S
C101 H157 0.929 . S
C102 C98 1.356 . S
C102 C99 1.358 . S
C102 H158 0.930 . S
C103 N100 1.314 . S
C103 C101 1.353 1_545 S
C103 H159 0.930 1_545 S
C104 N105 1.314 . S
C104 C109 1.353 . S
C104 H110 0.930 . S
N105 Li88 1.990 . S
N105 C104 1.314 . S
N105 C107 1.279 . S
C106 C107 1.358 . S
C106 C108 1.356 . S
C106 H160 0.930 . S
C107 N105 1.279 . S
C107 C106 1.358 . S
C107 H111 0.930 . S
C108 C106 1.356 . S
C108 C109 1.348 . S
C109 C104 1.353 . S
C109 C108 1.348 . S
C109 H161 0.929 . S
H110 C104 0.930 . S
H111 C107 0.930 . S
C112 N113 1.314 . S
C112 C114 1.353 . S
C112 H118 0.930 . S
N113 Li89 1.990 . S
N113 C112 1.314 . S
N113 C116 1.279 . S
C114 C112 1.353 . S
C114 C117 1.348 . S
C114 H162 0.929 . S
C115 C116 1.358 . S
C115 C117 1.356 . S
C115 H163 0.930 . S
C116 N113 1.279 . S
C116 C115 1.358 . S
C116 H119 0.930 . S
C117 C114 1.348 . S
C117 C115 1.356 . S
H118 C112 0.930 . S
H119 C116 0.930 . S
C120 C122 1.348 1_565 S
C120 C123 1.356 . S
C120 O150 1.325 . S
N121 C124 1.314 . S
N121 C125 1.279 . S
C122 C120 1.348 1_545 S
C122 C124 1.353 1_545 S
C122 H164 0.929 . S
C123 C120 1.356 . S
C123 C125 1.358 . S
C123 H165 0.930 . S
C124 N121 1.314 . S
C124 C122 1.353 1_565 S
C124 H166 0.930 1_565 S
C125 N121 1.279 . S
C125 C123 1.358 . S
C125 H167 0.930 . S
C126 C127 1.348 1_455 S
C126 C128 1.356 . S
C126 O151 1.325 . S
C127 C126 1.348 1_655 S
C127 C129 1.353 1_655 S
C127 H168 0.929 . S
C128 C126 1.356 . S
C128 C130 1.358 . S
C128 H169 0.930 . S
C129 C127 1.353 1_455 S
C129 N131 1.314 . S
C129 H170 0.930 1_455 S
C130 C128 1.358 . S
C130 N131 1.279 . S
C130 H171 0.930 . S
N131 C129 1.314 . S
N131 C130 1.279 . S
C132 C134 1.353 . S
C132 N135 1.314 . S
C132 H138 0.930 . S
C133 N135 1.279 . S
C133 C136 1.358 . S
C133 H139 0.930 . S
C134 C132 1.353 . S
C134 C137 1.348 . S
C134 H172 0.929 . S
N135 Li90 1.990 . S
N135 C132 1.314 . S
N135 C133 1.279 . S
C136 C133 1.358 . S
C136 C137 1.356 . S
C136 H173 0.930 . S
C137 C134 1.348 . S
C137 C136 1.356 . S
H138 C132 0.930 . S
H139 C133 0.930 . S
C140 N141 1.314 . S
C140 C142 1.353 . S
C140 H146 0.930 . S
N141 Li91 1.990 . S
N141 C140 1.314 . S
N141 C144 1.279 . S
C142 C140 1.353 . S
C142 C145 1.348 . S
C142 H174 0.929 . S
C143 C144 1.358 . S
C143 C145 1.356 . S
C143 H175 0.930 . S
C144 N141 1.279 . S
C144 C143 1.358 . S
C144 H147 0.930 . S
C145 C142 1.348 . S
C145 C143 1.356 . S
H146 C140 0.930 . S
H147 C144 0.930 . S
O148 Li88 1.956 . S
O148 Li89 1.970 1_665 S
O148 Li90 1.961 . S
O148 C92 1.325 . S
O149 Li88 1.970 1_445 S
O149 Li89 1.956 . S
O149 Li91 1.961 . S
O149 C98 1.325 . S
O150 Li88 1.961 . S
O150 Li90 1.956 . S
O150 Li91 1.970 1_665 S
O150 C120 1.325 . S
O151 Li89 1.961 . S
O151 Li90 1.970 1_445 S
O151 Li91 1.956 . S
O151 C126 1.325 . S
H152 C94 0.929 . S
H153 C95 0.930 . S
H154 C96 0.930 1_455 S
H155 C97 0.930 . S
H156 C99 0.930 . S
H157 C101 0.929 . S
H158 C102 0.930 . S
H159 C103 0.930 1_565 S
H160 C106 0.930 . S
H161 C109 0.929 . S
H162 C114 0.929 . S
H163 C115 0.930 . S
H164 C122 0.929 . S
H165 C123 0.930 . S
H166 C124 0.930 1_545 S
H167 C125 0.930 . S
H168 C127 0.929 . S
H169 C128 0.930 . S
H170 C129 0.930 1_655 S
H171 C130 0.930 . S
H172 C134 0.929 . S
H173 C136 0.930 . S
H174 C142 0.929 . S
H175 C143 0.930 . S
Li176 N193 1.990 . S
Li176 O236 1.956 . S
Li176 O237 1.970 1_565 S
Li176 O238 1.961 1_455 S
Li177 N201 1.990 . S
Li177 O236 1.970 1_545 S
Li177 O237 1.956 . S
Li177 O239 1.961 1_455 S
Li178 N223 1.990 . S
Li178 O236 1.961 1_655 S
Li178 O238 1.956 . S
Li178 O239 1.970 1_565 S
Li179 N229 1.990 . S
Li179 O237 1.961 1_655 S
Li179 O238 1.970 1_545 S
Li179 O239 1.956 . S
C180 C182 1.348 1_565 S
C180 C183 1.356 . S
C180 O236 1.325 . S
N181 C184 1.314 . S
N181 C185 1.279 . S
C182 C180 1.348 1_545 S
C182 C184 1.353 1_545 S
C182 H240 0.929 . S
C183 C180 1.356 . S
C183 C185 1.358 . S
C183 H241 0.930 . S
C184 N181 1.314 . S
C184 C182 1.353 1_565 S
C184 H242 0.930 1_565 S
C185 N181 1.279 . S
C185 C183 1.358 . S
C185 H243 0.930 . S
C186 C189 1.348 . S
C186 C190 1.356 . S
C186 O237 1.325 . S
C187 N188 1.279 . S
C187 C190 1.358 . S
C187 H244 0.930 . S
N188 C187 1.279 . S
N188 C191 1.314 . S
C189 C186 1.348 . S
C189 C191 1.353 . S
C189 H245 0.929 . S
C190 C186 1.356 . S
C190 C187 1.358 . S
C190 H246 0.930 . S
C191 N188 1.314 . S
C191 C189 1.353 . S
C191 H247 0.930 . S
C192 N193 1.314 . S
C192 C197 1.353 . S
C192 H198 0.930 . S
N193 Li176 1.990 . S
N193 C192 1.314 . S
N193 C195 1.279 . S
C194 C195 1.358 . S
C194 C196 1.356 . S
C194 H248 0.930 . S
C195 N193 1.279 . S
C195 C194 1.358 . S
C195 H199 0.930 . S
C196 C194 1.356 . S
C196 C197 1.348 . S
C197 C192 1.353 . S
C197 C196 1.348 . S
C197 H249 0.929 . S
H198 C192 0.930 . S
H199 C195 0.930 . S
C200 N201 1.314 . S
C200 C202 1.353 . S
C200 H206 0.930 . S
N201 Li177 1.990 . S
N201 C200 1.314 . S
N201 C204 1.279 . S
C202 C200 1.353 . S
C202 C205 1.348 . S
C202 H250 0.929 . S
C203 C204 1.358 . S
C203 C205 1.356 . S
C203 H251 0.930 . S
C204 N201 1.279 . S
C204 C203 1.358 . S
C204 H207 0.930 . S
C205 C202 1.348 . S
C205 C203 1.356 . S
H206 C200 0.930 . S
H207 C204 0.930 . S
C208 C210 1.348 . S
C208 C211 1.356 . S
C208 O238 1.325 . S
N209 C212 1.314 . S
N209 C213 1.279 . S
C210 C208 1.348 . S
C210 C212 1.353 . S
C210 H252 0.929 . S
C211 C208 1.356 . S
C211 C213 1.358 . S
C211 H253 0.930 . S
C212 N209 1.314 . S
C212 C210 1.353 . S
C212 H254 0.930 . S
C213 N209 1.279 . S
C213 C211 1.358 . S
C213 H255 0.930 . S
C214 C215 1.348 1_545 S
C214 C216 1.356 . S
C214 O239 1.325 . S
C215 C214 1.348 1_565 S
C215 C217 1.353 1_565 S
C215 H256 0.929 . S
C216 C214 1.356 . S
C216 C218 1.358 . S
C216 H257 0.930 . S
C217 C215 1.353 1_545 S
C217 N219 1.314 . S
C217 H258 0.930 1_545 S
C218 C216 1.358 . S
C218 N219 1.279 . S
C218 H259 0.930 . S
N219 C217 1.314 . S
N219 C218 1.279 . S
C220 C222 1.353 . S
C220 N223 1.314 . S
C220 H226 0.930 . S
C221 N223 1.279 . S
C221 C224 1.358 . S
C221 H227 0.930 . S
C222 C220 1.353 . S
C222 C225 1.348 . S
C222 H260 0.929 . S
N223 Li178 1.990 . S
N223 C220 1.314 . S
N223 C221 1.279 . S
C224 C221 1.358 . S
C224 C225 1.356 . S
C224 H261 0.930 . S
C225 C222 1.348 . S
C225 C224 1.356 . S
H226 C220 0.930 . S
H227 C221 0.930 . S
C228 N229 1.314 . S
C228 C230 1.353 . S
C228 H234 0.930 . S
N229 Li179 1.990 . S
N229 C228 1.314 . S
N229 C232 1.279 . S
C230 C228 1.353 . S
C230 C233 1.348 . S
C230 H262 0.929 . S
C231 C232 1.358 . S
C231 C233 1.356 . S
C231 H263 0.930 . S
C232 N229 1.279 . S
C232 C231 1.358 . S
C232 H235 0.930 . S
C233 C230 1.348 . S
C233 C231 1.356 . S
H234 C228 0.930 . S
H235 C232 0.930 . S
O236 Li176 1.956 . S
O236 Li177 1.970 1_565 S
O236 Li178 1.961 1_455 S
O236 C180 1.325 . S
O237 Li176 1.970 1_545 S
O237 Li177 1.956 . S
O237 Li179 1.961 1_455 S
O237 C186 1.325 . S
O238 Li176 1.961 1_655 S
O238 Li178 1.956 . S
O238 Li179 1.970 1_565 S
O238 C208 1.325 . S
O239 Li177 1.961 1_655 S
O239 Li178 1.970 1_545 S
O239 Li179 1.956 . S
O239 C214 1.325 . S
H240 C182 0.929 . S
H241 C183 0.930 . S
H242 C184 0.930 1_545 S
H243 C185 0.930 . S
H244 C187 0.930 . S
H245 C189 0.929 . S
H246 C190 0.930 . S
H247 C191 0.930 . S
H248 C194 0.930 . S
H249 C197 0.929 . S
H250 C202 0.929 . S
H251 C203 0.930 . S
H252 C210 0.929 . S
H253 C211 0.930 . S
H254 C212 0.930 . S
H255 C213 0.930 . S
H256 C215 0.929 . S
H257 C216 0.930 . S
H258 C217 0.930 1_565 S
H259 C218 0.930 . S
H260 C222 0.929 . S
H261 C224 0.930 . S
H262 C230 0.929 . S
H263 C231 0.930 . S
Mg264 O271 2.141 . S
Mg264 O272 2.048 . S
Mg264 O273 2.048 . S
Mg264 O276 2.141 . S
C265 O266 1.313 . S
C265 O272 1.195 1_655 S
O266 C265 1.313 . S
C267 O268 1.245 . S
C267 O276 1.289 1_655 S
O268 C267 1.245 . S
C269 O270 1.245 . S
C269 O271 1.289 1_655 S
O270 C269 1.245 . S
O271 Mg264 2.141 . S
O271 C269 1.289 1_455 S
O272 Mg264 2.048 . S
O272 C265 1.195 1_455 S
O273 Mg264 2.048 . S
O273 C274 1.195 1_455 S
C274 O273 1.195 1_655 S
C274 O275 1.313 . S
O275 C274 1.313 . S
O276 Mg264 2.141 . S
O276 C267 1.289 1_455 S
Mg277 O284 2.141 . S
Mg277 O285 2.048 . S
Mg277 O286 2.048 . S
Mg277 O289 2.141 . S
C278 O279 1.313 . S
C278 O285 1.195 1_565 S
O279 C278 1.313 . S
C280 O281 1.245 . S
C280 O289 1.289 1_565 S
O281 C280 1.245 . S
C282 O283 1.245 . S
C282 O284 1.289 1_565 S
O283 C282 1.245 . S
O284 Mg277 2.141 . S
O284 C282 1.289 1_545 S
O285 Mg277 2.048 . S
O285 C278 1.195 1_545 S
O286 Mg277 2.048 . S
O286 C287 1.195 1_545 S
C287 O286 1.195 1_565 S
C287 O288 1.313 . S
O288 C287 1.313 . S
O289 Mg277 2.141 . S
O289 C280 1.289 1_545 S
Mg290 O297 2.141 . S
Mg290 O298 2.048 . S
Mg290 O299 2.048 . S
Mg290 O302 2.141 . S
C291 O292 1.313 . S
C291 O298 1.195 . S
O292 C291 1.313 . S
C293 O294 1.245 . S
C293 O302 1.289 . S
O294 C293 1.245 . S
C295 O296 1.245 . S
C295 O297 1.289 . S
O296 C295 1.245 . S
O297 Mg290 2.141 . S
O297 C295 1.289 . S
O298 Mg290 2.048 . S
O298 C291 1.195 . S
O299 Mg290 2.048 . S
O299 C300 1.195 . S
C300 O299 1.195 . S
C300 O301 1.313 . S
O301 C300 1.313 . S
O302 Mg290 2.141 . S
O302 C293 1.289 . S
H303 C304 0.951 . S
C304 H303 0.951 . S
C304 C310 1.265 . S
H305 C310 0.950 . S
H306 C314 0.949 . S
H307 C315 0.950 . S
H308 C316 0.951 . S
H309 C317 0.951 . S
C310 C304 1.265 . S
C310 H305 0.950 . S
C310 C311 1.478 . S
C311 C310 1.478 . S
C311 C312 1.397 . S
C311 C328 1.394 . S
C312 C311 1.397 . S
C312 C313 1.438 1_655 S
C312 C317 1.429 1_655 S
C313 C312 1.438 1_455 S
C313 C314 1.428 . S
C313 C326 1.394 1_455 S
C314 H306 0.949 . S
C314 C313 1.428 . S
C314 C315 1.345 . S
C315 H307 0.950 . S
C315 C314 1.345 . S
C315 C316 1.424 . S
C316 H308 0.951 . S
C316 C315 1.424 . S
C316 C317 1.347 . S
C317 H309 0.951 . S
C317 C312 1.429 1_455 S
C317 C316 1.347 . S
H318 C319 0.951 . S
C319 H318 0.951 . S
C319 C325 1.268 . S
H320 C325 0.950 1_455 S
H321 C329 0.949 . S
H322 C330 0.950 . S
H323 C331 0.951 . S
H324 C332 0.951 . S
C325 C319 1.268 . S
C325 H320 0.950 1_655 S
C325 C326 1.475 . S
C326 C313 1.394 1_655 S
C326 C325 1.475 . S
C326 C327 1.397 . S
C327 C326 1.397 . S
C327 C328 1.438 . S
C327 C332 1.429 . S
C328 C311 1.394 . S
C328 C327 1.438 . S
C328 C329 1.428 . S
C329 H321 0.949 . S
C329 C328 1.428 . S
C329 C330 1.345 . S
C330 H322 0.950 . S
C330 C329 1.345 . S
C330 C331 1.424 . S
C331 H323 0.951 . S
C331 C330 1.424 . S
C331 C332 1.347 . S
C332 H324 0.951 . S
C332 C327 1.429 . S
C332 C331 1.347 . S
H333 C334 0.951 . S
C334 H333 0.951 . S
C334 C340 1.265 . S
H335 C340 0.950 . S
H336 C344 0.949 . S
H337 C345 0.950 . S
H338 C346 0.951 . S
H339 C347 0.951 . S
C340 C334 1.265 . S
C340 H335 0.950 . S
C340 C341 1.478 . S
C341 C340 1.478 . S
C341 C342 1.397 1_565 S
C341 C358 1.394 . S
C342 C341 1.397 1_545 S
C342 C343 1.438 . S
C342 C347 1.429 . S
C343 C342 1.438 . S
C343 C344 1.428 . S
C343 C356 1.394 1_545 S
C344 H336 0.949 . S
C344 C343 1.428 . S
C344 C345 1.345 . S
C345 H337 0.950 . S
C345 C344 1.345 . S
C345 C346 1.424 . S
C346 H338 0.951 . S
C346 C345 1.424 . S
C346 C347 1.347 . S
C347 H339 0.951 . S
C347 C342 1.429 . S
C347 C346 1.347 . S
H348 C349 0.951 1_545 S
C349 H348 0.951 1_565 S
C349 C355 1.264 . S
H350 C355 0.950 . S
H351 C359 0.949 . S
H352 C360 0.950 . S
H353 C361 0.951 . S
H354 C362 0.951 . S
C355 C349 1.264 . S
C355 H350 0.950 . S
C355 C356 1.478 . S
C356 C343 1.394 1_565 S
C356 C355 1.478 . S
C356 C357 1.397 . S
C357 C356 1.397 . S
C357 C358 1.438 . S
C357 C362 1.429 . S
C358 C341 1.394 . S
C358 C357 1.438 . S
C358 C359 1.428 . S
C359 H351 0.949 . S
C359 C358 1.428 . S
C359 C360 1.345 . S
C360 H352 0.950 . S
C360 C359 1.345 . S
C360 C361 1.424 . S
C361 H353 0.951 . S
C361 C360 1.424 . S
C361 C362 1.347 . S
C362 H354 0.951 . S
C362 C357 1.429 . S
C362 C361 1.347 . S
H363 C364 0.951 . S
C364 H363 0.951 . S
C364 C370 1.265 . S
H365 C370 0.950 . S
H366 C374 0.949 . S
H367 C375 0.950 . S
H368 C376 0.951 . S
H369 C377 0.951 . S
C370 C364 1.265 . S
C370 H365 0.950 . S
C370 C371 1.478 . S
C371 C370 1.478 . S
C371 C372 1.397 . S
C371 C388 1.394 . S
C372 C371 1.397 . S
C372 C373 1.438 . S
C372 C377 1.429 . S
C373 C372 1.438 . S
C373 C374 1.428 . S
C373 C386 1.394 . S
C374 H366 0.949 . S
C374 C373 1.428 . S
C374 C375 1.345 . S
C375 H367 0.950 . S
C375 C374 1.345 . S
C375 C376 1.424 . S
C376 H368 0.951 . S
C376 C375 1.424 . S
C376 C377 1.347 . S
C377 H369 0.951 . S
C377 C372 1.429 . S
C377 C376 1.347 . S
H378 C379 0.951 . S
C379 H378 0.951 . S
C379 C385 1.265 . S
H380 C385 0.950 . S
H381 C389 0.949 . S
H382 C390 0.950 . S
H383 C391 0.951 . S
H384 C392 0.951 . S
C385 C379 1.265 . S
C385 H380 0.950 . S
C385 C386 1.478 . S
C386 C373 1.394 . S
C386 C385 1.478 . S
C386 C387 1.397 . S
C387 C386 1.397 . S
C387 C388 1.438 . S
C387 C392 1.429 . S
C388 C371 1.394 . S
C388 C387 1.438 . S
C388 C389 1.428 . S
C389 H381 0.949 . S
C389 C388 1.428 . S
C389 C390 1.345 . S
C390 H382 0.950 . S
C390 C389 1.345 . S
C390 C391 1.424 . S
C391 H383 0.951 . S
C391 C390 1.424 . S
C391 C392 1.347 . S
C392 H384 0.951 . S
C392 C387 1.429 . S
C392 C391 1.347 . S
H393 C394 0.951 . S
C394 H393 0.951 . S
C394 C400 1.265 . S
H395 C400 0.950 . S
H396 C404 0.949 . S
H397 C405 0.950 . S
H398 C406 0.951 . S
H399 C407 0.951 . S
C400 C394 1.265 . S
C400 H395 0.950 . S
C400 C401 1.478 . S
C401 C400 1.478 . S
C401 C402 1.397 . S
C401 C418 1.394 . S
C402 C401 1.397 . S
C402 C403 1.438 . S
C402 C407 1.429 . S
C403 C402 1.438 . S
C403 C404 1.428 . S
C403 C416 1.394 . S
C404 H396 0.949 . S
C404 C403 1.428 . S
C404 C405 1.345 . S
C405 H397 0.950 . S
C405 C404 1.345 . S
C405 C406 1.424 . S
C406 H398 0.951 . S
C406 C405 1.424 . S
C406 C407 1.347 . S
C407 H399 0.951 . S
C407 C402 1.429 . S
C407 C406 1.347 . S
H408 C409 0.951 . S
C409 H408 0.951 . S
C409 C415 1.265 1_455 S
H410 C415 0.950 . S
H411 C419 0.949 . S
H412 C420 0.950 . S
H413 C421 0.951 . S
H414 C422 0.951 . S
C415 C409 1.265 1_655 S
C415 H410 0.950 . S
C415 C416 1.478 1_655 S
C416 C403 1.394 . S
C416 C415 1.478 1_455 S
C416 C417 1.397 1_455 S
C417 C416 1.397 1_655 S
C417 C418 1.438 1_655 S
C417 C422 1.429 . S
C418 C401 1.394 . S
C418 C417 1.438 1_455 S
C418 C419 1.428 1_455 S
C419 H411 0.949 . S
C419 C418 1.428 1_655 S
C419 C420 1.345 . S
C420 H412 0.950 . S
C420 C419 1.345 . S
C420 C421 1.424 . S
C421 H413 0.951 . S
C421 C420 1.424 . S
C421 C422 1.347 . S
C422 H414 0.951 . S
C422 C417 1.429 . S
C422 C421 1.347 . S
H423 C424 0.951 . S
C424 H423 0.951 . S
C424 C430 1.265 . S
H425 C430 0.950 . S
H426 C434 0.949 . S
H427 C435 0.950 . S
H428 C436 0.951 . S
H429 C437 0.951 . S
C430 C424 1.265 . S
C430 H425 0.950 . S
C430 C431 1.478 . S
C431 C430 1.478 . S
C431 C432 1.397 . S
C431 C448 1.394 1_545 S
C432 C431 1.397 . S
C432 C433 1.438 . S
C432 C437 1.429 . S
C433 C432 1.438 . S
C433 C434 1.428 . S
C433 C446 1.394 . S
C434 H426 0.949 . S
C434 C433 1.428 . S
C434 C435 1.345 . S
C435 H427 0.950 . S
C435 C434 1.345 . S
C435 C436 1.424 . S
C436 H428 0.951 . S
C436 C435 1.424 . S
C436 C437 1.347 . S
C437 H429 0.951 . S
C437 C432 1.429 . S
C437 C436 1.347 . S
H438 C439 0.951 . S
C439 H438 0.951 . S
C439 C445 1.265 . S
H440 C445 0.950 1_565 S
H441 C449 0.949 . S
H442 C450 0.950 . S
H443 C451 0.951 . S
H444 C452 0.951 . S
C445 C439 1.265 . S
C445 H440 0.950 1_545 S
C445 C446 1.478 . S
C446 C433 1.394 . S
C446 C445 1.478 . S
C446 C447 1.397 1_545 S
C447 C446 1.397 1_565 S
C447 C448 1.438 . S
C447 C452 1.429 . S
C448 C431 1.394 1_565 S
C448 C447 1.438 . S
C448 C449 1.428 . S
C449 H441 0.949 . S
C449 C448 1.428 . S
C449 C450 1.345 . S
C450 H442 0.950 . S
C450 C449 1.345 . S
C450 C451 1.424 . S
C451 H443 0.951 . S
C451 C450 1.424 . S
C451 C452 1.347 . S
C452 H444 0.951 . S
C452 C447 1.429 . S
C452 C451 1.347 . S
H453 C454 0.951 . S
C454 H453 0.951 . S
C454 C460 1.265 . S
H455 C460 0.950 . S
H456 C464 0.949 . S
H457 C465 0.950 . S
H458 C466 0.951 . S
H459 C467 0.951 . S
C460 C454 1.265 . S
C460 H455 0.950 . S
C460 C461 1.478 . S
C461 C460 1.478 . S
C461 C462 1.397 . S
C461 C478 1.394 . S
C462 C461 1.397 . S
C462 C463 1.438 . S
C462 C467 1.429 . S
C463 C462 1.438 . S
C463 C464 1.428 . S
C463 C476 1.394 . S
C464 H456 0.949 . S
C464 C463 1.428 . S
C464 C465 1.345 . S
C465 H457 0.950 . S
C465 C464 1.345 . S
C465 C466 1.424 . S
C466 H458 0.951 . S
C466 C465 1.424 . S
C466 C467 1.347 . S
C467 H459 0.951 . S
C467 C462 1.429 . S
C467 C466 1.347 . S
H468 C469 0.951 . S
C469 H468 0.951 . S
C469 C475 1.265 . S
H470 C475 0.950 . S
H471 C479 0.949 . S
H472 C480 0.950 . S
H473 C481 0.951 . S
H474 C482 0.951 . S
C475 C469 1.265 . S
C475 H470 0.950 . S
C475 C476 1.478 . S
C476 C463 1.394 . S
C476 C475 1.478 . S
C476 C477 1.397 . S
C477 C476 1.397 . S
C477 C478 1.438 . S
C477 C482 1.429 . S
C478 C461 1.394 . S
C478 C477 1.438 . S
C478 C479 1.428 . S
C479 H471 0.949 . S
C479 C478 1.428 . S
C479 C480 1.345 . S
C480 H472 0.950 . S
C480 C479 1.345 . S
C480 C481 1.424 . S
C481 H473 0.951 . S
C481 C480 1.424 . S
C481 C482 1.347 . S
C482 H474 0.951 . S
C482 C477 1.429 . S
C482 C481 1.347 . S
H483 C484 0.951 . S
C484 H483 0.951 . S
C484 C490 1.265 . S
H485 C490 0.950 . S
H486 C494 0.949 . S
H487 C495 0.950 . S
H488 C496 0.951 . S
H489 C497 0.951 . S
C490 C484 1.265 . S
C490 H485 0.950 . S
C490 C491 1.478 . S
C491 C490 1.478 . S
C491 C492 1.397 . S
C491 C508 1.394 1_545 S
C492 C491 1.397 . S
C492 C493 1.438 . S
C492 C497 1.429 . S
C493 C492 1.438 . S
C493 C494 1.428 . S
C493 C506 1.394 . S
C494 H486 0.949 . S
C494 C493 1.428 . S
C494 C495 1.345 . S
C495 H487 0.950 . S
C495 C494 1.345 . S
C495 C496 1.424 . S
C496 H488 0.951 . S
C496 C495 1.424 . S
C496 C497 1.347 . S
C497 H489 0.951 . S
C497 C492 1.429 . S
C497 C496 1.347 . S
H498 C499 0.951 . S
C499 H498 0.951 . S
C499 C505 1.265 . S
H500 C505 0.950 1_565 S
H501 C509 0.949 . S
H502 C510 0.950 . S
H503 C511 0.951 . S
H504 C512 0.951 . S
C505 C499 1.265 . S
C505 H500 0.950 1_545 S
C505 C506 1.478 . S
C506 C493 1.394 . S
C506 C505 1.478 . S
C506 C507 1.397 1_545 S
C507 C506 1.397 1_565 S
C507 C508 1.438 . S
C507 C512 1.429 . S
C508 C491 1.394 1_565 S
C508 C507 1.438 . S
C508 C509 1.428 . S
C509 H501 0.949 . S
C509 C508 1.428 . S
C509 C510 1.345 . S
C510 H502 0.950 . S
C510 C509 1.345 . S
C510 C511 1.424 . S
C511 H503 0.951 . S
C511 C510 1.424 . S
C511 C512 1.347 . S
C512 H504 0.951 . S
C512 C507 1.429 . S
C512 C511 1.347 . S
H513 C514 0.951 . S
C514 H513 0.951 . S
C514 C520 1.265 . S
H515 C520 0.950 . S
H516 C524 0.949 . S
H517 C525 0.950 . S
H518 C526 0.951 . S
H519 C527 0.951 1_554 S
C520 C514 1.265 . S
C520 H515 0.950 . S
C520 C521 1.478 . S
C521 C520 1.478 . S
C521 C522 1.397 . S
C521 C538 1.394 . S
C522 C521 1.397 . S
C522 C523 1.438 1_554 S
C522 C527 1.429 1_554 S
C523 C522 1.438 1_556 S
C523 C524 1.428 . S
C523 C536 1.394 . S
C524 H516 0.949 . S
C524 C523 1.428 . S
C524 C525 1.345 . S
C525 H517 0.950 . S
C525 C524 1.345 . S
C525 C526 1.424 . S
C526 H518 0.951 . S
C526 C525 1.424 . S
C526 C527 1.347 . S
C527 H519 0.951 1_556 S
C527 C522 1.429 1_556 S
C527 C526 1.347 . S
H528 C529 0.951 . S
C529 H528 0.951 . S
C529 C535 1.265 . S
H530 C535 0.950 . S
H531 C539 0.949 . S
H532 C540 0.950 . S
H533 C541 0.951 . S
H534 C542 0.951 . S
C535 C529 1.265 . S
C535 H530 0.950 . S
C535 C536 1.478 . S
C536 C523 1.394 . S
C536 C535 1.478 . S
C536 C537 1.397 1_556 S
C537 C536 1.397 1_554 S
C537 C538 1.438 . S
C537 C542 1.429 . S
C538 C521 1.394 . S
C538 C537 1.438 . S
C538 C539 1.428 . S
C539 H531 0.949 . S
C539 C538 1.428 . S
C539 C540 1.345 . S
C540 H532 0.950 . S
C540 C539 1.345 . S
C540 C541 1.424 . S
C541 H533 0.951 . S
C541 C540 1.424 . S
C541 C542 1.347 . S
C542 H534 0.951 . S
C542 C537 1.429 . S
C542 C541 1.347 . S
H543 C544 0.951 . S
C544 H543 0.951 . S
C544 C550 1.265 . S
H545 C550 0.950 1_455 S
H546 C554 0.949 . S
H547 C555 0.950 . S
H548 C556 0.951 . S
H549 C557 0.951 . S
C550 C544 1.265 . S
C550 H545 0.950 1_655 S
C550 C551 1.478 . S
C551 C550 1.478 . S
C551 C552 1.397 . S
C551 C568 1.394 . S
C552 C551 1.397 . S
C552 C553 1.438 . S
C552 C557 1.429 . S
C553 C552 1.438 . S
C553 C554 1.428 . S
C553 C566 1.394 . S
C554 H546 0.949 . S
C554 C553 1.428 . S
C554 C555 1.345 . S
C555 H547 0.950 . S
C555 C554 1.345 . S
C555 C556 1.424 . S
C556 H548 0.951 . S
C556 C555 1.424 . S
C556 C557 1.347 . S
C557 H549 0.951 . S
C557 C552 1.429 . S
C557 C556 1.347 . S
H558 C559 0.951 . S
C559 H558 0.951 . S
C559 C565 1.265 1_455 S
H560 C565 0.950 . S
H561 C569 0.949 . S
H562 C570 0.950 . S
H563 C571 0.951 . S
H564 C572 0.951 . S
C565 C559 1.265 1_655 S
C565 H560 0.950 . S
C565 C566 1.478 . S
C566 C553 1.394 . S
C566 C565 1.478 . S
C566 C567 1.397 . S
C567 C566 1.397 . S
C567 C568 1.438 . S
C567 C572 1.429 . S
C568 C551 1.394 . S
C568 C567 1.438 . S
C568 C569 1.428 . S
C569 H561 0.949 . S
C569 C568 1.428 . S
C569 C570 1.345 . S
C570 H562 0.950 . S
C570 C569 1.345 . S
C570 C571 1.424 . S
C571 H563 0.951 . S
C571 C570 1.424 . S
C571 C572 1.347 . S
C572 H564 0.951 . S
C572 C567 1.429 . S
C572 C571 1.347 . S
H573 C574 0.951 . S
C574 H573 0.951 . S
C574 C580 1.265 . S
H575 C580 0.950 . S
H576 C584 0.949 . S
H577 C585 0.950 . S
H578 C586 0.951 . S
H579 C587 0.951 . S
C580 C574 1.265 . S
C580 H575 0.950 . S
C580 C581 1.478 . S
C581 C580 1.478 . S
C581 C582 1.397 1_565 S
C581 C598 1.394 . S
C582 C581 1.397 1_545 S
C582 C583 1.438 . S
C582 C587 1.429 . S
C583 C582 1.438 . S
C583 C584 1.428 . S
C583 C596 1.394 1_545 S
C584 H576 0.949 . S
C584 C583 1.428 . S
C584 C585 1.345 . S
C585 H577 0.950 . S
C585 C584 1.345 . S
C585 C586 1.424 . S
C586 H578 0.951 . S
C586 C585 1.424 . S
C586 C587 1.347 . S
C587 H579 0.951 . S
C587 C582 1.429 . S
C587 C586 1.347 . S
H588 C589 0.951 1_545 S
C589 H588 0.951 1_565 S
C589 C595 1.265 . S
H590 C595 0.950 . S
H591 C599 0.949 . S
H592 C600 0.950 . S
H593 C601 0.951 . S
H594 C602 0.951 . S
C595 C589 1.265 . S
C595 H590 0.950 . S
C595 C596 1.478 . S
C596 C583 1.394 1_565 S
C596 C595 1.478 . S
C596 C597 1.397 . S
C597 C596 1.397 . S
C597 C598 1.438 . S
C597 C602 1.429 . S
C598 C581 1.394 . S
C598 C597 1.438 . S
C598 C599 1.428 . S
C599 H591 0.949 . S
C599 C598 1.428 . S
C599 C600 1.345 . S
C600 H592 0.950 . S
C600 C599 1.345 . S
C600 C601 1.424 . S
C601 H593 0.951 . S
C601 C600 1.424 . S
C601 C602 1.347 . S
C602 H594 0.951 . S
C602 C597 1.429 . S
C602 C601 1.347 . S
H603 C604 0.951 . S
C604 H603 0.951 . S
C604 C610 1.265 . S
H605 C610 0.950 . S
H606 C614 0.949 . S
H607 C615 0.950 . S
H608 C616 0.951 . S
H609 C617 0.951 1_554 S
C610 C604 1.265 . S
C610 H605 0.950 . S
C610 C611 1.478 . S
C611 C610 1.478 . S
C611 C612 1.397 . S
C611 C628 1.394 . S
C612 C611 1.397 . S
C612 C613 1.438 1_554 S
C612 C617 1.429 1_554 S
C613 C612 1.438 1_556 S
C613 C614 1.428 . S
C613 C626 1.394 . S
C614 H606 0.949 . S
C614 C613 1.428 . S
C614 C615 1.345 . S
C615 H607 0.950 . S
C615 C614 1.345 . S
C615 C616 1.424 . S
C616 H608 0.951 . S
C616 C615 1.424 . S
C616 C617 1.347 . S
C617 H609 0.951 1_556 S
C617 C612 1.429 1_556 S
C617 C616 1.347 . S
H618 C619 0.951 . S
C619 H618 0.951 . S
C619 C625 1.265 . S
H620 C625 0.950 . S
H621 C629 0.949 . S
H622 C630 0.950 . S
H623 C631 0.951 . S
H624 C632 0.951 . S
C625 C619 1.265 . S
C625 H620 0.950 . S
C625 C626 1.478 . S
C626 C613 1.394 . S
C626 C625 1.478 . S
C626 C627 1.397 1_556 S
C627 C626 1.397 1_554 S
C627 C628 1.438 . S
C627 C632 1.429 . S
C628 C611 1.394 . S
C628 C627 1.438 . S
C628 C629 1.428 . S
C629 H621 0.949 . S
C629 C628 1.428 . S
C629 C630 1.345 . S
C630 H622 0.950 . S
C630 C629 1.345 . S
C630 C631 1.424 . S
C631 H623 0.951 . S
C631 C630 1.424 . S
C631 C632 1.347 . S
C632 H624 0.951 . S
C632 C627 1.429 . S
C632 C631 1.347 . S
H633 C634 0.951 . S
C634 H633 0.951 . S
C634 C640 1.265 . S
H635 C640 0.950 . S
H636 C644 0.949 . S
H637 C645 0.950 . S
H638 C646 0.951 . S
H639 C647 0.951 . S
C640 C634 1.265 . S
C640 H635 0.950 . S
C640 C641 1.478 . S
C641 C640 1.478 . S
C641 C642 1.397 . S
C641 C658 1.394 . S
C642 C641 1.397 . S
C642 C643 1.438 . S
C642 C647 1.429 . S
C643 C642 1.438 . S
C643 C644 1.428 . S
C643 C656 1.394 . S
C644 H636 0.949 . S
C644 C643 1.428 . S
C644 C645 1.345 . S
C645 H637 0.950 . S
C645 C644 1.345 . S
C645 C646 1.424 . S
C646 H638 0.951 . S
C646 C645 1.424 . S
C646 C647 1.347 . S
C647 H639 0.951 . S
C647 C642 1.429 . S
C647 C646 1.347 . S
H648 C649 0.966 . S
C649 H648 0.966 . S
C649 C655 1.245 1_655 S
H650 C655 0.950 . S
H651 C659 0.949 . S
H652 C660 0.950 1_655 S
H653 C661 0.951 1_655 S
H654 C662 0.951 . S
C655 C649 1.245 1_455 S
C655 H650 0.950 . S
C655 C656 1.478 . S
C656 C643 1.394 . S
C656 C655 1.478 . S
C656 C657 1.397 . S
C657 C656 1.397 . S
C657 C658 1.438 . S
C657 C662 1.429 . S
C658 C641 1.394 . S
C658 C657 1.438 . S
C658 C659 1.428 . S
C659 H651 0.949 . S
C659 C658 1.428 . S
C659 C660 1.345 . S
C660 H652 0.950 1_455 S
C660 C659 1.345 . S
C660 C661 1.424 . S
C661 H653 0.951 1_455 S
C661 C660 1.424 . S
C661 C662 1.347 . S
C662 H654 0.951 . S
C662 C657 1.429 . S
C662 C661 1.347 . S
C319 C269 1.359 . S
C304 C29 1.369 . S
C334 C137 1.476 . S
C349 C287 1.477 . S
C364 C225 1.443 . S
C379 C300 1.444 . S
C394 C49 1.341 . S
C409 C267 1.405 1_455 S
C439 C278 1.467 1_545 S
C424 C117 1.432 . S
C454 C205 1.439 . S
C469 C291 1.478 . S
C499 C280 1.390 1_545 S
C484 C233 1.357 . S
C514 C57 1.340 . S
C529 C293 1.403 . S
C559 C274 1.475 1_455 S
C544 C108 1.473 . S
C589 C282 1.379 . S
C574 C196 1.387 . S
C619 C295 1.333 . S
C604 C20 1.338 . S
C634 C145 1.466 . S
C649 C265 1.474 . S
