# Generated by pormake.
# Topology gar, (4,6)-cn, num edge types: 1
# Building blocks:
#     Node 0, Type 0, BuildingBlock: TATPOV_clean_sbu_0, # of connection points: 4
#     Node 1, Type 0, BuildingBlock: TATPOV_clean_sbu_0, # of connection points: 4
#     Node 2, Type 0, BuildingBlock: TATPOV_clean_sbu_0, # of connection points: 4
#     Node 3, Type 0, BuildingBlock: TATPOV_clean_sbu_0, # of connection points: 4
#     Node 4, Type 0, BuildingBlock: TATPOV_clean_sbu_0, # of connection points: 4
#     Node 5, Type 0, BuildingBlock: TATPOV_clean_sbu_0, # of connection points: 4
#     Node 6, Type 0, BuildingBlock: TATPOV_clean_sbu_0, # of connection points: 4
#     Node 7, Type 0, BuildingBlock: TATPOV_clean_sbu_0, # of connection points: 4
#     Node 8, Type 0, BuildingBlock: TATPOV_clean_sbu_0, # of connection points: 4
#     Node 9, Type 0, BuildingBlock: TATPOV_clean_sbu_0, # of connection points: 4
#     Node 10, Type 0, BuildingBlock: TATPOV_clean_sbu_0, # of connection points: 4
#     Node 11, Type 0, BuildingBlock: TATPOV_clean_sbu_0, # of connection points: 4
#     Node 12, Type 0, BuildingBlock: TATPOV_clean_sbu_0, # of connection points: 4
#     Node 13, Type 0, BuildingBlock: TATPOV_clean_sbu_0, # of connection points: 4
#     Node 14, Type 0, BuildingBlock: TATPOV_clean_sbu_0, # of connection points: 4
#     Node 15, Type 0, BuildingBlock: TATPOV_clean_sbu_0, # of connection points: 4
#     Node 16, Type 0, BuildingBlock: TATPOV_clean_sbu_0, # of connection points: 4
#     Node 17, Type 0, BuildingBlock: TATPOV_clean_sbu_0, # of connection points: 4
#     Node 18, Type 0, BuildingBlock: TATPOV_clean_sbu_0, # of connection points: 4
#     Node 19, Type 0, BuildingBlock: TATPOV_clean_sbu_0, # of connection points: 4
#     Node 20, Type 0, BuildingBlock: TATPOV_clean_sbu_0, # of connection points: 4
#     Node 21, Type 0, BuildingBlock: TATPOV_clean_sbu_0, # of connection points: 4
#     Node 22, Type 0, BuildingBlock: TATPOV_clean_sbu_0, # of connection points: 4
#     Node 23, Type 0, BuildingBlock: TATPOV_clean_sbu_0, # of connection points: 4
#     Node 24, Type 1, BuildingBlock: KUMBOL_clean_sbu_1, # of connection points: 6
#     Node 25, Type 1, BuildingBlock: KUMBOL_clean_sbu_1, # of connection points: 6
#     Node 26, Type 1, BuildingBlock: KUMBOL_clean_sbu_1, # of connection points: 6
#     Node 27, Type 1, BuildingBlock: KUMBOL_clean_sbu_1, # of connection points: 6
#     Node 28, Type 1, BuildingBlock: KUMBOL_clean_sbu_1, # of connection points: 6
#     Node 29, Type 1, BuildingBlock: KUMBOL_clean_sbu_1, # of connection points: 6
#     Node 30, Type 1, BuildingBlock: KUMBOL_clean_sbu_1, # of connection points: 6
#     Node 31, Type 1, BuildingBlock: KUMBOL_clean_sbu_1, # of connection points: 6
#     Node 32, Type 1, BuildingBlock: KUMBOL_clean_sbu_1, # of connection points: 6
#     Node 33, Type 1, BuildingBlock: KUMBOL_clean_sbu_1, # of connection points: 6
#     Node 34, Type 1, BuildingBlock: KUMBOL_clean_sbu_1, # of connection points: 6
#     Node 35, Type 1, BuildingBlock: KUMBOL_clean_sbu_1, # of connection points: 6
#     Node 36, Type 1, BuildingBlock: KUMBOL_clean_sbu_1, # of connection points: 6
#     Node 37, Type 1, BuildingBlock: KUMBOL_clean_sbu_1, # of connection points: 6
#     Node 38, Type 1, BuildingBlock: KUMBOL_clean_sbu_1, # of connection points: 6
#     Node 39, Type 1, BuildingBlock: KUMBOL_clean_sbu_1, # of connection points: 6
#     Edge 40, Type (0, 1), BuildingBlock: XUDNAN_clean_linker_2, # of connection points: 2
#     Edge 41, Type (0, 1), BuildingBlock: XUDNAN_clean_linker_2, # of connection points: 2
#     Edge 42, Type (0, 1), BuildingBlock: XUDNAN_clean_linker_2, # of connection points: 2
#     Edge 43, Type (0, 1), BuildingBlock: XUDNAN_clean_linker_2, # of connection points: 2
#     Edge 44, Type (0, 1), BuildingBlock: XUDNAN_clean_linker_2, # of connection points: 2
#     Edge 45, Type (0, 1), BuildingBlock: XUDNAN_clean_linker_2, # of connection points: 2
#     Edge 46, Type (0, 1), BuildingBlock: XUDNAN_clean_linker_2, # of connection points: 2
#     Edge 47, Type (0, 1), BuildingBlock: XUDNAN_clean_linker_2, # of connection points: 2
#     Edge 48, Type (0, 1), BuildingBlock: XUDNAN_clean_linker_2, # of connection points: 2
#     Edge 49, Type (0, 1), BuildingBlock: XUDNAN_clean_linker_2, # of connection points: 2
#     Edge 50, Type (0, 1), BuildingBlock: XUDNAN_clean_linker_2, # of connection points: 2
#     Edge 51, Type (0, 1), BuildingBlock: XUDNAN_clean_linker_2, # of connection points: 2
#     Edge 52, Type (0, 1), BuildingBlock: XUDNAN_clean_linker_2, # of connection points: 2
#     Edge 53, Type (0, 1), BuildingBlock: XUDNAN_clean_linker_2, # of connection points: 2
#     Edge 54, Type (0, 1), BuildingBlock: XUDNAN_clean_linker_2, # of connection points: 2
#     Edge 55, Type (0, 1), BuildingBlock: XUDNAN_clean_linker_2, # of connection points: 2
#     Edge 56, Type (0, 1), BuildingBlock: XUDNAN_clean_linker_2, # of connection points: 2
#     Edge 57, Type (0, 1), BuildingBlock: XUDNAN_clean_linker_2, # of connection points: 2
#     Edge 58, Type (0, 1), BuildingBlock: XUDNAN_clean_linker_2, # of connection points: 2
#     Edge 59, Type (0, 1), BuildingBlock: XUDNAN_clean_linker_2, # of connection points: 2
#     Edge 60, Type (0, 1), BuildingBlock: XUDNAN_clean_linker_2, # of connection points: 2
#     Edge 61, Type (0, 1), BuildingBlock: XUDNAN_clean_linker_2, # of connection points: 2
#     Edge 62, Type (0, 1), BuildingBlock: XUDNAN_clean_linker_2, # of connection points: 2
#     Edge 63, Type (0, 1), BuildingBlock: XUDNAN_clean_linker_2, # of connection points: 2
#     Edge 64, Type (0, 1), BuildingBlock: XUDNAN_clean_linker_2, # of connection points: 2
#     Edge 65, Type (0, 1), BuildingBlock: XUDNAN_clean_linker_2, # of connection points: 2
#     Edge 66, Type (0, 1), BuildingBlock: XUDNAN_clean_linker_2, # of connection points: 2
#     Edge 67, Type (0, 1), BuildingBlock: XUDNAN_clean_linker_2, # of connection points: 2
#     Edge 68, Type (0, 1), BuildingBlock: XUDNAN_clean_linker_2, # of connection points: 2
#     Edge 69, Type (0, 1), BuildingBlock: XUDNAN_clean_linker_2, # of connection points: 2
#     Edge 70, Type (0, 1), BuildingBlock: XUDNAN_clean_linker_2, # of connection points: 2
#     Edge 71, Type (0, 1), BuildingBlock: XUDNAN_clean_linker_2, # of connection points: 2
#     Edge 72, Type (0, 1), BuildingBlock: XUDNAN_clean_linker_2, # of connection points: 2
#     Edge 73, Type (0, 1), BuildingBlock: XUDNAN_clean_linker_2, # of connection points: 2
#     Edge 74, Type (0, 1), BuildingBlock: XUDNAN_clean_linker_2, # of connection points: 2
#     Edge 75, Type (0, 1), BuildingBlock: XUDNAN_clean_linker_2, # of connection points: 2
#     Edge 76, Type (0, 1), BuildingBlock: XUDNAN_clean_linker_2, # of connection points: 2
#     Edge 77, Type (0, 1), BuildingBlock: XUDNAN_clean_linker_2, # of connection points: 2
#     Edge 78, Type (0, 1), BuildingBlock: XUDNAN_clean_linker_2, # of connection points: 2
#     Edge 79, Type (0, 1), BuildingBlock: XUDNAN_clean_linker_2, # of connection points: 2
#     Edge 80, Type (0, 1), BuildingBlock: XUDNAN_clean_linker_2, # of connection points: 2
#     Edge 81, Type (0, 1), BuildingBlock: XUDNAN_clean_linker_2, # of connection points: 2
#     Edge 82, Type (0, 1), BuildingBlock: XUDNAN_clean_linker_2, # of connection points: 2
#     Edge 83, Type (0, 1), BuildingBlock: XUDNAN_clean_linker_2, # of connection points: 2
#     Edge 84, Type (0, 1), BuildingBlock: XUDNAN_clean_linker_2, # of connection points: 2
#     Edge 85, Type (0, 1), BuildingBlock: XUDNAN_clean_linker_2, # of connection points: 2
#     Edge 86, Type (0, 1), BuildingBlock: XUDNAN_clean_linker_2, # of connection points: 2
#     Edge 87, Type (0, 1), BuildingBlock: XUDNAN_clean_linker_2, # of connection points: 2
#     Edge 88, Type (0, 1), BuildingBlock: XUDNAN_clean_linker_2, # of connection points: 2
#     Edge 89, Type (0, 1), BuildingBlock: XUDNAN_clean_linker_2, # of connection points: 2
#     Edge 90, Type (0, 1), BuildingBlock: XUDNAN_clean_linker_2, # of connection points: 2
#     Edge 91, Type (0, 1), BuildingBlock: XUDNAN_clean_linker_2, # of connection points: 2
#     Edge 92, Type (0, 1), BuildingBlock: XUDNAN_clean_linker_2, # of connection points: 2
#     Edge 93, Type (0, 1), BuildingBlock: XUDNAN_clean_linker_2, # of connection points: 2
#     Edge 94, Type (0, 1), BuildingBlock: XUDNAN_clean_linker_2, # of connection points: 2
#     Edge 95, Type (0, 1), BuildingBlock: XUDNAN_clean_linker_2, # of connection points: 2
#     Edge 96, Type (0, 1), BuildingBlock: XUDNAN_clean_linker_2, # of connection points: 2
#     Edge 97, Type (0, 1), BuildingBlock: XUDNAN_clean_linker_2, # of connection points: 2
#     Edge 98, Type (0, 1), BuildingBlock: XUDNAN_clean_linker_2, # of connection points: 2
#     Edge 99, Type (0, 1), BuildingBlock: XUDNAN_clean_linker_2, # of connection points: 2
#     Edge 100, Type (0, 1), BuildingBlock: XUDNAN_clean_linker_2, # of connection points: 2
#     Edge 101, Type (0, 1), BuildingBlock: XUDNAN_clean_linker_2, # of connection points: 2
#     Edge 102, Type (0, 1), BuildingBlock: XUDNAN_clean_linker_2, # of connection points: 2
#     Edge 103, Type (0, 1), BuildingBlock: XUDNAN_clean_linker_2, # of connection points: 2
#     Edge 104, Type (0, 1), BuildingBlock: XUDNAN_clean_linker_2, # of connection points: 2
#     Edge 105, Type (0, 1), BuildingBlock: XUDNAN_clean_linker_2, # of connection points: 2
#     Edge 106, Type (0, 1), BuildingBlock: XUDNAN_clean_linker_2, # of connection points: 2
#     Edge 107, Type (0, 1), BuildingBlock: XUDNAN_clean_linker_2, # of connection points: 2
#     Edge 108, Type (0, 1), BuildingBlock: XUDNAN_clean_linker_2, # of connection points: 2
#     Edge 109, Type (0, 1), BuildingBlock: XUDNAN_clean_linker_2, # of connection points: 2
#     Edge 110, Type (0, 1), BuildingBlock: XUDNAN_clean_linker_2, # of connection points: 2
#     Edge 111, Type (0, 1), BuildingBlock: XUDNAN_clean_linker_2, # of connection points: 2
#     Edge 112, Type (0, 1), BuildingBlock: XUDNAN_clean_linker_2, # of connection points: 2
#     Edge 113, Type (0, 1), BuildingBlock: XUDNAN_clean_linker_2, # of connection points: 2
#     Edge 114, Type (0, 1), BuildingBlock: XUDNAN_clean_linker_2, # of connection points: 2
#     Edge 115, Type (0, 1), BuildingBlock: XUDNAN_clean_linker_2, # of connection points: 2
#     Edge 116, Type (0, 1), BuildingBlock: XUDNAN_clean_linker_2, # of connection points: 2
#     Edge 117, Type (0, 1), BuildingBlock: XUDNAN_clean_linker_2, # of connection points: 2
#     Edge 118, Type (0, 1), BuildingBlock: XUDNAN_clean_linker_2, # of connection points: 2
#     Edge 119, Type (0, 1), BuildingBlock: XUDNAN_clean_linker_2, # of connection points: 2
#     Edge 120, Type (0, 1), BuildingBlock: XUDNAN_clean_linker_2, # of connection points: 2
#     Edge 121, Type (0, 1), BuildingBlock: XUDNAN_clean_linker_2, # of connection points: 2
#     Edge 122, Type (0, 1), BuildingBlock: XUDNAN_clean_linker_2, # of connection points: 2
#     Edge 123, Type (0, 1), BuildingBlock: XUDNAN_clean_linker_2, # of connection points: 2
#     Edge 124, Type (0, 1), BuildingBlock: XUDNAN_clean_linker_2, # of connection points: 2
#     Edge 125, Type (0, 1), BuildingBlock: XUDNAN_clean_linker_2, # of connection points: 2
#     Edge 126, Type (0, 1), BuildingBlock: XUDNAN_clean_linker_2, # of connection points: 2
#     Edge 127, Type (0, 1), BuildingBlock: XUDNAN_clean_linker_2, # of connection points: 2
#     Edge 128, Type (0, 1), BuildingBlock: XUDNAN_clean_linker_2, # of connection points: 2
#     Edge 129, Type (0, 1), BuildingBlock: XUDNAN_clean_linker_2, # of connection points: 2
#     Edge 130, Type (0, 1), BuildingBlock: XUDNAN_clean_linker_2, # of connection points: 2
#     Edge 131, Type (0, 1), BuildingBlock: XUDNAN_clean_linker_2, # of connection points: 2
#     Edge 132, Type (0, 1), BuildingBlock: XUDNAN_clean_linker_2, # of connection points: 2
#     Edge 133, Type (0, 1), BuildingBlock: XUDNAN_clean_linker_2, # of connection points: 2
#     Edge 134, Type (0, 1), BuildingBlock: XUDNAN_clean_linker_2, # of connection points: 2
#     Edge 135, Type (0, 1), BuildingBlock: XUDNAN_clean_linker_2, # of connection points: 2
# Relax obj value: 0.088
# Max RMSD: 0.187
# Mean RMSD: 0.130
data_MOF--net-gar--node1-TATPOV_clean_sbu_0--node2-KUMBOL_clean_sbu_1--edge1-XUDNAN_clean_linker_2
_symmetry_space_group_name_H-M    P1
_symmetry_Int_Tables_number       1
_symmetry_cell_setting            triclinic
loop_
_symmetry_equiv_pos_as_xyz
'x, y, z'
_cell_length_a     59.894569
_cell_length_b     59.790973
_cell_length_c     56.660572
_cell_angle_alpha  96.640888
_cell_angle_beta   97.172952
_cell_angle_gamma 102.96258
loop_
_atom_site_label
_atom_site_type_symbol
_atom_site_fract_x
_atom_site_fract_y
_atom_site_fract_z
_atom_type_partial_charge
Zn0 Zn 0.02777 0.31833 0.3856 0.0
Zn1 Zn 0.05754 0.3209 0.35668 0.0
O2 O 0.064 0.35521 0.37938 0.0
O3 O 0.03844 0.34924 0.40418 0.0
O4 O 0.08948 0.31848 0.34211 0.0
O5 O 0.03199 0.29097 0.40051 0.0
O6 O 0.05517 0.29065 0.37335 0.0
C7 C 0.05443 0.36296 0.39683 0.0
C8 C 1.00422 0.31302 0.33726 0.0
O9 O 0.02482 0.31473 0.33166 0.0
O10 O 1.00148 0.31425 0.35908 0.0
C11 C 0.099 0.31849 0.32283 0.0
O12 O 0.08723 0.32187 0.30295 0.0
C13 C 0.04535 0.28134 0.38981 0.0
Zn14 Zn 0.02129 0.73268 0.7213 0.0
Zn15 Zn 0.02752 0.75841 0.68888 0.0
O16 O 0.99613 0.76287 0.70308 0.0
O17 O 0.99305 0.74357 0.73353 0.0
O18 O 0.03043 0.78066 0.66439 0.0
O19 O 0.05593 0.74395 0.7371 0.0
O20 O 0.06223 0.76587 0.70902 0.0
C21 C 0.98498 0.75646 0.72017 0.0
C22 C 0.01848 0.70678 0.67229 0.0
O23 O 0.02291 0.72703 0.66635 0.0
O24 O 0.01582 0.7047 0.69394 0.0
C25 C 0.02507 0.80013 0.66673 0.0
O26 O 0.0178 0.80716 0.68658 0.0
C27 C 0.07024 0.75752 0.72722 0.0
Zn28 Zn 0.53148 0.8212 0.88682 0.0
Zn29 Zn 0.55737 0.82281 0.85525 0.0
O30 O 0.56155 0.85816 0.87505 0.0
O31 O 0.54745 0.85052 0.90793 0.0
O32 O 0.58559 0.81919 0.83479 0.0
O33 O 0.53416 0.79265 0.89983 0.0
O34 O 0.55897 0.79422 0.87424 0.0
C35 C 0.55722 0.86536 0.89603 0.0
C36 C 0.50409 0.81638 0.83988 0.0
O37 O 0.52345 0.81482 0.83278 0.0
O38 O 0.50352 0.82061 0.86219 0.0
C39 C 0.60747 0.82932 0.83814 0.0
O40 O 0.6152 0.84744 0.85499 0.0
C41 C 0.54905 0.78434 0.89037 0.0
Zn42 Zn 0.52518 0.23109 0.22217 0.0
Zn43 Zn 0.52853 0.26267 0.19234 0.0
O44 O 0.49818 0.26476 0.20723 0.0
O45 O 0.49591 0.24178 0.2347 0.0
O46 O 0.53092 0.28872 0.17183 0.0
O47 O 0.56092 0.24359 0.2363 0.0
O48 O 0.56245 0.26994 0.21218 0.0
C49 C 0.48745 0.25603 0.22346 0.0
C50 C 0.52072 0.2115 0.17071 0.0
O51 O 0.52346 0.23278 0.1679 0.0
O52 O 0.52011 0.20595 0.19167 0.0
C53 C 0.51806 0.2858 0.15153 0.0
O54 O 0.50328 0.26568 0.14386 0.0
C55 C 0.57287 0.26027 0.22775 0.0
Zn56 Zn 0.09702 0.8008 0.07747 0.0
Zn57 Zn 0.07115 0.79976 0.11095 0.0
O58 O 0.06648 0.82947 0.09402 0.0
O59 O 0.08885 0.83178 0.06627 0.0
O60 O 0.04365 0.79332 0.12895 0.0
O61 O 0.08283 0.76543 0.06106 0.0
O62 O 0.06718 0.76523 0.09384 0.0
C63 C 0.07474 0.84026 0.07745 0.0
C64 C 0.12078 0.80447 0.12967 0.0
O65 O 0.10133 0.80588 0.13595 0.0
O66 O 0.1226 0.80244 0.10736 0.0
C67 C 0.03353 0.80735 0.13931 0.0
O68 O 0.0419 0.82981 0.14061 0.0
C69 C 0.07187 0.75385 0.07531 0.0
Zn70 Zn 0.4827 0.77 0.47188 0.0
Zn71 Zn 0.50965 0.76863 0.43917 0.0
O72 O 0.51743 0.8042 0.45621 0.0
O73 O 0.49686 0.80553 0.4855 0.0
O74 O 0.53469 0.76921 0.41756 0.0
O75 O 0.49322 0.74164 0.48611 0.0
O76 O 0.5134 0.73875 0.45679 0.0
C77 C 0.51098 0.81624 0.47324 0.0
C78 C 0.4582 0.76339 0.42093 0.0
O79 O 0.47839 0.76369 0.4156 0.0
O80 O 0.4553 0.76464 0.44288 0.0
C81 C 0.53873 0.7845 0.40377 0.0
O82 O 0.52643 0.80013 0.40345 0.0
C83 C 0.50587 0.73077 0.47515 0.0
Zn84 Zn 0.59853 0.30021 0.5793 0.0
Zn85 Zn 0.56848 0.30045 0.60759 0.0
O86 O 0.56614 0.33099 0.59027 0.0
O87 O 0.59134 0.32998 0.5657 0.0
O88 O 0.53954 0.29631 0.62377 0.0
O89 O 0.58569 0.2656 0.5628 0.0
O90 O 0.5637 0.26483 0.59084 0.0
C91 C 0.57689 0.34018 0.5742 0.0
C92 C 0.61824 0.30596 0.6315 0.0
O93 O 0.5976 0.30689 0.63456 0.0
O94 O 0.62294 0.30336 0.61021 0.0
C95 C 0.53619 0.30699 0.6433 0.0
O96 O 0.55333 0.32301 0.65638 0.0
C97 C 0.57111 0.25382 0.57384 0.0
Zn98 Zn 0.98168 0.26824 0.97375 0.0
Zn99 Zn 1.00836 0.26742 0.94072 0.0
O100 O 0.01672 0.30283 0.95859 0.0
O101 O 0.99598 0.30358 0.98782 0.0
O102 O 0.03381 0.26683 0.91972 0.0
O103 O 0.99156 0.23946 0.98749 0.0
O104 O 0.01125 0.23721 0.95769 0.0
C105 C 0.01019 0.31457 0.97581 0.0
C106 C 0.95732 0.26358 0.92284 0.0
O107 O 0.9774 0.26382 0.91721 0.0
O108 O 0.95471 0.26443 0.94486 0.0
C109 C 0.0447 0.28365 0.9105 0.0
O110 O 0.03898 0.30364 0.91337 0.0
C111 C 1.00385 0.22875 0.97585 0.0
Zn112 Zn 0.4069 0.98236 0.30438 0.0
Zn113 Zn 0.39667 0.01909 0.30225 0.0
O114 O 0.41557 0.02498 0.3338 0.0
O115 O 0.40811 0.98893 0.34074 0.0
O116 O 0.3902 0.04834 0.30003 0.0
O117 O 0.43541 0.99459 0.28964 0.0
O118 O 0.41409 0.01645 0.27475 0.0
C119 C 0.41527 0.01043 0.34822 0.0
C120 C 0.36028 0.97872 0.28671 0.0
O121 O 0.36527 0.99833 0.2996 0.0
O122 O 0.37637 0.9692 0.28206 0.0
C123 C 0.37462 0.05637 0.30846 0.0
O124 O 0.36166 0.04496 0.32236 0.0
C125 C 0.43182 0.00822 0.27491 0.0
Zn126 Zn 0.25044 0.21588 0.51078 0.0
Zn127 Zn 0.27602 0.18613 0.51398 0.0
O128 O 0.28314 0.201 0.48296 0.0
O129 O 0.26271 0.22719 0.48138 0.0
O130 O 0.30087 0.16901 0.51943 0.0
O131 O 0.26264 0.23282 0.5449 0.0
O132 O 0.28192 0.20581 0.54808 0.0
C133 C 0.27654 0.21671 0.47237 0.0
C134 C 0.22492 0.16657 0.50518 0.0
O135 O 0.24475 0.162 0.50858 0.0
O136 O 0.22333 0.18739 0.5052 0.0
C137 C 0.31029 0.15735 0.50521 0.0
O138 O 0.30257 0.15344 0.482 0.0
C139 C 0.27574 0.22338 0.55757 0.0
Zn140 Zn 0.1195 0.08006 0.79318 0.0
Zn141 Zn 0.14149 0.04868 0.78415 0.0
O142 O 0.1254 0.04102 0.81441 0.0
O143 O 0.10743 0.06871 0.8222 0.0
O144 O 0.15863 0.02358 0.78066 0.0
O145 O 0.10164 0.07064 0.75945 0.0
O146 O 0.12123 0.04482 0.75025 0.0
C147 C 0.11335 0.05073 0.82757 0.0
C148 C 0.16756 0.09987 0.79567 0.0
O149 O 0.16799 0.07873 0.78998 0.0
O150 O 0.14875 0.10522 0.79861 0.0
C151 C 0.17207 0.02094 0.79878 0.0
O152 O 0.17462 0.03493 0.81911 0.0
C153 C 0.1061 0.05587 0.74394 0.0
Zn154 Zn 0.34222 0.91279 0.99458 0.0
Zn155 Zn 0.3022 0.92881 0.99612 0.0
O156 O 0.29753 0.91494 0.96208 0.0
O157 O 0.33397 0.93104 0.96682 0.0
O158 O 0.27616 0.94053 -8e-05 0.0
O159 O 0.33402 0.91078 0.02921 0.0
O160 O 0.29673 0.90436 0.01714 0.0
C161 C 0.31567 0.92059 0.95289 0.0
C162 C 0.34872 0.95474 0.02101 0.0
O163 O 0.33103 0.95601 0.00679 0.0
O164 O 0.34921 0.93501 0.02694 0.0
C165 C 0.26872 0.95665 0.99191 0.0
O166 O 0.28031 0.9697 0.97821 0.0
C167 C 0.31327 0.90303 0.03247 0.0
Zn168 Zn 0.33449 0.35991 0.04159 0.0
Zn169 Zn 0.304 0.38697 0.03924 0.0
O170 O 0.29621 0.36667 0.00593 0.0
O171 O 0.32122 0.34475 0.00656 0.0
O172 O 0.28073 0.40658 0.03793 0.0
O173 O 0.32181 0.34753 0.07088 0.0
O174 O 0.2997 0.37233 0.07011 0.0
C175 C 0.30491 0.35148 0.9952 0.0
C176 C 0.35553 0.40916 0.04398 0.0
O177 O 0.33453 0.41049 0.04096 0.0
O178 O 0.36051 0.3899 0.04625 0.0
C179 C 0.28259 0.42143 0.02353 0.0
O180 O 0.29932 0.42317 0.01039 0.0
C181 C 0.30739 0.35699 0.08019 0.0
Zn182 Zn 0.74411 0.14609 0.05639 0.0
Zn183 Zn 0.77834 0.13356 0.05561 0.0
O184 O 0.78172 0.1574 0.03317 0.0
O185 O 0.74424 0.15281 0.02259 0.0
O186 O 0.80652 0.12353 0.05817 0.0
O187 O 0.75938 0.17172 0.08201 0.0
O188 O 0.77962 0.14667 0.09041 0.0
C189 C 0.76486 0.16085 0.01936 0.0
C190 C 0.73704 0.09916 0.05231 0.0
O191 O 0.75429 0.10438 0.04158 0.0
O192 O 0.73227 0.11496 0.06611 0.0
C193 C 0.80941 0.1097 0.07298 0.0
O194 O 0.79272 0.10152 0.08496 0.0
C195 C 0.7732 0.16495 0.09663 0.0
Zn196 Zn 0.15956 0.57216 0.25217 0.0
Zn197 Zn 0.18476 0.5449 0.24331 0.0
O198 O 0.17584 0.54079 0.27598 0.0
O199 O 0.14228 0.54971 0.27159 0.0
O200 O 0.20134 0.52116 0.23657 0.0
O201 O 0.15133 0.57084 0.2166 0.0
O202 O 0.16192 0.538 0.21367 0.0
C203 C 0.15703 0.54163 0.28366 0.0
C204 C 0.20818 0.5923 0.25982 0.0
O205 O 0.20823 0.57459 0.24528 0.0
O206 O 0.18986 0.594 0.26816 0.0
C207 C 0.22213 0.52463 0.24647 0.0
O208 O 0.23187 0.54395 0.26122 0.0
C209 C 0.15316 0.55269 0.20398 0.0
Zn210 Zn 0.8269 0.8579 0.53725 0.0
Zn211 Zn 0.80573 0.89119 0.53918 0.0
O212 O 0.79985 0.87558 0.50315 0.0
O213 O 0.81393 0.84463 0.50242 0.0
O214 O 0.78396 0.91229 0.53904 0.0
O215 O 0.81357 0.84364 0.56449 0.0
O216 O 0.79714 0.87304 0.56778 0.0
C217 C 0.80357 0.85754 0.49144 0.0
C218 C 0.857 0.90589 0.54735 0.0
O219 O 0.83831 0.91273 0.54617 0.0
O220 O 0.85625 0.88433 0.54458 0.0
C221 C 0.78467 0.92626 0.52377 0.0
O222 O 0.80008 0.92693 0.50911 0.0
C223 C 0.80146 0.85492 0.57538 0.0
Zn224 Zn 0.96837 0.99279 0.26073 0.0
Zn225 Zn 0.94496 0.02334 0.25819 0.0
O226 O 0.96421 0.03252 0.2929 0.0
O227 O 0.98358 1.00535 0.29446 0.0
O228 O 0.92782 0.04842 0.25561 0.0
O229 O 0.98293 1.00015 0.23176 0.0
O230 O 0.96175 0.02548 0.22781 0.0
C231 C 0.97812 0.02288 0.30459 0.0
C232 C 0.92004 0.97225 0.25602 0.0
O233 O 0.91875 0.99328 0.25605 0.0
O234 O 0.93958 0.96735 0.25702 0.0
C235 C 0.91328 0.0518 0.2693 0.0
O236 O 0.90909 0.03841 0.28586 0.0
C237 C 0.9763 0.01491 0.2201 0.0
Zn238 Zn 0.23845 0.65725 0.55014 0.0
Zn239 Zn 0.28417 0.64066 0.55603 0.0
O240 O 0.29262 0.65346 0.52816 0.0
O241 O 0.25816 0.66162 0.52227 0.0
O242 O 0.3083 0.62632 0.56808 0.0
O243 O 0.24929 0.65727 0.58632 0.0
O244 O 0.28606 0.66487 0.58227 0.0
C245 C 0.27739 0.66033 0.51553 0.0
C246 C 0.23785 0.61298 0.55607 0.0
O247 O 0.25521 0.61575 0.54537 0.0
O248 O 0.23544 0.63008 0.56991 0.0
C249 C 0.30656 0.60641 0.55688 0.0
O250 O 0.28963 0.59793 0.5388 0.0
C251 C 0.27056 0.66407 0.59541 0.0
Zn252 Zn 0.46442 0.48788 0.75677 0.0
Zn253 Zn 0.44107 0.52104 0.75955 0.0
O254 O 0.46153 0.52561 0.79277 0.0
O255 O 0.48147 0.49894 0.79125 0.0
O256 O 0.42752 0.54864 0.76449 0.0
O257 O 0.47657 0.49937 0.72683 0.0
O258 O 0.45705 0.52637 0.72959 0.0
C259 C 0.47612 0.5158 0.80299 0.0
C260 C 0.41419 0.4708 0.75254 0.0
O261 O 0.41374 0.49213 0.75443 0.0
O262 O 0.43321 0.46481 0.75305 0.0
C263 C 0.40858 0.55236 0.75503 0.0
O264 O 0.39407 0.53625 0.73909 0.0
C265 C 0.47034 0.51631 0.71872 0.0
Zn266 Zn 0.66576 0.07453 0.75037 0.0
Zn267 Zn 0.68654 0.04353 0.7438 0.0
O268 O 0.67937 0.04109 0.77736 0.0
O269 O 0.64815 0.05439 0.77107 0.0
O270 O 0.70301 0.01963 0.73653 0.0
O271 O 0.65692 0.06893 0.71404 0.0
O272 O 0.65958 0.03362 0.71813 0.0
C273 C 0.66042 0.04393 0.78341 0.0
C274 C 0.71294 0.09073 0.75509 0.0
O275 O 0.70929 0.0724 0.74023 0.0
O276 O 0.69686 0.0948 0.7661 0.0
C277 C 0.72493 0.02428 0.7398 0.0
O278 O 0.73697 0.04524 0.74931 0.0
C279 C 0.65297 0.04767 0.7055 0.0
Zn280 Zn 0.74696 0.71225 0.01253 0.0
Zn281 Zn 0.77647 0.68744 0.00881 0.0
O282 O 0.78103 0.70563 0.97925 0.0
O283 O 0.7546 0.72551 0.98246 0.0
O284 O 0.80417 0.67377 0.01267 0.0
O285 O 0.76004 0.73025 0.04581 0.0
O286 O 0.77983 0.70353 0.04466 0.0
C287 C 0.77005 0.7199 0.97129 0.0
C288 C 0.72712 0.66182 0.00453 0.0
O289 O 0.74748 0.6603 0.00148 0.0
O290 O 0.72296 0.68147 0.01018 0.0
C291 C 0.80933 0.65717 0.00017 0.0
O292 O 0.79505 0.64577 0.98086 0.0
C293 C 0.77353 0.71991 0.05658 0.0
Zn294 Zn 0.90627 0.50039 0.7973 0.0
Zn295 Zn 0.89103 0.5327 0.80126 0.0
O296 O 0.91592 0.53937 0.82952 0.0
O297 O 0.91076 0.50262 0.8332 0.0
O298 O 0.87504 0.55672 0.80757 0.0
O299 O 0.93078 0.51903 0.78261 0.0
O300 O 0.90317 0.53506 0.76949 0.0
C301 C 0.9186 0.52375 0.84212 0.0
C302 C 0.86134 0.48623 0.78816 0.0
O303 O 0.86565 0.50489 0.80267 0.0
O304 O 0.8768 0.48213 0.7763 0.0
C305 C 0.86679 0.55789 0.82713 0.0
O306 O 0.87039 0.54422 0.84299 0.0
C307 C 0.92245 0.53009 0.76749 0.0
Zn308 Zn 0.84046 0.40879 0.49073 0.0
Zn309 Zn 0.80056 0.42927 0.50315 0.0
O310 O 0.79367 0.41493 0.46932 0.0
O311 O 0.82925 0.42851 0.46592 0.0
O312 O 0.77351 0.44073 0.50617 0.0
O313 O 0.83574 0.40444 0.52535 0.0
O314 O 0.79918 0.406 0.52451 0.0
C315 C 0.80896 0.41828 0.45595 0.0
C316 C 0.84627 0.4598 0.50318 0.0
O317 O 0.82863 0.4564 0.51377 0.0
O318 O 0.84995 0.44362 0.4885 0.0
C319 C 0.77036 0.4561 0.49348 0.0
O320 O 0.78667 0.46591 0.48187 0.0
C321 C 0.81727 0.40141 0.53455 0.0
Zn322 Zn 0.61749 0.5801 0.29381 0.0
Zn323 Zn 0.6385 0.54771 0.2844 0.0
O324 O 0.62571 0.5421 0.31671 0.0
O325 O 0.60452 0.56725 0.32226 0.0
O326 O 0.65225 0.52054 0.27849 0.0
O327 O 0.59945 0.57209 0.2597 0.0
O328 O 0.61674 0.54411 0.2515 0.0
C329 C 0.61246 0.55075 0.32913 0.0
C330 C 0.66664 0.59771 0.2945 0.0
O331 O 0.66565 0.57638 0.28769 0.0
O332 O 0.64867 0.60385 0.29957 0.0
C333 C 0.66704 0.51463 0.29302 0.0
O334 O 0.67563 0.52768 0.31389 0.0
C335 C 0.60263 0.55605 0.24472 0.0
C336 C 0.98838 0.97086 0.98652 0.0
C337 C 0.96964 0.95294 0.01753 0.0
C338 C 0.98288 0.97244 0.00956 0.0
C339 C 0.96324 0.93145 0.00245 0.0
C340 C 0.98034 0.94974 0.97065 0.0
C341 C 0.96853 0.92987 0.97901 0.0
N342 N 0.99945 0.99052 0.97891 0.0
C343 C 1.00027 0.99078 0.95495 0.0
C344 C 0.98322 0.94954 0.94651 0.0
C345 C 0.99266 0.97031 0.9385 0.0
Gd346 Gd 0.07543 0.05045 0.04062 0.0
Gd347 Gd 0.01229 0.024 0.00829 0.0
N348 N 0.98909 0.99354 0.02357 0.0
C349 C 0.9623 0.9559 0.03994 0.0
C350 C 0.97992 0.99695 0.04415 0.0
C351 C 0.96696 0.97814 0.05302 0.0
H352 H 0.98241 0.01419 0.05373 0.0
H353 H 0.96034 0.98086 0.06977 0.0
H354 H 0.08372 0.07489 0.98968 0.0
H355 H 1.00651 1.00698 0.94842 0.0
H356 H 0.10405 0.11249 0.98037 0.0
H357 H 0.95209 0.94138 0.04672 0.0
H358 H 0.95333 0.9162 0.00837 0.0
H359 H 0.06819 0.05966 0.09931 0.0
H360 H 0.97712 0.93373 0.9337 0.0
H361 H 0.99383 0.97063 0.91963 0.0
H362 H 0.12576 0.16143 0.05681 0.0
H363 H 0.96254 0.91343 0.96717 0.0
H364 H 0.10126 0.13044 0.126 0.0
H365 H 0.08003 0.09181 0.13267 0.0
N366 N 0.07978 0.08027 0.07282 0.0
C367 C 0.09172 0.10136 0.06878 0.0
C368 C 0.0757 0.07673 0.09549 0.0
C369 C 0.09521 0.11656 0.11092 0.0
C370 C 0.08308 0.09483 0.11474 0.0
C371 C 0.09973 0.12005 0.0878 0.0
H372 H 0.11879 0.15596 0.0978 0.0
N373 N 0.08827 0.08612 0.02731 0.0
C374 C 0.09608 0.10436 0.0455 0.0
C375 C 0.11104 0.12901 0.01726 0.0
C376 C 0.10794 0.12623 0.04092 0.0
C377 C 0.09066 0.08894 0.00414 0.0
C378 C 0.10205 0.11039 -0.00123 0.0
O379 O 0.02783 0.99761 0.02711 0.0
O380 O 0.06792 0.00998 0.03242 0.0
O381 O 0.11237 0.05844 0.04012 0.0
O382 O 0.0988 0.04741 0.07191 0.0
O383 O 0.01805 0.04193 0.04729 0.0
O384 O 0.05095 0.03235 0.06278 0.0
O385 O 0.05049 0.07454 0.03588 0.0
O386 O 0.02997 0.05934 -0.00094 0.0
O387 O 0.98591 0.04194 0.0168 0.0
O388 O 0.98395 0.02346 0.98042 0.0
O389 O 0.07676 0.0367 0.002 0.0
O390 O 0.03846 0.02592 0.98245 0.0
C391 C 0.04864 0.99331 0.03133 0.0
C392 C 0.03122 0.03728 0.06555 0.0
C393 C 0.1386 0.05076 0.07106 0.0
C394 C 0.16747 0.02947 0.06572 0.0
C395 C 0.17255 0.05754 0.10151 0.0
C396 C 0.1515 0.06242 0.09318 0.0
C397 C 0.18054 0.04094 0.08783 0.0
C398 C 0.14663 0.03444 0.05724 0.0
C399 C 0.11699 0.05619 0.06269 0.0
C400 C 0.11628 0.14464 0.05997 0.0
C401 C 0.11225 0.14154 0.08332 0.0
H402 H 0.12007 0.14554 0.01304 0.0
C403 C 0.03847 0.0775 0.01577 0.0
C404 C 0.06105 0.02933 0.98252 0.0
C405 C 0.95348 0.04227 0.98693 0.0
C406 C 0.91921 0.05321 0.99692 0.0
C407 C 0.92604 0.05 0.95557 0.0
C408 C 0.94659 0.04353 0.9626 0.0
C409 C 0.91238 0.05505 0.97275 0.0
C410 C 0.93969 0.04691 0.00392 0.0
C411 C 0.97469 0.03569 0.99489 0.0
H412 H 0.18255 0.0665 0.11856 0.0
H413 H 0.14529 0.07526 0.10391 0.0
H414 H 0.19679 0.037 0.09442 0.0
H415 H 0.13652 0.02534 0.0402 0.0
H416 H 0.92077 0.05121 0.93688 0.0
H417 H 0.95714 0.03976 0.94917 0.0
H418 H 0.89657 0.06029 0.96727 0.0
H419 H 0.94499 0.04589 0.02273 0.0
C420 C 0.32495 0.75442 0.2236 0.0
C421 C 0.29562 0.7395 0.1884 0.0
C422 C 0.30461 0.75552 0.20963 0.0
C423 C 0.30659 0.72168 0.1823 0.0
C424 C 0.33659 0.73716 0.21701 0.0
C425 C 0.32709 0.72057 0.19652 0.0
N426 N 0.33311 0.76998 0.24398 0.0
C427 C 0.35342 0.77007 0.25794 0.0
C428 C 0.35723 0.73689 0.23147 0.0
C429 C 0.3658 0.75357 0.25188 0.0
Gd430 Gd 0.26721 0.78319 0.3066 0.0
Gd431 Gd 0.3102 0.79548 0.25442 0.0
N432 N 0.29429 0.77288 0.21617 0.0
C433 C 0.27634 0.74235 0.1735 0.0
C434 C 0.27745 0.77738 0.20001 0.0
C435 C 0.26769 0.76179 0.17895 0.0
H436 H 0.27139 0.79301 0.20294 0.0
H437 H 0.25367 0.76496 0.1668 0.0
H438 H 0.31451 0.7922 0.35226 0.0
H439 H 0.36004 0.78282 0.27384 0.0
H440 H 0.3375 0.82413 0.38236 0.0
H441 H 0.26881 0.73035 0.15713 0.0
H442 H 0.29969 0.70901 0.16629 0.0
H443 H 0.21662 0.79616 0.2924 0.0
H444 H 0.36671 0.72394 0.227 0.0
H445 H 0.38183 0.7536 0.26308 0.0
H446 H 0.29089 0.87932 0.38612 0.0
H447 H 0.33556 0.70694 0.19139 0.0
H448 H 0.21653 0.85946 0.33629 0.0
H449 H 0.19675 0.82682 0.3042 0.0
N450 N 0.24681 0.81086 0.31826 0.0
C451 C 0.25785 0.82843 0.3362 0.0
C452 C 0.2251 0.81007 0.30685 0.0
C453 C 0.22514 0.84586 0.33148 0.0
C454 C 0.21391 0.82747 0.31336 0.0
C455 C 0.24742 0.8466 0.34304 0.0
H456 H 0.25194 0.87923 0.36631 0.0
N457 N 0.28935 0.81046 0.34019 0.0
C458 C 0.27997 0.82854 0.34704 0.0
C459 C 0.31344 0.84564 0.37748 0.0
C460 C 0.29194 0.84675 0.36556 0.0
C461 C 0.30887 0.80806 0.35406 0.0
C462 C 0.32163 0.82591 0.37213 0.0
O463 O 0.30305 0.7595 0.26287 0.0
O464 O 0.26755 0.75906 0.27314 0.0
O465 O 0.26454 0.75588 0.3283 0.0
O466 O 0.23364 0.76636 0.31537 0.0
O467 O 0.27189 0.79696 0.24409 0.0
O468 O 0.24688 0.77842 0.26869 0.0
O469 O 0.26966 0.81679 0.29332 0.0
O470 O 0.30495 0.81466 0.28799 0.0
O471 O 0.31303 0.82632 0.23744 0.0
O472 O 0.34392 0.81531 0.24953 0.0
O473 O 0.3032 0.77495 0.31252 0.0
O474 O 0.32931 0.79827 0.29276 0.0
C475 C 0.28408 0.74862 0.26956 0.0
C476 C 0.25084 0.78856 0.2494 0.0
C477 C 0.23686 0.75406 0.35365 0.0
C478 C 0.24284 0.73961 0.39142 0.0
C479 C 0.22054 0.76855 0.38768 0.0
C480 C 0.22395 0.76862 0.36366 0.0
C481 C 0.23014 0.7542 0.40167 0.0
C482 C 0.24599 0.7396 0.36758 0.0
C483 C 0.2427 0.75406 0.32941 0.0
C484 C 0.28182 0.86513 0.37212 0.0
C485 C 0.2596 0.86503 0.36093 0.0
H486 H 0.32323 0.85932 0.39168 0.0
C487 C 0.28886 0.82585 0.28655 0.0
C488 C 0.32466 0.78392 0.30869 0.0
C489 C 0.34152 0.82967 0.21252 0.0
C490 C 0.33416 0.84124 0.17331 0.0
C491 C 0.36042 0.8163 0.18 0.0
C492 C 0.35658 0.81681 0.20383 0.0
C493 C 0.34909 0.8283 0.16466 0.0
C494 C 0.33075 0.8422 0.19725 0.0
C495 C 0.33502 0.82859 0.23654 0.0
H496 H 0.21061 0.77972 0.39549 0.0
H497 H 0.21682 0.78013 0.35317 0.0
H498 H 0.22748 0.75427 0.42024 0.0
H499 H 0.25634 0.72869 0.35999 0.0
H500 H 0.372 0.8064 0.17333 0.0
H501 H 0.36506 0.80684 0.21522 0.0
H502 H 0.35217 0.82773 0.14619 0.0
H503 H 0.31903 0.8521 0.20376 0.0
C504 C 0.59251 0.0834 0.48409 0.0
C505 C 0.61529 0.11525 0.51427 0.0
C506 C 0.60139 0.09241 0.50801 0.0
C507 C 0.61828 0.12965 0.49647 0.0
C508 C 0.59713 0.09728 0.46594 0.0
C509 C 0.60916 0.12071 0.47235 0.0
N510 N 0.58168 0.06045 0.47841 0.0
C511 C 0.57792 0.04975 0.45506 0.0
C512 C 0.59072 0.08689 0.44187 0.0
C513 C 0.58159 0.06292 0.43643 0.0
Gd514 Gd 0.50566 0.02754 0.53929 0.0
Gd515 Gd 0.57331 0.04176 0.51187 0.0
N516 N 0.59859 0.07803 0.52481 0.0
C517 C 0.62694 0.12238 0.53793 0.0
C518 C 0.61201 0.08385 0.54687 0.0
C519 C 0.62588 0.10634 0.5541 0.0
H520 H 0.61223 0.07099 0.55852 0.0
H521 H 0.63599 0.11116 0.57192 0.0
H522 H 0.47911 0.99008 0.4889 0.0
H523 H 0.57103 0.03115 0.4508 0.0
H524 H 0.45462 0.95016 0.479 0.0
H525 H 0.63788 0.13974 0.54344 0.0
H526 H 0.62857 0.14738 0.50099 0.0
H527 H 0.50773 0.04283 0.59937 0.0
H528 H 0.59384 0.097 0.42741 0.0
H529 H 0.57751 0.05457 0.4179 0.0
H530 H 0.44551 0.92596 0.55558 0.0
H531 H 0.61253 0.13173 0.45866 0.0
H532 H 0.47553 0.98153 0.6264 0.0
H533 H 0.49583 0.0231 0.63353 0.0
N534 N 0.49573 0.01215 0.57371 0.0
C535 C 0.48319 0.98958 0.56903 0.0
C536 C 0.49926 0.02452 0.59628 0.0
C537 C 0.48096 0.98998 0.61143 0.0
C538 C 0.49243 0.01347 0.61554 0.0
C539 C 0.47574 0.97788 0.58796 0.0
H540 H 0.45697 0.94552 0.5973 0.0
N541 N 0.4823 0.99018 0.52676 0.0
C542 C 0.47637 0.9784 0.54512 0.0
C543 C 0.45483 0.94521 0.51609 0.0
C544 C 0.46245 0.95546 0.54012 0.0
C545 C 0.47421 0.98058 0.50326 0.0
C546 C 0.46059 0.95789 0.49761 0.0
O547 O 0.56366 0.07289 0.53286 0.0
O548 O 0.52695 0.06629 0.54668 0.0
O549 O 0.46837 0.02306 0.53055 0.0
O550 O 0.49066 0.05746 0.53765 0.0
O551 O 0.55294 0.03644 0.54162 0.0
O552 O 0.53298 0.02846 0.57036 0.0
O553 O 0.51911 0.99675 0.52132 0.0
O554 O 0.55061 1.00464 0.49935 0.0
O555 O 0.59285 0.02228 0.53295 0.0
O556 O 0.60525 0.03546 0.50189 0.0
O557 O 0.52431 0.03314 0.50874 0.0
O558 O 0.54502 0.03914 0.48066 0.0
C559 C 0.54686 0.08008 0.54282 0.0
C560 C 0.55296 0.03117 0.56313 0.0
C561 C 0.45373 0.0525 0.54933 0.0
C562 C 0.42743 0.0769 0.55786 0.0
C563 C 0.43495 0.04972 0.58479 0.0
C564 C 0.44973 0.04245 0.57009 0.0
C565 C 0.42385 0.06686 0.57876 0.0
C566 C 0.44241 0.0696 0.54313 0.0
C567 C 0.46941 0.0451 0.53389 0.0
C568 C 0.45605 0.94362 0.55913 0.0
C569 C 0.46263 0.95477 0.58292 0.0
H570 H 0.44418 0.92763 0.51161 0.0
C571 C 0.53386 0.99011 0.50756 0.0
C572 C 0.5248 0.0376 0.4871 0.0
C573 C 0.61388 1.00097 0.51052 0.0
C574 C 0.64305 0.97922 0.50623 0.0
C575 C 0.6036 0.96288 0.4862 0.0
C576 C 0.59741 0.9829 0.4954 0.0
C577 C 0.62642 0.96101 0.49155 0.0
C578 C 0.63673 0.99907 0.51589 0.0
C579 C 0.60827 0.02287 0.51863 0.0
H580 H 0.43195 0.04191 0.60077 0.0
H581 H 0.45773 0.02878 0.57479 0.0
H582 H 0.41217 0.07204 0.59025 0.0
H583 H 0.44539 0.07733 0.52705 0.0
H584 H 0.59086 0.94907 0.47442 0.0
H585 H 0.58003 0.98449 0.49015 0.0
H586 H 0.63127 0.94573 0.48373 0.0
H587 H 0.64975 0.01333 0.52682 0.0
C588 C 0.2384 0.30428 0.72008 0.0
C589 C 0.2177 0.26718 0.69653 0.0
C590 C 0.23138 0.28016 0.71788 0.0
C591 C 0.2113 0.27867 0.67746 0.0
C592 C 0.23215 0.31582 0.70089 0.0
C593 C 0.21852 0.30289 0.67962 0.0
N594 N 0.2516 0.31643 0.74085 0.0
C595 C 0.25902 0.34002 0.74374 0.0
C596 C 0.23987 0.34003 0.70362 0.0
C597 C 0.25338 0.35216 0.72513 0.0
Gd598 Gd 0.32039 0.27543 0.78101 0.0
Gd599 Gd 0.25982 0.29435 0.77068 0.0
N600 N 0.23827 0.2694 0.73646 0.0
C601 C 0.21077 0.24302 0.69502 0.0
C602 C 0.2307 0.24601 0.73549 0.0
C603 C 0.21714 0.23242 0.71467 0.0
H604 H 0.23461 0.23781 0.75083 0.0
H605 H 0.21137 0.21382 0.71388 0.0
H606 H 0.35207 0.32961 0.79906 0.0
H607 H 0.26901 0.34952 0.76054 0.0
H608 H 0.37854 0.35244 0.83505 0.0
H609 H 0.20022 0.23243 0.67893 0.0
H610 H 0.20076 0.26896 0.66093 0.0
H611 H 0.30693 0.2201 0.79157 0.0
H612 H 0.23547 0.34952 0.68925 0.0
H613 H 0.25933 0.37087 0.72743 0.0
H614 H 0.3839 0.29662 0.8886 0.0
H615 H 0.21348 0.31147 0.66471 0.0
H616 H 0.34031 0.21812 0.86233 0.0
H617 H 0.31454 0.19812 0.82468 0.0
N618 N 0.32666 0.25256 0.81097 0.0
C619 C 0.34128 0.26381 0.83129 0.0
C620 C 0.31744 0.2292 0.80826 0.0
C621 C 0.33664 0.22796 0.84804 0.0
C622 C 0.32204 0.21662 0.82684 0.0
C623 C 0.34668 0.25179 0.85038 0.0
H624 H 0.36639 0.25487 0.88588 0.0
N625 N 0.34502 0.2987 0.81447 0.0
C626 C 0.35094 0.28749 0.83299 0.0
C627 C 0.37609 0.32332 0.8545 0.0
C628 C 0.36645 0.29958 0.85364 0.0
C629 C 0.35525 0.32148 0.81466 0.0
C630 C 0.37063 0.33426 0.83483 0.0
O631 O 0.27723 0.28719 0.738 0.0
O632 O 0.2953 0.25865 0.74712 0.0
O633 O 0.35013 0.28634 0.76186 0.0
O634 O 0.34203 0.25213 0.77349 0.0
O635 O 0.2619 0.26341 0.78953 0.0
O636 O 0.28769 0.24705 0.77124 0.0
O637 O 0.30566 0.28644 0.81503 0.0
O638 O 0.28512 0.31266 0.80358 0.0
O639 O 0.23053 0.28139 0.78894 0.0
O640 O 0.23489 0.31477 0.77668 0.0
O641 O 0.32027 0.30857 0.76487 0.0
O642 O 0.2916 0.32414 0.77959 0.0
C643 C 0.28714 0.27047 0.73148 0.0
C644 C 0.27071 0.24571 0.78388 0.0
C645 C 0.37603 0.26025 0.75423 0.0
C646 C 0.40679 0.26497 0.72931 0.0
C647 C 0.40333 0.23567 0.75578 0.0
C648 C 0.38421 0.24221 0.76342 0.0
C649 C 0.41457 0.24696 0.73886 0.0
C650 C 0.38744 0.27172 0.73701 0.0
C651 C 0.35574 0.2666 0.76311 0.0
C652 C 0.372 0.28761 0.8726 0.0
C653 C 0.36201 0.26383 0.87105 0.0
H654 H 0.3881 0.33324 0.87005 0.0
C655 C 0.29509 0.30309 0.82037 0.0
C656 C 0.31032 0.32586 0.76926 0.0
C657 C 0.2154 0.30985 0.81035 0.0
C658 C 0.18639 0.30862 0.83736 0.0
C659 C 0.21947 0.34184 0.84246 0.0
C660 C 0.22746 0.3318 0.82276 0.0
C661 C 0.19901 0.33046 0.84962 0.0
C662 C 0.19493 0.29813 0.81793 0.0
C663 C 0.22284 0.30008 0.7883 0.0
H664 H 0.40943 0.22174 0.76299 0.0
H665 H 0.37589 0.23316 0.7767 0.0
H666 H 0.42933 0.2415 0.73303 0.0
H667 H 0.3813 0.28556 0.7296 0.0
H668 H 0.2289 0.35877 0.85189 0.0
H669 H 0.24275 0.34149 0.81686 0.0
H670 H 0.1929 0.33882 0.86468 0.0
H671 H 0.18517 0.28144 0.80814 0.0
C672 C 0.01378 0.09182 0.56748 0.0
C673 C 0.04841 0.12065 0.58726 0.0
C674 C 0.03713 0.10228 0.56868 0.0
C675 C 0.03589 0.1282 0.60465 0.0
C676 C 1.00111 0.09951 0.58479 0.0
C677 C 0.01232 0.11764 0.60344 0.0
N678 N 1.00344 0.07422 0.54935 0.0
C679 C 0.98027 0.06431 0.54676 0.0
C680 C 0.9775 0.08879 0.58277 0.0
C681 C 0.967 0.07124 0.56356 0.0
Gd682 Gd 0.05353 1.006 0.51818 0.0
Gd683 Gd 0.02729 0.06356 0.52256 0.0
N684 N 0.04905 0.09384 0.5523 0.0
C685 C 0.07204 0.13059 0.58802 0.0
C686 C 0.07181 0.10414 0.55233 0.0
C687 C 0.08373 0.12242 0.57033 0.0
H688 H 0.08079 0.09865 0.53836 0.0
H689 H 0.10188 0.1303 0.57045 0.0
H690 H 0.99775 0.97602 0.5004 0.0
H691 H 0.97189 0.05139 0.53147 0.0
H692 H 0.97493 0.94838 0.46548 0.0
H693 H 0.08134 0.14467 0.60203 0.0
H694 H 0.0443 0.14216 0.61915 0.0
H695 H 0.10777 0.02204 0.5055 0.0
H696 H 0.96716 0.09417 0.59574 0.0
H697 H 0.94865 0.06318 0.56155 0.0
H698 H 0.03009 0.94072 0.41241 0.0
H699 H 1.00288 0.12369 0.61698 0.0
H700 H 0.10849 0.98517 0.43639 0.0
H701 H 0.12895 0.01298 0.47246 0.0
N702 N 0.07533 1.00071 0.48763 0.0
C703 C 0.06372 0.98501 0.46816 0.0
C704 C 0.09846 0.01058 0.48947 0.0
C705 C 0.09898 0.98939 0.45065 0.0
C706 C 0.11059 1.00518 0.47094 0.0
C707 C 0.0753 0.97905 0.44907 0.0
H708 H 0.07164 0.95817 0.41428 0.0
N709 N 0.02897 0.98152 0.48548 0.0
C710 C 0.04002 0.97507 0.4671 0.0
C711 C 1.00399 0.94951 0.44638 0.0
C712 C 0.02769 0.95904 0.44694 0.0
C713 C 1.00606 0.97186 0.48531 0.0
C714 C 0.99316 0.9559 0.46566 0.0
O715 O 0.04403 0.05635 0.55829 0.0
O716 O 0.06391 0.02674 0.55562 0.0
O717 O 0.04358 0.97206 0.52967 0.0
O718 O 0.0795 0.98714 0.52715 0.0
O719 O 0.0598 0.06175 0.50701 0.0
O720 O 0.08096 0.03974 0.52659 0.0
O721 O 0.0432 0.02069 0.48413 0.0
O722 O 0.01197 0.03322 0.49364 0.0
O723 O 0.03811 0.08895 0.49926 0.0
O724 O 1.00246 0.08048 0.50543 0.0
O725 O 0.02328 1.00687 0.53801 0.0
O726 O 1.00073 0.0296 0.52142 0.0
C727 C 0.05701 0.04343 0.56794 0.0
C728 C 0.07972 0.05791 0.51588 0.0
C729 C 0.07244 0.95903 0.55365 0.0
C730 C 0.06699 0.92643 0.57641 0.0
C731 C 0.1028 0.95658 0.58531 0.0
C732 C 0.09454 0.96819 0.56744 0.0
C733 C 0.08914 0.93582 0.58979 0.0
C734 C 0.05866 0.93801 0.55826 0.0
C735 C 0.06482 0.96968 0.53275 0.0
C736 C 0.0393 0.95303 0.42802 0.0
C737 C 0.06299 0.96299 0.42907 0.0
H738 H 0.99393 0.93715 0.43118 0.0
C739 C 0.02427 0.0274 0.47759 0.0
C740 C 1.00329 0.01232 0.53319 0.0
C741 C 0.01759 0.11811 0.49621 0.0
C742 C 0.02341 0.15333 0.47745 0.0
C743 C 0.01165 0.15359 0.51702 0.0
C744 C 0.01174 0.13021 0.51633 0.0
C745 C 0.01755 0.16514 0.49779 0.0
C746 C 0.02326 0.12969 0.47667 0.0
C747 C 0.0178 0.09345 0.49521 0.0
H748 H 0.11997 0.96355 0.59555 0.0
H749 H 0.1057 0.98407 0.5641 0.0
H750 H 0.09598 0.92689 0.60354 0.0
H751 H 0.04175 0.93048 0.54752 0.0
H752 H 1.00695 0.16279 0.53251 0.0
H753 H 1.00716 0.1216 0.53145 0.0
H754 H 0.01722 0.18325 0.49864 0.0
H755 H 0.02773 0.12041 0.46103 0.0
C756 C 0.24323 0.73176 0.81136 0.0
C757 C 0.21933 0.69973 0.78183 0.0
C758 C 0.23912 0.71837 0.78857 0.0
C759 C 0.20366 0.69468 0.79805 0.0
C760 C 0.22759 0.72633 0.82774 0.0
C761 C 0.20776 0.70794 0.82088 0.0
N762 N 0.26273 0.74943 0.81779 0.0
C763 C 0.26841 0.76075 0.84093 0.0
C764 C 0.23258 0.73913 0.85084 0.0
C765 C 0.25321 0.7562 0.85753 0.0
Gd766 Gd 0.29238 0.81676 0.76518 0.0
Gd767 Gd 0.28738 0.75247 0.7885 0.0
N768 N 0.25409 0.72392 0.77273 0.0
C769 C 0.21566 0.6869 0.75877 0.0
C770 C 0.25082 0.71147 0.75032 0.0
C771 C 0.23145 0.6928 0.74297 0.0
H772 H 0.26329 0.71592 0.73833 0.0
H773 H 0.22869 0.68285 0.72522 0.0
H774 H 0.31896 0.8551 0.81406 0.0
H775 H 0.285 0.77256 0.84736 0.0
H776 H 0.35649 0.88362 0.82766 0.0
H777 H 0.20063 0.67249 0.75295 0.0
H778 H 0.1883 0.68051 0.79311 0.0
H779 H 0.28848 0.80314 0.70475 0.0
H780 H 0.22102 0.73543 0.86391 0.0
H781 H 0.25775 0.76544 0.87572 0.0
H782 H 0.39535 0.88191 0.75861 0.0
H783 H 0.19559 0.70364 0.83325 0.0
H784 H 0.35394 0.83445 0.68553 0.0
H785 H 0.31418 0.80949 0.6741 0.0
N786 N 0.31426 0.82229 0.73373 0.0
C787 C 0.33543 0.83752 0.74008 0.0
C788 C 0.30611 0.81332 0.71016 0.0
C789 C 0.34291 0.83135 0.69917 0.0
C790 C 0.32049 0.8172 0.69265 0.0
C791 C 0.35045 0.84216 0.72299 0.0
H792 H 0.38403 0.86148 0.71712 0.0
N793 N 0.32679 0.84516 0.77958 0.0
C794 C 0.34176 0.84945 0.76349 0.0
C795 C 0.36874 0.87787 0.79381 0.0
C796 C 0.36332 0.86574 0.77035 0.0
C797 C 0.33151 0.8577 0.80206 0.0
C798 C 0.35266 0.874 0.80965 0.0
O799 O 0.25332 0.75901 0.7695 0.0
O800 O 0.25491 0.79786 0.76595 0.0
O801 O 0.28206 0.8486 0.77687 0.0
O802 O 0.27313 0.83163 0.73943 0.0
O803 O 0.30052 0.7569 0.75413 0.0
O804 O 0.28196 0.78339 0.74045 0.0
O805 O 0.32706 0.81073 0.78357 0.0
O806 O 0.32319 0.77078 0.78172 0.0
O807 O 0.29738 0.71967 0.77971 0.0
O808 O 0.30165 0.73666 0.81713 0.0
O809 O 0.28064 0.8059 0.79872 0.0
O810 O 0.30299 0.78393 0.81472 0.0
C811 C 0.24322 0.77612 0.76493 0.0
C812 C 0.29597 0.76982 0.73797 0.0
C813 C 0.27097 0.8708 0.74659 0.0
C814 C 0.2544 0.90442 0.74914 0.0
C815 C 0.27212 0.89429 0.71438 0.0
C816 C 0.27736 0.8754 0.72427 0.0
C817 C 0.26052 0.90863 0.72661 0.0
C818 C 0.25983 0.88553 0.75906 0.0
C819 C 0.2717 0.84876 0.75518 0.0
C820 C 0.37864 0.8696 0.75359 0.0
C821 C 0.37221 0.85789 0.72998 0.0
H822 H 0.38512 0.89054 0.79974 0.0
C823 C 0.33596 0.79226 0.78351 0.0
C824 C 0.29537 0.80264 0.81604 0.0
C825 C 0.3121 0.70019 0.81166 0.0
C826 C 0.33603 0.67247 0.80979 0.0
C827 C 0.31437 0.67595 0.84291 0.0
C828 C 0.30577 0.69327 0.83322 0.0
C829 C 0.32957 0.66568 0.83136 0.0
C830 C 0.32698 0.6895 0.79968 0.0
C831 C 0.30377 0.71914 0.80241 0.0
H832 H 0.27671 0.89759 0.69701 0.0
H833 H 0.28567 0.86401 0.71413 0.0
H834 H 0.25651 0.92313 0.71857 0.0
H835 H 0.25431 0.88158 0.77595 0.0
H836 H 0.30948 0.67068 0.85956 0.0
H837 H 0.29421 0.70132 0.84258 0.0
H838 H 0.33645 0.65252 0.83933 0.0
H839 H 0.33219 0.69499 0.78318 0.0
C840 C 0.57857 0.00889 0.07969 0.0
C841 C 0.60138 0.04024 0.11017 0.0
C842 C 0.58309 0.03169 0.09071 0.0
C843 C 0.61462 0.02535 0.11866 0.0
C844 C 0.59229 0.99408 0.08764 0.0
C845 C 0.61021 1.00237 0.1073 0.0
N846 N 0.56117 1.00136 0.06076 0.0
C847 C 0.55634 0.97919 0.04902 0.0
C848 C 0.58767 0.97139 0.07548 0.0
C849 C 0.56962 0.96393 0.05606 0.0
Gd850 Gd 0.53654 0.06382 0.98911 0.0
Gd851 Gd 0.53912 0.02752 0.05069 0.0
N852 N 0.57031 0.04576 0.08168 0.0
C853 C 0.60637 0.0637 0.11997 0.0
C854 C 0.57597 0.06892 0.09044 0.0
C855 C 0.59378 0.07815 0.10985 0.0
H856 H 0.56748 0.08069 0.08225 0.0
H857 H 0.598 0.09649 0.11677 0.0
H858 H 0.52138 0.01274 0.94957 0.0
H859 H 0.54209 0.97311 0.03434 0.0
H860 H 0.48913 0.99189 0.91858 0.0
H861 H 0.62035 0.07095 0.13483 0.0
H862 H 0.62873 0.03162 0.13356 0.0
H863 H 0.52969 0.11768 -0.00021 0.0
H864 H 0.59789 0.95951 0.08095 0.0
H865 H 0.56582 0.94638 0.04663 0.0
H866 H 0.44255 0.04646 0.90746 0.0
H867 H 0.62088 0.99123 0.11371 0.0
H868 H 0.46805 0.12176 0.95504 0.0
H869 H 0.50159 0.14008 0.98677 0.0
N870 N 0.51186 0.08689 0.97623 0.0
C871 C 0.49412 0.07679 0.95807 0.0
C872 C 0.51493 0.10945 0.98615 0.0
C873 C 0.48032 0.11186 0.9607 0.0
C874 C 0.49918 0.12224 0.97866 0.0
C875 C 0.47765 0.0889 0.95006 0.0
H876 H 0.44612 0.08675 0.92561 0.0
N877 N 0.50827 0.04281 0.95613 0.0
C878 C 0.49224 0.05411 0.94768 0.0
C879 C 0.47228 0.02012 0.9191 0.0
C880 C 0.47365 0.04293 0.92922 0.0
C881 C 0.50775 0.02109 0.94507 0.0
C882 C 0.4896 0.00928 0.92684 0.0
O883 O 0.57249 0.03714 0.03739 0.0
O884 O 0.56252 0.06765 0.02263 0.0
O885 O 0.55999 0.06237 0.9637 0.0
O886 O 0.55651 0.09584 0.97987 0.0
O887 O 0.53154 0.06364 0.05811 0.0
O888 O 0.53511 0.08557 0.02555 0.0
O889 O 0.50024 0.04906 0.99438 0.0
O890 O 0.52374 0.04088 0.0212 0.0
O891 O 0.51938 0.02787 0.07968 0.0
O892 O 0.51132 0.99701 0.05183 0.0
O893 O 0.54649 0.02801 0.98545 0.0
O894 O 0.53227 1.00484 0.01393 0.0
C895 C 0.57694 0.05427 0.02495 0.0
C896 C 0.5316 0.08292 0.04818 0.0
C897 C 0.56538 0.09213 0.94016 0.0
C898 C 0.57758 0.08706 0.90125 0.0
C899 C 0.55808 0.11749 0.91114 0.0
C900 C 0.55626 0.11069 0.9338 0.0
C901 C 0.56895 0.10585 0.8949 0.0
C902 C 0.57584 0.08042 0.92376 0.0
C903 C 0.56537 0.08474 0.96384 0.0
C904 C 0.45701 0.05482 0.9215 0.0
C905 C 0.45904 0.07777 0.93184 0.0
H906 H 0.45822 0.0109 0.90498 0.0
C907 C 0.50235 0.03945 0.01316 0.0
C908 C 0.54095 0.00766 0.99367 0.0
C909 C 0.48826 0.99633 0.08442 0.0
C910 C 0.472 0.99573 0.12133 0.0
C911 C 0.45425 0.96632 0.08694 0.0
C912 C 0.47106 0.97643 0.07375 0.0
C913 C 0.45468 0.97595 0.11075 0.0
C914 C 0.48851 1.00594 0.10814 0.0
C915 C 0.50643 0.00713 0.07151 0.0
H916 H 0.55129 0.13192 0.90626 0.0
H917 H 0.54802 0.12001 0.94627 0.0
H918 H 0.57061 0.11141 0.87754 0.0
H919 H 0.5833 0.06635 0.92878 0.0
H920 H 0.44103 0.95093 0.07879 0.0
H921 H 0.47063 0.96876 0.05537 0.0
H922 H 0.44201 0.96766 0.12107 0.0
H923 H 0.50204 0.02099 0.11678 0.0
C924 C 0.36007 0.33192 0.31894 0.0
C925 C 0.38332 0.34773 0.28975 0.0
C926 C 0.36194 0.33598 0.29543 0.0
C927 C 0.40267 0.35552 0.30793 0.0
C928 C 0.37955 0.33961 0.33717 0.0
C929 C 0.40079 0.3515 0.33155 0.0
N930 N 0.33915 0.32092 0.32409 0.0
C931 C 0.33659 0.3169 0.34697 0.0
C932 C 0.37706 0.33545 0.36062 0.0
C933 C 0.35551 0.32397 0.36551 0.0
Gd934 Gd 0.27665 0.2544 0.25721 0.0
Gd935 Gd 0.30823 0.31404 0.29245 0.0
N936 N 0.34284 0.32855 0.27817 0.0
C937 C 0.38456 0.35166 0.26601 0.0
C938 C 0.34382 0.33302 0.25521 0.0
C939 C 0.36471 0.34425 0.24868 0.0
H940 H 0.32855 0.32842 0.24195 0.0
H941 H 0.36538 0.3476 0.23037 0.0
H942 H 0.25844 0.23672 0.30748 0.0
H943 H 0.31978 0.30924 0.3513 0.0
H944 H 0.22251 0.21655 0.31988 0.0
H945 H 0.40067 0.36066 0.26096 0.0
H946 H 0.41917 0.36479 0.30393 0.0
H947 H 0.2626 0.26068 0.19905 0.0
H948 H 0.3916 0.34121 0.37513 0.0
H949 H 0.35335 0.321 0.38366 0.0
H950 H 0.16644 0.20125 0.24827 0.0
H951 H 0.41587 0.35773 0.34538 0.0
H952 H 0.19088 0.22782 0.17701 0.0
H953 H 0.22833 0.24916 0.16767 0.0
N954 N 0.24455 0.24816 0.22674 0.0
C955 C 0.2241 0.23643 0.23229 0.0
C956 C 0.24616 0.2528 0.20387 0.0
C957 C 0.20574 0.23361 0.19115 0.0
C958 C 0.22682 0.24574 0.18582 0.0
C959 C 0.20418 0.22874 0.21455 0.0
H960 H 0.16809 0.20984 0.20706 0.0
N961 N 0.24278 0.23859 0.27231 0.0
C962 C 0.2232 0.23147 0.25564 0.0
C963 C 0.20204 0.21384 0.28515 0.0
C964 C 0.20232 0.21885 0.26166 0.0
C965 C 0.24276 0.23288 0.29492 0.0
C966 C 0.22237 0.22088 0.30184 0.0
O967 O 0.333 0.29104 0.28222 0.0
O968 O 0.31268 0.26806 0.24755 0.0
O969 O 0.28347 0.22139 0.26473 0.0
O970 O 0.27199 0.22675 0.22778 0.0
O971 O 0.28714 0.3127 0.25574 0.0
O972 O 0.29132 0.27994 0.23383 0.0
O973 O 0.25199 0.27745 0.26749 0.0
O974 O 0.27228 0.30023 0.30237 0.0
O975 O 0.30203 0.34621 0.28262 0.0
O976 O 0.31286 0.34357 0.32001 0.0
O977 O 0.2974 0.25534 0.2943 0.0
O978 O 0.29315 0.28852 0.31556 0.0
C979 C 0.33254 0.27758 0.26186 0.0
C980 C 0.28814 0.30093 0.23502 0.0
C981 C 0.27674 0.1889 0.2326 0.0
C982 C 0.29336 0.15599 0.23425 0.0
C983 C 0.26305 0.15541 0.20148 0.0
C984 C 0.2621 0.17765 0.2112 0.0
C985 C 0.27885 0.14463 0.21285 0.0
C986 C 0.29199 0.17787 0.24433 0.0
C987 C 0.27719 0.21261 0.24203 0.0
C988 C 0.18253 0.21118 0.244 0.0
C989 C 0.18347 0.21607 0.22052 0.0
H990 H 0.18637 0.20416 0.29045 0.0
C991 C 0.25246 0.29079 0.28794 0.0
C992 C 0.29674 0.26772 0.31488 0.0
C993 C 0.28726 0.36732 0.31186 0.0
C994 C 0.26363 0.39401 0.3031 0.0
C995 C 0.26224 0.37722 0.33992 0.0
C996 C 0.27834 0.36488 0.33351 0.0
C997 C 0.25506 0.39202 0.32488 0.0
C998 C 0.27957 0.38165 0.29663 0.0
C999 C 0.30519 0.35597 0.305 0.0
H1000 H 0.25189 0.14674 0.18493 0.0
H1001 H 0.25013 0.1861 0.20195 0.0
H1002 H 0.27996 0.12763 0.20488 0.0
H1003 H 0.30371 0.18678 0.26055 0.0
H1004 H 0.25562 0.37562 0.35672 0.0
H1005 H 0.28398 0.35376 0.34559 0.0
H1006 H 0.24306 0.40204 0.33025 0.0
H1007 H 0.28666 0.38392 0.28009 0.0
C1008 C 0.51739 0.59087 0.0724 0.0
C1009 C 0.55295 0.61609 0.09514 0.0
C1010 C 0.5412 0.60011 0.07471 0.0
C1011 C 0.54058 0.62238 0.11329 0.0
C1012 C 0.50498 0.59693 0.09072 0.0
C1013 C 0.51669 0.6128 0.11111 0.0
N1014 N 0.50663 0.57496 0.05287 0.0
C1015 C 0.4835 0.56483 0.05024 0.0
C1016 C 0.48128 0.58641 0.08829 0.0
C1017 C 0.4705 0.5703 0.06795 0.0
Gd1018 Gd 0.55104 0.50734 0.02118 0.0
Gd1019 Gd 0.52998 0.56725 0.02435 0.0
N1020 N 0.55291 0.59309 0.05725 0.0
C1021 C 0.57681 0.62532 0.09672 0.0
C1022 C 0.57585 0.60299 0.05807 0.0
C1023 C 0.58823 0.61895 0.07797 0.0
H1024 H 0.58448 0.59928 0.04313 0.0
H1025 H 0.60649 0.62662 0.07871 0.0
H1026 H 0.49652 0.47341 0.00447 0.0
H1027 H 0.47493 0.55285 0.03428 0.0
H1028 H 0.47398 0.44581 0.96963 0.0
H1029 H 0.58646 0.6377 0.1121 0.0
H1030 H 0.54936 0.63458 0.12915 0.0
H1031 H 0.60569 0.5207 0.01011 0.0
H1032 H 0.47117 0.59053 0.10203 0.0
H1033 H 0.45216 0.56216 0.06585 0.0
H1034 H 0.5293 0.43898 0.91657 0.0
H1035 H 0.50746 0.61764 0.12539 0.0
H1036 H 0.60749 0.48399 0.94116 0.0
H1037 H 0.62749 0.51171 0.97749 0.0
N1038 N 0.57352 0.4993 0.99183 0.0
C1039 C 0.5623 0.4835 0.97236 0.0
C1040 C 0.5967 0.50905 0.99406 0.0
C1041 C 0.5978 0.48804 0.95532 0.0
C1042 C 0.60915 0.50375 0.97576 0.0
C1043 C 0.57414 0.47756 0.95348 0.0
H1044 H 0.57084 0.4568 0.91868 0.0
N1045 N 0.52754 0.48038 0.98918 0.0
C1046 C 0.53871 0.47365 0.97108 0.0
C1047 C 0.50296 0.44758 0.95034 0.0
C1048 C 0.52661 0.45729 0.95102 0.0
C1049 C 0.50482 0.46996 0.9892 0.0
C1050 C 0.4921 0.45376 0.96964 0.0
O1051 O 0.53536 0.55218 0.05921 0.0
O1052 O 0.56412 0.53273 0.05577 0.0
O1053 O 0.54131 0.47705 0.04002 0.0
O1054 O 0.57692 0.48987 0.03354 0.0
O1055 O 0.56357 0.56678 0.0102 0.0
O1056 O 0.57856 0.54096 0.03073 0.0
O1057 O 0.5448 0.52153 0.98542 0.0
O1058 O 0.51622 0.54022 0.99184 0.0
O1059 O 0.54035 0.59724 0.00535 0.0
O1060 O 0.50474 0.58566 0.01237 0.0
O1061 O 0.51683 0.50777 0.03457 0.0
O1062 O 0.50252 0.53391 0.01388 0.0
C1063 C 0.5514 0.54262 0.06894 0.0
C1064 C 0.58079 0.55773 0.01751 0.0
C1065 C 0.57109 0.45749 0.05564 0.0
C1066 C 0.56458 0.42302 0.07559 0.0
C1067 C 0.60376 0.44561 0.076 0.0
C1068 C 0.59511 0.46082 0.06268 0.0
C1069 C 0.58862 0.4269 0.08256 0.0
C1070 C 0.55576 0.4383 0.06197 0.0
C1071 C 0.56266 0.47494 0.04289 0.0
C1072 C 0.53838 0.45134 0.93221 0.0
C1073 C 0.56205 0.46149 0.9334 0.0
H1074 H 0.49305 0.43505 0.93521 0.0
C1075 C 0.52887 0.53205 0.97743 0.0
C1076 C 0.49953 0.51625 0.02596 0.0
C1077 C 0.51207 0.61937 0.99221 0.0
C1078 C 0.51837 0.65118 0.96846 0.0
C1079 C 0.48356 0.64232 0.98686 0.0
C1080 C 0.49088 0.62427 0.99639 0.0
C1081 C 0.49722 0.65575 0.97308 0.0
C1082 C 0.52583 0.63284 0.97798 0.0
C1083 C 0.51943 0.60054 0.00342 0.0
H1084 H 0.62228 0.44838 0.08134 0.0
H1085 H 0.60732 0.47543 0.05818 0.0
H1086 H 0.59571 0.41519 0.09282 0.0
H1087 H 0.5372 0.43542 0.05663 0.0
H1088 H 0.46727 0.64599 0.99031 0.0
H1089 H 0.48 0.6143 0.0073 0.0
H1090 H 0.49126 0.66981 0.96593 0.0
H1091 H 0.54222 0.62933 0.9746 0.0
C1092 C 0.73636 0.22848 0.30702 0.0
C1093 C 0.71127 0.20234 0.27294 0.0
C1094 C 0.73224 0.21871 0.28266 0.0
C1095 C 0.6945 0.19589 0.2877 0.0
C1096 C 0.71946 0.22169 0.32181 0.0
C1097 C 0.69851 0.20563 0.31196 0.0
N1098 N 0.75704 0.24372 0.31647 0.0
C1099 C 0.76252 0.25074 0.3408 0.0
C1100 C 0.72433 0.23065 0.34632 0.0
C1101 C 0.74608 0.24494 0.35589 0.0
Gd1102 Gd 0.79903 0.32055 0.26347 0.0
Gd1103 Gd 0.78262 0.25071 0.28838 0.0
N1104 N 0.74851 0.22538 0.26837 0.0
C1105 C 0.70769 0.19294 0.24856 0.0
C1106 C 0.74545 0.21581 0.24483 0.0
C1107 C 0.72488 0.19966 0.23448 0.0
H1108 H 0.7589 0.22053 0.23413 0.0
H1109 H 0.72236 0.19224 0.21572 0.0
H1110 H 0.82901 0.35067 0.31522 0.0
H1111 H 0.77973 0.26 0.34905 0.0
H1112 H 0.86678 0.37851 0.32982 0.0
H1113 H 0.69177 0.18038 0.24047 0.0
H1114 H 0.67827 0.18341 0.28048 0.0
H1115 H 0.79073 0.31774 0.20255 0.0
H1116 H 0.71176 0.22587 0.35818 0.0
H1117 H 0.75045 0.25097 0.37504 0.0
H1118 H 0.90118 0.38816 0.25837 0.0
H1119 H 0.68539 0.20033 0.3231 0.0
H1120 H 0.85485 0.35219 0.18266 0.0
H1121 H 0.81424 0.3293 0.17116 0.0
N1122 N 0.81842 0.3323 0.23154 0.0
C1123 C 0.84012 0.34627 0.23823 0.0
C1124 C 0.80863 0.3273 0.20779 0.0
C1125 C 0.84473 0.3469 0.19652 0.0
C1126 C 0.82181 0.33399 0.18995 0.0
C1127 C 0.85396 0.35374 0.2209 0.0
H1128 H 0.88722 0.37405 0.21534 0.0
N1129 N 0.83396 0.34761 0.27867 0.0
C1130 C 0.84803 0.35431 0.26249 0.0
C1131 C 0.87664 0.37868 0.29452 0.0
C1132 C 0.86992 0.36988 0.27002 0.0
C1133 C 0.84036 0.35612 0.30256 0.0
C1134 C 0.86175 0.37181 0.31085 0.0
O1135 O 0.7505 0.26129 0.27112 0.0
O1136 O 0.76158 0.29925 0.26218 0.0
O1137 O 0.79307 0.35347 0.27861 0.0
O1138 O 0.7724 0.33399 0.24517 0.0
O1139 O 0.79214 0.27456 0.2633 0.0
O1140 O 0.79716 0.29308 0.23333 0.0
O1141 O 0.83047 0.30794 0.27984 0.0
O1142 O 0.82119 0.26938 0.28921 0.0
O1143 O 0.79511 0.22166 0.27274 0.0
O1144 O 0.79174 0.22651 0.31071 0.0
O1145 O 0.79699 0.31246 0.30058 0.0
O1146 O 0.79391 0.27911 0.3188 0.0
C1147 C 0.74561 0.28036 0.26416 0.0
C1148 C 0.79454 0.27342 0.24085 0.0
C1149 C 0.77525 0.37392 0.25149 0.0
C1150 C 0.75427 0.40377 0.24752 0.0
C1151 C 0.78332 0.39985 0.22212 0.0
C1152 C 0.78767 0.38124 0.23322 0.0
C1153 C 0.76647 0.41096 0.22905 0.0
C1154 C 0.75889 0.38545 0.25888 0.0
C1155 C 0.77652 0.35259 0.26103 0.0
C1156 C 0.88417 0.37646 0.25289 0.0
C1157 C 0.87624 0.36838 0.22839 0.0
H1158 H 0.89323 0.39085 0.30099 0.0
C1159 C 0.83617 0.28911 0.2869 0.0
C1160 C 0.79573 0.3014 0.31925 0.0
C1161 C 0.82243 0.21091 0.30079 0.0
C1162 C 0.84851 0.18539 0.29782 0.0
C1163 C 0.85799 0.21846 0.32947 0.0
C1164 C 0.83772 0.22464 0.32081 0.0
C1165 C 0.86327 0.19875 0.31819 0.0
C1166 C 0.82814 0.19153 0.28906 0.0
C1167 C 0.7995 0.21519 0.29373 0.0
H1168 H 0.79263 0.40535 0.20779 0.0
H1169 H 0.80019 0.37225 0.22716 0.0
H1170 H 0.76281 0.42502 0.21996 0.0
H1171 H 0.74891 0.37944 0.27264 0.0
H1172 H 0.86945 0.22878 0.34514 0.0
H1173 H 0.83374 0.23977 0.33015 0.0
H1174 H 0.87893 0.19395 0.32523 0.0
H1175 H 0.81645 0.18081 0.27369 0.0
C1176 C 0.07364 0.49986 0.57729 0.0
C1177 C 0.09389 0.52834 0.61178 0.0
C1178 C 0.07624 0.52105 0.59155 0.0
C1179 C 0.10833 0.5137 0.61788 0.0
C1180 C 0.0881 0.4851 0.58344 0.0
C1181 C 0.10538 0.4921 0.60382 0.0
N1182 N 0.05759 0.49403 0.55697 0.0
C1183 C 0.05432 0.47322 0.54268 0.0
C1184 C 0.08503 0.46386 0.56868 0.0
C1185 C 0.06796 0.45783 0.54832 0.0
Gd1186 Gd 0.04047 0.56563 0.49092 0.0
Gd1187 Gd 0.0362 0.52126 0.5481 0.0
N1188 N 0.06278 0.53536 0.58439 0.0
C1189 C 0.09705 0.55044 0.62482 0.0
C1190 C 0.06597 0.55701 0.59715 0.0
C1191 C 0.08301 0.56482 0.61745 0.0
H1192 H 0.05631 0.56886 0.59131 0.0
H1193 H 0.08559 0.58214 0.62714 0.0
H1194 H 0.02471 0.51284 0.45335 0.0
H1195 H 0.04109 0.46833 0.52696 0.0
H1196 H 0.99286 0.49154 0.42242 0.0
H1197 H 0.11053 0.55673 0.64032 0.0
H1198 H 0.12202 0.51906 0.63327 0.0
H1199 H 0.02874 0.61649 0.5053 0.0
H1200 H 0.09575 0.45202 0.57282 0.0
H1201 H 0.06536 0.44137 0.53689 0.0
H1202 H 0.9454 0.54499 0.40992 0.0
H1203 H 0.11676 0.48105 0.60867 0.0
H1204 H 0.96757 0.61954 0.45904 0.0
H1205 H 0.99948 0.63778 0.49253 0.0
N1206 N 0.01384 0.58693 0.4789 0.0
C1207 C 0.99664 0.57666 0.46028 0.0
C1208 C 0.015 0.60854 0.49049 0.0
C1209 C 0.98054 0.61028 0.46435 0.0
C1210 C 0.99848 0.62061 0.48331 0.0
C1211 C 0.97931 0.58796 0.45272 0.0
H1212 H 0.94748 0.58484 0.42837 0.0
N1213 N 0.01212 0.54343 0.45839 0.0
C1214 C 0.9956 0.55418 0.44986 0.0
C1215 C 0.97594 0.51964 0.42186 0.0
C1216 C 0.97699 0.54249 0.43158 0.0
C1217 C 0.01144 0.52136 0.44816 0.0
C1218 C 0.99333 0.50912 0.43008 0.0
O1219 O 0.07293 0.5395 0.55074 0.0
O1220 O 0.05693 0.55484 0.523 0.0
O1221 O 0.06657 0.56723 0.46807 0.0
O1222 O 0.05957 0.59931 0.48382 0.0
O1223 O 0.0297 0.55765 0.55487 0.0
O1224 O 0.04138 0.58553 0.52921 0.0
O1225 O 1.00491 0.55489 0.49938 0.0
O1226 O 0.01804 0.52683 0.51361 0.0
O1227 O 1.00921 0.52084 0.56969 0.0
O1228 O 0.01167 0.48879 0.54921 0.0
O1229 O 0.05384 0.53208 0.48565 0.0
O1230 O 0.03914 0.50462 0.51045 0.0
C1231 C 0.07627 0.55375 0.53553 0.0
C1232 C 0.03301 0.57909 0.54907 0.0
C1233 C 0.07131 0.59687 0.44491 0.0
C1234 C 0.08859 0.59403 0.40866 0.0
C1235 C 0.05489 0.61009 0.40933 0.0
C1236 C 0.05441 0.60648 0.43328 0.0
C1237 C 0.0718 0.60363 0.39689 0.0
C1238 C 0.08851 0.59109 0.43263 0.0
C1239 C 0.07032 0.58956 0.46851 0.0
C1240 C 0.95982 0.55377 0.42385 0.0
C1241 C 0.96101 0.57646 0.43434 0.0
H1242 H 0.96185 0.51004 0.40795 0.0
C1243 C 1.00191 0.53821 0.51203 0.0
C1244 C 0.05039 0.51102 0.49253 0.0
C1245 C 0.99478 0.48616 0.58464 0.0
C1246 C 0.98019 0.4869 0.62262 0.0
C1247 C 0.98326 0.45041 0.60114 0.0
C1248 C 0.99179 0.46201 0.58291 0.0
C1249 C 0.97732 0.46273 0.62088 0.0
C1250 C 0.98926 0.49846 0.60467 0.0
C1251 C 1.00108 0.49843 0.56467 0.0
H1252 H 0.04184 0.61739 0.40023 0.0
H1253 H 0.04069 0.61065 0.4424 0.0
H1254 H 0.07167 0.60587 0.37818 0.0
H1255 H 0.10125 0.58312 0.44142 0.0
H1256 H 0.98076 0.43177 0.5997 0.0
H1257 H 0.99557 0.45207 0.56733 0.0
H1258 H 0.96999 0.45331 0.63443 0.0
H1259 H 0.99156 0.51711 0.60613 0.0
C1260 C 0.73297 0.80161 0.22032 0.0
C1261 C 0.71581 0.7642 0.1957 0.0
C1262 C 0.72864 0.77752 0.2173 0.0
C1263 C 0.70787 0.77542 0.17705 0.0
C1264 C 0.72474 0.8129 0.20177 0.0
C1265 C 0.71236 0.79969 0.18006 0.0
N1266 N 0.74489 0.81397 0.24154 0.0
C1267 C 0.74818 0.83747 0.24585 0.0
C1268 C 0.72895 0.83715 0.20572 0.0
C1269 C 0.74053 0.84947 0.22796 0.0
Gd1270 Gd 0.82058 0.7771 0.27922 0.0
Gd1271 Gd 0.75787 0.79247 0.27001 0.0
N1272 N 0.73699 0.76715 0.2355 0.0
C1273 C 0.71106 0.73999 0.19361 0.0
C1274 C 0.73132 0.7436 0.23402 0.0
C1275 C 0.7186 0.72966 0.21299 0.0
H1276 H 0.73617 0.73545 0.24905 0.0
H1277 H 0.71443 0.71095 0.21182 0.0
H1278 H 0.84829 0.83126 0.30396 0.0
H1279 H 0.75579 0.84674 0.26353 0.0
H1280 H 0.87585 0.85146 0.34019 0.0
H1281 H 0.70118 0.72914 0.17735 0.0
H1282 H 0.69805 0.76546 0.1603 0.0
H1283 H 0.81101 0.72029 0.283 0.0
H1284 H 0.72289 0.84646 0.19192 0.0
H1285 H 0.74326 0.86814 0.23147 0.0
H1286 H 0.88571 0.79026 0.38546 0.0
H1287 H 0.70594 0.80807 0.16559 0.0
H1288 H 0.84534 0.71232 0.35126 0.0
H1289 H 0.82003 0.69509 0.31251 0.0
N1290 N 0.82944 0.75157 0.30549 0.0
C1291 C 0.84379 0.76132 0.32639 0.0
C1292 C 0.82132 0.72807 0.30018 0.0
C1293 C 0.84106 0.72349 0.33854 0.0
C1294 C 0.82672 0.71371 0.31672 0.0
C1295 C 0.85004 0.74755 0.34349 0.0
H1296 H 0.87009 0.74789 0.3782 0.0
N1297 N 0.84554 0.79787 0.31395 0.0
C1298 C 0.8524 0.78516 0.33059 0.0
C1299 C 0.87626 0.82005 0.35527 0.0
C1300 C 0.86772 0.79592 0.35187 0.0
C1301 C 0.85389 0.82132 0.3171 0.0
C1302 C 0.86938 0.83279 0.33774 0.0
O1303 O 0.77479 0.78705 0.23628 0.0
O1304 O 0.79343 0.76012 0.24741 0.0
O1305 O 0.84881 0.79115 0.25995 0.0
O1306 O 0.84036 0.75475 0.26396 0.0
O1307 O 0.7617 0.76139 0.28886 0.0
O1308 O 0.78863 0.74823 0.26988 0.0
O1309 O 0.8067 0.78789 0.31356 0.0
O1310 O 0.78253 0.81174 0.30312 0.0
O1311 O 0.72906 0.77601 0.28709 0.0
O1312 O 0.73227 0.81101 0.27944 0.0
O1313 O 0.81927 0.81095 0.26537 0.0
O1314 O 0.78792 0.82456 0.27663 0.0
C1315 C 0.78584 0.77105 0.23067 0.0
C1316 C 0.77181 0.74472 0.28268 0.0
C1317 C 0.87827 0.77025 0.25712 0.0
C1318 C 0.91166 0.76947 0.23677 0.0
C1319 C 0.9113 0.75857 0.27673 0.0
C1320 C 0.88934 0.76281 0.27703 0.0
C1321 C 0.92235 0.76171 0.25665 0.0
C1322 C 0.88962 0.77386 0.23709 0.0
C1323 C 0.85382 0.7711 0.25547 0.0
C1324 C 0.874 0.78231 0.36898 0.0
C1325 C 0.8651 0.75818 0.36484 0.0
H1326 H 0.88814 0.82898 0.37132 0.0
C1327 C 0.79488 0.8034 0.31919 0.0
C1328 C 0.80848 0.82768 0.26939 0.0
C1329 C 0.71329 0.80105 0.31206 0.0
C1330 C 0.68233 0.80014 0.33645 0.0
C1331 C 0.7209 0.82464 0.35132 0.0
C1332 C 0.72867 0.817 0.33032 0.0
C1333 C 0.69796 0.81608 0.35455 0.0
C1334 C 0.69008 0.79273 0.31514 0.0
C1335 C 0.72062 0.7943 0.28899 0.0
H1336 H 0.91959 0.75243 0.29192 0.0
H1337 H 0.88072 0.75961 0.29246 0.0
H1338 H 0.93921 0.75795 0.25654 0.0
H1339 H 0.88099 0.77917 0.22146 0.0
H1340 H 0.73257 0.83767 0.36488 0.0
H1341 H 0.74648 0.82397 0.32809 0.0
H1342 H 0.69217 0.82258 0.37078 0.0
H1343 H 0.67796 0.78092 0.3008 0.0
C1344 C 0.81871 0.24393 0.72657 0.0
C1345 C 0.79096 0.23044 0.68992 0.0
C1346 C 0.7999 0.24648 0.71118 0.0
C1347 C 0.80045 0.21126 0.68511 0.0
C1348 C 0.82914 0.22541 0.72109 0.0
C1349 C 0.81958 0.20881 0.70061 0.0
N1350 N 0.82753 0.26019 0.74628 0.0
C1351 C 0.84746 0.25967 0.76058 0.0
C1352 C 0.84924 0.22445 0.73604 0.0
C1353 C 0.8586 0.24184 0.75569 0.0
Gd1354 Gd 0.76682 0.28523 0.80856 0.0
Gd1355 Gd 0.80735 0.28908 0.75364 0.0
N1356 N 0.79101 0.26516 0.71642 0.0
C1357 C 0.77301 0.23439 0.67391 0.0
C1358 C 0.77537 0.27036 0.6995 0.0
C1359 C 0.76556 0.25473 0.67847 0.0
H1360 H 0.77068 0.28676 0.70169 0.0
H1361 H 0.75259 0.25861 0.66556 0.0
H1362 H 0.81129 0.29133 0.85574 0.0
H1363 H 0.85511 0.2732 0.77556 0.0
H1364 H 0.83371 0.32209 0.88788 0.0
H1365 H 0.76551 0.2224 0.65754 0.0
H1366 H 0.79353 0.19858 0.66911 0.0
H1367 H 0.7156 0.29792 0.79508 0.0
H1368 H 0.85792 0.21067 0.73229 0.0
H1369 H 0.87445 0.24157 0.76704 0.0
H1370 H 0.79048 0.38055 0.88874 0.0
H1371 H 0.82717 0.19429 0.69631 0.0
H1372 H 0.71762 0.36321 0.83634 0.0
H1373 H 0.69707 0.32999 0.80521 0.0
N1374 N 0.74609 0.31256 0.82057 0.0
C1375 C 0.75733 0.33027 0.83819 0.0
C1376 C 0.72458 0.31218 0.80896 0.0
C1377 C 0.72571 0.34905 0.83217 0.0
C1378 C 0.71405 0.33033 0.81462 0.0
C1379 C 0.74759 0.34916 0.84429 0.0
H1380 H 0.75288 0.3823 0.86691 0.0
N1381 N 0.78733 0.31073 0.84383 0.0
C1382 C 0.77863 0.32937 0.85016 0.0
C1383 C 0.81106 0.3449 0.88212 0.0
C1384 C 0.79051 0.3472 0.86908 0.0
C1385 C 0.80602 0.30738 0.8582 0.0
C1386 C 0.81848 0.3246 0.87707 0.0
O1387 O 0.792 0.25652 0.76659 0.0
O1388 O 0.75649 0.25965 0.77478 0.0
O1389 O 0.76291 0.2542 0.82505 0.0
O1390 O 0.73438 0.27092 0.82107 0.0
O1391 O 0.77122 0.29588 0.74295 0.0
O1392 O 0.74695 0.28805 0.77218 0.0
O1393 O 0.77667 0.31973 0.7967 0.0
O1394 O 0.8093 0.31258 0.78706 0.0
O1395 O 0.81266 0.32011 0.73728 0.0
O1396 O 0.84082 0.3031 0.74357 0.0
O1397 O 0.80222 0.27499 0.81509 0.0
O1398 O 0.82757 0.29344 0.7913 0.0
C1399 C 0.76973 0.24832 0.7644 0.0
C1400 C 0.75094 0.29388 0.75083 0.0
C1401 C 0.73355 0.24422 0.84883 0.0
C1402 C 0.74098 0.23396 0.88853 0.0
C1403 C 0.70249 0.22052 0.86516 0.0
C1404 C 0.71034 0.23187 0.84655 0.0
C1405 C 0.71778 0.22146 0.88609 0.0
C1406 C 0.74894 0.24539 0.86995 0.0
C1407 C 0.74153 0.25343 0.82787 0.0
C1408 C 0.78135 0.36651 0.87461 0.0
C1409 C 0.75992 0.36748 0.86223 0.0
H1410 H 0.82077 0.35822 0.89669 0.0
C1411 C 0.79569 0.3264 0.78814 0.0
C1412 C 0.82342 0.28188 0.80951 0.0
C1413 C 0.83704 0.32027 0.70837 0.0
C1414 C 0.83049 0.33778 0.67275 0.0
C1415 C 0.84915 0.30577 0.67147 0.0
C1416 C 0.84727 0.30464 0.69564 0.0
C1417 C 0.84068 0.32226 0.65996 0.0
C1418 C 0.82889 0.33692 0.69683 0.0
C1419 C 0.8333 0.31887 0.73315 0.0
H1420 H 0.68464 0.21078 0.86325 0.0
H1421 H 0.69841 0.23059 0.83013 0.0
H1422 H 0.71159 0.21239 0.90039 0.0
H1423 H 0.76697 0.25473 0.87178 0.0
H1424 H 0.85709 0.29384 0.66166 0.0
H1425 H 0.85357 0.29147 0.70418 0.0
H1426 H 0.84231 0.32313 0.64123 0.0
H1427 H 0.82078 0.34891 0.70641 0.0
C1428 C 0.85919 0.83204 0.81289 0.0
C1429 C 0.88249 0.84765 0.78365 0.0
C1430 C 0.86097 0.83631 0.78938 0.0
C1431 C 0.90183 0.85551 0.80184 0.0
C1432 C 0.87878 0.83949 0.83104 0.0
C1433 C 0.89996 0.85151 0.82546 0.0
N1434 N 0.83839 0.82067 0.818 0.0
C1435 C 0.83614 0.81596 0.84075 0.0
C1436 C 0.87651 0.83481 0.85439 0.0
C1437 C 0.85513 0.82288 0.85921 0.0
Gd1438 Gd 0.77694 0.75206 0.75577 0.0
Gd1439 Gd 0.80715 0.81596 0.78697 0.0
N1440 N 0.84187 0.82892 0.77208 0.0
C1441 C 0.884 0.85072 0.75974 0.0
C1442 C 0.8434 0.83145 0.74866 0.0
C1443 C 0.86446 0.8423 0.74214 0.0
H1444 H 0.82867 0.82491 0.73479 0.0
H1445 H 0.86555 0.84427 0.72354 0.0
H1446 H 0.76293 0.7285 0.80478 0.0
H1447 H 0.81947 0.80833 0.84516 0.0
H1448 H 0.7286 0.70723 0.81916 0.0
H1449 H 0.90024 0.85931 0.75463 0.0
H1450 H 0.91838 0.86458 0.7978 0.0
H1451 H 0.76279 0.74604 0.69524 0.0
H1452 H 0.89111 0.84045 0.86884 0.0
H1453 H 0.85311 0.81952 0.87729 0.0
H1454 H 0.6695 0.68913 0.74984 0.0
H1455 H 0.91509 0.85763 0.83926 0.0
H1456 H 0.69136 0.71032 0.67562 0.0
H1457 H 0.72843 0.73016 0.6642 0.0
N1458 N 0.74507 0.73701 0.72442 0.0
C1459 C 0.72523 0.725 0.73081 0.0
C1460 C 0.74647 0.73823 0.70064 0.0
C1461 C 0.70629 0.71768 0.68942 0.0
C1462 C 0.72714 0.72889 0.68291 0.0
C1463 C 0.70522 0.71526 0.71353 0.0
H1464 H 0.66949 0.69533 0.7077 0.0
N1465 N 0.74521 0.72988 0.77037 0.0
C1466 C 0.72533 0.72121 0.75445 0.0
C1467 C 0.70635 0.70357 0.78532 0.0
C1468 C 0.70531 0.70796 0.76155 0.0
C1469 C 0.74671 0.72406 0.793 0.0
C1470 C 0.72728 0.71136 0.80101 0.0
O1471 O 0.83037 0.79041 0.78061 0.0
O1472 O 0.81038 0.77178 0.74486 0.0
O1473 O 0.79492 0.72565 0.76553 0.0
O1474 O 0.77883 0.72484 0.72838 0.0
O1475 O 0.79213 0.81632 0.74847 0.0
O1476 O 0.7769 0.77816 0.7299 0.0
O1477 O 0.74969 0.76873 0.77009 0.0
O1478 O 0.76715 0.80721 0.7865 0.0
O1479 O 0.80552 0.85079 0.78098 0.0
O1480 O 0.81241 0.84309 0.81711 0.0
O1481 O 0.79386 0.75788 0.79564 0.0
O1482 O 0.78804 0.79309 0.80969 0.0
C1483 C 0.83017 0.7783 0.75961 0.0
C1484 C 0.78184 0.80077 0.72965 0.0
C1485 C 0.79746 0.69437 0.73502 0.0
C1486 C 0.81151 0.66137 0.74497 0.0
C1487 C 0.80236 0.66591 0.70315 0.0
C1488 C 0.79603 0.68646 0.7104 0.0
C1489 C 0.81008 0.65329 0.7204 0.0
C1490 C 0.805 0.68176 0.75204 0.0
C1491 C 0.79021 0.71517 0.74328 0.0
C1492 C 0.68506 0.69918 0.74466 0.0
C1493 C 0.68504 0.70276 0.72069 0.0
H1494 H 0.69135 0.69354 0.79149 0.0
C1495 C 0.7485 0.78947 0.78013 0.0
C1496 C 0.78981 0.77232 0.81315 0.0
C1497 C 0.78896 0.86894 0.81123 0.0
C1498 C 0.76242 0.89307 0.8026 0.0
C1499 C 0.76451 0.87779 0.84037 0.0
C1500 C 0.78137 0.86674 0.83358 0.0
C1501 C 0.75494 0.89087 0.82492 0.0
C1502 C 0.77936 0.88208 0.79585 0.0
C1503 C 0.80706 0.85795 0.8039 0.0
H1504 H 0.8012 0.65975 0.68421 0.0
H1505 H 0.78997 0.69601 0.69684 0.0
H1506 H 0.81496 0.6374 0.71461 0.0
H1507 H 0.80516 0.6875 0.77096 0.0
H1508 H 0.75898 0.87637 0.85771 0.0
H1509 H 0.78854 0.85669 0.84593 0.0
H1510 H 0.74204 0.89959 0.83052 0.0
H1511 H 0.78573 0.88452 0.77899 0.0
C1512 C 0.49525 0.47416 0.48385 0.0
C1513 C 0.47415 0.45387 0.51215 0.0
C1514 C 0.48831 0.47413 0.50639 0.0
C1515 C 0.46714 0.43371 0.49505 0.0
C1516 C 0.48782 0.45403 0.46648 0.0
C1517 C 0.47386 0.43382 0.47225 0.0
N1518 N 0.50866 0.49401 0.47865 0.0
C1519 C 0.51455 0.49508 0.45623 0.0
C1520 C 0.49426 0.45492 0.44364 0.0
C1521 C 0.50757 0.47558 0.43847 0.0
Gd1522 Gd 0.57779 0.55343 0.54575 0.0
Gd1523 Gd 0.5171 0.52633 0.50893 0.0
N1524 N 0.49503 0.49403 0.5225 0.0
C1525 C 0.46698 0.45463 0.53475 0.0
C1526 C 0.4866 0.49524 0.54378 0.0
C1527 C 0.47305 0.47549 0.55053 0.0
H1528 H 0.48941 0.5115 0.55527 0.0
H1529 H 0.46679 0.47653 0.56765 0.0
H1530 H 0.59494 0.57296 0.49519 0.0
H1531 H 0.52371 0.5112 0.45164 0.0
H1532 H 0.61284 0.61003 0.48322 0.0
H1533 H 0.45615 0.43943 0.53987 0.0
H1534 H 0.45619 0.41804 0.49914 0.0
H1535 H 0.56781 0.56596 0.60258 0.0
H1536 H 0.48871 0.43989 0.42975 0.0
H1537 H 0.51215 0.47662 0.42067 0.0
H1538 H 0.6237 0.66511 0.5546 0.0
H1539 H 0.46797 0.41822 0.45912 0.0
H1540 H 0.59633 0.63859 0.62467 0.0
H1541 H 0.57649 0.60031 0.63364 0.0
N1542 N 0.58055 0.58486 0.57543 0.0
C1543 C 0.59178 0.60571 0.57012 0.0
C1544 C 0.57517 0.58273 0.59791 0.0
C1545 C 0.5919 0.62367 0.61066 0.0
C1546 C 0.58058 0.60211 0.61577 0.0
C1547 C 0.59766 0.62569 0.58767 0.0
H1548 H 0.61417 0.66244 0.59526 0.0
N1549 N 0.59192 0.58761 0.53028 0.0
C1550 C 0.59747 0.60715 0.547 0.0
C1551 C 0.614 0.62971 0.51785 0.0
C1552 C 0.60877 0.6287 0.54116 0.0
C1553 C 0.59769 0.58843 0.50781 0.0
C1554 C 0.6084 0.6095 0.50112 0.0
O1555 O 0.53463 0.49778 0.52083 0.0
O1556 O 0.5693 0.51413 0.5466 0.0
O1557 O 0.61416 0.55821 0.54341 0.0
O1558 O 0.60234 0.55463 0.57768 0.0
O1559 O 0.52016 0.54379 0.54746 0.0
O1560 O 0.55214 0.53547 0.56733 0.0
O1561 O 0.55287 0.57748 0.53876 0.0
O1562 O 0.53395 0.56259 0.50112 0.0
O1563 O 0.48778 0.54013 0.51573 0.0
O1564 O 0.49054 0.52544 0.47895 0.0
O1565 O 0.57777 0.534 0.5086 0.0
O1566 O 0.5448 0.53919 0.48722 0.0
C1567 C 0.55283 0.49586 0.53569 0.0
C1568 C 0.5313 0.53885 0.56689 0.0
C1569 C 0.636 0.54234 0.57172 0.0
C1570 C 0.66011 0.51737 0.55895 0.0
C1571 C 0.66145 0.52971 0.6014 0.0
C1572 C 0.64499 0.5423 0.59582 0.0
C1573 C 0.66914 0.51732 0.58297 0.0
C1574 C 0.64354 0.52967 0.55331 0.0
C1575 C 0.61986 0.5567 0.56603 0.0
C1576 C 0.61476 0.6485 0.55873 0.0
C1577 C 0.60931 0.64699 0.58191 0.0
H1578 H 0.62265 0.64594 0.5127 0.0
C1579 C 0.54182 0.5806 0.51812 0.0
C1580 C 0.56499 0.53414 0.48796 0.0
C1581 C 0.4574 0.54098 0.48375 0.0
C1582 C 0.42435 0.55535 0.49219 0.0
C1583 C 0.42995 0.5462 0.45086 0.0
C1584 C 0.45018 0.53965 0.45897 0.0
C1585 C 0.41698 0.55405 0.46742 0.0
C1586 C 0.44442 0.54874 0.50019 0.0
C1587 C 0.47904 0.53567 0.49289 0.0
H1588 H 0.66847 0.52982 0.61998 0.0
H1589 H 0.63947 0.55221 0.61027 0.0
H1590 H 0.68224 0.50794 0.58737 0.0
H1591 H 0.63697 0.52964 0.53457 0.0
H1592 H 0.42437 0.54527 0.43178 0.0
H1593 H 0.46026 0.53385 0.44597 0.0
H1594 H 0.40131 0.55911 0.46098 0.0
H1595 H 0.44975 0.5494 0.51934 0.0
C1596 C 0.08942 0.58311 0.98477 0.0
C1597 C 0.11603 0.61295 0.01466 0.0
C1598 C 0.10097 0.59066 0.00831 0.0
C1599 C 0.11862 0.628 0.99743 0.0
C1600 C 0.09286 0.59797 0.96724 0.0
C1601 C 0.10705 0.62056 0.97382 0.0
N1602 N 0.07608 0.56094 0.97868 0.0
C1603 C 0.06763 0.55207 0.95509 0.0
C1604 C 0.0826 0.58945 0.94338 0.0
C1605 C 0.07026 0.56632 0.93724 0.0
Gd1606 Gd 1.00727 0.52943 0.041 0.0
Gd1607 Gd 0.07263 0.53984 0.01111 0.0
N1608 N 0.09803 0.57595 0.02488 0.0
C1609 C 0.1286 0.61921 0.03799 0.0
C1610 C 0.11148 0.58123 0.047 0.0
C1611 C 0.12664 0.60311 0.05407 0.0
H1612 H 0.11056 0.56851 0.05901 0.0
H1613 H 0.13703 0.60745 0.07175 0.0
H1614 H 0.97285 0.50165 0.9901 0.0
H1615 H 0.05904 0.53394 0.94974 0.0
H1616 H 0.94582 0.46309 0.9755 0.0
H1617 H 0.14045 0.63613 0.04348 0.0
H1618 H 0.12998 0.64526 0.00203 0.0
H1619 H 0.01166 0.53683 0.10193 0.0
H1620 H 0.08484 0.60034 0.92942 0.0
H1621 H 0.06308 0.55933 0.91867 0.0
H1622 H 0.94152 0.42629 0.04606 0.0
H1623 H 0.10971 0.63221 0.96058 0.0
H1624 H 0.97859 0.4719 0.12162 0.0
H1625 H 1.00104 0.51265 0.13326 0.0
N1626 N 0.99657 0.50951 0.07289 0.0
C1627 C 0.9828 0.4877 0.06611 0.0
C1628 C 1.00209 0.51893 0.09666 0.0
C1629 C 0.98336 0.48235 0.1078 0.0
C1630 C 0.99602 0.50535 0.11444 0.0
C1631 C 0.97609 0.47341 0.08341 0.0
H1632 H 0.95669 0.43969 0.08896 0.0
N1633 N 0.97979 0.49468 0.02567 0.0
C1634 C 0.97406 0.48013 0.04187 0.0
C1635 C 0.94894 0.45181 0.01014 0.0
C1636 C 0.9587 0.45812 0.03443 0.0
C1637 C 0.96926 0.48926 0.00228 0.0
C1638 C 0.95391 0.46762 0.99409 0.0
O1639 O 0.06436 0.57283 0.03012 0.0
O1640 O 0.03149 0.56648 0.05007 0.0
O1641 O 0.9765 0.5387 0.02378 0.0
O1642 O 0.9911 0.55207 0.06127 0.0
O1643 O 0.05088 0.53126 0.03807 0.0
O1644 O 0.03588 0.52985 0.07037 0.0
O1645 O 0.01567 0.49563 0.02262 0.0
O1646 O 0.05068 0.50202 0.00588 0.0
O1647 O 0.09959 0.52735 0.03096 0.0
O1648 O 0.09866 0.52881 0.99278 0.0
O1649 O 0.02223 0.54364 0.00969 0.0
O1650 O 0.04115 0.52714 0.98374 0.0
C1651 C 0.04983 0.58017 0.04346 0.0
C1652 C 0.05414 0.53 0.06067 0.0
C1653 C 0.95201 0.55132 0.05001 0.0
C1654 C 0.92142 0.57174 0.05186 0.0
C1655 C 0.92368 0.54156 0.07659 0.0
C1656 C 0.94326 0.53795 0.06713 0.0
C1657 C 0.91292 0.55858 0.06919 0.0
C1658 C 0.94079 0.56789 0.0421 0.0
C1659 C 0.97487 0.5515 0.04349 0.0
C1660 C 0.95307 0.44339 0.0515 0.0
C1661 C 0.96174 0.45101 0.07592 0.0
H1662 H 0.93701 0.43507 0.00373 0.0
C1663 C 0.03153 0.4882 0.01108 0.0
C1664 C 0.02174 0.53138 0.98895 0.0
C1665 C 0.11393 0.49978 0.00799 0.0
C1666 C 0.14255 0.47697 0.00712 0.0
C1667 C 0.10217 0.45876 0.99182 0.0
C1668 C 0.09664 0.48003 0.99724 0.0
C1669 C 0.12512 0.4572 0.99672 0.0
C1670 C 0.13693 0.49821 0.01295 0.0
C1671 C 0.10866 0.52252 0.01184 0.0
H1672 H 0.91719 0.53157 0.09012 0.0
H1673 H 0.95203 0.5254 0.07378 0.0
H1674 H 0.89809 0.56161 0.07707 0.0
H1675 H 0.94785 0.57867 0.02935 0.0
H1676 H 0.08878 0.44365 0.98326 0.0
H1677 H 0.07909 0.48126 0.99241 0.0
H1678 H 0.12941 0.4408 0.99172 0.0
H1679 H 0.15051 0.51359 0.0205 0.0
H1680 H 0.99837 0.18277 0.95201 0.0
H1681 H 0.02541 0.22668 0.02058 0.0
H1682 H 0.03752 0.19394 0.03699 0.0
H1683 H 0.97526 0.13068 0.97902 0.0
H1684 H 0.98147 0.11056 0.956 0.0
H1685 H 0.97565 0.13753 0.94889 0.0
H1686 H 0.01477 0.14771 0.933 0.0
H1687 H 0.02069 0.12079 0.94011 0.0
H1688 H 0.04119 0.14792 0.95227 0.0
H1689 H 0.04736 0.15629 0.04648 0.0
H1690 H 0.05172 0.1168 0.04928 0.0
H1691 H 0.01706 0.09428 0.97561 0.0
C1692 C 1.00701 0.18554 0.97043 0.0
C1693 C 0.01115 0.20786 0.98484 0.0
C1694 C 0.02206 0.21017 0.00901 0.0
C1695 C 0.02906 0.19151 0.01853 0.0
C1696 C 0.02473 0.16991 0.00404 0.0
C1697 C 0.01364 0.16665 0.98056 0.0
C1698 C 0.01007 0.14109 0.96948 0.0
C1699 C 0.98407 0.12927 0.96295 0.0
C1700 C 0.02242 0.13927 0.9474 0.0
C1701 C 0.02141 0.13073 0.9901 0.0
C1702 C 0.02972 0.14785 0.00982 0.0
C1703 C 0.04081 0.14286 0.03108 0.0
C1704 C 0.04333 0.12009 0.03244 0.0
C1705 C 0.03503 0.1018 0.01275 0.0
C1706 C 0.0238 0.1075 0.99116 0.0
H1707 H 0.14543 0.82911 0.17463 0.0
H1708 H 0.13818 0.76708 0.12348 0.0
H1709 H 0.16863 0.75581 0.14942 0.0
H1710 H 0.20793 0.84128 0.1888 0.0
H1711 H 0.20966 0.85144 0.22035 0.0
H1712 H 0.18583 0.85433 0.1991 0.0
H1713 H 0.15675 0.83195 0.22337 0.0
H1714 H 0.18054 0.82901 0.24468 0.0
H1715 H 0.15895 0.80359 0.22972 0.0
H1716 H 0.19977 0.75061 0.18014 0.0
H1717 H 0.23216 0.75351 0.21288 0.0
H1718 H 0.22315 0.81996 0.24401 0.0
C1719 C 0.15021 0.81311 0.16907 0.0
C1720 C 0.13931 0.79895 0.14683 0.0
C1721 C 0.14629 0.77829 0.1402 0.0
C1722 C 0.16354 0.77165 0.15492 0.0
C1723 C 0.1742 0.78594 0.17639 0.0
C1724 C 0.16804 0.80636 0.18352 0.0
C1725 C 0.18353 0.81895 0.20701 0.0
C1726 C 0.19757 0.84293 0.2036 0.0
C1727 C 0.16907 0.821 0.2274 0.0
C1728 C 0.19934 0.80255 0.21158 0.0
C1729 C 0.19324 0.78344 0.19381 0.0
C1730 C 0.20481 0.7656 0.19404 0.0
C1731 C 0.22327 0.7674 0.21266 0.0
C1732 C 0.23048 0.78708 0.23066 0.0
C1733 C 0.21816 0.80481 0.23027 0.0
H1734 H 0.5089 0.84993 0.51221 0.0
H1735 H 0.52639 0.84333 0.44008 0.0
H1736 H 0.53282 0.88559 0.44115 0.0
H1737 H 0.47949 0.89573 0.5083 0.0
H1738 H 0.4919 0.91169 0.53774 0.0
H1739 H 0.48891 0.8808 0.53213 0.0
H1740 H 0.53278 0.88676 0.54679 0.0
H1741 H 0.53577 0.91767 0.55263 0.0
H1742 H 0.55342 0.90606 0.53326 0.0
H1743 H 0.53645 0.92878 0.44885 0.0
H1744 H 0.5393 0.9699 0.46361 0.0
H1745 H 0.52058 0.95129 0.53151 0.0
C1746 C 0.51432 0.85739 0.49672 0.0
C1747 C 0.51717 0.84273 0.47598 0.0
C1748 C 0.52428 0.85366 0.45628 0.0
C1749 C 0.52787 0.87786 0.45665 0.0
C1750 C 0.52476 0.89164 0.47705 0.0
C1751 C 0.5185 0.88193 0.49697 0.0
C1752 C 0.51719 0.90122 0.51684 0.0
C1753 C 0.49292 0.8971 0.52418 0.0
C1754 C 0.53589 0.90303 0.53868 0.0
C1755 C 0.52251 0.92297 0.5045 0.0
C1756 C 0.5271 0.91688 0.48164 0.0
C1757 C 0.53296 0.93366 0.46676 0.0
C1758 C 0.53455 0.95715 0.47536 0.0
C1759 C 0.53026 0.9643 0.49877 0.0
C1760 C 0.52383 0.94666 0.51343 0.0
H1761 H 0.52369 0.32217 0.68645 0.0
H1762 H 0.49598 0.27879 0.61753 0.0
H1763 H 0.45753 0.26856 0.63024 0.0
H1764 H 0.49451 0.28488 0.72162 0.0
H1765 H 0.48927 0.30743 0.74268 0.0
H1766 H 0.5137 0.31351 0.72695 0.0
H1767 H 0.49912 0.34754 0.71117 0.0
H1768 H 0.47437 0.34123 0.7266 0.0
H1769 H 0.47021 0.3421 0.69469 0.0
H1770 H 0.42288 0.26041 0.65143 0.0
H1771 H 0.39627 0.25177 0.68108 0.0
H1772 H 0.44626 0.29962 0.73642 0.0
C1773 C 0.50946 0.31081 0.67388 0.0
C1774 C 0.51291 0.30143 0.6509 0.0
C1775 C 0.49384 0.2863 0.63519 0.0
C1776 C 0.47185 0.2805 0.64218 0.0
C1777 C 0.46905 0.29 0.66495 0.0
C1778 C 0.48737 0.30474 0.68063 0.0
C1779 C 0.48021 0.31098 0.70482 0.0
C1780 C 0.49531 0.30375 0.72521 0.0
C1781 C 0.48103 0.33701 0.7096 0.0
C1782 C 0.45539 0.29651 0.7007 0.0
C1783 C 0.44907 0.28509 0.67732 0.0
C1784 C 0.42749 0.26958 0.66964 0.0
C1785 C 0.4124 0.26491 0.6865 0.0
C1786 C 0.41904 0.27553 0.71074 0.0
C1787 C 0.44053 0.29194 0.71776 0.0
H1788 H 0.02171 0.84526 0.66859 0.0
H1789 H 0.03374 0.78829 0.6211 0.0
H1790 H 0.03921 0.81336 0.58951 0.0
H1791 H 0.99216 0.87144 0.62083 0.0
H1792 H 1.00565 0.90054 0.63567 0.0
H1793 H 0.9992 0.8772 0.65316 0.0
H1794 H 0.04226 0.88698 0.67329 0.0
H1795 H 0.04874 0.91045 0.65616 0.0
H1796 H 0.06464 0.88818 0.65461 0.0
H1797 H 0.04738 0.84584 0.56466 0.0
H1798 H 0.06104 0.8836 0.55059 0.0
H1799 H 0.04457 0.91928 0.61458 0.0
C1800 C 0.02505 0.8379 0.65139 0.0
C1801 C 0.0272 0.81478 0.64732 0.0
C1802 C 0.03198 0.80595 0.62466 0.0
C1803 C 0.03494 0.82002 0.60652 0.0
C1804 C 0.03297 0.84285 0.61124 0.0
C1805 C 0.02818 0.85172 0.63317 0.0
C1806 C 0.02921 0.87738 0.63465 0.0
C1807 C 1.00512 0.88191 0.63616 0.0
C1808 C 0.04729 0.89157 0.65592 0.0
C1809 C 0.03664 0.88189 0.61071 0.0
C1810 C 0.038 0.86162 0.5971 0.0
C1811 C 0.046 0.86174 0.57498 0.0
C1812 C 0.05361 0.88319 0.56706 0.0
C1813 C 0.05343 0.90411 0.5814 0.0
C1814 C 0.04429 0.90338 0.60312 0.0
H1815 H 0.47138 0.84208 0.84046 0.0
H1816 H 0.48442 0.77996 0.80328 0.0
H1817 H 0.44353 0.76857 0.78281 0.0
H1818 H 0.4162 0.8197 0.85174 0.0
H1819 H 0.4043 0.84395 0.84555 0.0
H1820 H 0.43497 0.84842 0.85516 0.0
H1821 H 0.44362 0.86705 0.81718 0.0
H1822 H 0.41291 0.86297 0.80776 0.0
H1823 H 0.43015 0.8514 0.78789 0.0
H1824 H 0.3996 0.76151 0.7708 0.0
H1825 H 0.35802 0.76075 0.76508 0.0
H1826 H 0.37298 0.82887 0.80788 0.0
C1827 C 0.46582 0.82643 0.8274 0.0
C1828 C 0.48141 0.81209 0.82325 0.0
C1829 C 0.47319 0.79153 0.80638 0.0
C1830 C 0.44984 0.78485 0.79483 0.0
C1831 C 0.43484 0.79913 0.7998 0.0
C1832 C 0.4427 0.81983 0.81524 0.0
C1833 C 0.423 0.83193 0.81773 0.0
C1834 C 0.41941 0.83624 0.84412 0.0
C1835 C 0.4277 0.85469 0.80701 0.0
C1836 C 0.40239 0.81416 0.80255 0.0
C1837 C 0.40974 0.79547 0.79219 0.0
C1838 C 0.39387 0.77626 0.77852 0.0
C1839 C 0.37011 0.77599 0.77544 0.0
C1840 C 0.36187 0.79479 0.78581 0.0
C1841 C 0.3785 0.81435 0.7993 0.0
H1842 H 0.53263 0.16917 0.1697 0.0
H1843 H 0.50597 0.21334 0.12349 0.0
H1844 H 0.50465 0.18472 0.08791 0.0
H1845 H 0.56981 0.15155 0.12919 0.0
H1846 H 0.56556 0.12245 0.13635 0.0
H1847 H 0.56338 0.14577 0.15844 0.0
H1848 H 0.52214 0.12314 0.16258 0.0
H1849 H 0.52426 0.09976 0.14053 0.0
H1850 H 0.50038 0.11338 0.13615 0.0
H1851 H 0.5061 0.15151 0.05721 0.0
H1852 H 0.51204 0.117 0.0333 0.0
H1853 H 0.53894 0.09408 0.09846 0.0
C1854 C 0.52621 0.17265 0.15211 0.0
C1855 C 0.5191 0.19348 0.14949 0.0
C1856 C 0.51138 0.19756 0.12606 0.0
C1857 C 0.51055 0.18136 0.10571 0.0
C1858 C 0.51779 0.16115 0.10888 0.0
C1859 C 0.52564 0.15676 0.13145 0.0
C1860 C 0.53351 0.13416 0.12958 0.0
C1861 C 0.55961 0.13876 0.13895 0.0
C1862 C 0.51921 0.11656 0.143 0.0
C1863 C 0.52841 0.12635 0.10248 0.0
C1864 C 0.51943 0.14229 0.09098 0.0
C1865 C 0.51351 0.13915 0.06605 0.0
C1866 C 0.51728 0.11955 0.05247 0.0
C1867 C 0.52709 0.10316 0.06353 0.0
C1868 C 0.53211 0.10644 0.08909 0.0
H1869 H 0.12473 0.31823 0.28469 0.0
H1870 H 0.12808 0.30708 0.35921 0.0
H1871 H 0.16639 0.29815 0.35798 0.0
H1872 H 0.15163 0.27265 0.26398 0.0
H1873 H 0.16768 0.28903 0.24415 0.0
H1874 H 0.14069 0.29485 0.25074 0.0
H1875 H 0.16133 0.33808 0.26533 0.0
H1876 H 0.1883 0.33231 0.25859 0.0
H1877 H 0.18652 0.34539 0.28836 0.0
H1878 H 0.20582 0.29137 0.3489 0.0
H1879 H 0.24128 0.28672 0.33279 0.0
H1880 H 0.2125 0.30017 0.26338 0.0
C1881 C 0.13346 0.31395 0.30084 0.0
C1882 C 0.12292 0.31353 0.32219 0.0
C1883 C 0.13538 0.30774 0.34268 0.0
C1884 C 0.15731 0.30257 0.34211 0.0
C1885 C 0.16705 0.30314 0.32088 0.0
C1886 C 0.15548 0.30869 0.30057 0.0
C1887 C 0.1699 0.30819 0.28005 0.0
C1888 C 0.15668 0.2901 0.25845 0.0
C1889 C 0.17691 0.33243 0.27264 0.0
C1890 C 0.19118 0.30111 0.29177 0.0
C1891 C 0.18929 0.2986 0.31547 0.0
C1892 C 0.20723 0.29323 0.33033 0.0
C1893 C 0.22748 0.29064 0.32099 0.0
C1894 C 0.22997 0.29291 0.29674 0.0
C1895 C 0.21123 0.29798 0.2819 0.0
H1896 H 0.99147 0.05337 0.19682 0.0
H1897 H 0.97404 0.97804 0.18788 0.0
H1898 H 0.98544 0.9766 0.14778 0.0
H1899 H 0.97285 0.05969 0.13445 0.0
H1900 H 0.9971 0.08345 0.13328 0.0
H1901 H 0.987 0.07931 0.16148 0.0
H1902 H 0.02828 0.07816 0.18037 0.0
H1903 H 0.03842 0.0821 0.15212 0.0
H1904 H 0.0423 0.05757 0.16644 0.0
H1905 H 1.0032 0.98223 0.11226 0.0
H1906 H 0.02053 0.99505 0.07762 0.0
H1907 H 0.02283 0.06638 0.10406 0.0
C1908 C 0.98985 0.03667 0.18618 0.0
C1909 C 0.98205 0.01574 0.19552 0.0
C1910 C 0.98031 0.99421 0.18124 0.0
C1911 C 0.98671 0.9932 0.15841 0.0
C1912 C 0.99496 0.01389 0.14995 0.0
C1913 C 0.99642 0.0353 0.16304 0.0
C1914 C 1.00663 0.05464 0.14923 0.0
C1915 C 0.98987 0.07018 0.14431 0.0
C1916 C 0.0303 0.06897 0.16286 0.0
C1917 C 1.00956 0.04053 0.12609 0.0
C1918 C 1.00345 0.01711 0.1276 0.0
C1919 C 1.00717 1.00043 0.11035 0.0
C1920 C 0.01687 0.00777 0.09063 0.0
C1921 C 0.02141 0.03124 0.0873 0.0
C1922 C 0.01816 0.04808 0.10551 0.0
H1923 H 0.29642 0.70296 0.50774 0.0
H1924 H 0.2657 0.63267 0.47284 0.0
H1925 H 0.26355 0.64608 0.43326 0.0
H1926 H 0.26081 0.72662 0.4813 0.0
H1927 H 0.27945 0.75353 0.47693 0.0
H1928 H 0.28836 0.73846 0.5005 0.0
H1929 H 0.32623 0.73691 0.48354 0.0
H1930 H 0.31776 0.75263 0.45999 0.0
H1931 H 0.3249 0.72522 0.45248 0.0
H1932 H 0.25384 0.66686 0.40127 0.0
H1933 H 0.23709 0.69345 0.37859 0.0
H1934 H 0.272 0.75122 0.43401 0.0
C1935 C 0.29062 0.69047 0.49145 0.0
C1936 C 0.28176 0.66698 0.49265 0.0
C1937 C 0.2731 0.65073 0.47168 0.0
C1938 C 0.27198 0.6582 0.44925 0.0
C1939 C 0.2796 0.68188 0.44848 0.0
C1940 C 0.28911 0.69783 0.46905 0.0
C1941 C 0.29096 0.72247 0.46428 0.0
C1942 C 0.27916 0.73601 0.48177 0.0
C1943 C 0.31648 0.73505 0.46511 0.0
C1944 C 0.27799 0.71772 0.43894 0.0
C1945 C 0.27282 0.69434 0.42972 0.0
C1946 C 0.25837 0.68526 0.40794 0.0
C1947 C 0.24866 0.70036 0.3954 0.0
C1948 C 0.25315 0.72412 0.40498 0.0
C1949 C 0.26833 0.73301 0.42665 0.0
H1950 H 0.65141 0.07282 0.66884 0.0
H1951 H 0.63042 1.00341 0.68686 0.0
H1952 H 0.61081 0.98914 0.64535 0.0
H1953 H 0.60379 0.0767 0.63905 0.0
H1954 H 0.61468 0.091 0.61496 0.0
H1955 H 0.63326 0.09393 0.64295 0.0
H1956 H 0.66318 0.07833 0.62038 0.0
H1957 H 0.64423 0.07544 0.59231 0.0
H1958 H 0.65412 0.05083 0.60089 0.0
H1959 H 0.58659 0.98425 0.60704 0.0
H1960 H 0.55668 0.99012 0.57578 0.0
H1961 H 0.59005 0.06296 0.58522 0.0
C1962 C 0.6431 0.05454 0.66374 0.0
C1963 C 0.64217 0.03917 0.68073 0.0
C1964 C 0.63129 0.01537 0.67382 0.0
C1965 C 0.62047 0.00704 0.65025 0.0
C1966 C 0.62123 0.02269 0.63383 0.0
C1967 C 0.6324 0.04597 0.64022 0.0
C1968 C 0.62724 0.05989 0.62059 0.0
C1969 C 0.61921 0.0816 0.62998 0.0
C1970 C 0.64844 0.0665 0.60778 0.0
C1971 C 0.60818 0.04173 0.60446 0.0
C1972 C 0.60643 0.01993 0.61123 0.0
C1973 C 0.58835 1.00093 0.60087 0.0
C1974 C 0.57137 1.00441 0.58348 0.0
C1975 C 0.57253 0.02678 0.57745 0.0
C1976 C 0.59075 0.04554 0.58802 0.0
H1977 H 0.31713 0.31714 0.96574 0.0
H1978 H 0.27837 0.37042 0.96423 0.0
H1979 H 0.27191 0.36325 0.92 0.0
H1980 H 0.34544 0.32904 0.91569 0.0
H1981 H 0.34305 0.29908 0.90422 0.0
H1982 H 0.34381 0.30767 0.93584 0.0
H1983 H 0.30498 0.27708 0.93387 0.0
H1984 H 0.30442 0.26878 0.90214 0.0
H1985 H 0.28019 0.27785 0.91265 0.0
H1986 H 0.27357 0.35411 0.87668 0.0
H1987 H 0.27808 0.33959 0.83586 0.0
H1988 H 0.31243 0.28903 0.86323 0.0
C1989 C 0.3069 0.32698 0.95611 0.0
C1990 C 0.29824 0.34437 0.96866 0.0
C1991 C 0.28507 0.35692 0.95525 0.0
C1992 C 0.2814 0.35306 0.93003 0.0
C1993 C 0.29067 0.33632 0.91829 0.0
C1994 C 0.3027 0.32308 0.93077 0.0
C1995 C 0.31078 0.30622 0.91343 0.0
C1996 C 0.33736 0.31081 0.91756 0.0
C1997 C 0.29941 0.28098 0.91565 0.0
C1998 C 0.30184 0.31247 0.8893 0.0
C1999 C 0.29047 0.33003 0.89277 0.0
C2000 C 0.28185 0.33992 0.87371 0.0
C2001 C 0.28437 0.33135 0.85043 0.0
C2002 C 0.29484 0.31254 0.84593 0.0
C2003 C 0.304 0.30316 0.86584 0.0
H2004 H 0.97561 0.99372 0.33757 0.0
H2005 H 0.99647 0.06657 0.33058 0.0
H2006 H 0.01079 0.07593 0.37461 0.0
H2007 H 0.95496 1.00295 0.39501 0.0
H2008 H 0.96432 0.97875 0.40562 0.0
H2009 H 0.95584 0.9783 0.37388 0.0
H2010 H 0.99573 0.97135 0.36598 0.0
H2011 H 1.00407 0.97183 0.39769 0.0
H2012 H 0.02197 0.9913 0.38173 0.0
H2013 H 0.02648 0.07607 0.41875 0.0
H2014 H 0.03694 0.06814 0.4599 0.0
H2015 H 1.00115 0.99598 0.4386 0.0
C2016 C 0.98317 0.01167 0.34535 0.0
C2017 C 0.98534 0.02946 0.33081 0.0
C2018 C 0.99482 0.05277 0.34153 0.0
C2019 C 1.00302 0.05816 0.36642 0.0
C2020 C 1.00099 0.04006 0.38022 0.0
C2021 C 0.99081 0.01734 0.37009 0.0
C2022 C 0.98997 1.0011 0.38877 0.0
C2023 C 0.96477 0.9896 0.39094 0.0
C2024 C 1.00377 0.98282 0.3832 0.0
C2025 C 1.00176 0.01809 0.41106 0.0
C2026 C 1.00823 0.04044 0.40574 0.0
C2027 C 0.02077 0.05879 0.42318 0.0
C2028 C 0.02638 0.05422 0.44666 0.0
C2029 C 0.01888 0.03173 0.45267 0.0
C2030 C 1.00667 0.01341 0.43456 0.0
H2031 H 0.24359 0.68033 0.62454 0.0
H2032 H 0.31311 0.67092 0.62181 0.0
H2033 H 0.32788 0.69939 0.6585 0.0
H2034 H 0.25738 0.73717 0.6369 0.0
H2035 H 0.23795 0.74093 0.65809 0.0
H2036 H 0.23073 0.71551 0.63566 0.0
H2037 H 0.22719 0.68826 0.668 0.0
H2038 H 0.23301 0.71332 0.69084 0.0
H2039 H 0.2506 0.69255 0.69262 0.0
H2040 H 0.33604 0.73305 0.69006 0.0
H2041 H 0.3353 0.76383 0.72292 0.0
H2042 H 0.26106 0.75271 0.70213 0.0
C2043 C 0.26169 0.68351 0.63228 0.0
C2044 C 0.27741 0.67418 0.62038 0.0
C2045 C 0.301 0.6785 0.63076 0.0
C2046 C 0.30954 0.69458 0.65145 0.0
C2047 C 0.29404 0.70556 0.66128 0.0
C2048 C 0.27049 0.69965 0.65269 0.0
C2049 C 0.25789 0.71526 0.66539 0.0
C2050 C 0.24526 0.72796 0.64795 0.0
C2051 C 0.24118 0.70155 0.6801 0.0
C2052 C 0.27824 0.73168 0.68135 0.0
C2053 C 0.2989 0.72569 0.67888 0.0
C2054 C 0.32 0.73787 0.69241 0.0
C2055 C 0.31953 0.75546 0.71055 0.0
C2056 C 0.29816 0.76029 0.71435 0.0
C2057 C 0.27759 0.74947 0.69882 0.0
H2058 H 0.67276 0.07695 0.82106 0.0
H2059 H 0.63434 1.00595 0.79721 0.0
H2060 H 0.61324 0.00755 0.83188 0.0
H2061 H 0.66898 0.07887 0.88999 0.0
H2062 H 0.66464 0.10781 0.89094 0.0
H2063 H 0.68344 0.09831 0.87153 0.0
H2064 H 0.6596 0.10974 0.8356 0.0
H2065 H 0.6401 0.11828 0.85438 0.0
H2066 H 0.62889 0.09665 0.82815 0.0
H2067 H 0.58926 0.01989 0.86029 0.0
H2068 H 0.56599 0.04125 0.8832 0.0
H2069 H 0.61761 0.1055 0.88588 0.0
C2070 C 0.6611 0.06133 0.82437 0.0
C2071 C 0.65544 0.04112 0.80735 0.0
C2072 C 0.63924 0.02122 0.8108 0.0
C2073 C 0.62718 0.02209 0.83035 0.0
C2074 C 0.6316 0.04304 0.84583 0.0
C2075 C 0.64856 0.06227 0.84335 0.0
C2076 C 0.64641 0.08403 0.8585 0.0
C2077 C 0.66709 0.09276 0.87896 0.0
C2078 C 0.64357 0.10326 0.84322 0.0
C2079 C 0.62444 0.07446 0.86808 0.0
C2080 C 0.61663 0.0507 0.86131 0.0
C2081 C 0.59549 0.03838 0.86621 0.0
C2082 C 0.58225 0.05062 0.87875 0.0
C2083 C 0.59002 0.07491 0.8856 0.0
C2084 C 0.61132 0.08694 0.88033 0.0
H2085 H 0.30783 0.31713 0.1001 0.0
H2086 H 0.29232 0.38452 0.11355 0.0
H2087 H 0.28402 0.37686 0.15388 0.0
H2088 H 0.26207 0.28741 0.13211 0.0
H2089 H 0.27932 0.2686 0.14314 0.0
H2090 H 0.28288 0.27889 0.11483 0.0
H2091 H 0.32681 0.29566 0.13004 0.0
H2092 H 0.32339 0.28538 0.1583 0.0
H2093 H 0.33599 0.31564 0.15776 0.0
H2094 H 0.27966 0.3628 0.19381 0.0
H2095 H 0.27866 0.34305 0.22975 0.0
H2096 H 0.29696 0.28478 0.19031 0.0
C2097 C 0.30248 0.33018 0.11146 0.0
C2098 C 0.30071 0.35143 0.10363 0.0
C2099 C 0.29358 0.36802 0.11903 0.0
C2100 C 0.28888 0.36385 0.14201 0.0
C2101 C 0.29095 0.34281 0.14925 0.0
C2102 C 0.2973 0.32612 0.13433 0.0
C2103 C 0.2983 0.30499 0.14652 0.0
C2104 C 0.27953 0.28371 0.13337 0.0
C2105 C 0.32257 0.30015 0.14826 0.0
C2106 C 0.2928 0.31294 0.17108 0.0
C2107 C 0.28819 0.33462 0.17215 0.0
C2108 C 0.28301 0.34571 0.19309 0.0
C2109 C 0.28252 0.33435 0.21346 0.0
C2110 C 0.28739 0.31218 0.21289 0.0
C2111 C 0.29262 0.30146 0.19131 0.0
H2112 H 0.24456 0.98827 0.97878 0.0
H2113 H 0.24504 0.93334 0.02278 0.0
H2114 H 0.2112 0.94066 0.03864 0.0
H2115 H 0.23532 0.02709 0.01945 0.0
H2116 H 0.21529 0.03882 0.00104 0.0
H2117 H 0.23514 0.02505 0.98741 0.0
H2118 H 0.20086 0.99676 0.95861 0.0
H2119 H 0.18072 0.01054 0.97218 0.0
H2120 H 0.17743 0.97967 0.97072 0.0
H2121 H 0.1854 0.95854 0.05708 0.0
H2122 H 0.16899 0.9879 0.07812 0.0
H2123 H 0.18268 0.03131 0.0229 0.0
C2124 C 0.23695 0.97738 0.99111 0.0
C2125 C 0.24723 0.96024 -0.00069 0.0
C2126 C 0.2373 0.9465 0.01592 0.0
C2127 C 0.21782 0.95027 0.02491 0.0
C2128 C 0.20825 0.96759 0.01693 0.0
C2129 C 0.2173 0.98091 0.00033 0.0
C2130 C 0.20596 1.00082 -0.00207 0.0
C2131 C 0.22401 0.02431 0.00173 0.0
C2132 C 0.1903 0.99671 0.97341 0.0
C2133 C 0.19174 0.99837 0.01819 0.0
C2134 C 0.19243 0.97833 0.02799 0.0
C2135 C 0.18392 0.97387 0.04918 0.0
C2136 C 0.17501 0.99065 0.06118 0.0
C2137 C 0.17489 0.01141 0.05186 0.0
C2138 C 0.18249 0.01513 0.02982 0.0
H2139 H 0.70303 0.64797 0.03969 0.0
H2140 H 0.70798 0.62973 0.96465 0.0
H2141 H 0.67178 0.59856 0.96011 0.0
H2142 H 0.6801 0.58778 0.0512 0.0
H2143 H 0.66171 0.59694 0.0713 0.0
H2144 H 0.68875 0.61634 0.06871 0.0
H2145 H 0.66684 0.64762 0.05799 0.0
H2146 H 0.64003 0.62818 0.0608 0.0
H2147 H 0.64308 0.64018 0.03331 0.0
H2148 H 0.63172 0.57428 0.96269 0.0
H2149 H 0.59407 0.5547 0.97351 0.0
H2150 H 0.61838 0.58483 0.04809 0.0
C2151 C 0.69676 0.63695 0.02249 0.0
C2152 C 0.70814 0.64096 0.00251 0.0
C2153 C 0.69949 0.62658 0.98016 0.0
C2154 C 0.67896 0.60898 0.97745 0.0
C2155 C 0.66778 0.60576 0.99744 0.0
C2156 C 0.67673 0.61898 0.01969 0.0
C2157 C 0.6612 0.61253 0.0382 0.0
C2158 C 0.67369 0.60281 0.05855 0.0
C2159 C 0.65226 0.63338 0.04813 0.0
C2160 C 0.64184 0.59388 0.02286 0.0
C2161 C 0.64571 0.5905 -0.00071 0.0
C2162 C 0.62886 0.57625 0.98122 0.0
C2163 C 0.60758 0.56526 0.98747 0.0
C2164 C 0.60371 0.56801 0.01162 0.0
C2165 C 0.62119 0.58213 0.02957 0.0
H2166 H 0.70386 0.49987 0.31469 0.0
H2167 H 0.64655 0.48084 0.25532 0.0
H2168 H 0.65976 0.44638 0.24119 0.0
H2169 H 0.74534 0.48692 0.28316 0.0
H2170 H 0.76043 0.47484 0.30613 0.0
H2171 H 0.74432 0.4957 0.31448 0.0
H2172 H 0.72062 0.46667 0.33803 0.0
H2173 H 0.73669 0.44564 0.32965 0.0
H2174 H 0.70548 0.43808 0.32294 0.0
H2175 H 0.6817 0.41817 0.22956 0.0
H2176 H 0.71206 0.39769 0.22112 0.0
H2177 H 0.75506 0.43355 0.28789 0.0
C2178 C 0.6938 0.48811 0.29909 0.0
C2179 C 0.6742 0.49305 0.2861 0.0
C2180 C 0.66167 0.47747 0.26553 0.0
C2181 C 0.6689 0.4577 0.25745 0.0
C2182 C 0.68856 0.45359 0.27025 0.0
C2183 C 0.70081 0.4682 0.29073 0.0
C2184 C 0.72271 0.46097 0.29958 0.0
C2185 C 0.74447 0.48079 0.30089 0.0
C2186 C 0.72128 0.45232 0.324 0.0
C2187 C 0.72161 0.44118 0.27984 0.0
C2188 C 0.70141 0.43685 0.26349 0.0
C2189 C 0.69737 0.42101 0.24244 0.0
C2190 C 0.71467 0.40964 0.23768 0.0
C2191 C 0.73561 0.41431 0.25387 0.0
C2192 C 0.73894 0.42972 0.27548 0.0
H2193 H 0.87158 0.4783 0.47191 0.0
H2194 H 0.86183 0.4879 0.54652 0.0
H2195 H 0.90133 0.51375 0.55727 0.0
H2196 H 0.92177 0.46566 0.48525 0.0
H2197 H 0.93571 0.4778 0.46162 0.0
H2198 H 0.90469 0.46809 0.45753 0.0
H2199 H 0.89988 0.50873 0.44919 0.0
H2200 H 0.93096 0.51811 0.45183 0.0
H2201 H 0.91551 0.53417 0.47002 0.0
H2202 H 0.94394 0.53426 0.55987 0.0
H2203 H 0.98497 0.54657 0.55417 0.0
H2204 H 0.96706 0.5132 0.48012 0.0
C2205 C 0.87731 0.48695 0.49028 0.0
C2206 C 0.86391 0.48155 0.50839 0.0
C2207 C 0.87186 0.49247 0.53239 0.0
C2208 C 0.8943 0.50692 0.53863 0.0
C2209 C 0.90811 0.50986 0.52058 0.0
C2210 C 0.89978 0.50019 0.49683 0.0
C2211 C 0.91883 0.50116 0.48171 0.0
C2212 C 0.92032 0.47673 0.47092 0.0
C2213 C 0.91613 0.51647 0.46204 0.0
C2214 C 0.93927 0.51242 0.50067 0.0
C2215 C 0.93289 0.51802 0.52282 0.0
C2216 C 0.94914 0.52953 0.54273 0.0
C2217 C 0.97242 0.53584 0.53957 0.0
C2218 C 0.97898 0.52908 0.51724 0.0
C2219 C 0.9623 0.51738 0.49766 0.0
H2220 H 0.34726 0.08469 0.32417 0.0
H2221 H 0.38754 0.07048 0.2678 0.0
H2222 H 0.37616 0.10037 0.24719 0.0
H2223 H 0.30029 0.09141 0.28836 0.0
H2224 H 0.29499 0.11562 0.30703 0.0
H2225 H 0.30977 0.09609 0.32042 0.0
H2226 H 0.34402 0.13079 0.33933 0.0
H2227 H 0.32952 0.15054 0.32562 0.0
H2228 H 0.3584 0.14966 0.32036 0.0
H2229 H 0.35674 0.12531 0.22892 0.0
H2230 H 0.32746 0.14473 0.21258 0.0
H2231 H 0.2997 0.1455 0.27974 0.0
C2232 C 0.35411 0.08847 0.30787 0.0
C2233 C 0.36864 0.07569 0.29792 0.0
C2234 C 0.37689 0.0805 0.27621 0.0
C2235 C 0.37064 0.09756 0.26431 0.0
C2236 C 0.35642 0.10995 0.27444 0.0
C2237 C 0.34818 0.10583 0.29568 0.0
C2238 C 0.33104 0.12015 0.30086 0.0
C2239 C 0.30764 0.10488 0.30434 0.0
C2240 C 0.34136 0.13891 0.32284 0.0
C2241 C 0.32921 0.13072 0.27784 0.0
C2242 C 0.34477 0.12523 0.26343 0.0
C2243 C 0.3448 0.13035 0.24012 0.0
C2244 C 0.32801 0.14099 0.23088 0.0
C2245 C 0.31152 0.14612 0.24496 0.0
C2246 C 0.31245 0.1417 0.26892 0.0
H2247 H 0.33172 0.12565 0.48365 0.0
H2248 H 0.33573 0.17246 0.54957 0.0
H2249 H 0.36963 0.16036 0.56752 0.0
H2250 H 0.34444 0.07978 0.51117 0.0
H2251 H 0.36198 0.07099 0.48989 0.0
H2252 H 0.33981 0.08544 0.48058 0.0
H2253 H 0.37036 0.11676 0.4662 0.0
H2254 H 0.39268 0.1024 0.47562 0.0
H2255 H 0.39585 0.13257 0.4869 0.0
H2256 H 0.40036 0.14182 0.58001 0.0
H2257 H 0.42522 0.11493 0.58758 0.0
H2258 H 0.40197 0.0789 0.5146 0.0
C2259 C 0.34 0.13357 0.5017 0.0
C2260 C 0.33106 0.15004 0.51516 0.0
C2261 C 0.34215 0.15978 0.53887 0.0
C2262 C 0.3616 0.15319 0.54922 0.0
C2263 C 0.36987 0.13687 0.53566 0.0
C2264 C 0.3595 0.12704 0.51247 0.0
C2265 C 0.37091 0.10837 0.50285 0.0
C2266 C 0.35323 0.08475 0.49572 0.0
C2267 C 0.38318 0.11545 0.48164 0.0
C2268 C 0.38836 0.10851 0.52479 0.0
C2269 C 0.3878 0.12559 0.54319 0.0
C2270 C 0.40121 0.12851 0.56572 0.0
C2271 C 0.41514 0.11312 0.5699 0.0
C2272 C 0.41535 0.09489 0.55173 0.0
C2273 C 0.4023 0.09293 0.52866 0.0
H2274 H 0.68182 0.64076 0.3218 0.0
H2275 H 0.69827 0.59571 0.26424 0.0
H2276 H 0.72924 0.6281 0.25734 0.0
H2277 H 0.68782 0.69018 0.2965 0.0
H2278 H 0.70219 0.71051 0.32294 0.0
H2279 H 0.68363 0.6832 0.32602 0.0
H2280 H 0.71721 0.67353 0.3533 0.0
H2281 H 0.73581 0.70107 0.3506 0.0
H2282 H 0.74454 0.67458 0.34273 0.0
H2283 H 0.75414 0.66593 0.25291 0.0
H2284 H 0.77408 0.7065 0.25299 0.0
H2285 H 0.74277 0.7278 0.31425 0.0
C2286 C 0.6924 0.63761 0.3082 0.0
C2287 C 0.68774 0.61575 0.29358 0.0
C2288 C 0.70178 0.61222 0.27585 0.0
C2289 C 0.71935 0.63054 0.27175 0.0
C2290 C 0.72303 0.65206 0.28598 0.0
C2291 C 0.71037 0.65559 0.30423 0.0
C2292 C 0.71737 0.68072 0.31627 0.0
C2293 C 0.6965 0.69179 0.31535 0.0
C2294 C 0.72945 0.68258 0.34227 0.0
C2295 C 0.7345 0.69111 0.3006 0.0
C2296 C 0.73787 0.67409 0.28364 0.0
C2297 C 0.75208 0.67932 0.26645 0.0
C2298 C 0.76334 0.70249 0.26669 0.0
C2299 C 0.76025 0.72033 0.28388 0.0
C2300 C 0.7456 0.71451 0.30106 0.0
H2301 H 0.83541 0.4515 0.7545 0.0
H2302 H 0.85121 0.4761 0.83122 0.0
H2303 H 0.83607 0.43649 0.83944 0.0
H2304 H 0.78124 0.40548 0.75589 0.0
H2305 H 0.78861 0.38655 0.73253 0.0
H2306 H 0.79707 0.41753 0.73337 0.0
H2307 H 0.83947 0.41408 0.73304 0.0
H2308 H 0.83141 0.38343 0.73405 0.0
H2309 H 0.85342 0.40207 0.75689 0.0
H2310 H 0.82869 0.3944 0.83925 0.0
H2311 H 0.81611 0.35161 0.83062 0.0
H2312 H 0.79988 0.35503 0.75471 0.0
C2313 C 0.83434 0.44867 0.77292 0.0
C2314 C 0.84411 0.46651 0.79222 0.0
C2315 C 0.84324 0.4625 0.81625 0.0
C2316 C 0.83509 0.44008 0.8211 0.0
C2317 C 0.82733 0.42244 0.80166 0.0
C2318 C 0.82584 0.42652 0.77805 0.0
C2319 C 0.81783 0.4043 0.76054 0.0
C2320 C 0.7948 0.40342 0.74466 0.0
C2321 C 0.83666 0.40079 0.74525 0.0
C2322 C 0.8148 0.38721 0.7781 0.0
C2323 C 0.82128 0.39801 0.80167 0.0
C2324 C 0.8224 0.38574 0.821 0.0
C2325 C 0.81511 0.36169 0.81606 0.0
C2326 C 0.80608 0.35077 0.79234 0.0
C2327 C 0.80644 0.36336 0.77302 0.0
H2328 H 0.09524 0.87532 0.05094 0.0
H2329 H 0.03829 0.85687 0.091 0.0
H2330 H 0.02584 0.89215 0.08266 0.0
H2331 H 0.1092 0.93753 0.07116 0.0
H2332 H 0.11533 0.94592 0.04265 0.0
H2333 H 0.11948 0.91854 0.05027 0.0
H2334 H 0.09228 0.89721 0.01122 0.0
H2335 H 0.08804 0.92458 0.00357 0.0
H2336 H 0.0634 0.90155 0.00543 0.0
H2337 H 0.01681 0.928 0.06652 0.0
H2338 H 0.01598 0.9643 0.05084 0.0
H2339 H 0.08217 0.96584 0.02687 0.0
C2340 C 0.08007 0.87861 0.05791 0.0
C2341 C 0.0677 0.86254 0.0716 0.0
C2342 C 0.04816 0.86823 0.08042 0.0
C2343 C 0.04084 0.88844 0.07568 0.0
C2344 C 0.05323 0.90367 0.06221 0.0
C2345 C 0.0727 0.89927 0.05373 0.0
C2346 C 0.08316 0.91922 0.04036 0.0
C2347 C 0.10829 0.931 0.0518 0.0
C2348 C 0.08165 0.9101 0.01355 0.0
C2349 C 0.06716 0.93587 0.04353 0.0
C2350 C 0.04949 0.92587 0.05535 0.0
C2351 C 0.03112 0.93626 0.05812 0.0
C2352 C 0.03098 0.95739 0.04929 0.0
C2353 C 0.04964 0.96947 0.03879 0.0
C2354 C 0.06797 0.95803 0.03566 0.0
H2355 H 0.92316 0.23485 0.88617 0.0
H2356 H 0.95015 0.30599 0.92107 0.0
H2357 H 0.91965 0.31803 0.89574 0.0
H2358 H 0.90585 0.24978 0.82545 0.0
H2359 H 0.87991 0.22659 0.81852 0.0
H2360 H 0.90474 0.22334 0.83815 0.0
H2361 H 0.87919 0.21431 0.87114 0.0
H2362 H 0.85435 0.21763 0.85165 0.0
H2363 H 0.86299 0.23467 0.88113 0.0
H2364 H 0.88622 0.32284 0.86721 0.0
H2365 H 0.85127 0.31986 0.83767 0.0
H2366 H 0.8431 0.24559 0.82149 0.0
C2367 C 0.92273 0.25296 0.8882 0.0
C2368 C 0.93922 0.26957 0.90561 0.0
C2369 C 0.93785 0.29304 0.90786 0.0
C2370 C 0.92055 0.30004 0.89351 0.0
C2371 C 0.90441 0.28341 0.87678 0.0
C2372 C 0.90528 0.26034 0.87389 0.0
C2373 C 0.88523 0.24613 0.85477 0.0
C2374 C 0.89449 0.23584 0.83294 0.0
C2375 C 0.86951 0.22705 0.86531 0.0
C2376 C 0.87263 0.26464 0.8481 0.0
C2377 C 0.88438 0.28609 0.86077 0.0
C2378 C 0.87683 0.30609 0.85734 0.0
C2379 C 0.85687 0.30424 0.84056 0.0
C2380 C 0.84404 0.28248 0.82773 0.0
C2381 C 0.85216 0.26239 0.83151 0.0
H2382 H 0.53959 0.21541 0.54322 0.0
H2383 H 0.5982 0.23306 0.60084 0.0
H2384 H 0.59809 0.19159 0.59931 0.0
H2385 H 0.50992 0.1615 0.56264 0.0
H2386 H 0.50022 0.14573 0.53266 0.0
H2387 H 0.50467 0.17684 0.53771 0.0
H2388 H 0.53278 0.18047 0.50644 0.0
H2389 H 0.52836 0.14936 0.50136 0.0
H2390 H 0.55728 0.16762 0.50995 0.0
H2391 H 0.59305 0.14795 0.59078 0.0
H2392 H 0.58167 0.1055 0.57766 0.0
H2393 H 0.52487 0.11366 0.52674 0.0
C2394 C 0.55227 0.21049 0.55561 0.0
C2395 C 0.56893 0.22785 0.57238 0.0
C2396 C 0.58523 0.22038 0.58802 0.0
C2397 C 0.58534 0.19673 0.58722 0.0
C2398 C 0.56888 0.1801 0.57067 0.0
C2399 C 0.55248 0.18656 0.5552 0.0
C2400 C 0.53669 0.1648 0.53934 0.0
C2401 C 0.51137 0.16207 0.54333 0.0
C2402 C 0.53891 0.16562 0.51269 0.0
C2403 C 0.54659 0.14529 0.54853 0.0
C2404 C 0.5654 0.15468 0.5664 0.0
C2405 C 0.57812 0.14049 0.57706 0.0
C2406 C 0.57149 0.11626 0.56951 0.0
C2407 C 0.55201 0.10589 0.55164 0.0
C2408 C 0.53943 0.12082 0.54098 0.0
H2409 H 0.57719 0.76597 0.40911 0.0
H2410 H 0.54135 0.80416 0.36298 0.0
H2411 H 0.57179 0.80664 0.33723 0.0
H2412 H 0.63279 0.79887 0.40954 0.0
H2413 H 0.64693 0.77522 0.40871 0.0
H2414 H 0.62054 0.77283 0.42129 0.0
H2415 H 0.60185 0.73489 0.39179 0.0
H2416 H 0.62822 0.73735 0.37895 0.0
H2417 H 0.6011 0.73498 0.35991 0.0
H2418 H 0.60689 0.80756 0.31792 0.0
H2419 H 0.64702 0.81144 0.30958 0.0
H2420 H 0.66213 0.77545 0.36949 0.0
C2421 C 0.57554 0.7744 0.39329 0.0
C2422 C 0.55672 0.78468 0.38792 0.0
C2423 C 0.5555 0.79608 0.36741 0.0
C2424 C 0.57263 0.79742 0.35254 0.0
C2425 C 0.59103 0.78737 0.35839 0.0
C2426 C 0.59277 0.77622 0.37837 0.0
C2427 C 0.61565 0.76909 0.38191 0.0
C2428 C 0.62981 0.77965 0.40684 0.0
C2429 C 0.61145 0.7425 0.37791 0.0
C2430 C 0.62706 0.77946 0.36186 0.0
C2431 C 0.61209 0.78897 0.34789 0.0
C2432 C 0.61872 0.80003 0.32861 0.0
C2433 C 0.64148 0.80211 0.32395 0.0
C2434 C 0.65748 0.7937 0.33886 0.0
C2435 C 0.65007 0.78185 0.35777 0.0
H2436 H 0.07147 0.26837 0.42636 0.0
H2437 H 0.01862 0.24162 0.36396 0.0
H2438 H 0.01155 0.20264 0.37641 0.0
H2439 H 0.09129 0.21083 0.4273 0.0
H2440 H 0.09705 0.21586 0.4597 0.0
H2441 H 0.10157 0.24004 0.44305 0.0
H2442 H 0.07437 0.2585 0.4669 0.0
H2443 H 0.06969 0.23449 0.48347 0.0
H2444 H 0.04524 0.24196 0.46713 0.0
H2445 H 1.00534 0.16886 0.39952 0.0
H2446 H 1.00074 0.14353 0.43115 0.0
H2447 H 0.05775 0.19211 0.47842 0.0
C2448 C 0.05928 0.25395 0.41479 0.0
C2449 C 0.04603 0.25764 0.39389 0.0
C2450 C 0.02943 0.2388 0.37962 0.0
C2451 C 0.02527 0.21665 0.38661 0.0
C2452 C 0.03817 0.21358 0.40773 0.0
C2453 C 0.05521 0.23163 0.42136 0.0
C2454 C 0.0651 0.22435 0.44439 0.0
C2455 C 0.09025 0.22268 0.44356 0.0
C2456 C 0.06347 0.2408 0.46677 0.0
C2457 C 0.04922 0.20046 0.44289 0.0
C2458 C 0.03444 0.19412 0.42116 0.0
C2459 C 0.01719 0.17342 0.41634 0.0
C2460 C 0.01468 0.15913 0.43437 0.0
C2461 C 0.02898 0.16591 0.45706 0.0
C2462 C 0.04678 0.18652 0.46109 0.0
H2463 H 0.60427 0.23375 0.24125 0.0
H2464 H 0.60147 0.30311 0.22791 0.0
H2465 H 0.64429 0.31524 0.23584 0.0
H2466 H 0.65417 0.24981 0.28862 0.0
H2467 H 0.66694 0.22663 0.2785 0.0
H2468 H 0.63598 0.2228 0.27242 0.0
H2469 H 0.63627 0.21253 0.22697 0.0
H2470 H 0.66721 0.21586 0.23282 0.0
H2471 H 0.65508 0.2322 0.21198 0.0
H2472 H 0.68784 0.32023 0.24506 0.0
H2473 H 0.72829 0.3177 0.25422 0.0
H2474 H 0.70463 0.2448 0.26031 0.0
C2475 C 0.61265 0.25159 0.24034 0.0
C2476 C 0.5991 0.26758 0.23429 0.0
C2477 C 0.61109 0.29054 0.23268 0.0
C2478 C 0.63556 0.2976 0.23712 0.0
C2479 C 0.6483 0.2815 0.24283 0.0
C2480 C 0.6373 0.25888 0.24428 0.0
C2481 C 0.65537 0.24493 0.24992 0.0
C2482 C 0.65295 0.23548 0.27379 0.0
C2483 C 0.65335 0.22521 0.22919 0.0
C2484 C 0.67815 0.26334 0.2519 0.0
C2485 C 0.67354 0.28426 0.24763 0.0
C2486 C 0.69154 0.30386 0.24834 0.0
C2487 C 0.7147 0.30218 0.25353 0.0
C2488 C 0.72029 0.28102 0.25805 0.0
C2489 C 0.70142 0.26132 0.25712 0.0
H2490 H 0.58873 0.9078 0.91848 0.0
H2491 H 0.51623 0.87547 0.89149 0.0
H2492 H 0.50494 0.90786 0.91361 0.0
H2493 H 0.58355 0.93251 0.97587 0.0
H2494 H 0.60333 0.96037 0.97714 0.0
H2495 H 0.60684 0.9354 0.95825 0.0
H2496 H 0.60477 0.95688 0.92121 0.0
H2497 H 0.60161 0.98206 0.9401 0.0
H2498 H 0.58037 0.96916 0.91384 0.0
H2499 H 0.50075 0.93838 0.9447 0.0
H2500 H 0.50343 0.97232 0.97403 0.0
H2501 H 0.57794 0.99235 0.97634 0.0
C2502 C 0.57061 0.90816 0.91633 0.0
C2503 C 0.55337 0.88903 0.90275 0.0
C2504 C 0.52978 0.88997 0.90122 0.0
C2505 C 0.52313 0.90822 0.91402 0.0
C2506 C 0.54024 0.92625 0.92783 0.0
C2507 C 0.56354 0.92712 0.92829 0.0
C2508 C 0.578 0.9495 0.94414 0.0
C2509 C 0.59387 0.94411 0.96509 0.0
C2510 C 0.59203 0.96535 0.92892 0.0
C2511 C 0.55912 0.96021 0.95328 0.0
C2512 C 0.53757 0.946 0.94385 0.0
C2513 C 0.51747 0.95022 0.95136 0.0
C2514 C 0.51919 0.96982 0.96826 0.0
C2515 C 0.54067 0.98596 0.97702 0.0
C2516 C 0.56107 0.98087 0.96946 0.0
H2517 H 0.96122 0.75702 0.76052 0.0
H2518 H 0.95499 0.76876 0.68613 0.0
H2519 H 0.91604 0.77543 0.68841 0.0
H2520 H 0.90123 0.72832 0.76056 0.0
H2521 H 0.8995 0.74226 0.79 0.0
H2522 H 0.92693 0.73811 0.78289 0.0
H2523 H 0.94508 0.78211 0.79489 0.0
H2524 H 0.91768 0.78635 0.80204 0.0
H2525 H 0.9318 0.80248 0.78083 0.0
H2526 H 0.87582 0.77812 0.6976 0.0
H2527 H 0.84005 0.78081 0.71401 0.0
H2528 H 0.87203 0.77174 0.78407 0.0
C2529 C 0.95176 0.76116 0.74472 0.0
C2530 C 0.96168 0.76226 0.72298 0.0
C2531 C 0.94832 0.76786 0.70299 0.0
C2532 C 0.92593 0.7716 0.7041 0.0
C2533 C 0.91669 0.77027 0.72556 0.0
C2534 C 0.92936 0.76561 0.74572 0.0
C2535 C 0.91542 0.76598 0.76675 0.0
C2536 C 0.91049 0.74226 0.77557 0.0
C2537 C 0.92827 0.78538 0.78735 0.0
C2538 C 0.89289 0.77116 0.75517 0.0
C2539 C 0.89401 0.77327 0.73127 0.0
C2540 C 0.87502 0.77678 0.71638 0.0
C2541 C 0.85457 0.7782 0.72591 0.0
C2542 C 0.85281 0.77669 0.75046 0.0
C2543 C 0.8726 0.77329 0.7653 0.0
H2544 H 0.13224 0.06416 0.87522 0.0
H2545 H 0.07513 0.01652 0.82706 0.0
H2546 H 0.05762 1.0037 0.86206 0.0
H2547 H 0.13382 0.02512 0.92315 0.0
H2548 H 0.14127 0.04921 0.94726 0.0
H2549 H 0.15089 0.05279 0.91869 0.0
H2550 H 0.13155 0.08722 0.91591 0.0
H2551 H 0.12168 0.08362 0.94427 0.0
H2552 H 0.1011 0.08297 0.91795 0.0
H2553 H 0.04651 0.99594 0.9019 0.0
H2554 H 0.04016 0.99656 0.94382 0.0
H2555 H 0.10175 0.05207 0.96694 0.0
C2556 C 0.11639 0.05055 0.87221 0.0
C2557 C 0.10521 0.0408 0.84853 0.0
C2558 C 0.08418 0.02362 0.84508 0.0
C2559 C 0.07413 0.01632 0.86484 0.0
C2560 C 0.08545 0.02628 0.88797 0.0
C2561 C 0.10618 0.04294 0.89185 0.0
C2562 C 0.11403 0.0515 0.91867 0.0
C2563 C 0.13633 0.04424 0.92746 0.0
C2564 C 0.11726 0.0779 0.92453 0.0
C2565 C 0.0937 0.03825 0.92905 0.0
C2566 C 0.0779 0.02326 0.911 0.0
C2567 C 0.05835 0.00825 0.916 0.0
C2568 C 0.05438 0.00921 0.93988 0.0
C2569 C 0.06887 0.02586 0.95852 0.0
C2570 C 0.08954 0.03985 0.9531 0.0
H2571 H 0.788 0.3689 0.55248 0.0
H2572 H 0.84802 0.42703 0.57178 0.0
H2573 H 0.84765 0.42388 0.61472 0.0
H2574 H 0.76169 0.37781 0.61081 0.0
H2575 H 0.75367 0.34692 0.61098 0.0
H2576 H 0.75315 0.35825 0.5828 0.0
H2577 H 0.78058 0.33323 0.56875 0.0
H2578 H 0.78042 0.32141 0.59632 0.0
H2579 H 0.80765 0.3351 0.58775 0.0
H2580 H 0.84579 0.4111 0.65305 0.0
H2581 H 0.8505 0.38358 0.68133 0.0
H2582 H 0.79391 0.3314 0.63784 0.0
C2583 C 0.8007 0.3811 0.566 0.0
C2584 C 0.81805 0.39808 0.5594 0.0
C2585 C 0.8348 0.41373 0.57694 0.0
C2586 C 0.83429 0.41244 0.60126 0.0
C2587 C 0.81702 0.39534 0.6075 0.0
C2588 C 0.80081 0.37956 0.59031 0.0
C2589 C 0.78794 0.35952 0.60108 0.0
C2590 C 0.76261 0.36071 0.60145 0.0
C2591 C 0.78929 0.33596 0.5877 0.0
C2592 C 0.80157 0.36498 0.62622 0.0
C2593 C 0.81686 0.3867 0.63009 0.0
C2594 C 0.83364 0.39431 0.65054 0.0
C2595 C 0.83631 0.37862 0.66641 0.0
C2596 C 0.82263 0.35568 0.66114 0.0
C2597 C 0.8042 0.34914 0.6419 0.0
H2598 H 0.45898 0.03442 0.36049 0.0
H2599 H 0.39728 1.00472 0.38944 0.0
H2600 H 0.41823 0.01969 0.43076 0.0
H2601 H 0.49447 0.01459 0.39784 0.0
H2602 H 0.5195 0.03863 0.40107 0.0
H2603 H 0.49822 0.03258 0.3745 0.0
H2604 H 0.49299 0.07463 0.38209 0.0
H2605 H 0.51432 0.08068 0.40891 0.0
H2606 H 0.48582 0.0854 0.41052 0.0
H2607 H 0.44633 0.02932 0.46652 0.0
H2608 H 0.48081 0.02868 0.49425 0.0
H2609 H 0.52514 0.052 0.44354 0.0
C2610 C 0.44986 0.03178 0.37569 0.0
C2611 C 0.42681 0.0188 0.37245 0.0
C2612 C 0.41512 0.01472 0.39214 0.0
C2613 C 0.42671 0.02352 0.41542 0.0
C2614 C 0.44978 0.03604 0.41822 0.0
C2615 C 0.46135 0.03993 0.39887 0.0
C2616 C 0.4872 0.04882 0.40648 0.0
C2617 C 0.5006 0.03268 0.39427 0.0
C2618 C 0.49556 0.07388 0.40172 0.0
C2619 C 0.48853 0.04773 0.43299 0.0
C2620 C 0.46668 0.0413 0.43949 0.0
C2621 C 0.46346 0.03533 0.46195 0.0
C2622 C 0.48299 0.03507 0.47778 0.0
C2623 C 0.50514 0.04072 0.47131 0.0
C2624 C 0.50816 0.04795 0.449 0.0
H2625 H 0.78569 0.7615 0.0876 0.0
H2626 H 0.77053 0.68688 0.08579 0.0
H2627 H 0.77149 0.69205 0.12984 0.0
H2628 H 0.82637 0.77334 0.14643 0.0
H2629 H 0.81841 0.79994 0.15579 0.0
H2630 H 0.8177 0.79034 0.12428 0.0
H2631 H 0.77467 0.79231 0.11596 0.0
H2632 H 0.77518 0.8015 0.14747 0.0
H2633 H 0.75386 0.77611 0.13195 0.0
H2634 H 0.77115 0.70497 0.17335 0.0
H2635 H 0.77404 0.72487 0.21459 0.0
H2636 H 0.79073 0.79161 0.18958 0.0
C2637 C 0.783 0.74633 0.09662 0.0
C2638 C 0.7781 0.72376 0.0833 0.0
C2639 C 0.77465 0.7043 0.09566 0.0
C2640 C 0.77499 0.70707 0.12067 0.0
C2641 C 0.7794 0.72948 0.13322 0.0
C2642 C 0.78399 0.74883 0.12178 0.0
C2643 C 0.78896 0.77095 0.13983 0.0
C2644 C 0.81436 0.78445 0.14169 0.0
C2645 C 0.77215 0.7861 0.1334 0.0
C2646 C 0.78484 0.76099 0.16286 0.0
C2647 C 0.77969 0.73701 0.1586 0.0
C2648 C 0.77544 0.72374 0.17692 0.0
C2649 C 0.77711 0.73522 0.20032 0.0
C2650 C 0.78266 0.75977 0.20531 0.0
C2651 C 0.78626 0.77283 0.18623 0.0
H2652 H 0.10748 0.02473 0.70273 0.0
H2653 H 0.08099 0.08423 0.72659 0.0
H2654 H 0.06648 0.08646 0.68513 0.0
H2655 H 0.12552 0.04238 0.64892 0.0
H2656 H 0.11489 0.01463 0.63 0.0
H2657 H 0.12289 0.01594 0.66194 0.0
H2658 H 0.08211 0.9911 0.66436 0.0
H2659 H 0.07413 0.98961 0.63235 0.0
H2660 H 0.05681 1.00036 0.65271 0.0
H2661 H 0.05585 0.08447 0.64266 0.0
H2662 H 0.04717 0.07661 0.59922 0.0
H2663 H 0.07966 0.01865 0.59849 0.0
C2664 C 0.09835 0.03799 0.69916 0.0
C2665 C 0.09552 0.05435 0.71828 0.0
C2666 C 0.08344 0.0714 0.71267 0.0
C2667 C 0.0751 0.07292 0.689 0.0
C2668 C 0.07844 0.05704 0.67073 0.0
C2669 C 0.08933 0.03957 0.67522 0.0
C2670 C 0.08985 0.02475 0.65145 0.0
C2671 C 0.11479 0.02443 0.64788 0.0
C2672 C 0.07484 0.99998 0.65015 0.0
C2673 C 0.07885 0.03767 0.63325 0.0
C2674 C 0.07217 0.05594 0.64515 0.0
C2675 C 0.06116 0.0703 0.63305 0.0
C2676 C 0.05656 0.06589 0.60804 0.0
C2677 C 0.06332 0.04763 0.59481 0.0
C2678 C 0.07464 0.03316 0.6078 0.0
H2679 H 0.80018 0.41563 0.40722 0.0
H2680 H 0.8137 0.37701 0.46553 0.0
H2681 H 0.81333 0.34305 0.43647 0.0
H2682 H 0.75958 0.36786 0.36935 0.0
H2683 H 0.76886 0.37564 0.3417 0.0
H2684 H 0.77179 0.39782 0.36701 0.0
H2685 H 0.8158 0.41145 0.36516 0.0
H2686 H 0.8129 0.38914 0.33993 0.0
H2687 H 0.83359 0.39082 0.36643 0.0
H2688 H 0.81419 0.31491 0.40239 0.0
H2689 H 0.81018 0.29064 0.36329 0.0
H2690 H 0.78971 0.34498 0.32724 0.0
C2691 C 0.80306 0.39996 0.4136 0.0
C2692 C 0.80732 0.39861 0.43819 0.0
C2693 C 0.8108 0.37807 0.44648 0.0
C2694 C 0.81065 0.35883 0.43025 0.0
C2695 C 0.80666 0.36058 0.40602 0.0
C2696 C 0.80251 0.38034 0.39757 0.0
C2697 C 0.79733 0.37681 0.3705 0.0
C2698 C 0.77293 0.37969 0.36164 0.0
C2699 C 0.81602 0.39302 0.3599 0.0
C2700 C 0.79881 0.35192 0.36542 0.0
C2701 C 0.80488 0.3432 0.3861 0.0
C2702 C 0.80881 0.32116 0.38594 0.0
C2703 C 0.80615 0.30742 0.36376 0.0
C2704 C 0.79886 0.31568 0.34245 0.0
C2705 C 0.79513 0.33816 0.34332 0.0
H2706 H 0.42509 0.03156 0.23718 0.0
H2707 H 0.47265 0.99604 0.27216 0.0
H2708 H 0.49507 0.9994 0.23877 0.0
H2709 H 0.4172 1.00414 0.18379 0.0
H2710 H 0.41728 0.02761 0.16643 0.0
H2711 H 0.40994 0.03035 0.19612 0.0
H2712 H 0.44229 0.06819 0.2083 0.0
H2713 H 0.44987 0.06553 0.17845 0.0
H2714 H 0.47166 0.0682 0.20428 0.0
H2715 H 0.50572 0.99686 0.19929 0.0
H2716 H 0.50291 0.98711 0.15538 0.0
H2717 H 0.44797 0.02282 0.14427 0.0
C2718 C 0.44078 0.02535 0.23821 0.0
C2719 C 0.44721 0.01351 0.25711 0.0
C2720 C 0.4675 1.00519 0.25779 0.0
C2721 C 0.48051 0.00729 0.23905 0.0
C2722 C 0.47312 0.01802 0.22 0.0
C2723 C 0.45385 0.02722 0.21952 0.0
C2724 C 0.44716 0.03398 0.19515 0.0
C2725 C 0.42139 0.02334 0.18479 0.0
C2726 C 0.4531 0.06055 0.19663 0.0
C2727 C 0.4632 0.02359 0.18111 0.0
C2728 C 0.47906 0.01596 0.19617 0.0
C2729 C 0.49388 1.00329 0.18736 0.0
C2730 C 0.49198 0.99756 0.16252 0.0
C2731 C 0.47504 1.00407 0.14701 0.0
C2732 C 0.461 0.01782 0.15618 0.0
H2733 H 0.78636 0.70303 0.92963 0.0
H2734 H 0.7646 0.7619 0.96353 0.0
H2735 H 0.76786 0.78022 0.92733 0.0
H2736 H 0.82823 0.73702 0.89626 0.0
H2737 H 0.82104 0.71575 0.86948 0.0
H2738 H 0.81807 0.70667 0.89842 0.0
H2739 H 0.77511 0.68591 0.88269 0.0
H2740 H 0.77795 0.6951 0.85377 0.0
H2741 H 0.7558 0.70212 0.86999 0.0
H2742 H 0.76924 0.79098 0.88798 0.0
H2743 H 0.77351 0.79706 0.84706 0.0
H2744 H 0.79784 0.73384 0.83561 0.0
C2745 C 0.78271 0.71995 0.92946 0.0
C2746 C 0.7751 0.73098 0.94959 0.0
C2747 C 0.77022 0.75296 0.94847 0.0
C2748 C 0.77203 0.76357 0.92791 0.0
C2749 C 0.77883 0.75217 0.90828 0.0
C2750 C 0.78442 0.73103 0.90868 0.0
C2751 C 0.79094 0.72296 0.88434 0.0
C2752 C 0.81607 0.72046 0.88731 0.0
C2753 C 0.77394 0.70016 0.87198 0.0
C2754 C 0.78821 0.74301 0.87059 0.0
C2755 C 0.78082 0.75928 0.88497 0.0
C2756 C 0.77548 0.77864 0.87665 0.0
C2757 C 0.77803 0.78188 0.8531 0.0
C2758 C 0.7865 0.76625 0.83775 0.0
C2759 C 0.79158 0.74633 0.84674 0.0
H2760 H 0.84853 0.13002 0.0581 0.0
H2761 H 0.81674 0.06989 0.08888 0.0
H2762 H 0.84843 0.05158 0.07978 0.0
H2763 H 0.85527 0.09949 0.00907 0.0
H2764 H 0.88191 0.1181 0.00415 0.0
H2765 H 0.86262 0.13004 0.02067 0.0
H2766 H 0.89559 0.14602 0.05697 0.0
H2767 H 0.91527 0.13438 0.04039 0.0
H2768 H 0.91131 0.12671 0.0697 0.0
H2769 H 0.87703 0.03642 0.05876 0.0
H2770 H 0.90005 0.02566 0.02776 0.0
H2771 H 0.90993 0.09457 0.00787 0.0
C2772 C 0.84877 0.11341 0.06387 0.0
C2773 C 0.83041 0.10124 0.07409 0.0
C2774 C 0.83095 0.07949 0.08122 0.0
C2775 C 0.84886 0.06904 0.07615 0.0
C2776 C 0.86581 0.08078 0.06416 0.0
C2777 C 0.86593 0.10263 0.05827 0.0
C2778 C 0.88242 0.1096 0.04093 0.0
C2779 C 0.86978 0.11457 0.01735 0.0
C2780 C 0.90234 0.1304 0.05272 0.0
C2781 C 0.89069 0.08778 0.03688 0.0
C2782 C 0.88152 0.07157 0.0509 0.0
C2783 C 0.88471 0.04911 0.04811 0.0
C2784 C 0.89744 0.04307 0.03037 0.0
C2785 C 0.90606 0.05933 0.01548 0.0
C2786 C 0.90313 0.08196 0.01907 0.0
H2787 H 0.39926 0.426 0.07005 0.0
H2788 H 0.35269 0.43654 0.00962 0.0
H2789 H 0.38418 0.46661 -0.00037 0.0
H2790 H 0.43022 0.48964 0.08521 0.0
H2791 H 0.45749 0.48305 0.09499 0.0
H2792 H 0.43068 0.46382 0.09863 0.0
H2793 H 0.44241 0.42959 0.07498 0.0
H2794 H 0.46903 0.44875 0.07099 0.0
H2795 H 0.44935 0.43181 0.04513 0.0
H2796 H 0.42118 0.49226 0.99372 0.0
H2797 H 0.46118 0.51449 0.99392 0.0
H2798 H 0.48396 0.48887 0.05912 0.0
C2799 C 0.3957 0.43502 0.05503 0.0
C2800 C 0.37367 0.4291 0.04059 0.0
C2801 C 0.36944 0.44112 0.02104 0.0
C2802 C 0.3872 0.45814 0.01519 0.0
C2803 C 0.40887 0.46337 0.02951 0.0
C2804 C 0.4131 0.45261 0.04936 0.0
C2805 C 0.43805 0.46155 0.06163 0.0
C2806 C 0.43917 0.47533 0.0866 0.0
C2807 C 0.45043 0.44174 0.06325 0.0
C2808 C 0.44756 0.47754 0.04446 0.0
C2809 C 0.43028 0.47869 0.02636 0.0
C2810 C 0.43479 0.49187 0.00804 0.0
C2811 C 0.45755 0.50443 0.00832 0.0
C2812 C 0.47556 0.50351 0.02665 0.0
C2813 C 0.47048 0.48988 0.04494 0.0
H2814 H 0.37055 0.56815 0.73806 0.0
H2815 H 0.4343 0.58727 0.78955 0.0
H2816 H 0.42527 0.62407 0.80376 0.0
H2817 H 0.37175 0.62921 0.72606 0.0
H2818 H 0.34068 0.62428 0.72355 0.0
H2819 H 0.35354 0.60073 0.71454 0.0
H2820 H 0.33218 0.5762 0.74352 0.0
H2821 H 0.31905 0.59948 0.75221 0.0
H2822 H 0.3355 0.58819 0.77483 0.0
H2823 H 0.40792 0.65593 0.81604 0.0
H2824 H 0.38121 0.67967 0.82785 0.0
H2825 H 0.32864 0.64131 0.7687 0.0
C2826 C 0.38279 0.58029 0.752 0.0
C2827 C 0.40321 0.57485 0.76254 0.0
C2828 C 0.41864 0.59105 0.781 0.0
C2829 C 0.41377 0.61214 0.78912 0.0
C2830 C 0.39354 0.61697 0.77844 0.0
C2831 C 0.37824 0.60158 0.7603 0.0
C2832 C 0.35673 0.61027 0.75352 0.0
C2833 C 0.35561 0.61649 0.7279 0.0
C2834 C 0.33457 0.59248 0.75621 0.0
C2835 C 0.36157 0.6319 0.77206 0.0
C2836 C 0.38331 0.63582 0.78563 0.0
C2837 C 0.39107 0.65341 0.80526 0.0
C2838 C 0.37586 0.66677 0.81185 0.0
C2839 C 0.35319 0.66231 0.79896 0.0
C2840 C 0.34618 0.64527 0.77835 0.0
H2841 H 0.20997 0.57838 0.57215 0.0
H2842 H 0.2179 0.61658 0.51212 0.0
H2843 H 0.17602 0.60245 0.49691 0.0
H2844 H 0.16116 0.52736 0.53919 0.0
H2845 H 0.14782 0.52622 0.56599 0.0
H2846 H 0.17894 0.53486 0.56844 0.0
H2847 H 0.17862 0.57276 0.59581 0.0
H2848 H 0.14755 0.56473 0.59255 0.0
H2849 H 0.16195 0.59195 0.58445 0.0
H2850 H 0.13325 0.59581 0.49755 0.0
H2851 H 0.09294 0.58552 0.50658 0.0
H2852 H 0.11398 0.5462 0.56044 0.0
C2853 C 0.20302 0.58239 0.55499 0.0
C2854 C 0.21667 0.59796 0.54292 0.0
C2855 C 0.20735 0.60403 0.52107 0.0
C2856 C 0.18367 0.59632 0.51247 0.0
C2857 C 0.17012 0.58216 0.52572 0.0
C2858 C 0.1796 0.57442 0.54595 0.0
C2859 C 0.1612 0.56139 0.5584 0.0
C2860 C 0.16235 0.53594 0.55795 0.0
C2861 C 0.16242 0.57344 0.58431 0.0
C2862 C 0.14009 0.56353 0.5424 0.0
C2863 C 0.14535 0.57603 0.52402 0.0
C2864 C 0.12864 0.5842 0.51042 0.0
C2865 C 0.10576 0.57799 0.51498 0.0
C2866 C 0.09994 0.56302 0.53174 0.0
C2867 C 0.11751 0.55639 0.54612 0.0
H2868 H 0.74732 0.01615 0.7799 0.0
H2869 H 0.7222 0.98805 0.70497 0.0
H2870 H 0.7309 0.9505 0.71222 0.0
H2871 H 0.79206 0.9851 0.79282 0.0
H2872 H 0.78402 0.98036 0.8218 0.0
H2873 H 0.77984 1.00577 0.80936 0.0
H2874 H 0.73633 0.99469 0.81395 0.0
H2875 H 0.74019 0.96904 0.82602 0.0
H2876 H 0.71868 0.9666 0.80001 0.0
H2877 H 0.73977 0.91558 0.729 0.0
H2878 H 0.74753 0.88584 0.75392 0.0
H2879 H 0.76269 0.93731 0.81799 0.0
C2880 C 0.74486 1.00245 0.76482 0.0
C2881 C 0.73527 1.0049 0.74173 0.0
C2882 C 0.7305 0.98635 0.72256 0.0
C2883 C 0.73516 0.96507 0.72659 0.0
C2884 C 0.74388 0.96287 0.74996 0.0
C2885 C 0.74849 0.98106 0.76874 0.0
C2886 C 0.75458 0.97364 0.79268 0.0
C2887 C 0.77909 0.987 0.80487 0.0
C2888 C 0.73636 0.97615 0.80911 0.0
C2889 C 0.75334 0.94855 0.78445 0.0
C2890 C 0.74715 0.94254 0.75981 0.0
C2891 C 0.74462 0.92004 0.74832 0.0
C2892 C 0.74889 0.90334 0.76252 0.0
C2893 C 0.75524 0.90942 0.78778 0.0
C2894 C 0.75732 0.93219 0.79877 0.0
H2895 H 0.74853 0.9269 0.54926 0.0
H2896 H 0.78126 0.95686 0.49215 0.0
H2897 H 0.75063 0.97784 0.48532 0.0
H2898 H 0.69193 0.91591 0.52145 0.0
H2899 H 0.67972 0.92371 0.54782 0.0
H2900 H 0.70591 0.91367 0.5509 0.0
H2901 H 0.72676 0.95123 0.5802 0.0
H2902 H 0.70054 0.9614 0.57704 0.0
H2903 H 0.72711 0.97909 0.57082 0.0
H2904 H 0.71494 0.99198 0.48134 0.0
H2905 H 0.67506 0.99744 0.47985 0.0
H2906 H 0.66497 0.95839 0.53904 0.0
C2907 C 0.74953 0.93827 0.53568 0.0
C2908 C 0.76737 0.94034 0.5213 0.0
C2909 C 0.76787 0.95511 0.50347 0.0
C2910 C 0.75061 0.96719 0.49953 0.0
C2911 C 0.73311 0.96453 0.51372 0.0
C2912 C 0.73243 0.95054 0.53154 0.0
C2913 C 0.71064 0.94931 0.5429 0.0
C2914 C 0.69621 0.92416 0.5406 0.0
C2915 C 0.71663 0.96095 0.56931 0.0
C2916 C 0.69856 0.96349 0.52753 0.0
C2917 C 0.71215 0.97266 0.51129 0.0
C2918 C 0.70427 0.98526 0.49422 0.0
C2919 C 0.68171 0.98823 0.49344 0.0
C2920 C 0.66741 0.97837 0.50941 0.0
C2921 C 0.67594 0.96622 0.5269 0.0
H2922 H 0.40094 0.44783 0.78869 0.0
H2923 H 0.38105 0.45195 0.7135 0.0
H2924 H 0.34973 0.41605 0.71002 0.0
H2925 H 0.39391 0.3884 0.78254 0.0
H2926 H 0.38259 0.38442 0.81016 0.0
H2927 H 0.40142 0.41173 0.8075 0.0
H2928 H 0.37031 0.43329 0.81872 0.0
H2929 H 0.35157 0.40601 0.82185 0.0
H2930 H 0.34136 0.42425 0.80192 0.0
H2931 H 0.32508 0.37657 0.71357 0.0
H2932 H 0.30574 0.33906 0.72509 0.0
H2933 H 0.33907 0.363 0.79887 0.0
C2934 C 0.38941 0.44154 0.77175 0.0
C2935 C 0.39293 0.45262 0.75142 0.0
C2936 C 0.37815 0.44377 0.7293 0.0
C2937 C 0.36047 0.42339 0.72719 0.0
C2938 C 0.35779 0.41243 0.74747 0.0
C2939 C 0.37154 0.42149 0.76948 0.0
C2940 C 0.36599 0.40583 0.78821 0.0
C2941 C 0.38724 0.39709 0.79764 0.0
C2942 C 0.35675 0.41808 0.80889 0.0
C2943 C 0.34722 0.38635 0.77326 0.0
C2944 C 0.3429 0.39029 0.74972 0.0
C2945 C 0.32792 0.37358 0.73206 0.0
C2946 C 0.3171 0.35237 0.73869 0.0
C2947 C 0.32103 0.34837 0.76277 0.0
C2948 C 0.33588 0.3657 0.78031 0.0
H2949 H 0.21479 0.62966 0.29369 0.0
H2950 H 0.24679 0.59893 0.23781 0.0
H2951 H 0.2765 0.63558 0.24166 0.0
H2952 H 0.21422 0.67685 0.27197 0.0
H2953 H 0.22024 0.69694 0.2996 0.0
H2954 H 0.20727 0.66692 0.29966 0.0
H2955 H 0.24056 0.6645 0.3325 0.0
H2956 H 0.25349 0.69483 0.33279 0.0
H2957 H 0.27027 0.67372 0.32783 0.0
H2958 H 0.29623 0.67639 0.24438 0.0
H2959 H 0.30408 0.71855 0.24511 0.0
H2960 H 0.25559 0.72287 0.29502 0.0
C2961 C 0.22862 0.63038 0.28297 0.0
C2962 C 0.22859 0.61173 0.26546 0.0
C2963 C 0.2467 0.61314 0.2515 0.0
C2964 C 0.26373 0.6338 0.25368 0.0
C2965 C 0.26237 0.65251 0.27007 0.0
C2966 C 0.24536 0.65091 0.28467 0.0
C2967 C 0.24446 0.67438 0.29694 0.0
C2968 C 0.22012 0.67902 0.29168 0.0
C2969 C 0.2527 0.67699 0.32413 0.0
C2970 C 0.2619 0.68952 0.285 0.0
C2971 C 0.27293 0.67663 0.27061 0.0
C2972 C 0.28824 0.68672 0.25614 0.0
C2973 C 0.2924 0.71064 0.25645 0.0
C2974 C 0.28056 0.72387 0.27035 0.0
C2975 C 0.26526 0.71321 0.2848 0.0
H2976 H 0.51002 0.68757 0.45064 0.0
H2977 H 0.51646 0.72547 0.52213 0.0
H2978 H 0.5269 0.69264 0.53979 0.0
H2979 H 0.4832 0.63093 0.46702 0.0
H2980 H 0.49724 0.61449 0.44752 0.0
H2981 H 0.49141 0.64131 0.43996 0.0
H2982 H 0.53481 0.65701 0.43754 0.0
H2983 H 0.54071 0.63023 0.44515 0.0
H2984 H 0.55633 0.65747 0.46297 0.0
H2985 H 0.53826 0.65586 0.55048 0.0
H2986 H 0.54536 0.61721 0.55341 0.0
H2987 H 0.52865 0.59938 0.47579 0.0
C2988 C 0.51384 0.68907 0.47001 0.0
C2989 C 0.51264 0.70981 0.48487 0.0
C2990 C 0.51728 0.71029 0.51015 0.0
C2991 C 0.52332 0.69155 0.52044 0.0
C2992 C 0.5243 0.67156 0.5055 0.0
C2993 C 0.51932 0.66995 0.48078 0.0
C2994 C 0.52046 0.6457 0.4691 0.0
C2995 C 0.49666 0.63232 0.45506 0.0
C2996 C 0.53919 0.64773 0.45271 0.0
C2997 C 0.52711 0.63418 0.49101 0.0
C2998 C 0.52948 0.64967 0.51177 0.0
C2999 C 0.53616 0.64362 0.53426 0.0
C3000 C 0.54026 0.62138 0.53574 0.0
C3001 C 0.5375 0.60458 0.51501 0.0
C3002 C 0.53078 0.61138 0.4922 0.0
H3003 H 0.65459 0.28432 0.63345 0.0
H3004 H 0.62348 0.32938 0.6774 0.0
H3005 H 0.65431 0.33173 0.71178 0.0
H3006 H 0.66977 0.25225 0.68197 0.0
H3007 H 0.6961 0.24842 0.67158 0.0
H3008 H 0.67198 0.25085 0.65042 0.0
H3009 H 0.69865 0.285 0.63563 0.0
H3010 H 0.72279 0.28287 0.65693 0.0
H3011 H 0.71441 0.31 0.65697 0.0
H3012 H 0.69006 0.33085 0.74095 0.0
H3013 H 0.72505 0.3237 0.76369 0.0
H3014 H 0.73086 0.27553 0.70288 0.0
C3015 C 0.65435 0.29481 0.65028 0.0
C3016 C 0.63669 0.30703 0.65251 0.0
C3017 C 0.63677 0.32003 0.67509 0.0
C3018 C 0.6543 0.32148 0.69473 0.0
C3019 C 0.67151 0.30942 0.69186 0.0
C3020 C 0.67141 0.29594 0.67032 0.0
C3021 C 0.69123 0.28372 0.67241 0.0
C3022 C 0.6817 0.25724 0.66889 0.0
C3023 C 0.70775 0.29083 0.65442 0.0
C3024 C 0.70296 0.29297 0.69827 0.0
C3025 C 0.6913 0.30784 0.70908 0.0
C3026 C 0.69903 0.31896 0.73268 0.0
C3027 C 0.71888 0.31462 0.74562 0.0
C3028 C 0.73091 0.29902 0.73537 0.0
C3029 C 0.72269 0.28806 0.71122 0.0
H3030 H 1.0021 0.34724 0.01241 0.0
H3031 H 0.03233 0.34289 0.94677 0.0
H3032 H 0.03929 0.38525 0.94857 0.0
H3033 H 0.97383 0.39312 0.00141 0.0
H3034 H 0.98069 0.40819 0.03181 0.0
H3035 H 0.97812 0.37736 0.0262 0.0
H3036 H 0.01941 0.38308 0.0496 0.0
H3037 H 0.02189 0.4139 0.05543 0.0
H3038 H 0.04334 0.40303 0.04107 0.0
H3039 H 0.04079 0.42797 0.95526 0.0
H3040 H 0.04134 0.46866 0.96909 0.0
H3041 H 0.01285 0.44856 0.03235 0.0
C3042 C 0.01045 0.3552 -0.00145 0.0
C3043 C 0.01664 0.34112 0.97934 0.0
C3044 C 0.02746 0.35272 0.96173 0.0
C3045 C 0.0314 0.377 0.96252 0.0
C3046 C 0.0248 0.39016 0.98125 0.0
C3047 C 0.01494 0.37982 -0.00072 0.0
C3048 C 0.01014 0.39853 0.01767 0.0
C3049 C 0.98414 0.39402 0.01937 0.0
C3050 C 0.02455 0.3997 0.04242 0.0
C3051 C 0.01833 0.42078 0.00682 0.0
C3052 C 0.0266 0.41529 0.98572 0.0
C3053 C 0.03469 0.43241 0.97196 0.0
C3054 C 0.03501 0.45568 0.98008 0.0
C3055 C 0.02774 0.46239 0.00215 0.0
C3056 C 0.01873 0.44435 0.01546 0.0
H3057 H 0.01085 0.83104 0.16922 0.0
H3058 H 1.00714 0.7627 0.13107 0.0
H3059 H 0.97161 0.74684 0.14739 0.0
H3060 H 0.99492 0.81284 0.22221 0.0
H3061 H 0.97793 0.83366 0.22801 0.0
H3062 H 1.00127 0.84018 0.21087 0.0
H3063 H 0.97266 0.84749 0.17598 0.0
H3064 H 0.94912 0.84065 0.19297 0.0
H3065 H 0.94702 0.82509 0.16326 0.0
H3066 H 0.93895 0.73743 0.17085 0.0
H3067 H 0.91322 0.73497 0.20194 0.0
H3068 H 0.93768 0.80902 0.22503 0.0
C3069 C 1.00237 0.81281 0.16402 0.0
C3070 C 0.01182 0.79815 0.14883 0.0
C3071 C 1.00033 0.77432 0.14272 0.0
C3072 C 0.97999 0.76515 0.15175 0.0
C3073 C 0.97125 0.78 0.16685 0.0
C3074 C 0.98207 0.80332 0.173 0.0
C3075 C 0.97016 0.8151 0.19113 0.0
C3076 C 0.98708 0.82608 0.21443 0.0
C3077 C 0.95908 0.83315 0.18018 0.0
C3078 C 0.95176 0.79453 0.19516 0.0
C3079 C 0.95231 0.77455 0.1805 0.0
C3080 C 0.93812 0.75301 0.18215 0.0
C3081 C 0.92357 0.75174 0.19978 0.0
C3082 C 0.92341 0.77185 0.21549 0.0
C3083 C 0.93722 0.79355 0.21278 0.0
H3084 H 0.53342 0.33309 0.16554 0.0
H3085 H 0.50765 0.28039 0.10275 0.0
H3086 H 0.51213 0.31078 0.0765 0.0
H3087 H 0.5048 0.3766 0.14018 0.0
H3088 H 0.52831 0.40075 0.15429 0.0
H3089 H 0.52141 0.37511 0.16851 0.0
H3090 H 0.56368 0.37097 0.16988 0.0
H3091 H 0.57072 0.3967 0.15604 0.0
H3092 H 0.5761 0.37 0.14248 0.0
H3093 H 0.52226 0.3464 0.05681 0.0
H3094 H 0.53934 0.38458 0.04536 0.0
H3095 H 0.55774 0.4143 0.1206 0.0
C3096 C 0.52858 0.32801 0.14627 0.0
C3097 C 0.5202 0.30437 0.13615 0.0
C3098 C 0.51393 0.29839 0.11089 0.0
C3099 C 0.51635 0.31554 0.09583 0.0
C3100 C 0.52459 0.33867 0.10631 0.0
C3101 C 0.53046 0.34498 0.13097 0.0
C3102 C 0.53946 0.37107 0.13753 0.0
C3103 C 0.52249 0.3815 0.15093 0.0
C3104 C 0.56395 0.37754 0.15234 0.0
C3105 C 0.53952 0.37816 0.11268 0.0
C3106 C 0.53015 0.35932 0.09492 0.0
C3107 C 0.52926 0.36136 0.07054 0.0
C3108 C 0.53883 0.38309 0.06417 0.0
C3109 C 0.54943 0.40228 0.08211 0.0
C3110 C 0.54928 0.39989 0.10661 0.0
H3111 H 0.97348 0.34041 0.33268 0.0
H3112 H 0.98377 0.27351 0.30521 0.0
H3113 H 0.942 0.26045 0.28799 0.0
H3114 H 0.92058 0.3218 0.35066 0.0
H3115 H 0.90788 0.34465 0.34145 0.0
H3116 H 0.93889 0.34974 0.34881 0.0
H3117 H 0.94399 0.36176 0.30698 0.0
H3118 H 0.91304 0.35725 0.29984 0.0
H3119 H 0.92835 0.34253 0.28025 0.0
H3120 H 0.89741 0.25261 0.28043 0.0
H3121 H 0.85588 0.25275 0.27645 0.0
H3122 H 0.87444 0.32591 0.30561 0.0
C3123 C 0.96718 0.32341 0.32194 0.0
C3124 C 0.98229 0.30828 0.31959 0.0
C3125 C 0.97297 0.28577 0.30644 0.0
C3126 C 0.94908 0.27809 0.29694 0.0
C3127 C 0.93455 0.29318 0.30041 0.0
C3128 C 0.94345 0.31565 0.31198 0.0
C3129 C 0.92413 0.32831 0.31385 0.0
C3130 C 0.92281 0.33661 0.34026 0.0
C3131 C 0.92759 0.34867 0.29935 0.0
C3132 C 0.90278 0.30924 0.3024 0.0
C3133 C 0.90917 0.28903 0.29495 0.0
C3134 C 0.89239 0.26853 0.28572 0.0
C3135 C 0.86871 0.26873 0.28371 0.0
C3136 C 0.86161 0.28934 0.2905 0.0
C3137 C 0.87911 0.30991 0.29988 0.0
H3138 H 0.02474 0.70247 0.62338 0.0
H3139 H 0.01215 0.66266 0.68201 0.0
H3140 H 0.01348 0.62748 0.65618 0.0
H3141 H 0.98985 0.65431 0.57545 0.0
H3142 H 1.00891 0.66085 0.55365 0.0
H3143 H 1.00582 0.68376 0.57578 0.0
H3144 H 0.05019 0.69504 0.58965 0.0
H3145 H 0.05337 0.67223 0.56755 0.0
H3146 H 0.06463 0.6733 0.59881 0.0
H3147 H 0.01352 0.59635 0.62505 0.0
H3148 H 0.01767 0.57007 0.59117 0.0
H3149 H 0.03538 0.62773 0.55092 0.0
C3150 C 0.02202 0.68628 0.63065 0.0
C3151 C 0.01807 0.68557 0.65496 0.0
C3152 C 0.01489 0.66395 0.66363 0.0
C3153 C 0.01562 0.64371 0.64902 0.0
C3154 C 0.01947 0.64494 0.62544 0.0
C3155 C 0.0227 0.6655 0.61607 0.0
C3156 C 0.02685 0.66121 0.58989 0.0
C3157 C 1.00667 0.6653 0.57268 0.0
C3158 C 0.05016 0.67635 0.58628 0.0
C3159 C 0.02683 0.6354 0.5868 0.0
C3160 C 0.02157 0.62656 0.60745 0.0
C3161 C 0.01831 0.60316 0.60902 0.0
C3162 C 0.02097 0.58829 0.58934 0.0
C3163 C 0.02829 0.59657 0.56825 0.0
C3164 C 0.03071 0.62067 0.56686 0.0
H3165 H 0.65304 0.85117 0.83426 0.0
H3166 H 0.60269 0.78504 0.81366 0.0
H3167 H 0.63257 0.76823 0.79668 0.0
H3168 H 0.68276 0.84716 0.78096 0.0
H3169 H 0.71106 0.86084 0.79769 0.0
H3170 H 0.68572 0.8682 0.80736 0.0
H3171 H 0.69773 0.85804 0.849 0.0
H3172 H 0.72245 0.84876 0.84013 0.0
H3173 H 0.70089 0.82914 0.85201 0.0
H3174 H 0.66927 0.75809 0.78292 0.0
H3175 H 0.70742 0.75593 0.7728 0.0
H3176 H 0.7351 0.8286 0.80199 0.0
C3177 C 0.64808 0.83321 0.82586 0.0
C3178 C 0.62503 0.81961 0.82531 0.0
C3179 C 0.61981 0.79611 0.8142 0.0
C3180 C 0.63685 0.78633 0.80455 0.0
C3181 C 0.65932 0.80018 0.80564 0.0
C3182 C 0.66485 0.82324 0.81575 0.0
C3183 C 0.69039 0.83428 0.81499 0.0
C3184 C 0.69261 0.8538 0.79934 0.0
C3185 C 0.70363 0.84312 0.84057 0.0
C3186 C 0.6986 0.81389 0.80321 0.0
C3187 C 0.6803 0.79439 0.79788 0.0
C3188 C 0.68351 0.77342 0.787 0.0
C3189 C 0.70559 0.77235 0.78128 0.0
C3190 C 0.72492 0.79196 0.78637 0.0
C3191 C 0.72106 0.81311 0.79764 0.0
H3192 H 0.49074 0.49344 0.68576 0.0
H3193 H 0.46733 0.55651 0.70068 0.0
H3194 H 0.48031 0.56923 0.66356 0.0
H3195 H 0.54158 0.51745 0.66247 0.0
H3196 H 0.53823 0.49317 0.63915 0.0
H3197 H 0.52649 0.48878 0.66646 0.0
H3198 H 0.48576 0.47011 0.64165 0.0
H3199 H 0.49747 0.47437 0.61426 0.0
H3200 H 0.4732 0.48596 0.62056 0.0
H3201 H 0.49545 0.57471 0.62397 0.0
H3202 H 0.51243 0.57285 0.58624 0.0
H3203 H 0.52741 0.50712 0.59821 0.0
C3204 C 0.48841 0.50998 0.68131 0.0
C3205 C 0.47815 0.52404 0.69634 0.0
C3206 C 0.47516 0.54542 0.68957 0.0
C3207 C 0.48247 0.55279 0.66847 0.0
C3208 C 0.49259 0.53853 0.65413 0.0
C3209 C 0.49545 0.51752 0.66024 0.0
C3210 C 0.50661 0.50531 0.64168 0.0
C3211 C 0.5296 0.50093 0.65313 0.0
C3212 C 0.48976 0.48259 0.62878 0.0
C3213 C 0.51052 0.52314 0.6247 0.0
C3214 C 0.50183 0.54196 0.63187 0.0
C3215 C 0.50241 0.5601 0.61832 0.0
C3216 C 0.51202 0.5589 0.59692 0.0
C3217 C 0.5214 0.53999 0.58957 0.0
C3218 C 0.52074 0.52198 0.60373 0.0
H3219 H 0.78079 0.15856 0.97651 0.0
H3220 H 0.75744 0.20305 0.02888 0.0
H3221 H 0.76157 0.23365 0.00301 0.0
H3222 H 0.81983 0.20827 0.95076 0.0
H3223 H 0.81106 0.19236 0.92076 0.0
H3224 H 0.81382 0.17703 0.94619 0.0
H3225 H 0.77144 0.15273 0.93337 0.0
H3226 H 0.76885 0.16757 0.90786 0.0
H3227 H 0.74844 0.16749 0.92875 0.0
H3228 H 0.75979 0.25506 0.96995 0.0
H3229 H 0.74565 0.26286 0.92977 0.0
H3230 H 0.76851 0.20478 0.89684 0.0
C3231 C 0.77744 0.17516 0.98264 0.0
C3232 C 0.76918 0.17898 0.00448 0.0
C3233 C 0.76404 0.20027 0.01209 0.0
C3234 C 0.76667 0.21778 -0.00228 0.0
C3235 C 0.77444 0.21358 0.97585 0.0
C3236 C 0.77959 0.1927 0.96819 0.0
C3237 C 0.78283 0.19074 0.94205 0.0
C3238 C 0.80841 0.19219 0.93981 0.0
C3239 C 0.76692 0.16833 0.92716 0.0
C3240 C 0.77585 0.21237 0.93556 0.0
C3241 C 0.7726 0.22601 0.95572 0.0
C3242 C 0.76295 0.24504 0.9541 0.0
C3243 C 0.75497 0.24937 0.93129 0.0
C3244 C 0.75651 0.23457 0.91068 0.0
C3245 C 0.76805 0.21665 0.91263 0.0
H3246 H 0.13594 0.58151 0.17745 0.0
H3247 H 0.15611 0.516 0.1721 0.0
H3248 H 0.14158 0.50851 0.12879 0.0
H3249 H 0.08499 0.56177 0.14799 0.0
H3250 H 0.08249 0.58571 0.13202 0.0
H3251 H 0.10216 0.59072 0.15961 0.0
H3252 H 0.13615 0.60888 0.13829 0.0
H3253 H 0.11646 0.60397 0.11036 0.0
H3254 H 0.14207 0.59274 0.11188 0.0
H3255 H 0.1153 0.50217 0.09171 0.0
H3256 H 0.07979 0.49846 0.06266 0.0
H3257 H 0.07589 0.5673 0.09167 0.0
C3258 C 0.13793 0.56595 0.16696 0.0
C3259 C 0.14666 0.54917 0.17796 0.0
C3260 C 0.14911 0.52897 0.16391 0.0
C3261 C 0.1413 0.52475 0.13924 0.0
C3262 C 0.13144 0.54104 0.12905 0.0
C3263 C 0.13001 0.56146 0.14243 0.0
C3264 C 0.11422 0.57359 0.12882 0.0
C3265 C 0.09483 0.57816 0.14294 0.0
C3266 C 0.12806 0.59613 0.12192 0.0
C3267 C 0.10495 0.55546 0.10704 0.0
C3268 C 0.11585 0.53731 0.10688 0.0
C3269 C 0.10743 0.51673 0.09082 0.0
C3270 C 0.08729 0.51463 0.07465 0.0
C3271 C 0.07637 0.53314 0.07478 0.0
C3272 C 0.08503 0.5536 0.09097 0.0
H3273 H 0.778 0.8203 0.45811 0.0
H3274 H 0.82523 0.88806 0.46534 0.0
H3275 H 0.82817 0.88154 0.42206 0.0
H3276 H 0.80221 0.78902 0.41686 0.0
H3277 H 0.77532 0.77288 0.39856 0.0
H3278 H 0.77584 0.78323 0.42979 0.0
H3279 H 0.74385 0.80331 0.41773 0.0
H3280 H 0.74338 0.79525 0.38596 0.0
H3281 H 0.74855 0.82539 0.39875 0.0
H3282 H 0.82856 0.86648 0.37894 0.0
H3283 H 0.82289 0.84564 0.33748 0.0
H3284 H 0.77447 0.78789 0.35704 0.0
C3285 C 0.78852 0.83389 0.45035 0.0
C3286 C 0.80127 0.85478 0.46491 0.0
C3287 C 0.81502 0.87215 0.45433 0.0
C3288 C 0.81693 0.86851 0.42982 0.0
C3289 C 0.80453 0.84759 0.41597 0.0
C3290 C 0.79012 0.83078 0.42566 0.0
C3291 C 0.77816 0.81018 0.40649 0.0
C3292 C 0.78321 0.78749 0.41335 0.0
C3293 C 0.75192 0.80839 0.40191 0.0
C3294 C 0.78943 0.81728 0.385 0.0
C3295 C 0.80435 0.83909 0.39085 0.0
C3296 C 0.81684 0.84945 0.37413 0.0
C3297 C 0.81374 0.83741 0.35072 0.0
C3298 C 0.79875 0.81502 0.34435 0.0
C3299 C 0.7864 0.80484 0.36169 0.0
H3300 H 0.49219 0.48985 0.8353 0.0
H3301 H 0.48048 0.5582 0.82966 0.0
H3302 H 0.49456 0.57013 0.87322 0.0
H3303 H 0.47252 0.48631 0.89302 0.0
H3304 H 0.49311 0.47045 0.90355 0.0
H3305 H 0.48279 0.46764 0.87184 0.0
H3306 H 0.5252 0.47968 0.86395 0.0
H3307 H 0.53566 0.48287 0.89566 0.0
H3308 H 0.5438 0.50681 0.87936 0.0
H3309 H 0.50869 0.57425 0.91759 0.0
H3310 H 0.52109 0.57009 0.9597 0.0
H3311 H 0.52413 0.49932 0.93698 0.0
C3312 C 0.49293 0.50744 0.84317 0.0
C3313 C 0.48559 0.52324 0.82896 0.0
C3314 C 0.48618 0.54587 0.84011 0.0
C3315 C 0.49415 0.5528 0.86485 0.0
C3316 C 0.50122 0.53681 0.87833 0.0
C3317 C 0.5005 0.51453 0.86795 0.0
C3318 C 0.50805 0.50041 0.88674 0.0
C3319 C 0.48793 0.47999 0.88891 0.0
C3320 C 0.52946 0.49195 0.88109 0.0
C3321 C 0.51382 0.51842 0.90921 0.0
C3322 C 0.50948 0.53921 0.90394 0.0
C3323 C 0.5123 0.5581 0.92184 0.0
C3324 C 0.51939 0.55558 0.94573 0.0
C3325 C 0.52392 0.53448 0.95165 0.0
C3326 C 0.52137 0.51577 0.93303 0.0
H3327 H 0.76566 0.20631 0.11156 0.0
H3328 H 0.79778 0.15291 0.13565 0.0
H3329 H 0.80785 0.17521 0.1769 0.0
H3330 H 0.806 0.25531 0.15038 0.0
H3331 H 0.7832 0.26996 0.15423 0.0
H3332 H 0.78177 0.25104 0.12664 0.0
H3333 H 0.74116 0.22752 0.1323 0.0
H3334 H 0.74265 0.24601 0.16008 0.0
H3335 H 0.73792 0.21508 0.15957 0.0
H3336 H 0.81685 0.20637 0.21456 0.0
H3337 H 0.81845 0.2398 0.2457 0.0
H3338 H 0.77168 0.26481 0.19684 0.0
C3339 C 0.77493 0.19923 0.12537 0.0
C3340 C 0.78092 0.178 0.12065 0.0
C3341 C 0.7932 0.16937 0.13912 0.0
C3342 C 0.79898 0.18185 0.16245 0.0
C3343 C 0.79221 0.20261 0.16653 0.0
C3344 C 0.78037 0.21105 0.14842 0.0
C3345 C 0.77368 0.23285 0.15716 0.0
C3346 C 0.78695 0.2535 0.14648 0.0
C3347 C 0.74729 0.23017 0.15198 0.0
C3348 C 0.78225 0.23465 0.18342 0.0
C3349 C 0.79398 0.2179 0.18852 0.0
C3350 C 0.80653 0.21871 0.21115 0.0
C3351 C 0.80674 0.23712 0.22895 0.0
C3352 C 0.793 0.25288 0.22422 0.0
C3353 C 0.78093 0.2518 0.2012 0.0
H3354 H 0.12368 0.51858 0.3063 0.0
H3355 H 0.18881 0.57029 0.31776 0.0
H3356 H 0.18172 0.58464 0.35784 0.0
H3357 H 0.09077 0.5468 0.32439 0.0
H3358 H 0.0739 0.52825 0.34203 0.0
H3359 H 0.08762 0.5158 0.31934 0.0
H3360 H 0.10948 0.49668 0.35042 0.0
H3361 H 0.09515 0.50842 0.37336 0.0
H3362 H 0.12633 0.51409 0.3776 0.0
H3363 H 0.1621 0.60152 0.38781 0.0
H3364 H 0.13346 0.616 0.40938 0.0
H3365 H 0.08148 0.5527 0.38039 0.0
C3366 C 0.13704 0.53177 0.31812 0.0
C3367 C 0.15682 0.54312 0.30945 0.0
C3368 C 0.17384 0.561 0.32459 0.0
C3369 C 0.16994 0.56929 0.34738 0.0
C3370 C 0.14939 0.55887 0.35496 0.0
C3371 C 0.13367 0.53972 0.34128 0.0
C3372 C 0.11156 0.53386 0.35201 0.0
C3373 C 0.08972 0.53107 0.33331 0.0
C3374 C 0.11057 0.51197 0.36407 0.0
C3375 C 0.11556 0.55513 0.37069 0.0
C3376 C 0.13794 0.5687 0.37303 0.0
C3377 C 0.14483 0.59067 0.38686 0.0
C3378 C 0.12846 0.59895 0.39863 0.0
C3379 C 0.1055 0.58547 0.39596 0.0
C3380 C 0.09906 0.56318 0.38235 0.0
H3381 H 0.81305 0.8745 0.62311 0.0
H3382 H 0.76987 0.81481 0.57473 0.0
H3383 H 0.75669 0.7971 0.60946 0.0
H3384 H 0.83326 0.84339 0.66619 0.0
H3385 H 0.83325 0.86367 0.69233 0.0
H3386 H 0.83659 0.87378 0.66396 0.0
H3387 H 0.80132 0.89189 0.66638 0.0
H3388 H 0.79792 0.88182 0.69482 0.0
H3389 H 0.77396 0.87394 0.6704 0.0
H3390 H 0.74791 0.78605 0.64904 0.0
H3391 H 0.74918 0.77894 0.69089 0.0
H3392 H 0.80254 0.84232 0.71443 0.0
C3393 C 0.80028 0.85804 0.61996 0.0
C3394 C 0.79183 0.84623 0.59627 0.0
C3395 C 0.77599 0.82429 0.59271 0.0
C3396 C 0.76842 0.81415 0.61232 0.0
C3397 C 0.77711 0.82606 0.63546 0.0
C3398 C 0.79287 0.84741 0.63949 0.0
C3399 C 0.80117 0.85522 0.66635 0.0
C3400 C 0.82764 0.85924 0.67256 0.0
C3401 C 0.79312 0.87702 0.67499 0.0
C3402 C 0.78853 0.83441 0.67656 0.0
C3403 C 0.7741 0.8183 0.65842 0.0
C3404 C 0.7598 0.79817 0.66326 0.0
C3405 C 0.7611 0.79386 0.68709 0.0
C3406 C 0.77748 0.8087 0.70577 0.0
C3407 C 0.79056 0.82993 0.70052 0.0
H3408 H 0.76251 0.49889 0.49607 0.0
H3409 H 0.72884 0.42581 0.48815 0.0
H3410 H 0.69173 0.43531 0.49328 0.0
H3411 H 0.74118 0.51409 0.54339 0.0
H3412 H 0.73697 0.54188 0.53713 0.0
H3413 H 0.75816 0.52998 0.52384 0.0
H3414 H 0.73849 0.53305 0.48137 0.0
H3415 H 0.7171 0.54519 0.49455 0.0
H3416 H 0.70805 0.5198 0.4719 0.0
H3417 H 0.66266 0.45124 0.50966 0.0
H3418 H 0.64401 0.47272 0.53808 0.0
H3419 H 0.69601 0.5358 0.53749 0.0
C3420 C 0.74692 0.48508 0.49412 0.0
C3421 C 0.74803 0.4618 0.49133 0.0
C3422 C 0.7279 0.44381 0.48999 0.0
C3423 C 0.70678 0.44905 0.49264 0.0
C3424 C 0.70626 0.47231 0.49673 0.0
C3425 C 0.72581 0.49011 0.49741 0.0
C3426 C 0.72209 0.51327 0.50741 0.0
C3427 C 0.74068 0.52547 0.52923 0.0
C3428 C 0.72137 0.52875 0.48763 0.0
C3429 C 0.69844 0.50534 0.5146 0.0
C3430 C 0.68916 0.48182 0.50722 0.0
C3431 C 0.66925 0.46978 0.51489 0.0
C3432 C 0.65894 0.48192 0.53115 0.0
C3433 C 0.66886 0.50559 0.53957 0.0
C3434 C 0.68821 0.51767 0.53069 0.0
H3435 H 0.21291 0.12741 0.52721 0.0
H3436 H 0.18787 0.16487 0.4725 0.0
H3437 H 0.14941 0.13793 0.46666 0.0
H3438 H 0.17554 0.06796 0.49878 0.0
H3439 H 0.17037 0.05947 0.52749 0.0
H3440 H 0.19737 0.07907 0.52497 0.0
H3441 H 0.1903 0.10905 0.55833 0.0
H3442 H 0.16331 0.08959 0.56081 0.0
H3443 H 0.16374 0.11861 0.55474 0.0
H3444 H 0.11352 0.11083 0.46917 0.0
H3445 H 0.08043 0.08443 0.48015 0.0
H3446 H 0.1263 0.06373 0.53468 0.0
C3447 C 0.19945 0.12936 0.51352 0.0
C3448 C 0.20332 0.14805 0.50008 0.0
C3449 C 0.18522 0.15061 0.48284 0.0
C3450 C 0.16336 0.13534 0.47934 0.0
C3451 C 0.15979 0.11754 0.49324 0.0
C3452 C 0.1772 0.11427 0.50995 0.0
C3453 C 0.16769 0.09486 0.52388 0.0
C3454 C 0.17839 0.07411 0.51846 0.0
C3455 C 0.17149 0.10357 0.55105 0.0
C3456 C 0.14211 0.08878 0.51321 0.0
C3457 C 0.13828 0.1018 0.49518 0.0
C3458 C 0.11628 0.10031 0.48306 0.0
C3459 C 0.09751 0.08526 0.48962 0.0
C3460 C 0.10066 0.07193 0.50839 0.0
C3461 C 0.12337 0.07348 0.52013 0.0
H3462 H 0.16991 0.98868 0.75957 0.0
H3463 H 0.20309 0.01153 0.83378 0.0
H3464 H 0.22519 0.98138 0.83022 0.0
H3465 H 0.16632 0.92636 0.76006 0.0
H3466 H 0.17218 0.92199 0.72965 0.0
H3467 H 0.15736 0.94393 0.73864 0.0
H3468 H 0.18843 0.97511 0.72454 0.0
H3469 H 0.20314 0.95322 0.7154 0.0
H3470 H 0.21863 0.97867 0.73625 0.0
H3471 H 0.24549 0.95061 0.81783 0.0
H3472 H 0.2639 0.92274 0.79678 0.0
H3473 H 0.21729 0.92004 0.73086 0.0
C3474 C 0.18162 0.98721 0.77518 0.0
C3475 C 0.18475 1.00243 0.79697 0.0
C3476 C 0.20036 1.00001 0.81692 0.0
C3477 C 0.21292 0.98289 0.81511 0.0
C3478 C 0.20951 0.96826 0.79331 0.0
C3479 C 0.19423 0.97022 0.77371 0.0
C3480 C 0.19468 0.9532 0.75194 0.0
C3481 C 0.17124 0.93531 0.74465 0.0
C3482 C 0.20164 0.96582 0.7308 0.0
C3483 C 0.21336 0.9421 0.76207 0.0
C3484 C 0.22136 0.95066 0.7861 0.0
C3485 C 0.23925 0.94364 0.79907 0.0
C3486 C 0.24957 0.92782 0.787 0.0
C3487 C 0.24213 0.91951 0.76218 0.0
C3488 C 0.22348 0.92639 0.74977 0.0
H3489 H 0.37614 0.9972 0.04426 0.0
H3490 H 0.37211 0.93979 0.98798 0.0
H3491 H 0.4119 0.95439 0.98408 0.0
H3492 H 0.41686 0.04015 0.01585 0.0
H3493 H 0.43259 0.05517 0.04462 0.0
H3494 H 0.40222 0.04125 0.04175 0.0
H3495 H 0.41257 0.01906 0.0763 0.0
H3496 H 0.44332 0.0309 0.07808 0.0
H3497 H 0.43158 0.99995 0.07277 0.0
H3498 H 0.45126 0.97081 0.98772 0.0
H3499 H 0.48892 0.99782 0.99022 0.0
H3500 H 0.47199 0.0455 0.04418 0.0
C3501 C 0.38365 0.98827 0.03075 0.0
C3502 C 0.37087 0.96752 0.0162 0.0
C3503 C 0.38109 0.95599 -0.00117 0.0
C3504 C 0.40405 0.96388 0.99678 0.0
C3505 C 0.41662 0.98334 0.01228 0.0
C3506 C 0.40693 0.99618 0.02817 0.0
C3507 C 0.42502 0.01727 0.04156 0.0
C3508 C 0.4188 0.03979 0.03558 0.0
C3509 C 0.42833 0.01677 0.0688 0.0
C3510 C 0.44612 0.01355 0.03084 0.0
C3511 C 0.4406 0.99341 0.01447 0.0
C3512 C 0.45612 0.98642 0.00082 0.0
C3513 C 0.47766 1.00134 0.00274 0.0
C3514 C 0.48343 0.02244 0.01829 0.0
C3515 C 0.46793 0.0287 0.03303 0.0
H3516 H 0.8259 0.55141 0.80038 0.0
H3517 H 0.87476 0.59821 0.85721 0.0
H3518 H 0.85884 0.63075 0.84598 0.0
H3519 H 0.83701 0.5822 0.76008 0.0
H3520 H 0.80885 0.57736 0.74216 0.0
H3521 H 0.81501 0.55608 0.76011 0.0
H3522 H 0.78036 0.55828 0.78262 0.0
H3523 H 0.77312 0.57876 0.76378 0.0
H3524 H 0.7773 0.58607 0.79606 0.0
H3525 H 0.84956 0.65812 0.82051 0.0
H3526 H 0.8409 0.67901 0.78693 0.0
H3527 H 0.79811 0.61487 0.74527 0.0
C3528 C 0.83174 0.56823 0.81157 0.0
C3529 C 0.85098 0.57264 0.82981 0.0
C3530 C 0.85947 0.59473 0.84364 0.0
C3531 C 0.85066 0.61326 0.83717 0.0
C3532 C 0.83344 0.60898 0.81707 0.0
C3533 C 0.82351 0.58683 0.80481 0.0
C3534 C 0.80941 0.5873 0.78086 0.0
C3535 C 0.81812 0.57502 0.7596 0.0
C3536 C 0.7835 0.57701 0.78085 0.0
C3537 C 0.81446 0.61308 0.78076 0.0
C3538 C 0.82805 0.62527 0.80188 0.0
C3539 C 0.83798 0.64894 0.8044 0.0
C3540 C 0.83321 0.66056 0.78516 0.0
C3541 C 0.81858 0.64846 0.76379 0.0
C3542 C 0.80922 0.62446 0.76153 0.0
H3543 H 0.82501 0.6202 0.98075 0.0
H3544 H 0.84224 0.67835 0.03881 0.0
H3545 H 0.87636 0.66541 0.05516 0.0
H3546 H 0.8378 0.57921 0.01448 0.0
H3547 H 0.85043 0.56413 0.99227 0.0
H3548 H 0.82932 0.57976 0.98291 0.0
H3549 H 0.85844 0.60357 0.95951 0.0
H3550 H 0.87972 0.588 0.96893 0.0
H3551 H 0.88674 0.61924 0.97503 0.0
H3552 H 0.90502 0.64368 0.06856 0.0
H3553 H 0.92648 0.61404 0.07779 0.0
H3554 H 0.89199 0.57053 0.01092 0.0
C3555 C 0.83626 0.63049 0.99658 0.0
C3556 C 0.83091 0.65029 0.00845 0.0
C3557 C 0.84592 0.66312 0.02934 0.0
C3558 C 0.86547 0.656 0.03873 0.0
C3559 C 0.86999 0.63617 0.02692 0.0
C3560 C 0.85596 0.62366 0.00619 0.0
C3561 C 0.86372 0.60194 -0.00184 0.0
C3562 C 0.84415 0.57998 0.9969 0.0
C3563 C 0.87269 0.60327 0.97397 0.0
C3564 C 0.88331 0.60351 0.01841 0.0
C3565 C 0.88695 0.62366 0.03455 0.0
C3566 C 0.90269 0.62807 0.05584 0.0
C3567 C 0.91468 0.61119 0.061 0.0
C3568 C 0.91076 0.59032 0.04495 0.0
C3569 C 0.89537 0.58663 0.02318 0.0
H3570 H 0.19288 0.11672 0.76187 0.0
H3571 H 0.18783 0.12633 0.83778 0.0
H3572 H 0.21772 0.16326 0.84377 0.0
H3573 H 0.25665 0.14509 0.76731 0.0
H3574 H 0.25217 0.15858 0.74083 0.0
H3575 H 0.23349 0.13096 0.74308 0.0
H3576 H 0.19764 0.14815 0.73529 0.0
H3577 H 0.21626 0.17577 0.73325 0.0
H3578 H 0.19615 0.17385 0.7545 0.0
H3579 H 0.24221 0.20149 0.84049 0.0
H3580 H 0.26278 0.23811 0.82847 0.0
H3581 H 0.25399 0.2039 0.75504 0.0
C3582 C 0.19896 0.12617 0.77987 0.0
C3583 C 0.18874 0.11858 0.79958 0.0
C3584 C 0.19602 0.13177 0.8227 0.0
C3585 C 0.21288 0.15274 0.82622 0.0
C3586 C 0.22219 0.16024 0.80637 0.0
C3587 C 0.21575 0.14731 0.78364 0.0
C3588 C 0.2267 0.16058 0.76503 0.0
C3589 C 0.24324 0.14805 0.75338 0.0
C3590 C 0.20807 0.16483 0.74591 0.0
C3591 C 0.23989 0.18303 0.78081 0.0
C3592 C 0.23695 0.18246 0.80457 0.0
C3593 C 0.2452 0.20198 0.8221 0.0
C3594 C 0.2567 0.22266 0.81514 0.0
C3595 C 0.26012 0.22347 0.79102 0.0
C3596 C 0.25202 0.20337 0.77373 0.0
H3597 H 0.34867 0.95659 0.32193 0.0
H3598 H 0.32492 0.96461 0.24893 0.0
H3599 H 0.29703 0.92631 0.24344 0.0
H3600 H 0.35746 0.90661 0.30277 0.0
H3601 H 0.35209 0.89237 0.32856 0.0
H3602 H 0.36161 0.92339 0.33223 0.0
H3603 H 0.32551 0.92849 0.35145 0.0
H3604 H 0.31695 0.89738 0.34947 0.0
H3605 H 0.29695 0.91277 0.33654 0.0
H3606 H 0.27869 0.88465 0.2431 0.0
H3607 H 0.27167 0.84299 0.24776 0.0
H3608 H 0.31552 0.8611 0.31731 0.0
C3609 C 0.33619 0.95092 0.30552 0.0
C3610 C 0.3379 0.9634 0.28612 0.0
C3611 C 0.32289 0.95529 0.26413 0.0
C3612 C 0.30724 0.93357 0.2609 0.0
C3613 C 0.30771 0.92037 0.27963 0.0
C3614 C 0.32196 0.92876 0.30158 0.0
C3615 C 0.325 0.9096 0.31587 0.0
C3616 C 0.35053 0.90791 0.32007 0.0
C3617 C 0.3155 0.91223 0.33974 0.0
C3618 C 0.31025 0.88922 0.29869 0.0
C3619 C 0.29998 0.89567 0.27814 0.0
C3620 C 0.28636 0.87942 0.25924 0.0
C3621 C 0.28271 0.85599 0.26186 0.0
C3622 C 0.29357 0.84954 0.28266 0.0
C3623 C 0.30744 0.8661 0.30117 0.0
H3624 H 0.55462 0.375 0.59287 0.0
H3625 H 0.59138 0.35759 0.5347 0.0
H3626 H 0.58822 0.39363 0.51921 0.0
H3627 H 0.51496 0.40265 0.55744 0.0
H3628 H 0.51578 0.42548 0.58151 0.0
H3629 H 0.51999 0.39784 0.58827 0.0
H3630 H 0.55909 0.41841 0.61491 0.0
H3631 H 0.55489 0.44607 0.60823 0.0
H3632 H 0.58087 0.43741 0.60237 0.0
H3633 H 0.58171 0.43209 0.5091 0.0
H3634 H 0.57323 0.47039 0.50625 0.0
H3635 H 0.54121 0.46619 0.57058 0.0
C3636 C 0.56185 0.37864 0.57675 0.0
C3637 C 0.57327 0.36268 0.56513 0.0
C3638 C 0.58256 0.36887 0.54422 0.0
C3639 C 0.58083 0.38956 0.53513 0.0
C3640 C 0.56975 0.40476 0.5469 0.0
C3641 C 0.56041 0.39971 0.56734 0.0
C3642 C 0.54984 0.41971 0.57654 0.0
C3643 C 0.52358 0.41089 0.57591 0.0
C3644 C 0.56189 0.43107 0.60203 0.0
C3645 C 0.55492 0.43668 0.55824 0.0
C3646 C 0.56629 0.42741 0.54123 0.0
C3647 C 0.57283 0.43942 0.5224 0.0
C3648 C 0.56791 0.46132 0.52086 0.0
C3649 C 0.55657 0.4717 0.53802 0.0
C3650 C 0.54992 0.45896 0.55704 0.0
H3651 H 0.44522 0.79889 0.39936 0.0
H3652 H 0.42492 0.72474 0.39986 0.0
H3653 H 0.38984 0.72203 0.37033 0.0
H3654 H 0.3875 0.80804 0.39573 0.0
H3655 H 0.39204 0.82993 0.3763 0.0
H3656 H 0.41615 0.82608 0.39651 0.0
H3657 H 0.43819 0.82011 0.3607 0.0
H3658 H 0.41417 0.82409 0.34043 0.0
H3659 H 0.42454 0.79814 0.33531 0.0
H3660 H 0.35556 0.72759 0.34263 0.0
H3661 H 0.32545 0.74056 0.31764 0.0
H3662 H 0.36747 0.81124 0.3332 0.0
C3663 C 0.43351 0.78205 0.39294 0.0
C3664 C 0.43799 0.76188 0.40175 0.0
C3665 C 0.42201 0.7403 0.39326 0.0
C3666 C 0.40199 0.73865 0.37649 0.0
C3667 C 0.39793 0.75878 0.36828 0.0
C3668 C 0.41329 0.78011 0.37613 0.0
C3669 C 0.40432 0.79913 0.36493 0.0
C3670 C 0.39973 0.81685 0.38453 0.0
C3671 C 0.42132 0.81107 0.34942 0.0
C3672 C 0.38166 0.78516 0.34944 0.0
C3673 C 0.3783 0.76194 0.35189 0.0
C3674 C 0.3582 0.74569 0.34043 0.0
C3675 C 0.34111 0.75324 0.32625 0.0
C3676 C 0.34408 0.77684 0.32309 0.0
C3677 C 0.36483 0.793 0.33479 0.0
H3678 H 0.05962 0.71782 0.03472 0.0
H3679 H 0.07697 0.7298 0.11251 0.0
H3680 H 0.07415 0.6881 0.11255 0.0
H3681 H 0.01674 0.66161 0.03383 0.0
H3682 H 0.02303 0.64822 0.00609 0.0
H3683 H 0.02653 0.67922 0.01164 0.0
H3684 H 0.06914 0.68537 0.00434 0.0
H3685 H 0.06571 0.6544 -0.00112 0.0
H3686 H 0.08855 0.67207 0.02166 0.0
H3687 H 0.06979 0.64452 0.10484 0.0
H3688 H 0.06259 0.60261 0.08973 0.0
H3689 H 0.04747 0.61647 0.01683 0.0
C3690 C 0.06279 0.71165 0.05175 0.0
C3691 C 0.06858 0.72762 0.07371 0.0
C3692 C 0.07231 0.71836 0.09546 0.0
C3693 C 0.07085 0.6945 0.09568 0.0
C3694 C 0.06514 0.67934 0.07399 0.0
C3695 C 0.06081 0.68742 0.05237 0.0
C3696 C 0.05385 0.66684 0.03183 0.0
C3697 C 0.02855 0.6638 0.02014 0.0
C3698 C 0.07031 0.66987 0.01307 0.0
C3699 C 0.05624 0.64634 0.04514 0.0
C3700 C 0.06242 0.65402 0.06953 0.0
C3701 C 0.06494 0.63842 0.08574 0.0
C3702 C 0.06085 0.61451 0.07699 0.0
C3703 C 0.05466 0.60599 0.0521 0.0
C3704 C 0.05247 0.62234 0.03597 0.0
H3705 H 0.06806 0.31411 0.88408 0.0
H3706 H 0.0665 0.24766 0.90838 0.0
H3707 H 0.1008 0.24474 0.88907 0.0
H3708 H 0.08672 0.29905 0.82597 0.0
H3709 H 0.10456 0.32785 0.827 0.0
H3710 H 0.07887 0.32371 0.8411 0.0
H3711 H 0.10348 0.34545 0.88165 0.0
H3712 H 0.12912 0.34977 0.8676 0.0
H3713 H 0.1282 0.33564 0.89402 0.0
H3714 H 0.13736 0.25058 0.86871 0.0
H3715 H 0.1728 0.26556 0.8511 0.0
H3716 H 0.14966 0.3278 0.84053 0.0
C3717 C 0.07472 0.29879 0.88514 0.0
C3718 C 0.06447 0.28109 0.89772 0.0
C3719 C 0.07389 0.2614 0.89871 0.0
C3720 C 0.09339 0.25956 0.88776 0.0
C3721 C 0.10317 0.27744 0.87562 0.0
C3722 C 0.09402 0.29662 0.8742 0.0
C3723 C 0.10812 0.31392 0.86098 0.0
C3724 C 0.0937 0.31627 0.83736 0.0
C3725 C 0.1178 0.33759 0.87703 0.0
C3726 C 0.12722 0.30205 0.85607 0.0
C3727 C 0.12394 0.2808 0.86419 0.0
C3728 C 0.13993 0.26712 0.86214 0.0
C3729 C 0.15994 0.27568 0.85205 0.0
C3730 C 0.16389 0.29781 0.84453 0.0
C3731 C 0.14704 0.31082 0.84617 0.0
H3732 H 0.5582 0.77525 0.93575 0.0
H3733 H 0.54775 0.74411 0.86116 0.0
H3734 H 0.54561 0.70541 0.87385 0.0
H3735 H 0.59274 0.73364 0.95962 0.0
H3736 H 0.57999 0.73434 0.98679 0.0
H3737 H 0.58527 0.75968 0.97191 0.0
H3738 H 0.54199 0.76062 0.96979 0.0
H3739 H 0.53666 0.73544 0.9846 0.0
H3740 H 0.51986 0.73517 0.95581 0.0
H3741 H 0.53696 0.66964 0.89474 0.0
H3742 H 0.52367 0.64102 0.92154 0.0
H3743 H 0.5415 0.69596 0.98235 0.0
C3744 C 0.55645 0.76038 0.92219 0.0
C3745 C 0.55353 0.76259 0.89754 0.0
C3746 C 0.55063 0.74277 0.88015 0.0
C3747 C 0.54931 0.72075 0.88723 0.0
C3748 C 0.55156 0.71902 0.91178 0.0
C3749 C 0.5556 0.73847 0.92899 0.0
C3750 C 0.55545 0.73198 0.95403 0.0
C3751 C 0.57981 0.74041 0.96897 0.0
C3752 C 0.53741 0.74135 0.96677 0.0
C3753 C 0.54871 0.7058 0.94815 0.0
C3754 C 0.54714 0.69853 0.92377 0.0
C3755 C 0.53887 0.67512 0.91391 0.0
C3756 C 0.53147 0.65895 0.92923 0.0
C3757 C 0.5322 0.66634 0.954 0.0
C3758 C 0.54153 0.6899 0.96358 0.0
H3759 H 0.11114 0.79496 0.73288 0.0
H3760 H 0.08797 0.72116 0.73528 0.0
H3761 H 0.1284 0.71852 0.74362 0.0
H3762 H 0.1636 0.79329 0.70658 0.0
H3763 H 0.18176 0.81903 0.72516 0.0
H3764 H 0.15091 0.816 0.7184 0.0
H3765 H 0.14859 0.82251 0.76388 0.0
H3766 H 0.17946 0.82567 0.77066 0.0
H3767 H 0.1599 0.80437 0.7832 0.0
H3768 H 0.17088 0.72219 0.74829 0.0
H3769 H 0.21318 0.73323 0.75523 0.0
H3770 H 0.2125 0.80557 0.75689 0.0
C3771 C 0.11463 0.77829 0.73519 0.0
C3772 C 0.09588 0.75816 0.73327 0.0
C3773 C 0.10158 0.73685 0.73672 0.0
C3774 C 0.12467 0.73511 0.74136 0.0
C3775 C 0.14256 0.75494 0.74315 0.0
C3776 C 0.13804 0.7763 0.74071 0.0
C3777 C 0.16114 0.79486 0.74496 0.0
C3778 C 0.16455 0.80649 0.72243 0.0
C3779 C 0.16233 0.81293 0.76698 0.0
C3780 C 0.17903 0.78043 0.74977 0.0
C3781 C 0.16764 0.75741 0.74819 0.0
C3782 C 0.17988 0.74032 0.75038 0.0
C3783 C 0.20423 0.74682 0.75485 0.0
C3784 C 0.21685 0.77029 0.75825 0.0
C3785 C 0.20376 0.78739 0.75515 0.0
H3786 H 0.02458 0.38432 0.41711 0.0
H3787 H 0.09528 0.39847 0.40228 0.0
H3788 H 0.10216 0.43869 0.42422 0.0
H3789 H 0.01549 0.44168 0.41054 0.0
H3790 H 0.99741 0.44109 0.43371 0.0
H3791 H 0.99832 0.41441 0.41589 0.0
H3792 H 1.00981 0.39789 0.45472 0.0
H3793 H 1.00891 0.42447 0.47262 0.0
H3794 H 0.03488 0.4139 0.47592 0.0
H3795 H 0.1005 0.47824 0.44938 0.0
H3796 H 0.09112 0.51071 0.47477 0.0
H3797 H 0.02204 0.4684 0.47371 0.0
C3798 C 0.04162 0.39578 0.41832 0.0
C3799 C 0.05946 0.388 0.40794 0.0
C3800 C 0.08128 0.4039 0.40985 0.0
C3801 C 0.08531 0.42678 0.42239 0.0
C3802 C 0.06728 0.43361 0.4327 0.0
C3803 C 0.04581 0.41841 0.43055 0.0
C3804 C 0.02909 0.42937 0.44311 0.0
C3805 C 1.00888 0.43178 0.42473 0.0
C3806 C 0.02017 0.41558 0.46276 0.0
C3807 C 0.04467 0.45291 0.45382 0.0
C3808 C 0.0665 0.45542 0.44723 0.0
C3809 C 0.08346 0.47622 0.45458 0.0
C3810 C 0.078 0.49462 0.46899 0.0
C3811 C 0.05597 0.49201 0.47647 0.0
C3812 C 0.03917 0.47082 0.46863 0.0
H3813 H 0.46557 0.26117 0.26517 0.0
H3814 H 0.4546 0.26048 0.18793 0.0
H3815 H 0.41522 0.26585 0.18969 0.0
H3816 H 0.40692 0.2324 0.2716 0.0
H3817 H 0.4059 0.25076 0.29881 0.0
H3818 H 0.4333 0.24623 0.292 0.0
H3819 H 0.44945 0.29062 0.29569 0.0
H3820 H 0.42204 0.29522 0.30245 0.0
H3821 H 0.43418 0.30715 0.27777 0.0
H3822 H 0.37563 0.26906 0.1989 0.0
H3823 H 0.3404 0.27351 0.21534 0.0
H3824 H 0.37606 0.27661 0.28757 0.0
C3825 C 0.45488 0.26217 0.24863 0.0
C3826 C 0.4636 0.2602 0.22625 0.0
C3827 C 0.44879 0.26194 0.20527 0.0
C3828 C 0.42617 0.26494 0.20608 0.0
C3829 C 0.41815 0.26683 0.22817 0.0
C3830 C 0.43215 0.26595 0.24921 0.0
C3831 C 0.41923 0.26961 0.27062 0.0
C3832 C 0.41616 0.24849 0.28405 0.0
C3833 C 0.43199 0.29197 0.28765 0.0
C3834 C 0.39573 0.27198 0.25823 0.0
C3835 C 0.39559 0.27013 0.23367 0.0
C3836 C 0.37574 0.27074 0.21814 0.0
C3837 C 0.35562 0.27321 0.22772 0.0
C3838 C 0.35503 0.27547 0.25284 0.0
C3839 C 0.37571 0.27511 0.2683 0.0
H3840 H 0.57563 0.55453 0.35235 0.0
H3841 H 0.63874 0.53015 0.35911 0.0
H3842 H 0.63294 0.52159 0.39999 0.0
H3843 H 0.58148 0.58259 0.41099 0.0
H3844 H 0.55121 0.57368 0.41374 0.0
H3845 H 0.55961 0.57618 0.38459 0.0
H3846 H 0.53722 0.5335 0.36931 0.0
H3847 H 0.52874 0.53089 0.39849 0.0
H3848 H 0.54369 0.51079 0.38532 0.0
H3849 H 0.62145 0.51865 0.44197 0.0
H3850 H 0.60437 0.51975 0.47964 0.0
H3851 H 0.54892 0.54595 0.44462 0.0
C3852 C 0.58808 0.54709 0.36229 0.0
C3853 C 0.60765 0.543 0.35247 0.0
C3854 C 0.6235 0.53322 0.36611 0.0
C3855 C 0.62039 0.52839 0.38941 0.0
C3856 C 0.60109 0.53301 0.39871 0.0
C3857 C 0.58503 0.54181 0.38536 0.0
C3858 C 0.56588 0.54546 0.39942 0.0
C3859 C 0.56449 0.571 0.40236 0.0
C3860 C 0.5425 0.5292 0.38742 0.0
C3861 C 0.57425 0.53848 0.42322 0.0
C3862 C 0.5944 0.53102 0.42244 0.0
C3863 C 0.60551 0.52422 0.44261 0.0
C3864 C 0.59574 0.52497 0.46399 0.0
C3865 C 0.57508 0.53258 0.46516 0.0
C3866 C 0.56441 0.5395 0.44437 0.0
H3867 H 0.29391 0.86197 0.04505 0.0
H3868 H 0.32411 0.93444 0.07255 0.0
H3869 H 0.32114 0.92654 0.11398 0.0
H3870 H 0.25756 0.84804 0.09613 0.0
H3871 H 0.26462 0.82024 0.09559 0.0
H3872 H 0.26098 0.8325 0.06813 0.0
H3873 H 0.30184 0.82871 0.06054 0.0
H3874 H 0.30555 0.81642 0.08768 0.0
H3875 H 0.32653 0.84188 0.08347 0.0
H3876 H 0.3234 0.91047 0.15111 0.0
H3877 H 0.336 0.88723 0.18104 0.0
H3878 H 0.30707 0.82442 0.13017 0.0
C3879 C 0.29886 0.87614 0.0599 0.0
C3880 C 0.30879 0.89871 0.05617 0.0
C3881 C 0.31616 0.91705 0.07554 0.0
C3882 C 0.31424 0.91276 0.09896 0.0
C3883 C 0.30507 0.89003 0.10244 0.0
C3884 C 0.2976 0.87195 0.08342 0.0
C3885 C 0.29364 0.84864 0.09207 0.0
C3886 C 0.26765 0.83665 0.08773 0.0
C3887 C 0.30775 0.83304 0.08026 0.0
C3888 C 0.30255 0.85638 0.11857 0.0
C3889 C 0.30768 0.88031 0.12438 0.0
C3890 C 0.31893 0.89173 0.14702 0.0
C3891 C 0.32615 0.87848 0.16382 0.0
C3892 C 0.32256 0.85426 0.15751 0.0
C3893 C 0.30981 0.84298 0.13513 0.0
H3894 H 0.92858 0.49431 0.87245 0.0
H3895 H 0.9405 0.56738 0.8648 0.0
H3896 H 0.96755 0.57743 0.90309 0.0
H3897 H 0.93306 0.50235 0.93871 0.0
H3898 H 0.9469 0.4786 0.94009 0.0
H3899 H 0.92627 0.47863 0.91417 0.0
H3900 H 0.95805 0.47336 0.88782 0.0
H3901 H 0.97866 0.47472 0.91422 0.0
H3902 H 0.98538 0.49473 0.89317 0.0
H3903 H 0.99381 0.57928 0.94094 0.0
H3904 H 0.01877 0.57264 0.97636 0.0
H3905 H 0.99238 0.49829 0.95616 0.0
C3906 C 0.93656 0.51246 0.87899 0.0
C3907 C 0.93253 0.53009 0.86588 0.0
C3908 C 0.94336 0.55365 0.87482 0.0
C3909 C 0.95869 0.55952 0.89646 0.0
C3910 C 0.96271 0.5416 0.90866 0.0
C3911 C 0.95196 0.51859 0.9003 0.0
C3912 C 0.96025 0.50253 0.91601 0.0
C3913 C 0.94042 0.4898 0.92796 0.0
C3914 C 0.97125 0.48534 0.90196 0.0
C3915 C 0.978 0.52009 0.93405 0.0
C3916 C 0.97872 0.54257 0.92987 0.0
C3917 C 0.9933 0.56183 0.94461 0.0
C3918 C 1.00723 0.55793 0.96454 0.0
C3919 C 1.00657 0.53502 0.96885 0.0
C3920 C 0.99246 0.51589 0.95321 0.0
H3921 H 0.26125 0.20349 0.59605 0.0
H3922 H 0.306 0.26421 0.57718 0.0
H3923 H 0.31577 0.2816 0.62017 0.0
H3924 H 0.23788 0.23468 0.64025 0.0
H3925 H 0.23597 0.21327 0.66031 0.0
H3926 H 0.23427 0.20452 0.62851 0.0
H3927 H 0.26855 0.18519 0.63696 0.0
H3928 H 0.27019 0.19391 0.66879 0.0
H3929 H 0.29548 0.20211 0.65455 0.0
H3930 H 0.3179 0.29393 0.66439 0.0
H3931 H 0.31331 0.29989 0.70732 0.0
H3932 H 0.2673 0.23134 0.69839 0.0
C3933 C 0.27348 0.22022 0.60115 0.0
C3934 C 0.28319 0.23249 0.58346 0.0
C3935 C 0.2986 0.25457 0.59056 0.0
C3936 C 0.30421 0.26453 0.6149 0.0
C3937 C 0.29403 0.25228 0.63193 0.0
C3938 C 0.27902 0.23057 0.62543 0.0
C3939 C 0.2693 0.22184 0.64716 0.0
C3940 C 0.24278 0.21838 0.64385 0.0
C3941 C 0.27631 0.19943 0.65215 0.0
C3942 C 0.28122 0.242 0.66683 0.0
C3943 C 0.29535 0.25939 0.65758 0.0
C3944 C 0.30713 0.28031 0.67187 0.0
C3945 C 0.30439 0.28359 0.69617 0.0
C3946 C 0.29025 0.26598 0.70607 0.0
C3947 C 0.2786 0.24486 0.69127 0.0
H3948 H 0.61199 0.53193 0.20277 0.0
H3949 H 0.56636 0.57318 0.2287 0.0
H3950 H 0.54826 0.57222 0.18731 0.0
H3951 H 0.62215 0.55799 0.15093 0.0
H3952 H 0.62068 0.5318 0.1309 0.0
H3953 H 0.62933 0.53331 0.16276 0.0
H3954 H 0.59673 0.4968 0.16312 0.0
H3955 H 0.58804 0.49514 0.13119 0.0
H3956 H 0.56723 0.49636 0.15138 0.0
H3957 H 0.53473 0.56764 0.14434 0.0
H3958 H 0.52749 0.56126 0.10057 0.0
H3959 H 0.58329 0.52596 0.09893 0.0
C3960 C 0.5979 0.54037 0.1997 0.0
C3961 C 0.59061 0.55261 0.21929 0.0
C3962 C 0.57233 0.56367 0.2143 0.0
C3963 C 0.56183 0.5632 0.19074 0.0
C3964 C 0.56956 0.5515 0.17197 0.0
C3965 C 0.58706 0.54013 0.17592 0.0
C3966 C 0.59214 0.52953 0.15183 0.0
C3967 C 0.6176 0.53873 0.14895 0.0
C3968 C 0.58566 0.50288 0.14924 0.0
C3969 C 0.5757 0.538 0.13402 0.0
C3970 C 0.56247 0.55 0.14633 0.0
C3971 C 0.54529 0.55867 0.13448 0.0
C3972 C 0.54157 0.55532 0.10936 0.0
C3973 C 0.55553 0.54429 0.09587 0.0
C3974 C 0.57267 0.5351 0.10854 0.0
H3975 H 0.28994 0.91024 0.90819 0.0
H3976 H 0.34612 0.89401 0.95402 0.0
H3977 H 0.34711 0.86203 0.92329 0.0
H3978 H 0.25958 0.85428 0.88429 0.0
H3979 H 0.25268 0.8595 0.85384 0.0
H3980 H 0.2573 0.88277 0.87842 0.0
H3981 H 0.28939 0.90773 0.85891 0.0
H3982 H 0.28456 0.88449 0.83416 0.0
H3983 H 0.31319 0.89602 0.85112 0.0
H3984 H 0.3411 0.83128 0.88992 0.0
H3985 H 0.32922 0.8031 0.8528 0.0
H3986 H 0.27645 0.83851 0.82868 0.0
C3987 C 0.30277 0.90026 0.91127 0.0
C3988 C 0.3182 0.90456 0.93296 0.0
C3989 C 0.33458 0.89113 0.93705 0.0
C3990 C 0.33522 0.87291 0.91987 0.0
C3991 C 0.31966 0.86885 0.89871 0.0
C3992 C 0.30401 0.88225 0.89403 0.0
C3993 C 0.28912 0.87368 0.86977 0.0
C3994 C 0.26313 0.86716 0.87174 0.0
C3995 C 0.29438 0.89155 0.85248 0.0
C3996 C 0.29794 0.85262 0.86255 0.0
C3997 C 0.31587 0.85049 0.87928 0.0
C3998 C 0.32719 0.83272 0.87647 0.0
C3999 C 0.32025 0.81682 0.8555 0.0
C4000 C 0.302 0.81887 0.8381 0.0
C4001 C 0.29044 0.83666 0.84183 0.0
H4002 H 0.95389 0.50783 0.75371 0.0
H4003 H 0.91303 0.55535 0.73121 0.0
H4004 H 0.92762 0.55332 0.69203 0.0
H4005 H 1.0031 0.52491 0.72413 0.0
H4006 H 1.00461 0.49532 0.71568 0.0
H4007 H 0.99356 0.50326 0.74276 0.0
H4008 H 0.95523 0.47172 0.72811 0.0
H4009 H 0.96624 0.46329 0.70124 0.0
H4010 H 0.93894 0.47143 0.69905 0.0
H4011 H 0.94341 0.54206 0.65416 0.0
H4012 H 0.95725 0.52177 0.62058 0.0
H4013 H 0.98691 0.4817 0.66966 0.0
C4014 C 0.9485 0.51854 0.741 0.0
C4015 C 0.93281 0.53222 0.74561 0.0
C4016 C 0.92545 0.54511 0.72803 0.0
C4017 C 0.93362 0.54403 0.70585 0.0
C4018 C 0.94878 0.52983 0.70181 0.0
C4019 C 0.9559 0.5172 0.71893 0.0
C4020 C 0.96954 0.50079 0.70958 0.0
C4021 C 0.99418 0.50643 0.72387 0.0
C4022 C 0.95672 0.47532 0.7095 0.0
C4023 C 0.96953 0.50638 0.68446 0.0
C4024 C 0.95746 0.5231 0.68017 0.0
C4025 C 0.95323 0.52927 0.65742 0.0
C4026 C 0.96118 0.51767 0.63853 0.0
C4027 C 0.97314 0.50016 0.64268 0.0
C4028 C 0.97774 0.49491 0.666 0.0
H4029 H 0.26224 0.24653 0.44367 0.0
H4030 H 0.30653 0.19828 0.44722 0.0
H4031 H 0.31668 0.20581 0.40732 0.0
H4032 H 0.24075 0.23071 0.37988 0.0
H4033 H 0.23978 0.2599 0.37562 0.0
H4034 H 0.23599 0.25044 0.40424 0.0
H4035 H 0.2699 0.28477 0.4254 0.0
H4036 H 0.27372 0.29425 0.39683 0.0
H4037 H 0.2978 0.28844 0.41552 0.0
H4038 H 0.32067 0.21783 0.36554 0.0
H4039 H 0.31989 0.23496 0.32763 0.0
H4040 H 0.27467 0.27658 0.35305 0.0
C4041 C 0.27423 0.23762 0.43622 0.0
C4042 C 0.28369 0.22188 0.44882 0.0
C4043 C 0.29911 0.21049 0.4381 0.0
C4044 C 0.30492 0.21461 0.41536 0.0
C4045 C 0.29516 0.23015 0.40344 0.0
C4046 C 0.28017 0.24151 0.4136 0.0
C4047 C 0.2719 0.2573 0.39717 0.0
C4048 C 0.24555 0.2491 0.38874 0.0
C4049 C 0.27876 0.2827 0.40947 0.0
C4050 C 0.28511 0.25365 0.37649 0.0
C4051 C 0.29806 0.23756 0.3801 0.0
C4052 C 0.31074 0.2306 0.36271 0.0
C4053 C 0.31019 0.24037 0.34121 0.0
C4054 C 0.29746 0.25728 0.33749 0.0
C4055 C 0.28486 0.26396 0.35549 0.0
H4056 H 0.3086 0.56567 0.53348 0.0
H4057 H 0.34845 0.62384 0.58622 0.0
H4058 H 0.38412 0.61103 0.58116 0.0
H4059 H 0.34595 0.52324 0.5413 0.0
H4060 H 0.34177 0.515 0.50911 0.0
H4061 H 0.319 0.52349 0.52328 0.0
H4062 H 0.31795 0.55463 0.49509 0.0
H4063 H 0.3409 0.54677 0.48117 0.0
H4064 H 0.34415 0.57634 0.49468 0.0
H4065 H 0.41546 0.59869 0.56257 0.0
H4066 H 0.43954 0.58695 0.53321 0.0
H4067 H 0.37871 0.53885 0.49108 0.0
C4068 C 0.32465 0.57506 0.54485 0.0
C4069 C 0.32596 0.59561 0.56009 0.0
C4070 C 0.34721 0.60782 0.57448 0.0
C4071 C 0.36753 0.60068 0.57174 0.0
C4072 C 0.36596 0.58139 0.55471 0.0
C4073 C 0.34494 0.56867 0.54166 0.0
C4074 C 0.34793 0.55232 0.52074 0.0
C4075 C 0.3381 0.527 0.52381 0.0
C4076 C 0.3371 0.55787 0.49654 0.0
C4077 C 0.37388 0.55827 0.52346 0.0
C4078 C 0.38411 0.57477 0.54333 0.0
C4079 C 0.40774 0.58528 0.54739 0.0
C4080 C 0.42116 0.57874 0.53057 0.0
C4081 C 0.41063 0.56224 0.50997 0.0
C4082 C 0.38694 0.5516 0.5067 0.0
H4083 H 0.86936 0.94957 0.53348 0.0
H4084 H 0.89659 0.89912 0.57007 0.0
H4085 H 0.93611 0.9232 0.57324 0.0
H4086 H 0.91242 0.96195 0.49778 0.0
H4087 H 0.91506 0.99279 0.49999 0.0
H4088 H 0.88812 0.97383 0.50347 0.0
H4089 H 0.88934 0.9976 0.54501 0.0
H4090 H 0.91632 0.0167 0.54159 0.0
H4091 H 0.91452 1.00218 0.56768 0.0
H4092 H 0.97208 0.94952 0.56989 0.0
H4093 H 1.00443 0.97749 0.55972 0.0
H4094 H 0.95608 0.01143 0.52297 0.0
C4095 C 0.88366 0.94404 0.54274 0.0
C4096 C 0.87994 0.92252 0.5517 0.0
C4097 C 0.89905 0.91551 0.56315 0.0
C4098 C 0.92157 0.92912 0.56513 0.0
C4099 C 0.92481 0.9498 0.55561 0.0
C4100 C 0.90655 0.95747 0.54473 0.0
C4101 C 0.91557 0.97973 0.53456 0.0
C4102 C 0.9073 0.97688 0.50733 0.0
C4103 C 0.90851 1.00027 0.548 0.0
C4104 C 0.94163 0.98234 0.54026 0.0
C4105 C 0.9463 0.96516 0.55301 0.0
C4106 C 0.96873 0.96326 0.56015 0.0
C4107 C 0.98705 0.97932 0.55413 0.0
C4108 C 0.98302 0.997 0.54064 0.0
C4109 C 0.95988 0.99854 0.5337 0.0
H4110 H 0.88385 0.06601 0.29786 0.0
H4111 H 0.91748 0.08173 0.23609 0.0
H4112 H 0.90022 0.11534 0.23375 0.0
H4113 H 0.83031 0.08447 0.27776 0.0
H4114 H 0.82832 0.09641 0.3079 0.0
H4115 H 0.84099 0.07194 0.30299 0.0
H4116 H 0.87852 0.0947 0.33159 0.0
H4117 H 0.86585 0.11904 0.33664 0.0
H4118 H 0.89334 0.12285 0.32588 0.0
H4119 H 0.88185 0.14879 0.23985 0.0
H4120 H 0.8659 0.1812 0.25608 0.0
H4121 H 0.84522 0.14417 0.31417 0.0
C4122 C 0.88728 0.07627 0.28358 0.0
C4123 C 0.9019 0.07115 0.26708 0.0
C4124 C 0.90622 0.08523 0.24887 0.0
C4125 C 0.89642 0.1043 0.24731 0.0
C4126 C 0.88223 0.10895 0.26397 0.0
C4127 C 0.87769 0.09538 0.28179 0.0
C4128 C 0.86332 0.10514 0.2986 0.0
C4129 C 0.83931 0.0885 0.29669 0.0
C4130 C 0.87603 0.11077 0.32471 0.0
C4131 C 0.86147 0.1269 0.28813 0.0
C4132 C 0.87196 0.12849 0.26778 0.0
C4133 C 0.87335 0.14762 0.25559 0.0
C4134 C 0.86428 0.16586 0.26483 0.0
C4135 C 0.85441 0.16482 0.28614 0.0
C4136 C 0.85256 0.14502 0.29767 0.0
H4137 H 0.70715 0.07608 0.07724 0.0
H4138 H 0.72308 0.08082 0.00525 0.0
H4139 H 0.68137 0.06962 0.98904 0.0
H4140 H 0.65017 0.03145 0.0626 0.0
H4141 H 0.63875 0.0476 0.08495 0.0
H4142 H 0.66904 0.04781 0.08933 0.0
H4143 H 0.67851 0.09283 0.09517 0.0
H4144 H 0.64825 0.0926 0.08951 0.0
H4145 H 0.66793 0.10723 0.07143 0.0
H4146 H 0.63822 0.06477 0.98204 0.0
H4147 H 0.59655 0.0592 0.98428 0.0
H4148 H 0.61125 0.06642 0.06188 0.0
C4149 C 0.70182 0.07298 0.0579 0.0
C4150 C 0.71795 0.07936 0.04246 0.0
C4151 C 0.71076 0.07571 0.01727 0.0
C4152 C 0.68711 0.06993 0.00799 0.0
C4153 C 0.67148 0.06761 0.02428 0.0
C4154 C 0.67852 0.06855 0.04867 0.0
C4155 C 0.65904 0.06916 0.0629 0.0
C4156 C 0.65397 0.0477 0.07568 0.0
C4157 C 0.66375 0.0918 0.08079 0.0
C4158 C 0.63996 0.06833 0.04275 0.0
C4159 C 0.64732 0.0674 0.02059 0.0
C4160 C 0.63225 0.06559 -0.0007 0.0
C4161 C 0.6087 0.06303 0.00072 0.0
C4162 C 0.60106 0.06311 0.02328 0.0
C4163 C 0.61692 0.06673 0.04449 0.0
H4164 H 0.25511 0.51828 0.28008 0.0
H4165 H 0.21125 0.48617 0.21241 0.0
H4166 H 0.22209 0.44926 0.21688 0.0
H4167 H 0.30015 0.48358 0.27759 0.0
H4168 H 0.30176 0.48212 0.30935 0.0
H4169 H 0.29552 0.50722 0.29764 0.0
H4170 H 0.25802 0.5017 0.31702 0.0
H4171 H 0.26384 0.47652 0.32851 0.0
H4172 H 0.23667 0.47437 0.30964 0.0
H4173 H 0.23229 0.41482 0.23201 0.0
H4174 H 0.24088 0.38542 0.25704 0.0
H4175 H 0.27534 0.44018 0.31567 0.0
C4176 C 0.24874 0.50383 0.26563 0.0
C4177 C 0.23274 0.50498 0.24578 0.0
C4178 C 0.22386 0.48552 0.22762 0.0
C4179 C 0.22993 0.46456 0.22998 0.0
C4180 C 0.24483 0.4636 0.25055 0.0
C4181 C 0.25418 0.48277 0.268 0.0
C4182 C 0.26645 0.47651 0.2902 0.0
C4183 C 0.29253 0.48802 0.2939 0.0
C4184 C 0.25558 0.48264 0.31263 0.0
C4185 C 0.26169 0.45067 0.28299 0.0
C4186 C 0.2497 0.44355 0.25986 0.0
C4187 C 0.24195 0.42018 0.25001 0.0
C4188 C 0.24661 0.4037 0.26431 0.0
C4189 C 0.25822 0.4109 0.28819 0.0
C4190 C 0.26611 0.43453 0.29749 0.0
H4191 H 0.24917 0.42686 0.05154 0.0
H4192 H 0.27691 0.44746 0.98794 0.0
H4193 H 0.2465 0.46848 0.98016 0.0
H4194 H 0.19128 0.41531 0.02905 0.0
H4195 H 0.18193 0.4276 0.05557 0.0
H4196 H 0.20772 0.41689 0.05839 0.0
H4197 H 0.23126 0.45693 0.08135 0.0
H4198 H 0.20541 0.46775 0.07843 0.0
H4199 H 0.23095 0.48269 0.06776 0.0
H4200 H 0.21117 0.48307 0.97618 0.0
H4201 H 0.17197 0.48997 0.97623 0.0
H4202 H 0.16676 0.46049 0.04222 0.0
C4203 C 0.24907 0.43615 0.03624 0.0
C4204 C 0.26541 0.43553 0.02033 0.0
C4205 C 0.26467 0.4478 0.00044 0.0
C4206 C 0.24752 0.45988 0.99591 0.0
C4207 C 0.23149 0.45989 0.01167 0.0
C4208 C 0.23217 0.44858 0.0316 0.0
C4209 C 0.21192 0.45022 0.04477 0.0
C4210 C 0.19736 0.42606 0.04704 0.0
C4211 C 0.2204 0.46529 0.06955 0.0
C4212 C 0.19881 0.46243 0.02793 0.0
C4213 C 0.21084 0.46854 0.00941 0.0
C4214 C 0.20177 0.47883 0.99082 0.0
C4215 C 0.1796 0.48265 0.99094 0.0
C4216 C 0.16683 0.47586 0.00931 0.0
C4217 C 0.17658 0.46601 0.02823 0.0
H4218 H 0.91949 0.92813 0.26402 0.0
H4219 H 0.87384 0.97364 0.24949 0.0
H4220 H 0.83995 0.94163 0.25151 0.0
H4221 H 0.88481 0.87634 0.22985 0.0
H4222 H 0.89206 0.85814 0.25143 0.0
H4223 H 0.91232 0.88485 0.24955 0.0
H4224 H 0.91351 0.8984 0.29497 0.0
H4225 H 0.89316 0.87171 0.29695 0.0
H4226 H 0.88683 0.89916 0.30627 0.0
H4227 H 0.81144 0.90468 0.25742 0.0
H4228 H 0.79073 0.86588 0.26321 0.0
H4229 H 0.8552 0.84398 0.26889 0.0
C4230 C 0.90239 0.93145 0.26106 0.0
C4231 C 0.89931 0.95339 0.25641 0.0
C4232 C 0.87661 0.95697 0.25303 0.0
C4233 C 0.85731 0.93892 0.25421 0.0
C4234 C 0.86109 0.91753 0.25892 0.0
C4235 C 0.88311 0.91379 0.26222 0.0
C4236 C 0.88272 0.88936 0.26711 0.0
C4237 C 0.89361 0.87641 0.24835 0.0
C4238 C 0.89477 0.88968 0.29284 0.0
C4239 C 0.85688 0.87945 0.26473 0.0
C4240 C 0.84474 0.89614 0.2609 0.0
C4241 C 0.8208 0.89143 0.26008 0.0
C4242 C 0.80906 0.86914 0.2633 0.0
C4243 C 0.82098 0.85148 0.2664 0.0
C4244 C 0.84528 0.85686 0.26673 0.0
H4245 H 0.73433 0.1229 0.793 0.0
H4246 H 0.73571 0.10052 0.71783 0.0
H4247 H 0.75683 0.13978 0.71396 0.0
H4248 H 0.71761 0.16743 0.78723 0.0
H4249 H 0.73438 0.18805 0.81244 0.0
H4250 H 0.72934 0.15759 0.81394 0.0
H4251 H 0.77333 0.15978 0.82232 0.0
H4252 H 0.77856 0.19073 0.82277 0.0
H4253 H 0.79226 0.1739 0.80324 0.0
H4254 H 0.7592 0.18052 0.71333 0.0
H4255 H 0.75954 0.22219 0.72071 0.0
H4256 H 0.7613 0.21917 0.79664 0.0
C4257 C 0.74058 0.12609 0.77627 0.0
C4258 C 0.7333 0.1093 0.75564 0.0
C4259 C 0.74128 0.11345 0.73379 0.0
C4260 C 0.75322 0.13569 0.73142 0.0
C4261 C 0.75746 0.15287 0.7513 0.0
C4262 C 0.75264 0.14817 0.7738 0.0
C4263 C 0.75518 0.17017 0.79105 0.0
C4264 C 0.73279 0.17081 0.80175 0.0
C4265 C 0.77609 0.17386 0.81101 0.0
C4266 C 0.75959 0.18752 0.77398 0.0
C4267 C 0.76082 0.17727 0.75119 0.0
C4268 C 0.76017 0.18912 0.73144 0.0
C4269 C 0.76028 0.21256 0.73563 0.0
C4270 C 0.76179 0.2236 0.75921 0.0
C4271 C 0.76063 0.21096 0.77849 0.0
loop_
_geom_bond_atom_site_label_1
_geom_bond_atom_site_label_2
_geom_bond_distance
_geom_bond_site_symmetry_2
_ccdc_geom_bond_type
Zn0 O3 2.031 . S
Zn0 O5 2.049 . S
Zn0 O10 2.067 1_455 S
Zn1 O2 1.962 . S
Zn1 O4 1.986 . S
Zn1 O6 1.996 . S
Zn1 O9 1.943 . S
O2 Zn1 1.962 . S
O2 C7 1.254 . S
O3 Zn0 2.031 . S
O3 C7 1.269 . S
O4 Zn1 1.986 . S
O4 C11 1.262 . S
O5 Zn0 2.049 . S
O5 C13 1.260 . S
O6 Zn1 1.996 . S
O6 C13 1.257 . S
C7 O2 1.254 . S
C7 O3 1.269 . S
C8 O9 1.249 . S
C8 O10 1.270 1_455 S
O9 Zn1 1.943 . S
O9 C8 1.249 . S
O10 Zn0 2.067 1_655 S
O10 C8 1.270 1_655 S
C11 O4 1.262 . S
C11 O12 1.232 . S
O12 C11 1.232 . S
C13 O5 1.260 . S
C13 O6 1.257 . S
Zn14 O17 2.031 1_455 S
Zn14 O19 2.049 . S
Zn14 O24 2.067 . S
Zn15 O16 1.962 1_455 S
Zn15 O18 1.986 . S
Zn15 O20 1.996 . S
Zn15 O23 1.943 . S
O16 Zn15 1.962 1_655 S
O16 C21 1.254 . S
O17 Zn14 2.031 1_655 S
O17 C21 1.269 . S
O18 Zn15 1.986 . S
O18 C25 1.262 . S
O19 Zn14 2.049 . S
O19 C27 1.260 . S
O20 Zn15 1.996 . S
O20 C27 1.257 . S
C21 O16 1.254 . S
C21 O17 1.269 . S
C22 O23 1.249 . S
C22 O24 1.270 . S
O23 Zn15 1.943 . S
O23 C22 1.249 . S
O24 Zn14 2.067 . S
O24 C22 1.270 . S
C25 O18 1.262 . S
C25 O26 1.232 . S
O26 C25 1.232 . S
C27 O19 1.260 . S
C27 O20 1.257 . S
Zn28 O31 2.031 . S
Zn28 O33 2.049 . S
Zn28 O38 2.067 . S
Zn29 O30 1.962 . S
Zn29 O32 1.986 . S
Zn29 O34 1.996 . S
Zn29 O37 1.943 . S
O30 Zn29 1.962 . S
O30 C35 1.254 . S
O31 Zn28 2.031 . S
O31 C35 1.269 . S
O32 Zn29 1.986 . S
O32 C39 1.262 . S
O33 Zn28 2.049 . S
O33 C41 1.260 . S
O34 Zn29 1.996 . S
O34 C41 1.257 . S
C35 O30 1.254 . S
C35 O31 1.269 . S
C36 O37 1.249 . S
C36 O38 1.270 . S
O37 Zn29 1.943 . S
O37 C36 1.249 . S
O38 Zn28 2.067 . S
O38 C36 1.270 . S
C39 O32 1.262 . S
C39 O40 1.232 . S
O40 C39 1.232 . S
C41 O33 1.260 . S
C41 O34 1.257 . S
Zn42 O45 2.031 . S
Zn42 O47 2.049 . S
Zn42 O52 2.067 . S
Zn43 O44 1.962 . S
Zn43 O46 1.986 . S
Zn43 O48 1.996 . S
Zn43 O51 1.943 . S
O44 Zn43 1.962 . S
O44 C49 1.254 . S
O45 Zn42 2.031 . S
O45 C49 1.269 . S
O46 Zn43 1.986 . S
O46 C53 1.262 . S
O47 Zn42 2.049 . S
O47 C55 1.260 . S
O48 Zn43 1.996 . S
O48 C55 1.257 . S
C49 O44 1.254 . S
C49 O45 1.269 . S
C50 O51 1.249 . S
C50 O52 1.270 . S
O51 Zn43 1.943 . S
O51 C50 1.249 . S
O52 Zn42 2.067 . S
O52 C50 1.270 . S
C53 O46 1.262 . S
C53 O54 1.232 . S
O54 C53 1.232 . S
C55 O47 1.260 . S
C55 O48 1.257 . S
Zn56 O59 2.031 . S
Zn56 O61 2.049 . S
Zn56 O66 2.067 . S
Zn57 O58 1.962 . S
Zn57 O60 1.986 . S
Zn57 O62 1.996 . S
Zn57 O65 1.943 . S
O58 Zn57 1.962 . S
O58 C63 1.254 . S
O59 Zn56 2.031 . S
O59 C63 1.269 . S
O60 Zn57 1.986 . S
O60 C67 1.262 . S
O61 Zn56 2.049 . S
O61 C69 1.260 . S
O62 Zn57 1.996 . S
O62 C69 1.257 . S
C63 O58 1.254 . S
C63 O59 1.269 . S
C64 O65 1.249 . S
C64 O66 1.270 . S
O65 Zn57 1.943 . S
O65 C64 1.249 . S
O66 Zn56 2.067 . S
O66 C64 1.270 . S
C67 O60 1.262 . S
C67 O68 1.232 . S
O68 C67 1.232 . S
C69 O61 1.260 . S
C69 O62 1.257 . S
Zn70 O73 2.031 . S
Zn70 O75 2.049 . S
Zn70 O80 2.067 . S
Zn71 O72 1.962 . S
Zn71 O74 1.986 . S
Zn71 O76 1.996 . S
Zn71 O79 1.943 . S
O72 Zn71 1.962 . S
O72 C77 1.254 . S
O73 Zn70 2.031 . S
O73 C77 1.269 . S
O74 Zn71 1.986 . S
O74 C81 1.262 . S
O75 Zn70 2.049 . S
O75 C83 1.260 . S
O76 Zn71 1.996 . S
O76 C83 1.257 . S
C77 O72 1.254 . S
C77 O73 1.269 . S
C78 O79 1.249 . S
C78 O80 1.270 . S
O79 Zn71 1.943 . S
O79 C78 1.249 . S
O80 Zn70 2.067 . S
O80 C78 1.270 . S
C81 O74 1.262 . S
C81 O82 1.232 . S
O82 C81 1.232 . S
C83 O75 1.260 . S
C83 O76 1.257 . S
Zn84 O87 2.031 . S
Zn84 O89 2.049 . S
Zn84 O94 2.067 . S
Zn85 O86 1.962 . S
Zn85 O88 1.986 . S
Zn85 O90 1.996 . S
Zn85 O93 1.943 . S
O86 Zn85 1.962 . S
O86 C91 1.254 . S
O87 Zn84 2.031 . S
O87 C91 1.269 . S
O88 Zn85 1.986 . S
O88 C95 1.262 . S
O89 Zn84 2.049 . S
O89 C97 1.260 . S
O90 Zn85 1.996 . S
O90 C97 1.257 . S
C91 O86 1.254 . S
C91 O87 1.269 . S
C92 O93 1.249 . S
C92 O94 1.270 . S
O93 Zn85 1.943 . S
O93 C92 1.249 . S
O94 Zn84 2.067 . S
O94 C92 1.270 . S
C95 O88 1.262 . S
C95 O96 1.232 . S
O96 C95 1.232 . S
C97 O89 1.260 . S
C97 O90 1.257 . S
Zn98 O101 2.031 . S
Zn98 O103 2.049 . S
Zn98 O108 2.067 . S
Zn99 O100 1.962 . S
Zn99 O102 1.986 . S
Zn99 O104 1.996 . S
Zn99 O107 1.943 1_455 S
O100 Zn99 1.962 . S
O100 C105 1.254 . S
O101 Zn98 2.031 . S
O101 C105 1.269 1_655 S
O102 Zn99 1.986 . S
O102 C109 1.262 . S
O103 Zn98 2.049 . S
O103 C111 1.260 . S
O104 Zn99 1.996 . S
O104 C111 1.257 1_455 S
C105 O100 1.254 . S
C105 O101 1.269 1_455 S
C106 O107 1.249 . S
C106 O108 1.270 . S
O107 Zn99 1.943 1_655 S
O107 C106 1.249 . S
O108 Zn98 2.067 . S
O108 C106 1.270 . S
C109 O102 1.262 . S
C109 O110 1.232 . S
O110 C109 1.232 . S
C111 O103 1.260 . S
C111 O104 1.257 1_655 S
Zn112 O115 2.031 . S
Zn112 O117 2.049 . S
Zn112 O122 2.067 . S
Zn113 O114 1.962 . S
Zn113 O116 1.986 . S
Zn113 O118 1.996 . S
Zn113 O121 1.943 1_545 S
O114 Zn113 1.962 . S
O114 C119 1.254 . S
O115 Zn112 2.031 . S
O115 C119 1.269 1_565 S
O116 Zn113 1.986 . S
O116 C123 1.262 . S
O117 Zn112 2.049 . S
O117 C125 1.266 1_565 S
O118 Zn113 1.996 . S
O118 C125 1.254 . S
C119 O114 1.254 . S
C119 O115 1.269 1_545 S
C120 O121 1.249 . S
C120 O122 1.270 . S
O121 Zn113 1.943 1_565 S
O121 C120 1.249 . S
O122 Zn112 2.067 . S
O122 C120 1.270 . S
C123 O116 1.262 . S
C123 O124 1.232 . S
O124 C123 1.232 . S
C125 O117 1.266 1_545 S
C125 O118 1.254 . S
Zn126 O129 2.031 . S
Zn126 O131 2.049 . S
Zn126 O136 2.067 . S
Zn127 O128 1.962 . S
Zn127 O130 1.986 . S
Zn127 O132 1.996 . S
Zn127 O135 1.943 . S
O128 Zn127 1.962 . S
O128 C133 1.254 . S
O129 Zn126 2.031 . S
O129 C133 1.269 . S
O130 Zn127 1.986 . S
O130 C137 1.262 . S
O131 Zn126 2.049 . S
O131 C139 1.260 . S
O132 Zn127 1.996 . S
O132 C139 1.257 . S
C133 O128 1.254 . S
C133 O129 1.269 . S
C134 O135 1.249 . S
C134 O136 1.270 . S
O135 Zn127 1.943 . S
O135 C134 1.249 . S
O136 Zn126 2.067 . S
O136 C134 1.270 . S
C137 O130 1.262 . S
C137 O138 1.232 . S
O138 C137 1.232 . S
C139 O131 1.260 . S
C139 O132 1.257 . S
Zn140 O143 2.031 . S
Zn140 O145 2.049 . S
Zn140 O150 2.067 . S
Zn141 O142 1.962 . S
Zn141 O144 1.986 . S
Zn141 O146 1.996 . S
Zn141 O149 1.943 . S
O142 Zn141 1.962 . S
O142 C147 1.254 . S
O143 Zn140 2.031 . S
O143 C147 1.269 . S
O144 Zn141 1.986 . S
O144 C151 1.262 . S
O145 Zn140 2.049 . S
O145 C153 1.260 . S
O146 Zn141 1.996 . S
O146 C153 1.257 . S
C147 O142 1.254 . S
C147 O143 1.269 . S
C148 O149 1.249 . S
C148 O150 1.270 . S
O149 Zn141 1.943 . S
O149 C148 1.249 . S
O150 Zn140 2.067 . S
O150 C148 1.270 . S
C151 O144 1.262 . S
C151 O152 1.232 . S
O152 C151 1.232 . S
C153 O145 1.260 . S
C153 O146 1.257 . S
Zn154 O157 2.031 1_554 S
Zn154 O159 2.049 . S
Zn154 O164 2.067 . S
Zn155 O156 1.962 . S
Zn155 O158 1.986 1_556 S
Zn155 O160 1.996 1_556 S
Zn155 O163 1.943 1_556 S
O156 Zn155 1.962 . S
O156 C161 1.254 . S
O157 Zn154 2.031 1_556 S
O157 C161 1.269 . S
O158 Zn155 1.986 1_554 S
O158 C165 1.262 1_554 S
O159 Zn154 2.049 . S
O159 C167 1.260 . S
O160 Zn155 1.996 1_554 S
O160 C167 1.257 . S
C161 O156 1.254 . S
C161 O157 1.269 . S
C162 O163 1.249 . S
C162 O164 1.270 . S
O163 Zn155 1.943 1_554 S
O163 C162 1.249 . S
O164 Zn154 2.067 . S
O164 C162 1.270 . S
C165 O158 1.262 1_556 S
C165 O166 1.232 . S
O166 C165 1.232 . S
C167 O159 1.260 . S
C167 O160 1.257 . S
Zn168 O171 2.031 . S
Zn168 O173 2.049 . S
Zn168 O178 2.067 . S
Zn169 O170 1.962 . S
Zn169 O172 1.986 . S
Zn169 O174 1.996 . S
Zn169 O177 1.943 . S
O170 Zn169 1.962 . S
O170 C175 1.257 . S
O171 Zn168 2.031 . S
O171 C175 1.272 . S
O172 Zn169 1.986 . S
O172 C179 1.262 . S
O173 Zn168 2.049 . S
O173 C181 1.260 . S
O174 Zn169 1.996 . S
O174 C181 1.257 . S
C175 O170 1.257 . S
C175 O171 1.272 . S
C176 O177 1.249 . S
C176 O178 1.270 . S
O177 Zn169 1.943 . S
O177 C176 1.249 . S
O178 Zn168 2.067 . S
O178 C176 1.270 . S
C179 O172 1.262 . S
C179 O180 1.232 . S
O180 C179 1.232 . S
C181 O173 1.260 . S
C181 O174 1.257 . S
Zn182 O185 2.031 . S
Zn182 O187 2.049 . S
Zn182 O192 2.067 . S
Zn183 O184 1.962 . S
Zn183 O186 1.986 . S
Zn183 O188 1.996 . S
Zn183 O191 1.943 . S
O184 Zn183 1.962 . S
O184 C189 1.254 . S
O185 Zn182 2.031 . S
O185 C189 1.269 . S
O186 Zn183 1.986 . S
O186 C193 1.262 . S
O187 Zn182 2.049 . S
O187 C195 1.260 . S
O188 Zn183 1.996 . S
O188 C195 1.257 . S
C189 O184 1.254 . S
C189 O185 1.269 . S
C190 O191 1.249 . S
C190 O192 1.270 . S
O191 Zn183 1.943 . S
O191 C190 1.249 . S
O192 Zn182 2.067 . S
O192 C190 1.270 . S
C193 O186 1.262 . S
C193 O194 1.232 . S
O194 C193 1.232 . S
C195 O187 1.260 . S
C195 O188 1.257 . S
Zn196 O199 2.031 . S
Zn196 O201 2.049 . S
Zn196 O206 2.067 . S
Zn197 O198 1.962 . S
Zn197 O200 1.986 . S
Zn197 O202 1.996 . S
Zn197 O205 1.943 . S
O198 Zn197 1.962 . S
O198 C203 1.254 . S
O199 Zn196 2.031 . S
O199 C203 1.269 . S
O200 Zn197 1.986 . S
O200 C207 1.262 . S
O201 Zn196 2.049 . S
O201 C209 1.260 . S
O202 Zn197 1.996 . S
O202 C209 1.257 . S
C203 O198 1.254 . S
C203 O199 1.269 . S
C204 O205 1.249 . S
C204 O206 1.270 . S
O205 Zn197 1.943 . S
O205 C204 1.249 . S
O206 Zn196 2.067 . S
O206 C204 1.270 . S
C207 O200 1.262 . S
C207 O208 1.232 . S
O208 C207 1.232 . S
C209 O201 1.260 . S
C209 O202 1.257 . S
Zn210 O213 2.031 . S
Zn210 O215 2.049 . S
Zn210 O220 2.067 . S
Zn211 O212 1.962 . S
Zn211 O214 1.986 . S
Zn211 O216 1.996 . S
Zn211 O219 1.943 . S
O212 Zn211 1.962 . S
O212 C217 1.254 . S
O213 Zn210 2.031 . S
O213 C217 1.269 . S
O214 Zn211 1.986 . S
O214 C221 1.262 . S
O215 Zn210 2.049 . S
O215 C223 1.260 . S
O216 Zn211 1.996 . S
O216 C223 1.257 . S
C217 O212 1.254 . S
C217 O213 1.269 . S
C218 O219 1.249 . S
C218 O220 1.270 . S
O219 Zn211 1.943 . S
O219 C218 1.249 . S
O220 Zn210 2.067 . S
O220 C218 1.270 . S
C221 O214 1.262 . S
C221 O222 1.232 . S
O222 C221 1.232 . S
C223 O215 1.260 . S
C223 O216 1.257 . S
Zn224 O227 2.031 . S
Zn224 O229 2.049 . S
Zn224 O234 2.067 . S
Zn225 O226 1.962 . S
Zn225 O228 1.986 . S
Zn225 O230 1.996 . S
Zn225 O233 1.943 1_545 S
O226 Zn225 1.962 . S
O226 C231 1.254 . S
O227 Zn224 2.031 . S
O227 C231 1.269 1_565 S
O228 Zn225 1.986 . S
O228 C235 1.262 . S
O229 Zn224 2.049 . S
O229 C237 1.260 1_565 S
O230 Zn225 1.996 . S
O230 C237 1.257 . S
C231 O226 1.254 . S
C231 O227 1.269 1_545 S
C232 O233 1.249 . S
C232 O234 1.270 . S
O233 Zn225 1.943 1_565 S
O233 C232 1.249 . S
O234 Zn224 2.067 . S
O234 C232 1.270 . S
C235 O228 1.262 . S
C235 O236 1.232 . S
O236 C235 1.232 . S
C237 O229 1.260 1_545 S
C237 O230 1.257 . S
Zn238 O241 2.031 . S
Zn238 O243 2.049 . S
Zn238 O248 2.067 . S
Zn239 O240 1.962 . S
Zn239 O242 1.986 . S
Zn239 O244 1.996 . S
Zn239 O247 1.943 . S
O240 Zn239 1.962 . S
O240 C245 1.254 . S
O241 Zn238 2.031 . S
O241 C245 1.269 . S
O242 Zn239 1.986 . S
O242 C249 1.262 . S
O243 Zn238 2.049 . S
O243 C251 1.260 . S
O244 Zn239 1.996 . S
O244 C251 1.257 . S
C245 O240 1.254 . S
C245 O241 1.269 . S
C246 O247 1.249 . S
C246 O248 1.270 . S
O247 Zn239 1.943 . S
O247 C246 1.249 . S
O248 Zn238 2.067 . S
O248 C246 1.270 . S
C249 O242 1.262 . S
C249 O250 1.232 . S
O250 C249 1.232 . S
C251 O243 1.260 . S
C251 O244 1.257 . S
Zn252 O255 2.031 . S
Zn252 O257 2.049 . S
Zn252 O262 2.067 . S
Zn253 O254 1.962 . S
Zn253 O256 1.986 . S
Zn253 O258 1.996 . S
Zn253 O261 1.943 . S
O254 Zn253 1.962 . S
O254 C259 1.254 . S
O255 Zn252 2.031 . S
O255 C259 1.269 . S
O256 Zn253 1.986 . S
O256 C263 1.262 . S
O257 Zn252 2.049 . S
O257 C265 1.260 . S
O258 Zn253 1.996 . S
O258 C265 1.257 . S
C259 O254 1.254 . S
C259 O255 1.269 . S
C260 O261 1.249 . S
C260 O262 1.270 . S
O261 Zn253 1.943 . S
O261 C260 1.249 . S
O262 Zn252 2.067 . S
O262 C260 1.270 . S
C263 O256 1.262 . S
C263 O264 1.232 . S
O264 C263 1.232 . S
C265 O257 1.260 . S
C265 O258 1.257 . S
Zn266 O269 2.031 . S
Zn266 O271 2.049 . S
Zn266 O276 2.067 . S
Zn267 O268 1.962 . S
Zn267 O270 1.986 . S
Zn267 O272 1.996 . S
Zn267 O275 1.943 . S
O268 Zn267 1.962 . S
O268 C273 1.254 . S
O269 Zn266 2.031 . S
O269 C273 1.269 . S
O270 Zn267 1.986 . S
O270 C277 1.262 . S
O271 Zn266 2.049 . S
O271 C279 1.260 . S
O272 Zn267 1.996 . S
O272 C279 1.257 . S
C273 O268 1.254 . S
C273 O269 1.269 . S
C274 O275 1.249 . S
C274 O276 1.270 . S
O275 Zn267 1.943 . S
O275 C274 1.249 . S
O276 Zn266 2.067 . S
O276 C274 1.270 . S
C277 O270 1.262 . S
C277 O278 1.232 . S
O278 C277 1.232 . S
C279 O271 1.260 . S
C279 O272 1.257 . S
Zn280 O283 2.031 1_554 S
Zn280 O285 2.049 . S
Zn280 O290 2.067 . S
Zn281 O282 1.962 1_554 S
Zn281 O284 1.986 . S
Zn281 O286 1.996 . S
Zn281 O289 1.943 . S
O282 Zn281 1.962 1_556 S
O282 C287 1.254 . S
O283 Zn280 2.031 1_556 S
O283 C287 1.269 . S
O284 Zn281 1.986 . S
O284 C291 1.262 . S
O285 Zn280 2.049 . S
O285 C293 1.260 . S
O286 Zn281 1.996 . S
O286 C293 1.257 . S
C287 O282 1.254 . S
C287 O283 1.269 . S
C288 O289 1.249 . S
C288 O290 1.270 . S
O289 Zn281 1.943 . S
O289 C288 1.249 . S
O290 Zn280 2.067 . S
O290 C288 1.270 . S
C291 O284 1.262 . S
C291 O292 1.232 1_554 S
O292 C291 1.232 1_556 S
C293 O285 1.260 . S
C293 O286 1.257 . S
Zn294 O297 2.031 . S
Zn294 O299 2.049 . S
Zn294 O304 2.067 . S
Zn295 O296 1.962 . S
Zn295 O298 1.986 . S
Zn295 O300 1.996 . S
Zn295 O303 1.943 . S
O296 Zn295 1.962 . S
O296 C301 1.254 . S
O297 Zn294 2.031 . S
O297 C301 1.269 . S
O298 Zn295 1.986 . S
O298 C305 1.262 . S
O299 Zn294 2.049 . S
O299 C307 1.260 . S
O300 Zn295 1.996 . S
O300 C307 1.257 . S
C301 O296 1.254 . S
C301 O297 1.269 . S
C302 O303 1.249 . S
C302 O304 1.270 . S
O303 Zn295 1.943 . S
O303 C302 1.249 . S
O304 Zn294 2.067 . S
O304 C302 1.270 . S
C305 O298 1.262 . S
C305 O306 1.232 . S
O306 C305 1.232 . S
C307 O299 1.260 . S
C307 O300 1.257 . S
Zn308 O311 2.031 . S
Zn308 O313 2.049 . S
Zn308 O318 2.067 . S
Zn309 O310 1.962 . S
Zn309 O312 1.986 . S
Zn309 O314 1.996 . S
Zn309 O317 1.943 . S
O310 Zn309 1.962 . S
O310 C315 1.254 . S
O311 Zn308 2.031 . S
O311 C315 1.269 . S
O312 Zn309 1.986 . S
O312 C319 1.262 . S
O313 Zn308 2.049 . S
O313 C321 1.260 . S
O314 Zn309 1.996 . S
O314 C321 1.257 . S
C315 O310 1.254 . S
C315 O311 1.269 . S
C316 O317 1.249 . S
C316 O318 1.270 . S
O317 Zn309 1.943 . S
O317 C316 1.249 . S
O318 Zn308 2.067 . S
O318 C316 1.270 . S
C319 O312 1.262 . S
C319 O320 1.232 . S
O320 C319 1.232 . S
C321 O313 1.260 . S
C321 O314 1.257 . S
Zn322 O325 2.031 . S
Zn322 O327 2.049 . S
Zn322 O332 2.067 . S
Zn323 O324 1.962 . S
Zn323 O326 1.986 . S
Zn323 O328 1.996 . S
Zn323 O331 1.943 . S
O324 Zn323 1.962 . S
O324 C329 1.254 . S
O325 Zn322 2.031 . S
O325 C329 1.269 . S
O326 Zn323 1.986 . S
O326 C333 1.262 . S
O327 Zn322 2.049 . S
O327 C335 1.260 . S
O328 Zn323 1.996 . S
O328 C335 1.257 . S
C329 O324 1.254 . S
C329 O325 1.269 . S
C330 O331 1.249 . S
C330 O332 1.270 . S
O331 Zn323 1.943 . S
O331 C330 1.249 . S
O332 Zn322 2.067 . S
O332 C330 1.270 . S
C333 O326 1.262 . S
C333 O334 1.232 . S
O334 C333 1.232 . S
C335 O327 1.260 . S
C335 O328 1.257 . S
C336 C338 1.422 1_556 S
C336 C340 1.415 . S
C336 N342 1.369 . S
C337 C338 1.421 . S
C337 C339 1.417 1_554 S
C337 C349 1.422 . S
C338 C336 1.422 1_554 S
C338 C337 1.421 . S
C338 N348 1.359 . S
C339 C337 1.417 1_556 S
C339 C341 1.329 . S
C339 H358 0.939 . S
C340 C336 1.415 . S
C340 C341 1.437 . S
C340 C344 1.413 . S
C341 C339 1.329 . S
C341 C340 1.437 . S
C341 H363 0.929 . S
N342 C336 1.369 . S
N342 C343 1.338 . S
N342 Gd347 2.629 1_566 S
C343 N342 1.338 . S
C343 C345 1.378 . S
C343 H355 0.929 . S
C344 C340 1.413 . S
C344 C345 1.348 . S
C344 H360 0.931 . S
C345 C343 1.378 . S
C345 C344 1.348 . S
C345 H361 0.930 . S
Gd346 N366 2.622 . S
Gd346 N373 2.570 . S
Gd346 O380 2.353 . S
Gd346 O381 2.468 . S
Gd346 O382 2.427 . S
Gd346 O384 2.388 . S
Gd346 O385 2.386 . S
Gd346 O389 2.307 . S
Gd346 C399 2.805 . S
Gd347 N342 2.629 1_544 S
Gd347 N348 2.594 1_545 S
Gd347 O379 2.353 1_645 S
Gd347 O383 2.299 1_655 S
Gd347 O386 2.348 1_655 S
Gd347 O387 2.512 . S
Gd347 O388 2.464 1_554 S
Gd347 O390 2.355 1_654 S
Gd347 C411 2.851 . S
N348 C338 1.359 . S
N348 Gd347 2.594 1_565 S
N348 C350 1.343 . S
C349 C337 1.422 . S
C349 C351 1.321 . S
C349 H357 0.931 . S
C350 N348 1.343 . S
C350 C351 1.390 . S
C350 H352 0.931 . S
C351 C349 1.321 . S
C351 C350 1.390 . S
C351 H353 0.930 . S
H352 C350 0.931 . S
H353 C351 0.930 . S
H354 C377 0.931 . S
H355 C343 0.929 . S
H356 C378 0.930 1_556 S
H357 C349 0.931 . S
H358 C339 0.939 . S
H359 C368 0.929 . S
H360 C344 0.931 . S
H361 C345 0.930 . S
H362 C400 0.930 . S
H363 C341 0.929 . S
H364 C369 0.931 . S
H365 C370 0.930 . S
N366 Gd346 2.622 . S
N366 C367 1.369 . S
N366 C368 1.338 . S
C367 N366 1.369 . S
C367 C371 1.415 . S
C367 C374 1.422 . S
C368 H359 0.929 . S
C368 N366 1.338 . S
C368 C370 1.378 . S
C369 H364 0.931 . S
C369 C370 1.348 . S
C369 C371 1.413 . S
C370 H365 0.930 . S
C370 C368 1.378 . S
C370 C369 1.348 . S
C371 C367 1.415 . S
C371 C369 1.413 . S
C371 C401 1.437 . S
H372 C401 0.929 . S
N373 Gd346 2.570 . S
N373 C374 1.359 . S
N373 C377 1.343 . S
C374 C367 1.422 . S
C374 N373 1.359 . S
C374 C376 1.421 . S
C375 C376 1.422 . S
C375 C378 1.321 . S
C375 H402 0.931 . S
C376 C374 1.421 . S
C376 C375 1.422 . S
C376 C400 1.417 . S
C377 H354 0.931 . S
C377 N373 1.343 . S
C377 C378 1.390 . S
C378 H356 0.930 1_554 S
C378 C375 1.321 . S
C378 C377 1.390 . S
O379 Gd347 2.353 1_465 S
O379 C391 1.265 . S
O380 Gd346 2.353 . S
O380 C391 1.242 1_545 S
O381 Gd346 2.468 . S
O381 C399 1.263 . S
O382 Gd346 2.427 . S
O382 C399 1.252 . S
O383 Gd347 2.299 1_455 S
O383 C392 1.261 . S
O384 Gd346 2.388 . S
O384 C392 1.252 . S
O385 Gd346 2.386 . S
O385 C403 1.265 . S
O386 Gd347 2.348 1_455 S
O386 C403 1.242 . S
O387 Gd347 2.512 . S
O387 C411 1.263 . S
O388 Gd347 2.464 1_556 S
O388 C411 1.252 1_556 S
O389 Gd346 2.307 . S
O389 C404 1.261 1_554 S
O390 Gd347 2.355 1_456 S
O390 C404 1.252 . S
C391 O379 1.265 . S
C391 O380 1.242 1_565 S
C392 O383 1.261 . S
C392 O384 1.252 . S
C393 C396 1.394 . S
C393 C398 1.370 . S
C393 C399 1.500 . S
C394 C397 1.383 . S
C394 C398 1.395 . S
C395 C396 1.396 . S
C395 C397 1.365 . S
C395 H412 0.929 . S
C396 C393 1.394 . S
C396 C395 1.396 . S
C396 H413 0.930 . S
C397 C394 1.383 . S
C397 C395 1.365 . S
C397 H414 0.931 . S
C398 C393 1.370 . S
C398 C394 1.395 . S
C398 H415 0.930 . S
C399 Gd346 2.805 . S
C399 O381 1.263 . S
C399 O382 1.252 . S
C399 C393 1.500 . S
C400 H362 0.930 . S
C400 C376 1.417 . S
C400 C401 1.329 . S
C401 C371 1.437 . S
C401 H372 0.929 . S
C401 C400 1.329 . S
H402 C375 0.931 . S
C403 O385 1.265 . S
C403 O386 1.242 . S
C404 O389 1.261 1_556 S
C404 O390 1.252 . S
C405 C408 1.358 1_554 S
C405 C410 1.402 . S
C405 C411 1.504 . S
C406 C409 1.383 1_554 S
C406 C410 1.395 . S
C407 C408 1.396 . S
C407 C409 1.365 . S
C407 H416 0.929 . S
C408 C405 1.358 1_556 S
C408 C407 1.396 . S
C408 H417 0.930 . S
C409 C406 1.383 1_556 S
C409 C407 1.365 . S
C409 H418 0.931 . S
C410 C405 1.402 . S
C410 C406 1.395 . S
C410 H419 0.930 . S
C411 Gd347 2.851 . S
C411 O387 1.263 . S
C411 O388 1.252 1_554 S
C411 C405 1.504 . S
H412 C395 0.929 . S
H413 C396 0.930 . S
H414 C397 0.931 . S
H415 C398 0.930 . S
H416 C407 0.929 . S
H417 C408 0.930 . S
H418 C409 0.931 . S
H419 C410 0.930 . S
C420 C422 1.422 . S
C420 C424 1.415 . S
C420 N426 1.369 . S
C421 C422 1.421 . S
C421 C423 1.417 . S
C421 C433 1.422 . S
C422 C420 1.422 . S
C422 C421 1.421 . S
C422 N432 1.359 . S
C423 C421 1.417 . S
C423 C425 1.329 . S
C423 H442 0.930 . S
C424 C420 1.415 . S
C424 C425 1.437 . S
C424 C428 1.413 . S
C425 C423 1.329 . S
C425 C424 1.437 . S
C425 H447 0.929 . S
N426 C420 1.369 . S
N426 C427 1.338 . S
N426 Gd431 2.622 . S
C427 N426 1.338 . S
C427 C429 1.378 . S
C427 H439 0.929 . S
C428 C424 1.413 . S
C428 C429 1.348 . S
C428 H444 0.931 . S
C429 C427 1.378 . S
C429 C428 1.348 . S
C429 H445 0.930 . S
Gd430 N450 2.622 . S
Gd430 N457 2.570 . S
Gd430 O464 2.353 . S
Gd430 O465 2.468 . S
Gd430 O466 2.427 . S
Gd430 O468 2.388 . S
Gd430 O469 2.386 . S
Gd430 O473 2.307 . S
Gd430 C483 2.805 . S
Gd431 N426 2.622 . S
Gd431 N432 2.570 . S
Gd431 O463 2.386 . S
Gd431 O467 2.307 . S
Gd431 O470 2.353 . S
Gd431 O471 2.468 . S
Gd431 O472 2.427 . S
Gd431 O474 2.388 . S
Gd431 C495 2.805 . S
N432 C422 1.359 . S
N432 Gd431 2.570 . S
N432 C434 1.343 . S
C433 C421 1.422 . S
C433 C435 1.321 . S
C433 H441 0.931 . S
C434 N432 1.343 . S
C434 C435 1.390 . S
C434 H436 0.931 . S
C435 C433 1.321 . S
C435 C434 1.390 . S
C435 H437 0.930 . S
H436 C434 0.931 . S
H437 C435 0.930 . S
H438 C461 0.931 . S
H439 C427 0.929 . S
H440 C462 0.930 . S
H441 C433 0.931 . S
H442 C423 0.930 . S
H443 C452 0.929 . S
H444 C428 0.931 . S
H445 C429 0.930 . S
H446 C484 0.930 . S
H447 C425 0.929 . S
H448 C453 0.931 . S
H449 C454 0.930 . S
N450 Gd430 2.622 . S
N450 C451 1.369 . S
N450 C452 1.338 . S
C451 N450 1.369 . S
C451 C455 1.415 . S
C451 C458 1.422 . S
C452 H443 0.929 . S
C452 N450 1.338 . S
C452 C454 1.378 . S
C453 H448 0.931 . S
C453 C454 1.348 . S
C453 C455 1.413 . S
C454 H449 0.930 . S
C454 C452 1.378 . S
C454 C453 1.348 . S
C455 C451 1.415 . S
C455 C453 1.413 . S
C455 C485 1.437 . S
H456 C485 0.929 . S
N457 Gd430 2.570 . S
N457 C458 1.359 . S
N457 C461 1.343 . S
C458 C451 1.422 . S
C458 N457 1.359 . S
C458 C460 1.421 . S
C459 C460 1.422 . S
C459 C462 1.321 . S
C459 H486 0.931 . S
C460 C458 1.421 . S
C460 C459 1.422 . S
C460 C484 1.417 . S
C461 H438 0.931 . S
C461 N457 1.343 . S
C461 C462 1.390 . S
C462 H440 0.930 . S
C462 C459 1.321 . S
C462 C461 1.390 . S
O463 Gd431 2.386 . S
O463 C475 1.265 . S
O464 Gd430 2.353 . S
O464 C475 1.242 . S
O465 Gd430 2.468 . S
O465 C483 1.263 . S
O466 Gd430 2.427 . S
O466 C483 1.252 . S
O467 Gd431 2.307 . S
O467 C476 1.261 . S
O468 Gd430 2.388 . S
O468 C476 1.252 . S
O469 Gd430 2.386 . S
O469 C487 1.265 . S
O470 Gd431 2.353 . S
O470 C487 1.242 . S
O471 Gd431 2.468 . S
O471 C495 1.263 . S
O472 Gd431 2.427 . S
O472 C495 1.252 . S
O473 Gd430 2.307 . S
O473 C488 1.261 . S
O474 Gd431 2.388 . S
O474 C488 1.252 . S
C475 O463 1.265 . S
C475 O464 1.242 . S
C476 O467 1.261 . S
C476 O468 1.252 . S
C477 C480 1.394 . S
C477 C482 1.370 . S
C477 C483 1.500 . S
C478 C481 1.383 . S
C478 C482 1.395 . S
C479 C480 1.396 . S
C479 C481 1.365 . S
C479 H496 0.929 . S
C480 C477 1.394 . S
C480 C479 1.396 . S
C480 H497 0.930 . S
C481 C478 1.383 . S
C481 C479 1.365 . S
C481 H498 0.931 . S
C482 C477 1.370 . S
C482 C478 1.395 . S
C482 H499 0.930 . S
C483 Gd430 2.805 . S
C483 O465 1.263 . S
C483 O466 1.252 . S
C483 C477 1.500 . S
C484 H446 0.930 . S
C484 C460 1.417 . S
C484 C485 1.329 . S
C485 C455 1.437 . S
C485 H456 0.929 . S
C485 C484 1.329 . S
H486 C459 0.931 . S
C487 O469 1.265 . S
C487 O470 1.242 . S
C488 O473 1.261 . S
C488 O474 1.252 . S
C489 C492 1.394 . S
C489 C494 1.370 . S
C489 C495 1.500 . S
C490 C493 1.383 . S
C490 C494 1.395 . S
C491 C492 1.396 . S
C491 C493 1.365 . S
C491 H500 0.929 . S
C492 C489 1.394 . S
C492 C491 1.396 . S
C492 H501 0.930 . S
C493 C490 1.383 . S
C493 C491 1.365 . S
C493 H502 0.931 . S
C494 C489 1.370 . S
C494 C490 1.395 . S
C494 H503 0.930 . S
C495 Gd431 2.805 . S
C495 O471 1.263 . S
C495 O472 1.252 . S
C495 C489 1.500 . S
H496 C479 0.929 . S
H497 C480 0.930 . S
H498 C481 0.931 . S
H499 C482 0.930 . S
H500 C491 0.929 . S
H501 C492 0.930 . S
H502 C493 0.931 . S
H503 C494 0.930 . S
C504 C506 1.422 . S
C504 C508 1.415 . S
C504 N510 1.369 . S
C505 C506 1.421 . S
C505 C507 1.417 . S
C505 C517 1.422 . S
C506 C504 1.422 . S
C506 C505 1.421 . S
C506 N516 1.359 . S
C507 C505 1.417 . S
C507 C509 1.329 . S
C507 H526 0.930 . S
C508 C504 1.415 . S
C508 C509 1.437 . S
C508 C512 1.413 . S
C509 C507 1.329 . S
C509 C508 1.437 . S
C509 H531 0.929 . S
N510 C504 1.369 . S
N510 C511 1.338 . S
N510 Gd515 2.622 . S
C511 N510 1.338 . S
C511 C513 1.378 . S
C511 H523 0.929 . S
C512 C508 1.413 . S
C512 C513 1.348 . S
C512 H528 0.931 . S
C513 C511 1.378 . S
C513 C512 1.348 . S
C513 H529 0.930 . S
Gd514 N534 2.622 1_545 S
Gd514 N541 2.570 1_545 S
Gd514 O548 2.353 . S
Gd514 O549 2.468 . S
Gd514 O550 2.427 . S
Gd514 O552 2.388 . S
Gd514 O553 2.386 1_545 S
Gd514 O557 2.307 . S
Gd514 C567 2.805 . S
Gd515 N510 2.622 . S
Gd515 N516 2.570 . S
Gd515 O547 2.386 . S
Gd515 O551 2.307 . S
Gd515 O554 2.353 1_545 S
Gd515 O555 2.468 . S
Gd515 O556 2.427 . S
Gd515 O558 2.388 . S
Gd515 C579 2.805 . S
N516 C506 1.359 . S
N516 Gd515 2.570 . S
N516 C518 1.343 . S
C517 C505 1.422 . S
C517 C519 1.321 . S
C517 H525 0.931 . S
C518 N516 1.343 . S
C518 C519 1.390 . S
C518 H520 0.931 . S
C519 C517 1.321 . S
C519 C518 1.390 . S
C519 H521 0.930 . S
H520 C518 0.931 . S
H521 C519 0.930 . S
H522 C545 0.931 . S
H523 C511 0.929 . S
H524 C546 0.930 . S
H525 C517 0.931 . S
H526 C507 0.930 . S
H527 C536 0.906 1_545 S
H528 C512 0.931 . S
H529 C513 0.930 . S
H530 C568 0.930 . S
H531 C509 0.929 . S
H532 C537 0.931 . S
H533 C538 0.930 . S
N534 Gd514 2.622 1_565 S
N534 C535 1.369 . S
N534 C536 1.336 . S
C535 N534 1.369 . S
C535 C539 1.415 . S
C535 C542 1.422 . S
C536 H527 0.906 1_565 S
C536 N534 1.336 . S
C536 C538 1.403 . S
C537 H532 0.931 . S
C537 C538 1.348 . S
C537 C539 1.413 . S
C538 H533 0.930 . S
C538 C536 1.403 . S
C538 C537 1.348 . S
C539 C535 1.415 . S
C539 C537 1.413 . S
C539 C569 1.437 . S
H540 C569 0.929 . S
N541 Gd514 2.570 1_565 S
N541 C542 1.359 . S
N541 C545 1.343 . S
C542 C535 1.422 . S
C542 N541 1.359 . S
C542 C544 1.421 . S
C543 C544 1.422 . S
C543 C546 1.321 . S
C543 H570 0.931 . S
C544 C542 1.421 . S
C544 C543 1.422 . S
C544 C568 1.417 . S
C545 H522 0.931 . S
C545 N541 1.343 . S
C545 C546 1.390 . S
C546 H524 0.930 . S
C546 C543 1.321 . S
C546 C545 1.390 . S
O547 Gd515 2.386 . S
O547 C559 1.265 . S
O548 Gd514 2.353 . S
O548 C559 1.242 . S
O549 Gd514 2.468 . S
O549 C567 1.263 . S
O550 Gd514 2.427 . S
O550 C567 1.252 . S
O551 Gd515 2.307 . S
O551 C560 1.261 . S
O552 Gd514 2.388 . S
O552 C560 1.252 . S
O553 Gd514 2.386 1_565 S
O553 C571 1.265 . S
O554 Gd515 2.353 1_565 S
O554 C571 1.242 . S
O555 Gd515 2.468 . S
O555 C579 1.263 . S
O556 Gd515 2.427 . S
O556 C579 1.252 . S
O557 Gd514 2.307 . S
O557 C572 1.261 . S
O558 Gd515 2.388 . S
O558 C572 1.252 . S
C559 O547 1.265 . S
C559 O548 1.242 . S
C560 O551 1.261 . S
C560 O552 1.252 . S
C561 C564 1.394 . S
C561 C566 1.370 . S
C561 C567 1.500 . S
C562 C565 1.383 . S
C562 C566 1.395 . S
C563 C564 1.396 . S
C563 C565 1.365 . S
C563 H580 0.929 . S
C564 C561 1.394 . S
C564 C563 1.396 . S
C564 H581 0.930 . S
C565 C562 1.383 . S
C565 C563 1.365 . S
C565 H582 0.931 . S
C566 C561 1.370 . S
C566 C562 1.395 . S
C566 H583 0.930 . S
C567 Gd514 2.805 . S
C567 O549 1.263 . S
C567 O550 1.252 . S
C567 C561 1.500 . S
C568 H530 0.930 . S
C568 C544 1.417 . S
C568 C569 1.329 . S
C569 C539 1.437 . S
C569 H540 0.929 . S
C569 C568 1.329 . S
H570 C543 0.931 . S
C571 O553 1.265 . S
C571 O554 1.242 . S
C572 O557 1.261 . S
C572 O558 1.252 . S
C573 C576 1.394 . S
C573 C578 1.370 . S
C573 C579 1.500 1_565 S
C574 C577 1.383 . S
C574 C578 1.395 . S
C575 C576 1.396 . S
C575 C577 1.365 . S
C575 H584 0.929 . S
C576 C573 1.394 . S
C576 C575 1.396 . S
C576 H585 0.930 . S
C577 C574 1.383 . S
C577 C575 1.365 . S
C577 H586 0.931 . S
C578 C573 1.370 . S
C578 C574 1.395 . S
C578 H587 0.930 . S
C579 Gd515 2.805 . S
C579 O555 1.263 . S
C579 O556 1.252 . S
C579 C573 1.500 1_545 S
H580 C563 0.929 . S
H581 C564 0.930 . S
H582 C565 0.931 . S
H583 C566 0.930 . S
H584 C575 0.929 . S
H585 C576 0.930 . S
H586 C577 0.931 . S
H587 C578 0.930 . S
C588 C590 1.422 . S
C588 C592 1.415 . S
C588 N594 1.369 . S
C589 C590 1.421 . S
C589 C591 1.417 . S
C589 C601 1.422 . S
C590 C588 1.422 . S
C590 C589 1.421 . S
C590 N600 1.359 . S
C591 C589 1.417 . S
C591 C593 1.329 . S
C591 H610 0.930 . S
C592 C588 1.415 . S
C592 C593 1.437 . S
C592 C596 1.413 . S
C593 C591 1.329 . S
C593 C592 1.437 . S
C593 H615 0.929 . S
N594 C588 1.369 . S
N594 C595 1.338 . S
N594 Gd599 2.622 . S
C595 N594 1.338 . S
C595 C597 1.378 . S
C595 H607 0.929 . S
C596 C592 1.413 . S
C596 C597 1.348 . S
C596 H612 0.931 . S
C597 C595 1.378 . S
C597 C596 1.348 . S
C597 H613 0.930 . S
Gd598 N618 2.622 . S
Gd598 N625 2.570 . S
Gd598 O632 2.353 . S
Gd598 O633 2.468 . S
Gd598 O634 2.427 . S
Gd598 O636 2.388 . S
Gd598 O637 2.386 . S
Gd598 O641 2.307 . S
Gd598 C651 2.805 . S
Gd599 N594 2.622 . S
Gd599 N600 2.570 . S
Gd599 O631 2.386 . S
Gd599 O635 2.307 . S
Gd599 O638 2.353 . S
Gd599 O639 2.468 . S
Gd599 O640 2.427 . S
Gd599 O642 2.388 . S
Gd599 C663 2.805 . S
N600 C590 1.359 . S
N600 Gd599 2.570 . S
N600 C602 1.343 . S
C601 C589 1.422 . S
C601 C603 1.321 . S
C601 H609 0.931 . S
C602 N600 1.343 . S
C602 C603 1.390 . S
C602 H604 0.931 . S
C603 C601 1.321 . S
C603 C602 1.390 . S
C603 H605 0.930 . S
H604 C602 0.931 . S
H605 C603 0.930 . S
H606 C629 0.931 . S
H607 C595 0.929 . S
H608 C630 0.930 . S
H609 C601 0.931 . S
H610 C591 0.930 . S
H611 C620 0.929 . S
H612 C596 0.931 . S
H613 C597 0.930 . S
H614 C652 0.930 . S
H615 C593 0.929 . S
H616 C621 0.931 . S
H617 C622 0.930 . S
N618 Gd598 2.622 . S
N618 C619 1.369 . S
N618 C620 1.338 . S
C619 N618 1.369 . S
C619 C623 1.415 . S
C619 C626 1.422 . S
C620 H611 0.929 . S
C620 N618 1.338 . S
C620 C622 1.378 . S
C621 H616 0.931 . S
C621 C622 1.348 . S
C621 C623 1.413 . S
C622 H617 0.930 . S
C622 C620 1.378 . S
C622 C621 1.348 . S
C623 C619 1.415 . S
C623 C621 1.413 . S
C623 C653 1.437 . S
H624 C653 0.929 . S
N625 Gd598 2.570 . S
N625 C626 1.359 . S
N625 C629 1.343 . S
C626 C619 1.422 . S
C626 N625 1.359 . S
C626 C628 1.421 . S
C627 C628 1.422 . S
C627 C630 1.321 . S
C627 H654 0.931 . S
C628 C626 1.421 . S
C628 C627 1.422 . S
C628 C652 1.417 . S
C629 H606 0.931 . S
C629 N625 1.343 . S
C629 C630 1.390 . S
C630 H608 0.930 . S
C630 C627 1.321 . S
C630 C629 1.390 . S
O631 Gd599 2.386 . S
O631 C643 1.265 . S
O632 Gd598 2.353 . S
O632 C643 1.242 . S
O633 Gd598 2.468 . S
O633 C651 1.263 . S
O634 Gd598 2.427 . S
O634 C651 1.252 . S
O635 Gd599 2.307 . S
O635 C644 1.261 . S
O636 Gd598 2.388 . S
O636 C644 1.252 . S
O637 Gd598 2.386 . S
O637 C655 1.265 . S
O638 Gd599 2.353 . S
O638 C655 1.242 . S
O639 Gd599 2.468 . S
O639 C663 1.263 . S
O640 Gd599 2.427 . S
O640 C663 1.252 . S
O641 Gd598 2.307 . S
O641 C656 1.261 . S
O642 Gd599 2.388 . S
O642 C656 1.252 . S
C643 O631 1.265 . S
C643 O632 1.242 . S
C644 O635 1.261 . S
C644 O636 1.252 . S
C645 C648 1.394 . S
C645 C650 1.370 . S
C645 C651 1.500 . S
C646 C649 1.383 . S
C646 C650 1.395 . S
C647 C648 1.396 . S
C647 C649 1.365 . S
C647 H664 0.929 . S
C648 C645 1.394 . S
C648 C647 1.396 . S
C648 H665 0.930 . S
C649 C646 1.383 . S
C649 C647 1.365 . S
C649 H666 0.931 . S
C650 C645 1.370 . S
C650 C646 1.395 . S
C650 H667 0.930 . S
C651 Gd598 2.805 . S
C651 O633 1.263 . S
C651 O634 1.252 . S
C651 C645 1.500 . S
C652 H614 0.930 . S
C652 C628 1.417 . S
C652 C653 1.329 . S
C653 C623 1.437 . S
C653 H624 0.929 . S
C653 C652 1.329 . S
H654 C627 0.931 . S
C655 O637 1.265 . S
C655 O638 1.242 . S
C656 O641 1.261 . S
C656 O642 1.252 . S
C657 C660 1.394 . S
C657 C662 1.370 . S
C657 C663 1.500 . S
C658 C661 1.383 . S
C658 C662 1.395 . S
C659 C660 1.396 . S
C659 C661 1.365 . S
C659 H668 0.929 . S
C660 C657 1.394 . S
C660 C659 1.396 . S
C660 H669 0.930 . S
C661 C658 1.383 . S
C661 C659 1.365 . S
C661 H670 0.931 . S
C662 C657 1.370 . S
C662 C658 1.395 . S
C662 H671 0.930 . S
C663 Gd599 2.805 . S
C663 O639 1.263 . S
C663 O640 1.252 . S
C663 C657 1.500 . S
H664 C647 0.929 . S
H665 C648 0.930 . S
H666 C649 0.931 . S
H667 C650 0.930 . S
H668 C659 0.929 . S
H669 C660 0.930 . S
H670 C661 0.931 . S
H671 C662 0.930 . S
C672 C674 1.422 . S
C672 C676 1.415 1_455 S
C672 N678 1.369 1_455 S
C673 C674 1.421 . S
C673 C675 1.417 . S
C673 C685 1.422 . S
C674 C672 1.422 . S
C674 C673 1.421 . S
C674 N684 1.359 . S
C675 C673 1.417 . S
C675 C677 1.329 . S
C675 H694 0.930 . S
C676 C672 1.415 1_655 S
C676 C677 1.437 1_655 S
C676 C680 1.413 . S
C677 C675 1.329 . S
C677 C676 1.437 1_455 S
C677 H699 0.958 . S
N678 C672 1.369 1_655 S
N678 C679 1.338 . S
N678 Gd683 2.622 1_655 S
C679 N678 1.338 . S
C679 C681 1.378 . S
C679 H691 0.929 . S
C680 C676 1.413 . S
C680 C681 1.348 . S
C680 H696 0.931 . S
C681 C679 1.378 . S
C681 C680 1.348 . S
C681 H697 0.930 . S
Gd682 N702 2.622 . S
Gd682 N709 2.570 . S
Gd682 O716 2.353 1_565 S
Gd682 O717 2.468 . S
Gd682 O718 2.427 . S
Gd682 O720 2.388 1_565 S
Gd682 O721 2.386 1_565 S
Gd682 O725 2.307 1_565 S
Gd682 C735 2.805 . S
Gd683 N678 2.622 1_455 S
Gd683 N684 2.570 . S
Gd683 O715 2.386 . S
Gd683 O719 2.307 . S
Gd683 O722 2.353 . S
Gd683 O723 2.468 . S
Gd683 O724 2.427 1_455 S
Gd683 O726 2.388 1_455 S
Gd683 C747 2.805 . S
N684 C674 1.359 . S
N684 Gd683 2.570 . S
N684 C686 1.343 . S
C685 C673 1.422 . S
C685 C687 1.321 . S
C685 H693 0.931 . S
C686 N684 1.343 . S
C686 C687 1.390 . S
C686 H688 0.931 . S
C687 C685 1.321 . S
C687 C686 1.390 . S
C687 H689 0.930 . S
H688 C686 0.931 . S
H689 C687 0.930 . S
H690 C713 0.931 . S
H691 C679 0.929 . S
H692 C714 0.930 . S
H693 C685 0.931 . S
H694 C675 0.930 . S
H695 C704 0.929 1_545 S
H696 C680 0.931 . S
H697 C681 0.930 . S
H698 C736 0.930 . S
H699 C677 0.958 . S
H700 C705 0.931 . S
H701 C706 0.930 . S
N702 Gd682 2.622 . S
N702 C703 1.369 . S
N702 C704 1.338 . S
C703 N702 1.369 . S
C703 C707 1.415 . S
C703 C710 1.422 . S
C704 H695 0.929 1_565 S
C704 N702 1.338 . S
C704 C706 1.378 . S
C705 H700 0.931 . S
C705 C706 1.348 . S
C705 C707 1.413 . S
C706 H701 0.930 . S
C706 C704 1.378 . S
C706 C705 1.348 . S
C707 C703 1.415 . S
C707 C705 1.413 . S
C707 C737 1.437 . S
H708 C737 0.929 . S
N709 Gd682 2.570 . S
N709 C710 1.359 . S
N709 C713 1.343 1_455 S
C710 C703 1.422 . S
C710 N709 1.359 . S
C710 C712 1.421 . S
C711 C712 1.422 1_655 S
C711 C714 1.321 . S
C711 H738 0.931 . S
C712 C710 1.421 . S
C712 C711 1.422 1_455 S
C712 C736 1.417 . S
C713 H690 0.931 . S
C713 N709 1.343 1_655 S
C713 C714 1.390 . S
C714 H692 0.930 . S
C714 C711 1.321 . S
C714 C713 1.390 . S
O715 Gd683 2.386 . S
O715 C727 1.265 . S
O716 Gd682 2.353 1_545 S
O716 C727 1.242 . S
O717 Gd682 2.468 . S
O717 C735 1.263 . S
O718 Gd682 2.427 . S
O718 C735 1.252 . S
O719 Gd683 2.307 . S
O719 C728 1.261 . S
O720 Gd682 2.388 1_545 S
O720 C728 1.252 . S
O721 Gd682 2.386 1_545 S
O721 C739 1.265 . S
O722 Gd683 2.353 . S
O722 C739 1.242 . S
O723 Gd683 2.468 . S
O723 C747 1.263 . S
O724 Gd683 2.427 1_655 S
O724 C747 1.252 1_655 S
O725 Gd682 2.307 1_545 S
O725 C740 1.261 1_455 S
O726 Gd683 2.388 1_655 S
O726 C740 1.252 . S
C727 O715 1.265 . S
C727 O716 1.242 . S
C728 O719 1.261 . S
C728 O720 1.252 . S
C729 C732 1.394 . S
C729 C734 1.370 . S
C729 C735 1.500 . S
C730 C733 1.383 . S
C730 C734 1.395 . S
C731 C732 1.396 . S
C731 C733 1.365 . S
C731 H748 0.929 . S
C732 C729 1.394 . S
C732 C731 1.396 . S
C732 H749 0.930 . S
C733 C730 1.383 . S
C733 C731 1.365 . S
C733 H750 0.931 . S
C734 C729 1.370 . S
C734 C730 1.395 . S
C734 H751 0.930 . S
C735 Gd682 2.805 . S
C735 O717 1.263 . S
C735 O718 1.252 . S
C735 C729 1.500 . S
C736 H698 0.930 . S
C736 C712 1.417 . S
C736 C737 1.329 . S
C737 C707 1.437 . S
C737 H708 0.929 . S
C737 C736 1.329 . S
H738 C711 0.931 . S
C739 O721 1.265 . S
C739 O722 1.242 . S
C740 O725 1.261 1_655 S
C740 O726 1.252 . S
C741 C744 1.394 1_455 S
C741 C746 1.370 . S
C741 C747 1.500 . S
C742 C745 1.383 . S
C742 C746 1.395 . S
C743 C744 1.396 . S
C743 C745 1.365 1_655 S
C743 H752 0.929 . S
C744 C741 1.394 1_655 S
C744 C743 1.396 . S
C744 H753 0.930 . S
C745 C742 1.383 . S
C745 C743 1.365 1_455 S
C745 H754 0.931 1_455 S
C746 C741 1.370 . S
C746 C742 1.395 . S
C746 H755 0.930 . S
C747 Gd683 2.805 . S
C747 O723 1.263 . S
C747 O724 1.252 1_455 S
C747 C741 1.500 . S
H748 C731 0.929 . S
H749 C732 0.930 . S
H750 C733 0.931 . S
H751 C734 0.930 . S
H752 C743 0.929 . S
H753 C744 0.930 . S
H754 C745 0.931 1_655 S
H755 C746 0.930 . S
C756 C758 1.422 . S
C756 C760 1.415 . S
C756 N762 1.369 . S
C757 C758 1.421 . S
C757 C759 1.417 . S
C757 C769 1.422 . S
C758 C756 1.422 . S
C758 C757 1.421 . S
C758 N768 1.359 . S
C759 C757 1.417 . S
C759 C761 1.329 . S
C759 H778 0.930 . S
C760 C756 1.415 . S
C760 C761 1.437 . S
C760 C764 1.413 . S
C761 C759 1.329 . S
C761 C760 1.437 . S
C761 H783 0.929 . S
N762 C756 1.369 . S
N762 C763 1.338 . S
N762 Gd767 2.622 . S
C763 N762 1.338 . S
C763 C765 1.378 . S
C763 H775 0.929 . S
C764 C760 1.413 . S
C764 C765 1.348 . S
C764 H780 0.931 . S
C765 C763 1.378 . S
C765 C764 1.348 . S
C765 H781 0.930 . S
Gd766 N786 2.622 . S
Gd766 N793 2.570 . S
Gd766 O800 2.353 . S
Gd766 O801 2.468 . S
Gd766 O802 2.427 . S
Gd766 O804 2.388 . S
Gd766 O805 2.386 . S
Gd766 O809 2.307 . S
Gd766 C819 2.805 . S
Gd767 N762 2.622 . S
Gd767 N768 2.570 . S
Gd767 O799 2.386 . S
Gd767 O803 2.307 . S
Gd767 O806 2.353 . S
Gd767 O807 2.468 . S
Gd767 O808 2.427 . S
Gd767 O810 2.388 . S
Gd767 C831 2.805 . S
N768 C758 1.359 . S
N768 Gd767 2.570 . S
N768 C770 1.343 . S
C769 C757 1.422 . S
C769 C771 1.321 . S
C769 H777 0.931 . S
C770 N768 1.343 . S
C770 C771 1.390 . S
C770 H772 0.931 . S
C771 C769 1.321 . S
C771 C770 1.390 . S
C771 H773 0.930 . S
H772 C770 0.931 . S
H773 C771 0.930 . S
H774 C797 0.931 . S
H775 C763 0.929 . S
H776 C798 0.930 . S
H777 C769 0.931 . S
H778 C759 0.930 . S
H779 C788 0.929 . S
H780 C764 0.931 . S
H781 C765 0.930 . S
H782 C820 0.930 . S
H783 C761 0.929 . S
H784 C789 0.931 . S
H785 C790 0.930 . S
N786 Gd766 2.622 . S
N786 C787 1.369 . S
N786 C788 1.338 . S
C787 N786 1.369 . S
C787 C791 1.415 . S
C787 C794 1.422 . S
C788 H779 0.929 . S
C788 N786 1.338 . S
C788 C790 1.378 . S
C789 H784 0.931 . S
C789 C790 1.348 . S
C789 C791 1.413 . S
C790 H785 0.930 . S
C790 C788 1.378 . S
C790 C789 1.348 . S
C791 C787 1.415 . S
C791 C789 1.413 . S
C791 C821 1.437 . S
H792 C821 0.929 . S
N793 Gd766 2.570 . S
N793 C794 1.359 . S
N793 C797 1.343 . S
C794 C787 1.422 . S
C794 N793 1.359 . S
C794 C796 1.421 . S
C795 C796 1.422 . S
C795 C798 1.321 . S
C795 H822 0.931 . S
C796 C794 1.421 . S
C796 C795 1.422 . S
C796 C820 1.417 . S
C797 H774 0.931 . S
C797 N793 1.343 . S
C797 C798 1.390 . S
C798 H776 0.930 . S
C798 C795 1.321 . S
C798 C797 1.390 . S
O799 Gd767 2.386 . S
O799 C811 1.265 . S
O800 Gd766 2.353 . S
O800 C811 1.242 . S
O801 Gd766 2.468 . S
O801 C819 1.263 . S
O802 Gd766 2.427 . S
O802 C819 1.252 . S
O803 Gd767 2.307 . S
O803 C812 1.261 . S
O804 Gd766 2.388 . S
O804 C812 1.252 . S
O805 Gd766 2.386 . S
O805 C823 1.265 . S
O806 Gd767 2.353 . S
O806 C823 1.242 . S
O807 Gd767 2.468 . S
O807 C831 1.263 . S
O808 Gd767 2.427 . S
O808 C831 1.252 . S
O809 Gd766 2.307 . S
O809 C824 1.261 . S
O810 Gd767 2.388 . S
O810 C824 1.252 . S
C811 O799 1.265 . S
C811 O800 1.242 . S
C812 O803 1.261 . S
C812 O804 1.252 . S
C813 C816 1.394 . S
C813 C818 1.370 . S
C813 C819 1.500 . S
C814 C817 1.383 . S
C814 C818 1.395 . S
C815 C816 1.396 . S
C815 C817 1.365 . S
C815 H832 0.929 . S
C816 C813 1.394 . S
C816 C815 1.396 . S
C816 H833 0.930 . S
C817 C814 1.383 . S
C817 C815 1.365 . S
C817 H834 0.931 . S
C818 C813 1.370 . S
C818 C814 1.395 . S
C818 H835 0.930 . S
C819 Gd766 2.805 . S
C819 O801 1.263 . S
C819 O802 1.252 . S
C819 C813 1.500 . S
C820 H782 0.930 . S
C820 C796 1.417 . S
C820 C821 1.329 . S
C821 C791 1.437 . S
C821 H792 0.929 . S
C821 C820 1.329 . S
H822 C795 0.931 . S
C823 O805 1.265 . S
C823 O806 1.242 . S
C824 O809 1.261 . S
C824 O810 1.252 . S
C825 C828 1.394 . S
C825 C830 1.370 . S
C825 C831 1.500 . S
C826 C829 1.383 . S
C826 C830 1.395 . S
C827 C828 1.396 . S
C827 C829 1.365 . S
C827 H836 0.929 . S
C828 C825 1.394 . S
C828 C827 1.396 . S
C828 H837 0.930 . S
C829 C826 1.383 . S
C829 C827 1.365 . S
C829 H838 0.931 . S
C830 C825 1.370 . S
C830 C826 1.395 . S
C830 H839 0.930 . S
C831 Gd767 2.805 . S
C831 O807 1.263 . S
C831 O808 1.252 . S
C831 C825 1.500 . S
H832 C815 0.929 . S
H833 C816 0.930 . S
H834 C817 0.931 . S
H835 C818 0.930 . S
H836 C827 0.929 . S
H837 C828 0.930 . S
H838 C829 0.931 . S
H839 C830 0.930 . S
C840 C842 1.422 . S
C840 C844 1.415 1_545 S
C840 N846 1.369 1_545 S
C841 C842 1.421 . S
C841 C843 1.417 . S
C841 C853 1.422 . S
C842 C840 1.422 . S
C842 C841 1.421 . S
C842 N852 1.359 . S
C843 C841 1.417 . S
C843 C845 1.329 . S
C843 H862 0.930 . S
C844 C840 1.415 1_565 S
C844 C845 1.437 1_565 S
C844 C848 1.413 . S
C845 C843 1.329 . S
C845 C844 1.437 1_545 S
C845 H867 0.929 1_545 S
N846 C840 1.369 1_565 S
N846 C847 1.338 . S
N846 Gd851 2.622 1_565 S
C847 N846 1.338 . S
C847 C849 1.378 . S
C847 H859 0.929 . S
C848 C844 1.413 . S
C848 C849 1.348 . S
C848 H864 0.931 . S
C849 C847 1.378 . S
C849 C848 1.348 . S
C849 H865 0.930 . S
Gd850 N870 2.622 . S
Gd850 N877 2.570 . S
Gd850 O884 2.353 1_556 S
Gd850 O885 2.468 . S
Gd850 O886 2.427 . S
Gd850 O888 2.388 1_556 S
Gd850 O889 2.386 1_556 S
Gd850 O893 2.307 . S
Gd850 C903 2.805 . S
Gd851 N846 2.622 1_545 S
Gd851 N852 2.570 . S
Gd851 O883 2.386 . S
Gd851 O887 2.307 . S
Gd851 O890 2.353 . S
Gd851 O891 2.468 . S
Gd851 O892 2.427 1_545 S
Gd851 O894 2.388 1_545 S
Gd851 C915 2.805 . S
N852 C842 1.359 . S
N852 Gd851 2.570 . S
N852 C854 1.343 . S
C853 C841 1.422 . S
C853 C855 1.321 . S
C853 H861 0.931 . S
C854 N852 1.343 . S
C854 C855 1.390 . S
C854 H856 0.931 . S
C855 C853 1.321 . S
C855 C854 1.390 . S
C855 H857 0.930 . S
H856 C854 0.931 . S
H857 C855 0.930 . S
H858 C881 0.931 . S
H859 C847 0.929 . S
H860 C882 0.930 . S
H861 C853 0.931 . S
H862 C843 0.930 . S
H863 C872 0.930 1_554 S
H864 C848 0.931 . S
H865 C849 0.930 . S
H866 C904 0.930 . S
H867 C845 0.929 1_565 S
H868 C873 0.931 . S
H869 C874 0.930 . S
N870 Gd850 2.622 . S
N870 C871 1.369 . S
N870 C872 1.338 . S
C871 N870 1.369 . S
C871 C875 1.415 . S
C871 C878 1.422 . S
C872 H863 0.930 1_556 S
C872 N870 1.338 . S
C872 C874 1.378 . S
C873 H868 0.931 . S
C873 C874 1.348 . S
C873 C875 1.413 . S
C874 H869 0.930 . S
C874 C872 1.378 . S
C874 C873 1.348 . S
C875 C871 1.415 . S
C875 C873 1.413 . S
C875 C905 1.437 . S
H876 C905 0.929 . S
N877 Gd850 2.570 . S
N877 C878 1.359 . S
N877 C881 1.343 . S
C878 C871 1.422 . S
C878 N877 1.359 . S
C878 C880 1.421 . S
C879 C880 1.422 . S
C879 C882 1.321 1_545 S
C879 H906 0.936 . S
C880 C878 1.421 . S
C880 C879 1.422 . S
C880 C904 1.417 . S
C881 H858 0.931 . S
C881 N877 1.343 . S
C881 C882 1.390 1_545 S
C882 H860 0.930 . S
C882 C879 1.321 1_565 S
C882 C881 1.390 1_565 S
O883 Gd851 2.386 . S
O883 C895 1.265 . S
O884 Gd850 2.353 1_554 S
O884 C895 1.242 . S
O885 Gd850 2.468 . S
O885 C903 1.263 . S
O886 Gd850 2.427 . S
O886 C903 1.252 . S
O887 Gd851 2.307 . S
O887 C896 1.261 . S
O888 Gd850 2.388 1_554 S
O888 C896 1.252 . S
O889 Gd850 2.386 1_554 S
O889 C907 1.265 . S
O890 Gd851 2.353 . S
O890 C907 1.242 . S
O891 Gd851 2.468 . S
O891 C915 1.263 . S
O892 Gd851 2.427 1_565 S
O892 C915 1.252 1_565 S
O893 Gd850 2.307 . S
O893 C908 1.246 1_546 S
O894 Gd851 2.388 1_565 S
O894 C908 1.295 . S
C895 O883 1.265 . S
C895 O884 1.242 . S
C896 O887 1.261 . S
C896 O888 1.252 . S
C897 C900 1.394 . S
C897 C902 1.370 . S
C897 C903 1.500 . S
C898 C901 1.383 . S
C898 C902 1.395 . S
C899 C900 1.396 . S
C899 C901 1.365 . S
C899 H916 0.929 . S
C900 C897 1.394 . S
C900 C899 1.396 . S
C900 H917 0.930 . S
C901 C898 1.383 . S
C901 C899 1.365 . S
C901 H918 0.931 . S
C902 C897 1.370 . S
C902 C898 1.395 . S
C902 H919 0.930 . S
C903 Gd850 2.805 . S
C903 O885 1.263 . S
C903 O886 1.252 . S
C903 C897 1.500 . S
C904 H866 0.930 . S
C904 C880 1.417 . S
C904 C905 1.329 . S
C905 C875 1.437 . S
C905 H876 0.929 . S
C905 C904 1.329 . S
H906 C879 0.936 . S
C907 O889 1.265 . S
C907 O890 1.242 . S
C908 O893 1.246 1_564 S
C908 O894 1.295 . S
C909 C912 1.394 . S
C909 C914 1.370 1_565 S
C909 C915 1.500 1_565 S
C910 C913 1.383 1_545 S
C910 C914 1.395 . S
C911 C912 1.396 . S
C911 C913 1.365 . S
C911 H920 0.929 . S
C912 C909 1.394 . S
C912 C911 1.396 . S
C912 H921 0.930 . S
C913 C910 1.383 1_565 S
C913 C911 1.365 . S
C913 H922 0.931 . S
C914 C909 1.370 1_545 S
C914 C910 1.395 . S
C914 H923 0.930 . S
C915 Gd851 2.805 . S
C915 O891 1.263 . S
C915 O892 1.252 1_545 S
C915 C909 1.500 1_545 S
H916 C899 0.929 . S
H917 C900 0.930 . S
H918 C901 0.931 . S
H919 C902 0.930 . S
H920 C911 0.929 . S
H921 C912 0.930 . S
H922 C913 0.931 . S
H923 C914 0.930 . S
C924 C926 1.422 . S
C924 C928 1.415 . S
C924 N930 1.369 . S
C925 C926 1.421 . S
C925 C927 1.417 . S
C925 C937 1.422 . S
C926 C924 1.422 . S
C926 C925 1.421 . S
C926 N936 1.359 . S
C927 C925 1.417 . S
C927 C929 1.329 . S
C927 H946 0.930 . S
C928 C924 1.415 . S
C928 C929 1.437 . S
C928 C932 1.413 . S
C929 C927 1.329 . S
C929 C928 1.437 . S
C929 H951 0.929 . S
N930 C924 1.369 . S
N930 C931 1.338 . S
N930 Gd935 2.622 . S
C931 N930 1.338 . S
C931 C933 1.378 . S
C931 H943 0.929 . S
C932 C928 1.413 . S
C932 C933 1.348 . S
C932 H948 0.931 . S
C933 C931 1.378 . S
C933 C932 1.348 . S
C933 H949 0.930 . S
Gd934 N954 2.622 . S
Gd934 N961 2.570 . S
Gd934 O968 2.353 . S
Gd934 O969 2.468 . S
Gd934 O970 2.427 . S
Gd934 O972 2.388 . S
Gd934 O973 2.386 . S
Gd934 O977 2.307 . S
Gd934 C987 2.805 . S
Gd935 N930 2.622 . S
Gd935 N936 2.570 . S
Gd935 O967 2.386 . S
Gd935 O971 2.307 . S
Gd935 O974 2.353 . S
Gd935 O975 2.468 . S
Gd935 O976 2.427 . S
Gd935 O978 2.388 . S
Gd935 C999 2.805 . S
N936 C926 1.359 . S
N936 Gd935 2.570 . S
N936 C938 1.343 . S
C937 C925 1.422 . S
C937 C939 1.321 . S
C937 H945 0.931 . S
C938 N936 1.343 . S
C938 C939 1.390 . S
C938 H940 0.931 . S
C939 C937 1.321 . S
C939 C938 1.390 . S
C939 H941 0.930 . S
H940 C938 0.931 . S
H941 C939 0.930 . S
H942 C965 0.931 . S
H943 C931 0.929 . S
H944 C966 0.930 . S
H945 C937 0.931 . S
H946 C927 0.930 . S
H947 C956 0.929 . S
H948 C932 0.931 . S
H949 C933 0.930 . S
H950 C988 0.930 . S
H951 C929 0.929 . S
H952 C957 0.931 . S
H953 C958 0.930 . S
N954 Gd934 2.622 . S
N954 C955 1.369 . S
N954 C956 1.338 . S
C955 N954 1.369 . S
C955 C959 1.415 . S
C955 C962 1.422 . S
C956 H947 0.929 . S
C956 N954 1.338 . S
C956 C958 1.378 . S
C957 H952 0.931 . S
C957 C958 1.348 . S
C957 C959 1.413 . S
C958 H953 0.930 . S
C958 C956 1.378 . S
C958 C957 1.348 . S
C959 C955 1.415 . S
C959 C957 1.413 . S
C959 C989 1.437 . S
H960 C989 0.929 . S
N961 Gd934 2.570 . S
N961 C962 1.359 . S
N961 C965 1.343 . S
C962 C955 1.422 . S
C962 N961 1.359 . S
C962 C964 1.421 . S
C963 C964 1.422 . S
C963 C966 1.321 . S
C963 H990 0.931 . S
C964 C962 1.421 . S
C964 C963 1.422 . S
C964 C988 1.417 . S
C965 H942 0.931 . S
C965 N961 1.343 . S
C965 C966 1.390 . S
C966 H944 0.930 . S
C966 C963 1.321 . S
C966 C965 1.390 . S
O967 Gd935 2.386 . S
O967 C979 1.265 . S
O968 Gd934 2.353 . S
O968 C979 1.242 . S
O969 Gd934 2.468 . S
O969 C987 1.263 . S
O970 Gd934 2.427 . S
O970 C987 1.252 . S
O971 Gd935 2.307 . S
O971 C980 1.261 . S
O972 Gd934 2.388 . S
O972 C980 1.252 . S
O973 Gd934 2.386 . S
O973 C991 1.265 . S
O974 Gd935 2.353 . S
O974 C991 1.242 . S
O975 Gd935 2.468 . S
O975 C999 1.263 . S
O976 Gd935 2.427 . S
O976 C999 1.252 . S
O977 Gd934 2.307 . S
O977 C992 1.261 . S
O978 Gd935 2.388 . S
O978 C992 1.252 . S
C979 O967 1.265 . S
C979 O968 1.242 . S
C980 O971 1.261 . S
C980 O972 1.252 . S
C981 C984 1.394 . S
C981 C986 1.370 . S
C981 C987 1.500 . S
C982 C985 1.383 . S
C982 C986 1.395 . S
C983 C984 1.396 . S
C983 C985 1.365 . S
C983 H1000 0.929 . S
C984 C981 1.394 . S
C984 C983 1.396 . S
C984 H1001 0.930 . S
C985 C982 1.383 . S
C985 C983 1.365 . S
C985 H1002 0.931 . S
C986 C981 1.370 . S
C986 C982 1.395 . S
C986 H1003 0.930 . S
C987 Gd934 2.805 . S
C987 O969 1.263 . S
C987 O970 1.252 . S
C987 C981 1.500 . S
C988 H950 0.930 . S
C988 C964 1.417 . S
C988 C989 1.329 . S
C989 C959 1.437 . S
C989 H960 0.929 . S
C989 C988 1.329 . S
H990 C963 0.931 . S
C991 O973 1.265 . S
C991 O974 1.242 . S
C992 O977 1.261 . S
C992 O978 1.252 . S
C993 C996 1.394 . S
C993 C998 1.370 . S
C993 C999 1.500 . S
C994 C997 1.383 . S
C994 C998 1.395 . S
C995 C996 1.396 . S
C995 C997 1.365 . S
C995 H1004 0.929 . S
C996 C993 1.394 . S
C996 C995 1.396 . S
C996 H1005 0.930 . S
C997 C994 1.383 . S
C997 C995 1.365 . S
C997 H1006 0.931 . S
C998 C993 1.370 . S
C998 C994 1.395 . S
C998 H1007 0.930 . S
C999 Gd935 2.805 . S
C999 O975 1.263 . S
C999 O976 1.252 . S
C999 C993 1.500 . S
H1000 C983 0.929 . S
H1001 C984 0.930 . S
H1002 C985 0.931 . S
H1003 C986 0.930 . S
H1004 C995 0.929 . S
H1005 C996 0.930 . S
H1006 C997 0.931 . S
H1007 C998 0.930 . S
C1008 C1010 1.422 . S
C1008 C1012 1.415 . S
C1008 N1014 1.369 . S
C1009 C1010 1.421 . S
C1009 C1011 1.417 . S
C1009 C1021 1.422 . S
C1010 C1008 1.422 . S
C1010 C1009 1.421 . S
C1010 N1020 1.359 . S
C1011 C1009 1.417 . S
C1011 C1013 1.329 . S
C1011 H1030 0.930 . S
C1012 C1008 1.415 . S
C1012 C1013 1.437 . S
C1012 C1016 1.413 . S
C1013 C1011 1.329 . S
C1013 C1012 1.437 . S
C1013 H1035 0.929 . S
N1014 C1008 1.369 . S
N1014 C1015 1.338 . S
N1014 Gd1019 2.622 . S
C1015 N1014 1.338 . S
C1015 C1017 1.378 . S
C1015 H1027 0.929 . S
C1016 C1012 1.413 . S
C1016 C1017 1.348 . S
C1016 H1032 0.931 . S
C1017 C1015 1.378 . S
C1017 C1016 1.348 . S
C1017 H1033 0.930 . S
Gd1018 N1038 2.622 1_554 S
Gd1018 N1045 2.570 1_554 S
Gd1018 O1052 2.353 . S
Gd1018 O1053 2.468 . S
Gd1018 O1054 2.427 . S
Gd1018 O1056 2.388 . S
Gd1018 O1057 2.386 1_554 S
Gd1018 O1061 2.307 . S
Gd1018 C1071 2.805 . S
Gd1019 N1014 2.622 . S
Gd1019 N1020 2.570 . S
Gd1019 O1051 2.386 . S
Gd1019 O1055 2.307 . S
Gd1019 O1058 2.353 1_554 S
Gd1019 O1059 2.468 . S
Gd1019 O1060 2.427 . S
Gd1019 O1062 2.388 . S
Gd1019 C1083 2.805 . S
N1020 C1010 1.359 . S
N1020 Gd1019 2.570 . S
N1020 C1022 1.343 . S
C1021 C1009 1.422 . S
C1021 C1023 1.321 . S
C1021 H1029 0.931 . S
C1022 N1020 1.343 . S
C1022 C1023 1.390 . S
C1022 H1024 0.931 . S
C1023 C1021 1.321 . S
C1023 C1022 1.390 . S
C1023 H1025 0.930 . S
H1024 C1022 0.931 . S
H1025 C1023 0.930 . S
H1026 C1049 0.931 . S
H1027 C1015 0.929 . S
H1028 C1050 0.930 . S
H1029 C1021 0.931 . S
H1030 C1011 0.930 . S
H1031 C1040 0.930 . S
H1032 C1016 0.931 . S
H1033 C1017 0.930 . S
H1034 C1072 0.930 . S
H1035 C1013 0.929 . S
H1036 C1041 0.931 . S
H1037 C1042 0.930 . S
N1038 Gd1018 2.622 1_556 S
N1038 C1039 1.369 . S
N1038 C1040 1.338 . S
C1039 N1038 1.369 . S
C1039 C1043 1.415 . S
C1039 C1046 1.422 . S
C1040 H1031 0.930 . S
C1040 N1038 1.338 . S
C1040 C1042 1.378 . S
C1041 H1036 0.931 . S
C1041 C1042 1.348 . S
C1041 C1043 1.413 . S
C1042 H1037 0.930 . S
C1042 C1040 1.378 . S
C1042 C1041 1.348 . S
C1043 C1039 1.415 . S
C1043 C1041 1.413 . S
C1043 C1073 1.437 . S
H1044 C1073 0.929 . S
N1045 Gd1018 2.570 1_556 S
N1045 C1046 1.359 . S
N1045 C1049 1.343 . S
C1046 C1039 1.422 . S
C1046 N1045 1.359 . S
C1046 C1048 1.421 . S
C1047 C1048 1.422 . S
C1047 C1050 1.321 . S
C1047 H1074 0.931 . S
C1048 C1046 1.421 . S
C1048 C1047 1.422 . S
C1048 C1072 1.417 . S
C1049 H1026 0.931 . S
C1049 N1045 1.343 . S
C1049 C1050 1.390 . S
C1050 H1028 0.930 . S
C1050 C1047 1.321 . S
C1050 C1049 1.390 . S
O1051 Gd1019 2.386 . S
O1051 C1063 1.265 . S
O1052 Gd1018 2.353 . S
O1052 C1063 1.242 . S
O1053 Gd1018 2.468 . S
O1053 C1071 1.263 . S
O1054 Gd1018 2.427 . S
O1054 C1071 1.252 . S
O1055 Gd1019 2.307 . S
O1055 C1064 1.261 . S
O1056 Gd1018 2.388 . S
O1056 C1064 1.252 . S
O1057 Gd1018 2.386 1_556 S
O1057 C1075 1.265 . S
O1058 Gd1019 2.353 1_556 S
O1058 C1075 1.242 . S
O1059 Gd1019 2.468 . S
O1059 C1083 1.263 . S
O1060 Gd1019 2.427 . S
O1060 C1083 1.252 . S
O1061 Gd1018 2.307 . S
O1061 C1076 1.261 . S
O1062 Gd1019 2.388 . S
O1062 C1076 1.252 . S
C1063 O1051 1.265 . S
C1063 O1052 1.242 . S
C1064 O1055 1.261 . S
C1064 O1056 1.252 . S
C1065 C1068 1.394 . S
C1065 C1070 1.370 . S
C1065 C1071 1.500 . S
C1066 C1069 1.383 . S
C1066 C1070 1.395 . S
C1067 C1068 1.396 . S
C1067 C1069 1.365 . S
C1067 H1084 0.929 . S
C1068 C1065 1.394 . S
C1068 C1067 1.396 . S
C1068 H1085 0.930 . S
C1069 C1066 1.383 . S
C1069 C1067 1.365 . S
C1069 H1086 0.931 . S
C1070 C1065 1.370 . S
C1070 C1066 1.395 . S
C1070 H1087 0.930 . S
C1071 Gd1018 2.805 . S
C1071 O1053 1.263 . S
C1071 O1054 1.252 . S
C1071 C1065 1.500 . S
C1072 H1034 0.930 . S
C1072 C1048 1.417 . S
C1072 C1073 1.329 . S
C1073 C1043 1.437 . S
C1073 H1044 0.929 . S
C1073 C1072 1.329 . S
H1074 C1047 0.931 . S
C1075 O1057 1.265 . S
C1075 O1058 1.242 . S
C1076 O1061 1.261 . S
C1076 O1062 1.252 . S
C1077 C1080 1.394 . S
C1077 C1082 1.370 . S
C1077 C1083 1.500 1_556 S
C1078 C1081 1.383 . S
C1078 C1082 1.395 . S
C1079 C1080 1.396 . S
C1079 C1081 1.365 . S
C1079 H1088 0.929 . S
C1080 C1077 1.394 . S
C1080 C1079 1.396 . S
C1080 H1089 0.930 . S
C1081 C1078 1.383 . S
C1081 C1079 1.365 . S
C1081 H1090 0.931 . S
C1082 C1077 1.370 . S
C1082 C1078 1.395 . S
C1082 H1091 0.930 . S
C1083 Gd1019 2.805 . S
C1083 O1059 1.263 . S
C1083 O1060 1.252 . S
C1083 C1077 1.500 1_554 S
H1084 C1067 0.929 . S
H1085 C1068 0.930 . S
H1086 C1069 0.931 . S
H1087 C1070 0.930 . S
H1088 C1079 0.929 . S
H1089 C1080 0.930 . S
H1090 C1081 0.931 . S
H1091 C1082 0.930 . S
C1092 C1094 1.422 . S
C1092 C1096 1.415 . S
C1092 N1098 1.369 . S
C1093 C1094 1.421 . S
C1093 C1095 1.417 . S
C1093 C1105 1.422 . S
C1094 C1092 1.422 . S
C1094 C1093 1.421 . S
C1094 N1104 1.359 . S
C1095 C1093 1.417 . S
C1095 C1097 1.329 . S
C1095 H1114 0.930 . S
C1096 C1092 1.415 . S
C1096 C1097 1.437 . S
C1096 C1100 1.413 . S
C1097 C1095 1.329 . S
C1097 C1096 1.437 . S
C1097 H1119 0.929 . S
N1098 C1092 1.369 . S
N1098 C1099 1.338 . S
N1098 Gd1103 2.622 . S
C1099 N1098 1.338 . S
C1099 C1101 1.378 . S
C1099 H1111 0.929 . S
C1100 C1096 1.413 . S
C1100 C1101 1.348 . S
C1100 H1116 0.931 . S
C1101 C1099 1.378 . S
C1101 C1100 1.348 . S
C1101 H1117 0.930 . S
Gd1102 N1122 2.622 . S
Gd1102 N1129 2.570 . S
Gd1102 O1136 2.353 . S
Gd1102 O1137 2.468 . S
Gd1102 O1138 2.427 . S
Gd1102 O1140 2.388 . S
Gd1102 O1141 2.386 . S
Gd1102 O1145 2.307 . S
Gd1102 C1155 2.805 . S
Gd1103 N1098 2.622 . S
Gd1103 N1104 2.570 . S
Gd1103 O1135 2.386 . S
Gd1103 O1139 2.307 . S
Gd1103 O1142 2.353 . S
Gd1103 O1143 2.468 . S
Gd1103 O1144 2.427 . S
Gd1103 O1146 2.388 . S
Gd1103 C1167 2.805 . S
N1104 C1094 1.359 . S
N1104 Gd1103 2.570 . S
N1104 C1106 1.343 . S
C1105 C1093 1.422 . S
C1105 C1107 1.321 . S
C1105 H1113 0.931 . S
C1106 N1104 1.343 . S
C1106 C1107 1.390 . S
C1106 H1108 0.931 . S
C1107 C1105 1.321 . S
C1107 C1106 1.390 . S
C1107 H1109 0.930 . S
H1108 C1106 0.931 . S
H1109 C1107 0.930 . S
H1110 C1133 0.931 . S
H1111 C1099 0.929 . S
H1112 C1134 0.930 . S
H1113 C1105 0.931 . S
H1114 C1095 0.930 . S
H1115 C1124 0.929 . S
H1116 C1100 0.931 . S
H1117 C1101 0.930 . S
H1118 C1156 0.930 . S
H1119 C1097 0.929 . S
H1120 C1125 0.931 . S
H1121 C1126 0.930 . S
N1122 Gd1102 2.622 . S
N1122 C1123 1.369 . S
N1122 C1124 1.338 . S
C1123 N1122 1.369 . S
C1123 C1127 1.415 . S
C1123 C1130 1.422 . S
C1124 H1115 0.929 . S
C1124 N1122 1.338 . S
C1124 C1126 1.378 . S
C1125 H1120 0.931 . S
C1125 C1126 1.348 . S
C1125 C1127 1.413 . S
C1126 H1121 0.930 . S
C1126 C1124 1.378 . S
C1126 C1125 1.348 . S
C1127 C1123 1.415 . S
C1127 C1125 1.413 . S
C1127 C1157 1.437 . S
H1128 C1157 0.929 . S
N1129 Gd1102 2.570 . S
N1129 C1130 1.359 . S
N1129 C1133 1.343 . S
C1130 C1123 1.422 . S
C1130 N1129 1.359 . S
C1130 C1132 1.421 . S
C1131 C1132 1.422 . S
C1131 C1134 1.321 . S
C1131 H1158 0.931 . S
C1132 C1130 1.421 . S
C1132 C1131 1.422 . S
C1132 C1156 1.417 . S
C1133 H1110 0.931 . S
C1133 N1129 1.343 . S
C1133 C1134 1.390 . S
C1134 H1112 0.930 . S
C1134 C1131 1.321 . S
C1134 C1133 1.390 . S
O1135 Gd1103 2.386 . S
O1135 C1147 1.265 . S
O1136 Gd1102 2.353 . S
O1136 C1147 1.242 . S
O1137 Gd1102 2.468 . S
O1137 C1155 1.263 . S
O1138 Gd1102 2.427 . S
O1138 C1155 1.252 . S
O1139 Gd1103 2.307 . S
O1139 C1148 1.261 . S
O1140 Gd1102 2.388 . S
O1140 C1148 1.252 . S
O1141 Gd1102 2.386 . S
O1141 C1159 1.265 . S
O1142 Gd1103 2.353 . S
O1142 C1159 1.242 . S
O1143 Gd1103 2.468 . S
O1143 C1167 1.263 . S
O1144 Gd1103 2.427 . S
O1144 C1167 1.252 . S
O1145 Gd1102 2.307 . S
O1145 C1160 1.261 . S
O1146 Gd1103 2.388 . S
O1146 C1160 1.252 . S
C1147 O1135 1.265 . S
C1147 O1136 1.242 . S
C1148 O1139 1.261 . S
C1148 O1140 1.252 . S
C1149 C1152 1.394 . S
C1149 C1154 1.370 . S
C1149 C1155 1.500 . S
C1150 C1153 1.383 . S
C1150 C1154 1.395 . S
C1151 C1152 1.396 . S
C1151 C1153 1.365 . S
C1151 H1168 0.929 . S
C1152 C1149 1.394 . S
C1152 C1151 1.396 . S
C1152 H1169 0.930 . S
C1153 C1150 1.383 . S
C1153 C1151 1.365 . S
C1153 H1170 0.931 . S
C1154 C1149 1.370 . S
C1154 C1150 1.395 . S
C1154 H1171 0.930 . S
C1155 Gd1102 2.805 . S
C1155 O1137 1.263 . S
C1155 O1138 1.252 . S
C1155 C1149 1.500 . S
C1156 H1118 0.930 . S
C1156 C1132 1.417 . S
C1156 C1157 1.329 . S
C1157 C1127 1.437 . S
C1157 H1128 0.929 . S
C1157 C1156 1.329 . S
H1158 C1131 0.931 . S
C1159 O1141 1.265 . S
C1159 O1142 1.242 . S
C1160 O1145 1.261 . S
C1160 O1146 1.252 . S
C1161 C1164 1.394 . S
C1161 C1166 1.370 . S
C1161 C1167 1.500 . S
C1162 C1165 1.383 . S
C1162 C1166 1.395 . S
C1163 C1164 1.396 . S
C1163 C1165 1.365 . S
C1163 H1172 0.929 . S
C1164 C1161 1.394 . S
C1164 C1163 1.396 . S
C1164 H1173 0.930 . S
C1165 C1162 1.383 . S
C1165 C1163 1.365 . S
C1165 H1174 0.931 . S
C1166 C1161 1.370 . S
C1166 C1162 1.395 . S
C1166 H1175 0.930 . S
C1167 Gd1103 2.805 . S
C1167 O1143 1.263 . S
C1167 O1144 1.252 . S
C1167 C1161 1.500 . S
H1168 C1151 0.929 . S
H1169 C1152 0.930 . S
H1170 C1153 0.931 . S
H1171 C1154 0.930 . S
H1172 C1163 0.929 . S
H1173 C1164 0.930 . S
H1174 C1165 0.931 . S
H1175 C1166 0.930 . S
C1176 C1178 1.422 . S
C1176 C1180 1.415 . S
C1176 N1182 1.369 . S
C1177 C1178 1.421 . S
C1177 C1179 1.417 . S
C1177 C1189 1.422 . S
C1178 C1176 1.422 . S
C1178 C1177 1.421 . S
C1178 N1188 1.359 . S
C1179 C1177 1.417 . S
C1179 C1181 1.329 . S
C1179 H1198 0.930 . S
C1180 C1176 1.415 . S
C1180 C1181 1.437 . S
C1180 C1184 1.413 . S
C1181 C1179 1.329 . S
C1181 C1180 1.437 . S
C1181 H1203 0.929 . S
N1182 C1176 1.369 . S
N1182 C1183 1.338 . S
N1182 Gd1187 2.622 . S
C1183 N1182 1.338 . S
C1183 C1185 1.378 . S
C1183 H1195 0.929 . S
C1184 C1180 1.413 . S
C1184 C1185 1.348 . S
C1184 H1200 0.931 . S
C1185 C1183 1.378 . S
C1185 C1184 1.348 . S
C1185 H1201 0.930 . S
Gd1186 N1206 2.622 1_455 S
Gd1186 N1213 2.570 1_455 S
Gd1186 O1220 2.353 . S
Gd1186 O1221 2.468 . S
Gd1186 O1222 2.427 . S
Gd1186 O1224 2.388 . S
Gd1186 O1225 2.386 1_455 S
Gd1186 O1229 2.307 . S
Gd1186 C1239 2.805 . S
Gd1187 N1182 2.622 . S
Gd1187 N1188 2.570 . S
Gd1187 O1219 2.386 . S
Gd1187 O1223 2.307 . S
Gd1187 O1226 2.353 1_455 S
Gd1187 O1227 2.468 . S
Gd1187 O1228 2.427 . S
Gd1187 O1230 2.388 . S
Gd1187 C1251 2.805 . S
N1188 C1178 1.359 . S
N1188 Gd1187 2.570 . S
N1188 C1190 1.343 . S
C1189 C1177 1.422 . S
C1189 C1191 1.321 . S
C1189 H1197 0.931 . S
C1190 N1188 1.343 . S
C1190 C1191 1.390 . S
C1190 H1192 0.931 . S
C1191 C1189 1.321 . S
C1191 C1190 1.390 . S
C1191 H1193 0.930 . S
H1192 C1190 0.931 . S
H1193 C1191 0.930 . S
H1194 C1217 0.931 1_455 S
H1195 C1183 0.929 . S
H1196 C1218 0.930 . S
H1197 C1189 0.931 . S
H1198 C1179 0.930 . S
H1199 C1208 0.929 1_455 S
H1200 C1184 0.931 . S
H1201 C1185 0.930 . S
H1202 C1240 0.930 . S
H1203 C1181 0.929 . S
H1204 C1209 0.931 . S
H1205 C1210 0.930 . S
N1206 Gd1186 2.622 1_655 S
N1206 C1207 1.369 . S
N1206 C1208 1.338 . S
C1207 N1206 1.369 . S
C1207 C1211 1.415 . S
C1207 C1214 1.422 . S
C1208 H1199 0.929 1_655 S
C1208 N1206 1.338 . S
C1208 C1210 1.378 . S
C1209 H1204 0.931 . S
C1209 C1210 1.348 . S
C1209 C1211 1.413 . S
C1210 H1205 0.930 . S
C1210 C1208 1.378 . S
C1210 C1209 1.348 . S
C1211 C1207 1.415 . S
C1211 C1209 1.413 . S
C1211 C1241 1.437 . S
H1212 C1241 0.929 . S
N1213 Gd1186 2.570 1_655 S
N1213 C1214 1.359 . S
N1213 C1217 1.343 . S
C1214 C1207 1.422 . S
C1214 N1213 1.359 . S
C1214 C1216 1.421 . S
C1215 C1216 1.422 . S
C1215 C1218 1.321 . S
C1215 H1242 0.931 . S
C1216 C1214 1.421 . S
C1216 C1215 1.422 . S
C1216 C1240 1.417 . S
C1217 H1194 0.931 1_655 S
C1217 N1213 1.343 . S
C1217 C1218 1.390 . S
C1218 H1196 0.930 . S
C1218 C1215 1.321 . S
C1218 C1217 1.390 . S
O1219 Gd1187 2.386 . S
O1219 C1231 1.265 . S
O1220 Gd1186 2.353 . S
O1220 C1231 1.242 . S
O1221 Gd1186 2.468 . S
O1221 C1239 1.263 . S
O1222 Gd1186 2.427 . S
O1222 C1239 1.252 . S
O1223 Gd1187 2.307 . S
O1223 C1232 1.261 . S
O1224 Gd1186 2.388 . S
O1224 C1232 1.252 . S
O1225 Gd1186 2.386 1_655 S
O1225 C1243 1.265 . S
O1226 Gd1187 2.353 1_655 S
O1226 C1243 1.242 . S
O1227 Gd1187 2.468 . S
O1227 C1251 1.263 . S
O1228 Gd1187 2.427 . S
O1228 C1251 1.252 . S
O1229 Gd1186 2.307 . S
O1229 C1244 1.261 . S
O1230 Gd1187 2.388 . S
O1230 C1244 1.252 . S
C1231 O1219 1.265 . S
C1231 O1220 1.242 . S
C1232 O1223 1.261 . S
C1232 O1224 1.252 . S
C1233 C1236 1.394 . S
C1233 C1238 1.370 . S
C1233 C1239 1.500 . S
C1234 C1237 1.383 . S
C1234 C1238 1.395 . S
C1235 C1236 1.396 . S
C1235 C1237 1.365 . S
C1235 H1252 0.929 . S
C1236 C1233 1.394 . S
C1236 C1235 1.396 . S
C1236 H1253 0.930 . S
C1237 C1234 1.383 . S
C1237 C1235 1.365 . S
C1237 H1254 0.931 . S
C1238 C1233 1.370 . S
C1238 C1234 1.395 . S
C1238 H1255 0.930 . S
C1239 Gd1186 2.805 . S
C1239 O1221 1.263 . S
C1239 O1222 1.252 . S
C1239 C1233 1.500 . S
C1240 H1202 0.930 . S
C1240 C1216 1.417 . S
C1240 C1241 1.329 . S
C1241 C1211 1.437 . S
C1241 H1212 0.929 . S
C1241 C1240 1.329 . S
H1242 C1215 0.931 . S
C1243 O1225 1.265 . S
C1243 O1226 1.242 . S
C1244 O1229 1.261 . S
C1244 O1230 1.252 . S
C1245 C1248 1.394 . S
C1245 C1250 1.370 . S
C1245 C1251 1.500 1_655 S
C1246 C1249 1.383 . S
C1246 C1250 1.395 . S
C1247 C1248 1.396 . S
C1247 C1249 1.365 . S
C1247 H1256 0.929 . S
C1248 C1245 1.394 . S
C1248 C1247 1.396 . S
C1248 H1257 0.930 . S
C1249 C1246 1.383 . S
C1249 C1247 1.365 . S
C1249 H1258 0.931 . S
C1250 C1245 1.370 . S
C1250 C1246 1.395 . S
C1250 H1259 0.930 . S
C1251 Gd1187 2.805 . S
C1251 O1227 1.263 . S
C1251 O1228 1.252 . S
C1251 C1245 1.500 1_455 S
H1252 C1235 0.929 . S
H1253 C1236 0.930 . S
H1254 C1237 0.931 . S
H1255 C1238 0.930 . S
H1256 C1247 0.929 . S
H1257 C1248 0.930 . S
H1258 C1249 0.931 . S
H1259 C1250 0.930 . S
C1260 C1262 1.422 . S
C1260 C1264 1.415 . S
C1260 N1266 1.369 . S
C1261 C1262 1.421 . S
C1261 C1263 1.417 . S
C1261 C1273 1.422 . S
C1262 C1260 1.422 . S
C1262 C1261 1.421 . S
C1262 N1272 1.359 . S
C1263 C1261 1.417 . S
C1263 C1265 1.329 . S
C1263 H1282 0.930 . S
C1264 C1260 1.415 . S
C1264 C1265 1.437 . S
C1264 C1268 1.413 . S
C1265 C1263 1.329 . S
C1265 C1264 1.437 . S
C1265 H1287 0.929 . S
N1266 C1260 1.369 . S
N1266 C1267 1.338 . S
N1266 Gd1271 2.622 . S
C1267 N1266 1.338 . S
C1267 C1269 1.378 . S
C1267 H1279 0.929 . S
C1268 C1264 1.413 . S
C1268 C1269 1.348 . S
C1268 H1284 0.931 . S
C1269 C1267 1.378 . S
C1269 C1268 1.348 . S
C1269 H1285 0.930 . S
Gd1270 N1290 2.622 . S
Gd1270 N1297 2.570 . S
Gd1270 O1304 2.353 . S
Gd1270 O1305 2.468 . S
Gd1270 O1306 2.427 . S
Gd1270 O1308 2.388 . S
Gd1270 O1309 2.386 . S
Gd1270 O1313 2.307 . S
Gd1270 C1323 2.805 . S
Gd1271 N1266 2.622 . S
Gd1271 N1272 2.570 . S
Gd1271 O1303 2.386 . S
Gd1271 O1307 2.307 . S
Gd1271 O1310 2.353 . S
Gd1271 O1311 2.468 . S
Gd1271 O1312 2.427 . S
Gd1271 O1314 2.388 . S
Gd1271 C1335 2.805 . S
N1272 C1262 1.359 . S
N1272 Gd1271 2.570 . S
N1272 C1274 1.343 . S
C1273 C1261 1.422 . S
C1273 C1275 1.321 . S
C1273 H1281 0.931 . S
C1274 N1272 1.343 . S
C1274 C1275 1.390 . S
C1274 H1276 0.931 . S
C1275 C1273 1.321 . S
C1275 C1274 1.390 . S
C1275 H1277 0.930 . S
H1276 C1274 0.931 . S
H1277 C1275 0.930 . S
H1278 C1301 0.931 . S
H1279 C1267 0.929 . S
H1280 C1302 0.930 . S
H1281 C1273 0.931 . S
H1282 C1263 0.930 . S
H1283 C1292 0.929 . S
H1284 C1268 0.931 . S
H1285 C1269 0.930 . S
H1286 C1324 0.930 . S
H1287 C1265 0.929 . S
H1288 C1293 0.931 . S
H1289 C1294 0.930 . S
N1290 Gd1270 2.622 . S
N1290 C1291 1.369 . S
N1290 C1292 1.338 . S
C1291 N1290 1.369 . S
C1291 C1295 1.415 . S
C1291 C1298 1.422 . S
C1292 H1283 0.929 . S
C1292 N1290 1.338 . S
C1292 C1294 1.378 . S
C1293 H1288 0.931 . S
C1293 C1294 1.348 . S
C1293 C1295 1.413 . S
C1294 H1289 0.930 . S
C1294 C1292 1.378 . S
C1294 C1293 1.348 . S
C1295 C1291 1.415 . S
C1295 C1293 1.413 . S
C1295 C1325 1.437 . S
H1296 C1325 0.929 . S
N1297 Gd1270 2.570 . S
N1297 C1298 1.359 . S
N1297 C1301 1.343 . S
C1298 C1291 1.422 . S
C1298 N1297 1.359 . S
C1298 C1300 1.421 . S
C1299 C1300 1.422 . S
C1299 C1302 1.321 . S
C1299 H1326 0.931 . S
C1300 C1298 1.421 . S
C1300 C1299 1.422 . S
C1300 C1324 1.417 . S
C1301 H1278 0.931 . S
C1301 N1297 1.343 . S
C1301 C1302 1.390 . S
C1302 H1280 0.930 . S
C1302 C1299 1.321 . S
C1302 C1301 1.390 . S
O1303 Gd1271 2.386 . S
O1303 C1315 1.265 . S
O1304 Gd1270 2.353 . S
O1304 C1315 1.242 . S
O1305 Gd1270 2.468 . S
O1305 C1323 1.263 . S
O1306 Gd1270 2.427 . S
O1306 C1323 1.252 . S
O1307 Gd1271 2.307 . S
O1307 C1316 1.261 . S
O1308 Gd1270 2.388 . S
O1308 C1316 1.252 . S
O1309 Gd1270 2.386 . S
O1309 C1327 1.265 . S
O1310 Gd1271 2.353 . S
O1310 C1327 1.242 . S
O1311 Gd1271 2.468 . S
O1311 C1335 1.263 . S
O1312 Gd1271 2.427 . S
O1312 C1335 1.252 . S
O1313 Gd1270 2.307 . S
O1313 C1328 1.261 . S
O1314 Gd1271 2.388 . S
O1314 C1328 1.252 . S
C1315 O1303 1.265 . S
C1315 O1304 1.242 . S
C1316 O1307 1.261 . S
C1316 O1308 1.252 . S
C1317 C1320 1.394 . S
C1317 C1322 1.370 . S
C1317 C1323 1.500 . S
C1318 C1321 1.383 . S
C1318 C1322 1.395 . S
C1319 C1320 1.396 . S
C1319 C1321 1.365 . S
C1319 H1336 0.929 . S
C1320 C1317 1.394 . S
C1320 C1319 1.396 . S
C1320 H1337 0.930 . S
C1321 C1318 1.383 . S
C1321 C1319 1.365 . S
C1321 H1338 0.931 . S
C1322 C1317 1.370 . S
C1322 C1318 1.395 . S
C1322 H1339 0.930 . S
C1323 Gd1270 2.805 . S
C1323 O1305 1.263 . S
C1323 O1306 1.252 . S
C1323 C1317 1.500 . S
C1324 H1286 0.930 . S
C1324 C1300 1.417 . S
C1324 C1325 1.329 . S
C1325 C1295 1.437 . S
C1325 H1296 0.929 . S
C1325 C1324 1.329 . S
H1326 C1299 0.931 . S
C1327 O1309 1.265 . S
C1327 O1310 1.242 . S
C1328 O1313 1.261 . S
C1328 O1314 1.252 . S
C1329 C1332 1.394 . S
C1329 C1334 1.370 . S
C1329 C1335 1.500 . S
C1330 C1333 1.383 . S
C1330 C1334 1.395 . S
C1331 C1332 1.396 . S
C1331 C1333 1.365 . S
C1331 H1340 0.929 . S
C1332 C1329 1.394 . S
C1332 C1331 1.396 . S
C1332 H1341 0.930 . S
C1333 C1330 1.383 . S
C1333 C1331 1.365 . S
C1333 H1342 0.931 . S
C1334 C1329 1.370 . S
C1334 C1330 1.395 . S
C1334 H1343 0.930 . S
C1335 Gd1271 2.805 . S
C1335 O1311 1.263 . S
C1335 O1312 1.252 . S
C1335 C1329 1.500 . S
H1336 C1319 0.929 . S
H1337 C1320 0.930 . S
H1338 C1321 0.931 . S
H1339 C1322 0.930 . S
H1340 C1331 0.929 . S
H1341 C1332 0.930 . S
H1342 C1333 0.931 . S
H1343 C1334 0.930 . S
C1344 C1346 1.422 . S
C1344 C1348 1.415 . S
C1344 N1350 1.369 . S
C1345 C1346 1.421 . S
C1345 C1347 1.417 . S
C1345 C1357 1.422 . S
C1346 C1344 1.422 . S
C1346 C1345 1.421 . S
C1346 N1356 1.359 . S
C1347 C1345 1.417 . S
C1347 C1349 1.329 . S
C1347 H1366 0.930 . S
C1348 C1344 1.415 . S
C1348 C1349 1.437 . S
C1348 C1352 1.413 . S
C1349 C1347 1.329 . S
C1349 C1348 1.437 . S
C1349 H1371 0.929 . S
N1350 C1344 1.369 . S
N1350 C1351 1.338 . S
N1350 Gd1355 2.622 . S
C1351 N1350 1.338 . S
C1351 C1353 1.378 . S
C1351 H1363 0.929 . S
C1352 C1348 1.413 . S
C1352 C1353 1.348 . S
C1352 H1368 0.931 . S
C1353 C1351 1.378 . S
C1353 C1352 1.348 . S
C1353 H1369 0.930 . S
Gd1354 N1374 2.622 . S
Gd1354 N1381 2.570 . S
Gd1354 O1388 2.353 . S
Gd1354 O1389 2.468 . S
Gd1354 O1390 2.427 . S
Gd1354 O1392 2.388 . S
Gd1354 O1393 2.386 . S
Gd1354 O1397 2.307 . S
Gd1354 C1407 2.805 . S
Gd1355 N1350 2.622 . S
Gd1355 N1356 2.570 . S
Gd1355 O1387 2.386 . S
Gd1355 O1391 2.307 . S
Gd1355 O1394 2.353 . S
Gd1355 O1395 2.468 . S
Gd1355 O1396 2.427 . S
Gd1355 O1398 2.388 . S
Gd1355 C1419 2.805 . S
N1356 C1346 1.359 . S
N1356 Gd1355 2.570 . S
N1356 C1358 1.343 . S
C1357 C1345 1.422 . S
C1357 C1359 1.321 . S
C1357 H1365 0.931 . S
C1358 N1356 1.343 . S
C1358 C1359 1.390 . S
C1358 H1360 0.931 . S
C1359 C1357 1.321 . S
C1359 C1358 1.390 . S
C1359 H1361 0.930 . S
H1360 C1358 0.931 . S
H1361 C1359 0.930 . S
H1362 C1385 0.931 . S
H1363 C1351 0.929 . S
H1364 C1386 0.930 . S
H1365 C1357 0.931 . S
H1366 C1347 0.930 . S
H1367 C1376 0.929 . S
H1368 C1352 0.931 . S
H1369 C1353 0.930 . S
H1370 C1408 0.930 . S
H1371 C1349 0.929 . S
H1372 C1377 0.931 . S
H1373 C1378 0.930 . S
N1374 Gd1354 2.622 . S
N1374 C1375 1.369 . S
N1374 C1376 1.338 . S
C1375 N1374 1.369 . S
C1375 C1379 1.415 . S
C1375 C1382 1.422 . S
C1376 H1367 0.929 . S
C1376 N1374 1.338 . S
C1376 C1378 1.378 . S
C1377 H1372 0.931 . S
C1377 C1378 1.348 . S
C1377 C1379 1.413 . S
C1378 H1373 0.930 . S
C1378 C1376 1.378 . S
C1378 C1377 1.348 . S
C1379 C1375 1.415 . S
C1379 C1377 1.413 . S
C1379 C1409 1.437 . S
H1380 C1409 0.929 . S
N1381 Gd1354 2.570 . S
N1381 C1382 1.359 . S
N1381 C1385 1.343 . S
C1382 C1375 1.422 . S
C1382 N1381 1.359 . S
C1382 C1384 1.421 . S
C1383 C1384 1.422 . S
C1383 C1386 1.321 . S
C1383 H1410 0.931 . S
C1384 C1382 1.421 . S
C1384 C1383 1.422 . S
C1384 C1408 1.417 . S
C1385 H1362 0.931 . S
C1385 N1381 1.343 . S
C1385 C1386 1.390 . S
C1386 H1364 0.930 . S
C1386 C1383 1.321 . S
C1386 C1385 1.390 . S
O1387 Gd1355 2.386 . S
O1387 C1399 1.265 . S
O1388 Gd1354 2.353 . S
O1388 C1399 1.242 . S
O1389 Gd1354 2.468 . S
O1389 C1407 1.263 . S
O1390 Gd1354 2.427 . S
O1390 C1407 1.252 . S
O1391 Gd1355 2.307 . S
O1391 C1400 1.261 . S
O1392 Gd1354 2.388 . S
O1392 C1400 1.252 . S
O1393 Gd1354 2.386 . S
O1393 C1411 1.265 . S
O1394 Gd1355 2.353 . S
O1394 C1411 1.242 . S
O1395 Gd1355 2.468 . S
O1395 C1419 1.263 . S
O1396 Gd1355 2.427 . S
O1396 C1419 1.252 . S
O1397 Gd1354 2.307 . S
O1397 C1412 1.261 . S
O1398 Gd1355 2.388 . S
O1398 C1412 1.252 . S
C1399 O1387 1.265 . S
C1399 O1388 1.242 . S
C1400 O1391 1.261 . S
C1400 O1392 1.252 . S
C1401 C1404 1.394 . S
C1401 C1406 1.370 . S
C1401 C1407 1.500 . S
C1402 C1405 1.383 . S
C1402 C1406 1.395 . S
C1403 C1404 1.396 . S
C1403 C1405 1.365 . S
C1403 H1420 0.929 . S
C1404 C1401 1.394 . S
C1404 C1403 1.396 . S
C1404 H1421 0.930 . S
C1405 C1402 1.383 . S
C1405 C1403 1.365 . S
C1405 H1422 0.931 . S
C1406 C1401 1.370 . S
C1406 C1402 1.395 . S
C1406 H1423 0.930 . S
C1407 Gd1354 2.805 . S
C1407 O1389 1.263 . S
C1407 O1390 1.252 . S
C1407 C1401 1.500 . S
C1408 H1370 0.930 . S
C1408 C1384 1.417 . S
C1408 C1409 1.329 . S
C1409 C1379 1.437 . S
C1409 H1380 0.929 . S
C1409 C1408 1.329 . S
H1410 C1383 0.931 . S
C1411 O1393 1.265 . S
C1411 O1394 1.242 . S
C1412 O1397 1.261 . S
C1412 O1398 1.252 . S
C1413 C1416 1.394 . S
C1413 C1418 1.370 . S
C1413 C1419 1.500 . S
C1414 C1417 1.383 . S
C1414 C1418 1.395 . S
C1415 C1416 1.396 . S
C1415 C1417 1.365 . S
C1415 H1424 0.929 . S
C1416 C1413 1.394 . S
C1416 C1415 1.396 . S
C1416 H1425 0.930 . S
C1417 C1414 1.383 . S
C1417 C1415 1.365 . S
C1417 H1426 0.931 . S
C1418 C1413 1.370 . S
C1418 C1414 1.395 . S
C1418 H1427 0.930 . S
C1419 Gd1355 2.805 . S
C1419 O1395 1.263 . S
C1419 O1396 1.252 . S
C1419 C1413 1.500 . S
H1420 C1403 0.929 . S
H1421 C1404 0.930 . S
H1422 C1405 0.931 . S
H1423 C1406 0.930 . S
H1424 C1415 0.929 . S
H1425 C1416 0.930 . S
H1426 C1417 0.931 . S
H1427 C1418 0.930 . S
C1428 C1430 1.422 . S
C1428 C1432 1.415 . S
C1428 N1434 1.369 . S
C1429 C1430 1.421 . S
C1429 C1431 1.417 . S
C1429 C1441 1.422 . S
C1430 C1428 1.422 . S
C1430 C1429 1.421 . S
C1430 N1440 1.359 . S
C1431 C1429 1.417 . S
C1431 C1433 1.329 . S
C1431 H1450 0.930 . S
C1432 C1428 1.415 . S
C1432 C1433 1.437 . S
C1432 C1436 1.413 . S
C1433 C1431 1.329 . S
C1433 C1432 1.437 . S
C1433 H1455 0.929 . S
N1434 C1428 1.369 . S
N1434 C1435 1.338 . S
N1434 Gd1439 2.622 . S
C1435 N1434 1.338 . S
C1435 C1437 1.378 . S
C1435 H1447 0.929 . S
C1436 C1432 1.413 . S
C1436 C1437 1.348 . S
C1436 H1452 0.931 . S
C1437 C1435 1.378 . S
C1437 C1436 1.348 . S
C1437 H1453 0.930 . S
Gd1438 N1458 2.622 . S
Gd1438 N1465 2.570 . S
Gd1438 O1472 2.353 . S
Gd1438 O1473 2.468 . S
Gd1438 O1474 2.427 . S
Gd1438 O1476 2.388 . S
Gd1438 O1477 2.386 . S
Gd1438 O1481 2.307 . S
Gd1438 C1491 2.805 . S
Gd1439 N1434 2.622 . S
Gd1439 N1440 2.570 . S
Gd1439 O1471 2.386 . S
Gd1439 O1475 2.307 . S
Gd1439 O1478 2.353 . S
Gd1439 O1479 2.468 . S
Gd1439 O1480 2.427 . S
Gd1439 O1482 2.388 . S
Gd1439 C1503 2.805 . S
N1440 C1430 1.359 . S
N1440 Gd1439 2.570 . S
N1440 C1442 1.343 . S
C1441 C1429 1.422 . S
C1441 C1443 1.321 . S
C1441 H1449 0.931 . S
C1442 N1440 1.343 . S
C1442 C1443 1.390 . S
C1442 H1444 0.931 . S
C1443 C1441 1.321 . S
C1443 C1442 1.390 . S
C1443 H1445 0.930 . S
H1444 C1442 0.931 . S
H1445 C1443 0.930 . S
H1446 C1469 0.931 . S
H1447 C1435 0.929 . S
H1448 C1470 0.930 . S
H1449 C1441 0.931 . S
H1450 C1431 0.930 . S
H1451 C1460 0.929 . S
H1452 C1436 0.931 . S
H1453 C1437 0.930 . S
H1454 C1492 0.930 . S
H1455 C1433 0.929 . S
H1456 C1461 0.931 . S
H1457 C1462 0.930 . S
N1458 Gd1438 2.622 . S
N1458 C1459 1.369 . S
N1458 C1460 1.338 . S
C1459 N1458 1.369 . S
C1459 C1463 1.415 . S
C1459 C1466 1.422 . S
C1460 H1451 0.929 . S
C1460 N1458 1.338 . S
C1460 C1462 1.378 . S
C1461 H1456 0.931 . S
C1461 C1462 1.348 . S
C1461 C1463 1.413 . S
C1462 H1457 0.930 . S
C1462 C1460 1.378 . S
C1462 C1461 1.348 . S
C1463 C1459 1.415 . S
C1463 C1461 1.413 . S
C1463 C1493 1.437 . S
H1464 C1493 0.929 . S
N1465 Gd1438 2.570 . S
N1465 C1466 1.359 . S
N1465 C1469 1.343 . S
C1466 C1459 1.422 . S
C1466 N1465 1.359 . S
C1466 C1468 1.421 . S
C1467 C1468 1.422 . S
C1467 C1470 1.321 . S
C1467 H1494 0.931 . S
C1468 C1466 1.421 . S
C1468 C1467 1.422 . S
C1468 C1492 1.417 . S
C1469 H1446 0.931 . S
C1469 N1465 1.343 . S
C1469 C1470 1.390 . S
C1470 H1448 0.930 . S
C1470 C1467 1.321 . S
C1470 C1469 1.390 . S
O1471 Gd1439 2.386 . S
O1471 C1483 1.265 . S
O1472 Gd1438 2.353 . S
O1472 C1483 1.242 . S
O1473 Gd1438 2.468 . S
O1473 C1491 1.263 . S
O1474 Gd1438 2.427 . S
O1474 C1491 1.252 . S
O1475 Gd1439 2.307 . S
O1475 C1484 1.261 . S
O1476 Gd1438 2.388 . S
O1476 C1484 1.252 . S
O1477 Gd1438 2.386 . S
O1477 C1495 1.265 . S
O1478 Gd1439 2.353 . S
O1478 C1495 1.242 . S
O1479 Gd1439 2.468 . S
O1479 C1503 1.263 . S
O1480 Gd1439 2.427 . S
O1480 C1503 1.252 . S
O1481 Gd1438 2.307 . S
O1481 C1496 1.261 . S
O1482 Gd1439 2.388 . S
O1482 C1496 1.252 . S
C1483 O1471 1.265 . S
C1483 O1472 1.242 . S
C1484 O1475 1.261 . S
C1484 O1476 1.252 . S
C1485 C1488 1.394 . S
C1485 C1490 1.370 . S
C1485 C1491 1.500 . S
C1486 C1489 1.383 . S
C1486 C1490 1.395 . S
C1487 C1488 1.396 . S
C1487 C1489 1.365 . S
C1487 H1504 0.929 . S
C1488 C1485 1.394 . S
C1488 C1487 1.396 . S
C1488 H1505 0.930 . S
C1489 C1486 1.383 . S
C1489 C1487 1.365 . S
C1489 H1506 0.931 . S
C1490 C1485 1.370 . S
C1490 C1486 1.395 . S
C1490 H1507 0.930 . S
C1491 Gd1438 2.805 . S
C1491 O1473 1.263 . S
C1491 O1474 1.252 . S
C1491 C1485 1.500 . S
C1492 H1454 0.930 . S
C1492 C1468 1.417 . S
C1492 C1493 1.329 . S
C1493 C1463 1.437 . S
C1493 H1464 0.929 . S
C1493 C1492 1.329 . S
H1494 C1467 0.931 . S
C1495 O1477 1.265 . S
C1495 O1478 1.242 . S
C1496 O1481 1.261 . S
C1496 O1482 1.252 . S
C1497 C1500 1.394 . S
C1497 C1502 1.370 . S
C1497 C1503 1.500 . S
C1498 C1501 1.383 . S
C1498 C1502 1.395 . S
C1499 C1500 1.396 . S
C1499 C1501 1.365 . S
C1499 H1508 0.929 . S
C1500 C1497 1.394 . S
C1500 C1499 1.396 . S
C1500 H1509 0.930 . S
C1501 C1498 1.383 . S
C1501 C1499 1.365 . S
C1501 H1510 0.931 . S
C1502 C1497 1.370 . S
C1502 C1498 1.395 . S
C1502 H1511 0.930 . S
C1503 Gd1439 2.805 . S
C1503 O1479 1.263 . S
C1503 O1480 1.252 . S
C1503 C1497 1.500 . S
H1504 C1487 0.929 . S
H1505 C1488 0.930 . S
H1506 C1489 0.931 . S
H1507 C1490 0.930 . S
H1508 C1499 0.929 . S
H1509 C1500 0.930 . S
H1510 C1501 0.931 . S
H1511 C1502 0.930 . S
C1512 C1514 1.422 . S
C1512 C1516 1.415 . S
C1512 N1518 1.369 . S
C1513 C1514 1.421 . S
C1513 C1515 1.417 . S
C1513 C1525 1.422 . S
C1514 C1512 1.422 . S
C1514 C1513 1.421 . S
C1514 N1524 1.359 . S
C1515 C1513 1.417 . S
C1515 C1517 1.329 . S
C1515 H1534 0.930 . S
C1516 C1512 1.415 . S
C1516 C1517 1.437 . S
C1516 C1520 1.413 . S
C1517 C1515 1.329 . S
C1517 C1516 1.437 . S
C1517 H1539 0.929 . S
N1518 C1512 1.369 . S
N1518 C1519 1.338 . S
N1518 Gd1523 2.622 . S
C1519 N1518 1.338 . S
C1519 C1521 1.378 . S
C1519 H1531 0.929 . S
C1520 C1516 1.413 . S
C1520 C1521 1.348 . S
C1520 H1536 0.931 . S
C1521 C1519 1.378 . S
C1521 C1520 1.348 . S
C1521 H1537 0.930 . S
Gd1522 N1542 2.622 . S
Gd1522 N1549 2.570 . S
Gd1522 O1556 2.353 . S
Gd1522 O1557 2.468 . S
Gd1522 O1558 2.427 . S
Gd1522 O1560 2.388 . S
Gd1522 O1561 2.386 . S
Gd1522 O1565 2.307 . S
Gd1522 C1575 2.805 . S
Gd1523 N1518 2.622 . S
Gd1523 N1524 2.570 . S
Gd1523 O1555 2.386 . S
Gd1523 O1559 2.307 . S
Gd1523 O1562 2.353 . S
Gd1523 O1563 2.468 . S
Gd1523 O1564 2.427 . S
Gd1523 O1566 2.388 . S
Gd1523 C1587 2.805 . S
N1524 C1514 1.359 . S
N1524 Gd1523 2.570 . S
N1524 C1526 1.343 . S
C1525 C1513 1.422 . S
C1525 C1527 1.321 . S
C1525 H1533 0.931 . S
C1526 N1524 1.343 . S
C1526 C1527 1.390 . S
C1526 H1528 0.931 . S
C1527 C1525 1.321 . S
C1527 C1526 1.390 . S
C1527 H1529 0.930 . S
H1528 C1526 0.931 . S
H1529 C1527 0.930 . S
H1530 C1553 0.931 . S
H1531 C1519 0.929 . S
H1532 C1554 0.930 . S
H1533 C1525 0.931 . S
H1534 C1515 0.930 . S
H1535 C1544 0.929 . S
H1536 C1520 0.931 . S
H1537 C1521 0.930 . S
H1538 C1576 0.930 . S
H1539 C1517 0.929 . S
H1540 C1545 0.931 . S
H1541 C1546 0.930 . S
N1542 Gd1522 2.622 . S
N1542 C1543 1.369 . S
N1542 C1544 1.338 . S
C1543 N1542 1.369 . S
C1543 C1547 1.415 . S
C1543 C1550 1.422 . S
C1544 H1535 0.929 . S
C1544 N1542 1.338 . S
C1544 C1546 1.378 . S
C1545 H1540 0.931 . S
C1545 C1546 1.348 . S
C1545 C1547 1.413 . S
C1546 H1541 0.930 . S
C1546 C1544 1.378 . S
C1546 C1545 1.348 . S
C1547 C1543 1.415 . S
C1547 C1545 1.413 . S
C1547 C1577 1.437 . S
H1548 C1577 0.929 . S
N1549 Gd1522 2.570 . S
N1549 C1550 1.359 . S
N1549 C1553 1.343 . S
C1550 C1543 1.422 . S
C1550 N1549 1.359 . S
C1550 C1552 1.421 . S
C1551 C1552 1.422 . S
C1551 C1554 1.321 . S
C1551 H1578 0.931 . S
C1552 C1550 1.421 . S
C1552 C1551 1.422 . S
C1552 C1576 1.417 . S
C1553 H1530 0.931 . S
C1553 N1549 1.343 . S
C1553 C1554 1.390 . S
C1554 H1532 0.930 . S
C1554 C1551 1.321 . S
C1554 C1553 1.390 . S
O1555 Gd1523 2.386 . S
O1555 C1567 1.265 . S
O1556 Gd1522 2.353 . S
O1556 C1567 1.242 . S
O1557 Gd1522 2.468 . S
O1557 C1575 1.263 . S
O1558 Gd1522 2.427 . S
O1558 C1575 1.252 . S
O1559 Gd1523 2.307 . S
O1559 C1568 1.261 . S
O1560 Gd1522 2.388 . S
O1560 C1568 1.252 . S
O1561 Gd1522 2.386 . S
O1561 C1579 1.265 . S
O1562 Gd1523 2.353 . S
O1562 C1579 1.242 . S
O1563 Gd1523 2.468 . S
O1563 C1587 1.263 . S
O1564 Gd1523 2.427 . S
O1564 C1587 1.252 . S
O1565 Gd1522 2.307 . S
O1565 C1580 1.261 . S
O1566 Gd1523 2.388 . S
O1566 C1580 1.252 . S
C1567 O1555 1.265 . S
C1567 O1556 1.242 . S
C1568 O1559 1.261 . S
C1568 O1560 1.252 . S
C1569 C1572 1.394 . S
C1569 C1574 1.370 . S
C1569 C1575 1.500 . S
C1570 C1573 1.383 . S
C1570 C1574 1.395 . S
C1571 C1572 1.396 . S
C1571 C1573 1.365 . S
C1571 H1588 0.929 . S
C1572 C1569 1.394 . S
C1572 C1571 1.396 . S
C1572 H1589 0.930 . S
C1573 C1570 1.383 . S
C1573 C1571 1.365 . S
C1573 H1590 0.931 . S
C1574 C1569 1.370 . S
C1574 C1570 1.395 . S
C1574 H1591 0.930 . S
C1575 Gd1522 2.805 . S
C1575 O1557 1.263 . S
C1575 O1558 1.252 . S
C1575 C1569 1.500 . S
C1576 H1538 0.930 . S
C1576 C1552 1.417 . S
C1576 C1577 1.329 . S
C1577 C1547 1.437 . S
C1577 H1548 0.929 . S
C1577 C1576 1.329 . S
H1578 C1551 0.931 . S
C1579 O1561 1.265 . S
C1579 O1562 1.242 . S
C1580 O1565 1.261 . S
C1580 O1566 1.252 . S
C1581 C1584 1.394 . S
C1581 C1586 1.370 . S
C1581 C1587 1.500 . S
C1582 C1585 1.383 . S
C1582 C1586 1.395 . S
C1583 C1584 1.396 . S
C1583 C1585 1.365 . S
C1583 H1592 0.929 . S
C1584 C1581 1.394 . S
C1584 C1583 1.396 . S
C1584 H1593 0.930 . S
C1585 C1582 1.383 . S
C1585 C1583 1.365 . S
C1585 H1594 0.931 . S
C1586 C1581 1.370 . S
C1586 C1582 1.395 . S
C1586 H1595 0.930 . S
C1587 Gd1523 2.805 . S
C1587 O1563 1.263 . S
C1587 O1564 1.252 . S
C1587 C1581 1.500 . S
H1588 C1571 0.929 . S
H1589 C1572 0.930 . S
H1590 C1573 0.931 . S
H1591 C1574 0.930 . S
H1592 C1583 0.929 . S
H1593 C1584 0.930 . S
H1594 C1585 0.931 . S
H1595 C1586 0.930 . S
C1596 C1598 1.422 1_556 S
C1596 C1600 1.415 . S
C1596 N1602 1.369 . S
C1597 C1598 1.421 . S
C1597 C1599 1.417 . S
C1597 C1609 1.422 . S
C1598 C1596 1.422 1_554 S
C1598 C1597 1.421 . S
C1598 N1608 1.359 . S
C1599 C1597 1.417 . S
C1599 C1601 1.329 1_554 S
C1599 H1618 0.930 . S
C1600 C1596 1.415 . S
C1600 C1601 1.437 . S
C1600 C1604 1.413 . S
C1601 C1599 1.329 1_556 S
C1601 C1600 1.437 . S
C1601 H1623 0.929 . S
N1602 C1596 1.369 . S
N1602 C1603 1.338 . S
N1602 Gd1607 2.622 1_556 S
C1603 N1602 1.338 . S
C1603 C1605 1.378 . S
C1603 H1615 0.929 . S
C1604 C1600 1.413 . S
C1604 C1605 1.348 . S
C1604 H1620 0.931 . S
C1605 C1603 1.378 . S
C1605 C1604 1.348 . S
C1605 H1621 0.930 . S
Gd1606 N1626 2.622 . S
Gd1606 N1633 2.570 . S
Gd1606 O1640 2.353 1_655 S
Gd1606 O1641 2.468 . S
Gd1606 O1642 2.427 . S
Gd1606 O1644 2.388 1_655 S
Gd1606 O1645 2.386 1_655 S
Gd1606 O1649 2.307 1_655 S
Gd1606 C1659 2.805 . S
Gd1607 N1602 2.622 1_554 S
Gd1607 N1608 2.570 . S
Gd1607 O1639 2.386 . S
Gd1607 O1643 2.307 . S
Gd1607 O1646 2.353 . S
Gd1607 O1647 2.468 . S
Gd1607 O1648 2.427 1_554 S
Gd1607 O1650 2.388 1_554 S
Gd1607 C1671 2.805 . S
N1608 C1598 1.359 . S
N1608 Gd1607 2.570 . S
N1608 C1610 1.343 . S
C1609 C1597 1.422 . S
C1609 C1611 1.321 . S
C1609 H1617 0.931 . S
C1610 N1608 1.343 . S
C1610 C1611 1.390 . S
C1610 H1612 0.931 . S
C1611 C1609 1.321 . S
C1611 C1610 1.390 . S
C1611 H1613 0.930 . S
H1612 C1610 0.931 . S
H1613 C1611 0.930 . S
H1614 C1637 0.931 1_556 S
H1615 C1603 0.929 . S
H1616 C1638 0.936 . S
H1617 C1609 0.931 . S
H1618 C1599 0.930 . S
H1619 C1628 0.929 1_455 S
H1620 C1604 0.931 . S
H1621 C1605 0.930 . S
H1622 C1660 0.930 . S
H1623 C1601 0.929 . S
H1624 C1629 0.931 . S
H1625 C1630 0.930 . S
N1626 Gd1606 2.622 . S
N1626 C1627 1.369 . S
N1626 C1628 1.338 . S
C1627 N1626 1.369 . S
C1627 C1631 1.415 . S
C1627 C1634 1.422 . S
C1628 H1619 0.929 1_655 S
C1628 N1626 1.338 . S
C1628 C1630 1.378 . S
C1629 H1624 0.931 . S
C1629 C1630 1.348 . S
C1629 C1631 1.413 . S
C1630 H1625 0.930 . S
C1630 C1628 1.378 . S
C1630 C1629 1.348 . S
C1631 C1627 1.415 . S
C1631 C1629 1.413 . S
C1631 C1661 1.437 . S
H1632 C1661 0.929 . S
N1633 Gd1606 2.570 . S
N1633 C1634 1.359 . S
N1633 C1637 1.343 . S
C1634 C1627 1.422 . S
C1634 N1633 1.359 . S
C1634 C1636 1.421 . S
C1635 C1636 1.422 . S
C1635 C1638 1.316 1_554 S
C1635 H1662 0.931 . S
C1636 C1634 1.421 . S
C1636 C1635 1.422 . S
C1636 C1660 1.417 . S
C1637 H1614 0.931 1_554 S
C1637 N1633 1.343 . S
C1637 C1638 1.389 1_554 S
C1638 H1616 0.936 . S
C1638 C1635 1.316 1_556 S
C1638 C1637 1.389 1_556 S
O1639 Gd1607 2.386 . S
O1639 C1651 1.265 . S
O1640 Gd1606 2.353 1_455 S
O1640 C1651 1.242 . S
O1641 Gd1606 2.468 . S
O1641 C1659 1.263 . S
O1642 Gd1606 2.427 . S
O1642 C1659 1.252 . S
O1643 Gd1607 2.307 . S
O1643 C1652 1.261 . S
O1644 Gd1606 2.388 1_455 S
O1644 C1652 1.252 . S
O1645 Gd1606 2.386 1_455 S
O1645 C1663 1.265 . S
O1646 Gd1607 2.353 . S
O1646 C1663 1.242 . S
O1647 Gd1607 2.468 . S
O1647 C1671 1.263 . S
O1648 Gd1607 2.427 1_556 S
O1648 C1671 1.252 1_556 S
O1649 Gd1606 2.307 1_455 S
O1649 C1664 1.262 1_554 S
O1650 Gd1607 2.388 1_556 S
O1650 C1664 1.252 . S
C1651 O1639 1.265 . S
C1651 O1640 1.242 . S
C1652 O1643 1.261 . S
C1652 O1644 1.252 . S
C1653 C1656 1.394 . S
C1653 C1658 1.370 . S
C1653 C1659 1.500 . S
C1654 C1657 1.383 . S
C1654 C1658 1.395 . S
C1655 C1656 1.396 . S
C1655 C1657 1.365 . S
C1655 H1672 0.929 . S
C1656 C1653 1.394 . S
C1656 C1655 1.396 . S
C1656 H1673 0.930 . S
C1657 C1654 1.383 . S
C1657 C1655 1.365 . S
C1657 H1674 0.931 . S
C1658 C1653 1.370 . S
C1658 C1654 1.395 . S
C1658 H1675 0.930 . S
C1659 Gd1606 2.805 . S
C1659 O1641 1.263 . S
C1659 O1642 1.252 . S
C1659 C1653 1.500 . S
C1660 H1622 0.930 . S
C1660 C1636 1.417 . S
C1660 C1661 1.329 . S
C1661 C1631 1.437 . S
C1661 H1632 0.929 . S
C1661 C1660 1.329 . S
H1662 C1635 0.931 . S
C1663 O1645 1.265 . S
C1663 O1646 1.242 . S
C1664 O1649 1.262 1_556 S
C1664 O1650 1.252 . S
C1665 C1668 1.394 . S
C1665 C1670 1.370 1_556 S
C1665 C1671 1.500 1_556 S
C1666 C1669 1.383 1_554 S
C1666 C1670 1.395 . S
C1667 C1668 1.396 . S
C1667 C1669 1.365 . S
C1667 H1676 0.929 . S
C1668 C1665 1.394 . S
C1668 C1667 1.396 . S
C1668 H1677 0.930 . S
C1669 C1666 1.383 1_556 S
C1669 C1667 1.365 . S
C1669 H1678 0.931 . S
C1670 C1665 1.370 1_554 S
C1670 C1666 1.395 . S
C1670 H1679 0.930 . S
C1671 Gd1607 2.805 . S
C1671 O1647 1.263 . S
C1671 O1648 1.252 1_554 S
C1671 C1665 1.500 1_554 S
H1672 C1655 0.929 . S
H1673 C1656 0.930 . S
H1674 C1657 0.931 . S
H1675 C1658 0.930 . S
H1676 C1667 0.929 . S
H1677 C1668 0.930 . S
H1678 C1669 0.931 . S
H1679 C1670 0.930 . S
H1680 C1692 0.930 . S
H1681 C1694 0.930 . S
H1682 C1695 0.930 . S
H1683 C1699 0.959 . S
H1684 C1699 0.959 . S
H1685 C1699 0.961 . S
H1686 C1700 0.960 . S
H1687 C1700 0.961 . S
H1688 C1700 0.959 . S
H1689 C1703 0.929 . S
H1690 C1704 0.931 . S
H1691 C1706 0.930 . S
C1692 H1680 0.930 . S
C1692 C1693 1.399 1_655 S
C1692 C1697 1.399 1_655 S
C1693 C1692 1.399 1_455 S
C1693 C1694 1.376 1_556 S
C1694 H1681 0.930 . S
C1694 C1693 1.376 1_554 S
C1694 C1695 1.388 . S
C1695 H1682 0.930 . S
C1695 C1694 1.388 . S
C1695 C1696 1.390 . S
C1696 C1695 1.390 . S
C1696 C1697 1.394 1_554 S
C1696 C1702 1.465 . S
C1697 C1692 1.399 1_455 S
C1697 C1696 1.394 1_556 S
C1697 C1698 1.516 . S
C1698 C1697 1.516 . S
C1698 C1699 1.502 1_455 S
C1698 C1700 1.561 . S
C1698 C1701 1.526 . S
C1699 H1683 0.959 . S
C1699 H1684 0.959 . S
C1699 H1685 0.961 . S
C1699 C1698 1.502 1_655 S
C1700 H1686 0.960 . S
C1700 H1687 0.961 . S
C1700 H1688 0.959 . S
C1700 C1698 1.561 . S
C1701 C1698 1.526 . S
C1701 C1702 1.396 1_556 S
C1701 C1706 1.390 . S
C1702 C1696 1.465 . S
C1702 C1701 1.396 1_554 S
C1702 C1703 1.399 . S
C1703 H1689 0.929 . S
C1703 C1702 1.399 . S
C1703 C1704 1.385 . S
C1704 H1690 0.931 . S
C1704 C1703 1.385 . S
C1704 C1705 1.389 . S
C1705 C1704 1.389 . S
C1705 C1706 1.387 1_554 S
C1706 H1691 0.930 . S
C1706 C1701 1.390 . S
C1706 C1705 1.387 1_556 S
H1707 C1719 0.930 . S
H1708 C1721 0.930 . S
H1709 C1722 0.930 . S
H1710 C1726 0.959 . S
H1711 C1726 0.959 . S
H1712 C1726 0.961 . S
H1713 C1727 0.960 . S
H1714 C1727 0.961 . S
H1715 C1727 0.959 . S
H1716 C1730 0.929 . S
H1717 C1731 0.931 . S
H1718 C1733 0.930 . S
C1719 H1707 0.930 . S
C1719 C1720 1.399 . S
C1719 C1724 1.399 . S
C1720 C1719 1.399 . S
C1720 C1721 1.376 . S
C1721 H1708 0.930 . S
C1721 C1720 1.376 . S
C1721 C1722 1.388 . S
C1722 H1709 0.930 . S
C1722 C1721 1.388 . S
C1722 C1723 1.390 . S
C1723 C1722 1.390 . S
C1723 C1724 1.394 . S
C1723 C1729 1.465 . S
C1724 C1719 1.399 . S
C1724 C1723 1.394 . S
C1724 C1725 1.516 . S
C1725 C1724 1.516 . S
C1725 C1726 1.502 . S
C1725 C1727 1.561 . S
C1725 C1728 1.526 . S
C1726 H1710 0.959 . S
C1726 H1711 0.959 . S
C1726 H1712 0.961 . S
C1726 C1725 1.502 . S
C1727 H1713 0.960 . S
C1727 H1714 0.961 . S
C1727 H1715 0.959 . S
C1727 C1725 1.561 . S
C1728 C1725 1.526 . S
C1728 C1729 1.396 . S
C1728 C1733 1.390 . S
C1729 C1723 1.465 . S
C1729 C1728 1.396 . S
C1729 C1730 1.399 . S
C1730 H1716 0.929 . S
C1730 C1729 1.399 . S
C1730 C1731 1.385 . S
C1731 H1717 0.931 . S
C1731 C1730 1.385 . S
C1731 C1732 1.389 . S
C1732 C1731 1.389 . S
C1732 C1733 1.387 . S
C1733 H1718 0.930 . S
C1733 C1728 1.390 . S
C1733 C1732 1.387 . S
H1734 C1746 0.930 . S
H1735 C1748 0.930 . S
H1736 C1749 0.930 . S
H1737 C1753 0.959 . S
H1738 C1753 0.959 . S
H1739 C1753 0.961 . S
H1740 C1754 0.960 . S
H1741 C1754 0.961 . S
H1742 C1754 0.959 . S
H1743 C1757 0.929 . S
H1744 C1758 0.931 . S
H1745 C1760 0.930 . S
C1746 H1734 0.930 . S
C1746 C1747 1.399 . S
C1746 C1751 1.399 . S
C1747 C1746 1.399 . S
C1747 C1748 1.376 . S
C1748 H1735 0.930 . S
C1748 C1747 1.376 . S
C1748 C1749 1.388 . S
C1749 H1736 0.930 . S
C1749 C1748 1.388 . S
C1749 C1750 1.390 . S
C1750 C1749 1.390 . S
C1750 C1751 1.394 . S
C1750 C1756 1.465 . S
C1751 C1746 1.399 . S
C1751 C1750 1.394 . S
C1751 C1752 1.516 . S
C1752 C1751 1.516 . S
C1752 C1753 1.502 . S
C1752 C1754 1.561 . S
C1752 C1755 1.526 . S
C1753 H1737 0.959 . S
C1753 H1738 0.959 . S
C1753 H1739 0.961 . S
C1753 C1752 1.502 . S
C1754 H1740 0.960 . S
C1754 H1741 0.961 . S
C1754 H1742 0.959 . S
C1754 C1752 1.561 . S
C1755 C1752 1.526 . S
C1755 C1756 1.396 . S
C1755 C1760 1.390 . S
C1756 C1750 1.465 . S
C1756 C1755 1.396 . S
C1756 C1757 1.399 . S
C1757 H1743 0.929 . S
C1757 C1756 1.399 . S
C1757 C1758 1.385 . S
C1758 H1744 0.931 . S
C1758 C1757 1.385 . S
C1758 C1759 1.389 . S
C1759 C1758 1.389 . S
C1759 C1760 1.387 . S
C1760 H1745 0.930 . S
C1760 C1755 1.390 . S
C1760 C1759 1.387 . S
H1761 C1773 0.930 . S
H1762 C1775 0.930 . S
H1763 C1776 0.930 . S
H1764 C1780 0.959 . S
H1765 C1780 0.959 . S
H1766 C1780 0.961 . S
H1767 C1781 0.960 . S
H1768 C1781 0.961 . S
H1769 C1781 0.959 . S
H1770 C1784 0.929 . S
H1771 C1785 0.931 . S
H1772 C1787 0.930 . S
C1773 H1761 0.930 . S
C1773 C1774 1.399 . S
C1773 C1778 1.399 . S
C1774 C1773 1.399 . S
C1774 C1775 1.376 . S
C1775 H1762 0.930 . S
C1775 C1774 1.376 . S
C1775 C1776 1.388 . S
C1776 H1763 0.930 . S
C1776 C1775 1.388 . S
C1776 C1777 1.390 . S
C1777 C1776 1.390 . S
C1777 C1778 1.394 . S
C1777 C1783 1.465 . S
C1778 C1773 1.399 . S
C1778 C1777 1.394 . S
C1778 C1779 1.516 . S
C1779 C1778 1.516 . S
C1779 C1780 1.502 . S
C1779 C1781 1.561 . S
C1779 C1782 1.526 . S
C1780 H1764 0.959 . S
C1780 H1765 0.959 . S
C1780 H1766 0.961 . S
C1780 C1779 1.502 . S
C1781 H1767 0.960 . S
C1781 H1768 0.961 . S
C1781 H1769 0.959 . S
C1781 C1779 1.561 . S
C1782 C1779 1.526 . S
C1782 C1783 1.396 . S
C1782 C1787 1.390 . S
C1783 C1777 1.465 . S
C1783 C1782 1.396 . S
C1783 C1784 1.399 . S
C1784 H1770 0.929 . S
C1784 C1783 1.399 . S
C1784 C1785 1.385 . S
C1785 H1771 0.931 . S
C1785 C1784 1.385 . S
C1785 C1786 1.389 . S
C1786 C1785 1.389 . S
C1786 C1787 1.387 . S
C1787 H1772 0.930 . S
C1787 C1782 1.390 . S
C1787 C1786 1.387 . S
H1788 C1800 0.930 . S
H1789 C1802 0.930 . S
H1790 C1803 0.930 . S
H1791 C1807 0.959 . S
H1792 C1807 0.959 . S
H1793 C1807 0.961 . S
H1794 C1808 0.960 . S
H1795 C1808 0.961 . S
H1796 C1808 0.959 . S
H1797 C1811 0.929 . S
H1798 C1812 0.931 . S
H1799 C1814 0.930 . S
C1800 H1788 0.930 . S
C1800 C1801 1.399 . S
C1800 C1805 1.399 . S
C1801 C1800 1.399 . S
C1801 C1802 1.376 . S
C1802 H1789 0.930 . S
C1802 C1801 1.376 . S
C1802 C1803 1.388 . S
C1803 H1790 0.930 . S
C1803 C1802 1.388 . S
C1803 C1804 1.390 . S
C1804 C1803 1.390 . S
C1804 C1805 1.394 . S
C1804 C1810 1.465 . S
C1805 C1800 1.399 . S
C1805 C1804 1.394 . S
C1805 C1806 1.516 . S
C1806 C1805 1.516 . S
C1806 C1807 1.502 1_455 S
C1806 C1808 1.561 . S
C1806 C1809 1.526 . S
C1807 H1791 0.959 . S
C1807 H1792 0.959 . S
C1807 H1793 0.961 . S
C1807 C1806 1.502 1_655 S
C1808 H1794 0.960 . S
C1808 H1795 0.961 . S
C1808 H1796 0.959 . S
C1808 C1806 1.561 . S
C1809 C1806 1.526 . S
C1809 C1810 1.396 . S
C1809 C1814 1.390 . S
C1810 C1804 1.465 . S
C1810 C1809 1.396 . S
C1810 C1811 1.399 . S
C1811 H1797 0.929 . S
C1811 C1810 1.399 . S
C1811 C1812 1.385 . S
C1812 H1798 0.931 . S
C1812 C1811 1.385 . S
C1812 C1813 1.389 . S
C1813 C1812 1.389 . S
C1813 C1814 1.387 . S
C1814 H1799 0.930 . S
C1814 C1809 1.390 . S
C1814 C1813 1.387 . S
H1815 C1827 0.930 . S
H1816 C1829 0.930 . S
H1817 C1830 0.930 . S
H1818 C1834 0.959 . S
H1819 C1834 0.959 . S
H1820 C1834 0.961 . S
H1821 C1835 0.960 . S
H1822 C1835 0.961 . S
H1823 C1835 0.959 . S
H1824 C1838 0.929 . S
H1825 C1839 0.931 . S
H1826 C1841 0.930 . S
C1827 H1815 0.930 . S
C1827 C1828 1.399 . S
C1827 C1832 1.399 . S
C1828 C1827 1.399 . S
C1828 C1829 1.376 . S
C1829 H1816 0.930 . S
C1829 C1828 1.376 . S
C1829 C1830 1.388 . S
C1830 H1817 0.930 . S
C1830 C1829 1.388 . S
C1830 C1831 1.390 . S
C1831 C1830 1.390 . S
C1831 C1832 1.394 . S
C1831 C1837 1.465 . S
C1832 C1827 1.399 . S
C1832 C1831 1.394 . S
C1832 C1833 1.516 . S
C1833 C1832 1.516 . S
C1833 C1834 1.502 . S
C1833 C1835 1.561 . S
C1833 C1836 1.526 . S
C1834 H1818 0.959 . S
C1834 H1819 0.959 . S
C1834 H1820 0.961 . S
C1834 C1833 1.502 . S
C1835 H1821 0.960 . S
C1835 H1822 0.961 . S
C1835 H1823 0.959 . S
C1835 C1833 1.561 . S
C1836 C1833 1.526 . S
C1836 C1837 1.396 . S
C1836 C1841 1.390 . S
C1837 C1831 1.465 . S
C1837 C1836 1.396 . S
C1837 C1838 1.399 . S
C1838 H1824 0.929 . S
C1838 C1837 1.399 . S
C1838 C1839 1.385 . S
C1839 H1825 0.931 . S
C1839 C1838 1.385 . S
C1839 C1840 1.389 . S
C1840 C1839 1.389 . S
C1840 C1841 1.387 . S
C1841 H1826 0.930 . S
C1841 C1836 1.390 . S
C1841 C1840 1.387 . S
H1842 C1854 0.930 . S
H1843 C1856 0.930 . S
H1844 C1857 0.930 . S
H1845 C1861 0.959 . S
H1846 C1861 0.959 . S
H1847 C1861 0.961 . S
H1848 C1862 0.960 . S
H1849 C1862 0.961 . S
H1850 C1862 0.959 . S
H1851 C1865 0.929 . S
H1852 C1866 0.931 . S
H1853 C1868 0.930 . S
C1854 H1842 0.930 . S
C1854 C1855 1.399 . S
C1854 C1859 1.399 . S
C1855 C1854 1.399 . S
C1855 C1856 1.376 . S
C1856 H1843 0.930 . S
C1856 C1855 1.376 . S
C1856 C1857 1.388 . S
C1857 H1844 0.930 . S
C1857 C1856 1.388 . S
C1857 C1858 1.390 . S
C1858 C1857 1.390 . S
C1858 C1859 1.394 . S
C1858 C1864 1.465 . S
C1859 C1854 1.399 . S
C1859 C1858 1.394 . S
C1859 C1860 1.516 . S
C1860 C1859 1.516 . S
C1860 C1861 1.502 . S
C1860 C1862 1.561 . S
C1860 C1863 1.526 . S
C1861 H1845 0.959 . S
C1861 H1846 0.959 . S
C1861 H1847 0.961 . S
C1861 C1860 1.502 . S
C1862 H1848 0.960 . S
C1862 H1849 0.961 . S
C1862 H1850 0.959 . S
C1862 C1860 1.561 . S
C1863 C1860 1.526 . S
C1863 C1864 1.396 . S
C1863 C1868 1.390 . S
C1864 C1858 1.465 . S
C1864 C1863 1.396 . S
C1864 C1865 1.399 . S
C1865 H1851 0.929 . S
C1865 C1864 1.399 . S
C1865 C1866 1.385 . S
C1866 H1852 0.931 . S
C1866 C1865 1.385 . S
C1866 C1867 1.389 . S
C1867 C1866 1.389 . S
C1867 C1868 1.387 . S
C1868 H1853 0.930 . S
C1868 C1863 1.390 . S
C1868 C1867 1.387 . S
H1869 C1881 0.930 . S
H1870 C1883 0.930 . S
H1871 C1884 0.930 . S
H1872 C1888 0.959 . S
H1873 C1888 0.959 . S
H1874 C1888 0.961 . S
H1875 C1889 0.960 . S
H1876 C1889 0.961 . S
H1877 C1889 0.959 . S
H1878 C1892 0.929 . S
H1879 C1893 0.931 . S
H1880 C1895 0.930 . S
C1881 H1869 0.930 . S
C1881 C1882 1.399 . S
C1881 C1886 1.399 . S
C1882 C1881 1.399 . S
C1882 C1883 1.376 . S
C1883 H1870 0.930 . S
C1883 C1882 1.376 . S
C1883 C1884 1.388 . S
C1884 H1871 0.930 . S
C1884 C1883 1.388 . S
C1884 C1885 1.390 . S
C1885 C1884 1.390 . S
C1885 C1886 1.394 . S
C1885 C1891 1.465 . S
C1886 C1881 1.399 . S
C1886 C1885 1.394 . S
C1886 C1887 1.516 . S
C1887 C1886 1.516 . S
C1887 C1888 1.502 . S
C1887 C1889 1.561 . S
C1887 C1890 1.526 . S
C1888 H1872 0.959 . S
C1888 H1873 0.959 . S
C1888 H1874 0.961 . S
C1888 C1887 1.502 . S
C1889 H1875 0.960 . S
C1889 H1876 0.961 . S
C1889 H1877 0.959 . S
C1889 C1887 1.561 . S
C1890 C1887 1.526 . S
C1890 C1891 1.396 . S
C1890 C1895 1.390 . S
C1891 C1885 1.465 . S
C1891 C1890 1.396 . S
C1891 C1892 1.399 . S
C1892 H1878 0.929 . S
C1892 C1891 1.399 . S
C1892 C1893 1.385 . S
C1893 H1879 0.931 . S
C1893 C1892 1.385 . S
C1893 C1894 1.389 . S
C1894 C1893 1.389 . S
C1894 C1895 1.387 . S
C1895 H1880 0.930 . S
C1895 C1890 1.390 . S
C1895 C1894 1.387 . S
H1896 C1908 0.930 . S
H1897 C1910 0.930 . S
H1898 C1911 0.930 . S
H1899 C1915 0.959 . S
H1900 C1915 0.959 1_455 S
H1901 C1915 0.961 . S
H1902 C1916 0.960 . S
H1903 C1916 0.961 . S
H1904 C1916 0.959 . S
H1905 C1919 0.929 1_565 S
H1906 C1920 0.931 . S
H1907 C1922 0.930 . S
C1908 H1896 0.930 . S
C1908 C1909 1.399 . S
C1908 C1913 1.399 . S
C1909 C1908 1.399 . S
C1909 C1910 1.376 1_545 S
C1910 H1897 0.930 . S
C1910 C1909 1.376 1_565 S
C1910 C1911 1.388 . S
C1911 H1898 0.930 . S
C1911 C1910 1.388 . S
C1911 C1912 1.390 1_565 S
C1912 C1911 1.390 1_545 S
C1912 C1913 1.394 . S
C1912 C1918 1.465 . S
C1913 C1908 1.399 . S
C1913 C1912 1.394 . S
C1913 C1914 1.514 . S
C1914 C1913 1.514 . S
C1914 C1915 1.500 . S
C1914 C1916 1.565 1_655 S
C1914 C1917 1.521 1_655 S
C1915 H1899 0.959 . S
C1915 H1900 0.959 1_655 S
C1915 H1901 0.961 . S
C1915 C1914 1.500 . S
C1916 H1902 0.960 . S
C1916 H1903 0.961 . S
C1916 H1904 0.959 . S
C1916 C1914 1.565 1_455 S
C1917 C1914 1.521 1_455 S
C1917 C1918 1.390 1_455 S
C1917 C1922 1.401 . S
C1918 C1912 1.465 . S
C1918 C1917 1.390 1_655 S
C1918 C1919 1.399 . S
C1919 H1905 0.929 1_545 S
C1919 C1918 1.399 . S
C1919 C1920 1.385 . S
C1920 H1906 0.931 . S
C1920 C1919 1.385 . S
C1920 C1921 1.389 1_655 S
C1921 C1920 1.389 1_455 S
C1921 C1922 1.387 . S
C1922 H1907 0.930 . S
C1922 C1917 1.401 . S
C1922 C1921 1.387 . S
H1923 C1935 0.930 . S
H1924 C1937 0.930 . S
H1925 C1938 0.930 . S
H1926 C1942 0.959 . S
H1927 C1942 0.959 . S
H1928 C1942 0.961 . S
H1929 C1943 0.960 . S
H1930 C1943 0.961 . S
H1931 C1943 0.959 . S
H1932 C1946 0.929 . S
H1933 C1947 0.931 . S
H1934 C1949 0.930 . S
C1935 H1923 0.930 . S
C1935 C1936 1.399 . S
C1935 C1940 1.399 . S
C1936 C1935 1.399 . S
C1936 C1937 1.376 . S
C1937 H1924 0.930 . S
C1937 C1936 1.376 . S
C1937 C1938 1.388 . S
C1938 H1925 0.930 . S
C1938 C1937 1.388 . S
C1938 C1939 1.390 . S
C1939 C1938 1.390 . S
C1939 C1940 1.394 . S
C1939 C1945 1.465 . S
C1940 C1935 1.399 . S
C1940 C1939 1.394 . S
C1940 C1941 1.516 . S
C1941 C1940 1.516 . S
C1941 C1942 1.502 . S
C1941 C1943 1.561 . S
C1941 C1944 1.526 . S
C1942 H1926 0.959 . S
C1942 H1927 0.959 . S
C1942 H1928 0.961 . S
C1942 C1941 1.502 . S
C1943 H1929 0.960 . S
C1943 H1930 0.961 . S
C1943 H1931 0.959 . S
C1943 C1941 1.561 . S
C1944 C1941 1.526 . S
C1944 C1945 1.396 . S
C1944 C1949 1.390 . S
C1945 C1939 1.465 . S
C1945 C1944 1.396 . S
C1945 C1946 1.399 . S
C1946 H1932 0.929 . S
C1946 C1945 1.399 . S
C1946 C1947 1.385 . S
C1947 H1933 0.931 . S
C1947 C1946 1.385 . S
C1947 C1948 1.389 . S
C1948 C1947 1.389 . S
C1948 C1949 1.387 . S
C1949 H1934 0.930 . S
C1949 C1944 1.390 . S
C1949 C1948 1.387 . S
H1950 C1962 0.930 . S
H1951 C1964 0.930 . S
H1952 C1965 0.930 1_565 S
H1953 C1969 0.959 . S
H1954 C1969 0.959 . S
H1955 C1969 0.961 . S
H1956 C1970 0.960 . S
H1957 C1970 0.961 . S
H1958 C1970 0.959 . S
H1959 C1973 0.929 1_565 S
H1960 C1974 0.931 1_565 S
H1961 C1976 0.930 . S
C1962 H1950 0.930 . S
C1962 C1963 1.399 . S
C1962 C1967 1.399 . S
C1963 C1962 1.399 . S
C1963 C1964 1.376 . S
C1964 H1951 0.930 . S
C1964 C1963 1.376 . S
C1964 C1965 1.388 . S
C1965 H1952 0.930 1_545 S
C1965 C1964 1.388 . S
C1965 C1966 1.390 . S
C1966 C1965 1.390 . S
C1966 C1967 1.394 . S
C1966 C1972 1.465 . S
C1967 C1962 1.399 . S
C1967 C1966 1.394 . S
C1967 C1968 1.516 . S
C1968 C1967 1.516 . S
C1968 C1969 1.502 . S
C1968 C1970 1.561 . S
C1968 C1971 1.526 . S
C1969 H1953 0.959 . S
C1969 H1954 0.959 . S
C1969 H1955 0.961 . S
C1969 C1968 1.502 . S
C1970 H1956 0.960 . S
C1970 H1957 0.961 . S
C1970 H1958 0.959 . S
C1970 C1968 1.561 . S
C1971 C1968 1.526 . S
C1971 C1972 1.396 . S
C1971 C1976 1.390 . S
C1972 C1966 1.465 . S
C1972 C1971 1.396 . S
C1972 C1973 1.399 . S
C1973 H1959 0.929 1_545 S
C1973 C1972 1.399 . S
C1973 C1974 1.385 . S
C1974 H1960 0.931 1_545 S
C1974 C1973 1.385 . S
C1974 C1975 1.389 . S
C1975 C1974 1.389 . S
C1975 C1976 1.387 . S
C1976 H1961 0.930 . S
C1976 C1971 1.390 . S
C1976 C1975 1.387 . S
H1977 C1989 0.930 . S
H1978 C1991 0.930 . S
H1979 C1992 0.930 . S
H1980 C1996 0.959 . S
H1981 C1996 0.959 . S
H1982 C1996 0.961 . S
H1983 C1997 0.960 . S
H1984 C1997 0.961 . S
H1985 C1997 0.959 . S
H1986 C2000 0.929 . S
H1987 C2001 0.931 . S
H1988 C2003 0.930 . S
C1989 H1977 0.930 . S
C1989 C1990 1.399 . S
C1989 C1994 1.399 . S
C1990 C1989 1.399 . S
C1990 C1991 1.376 . S
C1991 H1978 0.930 . S
C1991 C1990 1.376 . S
C1991 C1992 1.388 . S
C1992 H1979 0.930 . S
C1992 C1991 1.388 . S
C1992 C1993 1.390 . S
C1993 C1992 1.390 . S
C1993 C1994 1.394 . S
C1993 C1999 1.465 . S
C1994 C1989 1.399 . S
C1994 C1993 1.394 . S
C1994 C1995 1.516 . S
C1995 C1994 1.516 . S
C1995 C1996 1.502 . S
C1995 C1997 1.561 . S
C1995 C1998 1.526 . S
C1996 H1980 0.959 . S
C1996 H1981 0.959 . S
C1996 H1982 0.961 . S
C1996 C1995 1.502 . S
C1997 H1983 0.960 . S
C1997 H1984 0.961 . S
C1997 H1985 0.959 . S
C1997 C1995 1.561 . S
C1998 C1995 1.526 . S
C1998 C1999 1.396 . S
C1998 C2003 1.390 . S
C1999 C1993 1.465 . S
C1999 C1998 1.396 . S
C1999 C2000 1.399 . S
C2000 H1986 0.929 . S
C2000 C1999 1.399 . S
C2000 C2001 1.385 . S
C2001 H1987 0.931 . S
C2001 C2000 1.385 . S
C2001 C2002 1.389 . S
C2002 C2001 1.389 . S
C2002 C2003 1.387 . S
C2003 H1988 0.930 . S
C2003 C1998 1.390 . S
C2003 C2002 1.387 . S
H2004 C2016 0.930 1_565 S
H2005 C2018 0.930 . S
H2006 C2019 0.930 1_455 S
H2007 C2023 0.959 . S
H2008 C2023 0.959 . S
H2009 C2023 0.961 . S
H2010 C2024 0.960 . S
H2011 C2024 0.961 . S
H2012 C2024 0.959 1_455 S
H2013 C2027 0.929 . S
H2014 C2028 0.931 . S
H2015 C2030 0.930 1_565 S
C2016 H2004 0.930 1_545 S
C2016 C2017 1.399 . S
C2016 C2021 1.399 . S
C2017 C2016 1.399 . S
C2017 C2018 1.376 . S
C2018 H2005 0.930 . S
C2018 C2017 1.376 . S
C2018 C2019 1.388 . S
C2019 H2006 0.930 1_655 S
C2019 C2018 1.388 . S
C2019 C2020 1.390 . S
C2020 C2019 1.390 . S
C2020 C2021 1.394 . S
C2020 C2026 1.465 . S
C2021 C2016 1.399 . S
C2021 C2020 1.394 . S
C2021 C2022 1.516 1_545 S
C2022 C2021 1.516 1_565 S
C2022 C2023 1.502 . S
C2022 C2024 1.561 . S
C2022 C2025 1.526 1_565 S
C2023 H2007 0.959 . S
C2023 H2008 0.959 . S
C2023 H2009 0.961 . S
C2023 C2022 1.502 . S
C2024 H2010 0.960 . S
C2024 H2011 0.961 . S
C2024 H2012 0.959 1_655 S
C2024 C2022 1.561 . S
C2025 C2022 1.526 1_545 S
C2025 C2026 1.396 . S
C2025 C2030 1.390 . S
C2026 C2020 1.465 . S
C2026 C2025 1.396 . S
C2026 C2027 1.399 1_655 S
C2027 H2013 0.929 . S
C2027 C2026 1.399 1_455 S
C2027 C2028 1.385 . S
C2028 H2014 0.931 . S
C2028 C2027 1.385 . S
C2028 C2029 1.389 . S
C2029 C2028 1.389 . S
C2029 C2030 1.387 1_455 S
C2030 H2015 0.930 1_545 S
C2030 C2025 1.390 . S
C2030 C2029 1.387 1_655 S
H2031 C2043 0.930 . S
H2032 C2045 0.930 . S
H2033 C2046 0.930 . S
H2034 C2050 0.959 . S
H2035 C2050 0.959 . S
H2036 C2050 0.961 . S
H2037 C2051 0.960 . S
H2038 C2051 0.961 . S
H2039 C2051 0.959 . S
H2040 C2054 0.929 . S
H2041 C2055 0.931 . S
H2042 C2057 0.930 . S
C2043 H2031 0.930 . S
C2043 C2044 1.399 . S
C2043 C2048 1.399 . S
C2044 C2043 1.399 . S
C2044 C2045 1.376 . S
C2045 H2032 0.930 . S
C2045 C2044 1.376 . S
C2045 C2046 1.388 . S
C2046 H2033 0.930 . S
C2046 C2045 1.388 . S
C2046 C2047 1.390 . S
C2047 C2046 1.390 . S
C2047 C2048 1.394 . S
C2047 C2053 1.465 . S
C2048 C2043 1.399 . S
C2048 C2047 1.394 . S
C2048 C2049 1.516 . S
C2049 C2048 1.516 . S
C2049 C2050 1.502 . S
C2049 C2051 1.561 . S
C2049 C2052 1.526 . S
C2050 H2034 0.959 . S
C2050 H2035 0.959 . S
C2050 H2036 0.961 . S
C2050 C2049 1.502 . S
C2051 H2037 0.960 . S
C2051 H2038 0.961 . S
C2051 H2039 0.959 . S
C2051 C2049 1.561 . S
C2052 C2049 1.526 . S
C2052 C2053 1.396 . S
C2052 C2057 1.390 . S
C2053 C2047 1.465 . S
C2053 C2052 1.396 . S
C2053 C2054 1.399 . S
C2054 H2040 0.929 . S
C2054 C2053 1.399 . S
C2054 C2055 1.385 . S
C2055 H2041 0.931 . S
C2055 C2054 1.385 . S
C2055 C2056 1.389 . S
C2056 C2055 1.389 . S
C2056 C2057 1.387 . S
C2057 H2042 0.930 . S
C2057 C2052 1.390 . S
C2057 C2056 1.387 . S
H2058 C2070 0.930 . S
H2059 C2072 0.930 . S
H2060 C2073 0.930 . S
H2061 C2077 0.959 . S
H2062 C2077 0.959 . S
H2063 C2077 0.961 . S
H2064 C2078 0.960 . S
H2065 C2078 0.961 . S
H2066 C2078 0.959 . S
H2067 C2081 0.929 . S
H2068 C2082 0.931 . S
H2069 C2084 0.930 . S
C2070 H2058 0.930 . S
C2070 C2071 1.399 . S
C2070 C2075 1.399 . S
C2071 C2070 1.399 . S
C2071 C2072 1.376 . S
C2072 H2059 0.930 . S
C2072 C2071 1.376 . S
C2072 C2073 1.388 . S
C2073 H2060 0.930 . S
C2073 C2072 1.388 . S
C2073 C2074 1.390 . S
C2074 C2073 1.390 . S
C2074 C2075 1.394 . S
C2074 C2080 1.465 . S
C2075 C2070 1.399 . S
C2075 C2074 1.394 . S
C2075 C2076 1.516 . S
C2076 C2075 1.516 . S
C2076 C2077 1.502 . S
C2076 C2078 1.561 . S
C2076 C2079 1.526 . S
C2077 H2061 0.959 . S
C2077 H2062 0.959 . S
C2077 H2063 0.961 . S
C2077 C2076 1.502 . S
C2078 H2064 0.960 . S
C2078 H2065 0.961 . S
C2078 H2066 0.959 . S
C2078 C2076 1.561 . S
C2079 C2076 1.526 . S
C2079 C2080 1.396 . S
C2079 C2084 1.390 . S
C2080 C2074 1.465 . S
C2080 C2079 1.396 . S
C2080 C2081 1.399 . S
C2081 H2067 0.929 . S
C2081 C2080 1.399 . S
C2081 C2082 1.385 . S
C2082 H2068 0.931 . S
C2082 C2081 1.385 . S
C2082 C2083 1.389 . S
C2083 C2082 1.389 . S
C2083 C2084 1.387 . S
C2084 H2069 0.930 . S
C2084 C2079 1.390 . S
C2084 C2083 1.387 . S
H2085 C2097 0.930 . S
H2086 C2099 0.930 . S
H2087 C2100 0.930 . S
H2088 C2104 0.959 . S
H2089 C2104 0.959 . S
H2090 C2104 0.961 . S
H2091 C2105 0.960 . S
H2092 C2105 0.961 . S
H2093 C2105 0.959 . S
H2094 C2108 0.929 . S
H2095 C2109 0.931 . S
H2096 C2111 0.930 . S
C2097 H2085 0.930 . S
C2097 C2098 1.399 . S
C2097 C2102 1.399 . S
C2098 C2097 1.399 . S
C2098 C2099 1.376 . S
C2099 H2086 0.930 . S
C2099 C2098 1.376 . S
C2099 C2100 1.388 . S
C2100 H2087 0.930 . S
C2100 C2099 1.388 . S
C2100 C2101 1.390 . S
C2101 C2100 1.390 . S
C2101 C2102 1.394 . S
C2101 C2107 1.465 . S
C2102 C2097 1.399 . S
C2102 C2101 1.394 . S
C2102 C2103 1.516 . S
C2103 C2102 1.516 . S
C2103 C2104 1.502 . S
C2103 C2105 1.561 . S
C2103 C2106 1.526 . S
C2104 H2088 0.959 . S
C2104 H2089 0.959 . S
C2104 H2090 0.961 . S
C2104 C2103 1.502 . S
C2105 H2091 0.960 . S
C2105 H2092 0.961 . S
C2105 H2093 0.959 . S
C2105 C2103 1.561 . S
C2106 C2103 1.526 . S
C2106 C2107 1.396 . S
C2106 C2111 1.390 . S
C2107 C2101 1.465 . S
C2107 C2106 1.396 . S
C2107 C2108 1.399 . S
C2108 H2094 0.929 . S
C2108 C2107 1.399 . S
C2108 C2109 1.385 . S
C2109 H2095 0.931 . S
C2109 C2108 1.385 . S
C2109 C2110 1.389 . S
C2110 C2109 1.389 . S
C2110 C2111 1.387 . S
C2111 H2096 0.930 . S
C2111 C2106 1.390 . S
C2111 C2110 1.387 . S
H2112 C2124 0.930 . S
H2113 C2126 0.930 . S
H2114 C2127 0.930 . S
H2115 C2131 0.960 1_554 S
H2116 C2131 0.959 . S
H2117 C2131 0.961 . S
H2118 C2132 0.960 . S
H2119 C2132 0.961 . S
H2120 C2132 0.959 . S
H2121 C2135 0.929 . S
H2122 C2136 0.931 . S
H2123 C2138 0.930 . S
C2124 H2112 0.930 . S
C2124 C2125 1.399 1_556 S
C2124 C2129 1.399 1_556 S
C2125 C2124 1.399 1_554 S
C2125 C2126 1.376 . S
C2126 H2113 0.930 . S
C2126 C2125 1.376 . S
C2126 C2127 1.388 . S
C2127 H2114 0.930 . S
C2127 C2126 1.388 . S
C2127 C2128 1.390 . S
C2128 C2127 1.390 . S
C2128 C2129 1.394 . S
C2128 C2134 1.465 . S
C2129 C2124 1.399 1_554 S
C2129 C2128 1.394 . S
C2129 C2130 1.516 1_554 S
C2130 C2129 1.516 1_556 S
C2130 C2131 1.502 1_565 S
C2130 C2132 1.561 . S
C2130 C2133 1.526 1_556 S
C2131 H2115 0.960 1_556 S
C2131 H2116 0.959 . S
C2131 H2117 0.961 . S
C2131 C2130 1.502 1_545 S
C2132 H2118 0.960 . S
C2132 H2119 0.961 . S
C2132 H2120 0.959 . S
C2132 C2130 1.561 . S
C2133 C2130 1.526 1_554 S
C2133 C2134 1.396 . S
C2133 C2138 1.390 1_565 S
C2134 C2128 1.465 . S
C2134 C2133 1.396 . S
C2134 C2135 1.399 . S
C2135 H2121 0.929 . S
C2135 C2134 1.399 . S
C2135 C2136 1.385 . S
C2136 H2122 0.931 . S
C2136 C2135 1.385 . S
C2136 C2137 1.389 1_565 S
C2137 C2136 1.389 1_545 S
C2137 C2138 1.387 . S
C2138 H2123 0.930 . S
C2138 C2133 1.390 1_545 S
C2138 C2137 1.387 . S
H2139 C2151 0.930 . S
H2140 C2153 0.930 . S
H2141 C2154 0.930 . S
H2142 C2158 0.959 . S
H2143 C2158 0.959 . S
H2144 C2158 0.961 . S
H2145 C2159 0.960 . S
H2146 C2159 0.961 . S
H2147 C2159 0.959 . S
H2148 C2162 0.929 . S
H2149 C2163 0.931 . S
H2150 C2165 0.930 . S
C2151 H2139 0.930 . S
C2151 C2152 1.399 . S
C2151 C2156 1.399 . S
C2152 C2151 1.399 . S
C2152 C2153 1.376 1_554 S
C2153 H2140 0.930 . S
C2153 C2152 1.376 1_556 S
C2153 C2154 1.388 . S
C2154 H2141 0.930 . S
C2154 C2153 1.388 . S
C2154 C2155 1.390 . S
C2155 C2154 1.390 . S
C2155 C2156 1.394 1_556 S
C2155 C2161 1.465 . S
C2156 C2151 1.399 . S
C2156 C2155 1.394 1_554 S
C2156 C2157 1.516 . S
C2157 C2156 1.516 . S
C2157 C2158 1.502 . S
C2157 C2159 1.561 . S
C2157 C2160 1.526 . S
C2158 H2142 0.959 . S
C2158 H2143 0.959 . S
C2158 H2144 0.961 . S
C2158 C2157 1.502 . S
C2159 H2145 0.960 . S
C2159 H2146 0.961 . S
C2159 H2147 0.959 . S
C2159 C2157 1.561 . S
C2160 C2157 1.526 . S
C2160 C2161 1.396 1_554 S
C2160 C2165 1.390 . S
C2161 C2155 1.465 . S
C2161 C2160 1.396 1_556 S
C2161 C2162 1.399 . S
C2162 H2148 0.929 . S
C2162 C2161 1.399 . S
C2162 C2163 1.385 . S
C2163 H2149 0.931 . S
C2163 C2162 1.385 . S
C2163 C2164 1.389 1_556 S
C2164 C2163 1.389 1_554 S
C2164 C2165 1.387 . S
C2165 H2150 0.930 . S
C2165 C2160 1.390 . S
C2165 C2164 1.387 . S
H2166 C2178 0.930 . S
H2167 C2180 0.930 . S
H2168 C2181 0.930 . S
H2169 C2185 0.959 . S
H2170 C2185 0.959 . S
H2171 C2185 0.961 . S
H2172 C2186 0.960 . S
H2173 C2186 0.961 . S
H2174 C2186 0.959 . S
H2175 C2189 0.929 . S
H2176 C2190 0.931 . S
H2177 C2192 0.930 . S
C2178 H2166 0.930 . S
C2178 C2179 1.399 . S
C2178 C2183 1.399 . S
C2179 C2178 1.399 . S
C2179 C2180 1.376 . S
C2180 H2167 0.930 . S
C2180 C2179 1.376 . S
C2180 C2181 1.388 . S
C2181 H2168 0.930 . S
C2181 C2180 1.388 . S
C2181 C2182 1.390 . S
C2182 C2181 1.390 . S
C2182 C2183 1.394 . S
C2182 C2188 1.465 . S
C2183 C2178 1.399 . S
C2183 C2182 1.394 . S
C2183 C2184 1.516 . S
C2184 C2183 1.516 . S
C2184 C2185 1.502 . S
C2184 C2186 1.561 . S
C2184 C2187 1.526 . S
C2185 H2169 0.959 . S
C2185 H2170 0.959 . S
C2185 H2171 0.961 . S
C2185 C2184 1.502 . S
C2186 H2172 0.960 . S
C2186 H2173 0.961 . S
C2186 H2174 0.959 . S
C2186 C2184 1.561 . S
C2187 C2184 1.526 . S
C2187 C2188 1.396 . S
C2187 C2192 1.390 . S
C2188 C2182 1.465 . S
C2188 C2187 1.396 . S
C2188 C2189 1.399 . S
C2189 H2175 0.929 . S
C2189 C2188 1.399 . S
C2189 C2190 1.385 . S
C2190 H2176 0.931 . S
C2190 C2189 1.385 . S
C2190 C2191 1.389 . S
C2191 C2190 1.389 . S
C2191 C2192 1.387 . S
C2192 H2177 0.930 . S
C2192 C2187 1.390 . S
C2192 C2191 1.387 . S
H2193 C2205 0.930 . S
H2194 C2207 0.930 . S
H2195 C2208 0.930 . S
H2196 C2212 0.959 . S
H2197 C2212 0.959 . S
H2198 C2212 0.961 . S
H2199 C2213 0.960 . S
H2200 C2213 0.961 . S
H2201 C2213 0.959 . S
H2202 C2216 0.929 . S
H2203 C2217 0.931 . S
H2204 C2219 0.930 . S
C2205 H2193 0.930 . S
C2205 C2206 1.399 . S
C2205 C2210 1.399 . S
C2206 C2205 1.399 . S
C2206 C2207 1.376 . S
C2207 H2194 0.930 . S
C2207 C2206 1.376 . S
C2207 C2208 1.388 . S
C2208 H2195 0.930 . S
C2208 C2207 1.388 . S
C2208 C2209 1.390 . S
C2209 C2208 1.390 . S
C2209 C2210 1.394 . S
C2209 C2215 1.465 . S
C2210 C2205 1.399 . S
C2210 C2209 1.394 . S
C2210 C2211 1.516 . S
C2211 C2210 1.516 . S
C2211 C2212 1.502 . S
C2211 C2213 1.561 . S
C2211 C2214 1.526 . S
C2212 H2196 0.959 . S
C2212 H2197 0.959 . S
C2212 H2198 0.961 . S
C2212 C2211 1.502 . S
C2213 H2199 0.960 . S
C2213 H2200 0.961 . S
C2213 H2201 0.959 . S
C2213 C2211 1.561 . S
C2214 C2211 1.526 . S
C2214 C2215 1.396 . S
C2214 C2219 1.390 . S
C2215 C2209 1.465 . S
C2215 C2214 1.396 . S
C2215 C2216 1.399 . S
C2216 H2202 0.929 . S
C2216 C2215 1.399 . S
C2216 C2217 1.385 . S
C2217 H2203 0.931 . S
C2217 C2216 1.385 . S
C2217 C2218 1.389 . S
C2218 C2217 1.389 . S
C2218 C2219 1.387 . S
C2219 H2204 0.930 . S
C2219 C2214 1.390 . S
C2219 C2218 1.387 . S
H2220 C2232 0.930 . S
H2221 C2234 0.930 . S
H2222 C2235 0.930 . S
H2223 C2239 0.959 . S
H2224 C2239 0.959 . S
H2225 C2239 0.961 . S
H2226 C2240 0.960 . S
H2227 C2240 0.961 . S
H2228 C2240 0.959 . S
H2229 C2243 0.929 . S
H2230 C2244 0.931 . S
H2231 C2246 0.930 . S
C2232 H2220 0.930 . S
C2232 C2233 1.399 . S
C2232 C2237 1.399 . S
C2233 C2232 1.399 . S
C2233 C2234 1.376 . S
C2234 H2221 0.930 . S
C2234 C2233 1.376 . S
C2234 C2235 1.388 . S
C2235 H2222 0.930 . S
C2235 C2234 1.388 . S
C2235 C2236 1.390 . S
C2236 C2235 1.390 . S
C2236 C2237 1.394 . S
C2236 C2242 1.465 . S
C2237 C2232 1.399 . S
C2237 C2236 1.394 . S
C2237 C2238 1.516 . S
C2238 C2237 1.516 . S
C2238 C2239 1.502 . S
C2238 C2240 1.561 . S
C2238 C2241 1.526 . S
C2239 H2223 0.959 . S
C2239 H2224 0.959 . S
C2239 H2225 0.961 . S
C2239 C2238 1.502 . S
C2240 H2226 0.960 . S
C2240 H2227 0.961 . S
C2240 H2228 0.959 . S
C2240 C2238 1.561 . S
C2241 C2238 1.526 . S
C2241 C2242 1.396 . S
C2241 C2246 1.390 . S
C2242 C2236 1.465 . S
C2242 C2241 1.396 . S
C2242 C2243 1.399 . S
C2243 H2229 0.929 . S
C2243 C2242 1.399 . S
C2243 C2244 1.385 . S
C2244 H2230 0.931 . S
C2244 C2243 1.385 . S
C2244 C2245 1.389 . S
C2245 C2244 1.389 . S
C2245 C2246 1.387 . S
C2246 H2231 0.930 . S
C2246 C2241 1.390 . S
C2246 C2245 1.387 . S
H2247 C2259 0.930 . S
H2248 C2261 0.930 . S
H2249 C2262 0.930 . S
H2250 C2266 0.959 . S
H2251 C2266 0.959 . S
H2252 C2266 0.961 . S
H2253 C2267 0.960 . S
H2254 C2267 0.961 . S
H2255 C2267 0.959 . S
H2256 C2270 0.929 . S
H2257 C2271 0.931 . S
H2258 C2273 0.930 . S
C2259 H2247 0.930 . S
C2259 C2260 1.399 . S
C2259 C2264 1.399 . S
C2260 C2259 1.399 . S
C2260 C2261 1.376 . S
C2261 H2248 0.930 . S
C2261 C2260 1.376 . S
C2261 C2262 1.388 . S
C2262 H2249 0.930 . S
C2262 C2261 1.388 . S
C2262 C2263 1.390 . S
C2263 C2262 1.390 . S
C2263 C2264 1.394 . S
C2263 C2269 1.465 . S
C2264 C2259 1.399 . S
C2264 C2263 1.394 . S
C2264 C2265 1.516 . S
C2265 C2264 1.516 . S
C2265 C2266 1.502 . S
C2265 C2267 1.561 . S
C2265 C2268 1.526 . S
C2266 H2250 0.959 . S
C2266 H2251 0.959 . S
C2266 H2252 0.961 . S
C2266 C2265 1.502 . S
C2267 H2253 0.960 . S
C2267 H2254 0.961 . S
C2267 H2255 0.959 . S
C2267 C2265 1.561 . S
C2268 C2265 1.526 . S
C2268 C2269 1.396 . S
C2268 C2273 1.390 . S
C2269 C2263 1.465 . S
C2269 C2268 1.396 . S
C2269 C2270 1.399 . S
C2270 H2256 0.929 . S
C2270 C2269 1.399 . S
C2270 C2271 1.385 . S
C2271 H2257 0.931 . S
C2271 C2270 1.385 . S
C2271 C2272 1.389 . S
C2272 C2271 1.389 . S
C2272 C2273 1.387 . S
C2273 H2258 0.930 . S
C2273 C2268 1.390 . S
C2273 C2272 1.387 . S
H2274 C2286 0.930 . S
H2275 C2288 0.930 . S
H2276 C2289 0.930 . S
H2277 C2293 0.959 . S
H2278 C2293 0.959 . S
H2279 C2293 0.961 . S
H2280 C2294 0.960 . S
H2281 C2294 0.961 . S
H2282 C2294 0.959 . S
H2283 C2297 0.929 . S
H2284 C2298 0.931 . S
H2285 C2300 0.930 . S
C2286 H2274 0.930 . S
C2286 C2287 1.399 . S
C2286 C2291 1.399 . S
C2287 C2286 1.399 . S
C2287 C2288 1.376 . S
C2288 H2275 0.930 . S
C2288 C2287 1.376 . S
C2288 C2289 1.388 . S
C2289 H2276 0.930 . S
C2289 C2288 1.388 . S
C2289 C2290 1.390 . S
C2290 C2289 1.390 . S
C2290 C2291 1.394 . S
C2290 C2296 1.465 . S
C2291 C2286 1.399 . S
C2291 C2290 1.394 . S
C2291 C2292 1.516 . S
C2292 C2291 1.516 . S
C2292 C2293 1.502 . S
C2292 C2294 1.561 . S
C2292 C2295 1.526 . S
C2293 H2277 0.959 . S
C2293 H2278 0.959 . S
C2293 H2279 0.961 . S
C2293 C2292 1.502 . S
C2294 H2280 0.960 . S
C2294 H2281 0.961 . S
C2294 H2282 0.959 . S
C2294 C2292 1.561 . S
C2295 C2292 1.526 . S
C2295 C2296 1.396 . S
C2295 C2300 1.390 . S
C2296 C2290 1.465 . S
C2296 C2295 1.396 . S
C2296 C2297 1.399 . S
C2297 H2283 0.929 . S
C2297 C2296 1.399 . S
C2297 C2298 1.385 . S
C2298 H2284 0.931 . S
C2298 C2297 1.385 . S
C2298 C2299 1.389 . S
C2299 C2298 1.389 . S
C2299 C2300 1.387 . S
C2300 H2285 0.930 . S
C2300 C2295 1.390 . S
C2300 C2299 1.387 . S
H2301 C2313 0.930 . S
H2302 C2315 0.930 . S
H2303 C2316 0.930 . S
H2304 C2320 0.959 . S
H2305 C2320 0.959 . S
H2306 C2320 0.961 . S
H2307 C2321 0.960 . S
H2308 C2321 0.961 . S
H2309 C2321 0.959 . S
H2310 C2324 0.929 . S
H2311 C2325 0.931 . S
H2312 C2327 0.930 . S
C2313 H2301 0.930 . S
C2313 C2314 1.399 . S
C2313 C2318 1.399 . S
C2314 C2313 1.399 . S
C2314 C2315 1.376 . S
C2315 H2302 0.930 . S
C2315 C2314 1.376 . S
C2315 C2316 1.388 . S
C2316 H2303 0.930 . S
C2316 C2315 1.388 . S
C2316 C2317 1.390 . S
C2317 C2316 1.390 . S
C2317 C2318 1.394 . S
C2317 C2323 1.465 . S
C2318 C2313 1.399 . S
C2318 C2317 1.394 . S
C2318 C2319 1.516 . S
C2319 C2318 1.516 . S
C2319 C2320 1.502 . S
C2319 C2321 1.561 . S
C2319 C2322 1.526 . S
C2320 H2304 0.959 . S
C2320 H2305 0.959 . S
C2320 H2306 0.961 . S
C2320 C2319 1.502 . S
C2321 H2307 0.960 . S
C2321 H2308 0.961 . S
C2321 H2309 0.959 . S
C2321 C2319 1.561 . S
C2322 C2319 1.526 . S
C2322 C2323 1.396 . S
C2322 C2327 1.390 . S
C2323 C2317 1.465 . S
C2323 C2322 1.396 . S
C2323 C2324 1.399 . S
C2324 H2310 0.929 . S
C2324 C2323 1.399 . S
C2324 C2325 1.385 . S
C2325 H2311 0.931 . S
C2325 C2324 1.385 . S
C2325 C2326 1.389 . S
C2326 C2325 1.389 . S
C2326 C2327 1.387 . S
C2327 H2312 0.930 . S
C2327 C2322 1.390 . S
C2327 C2326 1.387 . S
H2328 C2340 0.930 . S
H2329 C2342 0.930 . S
H2330 C2343 0.930 . S
H2331 C2347 0.959 . S
H2332 C2347 0.959 . S
H2333 C2347 0.961 . S
H2334 C2348 0.960 . S
H2335 C2348 0.961 . S
H2336 C2348 0.959 . S
H2337 C2351 0.929 . S
H2338 C2352 0.931 . S
H2339 C2354 0.930 . S
C2340 H2328 0.930 . S
C2340 C2341 1.399 . S
C2340 C2345 1.399 . S
C2341 C2340 1.399 . S
C2341 C2342 1.376 . S
C2342 H2329 0.930 . S
C2342 C2341 1.376 . S
C2342 C2343 1.388 . S
C2343 H2330 0.930 . S
C2343 C2342 1.388 . S
C2343 C2344 1.390 . S
C2344 C2343 1.390 . S
C2344 C2345 1.394 . S
C2344 C2350 1.465 . S
C2345 C2340 1.399 . S
C2345 C2344 1.394 . S
C2345 C2346 1.516 . S
C2346 C2345 1.516 . S
C2346 C2347 1.502 . S
C2346 C2348 1.561 . S
C2346 C2349 1.526 . S
C2347 H2331 0.959 . S
C2347 H2332 0.959 . S
C2347 H2333 0.961 . S
C2347 C2346 1.502 . S
C2348 H2334 0.960 . S
C2348 H2335 0.961 . S
C2348 H2336 0.959 . S
C2348 C2346 1.561 . S
C2349 C2346 1.526 . S
C2349 C2350 1.396 . S
C2349 C2354 1.390 . S
C2350 C2344 1.465 . S
C2350 C2349 1.396 . S
C2350 C2351 1.399 . S
C2351 H2337 0.929 . S
C2351 C2350 1.399 . S
C2351 C2352 1.385 . S
C2352 H2338 0.931 . S
C2352 C2351 1.385 . S
C2352 C2353 1.389 . S
C2353 C2352 1.389 . S
C2353 C2354 1.387 . S
C2354 H2339 0.930 . S
C2354 C2349 1.390 . S
C2354 C2353 1.387 . S
H2355 C2367 0.930 . S
H2356 C2369 0.930 . S
H2357 C2370 0.930 . S
H2358 C2374 0.959 . S
H2359 C2374 0.959 . S
H2360 C2374 0.961 . S
H2361 C2375 0.960 . S
H2362 C2375 0.961 . S
H2363 C2375 0.959 . S
H2364 C2378 0.929 . S
H2365 C2379 0.931 . S
H2366 C2381 0.930 . S
C2367 H2355 0.930 . S
C2367 C2368 1.399 . S
C2367 C2372 1.399 . S
C2368 C2367 1.399 . S
C2368 C2369 1.376 . S
C2369 H2356 0.930 . S
C2369 C2368 1.376 . S
C2369 C2370 1.388 . S
C2370 H2357 0.930 . S
C2370 C2369 1.388 . S
C2370 C2371 1.390 . S
C2371 C2370 1.390 . S
C2371 C2372 1.394 . S
C2371 C2377 1.465 . S
C2372 C2367 1.399 . S
C2372 C2371 1.394 . S
C2372 C2373 1.516 . S
C2373 C2372 1.516 . S
C2373 C2374 1.502 . S
C2373 C2375 1.561 . S
C2373 C2376 1.526 . S
C2374 H2358 0.959 . S
C2374 H2359 0.959 . S
C2374 H2360 0.961 . S
C2374 C2373 1.502 . S
C2375 H2361 0.960 . S
C2375 H2362 0.961 . S
C2375 H2363 0.959 . S
C2375 C2373 1.561 . S
C2376 C2373 1.526 . S
C2376 C2377 1.396 . S
C2376 C2381 1.390 . S
C2377 C2371 1.465 . S
C2377 C2376 1.396 . S
C2377 C2378 1.399 . S
C2378 H2364 0.929 . S
C2378 C2377 1.399 . S
C2378 C2379 1.385 . S
C2379 H2365 0.931 . S
C2379 C2378 1.385 . S
C2379 C2380 1.389 . S
C2380 C2379 1.389 . S
C2380 C2381 1.387 . S
C2381 H2366 0.930 . S
C2381 C2376 1.390 . S
C2381 C2380 1.387 . S
H2382 C2394 0.930 . S
H2383 C2396 0.930 . S
H2384 C2397 0.930 . S
H2385 C2401 0.959 . S
H2386 C2401 0.959 . S
H2387 C2401 0.961 . S
H2388 C2402 0.960 . S
H2389 C2402 0.961 . S
H2390 C2402 0.959 . S
H2391 C2405 0.929 . S
H2392 C2406 0.931 . S
H2393 C2408 0.930 . S
C2394 H2382 0.930 . S
C2394 C2395 1.399 . S
C2394 C2399 1.399 . S
C2395 C2394 1.399 . S
C2395 C2396 1.376 . S
C2396 H2383 0.930 . S
C2396 C2395 1.376 . S
C2396 C2397 1.388 . S
C2397 H2384 0.930 . S
C2397 C2396 1.388 . S
C2397 C2398 1.390 . S
C2398 C2397 1.390 . S
C2398 C2399 1.394 . S
C2398 C2404 1.465 . S
C2399 C2394 1.399 . S
C2399 C2398 1.394 . S
C2399 C2400 1.516 . S
C2400 C2399 1.516 . S
C2400 C2401 1.502 . S
C2400 C2402 1.561 . S
C2400 C2403 1.526 . S
C2401 H2385 0.959 . S
C2401 H2386 0.959 . S
C2401 H2387 0.961 . S
C2401 C2400 1.502 . S
C2402 H2388 0.960 . S
C2402 H2389 0.961 . S
C2402 H2390 0.959 . S
C2402 C2400 1.561 . S
C2403 C2400 1.526 . S
C2403 C2404 1.396 . S
C2403 C2408 1.390 . S
C2404 C2398 1.465 . S
C2404 C2403 1.396 . S
C2404 C2405 1.399 . S
C2405 H2391 0.929 . S
C2405 C2404 1.399 . S
C2405 C2406 1.385 . S
C2406 H2392 0.931 . S
C2406 C2405 1.385 . S
C2406 C2407 1.389 . S
C2407 C2406 1.389 . S
C2407 C2408 1.387 . S
C2408 H2393 0.930 . S
C2408 C2403 1.390 . S
C2408 C2407 1.387 . S
H2409 C2421 0.930 . S
H2410 C2423 0.930 . S
H2411 C2424 0.930 . S
H2412 C2428 0.959 . S
H2413 C2428 0.959 . S
H2414 C2428 0.961 . S
H2415 C2429 0.960 . S
H2416 C2429 0.961 . S
H2417 C2429 0.959 . S
H2418 C2432 0.929 . S
H2419 C2433 0.931 . S
H2420 C2435 0.930 . S
C2421 H2409 0.930 . S
C2421 C2422 1.399 . S
C2421 C2426 1.399 . S
C2422 C2421 1.399 . S
C2422 C2423 1.376 . S
C2423 H2410 0.930 . S
C2423 C2422 1.376 . S
C2423 C2424 1.388 . S
C2424 H2411 0.930 . S
C2424 C2423 1.388 . S
C2424 C2425 1.390 . S
C2425 C2424 1.390 . S
C2425 C2426 1.394 . S
C2425 C2431 1.465 . S
C2426 C2421 1.399 . S
C2426 C2425 1.394 . S
C2426 C2427 1.516 . S
C2427 C2426 1.516 . S
C2427 C2428 1.502 . S
C2427 C2429 1.561 . S
C2427 C2430 1.526 . S
C2428 H2412 0.959 . S
C2428 H2413 0.959 . S
C2428 H2414 0.961 . S
C2428 C2427 1.502 . S
C2429 H2415 0.960 . S
C2429 H2416 0.961 . S
C2429 H2417 0.959 . S
C2429 C2427 1.561 . S
C2430 C2427 1.526 . S
C2430 C2431 1.396 . S
C2430 C2435 1.390 . S
C2431 C2425 1.465 . S
C2431 C2430 1.396 . S
C2431 C2432 1.399 . S
C2432 H2418 0.929 . S
C2432 C2431 1.399 . S
C2432 C2433 1.385 . S
C2433 H2419 0.931 . S
C2433 C2432 1.385 . S
C2433 C2434 1.389 . S
C2434 C2433 1.389 . S
C2434 C2435 1.387 . S
C2435 H2420 0.930 . S
C2435 C2430 1.390 . S
C2435 C2434 1.387 . S
H2436 C2448 0.930 . S
H2437 C2450 0.971 . S
H2438 C2451 0.930 1_655 S
H2439 C2455 0.959 . S
H2440 C2455 0.959 . S
H2441 C2455 0.961 . S
H2442 C2456 0.960 . S
H2443 C2456 0.961 . S
H2444 C2456 0.959 . S
H2445 C2459 0.929 1_655 S
H2446 C2460 0.931 1_655 S
H2447 C2462 0.930 . S
C2448 H2436 0.930 . S
C2448 C2449 1.399 . S
C2448 C2453 1.399 . S
C2449 C2448 1.399 . S
C2449 C2450 1.376 . S
C2450 H2437 0.971 . S
C2450 C2449 1.376 . S
C2450 C2451 1.388 . S
C2451 H2438 0.930 1_455 S
C2451 C2450 1.388 . S
C2451 C2452 1.390 . S
C2452 C2451 1.390 . S
C2452 C2453 1.394 . S
C2452 C2458 1.465 . S
C2453 C2448 1.399 . S
C2453 C2452 1.394 . S
C2453 C2454 1.516 . S
C2454 C2453 1.516 . S
C2454 C2455 1.502 . S
C2454 C2456 1.561 . S
C2454 C2457 1.526 . S
C2455 H2439 0.959 . S
C2455 H2440 0.959 . S
C2455 H2441 0.961 . S
C2455 C2454 1.502 . S
C2456 H2442 0.960 . S
C2456 H2443 0.961 . S
C2456 H2444 0.959 . S
C2456 C2454 1.561 . S
C2457 C2454 1.526 . S
C2457 C2458 1.396 . S
C2457 C2462 1.390 . S
C2458 C2452 1.465 . S
C2458 C2457 1.396 . S
C2458 C2459 1.399 . S
C2459 H2445 0.929 1_455 S
C2459 C2458 1.399 . S
C2459 C2460 1.385 . S
C2460 H2446 0.931 1_455 S
C2460 C2459 1.385 . S
C2460 C2461 1.389 . S
C2461 C2460 1.389 . S
C2461 C2462 1.387 . S
C2462 H2447 0.930 . S
C2462 C2457 1.390 . S
C2462 C2461 1.387 . S
H2463 C2475 0.930 . S
H2464 C2477 0.930 . S
H2465 C2478 0.930 . S
H2466 C2482 0.959 . S
H2467 C2482 0.959 . S
H2468 C2482 0.961 . S
H2469 C2483 0.960 . S
H2470 C2483 0.961 . S
H2471 C2483 0.959 . S
H2472 C2486 0.929 . S
H2473 C2487 0.931 . S
H2474 C2489 0.930 . S
C2475 H2463 0.930 . S
C2475 C2476 1.399 . S
C2475 C2480 1.399 . S
C2476 C2475 1.399 . S
C2476 C2477 1.376 . S
C2477 H2464 0.930 . S
C2477 C2476 1.376 . S
C2477 C2478 1.388 . S
C2478 H2465 0.930 . S
C2478 C2477 1.388 . S
C2478 C2479 1.390 . S
C2479 C2478 1.390 . S
C2479 C2480 1.394 . S
C2479 C2485 1.465 . S
C2480 C2475 1.399 . S
C2480 C2479 1.394 . S
C2480 C2481 1.516 . S
C2481 C2480 1.516 . S
C2481 C2482 1.502 . S
C2481 C2483 1.561 . S
C2481 C2484 1.526 . S
C2482 H2466 0.959 . S
C2482 H2467 0.959 . S
C2482 H2468 0.961 . S
C2482 C2481 1.502 . S
C2483 H2469 0.960 . S
C2483 H2470 0.961 . S
C2483 H2471 0.959 . S
C2483 C2481 1.561 . S
C2484 C2481 1.526 . S
C2484 C2485 1.396 . S
C2484 C2489 1.390 . S
C2485 C2479 1.465 . S
C2485 C2484 1.396 . S
C2485 C2486 1.399 . S
C2486 H2472 0.929 . S
C2486 C2485 1.399 . S
C2486 C2487 1.385 . S
C2487 H2473 0.931 . S
C2487 C2486 1.385 . S
C2487 C2488 1.389 . S
C2488 C2487 1.389 . S
C2488 C2489 1.387 . S
C2489 H2474 0.930 . S
C2489 C2484 1.390 . S
C2489 C2488 1.387 . S
H2490 C2502 0.930 . S
H2491 C2504 0.930 . S
H2492 C2505 0.930 . S
H2493 C2509 0.959 . S
H2494 C2509 0.959 . S
H2495 C2509 0.961 . S
H2496 C2510 0.960 . S
H2497 C2510 0.961 . S
H2498 C2510 0.959 . S
H2499 C2513 0.929 . S
H2500 C2514 0.931 . S
H2501 C2516 0.930 . S
C2502 H2490 0.930 . S
C2502 C2503 1.399 . S
C2502 C2507 1.399 . S
C2503 C2502 1.399 . S
C2503 C2504 1.376 . S
C2504 H2491 0.930 . S
C2504 C2503 1.376 . S
C2504 C2505 1.388 . S
C2505 H2492 0.930 . S
C2505 C2504 1.388 . S
C2505 C2506 1.390 . S
C2506 C2505 1.390 . S
C2506 C2507 1.394 . S
C2506 C2512 1.465 . S
C2507 C2502 1.399 . S
C2507 C2506 1.394 . S
C2507 C2508 1.516 . S
C2508 C2507 1.516 . S
C2508 C2509 1.502 . S
C2508 C2510 1.561 . S
C2508 C2511 1.526 . S
C2509 H2493 0.959 . S
C2509 H2494 0.959 . S
C2509 H2495 0.961 . S
C2509 C2508 1.502 . S
C2510 H2496 0.960 . S
C2510 H2497 0.961 . S
C2510 H2498 0.959 . S
C2510 C2508 1.561 . S
C2511 C2508 1.526 . S
C2511 C2512 1.396 . S
C2511 C2516 1.390 . S
C2512 C2506 1.465 . S
C2512 C2511 1.396 . S
C2512 C2513 1.399 . S
C2513 H2499 0.929 . S
C2513 C2512 1.399 . S
C2513 C2514 1.385 . S
C2514 H2500 0.931 . S
C2514 C2513 1.385 . S
C2514 C2515 1.389 . S
C2515 C2514 1.389 . S
C2515 C2516 1.387 . S
C2516 H2501 0.930 . S
C2516 C2511 1.390 . S
C2516 C2515 1.387 . S
H2517 C2529 0.930 . S
H2518 C2531 0.930 . S
H2519 C2532 0.930 . S
H2520 C2536 0.959 . S
H2521 C2536 0.959 . S
H2522 C2536 0.961 . S
H2523 C2537 0.960 . S
H2524 C2537 0.961 . S
H2525 C2537 0.959 . S
H2526 C2540 0.929 . S
H2527 C2541 0.931 . S
H2528 C2543 0.930 . S
C2529 H2517 0.930 . S
C2529 C2530 1.399 . S
C2529 C2534 1.399 . S
C2530 C2529 1.399 . S
C2530 C2531 1.376 . S
C2531 H2518 0.930 . S
C2531 C2530 1.376 . S
C2531 C2532 1.388 . S
C2532 H2519 0.930 . S
C2532 C2531 1.388 . S
C2532 C2533 1.390 . S
C2533 C2532 1.390 . S
C2533 C2534 1.394 . S
C2533 C2539 1.465 . S
C2534 C2529 1.399 . S
C2534 C2533 1.394 . S
C2534 C2535 1.516 . S
C2535 C2534 1.516 . S
C2535 C2536 1.502 . S
C2535 C2537 1.561 . S
C2535 C2538 1.526 . S
C2536 H2520 0.959 . S
C2536 H2521 0.959 . S
C2536 H2522 0.961 . S
C2536 C2535 1.502 . S
C2537 H2523 0.960 . S
C2537 H2524 0.961 . S
C2537 H2525 0.959 . S
C2537 C2535 1.561 . S
C2538 C2535 1.526 . S
C2538 C2539 1.396 . S
C2538 C2543 1.390 . S
C2539 C2533 1.465 . S
C2539 C2538 1.396 . S
C2539 C2540 1.399 . S
C2540 H2526 0.929 . S
C2540 C2539 1.399 . S
C2540 C2541 1.385 . S
C2541 H2527 0.931 . S
C2541 C2540 1.385 . S
C2541 C2542 1.389 . S
C2542 C2541 1.389 . S
C2542 C2543 1.387 . S
C2543 H2528 0.930 . S
C2543 C2538 1.390 . S
C2543 C2542 1.387 . S
H2544 C2556 0.930 . S
H2545 C2558 0.930 . S
H2546 C2559 0.930 . S
H2547 C2563 0.959 . S
H2548 C2563 0.959 . S
H2549 C2563 0.961 . S
H2550 C2564 0.960 . S
H2551 C2564 0.961 . S
H2552 C2564 0.959 . S
H2553 C2567 0.929 . S
H2554 C2568 0.931 . S
H2555 C2570 0.930 . S
C2556 H2544 0.930 . S
C2556 C2557 1.399 . S
C2556 C2561 1.399 . S
C2557 C2556 1.399 . S
C2557 C2558 1.376 . S
C2558 H2545 0.930 . S
C2558 C2557 1.376 . S
C2558 C2559 1.388 . S
C2559 H2546 0.930 . S
C2559 C2558 1.388 . S
C2559 C2560 1.390 . S
C2560 C2559 1.390 . S
C2560 C2561 1.394 . S
C2560 C2566 1.465 . S
C2561 C2556 1.399 . S
C2561 C2560 1.394 . S
C2561 C2562 1.516 . S
C2562 C2561 1.516 . S
C2562 C2563 1.502 . S
C2562 C2564 1.561 . S
C2562 C2565 1.526 . S
C2563 H2547 0.959 . S
C2563 H2548 0.959 . S
C2563 H2549 0.961 . S
C2563 C2562 1.502 . S
C2564 H2550 0.960 . S
C2564 H2551 0.961 . S
C2564 H2552 0.959 . S
C2564 C2562 1.561 . S
C2565 C2562 1.526 . S
C2565 C2566 1.396 . S
C2565 C2570 1.390 . S
C2566 C2560 1.465 . S
C2566 C2565 1.396 . S
C2566 C2567 1.399 . S
C2567 H2553 0.929 . S
C2567 C2566 1.399 . S
C2567 C2568 1.385 . S
C2568 H2554 0.931 . S
C2568 C2567 1.385 . S
C2568 C2569 1.389 . S
C2569 C2568 1.389 . S
C2569 C2570 1.387 . S
C2570 H2555 0.930 . S
C2570 C2565 1.390 . S
C2570 C2569 1.387 . S
H2571 C2583 0.930 . S
H2572 C2585 0.930 . S
H2573 C2586 0.930 . S
H2574 C2590 0.959 . S
H2575 C2590 0.959 . S
H2576 C2590 0.961 . S
H2577 C2591 0.960 . S
H2578 C2591 0.961 . S
H2579 C2591 0.959 . S
H2580 C2594 0.929 . S
H2581 C2595 0.931 . S
H2582 C2597 0.930 . S
C2583 H2571 0.930 . S
C2583 C2584 1.399 . S
C2583 C2588 1.399 . S
C2584 C2583 1.399 . S
C2584 C2585 1.376 . S
C2585 H2572 0.930 . S
C2585 C2584 1.376 . S
C2585 C2586 1.388 . S
C2586 H2573 0.930 . S
C2586 C2585 1.388 . S
C2586 C2587 1.390 . S
C2587 C2586 1.390 . S
C2587 C2588 1.394 . S
C2587 C2593 1.465 . S
C2588 C2583 1.399 . S
C2588 C2587 1.394 . S
C2588 C2589 1.516 . S
C2589 C2588 1.516 . S
C2589 C2590 1.502 . S
C2589 C2591 1.561 . S
C2589 C2592 1.526 . S
C2590 H2574 0.959 . S
C2590 H2575 0.959 . S
C2590 H2576 0.961 . S
C2590 C2589 1.502 . S
C2591 H2577 0.960 . S
C2591 H2578 0.961 . S
C2591 H2579 0.959 . S
C2591 C2589 1.561 . S
C2592 C2589 1.526 . S
C2592 C2593 1.396 . S
C2592 C2597 1.390 . S
C2593 C2587 1.465 . S
C2593 C2592 1.396 . S
C2593 C2594 1.399 . S
C2594 H2580 0.929 . S
C2594 C2593 1.399 . S
C2594 C2595 1.385 . S
C2595 H2581 0.931 . S
C2595 C2594 1.385 . S
C2595 C2596 1.389 . S
C2596 C2595 1.389 . S
C2596 C2597 1.387 . S
C2597 H2582 0.930 . S
C2597 C2592 1.390 . S
C2597 C2596 1.387 . S
H2598 C2610 0.930 . S
H2599 C2612 0.930 1_565 S
H2600 C2613 0.919 1_565 S
H2601 C2617 0.959 . S
H2602 C2617 0.959 . S
H2603 C2617 0.961 . S
H2604 C2618 0.960 . S
H2605 C2618 0.961 . S
H2606 C2618 0.959 . S
H2607 C2621 0.929 . S
H2608 C2622 0.931 . S
H2609 C2624 0.930 . S
C2610 H2598 0.930 . S
C2610 C2611 1.399 . S
C2610 C2615 1.399 . S
C2611 C2610 1.399 . S
C2611 C2612 1.376 . S
C2612 H2599 0.930 1_545 S
C2612 C2611 1.376 . S
C2612 C2613 1.388 . S
C2613 H2600 0.919 1_545 S
C2613 C2612 1.388 . S
C2613 C2614 1.390 . S
C2614 C2613 1.390 . S
C2614 C2615 1.394 . S
C2614 C2620 1.465 . S
C2615 C2610 1.399 . S
C2615 C2614 1.394 . S
C2615 C2616 1.516 . S
C2616 C2615 1.516 . S
C2616 C2617 1.502 . S
C2616 C2618 1.561 . S
C2616 C2619 1.526 . S
C2617 H2601 0.959 . S
C2617 H2602 0.959 . S
C2617 H2603 0.961 . S
C2617 C2616 1.502 . S
C2618 H2604 0.960 . S
C2618 H2605 0.961 . S
C2618 H2606 0.959 . S
C2618 C2616 1.561 . S
C2619 C2616 1.526 . S
C2619 C2620 1.396 . S
C2619 C2624 1.390 . S
C2620 C2614 1.465 . S
C2620 C2619 1.396 . S
C2620 C2621 1.399 . S
C2621 H2607 0.929 . S
C2621 C2620 1.399 . S
C2621 C2622 1.385 . S
C2622 H2608 0.931 . S
C2622 C2621 1.385 . S
C2622 C2623 1.389 . S
C2623 C2622 1.389 . S
C2623 C2624 1.387 . S
C2624 H2609 0.930 . S
C2624 C2619 1.390 . S
C2624 C2623 1.387 . S
H2625 C2637 0.930 . S
H2626 C2639 0.930 . S
H2627 C2640 0.930 . S
H2628 C2644 0.959 . S
H2629 C2644 0.959 . S
H2630 C2644 0.961 . S
H2631 C2645 0.960 . S
H2632 C2645 0.961 . S
H2633 C2645 0.959 . S
H2634 C2648 0.929 . S
H2635 C2649 0.931 . S
H2636 C2651 0.930 . S
C2637 H2625 0.930 . S
C2637 C2638 1.399 . S
C2637 C2642 1.399 . S
C2638 C2637 1.399 . S
C2638 C2639 1.376 . S
C2639 H2626 0.930 . S
C2639 C2638 1.376 . S
C2639 C2640 1.388 . S
C2640 H2627 0.930 . S
C2640 C2639 1.388 . S
C2640 C2641 1.390 . S
C2641 C2640 1.390 . S
C2641 C2642 1.394 . S
C2641 C2647 1.465 . S
C2642 C2637 1.399 . S
C2642 C2641 1.394 . S
C2642 C2643 1.516 . S
C2643 C2642 1.516 . S
C2643 C2644 1.502 . S
C2643 C2645 1.561 . S
C2643 C2646 1.526 . S
C2644 H2628 0.959 . S
C2644 H2629 0.959 . S
C2644 H2630 0.961 . S
C2644 C2643 1.502 . S
C2645 H2631 0.960 . S
C2645 H2632 0.961 . S
C2645 H2633 0.959 . S
C2645 C2643 1.561 . S
C2646 C2643 1.526 . S
C2646 C2647 1.396 . S
C2646 C2651 1.390 . S
C2647 C2641 1.465 . S
C2647 C2646 1.396 . S
C2647 C2648 1.399 . S
C2648 H2634 0.929 . S
C2648 C2647 1.399 . S
C2648 C2649 1.385 . S
C2649 H2635 0.931 . S
C2649 C2648 1.385 . S
C2649 C2650 1.389 . S
C2650 C2649 1.389 . S
C2650 C2651 1.387 . S
C2651 H2636 0.930 . S
C2651 C2646 1.390 . S
C2651 C2650 1.387 . S
H2652 C2664 0.930 . S
H2653 C2666 0.930 . S
H2654 C2667 0.930 . S
H2655 C2671 0.959 . S
H2656 C2671 0.959 1_565 S
H2657 C2671 0.961 1_565 S
H2658 C2672 0.960 . S
H2659 C2672 0.961 . S
H2660 C2672 0.959 . S
H2661 C2675 0.929 . S
H2662 C2676 0.931 . S
H2663 C2678 0.930 . S
C2664 H2652 0.930 . S
C2664 C2665 1.399 . S
C2664 C2669 1.399 . S
C2665 C2664 1.399 . S
C2665 C2666 1.376 . S
C2666 H2653 0.930 . S
C2666 C2665 1.376 . S
C2666 C2667 1.388 . S
C2667 H2654 0.930 . S
C2667 C2666 1.388 . S
C2667 C2668 1.390 . S
C2668 C2667 1.390 . S
C2668 C2669 1.394 . S
C2668 C2674 1.465 . S
C2669 C2664 1.399 . S
C2669 C2668 1.394 . S
C2669 C2670 1.516 . S
C2670 C2669 1.516 . S
C2670 C2671 1.502 . S
C2670 C2672 1.561 1_545 S
C2670 C2673 1.526 . S
C2671 H2655 0.959 . S
C2671 H2656 0.959 1_545 S
C2671 H2657 0.961 1_545 S
C2671 C2670 1.502 . S
C2672 H2658 0.960 . S
C2672 H2659 0.961 . S
C2672 H2660 0.959 . S
C2672 C2670 1.561 1_565 S
C2673 C2670 1.526 . S
C2673 C2674 1.396 . S
C2673 C2678 1.390 . S
C2674 C2668 1.465 . S
C2674 C2673 1.396 . S
C2674 C2675 1.399 . S
C2675 H2661 0.929 . S
C2675 C2674 1.399 . S
C2675 C2676 1.385 . S
C2676 H2662 0.931 . S
C2676 C2675 1.385 . S
C2676 C2677 1.389 . S
C2677 C2676 1.389 . S
C2677 C2678 1.387 . S
C2678 H2663 0.930 . S
C2678 C2673 1.390 . S
C2678 C2677 1.387 . S
H2679 C2691 0.930 . S
H2680 C2693 0.930 . S
H2681 C2694 0.930 . S
H2682 C2698 0.959 . S
H2683 C2698 0.959 . S
H2684 C2698 0.961 . S
H2685 C2699 0.960 . S
H2686 C2699 0.961 . S
H2687 C2699 0.959 . S
H2688 C2702 0.929 . S
H2689 C2703 0.931 . S
H2690 C2705 0.930 . S
C2691 H2679 0.930 . S
C2691 C2692 1.399 . S
C2691 C2696 1.399 . S
C2692 C2691 1.399 . S
C2692 C2693 1.376 . S
C2693 H2680 0.930 . S
C2693 C2692 1.376 . S
C2693 C2694 1.388 . S
C2694 H2681 0.930 . S
C2694 C2693 1.388 . S
C2694 C2695 1.390 . S
C2695 C2694 1.390 . S
C2695 C2696 1.394 . S
C2695 C2701 1.465 . S
C2696 C2691 1.399 . S
C2696 C2695 1.394 . S
C2696 C2697 1.516 . S
C2697 C2696 1.516 . S
C2697 C2698 1.502 . S
C2697 C2699 1.561 . S
C2697 C2700 1.526 . S
C2698 H2682 0.959 . S
C2698 H2683 0.959 . S
C2698 H2684 0.961 . S
C2698 C2697 1.502 . S
C2699 H2685 0.960 . S
C2699 H2686 0.961 . S
C2699 H2687 0.959 . S
C2699 C2697 1.561 . S
C2700 C2697 1.526 . S
C2700 C2701 1.396 . S
C2700 C2705 1.390 . S
C2701 C2695 1.465 . S
C2701 C2700 1.396 . S
C2701 C2702 1.399 . S
C2702 H2688 0.929 . S
C2702 C2701 1.399 . S
C2702 C2703 1.385 . S
C2703 H2689 0.931 . S
C2703 C2702 1.385 . S
C2703 C2704 1.389 . S
C2704 C2703 1.389 . S
C2704 C2705 1.387 . S
C2705 H2690 0.930 . S
C2705 C2700 1.390 . S
C2705 C2704 1.387 . S
H2706 C2718 0.930 . S
H2707 C2720 0.930 . S
H2708 C2721 0.930 . S
H2709 C2725 0.959 . S
H2710 C2725 0.959 . S
H2711 C2725 0.961 . S
H2712 C2726 0.960 . S
H2713 C2726 0.961 . S
H2714 C2726 0.959 . S
H2715 C2729 0.929 . S
H2716 C2730 0.931 . S
H2717 C2732 0.930 . S
C2718 H2706 0.930 . S
C2718 C2719 1.399 . S
C2718 C2723 1.399 . S
C2719 C2718 1.399 . S
C2719 C2720 1.376 1_545 S
C2720 H2707 0.930 . S
C2720 C2719 1.376 1_565 S
C2720 C2721 1.388 . S
C2721 H2708 0.930 . S
C2721 C2720 1.388 . S
C2721 C2722 1.390 1_565 S
C2722 C2721 1.390 1_545 S
C2722 C2723 1.394 . S
C2722 C2728 1.465 . S
C2723 C2718 1.399 . S
C2723 C2722 1.394 . S
C2723 C2724 1.516 . S
C2724 C2723 1.516 . S
C2724 C2725 1.502 . S
C2724 C2726 1.561 . S
C2724 C2727 1.526 . S
C2725 H2709 0.959 . S
C2725 H2710 0.959 . S
C2725 H2711 0.961 . S
C2725 C2724 1.502 . S
C2726 H2712 0.960 . S
C2726 H2713 0.961 . S
C2726 H2714 0.959 . S
C2726 C2724 1.561 . S
C2727 C2724 1.526 . S
C2727 C2728 1.396 . S
C2727 C2732 1.390 . S
C2728 C2722 1.465 . S
C2728 C2727 1.396 . S
C2728 C2729 1.399 1_545 S
C2729 H2715 0.929 . S
C2729 C2728 1.399 1_565 S
C2729 C2730 1.385 . S
C2730 H2716 0.931 . S
C2730 C2729 1.385 . S
C2730 C2731 1.389 1_565 S
C2731 C2730 1.389 1_545 S
C2731 C2732 1.387 . S
C2732 H2717 0.930 . S
C2732 C2727 1.390 . S
C2732 C2731 1.387 . S
H2733 C2745 0.930 . S
H2734 C2747 0.930 . S
H2735 C2748 0.930 . S
H2736 C2752 0.959 . S
H2737 C2752 0.959 . S
H2738 C2752 0.961 . S
H2739 C2753 0.960 . S
H2740 C2753 0.961 . S
H2741 C2753 0.959 . S
H2742 C2756 0.929 . S
H2743 C2757 0.931 . S
H2744 C2759 0.930 . S
C2745 H2733 0.930 . S
C2745 C2746 1.399 . S
C2745 C2750 1.399 . S
C2746 C2745 1.399 . S
C2746 C2747 1.376 . S
C2747 H2734 0.930 . S
C2747 C2746 1.376 . S
C2747 C2748 1.388 . S
C2748 H2735 0.930 . S
C2748 C2747 1.388 . S
C2748 C2749 1.390 . S
C2749 C2748 1.390 . S
C2749 C2750 1.394 . S
C2749 C2755 1.465 . S
C2750 C2745 1.399 . S
C2750 C2749 1.394 . S
C2750 C2751 1.516 . S
C2751 C2750 1.516 . S
C2751 C2752 1.502 . S
C2751 C2753 1.561 . S
C2751 C2754 1.526 . S
C2752 H2736 0.959 . S
C2752 H2737 0.959 . S
C2752 H2738 0.961 . S
C2752 C2751 1.502 . S
C2753 H2739 0.960 . S
C2753 H2740 0.961 . S
C2753 H2741 0.959 . S
C2753 C2751 1.561 . S
C2754 C2751 1.526 . S
C2754 C2755 1.396 . S
C2754 C2759 1.390 . S
C2755 C2749 1.465 . S
C2755 C2754 1.396 . S
C2755 C2756 1.399 . S
C2756 H2742 0.929 . S
C2756 C2755 1.399 . S
C2756 C2757 1.385 . S
C2757 H2743 0.931 . S
C2757 C2756 1.385 . S
C2757 C2758 1.389 . S
C2758 C2757 1.389 . S
C2758 C2759 1.387 . S
C2759 H2744 0.930 . S
C2759 C2754 1.390 . S
C2759 C2758 1.387 . S
H2760 C2772 0.930 . S
H2761 C2774 0.930 . S
H2762 C2775 0.930 . S
H2763 C2779 0.959 1_556 S
H2764 C2779 0.964 . S
H2765 C2779 0.961 . S
H2766 C2780 0.960 . S
H2767 C2780 0.961 . S
H2768 C2780 0.959 . S
H2769 C2783 0.929 . S
H2770 C2784 0.931 . S
H2771 C2786 0.930 . S
C2772 H2760 0.930 . S
C2772 C2773 1.399 . S
C2772 C2777 1.399 . S
C2773 C2772 1.399 . S
C2773 C2774 1.376 . S
C2774 H2761 0.930 . S
C2774 C2773 1.376 . S
C2774 C2775 1.388 . S
C2775 H2762 0.930 . S
C2775 C2774 1.388 . S
C2775 C2776 1.390 . S
C2776 C2775 1.390 . S
C2776 C2777 1.394 . S
C2776 C2782 1.465 . S
C2777 C2772 1.399 . S
C2777 C2776 1.394 . S
C2777 C2778 1.516 . S
C2778 C2777 1.516 . S
C2778 C2779 1.502 . S
C2778 C2780 1.561 . S
C2778 C2781 1.526 . S
C2779 H2763 0.959 1_554 S
C2779 H2764 0.964 . S
C2779 H2765 0.961 . S
C2779 C2778 1.502 . S
C2780 H2766 0.960 . S
C2780 H2767 0.961 . S
C2780 H2768 0.959 . S
C2780 C2778 1.561 . S
C2781 C2778 1.526 . S
C2781 C2782 1.396 . S
C2781 C2786 1.390 . S
C2782 C2776 1.465 . S
C2782 C2781 1.396 . S
C2782 C2783 1.399 . S
C2783 H2769 0.929 . S
C2783 C2782 1.399 . S
C2783 C2784 1.385 . S
C2784 H2770 0.931 . S
C2784 C2783 1.385 . S
C2784 C2785 1.389 . S
C2785 C2784 1.389 . S
C2785 C2786 1.387 . S
C2786 H2771 0.930 . S
C2786 C2781 1.390 . S
C2786 C2785 1.387 . S
H2787 C2799 0.930 . S
H2788 C2801 0.930 . S
H2789 C2802 0.930 1_556 S
H2790 C2806 0.959 . S
H2791 C2806 0.959 . S
H2792 C2806 0.961 . S
H2793 C2807 0.960 . S
H2794 C2807 0.961 . S
H2795 C2807 0.959 . S
H2796 C2810 0.929 1_556 S
H2797 C2811 0.931 1_556 S
H2798 C2813 0.930 . S
C2799 H2787 0.930 . S
C2799 C2800 1.399 . S
C2799 C2804 1.399 . S
C2800 C2799 1.399 . S
C2800 C2801 1.376 . S
C2801 H2788 0.930 . S
C2801 C2800 1.376 . S
C2801 C2802 1.388 . S
C2802 H2789 0.930 1_554 S
C2802 C2801 1.388 . S
C2802 C2803 1.390 . S
C2803 C2802 1.390 . S
C2803 C2804 1.394 . S
C2803 C2809 1.465 . S
C2804 C2799 1.399 . S
C2804 C2803 1.394 . S
C2804 C2805 1.516 . S
C2805 C2804 1.516 . S
C2805 C2806 1.502 . S
C2805 C2807 1.561 . S
C2805 C2808 1.526 . S
C2806 H2790 0.959 . S
C2806 H2791 0.959 . S
C2806 H2792 0.961 . S
C2806 C2805 1.502 . S
C2807 H2793 0.960 . S
C2807 H2794 0.961 . S
C2807 H2795 0.959 . S
C2807 C2805 1.561 . S
C2808 C2805 1.526 . S
C2808 C2809 1.396 . S
C2808 C2813 1.390 . S
C2809 C2803 1.465 . S
C2809 C2808 1.396 . S
C2809 C2810 1.399 . S
C2810 H2796 0.929 1_554 S
C2810 C2809 1.399 . S
C2810 C2811 1.385 . S
C2811 H2797 0.931 1_554 S
C2811 C2810 1.385 . S
C2811 C2812 1.389 . S
C2812 C2811 1.389 . S
C2812 C2813 1.387 . S
C2813 H2798 0.930 . S
C2813 C2808 1.390 . S
C2813 C2812 1.387 . S
H2814 C2826 0.930 . S
H2815 C2828 0.930 . S
H2816 C2829 0.930 . S
H2817 C2833 0.959 . S
H2818 C2833 0.959 . S
H2819 C2833 0.961 . S
H2820 C2834 0.960 . S
H2821 C2834 0.961 . S
H2822 C2834 0.959 . S
H2823 C2837 0.929 . S
H2824 C2838 0.931 . S
H2825 C2840 0.930 . S
C2826 H2814 0.930 . S
C2826 C2827 1.399 . S
C2826 C2831 1.399 . S
C2827 C2826 1.399 . S
C2827 C2828 1.376 . S
C2828 H2815 0.930 . S
C2828 C2827 1.376 . S
C2828 C2829 1.388 . S
C2829 H2816 0.930 . S
C2829 C2828 1.388 . S
C2829 C2830 1.390 . S
C2830 C2829 1.390 . S
C2830 C2831 1.394 . S
C2830 C2836 1.465 . S
C2831 C2826 1.399 . S
C2831 C2830 1.394 . S
C2831 C2832 1.516 . S
C2832 C2831 1.516 . S
C2832 C2833 1.502 . S
C2832 C2834 1.561 . S
C2832 C2835 1.526 . S
C2833 H2817 0.959 . S
C2833 H2818 0.959 . S
C2833 H2819 0.961 . S
C2833 C2832 1.502 . S
C2834 H2820 0.960 . S
C2834 H2821 0.961 . S
C2834 H2822 0.959 . S
C2834 C2832 1.561 . S
C2835 C2832 1.526 . S
C2835 C2836 1.396 . S
C2835 C2840 1.390 . S
C2836 C2830 1.465 . S
C2836 C2835 1.396 . S
C2836 C2837 1.399 . S
C2837 H2823 0.929 . S
C2837 C2836 1.399 . S
C2837 C2838 1.385 . S
C2838 H2824 0.931 . S
C2838 C2837 1.385 . S
C2838 C2839 1.389 . S
C2839 C2838 1.389 . S
C2839 C2840 1.387 . S
C2840 H2825 0.930 . S
C2840 C2835 1.390 . S
C2840 C2839 1.387 . S
H2841 C2853 0.930 . S
H2842 C2855 0.930 . S
H2843 C2856 0.930 . S
H2844 C2860 0.959 . S
H2845 C2860 0.959 . S
H2846 C2860 0.961 . S
H2847 C2861 0.960 . S
H2848 C2861 0.961 . S
H2849 C2861 0.959 . S
H2850 C2864 0.929 . S
H2851 C2865 0.931 . S
H2852 C2867 0.930 . S
C2853 H2841 0.930 . S
C2853 C2854 1.399 . S
C2853 C2858 1.399 . S
C2854 C2853 1.399 . S
C2854 C2855 1.376 . S
C2855 H2842 0.930 . S
C2855 C2854 1.376 . S
C2855 C2856 1.388 . S
C2856 H2843 0.930 . S
C2856 C2855 1.388 . S
C2856 C2857 1.390 . S
C2857 C2856 1.390 . S
C2857 C2858 1.394 . S
C2857 C2863 1.465 . S
C2858 C2853 1.399 . S
C2858 C2857 1.394 . S
C2858 C2859 1.516 . S
C2859 C2858 1.516 . S
C2859 C2860 1.502 . S
C2859 C2861 1.561 . S
C2859 C2862 1.526 . S
C2860 H2844 0.959 . S
C2860 H2845 0.959 . S
C2860 H2846 0.961 . S
C2860 C2859 1.502 . S
C2861 H2847 0.960 . S
C2861 H2848 0.961 . S
C2861 H2849 0.959 . S
C2861 C2859 1.561 . S
C2862 C2859 1.526 . S
C2862 C2863 1.396 . S
C2862 C2867 1.390 . S
C2863 C2857 1.465 . S
C2863 C2862 1.396 . S
C2863 C2864 1.399 . S
C2864 H2850 0.929 . S
C2864 C2863 1.399 . S
C2864 C2865 1.385 . S
C2865 H2851 0.931 . S
C2865 C2864 1.385 . S
C2865 C2866 1.389 . S
C2866 C2865 1.389 . S
C2866 C2867 1.387 . S
C2867 H2852 0.930 . S
C2867 C2862 1.390 . S
C2867 C2866 1.387 . S
H2868 C2880 0.930 1_545 S
H2869 C2882 0.930 . S
H2870 C2883 0.930 . S
H2871 C2887 0.959 . S
H2872 C2887 0.959 . S
H2873 C2887 0.961 . S
H2874 C2888 0.960 . S
H2875 C2888 0.961 . S
H2876 C2888 0.959 . S
H2877 C2891 0.929 . S
H2878 C2892 0.931 . S
H2879 C2894 0.930 . S
C2880 H2868 0.930 1_565 S
C2880 C2881 1.399 1_565 S
C2880 C2885 1.399 . S
C2881 C2880 1.399 1_545 S
C2881 C2882 1.376 1_545 S
C2882 H2869 0.930 . S
C2882 C2881 1.376 1_565 S
C2882 C2883 1.388 . S
C2883 H2870 0.930 . S
C2883 C2882 1.388 . S
C2883 C2884 1.390 . S
C2884 C2883 1.390 . S
C2884 C2885 1.394 . S
C2884 C2890 1.465 . S
C2885 C2880 1.399 . S
C2885 C2884 1.394 . S
C2885 C2886 1.516 . S
C2886 C2885 1.516 . S
C2886 C2887 1.502 . S
C2886 C2888 1.561 . S
C2886 C2889 1.526 . S
C2887 H2871 0.959 . S
C2887 H2872 0.959 . S
C2887 H2873 0.961 . S
C2887 C2886 1.502 . S
C2888 H2874 0.960 . S
C2888 H2875 0.961 . S
C2888 H2876 0.959 . S
C2888 C2886 1.561 . S
C2889 C2886 1.526 . S
C2889 C2890 1.396 . S
C2889 C2894 1.390 . S
C2890 C2884 1.465 . S
C2890 C2889 1.396 . S
C2890 C2891 1.399 . S
C2891 H2877 0.929 . S
C2891 C2890 1.399 . S
C2891 C2892 1.385 . S
C2892 H2878 0.931 . S
C2892 C2891 1.385 . S
C2892 C2893 1.389 . S
C2893 C2892 1.389 . S
C2893 C2894 1.387 . S
C2894 H2879 0.930 . S
C2894 C2889 1.390 . S
C2894 C2893 1.387 . S
H2895 C2907 0.930 . S
H2896 C2909 0.930 . S
H2897 C2910 0.930 . S
H2898 C2914 0.959 . S
H2899 C2914 0.959 . S
H2900 C2914 0.961 . S
H2901 C2915 0.960 . S
H2902 C2915 0.961 . S
H2903 C2915 0.959 . S
H2904 C2918 0.929 . S
H2905 C2919 0.931 . S
H2906 C2921 0.930 . S
C2907 H2895 0.930 . S
C2907 C2908 1.399 . S
C2907 C2912 1.399 . S
C2908 C2907 1.399 . S
C2908 C2909 1.376 . S
C2909 H2896 0.930 . S
C2909 C2908 1.376 . S
C2909 C2910 1.388 . S
C2910 H2897 0.930 . S
C2910 C2909 1.388 . S
C2910 C2911 1.390 . S
C2911 C2910 1.390 . S
C2911 C2912 1.394 . S
C2911 C2917 1.465 . S
C2912 C2907 1.399 . S
C2912 C2911 1.394 . S
C2912 C2913 1.516 . S
C2913 C2912 1.516 . S
C2913 C2914 1.502 . S
C2913 C2915 1.561 . S
C2913 C2916 1.526 . S
C2914 H2898 0.959 . S
C2914 H2899 0.959 . S
C2914 H2900 0.961 . S
C2914 C2913 1.502 . S
C2915 H2901 0.960 . S
C2915 H2902 0.961 . S
C2915 H2903 0.959 . S
C2915 C2913 1.561 . S
C2916 C2913 1.526 . S
C2916 C2917 1.396 . S
C2916 C2921 1.390 . S
C2917 C2911 1.465 . S
C2917 C2916 1.396 . S
C2917 C2918 1.399 . S
C2918 H2904 0.929 . S
C2918 C2917 1.399 . S
C2918 C2919 1.385 . S
C2919 H2905 0.931 . S
C2919 C2918 1.385 . S
C2919 C2920 1.389 . S
C2920 C2919 1.389 . S
C2920 C2921 1.387 . S
C2921 H2906 0.930 . S
C2921 C2916 1.390 . S
C2921 C2920 1.387 . S
H2922 C2934 0.930 . S
H2923 C2936 0.930 . S
H2924 C2937 0.930 . S
H2925 C2941 0.959 . S
H2926 C2941 0.959 . S
H2927 C2941 0.961 . S
H2928 C2942 0.960 . S
H2929 C2942 0.961 . S
H2930 C2942 0.959 . S
H2931 C2945 0.929 . S
H2932 C2946 0.931 . S
H2933 C2948 0.930 . S
C2934 H2922 0.930 . S
C2934 C2935 1.399 . S
C2934 C2939 1.399 . S
C2935 C2934 1.399 . S
C2935 C2936 1.376 . S
C2936 H2923 0.930 . S
C2936 C2935 1.376 . S
C2936 C2937 1.388 . S
C2937 H2924 0.930 . S
C2937 C2936 1.388 . S
C2937 C2938 1.390 . S
C2938 C2937 1.390 . S
C2938 C2939 1.394 . S
C2938 C2944 1.465 . S
C2939 C2934 1.399 . S
C2939 C2938 1.394 . S
C2939 C2940 1.516 . S
C2940 C2939 1.516 . S
C2940 C2941 1.502 . S
C2940 C2942 1.561 . S
C2940 C2943 1.526 . S
C2941 H2925 0.959 . S
C2941 H2926 0.959 . S
C2941 H2927 0.961 . S
C2941 C2940 1.502 . S
C2942 H2928 0.960 . S
C2942 H2929 0.961 . S
C2942 H2930 0.959 . S
C2942 C2940 1.561 . S
C2943 C2940 1.526 . S
C2943 C2944 1.396 . S
C2943 C2948 1.390 . S
C2944 C2938 1.465 . S
C2944 C2943 1.396 . S
C2944 C2945 1.399 . S
C2945 H2931 0.929 . S
C2945 C2944 1.399 . S
C2945 C2946 1.385 . S
C2946 H2932 0.931 . S
C2946 C2945 1.385 . S
C2946 C2947 1.389 . S
C2947 C2946 1.389 . S
C2947 C2948 1.387 . S
C2948 H2933 0.930 . S
C2948 C2943 1.390 . S
C2948 C2947 1.387 . S
H2949 C2961 0.930 . S
H2950 C2963 0.930 . S
H2951 C2964 0.930 . S
H2952 C2968 0.959 . S
H2953 C2968 0.959 . S
H2954 C2968 0.961 . S
H2955 C2969 0.960 . S
H2956 C2969 0.961 . S
H2957 C2969 0.959 . S
H2958 C2972 0.929 . S
H2959 C2973 0.931 . S
H2960 C2975 0.930 . S
C2961 H2949 0.930 . S
C2961 C2962 1.399 . S
C2961 C2966 1.399 . S
C2962 C2961 1.399 . S
C2962 C2963 1.376 . S
C2963 H2950 0.930 . S
C2963 C2962 1.376 . S
C2963 C2964 1.388 . S
C2964 H2951 0.930 . S
C2964 C2963 1.388 . S
C2964 C2965 1.390 . S
C2965 C2964 1.390 . S
C2965 C2966 1.394 . S
C2965 C2971 1.465 . S
C2966 C2961 1.399 . S
C2966 C2965 1.394 . S
C2966 C2967 1.516 . S
C2967 C2966 1.516 . S
C2967 C2968 1.502 . S
C2967 C2969 1.561 . S
C2967 C2970 1.526 . S
C2968 H2952 0.959 . S
C2968 H2953 0.959 . S
C2968 H2954 0.961 . S
C2968 C2967 1.502 . S
C2969 H2955 0.960 . S
C2969 H2956 0.961 . S
C2969 H2957 0.959 . S
C2969 C2967 1.561 . S
C2970 C2967 1.526 . S
C2970 C2971 1.396 . S
C2970 C2975 1.390 . S
C2971 C2965 1.465 . S
C2971 C2970 1.396 . S
C2971 C2972 1.399 . S
C2972 H2958 0.929 . S
C2972 C2971 1.399 . S
C2972 C2973 1.385 . S
C2973 H2959 0.931 . S
C2973 C2972 1.385 . S
C2973 C2974 1.389 . S
C2974 C2973 1.389 . S
C2974 C2975 1.387 . S
C2975 H2960 0.930 . S
C2975 C2970 1.390 . S
C2975 C2974 1.387 . S
H2976 C2988 0.930 . S
H2977 C2990 0.930 . S
H2978 C2991 0.930 . S
H2979 C2995 0.959 . S
H2980 C2995 0.959 . S
H2981 C2995 0.961 . S
H2982 C2996 0.960 . S
H2983 C2996 0.961 . S
H2984 C2996 0.959 . S
H2985 C2999 0.929 . S
H2986 C3000 0.931 . S
H2987 C3002 0.930 . S
C2988 H2976 0.930 . S
C2988 C2989 1.399 . S
C2988 C2993 1.399 . S
C2989 C2988 1.399 . S
C2989 C2990 1.376 . S
C2990 H2977 0.930 . S
C2990 C2989 1.376 . S
C2990 C2991 1.388 . S
C2991 H2978 0.930 . S
C2991 C2990 1.388 . S
C2991 C2992 1.390 . S
C2992 C2991 1.390 . S
C2992 C2993 1.394 . S
C2992 C2998 1.465 . S
C2993 C2988 1.399 . S
C2993 C2992 1.394 . S
C2993 C2994 1.516 . S
C2994 C2993 1.516 . S
C2994 C2995 1.502 . S
C2994 C2996 1.561 . S
C2994 C2997 1.526 . S
C2995 H2979 0.959 . S
C2995 H2980 0.959 . S
C2995 H2981 0.961 . S
C2995 C2994 1.502 . S
C2996 H2982 0.960 . S
C2996 H2983 0.961 . S
C2996 H2984 0.959 . S
C2996 C2994 1.561 . S
C2997 C2994 1.526 . S
C2997 C2998 1.396 . S
C2997 C3002 1.390 . S
C2998 C2992 1.465 . S
C2998 C2997 1.396 . S
C2998 C2999 1.399 . S
C2999 H2985 0.929 . S
C2999 C2998 1.399 . S
C2999 C3000 1.385 . S
C3000 H2986 0.931 . S
C3000 C2999 1.385 . S
C3000 C3001 1.389 . S
C3001 C3000 1.389 . S
C3001 C3002 1.387 . S
C3002 H2987 0.930 . S
C3002 C2997 1.390 . S
C3002 C3001 1.387 . S
H3003 C3015 0.930 . S
H3004 C3017 0.930 . S
H3005 C3018 0.930 . S
H3006 C3022 0.959 . S
H3007 C3022 0.959 . S
H3008 C3022 0.961 . S
H3009 C3023 0.960 . S
H3010 C3023 0.961 . S
H3011 C3023 0.959 . S
H3012 C3026 0.929 . S
H3013 C3027 0.931 . S
H3014 C3029 0.930 . S
C3015 H3003 0.930 . S
C3015 C3016 1.399 . S
C3015 C3020 1.399 . S
C3016 C3015 1.399 . S
C3016 C3017 1.376 . S
C3017 H3004 0.930 . S
C3017 C3016 1.376 . S
C3017 C3018 1.388 . S
C3018 H3005 0.930 . S
C3018 C3017 1.388 . S
C3018 C3019 1.390 . S
C3019 C3018 1.390 . S
C3019 C3020 1.394 . S
C3019 C3025 1.465 . S
C3020 C3015 1.399 . S
C3020 C3019 1.394 . S
C3020 C3021 1.516 . S
C3021 C3020 1.516 . S
C3021 C3022 1.502 . S
C3021 C3023 1.561 . S
C3021 C3024 1.526 . S
C3022 H3006 0.959 . S
C3022 H3007 0.959 . S
C3022 H3008 0.961 . S
C3022 C3021 1.502 . S
C3023 H3009 0.960 . S
C3023 H3010 0.961 . S
C3023 H3011 0.959 . S
C3023 C3021 1.561 . S
C3024 C3021 1.526 . S
C3024 C3025 1.396 . S
C3024 C3029 1.390 . S
C3025 C3019 1.465 . S
C3025 C3024 1.396 . S
C3025 C3026 1.399 . S
C3026 H3012 0.929 . S
C3026 C3025 1.399 . S
C3026 C3027 1.385 . S
C3027 H3013 0.931 . S
C3027 C3026 1.385 . S
C3027 C3028 1.389 . S
C3028 C3027 1.389 . S
C3028 C3029 1.387 . S
C3029 H3014 0.930 . S
C3029 C3024 1.390 . S
C3029 C3028 1.387 . S
H3030 C3042 0.930 1_655 S
H3031 C3044 0.930 . S
H3032 C3045 0.930 . S
H3033 C3049 0.959 . S
H3034 C3049 0.959 . S
H3035 C3049 0.961 . S
H3036 C3050 0.960 . S
H3037 C3050 0.961 . S
H3038 C3050 0.959 . S
H3039 C3053 0.929 . S
H3040 C3054 0.931 . S
H3041 C3056 0.930 . S
C3042 H3030 0.930 1_455 S
C3042 C3043 1.399 1_554 S
C3042 C3047 1.399 . S
C3043 C3042 1.399 1_556 S
C3043 C3044 1.376 . S
C3044 H3031 0.930 . S
C3044 C3043 1.376 . S
C3044 C3045 1.388 . S
C3045 H3032 0.930 . S
C3045 C3044 1.388 . S
C3045 C3046 1.390 . S
C3046 C3045 1.390 . S
C3046 C3047 1.394 1_556 S
C3046 C3052 1.465 . S
C3047 C3042 1.399 . S
C3047 C3046 1.394 1_554 S
C3047 C3048 1.516 . S
C3048 C3047 1.516 . S
C3048 C3049 1.502 1_455 S
C3048 C3050 1.561 . S
C3048 C3051 1.526 . S
C3049 H3033 0.959 . S
C3049 H3034 0.959 . S
C3049 H3035 0.961 . S
C3049 C3048 1.502 1_655 S
C3050 H3036 0.960 . S
C3050 H3037 0.961 . S
C3050 H3038 0.959 . S
C3050 C3048 1.561 . S
C3051 C3048 1.526 . S
C3051 C3052 1.396 1_554 S
C3051 C3056 1.390 . S
C3052 C3046 1.465 . S
C3052 C3051 1.396 1_556 S
C3052 C3053 1.399 . S
C3053 H3039 0.929 . S
C3053 C3052 1.399 . S
C3053 C3054 1.385 . S
C3054 H3040 0.931 . S
C3054 C3053 1.385 . S
C3054 C3055 1.389 1_556 S
C3055 C3054 1.389 1_554 S
C3055 C3056 1.387 . S
C3056 H3041 0.930 . S
C3056 C3051 1.390 . S
C3056 C3055 1.387 . S
H3057 C3069 0.930 1_455 S
H3058 C3071 0.930 . S
H3059 C3072 0.930 . S
H3060 C3076 0.959 . S
H3061 C3076 0.959 . S
H3062 C3076 0.961 . S
H3063 C3077 0.960 . S
H3064 C3077 0.961 . S
H3065 C3077 0.959 . S
H3066 C3080 0.929 . S
H3067 C3081 0.931 . S
H3068 C3083 0.930 . S
C3069 H3057 0.930 1_655 S
C3069 C3070 1.399 1_655 S
C3069 C3074 1.399 . S
C3070 C3069 1.399 1_455 S
C3070 C3071 1.376 1_455 S
C3071 H3058 0.930 . S
C3071 C3070 1.376 1_655 S
C3071 C3072 1.388 . S
C3072 H3059 0.930 . S
C3072 C3071 1.388 . S
C3072 C3073 1.390 . S
C3073 C3072 1.390 . S
C3073 C3074 1.394 . S
C3073 C3079 1.465 . S
C3074 C3069 1.399 . S
C3074 C3073 1.394 . S
C3074 C3075 1.516 . S
C3075 C3074 1.516 . S
C3075 C3076 1.502 . S
C3075 C3077 1.561 . S
C3075 C3078 1.526 . S
C3076 H3060 0.959 . S
C3076 H3061 0.959 . S
C3076 H3062 0.961 . S
C3076 C3075 1.502 . S
C3077 H3063 0.960 . S
C3077 H3064 0.961 . S
C3077 H3065 0.959 . S
C3077 C3075 1.561 . S
C3078 C3075 1.526 . S
C3078 C3079 1.396 . S
C3078 C3083 1.390 . S
C3079 C3073 1.465 . S
C3079 C3078 1.396 . S
C3079 C3080 1.399 . S
C3080 H3066 0.929 . S
C3080 C3079 1.399 . S
C3080 C3081 1.385 . S
C3081 H3067 0.931 . S
C3081 C3080 1.385 . S
C3081 C3082 1.389 . S
C3082 C3081 1.389 . S
C3082 C3083 1.387 . S
C3083 H3068 0.930 . S
C3083 C3078 1.390 . S
C3083 C3082 1.387 . S
H3084 C3096 0.930 . S
H3085 C3098 0.930 . S
H3086 C3099 0.930 . S
H3087 C3103 0.959 . S
H3088 C3103 0.959 . S
H3089 C3103 0.961 . S
H3090 C3104 0.960 . S
H3091 C3104 0.961 . S
H3092 C3104 0.959 . S
H3093 C3107 0.929 . S
H3094 C3108 0.931 . S
H3095 C3110 0.930 . S
C3096 H3084 0.930 . S
C3096 C3097 1.399 . S
C3096 C3101 1.399 . S
C3097 C3096 1.399 . S
C3097 C3098 1.376 . S
C3098 H3085 0.930 . S
C3098 C3097 1.376 . S
C3098 C3099 1.388 . S
C3099 H3086 0.930 . S
C3099 C3098 1.388 . S
C3099 C3100 1.390 . S
C3100 C3099 1.390 . S
C3100 C3101 1.394 . S
C3100 C3106 1.465 . S
C3101 C3096 1.399 . S
C3101 C3100 1.394 . S
C3101 C3102 1.516 . S
C3102 C3101 1.516 . S
C3102 C3103 1.502 . S
C3102 C3104 1.561 . S
C3102 C3105 1.526 . S
C3103 H3087 0.959 . S
C3103 H3088 0.959 . S
C3103 H3089 0.961 . S
C3103 C3102 1.502 . S
C3104 H3090 0.960 . S
C3104 H3091 0.961 . S
C3104 H3092 0.959 . S
C3104 C3102 1.561 . S
C3105 C3102 1.526 . S
C3105 C3106 1.396 . S
C3105 C3110 1.390 . S
C3106 C3100 1.465 . S
C3106 C3105 1.396 . S
C3106 C3107 1.399 . S
C3107 H3093 0.929 . S
C3107 C3106 1.399 . S
C3107 C3108 1.385 . S
C3108 H3094 0.931 . S
C3108 C3107 1.385 . S
C3108 C3109 1.389 . S
C3109 C3108 1.389 . S
C3109 C3110 1.387 . S
C3110 H3095 0.930 . S
C3110 C3105 1.390 . S
C3110 C3109 1.387 . S
H3111 C3123 0.930 . S
H3112 C3125 0.930 . S
H3113 C3126 0.930 . S
H3114 C3130 0.959 . S
H3115 C3130 0.959 . S
H3116 C3130 0.961 . S
H3117 C3131 0.960 . S
H3118 C3131 0.961 . S
H3119 C3131 0.959 . S
H3120 C3134 0.929 . S
H3121 C3135 0.931 . S
H3122 C3137 0.930 . S
C3123 H3111 0.930 . S
C3123 C3124 1.399 . S
C3123 C3128 1.399 . S
C3124 C3123 1.399 . S
C3124 C3125 1.376 . S
C3125 H3112 0.930 . S
C3125 C3124 1.376 . S
C3125 C3126 1.388 . S
C3126 H3113 0.930 . S
C3126 C3125 1.388 . S
C3126 C3127 1.390 . S
C3127 C3126 1.390 . S
C3127 C3128 1.394 . S
C3127 C3133 1.465 . S
C3128 C3123 1.399 . S
C3128 C3127 1.394 . S
C3128 C3129 1.516 . S
C3129 C3128 1.516 . S
C3129 C3130 1.502 . S
C3129 C3131 1.561 . S
C3129 C3132 1.526 . S
C3130 H3114 0.959 . S
C3130 H3115 0.959 . S
C3130 H3116 0.961 . S
C3130 C3129 1.502 . S
C3131 H3117 0.960 . S
C3131 H3118 0.961 . S
C3131 H3119 0.959 . S
C3131 C3129 1.561 . S
C3132 C3129 1.526 . S
C3132 C3133 1.396 . S
C3132 C3137 1.390 . S
C3133 C3127 1.465 . S
C3133 C3132 1.396 . S
C3133 C3134 1.399 . S
C3134 H3120 0.929 . S
C3134 C3133 1.399 . S
C3134 C3135 1.385 . S
C3135 H3121 0.931 . S
C3135 C3134 1.385 . S
C3135 C3136 1.389 . S
C3136 C3135 1.389 . S
C3136 C3137 1.387 . S
C3137 H3122 0.930 . S
C3137 C3132 1.390 . S
C3137 C3136 1.387 . S
H3138 C3150 0.930 . S
H3139 C3152 0.930 . S
H3140 C3153 0.930 . S
H3141 C3157 0.959 . S
H3142 C3157 0.959 . S
H3143 C3157 0.961 . S
H3144 C3158 0.960 . S
H3145 C3158 0.961 . S
H3146 C3158 0.959 . S
H3147 C3161 0.929 . S
H3148 C3162 0.931 . S
H3149 C3164 0.930 . S
C3150 H3138 0.930 . S
C3150 C3151 1.399 . S
C3150 C3155 1.399 . S
C3151 C3150 1.399 . S
C3151 C3152 1.376 . S
C3152 H3139 0.930 . S
C3152 C3151 1.376 . S
C3152 C3153 1.388 . S
C3153 H3140 0.930 . S
C3153 C3152 1.388 . S
C3153 C3154 1.390 . S
C3154 C3153 1.390 . S
C3154 C3155 1.394 . S
C3154 C3160 1.465 . S
C3155 C3150 1.399 . S
C3155 C3154 1.394 . S
C3155 C3156 1.516 . S
C3156 C3155 1.516 . S
C3156 C3157 1.502 1_455 S
C3156 C3158 1.561 . S
C3156 C3159 1.526 . S
C3157 H3141 0.959 . S
C3157 H3142 0.959 . S
C3157 H3143 0.961 . S
C3157 C3156 1.502 1_655 S
C3158 H3144 0.960 . S
C3158 H3145 0.961 . S
C3158 H3146 0.959 . S
C3158 C3156 1.561 . S
C3159 C3156 1.526 . S
C3159 C3160 1.396 . S
C3159 C3164 1.390 . S
C3160 C3154 1.465 . S
C3160 C3159 1.396 . S
C3160 C3161 1.399 . S
C3161 H3147 0.929 . S
C3161 C3160 1.399 . S
C3161 C3162 1.385 . S
C3162 H3148 0.931 . S
C3162 C3161 1.385 . S
C3162 C3163 1.389 . S
C3163 C3162 1.389 . S
C3163 C3164 1.387 . S
C3164 H3149 0.930 . S
C3164 C3159 1.390 . S
C3164 C3163 1.387 . S
H3165 C3177 0.930 . S
H3166 C3179 0.930 . S
H3167 C3180 0.930 . S
H3168 C3184 0.959 . S
H3169 C3184 0.959 . S
H3170 C3184 0.961 . S
H3171 C3185 0.960 . S
H3172 C3185 0.961 . S
H3173 C3185 0.959 . S
H3174 C3188 0.929 . S
H3175 C3189 0.931 . S
H3176 C3191 0.930 . S
C3177 H3165 0.930 . S
C3177 C3178 1.399 . S
C3177 C3182 1.399 . S
C3178 C3177 1.399 . S
C3178 C3179 1.376 . S
C3179 H3166 0.930 . S
C3179 C3178 1.376 . S
C3179 C3180 1.388 . S
C3180 H3167 0.930 . S
C3180 C3179 1.388 . S
C3180 C3181 1.390 . S
C3181 C3180 1.390 . S
C3181 C3182 1.394 . S
C3181 C3187 1.465 . S
C3182 C3177 1.399 . S
C3182 C3181 1.394 . S
C3182 C3183 1.516 . S
C3183 C3182 1.516 . S
C3183 C3184 1.502 . S
C3183 C3185 1.561 . S
C3183 C3186 1.526 . S
C3184 H3168 0.959 . S
C3184 H3169 0.959 . S
C3184 H3170 0.961 . S
C3184 C3183 1.502 . S
C3185 H3171 0.960 . S
C3185 H3172 0.961 . S
C3185 H3173 0.959 . S
C3185 C3183 1.561 . S
C3186 C3183 1.526 . S
C3186 C3187 1.396 . S
C3186 C3191 1.390 . S
C3187 C3181 1.465 . S
C3187 C3186 1.396 . S
C3187 C3188 1.399 . S
C3188 H3174 0.929 . S
C3188 C3187 1.399 . S
C3188 C3189 1.385 . S
C3189 H3175 0.931 . S
C3189 C3188 1.385 . S
C3189 C3190 1.389 . S
C3190 C3189 1.389 . S
C3190 C3191 1.387 . S
C3191 H3176 0.930 . S
C3191 C3186 1.390 . S
C3191 C3190 1.387 . S
H3192 C3204 0.930 . S
H3193 C3206 0.930 . S
H3194 C3207 0.930 . S
H3195 C3211 0.959 . S
H3196 C3211 0.959 . S
H3197 C3211 0.961 . S
H3198 C3212 0.960 . S
H3199 C3212 0.961 . S
H3200 C3212 0.959 . S
H3201 C3215 0.929 . S
H3202 C3216 0.931 . S
H3203 C3218 0.930 . S
C3204 H3192 0.930 . S
C3204 C3205 1.399 . S
C3204 C3209 1.399 . S
C3205 C3204 1.399 . S
C3205 C3206 1.376 . S
C3206 H3193 0.930 . S
C3206 C3205 1.376 . S
C3206 C3207 1.388 . S
C3207 H3194 0.930 . S
C3207 C3206 1.388 . S
C3207 C3208 1.390 . S
C3208 C3207 1.390 . S
C3208 C3209 1.394 . S
C3208 C3214 1.465 . S
C3209 C3204 1.399 . S
C3209 C3208 1.394 . S
C3209 C3210 1.516 . S
C3210 C3209 1.516 . S
C3210 C3211 1.502 . S
C3210 C3212 1.561 . S
C3210 C3213 1.526 . S
C3211 H3195 0.959 . S
C3211 H3196 0.959 . S
C3211 H3197 0.961 . S
C3211 C3210 1.502 . S
C3212 H3198 0.960 . S
C3212 H3199 0.961 . S
C3212 H3200 0.959 . S
C3212 C3210 1.561 . S
C3213 C3210 1.526 . S
C3213 C3214 1.396 . S
C3213 C3218 1.390 . S
C3214 C3208 1.465 . S
C3214 C3213 1.396 . S
C3214 C3215 1.399 . S
C3215 H3201 0.929 . S
C3215 C3214 1.399 . S
C3215 C3216 1.385 . S
C3216 H3202 0.931 . S
C3216 C3215 1.385 . S
C3216 C3217 1.389 . S
C3217 C3216 1.389 . S
C3217 C3218 1.387 . S
C3218 H3203 0.930 . S
C3218 C3213 1.390 . S
C3218 C3217 1.387 . S
H3219 C3231 0.930 . S
H3220 C3233 0.930 . S
H3221 C3234 0.930 . S
H3222 C3238 0.959 . S
H3223 C3238 0.959 . S
H3224 C3238 0.961 . S
H3225 C3239 0.960 . S
H3226 C3239 0.961 . S
H3227 C3239 0.959 . S
H3228 C3242 0.929 . S
H3229 C3243 0.931 . S
H3230 C3245 0.930 . S
C3231 H3219 0.930 . S
C3231 C3232 1.399 1_556 S
C3231 C3236 1.399 . S
C3232 C3231 1.399 1_554 S
C3232 C3233 1.376 . S
C3233 H3220 0.930 . S
C3233 C3232 1.376 . S
C3233 C3234 1.388 1_554 S
C3234 H3221 0.930 . S
C3234 C3233 1.388 1_556 S
C3234 C3235 1.390 . S
C3235 C3234 1.390 . S
C3235 C3236 1.394 . S
C3235 C3241 1.465 . S
C3236 C3231 1.399 . S
C3236 C3235 1.394 . S
C3236 C3237 1.516 . S
C3237 C3236 1.516 . S
C3237 C3238 1.502 . S
C3237 C3239 1.561 . S
C3237 C3240 1.526 . S
C3238 H3222 0.959 . S
C3238 H3223 0.959 . S
C3238 H3224 0.961 . S
C3238 C3237 1.502 . S
C3239 H3225 0.960 . S
C3239 H3226 0.961 . S
C3239 H3227 0.959 . S
C3239 C3237 1.561 . S
C3240 C3237 1.526 . S
C3240 C3241 1.396 . S
C3240 C3245 1.390 . S
C3241 C3235 1.465 . S
C3241 C3240 1.396 . S
C3241 C3242 1.399 . S
C3242 H3228 0.929 . S
C3242 C3241 1.399 . S
C3242 C3243 1.385 . S
C3243 H3229 0.931 . S
C3243 C3242 1.385 . S
C3243 C3244 1.389 . S
C3244 C3243 1.389 . S
C3244 C3245 1.387 . S
C3245 H3230 0.930 . S
C3245 C3240 1.390 . S
C3245 C3244 1.387 . S
H3246 C3258 0.930 . S
H3247 C3260 0.930 . S
H3248 C3261 0.930 . S
H3249 C3265 0.959 . S
H3250 C3265 0.959 . S
H3251 C3265 0.961 . S
H3252 C3266 0.960 . S
H3253 C3266 0.961 . S
H3254 C3266 0.959 . S
H3255 C3269 0.929 . S
H3256 C3270 0.931 . S
H3257 C3272 0.930 . S
C3258 H3246 0.930 . S
C3258 C3259 1.399 . S
C3258 C3263 1.399 . S
C3259 C3258 1.399 . S
C3259 C3260 1.376 . S
C3260 H3247 0.930 . S
C3260 C3259 1.376 . S
C3260 C3261 1.388 . S
C3261 H3248 0.930 . S
C3261 C3260 1.388 . S
C3261 C3262 1.390 . S
C3262 C3261 1.390 . S
C3262 C3263 1.394 . S
C3262 C3268 1.465 . S
C3263 C3258 1.399 . S
C3263 C3262 1.394 . S
C3263 C3264 1.516 . S
C3264 C3263 1.516 . S
C3264 C3265 1.502 . S
C3264 C3266 1.561 . S
C3264 C3267 1.526 . S
C3265 H3249 0.959 . S
C3265 H3250 0.959 . S
C3265 H3251 0.961 . S
C3265 C3264 1.502 . S
C3266 H3252 0.960 . S
C3266 H3253 0.961 . S
C3266 H3254 0.959 . S
C3266 C3264 1.561 . S
C3267 C3264 1.526 . S
C3267 C3268 1.396 . S
C3267 C3272 1.390 . S
C3268 C3262 1.465 . S
C3268 C3267 1.396 . S
C3268 C3269 1.399 . S
C3269 H3255 0.929 . S
C3269 C3268 1.399 . S
C3269 C3270 1.385 . S
C3270 H3256 0.931 . S
C3270 C3269 1.385 . S
C3270 C3271 1.389 . S
C3271 C3270 1.389 . S
C3271 C3272 1.387 . S
C3272 H3257 0.930 . S
C3272 C3267 1.390 . S
C3272 C3271 1.387 . S
H3273 C3285 0.930 . S
H3274 C3287 0.930 . S
H3275 C3288 0.930 . S
H3276 C3292 0.959 . S
H3277 C3292 0.959 . S
H3278 C3292 0.961 . S
H3279 C3293 0.960 . S
H3280 C3293 0.961 . S
H3281 C3293 0.959 . S
H3282 C3296 0.929 . S
H3283 C3297 0.931 . S
H3284 C3299 0.930 . S
C3285 H3273 0.930 . S
C3285 C3286 1.399 . S
C3285 C3290 1.399 . S
C3286 C3285 1.399 . S
C3286 C3287 1.376 . S
C3287 H3274 0.930 . S
C3287 C3286 1.376 . S
C3287 C3288 1.388 . S
C3288 H3275 0.930 . S
C3288 C3287 1.388 . S
C3288 C3289 1.390 . S
C3289 C3288 1.390 . S
C3289 C3290 1.394 . S
C3289 C3295 1.465 . S
C3290 C3285 1.399 . S
C3290 C3289 1.394 . S
C3290 C3291 1.516 . S
C3291 C3290 1.516 . S
C3291 C3292 1.502 . S
C3291 C3293 1.561 . S
C3291 C3294 1.526 . S
C3292 H3276 0.959 . S
C3292 H3277 0.959 . S
C3292 H3278 0.961 . S
C3292 C3291 1.502 . S
C3293 H3279 0.960 . S
C3293 H3280 0.961 . S
C3293 H3281 0.959 . S
C3293 C3291 1.561 . S
C3294 C3291 1.526 . S
C3294 C3295 1.396 . S
C3294 C3299 1.390 . S
C3295 C3289 1.465 . S
C3295 C3294 1.396 . S
C3295 C3296 1.399 . S
C3296 H3282 0.929 . S
C3296 C3295 1.399 . S
C3296 C3297 1.385 . S
C3297 H3283 0.931 . S
C3297 C3296 1.385 . S
C3297 C3298 1.389 . S
C3298 C3297 1.389 . S
C3298 C3299 1.387 . S
C3299 H3284 0.930 . S
C3299 C3294 1.390 . S
C3299 C3298 1.387 . S
H3300 C3312 0.930 . S
H3301 C3314 0.930 . S
H3302 C3315 0.930 . S
H3303 C3319 0.959 . S
H3304 C3319 0.959 . S
H3305 C3319 0.961 . S
H3306 C3320 0.960 . S
H3307 C3320 0.961 . S
H3308 C3320 0.959 . S
H3309 C3323 0.929 . S
H3310 C3324 0.931 . S
H3311 C3326 0.930 . S
C3312 H3300 0.930 . S
C3312 C3313 1.399 . S
C3312 C3317 1.399 . S
C3313 C3312 1.399 . S
C3313 C3314 1.376 . S
C3314 H3301 0.930 . S
C3314 C3313 1.376 . S
C3314 C3315 1.388 . S
C3315 H3302 0.930 . S
C3315 C3314 1.388 . S
C3315 C3316 1.390 . S
C3316 C3315 1.390 . S
C3316 C3317 1.394 . S
C3316 C3322 1.465 . S
C3317 C3312 1.399 . S
C3317 C3316 1.394 . S
C3317 C3318 1.516 . S
C3318 C3317 1.516 . S
C3318 C3319 1.502 . S
C3318 C3320 1.561 . S
C3318 C3321 1.526 . S
C3319 H3303 0.959 . S
C3319 H3304 0.959 . S
C3319 H3305 0.961 . S
C3319 C3318 1.502 . S
C3320 H3306 0.960 . S
C3320 H3307 0.961 . S
C3320 H3308 0.959 . S
C3320 C3318 1.561 . S
C3321 C3318 1.526 . S
C3321 C3322 1.396 . S
C3321 C3326 1.390 . S
C3322 C3316 1.465 . S
C3322 C3321 1.396 . S
C3322 C3323 1.399 . S
C3323 H3309 0.929 . S
C3323 C3322 1.399 . S
C3323 C3324 1.385 . S
C3324 H3310 0.931 . S
C3324 C3323 1.385 . S
C3324 C3325 1.389 . S
C3325 C3324 1.389 . S
C3325 C3326 1.387 . S
C3326 H3311 0.930 . S
C3326 C3321 1.390 . S
C3326 C3325 1.387 . S
H3327 C3339 0.930 . S
H3328 C3341 0.930 . S
H3329 C3342 0.930 . S
H3330 C3346 0.959 . S
H3331 C3346 0.959 . S
H3332 C3346 0.961 . S
H3333 C3347 0.960 . S
H3334 C3347 0.961 . S
H3335 C3347 0.959 . S
H3336 C3350 0.929 . S
H3337 C3351 0.931 . S
H3338 C3353 0.930 . S
C3339 H3327 0.930 . S
C3339 C3340 1.399 . S
C3339 C3344 1.399 . S
C3340 C3339 1.399 . S
C3340 C3341 1.376 . S
C3341 H3328 0.930 . S
C3341 C3340 1.376 . S
C3341 C3342 1.388 . S
C3342 H3329 0.930 . S
C3342 C3341 1.388 . S
C3342 C3343 1.390 . S
C3343 C3342 1.390 . S
C3343 C3344 1.394 . S
C3343 C3349 1.465 . S
C3344 C3339 1.399 . S
C3344 C3343 1.394 . S
C3344 C3345 1.516 . S
C3345 C3344 1.516 . S
C3345 C3346 1.502 . S
C3345 C3347 1.561 . S
C3345 C3348 1.526 . S
C3346 H3330 0.959 . S
C3346 H3331 0.959 . S
C3346 H3332 0.961 . S
C3346 C3345 1.502 . S
C3347 H3333 0.960 . S
C3347 H3334 0.961 . S
C3347 H3335 0.959 . S
C3347 C3345 1.561 . S
C3348 C3345 1.526 . S
C3348 C3349 1.396 . S
C3348 C3353 1.390 . S
C3349 C3343 1.465 . S
C3349 C3348 1.396 . S
C3349 C3350 1.399 . S
C3350 H3336 0.929 . S
C3350 C3349 1.399 . S
C3350 C3351 1.385 . S
C3351 H3337 0.931 . S
C3351 C3350 1.385 . S
C3351 C3352 1.389 . S
C3352 C3351 1.389 . S
C3352 C3353 1.387 . S
C3353 H3338 0.930 . S
C3353 C3348 1.390 . S
C3353 C3352 1.387 . S
H3354 C3366 0.930 . S
H3355 C3368 0.930 . S
H3356 C3369 0.930 . S
H3357 C3373 0.959 . S
H3358 C3373 0.959 . S
H3359 C3373 0.961 . S
H3360 C3374 0.960 . S
H3361 C3374 0.961 . S
H3362 C3374 0.959 . S
H3363 C3377 0.929 . S
H3364 C3378 0.931 . S
H3365 C3380 0.930 . S
C3366 H3354 0.930 . S
C3366 C3367 1.399 . S
C3366 C3371 1.399 . S
C3367 C3366 1.399 . S
C3367 C3368 1.376 . S
C3368 H3355 0.930 . S
C3368 C3367 1.376 . S
C3368 C3369 1.388 . S
C3369 H3356 0.930 . S
C3369 C3368 1.388 . S
C3369 C3370 1.390 . S
C3370 C3369 1.390 . S
C3370 C3371 1.394 . S
C3370 C3376 1.465 . S
C3371 C3366 1.399 . S
C3371 C3370 1.394 . S
C3371 C3372 1.516 . S
C3372 C3371 1.516 . S
C3372 C3373 1.502 . S
C3372 C3374 1.561 . S
C3372 C3375 1.526 . S
C3373 H3357 0.959 . S
C3373 H3358 0.959 . S
C3373 H3359 0.961 . S
C3373 C3372 1.502 . S
C3374 H3360 0.960 . S
C3374 H3361 0.961 . S
C3374 H3362 0.959 . S
C3374 C3372 1.561 . S
C3375 C3372 1.526 . S
C3375 C3376 1.396 . S
C3375 C3380 1.390 . S
C3376 C3370 1.465 . S
C3376 C3375 1.396 . S
C3376 C3377 1.399 . S
C3377 H3363 0.929 . S
C3377 C3376 1.399 . S
C3377 C3378 1.385 . S
C3378 H3364 0.931 . S
C3378 C3377 1.385 . S
C3378 C3379 1.389 . S
C3379 C3378 1.389 . S
C3379 C3380 1.387 . S
C3380 H3365 0.930 . S
C3380 C3375 1.390 . S
C3380 C3379 1.387 . S
H3381 C3393 0.930 . S
H3382 C3395 0.930 . S
H3383 C3396 0.930 . S
H3384 C3400 0.959 . S
H3385 C3400 0.959 . S
H3386 C3400 0.961 . S
H3387 C3401 0.960 . S
H3388 C3401 0.961 . S
H3389 C3401 0.959 . S
H3390 C3404 0.929 . S
H3391 C3405 0.931 . S
H3392 C3407 0.930 . S
C3393 H3381 0.930 . S
C3393 C3394 1.399 . S
C3393 C3398 1.399 . S
C3394 C3393 1.399 . S
C3394 C3395 1.376 . S
C3395 H3382 0.930 . S
C3395 C3394 1.376 . S
C3395 C3396 1.388 . S
C3396 H3383 0.930 . S
C3396 C3395 1.388 . S
C3396 C3397 1.390 . S
C3397 C3396 1.390 . S
C3397 C3398 1.394 . S
C3397 C3403 1.465 . S
C3398 C3393 1.399 . S
C3398 C3397 1.394 . S
C3398 C3399 1.516 . S
C3399 C3398 1.516 . S
C3399 C3400 1.502 . S
C3399 C3401 1.561 . S
C3399 C3402 1.526 . S
C3400 H3384 0.959 . S
C3400 H3385 0.959 . S
C3400 H3386 0.961 . S
C3400 C3399 1.502 . S
C3401 H3387 0.960 . S
C3401 H3388 0.961 . S
C3401 H3389 0.959 . S
C3401 C3399 1.561 . S
C3402 C3399 1.526 . S
C3402 C3403 1.396 . S
C3402 C3407 1.390 . S
C3403 C3397 1.465 . S
C3403 C3402 1.396 . S
C3403 C3404 1.399 . S
C3404 H3390 0.929 . S
C3404 C3403 1.399 . S
C3404 C3405 1.385 . S
C3405 H3391 0.931 . S
C3405 C3404 1.385 . S
C3405 C3406 1.389 . S
C3406 C3405 1.389 . S
C3406 C3407 1.387 . S
C3407 H3392 0.930 . S
C3407 C3402 1.390 . S
C3407 C3406 1.387 . S
H3408 C3420 0.930 . S
H3409 C3422 0.930 . S
H3410 C3423 0.930 . S
H3411 C3427 0.959 . S
H3412 C3427 0.959 . S
H3413 C3427 0.961 . S
H3414 C3428 0.960 . S
H3415 C3428 0.961 . S
H3416 C3428 0.959 . S
H3417 C3431 0.929 . S
H3418 C3432 0.931 . S
H3419 C3434 0.930 . S
C3420 H3408 0.930 . S
C3420 C3421 1.399 . S
C3420 C3425 1.399 . S
C3421 C3420 1.399 . S
C3421 C3422 1.376 . S
C3422 H3409 0.930 . S
C3422 C3421 1.376 . S
C3422 C3423 1.388 . S
C3423 H3410 0.930 . S
C3423 C3422 1.388 . S
C3423 C3424 1.390 . S
C3424 C3423 1.390 . S
C3424 C3425 1.394 . S
C3424 C3430 1.465 . S
C3425 C3420 1.399 . S
C3425 C3424 1.394 . S
C3425 C3426 1.516 . S
C3426 C3425 1.516 . S
C3426 C3427 1.502 . S
C3426 C3428 1.561 . S
C3426 C3429 1.526 . S
C3427 H3411 0.959 . S
C3427 H3412 0.959 . S
C3427 H3413 0.961 . S
C3427 C3426 1.502 . S
C3428 H3414 0.960 . S
C3428 H3415 0.961 . S
C3428 H3416 0.959 . S
C3428 C3426 1.561 . S
C3429 C3426 1.526 . S
C3429 C3430 1.396 . S
C3429 C3434 1.390 . S
C3430 C3424 1.465 . S
C3430 C3429 1.396 . S
C3430 C3431 1.399 . S
C3431 H3417 0.929 . S
C3431 C3430 1.399 . S
C3431 C3432 1.385 . S
C3432 H3418 0.931 . S
C3432 C3431 1.385 . S
C3432 C3433 1.389 . S
C3433 C3432 1.389 . S
C3433 C3434 1.387 . S
C3434 H3419 0.930 . S
C3434 C3429 1.390 . S
C3434 C3433 1.387 . S
H3435 C3447 0.930 . S
H3436 C3449 0.930 . S
H3437 C3450 0.930 . S
H3438 C3454 0.959 . S
H3439 C3454 0.959 . S
H3440 C3454 0.961 . S
H3441 C3455 0.960 . S
H3442 C3455 0.961 . S
H3443 C3455 0.959 . S
H3444 C3458 0.929 . S
H3445 C3459 0.931 . S
H3446 C3461 0.930 . S
C3447 H3435 0.930 . S
C3447 C3448 1.399 . S
C3447 C3452 1.399 . S
C3448 C3447 1.399 . S
C3448 C3449 1.376 . S
C3449 H3436 0.930 . S
C3449 C3448 1.376 . S
C3449 C3450 1.388 . S
C3450 H3437 0.930 . S
C3450 C3449 1.388 . S
C3450 C3451 1.390 . S
C3451 C3450 1.390 . S
C3451 C3452 1.394 . S
C3451 C3457 1.465 . S
C3452 C3447 1.399 . S
C3452 C3451 1.394 . S
C3452 C3453 1.516 . S
C3453 C3452 1.516 . S
C3453 C3454 1.502 . S
C3453 C3455 1.561 . S
C3453 C3456 1.526 . S
C3454 H3438 0.959 . S
C3454 H3439 0.959 . S
C3454 H3440 0.961 . S
C3454 C3453 1.502 . S
C3455 H3441 0.960 . S
C3455 H3442 0.961 . S
C3455 H3443 0.959 . S
C3455 C3453 1.561 . S
C3456 C3453 1.526 . S
C3456 C3457 1.396 . S
C3456 C3461 1.390 . S
C3457 C3451 1.465 . S
C3457 C3456 1.396 . S
C3457 C3458 1.399 . S
C3458 H3444 0.929 . S
C3458 C3457 1.399 . S
C3458 C3459 1.385 . S
C3459 H3445 0.931 . S
C3459 C3458 1.385 . S
C3459 C3460 1.389 . S
C3460 C3459 1.389 . S
C3460 C3461 1.387 . S
C3461 H3446 0.930 . S
C3461 C3456 1.390 . S
C3461 C3460 1.387 . S
H3462 C3474 0.930 . S
H3463 C3476 0.930 1_545 S
H3464 C3477 0.930 . S
H3465 C3481 0.959 . S
H3466 C3481 0.959 . S
H3467 C3481 0.961 . S
H3468 C3482 0.960 . S
H3469 C3482 0.961 . S
H3470 C3482 0.959 . S
H3471 C3485 0.929 . S
H3472 C3486 0.931 . S
H3473 C3488 0.930 . S
C3474 H3462 0.930 . S
C3474 C3475 1.399 . S
C3474 C3479 1.399 . S
C3475 C3474 1.399 . S
C3475 C3476 1.376 . S
C3476 H3463 0.930 1_565 S
C3476 C3475 1.376 . S
C3476 C3477 1.388 . S
C3477 H3464 0.930 . S
C3477 C3476 1.388 . S
C3477 C3478 1.390 . S
C3478 C3477 1.390 . S
C3478 C3479 1.394 . S
C3478 C3484 1.465 . S
C3479 C3474 1.399 . S
C3479 C3478 1.394 . S
C3479 C3480 1.516 . S
C3480 C3479 1.516 . S
C3480 C3481 1.502 . S
C3480 C3482 1.561 . S
C3480 C3483 1.526 . S
C3481 H3465 0.959 . S
C3481 H3466 0.959 . S
C3481 H3467 0.961 . S
C3481 C3480 1.502 . S
C3482 H3468 0.960 . S
C3482 H3469 0.961 . S
C3482 H3470 0.959 . S
C3482 C3480 1.561 . S
C3483 C3480 1.526 . S
C3483 C3484 1.396 . S
C3483 C3488 1.390 . S
C3484 C3478 1.465 . S
C3484 C3483 1.396 . S
C3484 C3485 1.399 . S
C3485 H3471 0.929 . S
C3485 C3484 1.399 . S
C3485 C3486 1.385 . S
C3486 H3472 0.931 . S
C3486 C3485 1.385 . S
C3486 C3487 1.389 . S
C3487 C3486 1.389 . S
C3487 C3488 1.387 . S
C3488 H3473 0.930 . S
C3488 C3483 1.390 . S
C3488 C3487 1.387 . S
H3489 C3501 0.930 . S
H3490 C3503 0.930 . S
H3491 C3504 0.930 . S
H3492 C3508 0.959 . S
H3493 C3508 0.959 . S
H3494 C3508 0.961 . S
H3495 C3509 0.960 . S
H3496 C3509 0.961 . S
H3497 C3509 0.959 1_565 S
H3498 C3512 0.929 . S
H3499 C3513 0.931 . S
H3500 C3515 0.930 . S
C3501 H3489 0.930 . S
C3501 C3502 1.399 . S
C3501 C3506 1.399 . S
C3502 C3501 1.399 . S
C3502 C3503 1.376 1_554 S
C3503 H3490 0.930 . S
C3503 C3502 1.376 1_556 S
C3503 C3504 1.388 . S
C3504 H3491 0.930 . S
C3504 C3503 1.388 . S
C3504 C3505 1.390 1_556 S
C3505 C3504 1.390 1_554 S
C3505 C3506 1.394 . S
C3505 C3511 1.465 . S
C3506 C3501 1.399 . S
C3506 C3505 1.394 . S
C3506 C3507 1.516 1_565 S
C3507 C3506 1.516 1_545 S
C3507 C3508 1.502 . S
C3507 C3509 1.561 . S
C3507 C3510 1.526 . S
C3508 H3492 0.959 . S
C3508 H3493 0.959 . S
C3508 H3494 0.961 . S
C3508 C3507 1.502 . S
C3509 H3495 0.960 . S
C3509 H3496 0.961 . S
C3509 H3497 0.959 1_545 S
C3509 C3507 1.561 . S
C3510 C3507 1.526 . S
C3510 C3511 1.396 1_545 S
C3510 C3515 1.390 . S
C3511 C3505 1.465 . S
C3511 C3510 1.396 1_565 S
C3511 C3512 1.399 1_554 S
C3512 H3498 0.929 . S
C3512 C3511 1.399 1_556 S
C3512 C3513 1.385 . S
C3513 H3499 0.931 . S
C3513 C3512 1.385 . S
C3513 C3514 1.389 1_566 S
C3514 C3513 1.389 1_544 S
C3514 C3515 1.387 . S
C3515 H3500 0.930 . S
C3515 C3510 1.390 . S
C3515 C3514 1.387 . S
H3516 C3528 0.930 . S
H3517 C3530 0.930 . S
H3518 C3531 0.930 . S
H3519 C3535 0.959 . S
H3520 C3535 0.959 . S
H3521 C3535 0.961 . S
H3522 C3536 0.960 . S
H3523 C3536 0.961 . S
H3524 C3536 0.959 . S
H3525 C3539 0.929 . S
H3526 C3540 0.931 . S
H3527 C3542 0.930 . S
C3528 H3516 0.930 . S
C3528 C3529 1.399 . S
C3528 C3533 1.399 . S
C3529 C3528 1.399 . S
C3529 C3530 1.376 . S
C3530 H3517 0.930 . S
C3530 C3529 1.376 . S
C3530 C3531 1.388 . S
C3531 H3518 0.930 . S
C3531 C3530 1.388 . S
C3531 C3532 1.390 . S
C3532 C3531 1.390 . S
C3532 C3533 1.394 . S
C3532 C3538 1.465 . S
C3533 C3528 1.399 . S
C3533 C3532 1.394 . S
C3533 C3534 1.516 . S
C3534 C3533 1.516 . S
C3534 C3535 1.502 . S
C3534 C3536 1.561 . S
C3534 C3537 1.526 . S
C3535 H3519 0.959 . S
C3535 H3520 0.959 . S
C3535 H3521 0.961 . S
C3535 C3534 1.502 . S
C3536 H3522 0.960 . S
C3536 H3523 0.961 . S
C3536 H3524 0.959 . S
C3536 C3534 1.561 . S
C3537 C3534 1.526 . S
C3537 C3538 1.396 . S
C3537 C3542 1.390 . S
C3538 C3532 1.465 . S
C3538 C3537 1.396 . S
C3538 C3539 1.399 . S
C3539 H3525 0.929 . S
C3539 C3538 1.399 . S
C3539 C3540 1.385 . S
C3540 H3526 0.931 . S
C3540 C3539 1.385 . S
C3540 C3541 1.389 . S
C3541 C3540 1.389 . S
C3541 C3542 1.387 . S
C3542 H3527 0.930 . S
C3542 C3537 1.390 . S
C3542 C3541 1.387 . S
H3543 C3555 0.930 1_556 S
H3544 C3557 0.930 . S
H3545 C3558 0.930 . S
H3546 C3562 0.959 1_554 S
H3547 C3562 0.959 . S
H3548 C3562 0.961 . S
H3549 C3563 0.960 . S
H3550 C3563 0.961 . S
H3551 C3563 0.959 . S
H3552 C3566 0.929 . S
H3553 C3567 0.931 . S
H3554 C3569 0.930 . S
C3555 H3543 0.930 1_554 S
C3555 C3556 1.399 . S
C3555 C3560 1.399 . S
C3556 C3555 1.399 . S
C3556 C3557 1.376 . S
C3557 H3544 0.930 . S
C3557 C3556 1.376 . S
C3557 C3558 1.388 . S
C3558 H3545 0.930 . S
C3558 C3557 1.388 . S
C3558 C3559 1.390 . S
C3559 C3558 1.390 . S
C3559 C3560 1.394 . S
C3559 C3565 1.465 . S
C3560 C3555 1.399 . S
C3560 C3559 1.394 . S
C3560 C3561 1.516 1_554 S
C3561 C3560 1.516 1_556 S
C3561 C3562 1.502 . S
C3561 C3563 1.561 . S
C3561 C3564 1.526 1_556 S
C3562 H3546 0.959 1_556 S
C3562 H3547 0.959 . S
C3562 H3548 0.961 . S
C3562 C3561 1.502 . S
C3563 H3549 0.960 . S
C3563 H3550 0.961 . S
C3563 H3551 0.959 . S
C3563 C3561 1.561 . S
C3564 C3561 1.526 1_554 S
C3564 C3565 1.396 . S
C3564 C3569 1.390 . S
C3565 C3559 1.465 . S
C3565 C3564 1.396 . S
C3565 C3566 1.399 . S
C3566 H3552 0.929 . S
C3566 C3565 1.399 . S
C3566 C3567 1.385 . S
C3567 H3553 0.931 . S
C3567 C3566 1.385 . S
C3567 C3568 1.389 . S
C3568 C3567 1.389 . S
C3568 C3569 1.387 . S
C3569 H3554 0.930 . S
C3569 C3564 1.390 . S
C3569 C3568 1.387 . S
H3570 C3582 0.930 . S
H3571 C3584 0.930 . S
H3572 C3585 0.930 . S
H3573 C3589 0.959 . S
H3574 C3589 0.959 . S
H3575 C3589 0.961 . S
H3576 C3590 0.960 . S
H3577 C3590 0.961 . S
H3578 C3590 0.959 . S
H3579 C3593 0.929 . S
H3580 C3594 0.931 . S
H3581 C3596 0.930 . S
C3582 H3570 0.930 . S
C3582 C3583 1.399 . S
C3582 C3587 1.399 . S
C3583 C3582 1.399 . S
C3583 C3584 1.376 . S
C3584 H3571 0.930 . S
C3584 C3583 1.376 . S
C3584 C3585 1.388 . S
C3585 H3572 0.930 . S
C3585 C3584 1.388 . S
C3585 C3586 1.390 . S
C3586 C3585 1.390 . S
C3586 C3587 1.394 . S
C3586 C3592 1.465 . S
C3587 C3582 1.399 . S
C3587 C3586 1.394 . S
C3587 C3588 1.516 . S
C3588 C3587 1.516 . S
C3588 C3589 1.502 . S
C3588 C3590 1.561 . S
C3588 C3591 1.526 . S
C3589 H3573 0.959 . S
C3589 H3574 0.959 . S
C3589 H3575 0.961 . S
C3589 C3588 1.502 . S
C3590 H3576 0.960 . S
C3590 H3577 0.961 . S
C3590 H3578 0.959 . S
C3590 C3588 1.561 . S
C3591 C3588 1.526 . S
C3591 C3592 1.396 . S
C3591 C3596 1.390 . S
C3592 C3586 1.465 . S
C3592 C3591 1.396 . S
C3592 C3593 1.399 . S
C3593 H3579 0.929 . S
C3593 C3592 1.399 . S
C3593 C3594 1.385 . S
C3594 H3580 0.931 . S
C3594 C3593 1.385 . S
C3594 C3595 1.389 . S
C3595 C3594 1.389 . S
C3595 C3596 1.387 . S
C3596 H3581 0.930 . S
C3596 C3591 1.390 . S
C3596 C3595 1.387 . S
H3597 C3609 0.930 . S
H3598 C3611 0.930 . S
H3599 C3612 0.930 . S
H3600 C3616 0.959 . S
H3601 C3616 0.959 . S
H3602 C3616 0.961 . S
H3603 C3617 0.960 . S
H3604 C3617 0.961 . S
H3605 C3617 0.959 . S
H3606 C3620 0.929 . S
H3607 C3621 0.931 . S
H3608 C3623 0.930 . S
C3609 H3597 0.930 . S
C3609 C3610 1.399 . S
C3609 C3614 1.399 . S
C3610 C3609 1.399 . S
C3610 C3611 1.376 . S
C3611 H3598 0.930 . S
C3611 C3610 1.376 . S
C3611 C3612 1.388 . S
C3612 H3599 0.930 . S
C3612 C3611 1.388 . S
C3612 C3613 1.390 . S
C3613 C3612 1.390 . S
C3613 C3614 1.394 . S
C3613 C3619 1.465 . S
C3614 C3609 1.399 . S
C3614 C3613 1.394 . S
C3614 C3615 1.516 . S
C3615 C3614 1.516 . S
C3615 C3616 1.502 . S
C3615 C3617 1.561 . S
C3615 C3618 1.526 . S
C3616 H3600 0.959 . S
C3616 H3601 0.959 . S
C3616 H3602 0.961 . S
C3616 C3615 1.502 . S
C3617 H3603 0.960 . S
C3617 H3604 0.961 . S
C3617 H3605 0.959 . S
C3617 C3615 1.561 . S
C3618 C3615 1.526 . S
C3618 C3619 1.396 . S
C3618 C3623 1.390 . S
C3619 C3613 1.465 . S
C3619 C3618 1.396 . S
C3619 C3620 1.399 . S
C3620 H3606 0.929 . S
C3620 C3619 1.399 . S
C3620 C3621 1.385 . S
C3621 H3607 0.931 . S
C3621 C3620 1.385 . S
C3621 C3622 1.389 . S
C3622 C3621 1.389 . S
C3622 C3623 1.387 . S
C3623 H3608 0.930 . S
C3623 C3618 1.390 . S
C3623 C3622 1.387 . S
H3624 C3636 0.930 . S
H3625 C3638 0.930 . S
H3626 C3639 0.930 . S
H3627 C3643 0.959 . S
H3628 C3643 0.959 . S
H3629 C3643 0.961 . S
H3630 C3644 0.960 . S
H3631 C3644 0.961 . S
H3632 C3644 0.959 . S
H3633 C3647 0.929 . S
H3634 C3648 0.931 . S
H3635 C3650 0.930 . S
C3636 H3624 0.930 . S
C3636 C3637 1.399 . S
C3636 C3641 1.399 . S
C3637 C3636 1.399 . S
C3637 C3638 1.376 . S
C3638 H3625 0.930 . S
C3638 C3637 1.376 . S
C3638 C3639 1.388 . S
C3639 H3626 0.930 . S
C3639 C3638 1.388 . S
C3639 C3640 1.390 . S
C3640 C3639 1.390 . S
C3640 C3641 1.394 . S
C3640 C3646 1.465 . S
C3641 C3636 1.399 . S
C3641 C3640 1.394 . S
C3641 C3642 1.516 . S
C3642 C3641 1.516 . S
C3642 C3643 1.502 . S
C3642 C3644 1.561 . S
C3642 C3645 1.526 . S
C3643 H3627 0.959 . S
C3643 H3628 0.959 . S
C3643 H3629 0.961 . S
C3643 C3642 1.502 . S
C3644 H3630 0.960 . S
C3644 H3631 0.961 . S
C3644 H3632 0.959 . S
C3644 C3642 1.561 . S
C3645 C3642 1.526 . S
C3645 C3646 1.396 . S
C3645 C3650 1.390 . S
C3646 C3640 1.465 . S
C3646 C3645 1.396 . S
C3646 C3647 1.399 . S
C3647 H3633 0.929 . S
C3647 C3646 1.399 . S
C3647 C3648 1.385 . S
C3648 H3634 0.931 . S
C3648 C3647 1.385 . S
C3648 C3649 1.389 . S
C3649 C3648 1.389 . S
C3649 C3650 1.387 . S
C3650 H3635 0.930 . S
C3650 C3645 1.390 . S
C3650 C3649 1.387 . S
H3651 C3663 0.930 . S
H3652 C3665 0.930 . S
H3653 C3666 0.930 . S
H3654 C3670 0.959 . S
H3655 C3670 0.959 . S
H3656 C3670 0.961 . S
H3657 C3671 0.960 . S
H3658 C3671 0.961 . S
H3659 C3671 0.959 . S
H3660 C3674 0.929 . S
H3661 C3675 0.931 . S
H3662 C3677 0.930 . S
C3663 H3651 0.930 . S
C3663 C3664 1.399 . S
C3663 C3668 1.399 . S
C3664 C3663 1.399 . S
C3664 C3665 1.376 . S
C3665 H3652 0.930 . S
C3665 C3664 1.376 . S
C3665 C3666 1.388 . S
C3666 H3653 0.930 . S
C3666 C3665 1.388 . S
C3666 C3667 1.390 . S
C3667 C3666 1.390 . S
C3667 C3668 1.394 . S
C3667 C3673 1.465 . S
C3668 C3663 1.399 . S
C3668 C3667 1.394 . S
C3668 C3669 1.516 . S
C3669 C3668 1.516 . S
C3669 C3670 1.502 . S
C3669 C3671 1.561 . S
C3669 C3672 1.526 . S
C3670 H3654 0.959 . S
C3670 H3655 0.959 . S
C3670 H3656 0.961 . S
C3670 C3669 1.502 . S
C3671 H3657 0.960 . S
C3671 H3658 0.961 . S
C3671 H3659 0.959 . S
C3671 C3669 1.561 . S
C3672 C3669 1.526 . S
C3672 C3673 1.396 . S
C3672 C3677 1.390 . S
C3673 C3667 1.465 . S
C3673 C3672 1.396 . S
C3673 C3674 1.399 . S
C3674 H3660 0.929 . S
C3674 C3673 1.399 . S
C3674 C3675 1.385 . S
C3675 H3661 0.931 . S
C3675 C3674 1.385 . S
C3675 C3676 1.389 . S
C3676 C3675 1.389 . S
C3676 C3677 1.387 . S
C3677 H3662 0.930 . S
C3677 C3672 1.390 . S
C3677 C3676 1.387 . S
H3678 C3690 0.930 . S
H3679 C3692 0.930 . S
H3680 C3693 0.930 . S
H3681 C3697 0.959 . S
H3682 C3697 0.959 . S
H3683 C3697 0.961 . S
H3684 C3698 0.960 . S
H3685 C3698 0.961 1_556 S
H3686 C3698 0.959 . S
H3687 C3701 0.929 . S
H3688 C3702 0.931 . S
H3689 C3704 0.930 . S
C3690 H3678 0.930 . S
C3690 C3691 1.399 . S
C3690 C3695 1.399 . S
C3691 C3690 1.399 . S
C3691 C3692 1.376 . S
C3692 H3679 0.930 . S
C3692 C3691 1.376 . S
C3692 C3693 1.388 . S
C3693 H3680 0.930 . S
C3693 C3692 1.388 . S
C3693 C3694 1.390 . S
C3694 C3693 1.390 . S
C3694 C3695 1.394 . S
C3694 C3700 1.465 . S
C3695 C3690 1.399 . S
C3695 C3694 1.394 . S
C3695 C3696 1.516 . S
C3696 C3695 1.516 . S
C3696 C3697 1.502 . S
C3696 C3698 1.561 . S
C3696 C3699 1.526 . S
C3697 H3681 0.959 . S
C3697 H3682 0.959 . S
C3697 H3683 0.961 . S
C3697 C3696 1.502 . S
C3698 H3684 0.960 . S
C3698 H3685 0.961 1_554 S
C3698 H3686 0.959 . S
C3698 C3696 1.561 . S
C3699 C3696 1.526 . S
C3699 C3700 1.396 . S
C3699 C3704 1.390 . S
C3700 C3694 1.465 . S
C3700 C3699 1.396 . S
C3700 C3701 1.399 . S
C3701 H3687 0.929 . S
C3701 C3700 1.399 . S
C3701 C3702 1.385 . S
C3702 H3688 0.931 . S
C3702 C3701 1.385 . S
C3702 C3703 1.389 . S
C3703 C3702 1.389 . S
C3703 C3704 1.387 . S
C3704 H3689 0.930 . S
C3704 C3699 1.390 . S
C3704 C3703 1.387 . S
H3705 C3717 0.930 . S
H3706 C3719 0.930 . S
H3707 C3720 0.930 . S
H3708 C3724 0.959 . S
H3709 C3724 0.959 . S
H3710 C3724 0.961 . S
H3711 C3725 0.960 . S
H3712 C3725 0.961 . S
H3713 C3725 0.959 . S
H3714 C3728 0.929 . S
H3715 C3729 0.931 . S
H3716 C3731 0.930 . S
C3717 H3705 0.930 . S
C3717 C3718 1.399 . S
C3717 C3722 1.399 . S
C3718 C3717 1.399 . S
C3718 C3719 1.376 . S
C3719 H3706 0.930 . S
C3719 C3718 1.376 . S
C3719 C3720 1.388 . S
C3720 H3707 0.930 . S
C3720 C3719 1.388 . S
C3720 C3721 1.390 . S
C3721 C3720 1.390 . S
C3721 C3722 1.394 . S
C3721 C3727 1.465 . S
C3722 C3717 1.399 . S
C3722 C3721 1.394 . S
C3722 C3723 1.516 . S
C3723 C3722 1.516 . S
C3723 C3724 1.502 . S
C3723 C3725 1.561 . S
C3723 C3726 1.526 . S
C3724 H3708 0.959 . S
C3724 H3709 0.959 . S
C3724 H3710 0.961 . S
C3724 C3723 1.502 . S
C3725 H3711 0.960 . S
C3725 H3712 0.961 . S
C3725 H3713 0.959 . S
C3725 C3723 1.561 . S
C3726 C3723 1.526 . S
C3726 C3727 1.396 . S
C3726 C3731 1.390 . S
C3727 C3721 1.465 . S
C3727 C3726 1.396 . S
C3727 C3728 1.399 . S
C3728 H3714 0.929 . S
C3728 C3727 1.399 . S
C3728 C3729 1.385 . S
C3729 H3715 0.931 . S
C3729 C3728 1.385 . S
C3729 C3730 1.389 . S
C3730 C3729 1.389 . S
C3730 C3731 1.387 . S
C3731 H3716 0.930 . S
C3731 C3726 1.390 . S
C3731 C3730 1.387 . S
H3732 C3744 0.930 . S
H3733 C3746 0.930 . S
H3734 C3747 0.930 . S
H3735 C3751 0.959 . S
H3736 C3751 0.959 . S
H3737 C3751 0.961 . S
H3738 C3752 0.960 . S
H3739 C3752 0.961 . S
H3740 C3752 0.959 . S
H3741 C3755 0.929 . S
H3742 C3756 0.931 . S
H3743 C3758 0.930 . S
C3744 H3732 0.930 . S
C3744 C3745 1.399 . S
C3744 C3749 1.399 . S
C3745 C3744 1.399 . S
C3745 C3746 1.376 . S
C3746 H3733 0.930 . S
C3746 C3745 1.376 . S
C3746 C3747 1.388 . S
C3747 H3734 0.930 . S
C3747 C3746 1.388 . S
C3747 C3748 1.390 . S
C3748 C3747 1.390 . S
C3748 C3749 1.394 . S
C3748 C3754 1.465 . S
C3749 C3744 1.399 . S
C3749 C3748 1.394 . S
C3749 C3750 1.516 . S
C3750 C3749 1.516 . S
C3750 C3751 1.502 . S
C3750 C3752 1.561 . S
C3750 C3753 1.526 . S
C3751 H3735 0.959 . S
C3751 H3736 0.959 . S
C3751 H3737 0.961 . S
C3751 C3750 1.502 . S
C3752 H3738 0.960 . S
C3752 H3739 0.961 . S
C3752 H3740 0.959 . S
C3752 C3750 1.561 . S
C3753 C3750 1.526 . S
C3753 C3754 1.396 . S
C3753 C3758 1.390 . S
C3754 C3748 1.465 . S
C3754 C3753 1.396 . S
C3754 C3755 1.399 . S
C3755 H3741 0.929 . S
C3755 C3754 1.399 . S
C3755 C3756 1.385 . S
C3756 H3742 0.931 . S
C3756 C3755 1.385 . S
C3756 C3757 1.389 . S
C3757 C3756 1.389 . S
C3757 C3758 1.387 . S
C3758 H3743 0.930 . S
C3758 C3753 1.390 . S
C3758 C3757 1.387 . S
H3759 C3771 0.930 . S
H3760 C3773 0.930 . S
H3761 C3774 0.930 . S
H3762 C3778 0.959 . S
H3763 C3778 0.959 . S
H3764 C3778 0.961 . S
H3765 C3779 0.960 . S
H3766 C3779 0.961 . S
H3767 C3779 0.959 . S
H3768 C3782 0.929 . S
H3769 C3783 0.931 . S
H3770 C3785 0.930 . S
C3771 H3759 0.930 . S
C3771 C3772 1.399 . S
C3771 C3776 1.399 . S
C3772 C3771 1.399 . S
C3772 C3773 1.376 . S
C3773 H3760 0.930 . S
C3773 C3772 1.376 . S
C3773 C3774 1.388 . S
C3774 H3761 0.930 . S
C3774 C3773 1.388 . S
C3774 C3775 1.390 . S
C3775 C3774 1.390 . S
C3775 C3776 1.394 . S
C3775 C3781 1.465 . S
C3776 C3771 1.399 . S
C3776 C3775 1.394 . S
C3776 C3777 1.516 . S
C3777 C3776 1.516 . S
C3777 C3778 1.502 . S
C3777 C3779 1.561 . S
C3777 C3780 1.526 . S
C3778 H3762 0.959 . S
C3778 H3763 0.959 . S
C3778 H3764 0.961 . S
C3778 C3777 1.502 . S
C3779 H3765 0.960 . S
C3779 H3766 0.961 . S
C3779 H3767 0.959 . S
C3779 C3777 1.561 . S
C3780 C3777 1.526 . S
C3780 C3781 1.396 . S
C3780 C3785 1.390 . S
C3781 C3775 1.465 . S
C3781 C3780 1.396 . S
C3781 C3782 1.399 . S
C3782 H3768 0.929 . S
C3782 C3781 1.399 . S
C3782 C3783 1.385 . S
C3783 H3769 0.931 . S
C3783 C3782 1.385 . S
C3783 C3784 1.389 . S
C3784 C3783 1.389 . S
C3784 C3785 1.387 . S
C3785 H3770 0.930 . S
C3785 C3780 1.390 . S
C3785 C3784 1.387 . S
H3786 C3798 0.930 . S
H3787 C3800 0.930 . S
H3788 C3801 0.930 . S
H3789 C3805 0.944 1_455 S
H3790 C3805 0.959 . S
H3791 C3805 0.961 . S
H3792 C3806 0.960 1_655 S
H3793 C3806 0.961 1_655 S
H3794 C3806 0.959 . S
H3795 C3809 0.929 . S
H3796 C3810 0.931 . S
H3797 C3812 0.930 . S
C3798 H3786 0.930 . S
C3798 C3799 1.399 . S
C3798 C3803 1.399 . S
C3799 C3798 1.399 . S
C3799 C3800 1.376 . S
C3800 H3787 0.930 . S
C3800 C3799 1.376 . S
C3800 C3801 1.388 . S
C3801 H3788 0.930 . S
C3801 C3800 1.388 . S
C3801 C3802 1.390 . S
C3802 C3801 1.390 . S
C3802 C3803 1.394 . S
C3802 C3808 1.465 . S
C3803 C3798 1.399 . S
C3803 C3802 1.394 . S
C3803 C3804 1.516 . S
C3804 C3803 1.516 . S
C3804 C3805 1.502 1_455 S
C3804 C3806 1.561 . S
C3804 C3807 1.526 . S
C3805 H3789 0.944 1_655 S
C3805 H3790 0.959 . S
C3805 H3791 0.961 . S
C3805 C3804 1.502 1_655 S
C3806 H3792 0.960 1_455 S
C3806 H3793 0.961 1_455 S
C3806 H3794 0.959 . S
C3806 C3804 1.561 . S
C3807 C3804 1.526 . S
C3807 C3808 1.396 . S
C3807 C3812 1.390 . S
C3808 C3802 1.465 . S
C3808 C3807 1.396 . S
C3808 C3809 1.399 . S
C3809 H3795 0.929 . S
C3809 C3808 1.399 . S
C3809 C3810 1.385 . S
C3810 H3796 0.931 . S
C3810 C3809 1.385 . S
C3810 C3811 1.389 . S
C3811 C3810 1.389 . S
C3811 C3812 1.387 . S
C3812 H3797 0.930 . S
C3812 C3807 1.390 . S
C3812 C3811 1.387 . S
H3813 C3825 0.930 . S
H3814 C3827 0.930 . S
H3815 C3828 0.930 . S
H3816 C3832 0.959 . S
H3817 C3832 0.959 . S
H3818 C3832 0.961 . S
H3819 C3833 0.960 . S
H3820 C3833 0.961 . S
H3821 C3833 0.959 . S
H3822 C3836 0.929 . S
H3823 C3837 0.931 . S
H3824 C3839 0.930 . S
C3825 H3813 0.930 . S
C3825 C3826 1.399 . S
C3825 C3830 1.399 . S
C3826 C3825 1.399 . S
C3826 C3827 1.376 . S
C3827 H3814 0.930 . S
C3827 C3826 1.376 . S
C3827 C3828 1.388 . S
C3828 H3815 0.930 . S
C3828 C3827 1.388 . S
C3828 C3829 1.390 . S
C3829 C3828 1.390 . S
C3829 C3830 1.394 . S
C3829 C3835 1.465 . S
C3830 C3825 1.399 . S
C3830 C3829 1.394 . S
C3830 C3831 1.516 . S
C3831 C3830 1.516 . S
C3831 C3832 1.502 . S
C3831 C3833 1.561 . S
C3831 C3834 1.526 . S
C3832 H3816 0.959 . S
C3832 H3817 0.959 . S
C3832 H3818 0.961 . S
C3832 C3831 1.502 . S
C3833 H3819 0.960 . S
C3833 H3820 0.961 . S
C3833 H3821 0.959 . S
C3833 C3831 1.561 . S
C3834 C3831 1.526 . S
C3834 C3835 1.396 . S
C3834 C3839 1.390 . S
C3835 C3829 1.465 . S
C3835 C3834 1.396 . S
C3835 C3836 1.399 . S
C3836 H3822 0.929 . S
C3836 C3835 1.399 . S
C3836 C3837 1.385 . S
C3837 H3823 0.931 . S
C3837 C3836 1.385 . S
C3837 C3838 1.389 . S
C3838 C3837 1.389 . S
C3838 C3839 1.387 . S
C3839 H3824 0.930 . S
C3839 C3834 1.390 . S
C3839 C3838 1.387 . S
H3840 C3852 0.930 . S
H3841 C3854 0.930 . S
H3842 C3855 0.930 . S
H3843 C3859 0.959 . S
H3844 C3859 0.959 . S
H3845 C3859 0.961 . S
H3846 C3860 0.960 . S
H3847 C3860 0.961 . S
H3848 C3860 0.959 . S
H3849 C3863 0.929 . S
H3850 C3864 0.931 . S
H3851 C3866 0.930 . S
C3852 H3840 0.930 . S
C3852 C3853 1.399 . S
C3852 C3857 1.399 . S
C3853 C3852 1.399 . S
C3853 C3854 1.376 . S
C3854 H3841 0.930 . S
C3854 C3853 1.376 . S
C3854 C3855 1.388 . S
C3855 H3842 0.930 . S
C3855 C3854 1.388 . S
C3855 C3856 1.390 . S
C3856 C3855 1.390 . S
C3856 C3857 1.394 . S
C3856 C3862 1.465 . S
C3857 C3852 1.399 . S
C3857 C3856 1.394 . S
C3857 C3858 1.516 . S
C3858 C3857 1.516 . S
C3858 C3859 1.502 . S
C3858 C3860 1.561 . S
C3858 C3861 1.526 . S
C3859 H3843 0.959 . S
C3859 H3844 0.959 . S
C3859 H3845 0.961 . S
C3859 C3858 1.502 . S
C3860 H3846 0.960 . S
C3860 H3847 0.961 . S
C3860 H3848 0.959 . S
C3860 C3858 1.561 . S
C3861 C3858 1.526 . S
C3861 C3862 1.396 . S
C3861 C3866 1.390 . S
C3862 C3856 1.465 . S
C3862 C3861 1.396 . S
C3862 C3863 1.399 . S
C3863 H3849 0.929 . S
C3863 C3862 1.399 . S
C3863 C3864 1.385 . S
C3864 H3850 0.931 . S
C3864 C3863 1.385 . S
C3864 C3865 1.389 . S
C3865 C3864 1.389 . S
C3865 C3866 1.387 . S
C3866 H3851 0.930 . S
C3866 C3861 1.390 . S
C3866 C3865 1.387 . S
H3867 C3879 0.930 . S
H3868 C3881 0.930 . S
H3869 C3882 0.930 . S
H3870 C3886 0.959 . S
H3871 C3886 0.959 . S
H3872 C3886 0.961 . S
H3873 C3887 0.960 . S
H3874 C3887 0.961 . S
H3875 C3887 0.959 . S
H3876 C3890 0.929 . S
H3877 C3891 0.931 . S
H3878 C3893 0.930 . S
C3879 H3867 0.930 . S
C3879 C3880 1.399 . S
C3879 C3884 1.399 . S
C3880 C3879 1.399 . S
C3880 C3881 1.376 . S
C3881 H3868 0.930 . S
C3881 C3880 1.376 . S
C3881 C3882 1.388 . S
C3882 H3869 0.930 . S
C3882 C3881 1.388 . S
C3882 C3883 1.390 . S
C3883 C3882 1.390 . S
C3883 C3884 1.394 . S
C3883 C3889 1.465 . S
C3884 C3879 1.399 . S
C3884 C3883 1.394 . S
C3884 C3885 1.516 . S
C3885 C3884 1.516 . S
C3885 C3886 1.502 . S
C3885 C3887 1.561 . S
C3885 C3888 1.526 . S
C3886 H3870 0.959 . S
C3886 H3871 0.959 . S
C3886 H3872 0.961 . S
C3886 C3885 1.502 . S
C3887 H3873 0.960 . S
C3887 H3874 0.961 . S
C3887 H3875 0.959 . S
C3887 C3885 1.561 . S
C3888 C3885 1.526 . S
C3888 C3889 1.396 . S
C3888 C3893 1.390 . S
C3889 C3883 1.465 . S
C3889 C3888 1.396 . S
C3889 C3890 1.399 . S
C3890 H3876 0.929 . S
C3890 C3889 1.399 . S
C3890 C3891 1.385 . S
C3891 H3877 0.931 . S
C3891 C3890 1.385 . S
C3891 C3892 1.389 . S
C3892 C3891 1.389 . S
C3892 C3893 1.387 . S
C3893 H3878 0.930 . S
C3893 C3888 1.390 . S
C3893 C3892 1.387 . S
H3894 C3906 0.930 . S
H3895 C3908 0.930 . S
H3896 C3909 0.930 . S
H3897 C3913 0.959 . S
H3898 C3913 0.959 . S
H3899 C3913 0.961 . S
H3900 C3914 0.960 . S
H3901 C3914 0.961 . S
H3902 C3914 0.959 . S
H3903 C3917 0.929 . S
H3904 C3918 0.958 . S
H3905 C3920 0.930 . S
C3906 H3894 0.930 . S
C3906 C3907 1.399 . S
C3906 C3911 1.399 . S
C3907 C3906 1.399 . S
C3907 C3908 1.376 . S
C3908 H3895 0.930 . S
C3908 C3907 1.376 . S
C3908 C3909 1.388 . S
C3909 H3896 0.930 . S
C3909 C3908 1.388 . S
C3909 C3910 1.390 . S
C3910 C3909 1.390 . S
C3910 C3911 1.394 . S
C3910 C3916 1.465 . S
C3911 C3906 1.399 . S
C3911 C3910 1.394 . S
C3911 C3912 1.516 . S
C3912 C3911 1.516 . S
C3912 C3913 1.502 . S
C3912 C3914 1.561 . S
C3912 C3915 1.526 . S
C3913 H3897 0.959 . S
C3913 H3898 0.959 . S
C3913 H3899 0.961 . S
C3913 C3912 1.502 . S
C3914 H3900 0.960 . S
C3914 H3901 0.961 . S
C3914 H3902 0.959 . S
C3914 C3912 1.561 . S
C3915 C3912 1.526 . S
C3915 C3916 1.396 . S
C3915 C3920 1.390 . S
C3916 C3910 1.465 . S
C3916 C3915 1.396 . S
C3916 C3917 1.399 . S
C3917 H3903 0.929 . S
C3917 C3916 1.399 . S
C3917 C3918 1.365 1_655 S
C3918 H3904 0.958 . S
C3918 C3917 1.365 1_455 S
C3918 C3919 1.385 1_455 S
C3919 C3918 1.385 1_655 S
C3919 C3920 1.387 . S
C3920 H3905 0.930 . S
C3920 C3915 1.390 . S
C3920 C3919 1.387 . S
H3921 C3933 0.930 . S
H3922 C3935 0.930 . S
H3923 C3936 0.930 . S
H3924 C3940 0.959 . S
H3925 C3940 0.959 . S
H3926 C3940 0.961 . S
H3927 C3941 0.960 . S
H3928 C3941 0.961 . S
H3929 C3941 0.959 . S
H3930 C3944 0.929 . S
H3931 C3945 0.931 . S
H3932 C3947 0.930 . S
C3933 H3921 0.930 . S
C3933 C3934 1.399 . S
C3933 C3938 1.399 . S
C3934 C3933 1.399 . S
C3934 C3935 1.376 . S
C3935 H3922 0.930 . S
C3935 C3934 1.376 . S
C3935 C3936 1.388 . S
C3936 H3923 0.930 . S
C3936 C3935 1.388 . S
C3936 C3937 1.390 . S
C3937 C3936 1.390 . S
C3937 C3938 1.394 . S
C3937 C3943 1.465 . S
C3938 C3933 1.399 . S
C3938 C3937 1.394 . S
C3938 C3939 1.516 . S
C3939 C3938 1.516 . S
C3939 C3940 1.502 . S
C3939 C3941 1.561 . S
C3939 C3942 1.526 . S
C3940 H3924 0.959 . S
C3940 H3925 0.959 . S
C3940 H3926 0.961 . S
C3940 C3939 1.502 . S
C3941 H3927 0.960 . S
C3941 H3928 0.961 . S
C3941 H3929 0.959 . S
C3941 C3939 1.561 . S
C3942 C3939 1.526 . S
C3942 C3943 1.396 . S
C3942 C3947 1.390 . S
C3943 C3937 1.465 . S
C3943 C3942 1.396 . S
C3943 C3944 1.399 . S
C3944 H3930 0.929 . S
C3944 C3943 1.399 . S
C3944 C3945 1.385 . S
C3945 H3931 0.931 . S
C3945 C3944 1.385 . S
C3945 C3946 1.389 . S
C3946 C3945 1.389 . S
C3946 C3947 1.387 . S
C3947 H3932 0.930 . S
C3947 C3942 1.390 . S
C3947 C3946 1.387 . S
H3948 C3960 0.930 . S
H3949 C3962 0.930 . S
H3950 C3963 0.930 . S
H3951 C3967 0.959 . S
H3952 C3967 0.959 . S
H3953 C3967 0.961 . S
H3954 C3968 0.960 . S
H3955 C3968 0.961 . S
H3956 C3968 0.959 . S
H3957 C3971 0.929 . S
H3958 C3972 0.931 . S
H3959 C3974 0.930 . S
C3960 H3948 0.930 . S
C3960 C3961 1.399 . S
C3960 C3965 1.399 . S
C3961 C3960 1.399 . S
C3961 C3962 1.376 . S
C3962 H3949 0.930 . S
C3962 C3961 1.376 . S
C3962 C3963 1.388 . S
C3963 H3950 0.930 . S
C3963 C3962 1.388 . S
C3963 C3964 1.390 . S
C3964 C3963 1.390 . S
C3964 C3965 1.394 . S
C3964 C3970 1.465 . S
C3965 C3960 1.399 . S
C3965 C3964 1.394 . S
C3965 C3966 1.516 . S
C3966 C3965 1.516 . S
C3966 C3967 1.502 . S
C3966 C3968 1.561 . S
C3966 C3969 1.526 . S
C3967 H3951 0.959 . S
C3967 H3952 0.959 . S
C3967 H3953 0.961 . S
C3967 C3966 1.502 . S
C3968 H3954 0.960 . S
C3968 H3955 0.961 . S
C3968 H3956 0.959 . S
C3968 C3966 1.561 . S
C3969 C3966 1.526 . S
C3969 C3970 1.396 . S
C3969 C3974 1.390 . S
C3970 C3964 1.465 . S
C3970 C3969 1.396 . S
C3970 C3971 1.399 . S
C3971 H3957 0.929 . S
C3971 C3970 1.399 . S
C3971 C3972 1.385 . S
C3972 H3958 0.931 . S
C3972 C3971 1.385 . S
C3972 C3973 1.389 . S
C3973 C3972 1.389 . S
C3973 C3974 1.387 . S
C3974 H3959 0.930 . S
C3974 C3969 1.390 . S
C3974 C3973 1.387 . S
H3975 C3987 0.930 . S
H3976 C3989 0.930 . S
H3977 C3990 0.930 . S
H3978 C3994 0.959 . S
H3979 C3994 0.959 . S
H3980 C3994 0.961 . S
H3981 C3995 0.960 . S
H3982 C3995 0.961 . S
H3983 C3995 0.959 . S
H3984 C3998 0.929 . S
H3985 C3999 0.931 . S
H3986 C4001 0.930 . S
C3987 H3975 0.930 . S
C3987 C3988 1.399 . S
C3987 C3992 1.399 . S
C3988 C3987 1.399 . S
C3988 C3989 1.376 . S
C3989 H3976 0.930 . S
C3989 C3988 1.376 . S
C3989 C3990 1.388 . S
C3990 H3977 0.930 . S
C3990 C3989 1.388 . S
C3990 C3991 1.390 . S
C3991 C3990 1.390 . S
C3991 C3992 1.394 . S
C3991 C3997 1.465 . S
C3992 C3987 1.399 . S
C3992 C3991 1.394 . S
C3992 C3993 1.516 . S
C3993 C3992 1.516 . S
C3993 C3994 1.502 . S
C3993 C3995 1.561 . S
C3993 C3996 1.526 . S
C3994 H3978 0.959 . S
C3994 H3979 0.959 . S
C3994 H3980 0.961 . S
C3994 C3993 1.502 . S
C3995 H3981 0.960 . S
C3995 H3982 0.961 . S
C3995 H3983 0.959 . S
C3995 C3993 1.561 . S
C3996 C3993 1.526 . S
C3996 C3997 1.396 . S
C3996 C4001 1.390 . S
C3997 C3991 1.465 . S
C3997 C3996 1.396 . S
C3997 C3998 1.399 . S
C3998 H3984 0.929 . S
C3998 C3997 1.399 . S
C3998 C3999 1.385 . S
C3999 H3985 0.931 . S
C3999 C3998 1.385 . S
C3999 C4000 1.389 . S
C4000 C3999 1.389 . S
C4000 C4001 1.387 . S
C4001 H3986 0.930 . S
C4001 C3996 1.390 . S
C4001 C4000 1.387 . S
H4002 C4014 0.930 . S
H4003 C4016 0.930 . S
H4004 C4017 0.930 . S
H4005 C4021 0.959 . S
H4006 C4021 0.959 . S
H4007 C4021 0.961 . S
H4008 C4022 0.960 . S
H4009 C4022 0.961 . S
H4010 C4022 0.959 . S
H4011 C4025 0.929 . S
H4012 C4026 0.931 . S
H4013 C4028 0.930 . S
C4014 H4002 0.930 . S
C4014 C4015 1.399 . S
C4014 C4019 1.399 . S
C4015 C4014 1.399 . S
C4015 C4016 1.376 . S
C4016 H4003 0.930 . S
C4016 C4015 1.376 . S
C4016 C4017 1.388 . S
C4017 H4004 0.930 . S
C4017 C4016 1.388 . S
C4017 C4018 1.390 . S
C4018 C4017 1.390 . S
C4018 C4019 1.394 . S
C4018 C4024 1.465 . S
C4019 C4014 1.399 . S
C4019 C4018 1.394 . S
C4019 C4020 1.516 . S
C4020 C4019 1.516 . S
C4020 C4021 1.502 . S
C4020 C4022 1.561 . S
C4020 C4023 1.526 . S
C4021 H4005 0.959 . S
C4021 H4006 0.959 . S
C4021 H4007 0.961 . S
C4021 C4020 1.502 . S
C4022 H4008 0.960 . S
C4022 H4009 0.961 . S
C4022 H4010 0.959 . S
C4022 C4020 1.561 . S
C4023 C4020 1.526 . S
C4023 C4024 1.396 . S
C4023 C4028 1.390 . S
C4024 C4018 1.465 . S
C4024 C4023 1.396 . S
C4024 C4025 1.399 . S
C4025 H4011 0.929 . S
C4025 C4024 1.399 . S
C4025 C4026 1.385 . S
C4026 H4012 0.931 . S
C4026 C4025 1.385 . S
C4026 C4027 1.389 . S
C4027 C4026 1.389 . S
C4027 C4028 1.387 . S
C4028 H4013 0.930 . S
C4028 C4023 1.390 . S
C4028 C4027 1.387 . S
H4029 C4041 0.930 . S
H4030 C4043 0.930 . S
H4031 C4044 0.930 . S
H4032 C4048 0.959 . S
H4033 C4048 0.959 . S
H4034 C4048 0.961 . S
H4035 C4049 0.960 . S
H4036 C4049 0.961 . S
H4037 C4049 0.959 . S
H4038 C4052 0.929 . S
H4039 C4053 0.931 . S
H4040 C4055 0.930 . S
C4041 H4029 0.930 . S
C4041 C4042 1.399 . S
C4041 C4046 1.399 . S
C4042 C4041 1.399 . S
C4042 C4043 1.376 . S
C4043 H4030 0.930 . S
C4043 C4042 1.376 . S
C4043 C4044 1.388 . S
C4044 H4031 0.930 . S
C4044 C4043 1.388 . S
C4044 C4045 1.390 . S
C4045 C4044 1.390 . S
C4045 C4046 1.394 . S
C4045 C4051 1.465 . S
C4046 C4041 1.399 . S
C4046 C4045 1.394 . S
C4046 C4047 1.516 . S
C4047 C4046 1.516 . S
C4047 C4048 1.502 . S
C4047 C4049 1.561 . S
C4047 C4050 1.526 . S
C4048 H4032 0.959 . S
C4048 H4033 0.959 . S
C4048 H4034 0.961 . S
C4048 C4047 1.502 . S
C4049 H4035 0.960 . S
C4049 H4036 0.961 . S
C4049 H4037 0.959 . S
C4049 C4047 1.561 . S
C4050 C4047 1.526 . S
C4050 C4051 1.396 . S
C4050 C4055 1.390 . S
C4051 C4045 1.465 . S
C4051 C4050 1.396 . S
C4051 C4052 1.399 . S
C4052 H4038 0.929 . S
C4052 C4051 1.399 . S
C4052 C4053 1.385 . S
C4053 H4039 0.931 . S
C4053 C4052 1.385 . S
C4053 C4054 1.389 . S
C4054 C4053 1.389 . S
C4054 C4055 1.387 . S
C4055 H4040 0.930 . S
C4055 C4050 1.390 . S
C4055 C4054 1.387 . S
H4056 C4068 0.930 . S
H4057 C4070 0.930 . S
H4058 C4071 0.930 . S
H4059 C4075 0.959 . S
H4060 C4075 0.959 . S
H4061 C4075 0.961 . S
H4062 C4076 0.960 . S
H4063 C4076 0.961 . S
H4064 C4076 0.959 . S
H4065 C4079 0.929 . S
H4066 C4080 0.931 . S
H4067 C4082 0.930 . S
C4068 H4056 0.930 . S
C4068 C4069 1.399 . S
C4068 C4073 1.399 . S
C4069 C4068 1.399 . S
C4069 C4070 1.376 . S
C4070 H4057 0.930 . S
C4070 C4069 1.376 . S
C4070 C4071 1.388 . S
C4071 H4058 0.930 . S
C4071 C4070 1.388 . S
C4071 C4072 1.390 . S
C4072 C4071 1.390 . S
C4072 C4073 1.394 . S
C4072 C4078 1.465 . S
C4073 C4068 1.399 . S
C4073 C4072 1.394 . S
C4073 C4074 1.516 . S
C4074 C4073 1.516 . S
C4074 C4075 1.502 . S
C4074 C4076 1.561 . S
C4074 C4077 1.526 . S
C4075 H4059 0.959 . S
C4075 H4060 0.959 . S
C4075 H4061 0.961 . S
C4075 C4074 1.502 . S
C4076 H4062 0.960 . S
C4076 H4063 0.961 . S
C4076 H4064 0.959 . S
C4076 C4074 1.561 . S
C4077 C4074 1.526 . S
C4077 C4078 1.396 . S
C4077 C4082 1.390 . S
C4078 C4072 1.465 . S
C4078 C4077 1.396 . S
C4078 C4079 1.399 . S
C4079 H4065 0.929 . S
C4079 C4078 1.399 . S
C4079 C4080 1.385 . S
C4080 H4066 0.931 . S
C4080 C4079 1.385 . S
C4080 C4081 1.389 . S
C4081 C4080 1.389 . S
C4081 C4082 1.387 . S
C4082 H4067 0.930 . S
C4082 C4077 1.390 . S
C4082 C4081 1.387 . S
H4083 C4095 0.930 . S
H4084 C4097 0.930 . S
H4085 C4098 0.930 . S
H4086 C4102 0.959 . S
H4087 C4102 0.960 . S
H4088 C4102 0.961 . S
H4089 C4103 0.960 . S
H4090 C4103 0.961 1_545 S
H4091 C4103 0.959 . S
H4092 C4106 0.929 . S
H4093 C4107 0.931 . S
H4094 C4109 0.930 1_545 S
C4095 H4083 0.930 . S
C4095 C4096 1.399 . S
C4095 C4100 1.399 . S
C4096 C4095 1.399 . S
C4096 C4097 1.376 . S
C4097 H4084 0.930 . S
C4097 C4096 1.376 . S
C4097 C4098 1.388 . S
C4098 H4085 0.930 . S
C4098 C4097 1.388 . S
C4098 C4099 1.390 . S
C4099 C4098 1.390 . S
C4099 C4100 1.394 . S
C4099 C4105 1.465 . S
C4100 C4095 1.399 . S
C4100 C4099 1.394 . S
C4100 C4101 1.516 . S
C4101 C4100 1.516 . S
C4101 C4102 1.502 . S
C4101 C4103 1.561 . S
C4101 C4104 1.526 . S
C4102 H4086 0.959 . S
C4102 H4087 0.960 . S
C4102 H4088 0.961 . S
C4102 C4101 1.502 . S
C4103 H4089 0.960 . S
C4103 H4090 0.961 1_565 S
C4103 H4091 0.959 . S
C4103 C4101 1.561 . S
C4104 C4101 1.526 . S
C4104 C4105 1.396 . S
C4104 C4109 1.390 . S
C4105 C4099 1.465 . S
C4105 C4104 1.396 . S
C4105 C4106 1.399 . S
C4106 H4092 0.929 . S
C4106 C4105 1.399 . S
C4106 C4107 1.385 . S
C4107 H4093 0.931 . S
C4107 C4106 1.385 . S
C4107 C4108 1.389 . S
C4108 C4107 1.389 . S
C4108 C4109 1.387 . S
C4109 H4094 0.930 1_565 S
C4109 C4104 1.390 . S
C4109 C4108 1.387 . S
H4110 C4122 0.930 . S
H4111 C4124 0.930 . S
H4112 C4125 0.930 . S
H4113 C4129 0.959 . S
H4114 C4129 0.959 . S
H4115 C4129 0.961 . S
H4116 C4130 0.960 . S
H4117 C4130 0.961 . S
H4118 C4130 0.959 . S
H4119 C4133 0.929 . S
H4120 C4134 0.931 . S
H4121 C4136 0.930 . S
C4122 H4110 0.930 . S
C4122 C4123 1.399 . S
C4122 C4127 1.399 . S
C4123 C4122 1.399 . S
C4123 C4124 1.376 . S
C4124 H4111 0.930 . S
C4124 C4123 1.376 . S
C4124 C4125 1.388 . S
C4125 H4112 0.930 . S
C4125 C4124 1.388 . S
C4125 C4126 1.390 . S
C4126 C4125 1.390 . S
C4126 C4127 1.394 . S
C4126 C4132 1.465 . S
C4127 C4122 1.399 . S
C4127 C4126 1.394 . S
C4127 C4128 1.516 . S
C4128 C4127 1.516 . S
C4128 C4129 1.502 . S
C4128 C4130 1.561 . S
C4128 C4131 1.526 . S
C4129 H4113 0.959 . S
C4129 H4114 0.959 . S
C4129 H4115 0.961 . S
C4129 C4128 1.502 . S
C4130 H4116 0.960 . S
C4130 H4117 0.961 . S
C4130 H4118 0.959 . S
C4130 C4128 1.561 . S
C4131 C4128 1.526 . S
C4131 C4132 1.396 . S
C4131 C4136 1.390 . S
C4132 C4126 1.465 . S
C4132 C4131 1.396 . S
C4132 C4133 1.399 . S
C4133 H4119 0.929 . S
C4133 C4132 1.399 . S
C4133 C4134 1.385 . S
C4134 H4120 0.931 . S
C4134 C4133 1.385 . S
C4134 C4135 1.389 . S
C4135 C4134 1.389 . S
C4135 C4136 1.387 . S
C4136 H4121 0.930 . S
C4136 C4131 1.390 . S
C4136 C4135 1.387 . S
H4137 C4149 0.930 . S
H4138 C4151 0.930 . S
H4139 C4152 0.930 . S
H4140 C4156 0.959 . S
H4141 C4156 0.959 . S
H4142 C4156 0.961 . S
H4143 C4157 0.960 . S
H4144 C4157 0.961 . S
H4145 C4157 0.959 . S
H4146 C4160 0.929 1_556 S
H4147 C4161 0.931 1_556 S
H4148 C4163 0.930 . S
C4149 H4137 0.930 . S
C4149 C4150 1.399 . S
C4149 C4154 1.399 . S
C4150 C4149 1.399 . S
C4150 C4151 1.376 . S
C4151 H4138 0.930 . S
C4151 C4150 1.376 . S
C4151 C4152 1.388 . S
C4152 H4139 0.930 . S
C4152 C4151 1.388 . S
C4152 C4153 1.390 . S
C4153 C4152 1.390 . S
C4153 C4154 1.394 . S
C4153 C4159 1.465 . S
C4154 C4149 1.399 . S
C4154 C4153 1.394 . S
C4154 C4155 1.516 . S
C4155 C4154 1.516 . S
C4155 C4156 1.502 . S
C4155 C4157 1.561 . S
C4155 C4158 1.526 . S
C4156 H4140 0.959 . S
C4156 H4141 0.959 . S
C4156 H4142 0.961 . S
C4156 C4155 1.502 . S
C4157 H4143 0.960 . S
C4157 H4144 0.961 . S
C4157 H4145 0.959 . S
C4157 C4155 1.561 . S
C4158 C4155 1.526 . S
C4158 C4159 1.396 . S
C4158 C4163 1.390 . S
C4159 C4153 1.465 . S
C4159 C4158 1.396 . S
C4159 C4160 1.399 . S
C4160 H4146 0.929 1_554 S
C4160 C4159 1.399 . S
C4160 C4161 1.385 . S
C4161 H4147 0.931 1_554 S
C4161 C4160 1.385 . S
C4161 C4162 1.389 . S
C4162 C4161 1.389 . S
C4162 C4163 1.387 . S
C4163 H4148 0.930 . S
C4163 C4158 1.390 . S
C4163 C4162 1.387 . S
H4164 C4176 0.930 . S
H4165 C4178 0.930 . S
H4166 C4179 0.930 . S
H4167 C4183 0.959 . S
H4168 C4183 0.959 . S
H4169 C4183 0.961 . S
H4170 C4184 0.960 . S
H4171 C4184 0.961 . S
H4172 C4184 0.959 . S
H4173 C4187 0.929 . S
H4174 C4188 0.931 . S
H4175 C4190 0.930 . S
C4176 H4164 0.930 . S
C4176 C4177 1.399 . S
C4176 C4181 1.399 . S
C4177 C4176 1.399 . S
C4177 C4178 1.376 . S
C4178 H4165 0.930 . S
C4178 C4177 1.376 . S
C4178 C4179 1.388 . S
C4179 H4166 0.930 . S
C4179 C4178 1.388 . S
C4179 C4180 1.390 . S
C4180 C4179 1.390 . S
C4180 C4181 1.394 . S
C4180 C4186 1.465 . S
C4181 C4176 1.399 . S
C4181 C4180 1.394 . S
C4181 C4182 1.516 . S
C4182 C4181 1.516 . S
C4182 C4183 1.502 . S
C4182 C4184 1.561 . S
C4182 C4185 1.526 . S
C4183 H4167 0.959 . S
C4183 H4168 0.959 . S
C4183 H4169 0.961 . S
C4183 C4182 1.502 . S
C4184 H4170 0.960 . S
C4184 H4171 0.961 . S
C4184 H4172 0.959 . S
C4184 C4182 1.561 . S
C4185 C4182 1.526 . S
C4185 C4186 1.396 . S
C4185 C4190 1.390 . S
C4186 C4180 1.465 . S
C4186 C4185 1.396 . S
C4186 C4187 1.399 . S
C4187 H4173 0.929 . S
C4187 C4186 1.399 . S
C4187 C4188 1.385 . S
C4188 H4174 0.931 . S
C4188 C4187 1.385 . S
C4188 C4189 1.389 . S
C4189 C4188 1.389 . S
C4189 C4190 1.387 . S
C4190 H4175 0.930 . S
C4190 C4185 1.390 . S
C4190 C4189 1.387 . S
H4191 C4203 0.930 . S
H4192 C4205 0.930 . S
H4193 C4206 0.930 1_556 S
H4194 C4210 0.959 . S
H4195 C4210 0.959 . S
H4196 C4210 0.961 . S
H4197 C4211 0.960 . S
H4198 C4211 0.961 . S
H4199 C4211 0.959 . S
H4200 C4214 0.929 . S
H4201 C4215 0.960 . S
H4202 C4217 0.930 . S
C4203 H4191 0.930 . S
C4203 C4204 1.399 . S
C4203 C4208 1.399 . S
C4204 C4203 1.399 . S
C4204 C4205 1.376 . S
C4205 H4192 0.930 . S
C4205 C4204 1.376 . S
C4205 C4206 1.388 . S
C4206 H4193 0.930 1_554 S
C4206 C4205 1.388 . S
C4206 C4207 1.390 . S
C4207 C4206 1.390 . S
C4207 C4208 1.394 . S
C4207 C4213 1.465 . S
C4208 C4203 1.399 . S
C4208 C4207 1.394 . S
C4208 C4209 1.516 . S
C4209 C4208 1.516 . S
C4209 C4210 1.502 . S
C4209 C4211 1.561 . S
C4209 C4212 1.526 . S
C4210 H4194 0.959 . S
C4210 H4195 0.959 . S
C4210 H4196 0.961 . S
C4210 C4209 1.502 . S
C4211 H4197 0.960 . S
C4211 H4198 0.961 . S
C4211 H4199 0.959 . S
C4211 C4209 1.561 . S
C4212 C4209 1.526 . S
C4212 C4213 1.396 . S
C4212 C4217 1.390 . S
C4213 C4207 1.465 . S
C4213 C4212 1.396 . S
C4213 C4214 1.399 1_554 S
C4214 H4200 0.929 . S
C4214 C4213 1.399 1_556 S
C4214 C4215 1.390 . S
C4215 H4201 0.960 . S
C4215 C4214 1.390 . S
C4215 C4216 1.357 1_556 S
C4216 C4215 1.357 1_554 S
C4216 C4217 1.387 . S
C4217 H4202 0.930 . S
C4217 C4212 1.390 . S
C4217 C4216 1.387 . S
H4218 C4230 0.930 . S
H4219 C4232 0.930 . S
H4220 C4233 0.930 . S
H4221 C4237 0.959 . S
H4222 C4237 0.959 . S
H4223 C4237 0.961 . S
H4224 C4238 0.960 . S
H4225 C4238 0.961 . S
H4226 C4238 0.959 . S
H4227 C4241 0.929 . S
H4228 C4242 0.931 . S
H4229 C4244 0.930 . S
C4230 H4218 0.930 . S
C4230 C4231 1.399 . S
C4230 C4235 1.399 . S
C4231 C4230 1.399 . S
C4231 C4232 1.376 . S
C4232 H4219 0.930 . S
C4232 C4231 1.376 . S
C4232 C4233 1.388 . S
C4233 H4220 0.930 . S
C4233 C4232 1.388 . S
C4233 C4234 1.390 . S
C4234 C4233 1.390 . S
C4234 C4235 1.394 . S
C4234 C4240 1.465 . S
C4235 C4230 1.399 . S
C4235 C4234 1.394 . S
C4235 C4236 1.516 . S
C4236 C4235 1.516 . S
C4236 C4237 1.502 . S
C4236 C4238 1.561 . S
C4236 C4239 1.526 . S
C4237 H4221 0.959 . S
C4237 H4222 0.959 . S
C4237 H4223 0.961 . S
C4237 C4236 1.502 . S
C4238 H4224 0.960 . S
C4238 H4225 0.961 . S
C4238 H4226 0.959 . S
C4238 C4236 1.561 . S
C4239 C4236 1.526 . S
C4239 C4240 1.396 . S
C4239 C4244 1.390 . S
C4240 C4234 1.465 . S
C4240 C4239 1.396 . S
C4240 C4241 1.399 . S
C4241 H4227 0.929 . S
C4241 C4240 1.399 . S
C4241 C4242 1.385 . S
C4242 H4228 0.931 . S
C4242 C4241 1.385 . S
C4242 C4243 1.389 . S
C4243 C4242 1.389 . S
C4243 C4244 1.387 . S
C4244 H4229 0.930 . S
C4244 C4239 1.390 . S
C4244 C4243 1.387 . S
H4245 C4257 0.930 . S
H4246 C4259 0.930 . S
H4247 C4260 0.930 . S
H4248 C4264 0.959 . S
H4249 C4264 0.959 . S
H4250 C4264 0.961 . S
H4251 C4265 0.960 . S
H4252 C4265 0.961 . S
H4253 C4265 0.959 . S
H4254 C4268 0.929 . S
H4255 C4269 0.931 . S
H4256 C4271 0.930 . S
C4257 H4245 0.930 . S
C4257 C4258 1.399 . S
C4257 C4262 1.399 . S
C4258 C4257 1.399 . S
C4258 C4259 1.376 . S
C4259 H4246 0.930 . S
C4259 C4258 1.376 . S
C4259 C4260 1.388 . S
C4260 H4247 0.930 . S
C4260 C4259 1.388 . S
C4260 C4261 1.390 . S
C4261 C4260 1.390 . S
C4261 C4262 1.394 . S
C4261 C4267 1.465 . S
C4262 C4257 1.399 . S
C4262 C4261 1.394 . S
C4262 C4263 1.516 . S
C4263 C4262 1.516 . S
C4263 C4264 1.502 . S
C4263 C4265 1.561 . S
C4263 C4266 1.526 . S
C4264 H4248 0.959 . S
C4264 H4249 0.959 . S
C4264 H4250 0.961 . S
C4264 C4263 1.502 . S
C4265 H4251 0.960 . S
C4265 H4252 0.961 . S
C4265 H4253 0.959 . S
C4265 C4263 1.561 . S
C4266 C4263 1.526 . S
C4266 C4267 1.396 . S
C4266 C4271 1.390 . S
C4267 C4261 1.465 . S
C4267 C4266 1.396 . S
C4267 C4268 1.399 . S
C4268 H4254 0.929 . S
C4268 C4267 1.399 . S
C4268 C4269 1.385 . S
C4269 H4255 0.931 . S
C4269 C4268 1.385 . S
C4269 C4270 1.389 . S
C4270 C4269 1.389 . S
C4270 C4271 1.387 . S
C4271 H4256 0.930 . S
C4271 C4266 1.390 . S
C4271 C4270 1.387 . S
C1693 C111 2.070 1_455 S
C1705 C403 2.094 . S
C1720 C64 1.810 . S
C1732 C476 1.896 . S
C1747 C77 1.770 . S
C1759 C571 1.782 . S
C1786 C646 1.192 . S
C1774 C95 1.321 . S
C1801 C25 1.344 . S
C1813 C730 1.189 . S
C1840 C823 1.854 . S
C1828 C36 1.773 . S
C1867 C896 1.892 . S
C1855 C50 1.858 . S
C1882 C11 1.986 . S
C1894 C991 2.017 . S
C1921 C392 1.571 . S
C1909 C237 1.565 . S
C1936 C245 0.898 . S
C1948 C478 0.823 . S
C1975 C560 1.057 . S
C1963 C279 1.018 . S
C2002 C655 1.540 . S
C1990 C175 1.545 1_556 S
C2017 C231 1.515 . S
C2029 C739 1.496 . S
C2056 C812 1.065 . S
C2044 C251 1.050 . S
C2083 C898 0.939 . S
C2071 C273 0.881 . S
C2110 C980 1.609 . S
C2098 C181 1.609 . S
C2137 C394 0.851 . S
C2125 C165 0.904 1_554 S
C2152 C288 1.640 . S
C2164 C1064 1.680 . S
C2191 C1150 1.206 . S
C2179 C333 1.331 . S
C2218 C1243 0.762 . S
C2206 C316 0.777 . S
C2233 C123 0.883 . S
C2245 C982 0.824 . S
C2260 C137 1.300 . S
C2272 C562 1.174 . S
C2287 C330 1.608 . S
C2299 C1316 1.641 . S
C2326 C1411 0.805 . S
C2314 C302 0.780 . S
C2353 C391 2.224 . S
C2341 C63 2.197 . S
C2380 C1412 1.938 . S
C2368 C106 1.942 . S
C2395 C97 1.775 . S
C2407 C559 1.872 . S
C2422 C81 1.374 . S
C2434 C1330 1.224 . S
C2461 C742 1.270 . S
C2449 C13 1.322 . S
C2476 C55 1.832 . S
C2488 C1147 1.858 . S
C2515 C908 1.821 1_556 S
C2503 C35 1.832 . S
C2542 C1483 2.216 . S
C2530 C21 2.196 . S
C2569 C404 1.719 . S
C2557 C147 1.776 . S
C2596 C1414 0.775 . S
C2584 C321 0.820 . S
C2611 C119 1.113 . S
C2623 C572 1.082 . S
C2638 C293 1.556 . S
C2650 C1315 1.658 . S
C2665 C153 1.533 . S
C2677 C727 1.657 . S
C2704 C1160 1.072 . S
C2692 C315 1.069 . S
C2719 C125 0.796 . S
C2731 C910 0.782 . S
C2746 C287 1.773 . S
C2758 C1496 1.689 . S
C2773 C193 1.019 . S
C2785 C406 0.996 . S
C2800 C176 1.683 . S
C2812 C1076 1.667 . S
C2827 C263 1.266 . S
C2839 C826 1.193 . S
C2854 C246 0.877 . S
C2866 C1231 0.950 . S
C2893 C1498 1.009 . S
C2881 C277 0.982 . S
C2908 C221 1.286 . S
C2920 C574 1.195 . S
C2947 C656 1.714 . S
C2935 C260 1.709 . S
C2974 C475 0.927 . S
C2962 C204 0.939 . S
C2989 C83 2.064 . S
C3001 C1579 2.090 . S
C3028 C1400 1.913 . S
C3016 C92 1.875 . S
C3043 C105 1.774 . S
C3055 C1663 1.778 . S
C3070 C67 1.331 . S
C3082 C1318 1.162 . S
C3097 C53 1.341 . S
C3109 C1066 1.210 . S
C3136 C1159 1.854 . S
C3124 C8 1.771 1_655 S
C3163 C1232 1.886 . S
C3151 C22 1.795 . S
C3190 C1495 2.028 . S
C3178 C39 1.993 . S
C3217 C1568 1.628 . S
C3205 C265 1.623 . S
C3232 C189 0.857 . S
C3244 C1402 0.769 . S
C3271 C1652 1.061 . S
C3259 C209 1.053 . S
C3298 C1327 1.552 . S
C3286 C217 1.539 . S
C3325 C1075 1.497 . S
C3313 C259 1.516 . S
C3340 C195 1.016 . S
C3352 C1148 1.033 . S
C3379 C1234 0.800 . S
C3367 C203 0.917 . S
C3394 C223 1.589 . S
C3406 C1484 1.602 . S
C3433 C1570 0.903 . S
C3421 C319 0.914 . S
C3448 C134 1.598 . S
C3460 C728 1.682 . S
C3487 C814 1.305 . S
C3475 C151 1.330 1_565 S
C3514 C907 0.789 . S
C3502 C162 0.721 . S
C3541 C1486 0.935 . S
C3529 C305 0.911 . S
C3556 C291 1.299 . S
C3568 C1654 1.179 . S
C3595 C644 1.684 . S
C3583 C148 1.626 . S
C3622 C487 0.771 . S
C3610 C120 0.800 . S
C3637 C91 2.222 . S
C3649 C1567 2.210 . S
C3676 C488 1.957 . S
C3664 C78 1.950 . S
C3691 C69 1.785 . S
C3703 C1651 1.871 . S
C3718 C109 1.379 . S
C3730 C658 1.327 . S
C3745 C41 1.361 . S
C3757 C1078 1.303 . S
C3784 C811 1.871 . S
C3772 C27 1.770 . S
C3799 C7 1.852 . S
C3811 C1244 1.871 . S
C3826 C49 2.198 . S
C3838 C979 2.214 . S
C3865 C1580 1.752 . S
C3853 C329 1.777 . S
C3880 C167 0.868 . S
C3892 C490 0.817 . S
C3919 C1664 1.101 1_655 S
C3907 C301 1.067 . S
C3934 C139 1.599 . S
C3946 C643 1.637 . S
C3961 C335 1.538 . S
C3973 C1063 1.655 . S
C4000 C824 1.061 . S
C3988 C161 1.083 . S
C4015 C307 0.949 . S
C4027 C1246 0.936 . S
C4054 C992 1.747 . S
C4042 C133 1.763 . S
C4081 C1582 0.992 . S
C4069 C249 0.952 . S
C4108 C740 1.703 1_565 S
C4096 C218 1.657 . S
C4123 C235 1.304 . S
C4135 C1162 1.281 . S
C4162 C895 0.945 . S
C4150 C190 0.896 . S
C4177 C207 0.962 . S
C4189 C994 0.997 . S
C4204 C179 1.283 . S
C4216 C1666 1.190 . S
C4243 C1328 1.693 . S
C4231 C232 1.723 . S
C4270 C1399 0.932 . S
C4258 C274 0.917 . S
