# Generated by pormake.
# Topology ssb, (4,4)-cn, num edge types: 1
# Building blocks:
#     Node 0, Type 0, BuildingBlock: NAWXER_clean_sbu_0, # of connection points: 4
#     Node 1, Type 0, BuildingBlock: NAWXER_clean_sbu_0, # of connection points: 4
#     Node 2, Type 0, BuildingBlock: NAWXER_clean_sbu_0, # of connection points: 4
#     Node 3, Type 0, BuildingBlock: NAWXER_clean_sbu_0, # of connection points: 4
#     Node 4, Type 0, BuildingBlock: NAWXER_clean_sbu_0, # of connection points: 4
#     Node 5, Type 0, BuildingBlock: NAWXER_clean_sbu_0, # of connection points: 4
#     Node 6, Type 0, BuildingBlock: NAWXER_clean_sbu_0, # of connection points: 4
#     Node 7, Type 0, BuildingBlock: NAWXER_clean_sbu_0, # of connection points: 4
#     Node 8, Type 1, BuildingBlock: NAWXER_clean_sbu_0, # of connection points: 4
#     Node 9, Type 1, BuildingBlock: NAWXER_clean_sbu_0, # of connection points: 4
#     Node 10, Type 1, BuildingBlock: NAWXER_clean_sbu_0, # of connection points: 4
#     Node 11, Type 1, BuildingBlock: NAWXER_clean_sbu_0, # of connection points: 4
#     Node 12, Type 1, BuildingBlock: NAWXER_clean_sbu_0, # of connection points: 4
#     Node 13, Type 1, BuildingBlock: NAWXER_clean_sbu_0, # of connection points: 4
#     Node 14, Type 1, BuildingBlock: NAWXER_clean_sbu_0, # of connection points: 4
#     Node 15, Type 1, BuildingBlock: NAWXER_clean_sbu_0, # of connection points: 4
#     Edge 16, Type (0, 1), BuildingBlock: KIFKEQ_clean_linker_1, # of connection points: 2
#     Edge 17, Type (0, 1), BuildingBlock: KIFKEQ_clean_linker_1, # of connection points: 2
#     Edge 18, Type (0, 1), BuildingBlock: KIFKEQ_clean_linker_1, # of connection points: 2
#     Edge 19, Type (0, 1), BuildingBlock: KIFKEQ_clean_linker_1, # of connection points: 2
#     Edge 20, Type (0, 1), BuildingBlock: KIFKEQ_clean_linker_1, # of connection points: 2
#     Edge 21, Type (0, 1), BuildingBlock: KIFKEQ_clean_linker_1, # of connection points: 2
#     Edge 22, Type (0, 1), BuildingBlock: KIFKEQ_clean_linker_1, # of connection points: 2
#     Edge 23, Type (0, 1), BuildingBlock: KIFKEQ_clean_linker_1, # of connection points: 2
#     Edge 24, Type (0, 1), BuildingBlock: KIFKEQ_clean_linker_1, # of connection points: 2
#     Edge 25, Type (0, 1), BuildingBlock: KIFKEQ_clean_linker_1, # of connection points: 2
#     Edge 26, Type (0, 1), BuildingBlock: KIFKEQ_clean_linker_1, # of connection points: 2
#     Edge 27, Type (0, 1), BuildingBlock: KIFKEQ_clean_linker_1, # of connection points: 2
#     Edge 28, Type (0, 1), BuildingBlock: KIFKEQ_clean_linker_1, # of connection points: 2
#     Edge 29, Type (0, 1), BuildingBlock: KIFKEQ_clean_linker_1, # of connection points: 2
#     Edge 30, Type (0, 1), BuildingBlock: KIFKEQ_clean_linker_1, # of connection points: 2
#     Edge 31, Type (0, 1), BuildingBlock: KIFKEQ_clean_linker_1, # of connection points: 2
#     Edge 32, Type (0, 1), BuildingBlock: KIFKEQ_clean_linker_1, # of connection points: 2
#     Edge 33, Type (0, 1), BuildingBlock: KIFKEQ_clean_linker_1, # of connection points: 2
#     Edge 34, Type (0, 1), BuildingBlock: KIFKEQ_clean_linker_1, # of connection points: 2
#     Edge 35, Type (0, 1), BuildingBlock: KIFKEQ_clean_linker_1, # of connection points: 2
#     Edge 36, Type (0, 1), BuildingBlock: KIFKEQ_clean_linker_1, # of connection points: 2
#     Edge 37, Type (0, 1), BuildingBlock: KIFKEQ_clean_linker_1, # of connection points: 2
#     Edge 38, Type (0, 1), BuildingBlock: KIFKEQ_clean_linker_1, # of connection points: 2
#     Edge 39, Type (0, 1), BuildingBlock: KIFKEQ_clean_linker_1, # of connection points: 2
#     Edge 40, Type (0, 1), BuildingBlock: KIFKEQ_clean_linker_1, # of connection points: 2
#     Edge 41, Type (0, 1), BuildingBlock: KIFKEQ_clean_linker_1, # of connection points: 2
#     Edge 42, Type (0, 1), BuildingBlock: KIFKEQ_clean_linker_1, # of connection points: 2
#     Edge 43, Type (0, 1), BuildingBlock: KIFKEQ_clean_linker_1, # of connection points: 2
#     Edge 44, Type (0, 1), BuildingBlock: KIFKEQ_clean_linker_1, # of connection points: 2
#     Edge 45, Type (0, 1), BuildingBlock: KIFKEQ_clean_linker_1, # of connection points: 2
#     Edge 46, Type (0, 1), BuildingBlock: KIFKEQ_clean_linker_1, # of connection points: 2
#     Edge 47, Type (0, 1), BuildingBlock: KIFKEQ_clean_linker_1, # of connection points: 2
# Relax obj value: 0.002
# Max RMSD: 0.009
# Mean RMSD: 0.008
data_MOF--net-ssb--node1-NAWXER_clean_sbu_0--node2-NAWXER_clean_sbu_0--edge1-KIFKEQ_clean_linker_1
_symmetry_space_group_name_H-M    P1
_symmetry_Int_Tables_number       1
_symmetry_cell_setting            triclinic
loop_
_symmetry_equiv_pos_as_xyz
'x, y, z'
_cell_length_a     45.129347
_cell_length_b     45.022658
_cell_length_c     38.029794
_cell_angle_alpha  90.063368
_cell_angle_beta   90.438469
_cell_angle_gamma 89.706218
loop_
_atom_site_label
_atom_site_type_symbol
_atom_site_fract_x
_atom_site_fract_y
_atom_site_fract_z
_atom_type_partial_charge
C0 C 0.19781 0.32171 0.32113 0.0
C1 C 0.28675 0.31684 0.24815 0.0
O2 O 0.19552 0.3038 0.295 0.0
Zn3 Zn 0.22207 0.28775 0.25249 0.0
O4 O 0.22208 0.33534 0.32629 0.0
Zn5 Zn 0.24337 0.31887 0.28628 0.0
O6 O 0.21935 0.3376 0.24178 0.0
O7 O 0.19976 0.30049 0.21163 0.0
O8 O 0.28398 0.33119 0.27678 0.0
O9 O 0.26559 0.30039 0.23705 0.0
O10 O 0.22627 0.24565 0.26212 0.0
O11 O 0.24972 0.27317 0.30117 0.0
C12 C 0.20405 0.32822 0.21542 0.0
C13 C 0.24222 0.24746 0.28971 0.0
C14 C 0.68669 0.21377 0.25431 0.0
C15 C 0.77754 0.24127 0.31638 0.0
O16 O 0.68859 0.22755 0.28347 0.0
Zn17 Zn 0.73129 0.22817 0.28617 0.0
O18 O 0.71033 0.20535 0.23856 0.0
Zn19 Zn 0.75746 0.20815 0.24553 0.0
O20 O 0.77011 0.16698 0.24951 0.0
O21 O 0.74239 0.18249 0.29378 0.0
O22 O 0.7821 0.22745 0.28748 0.0
O23 O 0.75113 0.24712 0.32566 0.0
O24 O 0.741 0.25646 0.24308 0.0
O25 O 0.76872 0.2319 0.20524 0.0
C26 C 0.75729 0.16196 0.27856 0.0
C27 C 0.755 0.25551 0.21394 0.0
C28 C 0.76775 0.69013 0.2479 0.0
C29 C 0.73947 0.77388 0.32431 0.0
O30 O 0.74944 0.68963 0.27318 0.0
Zn31 Zn 0.75392 0.73086 0.28861 0.0
O32 O 0.78149 0.71428 0.2412 0.0
Zn33 Zn 0.78376 0.75879 0.26036 0.0
O34 O 0.82455 0.76202 0.27731 0.0
O35 O 0.79814 0.73168 0.30972 0.0
O36 O 0.7588 0.78017 0.30097 0.0
O37 O 0.73081 0.74715 0.32771 0.0
O38 O 0.73474 0.7553 0.24527 0.0
O39 O 0.76984 0.78122 0.21947 0.0
C40 C 0.82291 0.74433 0.30329 0.0
C41 C 0.74274 0.77363 0.22139 0.0
C42 C 0.25353 0.73791 0.20417 0.0
C43 C 0.26767 0.83106 0.26745 0.0
O44 O 0.2448 0.76356 0.19443 0.0
Zn45 Zn 0.26248 0.78537 0.23294 0.0
O46 O 0.26878 0.73495 0.23254 0.0
Zn47 Zn 0.28703 0.76254 0.2731 0.0
O48 O 0.26751 0.74712 0.31428 0.0
O49 O 0.23741 0.77053 0.27732 0.0
O50 O 0.28013 0.8087 0.28233 0.0
O51 O 0.25666 0.82821 0.23674 0.0
O52 O 0.3081 0.77876 0.2216 0.0
O53 O 0.32963 0.75744 0.26737 0.0
C54 C 0.24176 0.75698 0.30656 0.0
C55 C 0.33123 0.76765 0.23631 0.0
C56 C 0.33584 0.7781 0.779 0.0
C57 C 0.25699 0.74297 0.69888 0.0
O58 O 0.31045 0.79001 0.78479 0.0
Zn59 Zn 0.26649 0.78911 0.76293 0.0
O60 O 0.33874 0.76057 0.75295 0.0
Zn61 Zn 0.29799 0.76193 0.73531 0.0
O62 O 0.29347 0.80567 0.71439 0.0
O63 O 0.25942 0.82921 0.74505 0.0
O64 O 0.28447 0.737 0.69571 0.0
O65 O 0.24854 0.76181 0.72201 0.0
O66 O 0.24391 0.77289 0.80237 0.0
O67 O 0.27451 0.74091 0.77733 0.0
C68 C 0.27793 0.82906 0.71999 0.0
C69 C 0.25455 0.74666 0.8002 0.0
C70 C 0.25358 0.2186 0.72655 0.0
C71 C 0.25039 0.3097 0.79574 0.0
O72 O 0.23784 0.21608 0.75435 0.0
Zn73 Zn 0.2239 0.24376 0.79759 0.0
O74 O 0.26695 0.24281 0.72032 0.0
Zn75 Zn 0.25255 0.26419 0.76057 0.0
O76 O 0.27437 0.24236 0.80396 0.0
O77 O 0.23982 0.22349 0.83816 0.0
O78 O 0.26304 0.30566 0.76639 0.0
O79 O 0.23544 0.28862 0.80947 0.0
O80 O 0.18116 0.24506 0.7901 0.0
O81 O 0.2067 0.26538 0.74721 0.0
C82 C 0.26702 0.22802 0.83168 0.0
C83 C 0.18188 0.25712 0.75991 0.0
C84 C 0.73296 0.19495 0.74878 0.0
C85 C 0.76753 0.2752 0.82603 0.0
O86 O 0.72188 0.22027 0.74026 0.0
Zn87 Zn 0.72329 0.26519 0.7596 0.0
O88 O 0.74939 0.1931 0.77599 0.0
Zn89 Zn 0.74873 0.23453 0.79016 0.0
O90 O 0.70497 0.24211 0.80932 0.0
O91 O 0.68295 0.27431 0.77414 0.0
O92 O 0.77268 0.24759 0.83014 0.0
O93 O 0.7497 0.28392 0.80166 0.0
O94 O 0.74055 0.28626 0.72005 0.0
O95 O 0.77172 0.25647 0.74823 0.0
C96 C 0.68219 0.2579 0.80128 0.0
C97 C 0.76661 0.27577 0.72412 0.0
C98 C 0.84627 0.7312 0.7563 0.0
C99 C 0.75444 0.74481 0.82198 0.0
O100 O 0.82341 0.72012 0.74122 0.0
Zn101 Zn 0.77764 0.71387 0.75087 0.0
O102 O 0.84434 0.74121 0.78749 0.0
Zn103 Zn 0.80142 0.73692 0.79207 0.0
O104 O 0.79339 0.69136 0.8021 0.0
O105 O 0.77166 0.67107 0.7558 0.0
O106 O 0.77993 0.75414 0.83136 0.0
O107 O 0.75145 0.73049 0.79306 0.0
O108 O 0.76111 0.73599 0.71139 0.0
O109 O 0.78568 0.76374 0.74963 0.0
C110 C 0.78145 0.66888 0.78715 0.0
C111 C 0.7712 0.76123 0.72069 0.0
C112 C 0.94343 0.31222 0.57275 0.0
C113 C 0.02718 0.3174 0.49093 0.0
O114 O 0.95485 0.33615 0.56133 0.0
Zn115 Zn 0.98495 0.31667 0.5323 0.0
O116 O 0.95371 0.28708 0.56265 0.0
Zn117 Zn 0.98689 0.2691 0.5291 0.0
O118 O 0.01093 0.24671 0.56165 0.0
O119 O 0.01181 0.29505 0.57183 0.0
O120 O 0.01874 0.29104 0.49819 0.0
O121 O 0.01387 0.33938 0.50489 0.0
O122 O 0.95673 0.29695 0.49317 0.0
O123 O 0.96324 0.24833 0.49475 0.0
C124 C 0.01975 0.26854 0.58012 0.0
C125 C 0.95022 0.27096 0.48178 0.0
C126 C 0.7199 0.02584 0.5737 0.0
C127 C 0.71139 0.94778 0.48295 0.0
O128 O 0.74484 0.01594 0.56267 0.0
Zn129 Zn 0.76129 0.98422 0.52584 0.0
O130 O 0.69605 0.01536 0.56075 0.0
Zn131 Zn 0.71366 0.98685 0.52789 0.0
O132 O 0.73351 0.95436 0.56124 0.0
O133 O 0.78209 0.9557 0.55519 0.0
O134 O 0.68956 0.96037 0.49808 0.0
O135 O 0.73789 0.9552 0.49119 0.0
O136 O 0.78278 0.00786 0.49212 0.0
O137 O 0.73425 0.01451 0.48945 0.0
C138 C 0.75928 0.94417 0.56899 0.0
C139 C 0.76028 0.02033 0.47808 0.0
C140 C 1.00394 0.75219 0.57691 0.0
C141 C 0.07364 0.75413 0.47914 0.0
O142 O 0.0143 0.77539 0.56248 0.0
Zn143 Zn 0.03665 0.75545 0.52579 0.0
O144 O 0.00938 0.72657 0.56365 0.0
Zn145 Zn 0.03322 0.70766 0.52072 0.0
O146 O 0.06185 0.6819 0.54551 0.0
O147 O 0.06768 0.7299 0.55603 0.0
O148 O 0.06334 0.72844 0.4863 0.0
O149 O 0.0638 0.7769 0.4953 0.0
O150 O 1.00332 0.74147 0.4899 0.0
O151 O 1.00228 0.69262 0.48851 0.0
C152 C 0.07555 0.70288 0.56115 0.0
C153 C 0.99218 0.71746 0.47767 0.0
C154 C 0.23581 0.06315 0.53926 0.0
C155 C 0.23557 0.99274 0.44129 0.0
O156 O 0.26161 0.05585 0.52834 0.0
Zn157 Zn 0.28172 0.02907 0.48893 0.0
O158 O 0.21273 0.05268 0.52439 0.0
Zn159 Zn 0.23372 0.02728 0.49129 0.0
O160 O 0.25606 0.99766 0.52626 0.0
O161 O 0.30433 1.00042 0.51783 0.0
O162 O 0.21299 1.00075 0.45883 0.0
O163 O 0.26137 1.00175 0.45037 0.0
O164 O 0.30004 0.05957 0.45905 0.0
O165 O 0.25116 0.05969 0.45664 0.0
C166 C 0.28244 0.98932 0.5341 0.0
C167 C 0.27596 0.07015 0.44638 0.0
C168 C 0.49954 0.75807 0.06786 0.0
C169 C 0.57367 0.75743 0.97506 0.0
O170 O 0.5055 0.78404 0.05627 0.0
Zn171 Zn 0.53164 0.80377 1.01628 0.0
O172 O 0.51107 0.73538 0.05337 0.0
Zn173 Zn 0.53491 0.75615 0.01899 0.0
O174 O 0.56637 0.78018 0.05035 0.0
O175 O 0.55841 0.8285 0.04474 0.0
O176 O 0.56244 0.73463 0.98952 0.0
O177 O 0.56364 0.78336 0.98245 0.0
O178 O 0.50259 0.82056 0.9827 0.0
O179 O 0.50357 0.77172 0.9812 0.0
C180 C 0.57341 0.80701 0.0577 0.0
C181 C 0.49316 0.79634 0.96952 0.0
C182 C 0.24614 0.55934 0.04733 0.0
C183 C 0.25019 0.48923 0.94985 0.0
O184 O 0.269 0.5464 0.03525 0.0
Zn185 Zn 0.24893 0.52364 0.99917 0.0
O186 O 0.2206 0.5539 0.03399 0.0
Zn187 Zn 0.20184 0.52793 0.99256 0.0
O188 O 0.17595 0.50113 0.01859 0.0
O189 O 0.22355 0.49206 0.02756 0.0
O190 O 0.22378 0.49862 0.95588 0.0
O191 O 0.27164 0.4982 0.96888 0.0
O192 O 0.23468 0.55799 0.9645 0.0
O193 O 0.18585 0.55942 0.96205 0.0
C194 C 0.19635 0.48564 0.03297 0.0
C195 C 0.21076 0.56985 0.9527 0.0
C196 C 0.51994 0.26489 0.98314 0.0
C197 C 0.45092 0.28344 0.07927 0.0
O198 O 0.51071 0.28953 0.99518 0.0
Zn199 Zn 0.48482 0.2742 0.03124 0.0
O200 O 0.51052 0.24069 0.99676 0.0
Zn201 Zn 0.48058 0.22803 0.0378 0.0
O202 O 0.45065 0.20597 1.01293 0.0
O203 O 0.4488 0.25414 1.00237 0.0
O204 O 0.45524 0.25558 0.07388 0.0
O205 O 0.46364 0.3024 0.05985 0.0
O206 O 0.51459 0.25423 0.06952 0.0
O207 O 0.50545 0.20611 0.06956 0.0
C208 C 0.43837 0.22795 0.99778 0.0
C209 C 0.51984 0.22808 0.08162 0.0
C210 C 0.79155 0.52248 0.07246 0.0
C211 C 0.8072 0.44446 0.98335 0.0
O212 O 0.81633 0.51283 0.06138 0.0
Zn213 Zn 0.8016 0.48359 0.02725 0.0
O214 O 0.76759 0.51197 0.05933 0.0
Zn215 Zn 0.75406 0.48027 0.02118 0.0
O216 O 0.73277 0.45098 0.04892 0.0
O217 O 0.78099 0.45111 0.05895 0.0
O218 O 0.78012 0.45154 0.98887 0.0
O219 O 0.82793 0.45714 1.00061 0.0
O220 O 0.78282 0.5094 0.98546 0.0
O221 O 0.73413 0.50419 0.98547 0.0
C222 C 0.75536 0.44021 0.06474 0.0
C223 C 0.75734 0.51517 0.97193 0.0
H224 H 0.14267 0.29852 0.31322 0.0
H225 H 0.19476 0.35349 0.3832 0.0
H226 H 0.10142 0.30101 0.35363 0.0
H227 H 0.153 0.35569 0.42421 0.0
H228 H 0.05701 0.36878 0.47287 0.0
H229 H 0.09838 0.37319 0.43137 0.0
H230 H 0.09506 0.2787 0.41249 0.0
H231 H 0.05433 0.27425 0.45304 0.0
C232 C 0.14535 0.31127 0.3372 0.0
C233 C 0.17225 0.32548 0.34513 0.0
C234 C 0.12163 0.31264 0.36042 0.0
C235 C 0.12407 0.32823 0.39232 0.0
C236 C 0.15046 0.34358 0.39976 0.0
C237 C 0.1744 0.34217 0.37638 0.0
C238 C 0.06515 0.34903 0.45974 0.0
C239 C 0.05219 0.32121 0.46618 0.0
C240 C 0.08889 0.35154 0.43617 0.0
C241 C 0.09975 0.32633 0.41841 0.0
C242 C 0.0869 0.29863 0.42524 0.0
C243 C 0.06355 0.2961 0.44873 0.0
H244 H 0.71456 0.12303 0.29517 0.0
H245 H 0.8081 0.13958 0.30652 0.0
H246 H 0.7176 0.08503 0.34068 0.0
H247 H 0.81116 0.10266 0.35365 0.0
H248 H 0.8062 0.02365 0.43114 0.0
H249 H 0.80744 0.05277 0.37673 0.0
H250 H 0.72212 0.09089 0.4022 0.0
H251 H 0.72053 0.06133 0.45528 0.0
C252 C 0.73595 0.11778 0.3068 0.0
C253 C 0.76114 0.1338 0.29732 0.0
C254 C 0.73768 0.09643 0.33327 0.0
C255 C 0.76447 0.09141 0.3516 0.0
C256 C 0.79021 0.1059 0.34011 0.0
C257 C 0.78854 0.12692 0.31303 0.0
C258 C 0.78788 0.03845 0.42508 0.0
C259 C 0.76318 0.04008 0.44732 0.0
C260 C 0.78853 0.05505 0.3939 0.0
C261 C 0.76457 0.07367 0.38461 0.0
C262 C 0.7405 0.07601 0.40774 0.0
C263 C 0.73972 0.05931 0.43849 0.0
H264 H 0.82692 0.70517 0.35813 0.0
H265 H 0.87798 0.77013 0.3015 0.0
H266 H 0.86844 0.69708 0.39837 0.0
H267 H 0.91974 0.7617 0.3416 0.0
H268 H 0.97088 0.76755 0.4461 0.0
H269 H 0.93147 0.77234 0.40275 0.0
H270 H 0.9192 0.67729 0.40378 0.0
H271 H 0.95885 0.67242 0.44793 0.0
C272 C 0.84708 0.7176 0.35406 0.0
C273 C 0.84896 0.73849 0.32662 0.0
C274 C 0.87101 0.71276 0.37706 0.0
C275 C 0.89747 0.72877 0.3734 0.0
C276 C 0.89957 0.74924 0.34552 0.0
C277 C 0.87566 0.75399 0.32239 0.0
C278 C 0.95991 0.74754 0.43717 0.0
C279 C 0.9681 0.71955 0.45071 0.0
C280 C 0.93738 0.75033 0.41197 0.0
C281 C 0.92218 0.72523 0.39951 0.0
C282 C 0.93031 0.69714 0.41295 0.0
C283 C 0.9531 0.69431 0.43817 0.0
H284 H 0.25196 0.88767 0.24592 0.0
H285 H 0.26799 0.83402 0.33844 0.0
H286 H 0.23828 0.92981 0.28406 0.0
H287 H 0.25367 0.87531 0.37568 0.0
H288 H 0.19948 0.94461 0.432 0.0
H289 H 0.20355 0.90707 0.38528 0.0
H290 H 0.27048 0.95955 0.33444 0.0
H291 H 0.26698 0.99654 0.38132 0.0
C292 C 0.25266 0.8849 0.2742 0.0
C293 C 0.26146 0.85766 0.28911 0.0
C294 C 0.24465 0.90884 0.29591 0.0
C295 C 0.24445 0.90548 0.33269 0.0
C296 C 0.25313 0.87828 0.34741 0.0
C297 C 0.26177 0.85478 0.32596 0.0
C298 C 0.21444 0.9484 0.41034 0.0
C299 C 0.23314 0.97318 0.41034 0.0
C300 C 0.21682 0.927 0.38373 0.0
C301 C 0.23739 0.93053 0.35642 0.0
C302 C 0.25434 0.95647 0.35504 0.0
C303 C 0.25245 0.97746 0.38196 0.0
H304 H 0.20727 0.72018 0.72577 0.0
H305 H 0.25407 0.72956 0.62797 0.0
H306 H 0.16422 0.70125 0.69436 0.0
H307 H 0.21013 0.71141 0.59587 0.0
H308 H 0.12552 0.66927 0.54908 0.0
H309 H 0.17221 0.67145 0.58306 0.0
H310 H 0.12982 0.72924 0.65849 0.0
H311 H 0.08398 0.72691 0.62493 0.0
C312 C 0.2084 0.71783 0.69743 0.0
C313 C 0.23378 0.72676 0.67919 0.0
C314 C 0.1837 0.70703 0.67942 0.0
C315 C 0.18343 0.7054 0.64253 0.0
C316 C 0.20963 0.71232 0.62432 0.0
C317 C 0.23474 0.7228 0.64259 0.0
C318 C 0.12613 0.68151 0.57361 0.0
C319 C 0.10114 0.69762 0.58474 0.0
C320 C 0.15289 0.68313 0.59275 0.0
C321 C 0.15481 0.7005 0.62353 0.0
C322 C 0.12917 0.71525 0.63531 0.0
C323 C 0.10281 0.71394 0.61609 0.0
H324 H 0.26005 0.22346 0.65554 0.0
H325 H 0.24389 0.15982 0.73806 0.0
H326 H 0.25212 0.18457 0.61138 0.0
H327 H 0.23662 0.12092 0.69388 0.0
H328 H 0.26829 0.05995 0.59871 0.0
H329 H 0.27202 0.0971 0.64539 0.0
H330 H 0.20486 0.15017 0.5935 0.0
H331 H 0.20057 0.11234 0.54694 0.0
C332 C 0.25533 0.20108 0.66423 0.0
C333 C 0.25279 0.19456 0.70019 0.0
C334 C 0.25039 0.17901 0.639 0.0
C335 C 0.24343 0.14997 0.64937 0.0
C336 C 0.24182 0.14322 0.68532 0.0
C337 C 0.24613 0.1654 0.7105 0.0
C338 C 0.25389 0.07928 0.59771 0.0
C339 C 0.23405 0.08338 0.56949 0.0
C340 C 0.25606 0.10046 0.62433 0.0
C341 C 0.23891 0.12648 0.62276 0.0
C342 C 0.21843 0.13028 0.59503 0.0
C343 C 0.21575 0.10864 0.56871 0.0
H344 H 0.76597 0.30467 0.65998 0.0
H345 H 0.82457 0.27229 0.74191 0.0
H346 H 0.80932 0.31866 0.62487 0.0
H347 H 0.86716 0.28673 0.70768 0.0
H348 H 0.92904 0.268 0.61689 0.0
H349 H 0.88587 0.26376 0.65365 0.0
H350 H 0.85679 0.35128 0.62174 0.0
H351 H 0.9007 0.3555 0.58385 0.0
C352 C 0.78799 0.30088 0.67062 0.0
C353 C 0.79188 0.28666 0.70326 0.0
C354 C 0.81274 0.30909 0.65071 0.0
C355 C 0.84161 0.30338 0.66336 0.0
C356 C 0.84523 0.29084 0.69689 0.0
C357 C 0.82075 0.28245 0.71645 0.0
C358 C 0.91365 0.28654 0.61774 0.0
C359 C 0.9183 0.31211 0.59745 0.0
C360 C 0.88892 0.28415 0.63904 0.0
C361 C 0.86799 0.30724 0.64077 0.0
C362 C 0.87257 0.33311 0.62079 0.0
C363 C 0.89775 0.33564 0.59945 0.0
H364 H 0.73796 0.76825 0.66016 0.0
H365 H 0.79923 0.81393 0.72922 0.0
H366 H 0.73578 0.8123 0.62228 0.0
H367 H 0.79695 0.85738 0.6917 0.0
H368 H 0.80951 0.9175 0.59562 0.0
H369 H 0.81236 0.87209 0.63085 0.0
H370 H 0.71698 0.86517 0.62783 0.0
H371 H 0.714 0.91023 0.59284 0.0
C372 C 0.75084 0.7876 0.66729 0.0
C373 C 0.7686 0.78761 0.69776 0.0
C374 C 0.74959 0.81277 0.64569 0.0
C375 C 0.76636 0.83813 0.65403 0.0
C376 C 0.78413 0.83802 0.68438 0.0
C377 C 0.78515 0.81314 0.70604 0.0
C378 C 0.78919 0.90634 0.60261 0.0
C379 C 0.76157 0.91759 0.59162 0.0
C380 C 0.79081 0.88038 0.62272 0.0
C381 C 0.76486 0.86508 0.63185 0.0
C382 C 0.73732 0.87629 0.62077 0.0
C383 C 0.73567 0.9023 0.60102 0.0
H384 H 0.84572 0.74517 0.68765 0.0
H385 H 0.90552 0.73162 0.77548 0.0
H386 H 0.88738 0.75544 0.64957 0.0
H387 H 0.94789 0.74116 0.7364 0.0
H388 H 1.00016 0.71113 0.62875 0.0
H389 H 0.96536 0.71027 0.67765 0.0
H390 H 0.93095 0.79573 0.64568 0.0
H391 H 0.96636 0.79699 0.597 0.0
C392 C 0.86788 0.74422 0.69879 0.0
C393 C 0.87246 0.73714 0.73442 0.0
C394 C 0.89168 0.7505 0.67703 0.0
C395 C 0.92074 0.74932 0.69014 0.0
C396 C 0.92556 0.74235 0.72583 0.0
C397 C 0.90147 0.73681 0.74805 0.0
C398 C 0.98555 0.73002 0.63257 0.0
C399 C 0.98565 0.75399 0.60888 0.0
C400 C 0.96588 0.72961 0.66074 0.0
C401 C 0.94556 0.75291 0.66533 0.0
C402 C 0.94653 0.77755 0.64264 0.0
C403 C 0.96671 0.77826 0.61485 0.0
H404 H 0.32598 0.84447 0.68104 0.0
H405 H 0.23641 0.87157 0.70415 0.0
H406 H 0.3302 0.88485 0.63889 0.0
H407 H 0.23963 0.91072 0.6604 0.0
H408 H 0.25575 0.99199 0.59713 0.0
H409 H 0.25727 0.95587 0.64446 0.0
H410 H 0.31745 0.90142 0.5837 0.0
H411 H 0.31737 0.93914 0.53744 0.0
C412 C 0.30712 0.85909 0.677 0.0
C413 C 0.28088 0.85489 0.69604 0.0
C414 C 0.30941 0.88216 0.65248 0.0
C415 C 0.28527 0.90133 0.6457 0.0
C416 C 0.25907 0.89711 0.66514 0.0
C417 C 0.25706 0.87445 0.69024 0.0
C418 C 0.26964 0.97245 0.59422 0.0
C419 C 0.28642 0.9683 0.56366 0.0
C420 C 0.27026 0.95144 0.62123 0.0
C421 C 0.28701 0.9251 0.61806 0.0
C422 C 0.3045 0.92142 0.58764 0.0
C423 C 0.30446 0.94297 0.56092 0.0
H424 H 0.18145 0.25663 0.68901 0.0
H425 H 0.12288 0.25892 0.77841 0.0
H426 H 0.139 0.25605 0.64938 0.0
H427 H 0.07988 0.25917 0.73794 0.0
H428 H 0.02764 0.30523 0.63638 0.0
H429 H 0.06394 0.29997 0.68416 0.0
H430 H 0.09326 0.21656 0.64028 0.0
H431 H 0.05657 0.22137 0.59281 0.0
C432 C 0.15946 0.25732 0.70023 0.0
C433 C 0.15545 0.25809 0.73685 0.0
C434 C 0.13521 0.25667 0.67748 0.0
C435 C 0.10636 0.25732 0.69073 0.0
C436 C 0.10207 0.25852 0.72728 0.0
C437 C 0.12653 0.25844 0.7503 0.0
C438 C 0.04154 0.28555 0.63724 0.0
C439 C 0.03955 0.26384 0.6107 0.0
C440 C 0.06204 0.28246 0.66472 0.0
C441 C 0.08121 0.25789 0.66573 0.0
C442 C 0.07855 0.23566 0.63997 0.0
C443 C 0.05765 0.23844 0.61287 0.0
H444 H 0.75717 0.13917 0.75514 0.0
H445 H 0.6974 0.19099 0.69021 0.0
H446 H 0.75173 0.09722 0.71497 0.0
H447 H 0.69224 0.14911 0.64986 0.0
H448 H 0.67241 0.05838 0.59846 0.0
H449 H 0.67324 0.09788 0.64291 0.0
H450 H 0.76776 0.08601 0.65523 0.0
H451 H 0.76694 0.04673 0.61146 0.0
C452 C 0.7427 0.14159 0.73246 0.0
C453 C 0.72787 0.16859 0.72588 0.0
C454 C 0.7397 0.11756 0.70929 0.0
C455 C 0.7217 0.11982 0.67899 0.0
C456 C 0.70609 0.14648 0.67304 0.0
C457 C 0.7092 0.17057 0.69613 0.0
C458 C 0.69331 0.06412 0.61082 0.0
C459 C 0.71959 0.04934 0.60128 0.0
C460 C 0.69382 0.08685 0.63617 0.0
C461 C 0.72057 0.09509 0.65279 0.0
C462 C 0.74669 0.08001 0.64345 0.0
C463 C 0.74623 0.05756 0.61805 0.0
H464 H 0.77818 0.27269 0.37846 0.0
H465 H 0.835 0.22502 0.30651 0.0
H466 H 0.8207 0.28066 0.41773 0.0
H467 H 0.87704 0.23301 0.34556 0.0
H468 H 0.93375 0.22063 0.44628 0.0
H469 H 0.89189 0.21488 0.40576 0.0
H470 H 0.86996 0.30774 0.41817 0.0
H471 H 0.91168 0.31361 0.45861 0.0
C472 C 0.79969 0.26414 0.3709 0.0
C473 C 0.80316 0.2482 0.33941 0.0
C474 C 0.824 0.26875 0.3933 0.0
C475 C 0.85208 0.25724 0.38474 0.0
C476 C 0.85559 0.24176 0.35303 0.0
C477 C 0.83146 0.2374 0.33057 0.0
C478 C 0.92012 0.23985 0.44019 0.0
C479 C 0.92609 0.26756 0.45559 0.0
C480 C 0.89622 0.23658 0.41696 0.0
C481 C 0.87766 0.26087 0.40896 0.0
C482 C 0.88372 0.2886 0.42417 0.0
C483 C 0.90778 0.29195 0.44709 0.0
H484 H 0.71725 0.77244 0.39186 0.0
H485 H 0.73341 0.83108 0.30443 0.0
H486 H 0.70374 0.81557 0.42832 0.0
H487 H 0.71921 0.87353 0.34 0.0
H488 H 0.7461 0.93844 0.42695 0.0
H489 H 0.74681 0.89608 0.38776 0.0
H490 H 0.66982 0.86027 0.43922 0.0
H491 H 0.66934 0.90339 0.47931 0.0
C492 C 0.71731 0.7944 0.38027 0.0
C493 C 0.72707 0.79849 0.3456 0.0
C494 C 0.70942 0.81906 0.40102 0.0
C495 C 0.71092 0.84805 0.38722 0.0
C496 C 0.71851 0.85162 0.35173 0.0
C497 C 0.72668 0.82725 0.33133 0.0
C498 C 0.72896 0.92184 0.42961 0.0
C499 C 0.70762 0.92427 0.45612 0.0
C500 C 0.72927 0.89754 0.40699 0.0
C501 C 0.70831 0.87474 0.41022 0.0
C502 C 0.68632 0.87743 0.43617 0.0
C503 C 0.68582 0.90221 0.4588 0.0
H504 H 0.18875 0.78581 0.30224 0.0
H505 H 0.23968 0.72672 0.36918 0.0
H506 H 0.14914 0.7868 0.34519 0.0
H507 H 0.19968 0.72778 0.41231 0.0
H508 H 0.10577 0.70812 0.45339 0.0
H509 H 0.14703 0.70952 0.41309 0.0
H510 H 0.13979 0.80507 0.4076 0.0
H511 H 0.09794 0.80382 0.44851 0.0
C512 C 0.19146 0.77286 0.32604 0.0
C513 C 0.21731 0.75593 0.33217 0.0
C514 C 0.16887 0.77377 0.35081 0.0
C515 C 0.17143 0.75754 0.3821 0.0
C516 C 0.19714 0.74044 0.38826 0.0
C517 C 0.21997 0.73977 0.36359 0.0
C518 C 0.11279 0.72955 0.44364 0.0
C519 C 0.0984 0.75593 0.45402 0.0
C520 C 0.13668 0.73028 0.42079 0.0
C521 C 0.1467 0.75736 0.40742 0.0
C522 C 0.13236 0.78385 0.41753 0.0
C523 C 0.1085 0.78316 0.44089 0.0
H524 H 0.27546 0.24398 0.35019 0.0
H525 H 0.23034 0.18938 0.27338 0.0
H526 H 0.28757 0.19983 0.38464 0.0
H527 H 0.24296 0.1452 0.30751 0.0
H528 H 0.23021 0.0846 0.4032 0.0
H529 H 0.2258 0.12599 0.36302 0.0
H530 H 0.31547 0.15222 0.388 0.0
H531 H 0.31982 0.11032 0.42923 0.0
C532 C 0.2684 0.22254 0.34041 0.0
C533 C 0.25155 0.22032 0.3092 0.0
C534 C 0.2756 0.19717 0.36005 0.0
C535 C 0.26609 0.16895 0.34902 0.0
C536 C 0.25026 0.16664 0.31708 0.0
C537 C 0.24306 0.19198 0.29744 0.0
C538 C 0.24917 0.09899 0.40011 0.0
C539 C 0.27533 0.09423 0.41971 0.0
C540 C 0.2467 0.12266 0.37669 0.0
C541 C 0.27027 0.14247 0.37212 0.0
C542 C 0.29681 0.13745 0.3911 0.0
C543 C 0.29939 0.1134 0.41452 0.0
H544 H 0.74858 0.77746 0.88291 0.0
H545 H 0.70118 0.71801 0.81327 0.0
H546 H 0.70508 0.77975 0.92117 0.0
H547 H 0.65832 0.72037 0.85118 0.0
H548 H 0.59931 0.70704 0.94771 0.0
H549 H 0.64421 0.70405 0.91208 0.0
H550 H 0.6525 0.79949 0.91626 0.0
H551 H 0.60798 0.80261 0.95161 0.0
C552 C 0.72896 0.76503 0.87571 0.0
C553 C 0.72832 0.74773 0.84497 0.0
C554 C 0.70412 0.76633 0.89754 0.0
C555 C 0.67845 0.75005 0.88917 0.0
C556 C 0.67792 0.73279 0.85852 0.0
C557 C 0.70247 0.73174 0.83663 0.0
C558 C 0.61067 0.72734 0.94088 0.0
C559 C 0.59994 0.75502 0.95225 0.0
C560 C 0.63633 0.72565 0.92055 0.0
C561 C 0.65186 0.75157 0.91162 0.0
C562 C 0.6412 0.77916 0.92314 0.0
C563 C 0.61547 0.78089 0.94308 0.0
H564 H 0.26269 0.68807 0.78792 0.0
H565 H 0.22058 0.74846 0.86074 0.0
H566 H 0.24785 0.64629 0.82341 0.0
H567 H 0.20586 0.70576 0.89712 0.0
H568 H 0.16787 0.61133 0.93397 0.0
H569 H 0.17473 0.65564 0.89687 0.0
H570 H 0.26653 0.6314 0.88264 0.0
H571 H 0.25986 0.58781 0.91868 0.0
C572 C 0.25029 0.69252 0.81164 0.0
C573 C 0.24342 0.72176 0.82189 0.0
C574 C 0.2417 0.66844 0.83195 0.0
C575 C 0.2261 0.67275 0.86331 0.0
C576 C 0.21787 0.70182 0.87299 0.0
C577 C 0.22645 0.72621 0.85236 0.0
C578 C 0.18938 0.61546 0.92259 0.0
C579 C 0.21325 0.59593 0.92912 0.0
C580 C 0.19336 0.64091 0.90171 0.0
C581 C 0.22112 0.64686 0.88672 0.0
C582 C 0.24477 0.62726 0.89339 0.0
C583 C 0.24091 0.60223 0.91422 0.0
H584 H 0.32442 0.21365 0.81825 0.0
H585 H 0.26218 0.22507 0.90298 0.0
H586 H 0.36491 0.20862 0.8611 0.0
H587 H 0.30295 0.22094 0.94574 0.0
H588 H 0.39395 0.26761 0.98577 0.0
H589 H 0.35045 0.26145 0.94777 0.0
H590 H 0.3798 0.17309 0.92054 0.0
H591 H 0.42306 0.1788 0.95958 0.0
C592 C 0.31936 0.2145 0.84604 0.0
C593 C 0.29024 0.21978 0.85737 0.0
C594 C 0.34246 0.21154 0.87046 0.0
C595 C 0.33688 0.2145 0.90652 0.0
C596 C 0.30764 0.21854 0.91798 0.0
C597 C 0.2844 0.22076 0.89358 0.0
C598 C 0.39102 0.24679 0.97189 0.0
C599 C 0.41187 0.22371 0.97546 0.0
C600 C 0.36607 0.24321 0.95044 0.0
C601 C 0.36187 0.21676 0.93157 0.0
C602 C 0.38262 0.1936 0.93508 0.0
C603 C 0.40725 0.19689 0.95731 0.0
H604 H 0.78637 0.32868 0.80394 0.0
H605 H 0.78342 0.27295 0.89605 0.0
H606 H 0.80591 0.3693 0.83911 0.0
H607 H 0.8018 0.31436 0.93205 0.0
H608 H 0.84186 0.39416 0.98841 0.0
H609 H 0.84 0.35119 0.9483 0.0
H610 H 0.78087 0.40035 0.87956 0.0
H611 H 0.7832 0.44256 0.9189 0.0
C612 C 0.79003 0.32514 0.83182 0.0
C613 C 0.78281 0.29792 0.84746 0.0
C614 C 0.80122 0.34842 0.85201 0.0
C615 C 0.80483 0.34538 0.88858 0.0
C616 C 0.79941 0.31746 0.90394 0.0
C617 C 0.78869 0.29381 0.88344 0.0
C618 C 0.82944 0.3959 0.96401 0.0
C619 C 0.81285 0.42161 0.95647 0.0
C620 C 0.828 0.37125 0.94133 0.0
C621 C 0.81022 0.37221 0.91069 0.0
C622 C 0.79518 0.39878 0.90247 0.0
C623 C 0.79643 0.42305 0.92508 0.0
H624 H 0.63524 0.24473 0.26555 0.0
H625 H 0.67367 0.176 0.20065 0.0
H626 H 0.59155 0.24596 0.22708 0.0
H627 H 0.63033 0.17741 0.16226 0.0
H628 H 0.54933 0.2709 0.11851 0.0
H629 H 0.58584 0.26408 0.16533 0.0
H630 H 0.57624 0.16893 0.15696 0.0
H631 H 0.53979 0.17567 0.10981 0.0
C632 C 0.63405 0.22941 0.24362 0.0
C633 C 0.65797 0.21046 0.23591 0.0
C634 C 0.60919 0.2303 0.22143 0.0
C635 C 0.60772 0.21204 0.19144 0.0
C636 C 0.63074 0.19165 0.18523 0.0
C637 C 0.65564 0.19095 0.20716 0.0
C638 C 0.55493 0.24851 0.12667 0.0
C639 C 0.54183 0.22382 0.11022 0.0
C640 C 0.5756 0.24462 0.15378 0.0
C641 C 0.58376 0.21597 0.16494 0.0
C642 C 0.57045 0.19127 0.14879 0.0
C643 C 0.5496 0.19515 0.1218 0.0
H644 H 0.73937 0.63611 0.24899 0.0
H645 H 0.80811 0.6842 0.19525 0.0
H646 H 0.74679 0.59403 0.20921 0.0
H647 H 0.81511 0.64259 0.15537 0.0
H648 H 0.74159 0.54425 0.10331 0.0
H649 H 0.73733 0.58275 0.14774 0.0
H650 H 0.83258 0.59157 0.15036 0.0
H651 H 0.83689 0.55307 0.10514 0.0
C652 C 0.75613 0.63769 0.22886 0.0
C653 C 0.773 0.66365 0.22529 0.0
C654 C 0.7603 0.61362 0.20591 0.0
C655 C 0.78151 0.6149 0.17893 0.0
C656 C 0.79884 0.6406 0.17602 0.0
C657 C 0.79463 0.66462 0.19882 0.0
C658 C 0.76173 0.55427 0.11333 0.0
C659 C 0.78963 0.54558 0.10041 0.0
C660 C 0.75925 0.57625 0.13914 0.0
C661 C 0.78458 0.59029 0.15281 0.0
C662 C 0.81256 0.58143 0.14019 0.0
C663 C 0.81507 0.55927 0.11435 0.0
H664 H 0.38947 0.76614 0.25856 0.0
H665 H 0.33371 0.75967 0.16605 0.0
H666 H 0.43361 0.76008 0.22138 0.0
H667 H 0.37734 0.75274 0.1296 0.0
H668 H 0.46133 0.71254 0.08134 0.0
H669 H 0.42247 0.71166 0.12618 0.0
H670 H 0.45268 0.79601 0.16624 0.0
H671 H 0.49089 0.79738 0.121 0.0
C672 C 0.38668 0.76323 0.23046 0.0
C673 C 0.35826 0.76376 0.21511 0.0
C674 C 0.4118 0.7597 0.2093 0.0
C675 C 0.40869 0.75567 0.17278 0.0
C676 C 0.38026 0.75547 0.15772 0.0
C677 C 0.35536 0.75977 0.17858 0.0
C678 C 0.45996 0.7306 0.10013 0.0
C679 C 0.47886 0.75515 0.09754 0.0
C680 C 0.4378 0.7301 0.12568 0.0
C681 C 0.43476 0.75376 0.14957 0.0
C682 C 0.45479 0.77742 0.14829 0.0
C683 C 0.47644 0.77827 0.12227 0.0
H684 H 0.19098 0.31703 0.14632 0.0
H685 H 0.19512 0.3879 0.2228 0.0
H686 H 0.18238 0.35357 0.09965 0.0
H687 H 0.18598 0.42426 0.17621 0.0
H688 H 0.15258 0.48066 0.0824 0.0
H689 H 0.14752 0.44076 0.12619 0.0
H690 H 0.22047 0.39359 0.07865 0.0
H691 H 0.22598 0.43348 0.0359 0.0
C692 C 0.1893 0.3403 0.1533 0.0
C693 C 0.19397 0.34961 0.18819 0.0
C694 C 0.18446 0.36119 0.12658 0.0
C695 C 0.18354 0.39172 0.13435 0.0
C696 C 0.18631 0.40087 0.16953 0.0
C697 C 0.19174 0.38005 0.19614 0.0
C698 C 0.16706 0.46145 0.08102 0.0
C699 C 0.18971 0.46012 0.05593 0.0
C700 C 0.16428 0.43876 0.10608 0.0
C701 C 0.18357 0.41409 0.1057 0.0
C702 C 0.20511 0.41215 0.07936 0.0
C703 C 0.20835 0.43505 0.05502 0.0
H704 H 0.2885 0.32339 0.17784 0.0
H705 H 0.34495 0.31452 0.26935 0.0
H706 H 0.33173 0.3204 0.13976 0.0
H707 H 0.3885 0.31052 0.23089 0.0
H708 H 0.43628 0.25304 0.1385 0.0
H709 H 0.39975 0.26701 0.18282 0.0
H710 H 0.38269 0.34915 0.12778 0.0
H711 H 0.4198 0.33557 0.08376 0.0
C712 C 0.3103 0.32125 0.18976 0.0
C713 C 0.31352 0.31919 0.22643 0.0
C714 C 0.33499 0.31966 0.16801 0.0
C715 C 0.36337 0.31524 0.18244 0.0
C716 C 0.36679 0.314 0.21922 0.0
C717 C 0.34202 0.3164 0.24114 0.0
C718 C 0.42504 0.27427 0.13613 0.0
C719 C 0.4307 0.29313 0.10753 0.0
C720 C 0.40437 0.28235 0.16165 0.0
C721 C 0.38854 0.30916 0.15869 0.0
C722 C 0.39472 0.32839 0.13064 0.0
C723 C 0.4159 0.32062 0.10551 0.0
H724 H 0.78864 0.26679 0.15565 0.0
H725 H 0.71832 0.30341 0.21923 0.0
H726 H 0.78681 0.3111 0.1184 0.0
H727 H 0.71662 0.34742 0.18217 0.0
H728 H 0.70559 0.40959 0.08523 0.0
H729 H 0.70422 0.36356 0.11972 0.0
H730 H 0.79962 0.3647 0.12896 0.0
H731 H 0.80114 0.41015 0.09505 0.0
C732 C 0.77278 0.28419 0.1616 0.0
C733 C 0.75387 0.28172 0.19056 0.0
C734 C 0.77175 0.30953 0.14036 0.0
C735 C 0.75157 0.33268 0.14749 0.0
C736 C 0.73219 0.32984 0.17589 0.0
C737 C 0.73341 0.30472 0.19728 0.0
C738 C 0.72619 0.40007 0.09485 0.0
C739 C 0.75341 0.4136 0.0874 0.0
C740 C 0.72542 0.37376 0.1145 0.0
C741 C 0.75188 0.36042 0.1266 0.0
C742 C 0.77894 0.37415 0.11943 0.0
C743 C 0.77971 0.40043 0.10023 0.0
H744 H 0.68368 0.77869 0.23324 0.0
H745 H 0.75001 0.79645 0.15488 0.0
H746 H 0.64492 0.79479 0.19254 0.0
H747 H 0.71085 0.81235 0.1137 0.0
H748 H 0.62685 0.78295 0.04519 0.0
H749 H 0.67004 0.78195 0.0841 0.0
H750 H 0.62432 0.83899 0.15743 0.0
H751 H 0.58095 0.84035 0.11772 0.0
C752 C 0.69002 0.78629 0.20736 0.0
C753 C 0.71991 0.78595 0.19712 0.0
C754 C 0.66778 0.79584 0.18417 0.0
C755 C 0.6748 0.80489 0.14993 0.0
C756 C 0.70479 0.80545 0.13995 0.0
C757 C 0.72718 0.79637 0.16347 0.0
C758 C 0.62636 0.79594 0.06921 0.0
C759 C 0.60068 0.81175 0.07855 0.0
C760 C 0.65114 0.79547 0.09141 0.0
C761 C 0.65058 0.81031 0.12388 0.0
C762 C 0.62532 0.82729 0.13256 0.0
C763 C 0.60062 0.82825 0.10985 0.0
H764 H 0.24621 0.68109 0.22595 0.0
H765 H 0.25124 0.73527 0.13255 0.0
H766 H 0.24467 0.63628 0.18941 0.0
H767 H 0.25057 0.69024 0.09608 0.0
H768 H 0.29135 0.59852 0.057 0.0
H769 H 0.29132 0.64234 0.09548 0.0
H770 H 0.20619 0.61688 0.13622 0.0
H771 H 0.20572 0.57363 0.09711 0.0
C772 C 0.24668 0.68337 0.1976 0.0
C773 C 0.24868 0.71156 0.18197 0.0
C774 C 0.24588 0.65781 0.17682 0.0
C775 C 0.24784 0.66 0.14016 0.0
C776 C 0.24928 0.68815 0.12441 0.0
C777 C 0.24934 0.71381 0.14517 0.0
C778 C 0.27291 0.60206 0.07461 0.0
C779 C 0.24858 0.58275 0.07424 0.0
C780 C 0.27275 0.62719 0.09625 0.0
C781 C 0.24861 0.6329 0.11838 0.0
C782 C 0.22497 0.61286 0.11924 0.0
C783 C 0.22477 0.58818 0.09701 0.0
H784 H 0.33713 0.81678 0.83457 0.0
H785 H 0.39105 0.75193 0.78055 0.0
H786 H 0.37596 0.82295 0.87879 0.0
H787 H 0.43015 0.75845 0.82465 0.0
H788 H 0.46265 0.84319 0.93892 0.0
H789 H 0.42637 0.8409 0.89064 0.0
H790 H 0.43715 0.74562 0.88617 0.0
H791 H 0.47326 0.74787 0.93366 0.0
C792 C 0.35742 0.80405 0.83184 0.0
C793 C 0.36081 0.78368 0.804 0.0
C794 C 0.3798 0.80776 0.85718 0.0
C795 C 0.40618 0.7911 0.85552 0.0
C796 C 0.40995 0.77136 0.82709 0.0
C797 C 0.38759 0.76774 0.80162 0.0
C798 C 0.45728 0.8218 0.92755 0.0
C799 C 0.47092 0.79575 0.94032 0.0
C800 C 0.43642 0.82045 0.89994 0.0
C801 C 0.42891 0.79307 0.88428 0.0
C802 C 0.4427 0.76715 0.89705 0.0
C803 C 0.4633 0.76846 0.92463 0.0
H804 H 0.25109 0.31647 0.86638 0.0
H805 H 0.25782 0.36597 0.76956 0.0
H806 H 0.25567 0.36242 0.90002 0.0
H807 H 0.26149 0.41239 0.80361 0.0
H808 H 0.21611 0.47869 0.89172 0.0
H809 H 0.22029 0.43699 0.85062 0.0
H810 H 0.29825 0.40593 0.90595 0.0
H811 H 0.29465 0.44802 0.94659 0.0
C812 C 0.25352 0.33722 0.85231 0.0
C813 C 0.25394 0.33774 0.81538 0.0
C814 C 0.25637 0.36342 0.87157 0.0
C815 C 0.25906 0.39076 0.85431 0.0
C816 C 0.25954 0.39145 0.81738 0.0
C817 C 0.25746 0.36502 0.79801 0.0
C818 C 0.23448 0.46329 0.89467 0.0
C819 C 0.25497 0.46647 0.92244 0.0
C820 C 0.23694 0.4396 0.87106 0.0
C821 C 0.25955 0.41839 0.87528 0.0
C822 C 0.28067 0.42212 0.90222 0.0
C823 C 0.27861 0.44618 0.92536 0.0
H824 H 0.67286 0.22204 0.85776 0.0
H825 H 0.63275 0.29396 0.79887 0.0
H826 H 0.63246 0.22391 0.8995 0.0
H827 H 0.59177 0.29551 0.84069 0.0
H828 H 0.54338 0.21572 0.95139 0.0
H829 H 0.58015 0.21361 0.90496 0.0
H830 H 0.58298 0.30945 0.90246 0.0
H831 H 0.54568 0.31163 0.94865 0.0
C832 C 0.65524 0.23809 0.85347 0.0
C833 C 0.65612 0.25788 0.8249 0.0
C834 C 0.63192 0.23904 0.87738 0.0
C835 C 0.6088 0.25984 0.8735 0.0
C836 C 0.60938 0.27941 0.84465 0.0
C837 C 0.63275 0.27837 0.82054 0.0
C838 C 0.55171 0.23639 0.94089 0.0
C839 C 0.54167 0.26385 0.95398 0.0
C840 C 0.57292 0.23516 0.91432 0.0
C841 C 0.5847 0.26135 0.90008 0.0
C842 C 0.57419 0.28885 0.91258 0.0
C843 C 0.55294 0.29009 0.93925 0.0
H844 H 0.78253 0.60898 0.771 0.0
H845 H 0.76257 0.67159 0.8537 0.0
H846 H 0.77178 0.5677 0.81161 0.0
H847 H 0.75123 0.63099 0.89334 0.0
H848 H 0.71259 0.55242 0.94987 0.0
H849 H 0.71387 0.58673 0.89969 0.0
H850 H 0.79996 0.55265 0.87117 0.0
H851 H 0.79899 0.51897 0.92135 0.0
C852 C 0.77557 0.61384 0.79759 0.0
C853 C 0.77392 0.64331 0.8095 0.0
C854 C 0.76936 0.59039 0.8207 0.0
C855 C 0.76047 0.59628 0.85547 0.0
C856 C 0.75766 0.62581 0.86662 0.0
C857 C 0.76455 0.64901 0.84403 0.0
C858 C 0.73151 0.55201 0.93252 0.0
C859 C 0.75589 0.53348 0.93977 0.0
C860 C 0.73223 0.57152 0.90386 0.0
C861 C 0.75702 0.57222 0.88161 0.0
C862 C 0.7805 0.55235 0.88767 0.0
C863 C 0.78005 0.53336 0.91663 0.0
loop_
_geom_bond_atom_site_label_1
_geom_bond_atom_site_label_2
_geom_bond_distance
_geom_bond_site_symmetry_2
_ccdc_geom_bond_type
C0 O2 1.247 . S
C0 O4 1.258 . S
C1 O8 1.247 . S
C1 O9 1.258 . S
O2 C0 1.247 . S
O2 Zn3 2.028 . S
Zn3 O2 2.028 . S
Zn3 O7 2.035 . S
Zn3 O9 2.035 . S
Zn3 O10 2.028 . S
O4 C0 1.258 . S
O4 Zn5 2.035 . S
Zn5 O4 2.035 . S
Zn5 O6 2.028 . S
Zn5 O8 2.028 . S
Zn5 O11 2.035 . S
O6 Zn5 2.028 . S
O6 C12 1.247 . S
O7 Zn3 2.035 . S
O7 C12 1.258 . S
O8 C1 1.247 . S
O8 Zn5 2.028 . S
O9 C1 1.258 . S
O9 Zn3 2.035 . S
O10 Zn3 2.028 . S
O10 C13 1.247 . S
O11 Zn5 2.035 . S
O11 C13 1.258 . S
C12 O6 1.247 . S
C12 O7 1.258 . S
C13 O10 1.247 . S
C13 O11 1.258 . S
C14 O16 1.247 . S
C14 O18 1.258 . S
C15 O22 1.247 . S
C15 O23 1.258 . S
O16 C14 1.247 . S
O16 Zn17 2.028 . S
Zn17 O16 2.028 . S
Zn17 O21 2.035 . S
Zn17 O23 2.035 . S
Zn17 O24 2.028 . S
O18 C14 1.258 . S
O18 Zn19 2.035 . S
Zn19 O18 2.035 . S
Zn19 O20 2.028 . S
Zn19 O22 2.028 . S
Zn19 O25 2.035 . S
O20 Zn19 2.028 . S
O20 C26 1.247 . S
O21 Zn17 2.035 . S
O21 C26 1.258 . S
O22 C15 1.247 . S
O22 Zn19 2.028 . S
O23 C15 1.258 . S
O23 Zn17 2.035 . S
O24 Zn17 2.028 . S
O24 C27 1.247 . S
O25 Zn19 2.035 . S
O25 C27 1.258 . S
C26 O20 1.247 . S
C26 O21 1.258 . S
C27 O24 1.247 . S
C27 O25 1.258 . S
C28 O30 1.247 . S
C28 O32 1.258 . S
C29 O36 1.247 . S
C29 O37 1.258 . S
O30 C28 1.247 . S
O30 Zn31 2.028 . S
Zn31 O30 2.028 . S
Zn31 O35 2.035 . S
Zn31 O37 2.035 . S
Zn31 O38 2.028 . S
O32 C28 1.258 . S
O32 Zn33 2.035 . S
Zn33 O32 2.035 . S
Zn33 O34 2.028 . S
Zn33 O36 2.028 . S
Zn33 O39 2.035 . S
O34 Zn33 2.028 . S
O34 C40 1.247 . S
O35 Zn31 2.035 . S
O35 C40 1.258 . S
O36 C29 1.247 . S
O36 Zn33 2.028 . S
O37 C29 1.258 . S
O37 Zn31 2.035 . S
O38 Zn31 2.028 . S
O38 C41 1.247 . S
O39 Zn33 2.035 . S
O39 C41 1.258 . S
C40 O34 1.247 . S
C40 O35 1.258 . S
C41 O38 1.247 . S
C41 O39 1.258 . S
C42 O44 1.247 . S
C42 O46 1.258 . S
C43 O50 1.247 . S
C43 O51 1.258 . S
O44 C42 1.247 . S
O44 Zn45 2.028 . S
Zn45 O44 2.028 . S
Zn45 O49 2.035 . S
Zn45 O51 2.035 . S
Zn45 O52 2.028 . S
O46 C42 1.258 . S
O46 Zn47 2.035 . S
Zn47 O46 2.035 . S
Zn47 O48 2.028 . S
Zn47 O50 2.028 . S
Zn47 O53 2.035 . S
O48 Zn47 2.028 . S
O48 C54 1.247 . S
O49 Zn45 2.035 . S
O49 C54 1.258 . S
O50 C43 1.247 . S
O50 Zn47 2.028 . S
O51 C43 1.258 . S
O51 Zn45 2.035 . S
O52 Zn45 2.028 . S
O52 C55 1.247 . S
O53 Zn47 2.035 . S
O53 C55 1.258 . S
C54 O48 1.247 . S
C54 O49 1.258 . S
C55 O52 1.247 . S
C55 O53 1.258 . S
C56 O58 1.247 . S
C56 O60 1.258 . S
C57 O64 1.247 . S
C57 O65 1.258 . S
O58 C56 1.247 . S
O58 Zn59 2.028 . S
Zn59 O58 2.028 . S
Zn59 O63 2.035 . S
Zn59 O65 2.035 . S
Zn59 O66 2.028 . S
O60 C56 1.258 . S
O60 Zn61 2.035 . S
Zn61 O60 2.035 . S
Zn61 O62 2.028 . S
Zn61 O64 2.028 . S
Zn61 O67 2.035 . S
O62 Zn61 2.028 . S
O62 C68 1.247 . S
O63 Zn59 2.035 . S
O63 C68 1.258 . S
O64 C57 1.247 . S
O64 Zn61 2.028 . S
O65 C57 1.258 . S
O65 Zn59 2.035 . S
O66 Zn59 2.028 . S
O66 C69 1.247 . S
O67 Zn61 2.035 . S
O67 C69 1.258 . S
C68 O62 1.247 . S
C68 O63 1.258 . S
C69 O66 1.247 . S
C69 O67 1.258 . S
C70 O72 1.247 . S
C70 O74 1.258 . S
C71 O78 1.247 . S
C71 O79 1.258 . S
O72 C70 1.247 . S
O72 Zn73 2.028 . S
Zn73 O72 2.028 . S
Zn73 O77 2.035 . S
Zn73 O79 2.035 . S
Zn73 O80 2.028 . S
O74 C70 1.258 . S
O74 Zn75 2.035 . S
Zn75 O74 2.035 . S
Zn75 O76 2.028 . S
Zn75 O78 2.028 . S
Zn75 O81 2.035 . S
O76 Zn75 2.028 . S
O76 C82 1.247 . S
O77 Zn73 2.035 . S
O77 C82 1.258 . S
O78 C71 1.247 . S
O78 Zn75 2.028 . S
O79 C71 1.258 . S
O79 Zn73 2.035 . S
O80 Zn73 2.028 . S
O80 C83 1.247 . S
O81 Zn75 2.035 . S
O81 C83 1.258 . S
C82 O76 1.247 . S
C82 O77 1.258 . S
C83 O80 1.247 . S
C83 O81 1.258 . S
C84 O86 1.247 . S
C84 O88 1.258 . S
C85 O92 1.247 . S
C85 O93 1.258 . S
O86 C84 1.247 . S
O86 Zn87 2.028 . S
Zn87 O86 2.028 . S
Zn87 O91 2.035 . S
Zn87 O93 2.035 . S
Zn87 O94 2.028 . S
O88 C84 1.258 . S
O88 Zn89 2.035 . S
Zn89 O88 2.035 . S
Zn89 O90 2.028 . S
Zn89 O92 2.028 . S
Zn89 O95 2.035 . S
O90 Zn89 2.028 . S
O90 C96 1.247 . S
O91 Zn87 2.035 . S
O91 C96 1.258 . S
O92 C85 1.247 . S
O92 Zn89 2.028 . S
O93 C85 1.258 . S
O93 Zn87 2.035 . S
O94 Zn87 2.028 . S
O94 C97 1.247 . S
O95 Zn89 2.035 . S
O95 C97 1.258 . S
C96 O90 1.247 . S
C96 O91 1.258 . S
C97 O94 1.247 . S
C97 O95 1.258 . S
C98 O100 1.247 . S
C98 O102 1.258 . S
C99 O106 1.247 . S
C99 O107 1.258 . S
O100 C98 1.247 . S
O100 Zn101 2.028 . S
Zn101 O100 2.028 . S
Zn101 O105 2.035 . S
Zn101 O107 2.035 . S
Zn101 O108 2.028 . S
O102 C98 1.258 . S
O102 Zn103 2.035 . S
Zn103 O102 2.035 . S
Zn103 O104 2.028 . S
Zn103 O106 2.028 . S
Zn103 O109 2.035 . S
O104 Zn103 2.028 . S
O104 C110 1.247 . S
O105 Zn101 2.035 . S
O105 C110 1.258 . S
O106 C99 1.247 . S
O106 Zn103 2.028 . S
O107 C99 1.258 . S
O107 Zn101 2.035 . S
O108 Zn101 2.028 . S
O108 C111 1.247 . S
O109 Zn103 2.035 . S
O109 C111 1.258 . S
C110 O104 1.247 . S
C110 O105 1.258 . S
C111 O108 1.247 . S
C111 O109 1.258 . S
C112 O114 1.247 . S
C112 O116 1.258 . S
C113 O120 1.247 . S
C113 O121 1.258 . S
O114 C112 1.247 . S
O114 Zn115 2.029 . S
Zn115 O114 2.029 . S
Zn115 O119 2.034 1_655 S
Zn115 O121 2.034 1_655 S
Zn115 O122 2.029 . S
O116 C112 1.258 . S
O116 Zn117 2.028 1_655 S
Zn117 O116 2.028 1_455 S
Zn117 O118 2.035 . S
Zn117 O120 2.035 . S
Zn117 O123 2.028 1_455 S
O118 Zn117 2.035 . S
O118 C124 1.247 . S
O119 Zn115 2.034 1_455 S
O119 C124 1.258 . S
O120 C113 1.247 . S
O120 Zn117 2.035 . S
O121 C113 1.258 . S
O121 Zn115 2.034 1_455 S
O122 Zn115 2.029 . S
O122 C125 1.247 . S
O123 Zn117 2.028 1_655 S
O123 C125 1.258 . S
C124 O118 1.247 . S
C124 O119 1.258 . S
C125 O122 1.247 . S
C125 O123 1.258 . S
C126 O128 1.247 . S
C126 O130 1.258 . S
C127 O134 1.247 . S
C127 O135 1.258 . S
O128 C126 1.247 . S
O128 Zn129 2.035 . S
Zn129 O128 2.035 . S
Zn129 O133 2.028 1_545 S
Zn129 O135 2.028 1_545 S
Zn129 O136 2.035 . S
O130 C126 1.258 . S
O130 Zn131 2.034 1_545 S
Zn131 O130 2.034 1_565 S
Zn131 O132 2.029 . S
Zn131 O134 2.029 . S
Zn131 O137 2.034 1_565 S
O132 Zn131 2.029 . S
O132 C138 1.247 . S
O133 Zn129 2.028 1_565 S
O133 C138 1.258 . S
O134 C127 1.247 . S
O134 Zn131 2.029 . S
O135 C127 1.258 . S
O135 Zn129 2.028 1_565 S
O136 Zn129 2.035 . S
O136 C139 1.247 . S
O137 Zn131 2.034 1_545 S
O137 C139 1.258 . S
C138 O132 1.247 . S
C138 O133 1.258 . S
C139 O136 1.247 . S
C139 O137 1.258 . S
C140 O142 1.247 . S
C140 O144 1.258 . S
C141 O148 1.247 . S
C141 O149 1.258 . S
O142 C140 1.247 . S
O142 Zn143 2.029 . S
Zn143 O142 2.029 . S
Zn143 O147 2.034 1_655 S
Zn143 O149 2.034 1_655 S
Zn143 O150 2.029 . S
O144 C140 1.258 . S
O144 Zn145 2.028 1_655 S
Zn145 O144 2.028 1_455 S
Zn145 O146 2.035 . S
Zn145 O148 2.035 . S
Zn145 O151 2.028 1_455 S
O146 Zn145 2.035 . S
O146 C152 1.247 . S
O147 Zn143 2.034 1_455 S
O147 C152 1.258 . S
O148 C141 1.247 . S
O148 Zn145 2.035 . S
O149 C141 1.258 . S
O149 Zn143 2.034 1_455 S
O150 Zn143 2.029 . S
O150 C153 1.247 . S
O151 Zn145 2.028 1_655 S
O151 C153 1.258 . S
C152 O146 1.247 . S
C152 O147 1.258 . S
C153 O150 1.247 . S
C153 O151 1.258 . S
C154 O156 1.247 . S
C154 O158 1.258 . S
C155 O162 1.247 . S
C155 O163 1.258 . S
O156 C154 1.247 . S
O156 Zn157 2.035 . S
Zn157 O156 2.035 . S
Zn157 O161 2.028 1_545 S
Zn157 O163 2.028 1_545 S
Zn157 O164 2.035 . S
O158 C154 1.258 . S
O158 Zn159 2.034 1_545 S
Zn159 O158 2.034 1_565 S
Zn159 O160 2.029 . S
Zn159 O162 2.029 . S
Zn159 O165 2.034 1_565 S
O160 Zn159 2.029 . S
O160 C166 1.247 . S
O161 Zn157 2.028 1_565 S
O161 C166 1.258 . S
O162 C155 1.247 . S
O162 Zn159 2.029 . S
O163 C155 1.258 . S
O163 Zn157 2.028 1_565 S
O164 Zn157 2.035 . S
O164 C167 1.247 . S
O165 Zn159 2.034 1_545 S
O165 C167 1.258 . S
C166 O160 1.247 . S
C166 O161 1.258 . S
C167 O164 1.247 . S
C167 O165 1.258 . S
C168 O170 1.247 . S
C168 O172 1.258 . S
C169 O176 1.247 . S
C169 O177 1.258 . S
O170 C168 1.247 . S
O170 Zn171 2.028 . S
Zn171 O170 2.028 . S
Zn171 O175 2.035 . S
Zn171 O177 2.035 1_554 S
Zn171 O178 2.028 1_554 S
O172 C168 1.258 . S
O172 Zn173 2.035 . S
Zn173 O172 2.035 . S
Zn173 O174 2.028 . S
Zn173 O176 2.028 1_554 S
Zn173 O179 2.035 1_554 S
O174 Zn173 2.028 . S
O174 C180 1.247 . S
O175 Zn171 2.035 . S
O175 C180 1.258 . S
O176 C169 1.247 . S
O176 Zn173 2.028 1_556 S
O177 C169 1.258 . S
O177 Zn171 2.035 1_556 S
O178 Zn171 2.028 1_556 S
O178 C181 1.247 . S
O179 Zn173 2.035 1_556 S
O179 C181 1.258 . S
C180 O174 1.247 . S
C180 O175 1.258 . S
C181 O178 1.247 . S
C181 O179 1.258 . S
C182 O184 1.247 . S
C182 O186 1.258 . S
C183 O190 1.247 . S
C183 O191 1.258 . S
O184 C182 1.247 . S
O184 Zn185 2.028 . S
Zn185 O184 2.028 . S
Zn185 O189 2.035 . S
Zn185 O191 2.035 1_554 S
Zn185 O192 2.028 1_554 S
O186 C182 1.258 . S
O186 Zn187 2.035 . S
Zn187 O186 2.035 . S
Zn187 O188 2.028 . S
Zn187 O190 2.028 1_554 S
Zn187 O193 2.035 1_554 S
O188 Zn187 2.028 . S
O188 C194 1.247 . S
O189 Zn185 2.035 . S
O189 C194 1.258 . S
O190 C183 1.247 . S
O190 Zn187 2.028 1_556 S
O191 C183 1.258 . S
O191 Zn185 2.035 1_556 S
O192 Zn185 2.028 1_556 S
O192 C195 1.247 . S
O193 Zn187 2.035 1_556 S
O193 C195 1.258 . S
C194 O188 1.247 . S
C194 O189 1.258 . S
C195 O192 1.247 . S
C195 O193 1.258 . S
C196 O198 1.247 . S
C196 O200 1.258 . S
C197 O204 1.247 . S
C197 O205 1.258 . S
O198 C196 1.247 . S
O198 Zn199 2.028 1_556 S
Zn199 O198 2.028 1_554 S
Zn199 O203 2.035 1_554 S
Zn199 O205 2.035 . S
Zn199 O206 2.028 . S
O200 C196 1.258 . S
O200 Zn201 2.035 1_556 S
Zn201 O200 2.035 1_554 S
Zn201 O202 2.028 1_554 S
Zn201 O204 2.028 . S
Zn201 O207 2.035 . S
O202 Zn201 2.028 1_556 S
O202 C208 1.247 . S
O203 Zn199 2.035 1_556 S
O203 C208 1.258 . S
O204 C197 1.247 . S
O204 Zn201 2.028 . S
O205 C197 1.258 . S
O205 Zn199 2.035 . S
O206 Zn199 2.028 . S
O206 C209 1.247 . S
O207 Zn201 2.035 . S
O207 C209 1.258 . S
C208 O202 1.247 . S
C208 O203 1.258 . S
C209 O206 1.247 . S
C209 O207 1.258 . S
C210 O212 1.247 . S
C210 O214 1.258 . S
C211 O218 1.247 . S
C211 O219 1.258 . S
O212 C210 1.247 . S
O212 Zn213 2.028 . S
Zn213 O212 2.028 . S
Zn213 O217 2.035 . S
Zn213 O219 2.035 1_554 S
Zn213 O220 2.028 1_554 S
O214 C210 1.258 . S
O214 Zn215 2.035 . S
Zn215 O214 2.035 . S
Zn215 O216 2.028 . S
Zn215 O218 2.028 1_554 S
Zn215 O221 2.035 1_554 S
O216 Zn215 2.028 . S
O216 C222 1.247 . S
O217 Zn213 2.035 . S
O217 C222 1.258 . S
O218 C211 1.247 . S
O218 Zn215 2.028 1_556 S
O219 C211 1.258 . S
O219 Zn213 2.035 1_556 S
O220 Zn213 2.028 1_556 S
O220 C223 1.247 . S
O221 Zn215 2.035 1_556 S
O221 C223 1.258 . S
C222 O216 1.247 . S
C222 O217 1.258 . S
C223 O220 1.247 . S
C223 O221 1.258 . S
H224 C232 0.950 . S
H225 C237 0.950 . S
H226 C234 0.950 . S
H227 C236 0.950 . S
H228 C238 0.950 . S
H229 C240 0.950 . S
H230 C242 0.950 . S
H231 C243 0.950 . S
C232 H224 0.950 . S
C232 C233 1.386 . S
C232 C234 1.391 . S
C233 C232 1.386 . S
C233 C237 1.393 . S
C234 H226 0.950 . S
C234 C232 1.391 . S
C234 C235 1.400 . S
C235 C234 1.400 . S
C235 C236 1.398 . S
C235 C241 1.491 . S
C236 H227 0.950 . S
C236 C235 1.398 . S
C236 C237 1.391 . S
C237 H225 0.950 . S
C237 C233 1.393 . S
C237 C236 1.391 . S
C238 H228 0.950 . S
C238 C239 1.386 . S
C238 C240 1.391 . S
C239 C238 1.386 . S
C239 C243 1.393 . S
C240 H229 0.950 . S
C240 C238 1.391 . S
C240 C241 1.400 . S
C241 C235 1.491 . S
C241 C240 1.400 . S
C241 C242 1.398 . S
C242 H230 0.950 . S
C242 C241 1.398 . S
C242 C243 1.391 . S
C243 H231 0.950 . S
C243 C239 1.393 . S
C243 C242 1.391 . S
H244 C252 0.950 . S
H245 C257 0.950 . S
H246 C254 0.950 . S
H247 C256 0.950 . S
H248 C258 0.950 . S
H249 C260 0.950 . S
H250 C262 0.950 . S
H251 C263 0.950 . S
C252 H244 0.950 . S
C252 C253 1.386 . S
C252 C254 1.391 . S
C253 C252 1.386 . S
C253 C257 1.393 . S
C254 H246 0.950 . S
C254 C252 1.391 . S
C254 C255 1.400 . S
C255 C254 1.400 . S
C255 C256 1.398 . S
C255 C261 1.491 . S
C256 H247 0.950 . S
C256 C255 1.398 . S
C256 C257 1.391 . S
C257 H245 0.950 . S
C257 C253 1.393 . S
C257 C256 1.391 . S
C258 H248 0.950 . S
C258 C259 1.386 . S
C258 C260 1.391 . S
C259 C258 1.386 . S
C259 C263 1.393 . S
C260 H249 0.950 . S
C260 C258 1.391 . S
C260 C261 1.400 . S
C261 C255 1.491 . S
C261 C260 1.400 . S
C261 C262 1.398 . S
C262 H250 0.950 . S
C262 C261 1.398 . S
C262 C263 1.391 . S
C263 H251 0.950 . S
C263 C259 1.393 . S
C263 C262 1.391 . S
H264 C272 0.950 . S
H265 C277 0.950 . S
H266 C274 0.950 . S
H267 C276 0.950 . S
H268 C278 0.950 . S
H269 C280 0.950 . S
H270 C282 0.950 . S
H271 C283 0.950 . S
C272 H264 0.950 . S
C272 C273 1.386 . S
C272 C274 1.391 . S
C273 C272 1.386 . S
C273 C277 1.393 . S
C274 H266 0.950 . S
C274 C272 1.391 . S
C274 C275 1.400 . S
C275 C274 1.400 . S
C275 C276 1.398 . S
C275 C281 1.491 . S
C276 H267 0.950 . S
C276 C275 1.398 . S
C276 C277 1.391 . S
C277 H265 0.950 . S
C277 C273 1.393 . S
C277 C276 1.391 . S
C278 H268 0.950 . S
C278 C279 1.386 . S
C278 C280 1.391 . S
C279 C278 1.386 . S
C279 C283 1.393 . S
C280 H269 0.950 . S
C280 C278 1.391 . S
C280 C281 1.400 . S
C281 C275 1.491 . S
C281 C280 1.400 . S
C281 C282 1.398 . S
C282 H270 0.950 . S
C282 C281 1.398 . S
C282 C283 1.391 . S
C283 H271 0.950 . S
C283 C279 1.393 . S
C283 C282 1.391 . S
H284 C292 0.950 . S
H285 C297 0.950 . S
H286 C294 0.950 . S
H287 C296 0.950 . S
H288 C298 0.950 . S
H289 C300 0.950 . S
H290 C302 0.950 . S
H291 C303 0.950 . S
C292 H284 0.950 . S
C292 C293 1.386 . S
C292 C294 1.391 . S
C293 C292 1.386 . S
C293 C297 1.393 . S
C294 H286 0.950 . S
C294 C292 1.391 . S
C294 C295 1.400 . S
C295 C294 1.400 . S
C295 C296 1.398 . S
C295 C301 1.491 . S
C296 H287 0.950 . S
C296 C295 1.398 . S
C296 C297 1.391 . S
C297 H285 0.950 . S
C297 C293 1.393 . S
C297 C296 1.391 . S
C298 H288 0.950 . S
C298 C299 1.386 . S
C298 C300 1.391 . S
C299 C298 1.386 . S
C299 C303 1.393 . S
C300 H289 0.950 . S
C300 C298 1.391 . S
C300 C301 1.400 . S
C301 C295 1.491 . S
C301 C300 1.400 . S
C301 C302 1.398 . S
C302 H290 0.950 . S
C302 C301 1.398 . S
C302 C303 1.391 . S
C303 H291 0.950 . S
C303 C299 1.393 . S
C303 C302 1.391 . S
H304 C312 0.950 . S
H305 C317 0.950 . S
H306 C314 0.950 . S
H307 C316 0.950 . S
H308 C318 0.950 . S
H309 C320 0.950 . S
H310 C322 0.950 . S
H311 C323 0.950 . S
C312 H304 0.950 . S
C312 C313 1.386 . S
C312 C314 1.391 . S
C313 C312 1.386 . S
C313 C317 1.393 . S
C314 H306 0.950 . S
C314 C312 1.391 . S
C314 C315 1.400 . S
C315 C314 1.400 . S
C315 C316 1.398 . S
C315 C321 1.491 . S
C316 H307 0.950 . S
C316 C315 1.398 . S
C316 C317 1.391 . S
C317 H305 0.950 . S
C317 C313 1.393 . S
C317 C316 1.391 . S
C318 H308 0.950 . S
C318 C319 1.386 . S
C318 C320 1.391 . S
C319 C318 1.386 . S
C319 C323 1.393 . S
C320 H309 0.950 . S
C320 C318 1.391 . S
C320 C321 1.400 . S
C321 C315 1.491 . S
C321 C320 1.400 . S
C321 C322 1.398 . S
C322 H310 0.950 . S
C322 C321 1.398 . S
C322 C323 1.391 . S
C323 H311 0.950 . S
C323 C319 1.393 . S
C323 C322 1.391 . S
H324 C332 0.950 . S
H325 C337 0.950 . S
H326 C334 0.950 . S
H327 C336 0.950 . S
H328 C338 0.950 . S
H329 C340 0.950 . S
H330 C342 0.950 . S
H331 C343 0.950 . S
C332 H324 0.950 . S
C332 C333 1.386 . S
C332 C334 1.391 . S
C333 C332 1.386 . S
C333 C337 1.393 . S
C334 H326 0.950 . S
C334 C332 1.391 . S
C334 C335 1.400 . S
C335 C334 1.400 . S
C335 C336 1.398 . S
C335 C341 1.491 . S
C336 H327 0.950 . S
C336 C335 1.398 . S
C336 C337 1.391 . S
C337 H325 0.950 . S
C337 C333 1.393 . S
C337 C336 1.391 . S
C338 H328 0.950 . S
C338 C339 1.386 . S
C338 C340 1.391 . S
C339 C338 1.386 . S
C339 C343 1.393 . S
C340 H329 0.950 . S
C340 C338 1.391 . S
C340 C341 1.400 . S
C341 C335 1.491 . S
C341 C340 1.400 . S
C341 C342 1.398 . S
C342 H330 0.950 . S
C342 C341 1.398 . S
C342 C343 1.391 . S
C343 H331 0.950 . S
C343 C339 1.393 . S
C343 C342 1.391 . S
H344 C352 0.950 . S
H345 C357 0.950 . S
H346 C354 0.950 . S
H347 C356 0.950 . S
H348 C358 0.950 . S
H349 C360 0.950 . S
H350 C362 0.950 . S
H351 C363 0.950 . S
C352 H344 0.950 . S
C352 C353 1.386 . S
C352 C354 1.391 . S
C353 C352 1.386 . S
C353 C357 1.393 . S
C354 H346 0.950 . S
C354 C352 1.391 . S
C354 C355 1.400 . S
C355 C354 1.400 . S
C355 C356 1.398 . S
C355 C361 1.491 . S
C356 H347 0.950 . S
C356 C355 1.398 . S
C356 C357 1.391 . S
C357 H345 0.950 . S
C357 C353 1.393 . S
C357 C356 1.391 . S
C358 H348 0.950 . S
C358 C359 1.386 . S
C358 C360 1.391 . S
C359 C358 1.386 . S
C359 C363 1.393 . S
C360 H349 0.950 . S
C360 C358 1.391 . S
C360 C361 1.400 . S
C361 C355 1.491 . S
C361 C360 1.400 . S
C361 C362 1.398 . S
C362 H350 0.950 . S
C362 C361 1.398 . S
C362 C363 1.391 . S
C363 H351 0.950 . S
C363 C359 1.393 . S
C363 C362 1.391 . S
H364 C372 0.950 . S
H365 C377 0.950 . S
H366 C374 0.950 . S
H367 C376 0.950 . S
H368 C378 0.950 . S
H369 C380 0.950 . S
H370 C382 0.950 . S
H371 C383 0.950 . S
C372 H364 0.950 . S
C372 C373 1.386 . S
C372 C374 1.391 . S
C373 C372 1.386 . S
C373 C377 1.393 . S
C374 H366 0.950 . S
C374 C372 1.391 . S
C374 C375 1.400 . S
C375 C374 1.400 . S
C375 C376 1.398 . S
C375 C381 1.491 . S
C376 H367 0.950 . S
C376 C375 1.398 . S
C376 C377 1.391 . S
C377 H365 0.950 . S
C377 C373 1.393 . S
C377 C376 1.391 . S
C378 H368 0.950 . S
C378 C379 1.386 . S
C378 C380 1.391 . S
C379 C378 1.386 . S
C379 C383 1.393 . S
C380 H369 0.950 . S
C380 C378 1.391 . S
C380 C381 1.400 . S
C381 C375 1.491 . S
C381 C380 1.400 . S
C381 C382 1.398 . S
C382 H370 0.950 . S
C382 C381 1.398 . S
C382 C383 1.391 . S
C383 H371 0.950 . S
C383 C379 1.393 . S
C383 C382 1.391 . S
H384 C392 0.950 . S
H385 C397 0.950 . S
H386 C394 0.950 . S
H387 C396 0.950 . S
H388 C398 0.950 . S
H389 C400 0.950 . S
H390 C402 0.950 . S
H391 C403 0.950 . S
C392 H384 0.950 . S
C392 C393 1.386 . S
C392 C394 1.391 . S
C393 C392 1.386 . S
C393 C397 1.393 . S
C394 H386 0.950 . S
C394 C392 1.391 . S
C394 C395 1.400 . S
C395 C394 1.400 . S
C395 C396 1.398 . S
C395 C401 1.491 . S
C396 H387 0.950 . S
C396 C395 1.398 . S
C396 C397 1.391 . S
C397 H385 0.950 . S
C397 C393 1.393 . S
C397 C396 1.391 . S
C398 H388 0.950 . S
C398 C399 1.386 . S
C398 C400 1.391 . S
C399 C398 1.386 . S
C399 C403 1.393 . S
C400 H389 0.950 . S
C400 C398 1.391 . S
C400 C401 1.400 . S
C401 C395 1.491 . S
C401 C400 1.400 . S
C401 C402 1.398 . S
C402 H390 0.950 . S
C402 C401 1.398 . S
C402 C403 1.391 . S
C403 H391 0.950 . S
C403 C399 1.393 . S
C403 C402 1.391 . S
H404 C412 0.950 . S
H405 C417 0.950 . S
H406 C414 0.950 . S
H407 C416 0.950 . S
H408 C418 0.950 . S
H409 C420 0.950 . S
H410 C422 0.950 . S
H411 C423 0.950 . S
C412 H404 0.950 . S
C412 C413 1.386 . S
C412 C414 1.391 . S
C413 C412 1.386 . S
C413 C417 1.393 . S
C414 H406 0.950 . S
C414 C412 1.391 . S
C414 C415 1.400 . S
C415 C414 1.400 . S
C415 C416 1.398 . S
C415 C421 1.491 . S
C416 H407 0.950 . S
C416 C415 1.398 . S
C416 C417 1.391 . S
C417 H405 0.950 . S
C417 C413 1.393 . S
C417 C416 1.391 . S
C418 H408 0.950 . S
C418 C419 1.386 . S
C418 C420 1.391 . S
C419 C418 1.386 . S
C419 C423 1.393 . S
C420 H409 0.950 . S
C420 C418 1.391 . S
C420 C421 1.400 . S
C421 C415 1.491 . S
C421 C420 1.400 . S
C421 C422 1.398 . S
C422 H410 0.950 . S
C422 C421 1.398 . S
C422 C423 1.391 . S
C423 H411 0.950 . S
C423 C419 1.393 . S
C423 C422 1.391 . S
H424 C432 0.950 . S
H425 C437 0.950 . S
H426 C434 0.950 . S
H427 C436 0.950 . S
H428 C438 0.950 . S
H429 C440 0.950 . S
H430 C442 0.950 . S
H431 C443 0.950 . S
C432 H424 0.950 . S
C432 C433 1.386 . S
C432 C434 1.391 . S
C433 C432 1.386 . S
C433 C437 1.393 . S
C434 H426 0.950 . S
C434 C432 1.391 . S
C434 C435 1.400 . S
C435 C434 1.400 . S
C435 C436 1.398 . S
C435 C441 1.491 . S
C436 H427 0.950 . S
C436 C435 1.398 . S
C436 C437 1.391 . S
C437 H425 0.950 . S
C437 C433 1.393 . S
C437 C436 1.391 . S
C438 H428 0.950 . S
C438 C439 1.386 . S
C438 C440 1.391 . S
C439 C438 1.386 . S
C439 C443 1.393 . S
C440 H429 0.950 . S
C440 C438 1.391 . S
C440 C441 1.400 . S
C441 C435 1.491 . S
C441 C440 1.400 . S
C441 C442 1.398 . S
C442 H430 0.950 . S
C442 C441 1.398 . S
C442 C443 1.391 . S
C443 H431 0.950 . S
C443 C439 1.393 . S
C443 C442 1.391 . S
H444 C452 0.950 . S
H445 C457 0.950 . S
H446 C454 0.950 . S
H447 C456 0.950 . S
H448 C458 0.950 . S
H449 C460 0.950 . S
H450 C462 0.950 . S
H451 C463 0.950 . S
C452 H444 0.950 . S
C452 C453 1.386 . S
C452 C454 1.391 . S
C453 C452 1.386 . S
C453 C457 1.393 . S
C454 H446 0.950 . S
C454 C452 1.391 . S
C454 C455 1.400 . S
C455 C454 1.400 . S
C455 C456 1.398 . S
C455 C461 1.491 . S
C456 H447 0.950 . S
C456 C455 1.398 . S
C456 C457 1.391 . S
C457 H445 0.950 . S
C457 C453 1.393 . S
C457 C456 1.391 . S
C458 H448 0.950 . S
C458 C459 1.386 . S
C458 C460 1.391 . S
C459 C458 1.386 . S
C459 C463 1.393 . S
C460 H449 0.950 . S
C460 C458 1.391 . S
C460 C461 1.400 . S
C461 C455 1.491 . S
C461 C460 1.400 . S
C461 C462 1.398 . S
C462 H450 0.950 . S
C462 C461 1.398 . S
C462 C463 1.391 . S
C463 H451 0.950 . S
C463 C459 1.393 . S
C463 C462 1.391 . S
H464 C472 0.950 . S
H465 C477 0.950 . S
H466 C474 0.950 . S
H467 C476 0.950 . S
H468 C478 0.950 . S
H469 C480 0.950 . S
H470 C482 0.950 . S
H471 C483 0.950 . S
C472 H464 0.950 . S
C472 C473 1.386 . S
C472 C474 1.391 . S
C473 C472 1.386 . S
C473 C477 1.393 . S
C474 H466 0.950 . S
C474 C472 1.391 . S
C474 C475 1.400 . S
C475 C474 1.400 . S
C475 C476 1.398 . S
C475 C481 1.491 . S
C476 H467 0.950 . S
C476 C475 1.398 . S
C476 C477 1.391 . S
C477 H465 0.950 . S
C477 C473 1.393 . S
C477 C476 1.391 . S
C478 H468 0.950 . S
C478 C479 1.386 . S
C478 C480 1.391 . S
C479 C478 1.386 . S
C479 C483 1.393 . S
C480 H469 0.950 . S
C480 C478 1.391 . S
C480 C481 1.400 . S
C481 C475 1.491 . S
C481 C480 1.400 . S
C481 C482 1.398 . S
C482 H470 0.950 . S
C482 C481 1.398 . S
C482 C483 1.391 . S
C483 H471 0.950 . S
C483 C479 1.393 . S
C483 C482 1.391 . S
H484 C492 0.950 . S
H485 C497 0.950 . S
H486 C494 0.950 . S
H487 C496 0.950 . S
H488 C498 0.950 . S
H489 C500 0.950 . S
H490 C502 0.950 . S
H491 C503 0.950 . S
C492 H484 0.950 . S
C492 C493 1.386 . S
C492 C494 1.391 . S
C493 C492 1.386 . S
C493 C497 1.393 . S
C494 H486 0.950 . S
C494 C492 1.391 . S
C494 C495 1.400 . S
C495 C494 1.400 . S
C495 C496 1.398 . S
C495 C501 1.491 . S
C496 H487 0.950 . S
C496 C495 1.398 . S
C496 C497 1.391 . S
C497 H485 0.950 . S
C497 C493 1.393 . S
C497 C496 1.391 . S
C498 H488 0.950 . S
C498 C499 1.386 . S
C498 C500 1.391 . S
C499 C498 1.386 . S
C499 C503 1.393 . S
C500 H489 0.950 . S
C500 C498 1.391 . S
C500 C501 1.400 . S
C501 C495 1.491 . S
C501 C500 1.400 . S
C501 C502 1.398 . S
C502 H490 0.950 . S
C502 C501 1.398 . S
C502 C503 1.391 . S
C503 H491 0.950 . S
C503 C499 1.393 . S
C503 C502 1.391 . S
H504 C512 0.950 . S
H505 C517 0.950 . S
H506 C514 0.950 . S
H507 C516 0.950 . S
H508 C518 0.950 . S
H509 C520 0.950 . S
H510 C522 0.950 . S
H511 C523 0.950 . S
C512 H504 0.950 . S
C512 C513 1.386 . S
C512 C514 1.391 . S
C513 C512 1.386 . S
C513 C517 1.393 . S
C514 H506 0.950 . S
C514 C512 1.391 . S
C514 C515 1.400 . S
C515 C514 1.400 . S
C515 C516 1.398 . S
C515 C521 1.491 . S
C516 H507 0.950 . S
C516 C515 1.398 . S
C516 C517 1.391 . S
C517 H505 0.950 . S
C517 C513 1.393 . S
C517 C516 1.391 . S
C518 H508 0.950 . S
C518 C519 1.386 . S
C518 C520 1.391 . S
C519 C518 1.386 . S
C519 C523 1.393 . S
C520 H509 0.950 . S
C520 C518 1.391 . S
C520 C521 1.400 . S
C521 C515 1.491 . S
C521 C520 1.400 . S
C521 C522 1.398 . S
C522 H510 0.950 . S
C522 C521 1.398 . S
C522 C523 1.391 . S
C523 H511 0.950 . S
C523 C519 1.393 . S
C523 C522 1.391 . S
H524 C532 0.950 . S
H525 C537 0.950 . S
H526 C534 0.950 . S
H527 C536 0.950 . S
H528 C538 0.950 . S
H529 C540 0.950 . S
H530 C542 0.950 . S
H531 C543 0.950 . S
C532 H524 0.950 . S
C532 C533 1.386 . S
C532 C534 1.391 . S
C533 C532 1.386 . S
C533 C537 1.393 . S
C534 H526 0.950 . S
C534 C532 1.391 . S
C534 C535 1.400 . S
C535 C534 1.400 . S
C535 C536 1.398 . S
C535 C541 1.491 . S
C536 H527 0.950 . S
C536 C535 1.398 . S
C536 C537 1.391 . S
C537 H525 0.950 . S
C537 C533 1.393 . S
C537 C536 1.391 . S
C538 H528 0.950 . S
C538 C539 1.386 . S
C538 C540 1.391 . S
C539 C538 1.386 . S
C539 C543 1.393 . S
C540 H529 0.950 . S
C540 C538 1.391 . S
C540 C541 1.400 . S
C541 C535 1.491 . S
C541 C540 1.400 . S
C541 C542 1.398 . S
C542 H530 0.950 . S
C542 C541 1.398 . S
C542 C543 1.391 . S
C543 H531 0.950 . S
C543 C539 1.393 . S
C543 C542 1.391 . S
H544 C552 0.950 . S
H545 C557 0.950 . S
H546 C554 0.950 . S
H547 C556 0.950 . S
H548 C558 0.950 . S
H549 C560 0.950 . S
H550 C562 0.950 . S
H551 C563 0.950 . S
C552 H544 0.950 . S
C552 C553 1.386 . S
C552 C554 1.391 . S
C553 C552 1.386 . S
C553 C557 1.393 . S
C554 H546 0.950 . S
C554 C552 1.391 . S
C554 C555 1.400 . S
C555 C554 1.400 . S
C555 C556 1.398 . S
C555 C561 1.491 . S
C556 H547 0.950 . S
C556 C555 1.398 . S
C556 C557 1.391 . S
C557 H545 0.950 . S
C557 C553 1.393 . S
C557 C556 1.391 . S
C558 H548 0.950 . S
C558 C559 1.386 . S
C558 C560 1.391 . S
C559 C558 1.386 . S
C559 C563 1.393 . S
C560 H549 0.950 . S
C560 C558 1.391 . S
C560 C561 1.400 . S
C561 C555 1.491 . S
C561 C560 1.400 . S
C561 C562 1.398 . S
C562 H550 0.950 . S
C562 C561 1.398 . S
C562 C563 1.391 . S
C563 H551 0.950 . S
C563 C559 1.393 . S
C563 C562 1.391 . S
H564 C572 0.950 . S
H565 C577 0.950 . S
H566 C574 0.950 . S
H567 C576 0.950 . S
H568 C578 0.950 . S
H569 C580 0.950 . S
H570 C582 0.950 . S
H571 C583 0.950 . S
C572 H564 0.950 . S
C572 C573 1.386 . S
C572 C574 1.391 . S
C573 C572 1.386 . S
C573 C577 1.393 . S
C574 H566 0.950 . S
C574 C572 1.391 . S
C574 C575 1.400 . S
C575 C574 1.400 . S
C575 C576 1.398 . S
C575 C581 1.491 . S
C576 H567 0.950 . S
C576 C575 1.398 . S
C576 C577 1.391 . S
C577 H565 0.950 . S
C577 C573 1.393 . S
C577 C576 1.391 . S
C578 H568 0.950 . S
C578 C579 1.386 . S
C578 C580 1.391 . S
C579 C578 1.386 . S
C579 C583 1.393 . S
C580 H569 0.950 . S
C580 C578 1.391 . S
C580 C581 1.400 . S
C581 C575 1.491 . S
C581 C580 1.400 . S
C581 C582 1.398 . S
C582 H570 0.950 . S
C582 C581 1.398 . S
C582 C583 1.391 . S
C583 H571 0.950 . S
C583 C579 1.393 . S
C583 C582 1.391 . S
H584 C592 0.950 . S
H585 C597 0.950 . S
H586 C594 0.950 . S
H587 C596 0.950 . S
H588 C598 0.950 . S
H589 C600 0.950 . S
H590 C602 0.950 . S
H591 C603 0.950 . S
C592 H584 0.950 . S
C592 C593 1.386 . S
C592 C594 1.391 . S
C593 C592 1.386 . S
C593 C597 1.393 . S
C594 H586 0.950 . S
C594 C592 1.391 . S
C594 C595 1.400 . S
C595 C594 1.400 . S
C595 C596 1.398 . S
C595 C601 1.491 . S
C596 H587 0.950 . S
C596 C595 1.398 . S
C596 C597 1.391 . S
C597 H585 0.950 . S
C597 C593 1.393 . S
C597 C596 1.391 . S
C598 H588 0.950 . S
C598 C599 1.386 . S
C598 C600 1.391 . S
C599 C598 1.386 . S
C599 C603 1.393 . S
C600 H589 0.950 . S
C600 C598 1.391 . S
C600 C601 1.400 . S
C601 C595 1.491 . S
C601 C600 1.400 . S
C601 C602 1.398 . S
C602 H590 0.950 . S
C602 C601 1.398 . S
C602 C603 1.391 . S
C603 H591 0.950 . S
C603 C599 1.393 . S
C603 C602 1.391 . S
H604 C612 0.950 . S
H605 C617 0.950 . S
H606 C614 0.950 . S
H607 C616 0.950 . S
H608 C618 0.950 . S
H609 C620 0.950 . S
H610 C622 0.950 . S
H611 C623 0.950 . S
C612 H604 0.950 . S
C612 C613 1.386 . S
C612 C614 1.391 . S
C613 C612 1.386 . S
C613 C617 1.393 . S
C614 H606 0.950 . S
C614 C612 1.391 . S
C614 C615 1.400 . S
C615 C614 1.400 . S
C615 C616 1.398 . S
C615 C621 1.491 . S
C616 H607 0.950 . S
C616 C615 1.398 . S
C616 C617 1.391 . S
C617 H605 0.950 . S
C617 C613 1.393 . S
C617 C616 1.391 . S
C618 H608 0.950 . S
C618 C619 1.386 . S
C618 C620 1.391 . S
C619 C618 1.386 . S
C619 C623 1.393 . S
C620 H609 0.950 . S
C620 C618 1.391 . S
C620 C621 1.400 . S
C621 C615 1.491 . S
C621 C620 1.400 . S
C621 C622 1.398 . S
C622 H610 0.950 . S
C622 C621 1.398 . S
C622 C623 1.391 . S
C623 H611 0.950 . S
C623 C619 1.393 . S
C623 C622 1.391 . S
H624 C632 0.950 . S
H625 C637 0.950 . S
H626 C634 0.950 . S
H627 C636 0.950 . S
H628 C638 0.950 . S
H629 C640 0.950 . S
H630 C642 0.950 . S
H631 C643 0.950 . S
C632 H624 0.950 . S
C632 C633 1.386 . S
C632 C634 1.391 . S
C633 C632 1.386 . S
C633 C637 1.393 . S
C634 H626 0.950 . S
C634 C632 1.391 . S
C634 C635 1.400 . S
C635 C634 1.400 . S
C635 C636 1.398 . S
C635 C641 1.491 . S
C636 H627 0.950 . S
C636 C635 1.398 . S
C636 C637 1.391 . S
C637 H625 0.950 . S
C637 C633 1.393 . S
C637 C636 1.391 . S
C638 H628 0.950 . S
C638 C639 1.386 . S
C638 C640 1.391 . S
C639 C638 1.386 . S
C639 C643 1.393 . S
C640 H629 0.950 . S
C640 C638 1.391 . S
C640 C641 1.400 . S
C641 C635 1.491 . S
C641 C640 1.400 . S
C641 C642 1.398 . S
C642 H630 0.950 . S
C642 C641 1.398 . S
C642 C643 1.391 . S
C643 H631 0.950 . S
C643 C639 1.393 . S
C643 C642 1.391 . S
H644 C652 0.950 . S
H645 C657 0.950 . S
H646 C654 0.950 . S
H647 C656 0.950 . S
H648 C658 0.950 . S
H649 C660 0.950 . S
H650 C662 0.950 . S
H651 C663 0.950 . S
C652 H644 0.950 . S
C652 C653 1.386 . S
C652 C654 1.391 . S
C653 C652 1.386 . S
C653 C657 1.393 . S
C654 H646 0.950 . S
C654 C652 1.391 . S
C654 C655 1.400 . S
C655 C654 1.400 . S
C655 C656 1.398 . S
C655 C661 1.491 . S
C656 H647 0.950 . S
C656 C655 1.398 . S
C656 C657 1.391 . S
C657 H645 0.950 . S
C657 C653 1.393 . S
C657 C656 1.391 . S
C658 H648 0.950 . S
C658 C659 1.386 . S
C658 C660 1.391 . S
C659 C658 1.386 . S
C659 C663 1.393 . S
C660 H649 0.950 . S
C660 C658 1.391 . S
C660 C661 1.400 . S
C661 C655 1.491 . S
C661 C660 1.400 . S
C661 C662 1.398 . S
C662 H650 0.950 . S
C662 C661 1.398 . S
C662 C663 1.391 . S
C663 H651 0.950 . S
C663 C659 1.393 . S
C663 C662 1.391 . S
H664 C672 0.950 . S
H665 C677 0.950 . S
H666 C674 0.950 . S
H667 C676 0.950 . S
H668 C678 0.950 . S
H669 C680 0.950 . S
H670 C682 0.950 . S
H671 C683 0.950 . S
C672 H664 0.950 . S
C672 C673 1.386 . S
C672 C674 1.391 . S
C673 C672 1.386 . S
C673 C677 1.393 . S
C674 H666 0.950 . S
C674 C672 1.391 . S
C674 C675 1.400 . S
C675 C674 1.400 . S
C675 C676 1.398 . S
C675 C681 1.491 . S
C676 H667 0.950 . S
C676 C675 1.398 . S
C676 C677 1.391 . S
C677 H665 0.950 . S
C677 C673 1.393 . S
C677 C676 1.391 . S
C678 H668 0.950 . S
C678 C679 1.386 . S
C678 C680 1.391 . S
C679 C678 1.386 . S
C679 C683 1.393 . S
C680 H669 0.950 . S
C680 C678 1.391 . S
C680 C681 1.400 . S
C681 C675 1.491 . S
C681 C680 1.400 . S
C681 C682 1.398 . S
C682 H670 0.950 . S
C682 C681 1.398 . S
C682 C683 1.391 . S
C683 H671 0.950 . S
C683 C679 1.393 . S
C683 C682 1.391 . S
H684 C692 0.950 . S
H685 C697 0.950 . S
H686 C694 0.950 . S
H687 C696 0.950 . S
H688 C698 0.950 . S
H689 C700 0.950 . S
H690 C702 0.950 . S
H691 C703 0.950 . S
C692 H684 0.950 . S
C692 C693 1.386 . S
C692 C694 1.391 . S
C693 C692 1.386 . S
C693 C697 1.393 . S
C694 H686 0.950 . S
C694 C692 1.391 . S
C694 C695 1.400 . S
C695 C694 1.400 . S
C695 C696 1.398 . S
C695 C701 1.491 . S
C696 H687 0.950 . S
C696 C695 1.398 . S
C696 C697 1.391 . S
C697 H685 0.950 . S
C697 C693 1.393 . S
C697 C696 1.391 . S
C698 H688 0.950 . S
C698 C699 1.386 . S
C698 C700 1.391 . S
C699 C698 1.386 . S
C699 C703 1.393 . S
C700 H689 0.950 . S
C700 C698 1.391 . S
C700 C701 1.400 . S
C701 C695 1.491 . S
C701 C700 1.400 . S
C701 C702 1.398 . S
C702 H690 0.950 . S
C702 C701 1.398 . S
C702 C703 1.391 . S
C703 H691 0.950 . S
C703 C699 1.393 . S
C703 C702 1.391 . S
H704 C712 0.950 . S
H705 C717 0.950 . S
H706 C714 0.950 . S
H707 C716 0.950 . S
H708 C718 0.950 . S
H709 C720 0.950 . S
H710 C722 0.950 . S
H711 C723 0.950 . S
C712 H704 0.950 . S
C712 C713 1.386 . S
C712 C714 1.391 . S
C713 C712 1.386 . S
C713 C717 1.393 . S
C714 H706 0.950 . S
C714 C712 1.391 . S
C714 C715 1.400 . S
C715 C714 1.400 . S
C715 C716 1.398 . S
C715 C721 1.491 . S
C716 H707 0.950 . S
C716 C715 1.398 . S
C716 C717 1.391 . S
C717 H705 0.950 . S
C717 C713 1.393 . S
C717 C716 1.391 . S
C718 H708 0.950 . S
C718 C719 1.386 . S
C718 C720 1.391 . S
C719 C718 1.386 . S
C719 C723 1.393 . S
C720 H709 0.950 . S
C720 C718 1.391 . S
C720 C721 1.400 . S
C721 C715 1.491 . S
C721 C720 1.400 . S
C721 C722 1.398 . S
C722 H710 0.950 . S
C722 C721 1.398 . S
C722 C723 1.391 . S
C723 H711 0.950 . S
C723 C719 1.393 . S
C723 C722 1.391 . S
H724 C732 0.950 . S
H725 C737 0.950 . S
H726 C734 0.950 . S
H727 C736 0.950 . S
H728 C738 0.950 . S
H729 C740 0.950 . S
H730 C742 0.950 . S
H731 C743 0.950 . S
C732 H724 0.950 . S
C732 C733 1.386 . S
C732 C734 1.391 . S
C733 C732 1.386 . S
C733 C737 1.393 . S
C734 H726 0.950 . S
C734 C732 1.391 . S
C734 C735 1.400 . S
C735 C734 1.400 . S
C735 C736 1.398 . S
C735 C741 1.491 . S
C736 H727 0.950 . S
C736 C735 1.398 . S
C736 C737 1.391 . S
C737 H725 0.950 . S
C737 C733 1.393 . S
C737 C736 1.391 . S
C738 H728 0.950 . S
C738 C739 1.386 . S
C738 C740 1.391 . S
C739 C738 1.386 . S
C739 C743 1.393 . S
C740 H729 0.950 . S
C740 C738 1.391 . S
C740 C741 1.400 . S
C741 C735 1.491 . S
C741 C740 1.400 . S
C741 C742 1.398 . S
C742 H730 0.950 . S
C742 C741 1.398 . S
C742 C743 1.391 . S
C743 H731 0.950 . S
C743 C739 1.393 . S
C743 C742 1.391 . S
H744 C752 0.950 . S
H745 C757 0.950 . S
H746 C754 0.950 . S
H747 C756 0.950 . S
H748 C758 0.950 . S
H749 C760 0.950 . S
H750 C762 0.950 . S
H751 C763 0.950 . S
C752 H744 0.950 . S
C752 C753 1.386 . S
C752 C754 1.391 . S
C753 C752 1.386 . S
C753 C757 1.393 . S
C754 H746 0.950 . S
C754 C752 1.391 . S
C754 C755 1.400 . S
C755 C754 1.400 . S
C755 C756 1.398 . S
C755 C761 1.491 . S
C756 H747 0.950 . S
C756 C755 1.398 . S
C756 C757 1.391 . S
C757 H745 0.950 . S
C757 C753 1.393 . S
C757 C756 1.391 . S
C758 H748 0.950 . S
C758 C759 1.386 . S
C758 C760 1.391 . S
C759 C758 1.386 . S
C759 C763 1.393 . S
C760 H749 0.950 . S
C760 C758 1.391 . S
C760 C761 1.400 . S
C761 C755 1.491 . S
C761 C760 1.400 . S
C761 C762 1.398 . S
C762 H750 0.950 . S
C762 C761 1.398 . S
C762 C763 1.391 . S
C763 H751 0.950 . S
C763 C759 1.393 . S
C763 C762 1.391 . S
H764 C772 0.950 . S
H765 C777 0.950 . S
H766 C774 0.950 . S
H767 C776 0.950 . S
H768 C778 0.950 . S
H769 C780 0.950 . S
H770 C782 0.950 . S
H771 C783 0.950 . S
C772 H764 0.950 . S
C772 C773 1.386 . S
C772 C774 1.391 . S
C773 C772 1.386 . S
C773 C777 1.393 . S
C774 H766 0.950 . S
C774 C772 1.391 . S
C774 C775 1.400 . S
C775 C774 1.400 . S
C775 C776 1.398 . S
C775 C781 1.491 . S
C776 H767 0.950 . S
C776 C775 1.398 . S
C776 C777 1.391 . S
C777 H765 0.950 . S
C777 C773 1.393 . S
C777 C776 1.391 . S
C778 H768 0.950 . S
C778 C779 1.386 . S
C778 C780 1.391 . S
C779 C778 1.386 . S
C779 C783 1.393 . S
C780 H769 0.950 . S
C780 C778 1.391 . S
C780 C781 1.400 . S
C781 C775 1.491 . S
C781 C780 1.400 . S
C781 C782 1.398 . S
C782 H770 0.950 . S
C782 C781 1.398 . S
C782 C783 1.391 . S
C783 H771 0.950 . S
C783 C779 1.393 . S
C783 C782 1.391 . S
H784 C792 0.950 . S
H785 C797 0.950 . S
H786 C794 0.950 . S
H787 C796 0.950 . S
H788 C798 0.950 . S
H789 C800 0.950 . S
H790 C802 0.950 . S
H791 C803 0.950 . S
C792 H784 0.950 . S
C792 C793 1.386 . S
C792 C794 1.391 . S
C793 C792 1.386 . S
C793 C797 1.393 . S
C794 H786 0.950 . S
C794 C792 1.391 . S
C794 C795 1.400 . S
C795 C794 1.400 . S
C795 C796 1.398 . S
C795 C801 1.491 . S
C796 H787 0.950 . S
C796 C795 1.398 . S
C796 C797 1.391 . S
C797 H785 0.950 . S
C797 C793 1.393 . S
C797 C796 1.391 . S
C798 H788 0.950 . S
C798 C799 1.386 . S
C798 C800 1.391 . S
C799 C798 1.386 . S
C799 C803 1.393 . S
C800 H789 0.950 . S
C800 C798 1.391 . S
C800 C801 1.400 . S
C801 C795 1.491 . S
C801 C800 1.400 . S
C801 C802 1.398 . S
C802 H790 0.950 . S
C802 C801 1.398 . S
C802 C803 1.391 . S
C803 H791 0.950 . S
C803 C799 1.393 . S
C803 C802 1.391 . S
H804 C812 0.950 . S
H805 C817 0.950 . S
H806 C814 0.950 . S
H807 C816 0.950 . S
H808 C818 0.950 . S
H809 C820 0.950 . S
H810 C822 0.950 . S
H811 C823 0.950 . S
C812 H804 0.950 . S
C812 C813 1.386 . S
C812 C814 1.391 . S
C813 C812 1.386 . S
C813 C817 1.393 . S
C814 H806 0.950 . S
C814 C812 1.391 . S
C814 C815 1.400 . S
C815 C814 1.400 . S
C815 C816 1.398 . S
C815 C821 1.491 . S
C816 H807 0.950 . S
C816 C815 1.398 . S
C816 C817 1.391 . S
C817 H805 0.950 . S
C817 C813 1.393 . S
C817 C816 1.391 . S
C818 H808 0.950 . S
C818 C819 1.386 . S
C818 C820 1.391 . S
C819 C818 1.386 . S
C819 C823 1.393 . S
C820 H809 0.950 . S
C820 C818 1.391 . S
C820 C821 1.400 . S
C821 C815 1.491 . S
C821 C820 1.400 . S
C821 C822 1.398 . S
C822 H810 0.950 . S
C822 C821 1.398 . S
C822 C823 1.391 . S
C823 H811 0.950 . S
C823 C819 1.393 . S
C823 C822 1.391 . S
H824 C832 0.950 . S
H825 C837 0.950 . S
H826 C834 0.950 . S
H827 C836 0.950 . S
H828 C838 0.950 . S
H829 C840 0.950 . S
H830 C842 0.950 . S
H831 C843 0.950 . S
C832 H824 0.950 . S
C832 C833 1.386 . S
C832 C834 1.391 . S
C833 C832 1.386 . S
C833 C837 1.393 . S
C834 H826 0.950 . S
C834 C832 1.391 . S
C834 C835 1.400 . S
C835 C834 1.400 . S
C835 C836 1.398 . S
C835 C841 1.491 . S
C836 H827 0.950 . S
C836 C835 1.398 . S
C836 C837 1.391 . S
C837 H825 0.950 . S
C837 C833 1.393 . S
C837 C836 1.391 . S
C838 H828 0.950 . S
C838 C839 1.386 . S
C838 C840 1.391 . S
C839 C838 1.386 . S
C839 C843 1.393 . S
C840 H829 0.950 . S
C840 C838 1.391 . S
C840 C841 1.400 . S
C841 C835 1.491 . S
C841 C840 1.400 . S
C841 C842 1.398 . S
C842 H830 0.950 . S
C842 C841 1.398 . S
C842 C843 1.391 . S
C843 H831 0.950 . S
C843 C839 1.393 . S
C843 C842 1.391 . S
H844 C852 0.950 . S
H845 C857 0.950 . S
H846 C854 0.950 . S
H847 C856 0.950 . S
H848 C858 0.950 . S
H849 C860 0.950 . S
H850 C862 0.950 . S
H851 C863 0.950 . S
C852 H844 0.950 . S
C852 C853 1.386 . S
C852 C854 1.391 . S
C853 C852 1.386 . S
C853 C857 1.393 . S
C854 H846 0.950 . S
C854 C852 1.391 . S
C854 C855 1.400 . S
C855 C854 1.400 . S
C855 C856 1.398 . S
C855 C861 1.491 . S
C856 H847 0.950 . S
C856 C855 1.398 . S
C856 C857 1.391 . S
C857 H845 0.950 . S
C857 C853 1.393 . S
C857 C856 1.391 . S
C858 H848 0.950 . S
C858 C859 1.386 . S
C858 C860 1.391 . S
C859 C858 1.386 . S
C859 C863 1.393 . S
C860 H849 0.950 . S
C860 C858 1.391 . S
C860 C861 1.400 . S
C861 C855 1.491 . S
C861 C860 1.400 . S
C861 C862 1.398 . S
C862 H850 0.950 . S
C862 C861 1.398 . S
C862 C863 1.391 . S
C863 H851 0.950 . S
C863 C859 1.393 . S
C863 C862 1.391 . S
C239 C113 1.554 . S
C233 C0 1.562 . S
C259 C139 1.547 . S
C253 C26 1.556 . S
C279 C153 1.553 . S
C273 C40 1.561 . S
C299 C155 1.557 . S
C293 C43 1.566 . S
C313 C57 1.563 . S
C319 C152 1.552 . S
C339 C154 1.547 . S
C333 C70 1.556 . S
C359 C112 1.555 . S
C353 C97 1.562 . S
C379 C138 1.551 . S
C373 C111 1.560 . S
C399 C140 1.557 . S
C393 C98 1.564 . S
C419 C166 1.556 . S
C413 C68 1.566 . S
C439 C124 1.557 . S
C433 C83 1.561 . S
C459 C126 1.552 . S
C453 C84 1.557 . S
C479 C125 1.555 . S
C473 C15 1.566 . S
C499 C127 1.552 . S
C493 C29 1.564 . S
C519 C141 1.549 . S
C513 C54 1.556 . S
C539 C167 1.551 . S
C533 C13 1.560 . S
C559 C169 1.547 . S
C553 C99 1.559 . S
C573 C69 1.564 . S
C579 C195 1.558 . S
C593 C82 1.564 . S
C599 C208 1.560 . S
C613 C85 1.560 . S
C619 C211 1.548 . S
C633 C14 1.563 . S
C639 C209 1.555 . S
C653 C28 1.563 . S
C659 C210 1.556 . S
C673 C55 1.563 . S
C679 C168 1.557 . S
C699 C194 1.547 . S
C693 C12 1.556 . S
C719 C197 1.558 . S
C713 C1 1.561 . S
C733 C27 1.561 . S
C739 C222 1.546 . S
C753 C41 1.561 . S
C759 C180 1.545 . S
C773 C42 1.558 . S
C779 C182 1.543 . S
C799 C181 1.558 . S
C793 C56 1.565 . S
C819 C183 1.558 . S
C813 C71 1.565 . S
C833 C96 1.563 . S
C839 C196 1.559 . S
C859 C223 1.547 . S
C853 C110 1.561 . S
