# Generated by pormake.
# Topology soc, (4,6)-cn, num edge types: 1
# Building blocks:
#     Node 0, Type 0, BuildingBlock: ESEHIV_clean_sbu_0, # of connection points: 4
#     Node 1, Type 0, BuildingBlock: ESEHIV_clean_sbu_0, # of connection points: 4
#     Node 2, Type 0, BuildingBlock: ESEHIV_clean_sbu_0, # of connection points: 4
#     Node 3, Type 0, BuildingBlock: ESEHIV_clean_sbu_0, # of connection points: 4
#     Node 4, Type 0, BuildingBlock: ESEHIV_clean_sbu_0, # of connection points: 4
#     Node 5, Type 0, BuildingBlock: ESEHIV_clean_sbu_0, # of connection points: 4
#     Node 6, Type 0, BuildingBlock: ESEHIV_clean_sbu_0, # of connection points: 4
#     Node 7, Type 0, BuildingBlock: ESEHIV_clean_sbu_0, # of connection points: 4
#     Node 8, Type 0, BuildingBlock: ESEHIV_clean_sbu_0, # of connection points: 4
#     Node 9, Type 0, BuildingBlock: ESEHIV_clean_sbu_0, # of connection points: 4
#     Node 10, Type 0, BuildingBlock: ESEHIV_clean_sbu_0, # of connection points: 4
#     Node 11, Type 0, BuildingBlock: ESEHIV_clean_sbu_0, # of connection points: 4
#     Node 12, Type 1, BuildingBlock: BETDEL_clean_sbu_0, # of connection points: 6
#     Node 13, Type 1, BuildingBlock: BETDEL_clean_sbu_0, # of connection points: 6
#     Node 14, Type 1, BuildingBlock: BETDEL_clean_sbu_0, # of connection points: 6
#     Node 15, Type 1, BuildingBlock: BETDEL_clean_sbu_0, # of connection points: 6
#     Node 16, Type 1, BuildingBlock: BETDEL_clean_sbu_0, # of connection points: 6
#     Node 17, Type 1, BuildingBlock: BETDEL_clean_sbu_0, # of connection points: 6
#     Node 18, Type 1, BuildingBlock: BETDEL_clean_sbu_0, # of connection points: 6
#     Node 19, Type 1, BuildingBlock: BETDEL_clean_sbu_0, # of connection points: 6
#     Edge 20, Type (0, 1), BuildingBlock: XIVTED_clean_linker_0, # of connection points: 2
#     Edge 21, Type (0, 1), BuildingBlock: XIVTED_clean_linker_0, # of connection points: 2
#     Edge 22, Type (0, 1), BuildingBlock: XIVTED_clean_linker_0, # of connection points: 2
#     Edge 23, Type (0, 1), BuildingBlock: XIVTED_clean_linker_0, # of connection points: 2
#     Edge 24, Type (0, 1), BuildingBlock: XIVTED_clean_linker_0, # of connection points: 2
#     Edge 25, Type (0, 1), BuildingBlock: XIVTED_clean_linker_0, # of connection points: 2
#     Edge 26, Type (0, 1), BuildingBlock: XIVTED_clean_linker_0, # of connection points: 2
#     Edge 27, Type (0, 1), BuildingBlock: XIVTED_clean_linker_0, # of connection points: 2
#     Edge 28, Type (0, 1), BuildingBlock: XIVTED_clean_linker_0, # of connection points: 2
#     Edge 29, Type (0, 1), BuildingBlock: XIVTED_clean_linker_0, # of connection points: 2
#     Edge 30, Type (0, 1), BuildingBlock: XIVTED_clean_linker_0, # of connection points: 2
#     Edge 31, Type (0, 1), BuildingBlock: XIVTED_clean_linker_0, # of connection points: 2
#     Edge 32, Type (0, 1), BuildingBlock: XIVTED_clean_linker_0, # of connection points: 2
#     Edge 33, Type (0, 1), BuildingBlock: XIVTED_clean_linker_0, # of connection points: 2
#     Edge 34, Type (0, 1), BuildingBlock: XIVTED_clean_linker_0, # of connection points: 2
#     Edge 35, Type (0, 1), BuildingBlock: XIVTED_clean_linker_0, # of connection points: 2
#     Edge 36, Type (0, 1), BuildingBlock: XIVTED_clean_linker_0, # of connection points: 2
#     Edge 37, Type (0, 1), BuildingBlock: XIVTED_clean_linker_0, # of connection points: 2
#     Edge 38, Type (0, 1), BuildingBlock: XIVTED_clean_linker_0, # of connection points: 2
#     Edge 39, Type (0, 1), BuildingBlock: XIVTED_clean_linker_0, # of connection points: 2
#     Edge 40, Type (0, 1), BuildingBlock: XIVTED_clean_linker_0, # of connection points: 2
#     Edge 41, Type (0, 1), BuildingBlock: XIVTED_clean_linker_0, # of connection points: 2
#     Edge 42, Type (0, 1), BuildingBlock: XIVTED_clean_linker_0, # of connection points: 2
#     Edge 43, Type (0, 1), BuildingBlock: XIVTED_clean_linker_0, # of connection points: 2
#     Edge 44, Type (0, 1), BuildingBlock: XIVTED_clean_linker_0, # of connection points: 2
#     Edge 45, Type (0, 1), BuildingBlock: XIVTED_clean_linker_0, # of connection points: 2
#     Edge 46, Type (0, 1), BuildingBlock: XIVTED_clean_linker_0, # of connection points: 2
#     Edge 47, Type (0, 1), BuildingBlock: XIVTED_clean_linker_0, # of connection points: 2
#     Edge 48, Type (0, 1), BuildingBlock: XIVTED_clean_linker_0, # of connection points: 2
#     Edge 49, Type (0, 1), BuildingBlock: XIVTED_clean_linker_0, # of connection points: 2
#     Edge 50, Type (0, 1), BuildingBlock: XIVTED_clean_linker_0, # of connection points: 2
#     Edge 51, Type (0, 1), BuildingBlock: XIVTED_clean_linker_0, # of connection points: 2
#     Edge 52, Type (0, 1), BuildingBlock: XIVTED_clean_linker_0, # of connection points: 2
#     Edge 53, Type (0, 1), BuildingBlock: XIVTED_clean_linker_0, # of connection points: 2
#     Edge 54, Type (0, 1), BuildingBlock: XIVTED_clean_linker_0, # of connection points: 2
#     Edge 55, Type (0, 1), BuildingBlock: XIVTED_clean_linker_0, # of connection points: 2
#     Edge 56, Type (0, 1), BuildingBlock: XIVTED_clean_linker_0, # of connection points: 2
#     Edge 57, Type (0, 1), BuildingBlock: XIVTED_clean_linker_0, # of connection points: 2
#     Edge 58, Type (0, 1), BuildingBlock: XIVTED_clean_linker_0, # of connection points: 2
#     Edge 59, Type (0, 1), BuildingBlock: XIVTED_clean_linker_0, # of connection points: 2
#     Edge 60, Type (0, 1), BuildingBlock: XIVTED_clean_linker_0, # of connection points: 2
#     Edge 61, Type (0, 1), BuildingBlock: XIVTED_clean_linker_0, # of connection points: 2
#     Edge 62, Type (0, 1), BuildingBlock: XIVTED_clean_linker_0, # of connection points: 2
#     Edge 63, Type (0, 1), BuildingBlock: XIVTED_clean_linker_0, # of connection points: 2
#     Edge 64, Type (0, 1), BuildingBlock: XIVTED_clean_linker_0, # of connection points: 2
#     Edge 65, Type (0, 1), BuildingBlock: XIVTED_clean_linker_0, # of connection points: 2
#     Edge 66, Type (0, 1), BuildingBlock: XIVTED_clean_linker_0, # of connection points: 2
#     Edge 67, Type (0, 1), BuildingBlock: XIVTED_clean_linker_0, # of connection points: 2
# Relax obj value: 0.114
# Max RMSD: 0.170
# Mean RMSD: 0.147
data_MOF--net-soc--node1-ESEHIV_clean_sbu_0--node2-BETDEL_clean_sbu_0--edge1-XIVTED_clean_linker_0
_symmetry_space_group_name_H-M    P1
_symmetry_Int_Tables_number       1
_symmetry_cell_setting            triclinic
loop_
_symmetry_equiv_pos_as_xyz
'x, y, z'
_cell_length_a     46.208024
_cell_length_b     45.080819
_cell_length_c     42.707373
_cell_angle_alpha  88.700704
_cell_angle_beta   90.257671
_cell_angle_gamma 79.54603
loop_
_atom_site_label
_atom_site_type_symbol
_atom_site_fract_x
_atom_site_fract_y
_atom_site_fract_z
_atom_type_partial_charge
Cu0 Cu 0.03832 0.02566 0.3026 0.0
N1 N 0.06227 0.04668 0.32556 0.0
N2 N 0.09128 0.08021 0.33594 0.0
C3 C 0.07269 0.07112 0.31512 0.0
C4 C 0.09232 0.06057 0.36054 0.0
C5 C 0.07449 0.03995 0.35404 0.0
O6 O 0.06321 0.99162 0.28316 0.0
C7 C 0.9886 0.05231 0.26494 0.0
O8 O 0.98107 0.02561 0.26655 0.0
H9 H 0.06691 0.08167 0.2924 0.0
H10 H 0.07122 0.02096 0.36868 0.0
N11 N 1.01286 1.0083 0.32816 0.0
N12 N 0.97881 0.97995 0.33822 0.0
C13 C 1.00091 0.98469 0.31934 0.0
C14 C 0.99833 0.01856 0.35412 0.0
C15 C 0.97733 1.00093 0.3605 0.0
C16 C 0.08827 0.99157 0.2709 0.0
O17 O 0.09721 0.01727 0.26569 0.0
H18 H 1.00704 0.97254 0.29809 0.0
H19 H 1.0014 0.03857 0.36625 0.0
O20 O 1.0138 0.05538 0.27524 0.0
H21 H 0.10569 0.06038 0.38142 0.0
H22 H 0.96085 1.00472 0.37863 0.0
Cu23 Cu 0.03942 0.01506 0.72671 0.0
N24 N 1.02157 0.98969 0.702 0.0
N25 N 0.99337 0.95551 0.69228 0.0
C26 C 0.99837 0.97759 0.71127 0.0
C27 C 1.01427 0.95369 0.67005 0.0
C28 C 0.03166 0.97485 0.67612 0.0
O29 O 1.00797 0.04342 0.74685 0.0
C30 C 0.09145 0.9756 0.73859 0.0
O31 O 0.09512 0.98402 0.70948 0.0
H32 H 0.98668 0.98344 0.73283 0.0
H33 H 0.05123 0.97797 0.66362 0.0
N34 N 0.06082 0.03925 0.70366 0.0
N35 N 0.09434 0.06856 0.69549 0.0
C36 C 0.08083 0.05341 0.71683 0.0
C37 C 0.06128 0.04583 0.6728 0.0
C38 C 0.08197 0.06405 0.66768 0.0
C39 C 0.98955 0.05754 0.72682 0.0
O40 O 0.99352 0.05111 0.69711 0.0
H41 H 0.08532 0.05245 0.74176 0.0
H42 H 0.04784 0.0377 0.65529 0.0
O43 O 0.06788 0.98715 0.75275 0.0
H44 H 1.01734 0.9376 0.65139 0.0
H45 H 0.08783 0.07271 0.64521 0.0
Cu46 Cu 0.28404 0.02155 0.0371 0.0
N47 N 0.25278 0.00961 0.01646 0.0
N48 N 0.23177 0.98695 0.97908 0.0
C49 C 0.2552 0.99897 0.98735 0.0
C50 C 0.21369 0.99027 0.00396 0.0
C51 C 0.22665 1.00457 0.02701 0.0
O52 O 0.30864 0.98433 0.05273 0.0
C53 C 0.28234 0.06795 0.99468 0.0
O54 O 0.25493 0.07135 0.00413 0.0
H55 H 0.27504 0.99758 0.97363 0.0
H56 H 0.21838 0.00914 0.05034 0.0
N57 N 0.27127 0.04419 0.07168 0.0
N58 N 0.27513 0.07436 0.11145 0.0
C59 C 0.2834 0.0671 0.08197 0.0
C60 C 0.25456 0.03677 0.09527 0.0
C61 C 0.25671 0.05553 0.1198 0.0
C62 C 0.32313 0.98274 0.07837 0.0
O63 O 0.32764 1.00778 0.0911 0.0
H64 H 0.30011 0.07623 0.0692 0.0
H65 H 0.24363 0.01752 0.09568 0.0
O66 O 0.30123 0.04671 0.00711 0.0
H67 H 0.19352 0.98138 0.00601 0.0
H68 H 0.24671 0.05433 0.14255 0.0
Cu69 Cu 0.03847 0.3247 0.04641 0.0
N70 N 0.05963 0.34954 0.02429 0.0
N71 N 0.09129 0.36032 0.98827 0.0
C72 C 0.07243 0.34205 0.99672 0.0
C73 C 0.08996 0.38047 0.0114 0.0
C74 C 0.07036 0.37373 0.03365 0.0
O75 O 0.06591 0.30171 0.07728 0.0
C76 C 1.00238 0.28535 0.01735 0.0
O77 O 0.99717 0.27547 0.04558 0.0
H78 H 0.06994 0.32181 0.98461 0.0
H79 H 0.06576 0.38448 0.0559 0.0
N80 N 1.00868 0.34778 0.06944 0.0
N81 N 0.96689 0.35762 0.09669 0.0
C82 C 0.98076 0.34332 0.07199 0.0
C83 C 1.01248 0.36621 0.09282 0.0
C84 C 0.98675 0.37244 0.10957 0.0
C85 C 0.09306 0.29243 0.07152 0.0
O86 O 0.10196 0.29276 0.04237 0.0
H87 H 0.97138 0.32841 0.05719 0.0
H88 H 0.03326 0.37244 0.09899 0.0
O89 O 1.0206 0.30326 0.014 0.0
H90 H 0.10321 0.39787 0.01294 0.0
H91 H 0.98394 0.3846 0.13123 0.0
Cu92 Cu 0.74093 0.00949 0.02716 0.0
N93 N 0.72831 0.0398 0.99738 0.0
N94 N 0.72571 0.07606 0.96063 0.0
C95 C 0.74219 0.06054 0.98395 0.0
C96 C 0.70067 0.06465 0.95963 0.0
C97 C 0.7025 0.04218 0.98204 0.0
O98 O 0.72218 0.02089 0.06728 0.0
C99 C 0.75207 0.9693 0.98139 0.0
O100 O 0.76885 0.98943 0.97588 0.0
H101 H 0.76429 0.06319 0.99019 0.0
H102 H 0.68634 0.02806 0.98665 0.0
N103 N 0.78044 1.00568 0.03808 0.0
N104 N 0.81477 0.98065 0.0708 0.0
C105 C 0.79511 0.97857 0.04792 0.0
C106 C 0.792 0.02592 0.0545 0.0
C107 C 0.81314 0.01051 0.07482 0.0
C108 C 0.7054 0.04641 0.07055 0.0
O109 O 0.68969 0.05888 0.04645 0.0
H110 H 0.78733 0.95786 0.04304 0.0
H111 H 0.78231 0.04959 0.05565 0.0
O112 O 0.73634 0.97215 0.00609 0.0
H113 H 0.68236 0.07181 0.94366 0.0
H114 H 0.82342 0.02031 0.09389 0.0
Cu115 Cu 0.04726 0.69075 0.99984 0.0
N116 N 0.02898 0.66806 0.97289 0.0
N117 N 0.99433 0.66209 0.93823 0.0
C118 C 1.00052 0.6758 0.96451 0.0
C119 C 1.01995 0.64474 0.92984 0.0
C120 C 0.04136 0.64854 0.95128 0.0
O121 O 1.01741 0.70802 0.03005 0.0
C122 C 0.09041 0.72511 0.97822 0.0
O123 O 0.10035 0.7228 0.00718 0.0
H124 H 0.98545 0.69371 0.97548 0.0
H125 H 0.06469 0.63999 0.94948 0.0
N126 N 0.07647 0.66695 0.02407 0.0
N127 N 0.10971 0.6578 0.06288 0.0
C128 C 0.08537 0.6761 0.0516 0.0
C129 C 0.09545 0.64154 0.01766 0.0
C130 C 0.11606 0.63582 0.04164 0.0
C131 C 0.9983 0.73222 0.02987 0.0
O132 O 0.99785 0.75218 0.0069 0.0
H133 H 0.07545 0.6973 0.06169 0.0
H134 H 0.0953 0.62897 0.99644 0.0
O135 O 0.06621 0.71657 0.97199 0.0
H136 H 1.0234 0.63188 0.90866 0.0
H137 H 0.13487 0.61761 0.04258 0.0
Cu138 Cu 0.53605 0.51549 0.81182 0.0
N139 N 0.55713 0.53934 0.83463 0.0
N140 N 0.58458 0.5744 0.84319 0.0
C141 C 0.57119 0.5601 0.82155 0.0
C142 C 0.57869 0.56214 0.87104 0.0
C143 C 0.56155 0.54062 0.8657 0.0
O144 O 0.56573 0.48998 0.78686 0.0
C145 C 0.48407 0.54269 0.77337 0.0
O146 O 0.47977 0.51592 0.76516 0.0
H147 H 0.57191 0.56427 0.79653 0.0
H148 H 0.55282 0.52711 0.88327 0.0
N149 N 0.51821 0.49103 0.83892 0.0
N150 N 0.48834 0.46006 0.85539 0.0
C151 C 0.49203 0.48236 0.83498 0.0
C152 C 0.53138 0.47387 0.86296 0.0
C153 C 0.51302 0.45483 0.87322 0.0
C154 C 0.56653 0.46181 0.78341 0.0
O155 O 0.54355 0.45006 0.79141 0.0
H156 H 0.47696 0.49047 0.81607 0.0
H157 H 0.55359 0.47377 0.87108 0.0
O158 O 0.50652 0.54523 0.78979 0.0
H159 H 0.58593 0.56851 0.89365 0.0
H160 H 0.51813 0.4375 0.89137 0.0
Cu161 Cu 0.54873 0.52211 0.22761 0.0
N162 N 0.5291 0.49612 0.20544 0.0
N163 N 0.49872 0.46326 0.19831 0.0
C164 C 0.50285 0.48864 0.21269 0.0
C165 C 0.52318 0.45463 0.18128 0.0
C166 C 0.5419 0.47462 0.186 0.0
O167 O 0.51947 0.55447 0.24495 0.0
C168 C 0.59976 0.49421 0.26363 0.0
O169 O 0.6117 0.51721 0.25456 0.0
H170 H 0.48846 0.49981 0.23046 0.0
H171 H 0.56444 0.4717 0.17834 0.0
N172 N 0.57379 0.54025 0.20151 0.0
N173 N 0.60585 0.56958 0.18673 0.0
C174 C 0.58688 0.56363 0.209 0.0
C175 C 0.58424 0.53184 0.17304 0.0
C176 C 0.60414 0.54968 0.16401 0.0
C177 C 0.5062 0.57313 0.22441 0.0
O178 O 0.51269 0.56835 0.1948 0.0
H179 H 0.58369 0.575 0.23112 0.0
H180 H 0.5783 0.51378 0.15975 0.0
O181 O 0.57258 0.49466 0.25786 0.0
H182 H 0.52807 0.4342 0.16798 0.0
H183 H 0.6166 0.54796 0.14252 0.0
Cu184 Cu 0.81478 0.54069 0.51799 0.0
N185 N 0.79386 0.56859 0.48998 0.0
N186 N 0.78788 0.59948 0.44797 0.0
C187 C 0.80726 0.58252 0.46773 0.0
C188 C 0.76105 0.59606 0.45832 0.0
C189 C 0.76483 0.57689 0.48436 0.0
O190 O 0.83967 0.56358 0.54068 0.0
C191 C 0.84641 0.48162 0.49663 0.0
O192 O 0.8562 0.47399 0.52515 0.0
H193 H 0.83094 0.57907 0.46536 0.0
H194 H 0.74776 0.56892 0.49765 0.0
N195 N 0.79003 0.52702 0.54716 0.0
N196 N 0.77924 0.49611 0.58518 0.0
C197 C 0.79202 0.49821 0.55711 0.0
C198 C 0.77464 0.54378 0.56928 0.0
C199 C 0.76802 0.52474 0.59287 0.0
C200 C 0.84638 0.55879 0.56955 0.0
O201 O 0.84498 0.53238 0.58248 0.0
H202 H 0.80521 0.47935 0.54575 0.0
H203 H 0.77122 0.56814 0.56979 0.0
O204 O 0.83219 0.50811 0.4908 0.0
H205 H 0.74023 0.60636 0.4477 0.0
H206 H 0.75773 0.53154 0.61492 0.0
Cu207 Cu 0.56005 0.79285 0.53282 0.0
N208 N 0.59002 0.77106 0.50821 0.0
N209 N 0.62357 0.76263 0.47009 0.0
C210 C 0.60624 0.7836 0.48715 0.0
C211 C 0.61819 0.73585 0.48106 0.0
C212 C 0.59757 0.74109 0.50453 0.0
O213 O 0.58027 0.81682 0.55988 0.0
C214 C 0.5246 0.80042 0.48084 0.0
O215 O 0.53778 0.77224 0.47832 0.0
H216 H 0.60413 0.80772 0.48329 0.0
H217 H 0.58782 0.72424 0.51689 0.0
N218 N 0.53991 0.76847 0.55777 0.0
N219 N 0.50462 0.75635 0.58889 0.0
C220 C 0.51221 0.77688 0.56843 0.0
C221 C 0.5502 0.74168 0.57201 0.0
C222 C 0.52843 0.73403 0.59097 0.0
C223 C 0.57603 0.81907 0.58926 0.0
O224 O 0.55284 0.81044 0.60156 0.0
H225 H 0.49827 0.79817 0.56205 0.0
H226 H 0.5724 0.72925 0.56999 0.0
O227 O 0.53088 0.81546 0.50404 0.0
H228 H 0.62794 0.71399 0.47227 0.0
H229 H 0.5305 0.71429 0.60629 0.0
Cu230 Cu 0.24011 0.51737 0.53123 0.0
N231 N 0.21875 0.55296 0.51276 0.0
N232 N 0.21122 0.59495 0.48234 0.0
C233 C 0.23031 0.57632 0.50121 0.0
C234 C 0.18635 0.58315 0.48267 0.0
C235 C 0.19109 0.55728 0.50134 0.0
O236 O 0.27383 0.52623 0.55325 0.0
C237 C 0.25545 0.49439 0.47145 0.0
O238 O 0.25908 0.522 0.46454 0.0
H239 H 0.25308 0.57817 0.50426 0.0
H240 H 0.17617 0.54155 0.50446 0.0
N241 N 0.21949 0.50084 0.5625 0.0
N242 N 0.21395 0.47169 0.60441 0.0
C243 C 0.23208 0.47772 0.58135 0.0
C244 C 0.19232 0.50996 0.57384 0.0
C245 C 0.18876 0.49188 0.59962 0.0
C246 C 0.29554 0.53733 0.5434 0.0
O247 O 0.29941 0.54082 0.51319 0.0
H248 H 0.25441 0.4659 0.57831 0.0
H249 H 0.1766 0.52896 0.56471 0.0
O250 O 0.24929 0.48755 0.49935 0.0
H251 H 0.16662 0.59163 0.46913 0.0
H252 H 0.16948 0.4942 0.61427 0.0
Cu253 Cu 0.52358 0.22371 0.51263 0.0
N254 N 0.55102 0.20158 0.48612 0.0
N255 N 0.59137 0.19089 0.45669 0.0
C256 C 0.57698 0.20916 0.47847 0.0
C257 C 0.57358 0.17095 0.45058 0.0
C258 C 0.54869 0.17771 0.4686 0.0
O259 O 0.54605 0.24399 0.54196 0.0
C260 C 0.4933 0.25269 0.45802 0.0
O261 O 0.51814 0.24322 0.44353 0.0
H262 H 0.58429 0.22874 0.48763 0.0
H263 H 0.5297 0.16686 0.46779 0.0
N264 N 0.5043 0.19862 0.53715 0.0
N265 N 0.47615 0.18613 0.57589 0.0
C266 C 0.48889 0.20799 0.56281 0.0
C267 C 0.5013 0.16969 0.53381 0.0
C268 C 0.48378 0.16195 0.55767 0.0
C269 C 0.56315 0.22555 0.55995 0.0
O270 O 0.56383 0.19652 0.55663 0.0
H271 H 0.48655 0.23076 0.57126 0.0
H272 H 0.51095 0.15518 0.51543 0.0
O273 O 0.49235 0.24924 0.48774 0.0
H274 H 0.57771 0.15319 0.43369 0.0
H275 H 0.47733 0.14024 0.56141 0.0
Dy276 Dy 0.26027 0.27113 0.2946 0.0
C277 C 0.34636 0.336 0.24277 0.0
C278 C 0.21737 0.23786 0.30771 0.0
Dy279 Dy 0.30445 0.30271 0.25908 0.0
O280 O 0.23833 0.24159 0.32677 0.0
O281 O 0.2195 0.25284 0.28176 0.0
O282 O 0.28306 0.27587 0.34031 0.0
O283 O 0.30759 0.27108 0.29882 0.0
C284 C 0.30859 0.27628 0.32775 0.0
C285 C 0.25744 0.29536 0.22512 0.0
O286 O 0.3223 0.25603 0.244 0.0
O287 O 0.28446 0.2343 0.26531 0.0
O288 O 0.3516 0.30942 0.25626 0.0
O289 O 0.31826 0.3442 0.23777 0.0
O290 O 0.2832 0.2961 0.2134 0.0
O291 O 0.25715 0.30195 0.25386 0.0
O292 O 0.24269 0.31821 0.30851 0.0
O293 O 0.28531 0.33586 0.29503 0.0
C294 C 0.30855 0.23294 0.24829 0.0
C295 C 0.25952 0.33906 0.30918 0.0
Dy296 Dy 0.79654 0.2854 0.30152 0.0
C297 C 0.76207 0.20212 0.21184 0.0
C298 C 0.8073 0.32602 0.34507 0.0
Dy299 Dy 0.77291 0.24476 0.25321 0.0
O300 O 0.81594 0.29696 0.34736 0.0
O301 O 0.79238 0.33281 0.31921 0.0
O302 O 0.84258 0.26183 0.293 0.0
O303 O 0.80784 0.2378 0.28867 0.0
C304 C 0.83511 0.23674 0.28466 0.0
C305 C 0.73526 0.29508 0.2689 0.0
O306 O 0.75875 0.22534 0.29766 0.0
O307 O 0.76289 0.26568 0.32929 0.0
O308 O 0.7806 0.19716 0.23517 0.0
O309 O 0.7501 0.23054 0.21064 0.0
O310 O 0.72688 0.27025 0.26107 0.0
O311 O 0.76264 0.29241 0.26534 0.0
O312 O 0.80987 0.30558 0.25689 0.0
O313 O 0.80474 0.26602 0.2243 0.0
C314 C 0.75335 0.24014 0.32403 0.0
C315 C 0.81426 0.29156 0.22986 0.0
Dy316 Dy 0.78001 0.75423 0.22336 0.0
C317 C 0.84325 0.83996 0.28172 0.0
C318 C 0.74407 0.71529 0.20674 0.0
Dy319 Dy 0.8176 0.7941 0.26032 0.0
O320 O 0.77202 0.70739 0.21336 0.0
O321 O 0.73614 0.74439 0.20847 0.0
O322 O 0.77921 0.78425 0.18087 0.0
O323 O 0.78237 0.80211 0.22542 0.0
C324 C 0.78358 0.80754 0.19635 0.0
C325 C 0.82825 0.7344 0.27475 0.0
O326 O 0.77628 0.80233 0.28943 0.0
O327 O 0.75201 0.76758 0.26543 0.0
O328 O 0.83802 0.8173 0.29886 0.0
O329 O 0.83403 0.83767 0.25326 0.0
O330 O 0.84798 0.75151 0.27742 0.0
O331 O 0.80438 0.75085 0.26688 0.0
O332 O 0.82518 0.73965 0.2027 0.0
O333 O 0.84393 0.78206 0.21697 0.0
C334 C 0.75409 0.78717 0.2878 0.0
C335 C 0.84486 0.75778 0.19974 0.0
Dy336 Dy 0.27609 0.76088 0.25185 0.0
C337 C 0.35661 0.8007 0.33939 0.0
C338 C 0.23779 0.73685 0.21584 0.0
Dy339 Dy 0.3119 0.78843 0.30302 0.0
O340 O 0.26307 0.72251 0.22608 0.0
O341 O 0.23326 0.76457 0.22524 0.0
O342 O 0.31873 0.7436 0.22874 0.0
O343 O 0.31778 0.7457 0.27785 0.0
C344 C 0.33423 0.7392 0.25441 0.0
C345 C 0.25778 0.82254 0.29527 0.0
O346 O 0.32267 0.81154 0.25806 0.0
O347 O 0.28539 0.80114 0.22526 0.0
O348 O 0.32992 0.80079 0.34891 0.0
O349 O 0.35902 0.79343 0.31008 0.0
O350 O 0.27676 0.82849 0.31563 0.0
O351 O 0.26903 0.79884 0.28177 0.0
O352 O 0.26135 0.74093 0.29646 0.0
O353 O 0.29651 0.75196 0.33153 0.0
C354 C 0.3072 0.81571 0.23141 0.0
C355 C 0.27422 0.7383 0.32453 0.0
Dy356 Dy 0.29135 0.78067 0.78701 0.0
C357 C 0.27584 0.68528 0.70671 0.0
C358 C 0.28787 0.82959 0.82365 0.0
Dy359 Dy 0.27315 0.73143 0.74709 0.0
O360 O 0.28287 0.83081 0.79365 0.0
O361 O 0.29594 0.80177 0.83323 0.0
O362 O 0.33703 0.75482 0.79387 0.0
O363 O 0.30196 0.73138 0.78756 0.0
C364 C 0.32971 0.72871 0.78917 0.0
C365 C 0.23537 0.78409 0.74578 0.0
O366 O 0.2481 0.72237 0.79002 0.0
O367 O 0.25315 0.76737 0.81316 0.0
O368 O 0.26729 0.71363 0.69945 0.0
O369 O 0.28142 0.6819 0.73658 0.0
O370 O 0.22723 0.75822 0.74226 0.0
O371 O 0.26313 0.78058 0.74639 0.0
O372 O 0.318 0.78817 0.74473 0.0
O373 O 0.31306 0.74273 0.72281 0.0
C374 C 0.24131 0.74267 0.81214 0.0
C375 C 0.32559 0.76694 0.72375 0.0
Dy376 Dy 0.26798 0.2408 0.77697 0.0
C377 C 0.34628 0.32198 0.81798 0.0
C378 C 0.23801 0.19813 0.75611 0.0
Dy379 Dy 0.31153 0.28074 0.80572 0.0
O380 O 0.24408 0.22054 0.73928 0.0
O381 O 0.24859 0.19884 0.78429 0.0
O382 O 0.23867 0.28292 0.76025 0.0
O383 O 0.2843 0.28218 0.76294 0.0
C384 C 0.25946 0.29867 0.7573 0.0
C385 C 0.31324 0.2283 0.83892 0.0
O386 O 0.26896 0.29875 0.82936 0.0
O387 O 0.24391 0.25909 0.81971 0.0
O388 O 0.3552 0.29306 0.81628 0.0
O389 O 0.318 0.32875 0.8127 0.0
O390 O 0.32858 0.24851 0.8465 0.0
O391 O 0.29901 0.23791 0.8146 0.0
O392 O 0.31015 0.2231 0.75204 0.0
O393 O 0.33667 0.26071 0.76454 0.0
C394 C 0.24653 0.28441 0.83398 0.0
C395 C 0.33344 0.2364 0.74895 0.0
Dy396 Dy 0.76663 0.26686 0.74753 0.0
C397 C 0.85758 0.28518 0.84015 0.0
C398 C 0.71675 0.26446 0.71332 0.0
Dy399 Dy 0.81443 0.2851 0.79569 0.0
O400 O 0.73098 0.24278 0.73106 0.0
O401 O 0.7296 0.28784 0.71452 0.0
O402 O 0.79699 0.22846 0.72483 0.0
O403 O 0.81279 0.25253 0.7595 0.0
C404 C 0.8199 0.2304 0.74191 0.0
C405 C 0.76222 0.32293 0.7903 0.0
O406 O 0.82476 0.30931 0.75179 0.0
O407 O 0.78226 0.3051 0.72305 0.0
O408 O 0.86231 0.28118 0.8103 0.0
O409 O 0.82943 0.28959 0.84532 0.0
O410 O 0.78645 0.3315 0.79876 0.0
O411 O 0.76663 0.29459 0.78868 0.0
O412 O 0.75605 0.24489 0.79222 0.0
O413 O 0.80039 0.24486 0.81858 0.0
C414 C 0.80653 0.31641 0.72741 0.0
C415 C 0.77502 0.23538 0.81529 0.0
Dy416 Dy 0.76242 0.75184 0.78156 0.0
C417 C 0.84863 0.82143 0.74242 0.0
C418 C 0.72082 0.7175 0.79533 0.0
Dy419 Dy 0.80733 0.78629 0.75502 0.0
O420 O 0.7484 0.71098 0.80302 0.0
O421 O 0.71561 0.74307 0.77972 0.0
O422 O 0.78756 0.74449 0.82658 0.0
O423 O 0.81069 0.7456 0.78444 0.0
C424 C 0.81313 0.74363 0.81391 0.0
C425 C 0.75675 0.79389 0.72237 0.0
O426 O 0.82141 0.74339 0.72956 0.0
O427 O 0.77748 0.72645 0.73769 0.0
O428 O 0.82053 0.83099 0.74438 0.0
O429 O 0.85445 0.7924 0.7475 0.0
O430 O 0.78228 0.79367 0.70981 0.0
O431 O 0.75911 0.79227 0.75185 0.0
O432 O 0.75024 0.79368 0.80964 0.0
O433 O 0.79469 0.80912 0.80054 0.0
C434 C 0.80323 0.72466 0.72345 0.0
C435 C 0.76944 0.81141 0.81578 0.0
H436 H 0.10128 0.11002 0.28164 0.0
H437 H 0.20937 0.20659 0.36169 0.0
H438 H 0.11938 0.10671 0.38112 0.0
H439 H 0.17816 0.22138 0.26632 0.0
H440 H 0.17714 0.16944 0.36927 0.0
H441 H 0.12979 0.15012 0.27555 0.0
C442 C 0.11095 0.11773 0.30233 0.0
C443 C 0.10771 0.10459 0.33203 0.0
C444 C 0.17718 0.18094 0.34674 0.0
C445 C 0.14108 0.15069 0.32493 0.0
C446 C 0.19556 0.20216 0.34242 0.0
C447 C 0.19642 0.21707 0.31334 0.0
C448 C 0.15973 0.17433 0.32169 0.0
C449 C 0.17812 0.21044 0.28915 0.0
C450 C 0.12742 0.1407 0.29874 0.0
C451 C 0.12142 0.11562 0.3577 0.0
N452 N 0.16069 0.18943 0.29379 0.0
N453 N 0.13753 0.13786 0.35353 0.0
H454 H 0.92942 0.05516 0.25492 0.0
H455 H 0.89279 0.23452 0.27164 0.0
H456 H 0.99521 0.11162 0.26172 0.0
H457 H 0.82674 0.17825 0.27704 0.0
H458 H 0.92971 0.19028 0.26016 0.0
H459 H 0.89104 0.10035 0.25451 0.0
C460 C 0.93589 0.07706 0.25574 0.0
C461 C 0.96569 0.0795 0.25864 0.0
C462 C 0.90714 0.18752 0.26363 0.0
C463 C 0.92169 0.13138 0.2585 0.0
C464 C 0.88602 0.2128 0.27023 0.0
C465 C 0.85669 0.21 0.27554 0.0
C466 C 0.899 0.15904 0.26238 0.0
C467 C 0.84912 0.18137 0.27311 0.0
C468 C 0.91389 0.10286 0.25571 0.0
C469 C 0.97259 0.10854 0.25965 0.0
N470 N 0.87021 0.15692 0.26692 0.0
N471 N 0.95078 0.13326 0.25985 0.0
H472 H 0.94947 0.95051 0.38041 0.0
H473 H 0.859 0.88485 0.24588 0.0
H474 H 0.95956 0.96613 0.28142 0.0
H475 H 0.86602 0.84746 0.34004 0.0
H476 H 0.89037 0.92037 0.26084 0.0
H477 H 0.91386 0.91765 0.36828 0.0
C478 C 0.94416 0.94704 0.3562 0.0
C479 C 0.95778 0.96072 0.3319 0.0
C480 C 0.885 0.90451 0.27833 0.0
C481 C 0.91703 0.92369 0.31787 0.0
C482 C 0.86698 0.8843 0.26982 0.0
C483 C 0.86005 0.8631 0.29172 0.0
C484 C 0.89617 0.90369 0.30906 0.0
C485 C 0.87095 0.86343 0.32244 0.0
C486 C 0.92397 0.92828 0.34929 0.0
C487 C 0.95013 0.95556 0.3009 0.0
N488 N 0.88857 0.88338 0.33023 0.0
N489 N 0.93029 0.93759 0.29483 0.0
H490 H 0.08773 0.93943 0.30444 0.0
H491 H 0.23256 0.83987 0.23785 0.0
H492 H 0.13752 0.97803 0.23409 0.0
H493 H 0.21897 0.85078 0.33699 0.0
H494 H 0.18847 0.87906 0.22773 0.0
H495 H 0.12663 0.89463 0.30757 0.0
C496 C 0.10649 0.93823 0.28909 0.0
C497 C 0.10944 0.96264 0.26904 0.0
C498 C 0.19501 0.87239 0.25162 0.0
C499 C 0.15367 0.91115 0.27228 0.0
C500 C 0.21988 0.84996 0.2574 0.0
C501 C 0.22918 0.84213 0.2883 0.0
C502 C 0.179 0.88613 0.27695 0.0
C503 C 0.21239 0.8562 0.31286 0.0
C504 C 0.12868 0.91272 0.29106 0.0
C505 C 0.13445 0.95981 0.24996 0.0
N506 N 0.18798 0.87737 0.30669 0.0
N507 N 0.15567 0.93449 0.25202 0.0
H508 H 0.15052 0.97043 0.73673 0.0
H509 H 0.17702 0.79186 0.75994 0.0
H510 H 0.08249 0.92308 0.76781 0.0
H511 H 0.24686 0.84172 0.74294 0.0
H512 H 0.14272 0.83951 0.76668 0.0
H513 H 0.18687 0.9242 0.74426 0.0
C514 C 0.14342 0.9504 0.74607 0.0
C515 C 0.11354 0.9506 0.75192 0.0
C516 C 0.16559 0.84008 0.76178 0.0
C517 C 0.15489 0.89706 0.75934 0.0
C518 C 0.18515 0.81288 0.75772 0.0
C519 C 0.21481 0.81287 0.75073 0.0
C520 C 0.17567 0.86757 0.75849 0.0
C521 C 0.22422 0.8407 0.74843 0.0
C522 C 0.16415 0.92391 0.75011 0.0
C523 C 0.1054 0.92396 0.7635 0.0
N524 N 0.20468 0.8669 0.75203 0.0
N525 N 0.12589 0.89808 0.76631 0.0
H526 H 0.10859 0.11522 0.66081 0.0
H527 H 0.22487 0.14949 0.7884 0.0
H528 H 0.13309 0.06049 0.74427 0.0
H529 H 0.20939 0.19811 0.70001 0.0
H530 H 0.19183 0.11602 0.77189 0.0
H531 H 0.14609 0.14517 0.67367 0.0
C532 C 0.12195 0.10934 0.68168 0.0
C533 C 0.11734 0.08551 0.70167 0.0
C534 C 0.19577 0.13387 0.75597 0.0
C535 C 0.16012 0.11983 0.7167 0.0
C536 C 0.21463 0.15296 0.76541 0.0
C537 C 0.21974 0.17658 0.74555 0.0
C538 C 0.18172 0.13859 0.72653 0.0
C539 C 0.20597 0.18013 0.71601 0.0
C540 C 0.14329 0.12652 0.68909 0.0
C541 C 0.13526 0.07906 0.72853 0.0
N542 N 0.18741 0.16146 0.70745 0.0
N543 N 0.15568 0.09619 0.73531 0.0
H544 H 0.93687 0.06789 0.69787 0.0
H545 H 0.86641 0.21964 0.78524 0.0
H546 H 0.98365 0.10058 0.77348 0.0
H547 H 0.83499 0.18761 0.69938 0.0
H548 H 0.90807 0.17632 0.78557 0.0
H549 H 0.89682 0.1101 0.70371 0.0
C550 C 0.93857 0.08392 0.71602 0.0
C551 C 0.96375 0.08073 0.73508 0.0
C552 C 0.89206 0.17902 0.76665 0.0
C553 C 0.9177 0.13022 0.7416 0.0
C554 C 0.86846 0.2038 0.76635 0.0
C555 C 0.84721 0.20723 0.74221 0.0
C556 C 0.89408 0.15768 0.74277 0.0
C557 C 0.85071 0.18591 0.71852 0.0
C558 C 0.91567 0.10827 0.71927 0.0
C559 C 0.96453 0.10215 0.75839 0.0
N560 N 0.87342 0.16223 0.7195 0.0
N561 N 0.9419 0.12627 0.76084 0.0
H562 H 0.99959 0.896 0.67886 0.0
H563 H 0.83885 0.88266 0.73955 0.0
H564 H 0.93929 0.9701 0.71769 0.0
H565 H 0.90714 0.80481 0.72788 0.0
H566 H 0.87393 0.91536 0.72612 0.0
H567 H 0.96442 0.86259 0.69068 0.0
C568 C 0.97883 0.9053 0.68956 0.0
C569 C 0.97233 0.93588 0.69733 0.0
C570 C 0.88132 0.89114 0.72654 0.0
C571 C 0.93213 0.89783 0.71102 0.0
C572 C 0.8613 0.87245 0.73417 0.0
C573 C 0.87017 0.84101 0.73489 0.0
C574 C 0.91043 0.87833 0.71918 0.0
C575 C 0.89949 0.82898 0.72769 0.0
C576 C 0.9589 0.88618 0.69655 0.0
C577 C 0.94527 0.94663 0.71157 0.0
N578 N 0.91859 0.84767 0.71998 0.0
N579 N 0.92616 0.92769 0.71787 0.0
H580 H 0.29682 0.12399 0.09333 0.0
H581 H 0.3076 0.17566 0.26816 0.0
H582 H 0.28169 0.07048 0.17465 0.0
H583 H 0.32851 0.22788 0.18835 0.0
H584 H 0.3077 0.13266 0.23461 0.0
H585 H 0.31632 0.1586 0.12747 0.0
C586 C 0.29779 0.11941 0.11833 0.0
C587 C 0.28711 0.09462 0.1312 0.0
C588 C 0.31292 0.15325 0.22443 0.0
C589 C 0.30938 0.13403 0.17036 0.0
C590 C 0.31305 0.17771 0.24365 0.0
C591 C 0.31773 0.20528 0.2308 0.0
C592 C 0.31679 0.15671 0.19205 0.0
C593 C 0.3248 0.2069 0.19903 0.0
C594 C 0.30898 0.13912 0.1378 0.0
C595 C 0.28888 0.08974 0.16375 0.0
N596 N 0.32343 0.18309 0.18048 0.0
N597 N 0.29957 0.10941 0.18221 0.0
H598 H 0.9326 0.39274 0.13823 0.0
H599 H 0.8346 0.26687 0.17415 0.0
H600 H 0.9393 0.30971 0.088 0.0
H601 H 0.83416 0.34522 0.23063 0.0
H602 H 0.86758 0.2861 0.13745 0.0
H603 H 0.89119 0.37947 0.16738 0.0
C604 C 0.9253 0.37187 0.13311 0.0
C605 C 0.9399 0.35222 0.11082 0.0
C606 C 0.86006 0.2992 0.15775 0.0
C607 C 0.89231 0.33692 0.14405 0.0
C608 C 0.84116 0.28825 0.1787 0.0
C609 C 0.8318 0.30426 0.20574 0.0
C610 C 0.86969 0.32636 0.16383 0.0
C611 C 0.84101 0.3319 0.2103 0.0
C612 C 0.90158 0.36434 0.14972 0.0
C613 C 0.92892 0.32574 0.10478 0.0
N614 N 0.8596 0.34195 0.18971 0.0
N615 N 0.90604 0.31877 0.1215 0.0
H616 H 0.8078 0.98358 0.13379 0.0
H617 H 0.81167 0.80697 0.14099 0.0
H618 H 0.83944 0.92319 0.05973 0.0
H619 H 0.78324 0.86457 0.2184 0.0
H620 H 0.82959 0.8484 0.1147 0.0
H621 H 0.80764 0.94003 0.16911 0.0
C622 C 0.81586 0.96116 0.12534 0.0
C623 C 0.82355 0.95685 0.09376 0.0
C624 C 0.81965 0.85211 0.13752 0.0
C625 C 0.82249 0.90702 0.13363 0.0
C626 C 0.80921 0.82847 0.15246 0.0
C627 C 0.7956 0.83256 0.18168 0.0
C628 C 0.81595 0.8804 0.15155 0.0
C629 C 0.79349 0.86065 0.19576 0.0
C630 C 0.81539 0.93628 0.14539 0.0
C631 C 0.83327 0.92734 0.08387 0.0
N632 N 0.8032 0.88373 0.18034 0.0
N633 N 0.832 0.90355 0.10355 0.0
H634 H 0.16837 0.63715 0.07302 0.0
H635 H 0.1809 0.76049 0.19942 0.0
H636 H 0.0922 0.69353 0.11227 0.0
H637 H 0.24934 0.6829 0.18693 0.0
H638 H 0.14857 0.73798 0.16505 0.0
H639 H 0.19906 0.65425 0.11304 0.0
C640 C 0.15795 0.65275 0.09021 0.0
C641 C 0.1276 0.66426 0.08878 0.0
C642 C 0.17061 0.7258 0.17002 0.0
C643 C 0.16282 0.68443 0.13425 0.0
C644 C 0.18905 0.7387 0.18947 0.0
C645 C 0.21775 0.72352 0.19586 0.0
C646 C 0.18118 0.69779 0.15653 0.0
C647 C 0.2273 0.69531 0.18251 0.0
C648 C 0.17557 0.66264 0.11298 0.0
C649 C 0.11555 0.68464 0.11178 0.0
N650 N 0.20914 0.68344 0.16323 0.0
N651 N 0.13322 0.69437 0.13326 0.0
H652 H 0.21565 0.93233 0.9801 0.0
H653 H 0.27329 0.88974 0.80831 0.0
H654 H 0.24853 0.99645 0.91988 0.0
H655 H 0.28109 0.82636 0.88648 0.0
H656 H 0.25369 0.93057 0.84396 0.0
H657 H 0.22667 0.89451 0.93952 0.0
C658 C 0.22433 0.93866 0.95793 0.0
C659 C 0.23138 0.96734 0.95321 0.0
C660 C 0.2598 0.90768 0.85315 0.0
C661 C 0.24444 0.92436 0.9072 0.0
C662 C 0.27112 0.88454 0.83298 0.0
C663 C 0.27908 0.85485 0.84468 0.0
C664 C 0.25586 0.90075 0.88488 0.0
C665 C 0.27553 0.84905 0.87666 0.0
C666 C 0.23098 0.91704 0.93501 0.0
C667 C 0.24303 0.97439 0.92428 0.0
N668 N 0.26397 0.87179 0.89564 0.0
N669 N 0.24946 0.95293 0.90232 0.0
H670 H 0.14569 0.37564 0.98539 0.0
H671 H 0.19214 0.26943 0.84085 0.0
H672 H 0.08506 0.33238 0.93382 0.0
H673 H 0.24682 0.32974 0.87586 0.0
H674 H 0.15319 0.29158 0.87602 0.0
H675 H 0.18315 0.3597 0.94593 0.0
C676 C 0.14005 0.36325 0.96555 0.0
C677 C 0.11224 0.355 0.96318 0.0
C678 C 0.17365 0.30009 0.87594 0.0
C679 C 0.15522 0.33616 0.91832 0.0
C680 C 0.19602 0.2873 0.85598 0.0
C681 C 0.22288 0.29763 0.85546 0.0
C682 C 0.1782 0.32322 0.89585 0.0
C683 C 0.22647 0.32105 0.87547 0.0
C684 C 0.16154 0.35397 0.94313 0.0
C685 C 0.10636 0.33866 0.93702 0.0
N686 N 0.20444 0.33293 0.89501 0.0
N687 N 0.12774 0.32952 0.91583 0.0
H688 H 0.7047 0.09042 0.90183 0.0
H689 H 0.80417 0.21478 0.86984 0.0
H690 H 0.76484 0.11326 0.97114 0.0
H691 H 0.72972 0.20411 0.81233 0.0
H692 H 0.79275 0.17568 0.90592 0.0
H693 H 0.71656 0.12981 0.86724 0.0
C694 C 0.72023 0.10388 0.90996 0.0
C695 C 0.7335 0.09873 0.93969 0.0
C696 C 0.7789 0.18204 0.88545 0.0
C697 C 0.74759 0.14376 0.89974 0.0
C698 C 0.78539 0.2043 0.86482 0.0
C699 C 0.76787 0.21271 0.83798 0.0
C700 C 0.7549 0.16797 0.87902 0.0
C701 C 0.74381 0.19843 0.83272 0.0
C702 C 0.72711 0.12634 0.89006 0.0
C703 C 0.75418 0.11637 0.9484 0.0
N704 N 0.73813 0.17668 0.85299 0.0
N705 N 0.76059 0.1382 0.9285 0.0
H706 H 0.93923 0.67875 0.96001 0.0
H707 H 0.86868 0.72605 0.79032 0.0
H708 H 0.98888 0.66481 0.87469 0.0
H709 H 0.82016 0.73551 0.87669 0.0
H710 H 0.91326 0.70387 0.82018 0.0
H711 H 0.89517 0.69881 0.9292 0.0
C712 C 0.94075 0.67972 0.93473 0.0
C713 C 0.96773 0.67019 0.91992 0.0
C714 C 0.89284 0.71085 0.83255 0.0
C715 C 0.91743 0.69338 0.88434 0.0
C716 C 0.8675 0.72363 0.81556 0.0
C717 C 0.84078 0.73249 0.83113 0.0
C718 C 0.8913 0.70705 0.86524 0.0
C719 C 0.84032 0.72886 0.86378 0.0
C720 C 0.91562 0.6912 0.91711 0.0
C721 C 0.96846 0.67165 0.88704 0.0
N722 N 0.86516 0.71638 0.87972 0.0
N723 N 0.9437 0.68328 0.87033 0.0
H724 H 0.0858 0.30433 0.13459 0.0
H725 H 0.25983 0.2721 0.16732 0.0
H726 H 0.15165 0.26858 0.06736 0.0
H727 H 0.19746 0.30728 0.23805 0.0
H728 H 0.21939 0.26697 0.13248 0.0
H729 H 0.12479 0.30169 0.1745 0.0
C730 C 0.10833 0.29543 0.1283 0.0
C731 C 0.11537 0.28676 0.09739 0.0
C732 C 0.21431 0.27571 0.15561 0.0
C733 C 0.16017 0.28402 0.14298 0.0
C734 C 0.23751 0.2787 0.17559 0.0
C735 C 0.23208 0.29044 0.20558 0.0
C736 C 0.18511 0.28474 0.16534 0.0
C737 C 0.20264 0.29824 0.21507 0.0
C738 C 0.13061 0.29411 0.1511 0.0
C739 C 0.14504 0.27566 0.09071 0.0
N740 N 0.18021 0.29552 0.19489 0.0
N741 N 0.16619 0.27481 0.11314 0.0
H742 H 0.13823 0.75292 0.98205 0.0
H743 H 0.19875 0.70667 0.81118 0.0
H744 H 0.08858 0.71078 0.91596 0.0
H745 H 0.2321 0.77121 0.8679 0.0
H746 H 0.16033 0.70428 0.85043 0.0
H747 H 0.17443 0.7572 0.94138 0.0
C748 C 0.13472 0.7449 0.95887 0.0
C749 C 0.11017 0.73162 0.95247 0.0
C750 C 0.1761 0.71894 0.8542 0.0
C751 C 0.15211 0.73578 0.90576 0.0
C752 C 0.19818 0.72013 0.83193 0.0
C753 C 0.2188 0.73912 0.83617 0.0
C754 C 0.17486 0.73656 0.88113 0.0
C755 C 0.21672 0.75628 0.86345 0.0
C756 C 0.15549 0.74726 0.93563 0.0
C757 C 0.10698 0.72146 0.92193 0.0
N758 N 0.19534 0.75448 0.88483 0.0
N759 N 0.12783 0.72346 0.89984 0.0
H760 H 0.33646 0.08218 0.9793 0.0
H761 H 0.26825 0.19636 0.83969 0.0
H762 H 0.24481 0.09982 0.95201 0.0
H763 H 0.35183 0.19975 0.88307 0.0
H764 H 0.26284 0.15413 0.87485 0.0
H765 H 0.34595 0.11887 0.93862 0.0
C766 C 0.31845 0.09352 0.96462 0.0
C767 C 0.28977 0.08815 0.96924 0.0
C768 C 0.28254 0.16388 0.8765 0.0
C769 C 0.30042 0.12971 0.92272 0.0
C770 C 0.28573 0.18777 0.85615 0.0
C771 C 0.3106 0.20131 0.85825 0.0
C772 C 0.30447 0.15337 0.89911 0.0
C773 C 0.33228 0.18986 0.88074 0.0
C774 C 0.32382 0.11449 0.94154 0.0
C775 C 0.26721 0.10349 0.94958 0.0
N776 N 0.32873 0.16656 0.90034 0.0
N777 N 0.27301 0.12347 0.92728 0.0
H778 H 0.95062 0.26358 0.01851 0.0
H779 H 0.91706 0.28454 0.83388 0.0
H780 H 1.0099 0.29705 0.95457 0.0
H781 H 0.85014 0.28178 0.90332 0.0
H782 H 0.9539 0.28185 0.87624 0.0
H783 H 0.91644 0.26189 0.97493 0.0
C784 C 0.95671 0.27015 0.99525 0.0
C785 C 0.98327 0.28052 0.99034 0.0
C786 C 0.93114 0.28181 0.88215 0.0
C787 C 0.94393 0.27875 0.94012 0.0
C788 C 0.91014 0.28332 0.858 0.0
C789 C 0.88045 0.28355 0.86508 0.0
C790 C 0.92248 0.27998 0.91358 0.0
C791 C 0.87273 0.28185 0.89676 0.0
C792 C 0.93702 0.26939 0.97037 0.0
C793 C 0.98969 0.28895 0.95955 0.0
N794 N 0.89355 0.28002 0.91974 0.0
N795 N 0.97021 0.2879 0.93567 0.0
H796 H 0.77932 0.96555 0.92549 0.0
H797 H 0.72837 0.81665 0.86378 0.0
H798 H 0.72406 0.91894 0.98259 0.0
H799 H 0.79757 0.85842 0.82482 0.0
H800 H 0.72177 0.8546 0.90529 0.0
H801 H 0.78092 0.92791 0.88629 0.0
C802 C 0.76749 0.94725 0.93 0.0
C803 C 0.75174 0.94545 0.95782 0.0
C804 C 0.73833 0.8553 0.88757 0.0
C805 C 0.75364 0.90134 0.912 0.0
C806 C 0.74203 0.83379 0.86381 0.0
C807 C 0.76362 0.83425 0.84071 0.0
C808 C 0.75612 0.87754 0.88787 0.0
C809 C 0.78077 0.85687 0.84205 0.0
C810 C 0.76847 0.92556 0.90733 0.0
C811 C 0.73662 0.92117 0.96162 0.0
N812 N 0.77659 0.87742 0.86503 0.0
N813 N 0.738 0.89991 0.93895 0.0
H814 H 0.9617 0.78461 0.04681 0.0
H815 H 0.86689 0.70525 0.16881 0.0
H816 H 0.98247 0.68935 0.06953 0.0
H817 H 0.87411 0.79918 0.17298 0.0
H818 H 0.90409 0.69885 0.12718 0.0
H819 H 0.92412 0.79041 0.08784 0.0
C820 C 0.95838 0.76493 0.06036 0.0
C821 C 0.97548 0.7365 0.05477 0.0
C822 C 0.8975 0.72081 0.13733 0.0
C823 C 0.93213 0.74289 0.10148 0.0
C824 C 0.87624 0.72448 0.16102 0.0
C825 C 0.86748 0.75271 0.17469 0.0
C826 C 0.90959 0.74569 0.12671 0.0
C827 C 0.88035 0.77688 0.1635 0.0
C828 C 0.93696 0.76825 0.08382 0.0
C829 C 0.97005 0.71177 0.07313 0.0
N830 N 0.90051 0.77287 0.14013 0.0
N831 N 0.9488 0.71549 0.09546 0.0
H832 H 0.30631 0.929 0.06488 0.0
H833 H 0.3438 0.85725 0.23713 0.0
H834 H 0.35019 0.97164 0.13591 0.0
H835 H 0.28654 0.82476 0.17103 0.0
H836 H 0.3528 0.89502 0.19795 0.0
H837 H 0.30625 0.886 0.10072 0.0
C838 C 0.31643 0.92914 0.08779 0.0
C839 C 0.32805 0.95421 0.09741 0.0
C840 C 0.3384 0.87949 0.192 0.0
C841 C 0.3277 0.90501 0.13884 0.0
C842 C 0.33326 0.85787 0.21436 0.0
C843 C 0.31419 0.83785 0.20754 0.0
C844 C 0.32456 0.881 0.16248 0.0
C845 C 0.30122 0.83981 0.17755 0.0
C846 C 0.31619 0.90461 0.10836 0.0
C847 C 0.34082 0.95296 0.12748 0.0
N848 N 0.30658 0.86099 0.15624 0.0
N849 N 0.34007 0.92894 0.14719 0.0
H850 H 0.74888 0.0361 0.11628 0.0
H851 H 0.71905 0.20912 0.16689 0.0
H852 H 0.67496 0.10254 0.08366 0.0
H853 H 0.78523 0.1415 0.21156 0.0
H854 H 0.70336 0.16992 0.13576 0.0
H855 H 0.7624 0.07329 0.15203 0.0
C856 C 0.73511 0.05824 0.11704 0.0
C857 C 0.71072 0.06612 0.09674 0.0
C858 C 0.72132 0.16355 0.15236 0.0
C859 C 0.72654 0.10907 0.13721 0.0
C860 C 0.73039 0.186 0.17002 0.0
C861 C 0.75354 0.17859 0.19177 0.0
C862 C 0.73556 0.13334 0.15625 0.0
C863 C 0.76733 0.1482 0.19497 0.0
C864 C 0.74302 0.07957 0.13731 0.0
C865 C 0.69399 0.09535 0.09869 0.0
N866 N 0.7582 0.1267 0.17736 0.0
N867 N 0.70235 0.11573 0.11823 0.0
H868 H 0.57817 0.61636 0.79582 0.0
H869 H 0.72871 0.66997 0.83628 0.0
H870 H 0.63132 0.58455 0.87724 0.0
H871 H 0.66416 0.72106 0.77327 0.0
H872 H 0.69415 0.63674 0.84933 0.0
H873 H 0.61006 0.65323 0.78492 0.0
C874 C 0.59655 0.61714 0.81139 0.0
C875 C 0.60221 0.59724 0.83741 0.0
C876 C 0.6874 0.65528 0.83278 0.0
C877 C 0.63872 0.6393 0.82506 0.0
C878 C 0.70716 0.67422 0.82523 0.0
C879 C 0.69924 0.69824 0.80364 0.0
C880 C 0.65955 0.66009 0.81833 0.0
C881 C 0.67104 0.70277 0.79007 0.0
C882 C 0.6146 0.63831 0.80527 0.0
C883 C 0.62604 0.59955 0.85708 0.0
N884 N 0.65222 0.68368 0.79746 0.0
N885 N 0.64356 0.61999 0.85034 0.0
H886 H 0.42496 0.54551 0.76112 0.0
H887 H 0.38828 0.72484 0.78106 0.0
H888 H 0.48987 0.60172 0.77568 0.0
H889 H 0.32106 0.66986 0.78362 0.0
H890 H 0.42511 0.68005 0.77203 0.0
H891 H 0.38619 0.59077 0.76164 0.0
C892 C 0.43113 0.56737 0.76383 0.0
C893 C 0.46074 0.56979 0.76849 0.0
C894 C 0.40234 0.67762 0.77448 0.0
C895 C 0.41653 0.62151 0.76938 0.0
C896 C 0.38125 0.70325 0.77974 0.0
C897 C 0.35155 0.70106 0.7833 0.0
C898 C 0.39386 0.64932 0.77278 0.0
C899 C 0.34372 0.67251 0.78093 0.0
C900 C 0.40896 0.59315 0.76439 0.0
C901 C 0.46737 0.59869 0.77218 0.0
N902 N 0.36479 0.64766 0.77595 0.0
N903 N 0.44551 0.62328 0.77267 0.0
H904 H 0.4319 0.47735 0.83463 0.0
H905 H 0.40323 0.308 0.83672 0.0
H906 H 0.49308 0.40089 0.87219 0.0
H907 H 0.33406 0.38416 0.8166 0.0
H908 H 0.43643 0.34244 0.84882 0.0
H909 H 0.39558 0.44457 0.82729 0.0
C910 C 0.43765 0.45375 0.84151 0.0
C911 C 0.46568 0.44188 0.85395 0.0
C912 C 0.41398 0.35176 0.8419 0.0
C913 C 0.42429 0.40428 0.84553 0.0
C914 C 0.39502 0.33207 0.83487 0.0
C915 C 0.3659 0.34329 0.82559 0.0
C916 C 0.40392 0.38304 0.83936 0.0
C917 C 0.3564 0.37466 0.82369 0.0
C918 C 0.41687 0.43509 0.83742 0.0
C919 C 0.47176 0.41119 0.86281 0.0
N920 N 0.37546 0.39352 0.83034 0.0
N921 N 0.45137 0.39347 0.85817 0.0
H922 H 0.57664 0.40055 0.77532 0.0
H923 H 0.75167 0.38441 0.78888 0.0
H924 H 0.62156 0.47648 0.77753 0.0
H925 H 0.70798 0.30838 0.77865 0.0
H926 H 0.70434 0.41845 0.78187 0.0
H927 H 0.62428 0.36664 0.77294 0.0
C928 C 0.59647 0.41018 0.77484 0.0
C929 C 0.59495 0.44152 0.77681 0.0
C930 C 0.70503 0.39435 0.78098 0.0
C931 C 0.64982 0.40259 0.77453 0.0
C932 C 0.73207 0.37488 0.78506 0.0
C933 C 0.73371 0.34352 0.7846 0.0
C934 C 0.67927 0.38243 0.77658 0.0
C935 C 0.70766 0.33243 0.77932 0.0
C936 C 0.62373 0.39073 0.77359 0.0
C937 C 0.62152 0.45255 0.77608 0.0
N938 N 0.68149 0.35184 0.77574 0.0
N939 N 0.64778 0.43313 0.77534 0.0
H940 H 0.65897 0.4844 0.27629 0.0
H941 H 0.67548 0.30448 0.27498 0.0
H942 H 0.58508 0.43812 0.2725 0.0
H943 H 0.74897 0.35129 0.27499 0.0
H944 H 0.64197 0.35286 0.28025 0.0
H945 H 0.69196 0.43578 0.28285 0.0
C946 C 0.64958 0.46407 0.27736 0.0
C947 C 0.61914 0.46546 0.27356 0.0
C948 C 0.66543 0.35256 0.27938 0.0
C949 C 0.65702 0.40945 0.28064 0.0
C950 C 0.68456 0.32494 0.27635 0.0
C951 C 0.71503 0.3239 0.27441 0.0
C952 C 0.67683 0.3794 0.28041 0.0
C953 C 0.72564 0.35106 0.27644 0.0
C954 C 0.6685 0.43624 0.28096 0.0
C955 C 0.60836 0.43824 0.27523 0.0
N956 N 0.70658 0.37769 0.27911 0.0
N957 N 0.62729 0.41139 0.27829 0.0
H958 H 0.6613 0.56252 0.16401 0.0
H959 H 0.68417 0.72815 0.20678 0.0
H960 H 0.59602 0.62476 0.21289 0.0
H961 H 0.75707 0.65472 0.19517 0.0
H962 H 0.65007 0.69283 0.20113 0.0
H963 H 0.69522 0.5983 0.16743 0.0
C964 C 0.65403 0.58384 0.17524 0.0
C965 C 0.62578 0.59073 0.18815 0.0
C966 C 0.67352 0.68446 0.19973 0.0
C967 C 0.66444 0.63178 0.19206 0.0
C968 C 0.69298 0.70461 0.20276 0.0
C969 C 0.72347 0.6943 0.20141 0.0
C970 C 0.68458 0.65383 0.19482 0.0
C971 C 0.73371 0.66355 0.19636 0.0
C972 C 0.67347 0.60413 0.17737 0.0
C973 C 0.61766 0.61851 0.20283 0.0
N974 N 0.71429 0.64439 0.19311 0.0
N975 N 0.63683 0.63811 0.20422 0.0
H976 H 0.48608 0.62188 0.18697 0.0
H977 H 0.36102 0.70175 0.30259 0.0
H978 H 0.4759 0.58622 0.28007 0.0
H979 H 0.37346 0.73044 0.20741 0.0
H980 H 0.40584 0.66285 0.29845 0.0
H981 H 0.44794 0.66481 0.19751 0.0
C982 C 0.47582 0.62306 0.20978 0.0
C983 C 0.48409 0.60011 0.23253 0.0
C984 C 0.39891 0.67795 0.27867 0.0
C985 C 0.43969 0.64979 0.24488 0.0
C986 C 0.37349 0.70026 0.28109 0.0
C987 C 0.36347 0.7192 0.2552 0.0
C988 C 0.41435 0.67483 0.25023 0.0
C989 C 0.38028 0.71619 0.22786 0.0
C990 C 0.45394 0.64777 0.21583 0.0
C991 C 0.47015 0.60333 0.26179 0.0
N992 N 0.40465 0.69441 0.22607 0.0
N993 N 0.44838 0.62758 0.26706 0.0
H994 H 0.44102 0.48403 0.21066 0.0
H995 H 0.40609 0.31892 0.24518 0.0
H996 H 0.50478 0.40229 0.20058 0.0
H997 H 0.33768 0.3956 0.22453 0.0
H998 H 0.44305 0.35036 0.23428 0.0
H999 H 0.40306 0.45327 0.22129 0.0
C1000 C 0.44699 0.45967 0.2107 0.0
C1001 C 0.47602 0.44574 0.20445 0.0
C1002 C 0.41996 0.36032 0.23203 0.0
C1003 C 0.433 0.41049 0.21682 0.0
C1004 C 0.39888 0.34238 0.23828 0.0
C1005 C 0.36883 0.35466 0.23559 0.0
C1006 C 0.41095 0.39091 0.22345 0.0
C1007 C 0.36067 0.38524 0.22669 0.0
C1008 C 0.42537 0.44215 0.2166 0.0
C1009 C 0.48262 0.41404 0.20472 0.0
N1010 N 0.3816 0.40238 0.22109 0.0
N1011 N 0.46137 0.39756 0.21095 0.0
H1012 H 0.87303 0.56027 0.62706 0.0
H1013 H 0.76749 0.70518 0.68055 0.0
H1014 H 0.81739 0.61658 0.55951 0.0
H1015 H 0.85773 0.69104 0.71239 0.0
H1016 H 0.78143 0.66637 0.64119 0.0
H1017 H 0.86494 0.60224 0.66391 0.0
C1018 C 0.85959 0.58158 0.61979 0.0
C1019 C 0.84611 0.585 0.59006 0.0
C1020 C 0.79814 0.67186 0.65678 0.0
C1021 C 0.83586 0.63235 0.63238 0.0
C1022 C 0.79021 0.69381 0.67931 0.0
C1023 C 0.81152 0.70131 0.69966 0.0
C1024 C 0.82741 0.65661 0.65526 0.0
C1025 C 0.8407 0.68599 0.69696 0.0
C1026 C 0.85495 0.6054 0.6408 0.0
C1027 C 0.82855 0.61302 0.582 0.0
N1028 N 0.84776 0.664 0.67544 0.0
N1029 N 0.82347 0.63537 0.60323 0.0
H1030 H 0.47809 0.71064 0.60897 0.0
H1031 H 0.35688 0.81322 0.71277 0.0
H1032 H 0.47015 0.80735 0.61031 0.0
H1033 H 0.35228 0.72245 0.68577 0.0
H1034 H 0.40001 0.81181 0.67872 0.0
H1035 H 0.43386 0.71451 0.64092 0.0
C1036 C 0.46703 0.73271 0.61602 0.0
C1037 C 0.47786 0.75867 0.60686 0.0
C1038 C 0.38934 0.79234 0.6802 0.0
C1039 C 0.42705 0.76339 0.64373 0.0
C1040 C 0.36474 0.79312 0.69964 0.0
C1041 C 0.35073 0.76798 0.70221 0.0
C1042 C 0.40024 0.76608 0.6636 0.0
C1043 C 0.36207 0.74251 0.68462 0.0
C1044 C 0.44167 0.73496 0.63416 0.0
C1045 C 0.46241 0.78677 0.61652 0.0
N1046 N 0.38611 0.74218 0.66637 0.0
N1047 N 0.43792 0.78838 0.6346 0.0
H1048 H 0.1752 0.44691 0.63981 0.0
H1049 H 0.30033 0.32844 0.72967 0.0
H1050 H 0.26813 0.44463 0.62646 0.0
H1051 H 0.20717 0.33491 0.74453 0.0
H1052 H 0.28968 0.37318 0.69455 0.0
H1053 H 0.18698 0.40787 0.68067 0.0
C1054 C 0.19808 0.43843 0.64554 0.0
C1055 C 0.22062 0.4491 0.6293 0.0
C1056 C 0.27161 0.36494 0.70576 0.0
C1057 C 0.23439 0.40389 0.67615 0.0
C1058 C 0.27772 0.33953 0.72589 0.0
C1059 C 0.25458 0.32784 0.73976 0.0
C1060 C 0.24219 0.37864 0.69954 0.0
C1061 C 0.22566 0.34301 0.73408 0.0
C1062 C 0.20483 0.41597 0.66887 0.0
C1063 C 0.24993 0.43682 0.63775 0.0
N1064 N 0.2203 0.36741 0.71428 0.0
N1065 N 0.25594 0.41483 0.66044 0.0
H1066 H 0.58131 0.28077 0.56633 0.0
H1067 H 0.68775 0.21729 0.71162 0.0
H1068 H 0.58927 0.19201 0.60915 0.0
H1069 H 0.68786 0.30484 0.66891 0.0
H1070 H 0.64812 0.21044 0.6763 0.0
H1071 H 0.61676 0.29284 0.60541 0.0
C1072 C 0.59023 0.26398 0.58404 0.0
C1073 C 0.58243 0.23525 0.58426 0.0
C1074 C 0.65661 0.23127 0.67457 0.0
C1075 C 0.62283 0.24883 0.62886 0.0
C1076 C 0.67928 0.2352 0.69485 0.0
C1077 C 0.69122 0.2616 0.69313 0.0
C1078 C 0.64567 0.25385 0.65206 0.0
C1079 C 0.67927 0.28409 0.67096 0.0
C1080 C 0.61053 0.27082 0.60624 0.0
C1081 C 0.59476 0.21435 0.60772 0.0
N1082 N 0.65724 0.27965 0.65112 0.0
N1083 N 0.61424 0.22151 0.62883 0.0
H1084 H 0.82945 0.4904 0.43517 0.0
H1085 H 0.83732 0.31489 0.40086 0.0
H1086 H 0.86187 0.41965 0.50307 0.0
H1087 H 0.7947 0.38752 0.34 0.0
H1088 H 0.85039 0.35216 0.43689 0.0
H1089 H 0.82165 0.45235 0.398 0.0
C1090 C 0.83531 0.46682 0.4422 0.0
C1091 C 0.84622 0.45832 0.47249 0.0
C1092 C 0.83819 0.35994 0.41566 0.0
C1093 C 0.83693 0.41437 0.42981 0.0
C1094 C 0.83068 0.33868 0.39512 0.0
C1095 C 0.8148 0.34815 0.36747 0.0
C1096 C 0.82992 0.3909 0.40837 0.0
C1097 C 0.80685 0.37923 0.36111 0.0
C1098 C 0.83067 0.44506 0.42093 0.0
C1099 C 0.85345 0.42733 0.48003 0.0
N1100 N 0.81451 0.39944 0.38135 0.0
N1101 N 0.84848 0.40649 0.45893 0.0
H1102 H 0.63438 0.72849 0.41857 0.0
H1103 H 0.75161 0.81873 0.34316 0.0
H1104 H 0.65391 0.80861 0.46083 0.0
H1105 H 0.70705 0.75834 0.29218 0.0
H1106 H 0.71884 0.81466 0.38778 0.0
H1107 H 0.66465 0.73727 0.37386 0.0
C1108 C 0.64521 0.74785 0.41855 0.0
C1109 C 0.64165 0.76776 0.44361 0.0
C1110 C 0.71617 0.80259 0.36664 0.0
C1111 C 0.67647 0.77815 0.39211 0.0
C1112 C 0.73479 0.80497 0.3411 0.0
C1113 C 0.73233 0.78877 0.31374 0.0
C1114 C 0.69521 0.78358 0.36493 0.0
C1115 C 0.71011 0.77118 0.31266 0.0
C1116 C 0.66233 0.75304 0.39284 0.0
C1117 C 0.65592 0.7928 0.44194 0.0
N1118 N 0.69276 0.76886 0.33785 0.0
N1119 N 0.67288 0.79719 0.41674 0.0
H1120 H 0.25354 0.62903 0.49065 0.0
H1121 H 0.22806 0.70787 0.32012 0.0
H1122 H 0.18534 0.61479 0.42633 0.0
H1123 H 0.29557 0.72406 0.38442 0.0
H1124 H 0.21117 0.67515 0.35963 0.0
H1125 H 0.2681 0.66533 0.45317 0.0
C1126 C 0.24153 0.63356 0.46874 0.0
C1127 C 0.21821 0.61857 0.46173 0.0
C1128 C 0.22963 0.6859 0.36517 0.0
C1129 C 0.23481 0.66033 0.41856 0.0
C1130 C 0.23936 0.70463 0.34255 0.0
C1131 C 0.26341 0.71879 0.34878 0.0
C1132 C 0.24402 0.68108 0.39439 0.0
C1133 C 0.277 0.71366 0.37843 0.0
C1134 C 0.24983 0.65439 0.44735 0.0
C1135 C 0.20324 0.62584 0.43305 0.0
N1136 N 0.26719 0.69518 0.40004 0.0
N1137 N 0.2119 0.64599 0.41253 0.0
H1138 H 0.4362 0.26761 0.47887 0.0
H1139 H 0.36543 0.26954 0.30665 0.0
H1140 H 0.48734 0.2588 0.39417 0.0
H1141 H 0.3139 0.28391 0.39065 0.0
H1142 H 0.41022 0.26815 0.33807 0.0
H1143 H 0.39114 0.27665 0.44696 0.0
C1144 C 0.43802 0.26797 0.4536 0.0
C1145 C 0.46574 0.26229 0.43929 0.0
C1146 C 0.38912 0.27179 0.34965 0.0
C1147 C 0.41405 0.27225 0.40248 0.0
C1148 C 0.36353 0.27263 0.33167 0.0
C1149 C 0.3359 0.27678 0.34604 0.0
C1150 C 0.38712 0.27496 0.38233 0.0
C1151 C 0.33476 0.28052 0.37861 0.0
C1152 C 0.41223 0.27301 0.43535 0.0
C1153 C 0.46656 0.26296 0.40635 0.0
N1154 N 0.35995 0.27937 0.39564 0.0
N1155 N 0.44119 0.26757 0.38915 0.0
H1156 H 0.62954 0.83214 0.57226 0.0
H1157 H 0.70015 0.79921 0.74419 0.0
H1158 H 0.57883 0.81592 0.6535 0.0
H1159 H 0.75001 0.80528 0.65989 0.0
H1160 H 0.6545 0.81112 0.71296 0.0
H1161 H 0.67272 0.82982 0.60587 0.0
C1162 C 0.62732 0.8286 0.59724 0.0
C1163 C 0.60053 0.82386 0.60997 0.0
C1164 C 0.67546 0.80997 0.70137 0.0
C1165 C 0.65017 0.82067 0.64865 0.0
C1166 C 0.70145 0.80309 0.71916 0.0
C1167 C 0.72883 0.80112 0.70454 0.0
C1168 C 0.67697 0.81503 0.66883 0.0
C1169 C 0.72936 0.80648 0.67209 0.0
C1170 C 0.65208 0.82707 0.61644 0.0
C1171 C 0.59905 0.81949 0.64259 0.0
N1172 N 0.70387 0.81313 0.65537 0.0
N1173 N 0.62361 0.81764 0.66076 0.0
H1174 H 0.63255 0.2235 0.47533 0.0
H1175 H 0.72739 0.19043 0.31988 0.0
H1176 H 0.61226 0.16627 0.40156 0.0
H1177 H 0.73434 0.26418 0.38064 0.0
H1178 H 0.69095 0.17528 0.35484 0.0
H1179 H 0.67512 0.23282 0.44571 0.0
C1180 C 0.63687 0.21284 0.45299 0.0
C1181 C 0.6182 0.19439 0.44085 0.0
C1182 C 0.70058 0.19466 0.36065 0.0
C1183 C 0.66751 0.20463 0.40709 0.0
C1184 C 0.72151 0.20332 0.34073 0.0
C1185 C 0.73382 0.22886 0.34711 0.0
C1186 C 0.69185 0.21153 0.38729 0.0
C1187 C 0.72534 0.24447 0.37465 0.0
C1188 C 0.66137 0.21811 0.43616 0.0
C1189 C 0.62575 0.18062 0.41208 0.0
N1190 N 0.70473 0.23566 0.39364 0.0
N1191 N 0.64968 0.18615 0.39617 0.0
H1192 H 0.75505 0.61376 0.3949 0.0
H1193 H 0.86903 0.70807 0.31881 0.0
H1194 H 0.83732 0.62292 0.43845 0.0
H1195 H 0.7864 0.69939 0.2759 0.0
H1196 H 0.86109 0.67116 0.35942 0.0
H1197 H 0.76833 0.64114 0.34865 0.0
C1198 C 0.77583 0.62161 0.39482 0.0
C1199 C 0.79503 0.61606 0.42068 0.0
C1200 C 0.84494 0.67695 0.34079 0.0
C1201 C 0.81064 0.64707 0.36761 0.0
C1202 C 0.84963 0.69778 0.31745 0.0
C1203 C 0.82821 0.70693 0.29415 0.0
C1204 C 0.81861 0.66539 0.34077 0.0
C1205 C 0.80339 0.69302 0.29356 0.0
C1206 C 0.78356 0.637 0.36828 0.0
C1207 C 0.82195 0.62637 0.41898 0.0
N1208 N 0.79907 0.67328 0.31677 0.0
N1209 N 0.82887 0.64146 0.393 0.0
H1210 H 0.52737 0.79528 0.4182 0.0
H1211 H 0.35393 0.8185 0.4002 0.0
H1212 H 0.46864 0.8304 0.49204 0.0
H1213 H 0.41384 0.79909 0.32314 0.0
H1214 H 0.39487 0.82746 0.43321 0.0
H1215 H 0.48588 0.80233 0.38165 0.0
C1216 C 0.50571 0.80527 0.42645 0.0
C1217 C 0.50128 0.81234 0.45802 0.0
C1218 C 0.399 0.82158 0.40899 0.0
C1219 C 0.45343 0.81937 0.41671 0.0
C1220 C 0.3757 0.81631 0.39021 0.0
C1221 C 0.38068 0.8077 0.35906 0.0
C1222 C 0.42748 0.81795 0.39653 0.0
C1223 C 0.40916 0.80541 0.34714 0.0
C1224 C 0.48198 0.80913 0.40565 0.0
C1225 C 0.47288 0.82497 0.46773 0.0
N1226 N 0.43154 0.81022 0.36598 0.0
N1227 N 0.44982 0.82754 0.44723 0.0
H1228 H 0.27049 0.49989 0.40998 0.0
H1229 H 0.22538 0.34371 0.36177 0.0
H1230 H 0.23814 0.43951 0.47554 0.0
H1231 H 0.27729 0.39318 0.30368 0.0
H1232 H 0.22179 0.3833 0.40071 0.0
H1233 H 0.26652 0.46466 0.3682 0.0
C1234 C 0.26268 0.47918 0.41562 0.0
C1235 C 0.25485 0.47254 0.44633 0.0
C1236 C 0.23365 0.38562 0.37924 0.0
C1237 C 0.24981 0.43239 0.39858 0.0
C1238 C 0.23541 0.36323 0.35689 0.0
C1239 C 0.25182 0.36513 0.32963 0.0
C1240 C 0.24822 0.41006 0.37406 0.0
C1241 C 0.26465 0.39074 0.32457 0.0
C1242 C 0.2603 0.45914 0.39175 0.0
C1243 C 0.24467 0.44544 0.45225 0.0
N1244 N 0.26275 0.41211 0.34668 0.0
N1245 N 0.2424 0.42636 0.42856 0.0
H1246 H 0.43048 0.15723 0.58819 0.0
H1247 H 0.38727 0.25235 0.74234 0.0
H1248 H 0.47945 0.22138 0.62563 0.0
H1249 H 0.33243 0.19409 0.70342 0.0
H1250 H 0.42373 0.23652 0.70252 0.0
H1251 H 0.39696 0.16567 0.63286 0.0
C1252 C 0.43435 0.17282 0.60597 0.0
C1253 C 0.45757 0.1889 0.60303 0.0
C1254 C 0.40381 0.22705 0.70266 0.0
C1255 C 0.41939 0.19875 0.65395 0.0
C1256 C 0.38287 0.23612 0.72546 0.0
C1257 C 0.3565 0.22481 0.72608 0.0
C1258 C 0.39847 0.20655 0.68003 0.0
C1259 C 0.35237 0.20351 0.70375 0.0
C1260 C 0.41515 0.17775 0.63134 0.0
C1261 C 0.46151 0.20897 0.62662 0.0
N1262 N 0.37305 0.19523 0.68143 0.0
N1263 N 0.44258 0.21339 0.65095 0.0
H1264 H 0.78166 0.43852 0.56788 0.0
H1265 H 0.82557 0.3691 0.7396 0.0
H1266 H 0.78831 0.49326 0.64815 0.0
H1267 H 0.79549 0.3191 0.66498 0.0
H1268 H 0.82083 0.41347 0.70411 0.0
H1269 H 0.79393 0.39322 0.60143 0.0
C1270 C 0.78553 0.44094 0.59263 0.0
C1271 C 0.78368 0.46963 0.60532 0.0
C1272 C 0.81572 0.39261 0.69543 0.0
C1273 C 0.79818 0.418 0.6438 0.0
C1274 C 0.81884 0.36724 0.71551 0.0
C1275 C 0.81092 0.34052 0.70509 0.0
C1276 C 0.8049 0.39097 0.6648 0.0
C1277 C 0.80174 0.33937 0.67387 0.0
C1278 C 0.7926 0.41515 0.61176 0.0
C1279 C 0.78896 0.47159 0.63755 0.0
N1280 N 0.79883 0.36427 0.65488 0.0
N1281 N 0.79609 0.44609 0.6557 0.0
H1282 H 0.31015 0.5928 0.5341 0.0
H1283 H 0.29632 0.62497 0.7172 0.0
H1284 H 0.30825 0.52329 0.60472 0.0
H1285 H 0.27505 0.69253 0.64346 0.0
H1286 H 0.31251 0.58708 0.67748 0.0
H1287 H 0.31214 0.629 0.5755 0.0
C1288 C 0.31147 0.58486 0.55829 0.0
C1289 C 0.30866 0.55517 0.56611 0.0
C1290 C 0.30439 0.61024 0.67008 0.0
C1291 C 0.30994 0.59648 0.6134 0.0
C1292 C 0.29491 0.63173 0.69266 0.0
C1293 C 0.28386 0.66169 0.68346 0.0
C1294 C 0.30306 0.61897 0.63822 0.0
C1295 C 0.28298 0.66952 0.65147 0.0
C1296 C 0.31208 0.60563 0.58193 0.0
C1297 C 0.3101 0.54614 0.59784 0.0
N1298 N 0.2924 0.64828 0.62999 0.0
N1299 N 0.31006 0.56686 0.6204 0.0
loop_
_geom_bond_atom_site_label_1
_geom_bond_atom_site_label_2
_geom_bond_distance
_geom_bond_site_symmetry_2
_ccdc_geom_bond_type
Cu0 N1 1.999 1_565 S
Cu0 O6 1.974 . S
Cu0 N11 1.972 1_455 S
Cu0 O20 1.959 1_465 S
N1 Cu0 1.999 1_545 S
N1 C3 1.263 . S
N1 C5 1.389 . S
N2 C3 1.358 . S
N2 C4 1.400 . S
C3 N1 1.263 . S
C3 N2 1.358 . S
C3 H9 0.930 . S
C4 N2 1.400 . S
C4 C5 1.351 . S
C4 H21 0.930 . S
C5 N1 1.389 . S
C5 C4 1.351 . S
C5 H10 0.930 . S
O6 Cu0 1.974 . S
O6 C16 1.282 . S
C7 O8 1.261 . S
C7 O20 1.251 . S
O8 C7 1.261 . S
H9 C3 0.930 . S
H10 C5 0.930 . S
N11 Cu0 1.972 1_655 S
N11 C13 1.354 . S
N11 C14 1.387 1_655 S
N12 C13 1.345 . S
N12 C15 1.336 . S
C13 N11 1.354 . S
C13 N12 1.345 . S
C13 H18 0.930 . S
C14 N11 1.387 1_455 S
C14 C15 1.346 1_455 S
C14 H19 0.930 . S
C15 N12 1.336 . S
C15 C14 1.346 1_655 S
C15 H22 0.929 . S
C16 O6 1.282 . S
C16 O17 1.216 . S
O17 C16 1.216 . S
H18 C13 0.930 . S
H19 C14 0.930 . S
O20 Cu0 1.959 1_645 S
O20 C7 1.251 . S
H21 C4 0.930 . S
H22 C15 0.929 . S
Cu23 N24 1.982 1_445 S
Cu23 O29 1.957 1_455 S
Cu23 N34 2.001 . S
Cu23 O43 1.976 1_545 S
N24 Cu23 1.982 1_665 S
N24 C26 1.263 . S
N24 C28 1.389 . S
N25 C26 1.358 . S
N25 C27 1.400 . S
C26 N24 1.263 . S
C26 N25 1.358 . S
C26 H32 0.930 1_565 S
C27 N25 1.400 . S
C27 C28 1.351 . S
C27 H44 0.930 . S
C28 N24 1.389 . S
C28 C27 1.351 . S
C28 H33 0.930 . S
O29 Cu23 1.957 1_655 S
O29 C39 1.282 . S
C30 O31 1.261 . S
C30 O43 1.251 . S
O31 C30 1.261 . S
H32 C26 0.930 1_545 S
H33 C28 0.930 . S
N34 Cu23 2.001 . S
N34 C36 1.335 . S
N34 C37 1.390 . S
N35 C36 1.345 . S
N35 C38 1.336 . S
C36 N34 1.335 . S
C36 N35 1.345 . S
C36 H41 0.930 . S
C37 N34 1.390 . S
C37 C38 1.346 . S
C37 H42 0.938 . S
C38 N35 1.336 . S
C38 C37 1.346 . S
C38 H45 0.929 . S
C39 O29 1.282 . S
C39 O40 1.216 . S
O40 C39 1.216 . S
H41 C36 0.930 . S
H42 C37 0.938 . S
O43 Cu23 1.976 1_565 S
O43 C30 1.251 . S
H44 C27 0.930 . S
H45 C38 0.929 . S
Cu46 N47 1.999 1_545 S
Cu46 O52 1.974 1_545 S
Cu46 N57 1.985 . S
Cu46 O66 1.959 . S
N47 Cu46 1.999 1_565 S
N47 C49 1.263 . S
N47 C51 1.389 1_554 S
N48 C49 1.358 1_556 S
N48 C50 1.400 . S
C49 N47 1.263 . S
C49 N48 1.358 1_554 S
C49 H55 0.930 . S
C50 N48 1.400 . S
C50 C51 1.351 . S
C50 H67 0.930 . S
C51 N47 1.389 1_556 S
C51 C50 1.351 . S
C51 H56 0.930 . S
O52 Cu46 1.974 1_565 S
O52 C62 1.282 . S
C53 O54 1.262 . S
C53 O66 1.252 . S
O54 C53 1.262 . S
H55 C49 0.930 . S
H56 C51 0.930 . S
N57 Cu46 1.985 . S
N57 C59 1.335 . S
N57 C60 1.390 . S
N58 C59 1.345 . S
N58 C61 1.336 . S
C59 N57 1.335 . S
C59 N58 1.345 . S
C59 H64 0.930 . S
C60 N57 1.390 . S
C60 C61 1.346 . S
C60 H65 0.930 . S
C61 N58 1.336 . S
C61 C60 1.346 . S
C61 H68 0.929 . S
C62 O52 1.282 . S
C62 O63 1.216 . S
O63 C62 1.216 . S
H64 C59 0.930 . S
H65 C60 0.930 . S
O66 Cu46 1.959 . S
O66 C53 1.252 . S
H67 C50 0.930 . S
H68 C61 0.929 . S
Cu69 N70 1.999 1_554 S
Cu69 O75 1.974 . S
Cu69 N80 1.985 1_455 S
Cu69 O89 1.941 1_454 S
N70 Cu69 1.999 1_556 S
N70 C72 1.263 . S
N70 C74 1.389 . S
N71 C72 1.358 . S
N71 C73 1.400 . S
C72 N70 1.263 . S
C72 N71 1.358 . S
C72 H78 0.930 1_556 S
C73 N71 1.400 . S
C73 C74 1.351 . S
C73 H90 0.930 . S
C74 N70 1.389 . S
C74 C73 1.351 . S
C74 H79 0.930 . S
O75 Cu69 1.974 . S
O75 C85 1.282 . S
C76 O77 1.261 . S
C76 O89 1.260 . S
O77 C76 1.261 . S
H78 C72 0.930 1_554 S
H79 C74 0.930 . S
N80 Cu69 1.985 1_655 S
N80 C82 1.335 . S
N80 C83 1.390 . S
N81 C82 1.345 . S
N81 C84 1.336 . S
C82 N80 1.335 . S
C82 N81 1.345 . S
C82 H87 0.930 . S
C83 N80 1.390 . S
C83 C84 1.346 . S
C83 H88 0.930 1_655 S
C84 N81 1.336 . S
C84 C83 1.346 . S
C84 H91 0.929 . S
C85 O75 1.282 . S
C85 O86 1.216 . S
O86 C85 1.216 . S
H87 C82 0.930 . S
H88 C83 0.930 1_455 S
O89 Cu69 1.941 1_656 S
O89 C76 1.260 . S
H90 C73 0.930 . S
H91 C84 0.929 . S
Cu92 N93 1.999 1_554 S
Cu92 O98 1.974 . S
Cu92 N103 1.985 1_545 S
Cu92 O112 1.959 1_544 S
N93 Cu92 1.999 1_556 S
N93 C95 1.263 . S
N93 C97 1.389 . S
N94 C95 1.358 . S
N94 C96 1.400 . S
C95 N93 1.263 . S
C95 N94 1.358 . S
C95 H101 0.930 . S
C96 N94 1.400 . S
C96 C97 1.351 . S
C96 H113 0.930 . S
C97 N93 1.389 . S
C97 C96 1.351 . S
C97 H102 0.930 . S
O98 Cu92 1.974 . S
O98 C108 1.282 . S
C99 O100 1.261 . S
C99 O112 1.251 . S
O100 C99 1.261 . S
H101 C95 0.930 . S
H102 C97 0.930 . S
N103 Cu92 1.985 1_565 S
N103 C105 1.335 . S
N103 C106 1.390 . S
N104 C105 1.345 . S
N104 C107 1.336 . S
C105 N103 1.335 . S
C105 N104 1.345 . S
C105 H110 0.930 . S
C106 N103 1.390 . S
C106 C107 1.346 . S
C106 H111 0.930 1_565 S
C107 N104 1.336 . S
C107 C106 1.346 . S
C107 H114 0.929 . S
C108 O98 1.282 . S
C108 O109 1.216 . S
O109 C108 1.216 . S
H110 C105 0.930 . S
H111 C106 0.930 1_545 S
O112 Cu92 1.959 1_566 S
O112 C99 1.251 . S
H113 C96 0.930 . S
H114 C107 0.929 . S
Cu115 N116 1.999 1_454 S
Cu115 O121 1.974 1_455 S
Cu115 N126 1.985 . S
Cu115 O135 1.959 1_554 S
N116 Cu115 1.999 1_656 S
N116 C118 1.263 . S
N116 C120 1.389 . S
N117 C118 1.358 . S
N117 C119 1.400 . S
C118 N116 1.263 . S
C118 N117 1.358 . S
C118 H124 0.930 . S
C119 N117 1.400 . S
C119 C120 1.351 . S
C119 H136 0.930 . S
C120 N116 1.389 . S
C120 C119 1.351 . S
C120 H125 0.930 1_655 S
O121 Cu115 1.974 1_655 S
O121 C131 1.282 . S
C122 O123 1.261 . S
C122 O135 1.251 . S
O123 C122 1.261 . S
H124 C118 0.930 . S
H125 C120 0.930 1_455 S
N126 Cu115 1.985 . S
N126 C128 1.335 . S
N126 C129 1.390 . S
N127 C128 1.345 . S
N127 C130 1.336 . S
C128 N126 1.335 . S
C128 N127 1.345 . S
C128 H133 0.930 . S
C129 N126 1.390 . S
C129 C130 1.346 . S
C129 H134 0.930 . S
C130 N127 1.336 . S
C130 C129 1.346 . S
C130 H137 0.929 . S
C131 O121 1.282 . S
C131 O132 1.216 . S
O132 C131 1.216 . S
H133 C128 0.930 . S
H134 C129 0.930 . S
O135 Cu115 1.959 1_556 S
O135 C122 1.251 . S
H136 C119 0.930 . S
H137 C130 0.929 . S
Cu138 N139 1.999 . S
Cu138 O144 1.974 . S
Cu138 N149 1.985 . S
Cu138 O158 1.959 . S
N139 Cu138 1.999 . S
N139 C141 1.263 . S
N139 C143 1.389 . S
N140 C141 1.358 . S
N140 C142 1.400 . S
C141 N139 1.263 . S
C141 N140 1.358 . S
C141 H147 0.930 . S
C142 N140 1.400 . S
C142 C143 1.351 . S
C142 H159 0.930 . S
C143 N139 1.389 . S
C143 C142 1.351 . S
C143 H148 0.930 . S
O144 Cu138 1.974 . S
O144 C154 1.282 . S
C145 O146 1.261 . S
C145 O158 1.251 . S
O146 C145 1.261 . S
H147 C141 0.930 . S
H148 C143 0.930 . S
N149 Cu138 1.985 . S
N149 C151 1.335 . S
N149 C152 1.390 . S
N150 C151 1.345 . S
N150 C153 1.336 . S
C151 N149 1.335 . S
C151 N150 1.345 . S
C151 H156 0.930 . S
C152 N149 1.390 . S
C152 C153 1.346 . S
C152 H157 0.930 . S
C153 N150 1.336 . S
C153 C152 1.346 . S
C153 H160 0.929 . S
C154 O144 1.282 . S
C154 O155 1.216 . S
O155 C154 1.216 . S
H156 C151 0.930 . S
H157 C152 0.930 . S
O158 Cu138 1.959 . S
O158 C145 1.251 . S
H159 C142 0.930 . S
H160 C153 0.929 . S
Cu161 N162 1.999 . S
Cu161 O167 1.974 . S
Cu161 N172 1.985 . S
Cu161 O181 1.959 . S
N162 Cu161 1.999 . S
N162 C164 1.263 . S
N162 C166 1.389 . S
N163 C164 1.358 . S
N163 C165 1.400 . S
C164 N162 1.263 . S
C164 N163 1.358 . S
C164 H170 0.930 . S
C165 N163 1.400 . S
C165 C166 1.351 . S
C165 H182 0.930 . S
C166 N162 1.389 . S
C166 C165 1.351 . S
C166 H171 0.930 . S
O167 Cu161 1.974 . S
O167 C177 1.282 . S
C168 O169 1.261 . S
C168 O181 1.251 . S
O169 C168 1.261 . S
H170 C164 0.930 . S
H171 C166 0.930 . S
N172 Cu161 1.985 . S
N172 C174 1.335 . S
N172 C175 1.390 . S
N173 C174 1.345 . S
N173 C176 1.336 . S
C174 N172 1.335 . S
C174 N173 1.345 . S
C174 H179 0.930 . S
C175 N172 1.390 . S
C175 C176 1.346 . S
C175 H180 0.930 . S
C176 N173 1.336 . S
C176 C175 1.346 . S
C176 H183 0.929 . S
C177 O167 1.282 . S
C177 O178 1.216 . S
O178 C177 1.216 . S
H179 C174 0.930 . S
H180 C175 0.930 . S
O181 Cu161 1.959 . S
O181 C168 1.251 . S
H182 C165 0.930 . S
H183 C176 0.929 . S
Cu184 N185 1.999 . S
Cu184 O190 1.974 . S
Cu184 N195 1.985 . S
Cu184 O204 1.959 . S
N185 Cu184 1.999 . S
N185 C187 1.263 . S
N185 C189 1.389 . S
N186 C187 1.358 . S
N186 C188 1.400 . S
C187 N185 1.263 . S
C187 N186 1.358 . S
C187 H193 0.930 . S
C188 N186 1.400 . S
C188 C189 1.351 . S
C188 H205 0.930 . S
C189 N185 1.389 . S
C189 C188 1.351 . S
C189 H194 0.930 . S
O190 Cu184 1.974 . S
O190 C200 1.282 . S
C191 O192 1.261 . S
C191 O204 1.251 . S
O192 C191 1.261 . S
H193 C187 0.930 . S
H194 C189 0.930 . S
N195 Cu184 1.985 . S
N195 C197 1.335 . S
N195 C198 1.390 . S
N196 C197 1.345 . S
N196 C199 1.336 . S
C197 N195 1.335 . S
C197 N196 1.345 . S
C197 H202 0.930 . S
C198 N195 1.390 . S
C198 C199 1.346 . S
C198 H203 0.930 . S
C199 N196 1.336 . S
C199 C198 1.346 . S
C199 H206 0.929 . S
C200 O190 1.282 . S
C200 O201 1.216 . S
O201 C200 1.216 . S
H202 C197 0.930 . S
H203 C198 0.930 . S
O204 Cu184 1.959 . S
O204 C191 1.251 . S
H205 C188 0.930 . S
H206 C199 0.929 . S
Cu207 N208 1.999 . S
Cu207 O213 1.974 . S
Cu207 N218 1.985 . S
Cu207 O227 1.959 . S
N208 Cu207 1.999 . S
N208 C210 1.263 . S
N208 C212 1.389 . S
N209 C210 1.358 . S
N209 C211 1.400 . S
C210 N208 1.263 . S
C210 N209 1.358 . S
C210 H216 0.930 . S
C211 N209 1.400 . S
C211 C212 1.351 . S
C211 H228 0.930 . S
C212 N208 1.389 . S
C212 C211 1.351 . S
C212 H217 0.930 . S
O213 Cu207 1.974 . S
O213 C223 1.282 . S
C214 O215 1.261 . S
C214 O227 1.251 . S
O215 C214 1.261 . S
H216 C210 0.930 . S
H217 C212 0.930 . S
N218 Cu207 1.985 . S
N218 C220 1.335 . S
N218 C221 1.390 . S
N219 C220 1.345 . S
N219 C222 1.336 . S
C220 N218 1.335 . S
C220 N219 1.345 . S
C220 H225 0.930 . S
C221 N218 1.390 . S
C221 C222 1.346 . S
C221 H226 0.930 . S
C222 N219 1.336 . S
C222 C221 1.346 . S
C222 H229 0.929 . S
C223 O213 1.282 . S
C223 O224 1.216 . S
O224 C223 1.216 . S
H225 C220 0.930 . S
H226 C221 0.930 . S
O227 Cu207 1.959 . S
O227 C214 1.251 . S
H228 C211 0.930 . S
H229 C222 0.929 . S
Cu230 N231 1.999 . S
Cu230 O236 1.974 . S
Cu230 N241 1.985 . S
Cu230 O250 1.959 . S
N231 Cu230 1.999 . S
N231 C233 1.263 . S
N231 C235 1.389 . S
N232 C233 1.358 . S
N232 C234 1.400 . S
C233 N231 1.263 . S
C233 N232 1.358 . S
C233 H239 0.930 . S
C234 N232 1.400 . S
C234 C235 1.351 . S
C234 H251 0.930 . S
C235 N231 1.389 . S
C235 C234 1.351 . S
C235 H240 0.930 . S
O236 Cu230 1.974 . S
O236 C246 1.282 . S
C237 O238 1.261 . S
C237 O250 1.251 . S
O238 C237 1.261 . S
H239 C233 0.930 . S
H240 C235 0.930 . S
N241 Cu230 1.985 . S
N241 C243 1.335 . S
N241 C244 1.390 . S
N242 C243 1.345 . S
N242 C245 1.336 . S
C243 N241 1.335 . S
C243 N242 1.345 . S
C243 H248 0.930 . S
C244 N241 1.390 . S
C244 C245 1.346 . S
C244 H249 0.930 . S
C245 N242 1.336 . S
C245 C244 1.346 . S
C245 H252 0.929 . S
C246 O236 1.282 . S
C246 O247 1.216 . S
O247 C246 1.216 . S
H248 C243 0.930 . S
H249 C244 0.930 . S
O250 Cu230 1.959 . S
O250 C237 1.251 . S
H251 C234 0.930 . S
H252 C245 0.929 . S
Cu253 N254 1.999 . S
Cu253 O259 1.974 . S
Cu253 N264 1.985 . S
Cu253 O273 1.959 . S
N254 Cu253 1.999 . S
N254 C256 1.263 . S
N254 C258 1.389 . S
N255 C256 1.358 . S
N255 C257 1.400 . S
C256 N254 1.263 . S
C256 N255 1.358 . S
C256 H262 0.930 . S
C257 N255 1.400 . S
C257 C258 1.351 . S
C257 H274 0.930 . S
C258 N254 1.389 . S
C258 C257 1.351 . S
C258 H263 0.930 . S
O259 Cu253 1.974 . S
O259 C269 1.282 . S
C260 O261 1.261 . S
C260 O273 1.251 . S
O261 C260 1.261 . S
H262 C256 0.930 . S
H263 C258 0.930 . S
N264 Cu253 1.985 . S
N264 C266 1.335 . S
N264 C267 1.390 . S
N265 C266 1.345 . S
N265 C268 1.336 . S
C266 N264 1.335 . S
C266 N265 1.345 . S
C266 H271 0.930 . S
C267 N264 1.390 . S
C267 C268 1.346 . S
C267 H272 0.930 . S
C268 N265 1.336 . S
C268 C267 1.346 . S
C268 H275 0.929 . S
C269 O259 1.282 . S
C269 O270 1.216 . S
O270 C269 1.216 . S
H271 C266 0.930 . S
H272 C267 0.930 . S
O273 Cu253 1.959 . S
O273 C260 1.251 . S
H274 C257 0.930 . S
H275 C268 0.929 . S
Dy276 O280 2.398 . S
Dy276 O281 2.491 . S
Dy276 O282 2.403 . S
Dy276 O283 2.664 . S
Dy276 O287 2.326 . S
Dy276 O291 2.310 . S
Dy276 O292 2.351 . S
C277 O288 1.185 . S
C277 O289 1.355 . S
C278 O280 1.185 . S
C278 O281 1.355 . S
Dy279 O283 2.310 . S
Dy279 O286 2.351 . S
Dy279 O288 2.398 . S
Dy279 O289 2.491 . S
Dy279 O290 2.403 . S
Dy279 O291 2.664 . S
Dy279 O293 2.326 . S
O280 Dy276 2.398 . S
O280 C278 1.185 . S
O281 Dy276 2.491 . S
O281 C278 1.355 . S
O282 Dy276 2.403 . S
O282 C284 1.254 . S
O283 Dy276 2.664 . S
O283 Dy279 2.310 . S
O283 C284 1.268 . S
C284 O282 1.254 . S
C284 O283 1.268 . S
C285 O290 1.254 . S
C285 O291 1.268 . S
O286 Dy279 2.351 . S
O286 C294 1.249 . S
O287 Dy276 2.326 . S
O287 C294 1.267 . S
O288 C277 1.185 . S
O288 Dy279 2.398 . S
O289 C277 1.355 . S
O289 Dy279 2.491 . S
O290 Dy279 2.403 . S
O290 C285 1.254 . S
O291 Dy276 2.310 . S
O291 Dy279 2.664 . S
O291 C285 1.268 . S
O292 Dy276 2.351 . S
O292 C295 1.249 . S
O293 Dy279 2.326 . S
O293 C295 1.267 . S
C294 O286 1.249 . S
C294 O287 1.267 . S
C295 O292 1.249 . S
C295 O293 1.267 . S
Dy296 O300 2.398 . S
Dy296 O301 2.491 . S
Dy296 O302 2.403 . S
Dy296 O303 2.664 . S
Dy296 O307 2.326 . S
Dy296 O311 2.310 . S
Dy296 O312 2.351 . S
C297 O308 1.185 . S
C297 O309 1.355 . S
C298 O300 1.185 . S
C298 O301 1.355 . S
Dy299 O303 2.310 . S
Dy299 O306 2.351 . S
Dy299 O308 2.398 . S
Dy299 O309 2.491 . S
Dy299 O310 2.403 . S
Dy299 O311 2.664 . S
Dy299 O313 2.326 . S
O300 Dy296 2.398 . S
O300 C298 1.185 . S
O301 Dy296 2.491 . S
O301 C298 1.355 . S
O302 Dy296 2.403 . S
O302 C304 1.254 . S
O303 Dy296 2.664 . S
O303 Dy299 2.310 . S
O303 C304 1.268 . S
C304 O302 1.254 . S
C304 O303 1.268 . S
C305 O310 1.254 . S
C305 O311 1.268 . S
O306 Dy299 2.351 . S
O306 C314 1.249 . S
O307 Dy296 2.326 . S
O307 C314 1.267 . S
O308 C297 1.185 . S
O308 Dy299 2.398 . S
O309 C297 1.355 . S
O309 Dy299 2.491 . S
O310 Dy299 2.403 . S
O310 C305 1.254 . S
O311 Dy296 2.310 . S
O311 Dy299 2.664 . S
O311 C305 1.268 . S
O312 Dy296 2.351 . S
O312 C315 1.249 . S
O313 Dy299 2.326 . S
O313 C315 1.267 . S
C314 O306 1.249 . S
C314 O307 1.267 . S
C315 O312 1.249 . S
C315 O313 1.267 . S
Dy316 O320 2.398 . S
Dy316 O321 2.491 . S
Dy316 O322 2.403 . S
Dy316 O323 2.664 . S
Dy316 O327 2.326 . S
Dy316 O331 2.310 . S
Dy316 O332 2.351 . S
C317 O328 1.185 . S
C317 O329 1.355 . S
C318 O320 1.185 . S
C318 O321 1.355 . S
Dy319 O323 2.310 . S
Dy319 O326 2.351 . S
Dy319 O328 2.398 . S
Dy319 O329 2.491 . S
Dy319 O330 2.403 . S
Dy319 O331 2.664 . S
Dy319 O333 2.326 . S
O320 Dy316 2.398 . S
O320 C318 1.185 . S
O321 Dy316 2.491 . S
O321 C318 1.355 . S
O322 Dy316 2.403 . S
O322 C324 1.254 . S
O323 Dy316 2.664 . S
O323 Dy319 2.310 . S
O323 C324 1.268 . S
C324 O322 1.254 . S
C324 O323 1.268 . S
C325 O330 1.254 . S
C325 O331 1.268 . S
O326 Dy319 2.351 . S
O326 C334 1.249 . S
O327 Dy316 2.326 . S
O327 C334 1.267 . S
O328 C317 1.185 . S
O328 Dy319 2.398 . S
O329 C317 1.355 . S
O329 Dy319 2.491 . S
O330 Dy319 2.403 . S
O330 C325 1.254 . S
O331 Dy316 2.310 . S
O331 Dy319 2.664 . S
O331 C325 1.268 . S
O332 Dy316 2.351 . S
O332 C335 1.249 . S
O333 Dy319 2.326 . S
O333 C335 1.267 . S
C334 O326 1.249 . S
C334 O327 1.267 . S
C335 O332 1.249 . S
C335 O333 1.267 . S
Dy336 O340 2.398 . S
Dy336 O341 2.491 . S
Dy336 O342 2.403 . S
Dy336 O343 2.664 . S
Dy336 O347 2.326 . S
Dy336 O351 2.310 . S
Dy336 O352 2.351 . S
C337 O348 1.185 . S
C337 O349 1.355 . S
C338 O340 1.185 . S
C338 O341 1.355 . S
Dy339 O343 2.310 . S
Dy339 O346 2.351 . S
Dy339 O348 2.398 . S
Dy339 O349 2.491 . S
Dy339 O350 2.403 . S
Dy339 O351 2.664 . S
Dy339 O353 2.326 . S
O340 Dy336 2.398 . S
O340 C338 1.185 . S
O341 Dy336 2.491 . S
O341 C338 1.355 . S
O342 Dy336 2.403 . S
O342 C344 1.254 . S
O343 Dy336 2.664 . S
O343 Dy339 2.310 . S
O343 C344 1.268 . S
C344 O342 1.254 . S
C344 O343 1.268 . S
C345 O350 1.254 . S
C345 O351 1.268 . S
O346 Dy339 2.351 . S
O346 C354 1.249 . S
O347 Dy336 2.326 . S
O347 C354 1.267 . S
O348 C337 1.185 . S
O348 Dy339 2.398 . S
O349 C337 1.355 . S
O349 Dy339 2.491 . S
O350 Dy339 2.403 . S
O350 C345 1.254 . S
O351 Dy336 2.310 . S
O351 Dy339 2.664 . S
O351 C345 1.268 . S
O352 Dy336 2.351 . S
O352 C355 1.249 . S
O353 Dy339 2.326 . S
O353 C355 1.267 . S
C354 O346 1.249 . S
C354 O347 1.267 . S
C355 O352 1.249 . S
C355 O353 1.267 . S
Dy356 O360 2.398 . S
Dy356 O361 2.491 . S
Dy356 O362 2.403 . S
Dy356 O363 2.664 . S
Dy356 O367 2.326 . S
Dy356 O371 2.310 . S
Dy356 O372 2.351 . S
C357 O368 1.185 . S
C357 O369 1.355 . S
C358 O360 1.185 . S
C358 O361 1.355 . S
Dy359 O363 2.310 . S
Dy359 O366 2.351 . S
Dy359 O368 2.398 . S
Dy359 O369 2.491 . S
Dy359 O370 2.403 . S
Dy359 O371 2.664 . S
Dy359 O373 2.326 . S
O360 Dy356 2.398 . S
O360 C358 1.185 . S
O361 Dy356 2.491 . S
O361 C358 1.355 . S
O362 Dy356 2.403 . S
O362 C364 1.254 . S
O363 Dy356 2.664 . S
O363 Dy359 2.310 . S
O363 C364 1.268 . S
C364 O362 1.254 . S
C364 O363 1.268 . S
C365 O370 1.254 . S
C365 O371 1.268 . S
O366 Dy359 2.351 . S
O366 C374 1.249 . S
O367 Dy356 2.326 . S
O367 C374 1.267 . S
O368 C357 1.185 . S
O368 Dy359 2.398 . S
O369 C357 1.355 . S
O369 Dy359 2.491 . S
O370 Dy359 2.403 . S
O370 C365 1.254 . S
O371 Dy356 2.310 . S
O371 Dy359 2.664 . S
O371 C365 1.268 . S
O372 Dy356 2.351 . S
O372 C375 1.249 . S
O373 Dy359 2.326 . S
O373 C375 1.267 . S
C374 O366 1.249 . S
C374 O367 1.267 . S
C375 O372 1.249 . S
C375 O373 1.267 . S
Dy376 O380 2.398 . S
Dy376 O381 2.491 . S
Dy376 O382 2.403 . S
Dy376 O383 2.664 . S
Dy376 O387 2.326 . S
Dy376 O391 2.310 . S
Dy376 O392 2.351 . S
C377 O388 1.185 . S
C377 O389 1.355 . S
C378 O380 1.185 . S
C378 O381 1.355 . S
Dy379 O383 2.310 . S
Dy379 O386 2.351 . S
Dy379 O388 2.398 . S
Dy379 O389 2.491 . S
Dy379 O390 2.403 . S
Dy379 O391 2.664 . S
Dy379 O393 2.326 . S
O380 Dy376 2.398 . S
O380 C378 1.185 . S
O381 Dy376 2.491 . S
O381 C378 1.355 . S
O382 Dy376 2.403 . S
O382 C384 1.254 . S
O383 Dy376 2.664 . S
O383 Dy379 2.310 . S
O383 C384 1.268 . S
C384 O382 1.254 . S
C384 O383 1.268 . S
C385 O390 1.254 . S
C385 O391 1.268 . S
O386 Dy379 2.351 . S
O386 C394 1.249 . S
O387 Dy376 2.326 . S
O387 C394 1.267 . S
O388 C377 1.185 . S
O388 Dy379 2.398 . S
O389 C377 1.355 . S
O389 Dy379 2.491 . S
O390 Dy379 2.403 . S
O390 C385 1.254 . S
O391 Dy376 2.310 . S
O391 Dy379 2.664 . S
O391 C385 1.268 . S
O392 Dy376 2.351 . S
O392 C395 1.249 . S
O393 Dy379 2.326 . S
O393 C395 1.267 . S
C394 O386 1.249 . S
C394 O387 1.267 . S
C395 O392 1.249 . S
C395 O393 1.267 . S
Dy396 O400 2.398 . S
Dy396 O401 2.491 . S
Dy396 O402 2.403 . S
Dy396 O403 2.664 . S
Dy396 O407 2.326 . S
Dy396 O411 2.310 . S
Dy396 O412 2.351 . S
C397 O408 1.185 . S
C397 O409 1.355 . S
C398 O400 1.185 . S
C398 O401 1.355 . S
Dy399 O403 2.310 . S
Dy399 O406 2.351 . S
Dy399 O408 2.398 . S
Dy399 O409 2.491 . S
Dy399 O410 2.403 . S
Dy399 O411 2.664 . S
Dy399 O413 2.326 . S
O400 Dy396 2.398 . S
O400 C398 1.185 . S
O401 Dy396 2.491 . S
O401 C398 1.355 . S
O402 Dy396 2.403 . S
O402 C404 1.254 . S
O403 Dy396 2.664 . S
O403 Dy399 2.310 . S
O403 C404 1.268 . S
C404 O402 1.254 . S
C404 O403 1.268 . S
C405 O410 1.254 . S
C405 O411 1.268 . S
O406 Dy399 2.351 . S
O406 C414 1.249 . S
O407 Dy396 2.326 . S
O407 C414 1.267 . S
O408 C397 1.185 . S
O408 Dy399 2.398 . S
O409 C397 1.355 . S
O409 Dy399 2.491 . S
O410 Dy399 2.403 . S
O410 C405 1.254 . S
O411 Dy396 2.310 . S
O411 Dy399 2.664 . S
O411 C405 1.268 . S
O412 Dy396 2.351 . S
O412 C415 1.249 . S
O413 Dy399 2.326 . S
O413 C415 1.267 . S
C414 O406 1.249 . S
C414 O407 1.267 . S
C415 O412 1.249 . S
C415 O413 1.267 . S
Dy416 O420 2.398 . S
Dy416 O421 2.491 . S
Dy416 O422 2.403 . S
Dy416 O423 2.664 . S
Dy416 O427 2.326 . S
Dy416 O431 2.310 . S
Dy416 O432 2.351 . S
C417 O428 1.185 . S
C417 O429 1.355 . S
C418 O420 1.185 . S
C418 O421 1.355 . S
Dy419 O423 2.310 . S
Dy419 O426 2.351 . S
Dy419 O428 2.398 . S
Dy419 O429 2.491 . S
Dy419 O430 2.403 . S
Dy419 O431 2.664 . S
Dy419 O433 2.326 . S
O420 Dy416 2.398 . S
O420 C418 1.185 . S
O421 Dy416 2.491 . S
O421 C418 1.355 . S
O422 Dy416 2.403 . S
O422 C424 1.254 . S
O423 Dy416 2.664 . S
O423 Dy419 2.310 . S
O423 C424 1.268 . S
C424 O422 1.254 . S
C424 O423 1.268 . S
C425 O430 1.254 . S
C425 O431 1.268 . S
O426 Dy419 2.351 . S
O426 C434 1.249 . S
O427 Dy416 2.326 . S
O427 C434 1.267 . S
O428 C417 1.185 . S
O428 Dy419 2.398 . S
O429 C417 1.355 . S
O429 Dy419 2.491 . S
O430 Dy419 2.403 . S
O430 C425 1.254 . S
O431 Dy416 2.310 . S
O431 Dy419 2.664 . S
O431 C425 1.268 . S
O432 Dy416 2.351 . S
O432 C435 1.249 . S
O433 Dy419 2.326 . S
O433 C435 1.267 . S
C434 O426 1.249 . S
C434 O427 1.267 . S
C435 O432 1.249 . S
C435 O433 1.267 . S
H436 C442 0.930 . S
H437 C446 0.930 . S
H438 C451 0.929 . S
H439 C449 0.929 . S
H440 C444 0.929 . S
H441 C450 0.929 . S
C442 H436 0.930 . S
C442 C443 1.367 . S
C442 C450 1.378 . S
C443 C442 1.367 . S
C443 C451 1.433 . S
C444 H440 0.929 . S
C444 C446 1.378 . S
C444 C448 1.350 . S
C445 C448 1.463 . S
C445 C450 1.350 . S
C445 N453 1.427 . S
C446 H437 0.930 . S
C446 C444 1.378 . S
C446 C447 1.367 . S
C447 C446 1.367 . S
C447 C449 1.433 . S
C448 C444 1.350 . S
C448 C445 1.463 . S
C448 N452 1.427 . S
C449 H439 0.929 . S
C449 C447 1.433 . S
C449 N452 1.384 . S
C450 H441 0.929 . S
C450 C442 1.378 . S
C450 C445 1.350 . S
C451 H438 0.929 . S
C451 C443 1.433 . S
C451 N453 1.384 . S
N452 C448 1.427 . S
N452 C449 1.384 . S
N453 C445 1.427 . S
N453 C451 1.384 . S
H454 C460 0.930 . S
H455 C464 0.930 . S
H456 C469 0.929 . S
H457 C467 0.929 . S
H458 C462 0.929 . S
H459 C468 0.929 . S
C460 H454 0.930 . S
C460 C461 1.367 . S
C460 C468 1.378 . S
C461 C460 1.367 . S
C461 C469 1.433 . S
C462 H458 0.929 . S
C462 C464 1.378 . S
C462 C466 1.350 . S
C463 C466 1.463 . S
C463 C468 1.350 . S
C463 N471 1.427 . S
C464 H455 0.930 . S
C464 C462 1.378 . S
C464 C465 1.367 . S
C465 C464 1.367 . S
C465 C467 1.433 . S
C466 C462 1.350 . S
C466 C463 1.463 . S
C466 N470 1.427 . S
C467 H457 0.929 . S
C467 C465 1.433 . S
C467 N470 1.384 . S
C468 H459 0.929 . S
C468 C460 1.378 . S
C468 C463 1.350 . S
C469 H456 0.929 . S
C469 C461 1.433 . S
C469 N471 1.384 . S
N470 C466 1.427 . S
N470 C467 1.384 . S
N471 C463 1.427 . S
N471 C469 1.384 . S
H472 C478 0.930 . S
H473 C482 0.930 . S
H474 C487 0.929 . S
H475 C485 0.929 . S
H476 C480 0.929 . S
H477 C486 0.929 . S
C478 H472 0.930 . S
C478 C479 1.367 . S
C478 C486 1.378 . S
C479 C478 1.367 . S
C479 C487 1.433 . S
C480 H476 0.929 . S
C480 C482 1.378 . S
C480 C484 1.350 . S
C481 C484 1.463 . S
C481 C486 1.350 . S
C481 N489 1.427 . S
C482 H473 0.930 . S
C482 C480 1.378 . S
C482 C483 1.367 . S
C483 C482 1.367 . S
C483 C485 1.433 . S
C484 C480 1.350 . S
C484 C481 1.463 . S
C484 N488 1.427 . S
C485 H475 0.929 . S
C485 C483 1.433 . S
C485 N488 1.384 . S
C486 H477 0.929 . S
C486 C478 1.378 . S
C486 C481 1.350 . S
C487 H474 0.929 . S
C487 C479 1.433 . S
C487 N489 1.384 . S
N488 C484 1.427 . S
N488 C485 1.384 . S
N489 C481 1.427 . S
N489 C487 1.384 . S
H490 C496 0.930 . S
H491 C500 0.930 . S
H492 C505 0.929 . S
H493 C503 0.929 . S
H494 C498 0.929 . S
H495 C504 0.929 . S
C496 H490 0.930 . S
C496 C497 1.367 . S
C496 C504 1.378 . S
C497 C496 1.367 . S
C497 C505 1.433 . S
C498 H494 0.929 . S
C498 C500 1.378 . S
C498 C502 1.350 . S
C499 C502 1.463 . S
C499 C504 1.350 . S
C499 N507 1.427 . S
C500 H491 0.930 . S
C500 C498 1.378 . S
C500 C501 1.367 . S
C501 C500 1.367 . S
C501 C503 1.433 . S
C502 C498 1.350 . S
C502 C499 1.463 . S
C502 N506 1.427 . S
C503 H493 0.929 . S
C503 C501 1.433 . S
C503 N506 1.384 . S
C504 H495 0.929 . S
C504 C496 1.378 . S
C504 C499 1.350 . S
C505 H492 0.929 . S
C505 C497 1.433 . S
C505 N507 1.384 . S
N506 C502 1.427 . S
N506 C503 1.384 . S
N507 C499 1.427 . S
N507 C505 1.384 . S
H508 C514 0.930 . S
H509 C518 0.930 . S
H510 C523 0.929 . S
H511 C521 0.929 . S
H512 C516 0.929 . S
H513 C522 0.929 . S
C514 H508 0.930 . S
C514 C515 1.367 . S
C514 C522 1.378 . S
C515 C514 1.367 . S
C515 C523 1.433 . S
C516 H512 0.929 . S
C516 C518 1.378 . S
C516 C520 1.350 . S
C517 C520 1.463 . S
C517 C522 1.350 . S
C517 N525 1.427 . S
C518 H509 0.930 . S
C518 C516 1.378 . S
C518 C519 1.367 . S
C519 C518 1.367 . S
C519 C521 1.433 . S
C520 C516 1.350 . S
C520 C517 1.463 . S
C520 N524 1.427 . S
C521 H511 0.929 . S
C521 C519 1.433 . S
C521 N524 1.384 . S
C522 H513 0.929 . S
C522 C514 1.378 . S
C522 C517 1.350 . S
C523 H510 0.929 . S
C523 C515 1.433 . S
C523 N525 1.384 . S
N524 C520 1.427 . S
N524 C521 1.384 . S
N525 C517 1.427 . S
N525 C523 1.384 . S
H526 C532 0.930 . S
H527 C536 0.930 . S
H528 C541 0.929 . S
H529 C539 0.929 . S
H530 C534 0.929 . S
H531 C540 0.929 . S
C532 H526 0.930 . S
C532 C533 1.367 . S
C532 C540 1.378 . S
C533 C532 1.367 . S
C533 C541 1.433 . S
C534 H530 0.929 . S
C534 C536 1.378 . S
C534 C538 1.350 . S
C535 C538 1.463 . S
C535 C540 1.350 . S
C535 N543 1.427 . S
C536 H527 0.930 . S
C536 C534 1.378 . S
C536 C537 1.367 . S
C537 C536 1.367 . S
C537 C539 1.433 . S
C538 C534 1.350 . S
C538 C535 1.463 . S
C538 N542 1.427 . S
C539 H529 0.929 . S
C539 C537 1.433 . S
C539 N542 1.384 . S
C540 H531 0.929 . S
C540 C532 1.378 . S
C540 C535 1.350 . S
C541 H528 0.929 . S
C541 C533 1.433 . S
C541 N543 1.384 . S
N542 C538 1.427 . S
N542 C539 1.384 . S
N543 C535 1.427 . S
N543 C541 1.384 . S
H544 C550 0.930 . S
H545 C554 0.930 . S
H546 C559 0.929 . S
H547 C557 0.929 . S
H548 C552 0.929 . S
H549 C558 0.929 . S
C550 H544 0.930 . S
C550 C551 1.367 . S
C550 C558 1.378 . S
C551 C550 1.367 . S
C551 C559 1.433 . S
C552 H548 0.929 . S
C552 C554 1.378 . S
C552 C556 1.350 . S
C553 C556 1.463 . S
C553 C558 1.350 . S
C553 N561 1.427 . S
C554 H545 0.930 . S
C554 C552 1.378 . S
C554 C555 1.367 . S
C555 C554 1.367 . S
C555 C557 1.433 . S
C556 C552 1.350 . S
C556 C553 1.463 . S
C556 N560 1.427 . S
C557 H547 0.929 . S
C557 C555 1.433 . S
C557 N560 1.384 . S
C558 H549 0.929 . S
C558 C550 1.378 . S
C558 C553 1.350 . S
C559 H546 0.929 . S
C559 C551 1.433 . S
C559 N561 1.384 . S
N560 C556 1.427 . S
N560 C557 1.384 . S
N561 C553 1.427 . S
N561 C559 1.384 . S
H562 C568 0.930 . S
H563 C572 0.930 . S
H564 C577 0.929 . S
H565 C575 0.929 . S
H566 C570 0.929 . S
H567 C576 0.929 . S
C568 H562 0.930 . S
C568 C569 1.367 . S
C568 C576 1.378 . S
C569 C568 1.367 . S
C569 C577 1.433 . S
C570 H566 0.929 . S
C570 C572 1.378 . S
C570 C574 1.350 . S
C571 C574 1.463 . S
C571 C576 1.350 . S
C571 N579 1.427 . S
C572 H563 0.930 . S
C572 C570 1.378 . S
C572 C573 1.367 . S
C573 C572 1.367 . S
C573 C575 1.433 . S
C574 C570 1.350 . S
C574 C571 1.463 . S
C574 N578 1.427 . S
C575 H565 0.929 . S
C575 C573 1.433 . S
C575 N578 1.384 . S
C576 H567 0.929 . S
C576 C568 1.378 . S
C576 C571 1.350 . S
C577 H564 0.929 . S
C577 C569 1.433 . S
C577 N579 1.384 . S
N578 C574 1.427 . S
N578 C575 1.384 . S
N579 C571 1.427 . S
N579 C577 1.384 . S
H580 C586 0.930 . S
H581 C590 0.930 . S
H582 C595 0.929 . S
H583 C593 0.929 . S
H584 C588 0.929 . S
H585 C594 0.929 . S
C586 H580 0.930 . S
C586 C587 1.367 . S
C586 C594 1.378 . S
C587 C586 1.367 . S
C587 C595 1.433 . S
C588 H584 0.929 . S
C588 C590 1.378 . S
C588 C592 1.350 . S
C589 C592 1.463 . S
C589 C594 1.350 . S
C589 N597 1.427 . S
C590 H581 0.930 . S
C590 C588 1.378 . S
C590 C591 1.367 . S
C591 C590 1.367 . S
C591 C593 1.433 . S
C592 C588 1.350 . S
C592 C589 1.463 . S
C592 N596 1.427 . S
C593 H583 0.929 . S
C593 C591 1.433 . S
C593 N596 1.384 . S
C594 H585 0.929 . S
C594 C586 1.378 . S
C594 C589 1.350 . S
C595 H582 0.929 . S
C595 C587 1.433 . S
C595 N597 1.384 . S
N596 C592 1.427 . S
N596 C593 1.384 . S
N597 C589 1.427 . S
N597 C595 1.384 . S
H598 C604 0.930 . S
H599 C608 0.930 . S
H600 C613 0.929 . S
H601 C611 0.929 . S
H602 C606 0.929 . S
H603 C612 0.929 . S
C604 H598 0.930 . S
C604 C605 1.367 . S
C604 C612 1.378 . S
C605 C604 1.367 . S
C605 C613 1.433 . S
C606 H602 0.929 . S
C606 C608 1.378 . S
C606 C610 1.350 . S
C607 C610 1.463 . S
C607 C612 1.350 . S
C607 N615 1.427 . S
C608 H599 0.930 . S
C608 C606 1.378 . S
C608 C609 1.367 . S
C609 C608 1.367 . S
C609 C611 1.433 . S
C610 C606 1.350 . S
C610 C607 1.463 . S
C610 N614 1.427 . S
C611 H601 0.929 . S
C611 C609 1.433 . S
C611 N614 1.384 . S
C612 H603 0.929 . S
C612 C604 1.378 . S
C612 C607 1.350 . S
C613 H600 0.929 . S
C613 C605 1.433 . S
C613 N615 1.384 . S
N614 C610 1.427 . S
N614 C611 1.384 . S
N615 C607 1.427 . S
N615 C613 1.384 . S
H616 C622 0.930 . S
H617 C626 0.930 . S
H618 C631 0.929 . S
H619 C629 0.929 . S
H620 C624 0.929 . S
H621 C630 0.929 . S
C622 H616 0.930 . S
C622 C623 1.367 . S
C622 C630 1.378 . S
C623 C622 1.367 . S
C623 C631 1.433 . S
C624 H620 0.929 . S
C624 C626 1.378 . S
C624 C628 1.350 . S
C625 C628 1.463 . S
C625 C630 1.350 . S
C625 N633 1.427 . S
C626 H617 0.930 . S
C626 C624 1.378 . S
C626 C627 1.367 . S
C627 C626 1.367 . S
C627 C629 1.433 . S
C628 C624 1.350 . S
C628 C625 1.463 . S
C628 N632 1.427 . S
C629 H619 0.929 . S
C629 C627 1.433 . S
C629 N632 1.384 . S
C630 H621 0.929 . S
C630 C622 1.378 . S
C630 C625 1.350 . S
C631 H618 0.929 . S
C631 C623 1.433 . S
C631 N633 1.384 . S
N632 C628 1.427 . S
N632 C629 1.384 . S
N633 C625 1.427 . S
N633 C631 1.384 . S
H634 C640 0.930 . S
H635 C644 0.930 . S
H636 C649 0.929 . S
H637 C647 0.929 . S
H638 C642 0.929 . S
H639 C648 0.929 . S
C640 H634 0.930 . S
C640 C641 1.367 . S
C640 C648 1.378 . S
C641 C640 1.367 . S
C641 C649 1.433 . S
C642 H638 0.929 . S
C642 C644 1.378 . S
C642 C646 1.350 . S
C643 C646 1.463 . S
C643 C648 1.350 . S
C643 N651 1.427 . S
C644 H635 0.930 . S
C644 C642 1.378 . S
C644 C645 1.367 . S
C645 C644 1.367 . S
C645 C647 1.433 . S
C646 C642 1.350 . S
C646 C643 1.463 . S
C646 N650 1.427 . S
C647 H637 0.929 . S
C647 C645 1.433 . S
C647 N650 1.384 . S
C648 H639 0.929 . S
C648 C640 1.378 . S
C648 C643 1.350 . S
C649 H636 0.929 . S
C649 C641 1.433 . S
C649 N651 1.384 . S
N650 C646 1.427 . S
N650 C647 1.384 . S
N651 C643 1.427 . S
N651 C649 1.384 . S
H652 C658 0.930 . S
H653 C662 0.930 . S
H654 C667 0.929 . S
H655 C665 0.929 . S
H656 C660 0.929 . S
H657 C666 0.929 . S
C658 H652 0.930 . S
C658 C659 1.367 . S
C658 C666 1.378 . S
C659 C658 1.367 . S
C659 C667 1.433 . S
C660 H656 0.929 . S
C660 C662 1.378 . S
C660 C664 1.350 . S
C661 C664 1.463 . S
C661 C666 1.350 . S
C661 N669 1.427 . S
C662 H653 0.930 . S
C662 C660 1.378 . S
C662 C663 1.367 . S
C663 C662 1.367 . S
C663 C665 1.433 . S
C664 C660 1.350 . S
C664 C661 1.463 . S
C664 N668 1.427 . S
C665 H655 0.929 . S
C665 C663 1.433 . S
C665 N668 1.384 . S
C666 H657 0.929 . S
C666 C658 1.378 . S
C666 C661 1.350 . S
C667 H654 0.929 . S
C667 C659 1.433 . S
C667 N669 1.384 . S
N668 C664 1.427 . S
N668 C665 1.384 . S
N669 C661 1.427 . S
N669 C667 1.384 . S
H670 C676 0.930 . S
H671 C680 0.930 . S
H672 C685 0.929 . S
H673 C683 0.929 . S
H674 C678 0.929 . S
H675 C684 0.929 . S
C676 H670 0.930 . S
C676 C677 1.367 . S
C676 C684 1.378 . S
C677 C676 1.367 . S
C677 C685 1.433 . S
C678 H674 0.929 . S
C678 C680 1.378 . S
C678 C682 1.350 . S
C679 C682 1.463 . S
C679 C684 1.350 . S
C679 N687 1.427 . S
C680 H671 0.930 . S
C680 C678 1.378 . S
C680 C681 1.367 . S
C681 C680 1.367 . S
C681 C683 1.433 . S
C682 C678 1.350 . S
C682 C679 1.463 . S
C682 N686 1.427 . S
C683 H673 0.929 . S
C683 C681 1.433 . S
C683 N686 1.384 . S
C684 H675 0.929 . S
C684 C676 1.378 . S
C684 C679 1.350 . S
C685 H672 0.929 . S
C685 C677 1.433 . S
C685 N687 1.384 . S
N686 C682 1.427 . S
N686 C683 1.384 . S
N687 C679 1.427 . S
N687 C685 1.384 . S
H688 C694 0.930 . S
H689 C698 0.930 . S
H690 C703 0.929 . S
H691 C701 0.929 . S
H692 C696 0.929 . S
H693 C702 0.929 . S
C694 H688 0.930 . S
C694 C695 1.367 . S
C694 C702 1.378 . S
C695 C694 1.367 . S
C695 C703 1.433 . S
C696 H692 0.929 . S
C696 C698 1.378 . S
C696 C700 1.350 . S
C697 C700 1.463 . S
C697 C702 1.350 . S
C697 N705 1.427 . S
C698 H689 0.930 . S
C698 C696 1.378 . S
C698 C699 1.367 . S
C699 C698 1.367 . S
C699 C701 1.433 . S
C700 C696 1.350 . S
C700 C697 1.463 . S
C700 N704 1.427 . S
C701 H691 0.929 . S
C701 C699 1.433 . S
C701 N704 1.384 . S
C702 H693 0.929 . S
C702 C694 1.378 . S
C702 C697 1.350 . S
C703 H690 0.929 . S
C703 C695 1.433 . S
C703 N705 1.384 . S
N704 C700 1.427 . S
N704 C701 1.384 . S
N705 C697 1.427 . S
N705 C703 1.384 . S
H706 C712 0.930 . S
H707 C716 0.930 . S
H708 C721 0.929 . S
H709 C719 0.929 . S
H710 C714 0.929 . S
H711 C720 0.929 . S
C712 H706 0.930 . S
C712 C713 1.367 . S
C712 C720 1.378 . S
C713 C712 1.367 . S
C713 C721 1.433 . S
C714 H710 0.929 . S
C714 C716 1.378 . S
C714 C718 1.350 . S
C715 C718 1.463 . S
C715 C720 1.350 . S
C715 N723 1.427 . S
C716 H707 0.930 . S
C716 C714 1.378 . S
C716 C717 1.367 . S
C717 C716 1.367 . S
C717 C719 1.433 . S
C718 C714 1.350 . S
C718 C715 1.463 . S
C718 N722 1.427 . S
C719 H709 0.929 . S
C719 C717 1.433 . S
C719 N722 1.384 . S
C720 H711 0.929 . S
C720 C712 1.378 . S
C720 C715 1.350 . S
C721 H708 0.929 . S
C721 C713 1.433 . S
C721 N723 1.384 . S
N722 C718 1.427 . S
N722 C719 1.384 . S
N723 C715 1.427 . S
N723 C721 1.384 . S
H724 C730 0.930 . S
H725 C734 0.930 . S
H726 C739 0.929 . S
H727 C737 0.929 . S
H728 C732 0.929 . S
H729 C738 0.929 . S
C730 H724 0.930 . S
C730 C731 1.367 . S
C730 C738 1.378 . S
C731 C730 1.367 . S
C731 C739 1.433 . S
C732 H728 0.929 . S
C732 C734 1.378 . S
C732 C736 1.350 . S
C733 C736 1.463 . S
C733 C738 1.350 . S
C733 N741 1.427 . S
C734 H725 0.930 . S
C734 C732 1.378 . S
C734 C735 1.367 . S
C735 C734 1.367 . S
C735 C737 1.433 . S
C736 C732 1.350 . S
C736 C733 1.463 . S
C736 N740 1.427 . S
C737 H727 0.929 . S
C737 C735 1.433 . S
C737 N740 1.384 . S
C738 H729 0.929 . S
C738 C730 1.378 . S
C738 C733 1.350 . S
C739 H726 0.929 . S
C739 C731 1.433 . S
C739 N741 1.384 . S
N740 C736 1.427 . S
N740 C737 1.384 . S
N741 C733 1.427 . S
N741 C739 1.384 . S
H742 C748 0.930 . S
H743 C752 0.930 . S
H744 C757 0.929 . S
H745 C755 0.929 . S
H746 C750 0.929 . S
H747 C756 0.929 . S
C748 H742 0.930 . S
C748 C749 1.367 . S
C748 C756 1.378 . S
C749 C748 1.367 . S
C749 C757 1.433 . S
C750 H746 0.929 . S
C750 C752 1.378 . S
C750 C754 1.350 . S
C751 C754 1.463 . S
C751 C756 1.350 . S
C751 N759 1.427 . S
C752 H743 0.930 . S
C752 C750 1.378 . S
C752 C753 1.367 . S
C753 C752 1.367 . S
C753 C755 1.433 . S
C754 C750 1.350 . S
C754 C751 1.463 . S
C754 N758 1.427 . S
C755 H745 0.929 . S
C755 C753 1.433 . S
C755 N758 1.384 . S
C756 H747 0.929 . S
C756 C748 1.378 . S
C756 C751 1.350 . S
C757 H744 0.929 . S
C757 C749 1.433 . S
C757 N759 1.384 . S
N758 C754 1.427 . S
N758 C755 1.384 . S
N759 C751 1.427 . S
N759 C757 1.384 . S
H760 C766 0.930 . S
H761 C770 0.930 . S
H762 C775 0.929 . S
H763 C773 0.929 . S
H764 C768 0.929 . S
H765 C774 0.929 . S
C766 H760 0.930 . S
C766 C767 1.367 . S
C766 C774 1.378 . S
C767 C766 1.367 . S
C767 C775 1.433 . S
C768 H764 0.929 . S
C768 C770 1.378 . S
C768 C772 1.350 . S
C769 C772 1.463 . S
C769 C774 1.350 . S
C769 N777 1.427 . S
C770 H761 0.930 . S
C770 C768 1.378 . S
C770 C771 1.367 . S
C771 C770 1.367 . S
C771 C773 1.433 . S
C772 C768 1.350 . S
C772 C769 1.463 . S
C772 N776 1.427 . S
C773 H763 0.929 . S
C773 C771 1.433 . S
C773 N776 1.384 . S
C774 H765 0.929 . S
C774 C766 1.378 . S
C774 C769 1.350 . S
C775 H762 0.929 . S
C775 C767 1.433 . S
C775 N777 1.384 . S
N776 C772 1.427 . S
N776 C773 1.384 . S
N777 C769 1.427 . S
N777 C775 1.384 . S
H778 C784 0.930 . S
H779 C788 0.930 . S
H780 C793 0.929 . S
H781 C791 0.929 . S
H782 C786 0.929 . S
H783 C792 0.929 . S
C784 H778 0.930 . S
C784 C785 1.367 . S
C784 C792 1.378 . S
C785 C784 1.367 . S
C785 C793 1.433 . S
C786 H782 0.929 . S
C786 C788 1.378 . S
C786 C790 1.350 . S
C787 C790 1.463 . S
C787 C792 1.350 . S
C787 N795 1.427 . S
C788 H779 0.930 . S
C788 C786 1.378 . S
C788 C789 1.367 . S
C789 C788 1.367 . S
C789 C791 1.433 . S
C790 C786 1.350 . S
C790 C787 1.463 . S
C790 N794 1.427 . S
C791 H781 0.929 . S
C791 C789 1.433 . S
C791 N794 1.384 . S
C792 H783 0.929 . S
C792 C784 1.378 . S
C792 C787 1.350 . S
C793 H780 0.929 . S
C793 C785 1.433 . S
C793 N795 1.384 . S
N794 C790 1.427 . S
N794 C791 1.384 . S
N795 C787 1.427 . S
N795 C793 1.384 . S
H796 C802 0.930 . S
H797 C806 0.930 . S
H798 C811 0.929 . S
H799 C809 0.929 . S
H800 C804 0.929 . S
H801 C810 0.929 . S
C802 H796 0.930 . S
C802 C803 1.367 . S
C802 C810 1.378 . S
C803 C802 1.367 . S
C803 C811 1.433 . S
C804 H800 0.929 . S
C804 C806 1.378 . S
C804 C808 1.350 . S
C805 C808 1.463 . S
C805 C810 1.350 . S
C805 N813 1.427 . S
C806 H797 0.930 . S
C806 C804 1.378 . S
C806 C807 1.367 . S
C807 C806 1.367 . S
C807 C809 1.433 . S
C808 C804 1.350 . S
C808 C805 1.463 . S
C808 N812 1.427 . S
C809 H799 0.929 . S
C809 C807 1.433 . S
C809 N812 1.384 . S
C810 H801 0.929 . S
C810 C802 1.378 . S
C810 C805 1.350 . S
C811 H798 0.929 . S
C811 C803 1.433 . S
C811 N813 1.384 . S
N812 C808 1.427 . S
N812 C809 1.384 . S
N813 C805 1.427 . S
N813 C811 1.384 . S
H814 C820 0.930 . S
H815 C824 0.930 . S
H816 C829 0.929 . S
H817 C827 0.929 . S
H818 C822 0.929 . S
H819 C828 0.929 . S
C820 H814 0.930 . S
C820 C821 1.367 . S
C820 C828 1.378 . S
C821 C820 1.367 . S
C821 C829 1.433 . S
C822 H818 0.929 . S
C822 C824 1.378 . S
C822 C826 1.350 . S
C823 C826 1.463 . S
C823 C828 1.350 . S
C823 N831 1.427 . S
C824 H815 0.930 . S
C824 C822 1.378 . S
C824 C825 1.367 . S
C825 C824 1.367 . S
C825 C827 1.433 . S
C826 C822 1.350 . S
C826 C823 1.463 . S
C826 N830 1.427 . S
C827 H817 0.929 . S
C827 C825 1.433 . S
C827 N830 1.384 . S
C828 H819 0.929 . S
C828 C820 1.378 . S
C828 C823 1.350 . S
C829 H816 0.929 . S
C829 C821 1.433 . S
C829 N831 1.384 . S
N830 C826 1.427 . S
N830 C827 1.384 . S
N831 C823 1.427 . S
N831 C829 1.384 . S
H832 C838 0.930 . S
H833 C842 0.930 . S
H834 C847 0.929 . S
H835 C845 0.929 . S
H836 C840 0.929 . S
H837 C846 0.929 . S
C838 H832 0.930 . S
C838 C839 1.367 . S
C838 C846 1.378 . S
C839 C838 1.367 . S
C839 C847 1.433 . S
C840 H836 0.929 . S
C840 C842 1.378 . S
C840 C844 1.350 . S
C841 C844 1.463 . S
C841 C846 1.350 . S
C841 N849 1.427 . S
C842 H833 0.930 . S
C842 C840 1.378 . S
C842 C843 1.367 . S
C843 C842 1.367 . S
C843 C845 1.433 . S
C844 C840 1.350 . S
C844 C841 1.463 . S
C844 N848 1.427 . S
C845 H835 0.929 . S
C845 C843 1.433 . S
C845 N848 1.384 . S
C846 H837 0.929 . S
C846 C838 1.378 . S
C846 C841 1.350 . S
C847 H834 0.929 . S
C847 C839 1.433 . S
C847 N849 1.384 . S
N848 C844 1.427 . S
N848 C845 1.384 . S
N849 C841 1.427 . S
N849 C847 1.384 . S
H850 C856 0.930 . S
H851 C860 0.930 . S
H852 C865 0.929 . S
H853 C863 0.929 . S
H854 C858 0.929 . S
H855 C864 0.929 . S
C856 H850 0.930 . S
C856 C857 1.367 . S
C856 C864 1.378 . S
C857 C856 1.367 . S
C857 C865 1.433 . S
C858 H854 0.929 . S
C858 C860 1.378 . S
C858 C862 1.350 . S
C859 C862 1.463 . S
C859 C864 1.350 . S
C859 N867 1.427 . S
C860 H851 0.930 . S
C860 C858 1.378 . S
C860 C861 1.367 . S
C861 C860 1.367 . S
C861 C863 1.433 . S
C862 C858 1.350 . S
C862 C859 1.463 . S
C862 N866 1.427 . S
C863 H853 0.929 . S
C863 C861 1.433 . S
C863 N866 1.384 . S
C864 H855 0.929 . S
C864 C856 1.378 . S
C864 C859 1.350 . S
C865 H852 0.929 . S
C865 C857 1.433 . S
C865 N867 1.384 . S
N866 C862 1.427 . S
N866 C863 1.384 . S
N867 C859 1.427 . S
N867 C865 1.384 . S
H868 C874 0.930 . S
H869 C878 0.930 . S
H870 C883 0.929 . S
H871 C881 0.929 . S
H872 C876 0.929 . S
H873 C882 0.929 . S
C874 H868 0.930 . S
C874 C875 1.367 . S
C874 C882 1.378 . S
C875 C874 1.367 . S
C875 C883 1.433 . S
C876 H872 0.929 . S
C876 C878 1.378 . S
C876 C880 1.350 . S
C877 C880 1.463 . S
C877 C882 1.350 . S
C877 N885 1.427 . S
C878 H869 0.930 . S
C878 C876 1.378 . S
C878 C879 1.367 . S
C879 C878 1.367 . S
C879 C881 1.433 . S
C880 C876 1.350 . S
C880 C877 1.463 . S
C880 N884 1.427 . S
C881 H871 0.929 . S
C881 C879 1.433 . S
C881 N884 1.384 . S
C882 H873 0.929 . S
C882 C874 1.378 . S
C882 C877 1.350 . S
C883 H870 0.929 . S
C883 C875 1.433 . S
C883 N885 1.384 . S
N884 C880 1.427 . S
N884 C881 1.384 . S
N885 C877 1.427 . S
N885 C883 1.384 . S
H886 C892 0.930 . S
H887 C896 0.930 . S
H888 C901 0.929 . S
H889 C899 0.929 . S
H890 C894 0.929 . S
H891 C900 0.929 . S
C892 H886 0.930 . S
C892 C893 1.367 . S
C892 C900 1.378 . S
C893 C892 1.367 . S
C893 C901 1.433 . S
C894 H890 0.929 . S
C894 C896 1.378 . S
C894 C898 1.350 . S
C895 C898 1.463 . S
C895 C900 1.350 . S
C895 N903 1.427 . S
C896 H887 0.930 . S
C896 C894 1.378 . S
C896 C897 1.367 . S
C897 C896 1.367 . S
C897 C899 1.433 . S
C898 C894 1.350 . S
C898 C895 1.463 . S
C898 N902 1.427 . S
C899 H889 0.929 . S
C899 C897 1.433 . S
C899 N902 1.384 . S
C900 H891 0.929 . S
C900 C892 1.378 . S
C900 C895 1.350 . S
C901 H888 0.929 . S
C901 C893 1.433 . S
C901 N903 1.384 . S
N902 C898 1.427 . S
N902 C899 1.384 . S
N903 C895 1.427 . S
N903 C901 1.384 . S
H904 C910 0.930 . S
H905 C914 0.930 . S
H906 C919 0.929 . S
H907 C917 0.929 . S
H908 C912 0.929 . S
H909 C918 0.929 . S
C910 H904 0.930 . S
C910 C911 1.367 . S
C910 C918 1.378 . S
C911 C910 1.367 . S
C911 C919 1.433 . S
C912 H908 0.929 . S
C912 C914 1.378 . S
C912 C916 1.350 . S
C913 C916 1.463 . S
C913 C918 1.350 . S
C913 N921 1.427 . S
C914 H905 0.930 . S
C914 C912 1.378 . S
C914 C915 1.367 . S
C915 C914 1.367 . S
C915 C917 1.433 . S
C916 C912 1.350 . S
C916 C913 1.463 . S
C916 N920 1.427 . S
C917 H907 0.929 . S
C917 C915 1.433 . S
C917 N920 1.384 . S
C918 H909 0.929 . S
C918 C910 1.378 . S
C918 C913 1.350 . S
C919 H906 0.929 . S
C919 C911 1.433 . S
C919 N921 1.384 . S
N920 C916 1.427 . S
N920 C917 1.384 . S
N921 C913 1.427 . S
N921 C919 1.384 . S
H922 C928 0.930 . S
H923 C932 0.930 . S
H924 C937 0.929 . S
H925 C935 0.929 . S
H926 C930 0.929 . S
H927 C936 0.929 . S
C928 H922 0.930 . S
C928 C929 1.367 . S
C928 C936 1.378 . S
C929 C928 1.367 . S
C929 C937 1.433 . S
C930 H926 0.929 . S
C930 C932 1.378 . S
C930 C934 1.350 . S
C931 C934 1.463 . S
C931 C936 1.350 . S
C931 N939 1.427 . S
C932 H923 0.930 . S
C932 C930 1.378 . S
C932 C933 1.367 . S
C933 C932 1.367 . S
C933 C935 1.433 . S
C934 C930 1.350 . S
C934 C931 1.463 . S
C934 N938 1.427 . S
C935 H925 0.929 . S
C935 C933 1.433 . S
C935 N938 1.384 . S
C936 H927 0.929 . S
C936 C928 1.378 . S
C936 C931 1.350 . S
C937 H924 0.929 . S
C937 C929 1.433 . S
C937 N939 1.384 . S
N938 C934 1.427 . S
N938 C935 1.384 . S
N939 C931 1.427 . S
N939 C937 1.384 . S
H940 C946 0.930 . S
H941 C950 0.930 . S
H942 C955 0.929 . S
H943 C953 0.929 . S
H944 C948 0.929 . S
H945 C954 0.929 . S
C946 H940 0.930 . S
C946 C947 1.367 . S
C946 C954 1.378 . S
C947 C946 1.367 . S
C947 C955 1.433 . S
C948 H944 0.929 . S
C948 C950 1.378 . S
C948 C952 1.350 . S
C949 C952 1.463 . S
C949 C954 1.350 . S
C949 N957 1.427 . S
C950 H941 0.930 . S
C950 C948 1.378 . S
C950 C951 1.367 . S
C951 C950 1.367 . S
C951 C953 1.433 . S
C952 C948 1.350 . S
C952 C949 1.463 . S
C952 N956 1.427 . S
C953 H943 0.929 . S
C953 C951 1.433 . S
C953 N956 1.384 . S
C954 H945 0.929 . S
C954 C946 1.378 . S
C954 C949 1.350 . S
C955 H942 0.929 . S
C955 C947 1.433 . S
C955 N957 1.384 . S
N956 C952 1.427 . S
N956 C953 1.384 . S
N957 C949 1.427 . S
N957 C955 1.384 . S
H958 C964 0.930 . S
H959 C968 0.930 . S
H960 C973 0.929 . S
H961 C971 0.929 . S
H962 C966 0.929 . S
H963 C972 0.929 . S
C964 H958 0.930 . S
C964 C965 1.367 . S
C964 C972 1.378 . S
C965 C964 1.367 . S
C965 C973 1.433 . S
C966 H962 0.929 . S
C966 C968 1.378 . S
C966 C970 1.350 . S
C967 C970 1.463 . S
C967 C972 1.350 . S
C967 N975 1.427 . S
C968 H959 0.930 . S
C968 C966 1.378 . S
C968 C969 1.367 . S
C969 C968 1.367 . S
C969 C971 1.433 . S
C970 C966 1.350 . S
C970 C967 1.463 . S
C970 N974 1.427 . S
C971 H961 0.929 . S
C971 C969 1.433 . S
C971 N974 1.384 . S
C972 H963 0.929 . S
C972 C964 1.378 . S
C972 C967 1.350 . S
C973 H960 0.929 . S
C973 C965 1.433 . S
C973 N975 1.384 . S
N974 C970 1.427 . S
N974 C971 1.384 . S
N975 C967 1.427 . S
N975 C973 1.384 . S
H976 C982 0.930 . S
H977 C986 0.930 . S
H978 C991 0.929 . S
H979 C989 0.929 . S
H980 C984 0.929 . S
H981 C990 0.929 . S
C982 H976 0.930 . S
C982 C983 1.367 . S
C982 C990 1.378 . S
C983 C982 1.367 . S
C983 C991 1.433 . S
C984 H980 0.929 . S
C984 C986 1.378 . S
C984 C988 1.350 . S
C985 C988 1.463 . S
C985 C990 1.350 . S
C985 N993 1.427 . S
C986 H977 0.930 . S
C986 C984 1.378 . S
C986 C987 1.367 . S
C987 C986 1.367 . S
C987 C989 1.433 . S
C988 C984 1.350 . S
C988 C985 1.463 . S
C988 N992 1.427 . S
C989 H979 0.929 . S
C989 C987 1.433 . S
C989 N992 1.384 . S
C990 H981 0.929 . S
C990 C982 1.378 . S
C990 C985 1.350 . S
C991 H978 0.929 . S
C991 C983 1.433 . S
C991 N993 1.384 . S
N992 C988 1.427 . S
N992 C989 1.384 . S
N993 C985 1.427 . S
N993 C991 1.384 . S
H994 C1000 0.930 . S
H995 C1004 0.930 . S
H996 C1009 0.929 . S
H997 C1007 0.929 . S
H998 C1002 0.929 . S
H999 C1008 0.929 . S
C1000 H994 0.930 . S
C1000 C1001 1.367 . S
C1000 C1008 1.378 . S
C1001 C1000 1.367 . S
C1001 C1009 1.433 . S
C1002 H998 0.929 . S
C1002 C1004 1.378 . S
C1002 C1006 1.350 . S
C1003 C1006 1.463 . S
C1003 C1008 1.350 . S
C1003 N1011 1.427 . S
C1004 H995 0.930 . S
C1004 C1002 1.378 . S
C1004 C1005 1.367 . S
C1005 C1004 1.367 . S
C1005 C1007 1.433 . S
C1006 C1002 1.350 . S
C1006 C1003 1.463 . S
C1006 N1010 1.427 . S
C1007 H997 0.929 . S
C1007 C1005 1.433 . S
C1007 N1010 1.384 . S
C1008 H999 0.929 . S
C1008 C1000 1.378 . S
C1008 C1003 1.350 . S
C1009 H996 0.929 . S
C1009 C1001 1.433 . S
C1009 N1011 1.384 . S
N1010 C1006 1.427 . S
N1010 C1007 1.384 . S
N1011 C1003 1.427 . S
N1011 C1009 1.384 . S
H1012 C1018 0.930 . S
H1013 C1022 0.930 . S
H1014 C1027 0.929 . S
H1015 C1025 0.929 . S
H1016 C1020 0.929 . S
H1017 C1026 0.929 . S
C1018 H1012 0.930 . S
C1018 C1019 1.367 . S
C1018 C1026 1.378 . S
C1019 C1018 1.367 . S
C1019 C1027 1.433 . S
C1020 H1016 0.929 . S
C1020 C1022 1.378 . S
C1020 C1024 1.350 . S
C1021 C1024 1.463 . S
C1021 C1026 1.350 . S
C1021 N1029 1.427 . S
C1022 H1013 0.930 . S
C1022 C1020 1.378 . S
C1022 C1023 1.367 . S
C1023 C1022 1.367 . S
C1023 C1025 1.433 . S
C1024 C1020 1.350 . S
C1024 C1021 1.463 . S
C1024 N1028 1.427 . S
C1025 H1015 0.929 . S
C1025 C1023 1.433 . S
C1025 N1028 1.384 . S
C1026 H1017 0.929 . S
C1026 C1018 1.378 . S
C1026 C1021 1.350 . S
C1027 H1014 0.929 . S
C1027 C1019 1.433 . S
C1027 N1029 1.384 . S
N1028 C1024 1.427 . S
N1028 C1025 1.384 . S
N1029 C1021 1.427 . S
N1029 C1027 1.384 . S
H1030 C1036 0.930 . S
H1031 C1040 0.930 . S
H1032 C1045 0.929 . S
H1033 C1043 0.929 . S
H1034 C1038 0.929 . S
H1035 C1044 0.929 . S
C1036 H1030 0.930 . S
C1036 C1037 1.367 . S
C1036 C1044 1.378 . S
C1037 C1036 1.367 . S
C1037 C1045 1.433 . S
C1038 H1034 0.929 . S
C1038 C1040 1.378 . S
C1038 C1042 1.350 . S
C1039 C1042 1.463 . S
C1039 C1044 1.350 . S
C1039 N1047 1.427 . S
C1040 H1031 0.930 . S
C1040 C1038 1.378 . S
C1040 C1041 1.367 . S
C1041 C1040 1.367 . S
C1041 C1043 1.433 . S
C1042 C1038 1.350 . S
C1042 C1039 1.463 . S
C1042 N1046 1.427 . S
C1043 H1033 0.929 . S
C1043 C1041 1.433 . S
C1043 N1046 1.384 . S
C1044 H1035 0.929 . S
C1044 C1036 1.378 . S
C1044 C1039 1.350 . S
C1045 H1032 0.929 . S
C1045 C1037 1.433 . S
C1045 N1047 1.384 . S
N1046 C1042 1.427 . S
N1046 C1043 1.384 . S
N1047 C1039 1.427 . S
N1047 C1045 1.384 . S
H1048 C1054 0.930 . S
H1049 C1058 0.930 . S
H1050 C1063 0.929 . S
H1051 C1061 0.929 . S
H1052 C1056 0.929 . S
H1053 C1062 0.929 . S
C1054 H1048 0.930 . S
C1054 C1055 1.367 . S
C1054 C1062 1.378 . S
C1055 C1054 1.367 . S
C1055 C1063 1.433 . S
C1056 H1052 0.929 . S
C1056 C1058 1.378 . S
C1056 C1060 1.350 . S
C1057 C1060 1.463 . S
C1057 C1062 1.350 . S
C1057 N1065 1.427 . S
C1058 H1049 0.930 . S
C1058 C1056 1.378 . S
C1058 C1059 1.367 . S
C1059 C1058 1.367 . S
C1059 C1061 1.433 . S
C1060 C1056 1.350 . S
C1060 C1057 1.463 . S
C1060 N1064 1.427 . S
C1061 H1051 0.929 . S
C1061 C1059 1.433 . S
C1061 N1064 1.384 . S
C1062 H1053 0.929 . S
C1062 C1054 1.378 . S
C1062 C1057 1.350 . S
C1063 H1050 0.929 . S
C1063 C1055 1.433 . S
C1063 N1065 1.384 . S
N1064 C1060 1.427 . S
N1064 C1061 1.384 . S
N1065 C1057 1.427 . S
N1065 C1063 1.384 . S
H1066 C1072 0.930 . S
H1067 C1076 0.930 . S
H1068 C1081 0.929 . S
H1069 C1079 0.929 . S
H1070 C1074 0.929 . S
H1071 C1080 0.929 . S
C1072 H1066 0.930 . S
C1072 C1073 1.367 . S
C1072 C1080 1.378 . S
C1073 C1072 1.367 . S
C1073 C1081 1.433 . S
C1074 H1070 0.929 . S
C1074 C1076 1.378 . S
C1074 C1078 1.350 . S
C1075 C1078 1.463 . S
C1075 C1080 1.350 . S
C1075 N1083 1.427 . S
C1076 H1067 0.930 . S
C1076 C1074 1.378 . S
C1076 C1077 1.367 . S
C1077 C1076 1.367 . S
C1077 C1079 1.433 . S
C1078 C1074 1.350 . S
C1078 C1075 1.463 . S
C1078 N1082 1.427 . S
C1079 H1069 0.929 . S
C1079 C1077 1.433 . S
C1079 N1082 1.384 . S
C1080 H1071 0.929 . S
C1080 C1072 1.378 . S
C1080 C1075 1.350 . S
C1081 H1068 0.929 . S
C1081 C1073 1.433 . S
C1081 N1083 1.384 . S
N1082 C1078 1.427 . S
N1082 C1079 1.384 . S
N1083 C1075 1.427 . S
N1083 C1081 1.384 . S
H1084 C1090 0.930 . S
H1085 C1094 0.930 . S
H1086 C1099 0.929 . S
H1087 C1097 0.929 . S
H1088 C1092 0.929 . S
H1089 C1098 0.929 . S
C1090 H1084 0.930 . S
C1090 C1091 1.367 . S
C1090 C1098 1.378 . S
C1091 C1090 1.367 . S
C1091 C1099 1.433 . S
C1092 H1088 0.929 . S
C1092 C1094 1.378 . S
C1092 C1096 1.350 . S
C1093 C1096 1.463 . S
C1093 C1098 1.350 . S
C1093 N1101 1.427 . S
C1094 H1085 0.930 . S
C1094 C1092 1.378 . S
C1094 C1095 1.367 . S
C1095 C1094 1.367 . S
C1095 C1097 1.433 . S
C1096 C1092 1.350 . S
C1096 C1093 1.463 . S
C1096 N1100 1.427 . S
C1097 H1087 0.929 . S
C1097 C1095 1.433 . S
C1097 N1100 1.384 . S
C1098 H1089 0.929 . S
C1098 C1090 1.378 . S
C1098 C1093 1.350 . S
C1099 H1086 0.929 . S
C1099 C1091 1.433 . S
C1099 N1101 1.384 . S
N1100 C1096 1.427 . S
N1100 C1097 1.384 . S
N1101 C1093 1.427 . S
N1101 C1099 1.384 . S
H1102 C1108 0.930 . S
H1103 C1112 0.930 . S
H1104 C1117 0.929 . S
H1105 C1115 0.929 . S
H1106 C1110 0.929 . S
H1107 C1116 0.929 . S
C1108 H1102 0.930 . S
C1108 C1109 1.367 . S
C1108 C1116 1.378 . S
C1109 C1108 1.367 . S
C1109 C1117 1.433 . S
C1110 H1106 0.929 . S
C1110 C1112 1.378 . S
C1110 C1114 1.350 . S
C1111 C1114 1.463 . S
C1111 C1116 1.350 . S
C1111 N1119 1.427 . S
C1112 H1103 0.930 . S
C1112 C1110 1.378 . S
C1112 C1113 1.367 . S
C1113 C1112 1.367 . S
C1113 C1115 1.433 . S
C1114 C1110 1.350 . S
C1114 C1111 1.463 . S
C1114 N1118 1.427 . S
C1115 H1105 0.929 . S
C1115 C1113 1.433 . S
C1115 N1118 1.384 . S
C1116 H1107 0.929 . S
C1116 C1108 1.378 . S
C1116 C1111 1.350 . S
C1117 H1104 0.929 . S
C1117 C1109 1.433 . S
C1117 N1119 1.384 . S
N1118 C1114 1.427 . S
N1118 C1115 1.384 . S
N1119 C1111 1.427 . S
N1119 C1117 1.384 . S
H1120 C1126 0.930 . S
H1121 C1130 0.930 . S
H1122 C1135 0.929 . S
H1123 C1133 0.929 . S
H1124 C1128 0.929 . S
H1125 C1134 0.929 . S
C1126 H1120 0.930 . S
C1126 C1127 1.367 . S
C1126 C1134 1.378 . S
C1127 C1126 1.367 . S
C1127 C1135 1.433 . S
C1128 H1124 0.929 . S
C1128 C1130 1.378 . S
C1128 C1132 1.350 . S
C1129 C1132 1.463 . S
C1129 C1134 1.350 . S
C1129 N1137 1.427 . S
C1130 H1121 0.930 . S
C1130 C1128 1.378 . S
C1130 C1131 1.367 . S
C1131 C1130 1.367 . S
C1131 C1133 1.433 . S
C1132 C1128 1.350 . S
C1132 C1129 1.463 . S
C1132 N1136 1.427 . S
C1133 H1123 0.929 . S
C1133 C1131 1.433 . S
C1133 N1136 1.384 . S
C1134 H1125 0.929 . S
C1134 C1126 1.378 . S
C1134 C1129 1.350 . S
C1135 H1122 0.929 . S
C1135 C1127 1.433 . S
C1135 N1137 1.384 . S
N1136 C1132 1.427 . S
N1136 C1133 1.384 . S
N1137 C1129 1.427 . S
N1137 C1135 1.384 . S
H1138 C1144 0.930 . S
H1139 C1148 0.930 . S
H1140 C1153 0.929 . S
H1141 C1151 0.929 . S
H1142 C1146 0.929 . S
H1143 C1152 0.929 . S
C1144 H1138 0.930 . S
C1144 C1145 1.367 . S
C1144 C1152 1.378 . S
C1145 C1144 1.367 . S
C1145 C1153 1.433 . S
C1146 H1142 0.929 . S
C1146 C1148 1.378 . S
C1146 C1150 1.350 . S
C1147 C1150 1.463 . S
C1147 C1152 1.350 . S
C1147 N1155 1.427 . S
C1148 H1139 0.930 . S
C1148 C1146 1.378 . S
C1148 C1149 1.367 . S
C1149 C1148 1.367 . S
C1149 C1151 1.433 . S
C1150 C1146 1.350 . S
C1150 C1147 1.463 . S
C1150 N1154 1.427 . S
C1151 H1141 0.929 . S
C1151 C1149 1.433 . S
C1151 N1154 1.384 . S
C1152 H1143 0.929 . S
C1152 C1144 1.378 . S
C1152 C1147 1.350 . S
C1153 H1140 0.929 . S
C1153 C1145 1.433 . S
C1153 N1155 1.384 . S
N1154 C1150 1.427 . S
N1154 C1151 1.384 . S
N1155 C1147 1.427 . S
N1155 C1153 1.384 . S
H1156 C1162 0.930 . S
H1157 C1166 0.930 . S
H1158 C1171 0.929 . S
H1159 C1169 0.929 . S
H1160 C1164 0.929 . S
H1161 C1170 0.929 . S
C1162 H1156 0.930 . S
C1162 C1163 1.367 . S
C1162 C1170 1.378 . S
C1163 C1162 1.367 . S
C1163 C1171 1.433 . S
C1164 H1160 0.929 . S
C1164 C1166 1.378 . S
C1164 C1168 1.350 . S
C1165 C1168 1.463 . S
C1165 C1170 1.350 . S
C1165 N1173 1.427 . S
C1166 H1157 0.930 . S
C1166 C1164 1.378 . S
C1166 C1167 1.367 . S
C1167 C1166 1.367 . S
C1167 C1169 1.433 . S
C1168 C1164 1.350 . S
C1168 C1165 1.463 . S
C1168 N1172 1.427 . S
C1169 H1159 0.929 . S
C1169 C1167 1.433 . S
C1169 N1172 1.384 . S
C1170 H1161 0.929 . S
C1170 C1162 1.378 . S
C1170 C1165 1.350 . S
C1171 H1158 0.929 . S
C1171 C1163 1.433 . S
C1171 N1173 1.384 . S
N1172 C1168 1.427 . S
N1172 C1169 1.384 . S
N1173 C1165 1.427 . S
N1173 C1171 1.384 . S
H1174 C1180 0.930 . S
H1175 C1184 0.930 . S
H1176 C1189 0.929 . S
H1177 C1187 0.929 . S
H1178 C1182 0.929 . S
H1179 C1188 0.929 . S
C1180 H1174 0.930 . S
C1180 C1181 1.367 . S
C1180 C1188 1.378 . S
C1181 C1180 1.367 . S
C1181 C1189 1.433 . S
C1182 H1178 0.929 . S
C1182 C1184 1.378 . S
C1182 C1186 1.350 . S
C1183 C1186 1.463 . S
C1183 C1188 1.350 . S
C1183 N1191 1.427 . S
C1184 H1175 0.930 . S
C1184 C1182 1.378 . S
C1184 C1185 1.367 . S
C1185 C1184 1.367 . S
C1185 C1187 1.433 . S
C1186 C1182 1.350 . S
C1186 C1183 1.463 . S
C1186 N1190 1.427 . S
C1187 H1177 0.929 . S
C1187 C1185 1.433 . S
C1187 N1190 1.384 . S
C1188 H1179 0.929 . S
C1188 C1180 1.378 . S
C1188 C1183 1.350 . S
C1189 H1176 0.929 . S
C1189 C1181 1.433 . S
C1189 N1191 1.384 . S
N1190 C1186 1.427 . S
N1190 C1187 1.384 . S
N1191 C1183 1.427 . S
N1191 C1189 1.384 . S
H1192 C1198 0.930 . S
H1193 C1202 0.930 . S
H1194 C1207 0.929 . S
H1195 C1205 0.929 . S
H1196 C1200 0.929 . S
H1197 C1206 0.929 . S
C1198 H1192 0.930 . S
C1198 C1199 1.367 . S
C1198 C1206 1.378 . S
C1199 C1198 1.367 . S
C1199 C1207 1.433 . S
C1200 H1196 0.929 . S
C1200 C1202 1.378 . S
C1200 C1204 1.350 . S
C1201 C1204 1.463 . S
C1201 C1206 1.350 . S
C1201 N1209 1.427 . S
C1202 H1193 0.930 . S
C1202 C1200 1.378 . S
C1202 C1203 1.367 . S
C1203 C1202 1.367 . S
C1203 C1205 1.433 . S
C1204 C1200 1.350 . S
C1204 C1201 1.463 . S
C1204 N1208 1.427 . S
C1205 H1195 0.929 . S
C1205 C1203 1.433 . S
C1205 N1208 1.384 . S
C1206 H1197 0.929 . S
C1206 C1198 1.378 . S
C1206 C1201 1.350 . S
C1207 H1194 0.929 . S
C1207 C1199 1.433 . S
C1207 N1209 1.384 . S
N1208 C1204 1.427 . S
N1208 C1205 1.384 . S
N1209 C1201 1.427 . S
N1209 C1207 1.384 . S
H1210 C1216 0.930 . S
H1211 C1220 0.930 . S
H1212 C1225 0.929 . S
H1213 C1223 0.929 . S
H1214 C1218 0.929 . S
H1215 C1224 0.929 . S
C1216 H1210 0.930 . S
C1216 C1217 1.367 . S
C1216 C1224 1.378 . S
C1217 C1216 1.367 . S
C1217 C1225 1.433 . S
C1218 H1214 0.929 . S
C1218 C1220 1.378 . S
C1218 C1222 1.350 . S
C1219 C1222 1.463 . S
C1219 C1224 1.350 . S
C1219 N1227 1.427 . S
C1220 H1211 0.930 . S
C1220 C1218 1.378 . S
C1220 C1221 1.367 . S
C1221 C1220 1.367 . S
C1221 C1223 1.433 . S
C1222 C1218 1.350 . S
C1222 C1219 1.463 . S
C1222 N1226 1.427 . S
C1223 H1213 0.929 . S
C1223 C1221 1.433 . S
C1223 N1226 1.384 . S
C1224 H1215 0.929 . S
C1224 C1216 1.378 . S
C1224 C1219 1.350 . S
C1225 H1212 0.929 . S
C1225 C1217 1.433 . S
C1225 N1227 1.384 . S
N1226 C1222 1.427 . S
N1226 C1223 1.384 . S
N1227 C1219 1.427 . S
N1227 C1225 1.384 . S
H1228 C1234 0.930 . S
H1229 C1238 0.930 . S
H1230 C1243 0.929 . S
H1231 C1241 0.929 . S
H1232 C1236 0.929 . S
H1233 C1242 0.929 . S
C1234 H1228 0.930 . S
C1234 C1235 1.367 . S
C1234 C1242 1.378 . S
C1235 C1234 1.367 . S
C1235 C1243 1.433 . S
C1236 H1232 0.929 . S
C1236 C1238 1.378 . S
C1236 C1240 1.350 . S
C1237 C1240 1.463 . S
C1237 C1242 1.350 . S
C1237 N1245 1.427 . S
C1238 H1229 0.930 . S
C1238 C1236 1.378 . S
C1238 C1239 1.367 . S
C1239 C1238 1.367 . S
C1239 C1241 1.433 . S
C1240 C1236 1.350 . S
C1240 C1237 1.463 . S
C1240 N1244 1.427 . S
C1241 H1231 0.929 . S
C1241 C1239 1.433 . S
C1241 N1244 1.384 . S
C1242 H1233 0.929 . S
C1242 C1234 1.378 . S
C1242 C1237 1.350 . S
C1243 H1230 0.929 . S
C1243 C1235 1.433 . S
C1243 N1245 1.384 . S
N1244 C1240 1.427 . S
N1244 C1241 1.384 . S
N1245 C1237 1.427 . S
N1245 C1243 1.384 . S
H1246 C1252 0.930 . S
H1247 C1256 0.930 . S
H1248 C1261 0.929 . S
H1249 C1259 0.929 . S
H1250 C1254 0.929 . S
H1251 C1260 0.929 . S
C1252 H1246 0.930 . S
C1252 C1253 1.367 . S
C1252 C1260 1.378 . S
C1253 C1252 1.367 . S
C1253 C1261 1.433 . S
C1254 H1250 0.929 . S
C1254 C1256 1.378 . S
C1254 C1258 1.350 . S
C1255 C1258 1.463 . S
C1255 C1260 1.350 . S
C1255 N1263 1.427 . S
C1256 H1247 0.930 . S
C1256 C1254 1.378 . S
C1256 C1257 1.367 . S
C1257 C1256 1.367 . S
C1257 C1259 1.433 . S
C1258 C1254 1.350 . S
C1258 C1255 1.463 . S
C1258 N1262 1.427 . S
C1259 H1249 0.929 . S
C1259 C1257 1.433 . S
C1259 N1262 1.384 . S
C1260 H1251 0.929 . S
C1260 C1252 1.378 . S
C1260 C1255 1.350 . S
C1261 H1248 0.929 . S
C1261 C1253 1.433 . S
C1261 N1263 1.384 . S
N1262 C1258 1.427 . S
N1262 C1259 1.384 . S
N1263 C1255 1.427 . S
N1263 C1261 1.384 . S
H1264 C1270 0.930 . S
H1265 C1274 0.930 . S
H1266 C1279 0.929 . S
H1267 C1277 0.929 . S
H1268 C1272 0.929 . S
H1269 C1278 0.929 . S
C1270 H1264 0.930 . S
C1270 C1271 1.367 . S
C1270 C1278 1.378 . S
C1271 C1270 1.367 . S
C1271 C1279 1.433 . S
C1272 H1268 0.929 . S
C1272 C1274 1.378 . S
C1272 C1276 1.350 . S
C1273 C1276 1.463 . S
C1273 C1278 1.350 . S
C1273 N1281 1.427 . S
C1274 H1265 0.930 . S
C1274 C1272 1.378 . S
C1274 C1275 1.367 . S
C1275 C1274 1.367 . S
C1275 C1277 1.433 . S
C1276 C1272 1.350 . S
C1276 C1273 1.463 . S
C1276 N1280 1.427 . S
C1277 H1267 0.929 . S
C1277 C1275 1.433 . S
C1277 N1280 1.384 . S
C1278 H1269 0.929 . S
C1278 C1270 1.378 . S
C1278 C1273 1.350 . S
C1279 H1266 0.929 . S
C1279 C1271 1.433 . S
C1279 N1281 1.384 . S
N1280 C1276 1.427 . S
N1280 C1277 1.384 . S
N1281 C1273 1.427 . S
N1281 C1279 1.384 . S
H1282 C1288 0.930 . S
H1283 C1292 0.930 . S
H1284 C1297 0.929 . S
H1285 C1295 0.929 . S
H1286 C1290 0.929 . S
H1287 C1296 0.929 . S
C1288 H1282 0.930 . S
C1288 C1289 1.367 . S
C1288 C1296 1.378 . S
C1289 C1288 1.367 . S
C1289 C1297 1.433 . S
C1290 H1286 0.929 . S
C1290 C1292 1.378 . S
C1290 C1294 1.350 . S
C1291 C1294 1.463 . S
C1291 C1296 1.350 . S
C1291 N1299 1.427 . S
C1292 H1283 0.930 . S
C1292 C1290 1.378 . S
C1292 C1293 1.367 . S
C1293 C1292 1.367 . S
C1293 C1295 1.433 . S
C1294 C1290 1.350 . S
C1294 C1291 1.463 . S
C1294 N1298 1.427 . S
C1295 H1285 0.929 . S
C1295 C1293 1.433 . S
C1295 N1298 1.384 . S
C1296 H1287 0.929 . S
C1296 C1288 1.378 . S
C1296 C1291 1.350 . S
C1297 H1284 0.929 . S
C1297 C1289 1.433 . S
C1297 N1299 1.384 . S
N1298 C1294 1.427 . S
N1298 C1295 1.384 . S
N1299 C1291 1.427 . S
N1299 C1297 1.384 . S
C447 C278 1.681 . S
C443 N2 1.696 . S
C465 C304 2.350 . S
C461 C7 2.381 . S
C483 C317 1.721 . S
C479 N12 1.678 . S
C497 C16 1.699 . S
C501 C345 1.716 . S
C519 C365 2.442 . S
C515 C30 2.453 . S
C537 C378 1.559 . S
C533 N35 1.550 . S
C551 C39 1.851 . S
C555 C404 1.809 . S
C573 C417 1.532 . S
C569 N25 1.455 . S
C591 C294 1.251 . S
C587 N58 1.200 . S
C605 N81 1.441 . S
C609 C315 1.474 . S
C627 C324 1.332 . S
C623 N104 1.295 . S
C641 N127 1.230 . S
C645 C338 1.224 . S
C663 C358 0.938 . S
C659 N48 0.987 . S
C681 C394 1.591 . S
C677 N71 1.569 . S
C695 N94 1.027 . S
C699 C415 1.021 . S
C717 C424 1.724 . S
C713 N117 1.737 . S
C731 C85 2.147 . S
C735 C285 2.115 . S
C749 C122 1.859 . S
C753 C374 1.842 . S
C767 C53 1.846 1_556 S
C771 C385 1.799 . S
C789 C397 1.472 . S
C785 C76 1.533 . S
C807 C435 1.699 . S
C803 C99 1.696 . S
C825 C335 1.934 . S
C821 C131 1.903 . S
C843 C354 1.294 . S
C839 C62 1.296 . S
C857 C108 1.238 . S
C861 C297 1.224 . S
C879 C418 1.741 . S
C875 N140 1.774 . S
C893 C145 2.380 . S
C897 C364 2.342 . S
C915 C377 1.644 . S
C911 N150 1.591 . S
C929 C154 1.689 . S
C933 C405 1.709 . S
C951 C305 2.436 . S
C947 C168 2.451 . S
C965 N173 1.465 . S
C969 C318 1.480 . S
C987 C344 1.803 . S
C983 C177 1.850 . S
C1005 C277 1.587 . S
C1001 N163 1.528 . S
C1023 C434 1.696 . S
C1019 C200 1.703 . S
C1041 C375 1.760 . S
C1037 N219 1.723 . S
C1055 N242 1.538 . S
C1059 C384 1.573 . S
C1077 C398 1.469 . S
C1073 C269 1.559 . S
C1095 C298 1.248 . S
C1091 C191 1.296 . S
C1109 N209 1.797 . S
C1113 C334 1.816 . S
C1127 N232 1.347 . S
C1131 C355 1.313 . S
C1145 C260 2.219 . S
C1149 C284 2.190 . S
C1163 C223 1.882 . S
C1167 C425 1.854 . S
C1181 N255 1.398 . S
C1185 C314 1.443 . S
C1199 N186 1.312 . S
C1203 C325 1.325 . S
C1221 C337 1.175 . S
C1217 C214 1.208 . S
C1239 C295 1.419 . S
C1235 C237 1.417 . S
C1257 C395 1.504 . S
C1253 N265 1.445 . S
C1275 C414 0.966 . S
C1271 N196 0.959 . S
C1293 C357 0.894 . S
C1289 C246 0.915 . S
