# Generated by pormake.
# Topology ocu, (6,8)-cn, num edge types: 1
# Building blocks:
#     Node 0, Type 0, BuildingBlock: MIFKUJ_clean_sbu_0, # of connection points: 6
#     Node 1, Type 0, BuildingBlock: MIFKUJ_clean_sbu_0, # of connection points: 6
#     Node 2, Type 0, BuildingBlock: MIFKUJ_clean_sbu_0, # of connection points: 6
#     Node 3, Type 0, BuildingBlock: MIFKUJ_clean_sbu_0, # of connection points: 6
#     Node 4, Type 0, BuildingBlock: MIFKUJ_clean_sbu_0, # of connection points: 6
#     Node 5, Type 0, BuildingBlock: MIFKUJ_clean_sbu_0, # of connection points: 6
#     Node 6, Type 0, BuildingBlock: MIFKUJ_clean_sbu_0, # of connection points: 6
#     Node 7, Type 0, BuildingBlock: MIFKUJ_clean_sbu_0, # of connection points: 6
#     Node 8, Type 1, BuildingBlock: VETTIZ_charged_sbu_0, # of connection points: 8
#     Node 9, Type 1, BuildingBlock: VETTIZ_charged_sbu_0, # of connection points: 8
#     Node 10, Type 1, BuildingBlock: VETTIZ_charged_sbu_0, # of connection points: 8
#     Node 11, Type 1, BuildingBlock: VETTIZ_charged_sbu_0, # of connection points: 8
#     Node 12, Type 1, BuildingBlock: VETTIZ_charged_sbu_0, # of connection points: 8
#     Node 13, Type 1, BuildingBlock: VETTIZ_charged_sbu_0, # of connection points: 8
#     Edge 14, Type (0, 1), BuildingBlock: ZUJKAS_clean_linker_0, # of connection points: 2
#     Edge 15, Type (0, 1), BuildingBlock: ZUJKAS_clean_linker_0, # of connection points: 2
#     Edge 16, Type (0, 1), BuildingBlock: ZUJKAS_clean_linker_0, # of connection points: 2
#     Edge 17, Type (0, 1), BuildingBlock: ZUJKAS_clean_linker_0, # of connection points: 2
#     Edge 18, Type (0, 1), BuildingBlock: ZUJKAS_clean_linker_0, # of connection points: 2
#     Edge 19, Type (0, 1), BuildingBlock: ZUJKAS_clean_linker_0, # of connection points: 2
#     Edge 20, Type (0, 1), BuildingBlock: ZUJKAS_clean_linker_0, # of connection points: 2
#     Edge 21, Type (0, 1), BuildingBlock: ZUJKAS_clean_linker_0, # of connection points: 2
#     Edge 22, Type (0, 1), BuildingBlock: ZUJKAS_clean_linker_0, # of connection points: 2
#     Edge 23, Type (0, 1), BuildingBlock: ZUJKAS_clean_linker_0, # of connection points: 2
#     Edge 24, Type (0, 1), BuildingBlock: ZUJKAS_clean_linker_0, # of connection points: 2
#     Edge 25, Type (0, 1), BuildingBlock: ZUJKAS_clean_linker_0, # of connection points: 2
#     Edge 26, Type (0, 1), BuildingBlock: ZUJKAS_clean_linker_0, # of connection points: 2
#     Edge 27, Type (0, 1), BuildingBlock: ZUJKAS_clean_linker_0, # of connection points: 2
#     Edge 28, Type (0, 1), BuildingBlock: ZUJKAS_clean_linker_0, # of connection points: 2
#     Edge 29, Type (0, 1), BuildingBlock: ZUJKAS_clean_linker_0, # of connection points: 2
#     Edge 30, Type (0, 1), BuildingBlock: ZUJKAS_clean_linker_0, # of connection points: 2
#     Edge 31, Type (0, 1), BuildingBlock: ZUJKAS_clean_linker_0, # of connection points: 2
#     Edge 32, Type (0, 1), BuildingBlock: ZUJKAS_clean_linker_0, # of connection points: 2
#     Edge 33, Type (0, 1), BuildingBlock: ZUJKAS_clean_linker_0, # of connection points: 2
#     Edge 34, Type (0, 1), BuildingBlock: ZUJKAS_clean_linker_0, # of connection points: 2
#     Edge 35, Type (0, 1), BuildingBlock: ZUJKAS_clean_linker_0, # of connection points: 2
#     Edge 36, Type (0, 1), BuildingBlock: ZUJKAS_clean_linker_0, # of connection points: 2
#     Edge 37, Type (0, 1), BuildingBlock: ZUJKAS_clean_linker_0, # of connection points: 2
#     Edge 38, Type (0, 1), BuildingBlock: ZUJKAS_clean_linker_0, # of connection points: 2
#     Edge 39, Type (0, 1), BuildingBlock: ZUJKAS_clean_linker_0, # of connection points: 2
#     Edge 40, Type (0, 1), BuildingBlock: ZUJKAS_clean_linker_0, # of connection points: 2
#     Edge 41, Type (0, 1), BuildingBlock: ZUJKAS_clean_linker_0, # of connection points: 2
#     Edge 42, Type (0, 1), BuildingBlock: ZUJKAS_clean_linker_0, # of connection points: 2
#     Edge 43, Type (0, 1), BuildingBlock: ZUJKAS_clean_linker_0, # of connection points: 2
#     Edge 44, Type (0, 1), BuildingBlock: ZUJKAS_clean_linker_0, # of connection points: 2
#     Edge 45, Type (0, 1), BuildingBlock: ZUJKAS_clean_linker_0, # of connection points: 2
#     Edge 46, Type (0, 1), BuildingBlock: ZUJKAS_clean_linker_0, # of connection points: 2
#     Edge 47, Type (0, 1), BuildingBlock: ZUJKAS_clean_linker_0, # of connection points: 2
#     Edge 48, Type (0, 1), BuildingBlock: ZUJKAS_clean_linker_0, # of connection points: 2
#     Edge 49, Type (0, 1), BuildingBlock: ZUJKAS_clean_linker_0, # of connection points: 2
#     Edge 50, Type (0, 1), BuildingBlock: ZUJKAS_clean_linker_0, # of connection points: 2
#     Edge 51, Type (0, 1), BuildingBlock: ZUJKAS_clean_linker_0, # of connection points: 2
#     Edge 52, Type (0, 1), BuildingBlock: ZUJKAS_clean_linker_0, # of connection points: 2
#     Edge 53, Type (0, 1), BuildingBlock: ZUJKAS_clean_linker_0, # of connection points: 2
#     Edge 54, Type (0, 1), BuildingBlock: ZUJKAS_clean_linker_0, # of connection points: 2
#     Edge 55, Type (0, 1), BuildingBlock: ZUJKAS_clean_linker_0, # of connection points: 2
#     Edge 56, Type (0, 1), BuildingBlock: ZUJKAS_clean_linker_0, # of connection points: 2
#     Edge 57, Type (0, 1), BuildingBlock: ZUJKAS_clean_linker_0, # of connection points: 2
#     Edge 58, Type (0, 1), BuildingBlock: ZUJKAS_clean_linker_0, # of connection points: 2
#     Edge 59, Type (0, 1), BuildingBlock: ZUJKAS_clean_linker_0, # of connection points: 2
#     Edge 60, Type (0, 1), BuildingBlock: ZUJKAS_clean_linker_0, # of connection points: 2
#     Edge 61, Type (0, 1), BuildingBlock: ZUJKAS_clean_linker_0, # of connection points: 2
# Relax obj value: 0.051
# Max RMSD: 0.183
# Mean RMSD: 0.106
data_MOF--net-ocu--node1-MIFKUJ_clean_sbu_0--node2-VETTIZ_charged_sbu_0--edge1-ZUJKAS_clean_linker_0
_symmetry_space_group_name_H-M    P1
_symmetry_Int_Tables_number       1
_symmetry_cell_setting            triclinic
loop_
_symmetry_equiv_pos_as_xyz
'x, y, z'
_cell_length_a     48.574498
_cell_length_b     50.48464
_cell_length_c     48.092493
_cell_angle_alpha  91.632007
_cell_angle_beta   93.037247
_cell_angle_gamma 96.141452
loop_
_atom_site_label
_atom_site_type_symbol
_atom_site_fract_x
_atom_site_fract_y
_atom_site_fract_z
_atom_type_partial_charge
Zn0 Zn 0.22553 0.27355 0.25409 0.0
Zn1 Zn 0.2741 0.21771 0.23385 0.0
C2 C 0.19182 0.29168 0.29343 0.0
O3 O 0.17718 0.27027 0.28221 0.0
C4 C 0.28347 0.20078 0.17932 0.0
O5 O 0.3029 0.22091 0.1834 0.0
O6 O 0.19495 0.27591 0.22449 0.0
O7 O 0.26224 0.28913 0.23784 0.0
O8 O 0.28714 0.25679 0.22555 0.0
C9 C 0.19788 0.27663 0.19842 0.0
O10 O 0.22213 0.27326 0.1888 0.0
O11 O 0.21557 0.29877 0.2844 0.0
C12 C 0.30407 0.17634 0.25023 0.0
O13 O 0.27997 0.16376 0.2414 0.0
O14 O 0.30759 0.20164 0.24933 0.0
O15 O 0.24498 0.20565 0.2616 0.0
O16 O 0.21941 0.23753 0.27274 0.0
O17 O 0.26557 0.19677 0.19751 0.0
C18 C 0.28354 0.28146 0.22685 0.0
C19 C 0.22576 0.2139 0.27538 0.0
Zn20 Zn 0.74083 0.27281 0.22418 0.0
Zn21 Zn 0.7493 0.22021 0.28112 0.0
C22 C 0.69474 0.28441 0.19249 0.0
O23 O 0.70766 0.26955 0.17571 0.0
C24 C 0.75717 0.18426 0.32702 0.0
O25 O 0.73674 0.19535 0.33783 0.0
O26 O 0.76439 0.29303 0.19752 0.0
O27 O 0.76204 0.28448 0.26045 0.0
O28 O 0.77291 0.2543 0.29069 0.0
C29 C 0.76781 0.31814 0.20185 0.0
O30 O 0.75544 0.32868 0.22244 0.0
O31 O 0.70397 0.28777 0.21777 0.0
C32 C 0.69113 0.2074 0.28744 0.0
O33 O 0.6936 0.18955 0.26756 0.0
O34 O 0.71196 0.22379 0.29512 0.0
O35 O 0.74551 0.20497 0.24217 0.0
O36 O 0.73832 0.23465 0.21022 0.0
O37 O 0.76575 0.19197 0.30373 0.0
C38 C 0.77437 0.27819 0.28288 0.0
C39 C 0.74076 0.21086 0.21703 0.0
Zn40 Zn 0.77998 0.73187 0.24029 0.0
Zn41 Zn 0.72638 0.78149 0.25312 0.0
C42 C 0.8109 0.70772 0.28052 0.0
O43 O 0.8292 0.72449 0.26908 0.0
C44 C 0.68884 0.79021 0.20919 0.0
O45 O 0.6735 0.77532 0.22569 0.0
O46 O 0.80292 0.71777 0.21027 0.0
O47 O 0.73993 0.72703 0.22451 0.0
O48 O 0.71291 0.7422 0.25553 0.0
C49 C 0.79712 0.6931 0.20379 0.0
O50 O 0.77653 0.67966 0.2157 0.0
O51 O 0.78554 0.70689 0.27199 0.0
C52 C 0.70874 0.82816 0.27435 0.0
O53 O 0.72619 0.83661 0.25574 0.0
O54 O 0.70484 0.80326 0.27846 0.0
O55 O 0.76603 0.79402 0.26489 0.0
O56 O 0.79822 0.76786 0.25485 0.0
O57 O 0.71485 0.79437 0.21507 0.0
C58 C 0.7179 0.72435 0.23782 0.0
C59 C 0.79126 0.78955 0.26494 0.0
Zn60 Zn 0.23726 0.77834 0.27101 0.0
Zn61 Zn 0.28303 0.74101 0.24708 0.0
C62 C 0.19454 0.74784 0.29572 0.0
O63 O 0.18096 0.762 0.27827 0.0
C64 C 0.31946 0.7813 0.2276 0.0
O65 O 0.33553 0.76846 0.24406 0.0
O66 O 0.21632 0.81006 0.27982 0.0
O67 O 0.2771 0.78962 0.28351 0.0
O68 O 0.29461 0.75114 0.28734 0.0
C69 C 0.21833 0.81824 0.3052 0.0
O70 O 0.23488 0.80709 0.32275 0.0
O71 O 0.2209 0.75014 0.29609 0.0
C72 C 0.30729 0.71259 0.20476 0.0
O73 O 0.29252 0.72835 0.19039 0.0
O74 O 0.30662 0.71335 0.23125 0.0
O75 O 0.24339 0.72677 0.23715 0.0
O76 O 0.22693 0.76542 0.23141 0.0
O77 O 0.29358 0.7738 0.22562 0.0
C78 C 0.29439 0.77549 0.29497 0.0
C79 C 0.22615 0.74067 0.22532 0.0
Zn80 Zn 0.27253 0.77075 0.7098 0.0
Zn81 Zn 0.26222 0.7245 0.76969 0.0
C82 C 0.2465 0.80444 0.67293 0.0
O83 O 0.25563 0.78754 0.65527 0.0
C84 C 0.30796 0.71823 0.80547 0.0
O85 O 0.29279 0.73235 0.8207 0.0
O86 O 0.30376 0.77258 0.68456 0.0
O87 O 0.28957 0.77773 0.74905 0.0
O88 O 0.25907 0.7632 0.77864 0.0
C89 C 0.32169 0.79278 0.68745 0.0
O90 O 0.31995 0.81016 0.70796 0.0
O91 O 0.25075 0.80135 0.69893 0.0
C92 C 0.23818 0.67897 0.79332 0.0
O93 O 0.25225 0.66875 0.77384 0.0
O94 O 0.23907 0.70413 0.79626 0.0
O95 O 0.24494 0.70914 0.73331 0.0
O96 O 0.24849 0.73689 0.6986 0.0
O97 O 0.30052 0.71374 0.77982 0.0
C98 C 0.27551 0.78195 0.76991 0.0
C99 C 0.23975 0.71457 0.70814 0.0
Zn100 Zn 0.2792 0.22756 0.74999 0.0
Zn101 Zn 0.22511 0.28822 0.74806 0.0
C102 C 0.31297 0.21157 0.79301 0.0
O103 O 0.32989 0.22686 0.77832 0.0
C104 C 0.2054 0.30668 0.69391 0.0
O105 O 0.20697 0.28206 0.68505 0.0
O106 O 0.30013 0.20686 0.72278 0.0
O107 O 0.23897 0.22077 0.73618 0.0
O108 O 0.20907 0.25119 0.7347 0.0
C109 C 0.29531 0.18164 0.72422 0.0
O110 O 0.27678 0.17189 0.74122 0.0
O111 O 0.28712 0.20944 0.78617 0.0
C112 C 0.21347 0.32423 0.7907 0.0
O113 O 0.23255 0.33858 0.77758 0.0
O114 O 0.20686 0.30001 0.78269 0.0
O115 O 0.26663 0.29557 0.7544 0.0
O116 O 0.29708 0.26568 0.75465 0.0
O117 O 0.2129 0.31345 0.71907 0.0
C118 C 0.21479 0.22742 0.73061 0.0
C119 C 0.29145 0.2897 0.75657 0.0
Zn120 Zn 0.72092 0.26011 0.77249 0.0
Zn121 Zn 0.7752 0.23036 0.73069 0.0
C122 C 0.68053 0.21745 0.78419 0.0
O123 O 0.66676 0.22823 0.76399 0.0
C124 C 0.79262 0.27877 0.70147 0.0
O125 O 0.79508 0.29001 0.72657 0.0
O126 O 0.69901 0.2895 0.78728 0.0
O127 O 0.76055 0.26877 0.78729 0.0
O128 O 0.79266 0.24895 0.76571 0.0
C129 C 0.69937 0.29228 0.81375 0.0
O130 O 0.71408 0.27703 0.82887 0.0
O131 O 0.70521 0.22724 0.79117 0.0
C132 C 0.79243 0.18831 0.69753 0.0
O133 O 0.77376 0.19713 0.6804 0.0
O134 O 0.79638 0.19883 0.72198 0.0
O135 O 0.73461 0.2172 0.73072 0.0
O136 O 0.71298 0.25335 0.73089 0.0
O137 O 0.78289 0.25441 0.69838 0.0
C138 C 0.78554 0.26387 0.7852 0.0
C139 C 0.7165 0.23079 0.71994 0.0
Zn140 Zn 0.72508 0.78656 0.76442 0.0
Zn141 Zn 0.78028 0.73311 0.75657 0.0
C142 C 0.71454 0.80362 0.81876 0.0
O143 O 0.69693 0.78198 0.8156 0.0
C144 C 0.81582 0.71511 0.71935 0.0
O145 O 0.83002 0.73618 0.73175 0.0
O146 O 0.69176 0.80134 0.74697 0.0
O147 O 0.75605 0.79802 0.73868 0.0
O148 O 0.78653 0.76862 0.73667 0.0
C149 C 0.68675 0.80166 0.72081 0.0
O150 O 0.70239 0.78955 0.70417 0.0
O151 O 0.73147 0.80896 0.79993 0.0
C152 C 0.80768 0.70908 0.80025 0.0
O153 O 0.78714 0.69081 0.79257 0.0
O154 O 0.80928 0.73126 0.78819 0.0
O155 O 0.74254 0.71775 0.77085 0.0
O156 O 0.71288 0.74796 0.77462 0.0
O157 O 0.79165 0.70772 0.72718 0.0
C158 C 0.77841 0.79082 0.72985 0.0
C159 C 0.7189 0.72416 0.77724 0.0
Fe160 Fe 0.99905 0.05849 0.48524 0.0
O161 O 0.99997 0.01978 0.48613 0.0
Fe162 Fe 0.03698 0.00549 0.50068 0.0
Fe163 Fe 0.97261 0.99546 0.50591 0.0
O164 O 0.00289 0.02016 0.48544 0.0
O165 O 0.0096 0.9811 0.52046 0.0
O166 O 0.00664 0.98067 0.52108 0.0
Fe167 Fe 0.01039 0.94227 0.52078 0.0
C168 C 0.96863 0.0457 0.53891 0.0
O169 O 0.9638 0.04684 0.46015 0.0
O170 O 0.94064 0.01457 0.48619 0.0
O171 O 0.03725 0.94145 0.48889 0.0
O172 O 0.03533 0.97941 0.46681 0.0
O173 O 0.06112 0.03369 0.47671 0.0
O174 O 0.02849 0.0577 0.45557 0.0
O175 O 0.96931 0.96958 0.47189 0.0
O176 O 0.97757 0.93181 0.49187 0.0
C177 C 0.05332 0.05028 0.45805 0.0
O178 O 0.0453 0.9538 0.54631 0.0
O179 O 0.06892 0.98628 0.52074 0.0
O180 O 0.97259 0.05956 0.51745 0.0
O181 O 0.9741 0.02161 0.53978 0.0
C182 C 0.94165 0.03186 0.46645 0.0
C183 C 0.96766 0.9443 0.47166 0.0
C184 C 0.95591 0.95002 0.54777 0.0
O185 O 0.94833 0.9672 0.52967 0.0
O186 O 0.98073 0.9426 0.55017 0.0
C187 C 0.04104 0.95542 0.4675 0.0
O188 O 0.04045 0.03168 0.53449 0.0
O189 O 0.032 0.06911 0.51375 0.0
C190 C 0.06742 0.96909 0.54061 0.0
C191 C 0.04199 0.05697 0.53418 0.0
Fe192 Fe 0.49124 0.93992 0.97457 0.0
O193 O 0.4951 0.97854 0.98104 0.0
Fe194 Fe 0.46344 0.99639 0.99942 0.0
Fe195 Fe 0.52704 0.99866 0.00286 0.0
O196 O 0.49259 0.97875 0.98047 0.0
O197 O 0.49533 0.0161 0.02177 0.0
O198 O 0.49793 0.01592 0.02231 0.0
Fe199 Fe 0.4994 0.05479 0.02812 0.0
C200 C 0.52992 0.94556 0.02801 0.0
O201 O 0.52436 0.94929 0.94989 0.0
O202 O 0.55347 0.97813 0.97918 0.0
O203 O 0.46969 0.06132 0.99752 0.0
O204 O 0.46418 0.02492 0.96969 0.0
O205 O 0.43359 0.97316 0.97325 0.0
O206 O 0.45902 0.94673 0.94678 0.0
O207 O 0.52843 0.02689 0.97307 0.0
O208 O 0.52965 0.0636 1.00002 0.0
C209 C 0.43654 0.95748 0.95183 0.0
O210 O 0.46615 0.04556 0.05264 0.0
O211 O 0.43695 0.01738 0.02276 0.0
O212 O 0.52105 0.93348 0.00512 0.0
O213 O 0.52739 0.97013 0.03265 0.0
C214 C 0.54857 0.9617 0.95764 0.0
C215 C 0.53429 0.05185 0.9772 0.0
C216 C 0.55435 0.03785 0.05 0.0
O217 O 0.55699 0.02229 0.02843 0.0
O218 O 0.53171 0.04799 0.0558 0.0
C219 C 0.46139 0.0494 0.97441 0.0
O220 O 0.46099 0.96819 0.029 0.0
O221 O 0.46112 0.93105 0.00281 0.0
C222 C 0.44183 0.03361 0.04449 0.0
C223 C 0.4555 0.94318 0.02509 0.0
Fe224 Fe 0.01075 0.53475 0.0042 0.0
O225 O 0.98901 0.50488 0.98216 0.0
Fe226 Fe 0.06556 0.50483 0.03491 0.0
Fe227 Fe 0.94931 0.5035 0.97268 0.0
O228 O 0.02566 0.50589 0.02615 0.0
O229 O 0.02567 0.50337 0.02583 0.0
O230 O 0.98904 0.50245 0.98183 0.0
Fe231 Fe 0.0042 0.47352 0.00342 0.0
C232 C 0.95491 0.54065 0.02532 0.0
O233 O 0.99232 0.56138 0.97787 0.0
O234 O 0.96236 0.53442 0.94757 0.0
O235 O 0.03502 0.47196 0.9759 0.0
O236 O 0.07185 0.47521 0.00588 0.0
O237 O 0.07791 0.53285 0.00644 0.0
O238 O 0.04127 0.53348 0.97673 0.0
O239 O 0.95575 0.47163 0.9468 0.0
O240 O 0.97943 0.44584 0.97678 0.0
C241 C 0.06726 0.53662 0.98232 0.0
O242 O 0.02304 0.4469 0.02941 0.0
O243 O 0.05259 0.47394 0.06007 0.0
O244 O 0.98 0.53708 0.0316 0.0
O245 O 0.94293 0.53296 0.00178 0.0
C246 C 0.97611 0.55722 0.95529 0.0
C247 C 0.96467 0.44926 0.95397 0.0
C248 C 0.94737 0.46994 0.02465 0.0
O249 O 0.93686 0.47525 0.00089 0.0
O250 O 0.9733 0.4737 0.03077 0.0
C251 C 0.06004 0.46813 0.98211 0.0
O252 O 0.0595 0.53698 0.06066 0.0
O253 O 0.03583 0.56252 0.03047 0.0
C254 C 0.03916 0.45106 0.05206 0.0
C255 C 0.0507 0.55936 0.0533 0.0
Fe256 Fe 0.50375 0.50664 0.97188 0.0
O257 O 0.52423 0.52261 0.00651 0.0
Fe258 Fe 0.43875 0.48485 0.9966 0.0
Fe259 Fe 0.56469 0.52451 0.01238 0.0
O260 O 0.47955 0.48725 0.99919 0.0
O261 O 0.47921 0.48699 0.0023 0.0
O262 O 0.52385 0.52241 0.0096 0.0
Fe263 Fe 0.4995 0.50318 0.03691 0.0
C264 C 0.55402 0.47722 0.96963 0.0
O265 O 0.53267 0.53035 0.94796 0.0
O266 O 0.56355 0.55212 0.98128 0.0
O267 O 0.47528 0.53435 0.03771 0.0
O268 O 0.43385 0.51155 0.02899 0.0
O269 O 0.43742 0.5155 0.96898 0.0
O270 O 0.47973 0.53779 0.97078 0.0
O271 O 0.55884 0.5489 0.04622 0.0
O272 O 0.52477 0.52417 0.06937 0.0
C273 C 0.45382 0.5362 0.96444 0.0
O274 O 0.47054 0.47931 0.0608 0.0
O275 O 0.44034 0.45687 0.02728 0.0
O276 O 0.52776 0.47535 0.97068 0.0
O277 O 0.56954 0.49716 0.98056 0.0
C278 C 0.55299 0.54876 0.95581 0.0
C279 C 0.54454 0.54378 0.06794 0.0
C280 C 0.54931 0.47362 0.0448 0.0
O281 O 0.56576 0.49432 0.0405 0.0
O282 O 0.52348 0.47208 0.03826 0.0
C283 C 0.44911 0.53177 0.03965 0.0
O284 O 0.44456 0.46094 0.96233 0.0
O285 O 0.4784 0.48611 0.93935 0.0
C286 C 0.45078 0.46035 0.05279 0.0
C287 C 0.45866 0.46651 0.94058 0.0
Fe288 Fe 0.99611 0.47524 0.49475 0.0
O289 O 0.97827 0.50239 0.51641 0.0
Fe290 Fe 0.01653 0.50939 0.43612 0.0
Fe291 Fe 0.97695 0.50246 0.5571 0.0
O292 O 0.01483 0.50686 0.47665 0.0
O293 O 0.01462 0.5094 0.47663 0.0
O294 O 0.97822 0.50498 0.5165 0.0
Fe295 Fe 0.99684 0.53656 0.49824 0.0
C296 C 0.95305 0.44774 0.53352 0.0
O297 O 0.02889 0.47664 0.52364 0.0
O298 O 0.00624 0.47585 0.56263 0.0
O299 O 0.0195 0.56634 0.47628 0.0
O300 O 0.04394 0.54276 0.44594 0.0
O301 O 0.04333 0.48095 0.44252 0.0
O302 O 0.01834 0.45097 0.46964 0.0
O303 O 0.00781 0.53356 0.56611 0.0
O304 O 0.02978 0.53928 0.52691 0.0
C305 C 0.03867 0.45786 0.45368 0.0
O306 O 0.96395 0.53522 0.46935 0.0
O307 O 0.98666 0.53539 0.4303 0.0
O308 O 0.97299 0.44551 0.51666 0.0
O309 O 0.94914 0.46941 0.54732 0.0
C310 C 0.02732 0.47145 0.54923 0.0
C311 C 0.02906 0.54204 0.55317 0.0
C312 C 0.95533 0.55448 0.54025 0.0
O313 O 0.9505 0.53137 0.55131 0.0
O314 O 0.97514 0.56095 0.52359 0.0
C315 C 0.03947 0.56438 0.45946 0.0
O316 O 0.98634 0.47789 0.42702 0.0
O317 O 0.96343 0.47245 0.46568 0.0
C318 C 0.96547 0.53978 0.44357 0.0
C319 C 0.96488 0.46925 0.43953 0.0
Fe320 Fe 0.54175 0.96065 0.4988 0.0
O321 O 0.52937 0.99619 0.50232 0.0
Fe322 Fe 0.50991 0.01112 0.46726 0.0
Fe323 Fe 0.5028 0.0059 0.53026 0.0
O324 O 0.52984 0.99654 0.49971 0.0
O325 O 0.48395 0.02162 0.4954 0.0
O326 O 0.4836 0.02139 0.49792 0.0
Fe327 Fe 0.47172 0.05721 0.49864 0.0
C328 C 0.48564 0.94726 0.52303 0.0
O329 O 0.56211 0.97246 0.53665 0.0
O330 O 0.52673 0.98792 0.56062 0.0
O331 O 0.50207 0.07459 0.47482 0.0
O332 O 0.53462 0.04668 0.47321 0.0
O333 O 0.54017 0.99782 0.44183 0.0
O334 O 0.56959 0.97825 0.47227 0.0
O335 O 0.52745 0.04094 0.53899 0.0
O336 O 0.49646 0.07026 0.53386 0.0
C337 C 0.56332 0.9878 0.4482 0.0
O338 O 0.45079 0.04493 0.46118 0.0
O339 O 0.48521 0.02805 0.43683 0.0
O340 O 0.51087 0.94291 0.52176 0.0
O341 O 0.47808 0.97062 0.52241 0.0
C342 C 0.55057 0.97831 0.55951 0.0
C343 C 0.51988 0.064 0.5432 0.0
C344 C 0.44957 0.02971 0.54929 0.0
O345 O 0.4722 0.01879 0.5556 0.0
O346 O 0.44392 0.04003 0.5255 0.0
C347 C 0.52681 0.06983 0.47099 0.0
O348 O 0.48516 0.97567 0.46009 0.0
O349 O 0.51766 0.94787 0.46322 0.0
C350 C 0.46153 0.03787 0.43823 0.0
C351 C 0.49326 0.95284 0.45572 0.0
H352 H 0.2303 0.16059 0.28402 0.0
H353 H 0.2044 0.13079 0.31513 0.0
H354 H 0.15987 0.19536 0.34211 0.0
H355 H 0.18584 0.22534 0.31134 0.0
H356 H 0.17658 0.16589 0.38652 0.0
H357 H 0.12424 0.09786 0.3027 0.0
H358 H 0.16141 0.10194 0.30244 0.0
H359 H 0.1423 0.12988 0.29566 0.0
C360 C 0.21498 0.16854 0.2965 0.0
C361 C 0.21016 0.19554 0.29476 0.0
C362 C 0.19999 0.15133 0.31427 0.0
C363 C 0.17968 0.16051 0.33085 0.0
C364 C 0.17523 0.18756 0.32956 0.0
H365 H 0.04235 0.07494 0.40936 0.0
H366 H 0.07446 0.09982 0.37995 0.0
C367 C 0.19012 0.20475 0.31175 0.0
C368 C 0.16306 0.14213 0.34949 0.0
H369 H 0.11691 0.08566 0.34901 0.0
C370 C 0.16366 0.14828 0.37828 0.0
C371 C 0.14585 0.11915 0.33897 0.0
C372 C 0.14311 0.11184 0.30824 0.0
C373 C 0.1477 0.13232 0.3966 0.0
C374 C 0.13067 0.10923 0.3861 0.0
C375 C 0.13012 0.10307 0.35732 0.0
C376 C 0.11154 0.09255 0.40407 0.0
C377 C 0.14849 0.14088 0.42696 0.0
C378 C 0.12138 0.07929 0.42744 0.0
C379 C 0.10283 0.0647 0.44452 0.0
C380 C 0.07391 0.06308 0.43875 0.0
C381 C 0.06435 0.07574 0.41484 0.0
C382 C 0.08279 0.09006 0.3978 0.0
H383 H 0.15788 0.16182 0.43067 0.0
H384 H 0.12729 0.13894 0.43478 0.0
H385 H 0.1611 0.12783 0.43929 0.0
H386 H 0.14345 0.08034 0.4326 0.0
H387 H 0.11111 0.05532 0.46264 0.0
H388 H 0.80062 0.15823 0.31114 0.0
H389 H 0.82298 0.12427 0.3362 0.0
H390 H 0.76559 0.1279 0.40128 0.0
H391 H 0.74328 0.16231 0.37651 0.0
H392 H 0.81909 0.13092 0.42164 0.0
H393 H 0.79859 0.04595 0.34576 0.0
H394 H 0.81396 0.07527 0.32993 0.0
H395 H 0.78016 0.07513 0.34367 0.0
C396 C 0.79256 0.15169 0.33067 0.0
C397 C 0.77015 0.16302 0.34181 0.0
C398 C 0.80522 0.13205 0.34485 0.0
C399 C 0.79559 0.12312 0.37033 0.0
C400 C 0.77317 0.1343 0.3815 0.0
H401 H 0.88897 0.02679 0.48515 0.0
H402 H 0.84802 0.04403 0.46302 0.0
C403 C 0.76049 0.15401 0.36733 0.0
C404 C 0.81048 0.10372 0.38621 0.0
H405 H 0.83728 0.04418 0.3793 0.0
C406 C 0.82254 0.11167 0.41271 0.0
C407 C 0.81482 0.07854 0.37457 0.0
C408 C 0.80094 0.0681 0.34703 0.0
C409 C 0.84043 0.09597 0.427 0.0
C410 C 0.84612 0.07156 0.41455 0.0
C411 C 0.83287 0.06292 0.38876 0.0
C412 C 0.86864 0.05687 0.42615 0.0
C413 C 0.85454 0.10641 0.45446 0.0
C414 C 0.89324 0.0573 0.41213 0.0
C415 C 0.91649 0.04758 0.42464 0.0
C416 C 0.91555 0.03703 0.45136 0.0
C417 C 0.89028 0.03477 0.46453 0.0
C418 C 0.86697 0.04476 0.45203 0.0
H419 H 0.85035 0.12714 0.45962 0.0
H420 H 0.84702 0.09348 0.47137 0.0
H421 H 0.87732 0.10592 0.45404 0.0
H422 H 0.8949 0.06649 0.39211 0.0
H423 H 0.93559 0.04934 0.41384 0.0
H424 H 0.84666 0.78467 0.27542 0.0
H425 H 0.87936 0.81247 0.30738 0.0
H426 H 0.81687 0.86497 0.32199 0.0
H427 H 0.784 0.8374 0.29024 0.0
H428 H 0.89866 0.86998 0.31045 0.0
H429 H 0.83789 0.83525 0.39976 0.0
H430 H 0.83368 0.8185 0.36589 0.0
H431 H 0.81834 0.84885 0.37184 0.0
C432 C 0.83997 0.80238 0.28502 0.0
C433 C 0.81253 0.80858 0.28044 0.0
C434 C 0.85871 0.81824 0.30331 0.0
C435 C 0.85036 0.84049 0.31739 0.0
C436 C 0.82358 0.84763 0.31163 0.0
H437 H 0.94375 0.96359 0.42449 0.0
H438 H 0.91715 0.93817 0.38615 0.0
C439 C 0.80484 0.83186 0.29336 0.0
C440 C 0.86891 0.85521 0.33945 0.0
H441 H 0.87501 0.86904 0.40957 0.0
C442 C 0.89357 0.86979 0.33213 0.0
C443 C 0.86238 0.85457 0.36776 0.0
C444 C 0.83677 0.83829 0.37695 0.0
C445 C 0.91159 0.88424 0.3524 0.0
C446 C 0.90461 0.8842 0.3806 0.0
C447 C 0.88023 0.86918 0.38792 0.0
C448 C 0.9222 0.89959 0.40298 0.0
C449 C 0.9381 0.89916 0.34355 0.0
C450 C 0.93364 0.88638 0.42537 0.0
C451 C 0.9488 0.90083 0.44741 0.0
C452 C 0.95262 0.92888 0.44766 0.0
C453 C 0.94131 0.94204 0.42502 0.0
C454 C 0.92622 0.92753 0.40295 0.0
H455 H 0.94366 0.89201 0.32274 0.0
H456 H 0.93542 0.92066 0.34238 0.0
H457 H 0.95556 0.89708 0.35892 0.0
H458 H 0.93065 0.86482 0.42587 0.0
H459 H 0.95717 0.89 0.46443 0.0
H460 H 0.1757 0.83982 0.27707 0.0
H461 H 0.14369 0.86902 0.29646 0.0
H462 H 0.18773 0.86915 0.37673 0.0
H463 H 0.21983 0.84052 0.35757 0.0
H464 H 0.10884 0.85769 0.33829 0.0
H465 H 0.18012 0.94764 0.36887 0.0
H466 H 0.18946 0.92202 0.34529 0.0
H467 H 0.19279 0.91824 0.38241 0.0
C468 C 0.17885 0.84648 0.29872 0.0
C469 C 0.20039 0.83788 0.31574 0.0
C470 C 0.1605 0.86311 0.30978 0.0
C471 C 0.16355 0.87164 0.33796 0.0
C472 C 0.18532 0.86341 0.35479 0.0
H473 H 0.05241 0.904 0.45993 0.0
H474 H 0.07927 0.88581 0.42409 0.0
C475 C 0.20358 0.84683 0.34381 0.0
C476 C 0.14289 0.88733 0.35061 0.0
H477 H 0.13771 0.94161 0.39328 0.0
C478 C 0.11506 0.87631 0.34987 0.0
C479 C 0.1508 0.91189 0.36533 0.0
C480 C 0.17988 0.92578 0.36528 0.0
C481 C 0.09537 0.88824 0.36495 0.0
C482 C 0.10386 0.91155 0.38161 0.0
C483 C 0.13124 0.92354 0.38084 0.0
C484 C 0.08547 0.92243 0.40183 0.0
C485 C 0.06577 0.87547 0.36326 0.0
C486 C 0.08022 0.94927 0.40155 0.0
C487 C 0.06492 0.95988 0.42227 0.0
C488 C 0.05487 0.94391 0.44385 0.0
C489 C 0.05975 0.91692 0.44367 0.0
C490 C 0.07495 0.90638 0.423 0.0
H491 H 0.06063 0.8642 0.34314 0.0
H492 H 0.06296 0.86115 0.38022 0.0
H493 H 0.05094 0.89057 0.36556 0.0
H494 H 0.08833 0.96209 0.38554 0.0
H495 H 0.06168 0.98077 0.42182 0.0
H496 H 0.22035 0.84067 0.70281 0.0
H497 H 0.1945 0.87617 0.68435 0.0
H498 H 0.2134 0.8539 0.60088 0.0
H499 H 0.23912 0.8185 0.61896 0.0
H500 H 0.22016 0.91277 0.61697 0.0
H501 H 0.11798 0.85766 0.63739 0.0
H502 H 0.1443 0.86131 0.66544 0.0
H503 H 0.149 0.84111 0.63514 0.0
C504 C 0.2191 0.84341 0.68055 0.0
C505 C 0.23162 0.8266 0.66235 0.0
C506 C 0.20436 0.86369 0.67005 0.0
C507 C 0.20202 0.86755 0.64126 0.0
C508 C 0.21505 0.85127 0.62316 0.0
H509 H 0.11679 0.95763 0.52146 0.0
H510 H 0.15287 0.93717 0.54819 0.0
C511 C 0.22962 0.83095 0.63357 0.0
C512 C 0.18479 0.88754 0.62963 0.0
H513 H 0.11751 0.89857 0.61582 0.0
C514 C 0.19771 0.90989 0.61689 0.0
C515 C 0.15557 0.88364 0.62959 0.0
C516 C 0.14071 0.8596 0.64245 0.0
C517 C 0.18206 0.9285 0.604 0.0
C518 C 0.15275 0.92421 0.60325 0.0
C519 C 0.13996 0.90201 0.61646 0.0
C520 C 0.13456 0.94151 0.58798 0.0
C521 C 0.19711 0.95264 0.59156 0.0
C522 C 0.11253 0.95128 0.6014 0.0
C523 C 0.09175 0.96246 0.58607 0.0
C524 C 0.09279 0.9645 0.55709 0.0
C525 C 0.11588 0.95675 0.54389 0.0
C526 C 0.1365 0.94507 0.55919 0.0
H527 H 0.21812 0.95769 0.60183 0.0
H528 H 0.19966 0.9483 0.56915 0.0
H529 H 0.18538 0.97026 0.59337 0.0
H530 H 0.11054 0.9488 0.62353 0.0
H531 H 0.07402 0.96816 0.59664 0.0
H532 H 0.16473 0.23645 0.70582 0.0
H533 H 0.13302 0.20536 0.67632 0.0
H534 H 0.18526 0.14294 0.69182 0.0
H535 H 0.21731 0.17387 0.7213 0.0
H536 H 0.15397 0.17717 0.62726 0.0
H537 H 0.10246 0.10936 0.70275 0.0
H538 H 0.11722 0.14295 0.71251 0.0
H539 H 0.1395 0.11735 0.70728 0.0
C540 C 0.1693 0.21599 0.70344 0.0
C541 C 0.19369 0.20772 0.71591 0.0
C542 C 0.15114 0.19828 0.68651 0.0
C543 C 0.15675 0.17187 0.68205 0.0
C544 C 0.18043 0.16319 0.69528 0.0
H545 H 0.07819 0.04054 0.57423 0.0
H546 H 0.10572 0.06813 0.6106 0.0
C547 C 0.19876 0.18094 0.71205 0.0
C548 C 0.13925 0.1542 0.66151 0.0
H549 H 0.09231 0.09868 0.65487 0.0
C550 C 0.14039 0.16006 0.63325 0.0
C551 C 0.12192 0.13174 0.66946 0.0
C552 C 0.11993 0.12489 0.69965 0.0
C553 C 0.12477 0.14392 0.6126 0.0
C554 C 0.10684 0.12175 0.62052 0.0
C555 C 0.10591 0.11575 0.64884 0.0
C556 C 0.08892 0.10469 0.59962 0.0
C557 C 0.1282 0.15044 0.58245 0.0
C558 C 0.06976 0.11591 0.58188 0.0
C559 C 0.05426 0.1003 0.56093 0.0
C560 C 0.05722 0.073 0.55756 0.0
C561 C 0.07548 0.06152 0.57619 0.0
C562 C 0.09122 0.07725 0.597 0.0
H563 H 0.14824 0.16261 0.57964 0.0
H564 H 0.12715 0.13204 0.56905 0.0
H565 H 0.11131 0.16217 0.57518 0.0
H566 H 0.06703 0.13687 0.58403 0.0
H567 H 0.04004 0.10969 0.54726 0.0
H568 H 0.7902 0.16442 0.64577 0.0
H569 H 0.82185 0.135 0.62723 0.0
H570 H 0.86686 0.13731 0.70715 0.0
H571 H 0.83543 0.16746 0.72585 0.0
H572 H 0.90142 0.14627 0.66591 0.0
H573 H 0.82883 0.05708 0.63634 0.0
H574 H 0.81683 0.08625 0.62159 0.0
H575 H 0.81955 0.08352 0.6589 0.0
C576 C 0.80657 0.15844 0.65961 0.0
C577 C 0.81022 0.16833 0.68735 0.0
C578 C 0.82457 0.14138 0.64898 0.0
C579 C 0.84649 0.13348 0.66588 0.0
C580 C 0.84997 0.14295 0.69376 0.0
H581 H 0.94641 0.02083 0.58422 0.0
H582 H 0.91968 0.04035 0.61996 0.0
C583 C 0.83196 0.16014 0.70443 0.0
C584 C 0.86687 0.11715 0.6536 0.0
H585 H 0.87137 0.06202 0.61192 0.0
C586 C 0.89491 0.12759 0.65454 0.0
C587 C 0.85864 0.09247 0.63922 0.0
C588 C 0.82936 0.07905 0.63921 0.0
C589 C 0.91449 0.11496 0.64 0.0
C590 C 0.90571 0.09156 0.62357 0.0
C591 C 0.87809 0.08016 0.62415 0.0
C592 C 0.92408 0.08003 0.60372 0.0
C593 C 0.94432 0.12709 0.64205 0.0
C594 C 0.9355 0.0958 0.58276 0.0
C595 C 0.95078 0.08479 0.56246 0.0
C596 C 0.95483 0.0576 0.56237 0.0
C597 C 0.94386 0.04187 0.58373 0.0
C598 C 0.92849 0.05297 0.60413 0.0
H599 H 0.94945 0.13828 0.66222 0.0
H600 H 0.9588 0.11164 0.63996 0.0
H601 H 0.94769 0.1414 0.62516 0.0
H602 H 0.93184 0.11654 0.58152 0.0
H603 H 0.95884 0.09756 0.54637 0.0
H604 H 0.76467 0.83659 0.70484 0.0
H605 H 0.7915 0.86462 0.67285 0.0
H606 H 0.85729 0.8139 0.67994 0.0
H607 H 0.83036 0.78549 0.71123 0.0
H608 H 0.84019 0.89462 0.67739 0.0
H609 H 0.84825 0.8157 0.59722 0.0
H610 H 0.82559 0.81082 0.62557 0.0
H611 H 0.86194 0.80688 0.63062 0.0
C612 C 0.78481 0.83128 0.69954 0.0
C613 C 0.79508 0.80844 0.71064 0.0
C614 C 0.80022 0.84743 0.68117 0.0
C615 C 0.82637 0.84128 0.67323 0.0
C616 C 0.8369 0.81884 0.68481 0.0
H617 H 0.96339 0.90943 0.5831 0.0
H618 H 0.93038 0.88539 0.61196 0.0
C619 C 0.82145 0.8026 0.70301 0.0
C620 C 0.84278 0.85843 0.65331 0.0
H621 H 0.87885 0.85578 0.59404 0.0
C622 C 0.84833 0.8861 0.65899 0.0
C623 C 0.8534 0.84768 0.62898 0.0
C624 C 0.84675 0.8187 0.62005 0.0
C625 C 0.86497 0.90284 0.64191 0.0
C626 C 0.87639 0.89185 0.61824 0.0
C627 C 0.87029 0.86435 0.61218 0.0
C628 C 0.89635 0.90792 0.60068 0.0
C629 C 0.87113 0.93205 0.64989 0.0
C630 C 0.88852 0.92895 0.58433 0.0
C631 C 0.90761 0.94298 0.56732 0.0
C632 C 0.93506 0.93639 0.56636 0.0
C633 C 0.94266 0.91545 0.58306 0.0
C634 C 0.92366 0.90145 0.59971 0.0
H635 H 0.86449 0.93673 0.67107 0.0
H636 H 0.89367 0.93847 0.64916 0.0
H637 H 0.85999 0.94388 0.63476 0.0
H638 H 0.8675 0.93423 0.58434 0.0
H639 H 0.90079 0.95881 0.55483 0.0
H640 H 0.3182 0.20392 0.13668 0.0
H641 H 0.33226 0.16696 0.10924 0.0
H642 H 0.27146 0.11268 0.1468 0.0
H643 H 0.25753 0.14969 0.17487 0.0
H644 H 0.32247 0.09717 0.15312 0.0
H645 H 0.30334 0.11998 0.04285 0.0
H646 H 0.32139 0.14843 0.0615 0.0
H647 H 0.28694 0.13606 0.0706 0.0
C648 C 0.30722 0.18427 0.13856 0.0
C649 C 0.28689 0.17974 0.15812 0.0
C650 C 0.31516 0.16313 0.12265 0.0
C651 C 0.30277 0.13704 0.12575 0.0
C652 C 0.2812 0.13268 0.14396 0.0
H653 H 0.38643 0.02223 0.02906 0.0
H654 H 0.34752 0.04107 0.04964 0.0
C655 C 0.27319 0.15389 0.15991 0.0
C656 C 0.31531 0.11433 0.11316 0.0
H657 H 0.34212 0.094 0.05301 0.0
C658 C 0.32614 0.09604 0.13108 0.0
C659 C 0.31977 0.11247 0.08438 0.0
C660 C 0.30694 0.13014 0.06372 0.0
C661 C 0.34322 0.07746 0.12138 0.0
C662 C 0.35002 0.07751 0.09316 0.0
C663 C 0.33728 0.09423 0.07477 0.0
C664 C 0.37262 0.06288 0.08301 0.0
C665 C 0.35453 0.05854 0.14169 0.0
C666 C 0.39959 0.06856 0.09517 0.0
C667 C 0.42185 0.05786 0.08354 0.0
C668 C 0.4177 0.04139 0.05926 0.0
C669 C 0.39045 0.03478 0.04778 0.0
C670 C 0.36815 0.04558 0.05946 0.0
H671 H 0.34012 0.05414 0.15856 0.0
H672 H 0.3582 0.03949 0.13114 0.0
H673 H 0.3745 0.06794 0.15155 0.0
H674 H 0.40367 0.08232 0.11297 0.0
H675 H 0.44247 0.0634 0.093 0.0
H676 H 0.78789 0.37015 0.21227 0.0
H677 H 0.81905 0.39815 0.18426 0.0
H678 H 0.81977 0.33288 0.12449 0.0
H679 H 0.78918 0.3045 0.15277 0.0
H680 H 0.87143 0.35741 0.13821 0.0
H681 H 0.79932 0.43232 0.11175 0.0
H682 H 0.80504 0.42826 0.14849 0.0
H683 H 0.78799 0.40102 0.12694 0.0
C684 C 0.79455 0.36181 0.19307 0.0
C685 C 0.78602 0.33519 0.1846 0.0
C686 C 0.81224 0.37787 0.17705 0.0
C687 C 0.8213 0.36769 0.15211 0.0
C688 C 0.81289 0.3411 0.14366 0.0
H689 H 0.89309 0.4499 0.01579 0.0
H690 H 0.86351 0.42624 0.04846 0.0
C691 C 0.79541 0.32495 0.15979 0.0
C692 C 0.84012 0.38449 0.13507 0.0
H693 H 0.84561 0.44157 0.09856 0.0
C694 C 0.86583 0.37582 0.12952 0.0
C695 C 0.83256 0.40836 0.12365 0.0
C696 C 0.80463 0.41796 0.12776 0.0
C697 C 0.88419 0.3903 0.11261 0.0
C698 C 0.87685 0.41442 0.1016 0.0
C699 C 0.85123 0.4232 0.10732 0.0
C700 C 0.89468 0.42996 0.08261 0.0
C701 C 0.91081 0.37916 0.10595 0.0
C702 C 0.92183 0.44034 0.09123 0.0
C703 C 0.93894 0.45368 0.07251 0.0
C704 C 0.92899 0.45715 0.045 0.0
C705 C 0.90143 0.44754 0.03681 0.0
C706 C 0.88447 0.43403 0.05544 0.0
H707 H 0.91006 0.35761 0.11032 0.0
H708 H 0.91526 0.38185 0.08373 0.0
H709 H 0.92824 0.38988 0.11901 0.0
H710 H 0.92984 0.43792 0.11234 0.0
H711 H 0.95997 0.46112 0.07956 0.0
H712 H 0.71186 0.83175 0.17914 0.0
H713 H 0.68713 0.86055 0.14855 0.0
H714 H 0.61018 0.81219 0.16007 0.0
H715 H 0.63452 0.78353 0.19062 0.0
H716 H 0.65287 0.84973 0.09897 0.0
H717 H 0.59435 0.88761 0.18477 0.0
H718 H 0.62442 0.86997 0.19089 0.0
H719 H 0.59116 0.85189 0.18142 0.0
C720 C 0.68974 0.82704 0.17484 0.0
C721 C 0.67514 0.80544 0.18751 0.0
C722 C 0.67563 0.84358 0.15746 0.0
C723 C 0.64672 0.83888 0.1526 0.0
C724 C 0.63238 0.81658 0.1641 0.0
H725 H 0.53563 0.89233 0.02708 0.0
H726 H 0.56524 0.86857 0.05779 0.0
C727 C 0.6464 0.80009 0.18141 0.0
C728 C 0.63128 0.85731 0.13582 0.0
H729 H 0.57845 0.89678 0.13855 0.0
C730 C 0.63677 0.8602 0.10766 0.0
C731 C 0.61061 0.87138 0.14731 0.0
C732 C 0.60492 0.87032 0.17783 0.0
C733 C 0.62132 0.87587 0.09039 0.0
C734 C 0.59955 0.88866 0.10152 0.0
C735 C 0.59489 0.88671 0.12996 0.0
C736 C 0.58075 0.90325 0.08369 0.0
C737 C 0.62841 0.87856 0.06036 0.0
C738 C 0.57865 0.93049 0.08875 0.0
C739 C 0.56148 0.94423 0.07125 0.0
C740 C 0.54599 0.93089 0.04847 0.0
C741 C 0.54743 0.90337 0.0442 0.0
C742 C 0.56453 0.88973 0.06165 0.0
H743 H 0.65004 0.87432 0.05726 0.0
H744 H 0.61431 0.86401 0.04715 0.0
H745 H 0.62583 0.89887 0.0531 0.0
H746 H 0.59078 0.94125 0.10586 0.0
H747 H 0.5609 0.96539 0.07517 0.0
H748 H 0.22578 0.69228 0.19884 0.0
H749 H 0.1897 0.66957 0.16673 0.0
H750 H 0.14158 0.73616 0.17392 0.0
H751 H 0.17782 0.75928 0.20619 0.0
H752 H 0.11255 0.68252 0.18197 0.0
H753 H 0.1689 0.6895 0.08468 0.0
H754 H 0.18885 0.67876 0.11398 0.0
H755 H 0.17812 0.71175 0.11462 0.0
C756 C 0.20761 0.70222 0.19353 0.0
C757 C 0.20465 0.72759 0.20504 0.0
C758 C 0.1871 0.68927 0.17505 0.0
C759 C 0.16319 0.70135 0.16777 0.0
C760 C 0.16004 0.72666 0.17917 0.0
H761 H 0.05218 0.6119 0.03971 0.0
H762 H 0.07417 0.65074 0.06731 0.0
C763 C 0.18075 0.73981 0.19752 0.0
C764 C 0.14113 0.68666 0.14924 0.0
H765 H 0.13048 0.65548 0.08516 0.0
C766 C 0.11615 0.67702 0.1606 0.0
C767 C 0.14578 0.67985 0.12131 0.0
C768 C 0.17176 0.69069 0.10778 0.0
C769 C 0.09647 0.65917 0.14529 0.0
C770 C 0.10215 0.6507 0.11811 0.0
C771 C 0.12624 0.66186 0.10609 0.0
C772 C 0.08522 0.62814 0.10299 0.0
C773 C 0.07019 0.64889 0.15861 0.0
C774 C 0.08391 0.60267 0.11406 0.0
C775 C 0.07157 0.58048 0.09835 0.0
C776 C 0.06032 0.58329 0.07118 0.0
C777 C 0.06056 0.60902 0.06059 0.0
C778 C 0.07314 0.63124 0.0763 0.0
H779 H 0.06484 0.6631 0.17501 0.0
H780 H 0.0525 0.64522 0.14289 0.0
H781 H 0.07322 0.62978 0.16858 0.0
H782 H 0.09357 0.59977 0.13441 0.0
H783 H 0.07165 0.561 0.10722 0.0
H784 H 0.31975 0.81953 0.76572 0.0
H785 H 0.33558 0.85664 0.7981 0.0
H786 H 0.26498 0.83682 0.84725 0.0
H787 H 0.2493 0.79895 0.81523 0.0
H788 H 0.31337 0.90115 0.81643 0.0
H789 H 0.32901 0.83307 0.90373 0.0
H790 H 0.32156 0.82083 0.86827 0.0
H791 H 0.29435 0.83152 0.88836 0.0
C792 C 0.30741 0.82309 0.78327 0.0
C793 C 0.28349 0.80598 0.78812 0.0
C794 C 0.31646 0.84442 0.80175 0.0
C795 C 0.30174 0.84922 0.82536 0.0
C796 C 0.27701 0.83309 0.82951 0.0
H797 H 0.38177 0.95226 0.96379 0.0
H798 H 0.34257 0.93124 0.93369 0.0
C799 C 0.26805 0.81152 0.81114 0.0
C800 C 0.31358 0.87008 0.84624 0.0
H801 H 0.34485 0.87811 0.91164 0.0
C802 C 0.31983 0.89623 0.83742 0.0
C803 C 0.32189 0.86366 0.87369 0.0
C804 C 0.3166 0.83575 0.88414 0.0
C805 C 0.33548 0.91571 0.85478 0.0
C806 C 0.34516 0.90881 0.88153 0.0
C807 C 0.33726 0.88329 0.8911 0.0
C808 C 0.36705 0.92595 0.89806 0.0
C809 C 0.34251 0.94323 0.844 0.0
C810 C 0.39359 0.93022 0.88779 0.0
C811 C 0.41593 0.94181 0.90493 0.0
C812 C 0.41214 0.94948 0.93266 0.0
C813 C 0.38524 0.94668 0.94245 0.0
C814 C 0.36288 0.93467 0.92533 0.0
H815 H 0.32699 0.94786 0.82754 0.0
H816 H 0.34364 0.95865 0.86109 0.0
H817 H 0.36303 0.94429 0.83476 0.0
H818 H 0.39734 0.92319 0.86698 0.0
H819 H 0.4364 0.94385 0.89679 0.0
H820 H 0.22492 0.37457 0.81339 0.0
H821 H 0.19832 0.39735 0.84644 0.0
H822 H 0.14065 0.32655 0.84994 0.0
H823 H 0.16747 0.30336 0.81701 0.0
H824 H 0.14399 0.40772 0.83926 0.0
H825 H 0.15846 0.34691 0.93227 0.0
H826 H 0.17952 0.34533 0.90258 0.0
H827 H 0.14509 0.32815 0.90127 0.0
C828 C 0.20676 0.36367 0.82138 0.0
C829 C 0.19837 0.33708 0.81254 0.0
C830 C 0.19152 0.37679 0.84025 0.0
C831 C 0.16759 0.36365 0.85086 0.0
C832 C 0.15931 0.33697 0.84242 0.0
H833 H 0.04107 0.44569 0.93097 0.0
H834 H 0.06629 0.42021 0.8987 0.0
C835 C 0.17463 0.32376 0.82353 0.0
C836 C 0.15086 0.3784 0.8698 0.0
H837 H 0.12707 0.37957 0.93539 0.0
C838 C 0.14026 0.40155 0.86028 0.0
C839 C 0.14623 0.37049 0.89731 0.0
C840 C 0.1581 0.34651 0.90914 0.0
C841 C 0.12517 0.41697 0.87746 0.0
C842 C 0.12013 0.40881 0.9048 0.0
C843 C 0.13076 0.38569 0.91435 0.0
C844 C 0.1047 0.42447 0.92416 0.0
C845 C 0.1154 0.44226 0.86643 0.0
C846 C 0.11773 0.43502 0.94941 0.0
C847 C 0.10336 0.4495 0.96797 0.0
C848 C 0.07552 0.45365 0.96176 0.0
C849 C 0.06252 0.44308 0.93638 0.0
C850 C 0.07694 0.42855 0.91783 0.0
H851 H 0.12666 0.44907 0.84796 0.0
H852 H 0.09299 0.43857 0.86005 0.0
H853 H 0.11818 0.45852 0.8827 0.0
H854 H 0.13912 0.4321 0.95475 0.0
H855 H 0.11409 0.45728 0.98728 0.0
H856 H 0.62975 0.18941 0.77249 0.0
H857 H 0.60437 0.15804 0.80231 0.0
H858 H 0.67351 0.16696 0.86315 0.0
H859 H 0.69926 0.19789 0.83326 0.0
H860 H 0.64992 0.11486 0.85589 0.0
H861 H 0.56969 0.18348 0.87225 0.0
H862 H 0.57369 0.17455 0.8364 0.0
H863 H 0.6017 0.19376 0.85628 0.0
C864 C 0.63965 0.18452 0.79211 0.0
C865 C 0.66639 0.19636 0.80067 0.0
C866 C 0.62506 0.1667 0.80917 0.0
C867 C 0.63683 0.16067 0.83519 0.0
C868 C 0.66399 0.1715 0.84321 0.0
H869 H 0.55571 0.1043 0.98039 0.0
H870 H 0.58037 0.12949 0.94501 0.0
C871 C 0.67868 0.18917 0.82609 0.0
C872 C 0.62057 0.14393 0.85462 0.0
H873 H 0.56279 0.14127 0.8923 0.0
C874 C 0.63082 0.12054 0.86381 0.0
C875 C 0.59589 0.15167 0.8652 0.0
C876 C 0.58467 0.17735 0.85728 0.0
C877 C 0.61704 0.10466 0.88336 0.0
C878 C 0.59207 0.11214 0.89352 0.0
C879 C 0.58181 0.13549 0.88427 0.0
C880 C 0.57683 0.09666 0.91464 0.0
C881 C 0.62978 0.08048 0.89359 0.0
C882 C 0.56629 0.06996 0.90912 0.0
C883 C 0.5523 0.05543 0.92936 0.0
C884 C 0.54834 0.06745 0.95541 0.0
C885 C 0.55841 0.0944 0.9606 0.0
C886 C 0.57251 0.10884 0.9404 0.0
H887 H 0.65209 0.08136 0.88922 0.0
H888 H 0.62777 0.07848 0.91635 0.0
H889 H 0.61885 0.06233 0.88279 0.0
H890 H 0.56883 0.06037 0.88913 0.0
H891 H 0.54462 0.03478 0.92457 0.0
H892 H 0.80509 0.66778 0.8353 0.0
H893 H 0.84246 0.65325 0.86488 0.0
H894 H 0.89781 0.72011 0.84062 0.0
H895 H 0.86021 0.73487 0.8106 0.0
H896 H 0.91922 0.6709 0.83484 0.0
H897 H 0.87939 0.68236 0.93947 0.0
H898 H 0.85363 0.66505 0.91547 0.0
H899 H 0.86634 0.69916 0.90965 0.0
C900 C 0.82506 0.6797 0.83653 0.0
C901 C 0.82967 0.70249 0.82059 0.0
C902 C 0.84639 0.67145 0.85364 0.0
C903 C 0.87283 0.68579 0.85528 0.0
C904 C 0.87746 0.7089 0.83984 0.0
H905 H 0.98424 0.61038 0.971 0.0
H906 H 0.96613 0.64729 0.94645 0.0
C907 C 0.85597 0.71734 0.82279 0.0
C908 C 0.89583 0.67497 0.87127 0.0
H909 H 0.91126 0.64895 0.93418 0.0
C910 C 0.91789 0.66666 0.85675 0.0
C911 C 0.89443 0.66985 0.89995 0.0
C912 C 0.87231 0.67984 0.91711 0.0
C913 C 0.93723 0.65143 0.86959 0.0
C914 C 0.93414 0.64405 0.89751 0.0
C915 C 0.91348 0.6543 0.91266 0.0
C916 C 0.94952 0.62314 0.91029 0.0
C917 C 0.96024 0.64269 0.85283 0.0
C918 C 0.94671 0.59742 0.89791 0.0
C919 C 0.95698 0.57635 0.91183 0.0
C920 C 0.97017 0.58044 0.9386 0.0
C921 C 0.97434 0.60652 0.95036 0.0
C922 C 0.9639 0.62764 0.93641 0.0
H923 H 0.96601 0.65732 0.83674 0.0
H924 H 0.97897 0.64015 0.86634 0.0
H925 H 0.95301 0.62334 0.8419 0.0
H926 H 0.93519 0.59327 0.87808 0.0
H927 H 0.95345 0.55658 0.90207 0.0
H928 H 0.19826 0.2849 0.14231 0.0
H929 H 0.16508 0.30763 0.11421 0.0
H930 H 0.11464 0.31296 0.18485 0.0
H931 H 0.14729 0.28986 0.21293 0.0
H932 H 0.08328 0.3034 0.13328 0.0
H933 H 0.16614 0.38816 0.13029 0.0
H934 H 0.1749 0.35691 0.11647 0.0
H935 H 0.16908 0.3606 0.15291 0.0
C936 C 0.17983 0.29041 0.15173 0.0
C937 C 0.17569 0.28596 0.18001 0.0
C938 C 0.16094 0.30348 0.13566 0.0
C939 C 0.13773 0.31245 0.14764 0.0
C940 C 0.1325 0.30631 0.17524 0.0
H941 H 0.05919 0.45094 0.1061 0.0
H942 H 0.07936 0.4147 0.12942 0.0
C943 C 0.15127 0.29316 0.19129 0.0
C944 C 0.12053 0.33059 0.13259 0.0
H945 H 0.12339 0.39309 0.10694 0.0
C946 C 0.092 0.32296 0.12734 0.0
C947 C 0.13193 0.35627 0.12532 0.0
C948 C 0.16212 0.36617 0.1317 0.0
C949 C 0.07457 0.34041 0.11499 0.0
C950 C 0.08609 0.36598 0.10758 0.0
C951 C 0.11462 0.37345 0.11265 0.0
C952 C 0.06917 0.38591 0.09525 0.0
C953 C 0.04393 0.3317 0.11068 0.0
C954 C 0.05583 0.38148 0.06865 0.0
C955 C 0.04405 0.4022 0.05527 0.0
C956 C 0.0458 0.42776 0.06817 0.0
C957 C 0.05768 0.43158 0.09548 0.0
C958 C 0.06923 0.41087 0.10886 0.0
H959 H 0.03748 0.31405 0.12303 0.0
H960 H 0.03164 0.34813 0.11651 0.0
H961 H 0.03889 0.3263 0.08833 0.0
H962 H 0.0559 0.3625 0.05759 0.0
H963 H 0.03525 0.39865 0.03416 0.0
H964 H 0.21399 0.69308 0.84053 0.0
H965 H 0.18536 0.66403 0.86983 0.0
H966 H 0.19471 0.59656 0.81536 0.0
H967 H 0.22399 0.62537 0.78625 0.0
H968 H 0.13615 0.63442 0.85466 0.0
H969 H 0.21507 0.56957 0.89193 0.0
H970 H 0.22416 0.60044 0.87491 0.0
H971 H 0.21034 0.57105 0.85474 0.0
C972 C 0.21009 0.67203 0.83487 0.0
C973 C 0.22126 0.66144 0.81119 0.0
C974 C 0.19375 0.6555 0.8516 0.0
C975 C 0.18826 0.62817 0.84487 0.0
C976 C 0.19924 0.61752 0.82117 0.0
H977 H 0.05528 0.53492 0.92625 0.0
H978 H 0.08463 0.5537 0.89035 0.0
C979 C 0.21582 0.63402 0.80453 0.0
C980 C 0.17024 0.61117 0.86237 0.0
H981 H 0.16937 0.55893 0.90582 0.0
C982 C 0.14331 0.61783 0.86579 0.0
C983 C 0.17986 0.58966 0.87683 0.0
C984 C 0.20901 0.58232 0.87468 0.0
C985 C 0.12585 0.60398 0.88392 0.0
C986 C 0.13542 0.58243 0.89837 0.0
C987 C 0.16213 0.57535 0.89447 0.0
C988 C 0.11881 0.56846 0.91932 0.0
C989 C 0.09782 0.61331 0.88832 0.0
C990 C 0.12892 0.56953 0.94723 0.0
C991 C 0.11241 0.55854 0.9677 0.0
C992 C 0.08545 0.54652 0.96054 0.0
C993 C 0.07579 0.54454 0.9324 0.0
C994 C 0.09248 0.55525 0.9119 0.0
H995 H 0.0964 0.6337 0.88067 0.0
H996 H 0.08153 0.5996 0.8767 0.0
H997 H 0.09333 0.61326 0.91072 0.0
H998 H 0.14928 0.57959 0.95327 0.0
H999 H 0.12044 0.56023 0.9892 0.0
H1000 H 0.36628 0.21505 0.81413 0.0
H1001 H 0.38754 0.18383 0.84404 0.0
H1002 H 0.30815 0.1376 0.84917 0.0
H1003 H 0.28646 0.16901 0.81911 0.0
H1004 H 0.34032 0.14565 0.90089 0.0
H1005 H 0.40118 0.10831 0.81673 0.0
H1006 H 0.40554 0.14397 0.82113 0.0
H1007 H 0.37209 0.12714 0.80998 0.0
C1008 C 0.3532 0.19838 0.82174 0.0
C1009 C 0.32468 0.19441 0.81405 0.0
C1010 C 0.36546 0.18045 0.8387 0.0
C1011 C 0.34955 0.15808 0.84824 0.0
C1012 C 0.32083 0.15463 0.84174 0.0
H1013 H 0.43172 0.02957 0.92656 0.0
H1014 H 0.40231 0.05359 0.89529 0.0
C1015 C 0.30847 0.17264 0.82469 0.0
C1016 C 0.36326 0.13842 0.86486 0.0
H1017 H 0.41549 0.09823 0.86333 0.0
C1018 C 0.35651 0.135 0.89261 0.0
C1019 C 0.38403 0.12418 0.85386 0.0
C1020 C 0.39099 0.12583 0.8237 0.0
C1021 C 0.37103 0.1188 0.91009 0.0
C1022 C 0.3931 0.10603 0.8996 0.0
C1023 C 0.39883 0.10831 0.87144 0.0
C1024 C 0.41139 0.09146 0.91791 0.0
C1025 C 0.36278 0.1157 0.93973 0.0
C1026 C 0.42691 0.10499 0.94039 0.0
C1027 C 0.44374 0.09143 0.95816 0.0
C1028 C 0.44559 0.06401 0.95376 0.0
C1029 C 0.43079 0.05066 0.93058 0.0
C1030 C 0.41388 0.06432 0.91276 0.0
H1031 H 0.34097 0.11978 0.94201 0.0
H1032 H 0.36518 0.09531 0.9469 0.0
H1033 H 0.37632 0.13017 0.95356 0.0
H1034 H 0.42589 0.12609 0.94429 0.0
H1035 H 0.45502 0.10245 0.9756 0.0
H1036 H 0.84118 0.27353 0.77859 0.0
H1037 H 0.87578 0.29967 0.80984 0.0
H1038 H 0.81332 0.30948 0.86874 0.0
H1039 H 0.77842 0.28425 0.83712 0.0
H1040 H 0.83951 0.35543 0.85788 0.0
H1041 H 0.91804 0.28623 0.88093 0.0
H1042 H 0.91138 0.28926 0.84419 0.0
H1043 H 0.88414 0.27506 0.86499 0.0
C1044 C 0.83494 0.28086 0.79843 0.0
C1045 C 0.80707 0.27698 0.80536 0.0
C1046 C 0.8548 0.29562 0.81638 0.0
C1047 C 0.84726 0.30622 0.84183 0.0
C1048 C 0.81963 0.30142 0.84924 0.0
H1049 H 0.95384 0.39775 0.96969 0.0
H1050 H 0.92765 0.361 0.94199 0.0
C1051 C 0.7997 0.28706 0.83113 0.0
C1052 C 0.86723 0.32484 0.85919 0.0
H1053 H 0.93229 0.33278 0.8911 0.0
C1054 C 0.85967 0.35032 0.86535 0.0
C1055 C 0.89347 0.31813 0.86916 0.0
C1056 C 0.90213 0.29058 0.86473 0.0
C1057 C 0.87772 0.36944 0.88071 0.0
C1058 C 0.9045 0.36325 0.88938 0.0
C1059 C 0.91193 0.33758 0.88392 0.0
C1060 C 0.92468 0.38336 0.90443 0.0
C1061 C 0.86773 0.39602 0.88778 0.0
C1062 C 0.93286 0.40753 0.892 0.0
C1063 C 0.94743 0.42858 0.90779 0.0
C1064 C 0.95454 0.4256 0.93614 0.0
C1065 C 0.9486 0.40059 0.94788 0.0
C1066 C 0.93363 0.3796 0.93212 0.0
H1067 H 0.84472 0.39485 0.88647 0.0
H1068 H 0.8754 0.40334 0.90908 0.0
H1069 H 0.87563 0.41087 0.87274 0.0
H1070 H 0.92669 0.41056 0.87045 0.0
H1071 H 0.95213 0.44752 0.89811 0.0
H1072 H 0.67899 0.79878 0.86064 0.0
H1073 H 0.66306 0.83484 0.88806 0.0
H1074 H 0.72361 0.89121 0.853 0.0
H1075 H 0.73934 0.85516 0.82478 0.0
H1076 H 0.68535 0.87466 0.92614 0.0
H1077 H 0.64988 0.91629 0.82594 0.0
H1078 H 0.66215 0.88388 0.82751 0.0
H1079 H 0.68634 0.91345 0.83104 0.0
C1080 C 0.68936 0.81874 0.85912 0.0
C1081 C 0.71001 0.82419 0.84007 0.0
C1082 C 0.68026 0.83935 0.8749 0.0
C1083 C 0.69169 0.86577 0.87203 0.0
C1084 C 0.71411 0.871 0.85502 0.0
H1085 H 0.60387 0.97844 0.96928 0.0
H1086 H 0.64347 0.96114 0.94839 0.0
C1087 C 0.72319 0.85034 0.83906 0.0
C1088 C 0.67775 0.88758 0.88447 0.0
H1089 H 0.63447 0.9342 0.86684 0.0
C1090 C 0.67469 0.88814 0.91332 0.0
C1091 C 0.66369 0.90494 0.86754 0.0
C1092 C 0.66542 0.90464 0.83627 0.0
C1093 C 0.65663 0.90442 0.92553 0.0
C1094 C 0.64169 0.92091 0.90841 0.0
C1095 C 0.64609 0.92159 0.87985 0.0
C1096 C 0.61845 0.93434 0.91888 0.0
C1097 C 0.65218 0.90238 0.95627 0.0
C1098 C 0.59138 0.92596 0.90825 0.0
C1099 C 0.56874 0.9359 0.91991 0.0
C1100 C 0.57269 0.95445 0.94253 0.0
C1101 C 0.59999 0.964 0.95206 0.0
C1102 C 0.62268 0.95404 0.94028 0.0
H1103 H 0.66218 0.88568 0.9656 0.0
H1104 H 0.66113 0.92117 0.96733 0.0
H1105 H 0.62968 0.89949 0.95989 0.0
H1106 H 0.58768 0.91085 0.89162 0.0
H1107 H 0.54811 0.92822 0.91181 0.0
H1108 H 0.84443 0.71298 0.17905 0.0
H1109 H 0.87323 0.6885 0.14926 0.0
H1110 H 0.81694 0.61711 0.15547 0.0
H1111 H 0.78835 0.64119 0.18537 0.0
H1112 H 0.87212 0.60871 0.16503 0.0
H1113 H 0.85656 0.66331 0.06768 0.0
H1114 H 0.86883 0.68386 0.09787 0.0
H1115 H 0.83485 0.66576 0.09677 0.0
C1116 C 0.83808 0.69213 0.17388 0.0
C1117 C 0.81404 0.67908 0.18455 0.0
C1118 C 0.85452 0.67818 0.15678 0.0
C1119 C 0.84709 0.65102 0.14994 0.0
C1120 C 0.82306 0.63805 0.16047 0.0
H1121 H 0.90048 0.55014 0.02054 0.0
H1122 H 0.87579 0.57697 0.05179 0.0
C1123 C 0.80669 0.65191 0.17752 0.0
C1124 C 0.86452 0.63574 0.13235 0.0
H1125 H 0.88802 0.63072 0.06692 0.0
C1126 C 0.8757 0.61357 0.1436 0.0
C1127 C 0.86892 0.64196 0.10433 0.0
C1128 C 0.8565 0.66487 0.09077 0.0
C1129 C 0.89102 0.59736 0.12756 0.0
C1130 C 0.89564 0.60373 0.09961 0.0
C1131 C 0.8846 0.62598 0.0884 0.0
C1132 C 0.91084 0.58692 0.08125 0.0
C1133 C 0.9014 0.5731 0.14039 0.0
C1134 C 0.9388 0.58354 0.08743 0.0
C1135 C 0.95303 0.56806 0.06963 0.0
C1136 C 0.93959 0.55583 0.04516 0.0
C1137 C 0.91153 0.55921 0.03916 0.0
C1138 C 0.89736 0.57463 0.05697 0.0
H1139 H 0.89069 0.56758 0.15958 0.0
H1140 H 0.89845 0.55576 0.1254 0.0
H1141 H 0.92391 0.57736 0.14609 0.0
H1142 H 0.94976 0.59322 0.10581 0.0
H1143 H 0.97467 0.5661 0.07481 0.0
H1144 H 0.29284 0.81289 0.19193 0.0
H1145 H 0.31414 0.84372 0.15877 0.0
H1146 H 0.3953 0.82573 0.18817 0.0
H1147 H 0.37437 0.79571 0.22179 0.0
H1148 H 0.39467 0.87805 0.17986 0.0
H1149 H 0.34577 0.81887 0.08762 0.0
H1150 H 0.3215 0.83017 0.11095 0.0
H1151 H 0.34465 0.80668 0.12247 0.0
C1152 C 0.31523 0.81573 0.19147 0.0
C1153 C 0.33192 0.8017 0.20929 0.0
C1154 C 0.32734 0.83317 0.1724 0.0
C1155 C 0.35626 0.83652 0.1706 0.0
C1156 C 0.37294 0.82332 0.1891 0.0
H1157 H 0.4512 0.88935 0.03207 0.0
H1158 H 0.42698 0.86442 0.06807 0.0
C1159 C 0.36091 0.80613 0.20831 0.0
C1160 C 0.36941 0.85321 0.14911 0.0
H1161 H 0.37288 0.85915 0.07885 0.0
C1162 C 0.38987 0.87399 0.15776 0.0
C1163 C 0.36341 0.84754 0.12031 0.0
C1164 C 0.34284 0.82446 0.1097 0.0
C1165 C 0.40467 0.88918 0.13839 0.0
C1166 C 0.39821 0.88391 0.10959 0.0
C1167 C 0.37764 0.86324 0.10094 0.0
C1168 C 0.41301 0.89917 0.08803 0.0
C1169 C 0.42766 0.9101 0.14899 0.0
C1170 C 0.41295 0.9269 0.0872 0.0
C1171 C 0.42703 0.9412 0.06692 0.0
C1172 C 0.44099 0.92795 0.04674 0.0
C1173 C 0.44061 0.9001 0.04731 0.0
C1174 C 0.42679 0.88585 0.06784 0.0
H1175 H 0.43512 0.9064 0.17063 0.0
H1176 H 0.44554 0.91078 0.13547 0.0
H1177 H 0.41979 0.92993 0.14908 0.0
H1178 H 0.40182 0.93749 0.10211 0.0
H1179 H 0.4266 0.96261 0.06681 0.0
H1180 H 0.73395 0.21446 0.16037 0.0
H1181 H 0.7114 0.1799 0.12758 0.0
H1182 H 0.707 0.12361 0.19339 0.0
H1183 H 0.73026 0.15762 0.22606 0.0
H1184 H 0.71379 0.09959 0.14133 0.0
H1185 H 0.62844 0.16486 0.13801 0.0
H1186 H 0.66078 0.18 0.12645 0.0
H1187 H 0.65818 0.17104 0.16222 0.0
C1188 C 0.72887 0.19454 0.1677 0.0
C1189 C 0.73333 0.18896 0.19597 0.0
C1190 C 0.71594 0.17484 0.14895 0.0
C1191 C 0.70687 0.14946 0.15829 0.0
C1192 C 0.71368 0.14313 0.18582 0.0
H1193 H 0.55695 0.05467 0.10441 0.0
H1194 H 0.5969 0.07809 0.13093 0.0
C1195 C 0.72692 0.16268 0.2045 0.0
C1196 C 0.68695 0.1309 0.14092 0.0
H1197 H 0.62091 0.12464 0.11189 0.0
C1198 C 0.69353 0.10503 0.13468 0.0
C1199 C 0.66034 0.13797 0.13281 0.0
C1200 C 0.65132 0.16486 0.14039 0.0
C1201 C 0.67405 0.08598 0.12061 0.0
C1202 C 0.64757 0.09321 0.11239 0.0
C1203 C 0.64125 0.11916 0.11828 0.0
C1204 C 0.62545 0.07429 0.09835 0.0
C1205 C 0.68159 0.05811 0.11546 0.0
C1206 C 0.62853 0.0635 0.07162 0.0
C1207 C 0.60571 0.0498 0.05649 0.0
C1208 C 0.57944 0.04718 0.06773 0.0
C1209 C 0.57687 0.05662 0.09511 0.0
C1210 C 0.59968 0.06996 0.1103 0.0
H1211 H 0.69999 0.05406 0.12874 0.0
H1212 H 0.66397 0.04307 0.11945 0.0
H1213 H 0.68656 0.05564 0.09334 0.0
H1214 H 0.64809 0.067 0.06182 0.0
H1215 H 0.60826 0.04288 0.03535 0.0
H1216 H 0.66474 0.72866 0.78961 0.0
H1217 H 0.63384 0.69848 0.81578 0.0
H1218 H 0.69688 0.64485 0.82389 0.0
H1219 H 0.72763 0.67458 0.7969 0.0
H1220 H 0.64737 0.61655 0.81558 0.0
H1221 H 0.63811 0.69299 0.89834 0.0
H1222 H 0.62644 0.70293 0.86462 0.0
H1223 H 0.66238 0.69819 0.87144 0.0
C1224 C 0.67207 0.71036 0.79672 0.0
C1225 C 0.69897 0.70435 0.79108 0.0
C1226 C 0.65434 0.69312 0.81204 0.0
C1227 C 0.66302 0.66948 0.82272 0.0
C1228 C 0.68949 0.66294 0.81623 0.0
H1229 H 0.59815 0.58619 0.96442 0.0
H1230 H 0.62249 0.61374 0.93112 0.0
C1231 C 0.70717 0.68006 0.80068 0.0
C1232 C 0.64488 0.65191 0.84098 0.0
H1233 H 0.60918 0.65243 0.90064 0.0
C1234 C 0.63903 0.62447 0.83417 0.0
C1235 C 0.63406 0.66183 0.8656 0.0
C1236 C 0.64077 0.69052 0.87564 0.0
C1237 C 0.62292 0.60695 0.85101 0.0
C1238 C 0.61159 0.61702 0.87529 0.0
C1239 C 0.61739 0.64447 0.882 0.0
C1240 C 0.59567 0.59942 0.89531 0.0
C1241 C 0.61909 0.57762 0.84309 0.0
C1242 C 0.57185 0.58189 0.88685 0.0
C1243 C 0.55765 0.5656 0.90618 0.0
C1244 C 0.56669 0.56658 0.93461 0.0
C1245 C 0.59021 0.58456 0.9429 0.0
C1246 C 0.60435 0.60057 0.9237 0.0
H1247 H 0.63475 0.5722 0.82852 0.0
H1248 H 0.62056 0.56535 0.8618 0.0
H1249 H 0.59826 0.57249 0.83252 0.0
H1250 H 0.56404 0.58088 0.86531 0.0
H1251 H 0.53965 0.55224 0.89882 0.0
H1252 H 0.34071 0.6832 0.7821 0.0
H1253 H 0.37141 0.65507 0.80685 0.0
H1254 H 0.3539 0.6917 0.88514 0.0
H1255 H 0.32419 0.72035 0.86068 0.0
H1256 H 0.4071 0.68273 0.88536 0.0
H1257 H 0.34048 0.59109 0.84778 0.0
H1258 H 0.35497 0.61069 0.82049 0.0
H1259 H 0.3305 0.62401 0.84239 0.0
C1260 C 0.34378 0.68556 0.80454 0.0
C1261 C 0.32971 0.70385 0.81939 0.0
C1262 C 0.36114 0.66928 0.8187 0.0
C1263 C 0.36441 0.67073 0.84797 0.0
C1264 C 0.3516 0.69002 0.86261 0.0
H1265 H 0.39982 0.54656 0.95894 0.0
H1266 H 0.38035 0.58035 0.93094 0.0
C1267 C 0.33452 0.70641 0.84851 0.0
C1268 C 0.37989 0.65147 0.86371 0.0
H1269 H 0.38011 0.58522 0.87629 0.0
C1270 C 0.40131 0.66138 0.88329 0.0
C1271 C 0.37203 0.62362 0.86137 0.0
C1272 C 0.34808 0.61167 0.84209 0.0
C1273 C 0.4148 0.64432 0.90077 0.0
C1274 C 0.40717 0.61646 0.89814 0.0
C1275 C 0.38606 0.60655 0.87826 0.0
C1276 C 0.41973 0.59718 0.91655 0.0
C1277 C 0.43627 0.65645 0.92261 0.0
C1278 C 0.44847 0.59545 0.91812 0.0
C1279 C 0.45975 0.57632 0.93452 0.0
C1280 C 0.44244 0.55818 0.94924 0.0
C1281 C 0.41374 0.56014 0.94782 0.0
C1282 C 0.40256 0.57944 0.93174 0.0
H1283 H 0.43415 0.67785 0.92701 0.0
H1284 H 0.43469 0.64573 0.9424 0.0
H1285 H 0.45726 0.65509 0.91501 0.0
H1286 H 0.46213 0.60843 0.90612 0.0
H1287 H 0.48191 0.57515 0.93487 0.0
H1288 H 0.34424 0.28413 0.77687 0.0
H1289 H 0.37767 0.3187 0.79952 0.0
H1290 H 0.32348 0.37825 0.77836 0.0
H1291 H 0.28955 0.34374 0.75623 0.0
H1292 H 0.40666 0.3678 0.78607 0.0
H1293 H 0.32746 0.38064 0.86341 0.0
H1294 H 0.3237 0.35352 0.83784 0.0
H1295 H 0.31669 0.38633 0.828 0.0
C1296 C 0.3396 0.30463 0.77652 0.0
C1297 C 0.31393 0.31107 0.76522 0.0
C1298 C 0.35881 0.3244 0.78944 0.0
C1299 C 0.35279 0.35095 0.79115 0.0
C1300 C 0.32827 0.35778 0.77779 0.0
H1301 H 0.45803 0.48058 0.88567 0.0
H1302 H 0.43517 0.45382 0.84564 0.0
C1303 C 0.30892 0.33801 0.76511 0.0
C1304 C 0.37052 0.37062 0.80962 0.0
H1305 H 0.37022 0.40676 0.87065 0.0
C1306 C 0.39869 0.37658 0.80442 0.0
C1307 C 0.36011 0.38177 0.83375 0.0
C1308 C 0.33042 0.37513 0.84132 0.0
C1309 C 0.41679 0.3931 0.823 0.0
C1310 C 0.40634 0.40391 0.8472 0.0
C1311 C 0.37809 0.39849 0.85196 0.0
C1312 C 0.42443 0.41882 0.86944 0.0
C1313 C 0.4471 0.39803 0.81736 0.0
C1314 C 0.42649 0.4078 0.89578 0.0
C1315 C 0.43919 0.42297 0.91848 0.0
C1316 C 0.4502 0.44954 0.91536 0.0
C1317 C 0.44984 0.4601 0.88861 0.0
C1318 C 0.43682 0.44485 0.86577 0.0
H1319 H 0.45252 0.38577 0.79932 0.0
H1320 H 0.45234 0.41938 0.81293 0.0
H1321 H 0.46006 0.39359 0.83602 0.0
H1322 H 0.41714 0.38773 0.89904 0.0
H1323 H 0.43942 0.41418 0.93877 0.0
H1324 H 0.66356 0.32532 0.79004 0.0
H1325 H 0.63624 0.35612 0.81423 0.0
H1326 H 0.67118 0.3338 0.89332 0.0
H1327 H 0.69807 0.30292 0.86953 0.0
H1328 H 0.61477 0.33451 0.89352 0.0
H1329 H 0.66414 0.42832 0.85162 0.0
H1330 H 0.64978 0.4036 0.82573 0.0
H1331 H 0.67876 0.39706 0.84832 0.0
C1332 C 0.66551 0.32708 0.81257 0.0
C1333 C 0.68313 0.31166 0.82778 0.0
C1334 C 0.64995 0.34479 0.82639 0.0
C1335 C 0.65184 0.34754 0.85565 0.0
C1336 C 0.66934 0.33209 0.87078 0.0
H1337 H 0.60938 0.47276 0.96575 0.0
H1338 H 0.63109 0.44069 0.93765 0.0
C1339 C 0.6848 0.31444 0.85706 0.0
C1340 C 0.63552 0.36618 0.87083 0.0
H1341 H 0.62701 0.43209 0.88073 0.0
C1342 C 0.61733 0.35584 0.89062 0.0
C1343 C 0.63908 0.39406 0.8673 0.0
C1344 C 0.65915 0.40655 0.84729 0.0
C1345 C 0.60284 0.37256 0.90708 0.0
C1346 C 0.60625 0.40042 0.9034 0.0
C1347 C 0.62425 0.41073 0.88345 0.0
C1348 C 0.59248 0.41937 0.92097 0.0
C1349 C 0.58476 0.36031 0.92893 0.0
C1350 C 0.56343 0.41813 0.9211 0.0
C1351 C 0.55085 0.43646 0.93734 0.0
C1352 C 0.56706 0.45658 0.95365 0.0
C1353 C 0.59615 0.45761 0.95352 0.0
C1354 C 0.60866 0.43929 0.93736 0.0
H1355 H 0.58952 0.33981 0.93362 0.0
H1356 H 0.58733 0.37266 0.94856 0.0
H1357 H 0.5627 0.35914 0.92125 0.0
H1358 H 0.55046 0.40327 0.90827 0.0
H1359 H 0.52842 0.43516 0.93668 0.0
H1360 H 0.67551 0.28461 0.13834 0.0
H1361 H 0.64574 0.31499 0.11697 0.0
H1362 H 0.63443 0.35015 0.19781 0.0
H1363 H 0.66537 0.32027 0.21944 0.0
H1364 H 0.59365 0.32519 0.12046 0.0
H1365 H 0.66413 0.41466 0.15737 0.0
H1366 H 0.67347 0.3813 0.16112 0.0
H1367 H 0.65052 0.39463 0.18474 0.0
C1368 C 0.66658 0.29863 0.15173 0.0
C1369 C 0.67318 0.30023 0.18061 0.0
C1370 C 0.64944 0.316 0.13941 0.0
C1371 C 0.63831 0.33532 0.15564 0.0
C1372 C 0.64341 0.33591 0.18474 0.0
H1373 H 0.52112 0.43545 0.07509 0.0
H1374 H 0.54062 0.40155 0.10316 0.0
C1375 C 0.66088 0.31865 0.19712 0.0
C1376 C 0.6226 0.3554 0.14157 0.0
H1377 H 0.62389 0.42208 0.13069 0.0
C1378 C 0.60014 0.3464 0.12282 0.0
C1379 C 0.63135 0.38307 0.14431 0.0
C1380 C 0.65632 0.39406 0.16275 0.0
C1381 C 0.58662 0.36417 0.10631 0.0
C1382 C 0.59523 0.39185 0.10924 0.0
C1383 C 0.61723 0.40088 0.12848 0.0
C1384 C 0.58284 0.41178 0.09161 0.0
C1385 C 0.5641 0.35294 0.08506 0.0
C1386 C 0.60005 0.42921 0.07613 0.0
C1387 C 0.58905 0.4489 0.06051 0.0
C1388 C 0.5605 0.45151 0.05982 0.0
C1389 C 0.54315 0.43375 0.0749 0.0
C1390 C 0.55427 0.41427 0.09089 0.0
H1391 H 0.56536 0.33148 0.08013 0.0
H1392 H 0.54357 0.35481 0.09352 0.0
H1393 H 0.56531 0.36393 0.06541 0.0
H1394 H 0.62215 0.42771 0.07629 0.0
H1395 H 0.60297 0.4622 0.04907 0.0
H1396 H 0.66498 0.71523 0.25612 0.0
H1397 H 0.62794 0.6811 0.2385 0.0
H1398 H 0.68315 0.65152 0.18056 0.0
H1399 H 0.72016 0.68495 0.19822 0.0
H1400 H 0.60384 0.67497 0.18686 0.0
H1401 H 0.65015 0.58286 0.21154 0.0
H1402 H 0.66377 0.61493 0.22701 0.0
H1403 H 0.67382 0.60467 0.19313 0.0
C1404 C 0.66935 0.7012 0.23991 0.0
C1405 C 0.69564 0.70287 0.22864 0.0
C1406 C 0.64814 0.6817 0.22987 0.0
C1407 C 0.65287 0.66336 0.20858 0.0
C1408 C 0.67916 0.66488 0.19755 0.0
H1409 H 0.56654 0.59538 0.06828 0.0
H1410 H 0.5865 0.62324 0.10779 0.0
C1411 C 0.7003 0.68426 0.20754 0.0
C1412 C 0.63001 0.64406 0.19598 0.0
H1413 H 0.61632 0.57946 0.17187 0.0
C1414 C 0.60626 0.65395 0.18417 0.0
C1415 C 0.63265 0.61647 0.19298 0.0
C1416 C 0.65636 0.60409 0.20715 0.0
C1417 C 0.58645 0.63751 0.16742 0.0
C1418 C 0.59078 0.61062 0.16187 0.0
C1419 C 0.61316 0.60016 0.17573 0.0
C1420 C 0.5751 0.5944 0.13877 0.0
C1421 C 0.56157 0.64938 0.155 0.0
C1422 C 0.56201 0.56868 0.14287 0.0
C1423 C 0.55051 0.55245 0.12002 0.0
C1424 C 0.5525 0.56158 0.09276 0.0
C1425 C 0.56478 0.58764 0.08897 0.0
C1426 C 0.57598 0.60378 0.11164 0.0
H1427 H 0.55557 0.66547 0.16894 0.0
H1428 H 0.56687 0.65838 0.13492 0.0
H1429 H 0.5435 0.63406 0.1511 0.0
H1430 H 0.56134 0.56093 0.16362 0.0
H1431 H 0.54134 0.53241 0.12357 0.0
H1432 H 0.32892 0.66735 0.22294 0.0
H1433 H 0.3551 0.63747 0.19609 0.0
H1434 H 0.35191 0.68908 0.12627 0.0
H1435 H 0.32496 0.71815 0.15242 0.0
H1436 H 0.33883 0.64043 0.10869 0.0
H1437 H 0.43447 0.64276 0.17706 0.0
H1438 H 0.40383 0.63194 0.19467 0.0
H1439 H 0.40873 0.66538 0.18236 0.0
C1440 C 0.33404 0.67238 0.20195 0.0
C1441 C 0.32474 0.69506 0.1898 0.0
C1442 C 0.34921 0.65539 0.18665 0.0
C1443 C 0.35591 0.66111 0.15916 0.0
C1444 C 0.34705 0.68409 0.14735 0.0
H1445 H 0.47214 0.58096 0.06099 0.0
H1446 H 0.44997 0.61286 0.08942 0.0
C1447 C 0.33159 0.70074 0.16239 0.0
C1448 C 0.37067 0.64265 0.14187 0.0
H1449 H 0.42877 0.60996 0.13988 0.0
C1450 C 0.35858 0.63393 0.11554 0.0
C1451 C 0.39669 0.63437 0.15043 0.0
C1452 C 0.41185 0.64431 0.17754 0.0
C1453 C 0.37148 0.61711 0.09775 0.0
C1454 C 0.39684 0.60781 0.10683 0.0
C1455 C 0.4092 0.6168 0.13298 0.0
C1456 C 0.41051 0.58847 0.08964 0.0
C1457 C 0.35799 0.61003 0.06912 0.0
C1458 C 0.39594 0.56398 0.08054 0.0
C1459 C 0.40838 0.54595 0.06398 0.0
C1460 C 0.43597 0.55166 0.05651 0.0
C1461 C 0.45081 0.57597 0.06614 0.0
C1462 C 0.43819 0.59419 0.08251 0.0
H1463 H 0.34447 0.62526 0.06214 0.0
H1464 H 0.37371 0.60808 0.05345 0.0
H1465 H 0.34477 0.59075 0.06973 0.0
H1466 H 0.3749 0.55865 0.0864 0.0
H1467 H 0.39639 0.52729 0.05741 0.0
H1468 H 0.33079 0.27266 0.19998 0.0
H1469 H 0.36087 0.30406 0.17436 0.0
H1470 H 0.31199 0.36714 0.19612 0.0
H1471 H 0.28139 0.33565 0.22136 0.0
H1472 H 0.32198 0.36898 0.14246 0.0
H1473 H 0.42216 0.36048 0.19966 0.0
H1474 H 0.40587 0.32876 0.18637 0.0
H1475 H 0.38949 0.34695 0.21243 0.0
C1476 C 0.3265 0.29326 0.19967 0.0
C1477 C 0.30347 0.30139 0.21307 0.0
C1478 C 0.34399 0.31139 0.18505 0.0
C1479 C 0.33929 0.33838 0.18345 0.0
C1480 C 0.31642 0.34659 0.19697 0.0
H1481 H 0.45462 0.46446 0.11098 0.0
H1482 H 0.42847 0.43618 0.14372 0.0
C1483 C 0.29888 0.32846 0.21159 0.0
C1484 C 0.35717 0.3576 0.16654 0.0
H1485 H 0.42454 0.38177 0.15582 0.0
C1486 C 0.34438 0.37181 0.14563 0.0
C1487 C 0.38654 0.36197 0.17059 0.0
C1488 C 0.40183 0.34896 0.19367 0.0
C1489 C 0.35987 0.38932 0.12837 0.0
C1490 C 0.38931 0.39265 0.13148 0.0
C1491 C 0.40211 0.37917 0.15298 0.0
C1492 C 0.40687 0.40927 0.11196 0.0
C1493 C 0.34438 0.40432 0.10705 0.0
C1494 C 0.40444 0.40334 0.08315 0.0
C1495 C 0.41934 0.41939 0.06448 0.0
C1496 C 0.43751 0.44201 0.0738 0.0
C1497 C 0.44092 0.44735 0.10282 0.0
C1498 C 0.42585 0.43115 0.12163 0.0
H1499 H 0.32281 0.40614 0.11286 0.0
H1500 H 0.35502 0.42462 0.10452 0.0
H1501 H 0.34324 0.39332 0.08664 0.0
H1502 H 0.39071 0.38628 0.07495 0.0
H1503 H 0.4162 0.41413 0.04247 0.0
H1504 H 0.79799 0.66595 0.69494 0.0
H1505 H 0.8203 0.6425 0.65832 0.0
H1506 H 0.88259 0.70975 0.65474 0.0
H1507 H 0.86097 0.73292 0.69148 0.0
H1508 H 0.83307 0.65603 0.60361 0.0
H1509 H 0.92852 0.64843 0.67049 0.0
H1510 H 0.89702 0.65781 0.68431 0.0
H1511 H 0.91966 0.68184 0.6671 0.0
C1512 C 0.81641 0.67569 0.68629 0.0
C1513 C 0.82798 0.70107 0.6964 0.0
C1514 C 0.82908 0.66234 0.66536 0.0
C1515 C 0.85339 0.67422 0.65423 0.0
C1516 C 0.86425 0.69997 0.66351 0.0
H1517 H 0.9689 0.60866 0.54445 0.0
H1518 H 0.94271 0.64119 0.56744 0.0
C1519 C 0.85181 0.71318 0.68452 0.0
C1520 C 0.86797 0.65947 0.63353 0.0
H1521 H 0.92917 0.63409 0.62343 0.0
C1522 C 0.8541 0.65125 0.60788 0.0
C1523 C 0.89545 0.65337 0.63916 0.0
C1524 C 0.91099 0.66058 0.66684 0.0
C1525 C 0.86699 0.63698 0.58771 0.0
C1526 C 0.89431 0.63062 0.59353 0.0
C1527 C 0.90834 0.63931 0.61892 0.0
C1528 C 0.90776 0.61253 0.57513 0.0
C1529 C 0.8513 0.62875 0.5604 0.0
C1530 C 0.89651 0.58586 0.57141 0.0
C1531 C 0.91142 0.56732 0.55856 0.0
C1532 C 0.93792 0.57509 0.54917 0.0
C1533 C 0.94849 0.60213 0.55136 0.0
C1534 C 0.9336 0.62069 0.56452 0.0
H1535 H 0.83456 0.64161 0.55578 0.0
H1536 H 0.86541 0.62959 0.54293 0.0
H1537 H 0.84156 0.60793 0.56154 0.0
H1538 H 0.87686 0.57903 0.57986 0.0
H1539 H 0.90264 0.54664 0.557 0.0
H1540 H 0.32271 0.76741 0.63657 0.0
H1541 H 0.35143 0.78156 0.59819 0.0
H1542 H 0.39307 0.84604 0.65052 0.0
H1543 H 0.36468 0.83208 0.68889 0.0
H1544 H 0.35137 0.83212 0.57509 0.0
H1545 H 0.45692 0.81456 0.61332 0.0
H1546 H 0.42605 0.79805 0.62733 0.0
H1547 H 0.43937 0.8313 0.63938 0.0
C1548 C 0.33843 0.78424 0.64008 0.0
C1549 C 0.34144 0.79872 0.66571 0.0
C1550 C 0.35472 0.79228 0.61813 0.0
C1551 C 0.37449 0.8146 0.6217 0.0
C1552 C 0.37826 0.82842 0.64757 0.0
H1553 H 0.43483 0.94811 0.5447 0.0
H1554 H 0.40499 0.90981 0.55978 0.0
C1555 C 0.36191 0.82053 0.66942 0.0
C1556 C 0.38932 0.8255 0.59791 0.0
H1557 H 0.45388 0.85065 0.58132 0.0
C1558 C 0.37384 0.83558 0.57592 0.0
C1559 C 0.41855 0.82944 0.59875 0.0
C1560 C 0.43618 0.81749 0.62084 0.0
C1561 C 0.38687 0.85179 0.55623 0.0
C1562 C 0.41592 0.85825 0.55906 0.0
C1563 C 0.43152 0.84598 0.57939 0.0
C1564 C 0.43025 0.88039 0.54421 0.0
C1565 C 0.36939 0.86276 0.53336 0.0
C1566 C 0.45408 0.87651 0.53011 0.0
C1567 C 0.47137 0.89836 0.52191 0.0
C1568 C 0.46513 0.92444 0.52778 0.0
C1569 C 0.44019 0.92824 0.54002 0.0
C1570 C 0.42298 0.90634 0.54838 0.0
H1571 H 0.35046 0.8489 0.52771 0.0
H1572 H 0.36263 0.88192 0.54079 0.0
H1573 H 0.38118 0.86641 0.51442 0.0
H1574 H 0.46004 0.85663 0.52677 0.0
H1575 H 0.49022 0.89485 0.51198 0.0
H1576 H 0.1827 0.29749 0.64071 0.0
H1577 H 0.15706 0.3274 0.61271 0.0
H1578 H 0.17199 0.38818 0.6782 0.0
H1579 H 0.19789 0.35859 0.70622 0.0
H1580 H 0.10939 0.34764 0.62837 0.0
H1581 H 0.1903 0.42993 0.60864 0.0
H1582 H 0.19851 0.3978 0.62017 0.0
H1583 H 0.18866 0.4221 0.64475 0.0
C1584 C 0.18095 0.31738 0.64899 0.0
C1585 C 0.19233 0.32562 0.67574 0.0
C1586 C 0.16625 0.33443 0.63296 0.0
C1587 C 0.16286 0.36012 0.64323 0.0
C1588 C 0.17481 0.36866 0.66961 0.0
H1589 H 0.03082 0.45593 0.60326 0.0
H1590 H 0.06485 0.42957 0.62499 0.0
C1591 C 0.18948 0.35162 0.68568 0.0
C1592 C 0.14482 0.37709 0.6275 0.0
H1593 H 0.14318 0.43848 0.59966 0.0
C1594 C 0.11684 0.3674 0.62188 0.0
C1595 C 0.15462 0.40279 0.61885 0.0
C1596 C 0.18473 0.41372 0.62315 0.0
C1597 C 0.09823 0.383 0.60857 0.0
C1598 C 0.10775 0.40912 0.60101 0.0
C1599 C 0.13589 0.41855 0.60581 0.0
C1600 C 0.08855 0.42691 0.58838 0.0
C1601 C 0.06848 0.37138 0.60266 0.0
C1602 C 0.0912 0.43494 0.56088 0.0
C1603 C 0.07178 0.45009 0.54833 0.0
C1604 C 0.04944 0.4576 0.56317 0.0
C1605 C 0.04759 0.45038 0.59112 0.0
C1606 C 0.06697 0.43522 0.60357 0.0
H1607 H 0.06611 0.34929 0.60349 0.0
H1608 H 0.05544 0.37927 0.61855 0.0
H1609 H 0.06051 0.37708 0.58185 0.0
H1610 H 0.10782 0.42882 0.54886 0.0
H1611 H 0.07392 0.45534 0.52681 0.0
H1612 H 0.66865 0.24926 0.69855 0.0
H1613 H 0.63235 0.22475 0.66738 0.0
H1614 H 0.68052 0.15796 0.66355 0.0
H1615 H 0.7167 0.182 0.69443 0.0
H1616 H 0.6373 0.19797 0.61093 0.0
H1617 H 0.60316 0.12931 0.69365 0.0
H1618 H 0.62288 0.16135 0.70124 0.0
H1619 H 0.63993 0.13352 0.6896 0.0
C1620 C 0.67161 0.22945 0.69087 0.0
C1621 C 0.69545 0.21748 0.69925 0.0
C1622 C 0.65087 0.21552 0.67309 0.0
C1623 C 0.65368 0.18947 0.66359 0.0
C1624 C 0.67787 0.17793 0.67103 0.0
H1625 H 0.5698 0.05708 0.56949 0.0
H1626 H 0.60053 0.08969 0.59803 0.0
C1627 C 0.69854 0.19176 0.68866 0.0
C1628 C 0.63117 0.17368 0.64657 0.0
H1629 H 0.58668 0.11667 0.64719 0.0
C1630 C 0.62587 0.18041 0.61886 0.0
C1631 C 0.6164 0.15084 0.65714 0.0
C1632 C 0.62063 0.14336 0.68711 0.0
C1633 C 0.60701 0.16405 0.60096 0.0
C1634 C 0.59295 0.14069 0.61131 0.0
C1635 C 0.59761 0.13454 0.63931 0.0
C1636 C 0.57439 0.12154 0.59319 0.0
C1637 C 0.60315 0.17121 0.57086 0.0
C1638 C 0.54944 0.12867 0.58111 0.0
C1639 C 0.53173 0.11004 0.56474 0.0
C1640 C 0.53866 0.08394 0.56027 0.0
C1641 C 0.56376 0.07697 0.57243 0.0
C1642 C 0.58138 0.09557 0.58878 0.0
H1643 H 0.61932 0.18698 0.56497 0.0
H1644 H 0.60363 0.15339 0.55688 0.0
H1645 H 0.58261 0.17865 0.56736 0.0
H1646 H 0.54349 0.14851 0.58465 0.0
H1647 H 0.51257 0.11609 0.55573 0.0
H1648 H 0.79749 0.27428 0.33549 0.0
H1649 H 0.82642 0.30877 0.36353 0.0
H1650 H 0.81963 0.36382 0.29719 0.0
H1651 H 0.79036 0.32964 0.26912 0.0
H1652 H 0.87663 0.33396 0.35042 0.0
H1653 H 0.80117 0.40764 0.36499 0.0
H1654 H 0.79074 0.37367 0.3529 0.0
H1655 H 0.80458 0.39794 0.32923 0.0
C1656 C 0.80199 0.29377 0.32689 0.0
C1657 C 0.79152 0.2992 0.30006 0.0
C1658 C 0.81847 0.31345 0.34298 0.0
C1659 C 0.82478 0.33894 0.33261 0.0
C1660 C 0.81443 0.34447 0.30586 0.0
H1661 H 0.96177 0.45541 0.38399 0.0
H1662 H 0.92639 0.42468 0.35854 0.0
C1663 C 0.79783 0.32483 0.28978 0.0
C1664 C 0.84356 0.3592 0.34914 0.0
H1665 H 0.84856 0.42218 0.37823 0.0
C1666 C 0.87044 0.35318 0.35663 0.0
C1667 C 0.83531 0.38416 0.35739 0.0
C1668 C 0.80629 0.39121 0.35096 0.0
C1669 C 0.88953 0.3717 0.37168 0.0
C1670 C 0.88158 0.39694 0.3791 0.0
C1671 C 0.85455 0.40283 0.3722 0.0
C1672 C 0.90136 0.41742 0.39395 0.0
C1673 C 0.91806 0.36415 0.37963 0.0
C1674 C 0.89843 0.42399 0.42206 0.0
C1675 C 0.91865 0.44151 0.43678 0.0
C1676 C 0.94204 0.45281 0.42349 0.0
C1677 C 0.94417 0.44698 0.39495 0.0
C1678 C 0.924 0.42941 0.38034 0.0
H1679 H 0.91914 0.34235 0.37705 0.0
H1680 H 0.93333 0.37455 0.36617 0.0
H1681 H 0.92425 0.37042 0.4016 0.0
H1682 H 0.88097 0.4149 0.43282 0.0
H1683 H 0.9163 0.44564 0.4587 0.0
H1684 H 0.67653 0.81977 0.31917 0.0
H1685 H 0.6522 0.85257 0.34385 0.0
H1686 H 0.68182 0.91287 0.28757 0.0
H1687 H 0.70672 0.88054 0.26337 0.0
H1688 H 0.68798 0.93165 0.34 0.0
H1689 H 0.58119 0.88227 0.3201 0.0
H1690 H 0.60366 0.8607 0.33656 0.0
H1691 H 0.61019 0.87207 0.30212 0.0
C1692 C 0.67775 0.83999 0.31201 0.0
C1693 C 0.69353 0.84753 0.28931 0.0
C1694 C 0.66368 0.85868 0.32599 0.0
C1695 C 0.66477 0.88509 0.31724 0.0
C1696 C 0.68057 0.89261 0.29462 0.0
H1697 H 0.55182 0.98728 0.39161 0.0
H1698 H 0.57818 0.96759 0.35586 0.0
C1699 C 0.69481 0.87405 0.28082 0.0
C1700 C 0.65032 0.90517 0.33224 0.0
H1701 H 0.58759 0.91663 0.356 0.0
C1702 C 0.66595 0.92851 0.34322 0.0
C1703 C 0.62147 0.90146 0.33586 0.0
C1704 C 0.6031 0.87791 0.32277 0.0
C1705 C 0.65376 0.94759 0.35884 0.0
C1706 C 0.62532 0.9429 0.36419 0.0
C1707 C 0.60944 0.92019 0.35209 0.0
C1708 C 0.61214 0.95972 0.38434 0.0
C1709 C 0.67155 0.9725 0.36953 0.0
C1710 C 0.62292 0.96275 0.41201 0.0
C1711 C 0.60809 0.97419 0.43238 0.0
C1712 C 0.58187 0.98249 0.42564 0.0
C1713 C 0.57196 0.98119 0.39755 0.0
C1714 C 0.58693 0.96976 0.3771 0.0
H1715 H 0.68864 0.97785 0.35556 0.0
H1716 H 0.6592 0.98968 0.37147 0.0
H1717 H 0.68113 0.9689 0.39035 0.0
H1718 H 0.64201 0.95473 0.41829 0.0
H1719 H 0.61645 0.97498 0.45376 0.0
H1720 H 0.21354 0.70923 0.32842 0.0
H1721 H 0.18731 0.68175 0.36139 0.0
H1722 H 0.1154 0.72264 0.3424 0.0
H1723 H 0.14101 0.74936 0.30891 0.0
H1724 H 0.16175 0.6945 0.40827 0.0
H1725 H 0.08377 0.64629 0.32906 0.0
H1726 H 0.11503 0.66576 0.31974 0.0
H1727 H 0.08557 0.68196 0.32962 0.0
C1728 C 0.19209 0.7122 0.33119 0.0
C1729 C 0.17922 0.73115 0.31578 0.0
C1730 C 0.17717 0.69658 0.35008 0.0
C1731 C 0.14923 0.6998 0.35395 0.0
C1732 C 0.13667 0.71928 0.33918 0.0
H1733 H 0.02455 0.61456 0.45251 0.0
H1734 H 0.05206 0.65158 0.43123 0.0
C1735 C 0.1514 0.73459 0.32008 0.0
C1736 C 0.13309 0.68272 0.37326 0.0
H1737 H 0.07484 0.63882 0.37631 0.0
C1738 C 0.14276 0.68232 0.40129 0.0
C1739 C 0.10831 0.66678 0.3641 0.0
C1740 C 0.09769 0.66496 0.33394 0.0
C1741 C 0.12825 0.66642 0.42039 0.0
C1742 C 0.10349 0.65068 0.41119 0.0
C1743 C 0.09363 0.65133 0.38333 0.0
C1744 C 0.0889 0.63117 0.42914 0.0
C1745 C 0.13944 0.66639 0.45023 0.0
C1746 C 0.1008 0.60785 0.43551 0.0
C1747 C 0.08512 0.58671 0.44724 0.0
C1748 C 0.05733 0.58864 0.45302 0.0
C1749 C 0.04601 0.61271 0.4485 0.0
C1750 C 0.06163 0.63377 0.4363 0.0
H1751 H 0.15529 0.6836 0.45543 0.0
H1752 H 0.1224 0.66687 0.4647 0.0
H1753 H 0.14921 0.64777 0.45368 0.0
H1754 H 0.12167 0.60535 0.42979 0.0
H1755 H 0.09432 0.56835 0.45058 0.0
H1756 H 0.35696 0.19521 0.2694 0.0
H1757 H 0.39123 0.17004 0.29297 0.0
H1758 H 0.3341 0.09843 0.28295 0.0
H1759 H 0.30027 0.12309 0.25886 0.0
H1760 H 0.38448 0.14693 0.3409 0.0
H1761 H 0.40456 0.06945 0.26365 0.0
H1762 H 0.38777 0.09837 0.25406 0.0
H1763 H 0.36802 0.06955 0.26712 0.0
C1764 C 0.35194 0.174 0.27179 0.0
C1765 C 0.32586 0.16117 0.2624 0.0
C1766 C 0.37155 0.15964 0.28517 0.0
C1767 C 0.36543 0.13224 0.28931 0.0
C1768 C 0.33967 0.11934 0.27929 0.0
H1769 H 0.40696 0.04483 0.42927 0.0
H1770 H 0.38604 0.06648 0.38995 0.0
C1771 C 0.32018 0.13359 0.26578 0.0
C1772 C 0.38419 0.1178 0.3072 0.0
H1773 H 0.41251 0.05889 0.31238 0.0
C1774 C 0.39107 0.12795 0.33443 0.0
C1775 C 0.39311 0.09316 0.29872 0.0
C1776 C 0.38822 0.08218 0.26917 0.0
C1777 C 0.40512 0.11341 0.35388 0.0
C1778 C 0.4119 0.08779 0.34607 0.0
C1779 C 0.40667 0.0783 0.31841 0.0
C1780 C 0.42327 0.0704 0.36697 0.0
C1781 C 0.41206 0.12537 0.38286 0.0
C1782 C 0.4506 0.06398 0.36612 0.0
C1783 C 0.46259 0.05134 0.38852 0.0
C1784 C 0.44737 0.04512 0.41202 0.0
C1785 C 0.41932 0.0497 0.41165 0.0
C1786 C 0.40736 0.06212 0.38925 0.0
H1787 H 0.41248 0.14743 0.38324 0.0
H1788 H 0.39601 0.1174 0.39692 0.0
H1789 H 0.43248 0.12017 0.39119 0.0
H1790 H 0.46309 0.07009 0.34895 0.0
H1791 H 0.48427 0.04812 0.3882 0.0
H1792 H 0.65776 0.83602 0.74949 0.0
H1793 H 0.62895 0.86863 0.73011 0.0
H1794 H 0.64148 0.83964 0.64704 0.0
H1795 H 0.67036 0.80696 0.66615 0.0
H1796 H 0.64872 0.90861 0.693 0.0
H1797 H 0.5568 0.84446 0.64716 0.0
H1798 H 0.58025 0.83319 0.67361 0.0
H1799 H 0.58928 0.83372 0.63784 0.0
C1800 C 0.654 0.83622 0.7271 0.0
C1801 C 0.66642 0.8189 0.70933 0.0
C1802 C 0.63758 0.85493 0.7161 0.0
C1803 C 0.63295 0.85639 0.6872 0.0
C1804 C 0.64449 0.83854 0.66945 0.0
H1805 H 0.60486 0.97102 0.57033 0.0
H1806 H 0.6235 0.94526 0.60766 0.0
C1807 C 0.66107 0.81994 0.6804 0.0
C1808 C 0.61802 0.87789 0.67536 0.0
H1809 H 0.56401 0.88884 0.63049 0.0
C1810 C 0.62992 0.90438 0.67971 0.0
C1811 C 0.59333 0.87234 0.65839 0.0
C1812 C 0.57897 0.84441 0.65414 0.0
C1813 C 0.61866 0.92532 0.6661 0.0
C1814 C 0.59506 0.91951 0.64761 0.0
C1815 C 0.5822 0.89324 0.64462 0.0
C1816 C 0.58516 0.9396 0.62877 0.0
C1817 C 0.63249 0.95337 0.67106 0.0
C1818 C 0.55759 0.94555 0.62865 0.0
C1819 C 0.54687 0.96044 0.60733 0.0
C1820 C 0.56346 0.96911 0.58554 0.0
C1821 C 0.59155 0.96458 0.58679 0.0
C1822 C 0.60229 0.94996 0.60821 0.0
H1823 H 0.64437 0.95571 0.69153 0.0
H1824 H 0.64726 0.95801 0.65459 0.0
H1825 H 0.61703 0.96806 0.67027 0.0
H1826 H 0.54402 0.93758 0.64427 0.0
H1827 H 0.52509 0.96339 0.60685 0.0
H1828 H 0.64668 0.16926 0.28278 0.0
H1829 H 0.61463 0.1574 0.31886 0.0
H1830 H 0.65004 0.22595 0.36919 0.0
H1831 H 0.6824 0.23792 0.3333 0.0
H1832 H 0.65346 0.17863 0.39514 0.0
H1833 H 0.5465 0.18361 0.35184 0.0
H1834 H 0.56649 0.16628 0.32841 0.0
H1835 H 0.57641 0.20106 0.337 0.0
C1836 C 0.64709 0.18232 0.3011 0.0
C1837 C 0.66737 0.20427 0.30539 0.0
C1838 C 0.62862 0.17559 0.32166 0.0
C1839 C 0.62998 0.19085 0.34664 0.0
C1840 C 0.64869 0.21398 0.35001 0.0
H1841 H 0.52025 0.12277 0.4702 0.0
H1842 H 0.54723 0.1571 0.4453 0.0
C1843 C 0.66714 0.22076 0.32945 0.0
C1844 C 0.61519 0.18015 0.37062 0.0
H1845 H 0.55191 0.15259 0.38879 0.0
C1846 C 0.63115 0.17349 0.39409 0.0
C1847 C 0.58614 0.17373 0.36931 0.0
C1848 C 0.56787 0.18181 0.34539 0.0
C1849 C 0.61899 0.15888 0.41544 0.0
C1850 C 0.59028 0.1505 0.41294 0.0
C1851 C 0.57403 0.1588 0.39047 0.0
C1852 C 0.57697 0.13117 0.43187 0.0
C1853 C 0.63709 0.15192 0.44004 0.0
C1854 C 0.58524 0.1054 0.43307 0.0
C1855 C 0.56989 0.08567 0.44727 0.0
C1856 C 0.54583 0.0914 0.46019 0.0
C1857 C 0.53852 0.11764 0.4602 0.0
C1858 C 0.55391 0.13732 0.44606 0.0
H1859 H 0.65581 0.16658 0.44342 0.0
H1860 H 0.62556 0.15112 0.45939 0.0
H1861 H 0.64414 0.13205 0.43598 0.0
H1862 H 0.60271 0.10014 0.42179 0.0
H1863 H 0.57602 0.06566 0.44681 0.0
H1864 H 0.86293 0.70816 0.30428 0.0
H1865 H 0.88043 0.67641 0.33601 0.0
H1866 H 0.79864 0.63382 0.33671 0.0
H1867 H 0.78082 0.66559 0.30427 0.0
H1868 H 0.86566 0.6623 0.38908 0.0
H1869 H 0.84719 0.57593 0.3133 0.0
H1870 H 0.84554 0.60981 0.30288 0.0
H1871 H 0.81768 0.59301 0.3209 0.0
C1872 C 0.84852 0.69214 0.31118 0.0
C1873 C 0.82048 0.68931 0.30153 0.0
C1874 C 0.85859 0.67402 0.32943 0.0
C1875 C 0.84095 0.65256 0.33848 0.0
C1876 C 0.81272 0.65001 0.32963 0.0
H1877 H 0.91788 0.55514 0.46481 0.0
H1878 H 0.88315 0.57979 0.4413 0.0
C1879 C 0.80254 0.66826 0.31125 0.0
C1880 C 0.85286 0.63276 0.35652 0.0
H1881 H 0.87085 0.56916 0.35587 0.0
C1882 C 0.86644 0.64179 0.38208 0.0
C1883 C 0.85403 0.6061 0.34717 0.0
C1884 C 0.84053 0.59553 0.3195 0.0
C1885 C 0.88215 0.62527 0.39798 0.0
C1886 C 0.88389 0.5988 0.38829 0.0
C1887 C 0.86936 0.58942 0.36331 0.0
C1888 C 0.90311 0.5816 0.40212 0.0
C1889 C 0.89804 0.63682 0.42416 0.0
C1890 C 0.92524 0.5735 0.38759 0.0
C1891 C 0.94496 0.55924 0.40083 0.0
C1892 C 0.94301 0.55274 0.42897 0.0
C1893 C 0.92017 0.55997 0.4432 0.0
C1894 C 0.90036 0.57419 0.42984 0.0
H1895 H 0.89875 0.65888 0.42575 0.0
H1896 H 0.88785 0.62853 0.44261 0.0
H1897 H 0.91964 0.63144 0.42494 0.0
H1898 H 0.92774 0.57892 0.36616 0.0
H1899 H 0.96212 0.55392 0.38913 0.0
H1900 H 0.29417 0.82394 0.32098 0.0
H1901 H 0.3301 0.84772 0.35224 0.0
H1902 H 0.3786 0.78119 0.34752 0.0
H1903 H 0.34251 0.75702 0.31576 0.0
H1904 H 0.35403 0.83315 0.40473 0.0
H1905 H 0.43048 0.84614 0.32243 0.0
H1906 H 0.39406 0.83636 0.31421 0.0
H1907 H 0.4156 0.81273 0.32835 0.0
C1908 C 0.31237 0.81419 0.32662 0.0
C1909 C 0.31556 0.78861 0.31567 0.0
C1910 C 0.33286 0.82782 0.34461 0.0
C1911 C 0.35709 0.81634 0.35195 0.0
C1912 C 0.36013 0.7905 0.34181 0.0
H1913 H 0.50367 0.90218 0.44108 0.0
H1914 H 0.47147 0.86659 0.41833 0.0
C1915 C 0.33947 0.77668 0.3238 0.0
C1916 C 0.37935 0.83224 0.36936 0.0
H1917 H 0.44299 0.86758 0.3659 0.0
C1918 C 0.37364 0.84043 0.39641 0.0
C1919 C 0.40488 0.84168 0.3584 0.0
C1920 C 0.41174 0.834 0.32921 0.0
C1921 C 0.39254 0.85835 0.41255 0.0
C1922 C 0.4175 0.86871 0.4011 0.0
C1923 C 0.42374 0.85967 0.37453 0.0
C1924 C 0.43673 0.89002 0.41568 0.0
C1925 C 0.38553 0.86624 0.44163 0.0
C1926 C 0.42793 0.9151 0.42141 0.0
C1927 C 0.44628 0.93556 0.43427 0.0
C1928 C 0.47387 0.93136 0.44157 0.0
C1929 C 0.48261 0.90617 0.43571 0.0
C1930 C 0.46424 0.88576 0.42276 0.0
H1931 H 0.37005 0.85121 0.45011 0.0
H1932 H 0.40436 0.86877 0.45601 0.0
H1933 H 0.37651 0.88552 0.44113 0.0
H1934 H 0.40691 0.91895 0.4156 0.0
H1935 H 0.43883 0.95466 0.43847 0.0
H1936 H 0.21158 0.3411 0.31602 0.0
H1937 H 0.18949 0.36758 0.35032 0.0
H1938 H 0.12336 0.30391 0.35463 0.0
H1939 H 0.1452 0.27738 0.32075 0.0
H1940 H 0.13573 0.38279 0.34138 0.0
H1941 H 0.14315 0.3245 0.43705 0.0
H1942 H 0.16466 0.32036 0.40804 0.0
H1943 H 0.1294 0.30515 0.40656 0.0
C1944 C 0.19256 0.33262 0.3246 0.0
C1945 C 0.18007 0.30722 0.31557 0.0
C1946 C 0.18 0.34773 0.34419 0.0
C1947 C 0.15501 0.33752 0.35529 0.0
C1948 C 0.14292 0.31193 0.34679 0.0
H1949 H 0.02656 0.40374 0.44525 0.0
H1950 H 0.05635 0.37324 0.42395 0.0
C1951 C 0.15533 0.29692 0.32718 0.0
C1952 C 0.14002 0.35449 0.37352 0.0
H1953 H 0.11195 0.35804 0.43704 0.0
C1954 C 0.13082 0.37756 0.36241 0.0
C1955 C 0.13331 0.34734 0.40079 0.0
C1956 C 0.14333 0.32311 0.41397 0.0
C1957 C 0.11459 0.39346 0.3776 0.0
C1958 C 0.1079 0.3864 0.4049 0.0
C1959 C 0.11715 0.36336 0.41612 0.0
C1960 C 0.09155 0.40314 0.42194 0.0
C1961 C 0.10411 0.41732 0.36396 0.0
C1962 C 0.102 0.42955 0.42899 0.0
C1963 C 0.08509 0.4469 0.4408 0.0
C1964 C 0.05751 0.43806 0.44618 0.0
C1965 C 0.04774 0.41103 0.44128 0.0
C1966 C 0.06468 0.39366 0.4291 0.0
H1967 H 0.10505 0.41605 0.34093 0.0
H1968 H 0.08238 0.4193 0.36908 0.0
H1969 H 0.1172 0.43567 0.37175 0.0
H1970 H 0.12288 0.43708 0.42416 0.0
H1971 H 0.0933 0.46754 0.4448 0.0
H1972 H 0.29726 0.12866 0.73197 0.0
H1973 H 0.32382 0.0981 0.70725 0.0
H1974 H 0.35517 0.16186 0.65578 0.0
H1975 H 0.32928 0.19291 0.6812 0.0
H1976 H 0.32066 0.08145 0.65496 0.0
H1977 H 0.4259 0.13264 0.67967 0.0
H1978 H 0.39595 0.14168 0.69684 0.0
H1979 H 0.40356 0.15424 0.66308 0.0
C1980 C 0.30988 0.13628 0.71545 0.0
C1981 C 0.31121 0.16328 0.70859 0.0
C1982 C 0.32509 0.11873 0.70134 0.0
C1983 C 0.34191 0.12771 0.67995 0.0
C1984 C 0.34297 0.15459 0.67273 0.0
H1985 H 0.3963 0.04178 0.54288 0.0
H1986 H 0.36961 0.06131 0.57785 0.0
C1987 C 0.32798 0.17229 0.6871 0.0
C1988 C 0.35747 0.10864 0.66463 0.0
H1989 H 0.42152 0.09955 0.64248 0.0
C1990 C 0.34279 0.08529 0.65251 0.0
C1991 C 0.38647 0.11318 0.66198 0.0
C1992 C 0.40393 0.13665 0.67635 0.0
C1993 C 0.35604 0.06702 0.63682 0.0
C1994 C 0.38463 0.07259 0.63244 0.0
C1995 C 0.39956 0.09532 0.6456 0.0
C1996 C 0.39896 0.05663 0.61236 0.0
C1997 C 0.33918 0.04197 0.62511 0.0
C1998 C 0.42436 0.04711 0.62001 0.0
C1999 C 0.44 0.0361 0.59981 0.0
C2000 C 0.43057 0.03468 0.57158 0.0
C2001 C 0.40428 0.04262 0.56439 0.0
C2002 C 0.3888 0.05365 0.58448 0.0
H2003 H 0.32185 0.03576 0.63851 0.0
H2004 H 0.32996 0.04586 0.60422 0.0
H2005 H 0.35212 0.02524 0.62305 0.0
H2006 H 0.43266 0.04925 0.6414 0.0
H2007 H 0.46021 0.03037 0.60607 0.0
H2008 H 0.79612 0.25977 0.64786 0.0
H2009 H 0.82227 0.28142 0.61097 0.0
H2010 H 0.84385 0.35113 0.66478 0.0
H2011 H 0.818 0.32974 0.70175 0.0
H2012 H 0.8186 0.33115 0.58425 0.0
H2013 H 0.91939 0.32808 0.64293 0.0
H2014 H 0.88805 0.3083 0.65179 0.0
H2015 H 0.89439 0.34287 0.66283 0.0
C2016 C 0.80617 0.27984 0.65175 0.0
C2017 C 0.80518 0.29294 0.67788 0.0
C2018 C 0.82114 0.29213 0.63065 0.0
C2019 C 0.83547 0.31761 0.6354 0.0
C2020 C 0.83341 0.33121 0.66094 0.0
H2021 H 0.8996 0.44661 0.54723 0.0
H2022 H 0.87071 0.40959 0.56557 0.0
C2023 C 0.81846 0.319 0.68199 0.0
C2024 C 0.85311 0.33004 0.61406 0.0
H2025 H 0.91896 0.35818 0.60527 0.0
C2026 C 0.84063 0.3367 0.5886 0.0
C2027 C 0.88198 0.3366 0.61943 0.0
C2028 C 0.89684 0.32836 0.64561 0.0
C2029 C 0.85596 0.35153 0.56924 0.0
C2030 C 0.88433 0.36015 0.57576 0.0
C2031 C 0.89718 0.35176 0.60031 0.0
C2032 C 0.90006 0.38081 0.55974 0.0
C2033 C 0.84146 0.35839 0.54231 0.0
C2034 C 0.92623 0.377 0.55007 0.0
C2035 C 0.94301 0.39837 0.53958 0.0
C2036 C 0.93398 0.42389 0.53914 0.0
C2037 C 0.90721 0.42721 0.54747 0.0
C2038 C 0.89049 0.40595 0.55769 0.0
H2039 H 0.82421 0.34283 0.53579 0.0
H2040 H 0.8324 0.37745 0.5454 0.0
H2041 H 0.85603 0.36067 0.5253 0.0
H2042 H 0.93412 0.35779 0.55171 0.0
H2043 H 0.9636 0.39528 0.53345 0.0
H2044 H 0.21859 0.72094 0.65505 0.0
H2045 H 0.18522 0.68989 0.62716 0.0
H2046 H 0.18601 0.63311 0.69239 0.0
H2047 H 0.21937 0.66385 0.72045 0.0
H2048 H 0.18826 0.61133 0.63544 0.0
H2049 H 0.10287 0.67489 0.64949 0.0
H2050 H 0.13425 0.6912 0.63675 0.0
H2051 H 0.13453 0.67878 0.67136 0.0
C2052 C 0.2119 0.70176 0.66339 0.0
C2053 C 0.22151 0.695 0.69011 0.0
C2054 C 0.19277 0.6841 0.64745 0.0
C2055 C 0.18298 0.65941 0.65792 0.0
C2056 C 0.1933 0.65214 0.68403 0.0
H2057 H 0.03406 0.55594 0.60882 0.0
H2058 H 0.07258 0.58312 0.63407 0.0
C2059 C 0.21233 0.66979 0.70004 0.0
C2060 C 0.16106 0.64159 0.64221 0.0
H2061 H 0.09264 0.63627 0.6204 0.0
C2062 C 0.16736 0.61674 0.63205 0.0
C2063 C 0.13379 0.64867 0.63823 0.0
C2064 C 0.12574 0.67473 0.64967 0.0
C2065 C 0.14703 0.59882 0.61768 0.0
C2066 C 0.11986 0.6061 0.61333 0.0
C2067 C 0.11355 0.63085 0.62371 0.0
C2068 C 0.09749 0.58827 0.59826 0.0
C2069 C 0.15457 0.57208 0.60768 0.0
C2070 C 0.09884 0.58219 0.56977 0.0
C2071 C 0.07684 0.56672 0.55522 0.0
C2072 C 0.05305 0.55713 0.56892 0.0
C2073 C 0.05203 0.56296 0.59761 0.0
C2074 C 0.074 0.5785 0.61209 0.0
H2075 H 0.17444 0.56729 0.61781 0.0
H2076 H 0.13799 0.556 0.61181 0.0
H2077 H 0.15683 0.5723 0.58485 0.0
H2078 H 0.11663 0.5899 0.55866 0.0
H2079 H 0.07833 0.56268 0.53314 0.0
loop_
_geom_bond_atom_site_label_1
_geom_bond_atom_site_label_2
_geom_bond_distance
_geom_bond_site_symmetry_2
_ccdc_geom_bond_type
Zn0 O6 1.969 . S
Zn0 O7 1.965 . S
Zn0 O11 2.024 . S
Zn0 O16 1.969 . S
Zn1 O8 1.969 . S
Zn1 O14 1.969 . S
Zn1 O15 1.965 . S
Zn1 O17 2.024 . S
C2 O3 1.229 . S
C2 O11 1.058 . S
O3 C2 1.229 . S
C4 O5 1.229 . S
C4 O17 1.058 . S
O5 C4 1.229 . S
O6 Zn0 1.969 . S
O6 C9 1.267 . S
O7 Zn0 1.965 . S
O7 C18 1.260 . S
O8 Zn1 1.969 . S
O8 C18 1.258 . S
C9 O6 1.267 . S
C9 O10 1.228 . S
O10 C9 1.228 . S
O11 Zn0 2.024 . S
O11 C2 1.058 . S
C12 O13 1.228 . S
C12 O14 1.267 . S
O13 C12 1.228 . S
O14 Zn1 1.969 . S
O14 C12 1.267 . S
O15 Zn1 1.965 . S
O15 C19 1.260 . S
O16 Zn0 1.969 . S
O16 C19 1.258 . S
O17 Zn1 2.024 . S
O17 C4 1.058 . S
C18 O7 1.260 . S
C18 O8 1.258 . S
C19 O15 1.260 . S
C19 O16 1.258 . S
Zn20 O26 1.969 . S
Zn20 O27 1.965 . S
Zn20 O31 2.024 . S
Zn20 O36 1.969 . S
Zn21 O28 1.969 . S
Zn21 O34 1.969 . S
Zn21 O35 1.965 . S
Zn21 O37 2.024 . S
C22 O23 1.229 . S
C22 O31 1.058 . S
O23 C22 1.229 . S
C24 O25 1.229 . S
C24 O37 1.058 . S
O25 C24 1.229 . S
O26 Zn20 1.969 . S
O26 C29 1.267 . S
O27 Zn20 1.965 . S
O27 C38 1.260 . S
O28 Zn21 1.969 . S
O28 C38 1.258 . S
C29 O26 1.267 . S
C29 O30 1.228 . S
O30 C29 1.228 . S
O31 Zn20 2.024 . S
O31 C22 1.058 . S
C32 O33 1.228 . S
C32 O34 1.267 . S
O33 C32 1.228 . S
O34 Zn21 1.969 . S
O34 C32 1.267 . S
O35 Zn21 1.965 . S
O35 C39 1.260 . S
O36 Zn20 1.969 . S
O36 C39 1.258 . S
O37 Zn21 2.024 . S
O37 C24 1.058 . S
C38 O27 1.260 . S
C38 O28 1.258 . S
C39 O35 1.260 . S
C39 O36 1.258 . S
Zn40 O46 1.969 . S
Zn40 O47 1.965 . S
Zn40 O51 2.024 . S
Zn40 O56 1.969 . S
Zn41 O48 1.969 . S
Zn41 O54 1.969 . S
Zn41 O55 1.965 . S
Zn41 O57 2.024 . S
C42 O43 1.229 . S
C42 O51 1.058 . S
O43 C42 1.229 . S
C44 O45 1.229 . S
C44 O57 1.058 . S
O45 C44 1.229 . S
O46 Zn40 1.969 . S
O46 C49 1.267 . S
O47 Zn40 1.965 . S
O47 C58 1.260 . S
O48 Zn41 1.969 . S
O48 C58 1.258 . S
C49 O46 1.267 . S
C49 O50 1.228 . S
O50 C49 1.228 . S
O51 Zn40 2.024 . S
O51 C42 1.058 . S
C52 O53 1.228 . S
C52 O54 1.267 . S
O53 C52 1.228 . S
O54 Zn41 1.969 . S
O54 C52 1.267 . S
O55 Zn41 1.965 . S
O55 C59 1.260 . S
O56 Zn40 1.969 . S
O56 C59 1.258 . S
O57 Zn41 2.024 . S
O57 C44 1.058 . S
C58 O47 1.260 . S
C58 O48 1.258 . S
C59 O55 1.260 . S
C59 O56 1.258 . S
Zn60 O66 1.969 . S
Zn60 O67 1.965 . S
Zn60 O71 2.024 . S
Zn60 O76 1.969 . S
Zn61 O68 1.969 . S
Zn61 O74 1.969 . S
Zn61 O75 1.965 . S
Zn61 O77 2.024 . S
C62 O63 1.229 . S
C62 O71 1.058 . S
O63 C62 1.229 . S
C64 O65 1.229 . S
C64 O77 1.058 . S
O65 C64 1.229 . S
O66 Zn60 1.969 . S
O66 C69 1.267 . S
O67 Zn60 1.965 . S
O67 C78 1.260 . S
O68 Zn61 1.969 . S
O68 C78 1.258 . S
C69 O66 1.267 . S
C69 O70 1.228 . S
O70 C69 1.228 . S
O71 Zn60 2.024 . S
O71 C62 1.058 . S
C72 O73 1.228 . S
C72 O74 1.267 . S
O73 C72 1.228 . S
O74 Zn61 1.969 . S
O74 C72 1.267 . S
O75 Zn61 1.965 . S
O75 C79 1.260 . S
O76 Zn60 1.969 . S
O76 C79 1.258 . S
O77 Zn61 2.024 . S
O77 C64 1.058 . S
C78 O67 1.260 . S
C78 O68 1.258 . S
C79 O75 1.260 . S
C79 O76 1.258 . S
Zn80 O86 1.969 . S
Zn80 O87 1.965 . S
Zn80 O91 2.024 . S
Zn80 O96 1.969 . S
Zn81 O88 1.969 . S
Zn81 O94 1.969 . S
Zn81 O95 1.965 . S
Zn81 O97 2.024 . S
C82 O83 1.229 . S
C82 O91 1.058 . S
O83 C82 1.229 . S
C84 O85 1.229 . S
C84 O97 1.058 . S
O85 C84 1.229 . S
O86 Zn80 1.969 . S
O86 C89 1.267 . S
O87 Zn80 1.965 . S
O87 C98 1.260 . S
O88 Zn81 1.969 . S
O88 C98 1.258 . S
C89 O86 1.267 . S
C89 O90 1.228 . S
O90 C89 1.228 . S
O91 Zn80 2.024 . S
O91 C82 1.058 . S
C92 O93 1.228 . S
C92 O94 1.267 . S
O93 C92 1.228 . S
O94 Zn81 1.969 . S
O94 C92 1.267 . S
O95 Zn81 1.965 . S
O95 C99 1.260 . S
O96 Zn80 1.969 . S
O96 C99 1.258 . S
O97 Zn81 2.024 . S
O97 C84 1.058 . S
C98 O87 1.260 . S
C98 O88 1.258 . S
C99 O95 1.260 . S
C99 O96 1.258 . S
Zn100 O106 1.969 . S
Zn100 O107 1.965 . S
Zn100 O111 2.024 . S
Zn100 O116 1.969 . S
Zn101 O108 1.969 . S
Zn101 O114 1.969 . S
Zn101 O115 1.965 . S
Zn101 O117 2.024 . S
C102 O103 1.229 . S
C102 O111 1.058 . S
O103 C102 1.229 . S
C104 O105 1.229 . S
C104 O117 1.058 . S
O105 C104 1.229 . S
O106 Zn100 1.969 . S
O106 C109 1.267 . S
O107 Zn100 1.965 . S
O107 C118 1.260 . S
O108 Zn101 1.969 . S
O108 C118 1.258 . S
C109 O106 1.267 . S
C109 O110 1.228 . S
O110 C109 1.228 . S
O111 Zn100 2.024 . S
O111 C102 1.058 . S
C112 O113 1.228 . S
C112 O114 1.267 . S
O113 C112 1.228 . S
O114 Zn101 1.969 . S
O114 C112 1.267 . S
O115 Zn101 1.965 . S
O115 C119 1.260 . S
O116 Zn100 1.969 . S
O116 C119 1.258 . S
O117 Zn101 2.024 . S
O117 C104 1.058 . S
C118 O107 1.260 . S
C118 O108 1.258 . S
C119 O115 1.260 . S
C119 O116 1.258 . S
Zn120 O126 1.969 . S
Zn120 O127 1.965 . S
Zn120 O131 2.024 . S
Zn120 O136 1.969 . S
Zn121 O128 1.969 . S
Zn121 O134 1.969 . S
Zn121 O135 1.965 . S
Zn121 O137 2.024 . S
C122 O123 1.229 . S
C122 O131 1.058 . S
O123 C122 1.229 . S
C124 O125 1.229 . S
C124 O137 1.058 . S
O125 C124 1.229 . S
O126 Zn120 1.969 . S
O126 C129 1.267 . S
O127 Zn120 1.965 . S
O127 C138 1.260 . S
O128 Zn121 1.969 . S
O128 C138 1.258 . S
C129 O126 1.267 . S
C129 O130 1.228 . S
O130 C129 1.228 . S
O131 Zn120 2.024 . S
O131 C122 1.058 . S
C132 O133 1.228 . S
C132 O134 1.267 . S
O133 C132 1.228 . S
O134 Zn121 1.969 . S
O134 C132 1.267 . S
O135 Zn121 1.965 . S
O135 C139 1.260 . S
O136 Zn120 1.969 . S
O136 C139 1.258 . S
O137 Zn121 2.024 . S
O137 C124 1.058 . S
C138 O127 1.260 . S
C138 O128 1.258 . S
C139 O135 1.260 . S
C139 O136 1.258 . S
Zn140 O146 1.969 . S
Zn140 O147 1.965 . S
Zn140 O151 2.024 . S
Zn140 O156 1.969 . S
Zn141 O148 1.969 . S
Zn141 O154 1.969 . S
Zn141 O155 1.965 . S
Zn141 O157 2.024 . S
C142 O143 1.229 . S
C142 O151 1.058 . S
O143 C142 1.229 . S
C144 O145 1.229 . S
C144 O157 1.058 . S
O145 C144 1.229 . S
O146 Zn140 1.969 . S
O146 C149 1.267 . S
O147 Zn140 1.965 . S
O147 C158 1.260 . S
O148 Zn141 1.969 . S
O148 C158 1.258 . S
C149 O146 1.267 . S
C149 O150 1.228 . S
O150 C149 1.228 . S
O151 Zn140 2.024 . S
O151 C142 1.058 . S
C152 O153 1.228 . S
C152 O154 1.267 . S
O153 C152 1.228 . S
O154 Zn141 1.969 . S
O154 C152 1.267 . S
O155 Zn141 1.965 . S
O155 C159 1.260 . S
O156 Zn140 1.969 . S
O156 C159 1.258 . S
O157 Zn141 2.024 . S
O157 C144 1.058 . S
C158 O147 1.260 . S
C158 O148 1.258 . S
C159 O155 1.260 . S
C159 O156 1.258 . S
Fe160 O161 1.886 1_455 S
Fe160 O164 1.715 . S
Fe160 O169 2.077 1_455 S
Fe160 O174 1.935 . S
Fe160 O180 2.077 1_455 S
Fe160 O189 1.935 . S
O161 Fe160 1.886 1_655 S
O161 Fe163 1.715 1_545 S
Fe162 O164 1.886 . S
Fe162 O165 1.715 1_545 S
Fe162 O172 1.935 1_545 S
Fe162 O173 2.077 . S
Fe162 O179 1.935 1_545 S
Fe162 O188 2.077 . S
Fe163 O161 1.715 1_565 S
Fe163 O166 1.886 . S
Fe163 O170 1.935 1_565 S
Fe163 O175 2.077 . S
Fe163 O181 1.935 1_565 S
Fe163 O185 2.077 . S
O164 Fe160 1.715 . S
O164 Fe162 1.886 . S
O165 Fe162 1.715 1_565 S
O165 Fe167 1.886 1_455 S
O166 Fe163 1.886 . S
O166 Fe167 1.715 . S
Fe167 O165 1.886 1_655 S
Fe167 O166 1.715 . S
Fe167 O171 2.077 1_655 S
Fe167 O176 1.935 . S
Fe167 O178 2.077 1_655 S
Fe167 O186 1.935 . S
C168 O180 1.381 . S
C168 O181 1.421 . S
O169 Fe160 2.077 1_655 S
O169 C182 1.381 . S
O170 Fe163 1.935 1_545 S
O170 C182 1.421 . S
O171 Fe167 2.077 1_455 S
O171 C187 1.381 . S
O172 Fe162 1.935 1_565 S
O172 C187 1.421 . S
O173 Fe162 2.077 . S
O173 C177 1.381 . S
O174 Fe160 1.935 . S
O174 C177 1.421 . S
O175 Fe163 2.077 . S
O175 C183 1.381 . S
O176 Fe167 1.935 . S
O176 C183 1.421 . S
C177 O173 1.381 . S
C177 O174 1.421 . S
O178 Fe167 2.077 1_455 S
O178 C190 1.381 . S
O179 Fe162 1.935 1_565 S
O179 C190 1.421 . S
O180 Fe160 2.077 1_655 S
O180 C168 1.381 . S
O181 Fe163 1.935 1_545 S
O181 C168 1.421 . S
C182 O169 1.381 . S
C182 O170 1.421 . S
C183 O175 1.381 . S
C183 O176 1.421 . S
C184 O185 1.381 . S
C184 O186 1.421 . S
O185 Fe163 2.077 . S
O185 C184 1.381 . S
O186 Fe167 1.935 . S
O186 C184 1.421 . S
C187 O171 1.381 . S
C187 O172 1.421 . S
O188 Fe162 2.077 . S
O188 C191 1.381 . S
O189 Fe160 1.935 . S
O189 C191 1.421 . S
C190 O178 1.381 . S
C190 O179 1.421 . S
C191 O188 1.381 . S
C191 O189 1.421 . S
Fe192 O193 1.886 1_556 S
Fe192 O196 1.715 . S
Fe192 O201 2.077 . S
Fe192 O206 1.935 . S
Fe192 O212 2.077 1_556 S
Fe192 O221 1.935 1_556 S
O193 Fe192 1.886 1_554 S
O193 Fe195 1.715 1_565 S
Fe194 O196 1.886 . S
Fe194 O197 1.715 1_565 S
Fe194 O204 1.935 1_565 S
Fe194 O205 2.077 . S
Fe194 O211 1.935 1_566 S
Fe194 O220 2.077 1_556 S
Fe195 O193 1.715 1_545 S
Fe195 O198 1.886 . S
Fe195 O202 1.935 1_544 S
Fe195 O207 2.077 1_554 S
Fe195 O213 1.935 1_545 S
Fe195 O217 2.077 . S
O196 Fe192 1.715 . S
O196 Fe194 1.886 . S
O197 Fe194 1.715 1_545 S
O197 Fe199 1.886 1_556 S
O198 Fe195 1.886 . S
O198 Fe199 1.715 . S
Fe199 O197 1.886 1_554 S
Fe199 O198 1.715 . S
Fe199 O203 2.077 1_554 S
Fe199 O208 1.935 1_554 S
Fe199 O210 2.077 . S
Fe199 O218 1.935 . S
C200 O212 1.381 . S
C200 O213 1.421 . S
O201 Fe192 2.077 . S
O201 C214 1.381 . S
O202 Fe195 1.935 1_566 S
O202 C214 1.421 . S
O203 Fe199 2.077 1_556 S
O203 C219 1.381 . S
O204 Fe194 1.935 1_545 S
O204 C219 1.421 . S
O205 Fe194 2.077 . S
O205 C209 1.381 . S
O206 Fe192 1.935 . S
O206 C209 1.421 . S
O207 Fe195 2.077 1_556 S
O207 C215 1.381 . S
O208 Fe199 1.935 1_556 S
O208 C215 1.421 . S
C209 O205 1.381 . S
C209 O206 1.421 . S
O210 Fe199 2.077 . S
O210 C222 1.381 . S
O211 Fe194 1.935 1_544 S
O211 C222 1.421 . S
O212 Fe192 2.077 1_554 S
O212 C200 1.381 . S
O213 Fe195 1.935 1_565 S
O213 C200 1.421 . S
C214 O201 1.381 . S
C214 O202 1.421 . S
C215 O207 1.381 . S
C215 O208 1.421 . S
C216 O217 1.381 . S
C216 O218 1.421 . S
O217 Fe195 2.077 . S
O217 C216 1.381 . S
O218 Fe199 1.935 . S
O218 C216 1.421 . S
C219 O203 1.381 . S
C219 O204 1.421 . S
O220 Fe194 2.077 1_554 S
O220 C223 1.381 . S
O221 Fe192 1.935 1_554 S
O221 C223 1.421 . S
C222 O210 1.381 . S
C222 O211 1.421 . S
C223 O220 1.381 . S
C223 O221 1.421 . S
Fe224 O225 1.886 1_454 S
Fe224 O228 1.715 . S
Fe224 O233 2.077 1_454 S
Fe224 O238 1.935 1_554 S
Fe224 O244 2.077 1_455 S
Fe224 O253 1.935 . S
O225 Fe224 1.886 1_656 S
O225 Fe227 1.715 . S
Fe226 O228 1.886 . S
Fe226 O229 1.715 . S
Fe226 O236 1.935 1_554 S
Fe226 O237 2.077 1_554 S
Fe226 O243 1.935 . S
Fe226 O252 2.077 . S
Fe227 O225 1.715 . S
Fe227 O230 1.886 . S
Fe227 O234 1.935 . S
Fe227 O239 2.077 . S
Fe227 O245 1.935 1_556 S
Fe227 O249 2.077 1_556 S
O228 Fe224 1.715 . S
O228 Fe226 1.886 . S
O229 Fe226 1.715 . S
O229 Fe231 1.886 1_454 S
O230 Fe227 1.886 . S
O230 Fe231 1.715 . S
Fe231 O229 1.886 1_656 S
Fe231 O230 1.715 . S
Fe231 O235 2.077 1_655 S
Fe231 O240 1.935 . S
Fe231 O242 2.077 1_656 S
Fe231 O250 1.935 1_556 S
C232 O244 1.381 . S
C232 O245 1.421 . S
O233 Fe224 2.077 1_656 S
O233 C246 1.381 . S
O234 Fe227 1.935 . S
O234 C246 1.421 . S
O235 Fe231 2.077 1_455 S
O235 C251 1.381 . S
O236 Fe226 1.935 1_556 S
O236 C251 1.421 . S
O237 Fe226 2.077 1_556 S
O237 C241 1.381 . S
O238 Fe224 1.935 1_556 S
O238 C241 1.421 . S
O239 Fe227 2.077 . S
O239 C247 1.381 . S
O240 Fe231 1.935 . S
O240 C247 1.421 . S
C241 O237 1.381 . S
C241 O238 1.421 . S
O242 Fe231 2.077 1_454 S
O242 C254 1.381 . S
O243 Fe226 1.935 . S
O243 C254 1.421 . S
O244 Fe224 2.077 1_655 S
O244 C232 1.381 . S
O245 Fe227 1.935 1_554 S
O245 C232 1.421 . S
C246 O233 1.381 . S
C246 O234 1.421 . S
C247 O239 1.381 . S
C247 O240 1.421 . S
C248 O249 1.381 . S
C248 O250 1.421 . S
O249 Fe227 2.077 1_554 S
O249 C248 1.381 . S
O250 Fe231 1.935 1_554 S
O250 C248 1.421 . S
C251 O235 1.381 . S
C251 O236 1.421 . S
O252 Fe226 2.077 . S
O252 C255 1.381 . S
O253 Fe224 1.935 . S
O253 C255 1.421 . S
C254 O242 1.381 . S
C254 O243 1.421 . S
C255 O252 1.381 . S
C255 O253 1.421 . S
Fe256 O257 1.886 . S
Fe256 O260 1.715 . S
Fe256 O265 2.077 . S
Fe256 O270 1.935 . S
Fe256 O276 2.077 . S
Fe256 O285 1.935 . S
O257 Fe256 1.886 . S
O257 Fe259 1.715 1_556 S
Fe258 O260 1.886 . S
Fe258 O261 1.715 1_556 S
Fe258 O268 1.935 1_556 S
Fe258 O269 2.077 . S
Fe258 O275 1.935 1_556 S
Fe258 O284 2.077 . S
Fe259 O257 1.715 1_554 S
Fe259 O262 1.886 . S
Fe259 O266 1.935 1_554 S
Fe259 O271 2.077 . S
Fe259 O277 1.935 1_554 S
Fe259 O281 2.077 . S
O260 Fe256 1.715 . S
O260 Fe258 1.886 . S
O261 Fe258 1.715 1_554 S
O261 Fe263 1.886 . S
O262 Fe259 1.886 . S
O262 Fe263 1.715 . S
Fe263 O261 1.886 . S
Fe263 O262 1.715 . S
Fe263 O267 2.077 . S
Fe263 O272 1.935 . S
Fe263 O274 2.077 . S
Fe263 O282 1.935 . S
C264 O276 1.381 . S
C264 O277 1.421 . S
O265 Fe256 2.077 . S
O265 C278 1.381 . S
O266 Fe259 1.935 1_556 S
O266 C278 1.421 . S
O267 Fe263 2.077 . S
O267 C283 1.381 . S
O268 Fe258 1.935 1_554 S
O268 C283 1.421 . S
O269 Fe258 2.077 . S
O269 C273 1.381 . S
O270 Fe256 1.935 . S
O270 C273 1.421 . S
O271 Fe259 2.077 . S
O271 C279 1.381 . S
O272 Fe263 1.935 . S
O272 C279 1.421 . S
C273 O269 1.381 . S
C273 O270 1.421 . S
O274 Fe263 2.077 . S
O274 C286 1.381 . S
O275 Fe258 1.935 1_554 S
O275 C286 1.421 . S
O276 Fe256 2.077 . S
O276 C264 1.381 . S
O277 Fe259 1.935 1_556 S
O277 C264 1.421 . S
C278 O265 1.381 . S
C278 O266 1.421 . S
C279 O271 1.381 . S
C279 O272 1.421 . S
C280 O281 1.381 . S
C280 O282 1.421 . S
O281 Fe259 2.077 . S
O281 C280 1.381 . S
O282 Fe263 1.935 . S
O282 C280 1.421 . S
C283 O267 1.381 . S
C283 O268 1.421 . S
O284 Fe258 2.077 . S
O284 C287 1.381 . S
O285 Fe256 1.935 . S
O285 C287 1.421 . S
C286 O274 1.381 . S
C286 O275 1.421 . S
C287 O284 1.381 . S
C287 O285 1.421 . S
Fe288 O289 1.885 . S
Fe288 O292 1.715 . S
Fe288 O297 2.077 1_655 S
Fe288 O302 1.935 1_655 S
Fe288 O308 2.077 . S
Fe288 O317 1.935 . S
O289 Fe288 1.885 . S
O289 Fe291 1.716 1_655 S
Fe290 O292 1.886 . S
Fe290 O293 1.716 1_655 S
Fe290 O300 1.935 1_655 S
Fe290 O301 2.077 1_655 S
Fe290 O307 1.935 . S
Fe290 O316 2.077 . S
Fe291 O289 1.716 1_455 S
Fe291 O294 1.886 . S
Fe291 O298 1.935 . S
Fe291 O303 2.077 . S
Fe291 O309 1.935 1_455 S
Fe291 O313 2.077 1_455 S
O292 Fe288 1.715 . S
O292 Fe290 1.886 . S
O293 Fe290 1.716 1_455 S
O293 Fe295 1.885 . S
O294 Fe291 1.886 . S
O294 Fe295 1.715 . S
Fe295 O293 1.885 . S
Fe295 O294 1.715 . S
Fe295 O299 2.077 . S
Fe295 O304 1.935 . S
Fe295 O306 2.077 1_455 S
Fe295 O314 1.935 1_455 S
C296 O308 1.381 . S
C296 O309 1.421 . S
O297 Fe288 2.077 1_455 S
O297 C310 1.381 . S
O298 Fe291 1.935 . S
O298 C310 1.421 . S
O299 Fe295 2.077 . S
O299 C315 1.381 . S
O300 Fe290 1.935 1_455 S
O300 C315 1.421 . S
O301 Fe290 2.077 1_455 S
O301 C305 1.381 . S
O302 Fe288 1.935 1_455 S
O302 C305 1.421 . S
O303 Fe291 2.077 . S
O303 C311 1.381 . S
O304 Fe295 1.935 . S
O304 C311 1.421 . S
C305 O301 1.381 . S
C305 O302 1.421 . S
O306 Fe295 2.077 1_655 S
O306 C318 1.381 . S
O307 Fe290 1.935 . S
O307 C318 1.421 . S
O308 Fe288 2.077 . S
O308 C296 1.381 . S
O309 Fe291 1.935 1_655 S
O309 C296 1.421 . S
C310 O297 1.381 . S
C310 O298 1.421 . S
C311 O303 1.381 . S
C311 O304 1.421 . S
C312 O313 1.381 . S
C312 O314 1.421 . S
O313 Fe291 2.077 1_655 S
O313 C312 1.381 . S
O314 Fe295 1.935 1_655 S
O314 C312 1.421 . S
C315 O299 1.381 . S
C315 O300 1.421 . S
O316 Fe290 2.077 . S
O316 C319 1.381 . S
O317 Fe288 1.935 . S
O317 C319 1.421 . S
C318 O306 1.381 . S
C318 O307 1.421 . S
C319 O316 1.381 . S
C319 O317 1.421 . S
Fe320 O321 1.886 . S
Fe320 O324 1.715 . S
Fe320 O329 2.077 . S
Fe320 O334 1.935 . S
Fe320 O340 2.077 . S
Fe320 O349 1.935 . S
O321 Fe320 1.886 . S
O321 Fe323 1.715 1_565 S
Fe322 O324 1.886 . S
Fe322 O325 1.715 1_565 S
Fe322 O332 1.935 1_565 S
Fe322 O333 2.077 . S
Fe322 O339 1.935 1_565 S
Fe322 O348 2.077 . S
Fe323 O321 1.715 1_545 S
Fe323 O326 1.886 . S
Fe323 O330 1.935 1_545 S
Fe323 O335 2.077 . S
Fe323 O341 1.935 1_545 S
Fe323 O345 2.077 . S
O324 Fe320 1.715 . S
O324 Fe322 1.886 . S
O325 Fe322 1.715 1_545 S
O325 Fe327 1.886 . S
O326 Fe323 1.886 . S
O326 Fe327 1.715 . S
Fe327 O325 1.886 . S
Fe327 O326 1.715 . S
Fe327 O331 2.077 . S
Fe327 O336 1.935 . S
Fe327 O338 2.077 . S
Fe327 O346 1.935 . S
C328 O340 1.381 . S
C328 O341 1.421 . S
O329 Fe320 2.077 . S
O329 C342 1.381 . S
O330 Fe323 1.935 1_565 S
O330 C342 1.421 . S
O331 Fe327 2.077 . S
O331 C347 1.381 . S
O332 Fe322 1.935 1_545 S
O332 C347 1.421 . S
O333 Fe322 2.077 . S
O333 C337 1.381 . S
O334 Fe320 1.935 . S
O334 C337 1.421 . S
O335 Fe323 2.077 . S
O335 C343 1.381 . S
O336 Fe327 1.935 . S
O336 C343 1.421 . S
C337 O333 1.381 . S
C337 O334 1.421 . S
O338 Fe327 2.077 . S
O338 C350 1.381 . S
O339 Fe322 1.935 1_545 S
O339 C350 1.421 . S
O340 Fe320 2.077 . S
O340 C328 1.381 . S
O341 Fe323 1.935 1_565 S
O341 C328 1.421 . S
C342 O329 1.381 . S
C342 O330 1.421 . S
C343 O335 1.381 . S
C343 O336 1.421 . S
C344 O345 1.381 . S
C344 O346 1.421 . S
O345 Fe323 2.077 . S
O345 C344 1.381 . S
O346 Fe327 1.935 . S
O346 C344 1.421 . S
C347 O331 1.381 . S
C347 O332 1.421 . S
O348 Fe322 2.077 . S
O348 C351 1.381 . S
O349 Fe320 1.935 . S
O349 C351 1.421 . S
C350 O338 1.381 . S
C350 O339 1.421 . S
C351 O348 1.381 . S
C351 O349 1.421 . S
H352 C360 0.929 . S
H353 C362 0.930 . S
H354 C364 0.930 . S
H355 C367 0.929 . S
H356 C370 0.930 . S
H357 C372 0.960 . S
H358 C372 0.960 . S
H359 C372 0.960 . S
C360 H352 0.929 . S
C360 C361 1.377 . S
C360 C362 1.384 . S
C361 C360 1.377 . S
C361 C367 1.390 . S
C362 H353 0.930 . S
C362 C360 1.384 . S
C362 C363 1.372 . S
C363 C362 1.372 . S
C363 C364 1.400 . S
C363 C368 1.490 . S
C364 H354 0.930 . S
C364 C363 1.400 . S
C364 C367 1.386 . S
H365 C381 0.930 . S
H366 C382 0.931 . S
C367 H355 0.929 . S
C367 C361 1.390 . S
C367 C364 1.386 . S
C368 C363 1.490 . S
C368 C370 1.395 . S
C368 C371 1.403 . S
H369 C375 0.930 . S
C370 H356 0.930 . S
C370 C368 1.395 . S
C370 C373 1.403 . S
C371 C368 1.403 . S
C371 C372 1.524 . S
C371 C375 1.400 . S
C372 H357 0.960 . S
C372 H358 0.960 . S
C372 H359 0.960 . S
C372 C371 1.524 . S
C373 C370 1.403 . S
C373 C374 1.392 . S
C373 C377 1.495 . S
C374 C373 1.392 . S
C374 C375 1.385 . S
C374 C376 1.478 . S
C375 H369 0.930 . S
C375 C371 1.400 . S
C375 C374 1.385 . S
C376 C374 1.478 . S
C376 C378 1.381 . S
C376 C382 1.383 . S
C377 C373 1.495 . S
C377 H383 0.959 . S
C377 H384 0.961 . S
C377 H385 0.960 . S
C378 C376 1.381 . S
C378 C379 1.394 . S
C378 H386 0.930 . S
C379 C378 1.394 . S
C379 C380 1.383 . S
C379 H387 0.929 . S
C380 C379 1.383 . S
C380 C381 1.377 . S
C381 H365 0.930 . S
C381 C380 1.377 . S
C381 C382 1.379 . S
C382 H366 0.931 . S
C382 C376 1.383 . S
C382 C381 1.379 . S
H383 C377 0.959 . S
H384 C377 0.961 . S
H385 C377 0.960 . S
H386 C378 0.930 . S
H387 C379 0.929 . S
H388 C396 0.929 . S
H389 C398 0.930 . S
H390 C400 0.930 . S
H391 C403 0.929 . S
H392 C406 0.930 . S
H393 C408 0.960 . S
H394 C408 0.960 . S
H395 C408 0.960 . S
C396 H388 0.929 . S
C396 C397 1.377 . S
C396 C398 1.384 . S
C397 C396 1.377 . S
C397 C403 1.390 . S
C398 H389 0.930 . S
C398 C396 1.384 . S
C398 C399 1.372 . S
C399 C398 1.372 . S
C399 C400 1.400 . S
C399 C404 1.490 . S
C400 H390 0.930 . S
C400 C399 1.400 . S
C400 C403 1.386 . S
H401 C417 0.930 . S
H402 C418 0.931 . S
C403 H391 0.929 . S
C403 C397 1.390 . S
C403 C400 1.386 . S
C404 C399 1.490 . S
C404 C406 1.395 . S
C404 C407 1.403 . S
H405 C411 0.930 . S
C406 H392 0.930 . S
C406 C404 1.395 . S
C406 C409 1.403 . S
C407 C404 1.403 . S
C407 C408 1.524 . S
C407 C411 1.400 . S
C408 H393 0.960 . S
C408 H394 0.960 . S
C408 H395 0.960 . S
C408 C407 1.524 . S
C409 C406 1.403 . S
C409 C410 1.392 . S
C409 C413 1.495 . S
C410 C409 1.392 . S
C410 C411 1.385 . S
C410 C412 1.478 . S
C411 H405 0.930 . S
C411 C407 1.400 . S
C411 C410 1.385 . S
C412 C410 1.478 . S
C412 C414 1.381 . S
C412 C418 1.383 . S
C413 C409 1.495 . S
C413 H419 0.959 . S
C413 H420 0.961 . S
C413 H421 0.960 . S
C414 C412 1.381 . S
C414 C415 1.394 . S
C414 H422 0.930 . S
C415 C414 1.394 . S
C415 C416 1.383 . S
C415 H423 0.929 . S
C416 C415 1.383 . S
C416 C417 1.377 . S
C417 H401 0.930 . S
C417 C416 1.377 . S
C417 C418 1.379 . S
C418 H402 0.931 . S
C418 C412 1.383 . S
C418 C417 1.379 . S
H419 C413 0.959 . S
H420 C413 0.961 . S
H421 C413 0.960 . S
H422 C414 0.930 . S
H423 C415 0.929 . S
H424 C432 0.929 . S
H425 C434 0.930 . S
H426 C436 0.930 . S
H427 C439 0.929 . S
H428 C442 0.930 . S
H429 C444 0.960 . S
H430 C444 0.960 . S
H431 C444 0.960 . S
C432 H424 0.929 . S
C432 C433 1.377 . S
C432 C434 1.384 . S
C433 C432 1.377 . S
C433 C439 1.390 . S
C434 H425 0.930 . S
C434 C432 1.384 . S
C434 C435 1.372 . S
C435 C434 1.372 . S
C435 C436 1.400 . S
C435 C440 1.490 . S
C436 H426 0.930 . S
C436 C435 1.400 . S
C436 C439 1.386 . S
H437 C453 0.930 . S
H438 C454 0.931 . S
C439 H427 0.929 . S
C439 C433 1.390 . S
C439 C436 1.386 . S
C440 C435 1.490 . S
C440 C442 1.395 . S
C440 C443 1.403 . S
H441 C447 0.930 . S
C442 H428 0.930 . S
C442 C440 1.395 . S
C442 C445 1.403 . S
C443 C440 1.403 . S
C443 C444 1.524 . S
C443 C447 1.400 . S
C444 H429 0.960 . S
C444 H430 0.960 . S
C444 H431 0.960 . S
C444 C443 1.524 . S
C445 C442 1.403 . S
C445 C446 1.392 . S
C445 C449 1.495 . S
C446 C445 1.392 . S
C446 C447 1.385 . S
C446 C448 1.478 . S
C447 H441 0.930 . S
C447 C443 1.400 . S
C447 C446 1.385 . S
C448 C446 1.478 . S
C448 C450 1.381 . S
C448 C454 1.383 . S
C449 C445 1.495 . S
C449 H455 0.959 . S
C449 H456 0.961 . S
C449 H457 0.960 . S
C450 C448 1.381 . S
C450 C451 1.394 . S
C450 H458 0.930 . S
C451 C450 1.394 . S
C451 C452 1.383 . S
C451 H459 0.929 . S
C452 C451 1.383 . S
C452 C453 1.377 . S
C453 H437 0.930 . S
C453 C452 1.377 . S
C453 C454 1.379 . S
C454 H438 0.931 . S
C454 C448 1.383 . S
C454 C453 1.379 . S
H455 C449 0.959 . S
H456 C449 0.961 . S
H457 C449 0.960 . S
H458 C450 0.930 . S
H459 C451 0.929 . S
H460 C468 0.929 . S
H461 C470 0.930 . S
H462 C472 0.930 . S
H463 C475 0.929 . S
H464 C478 0.930 . S
H465 C480 0.960 . S
H466 C480 0.960 . S
H467 C480 0.960 . S
C468 H460 0.929 . S
C468 C469 1.377 . S
C468 C470 1.384 . S
C469 C468 1.377 . S
C469 C475 1.390 . S
C470 H461 0.930 . S
C470 C468 1.384 . S
C470 C471 1.372 . S
C471 C470 1.372 . S
C471 C472 1.400 . S
C471 C476 1.490 . S
C472 H462 0.930 . S
C472 C471 1.400 . S
C472 C475 1.386 . S
H473 C489 0.930 . S
H474 C490 0.931 . S
C475 H463 0.929 . S
C475 C469 1.390 . S
C475 C472 1.386 . S
C476 C471 1.490 . S
C476 C478 1.395 . S
C476 C479 1.403 . S
H477 C483 0.930 . S
C478 H464 0.930 . S
C478 C476 1.395 . S
C478 C481 1.403 . S
C479 C476 1.403 . S
C479 C480 1.524 . S
C479 C483 1.400 . S
C480 H465 0.960 . S
C480 H466 0.960 . S
C480 H467 0.960 . S
C480 C479 1.524 . S
C481 C478 1.403 . S
C481 C482 1.392 . S
C481 C485 1.495 . S
C482 C481 1.392 . S
C482 C483 1.385 . S
C482 C484 1.478 . S
C483 H477 0.930 . S
C483 C479 1.400 . S
C483 C482 1.385 . S
C484 C482 1.478 . S
C484 C486 1.381 . S
C484 C490 1.383 . S
C485 C481 1.495 . S
C485 H491 0.959 . S
C485 H492 0.961 . S
C485 H493 0.960 . S
C486 C484 1.381 . S
C486 C487 1.394 . S
C486 H494 0.930 . S
C487 C486 1.394 . S
C487 C488 1.383 . S
C487 H495 0.929 . S
C488 C487 1.383 . S
C488 C489 1.377 . S
C489 H473 0.930 . S
C489 C488 1.377 . S
C489 C490 1.379 . S
C490 H474 0.931 . S
C490 C484 1.383 . S
C490 C489 1.379 . S
H491 C485 0.959 . S
H492 C485 0.961 . S
H493 C485 0.960 . S
H494 C486 0.930 . S
H495 C487 0.929 . S
H496 C504 0.929 . S
H497 C506 0.930 . S
H498 C508 0.930 . S
H499 C511 0.929 . S
H500 C514 0.930 . S
H501 C516 0.960 . S
H502 C516 0.960 . S
H503 C516 0.960 . S
C504 H496 0.929 . S
C504 C505 1.377 . S
C504 C506 1.384 . S
C505 C504 1.377 . S
C505 C511 1.390 . S
C506 H497 0.930 . S
C506 C504 1.384 . S
C506 C507 1.372 . S
C507 C506 1.372 . S
C507 C508 1.400 . S
C507 C512 1.490 . S
C508 H498 0.930 . S
C508 C507 1.400 . S
C508 C511 1.386 . S
H509 C525 0.930 . S
H510 C526 0.931 . S
C511 H499 0.929 . S
C511 C505 1.390 . S
C511 C508 1.386 . S
C512 C507 1.490 . S
C512 C514 1.395 . S
C512 C515 1.403 . S
H513 C519 0.930 . S
C514 H500 0.930 . S
C514 C512 1.395 . S
C514 C517 1.403 . S
C515 C512 1.403 . S
C515 C516 1.524 . S
C515 C519 1.400 . S
C516 H501 0.960 . S
C516 H502 0.960 . S
C516 H503 0.960 . S
C516 C515 1.524 . S
C517 C514 1.403 . S
C517 C518 1.392 . S
C517 C521 1.495 . S
C518 C517 1.392 . S
C518 C519 1.385 . S
C518 C520 1.478 . S
C519 H513 0.930 . S
C519 C515 1.400 . S
C519 C518 1.385 . S
C520 C518 1.478 . S
C520 C522 1.381 . S
C520 C526 1.383 . S
C521 C517 1.495 . S
C521 H527 0.959 . S
C521 H528 0.961 . S
C521 H529 0.960 . S
C522 C520 1.381 . S
C522 C523 1.394 . S
C522 H530 0.930 . S
C523 C522 1.394 . S
C523 C524 1.383 . S
C523 H531 0.929 . S
C524 C523 1.383 . S
C524 C525 1.377 . S
C525 H509 0.930 . S
C525 C524 1.377 . S
C525 C526 1.379 . S
C526 H510 0.931 . S
C526 C520 1.383 . S
C526 C525 1.379 . S
H527 C521 0.959 . S
H528 C521 0.961 . S
H529 C521 0.960 . S
H530 C522 0.930 . S
H531 C523 0.929 . S
H532 C540 0.929 . S
H533 C542 0.930 . S
H534 C544 0.930 . S
H535 C547 0.929 . S
H536 C550 0.930 . S
H537 C552 0.960 . S
H538 C552 0.960 . S
H539 C552 0.960 . S
C540 H532 0.929 . S
C540 C541 1.377 . S
C540 C542 1.384 . S
C541 C540 1.377 . S
C541 C547 1.390 . S
C542 H533 0.930 . S
C542 C540 1.384 . S
C542 C543 1.372 . S
C543 C542 1.372 . S
C543 C544 1.400 . S
C543 C548 1.490 . S
C544 H534 0.930 . S
C544 C543 1.400 . S
C544 C547 1.386 . S
H545 C561 0.930 . S
H546 C562 0.931 . S
C547 H535 0.929 . S
C547 C541 1.390 . S
C547 C544 1.386 . S
C548 C543 1.490 . S
C548 C550 1.395 . S
C548 C551 1.403 . S
H549 C555 0.930 . S
C550 H536 0.930 . S
C550 C548 1.395 . S
C550 C553 1.403 . S
C551 C548 1.403 . S
C551 C552 1.524 . S
C551 C555 1.400 . S
C552 H537 0.960 . S
C552 H538 0.960 . S
C552 H539 0.960 . S
C552 C551 1.524 . S
C553 C550 1.403 . S
C553 C554 1.392 . S
C553 C557 1.495 . S
C554 C553 1.392 . S
C554 C555 1.385 . S
C554 C556 1.478 . S
C555 H549 0.930 . S
C555 C551 1.400 . S
C555 C554 1.385 . S
C556 C554 1.478 . S
C556 C558 1.381 . S
C556 C562 1.383 . S
C557 C553 1.495 . S
C557 H563 0.959 . S
C557 H564 0.961 . S
C557 H565 0.960 . S
C558 C556 1.381 . S
C558 C559 1.394 . S
C558 H566 0.930 . S
C559 C558 1.394 . S
C559 C560 1.383 . S
C559 H567 0.929 . S
C560 C559 1.383 . S
C560 C561 1.377 . S
C561 H545 0.930 . S
C561 C560 1.377 . S
C561 C562 1.379 . S
C562 H546 0.931 . S
C562 C556 1.383 . S
C562 C561 1.379 . S
H563 C557 0.959 . S
H564 C557 0.961 . S
H565 C557 0.960 . S
H566 C558 0.930 . S
H567 C559 0.929 . S
H568 C576 0.929 . S
H569 C578 0.930 . S
H570 C580 0.930 . S
H571 C583 0.929 . S
H572 C586 0.930 . S
H573 C588 0.960 . S
H574 C588 0.960 . S
H575 C588 0.960 . S
C576 H568 0.929 . S
C576 C577 1.377 . S
C576 C578 1.384 . S
C577 C576 1.377 . S
C577 C583 1.390 . S
C578 H569 0.930 . S
C578 C576 1.384 . S
C578 C579 1.372 . S
C579 C578 1.372 . S
C579 C580 1.400 . S
C579 C584 1.490 . S
C580 H570 0.930 . S
C580 C579 1.400 . S
C580 C583 1.386 . S
H581 C597 0.930 . S
H582 C598 0.931 . S
C583 H571 0.929 . S
C583 C577 1.390 . S
C583 C580 1.386 . S
C584 C579 1.490 . S
C584 C586 1.395 . S
C584 C587 1.403 . S
H585 C591 0.930 . S
C586 H572 0.930 . S
C586 C584 1.395 . S
C586 C589 1.403 . S
C587 C584 1.403 . S
C587 C588 1.524 . S
C587 C591 1.400 . S
C588 H573 0.960 . S
C588 H574 0.960 . S
C588 H575 0.960 . S
C588 C587 1.524 . S
C589 C586 1.403 . S
C589 C590 1.392 . S
C589 C593 1.495 . S
C590 C589 1.392 . S
C590 C591 1.385 . S
C590 C592 1.478 . S
C591 H585 0.930 . S
C591 C587 1.400 . S
C591 C590 1.385 . S
C592 C590 1.478 . S
C592 C594 1.381 . S
C592 C598 1.383 . S
C593 C589 1.495 . S
C593 H599 0.959 . S
C593 H600 0.961 . S
C593 H601 0.960 . S
C594 C592 1.381 . S
C594 C595 1.394 . S
C594 H602 0.930 . S
C595 C594 1.394 . S
C595 C596 1.383 . S
C595 H603 0.929 . S
C596 C595 1.383 . S
C596 C597 1.377 . S
C597 H581 0.930 . S
C597 C596 1.377 . S
C597 C598 1.379 . S
C598 H582 0.931 . S
C598 C592 1.383 . S
C598 C597 1.379 . S
H599 C593 0.959 . S
H600 C593 0.961 . S
H601 C593 0.960 . S
H602 C594 0.930 . S
H603 C595 0.929 . S
H604 C612 0.929 . S
H605 C614 0.930 . S
H606 C616 0.930 . S
H607 C619 0.929 . S
H608 C622 0.930 . S
H609 C624 0.960 . S
H610 C624 0.960 . S
H611 C624 0.960 . S
C612 H604 0.929 . S
C612 C613 1.377 . S
C612 C614 1.384 . S
C613 C612 1.377 . S
C613 C619 1.390 . S
C614 H605 0.930 . S
C614 C612 1.384 . S
C614 C615 1.372 . S
C615 C614 1.372 . S
C615 C616 1.400 . S
C615 C620 1.490 . S
C616 H606 0.930 . S
C616 C615 1.400 . S
C616 C619 1.386 . S
H617 C633 0.930 . S
H618 C634 0.931 . S
C619 H607 0.929 . S
C619 C613 1.390 . S
C619 C616 1.386 . S
C620 C615 1.490 . S
C620 C622 1.395 . S
C620 C623 1.403 . S
H621 C627 0.930 . S
C622 H608 0.930 . S
C622 C620 1.395 . S
C622 C625 1.403 . S
C623 C620 1.403 . S
C623 C624 1.524 . S
C623 C627 1.400 . S
C624 H609 0.960 . S
C624 H610 0.960 . S
C624 H611 0.960 . S
C624 C623 1.524 . S
C625 C622 1.403 . S
C625 C626 1.392 . S
C625 C629 1.495 . S
C626 C625 1.392 . S
C626 C627 1.385 . S
C626 C628 1.478 . S
C627 H621 0.930 . S
C627 C623 1.400 . S
C627 C626 1.385 . S
C628 C626 1.478 . S
C628 C630 1.381 . S
C628 C634 1.383 . S
C629 C625 1.495 . S
C629 H635 0.959 . S
C629 H636 0.961 . S
C629 H637 0.960 . S
C630 C628 1.381 . S
C630 C631 1.394 . S
C630 H638 0.930 . S
C631 C630 1.394 . S
C631 C632 1.383 . S
C631 H639 0.929 . S
C632 C631 1.383 . S
C632 C633 1.377 . S
C633 H617 0.930 . S
C633 C632 1.377 . S
C633 C634 1.379 . S
C634 H618 0.931 . S
C634 C628 1.383 . S
C634 C633 1.379 . S
H635 C629 0.959 . S
H636 C629 0.961 . S
H637 C629 0.960 . S
H638 C630 0.930 . S
H639 C631 0.929 . S
H640 C648 0.929 . S
H641 C650 0.930 . S
H642 C652 0.930 . S
H643 C655 0.929 . S
H644 C658 0.930 . S
H645 C660 0.960 . S
H646 C660 0.960 . S
H647 C660 0.960 . S
C648 H640 0.929 . S
C648 C649 1.377 . S
C648 C650 1.384 . S
C649 C648 1.377 . S
C649 C655 1.390 . S
C650 H641 0.930 . S
C650 C648 1.384 . S
C650 C651 1.372 . S
C651 C650 1.372 . S
C651 C652 1.400 . S
C651 C656 1.490 . S
C652 H642 0.930 . S
C652 C651 1.400 . S
C652 C655 1.386 . S
H653 C669 0.930 . S
H654 C670 0.931 . S
C655 H643 0.929 . S
C655 C649 1.390 . S
C655 C652 1.386 . S
C656 C651 1.490 . S
C656 C658 1.395 . S
C656 C659 1.403 . S
H657 C663 0.930 . S
C658 H644 0.930 . S
C658 C656 1.395 . S
C658 C661 1.403 . S
C659 C656 1.403 . S
C659 C660 1.524 . S
C659 C663 1.400 . S
C660 H645 0.960 . S
C660 H646 0.960 . S
C660 H647 0.960 . S
C660 C659 1.524 . S
C661 C658 1.403 . S
C661 C662 1.392 . S
C661 C665 1.495 . S
C662 C661 1.392 . S
C662 C663 1.385 . S
C662 C664 1.478 . S
C663 H657 0.930 . S
C663 C659 1.400 . S
C663 C662 1.385 . S
C664 C662 1.478 . S
C664 C666 1.381 . S
C664 C670 1.383 . S
C665 C661 1.495 . S
C665 H671 0.959 . S
C665 H672 0.961 . S
C665 H673 0.960 . S
C666 C664 1.381 . S
C666 C667 1.394 . S
C666 H674 0.930 . S
C667 C666 1.394 . S
C667 C668 1.383 . S
C667 H675 0.929 . S
C668 C667 1.383 . S
C668 C669 1.377 . S
C669 H653 0.930 . S
C669 C668 1.377 . S
C669 C670 1.379 . S
C670 H654 0.931 . S
C670 C664 1.383 . S
C670 C669 1.379 . S
H671 C665 0.959 . S
H672 C665 0.961 . S
H673 C665 0.960 . S
H674 C666 0.930 . S
H675 C667 0.929 . S
H676 C684 0.929 . S
H677 C686 0.930 . S
H678 C688 0.930 . S
H679 C691 0.929 . S
H680 C694 0.930 . S
H681 C696 0.960 . S
H682 C696 0.960 . S
H683 C696 0.960 . S
C684 H676 0.929 . S
C684 C685 1.377 . S
C684 C686 1.384 . S
C685 C684 1.377 . S
C685 C691 1.390 . S
C686 H677 0.930 . S
C686 C684 1.384 . S
C686 C687 1.372 . S
C687 C686 1.372 . S
C687 C688 1.400 . S
C687 C692 1.490 . S
C688 H678 0.930 . S
C688 C687 1.400 . S
C688 C691 1.386 . S
H689 C705 0.930 . S
H690 C706 0.931 . S
C691 H679 0.929 . S
C691 C685 1.390 . S
C691 C688 1.386 . S
C692 C687 1.490 . S
C692 C694 1.395 . S
C692 C695 1.403 . S
H693 C699 0.930 . S
C694 H680 0.930 . S
C694 C692 1.395 . S
C694 C697 1.403 . S
C695 C692 1.403 . S
C695 C696 1.524 . S
C695 C699 1.400 . S
C696 H681 0.960 . S
C696 H682 0.960 . S
C696 H683 0.960 . S
C696 C695 1.524 . S
C697 C694 1.403 . S
C697 C698 1.392 . S
C697 C701 1.495 . S
C698 C697 1.392 . S
C698 C699 1.385 . S
C698 C700 1.478 . S
C699 H693 0.930 . S
C699 C695 1.400 . S
C699 C698 1.385 . S
C700 C698 1.478 . S
C700 C702 1.381 . S
C700 C706 1.383 . S
C701 C697 1.495 . S
C701 H707 0.959 . S
C701 H708 0.961 . S
C701 H709 0.960 . S
C702 C700 1.381 . S
C702 C703 1.394 . S
C702 H710 0.930 . S
C703 C702 1.394 . S
C703 C704 1.383 . S
C703 H711 0.929 . S
C704 C703 1.383 . S
C704 C705 1.377 . S
C705 H689 0.930 . S
C705 C704 1.377 . S
C705 C706 1.379 . S
C706 H690 0.931 . S
C706 C700 1.383 . S
C706 C705 1.379 . S
H707 C701 0.959 . S
H708 C701 0.961 . S
H709 C701 0.960 . S
H710 C702 0.930 . S
H711 C703 0.929 . S
H712 C720 0.929 . S
H713 C722 0.930 . S
H714 C724 0.930 . S
H715 C727 0.929 . S
H716 C730 0.930 . S
H717 C732 0.960 . S
H718 C732 0.960 . S
H719 C732 0.960 . S
C720 H712 0.929 . S
C720 C721 1.377 . S
C720 C722 1.384 . S
C721 C720 1.377 . S
C721 C727 1.390 . S
C722 H713 0.930 . S
C722 C720 1.384 . S
C722 C723 1.372 . S
C723 C722 1.372 . S
C723 C724 1.400 . S
C723 C728 1.490 . S
C724 H714 0.930 . S
C724 C723 1.400 . S
C724 C727 1.386 . S
H725 C741 0.930 . S
H726 C742 0.931 . S
C727 H715 0.929 . S
C727 C721 1.390 . S
C727 C724 1.386 . S
C728 C723 1.490 . S
C728 C730 1.395 . S
C728 C731 1.403 . S
H729 C735 0.930 . S
C730 H716 0.930 . S
C730 C728 1.395 . S
C730 C733 1.403 . S
C731 C728 1.403 . S
C731 C732 1.524 . S
C731 C735 1.400 . S
C732 H717 0.960 . S
C732 H718 0.960 . S
C732 H719 0.960 . S
C732 C731 1.524 . S
C733 C730 1.403 . S
C733 C734 1.392 . S
C733 C737 1.495 . S
C734 C733 1.392 . S
C734 C735 1.385 . S
C734 C736 1.478 . S
C735 H729 0.930 . S
C735 C731 1.400 . S
C735 C734 1.385 . S
C736 C734 1.478 . S
C736 C738 1.381 . S
C736 C742 1.383 . S
C737 C733 1.495 . S
C737 H743 0.959 . S
C737 H744 0.961 . S
C737 H745 0.960 . S
C738 C736 1.381 . S
C738 C739 1.394 . S
C738 H746 0.930 . S
C739 C738 1.394 . S
C739 C740 1.383 . S
C739 H747 0.929 . S
C740 C739 1.383 . S
C740 C741 1.377 . S
C741 H725 0.930 . S
C741 C740 1.377 . S
C741 C742 1.379 . S
C742 H726 0.931 . S
C742 C736 1.383 . S
C742 C741 1.379 . S
H743 C737 0.959 . S
H744 C737 0.961 . S
H745 C737 0.960 . S
H746 C738 0.930 . S
H747 C739 0.929 . S
H748 C756 0.929 . S
H749 C758 0.930 . S
H750 C760 0.930 . S
H751 C763 0.929 . S
H752 C766 0.930 . S
H753 C768 0.960 . S
H754 C768 0.960 . S
H755 C768 0.960 . S
C756 H748 0.929 . S
C756 C757 1.377 . S
C756 C758 1.384 . S
C757 C756 1.377 . S
C757 C763 1.390 . S
C758 H749 0.930 . S
C758 C756 1.384 . S
C758 C759 1.372 . S
C759 C758 1.372 . S
C759 C760 1.400 . S
C759 C764 1.490 . S
C760 H750 0.930 . S
C760 C759 1.400 . S
C760 C763 1.386 . S
H761 C777 0.930 . S
H762 C778 0.931 . S
C763 H751 0.929 . S
C763 C757 1.390 . S
C763 C760 1.386 . S
C764 C759 1.490 . S
C764 C766 1.395 . S
C764 C767 1.403 . S
H765 C771 0.930 . S
C766 H752 0.930 . S
C766 C764 1.395 . S
C766 C769 1.403 . S
C767 C764 1.403 . S
C767 C768 1.524 . S
C767 C771 1.400 . S
C768 H753 0.960 . S
C768 H754 0.960 . S
C768 H755 0.960 . S
C768 C767 1.524 . S
C769 C766 1.403 . S
C769 C770 1.392 . S
C769 C773 1.495 . S
C770 C769 1.392 . S
C770 C771 1.385 . S
C770 C772 1.478 . S
C771 H765 0.930 . S
C771 C767 1.400 . S
C771 C770 1.385 . S
C772 C770 1.478 . S
C772 C774 1.381 . S
C772 C778 1.383 . S
C773 C769 1.495 . S
C773 H779 0.959 . S
C773 H780 0.961 . S
C773 H781 0.960 . S
C774 C772 1.381 . S
C774 C775 1.394 . S
C774 H782 0.930 . S
C775 C774 1.394 . S
C775 C776 1.383 . S
C775 H783 0.929 . S
C776 C775 1.383 . S
C776 C777 1.377 . S
C777 H761 0.930 . S
C777 C776 1.377 . S
C777 C778 1.379 . S
C778 H762 0.931 . S
C778 C772 1.383 . S
C778 C777 1.379 . S
H779 C773 0.959 . S
H780 C773 0.961 . S
H781 C773 0.960 . S
H782 C774 0.930 . S
H783 C775 0.929 . S
H784 C792 0.929 . S
H785 C794 0.930 . S
H786 C796 0.930 . S
H787 C799 0.929 . S
H788 C802 0.930 . S
H789 C804 0.960 . S
H790 C804 0.960 . S
H791 C804 0.960 . S
C792 H784 0.929 . S
C792 C793 1.377 . S
C792 C794 1.384 . S
C793 C792 1.377 . S
C793 C799 1.390 . S
C794 H785 0.930 . S
C794 C792 1.384 . S
C794 C795 1.372 . S
C795 C794 1.372 . S
C795 C796 1.400 . S
C795 C800 1.490 . S
C796 H786 0.930 . S
C796 C795 1.400 . S
C796 C799 1.386 . S
H797 C813 0.930 . S
H798 C814 0.931 . S
C799 H787 0.929 . S
C799 C793 1.390 . S
C799 C796 1.386 . S
C800 C795 1.490 . S
C800 C802 1.395 . S
C800 C803 1.403 . S
H801 C807 0.930 . S
C802 H788 0.930 . S
C802 C800 1.395 . S
C802 C805 1.403 . S
C803 C800 1.403 . S
C803 C804 1.524 . S
C803 C807 1.400 . S
C804 H789 0.960 . S
C804 H790 0.960 . S
C804 H791 0.960 . S
C804 C803 1.524 . S
C805 C802 1.403 . S
C805 C806 1.392 . S
C805 C809 1.495 . S
C806 C805 1.392 . S
C806 C807 1.385 . S
C806 C808 1.478 . S
C807 H801 0.930 . S
C807 C803 1.400 . S
C807 C806 1.385 . S
C808 C806 1.478 . S
C808 C810 1.381 . S
C808 C814 1.383 . S
C809 C805 1.495 . S
C809 H815 0.959 . S
C809 H816 0.961 . S
C809 H817 0.960 . S
C810 C808 1.381 . S
C810 C811 1.394 . S
C810 H818 0.930 . S
C811 C810 1.394 . S
C811 C812 1.383 . S
C811 H819 0.929 . S
C812 C811 1.383 . S
C812 C813 1.377 . S
C813 H797 0.930 . S
C813 C812 1.377 . S
C813 C814 1.379 . S
C814 H798 0.931 . S
C814 C808 1.383 . S
C814 C813 1.379 . S
H815 C809 0.959 . S
H816 C809 0.961 . S
H817 C809 0.960 . S
H818 C810 0.930 . S
H819 C811 0.929 . S
H820 C828 0.929 . S
H821 C830 0.930 . S
H822 C832 0.930 . S
H823 C835 0.929 . S
H824 C838 0.930 . S
H825 C840 0.960 . S
H826 C840 0.960 . S
H827 C840 0.960 . S
C828 H820 0.929 . S
C828 C829 1.377 . S
C828 C830 1.384 . S
C829 C828 1.377 . S
C829 C835 1.390 . S
C830 H821 0.930 . S
C830 C828 1.384 . S
C830 C831 1.372 . S
C831 C830 1.372 . S
C831 C832 1.400 . S
C831 C836 1.490 . S
C832 H822 0.930 . S
C832 C831 1.400 . S
C832 C835 1.386 . S
H833 C849 0.930 . S
H834 C850 0.931 . S
C835 H823 0.929 . S
C835 C829 1.390 . S
C835 C832 1.386 . S
C836 C831 1.490 . S
C836 C838 1.395 . S
C836 C839 1.403 . S
H837 C843 0.930 . S
C838 H824 0.930 . S
C838 C836 1.395 . S
C838 C841 1.403 . S
C839 C836 1.403 . S
C839 C840 1.524 . S
C839 C843 1.400 . S
C840 H825 0.960 . S
C840 H826 0.960 . S
C840 H827 0.960 . S
C840 C839 1.524 . S
C841 C838 1.403 . S
C841 C842 1.392 . S
C841 C845 1.495 . S
C842 C841 1.392 . S
C842 C843 1.385 . S
C842 C844 1.478 . S
C843 H837 0.930 . S
C843 C839 1.400 . S
C843 C842 1.385 . S
C844 C842 1.478 . S
C844 C846 1.381 . S
C844 C850 1.383 . S
C845 C841 1.495 . S
C845 H851 0.959 . S
C845 H852 0.961 . S
C845 H853 0.960 . S
C846 C844 1.381 . S
C846 C847 1.394 . S
C846 H854 0.930 . S
C847 C846 1.394 . S
C847 C848 1.383 . S
C847 H855 0.929 . S
C848 C847 1.383 . S
C848 C849 1.377 . S
C849 H833 0.930 . S
C849 C848 1.377 . S
C849 C850 1.379 . S
C850 H834 0.931 . S
C850 C844 1.383 . S
C850 C849 1.379 . S
H851 C845 0.959 . S
H852 C845 0.961 . S
H853 C845 0.960 . S
H854 C846 0.930 . S
H855 C847 0.929 . S
H856 C864 0.929 . S
H857 C866 0.930 . S
H858 C868 0.930 . S
H859 C871 0.929 . S
H860 C874 0.930 . S
H861 C876 0.960 . S
H862 C876 0.960 . S
H863 C876 0.960 . S
C864 H856 0.929 . S
C864 C865 1.377 . S
C864 C866 1.384 . S
C865 C864 1.377 . S
C865 C871 1.390 . S
C866 H857 0.930 . S
C866 C864 1.384 . S
C866 C867 1.372 . S
C867 C866 1.372 . S
C867 C868 1.400 . S
C867 C872 1.490 . S
C868 H858 0.930 . S
C868 C867 1.400 . S
C868 C871 1.386 . S
H869 C885 0.930 . S
H870 C886 0.931 . S
C871 H859 0.929 . S
C871 C865 1.390 . S
C871 C868 1.386 . S
C872 C867 1.490 . S
C872 C874 1.395 . S
C872 C875 1.403 . S
H873 C879 0.930 . S
C874 H860 0.930 . S
C874 C872 1.395 . S
C874 C877 1.403 . S
C875 C872 1.403 . S
C875 C876 1.524 . S
C875 C879 1.400 . S
C876 H861 0.960 . S
C876 H862 0.960 . S
C876 H863 0.960 . S
C876 C875 1.524 . S
C877 C874 1.403 . S
C877 C878 1.392 . S
C877 C881 1.495 . S
C878 C877 1.392 . S
C878 C879 1.385 . S
C878 C880 1.478 . S
C879 H873 0.930 . S
C879 C875 1.400 . S
C879 C878 1.385 . S
C880 C878 1.478 . S
C880 C882 1.381 . S
C880 C886 1.383 . S
C881 C877 1.495 . S
C881 H887 0.959 . S
C881 H888 0.961 . S
C881 H889 0.960 . S
C882 C880 1.381 . S
C882 C883 1.394 . S
C882 H890 0.930 . S
C883 C882 1.394 . S
C883 C884 1.383 . S
C883 H891 0.929 . S
C884 C883 1.383 . S
C884 C885 1.377 . S
C885 H869 0.930 . S
C885 C884 1.377 . S
C885 C886 1.379 . S
C886 H870 0.931 . S
C886 C880 1.383 . S
C886 C885 1.379 . S
H887 C881 0.959 . S
H888 C881 0.961 . S
H889 C881 0.960 . S
H890 C882 0.930 . S
H891 C883 0.929 . S
H892 C900 0.929 . S
H893 C902 0.930 . S
H894 C904 0.930 . S
H895 C907 0.929 . S
H896 C910 0.930 . S
H897 C912 0.960 . S
H898 C912 0.960 . S
H899 C912 0.960 . S
C900 H892 0.929 . S
C900 C901 1.377 . S
C900 C902 1.384 . S
C901 C900 1.377 . S
C901 C907 1.390 . S
C902 H893 0.930 . S
C902 C900 1.384 . S
C902 C903 1.372 . S
C903 C902 1.372 . S
C903 C904 1.400 . S
C903 C908 1.490 . S
C904 H894 0.930 . S
C904 C903 1.400 . S
C904 C907 1.386 . S
H905 C921 0.930 . S
H906 C922 0.931 . S
C907 H895 0.929 . S
C907 C901 1.390 . S
C907 C904 1.386 . S
C908 C903 1.490 . S
C908 C910 1.395 . S
C908 C911 1.403 . S
H909 C915 0.930 . S
C910 H896 0.930 . S
C910 C908 1.395 . S
C910 C913 1.403 . S
C911 C908 1.403 . S
C911 C912 1.524 . S
C911 C915 1.400 . S
C912 H897 0.960 . S
C912 H898 0.960 . S
C912 H899 0.960 . S
C912 C911 1.524 . S
C913 C910 1.403 . S
C913 C914 1.392 . S
C913 C917 1.495 . S
C914 C913 1.392 . S
C914 C915 1.385 . S
C914 C916 1.478 . S
C915 H909 0.930 . S
C915 C911 1.400 . S
C915 C914 1.385 . S
C916 C914 1.478 . S
C916 C918 1.381 . S
C916 C922 1.383 . S
C917 C913 1.495 . S
C917 H923 0.959 . S
C917 H924 0.961 . S
C917 H925 0.960 . S
C918 C916 1.381 . S
C918 C919 1.394 . S
C918 H926 0.930 . S
C919 C918 1.394 . S
C919 C920 1.383 . S
C919 H927 0.929 . S
C920 C919 1.383 . S
C920 C921 1.377 . S
C921 H905 0.930 . S
C921 C920 1.377 . S
C921 C922 1.379 . S
C922 H906 0.931 . S
C922 C916 1.383 . S
C922 C921 1.379 . S
H923 C917 0.959 . S
H924 C917 0.961 . S
H925 C917 0.960 . S
H926 C918 0.930 . S
H927 C919 0.929 . S
H928 C936 0.929 . S
H929 C938 0.930 . S
H930 C940 0.930 . S
H931 C943 0.929 . S
H932 C946 0.930 . S
H933 C948 0.960 . S
H934 C948 0.960 . S
H935 C948 0.960 . S
C936 H928 0.929 . S
C936 C937 1.377 . S
C936 C938 1.384 . S
C937 C936 1.377 . S
C937 C943 1.390 . S
C938 H929 0.930 . S
C938 C936 1.384 . S
C938 C939 1.372 . S
C939 C938 1.372 . S
C939 C940 1.400 . S
C939 C944 1.490 . S
C940 H930 0.930 . S
C940 C939 1.400 . S
C940 C943 1.386 . S
H941 C957 0.930 . S
H942 C958 0.931 . S
C943 H931 0.929 . S
C943 C937 1.390 . S
C943 C940 1.386 . S
C944 C939 1.490 . S
C944 C946 1.395 . S
C944 C947 1.403 . S
H945 C951 0.930 . S
C946 H932 0.930 . S
C946 C944 1.395 . S
C946 C949 1.403 . S
C947 C944 1.403 . S
C947 C948 1.524 . S
C947 C951 1.400 . S
C948 H933 0.960 . S
C948 H934 0.960 . S
C948 H935 0.960 . S
C948 C947 1.524 . S
C949 C946 1.403 . S
C949 C950 1.392 . S
C949 C953 1.495 . S
C950 C949 1.392 . S
C950 C951 1.385 . S
C950 C952 1.478 . S
C951 H945 0.930 . S
C951 C947 1.400 . S
C951 C950 1.385 . S
C952 C950 1.478 . S
C952 C954 1.381 . S
C952 C958 1.383 . S
C953 C949 1.495 . S
C953 H959 0.959 . S
C953 H960 0.961 . S
C953 H961 0.960 . S
C954 C952 1.381 . S
C954 C955 1.394 . S
C954 H962 0.930 . S
C955 C954 1.394 . S
C955 C956 1.383 . S
C955 H963 0.929 . S
C956 C955 1.383 . S
C956 C957 1.377 . S
C957 H941 0.930 . S
C957 C956 1.377 . S
C957 C958 1.379 . S
C958 H942 0.931 . S
C958 C952 1.383 . S
C958 C957 1.379 . S
H959 C953 0.959 . S
H960 C953 0.961 . S
H961 C953 0.960 . S
H962 C954 0.930 . S
H963 C955 0.929 . S
H964 C972 0.929 . S
H965 C974 0.930 . S
H966 C976 0.930 . S
H967 C979 0.929 . S
H968 C982 0.930 . S
H969 C984 0.960 . S
H970 C984 0.960 . S
H971 C984 0.960 . S
C972 H964 0.929 . S
C972 C973 1.377 . S
C972 C974 1.384 . S
C973 C972 1.377 . S
C973 C979 1.390 . S
C974 H965 0.930 . S
C974 C972 1.384 . S
C974 C975 1.372 . S
C975 C974 1.372 . S
C975 C976 1.400 . S
C975 C980 1.490 . S
C976 H966 0.930 . S
C976 C975 1.400 . S
C976 C979 1.386 . S
H977 C993 0.930 . S
H978 C994 0.931 . S
C979 H967 0.929 . S
C979 C973 1.390 . S
C979 C976 1.386 . S
C980 C975 1.490 . S
C980 C982 1.395 . S
C980 C983 1.403 . S
H981 C987 0.930 . S
C982 H968 0.930 . S
C982 C980 1.395 . S
C982 C985 1.403 . S
C983 C980 1.403 . S
C983 C984 1.524 . S
C983 C987 1.400 . S
C984 H969 0.960 . S
C984 H970 0.960 . S
C984 H971 0.960 . S
C984 C983 1.524 . S
C985 C982 1.403 . S
C985 C986 1.392 . S
C985 C989 1.495 . S
C986 C985 1.392 . S
C986 C987 1.385 . S
C986 C988 1.478 . S
C987 H981 0.930 . S
C987 C983 1.400 . S
C987 C986 1.385 . S
C988 C986 1.478 . S
C988 C990 1.381 . S
C988 C994 1.383 . S
C989 C985 1.495 . S
C989 H995 0.959 . S
C989 H996 0.961 . S
C989 H997 0.960 . S
C990 C988 1.381 . S
C990 C991 1.394 . S
C990 H998 0.930 . S
C991 C990 1.394 . S
C991 C992 1.383 . S
C991 H999 0.929 . S
C992 C991 1.383 . S
C992 C993 1.377 . S
C993 H977 0.930 . S
C993 C992 1.377 . S
C993 C994 1.379 . S
C994 H978 0.931 . S
C994 C988 1.383 . S
C994 C993 1.379 . S
H995 C989 0.959 . S
H996 C989 0.961 . S
H997 C989 0.960 . S
H998 C990 0.930 . S
H999 C991 0.929 . S
H1000 C1008 0.929 . S
H1001 C1010 0.930 . S
H1002 C1012 0.930 . S
H1003 C1015 0.929 . S
H1004 C1018 0.930 . S
H1005 C1020 0.960 . S
H1006 C1020 0.960 . S
H1007 C1020 0.960 . S
C1008 H1000 0.929 . S
C1008 C1009 1.377 . S
C1008 C1010 1.384 . S
C1009 C1008 1.377 . S
C1009 C1015 1.390 . S
C1010 H1001 0.930 . S
C1010 C1008 1.384 . S
C1010 C1011 1.372 . S
C1011 C1010 1.372 . S
C1011 C1012 1.400 . S
C1011 C1016 1.490 . S
C1012 H1002 0.930 . S
C1012 C1011 1.400 . S
C1012 C1015 1.386 . S
H1013 C1029 0.930 . S
H1014 C1030 0.931 . S
C1015 H1003 0.929 . S
C1015 C1009 1.390 . S
C1015 C1012 1.386 . S
C1016 C1011 1.490 . S
C1016 C1018 1.395 . S
C1016 C1019 1.403 . S
H1017 C1023 0.930 . S
C1018 H1004 0.930 . S
C1018 C1016 1.395 . S
C1018 C1021 1.403 . S
C1019 C1016 1.403 . S
C1019 C1020 1.524 . S
C1019 C1023 1.400 . S
C1020 H1005 0.960 . S
C1020 H1006 0.960 . S
C1020 H1007 0.960 . S
C1020 C1019 1.524 . S
C1021 C1018 1.403 . S
C1021 C1022 1.392 . S
C1021 C1025 1.495 . S
C1022 C1021 1.392 . S
C1022 C1023 1.385 . S
C1022 C1024 1.478 . S
C1023 H1017 0.930 . S
C1023 C1019 1.400 . S
C1023 C1022 1.385 . S
C1024 C1022 1.478 . S
C1024 C1026 1.381 . S
C1024 C1030 1.383 . S
C1025 C1021 1.495 . S
C1025 H1031 0.959 . S
C1025 H1032 0.961 . S
C1025 H1033 0.960 . S
C1026 C1024 1.381 . S
C1026 C1027 1.394 . S
C1026 H1034 0.930 . S
C1027 C1026 1.394 . S
C1027 C1028 1.383 . S
C1027 H1035 0.929 . S
C1028 C1027 1.383 . S
C1028 C1029 1.377 . S
C1029 H1013 0.930 . S
C1029 C1028 1.377 . S
C1029 C1030 1.379 . S
C1030 H1014 0.931 . S
C1030 C1024 1.383 . S
C1030 C1029 1.379 . S
H1031 C1025 0.959 . S
H1032 C1025 0.961 . S
H1033 C1025 0.960 . S
H1034 C1026 0.930 . S
H1035 C1027 0.929 . S
H1036 C1044 0.929 . S
H1037 C1046 0.930 . S
H1038 C1048 0.930 . S
H1039 C1051 0.929 . S
H1040 C1054 0.930 . S
H1041 C1056 0.960 . S
H1042 C1056 0.960 . S
H1043 C1056 0.960 . S
C1044 H1036 0.929 . S
C1044 C1045 1.377 . S
C1044 C1046 1.384 . S
C1045 C1044 1.377 . S
C1045 C1051 1.390 . S
C1046 H1037 0.930 . S
C1046 C1044 1.384 . S
C1046 C1047 1.372 . S
C1047 C1046 1.372 . S
C1047 C1048 1.400 . S
C1047 C1052 1.490 . S
C1048 H1038 0.930 . S
C1048 C1047 1.400 . S
C1048 C1051 1.386 . S
H1049 C1065 0.930 . S
H1050 C1066 0.931 . S
C1051 H1039 0.929 . S
C1051 C1045 1.390 . S
C1051 C1048 1.386 . S
C1052 C1047 1.490 . S
C1052 C1054 1.395 . S
C1052 C1055 1.403 . S
H1053 C1059 0.930 . S
C1054 H1040 0.930 . S
C1054 C1052 1.395 . S
C1054 C1057 1.403 . S
C1055 C1052 1.403 . S
C1055 C1056 1.524 . S
C1055 C1059 1.400 . S
C1056 H1041 0.960 . S
C1056 H1042 0.960 . S
C1056 H1043 0.960 . S
C1056 C1055 1.524 . S
C1057 C1054 1.403 . S
C1057 C1058 1.392 . S
C1057 C1061 1.495 . S
C1058 C1057 1.392 . S
C1058 C1059 1.385 . S
C1058 C1060 1.478 . S
C1059 H1053 0.930 . S
C1059 C1055 1.400 . S
C1059 C1058 1.385 . S
C1060 C1058 1.478 . S
C1060 C1062 1.381 . S
C1060 C1066 1.383 . S
C1061 C1057 1.495 . S
C1061 H1067 0.959 . S
C1061 H1068 0.961 . S
C1061 H1069 0.960 . S
C1062 C1060 1.381 . S
C1062 C1063 1.394 . S
C1062 H1070 0.930 . S
C1063 C1062 1.394 . S
C1063 C1064 1.383 . S
C1063 H1071 0.929 . S
C1064 C1063 1.383 . S
C1064 C1065 1.377 . S
C1065 H1049 0.930 . S
C1065 C1064 1.377 . S
C1065 C1066 1.379 . S
C1066 H1050 0.931 . S
C1066 C1060 1.383 . S
C1066 C1065 1.379 . S
H1067 C1061 0.959 . S
H1068 C1061 0.961 . S
H1069 C1061 0.960 . S
H1070 C1062 0.930 . S
H1071 C1063 0.929 . S
H1072 C1080 0.929 . S
H1073 C1082 0.930 . S
H1074 C1084 0.930 . S
H1075 C1087 0.929 . S
H1076 C1090 0.930 . S
H1077 C1092 0.960 . S
H1078 C1092 0.960 . S
H1079 C1092 0.960 . S
C1080 H1072 0.929 . S
C1080 C1081 1.377 . S
C1080 C1082 1.384 . S
C1081 C1080 1.377 . S
C1081 C1087 1.390 . S
C1082 H1073 0.930 . S
C1082 C1080 1.384 . S
C1082 C1083 1.372 . S
C1083 C1082 1.372 . S
C1083 C1084 1.400 . S
C1083 C1088 1.490 . S
C1084 H1074 0.930 . S
C1084 C1083 1.400 . S
C1084 C1087 1.386 . S
H1085 C1101 0.930 . S
H1086 C1102 0.931 . S
C1087 H1075 0.929 . S
C1087 C1081 1.390 . S
C1087 C1084 1.386 . S
C1088 C1083 1.490 . S
C1088 C1090 1.395 . S
C1088 C1091 1.403 . S
H1089 C1095 0.930 . S
C1090 H1076 0.930 . S
C1090 C1088 1.395 . S
C1090 C1093 1.403 . S
C1091 C1088 1.403 . S
C1091 C1092 1.524 . S
C1091 C1095 1.400 . S
C1092 H1077 0.960 . S
C1092 H1078 0.960 . S
C1092 H1079 0.960 . S
C1092 C1091 1.524 . S
C1093 C1090 1.403 . S
C1093 C1094 1.392 . S
C1093 C1097 1.495 . S
C1094 C1093 1.392 . S
C1094 C1095 1.385 . S
C1094 C1096 1.478 . S
C1095 H1089 0.930 . S
C1095 C1091 1.400 . S
C1095 C1094 1.385 . S
C1096 C1094 1.478 . S
C1096 C1098 1.381 . S
C1096 C1102 1.383 . S
C1097 C1093 1.495 . S
C1097 H1103 0.959 . S
C1097 H1104 0.961 . S
C1097 H1105 0.960 . S
C1098 C1096 1.381 . S
C1098 C1099 1.394 . S
C1098 H1106 0.930 . S
C1099 C1098 1.394 . S
C1099 C1100 1.383 . S
C1099 H1107 0.929 . S
C1100 C1099 1.383 . S
C1100 C1101 1.377 . S
C1101 H1085 0.930 . S
C1101 C1100 1.377 . S
C1101 C1102 1.379 . S
C1102 H1086 0.931 . S
C1102 C1096 1.383 . S
C1102 C1101 1.379 . S
H1103 C1097 0.959 . S
H1104 C1097 0.961 . S
H1105 C1097 0.960 . S
H1106 C1098 0.930 . S
H1107 C1099 0.929 . S
H1108 C1116 0.929 . S
H1109 C1118 0.930 . S
H1110 C1120 0.930 . S
H1111 C1123 0.929 . S
H1112 C1126 0.930 . S
H1113 C1128 0.960 . S
H1114 C1128 0.960 . S
H1115 C1128 0.960 . S
C1116 H1108 0.929 . S
C1116 C1117 1.377 . S
C1116 C1118 1.384 . S
C1117 C1116 1.377 . S
C1117 C1123 1.390 . S
C1118 H1109 0.930 . S
C1118 C1116 1.384 . S
C1118 C1119 1.372 . S
C1119 C1118 1.372 . S
C1119 C1120 1.400 . S
C1119 C1124 1.490 . S
C1120 H1110 0.930 . S
C1120 C1119 1.400 . S
C1120 C1123 1.386 . S
H1121 C1137 0.930 . S
H1122 C1138 0.931 . S
C1123 H1111 0.929 . S
C1123 C1117 1.390 . S
C1123 C1120 1.386 . S
C1124 C1119 1.490 . S
C1124 C1126 1.395 . S
C1124 C1127 1.403 . S
H1125 C1131 0.930 . S
C1126 H1112 0.930 . S
C1126 C1124 1.395 . S
C1126 C1129 1.403 . S
C1127 C1124 1.403 . S
C1127 C1128 1.524 . S
C1127 C1131 1.400 . S
C1128 H1113 0.960 . S
C1128 H1114 0.960 . S
C1128 H1115 0.960 . S
C1128 C1127 1.524 . S
C1129 C1126 1.403 . S
C1129 C1130 1.392 . S
C1129 C1133 1.495 . S
C1130 C1129 1.392 . S
C1130 C1131 1.385 . S
C1130 C1132 1.478 . S
C1131 H1125 0.930 . S
C1131 C1127 1.400 . S
C1131 C1130 1.385 . S
C1132 C1130 1.478 . S
C1132 C1134 1.381 . S
C1132 C1138 1.383 . S
C1133 C1129 1.495 . S
C1133 H1139 0.959 . S
C1133 H1140 0.961 . S
C1133 H1141 0.960 . S
C1134 C1132 1.381 . S
C1134 C1135 1.394 . S
C1134 H1142 0.930 . S
C1135 C1134 1.394 . S
C1135 C1136 1.383 . S
C1135 H1143 0.929 . S
C1136 C1135 1.383 . S
C1136 C1137 1.377 . S
C1137 H1121 0.930 . S
C1137 C1136 1.377 . S
C1137 C1138 1.379 . S
C1138 H1122 0.931 . S
C1138 C1132 1.383 . S
C1138 C1137 1.379 . S
H1139 C1133 0.959 . S
H1140 C1133 0.961 . S
H1141 C1133 0.960 . S
H1142 C1134 0.930 . S
H1143 C1135 0.929 . S
H1144 C1152 0.929 . S
H1145 C1154 0.930 . S
H1146 C1156 0.930 . S
H1147 C1159 0.929 . S
H1148 C1162 0.930 . S
H1149 C1164 0.960 . S
H1150 C1164 0.960 . S
H1151 C1164 0.960 . S
C1152 H1144 0.929 . S
C1152 C1153 1.377 . S
C1152 C1154 1.384 . S
C1153 C1152 1.377 . S
C1153 C1159 1.390 . S
C1154 H1145 0.930 . S
C1154 C1152 1.384 . S
C1154 C1155 1.372 . S
C1155 C1154 1.372 . S
C1155 C1156 1.400 . S
C1155 C1160 1.490 . S
C1156 H1146 0.930 . S
C1156 C1155 1.400 . S
C1156 C1159 1.386 . S
H1157 C1173 0.930 . S
H1158 C1174 0.931 . S
C1159 H1147 0.929 . S
C1159 C1153 1.390 . S
C1159 C1156 1.386 . S
C1160 C1155 1.490 . S
C1160 C1162 1.395 . S
C1160 C1163 1.403 . S
H1161 C1167 0.930 . S
C1162 H1148 0.930 . S
C1162 C1160 1.395 . S
C1162 C1165 1.403 . S
C1163 C1160 1.403 . S
C1163 C1164 1.524 . S
C1163 C1167 1.400 . S
C1164 H1149 0.960 . S
C1164 H1150 0.960 . S
C1164 H1151 0.960 . S
C1164 C1163 1.524 . S
C1165 C1162 1.403 . S
C1165 C1166 1.392 . S
C1165 C1169 1.495 . S
C1166 C1165 1.392 . S
C1166 C1167 1.385 . S
C1166 C1168 1.478 . S
C1167 H1161 0.930 . S
C1167 C1163 1.400 . S
C1167 C1166 1.385 . S
C1168 C1166 1.478 . S
C1168 C1170 1.381 . S
C1168 C1174 1.383 . S
C1169 C1165 1.495 . S
C1169 H1175 0.959 . S
C1169 H1176 0.961 . S
C1169 H1177 0.960 . S
C1170 C1168 1.381 . S
C1170 C1171 1.394 . S
C1170 H1178 0.930 . S
C1171 C1170 1.394 . S
C1171 C1172 1.383 . S
C1171 H1179 0.929 . S
C1172 C1171 1.383 . S
C1172 C1173 1.377 . S
C1173 H1157 0.930 . S
C1173 C1172 1.377 . S
C1173 C1174 1.379 . S
C1174 H1158 0.931 . S
C1174 C1168 1.383 . S
C1174 C1173 1.379 . S
H1175 C1169 0.959 . S
H1176 C1169 0.961 . S
H1177 C1169 0.960 . S
H1178 C1170 0.930 . S
H1179 C1171 0.929 . S
H1180 C1188 0.929 . S
H1181 C1190 0.930 . S
H1182 C1192 0.930 . S
H1183 C1195 0.929 . S
H1184 C1198 0.930 . S
H1185 C1200 0.960 . S
H1186 C1200 0.960 . S
H1187 C1200 0.960 . S
C1188 H1180 0.929 . S
C1188 C1189 1.377 . S
C1188 C1190 1.384 . S
C1189 C1188 1.377 . S
C1189 C1195 1.390 . S
C1190 H1181 0.930 . S
C1190 C1188 1.384 . S
C1190 C1191 1.372 . S
C1191 C1190 1.372 . S
C1191 C1192 1.400 . S
C1191 C1196 1.490 . S
C1192 H1182 0.930 . S
C1192 C1191 1.400 . S
C1192 C1195 1.386 . S
H1193 C1209 0.930 . S
H1194 C1210 0.931 . S
C1195 H1183 0.929 . S
C1195 C1189 1.390 . S
C1195 C1192 1.386 . S
C1196 C1191 1.490 . S
C1196 C1198 1.395 . S
C1196 C1199 1.403 . S
H1197 C1203 0.930 . S
C1198 H1184 0.930 . S
C1198 C1196 1.395 . S
C1198 C1201 1.403 . S
C1199 C1196 1.403 . S
C1199 C1200 1.524 . S
C1199 C1203 1.400 . S
C1200 H1185 0.960 . S
C1200 H1186 0.960 . S
C1200 H1187 0.960 . S
C1200 C1199 1.524 . S
C1201 C1198 1.403 . S
C1201 C1202 1.392 . S
C1201 C1205 1.495 . S
C1202 C1201 1.392 . S
C1202 C1203 1.385 . S
C1202 C1204 1.478 . S
C1203 H1197 0.930 . S
C1203 C1199 1.400 . S
C1203 C1202 1.385 . S
C1204 C1202 1.478 . S
C1204 C1206 1.381 . S
C1204 C1210 1.383 . S
C1205 C1201 1.495 . S
C1205 H1211 0.959 . S
C1205 H1212 0.961 . S
C1205 H1213 0.960 . S
C1206 C1204 1.381 . S
C1206 C1207 1.394 . S
C1206 H1214 0.930 . S
C1207 C1206 1.394 . S
C1207 C1208 1.383 . S
C1207 H1215 0.929 . S
C1208 C1207 1.383 . S
C1208 C1209 1.377 . S
C1209 H1193 0.930 . S
C1209 C1208 1.377 . S
C1209 C1210 1.379 . S
C1210 H1194 0.931 . S
C1210 C1204 1.383 . S
C1210 C1209 1.379 . S
H1211 C1205 0.959 . S
H1212 C1205 0.961 . S
H1213 C1205 0.960 . S
H1214 C1206 0.930 . S
H1215 C1207 0.929 . S
H1216 C1224 0.929 . S
H1217 C1226 0.930 . S
H1218 C1228 0.930 . S
H1219 C1231 0.929 . S
H1220 C1234 0.930 . S
H1221 C1236 0.960 . S
H1222 C1236 0.960 . S
H1223 C1236 0.960 . S
C1224 H1216 0.929 . S
C1224 C1225 1.377 . S
C1224 C1226 1.384 . S
C1225 C1224 1.377 . S
C1225 C1231 1.390 . S
C1226 H1217 0.930 . S
C1226 C1224 1.384 . S
C1226 C1227 1.372 . S
C1227 C1226 1.372 . S
C1227 C1228 1.400 . S
C1227 C1232 1.490 . S
C1228 H1218 0.930 . S
C1228 C1227 1.400 . S
C1228 C1231 1.386 . S
H1229 C1245 0.930 . S
H1230 C1246 0.931 . S
C1231 H1219 0.929 . S
C1231 C1225 1.390 . S
C1231 C1228 1.386 . S
C1232 C1227 1.490 . S
C1232 C1234 1.395 . S
C1232 C1235 1.403 . S
H1233 C1239 0.930 . S
C1234 H1220 0.930 . S
C1234 C1232 1.395 . S
C1234 C1237 1.403 . S
C1235 C1232 1.403 . S
C1235 C1236 1.524 . S
C1235 C1239 1.400 . S
C1236 H1221 0.960 . S
C1236 H1222 0.960 . S
C1236 H1223 0.960 . S
C1236 C1235 1.524 . S
C1237 C1234 1.403 . S
C1237 C1238 1.392 . S
C1237 C1241 1.495 . S
C1238 C1237 1.392 . S
C1238 C1239 1.385 . S
C1238 C1240 1.478 . S
C1239 H1233 0.930 . S
C1239 C1235 1.400 . S
C1239 C1238 1.385 . S
C1240 C1238 1.478 . S
C1240 C1242 1.381 . S
C1240 C1246 1.383 . S
C1241 C1237 1.495 . S
C1241 H1247 0.959 . S
C1241 H1248 0.961 . S
C1241 H1249 0.960 . S
C1242 C1240 1.381 . S
C1242 C1243 1.394 . S
C1242 H1250 0.930 . S
C1243 C1242 1.394 . S
C1243 C1244 1.383 . S
C1243 H1251 0.929 . S
C1244 C1243 1.383 . S
C1244 C1245 1.377 . S
C1245 H1229 0.930 . S
C1245 C1244 1.377 . S
C1245 C1246 1.379 . S
C1246 H1230 0.931 . S
C1246 C1240 1.383 . S
C1246 C1245 1.379 . S
H1247 C1241 0.959 . S
H1248 C1241 0.961 . S
H1249 C1241 0.960 . S
H1250 C1242 0.930 . S
H1251 C1243 0.929 . S
H1252 C1260 0.929 . S
H1253 C1262 0.930 . S
H1254 C1264 0.930 . S
H1255 C1267 0.929 . S
H1256 C1270 0.930 . S
H1257 C1272 0.960 . S
H1258 C1272 0.960 . S
H1259 C1272 0.960 . S
C1260 H1252 0.929 . S
C1260 C1261 1.377 . S
C1260 C1262 1.384 . S
C1261 C1260 1.377 . S
C1261 C1267 1.390 . S
C1262 H1253 0.930 . S
C1262 C1260 1.384 . S
C1262 C1263 1.372 . S
C1263 C1262 1.372 . S
C1263 C1264 1.400 . S
C1263 C1268 1.490 . S
C1264 H1254 0.930 . S
C1264 C1263 1.400 . S
C1264 C1267 1.386 . S
H1265 C1281 0.930 . S
H1266 C1282 0.931 . S
C1267 H1255 0.929 . S
C1267 C1261 1.390 . S
C1267 C1264 1.386 . S
C1268 C1263 1.490 . S
C1268 C1270 1.395 . S
C1268 C1271 1.403 . S
H1269 C1275 0.930 . S
C1270 H1256 0.930 . S
C1270 C1268 1.395 . S
C1270 C1273 1.403 . S
C1271 C1268 1.403 . S
C1271 C1272 1.524 . S
C1271 C1275 1.400 . S
C1272 H1257 0.960 . S
C1272 H1258 0.960 . S
C1272 H1259 0.960 . S
C1272 C1271 1.524 . S
C1273 C1270 1.403 . S
C1273 C1274 1.392 . S
C1273 C1277 1.495 . S
C1274 C1273 1.392 . S
C1274 C1275 1.385 . S
C1274 C1276 1.478 . S
C1275 H1269 0.930 . S
C1275 C1271 1.400 . S
C1275 C1274 1.385 . S
C1276 C1274 1.478 . S
C1276 C1278 1.381 . S
C1276 C1282 1.383 . S
C1277 C1273 1.495 . S
C1277 H1283 0.959 . S
C1277 H1284 0.961 . S
C1277 H1285 0.960 . S
C1278 C1276 1.381 . S
C1278 C1279 1.394 . S
C1278 H1286 0.930 . S
C1279 C1278 1.394 . S
C1279 C1280 1.383 . S
C1279 H1287 0.929 . S
C1280 C1279 1.383 . S
C1280 C1281 1.377 . S
C1281 H1265 0.930 . S
C1281 C1280 1.377 . S
C1281 C1282 1.379 . S
C1282 H1266 0.931 . S
C1282 C1276 1.383 . S
C1282 C1281 1.379 . S
H1283 C1277 0.959 . S
H1284 C1277 0.961 . S
H1285 C1277 0.960 . S
H1286 C1278 0.930 . S
H1287 C1279 0.929 . S
H1288 C1296 0.929 . S
H1289 C1298 0.930 . S
H1290 C1300 0.930 . S
H1291 C1303 0.929 . S
H1292 C1306 0.930 . S
H1293 C1308 0.960 . S
H1294 C1308 0.960 . S
H1295 C1308 0.960 . S
C1296 H1288 0.929 . S
C1296 C1297 1.377 . S
C1296 C1298 1.384 . S
C1297 C1296 1.377 . S
C1297 C1303 1.390 . S
C1298 H1289 0.930 . S
C1298 C1296 1.384 . S
C1298 C1299 1.372 . S
C1299 C1298 1.372 . S
C1299 C1300 1.400 . S
C1299 C1304 1.490 . S
C1300 H1290 0.930 . S
C1300 C1299 1.400 . S
C1300 C1303 1.386 . S
H1301 C1317 0.930 . S
H1302 C1318 0.931 . S
C1303 H1291 0.929 . S
C1303 C1297 1.390 . S
C1303 C1300 1.386 . S
C1304 C1299 1.490 . S
C1304 C1306 1.395 . S
C1304 C1307 1.403 . S
H1305 C1311 0.930 . S
C1306 H1292 0.930 . S
C1306 C1304 1.395 . S
C1306 C1309 1.403 . S
C1307 C1304 1.403 . S
C1307 C1308 1.524 . S
C1307 C1311 1.400 . S
C1308 H1293 0.960 . S
C1308 H1294 0.960 . S
C1308 H1295 0.960 . S
C1308 C1307 1.524 . S
C1309 C1306 1.403 . S
C1309 C1310 1.392 . S
C1309 C1313 1.495 . S
C1310 C1309 1.392 . S
C1310 C1311 1.385 . S
C1310 C1312 1.478 . S
C1311 H1305 0.930 . S
C1311 C1307 1.400 . S
C1311 C1310 1.385 . S
C1312 C1310 1.478 . S
C1312 C1314 1.381 . S
C1312 C1318 1.383 . S
C1313 C1309 1.495 . S
C1313 H1319 0.959 . S
C1313 H1320 0.961 . S
C1313 H1321 0.960 . S
C1314 C1312 1.381 . S
C1314 C1315 1.394 . S
C1314 H1322 0.930 . S
C1315 C1314 1.394 . S
C1315 C1316 1.383 . S
C1315 H1323 0.929 . S
C1316 C1315 1.383 . S
C1316 C1317 1.377 . S
C1317 H1301 0.930 . S
C1317 C1316 1.377 . S
C1317 C1318 1.379 . S
C1318 H1302 0.931 . S
C1318 C1312 1.383 . S
C1318 C1317 1.379 . S
H1319 C1313 0.959 . S
H1320 C1313 0.961 . S
H1321 C1313 0.960 . S
H1322 C1314 0.930 . S
H1323 C1315 0.929 . S
H1324 C1332 0.929 . S
H1325 C1334 0.930 . S
H1326 C1336 0.930 . S
H1327 C1339 0.929 . S
H1328 C1342 0.930 . S
H1329 C1344 0.960 . S
H1330 C1344 0.960 . S
H1331 C1344 0.960 . S
C1332 H1324 0.929 . S
C1332 C1333 1.377 . S
C1332 C1334 1.384 . S
C1333 C1332 1.377 . S
C1333 C1339 1.390 . S
C1334 H1325 0.930 . S
C1334 C1332 1.384 . S
C1334 C1335 1.372 . S
C1335 C1334 1.372 . S
C1335 C1336 1.400 . S
C1335 C1340 1.490 . S
C1336 H1326 0.930 . S
C1336 C1335 1.400 . S
C1336 C1339 1.386 . S
H1337 C1353 0.930 . S
H1338 C1354 0.931 . S
C1339 H1327 0.929 . S
C1339 C1333 1.390 . S
C1339 C1336 1.386 . S
C1340 C1335 1.490 . S
C1340 C1342 1.395 . S
C1340 C1343 1.403 . S
H1341 C1347 0.930 . S
C1342 H1328 0.930 . S
C1342 C1340 1.395 . S
C1342 C1345 1.403 . S
C1343 C1340 1.403 . S
C1343 C1344 1.524 . S
C1343 C1347 1.400 . S
C1344 H1329 0.960 . S
C1344 H1330 0.960 . S
C1344 H1331 0.960 . S
C1344 C1343 1.524 . S
C1345 C1342 1.403 . S
C1345 C1346 1.392 . S
C1345 C1349 1.495 . S
C1346 C1345 1.392 . S
C1346 C1347 1.385 . S
C1346 C1348 1.478 . S
C1347 H1341 0.930 . S
C1347 C1343 1.400 . S
C1347 C1346 1.385 . S
C1348 C1346 1.478 . S
C1348 C1350 1.381 . S
C1348 C1354 1.383 . S
C1349 C1345 1.495 . S
C1349 H1355 0.959 . S
C1349 H1356 0.961 . S
C1349 H1357 0.960 . S
C1350 C1348 1.381 . S
C1350 C1351 1.394 . S
C1350 H1358 0.930 . S
C1351 C1350 1.394 . S
C1351 C1352 1.383 . S
C1351 H1359 0.929 . S
C1352 C1351 1.383 . S
C1352 C1353 1.377 . S
C1353 H1337 0.930 . S
C1353 C1352 1.377 . S
C1353 C1354 1.379 . S
C1354 H1338 0.931 . S
C1354 C1348 1.383 . S
C1354 C1353 1.379 . S
H1355 C1349 0.959 . S
H1356 C1349 0.961 . S
H1357 C1349 0.960 . S
H1358 C1350 0.930 . S
H1359 C1351 0.929 . S
H1360 C1368 0.929 . S
H1361 C1370 0.930 . S
H1362 C1372 0.930 . S
H1363 C1375 0.929 . S
H1364 C1378 0.930 . S
H1365 C1380 0.960 . S
H1366 C1380 0.960 . S
H1367 C1380 0.960 . S
C1368 H1360 0.929 . S
C1368 C1369 1.377 . S
C1368 C1370 1.384 . S
C1369 C1368 1.377 . S
C1369 C1375 1.390 . S
C1370 H1361 0.930 . S
C1370 C1368 1.384 . S
C1370 C1371 1.372 . S
C1371 C1370 1.372 . S
C1371 C1372 1.400 . S
C1371 C1376 1.490 . S
C1372 H1362 0.930 . S
C1372 C1371 1.400 . S
C1372 C1375 1.386 . S
H1373 C1389 0.930 . S
H1374 C1390 0.931 . S
C1375 H1363 0.929 . S
C1375 C1369 1.390 . S
C1375 C1372 1.386 . S
C1376 C1371 1.490 . S
C1376 C1378 1.395 . S
C1376 C1379 1.403 . S
H1377 C1383 0.930 . S
C1378 H1364 0.930 . S
C1378 C1376 1.395 . S
C1378 C1381 1.403 . S
C1379 C1376 1.403 . S
C1379 C1380 1.524 . S
C1379 C1383 1.400 . S
C1380 H1365 0.960 . S
C1380 H1366 0.960 . S
C1380 H1367 0.960 . S
C1380 C1379 1.524 . S
C1381 C1378 1.403 . S
C1381 C1382 1.392 . S
C1381 C1385 1.495 . S
C1382 C1381 1.392 . S
C1382 C1383 1.385 . S
C1382 C1384 1.478 . S
C1383 H1377 0.930 . S
C1383 C1379 1.400 . S
C1383 C1382 1.385 . S
C1384 C1382 1.478 . S
C1384 C1386 1.381 . S
C1384 C1390 1.383 . S
C1385 C1381 1.495 . S
C1385 H1391 0.959 . S
C1385 H1392 0.961 . S
C1385 H1393 0.960 . S
C1386 C1384 1.381 . S
C1386 C1387 1.394 . S
C1386 H1394 0.930 . S
C1387 C1386 1.394 . S
C1387 C1388 1.383 . S
C1387 H1395 0.929 . S
C1388 C1387 1.383 . S
C1388 C1389 1.377 . S
C1389 H1373 0.930 . S
C1389 C1388 1.377 . S
C1389 C1390 1.379 . S
C1390 H1374 0.931 . S
C1390 C1384 1.383 . S
C1390 C1389 1.379 . S
H1391 C1385 0.959 . S
H1392 C1385 0.961 . S
H1393 C1385 0.960 . S
H1394 C1386 0.930 . S
H1395 C1387 0.929 . S
H1396 C1404 0.929 . S
H1397 C1406 0.930 . S
H1398 C1408 0.930 . S
H1399 C1411 0.929 . S
H1400 C1414 0.930 . S
H1401 C1416 0.960 . S
H1402 C1416 0.960 . S
H1403 C1416 0.960 . S
C1404 H1396 0.929 . S
C1404 C1405 1.377 . S
C1404 C1406 1.384 . S
C1405 C1404 1.377 . S
C1405 C1411 1.390 . S
C1406 H1397 0.930 . S
C1406 C1404 1.384 . S
C1406 C1407 1.372 . S
C1407 C1406 1.372 . S
C1407 C1408 1.400 . S
C1407 C1412 1.490 . S
C1408 H1398 0.930 . S
C1408 C1407 1.400 . S
C1408 C1411 1.386 . S
H1409 C1425 0.930 . S
H1410 C1426 0.931 . S
C1411 H1399 0.929 . S
C1411 C1405 1.390 . S
C1411 C1408 1.386 . S
C1412 C1407 1.490 . S
C1412 C1414 1.395 . S
C1412 C1415 1.403 . S
H1413 C1419 0.930 . S
C1414 H1400 0.930 . S
C1414 C1412 1.395 . S
C1414 C1417 1.403 . S
C1415 C1412 1.403 . S
C1415 C1416 1.524 . S
C1415 C1419 1.400 . S
C1416 H1401 0.960 . S
C1416 H1402 0.960 . S
C1416 H1403 0.960 . S
C1416 C1415 1.524 . S
C1417 C1414 1.403 . S
C1417 C1418 1.392 . S
C1417 C1421 1.495 . S
C1418 C1417 1.392 . S
C1418 C1419 1.385 . S
C1418 C1420 1.478 . S
C1419 H1413 0.930 . S
C1419 C1415 1.400 . S
C1419 C1418 1.385 . S
C1420 C1418 1.478 . S
C1420 C1422 1.381 . S
C1420 C1426 1.383 . S
C1421 C1417 1.495 . S
C1421 H1427 0.959 . S
C1421 H1428 0.961 . S
C1421 H1429 0.960 . S
C1422 C1420 1.381 . S
C1422 C1423 1.394 . S
C1422 H1430 0.930 . S
C1423 C1422 1.394 . S
C1423 C1424 1.383 . S
C1423 H1431 0.929 . S
C1424 C1423 1.383 . S
C1424 C1425 1.377 . S
C1425 H1409 0.930 . S
C1425 C1424 1.377 . S
C1425 C1426 1.379 . S
C1426 H1410 0.931 . S
C1426 C1420 1.383 . S
C1426 C1425 1.379 . S
H1427 C1421 0.959 . S
H1428 C1421 0.961 . S
H1429 C1421 0.960 . S
H1430 C1422 0.930 . S
H1431 C1423 0.929 . S
H1432 C1440 0.929 . S
H1433 C1442 0.930 . S
H1434 C1444 0.930 . S
H1435 C1447 0.929 . S
H1436 C1450 0.930 . S
H1437 C1452 0.960 . S
H1438 C1452 0.960 . S
H1439 C1452 0.960 . S
C1440 H1432 0.929 . S
C1440 C1441 1.377 . S
C1440 C1442 1.384 . S
C1441 C1440 1.377 . S
C1441 C1447 1.390 . S
C1442 H1433 0.930 . S
C1442 C1440 1.384 . S
C1442 C1443 1.372 . S
C1443 C1442 1.372 . S
C1443 C1444 1.400 . S
C1443 C1448 1.490 . S
C1444 H1434 0.930 . S
C1444 C1443 1.400 . S
C1444 C1447 1.386 . S
H1445 C1461 0.930 . S
H1446 C1462 0.931 . S
C1447 H1435 0.929 . S
C1447 C1441 1.390 . S
C1447 C1444 1.386 . S
C1448 C1443 1.490 . S
C1448 C1450 1.395 . S
C1448 C1451 1.403 . S
H1449 C1455 0.930 . S
C1450 H1436 0.930 . S
C1450 C1448 1.395 . S
C1450 C1453 1.403 . S
C1451 C1448 1.403 . S
C1451 C1452 1.524 . S
C1451 C1455 1.400 . S
C1452 H1437 0.960 . S
C1452 H1438 0.960 . S
C1452 H1439 0.960 . S
C1452 C1451 1.524 . S
C1453 C1450 1.403 . S
C1453 C1454 1.392 . S
C1453 C1457 1.495 . S
C1454 C1453 1.392 . S
C1454 C1455 1.385 . S
C1454 C1456 1.478 . S
C1455 H1449 0.930 . S
C1455 C1451 1.400 . S
C1455 C1454 1.385 . S
C1456 C1454 1.478 . S
C1456 C1458 1.381 . S
C1456 C1462 1.383 . S
C1457 C1453 1.495 . S
C1457 H1463 0.959 . S
C1457 H1464 0.961 . S
C1457 H1465 0.960 . S
C1458 C1456 1.381 . S
C1458 C1459 1.394 . S
C1458 H1466 0.930 . S
C1459 C1458 1.394 . S
C1459 C1460 1.383 . S
C1459 H1467 0.929 . S
C1460 C1459 1.383 . S
C1460 C1461 1.377 . S
C1461 H1445 0.930 . S
C1461 C1460 1.377 . S
C1461 C1462 1.379 . S
C1462 H1446 0.931 . S
C1462 C1456 1.383 . S
C1462 C1461 1.379 . S
H1463 C1457 0.959 . S
H1464 C1457 0.961 . S
H1465 C1457 0.960 . S
H1466 C1458 0.930 . S
H1467 C1459 0.929 . S
H1468 C1476 0.929 . S
H1469 C1478 0.930 . S
H1470 C1480 0.930 . S
H1471 C1483 0.929 . S
H1472 C1486 0.930 . S
H1473 C1488 0.960 . S
H1474 C1488 0.960 . S
H1475 C1488 0.960 . S
C1476 H1468 0.929 . S
C1476 C1477 1.377 . S
C1476 C1478 1.384 . S
C1477 C1476 1.377 . S
C1477 C1483 1.390 . S
C1478 H1469 0.930 . S
C1478 C1476 1.384 . S
C1478 C1479 1.372 . S
C1479 C1478 1.372 . S
C1479 C1480 1.400 . S
C1479 C1484 1.490 . S
C1480 H1470 0.930 . S
C1480 C1479 1.400 . S
C1480 C1483 1.386 . S
H1481 C1497 0.930 . S
H1482 C1498 0.931 . S
C1483 H1471 0.929 . S
C1483 C1477 1.390 . S
C1483 C1480 1.386 . S
C1484 C1479 1.490 . S
C1484 C1486 1.395 . S
C1484 C1487 1.403 . S
H1485 C1491 0.930 . S
C1486 H1472 0.930 . S
C1486 C1484 1.395 . S
C1486 C1489 1.403 . S
C1487 C1484 1.403 . S
C1487 C1488 1.524 . S
C1487 C1491 1.400 . S
C1488 H1473 0.960 . S
C1488 H1474 0.960 . S
C1488 H1475 0.960 . S
C1488 C1487 1.524 . S
C1489 C1486 1.403 . S
C1489 C1490 1.392 . S
C1489 C1493 1.495 . S
C1490 C1489 1.392 . S
C1490 C1491 1.385 . S
C1490 C1492 1.478 . S
C1491 H1485 0.930 . S
C1491 C1487 1.400 . S
C1491 C1490 1.385 . S
C1492 C1490 1.478 . S
C1492 C1494 1.381 . S
C1492 C1498 1.383 . S
C1493 C1489 1.495 . S
C1493 H1499 0.959 . S
C1493 H1500 0.961 . S
C1493 H1501 0.960 . S
C1494 C1492 1.381 . S
C1494 C1495 1.394 . S
C1494 H1502 0.930 . S
C1495 C1494 1.394 . S
C1495 C1496 1.383 . S
C1495 H1503 0.929 . S
C1496 C1495 1.383 . S
C1496 C1497 1.377 . S
C1497 H1481 0.930 . S
C1497 C1496 1.377 . S
C1497 C1498 1.379 . S
C1498 H1482 0.931 . S
C1498 C1492 1.383 . S
C1498 C1497 1.379 . S
H1499 C1493 0.959 . S
H1500 C1493 0.961 . S
H1501 C1493 0.960 . S
H1502 C1494 0.930 . S
H1503 C1495 0.929 . S
H1504 C1512 0.929 . S
H1505 C1514 0.930 . S
H1506 C1516 0.930 . S
H1507 C1519 0.929 . S
H1508 C1522 0.930 . S
H1509 C1524 0.960 . S
H1510 C1524 0.960 . S
H1511 C1524 0.960 . S
C1512 H1504 0.929 . S
C1512 C1513 1.377 . S
C1512 C1514 1.384 . S
C1513 C1512 1.377 . S
C1513 C1519 1.390 . S
C1514 H1505 0.930 . S
C1514 C1512 1.384 . S
C1514 C1515 1.372 . S
C1515 C1514 1.372 . S
C1515 C1516 1.400 . S
C1515 C1520 1.490 . S
C1516 H1506 0.930 . S
C1516 C1515 1.400 . S
C1516 C1519 1.386 . S
H1517 C1533 0.930 . S
H1518 C1534 0.931 . S
C1519 H1507 0.929 . S
C1519 C1513 1.390 . S
C1519 C1516 1.386 . S
C1520 C1515 1.490 . S
C1520 C1522 1.395 . S
C1520 C1523 1.403 . S
H1521 C1527 0.930 . S
C1522 H1508 0.930 . S
C1522 C1520 1.395 . S
C1522 C1525 1.403 . S
C1523 C1520 1.403 . S
C1523 C1524 1.524 . S
C1523 C1527 1.400 . S
C1524 H1509 0.960 . S
C1524 H1510 0.960 . S
C1524 H1511 0.960 . S
C1524 C1523 1.524 . S
C1525 C1522 1.403 . S
C1525 C1526 1.392 . S
C1525 C1529 1.495 . S
C1526 C1525 1.392 . S
C1526 C1527 1.385 . S
C1526 C1528 1.478 . S
C1527 H1521 0.930 . S
C1527 C1523 1.400 . S
C1527 C1526 1.385 . S
C1528 C1526 1.478 . S
C1528 C1530 1.381 . S
C1528 C1534 1.383 . S
C1529 C1525 1.495 . S
C1529 H1535 0.959 . S
C1529 H1536 0.961 . S
C1529 H1537 0.960 . S
C1530 C1528 1.381 . S
C1530 C1531 1.394 . S
C1530 H1538 0.930 . S
C1531 C1530 1.394 . S
C1531 C1532 1.383 . S
C1531 H1539 0.929 . S
C1532 C1531 1.383 . S
C1532 C1533 1.377 . S
C1533 H1517 0.930 . S
C1533 C1532 1.377 . S
C1533 C1534 1.379 . S
C1534 H1518 0.931 . S
C1534 C1528 1.383 . S
C1534 C1533 1.379 . S
H1535 C1529 0.959 . S
H1536 C1529 0.961 . S
H1537 C1529 0.960 . S
H1538 C1530 0.930 . S
H1539 C1531 0.929 . S
H1540 C1548 0.929 . S
H1541 C1550 0.930 . S
H1542 C1552 0.930 . S
H1543 C1555 0.929 . S
H1544 C1558 0.930 . S
H1545 C1560 0.960 . S
H1546 C1560 0.960 . S
H1547 C1560 0.960 . S
C1548 H1540 0.929 . S
C1548 C1549 1.377 . S
C1548 C1550 1.384 . S
C1549 C1548 1.377 . S
C1549 C1555 1.390 . S
C1550 H1541 0.930 . S
C1550 C1548 1.384 . S
C1550 C1551 1.372 . S
C1551 C1550 1.372 . S
C1551 C1552 1.400 . S
C1551 C1556 1.490 . S
C1552 H1542 0.930 . S
C1552 C1551 1.400 . S
C1552 C1555 1.386 . S
H1553 C1569 0.930 . S
H1554 C1570 0.931 . S
C1555 H1543 0.929 . S
C1555 C1549 1.390 . S
C1555 C1552 1.386 . S
C1556 C1551 1.490 . S
C1556 C1558 1.395 . S
C1556 C1559 1.403 . S
H1557 C1563 0.930 . S
C1558 H1544 0.930 . S
C1558 C1556 1.395 . S
C1558 C1561 1.403 . S
C1559 C1556 1.403 . S
C1559 C1560 1.524 . S
C1559 C1563 1.400 . S
C1560 H1545 0.960 . S
C1560 H1546 0.960 . S
C1560 H1547 0.960 . S
C1560 C1559 1.524 . S
C1561 C1558 1.403 . S
C1561 C1562 1.392 . S
C1561 C1565 1.495 . S
C1562 C1561 1.392 . S
C1562 C1563 1.385 . S
C1562 C1564 1.478 . S
C1563 H1557 0.930 . S
C1563 C1559 1.400 . S
C1563 C1562 1.385 . S
C1564 C1562 1.478 . S
C1564 C1566 1.381 . S
C1564 C1570 1.383 . S
C1565 C1561 1.495 . S
C1565 H1571 0.959 . S
C1565 H1572 0.961 . S
C1565 H1573 0.960 . S
C1566 C1564 1.381 . S
C1566 C1567 1.394 . S
C1566 H1574 0.930 . S
C1567 C1566 1.394 . S
C1567 C1568 1.383 . S
C1567 H1575 0.929 . S
C1568 C1567 1.383 . S
C1568 C1569 1.377 . S
C1569 H1553 0.930 . S
C1569 C1568 1.377 . S
C1569 C1570 1.379 . S
C1570 H1554 0.931 . S
C1570 C1564 1.383 . S
C1570 C1569 1.379 . S
H1571 C1565 0.959 . S
H1572 C1565 0.961 . S
H1573 C1565 0.960 . S
H1574 C1566 0.930 . S
H1575 C1567 0.929 . S
H1576 C1584 0.929 . S
H1577 C1586 0.930 . S
H1578 C1588 0.930 . S
H1579 C1591 0.929 . S
H1580 C1594 0.930 . S
H1581 C1596 0.960 . S
H1582 C1596 0.960 . S
H1583 C1596 0.960 . S
C1584 H1576 0.929 . S
C1584 C1585 1.377 . S
C1584 C1586 1.384 . S
C1585 C1584 1.377 . S
C1585 C1591 1.390 . S
C1586 H1577 0.930 . S
C1586 C1584 1.384 . S
C1586 C1587 1.372 . S
C1587 C1586 1.372 . S
C1587 C1588 1.400 . S
C1587 C1592 1.490 . S
C1588 H1578 0.930 . S
C1588 C1587 1.400 . S
C1588 C1591 1.386 . S
H1589 C1605 0.930 . S
H1590 C1606 0.931 . S
C1591 H1579 0.929 . S
C1591 C1585 1.390 . S
C1591 C1588 1.386 . S
C1592 C1587 1.490 . S
C1592 C1594 1.395 . S
C1592 C1595 1.403 . S
H1593 C1599 0.930 . S
C1594 H1580 0.930 . S
C1594 C1592 1.395 . S
C1594 C1597 1.403 . S
C1595 C1592 1.403 . S
C1595 C1596 1.524 . S
C1595 C1599 1.400 . S
C1596 H1581 0.960 . S
C1596 H1582 0.960 . S
C1596 H1583 0.960 . S
C1596 C1595 1.524 . S
C1597 C1594 1.403 . S
C1597 C1598 1.392 . S
C1597 C1601 1.495 . S
C1598 C1597 1.392 . S
C1598 C1599 1.385 . S
C1598 C1600 1.478 . S
C1599 H1593 0.930 . S
C1599 C1595 1.400 . S
C1599 C1598 1.385 . S
C1600 C1598 1.478 . S
C1600 C1602 1.381 . S
C1600 C1606 1.383 . S
C1601 C1597 1.495 . S
C1601 H1607 0.959 . S
C1601 H1608 0.961 . S
C1601 H1609 0.960 . S
C1602 C1600 1.381 . S
C1602 C1603 1.394 . S
C1602 H1610 0.930 . S
C1603 C1602 1.394 . S
C1603 C1604 1.383 . S
C1603 H1611 0.929 . S
C1604 C1603 1.383 . S
C1604 C1605 1.377 . S
C1605 H1589 0.930 . S
C1605 C1604 1.377 . S
C1605 C1606 1.379 . S
C1606 H1590 0.931 . S
C1606 C1600 1.383 . S
C1606 C1605 1.379 . S
H1607 C1601 0.959 . S
H1608 C1601 0.961 . S
H1609 C1601 0.960 . S
H1610 C1602 0.930 . S
H1611 C1603 0.929 . S
H1612 C1620 0.929 . S
H1613 C1622 0.930 . S
H1614 C1624 0.930 . S
H1615 C1627 0.929 . S
H1616 C1630 0.930 . S
H1617 C1632 0.960 . S
H1618 C1632 0.960 . S
H1619 C1632 0.960 . S
C1620 H1612 0.929 . S
C1620 C1621 1.377 . S
C1620 C1622 1.384 . S
C1621 C1620 1.377 . S
C1621 C1627 1.390 . S
C1622 H1613 0.930 . S
C1622 C1620 1.384 . S
C1622 C1623 1.372 . S
C1623 C1622 1.372 . S
C1623 C1624 1.400 . S
C1623 C1628 1.490 . S
C1624 H1614 0.930 . S
C1624 C1623 1.400 . S
C1624 C1627 1.386 . S
H1625 C1641 0.930 . S
H1626 C1642 0.931 . S
C1627 H1615 0.929 . S
C1627 C1621 1.390 . S
C1627 C1624 1.386 . S
C1628 C1623 1.490 . S
C1628 C1630 1.395 . S
C1628 C1631 1.403 . S
H1629 C1635 0.930 . S
C1630 H1616 0.930 . S
C1630 C1628 1.395 . S
C1630 C1633 1.403 . S
C1631 C1628 1.403 . S
C1631 C1632 1.524 . S
C1631 C1635 1.400 . S
C1632 H1617 0.960 . S
C1632 H1618 0.960 . S
C1632 H1619 0.960 . S
C1632 C1631 1.524 . S
C1633 C1630 1.403 . S
C1633 C1634 1.392 . S
C1633 C1637 1.495 . S
C1634 C1633 1.392 . S
C1634 C1635 1.385 . S
C1634 C1636 1.478 . S
C1635 H1629 0.930 . S
C1635 C1631 1.400 . S
C1635 C1634 1.385 . S
C1636 C1634 1.478 . S
C1636 C1638 1.381 . S
C1636 C1642 1.383 . S
C1637 C1633 1.495 . S
C1637 H1643 0.959 . S
C1637 H1644 0.961 . S
C1637 H1645 0.960 . S
C1638 C1636 1.381 . S
C1638 C1639 1.394 . S
C1638 H1646 0.930 . S
C1639 C1638 1.394 . S
C1639 C1640 1.383 . S
C1639 H1647 0.929 . S
C1640 C1639 1.383 . S
C1640 C1641 1.377 . S
C1641 H1625 0.930 . S
C1641 C1640 1.377 . S
C1641 C1642 1.379 . S
C1642 H1626 0.931 . S
C1642 C1636 1.383 . S
C1642 C1641 1.379 . S
H1643 C1637 0.959 . S
H1644 C1637 0.961 . S
H1645 C1637 0.960 . S
H1646 C1638 0.930 . S
H1647 C1639 0.929 . S
H1648 C1656 0.929 . S
H1649 C1658 0.930 . S
H1650 C1660 0.930 . S
H1651 C1663 0.929 . S
H1652 C1666 0.930 . S
H1653 C1668 0.960 . S
H1654 C1668 0.960 . S
H1655 C1668 0.960 . S
C1656 H1648 0.929 . S
C1656 C1657 1.377 . S
C1656 C1658 1.384 . S
C1657 C1656 1.377 . S
C1657 C1663 1.390 . S
C1658 H1649 0.930 . S
C1658 C1656 1.384 . S
C1658 C1659 1.372 . S
C1659 C1658 1.372 . S
C1659 C1660 1.400 . S
C1659 C1664 1.490 . S
C1660 H1650 0.930 . S
C1660 C1659 1.400 . S
C1660 C1663 1.386 . S
H1661 C1677 0.930 . S
H1662 C1678 0.931 . S
C1663 H1651 0.929 . S
C1663 C1657 1.390 . S
C1663 C1660 1.386 . S
C1664 C1659 1.490 . S
C1664 C1666 1.395 . S
C1664 C1667 1.403 . S
H1665 C1671 0.930 . S
C1666 H1652 0.930 . S
C1666 C1664 1.395 . S
C1666 C1669 1.403 . S
C1667 C1664 1.403 . S
C1667 C1668 1.524 . S
C1667 C1671 1.400 . S
C1668 H1653 0.960 . S
C1668 H1654 0.960 . S
C1668 H1655 0.960 . S
C1668 C1667 1.524 . S
C1669 C1666 1.403 . S
C1669 C1670 1.392 . S
C1669 C1673 1.495 . S
C1670 C1669 1.392 . S
C1670 C1671 1.385 . S
C1670 C1672 1.478 . S
C1671 H1665 0.930 . S
C1671 C1667 1.400 . S
C1671 C1670 1.385 . S
C1672 C1670 1.478 . S
C1672 C1674 1.381 . S
C1672 C1678 1.383 . S
C1673 C1669 1.495 . S
C1673 H1679 0.959 . S
C1673 H1680 0.961 . S
C1673 H1681 0.960 . S
C1674 C1672 1.381 . S
C1674 C1675 1.394 . S
C1674 H1682 0.930 . S
C1675 C1674 1.394 . S
C1675 C1676 1.383 . S
C1675 H1683 0.929 . S
C1676 C1675 1.383 . S
C1676 C1677 1.377 . S
C1677 H1661 0.930 . S
C1677 C1676 1.377 . S
C1677 C1678 1.379 . S
C1678 H1662 0.931 . S
C1678 C1672 1.383 . S
C1678 C1677 1.379 . S
H1679 C1673 0.959 . S
H1680 C1673 0.961 . S
H1681 C1673 0.960 . S
H1682 C1674 0.930 . S
H1683 C1675 0.929 . S
H1684 C1692 0.929 . S
H1685 C1694 0.930 . S
H1686 C1696 0.930 . S
H1687 C1699 0.929 . S
H1688 C1702 0.930 . S
H1689 C1704 0.960 . S
H1690 C1704 0.960 . S
H1691 C1704 0.960 . S
C1692 H1684 0.929 . S
C1692 C1693 1.377 . S
C1692 C1694 1.384 . S
C1693 C1692 1.377 . S
C1693 C1699 1.390 . S
C1694 H1685 0.930 . S
C1694 C1692 1.384 . S
C1694 C1695 1.372 . S
C1695 C1694 1.372 . S
C1695 C1696 1.400 . S
C1695 C1700 1.490 . S
C1696 H1686 0.930 . S
C1696 C1695 1.400 . S
C1696 C1699 1.386 . S
H1697 C1713 0.930 . S
H1698 C1714 0.931 . S
C1699 H1687 0.929 . S
C1699 C1693 1.390 . S
C1699 C1696 1.386 . S
C1700 C1695 1.490 . S
C1700 C1702 1.395 . S
C1700 C1703 1.403 . S
H1701 C1707 0.930 . S
C1702 H1688 0.930 . S
C1702 C1700 1.395 . S
C1702 C1705 1.403 . S
C1703 C1700 1.403 . S
C1703 C1704 1.524 . S
C1703 C1707 1.400 . S
C1704 H1689 0.960 . S
C1704 H1690 0.960 . S
C1704 H1691 0.960 . S
C1704 C1703 1.524 . S
C1705 C1702 1.403 . S
C1705 C1706 1.392 . S
C1705 C1709 1.495 . S
C1706 C1705 1.392 . S
C1706 C1707 1.385 . S
C1706 C1708 1.478 . S
C1707 H1701 0.930 . S
C1707 C1703 1.400 . S
C1707 C1706 1.385 . S
C1708 C1706 1.478 . S
C1708 C1710 1.381 . S
C1708 C1714 1.383 . S
C1709 C1705 1.495 . S
C1709 H1715 0.959 . S
C1709 H1716 0.961 . S
C1709 H1717 0.960 . S
C1710 C1708 1.381 . S
C1710 C1711 1.394 . S
C1710 H1718 0.930 . S
C1711 C1710 1.394 . S
C1711 C1712 1.383 . S
C1711 H1719 0.929 . S
C1712 C1711 1.383 . S
C1712 C1713 1.377 . S
C1713 H1697 0.930 . S
C1713 C1712 1.377 . S
C1713 C1714 1.379 . S
C1714 H1698 0.931 . S
C1714 C1708 1.383 . S
C1714 C1713 1.379 . S
H1715 C1709 0.959 . S
H1716 C1709 0.961 . S
H1717 C1709 0.960 . S
H1718 C1710 0.930 . S
H1719 C1711 0.929 . S
H1720 C1728 0.929 . S
H1721 C1730 0.930 . S
H1722 C1732 0.930 . S
H1723 C1735 0.929 . S
H1724 C1738 0.930 . S
H1725 C1740 0.960 . S
H1726 C1740 0.960 . S
H1727 C1740 0.960 . S
C1728 H1720 0.929 . S
C1728 C1729 1.377 . S
C1728 C1730 1.384 . S
C1729 C1728 1.377 . S
C1729 C1735 1.390 . S
C1730 H1721 0.930 . S
C1730 C1728 1.384 . S
C1730 C1731 1.372 . S
C1731 C1730 1.372 . S
C1731 C1732 1.400 . S
C1731 C1736 1.490 . S
C1732 H1722 0.930 . S
C1732 C1731 1.400 . S
C1732 C1735 1.386 . S
H1733 C1749 0.930 . S
H1734 C1750 0.931 . S
C1735 H1723 0.929 . S
C1735 C1729 1.390 . S
C1735 C1732 1.386 . S
C1736 C1731 1.490 . S
C1736 C1738 1.395 . S
C1736 C1739 1.403 . S
H1737 C1743 0.930 . S
C1738 H1724 0.930 . S
C1738 C1736 1.395 . S
C1738 C1741 1.403 . S
C1739 C1736 1.403 . S
C1739 C1740 1.524 . S
C1739 C1743 1.400 . S
C1740 H1725 0.960 . S
C1740 H1726 0.960 . S
C1740 H1727 0.960 . S
C1740 C1739 1.524 . S
C1741 C1738 1.403 . S
C1741 C1742 1.392 . S
C1741 C1745 1.495 . S
C1742 C1741 1.392 . S
C1742 C1743 1.385 . S
C1742 C1744 1.478 . S
C1743 H1737 0.930 . S
C1743 C1739 1.400 . S
C1743 C1742 1.385 . S
C1744 C1742 1.478 . S
C1744 C1746 1.381 . S
C1744 C1750 1.383 . S
C1745 C1741 1.495 . S
C1745 H1751 0.959 . S
C1745 H1752 0.961 . S
C1745 H1753 0.960 . S
C1746 C1744 1.381 . S
C1746 C1747 1.394 . S
C1746 H1754 0.930 . S
C1747 C1746 1.394 . S
C1747 C1748 1.383 . S
C1747 H1755 0.929 . S
C1748 C1747 1.383 . S
C1748 C1749 1.377 . S
C1749 H1733 0.930 . S
C1749 C1748 1.377 . S
C1749 C1750 1.379 . S
C1750 H1734 0.931 . S
C1750 C1744 1.383 . S
C1750 C1749 1.379 . S
H1751 C1745 0.959 . S
H1752 C1745 0.961 . S
H1753 C1745 0.960 . S
H1754 C1746 0.930 . S
H1755 C1747 0.929 . S
H1756 C1764 0.929 . S
H1757 C1766 0.930 . S
H1758 C1768 0.930 . S
H1759 C1771 0.929 . S
H1760 C1774 0.930 . S
H1761 C1776 0.960 . S
H1762 C1776 0.960 . S
H1763 C1776 0.960 . S
C1764 H1756 0.929 . S
C1764 C1765 1.377 . S
C1764 C1766 1.384 . S
C1765 C1764 1.377 . S
C1765 C1771 1.390 . S
C1766 H1757 0.930 . S
C1766 C1764 1.384 . S
C1766 C1767 1.372 . S
C1767 C1766 1.372 . S
C1767 C1768 1.400 . S
C1767 C1772 1.490 . S
C1768 H1758 0.930 . S
C1768 C1767 1.400 . S
C1768 C1771 1.386 . S
H1769 C1785 0.930 . S
H1770 C1786 0.931 . S
C1771 H1759 0.929 . S
C1771 C1765 1.390 . S
C1771 C1768 1.386 . S
C1772 C1767 1.490 . S
C1772 C1774 1.395 . S
C1772 C1775 1.403 . S
H1773 C1779 0.930 . S
C1774 H1760 0.930 . S
C1774 C1772 1.395 . S
C1774 C1777 1.403 . S
C1775 C1772 1.403 . S
C1775 C1776 1.524 . S
C1775 C1779 1.400 . S
C1776 H1761 0.960 . S
C1776 H1762 0.960 . S
C1776 H1763 0.960 . S
C1776 C1775 1.524 . S
C1777 C1774 1.403 . S
C1777 C1778 1.392 . S
C1777 C1781 1.495 . S
C1778 C1777 1.392 . S
C1778 C1779 1.385 . S
C1778 C1780 1.478 . S
C1779 H1773 0.930 . S
C1779 C1775 1.400 . S
C1779 C1778 1.385 . S
C1780 C1778 1.478 . S
C1780 C1782 1.381 . S
C1780 C1786 1.383 . S
C1781 C1777 1.495 . S
C1781 H1787 0.959 . S
C1781 H1788 0.961 . S
C1781 H1789 0.960 . S
C1782 C1780 1.381 . S
C1782 C1783 1.394 . S
C1782 H1790 0.930 . S
C1783 C1782 1.394 . S
C1783 C1784 1.383 . S
C1783 H1791 0.929 . S
C1784 C1783 1.383 . S
C1784 C1785 1.377 . S
C1785 H1769 0.930 . S
C1785 C1784 1.377 . S
C1785 C1786 1.379 . S
C1786 H1770 0.931 . S
C1786 C1780 1.383 . S
C1786 C1785 1.379 . S
H1787 C1781 0.959 . S
H1788 C1781 0.961 . S
H1789 C1781 0.960 . S
H1790 C1782 0.930 . S
H1791 C1783 0.929 . S
H1792 C1800 0.929 . S
H1793 C1802 0.930 . S
H1794 C1804 0.930 . S
H1795 C1807 0.929 . S
H1796 C1810 0.930 . S
H1797 C1812 0.960 . S
H1798 C1812 0.960 . S
H1799 C1812 0.960 . S
C1800 H1792 0.929 . S
C1800 C1801 1.377 . S
C1800 C1802 1.384 . S
C1801 C1800 1.377 . S
C1801 C1807 1.390 . S
C1802 H1793 0.930 . S
C1802 C1800 1.384 . S
C1802 C1803 1.372 . S
C1803 C1802 1.372 . S
C1803 C1804 1.400 . S
C1803 C1808 1.490 . S
C1804 H1794 0.930 . S
C1804 C1803 1.400 . S
C1804 C1807 1.386 . S
H1805 C1821 0.930 . S
H1806 C1822 0.931 . S
C1807 H1795 0.929 . S
C1807 C1801 1.390 . S
C1807 C1804 1.386 . S
C1808 C1803 1.490 . S
C1808 C1810 1.395 . S
C1808 C1811 1.403 . S
H1809 C1815 0.930 . S
C1810 H1796 0.930 . S
C1810 C1808 1.395 . S
C1810 C1813 1.403 . S
C1811 C1808 1.403 . S
C1811 C1812 1.524 . S
C1811 C1815 1.400 . S
C1812 H1797 0.960 . S
C1812 H1798 0.960 . S
C1812 H1799 0.960 . S
C1812 C1811 1.524 . S
C1813 C1810 1.403 . S
C1813 C1814 1.392 . S
C1813 C1817 1.495 . S
C1814 C1813 1.392 . S
C1814 C1815 1.385 . S
C1814 C1816 1.478 . S
C1815 H1809 0.930 . S
C1815 C1811 1.400 . S
C1815 C1814 1.385 . S
C1816 C1814 1.478 . S
C1816 C1818 1.381 . S
C1816 C1822 1.383 . S
C1817 C1813 1.495 . S
C1817 H1823 0.959 . S
C1817 H1824 0.961 . S
C1817 H1825 0.960 . S
C1818 C1816 1.381 . S
C1818 C1819 1.394 . S
C1818 H1826 0.930 . S
C1819 C1818 1.394 . S
C1819 C1820 1.383 . S
C1819 H1827 0.929 . S
C1820 C1819 1.383 . S
C1820 C1821 1.377 . S
C1821 H1805 0.930 . S
C1821 C1820 1.377 . S
C1821 C1822 1.379 . S
C1822 H1806 0.931 . S
C1822 C1816 1.383 . S
C1822 C1821 1.379 . S
H1823 C1817 0.959 . S
H1824 C1817 0.961 . S
H1825 C1817 0.960 . S
H1826 C1818 0.930 . S
H1827 C1819 0.929 . S
H1828 C1836 0.929 . S
H1829 C1838 0.930 . S
H1830 C1840 0.930 . S
H1831 C1843 0.929 . S
H1832 C1846 0.930 . S
H1833 C1848 0.960 . S
H1834 C1848 0.960 . S
H1835 C1848 0.960 . S
C1836 H1828 0.929 . S
C1836 C1837 1.377 . S
C1836 C1838 1.384 . S
C1837 C1836 1.377 . S
C1837 C1843 1.390 . S
C1838 H1829 0.930 . S
C1838 C1836 1.384 . S
C1838 C1839 1.372 . S
C1839 C1838 1.372 . S
C1839 C1840 1.400 . S
C1839 C1844 1.490 . S
C1840 H1830 0.930 . S
C1840 C1839 1.400 . S
C1840 C1843 1.386 . S
H1841 C1857 0.930 . S
H1842 C1858 0.931 . S
C1843 H1831 0.929 . S
C1843 C1837 1.390 . S
C1843 C1840 1.386 . S
C1844 C1839 1.490 . S
C1844 C1846 1.395 . S
C1844 C1847 1.403 . S
H1845 C1851 0.930 . S
C1846 H1832 0.930 . S
C1846 C1844 1.395 . S
C1846 C1849 1.403 . S
C1847 C1844 1.403 . S
C1847 C1848 1.524 . S
C1847 C1851 1.400 . S
C1848 H1833 0.960 . S
C1848 H1834 0.960 . S
C1848 H1835 0.960 . S
C1848 C1847 1.524 . S
C1849 C1846 1.403 . S
C1849 C1850 1.392 . S
C1849 C1853 1.495 . S
C1850 C1849 1.392 . S
C1850 C1851 1.385 . S
C1850 C1852 1.478 . S
C1851 H1845 0.930 . S
C1851 C1847 1.400 . S
C1851 C1850 1.385 . S
C1852 C1850 1.478 . S
C1852 C1854 1.381 . S
C1852 C1858 1.383 . S
C1853 C1849 1.495 . S
C1853 H1859 0.959 . S
C1853 H1860 0.961 . S
C1853 H1861 0.960 . S
C1854 C1852 1.381 . S
C1854 C1855 1.394 . S
C1854 H1862 0.930 . S
C1855 C1854 1.394 . S
C1855 C1856 1.383 . S
C1855 H1863 0.929 . S
C1856 C1855 1.383 . S
C1856 C1857 1.377 . S
C1857 H1841 0.930 . S
C1857 C1856 1.377 . S
C1857 C1858 1.379 . S
C1858 H1842 0.931 . S
C1858 C1852 1.383 . S
C1858 C1857 1.379 . S
H1859 C1853 0.959 . S
H1860 C1853 0.961 . S
H1861 C1853 0.960 . S
H1862 C1854 0.930 . S
H1863 C1855 0.929 . S
H1864 C1872 0.929 . S
H1865 C1874 0.930 . S
H1866 C1876 0.930 . S
H1867 C1879 0.929 . S
H1868 C1882 0.930 . S
H1869 C1884 0.960 . S
H1870 C1884 0.960 . S
H1871 C1884 0.960 . S
C1872 H1864 0.929 . S
C1872 C1873 1.377 . S
C1872 C1874 1.384 . S
C1873 C1872 1.377 . S
C1873 C1879 1.390 . S
C1874 H1865 0.930 . S
C1874 C1872 1.384 . S
C1874 C1875 1.372 . S
C1875 C1874 1.372 . S
C1875 C1876 1.400 . S
C1875 C1880 1.490 . S
C1876 H1866 0.930 . S
C1876 C1875 1.400 . S
C1876 C1879 1.386 . S
H1877 C1893 0.930 . S
H1878 C1894 0.931 . S
C1879 H1867 0.929 . S
C1879 C1873 1.390 . S
C1879 C1876 1.386 . S
C1880 C1875 1.490 . S
C1880 C1882 1.395 . S
C1880 C1883 1.403 . S
H1881 C1887 0.930 . S
C1882 H1868 0.930 . S
C1882 C1880 1.395 . S
C1882 C1885 1.403 . S
C1883 C1880 1.403 . S
C1883 C1884 1.524 . S
C1883 C1887 1.400 . S
C1884 H1869 0.960 . S
C1884 H1870 0.960 . S
C1884 H1871 0.960 . S
C1884 C1883 1.524 . S
C1885 C1882 1.403 . S
C1885 C1886 1.392 . S
C1885 C1889 1.495 . S
C1886 C1885 1.392 . S
C1886 C1887 1.385 . S
C1886 C1888 1.478 . S
C1887 H1881 0.930 . S
C1887 C1883 1.400 . S
C1887 C1886 1.385 . S
C1888 C1886 1.478 . S
C1888 C1890 1.381 . S
C1888 C1894 1.383 . S
C1889 C1885 1.495 . S
C1889 H1895 0.959 . S
C1889 H1896 0.961 . S
C1889 H1897 0.960 . S
C1890 C1888 1.381 . S
C1890 C1891 1.394 . S
C1890 H1898 0.930 . S
C1891 C1890 1.394 . S
C1891 C1892 1.383 . S
C1891 H1899 0.929 . S
C1892 C1891 1.383 . S
C1892 C1893 1.377 . S
C1893 H1877 0.930 . S
C1893 C1892 1.377 . S
C1893 C1894 1.379 . S
C1894 H1878 0.931 . S
C1894 C1888 1.383 . S
C1894 C1893 1.379 . S
H1895 C1889 0.959 . S
H1896 C1889 0.961 . S
H1897 C1889 0.960 . S
H1898 C1890 0.930 . S
H1899 C1891 0.929 . S
H1900 C1908 0.929 . S
H1901 C1910 0.930 . S
H1902 C1912 0.930 . S
H1903 C1915 0.929 . S
H1904 C1918 0.930 . S
H1905 C1920 0.960 . S
H1906 C1920 0.960 . S
H1907 C1920 0.960 . S
C1908 H1900 0.929 . S
C1908 C1909 1.377 . S
C1908 C1910 1.384 . S
C1909 C1908 1.377 . S
C1909 C1915 1.390 . S
C1910 H1901 0.930 . S
C1910 C1908 1.384 . S
C1910 C1911 1.372 . S
C1911 C1910 1.372 . S
C1911 C1912 1.400 . S
C1911 C1916 1.490 . S
C1912 H1902 0.930 . S
C1912 C1911 1.400 . S
C1912 C1915 1.386 . S
H1913 C1929 0.930 . S
H1914 C1930 0.931 . S
C1915 H1903 0.929 . S
C1915 C1909 1.390 . S
C1915 C1912 1.386 . S
C1916 C1911 1.490 . S
C1916 C1918 1.395 . S
C1916 C1919 1.403 . S
H1917 C1923 0.930 . S
C1918 H1904 0.930 . S
C1918 C1916 1.395 . S
C1918 C1921 1.403 . S
C1919 C1916 1.403 . S
C1919 C1920 1.524 . S
C1919 C1923 1.400 . S
C1920 H1905 0.960 . S
C1920 H1906 0.960 . S
C1920 H1907 0.960 . S
C1920 C1919 1.524 . S
C1921 C1918 1.403 . S
C1921 C1922 1.392 . S
C1921 C1925 1.495 . S
C1922 C1921 1.392 . S
C1922 C1923 1.385 . S
C1922 C1924 1.478 . S
C1923 H1917 0.930 . S
C1923 C1919 1.400 . S
C1923 C1922 1.385 . S
C1924 C1922 1.478 . S
C1924 C1926 1.381 . S
C1924 C1930 1.383 . S
C1925 C1921 1.495 . S
C1925 H1931 0.959 . S
C1925 H1932 0.961 . S
C1925 H1933 0.960 . S
C1926 C1924 1.381 . S
C1926 C1927 1.394 . S
C1926 H1934 0.930 . S
C1927 C1926 1.394 . S
C1927 C1928 1.383 . S
C1927 H1935 0.929 . S
C1928 C1927 1.383 . S
C1928 C1929 1.377 . S
C1929 H1913 0.930 . S
C1929 C1928 1.377 . S
C1929 C1930 1.379 . S
C1930 H1914 0.931 . S
C1930 C1924 1.383 . S
C1930 C1929 1.379 . S
H1931 C1925 0.959 . S
H1932 C1925 0.961 . S
H1933 C1925 0.960 . S
H1934 C1926 0.930 . S
H1935 C1927 0.929 . S
H1936 C1944 0.929 . S
H1937 C1946 0.930 . S
H1938 C1948 0.930 . S
H1939 C1951 0.929 . S
H1940 C1954 0.930 . S
H1941 C1956 0.960 . S
H1942 C1956 0.960 . S
H1943 C1956 0.960 . S
C1944 H1936 0.929 . S
C1944 C1945 1.377 . S
C1944 C1946 1.384 . S
C1945 C1944 1.377 . S
C1945 C1951 1.390 . S
C1946 H1937 0.930 . S
C1946 C1944 1.384 . S
C1946 C1947 1.372 . S
C1947 C1946 1.372 . S
C1947 C1948 1.400 . S
C1947 C1952 1.490 . S
C1948 H1938 0.930 . S
C1948 C1947 1.400 . S
C1948 C1951 1.386 . S
H1949 C1965 0.930 . S
H1950 C1966 0.931 . S
C1951 H1939 0.929 . S
C1951 C1945 1.390 . S
C1951 C1948 1.386 . S
C1952 C1947 1.490 . S
C1952 C1954 1.395 . S
C1952 C1955 1.403 . S
H1953 C1959 0.930 . S
C1954 H1940 0.930 . S
C1954 C1952 1.395 . S
C1954 C1957 1.403 . S
C1955 C1952 1.403 . S
C1955 C1956 1.524 . S
C1955 C1959 1.400 . S
C1956 H1941 0.960 . S
C1956 H1942 0.960 . S
C1956 H1943 0.960 . S
C1956 C1955 1.524 . S
C1957 C1954 1.403 . S
C1957 C1958 1.392 . S
C1957 C1961 1.495 . S
C1958 C1957 1.392 . S
C1958 C1959 1.385 . S
C1958 C1960 1.478 . S
C1959 H1953 0.930 . S
C1959 C1955 1.400 . S
C1959 C1958 1.385 . S
C1960 C1958 1.478 . S
C1960 C1962 1.381 . S
C1960 C1966 1.383 . S
C1961 C1957 1.495 . S
C1961 H1967 0.959 . S
C1961 H1968 0.961 . S
C1961 H1969 0.960 . S
C1962 C1960 1.381 . S
C1962 C1963 1.394 . S
C1962 H1970 0.930 . S
C1963 C1962 1.394 . S
C1963 C1964 1.383 . S
C1963 H1971 0.929 . S
C1964 C1963 1.383 . S
C1964 C1965 1.377 . S
C1965 H1949 0.930 . S
C1965 C1964 1.377 . S
C1965 C1966 1.379 . S
C1966 H1950 0.931 . S
C1966 C1960 1.383 . S
C1966 C1965 1.379 . S
H1967 C1961 0.959 . S
H1968 C1961 0.961 . S
H1969 C1961 0.960 . S
H1970 C1962 0.930 . S
H1971 C1963 0.929 . S
H1972 C1980 0.929 . S
H1973 C1982 0.930 . S
H1974 C1984 0.930 . S
H1975 C1987 0.929 . S
H1976 C1990 0.930 . S
H1977 C1992 0.960 . S
H1978 C1992 0.960 . S
H1979 C1992 0.960 . S
C1980 H1972 0.929 . S
C1980 C1981 1.377 . S
C1980 C1982 1.384 . S
C1981 C1980 1.377 . S
C1981 C1987 1.390 . S
C1982 H1973 0.930 . S
C1982 C1980 1.384 . S
C1982 C1983 1.372 . S
C1983 C1982 1.372 . S
C1983 C1984 1.400 . S
C1983 C1988 1.490 . S
C1984 H1974 0.930 . S
C1984 C1983 1.400 . S
C1984 C1987 1.386 . S
H1985 C2001 0.930 . S
H1986 C2002 0.931 . S
C1987 H1975 0.929 . S
C1987 C1981 1.390 . S
C1987 C1984 1.386 . S
C1988 C1983 1.490 . S
C1988 C1990 1.395 . S
C1988 C1991 1.403 . S
H1989 C1995 0.930 . S
C1990 H1976 0.930 . S
C1990 C1988 1.395 . S
C1990 C1993 1.403 . S
C1991 C1988 1.403 . S
C1991 C1992 1.524 . S
C1991 C1995 1.400 . S
C1992 H1977 0.960 . S
C1992 H1978 0.960 . S
C1992 H1979 0.960 . S
C1992 C1991 1.524 . S
C1993 C1990 1.403 . S
C1993 C1994 1.392 . S
C1993 C1997 1.495 . S
C1994 C1993 1.392 . S
C1994 C1995 1.385 . S
C1994 C1996 1.478 . S
C1995 H1989 0.930 . S
C1995 C1991 1.400 . S
C1995 C1994 1.385 . S
C1996 C1994 1.478 . S
C1996 C1998 1.381 . S
C1996 C2002 1.383 . S
C1997 C1993 1.495 . S
C1997 H2003 0.959 . S
C1997 H2004 0.961 . S
C1997 H2005 0.960 . S
C1998 C1996 1.381 . S
C1998 C1999 1.394 . S
C1998 H2006 0.930 . S
C1999 C1998 1.394 . S
C1999 C2000 1.383 . S
C1999 H2007 0.929 . S
C2000 C1999 1.383 . S
C2000 C2001 1.377 . S
C2001 H1985 0.930 . S
C2001 C2000 1.377 . S
C2001 C2002 1.379 . S
C2002 H1986 0.931 . S
C2002 C1996 1.383 . S
C2002 C2001 1.379 . S
H2003 C1997 0.959 . S
H2004 C1997 0.961 . S
H2005 C1997 0.960 . S
H2006 C1998 0.930 . S
H2007 C1999 0.929 . S
H2008 C2016 0.929 . S
H2009 C2018 0.930 . S
H2010 C2020 0.930 . S
H2011 C2023 0.929 . S
H2012 C2026 0.930 . S
H2013 C2028 0.960 . S
H2014 C2028 0.960 . S
H2015 C2028 0.960 . S
C2016 H2008 0.929 . S
C2016 C2017 1.377 . S
C2016 C2018 1.384 . S
C2017 C2016 1.377 . S
C2017 C2023 1.390 . S
C2018 H2009 0.930 . S
C2018 C2016 1.384 . S
C2018 C2019 1.372 . S
C2019 C2018 1.372 . S
C2019 C2020 1.400 . S
C2019 C2024 1.490 . S
C2020 H2010 0.930 . S
C2020 C2019 1.400 . S
C2020 C2023 1.386 . S
H2021 C2037 0.930 . S
H2022 C2038 0.931 . S
C2023 H2011 0.929 . S
C2023 C2017 1.390 . S
C2023 C2020 1.386 . S
C2024 C2019 1.490 . S
C2024 C2026 1.395 . S
C2024 C2027 1.403 . S
H2025 C2031 0.930 . S
C2026 H2012 0.930 . S
C2026 C2024 1.395 . S
C2026 C2029 1.403 . S
C2027 C2024 1.403 . S
C2027 C2028 1.524 . S
C2027 C2031 1.400 . S
C2028 H2013 0.960 . S
C2028 H2014 0.960 . S
C2028 H2015 0.960 . S
C2028 C2027 1.524 . S
C2029 C2026 1.403 . S
C2029 C2030 1.392 . S
C2029 C2033 1.495 . S
C2030 C2029 1.392 . S
C2030 C2031 1.385 . S
C2030 C2032 1.478 . S
C2031 H2025 0.930 . S
C2031 C2027 1.400 . S
C2031 C2030 1.385 . S
C2032 C2030 1.478 . S
C2032 C2034 1.381 . S
C2032 C2038 1.383 . S
C2033 C2029 1.495 . S
C2033 H2039 0.959 . S
C2033 H2040 0.961 . S
C2033 H2041 0.960 . S
C2034 C2032 1.381 . S
C2034 C2035 1.394 . S
C2034 H2042 0.930 . S
C2035 C2034 1.394 . S
C2035 C2036 1.383 . S
C2035 H2043 0.929 . S
C2036 C2035 1.383 . S
C2036 C2037 1.377 . S
C2037 H2021 0.930 . S
C2037 C2036 1.377 . S
C2037 C2038 1.379 . S
C2038 H2022 0.931 . S
C2038 C2032 1.383 . S
C2038 C2037 1.379 . S
H2039 C2033 0.959 . S
H2040 C2033 0.961 . S
H2041 C2033 0.960 . S
H2042 C2034 0.930 . S
H2043 C2035 0.929 . S
H2044 C2052 0.929 . S
H2045 C2054 0.930 . S
H2046 C2056 0.930 . S
H2047 C2059 0.929 . S
H2048 C2062 0.930 . S
H2049 C2064 0.960 . S
H2050 C2064 0.960 . S
H2051 C2064 0.960 . S
C2052 H2044 0.929 . S
C2052 C2053 1.377 . S
C2052 C2054 1.384 . S
C2053 C2052 1.377 . S
C2053 C2059 1.390 . S
C2054 H2045 0.930 . S
C2054 C2052 1.384 . S
C2054 C2055 1.372 . S
C2055 C2054 1.372 . S
C2055 C2056 1.400 . S
C2055 C2060 1.490 . S
C2056 H2046 0.930 . S
C2056 C2055 1.400 . S
C2056 C2059 1.386 . S
H2057 C2073 0.930 . S
H2058 C2074 0.931 . S
C2059 H2047 0.929 . S
C2059 C2053 1.390 . S
C2059 C2056 1.386 . S
C2060 C2055 1.490 . S
C2060 C2062 1.395 . S
C2060 C2063 1.403 . S
H2061 C2067 0.930 . S
C2062 H2048 0.930 . S
C2062 C2060 1.395 . S
C2062 C2065 1.403 . S
C2063 C2060 1.403 . S
C2063 C2064 1.524 . S
C2063 C2067 1.400 . S
C2064 H2049 0.960 . S
C2064 H2050 0.960 . S
C2064 H2051 0.960 . S
C2064 C2063 1.524 . S
C2065 C2062 1.403 . S
C2065 C2066 1.392 . S
C2065 C2069 1.495 . S
C2066 C2065 1.392 . S
C2066 C2067 1.385 . S
C2066 C2068 1.478 . S
C2067 H2061 0.930 . S
C2067 C2063 1.400 . S
C2067 C2066 1.385 . S
C2068 C2066 1.478 . S
C2068 C2070 1.381 . S
C2068 C2074 1.383 . S
C2069 C2065 1.495 . S
C2069 H2075 0.959 . S
C2069 H2076 0.961 . S
C2069 H2077 0.960 . S
C2070 C2068 1.381 . S
C2070 C2071 1.394 . S
C2070 H2078 0.930 . S
C2071 C2070 1.394 . S
C2071 C2072 1.383 . S
C2071 H2079 0.929 . S
C2072 C2071 1.383 . S
C2072 C2073 1.377 . S
C2073 H2057 0.930 . S
C2073 C2072 1.377 . S
C2073 C2074 1.379 . S
C2074 H2058 0.931 . S
C2074 C2068 1.383 . S
C2074 C2073 1.379 . S
H2075 C2069 0.959 . S
H2076 C2069 0.961 . S
H2077 C2069 0.960 . S
H2078 C2070 0.930 . S
H2079 C2071 0.929 . S
C380 C177 2.068 . S
C361 C19 2.063 . S
C416 C182 1.472 . S
C397 C24 1.447 . S
C452 C183 1.291 . S
C433 C59 1.266 . S
C469 C69 1.336 . S
C488 C187 1.364 . S
C505 C82 1.446 . S
C524 C190 1.481 . S
C560 C191 1.242 . S
C541 C118 1.265 . S
C577 C132 1.334 . S
C596 C168 1.361 . S
C613 C158 2.065 . S
C632 C184 2.103 . S
C668 C222 1.621 . S
C649 C4 1.530 . S
C685 C29 0.878 . S
C704 C248 0.903 . S
C740 C200 1.440 . S
C721 C44 1.406 . S
C776 C255 1.241 . S
C757 C79 1.230 . S
C793 C98 1.246 . S
C812 C209 1.276 . S
C848 C251 1.332 . S
C829 C112 1.295 . S
C865 C122 1.139 . S
C884 C215 1.183 . S
C901 C152 1.200 . S
C920 C246 1.233 . S
C937 C9 1.193 . S
C956 C254 1.189 . S
C973 C92 0.883 . S
C992 C241 0.867 . S
C1028 C219 1.447 . S
C1009 C102 1.406 . S
C1064 C247 1.255 . S
C1045 C138 1.244 . S
C1081 C142 1.537 . S
C1100 C214 1.611 . S
C1117 C49 1.306 . S
C1136 C232 1.327 . S
C1172 C223 1.206 . S
C1153 C64 1.153 . S
C1189 C39 1.246 . S
C1208 C216 1.232 . S
C1225 C159 2.031 . S
C1244 C278 2.029 . S
C1261 C84 1.417 . S
C1280 C273 1.484 . S
C1316 C287 1.239 . S
C1297 C119 1.238 . S
C1352 C264 1.345 . S
C1333 C129 1.321 . S
C1369 C22 1.404 . S
C1388 C280 1.479 . S
C1424 C279 1.232 . S
C1405 C58 1.243 . S
C1441 C72 1.320 . S
C1460 C283 1.294 . S
C1477 C18 2.034 . S
C1496 C286 2.037 . S
C1513 C144 1.551 . S
C1532 C312 1.647 . S
C1568 C328 0.951 . S
C1549 C89 0.919 . S
C1585 C104 1.427 . S
C1604 C310 1.465 . S
C1621 C139 1.264 . S
C1640 C343 1.260 . S
C1676 C319 1.260 . S
C1657 C38 1.256 . S
C1693 C52 1.337 . S
C1712 C337 1.367 . S
C1748 C315 1.208 . S
C1729 C62 1.142 . S
C1784 C350 1.226 . S
C1765 C12 1.219 . S
C1820 C342 1.241 . S
C1801 C149 1.230 . S
C1837 C32 0.914 . S
C1856 C347 0.930 . S
C1873 C42 1.416 . S
C1892 C318 1.468 . S
C1928 C351 1.286 . S
C1909 C78 1.265 . S
C1945 C2 1.554 . S
C1964 C305 1.645 . S
C1981 C109 1.327 . S
C2000 C344 1.364 . S
C2036 C296 1.207 . S
C2017 C124 1.135 . S
C2072 C311 1.271 . S
C2053 C99 1.245 . S
