# Generated by pormake.
# Topology zzz, (3,6)-cn, num edge types: 1
# Building blocks:
#     Node 0, Type 0, BuildingBlock: OLANEW_clean_sbu_2, # of connection points: 3
#     Node 1, Type 0, BuildingBlock: OLANEW_clean_sbu_2, # of connection points: 3
#     Node 2, Type 0, BuildingBlock: OLANEW_clean_sbu_2, # of connection points: 3
#     Node 3, Type 0, BuildingBlock: OLANEW_clean_sbu_2, # of connection points: 3
#     Node 4, Type 0, BuildingBlock: OLANEW_clean_sbu_2, # of connection points: 3
#     Node 5, Type 0, BuildingBlock: OLANEW_clean_sbu_2, # of connection points: 3
#     Node 6, Type 0, BuildingBlock: OLANEW_clean_sbu_2, # of connection points: 3
#     Node 7, Type 0, BuildingBlock: OLANEW_clean_sbu_2, # of connection points: 3
#     Node 8, Type 1, BuildingBlock: JUFBIX_clean_sbu_0, # of connection points: 6
#     Node 9, Type 1, BuildingBlock: JUFBIX_clean_sbu_0, # of connection points: 6
#     Node 10, Type 1, BuildingBlock: JUFBIX_clean_sbu_0, # of connection points: 6
#     Node 11, Type 1, BuildingBlock: JUFBIX_clean_sbu_0, # of connection points: 6
#     Edge 12, Type (0, 1), BuildingBlock: ZUJKAS_clean_linker_0, # of connection points: 2
#     Edge 13, Type (0, 1), BuildingBlock: ZUJKAS_clean_linker_0, # of connection points: 2
#     Edge 14, Type (0, 1), BuildingBlock: ZUJKAS_clean_linker_0, # of connection points: 2
#     Edge 15, Type (0, 1), BuildingBlock: ZUJKAS_clean_linker_0, # of connection points: 2
#     Edge 16, Type (0, 1), BuildingBlock: ZUJKAS_clean_linker_0, # of connection points: 2
#     Edge 17, Type (0, 1), BuildingBlock: ZUJKAS_clean_linker_0, # of connection points: 2
#     Edge 18, Type (0, 1), BuildingBlock: ZUJKAS_clean_linker_0, # of connection points: 2
#     Edge 19, Type (0, 1), BuildingBlock: ZUJKAS_clean_linker_0, # of connection points: 2
#     Edge 20, Type (0, 1), BuildingBlock: ZUJKAS_clean_linker_0, # of connection points: 2
#     Edge 21, Type (0, 1), BuildingBlock: ZUJKAS_clean_linker_0, # of connection points: 2
#     Edge 22, Type (0, 1), BuildingBlock: ZUJKAS_clean_linker_0, # of connection points: 2
#     Edge 23, Type (0, 1), BuildingBlock: ZUJKAS_clean_linker_0, # of connection points: 2
#     Edge 24, Type (0, 1), BuildingBlock: ZUJKAS_clean_linker_0, # of connection points: 2
#     Edge 25, Type (0, 1), BuildingBlock: ZUJKAS_clean_linker_0, # of connection points: 2
#     Edge 26, Type (0, 1), BuildingBlock: ZUJKAS_clean_linker_0, # of connection points: 2
#     Edge 27, Type (0, 1), BuildingBlock: ZUJKAS_clean_linker_0, # of connection points: 2
#     Edge 28, Type (0, 1), BuildingBlock: ZUJKAS_clean_linker_0, # of connection points: 2
#     Edge 29, Type (0, 1), BuildingBlock: ZUJKAS_clean_linker_0, # of connection points: 2
#     Edge 30, Type (0, 1), BuildingBlock: ZUJKAS_clean_linker_0, # of connection points: 2
#     Edge 31, Type (0, 1), BuildingBlock: ZUJKAS_clean_linker_0, # of connection points: 2
#     Edge 32, Type (0, 1), BuildingBlock: ZUJKAS_clean_linker_0, # of connection points: 2
#     Edge 33, Type (0, 1), BuildingBlock: ZUJKAS_clean_linker_0, # of connection points: 2
#     Edge 34, Type (0, 1), BuildingBlock: ZUJKAS_clean_linker_0, # of connection points: 2
#     Edge 35, Type (0, 1), BuildingBlock: ZUJKAS_clean_linker_0, # of connection points: 2
# Relax obj value: 0.125
# Max RMSD: 0.180
# Mean RMSD: 0.090
data_MOF--net-zzz--node1-OLANEW_clean_sbu_2--node2-JUFBIX_clean_sbu_0--edge1-ZUJKAS_clean_linker_0
_symmetry_space_group_name_H-M    P1
_symmetry_Int_Tables_number       1
_symmetry_cell_setting            triclinic
loop_
_symmetry_equiv_pos_as_xyz
'x, y, z'
_cell_length_a     69.658857
_cell_length_b     68.941154
_cell_length_c     24.416006
_cell_angle_alpha  83.388577
_cell_angle_beta   89.816049
_cell_angle_gamma 91.602898
loop_
_atom_site_label
_atom_site_type_symbol
_atom_site_fract_x
_atom_site_fract_y
_atom_site_fract_z
_atom_type_partial_charge
O0 O 0.78941 0.5795 0.05178 0.0
Cd1 Cd 0.79654 0.58066 0.95323 0.0
O2 O 0.79401 0.56882 0.13863 0.0
Cd3 Cd 0.81073 0.55378 0.20497 0.0
O4 O 0.83058 0.5425 0.2686 0.0
C5 C 0.84853 0.54435 0.25922 0.0
O6 O 0.85456 0.55264 0.21083 0.0
C7 C 0.79901 0.56942 0.08835 0.0
C8 C 0.76444 0.56613 0.90248 0.0
O9 O 0.76648 0.58437 0.90745 0.0
O10 O 0.77793 0.5548 0.92011 0.0
O11 O 0.88999 0.78468 0.03603 0.0
Cd12 Cd 0.87415 0.75405 0.07376 0.0
O13 O 0.8903 0.79548 0.11711 0.0
Cd14 Cd 0.89912 0.81588 0.17536 0.0
O15 O 0.90905 0.83772 0.22774 0.0
C16 C 0.89932 0.84124 0.26942 0.0
O17 O 0.88307 0.83147 0.28103 0.0
C18 C 0.89454 0.79796 0.06599 0.0
C19 C 0.89225 0.72324 0.03228 0.0
O20 O 0.87769 0.73117 0.00788 0.0
O21 O 0.89801 0.72966 0.07682 0.0
O22 O 0.72573 0.94017 0.00741 0.0
Cd23 Cd 0.75452 0.92388 0.04224 0.0
O24 O 0.72517 0.956 0.08037 0.0
Cd25 Cd 0.71034 0.97406 0.13402 0.0
O26 O 0.6903 0.98342 0.19398 0.0
C27 C 0.67674 0.97141 0.21043 0.0
O28 O 0.67557 0.95454 0.19032 0.0
C29 C 0.71799 0.95255 0.03458 0.0
C30 C 0.78701 0.94493 0.00014 0.0
O31 O 0.77918 0.93162 0.97437 0.0
O32 O 0.77956 0.94815 0.04619 0.0
O33 O 0.60777 0.72671 0.99396 0.0
Cd34 Cd 0.62321 0.7568 0.01778 0.0
O35 O 0.59923 0.71884 0.08033 0.0
Cd36 Cd 0.58729 0.69917 0.14965 0.0
O37 O 0.57512 0.67851 0.21606 0.0
C38 C 0.58429 0.66336 0.23339 0.0
O39 O 0.60096 0.66049 0.21075 0.0
C40 C 0.59933 0.7149 0.03067 0.0
C41 C 0.60347 0.78958 0.97382 0.0
O42 O 0.61692 0.78269 0.94647 0.0
O43 O 0.5994 0.78096 0.02199 0.0
O44 O 0.21059 0.43184 0.54062 0.0
Cd45 Cd 0.23956 0.41562 0.51681 0.0
O46 O 0.19599 0.42212 0.4688 0.0
Cd47 Cd 0.17217 0.42271 0.41095 0.0
O48 O 0.14903 0.42867 0.35235 0.0
C49 C 0.14121 0.44519 0.34898 0.0
O50 O 0.14711 0.45797 0.38168 0.0
C51 C 0.19573 0.43142 0.51082 0.0
C52 C 0.27109 0.43451 0.55874 0.0
O53 O 0.26277 0.41974 0.58668 0.0
O54 O 0.26471 0.44008 0.51047 0.0
O55 O 0.10844 0.22794 0.50582 0.0
Cd56 Cd 0.12696 0.25839 0.48487 0.0
O57 O 0.11957 0.21373 0.43658 0.0
Cd58 Cd 0.1189 0.18982 0.3849 0.0
O59 O 0.11276 0.16805 0.32852 0.0
C60 C 0.09705 0.15818 0.33423 0.0
O61 O 0.08534 0.16108 0.37461 0.0
C62 C 0.10882 0.21326 0.47891 0.0
C63 C 0.1086 0.28677 0.53654 0.0
O64 O 0.10526 0.28467 0.48593 0.0
O65 O 0.12102 0.27583 0.56219 0.0
O66 O 0.27911 0.91366 0.62911 0.0
Cd67 Cd 0.24916 0.89875 0.60087 0.0
O68 O 0.28225 0.92908 0.54581 0.0
Cd69 Cd 0.29815 0.94619 0.47843 0.0
O70 O 0.31629 0.95911 0.4099 0.0
C71 C 0.33337 0.96471 0.41938 0.0
O72 O 0.3395 0.96297 0.47049 0.0
C73 C 0.28864 0.92535 0.59454 0.0
C74 C 0.2173 0.91721 0.63737 0.0
O75 O 0.22457 0.9027 0.66696 0.0
O76 O 0.22515 0.92299 0.59055 0.0
O77 O 0.4165 0.29347 0.58967 0.0
Cd78 Cd 0.4099 0.26268 0.55208 0.0
O79 O 0.41768 0.30684 0.50389 0.0
Cd80 Cd 0.42434 0.33041 0.43802 0.0
O81 O 0.4313 0.35441 0.37409 0.0
C82 C 0.43901 0.3507 0.32937 0.0
O83 O 0.44255 0.33247 0.32292 0.0
C84 C 0.41915 0.30854 0.55507 0.0
C85 C 0.42496 0.23062 0.61598 0.0
O86 O 0.43567 0.24201 0.58293 0.0
O87 O 0.40712 0.23443 0.6193 0.0
Co88 Co 0.00642 0.00985 0.81911 0.0
C89 C 0.96773 0.0149 0.79148 0.0
Co90 Co 0.99842 0.00246 0.73629 0.0
C91 C 0.02497 0.02814 0.90751 0.0
C92 C 0.00165 0.00861 0.93572 0.0
N93 N 0.01161 0.0157 0.88996 0.0
N94 N 0.02373 0.02902 0.96246 0.0
C95 C 0.00907 0.01669 0.98021 0.0
H96 H 0.03529 0.03648 0.88042 0.0
H97 H 0.98943 0.99855 0.93652 0.0
C98 C 0.03692 0.99662 0.76449 0.0
N99 N 0.99317 0.99654 0.66557 0.0
C100 C 0.98052 0.98317 0.64926 0.0
C101 C 0.00252 0.004 0.61911 0.0
N102 N 0.98175 0.98187 0.59454 0.0
C103 C 0.99553 0.99508 0.57551 0.0
C104 C 0.01128 0.04099 0.73839 0.0
O105 O 0.03217 0.00246 0.81006 0.0
O106 O 0.02436 0.99578 0.72712 0.0
O107 O 0.00453 0.02872 0.70798 0.0
O108 O 0.01331 0.03584 0.78965 0.0
O109 O 0.97259 0.00891 0.74626 0.0
H110 H 0.01406 0.0149 0.61723 0.0
H111 H 0.97112 0.97405 0.67741 0.0
O112 O 0.98047 0.017 0.82771 0.0
O113 O -0.00044 0.98375 0.84773 0.0
O114 O 0.99223 0.97632 0.76542 0.0
C115 C 0.99342 0.97132 0.81696 0.0
H116 H 0.00361 0.01423 0.02205 0.0
H117 H 0.00041 0.99799 0.53317 0.0
Co118 Co 0.49943 0.00509 0.84278 0.0
C119 C 0.51416 0.97105 0.80872 0.0
Co120 Co 0.50994 0.00813 0.7567 0.0
C121 C 0.47505 0.00532 0.93981 0.0
C122 C 0.50279 0.99374 0.95824 0.0
N123 N 0.49191 0.00157 0.9162 0.0
N124 N 0.4751 0.00026 0.99498 0.0
C125 C 0.49256 0.99299 0.00656 0.0
H126 H 0.46298 0.01156 0.91696 0.0
H127 H 0.51714 0.9885 0.9539 0.0
C128 C 0.49534 0.04218 0.79072 0.0
N129 N 0.51764 0.01153 0.68357 0.0
C130 C 0.53405 0.00603 0.661 0.0
C131 C 0.50784 0.02066 0.64107 0.0
N132 N 0.53493 0.01148 0.60606 0.0
C133 C 0.51842 0.02067 0.59346 0.0
C134 C 0.47117 0.99705 0.76968 0.0
O135 O 0.49275 0.03186 0.83691 0.0
O136 O 0.50269 0.03455 0.75089 0.0
O137 O 0.48485 0.00071 0.73516 0.0
O138 O 0.47432 0.99816 0.82049 0.0
O139 O 0.51714 0.98163 0.76319 0.0
H140 H 0.49391 0.02698 0.64456 0.0
H141 H 0.54527 0.9985 0.68469 0.0
O142 O 0.50624 0.97842 0.84817 0.0
O143 O 0.52463 0.01184 0.86423 0.0
O144 O 0.53507 0.01536 0.77888 0.0
C145 C 0.53837 0.01549 0.82998 0.0
H146 H 0.49738 0.98691 0.04687 0.0
H147 H 0.51416 0.02679 0.55265 0.0
Co148 Co 0.51851 0.50782 0.79358 0.0
C149 C 0.494 0.49462 0.88036 0.0
Co150 Co 0.49002 0.52093 0.78664 0.0
C151 C 0.5595 0.50767 0.79553 0.0
C152 C 0.54743 0.47883 0.81528 0.0
N153 N 0.54266 0.49753 0.80083 0.0
N154 N 0.57468 0.49616 0.80674 0.0
C155 C 0.56712 0.47794 0.81895 0.0
H156 H 0.56049 0.5233 0.78424 0.0
H157 H 0.53722 0.46674 0.824 0.0
C158 C 0.51462 0.53403 0.69978 0.0
N159 N 0.46583 0.53114 0.77905 0.0
C160 C 0.44917 0.52069 0.78092 0.0
C161 C 0.46095 0.54972 0.7631 0.0
N162 N 0.43409 0.53183 0.76555 0.0
C163 C 0.44141 0.55017 0.75438 0.0
C164 C 0.51562 0.54255 0.84162 0.0
O165 O 0.52607 0.52233 0.72587 0.0
O166 O 0.49785 0.53564 0.71911 0.0
O167 O 0.49832 0.54185 0.82548 0.0
O168 O 0.52677 0.52903 0.83214 0.0
O169 O 0.48235 0.50612 0.85425 0.0
H170 H 0.47107 0.56194 0.75535 0.0
H171 H 0.44832 0.50492 0.78941 0.0
O172 O 0.51083 0.49335 0.86113 0.0
O173 O 0.51009 0.48671 0.75529 0.0
O174 O 0.48186 0.49986 0.74769 0.0
C175 C 0.49282 0.48613 0.73893 0.0
H176 H 0.57513 0.46499 0.83172 0.0
H177 H 0.43337 0.56283 0.73876 0.0
Co178 Co 0.00012 0.51444 0.80168 0.0
C179 C 0.01774 0.49161 0.88666 0.0
Co180 Co 0.99362 0.48289 0.80229 0.0
C181 C 0.98952 0.55383 0.80774 0.0
C182 C 0.01996 0.55104 0.81382 0.0
N183 N 0.00362 0.54097 0.8051 0.0
N184 N 0.99624 0.57145 0.81937 0.0
C185 C 0.01548 0.56979 0.82262 0.0
H186 H 0.97449 0.55 0.80346 0.0
H187 H 0.03407 0.54484 0.8168 0.0
C188 C 0.97589 0.50558 0.71749 0.0
N189 N 0.99019 0.45631 0.79894 0.0
C190 C 0.00441 0.44389 0.79248 0.0
C191 C 0.97384 0.4457 0.79439 0.0
N192 N 0.99772 0.42614 0.78243 0.0
C193 C 0.97843 0.42707 0.78428 0.0
C194 C 0.9676 0.49953 0.86395 0.0
O195 O 0.98453 0.51954 0.73793 0.0
O196 O 0.97786 0.48818 0.73982 0.0
O197 O 0.97174 0.48308 0.84905 0.0
O198 O 0.9781 0.51443 0.84761 0.0
O199 O 0.00946 0.47772 0.86504 0.0
H200 H 0.95955 0.45143 0.79512 0.0
H201 H 0.0195 0.44807 0.79271 0.0
O202 O 0.01554 0.5091 0.86528 0.0
O203 O 0.0222 0.51424 0.756 0.0
O204 O 0.01543 0.48309 0.75514 0.0
C205 C 0.02612 0.49794 0.73983 0.0
H206 H 0.02552 0.58087 0.83404 0.0
H207 H 0.96842 0.4156 0.77523 0.0
H208 H 0.19705 0.90785 0.73339 0.0
H209 H 0.16768 0.92264 0.76206 0.0
H210 H 0.16918 0.96272 0.61281 0.0
H211 H 0.19865 0.94817 0.58393 0.0
H212 H 0.16034 0.98004 0.7113 0.0
H213 H 0.11537 0.9136 0.68738 0.0
H214 H 0.136 0.90983 0.73093 0.0
H215 H 0.13925 0.91736 0.65852 0.0
C216 C 0.1912 0.91987 0.70675 0.0
C217 C 0.20009 0.92673 0.65614 0.0
C218 C 0.1744 0.92826 0.72317 0.0
C219 C 0.16618 0.94359 0.6892 0.0
C220 C 0.17531 0.95086 0.6395 0.0
H221 H 0.05106 0.98362 0.67161 0.0
H222 H 0.08306 0.9717 0.65667 0.0
C223 C 0.1921 0.94249 0.62301 0.0
C224 C 0.14767 0.95159 0.70431 0.0
H225 H 0.09994 0.93987 0.72098 0.0
C226 C 0.14712 0.97128 0.71374 0.0
C227 C 0.13048 0.94011 0.70685 0.0
C228 C 0.13015 0.9191 0.69499 0.0
C229 C 0.12973 0.97983 0.72549 0.0
C230 C 0.11258 0.9683 0.72822 0.0
C231 C 0.11317 0.9486 0.71916 0.0
C232 C 0.09363 0.97659 0.73729 0.0
C233 C 0.12973 0.00122 0.73327 0.0
C234 C 0.08901 0.98335 0.78764 0.0
C235 C 0.07066 0.9902 0.79642 0.0
C236 C 0.05665 0.9903 0.755 0.0
C237 C 0.06148 0.98372 0.70443 0.0
C238 C 0.07976 0.97689 0.69577 0.0
H239 H 0.14348 0.00885 0.71963 0.0
H240 H 0.11778 0.00858 0.71002 0.0
H241 H 0.12757 0.00273 0.77761 0.0
H242 H 0.09946 0.98296 0.82046 0.0
H243 H 0.06736 0.99512 0.83585 0.0
H244 H 0.40618 0.19618 0.65007 0.0
H245 H 0.42001 0.16615 0.6936 0.0
H246 H 0.47526 0.19586 0.69907 0.0
H247 H 0.46167 0.22557 0.65194 0.0
H248 H 0.48056 0.16402 0.66331 0.0
H249 H 0.43363 0.1461 0.8448 0.0
H250 H 0.41912 0.14854 0.78418 0.0
H251 H 0.43285 0.16937 0.80288 0.0
C252 C 0.42121 0.19635 0.6613 0.0
C253 C 0.43288 0.21315 0.64763 0.0
C254 C 0.42909 0.17921 0.68678 0.0
C255 C 0.44864 0.17874 0.70093 0.0
C256 C 0.46014 0.19579 0.6888 0.0
H257 H 0.48989 0.0674 0.86823 0.0
H258 H 0.48062 0.10169 0.85155 0.0
C259 C 0.45238 0.21277 0.6619 0.0
C260 C 0.45745 0.16002 0.72299 0.0
H261 H 0.4499 0.11867 0.81265 0.0
C262 C 0.474 0.15432 0.69673 0.0
C263 C 0.44933 0.1474 0.7675 0.0
C264 C 0.4329 0.15332 0.80178 0.0
C265 C 0.48201 0.13605 0.71163 0.0
C266 C 0.47268 0.12265 0.75212 0.0
C267 C 0.45681 0.12873 0.78066 0.0
C268 C 0.47852 0.102 0.76294 0.0
C269 C 0.5004 0.13141 0.68364 0.0
C270 C 0.48004 0.09066 0.71899 0.0
C271 C 0.48569 0.07134 0.72828 0.0
C272 C 0.48938 0.06268 0.782 0.0
C273 C 0.48721 0.07375 0.82638 0.0
C274 C 0.48192 0.09331 0.81688 0.0
H275 H 0.50925 0.14489 0.67149 0.0
H276 H 0.50913 0.12107 0.7107 0.0
H277 H 0.49691 0.12479 0.64541 0.0
H278 H 0.47674 0.09672 0.6773 0.0
H279 H 0.48687 0.06307 0.69333 0.0
H280 H 0.28932 0.42484 0.65662 0.0
H281 H 0.31569 0.44283 0.69594 0.0
H282 H 0.31588 0.48598 0.55331 0.0
H283 H 0.2895 0.46815 0.51359 0.0
H284 H 0.35281 0.45298 0.64498 0.0
H285 H 0.31224 0.51796 0.68798 0.0
H286 H 0.30053 0.49504 0.67679 0.0
H287 H 0.31002 0.5111 0.61937 0.0
C288 C 0.29495 0.43817 0.63361 0.0
C289 C 0.2873 0.4451 0.58203 0.0
C290 C 0.30998 0.44842 0.65617 0.0
C291 C 0.31748 0.46584 0.62783 0.0
C292 C 0.31003 0.47272 0.57618 0.0
H293 H 0.41089 0.54626 0.6827 0.0
H294 H 0.38148 0.53058 0.65223 0.0
C295 C 0.29505 0.46244 0.55343 0.0
C296 C 0.33355 0.47647 0.65155 0.0
H297 H 0.34592 0.51936 0.70135 0.0
C298 C 0.35132 0.46744 0.65765 0.0
C299 C 0.33149 0.49536 0.6676 0.0
C300 C 0.31252 0.50545 0.6631 0.0
C301 C 0.36726 0.47697 0.67852 0.0
C302 C 0.36519 0.49583 0.69502 0.0
C303 C 0.3474 0.50487 0.68893 0.0
C304 C 0.38152 0.50652 0.71748 0.0
C305 C 0.38631 0.46697 0.68124 0.0
C306 C 0.39076 0.49862 0.76557 0.0
C307 C 0.40754 0.50752 0.78296 0.0
C308 C 0.41525 0.52459 0.75291 0.0
C309 C 0.40523 0.5332 0.70688 0.0
C310 C 0.3885 0.5242 0.68927 0.0
H311 H 0.38662 0.45509 0.65413 0.0
H312 H 0.39831 0.47755 0.66907 0.0
H313 H 0.38882 0.46037 0.72416 0.0
H314 H 0.3853 0.48524 0.78872 0.0
H315 H 0.41482 0.50078 0.81908 0.0
H316 H 0.08601 0.31596 0.49039 0.0
H317 H 0.06747 0.33862 0.53796 0.0
H318 H 0.08756 0.31153 0.69463 0.0
H319 H 0.10665 0.28927 0.64725 0.0
H320 H 0.03853 0.33135 0.61044 0.0
H321 H 0.09885 0.36817 0.70896 0.0
H322 H 0.10258 0.35237 0.65617 0.0
H323 H 0.09799 0.34216 0.72634 0.0
C324 C 0.08663 0.31496 0.53494 0.0
C325 C 0.09791 0.30093 0.56505 0.0
C326 C 0.07599 0.32787 0.56209 0.0
C327 C 0.07633 0.32695 0.61982 0.0
C328 C 0.08745 0.31285 0.65001 0.0
H329 H 0.99029 0.38708 0.79907 0.0
H330 H 0.00908 0.36149 0.76378 0.0
C331 C 0.09829 0.30008 0.62286 0.0
C332 C 0.06464 0.34048 0.64823 0.0
H333 H 0.06744 0.37557 0.73595 0.0
C334 C 0.04483 0.34104 0.63789 0.0
C335 C 0.07294 0.35319 0.68371 0.0
C336 C 0.09428 0.35413 0.6941 0.0
C337 C 0.03311 0.35412 0.66149 0.0
C338 C 0.04134 0.36659 0.69774 0.0
C339 C 0.06111 0.36585 0.70862 0.0
C340 C 0.03011 0.38164 0.72132 0.0
C341 C 0.01219 0.35495 0.64565 0.0
C342 C 0.03601 0.40133 0.71071 0.0
C343 C 0.02553 0.4158 0.73147 0.0
C344 C 0.00884 0.41095 0.76322 0.0
C345 C 0.00299 0.39121 0.77433 0.0
C346 C 0.01366 0.37664 0.75399 0.0
H347 H 0.00934 0.34807 0.60739 0.0
H348 H 0.00337 0.34692 0.67928 0.0
H349 H 0.00742 0.37027 0.63928 0.0
H350 H 0.0486 0.40556 0.68549 0.0
H351 H 0.03026 0.43087 0.72135 0.0
H352 H 0.80486 0.94275 0.9013 0.0
H353 H 0.83388 0.96064 0.86515 0.0
H354 H 0.83699 0.9905 0.01074 0.0
H355 H 0.80799 0.97265 0.04747 0.0
H356 H 0.84191 0.00331 0.84719 0.0
H357 H 0.88948 0.9628 0.00075 0.0
H358 H 0.8656 0.95398 0.98632 0.0
H359 H 0.86882 0.97373 0.02758 0.0
C360 C 0.81167 0.95316 0.92562 0.0
C361 C 0.80421 0.95617 0.97747 0.0
C362 C 0.82819 0.96341 0.90477 0.0
C363 C 0.83759 0.97675 0.9355 0.0
C364 C 0.82999 0.98012 0.9867 0.0
H365 H 0.95243 0.02807 0.88308 0.0
H366 H 0.91933 0.02317 0.91628 0.0
C367 C 0.81343 0.96992 0.00755 0.0
C368 C 0.85578 0.98649 0.9148 0.0
H369 H 0.90406 0.98682 0.937 0.0
C370 C 0.85552 -0.00014 0.86692 0.0
C371 C 0.87343 0.98194 0.94085 0.0
C372 C 0.87451 0.96724 0.99152 0.0
C373 C 0.87257 0.00874 0.84408 0.0
C374 C 0.8903 0.00378 0.86931 0.0
C375 C 0.89045 0.99073 0.91791 0.0
C376 C 0.90905 0.0106 0.84424 0.0
C377 C 0.87143 0.02334 0.79331 0.0
C378 C 0.9141 0.00579 0.79186 0.0
C379 C 0.93297 0.00872 0.77255 0.0
C380 C 0.9472 0.01624 0.8057 0.0
C381 C 0.94183 0.02221 0.85659 0.0
C382 C 0.92292 0.01939 0.87569 0.0
H383 H 0.85723 0.03033 0.79034 0.0
H384 H 0.88285 0.03492 0.79303 0.0
H385 H 0.87328 0.01569 0.75615 0.0
H386 H 0.90377 0.9986 0.76735 0.0
H387 H 0.93665 0.00385 0.7333 0.0
H388 H 0.57498 0.80804 0.02285 0.0
H389 H 0.55842 0.83741 0.98565 0.0
H390 H 0.59164 0.84002 0.8355 0.0
H391 H 0.60851 0.81076 0.87269 0.0
H392 H 0.59084 0.87532 0.87837 0.0
H393 H 0.51712 0.84369 0.86762 0.0
H394 H 0.52778 0.83864 0.93437 0.0
H395 H 0.53804 0.82878 0.87615 0.0
C396 C 0.57869 0.81477 0.98176 0.0
C397 C 0.59305 0.80704 0.9507 0.0
C398 C 0.5691 0.83148 0.9604 0.0
C399 C 0.57356 0.84069 0.90743 0.0
C400 C 0.58788 0.83303 0.8763 0.0
H401 H 0.53504 0.95185 0.73749 0.0
H402 H 0.54893 0.91952 0.7561 0.0
C403 C 0.59751 0.81632 0.89765 0.0
C404 C 0.56401 0.85893 0.88591 0.0
H405 H 0.52006 0.87857 0.85959 0.0
C406 C 0.57539 0.876 0.87354 0.0
C407 C 0.54385 0.85974 0.87964 0.0
C408 C 0.53099 0.8417 0.88962 0.0
C409 C 0.56709 0.89405 0.85717 0.0
C410 C 0.54689 0.89494 0.85229 0.0
C411 C 0.53554 0.8778 0.86343 0.0
C412 C 0.53727 0.91374 0.8388 0.0
C413 C 0.57991 0.91214 0.84734 0.0
C414 C 0.5256 0.92085 0.87844 0.0
C415 C 0.5176 0.93924 0.86794 0.0
C416 C 0.52105 0.95083 0.8174 0.0
C417 C 0.53215 0.94332 0.77688 0.0
C418 C 0.54018 0.92491 0.78752 0.0
H419 H 0.59466 0.90954 0.86318 0.0
H420 H 0.58095 0.91685 0.80239 0.0
H421 H 0.57382 0.9243 0.86735 0.0
H422 H 0.52313 0.9124 0.91819 0.0
H423 H 0.50908 0.94455 0.89999 0.0
H424 H 0.75586 0.5283 0.8853 0.0
H425 H 0.72464 0.51476 0.86007 0.0
H426 H 0.70114 0.57228 0.8465 0.0
H427 H 0.7322 0.58599 0.87142 0.0
H428 H 0.68224 0.54001 0.92407 0.0
H429 H 0.69294 0.52209 0.70942 0.0
H430 H 0.71134 0.5158 0.75957 0.0
H431 H 0.70706 0.54099 0.7374 0.0
C432 C 0.74414 0.53812 0.87599 0.0
C433 C 0.74646 0.55821 0.88065 0.0
C434 C 0.72637 0.53036 0.86141 0.0
C435 C 0.71071 0.54257 0.85126 0.0
C436 C 0.71314 0.56269 0.85396 0.0
H437 H 0.58856 0.53235 0.82203 0.0
H438 H 0.62199 0.54254 0.83052 0.0
C439 C 0.73089 0.57047 0.86822 0.0
C440 C 0.69132 0.53424 0.84335 0.0
H441 H 0.66259 0.51417 0.7506 0.0
C442 C 0.67792 0.53433 0.88622 0.0
C443 C 0.68594 0.52662 0.79421 0.0
C444 C 0.69997 0.52636 0.74719 0.0
C445 C 0.65908 0.52716 0.88108 0.0
C446 C 0.65342 0.5202 0.83112 0.0
C447 C 0.66698 0.51964 0.78868 0.0
C448 C 0.63327 0.51413 0.82181 0.0
C449 C 0.64548 0.52697 0.92941 0.0
C450 C 0.62858 0.49494 0.81184 0.0
C451 C 0.60938 0.48908 0.80601 0.0
C452 C 0.59457 0.50235 0.80984 0.0
C453 C 0.59948 0.52172 0.81828 0.0
C454 C 0.61862 0.52756 0.82384 0.0
H455 H 0.65335 0.5272 0.96885 0.0
H456 H 0.63661 0.54016 0.92357 0.0
H457 H 0.63571 0.51387 0.93286 0.0
H458 H 0.63974 0.48442 0.80966 0.0
H459 H 0.60616 0.47417 0.79865 0.0
H460 H 0.88242 0.70518 0.94189 0.0
H461 H 0.89951 0.67932 0.90312 0.0
H462 H 0.94231 0.68015 0.03014 0.0
H463 H 0.92516 0.7057 0.0698 0.0
H464 H 0.93642 0.6796 0.86214 0.0
H465 H 0.92672 0.62256 0.04039 0.0
H466 H 0.91329 0.64471 0.03321 0.0
H467 H 0.93753 0.64488 0.0584 0.0
C468 C 0.89541 0.69977 0.9618 0.0
C469 C 0.90236 0.70739 0.00917 0.0
C470 C 0.90517 0.68503 0.9395 0.0
C471 C 0.92202 0.67763 0.96421 0.0
C472 C 0.9291 0.68536 0.01113 0.0
H473 H 0.00793 0.60943 0.81935 0.0
H474 H 0.9897 0.63566 0.85205 0.0
C475 C 0.91932 0.70002 0.0336 0.0
C476 C 0.93236 0.66205 0.94038 0.0
H477 H 0.94874 0.61591 0.97083 0.0
C478 C 0.93906 0.66563 0.88575 0.0
C479 C 0.93554 0.64376 0.97107 0.0
C480 C 0.92774 0.63862 0.02883 0.0
C481 C 0.94914 0.65149 0.86123 0.0
C482 C 0.95293 0.63347 0.89262 0.0
C483 C 0.94598 0.62981 0.94697 0.0
C484 C 0.96378 0.61798 0.86991 0.0
C485 C 0.95533 0.65585 0.8017 0.0
C486 C 0.9554 0.59926 0.86985 0.0
C487 C 0.96587 0.58416 0.85216 0.0
C488 C 0.98503 0.58743 0.83402 0.0
C489 C 0.99329 0.60632 0.83329 0.0
C490 C 0.9828 0.62142 0.85137 0.0
H491 H 0.94682 0.66766 0.77953 0.0
H492 H 0.97065 0.66078 0.7999 0.0
H493 H 0.95385 0.64265 0.7798 0.0
H494 H 0.94078 0.59624 0.88433 0.0
H495 H 0.95902 0.56982 0.85448 0.0
H496 H 0.07207 0.21227 0.51641 0.0
H497 H 0.05305 0.18363 0.55596 0.0
H498 H 0.10014 0.14659 0.52725 0.0
H499 H 0.11881 0.17514 0.48531 0.0
H500 H 0.06781 0.12908 0.50671 0.0
H501 H 0.06035 0.15784 0.70807 0.0
H502 H 0.05012 0.17363 0.65305 0.0
H503 H 0.07559 0.16967 0.65373 0.0
C504 C 0.07822 0.19795 0.51804 0.0
C505 C 0.09683 0.19583 0.49777 0.0
C506 C 0.06744 0.18164 0.54111 0.0
C507 C 0.07537 0.16301 0.54612 0.0
C508 C 0.09375 0.16082 0.52414 0.0
H509 H 0.03856 0.06466 0.77823 0.0
H510 H 0.05338 0.09446 0.73033 0.0
C511 C 0.10438 0.1771 0.49994 0.0
C512 C 0.06471 0.14587 0.57516 0.0
H513 H 0.04202 0.1291 0.69629 0.0
C514 C 0.06222 0.12906 0.54824 0.0
C515 C 0.05771 0.1457 0.62979 0.0
C516 C 0.06125 0.1626 0.66305 0.0
C517 C 0.05296 0.11211 0.57429 0.0
C518 C 0.04522 0.11224 0.62801 0.0
C519 C 0.0477 0.12906 0.65489 0.0
C520 C 0.03531 0.09482 0.65815 0.0
C521 C 0.05225 0.09407 0.54458 0.0
C522 C 0.0198 0.08543 0.63444 0.0
C523 C 0.01159 0.06817 0.66128 0.0
C524 C 0.01833 0.06035 0.71312 0.0
C525 C 0.03304 0.0704 0.73837 0.0
C526 C 0.04154 0.0874 0.71094 0.0
H527 H 0.06369 0.0946 0.51258 0.0
H528 H 0.05389 0.08061 0.57368 0.0
H529 H 0.03822 0.09309 0.52354 0.0
H530 H 0.01425 0.09124 0.59473 0.0
H531 H 0.00012 0.06082 0.64116 0.0
H532 H 0.30449 0.96156 0.5607 0.0
H533 H 0.3356 0.97494 0.58735 0.0
H534 H 0.34515 0.92196 0.6947 0.0
H535 H 0.31429 0.90833 0.66722 0.0
H536 H 0.34862 0.98085 0.69451 0.0
H537 H 0.39398 0.9293 0.59696 0.0
H538 H 0.36903 0.93275 0.57968 0.0
H539 H 0.37544 0.91774 0.64166 0.0
C540 C 0.31342 0.9526 0.58895 0.0
C541 C 0.30725 0.93369 0.61068 0.0
C542 C 0.33106 0.96035 0.60468 0.0
C543 C 0.3428 0.94928 0.64214 0.0
C544 C 0.33646 0.93057 0.66484 0.0
H545 H 0.4392 0.986 0.8325 0.0
H546 H 0.40775 0.97547 0.8005 0.0
C547 C 0.31881 0.92286 0.64936 0.0
C548 C 0.36159 0.95733 0.65825 0.0
H549 H 0.40966 0.94918 0.65741 0.0
C550 C 0.362 0.97402 0.68622 0.0
C551 C 0.37899 0.94852 0.64661 0.0
C552 C 0.37945 0.93119 0.61413 0.0
C553 C 0.37939 0.98186 0.70413 0.0
C554 C 0.39673 0.97256 0.69445 0.0
C555 C 0.39633 0.95616 0.66529 0.0
C556 C 0.4155 0.97961 0.71393 0.0
C557 C 0.37906 0.00014 0.73264 0.0
C558 C 0.43038 0.98509 0.67596 0.0
C559 C 0.44839 0.99093 0.6941 0.0
C560 C 0.4519 0.99133 0.75066 0.0
C561 C 0.43694 0.98593 0.78865 0.0
C562 C 0.41892 0.98003 0.77042 0.0
H563 H 0.36569 0.00829 0.72352 0.0
H564 H 0.37972 0.99606 0.77789 0.0
H565 H 0.39159 0.00997 0.72007 0.0
H566 H 0.42805 0.98478 0.6322 0.0
H567 H 0.45959 0.99502 0.66373 0.0
H568 H 0.41012 0.34539 0.51021 0.0
H569 H 0.42222 0.37645 0.53806 0.0
H570 H 0.45248 0.34533 0.67316 0.0
H571 H 0.44084 0.31418 0.64458 0.0
H572 H 0.43089 0.37814 0.70012 0.0
H573 H 0.47923 0.39667 0.51867 0.0
H574 H 0.45471 0.39047 0.50364 0.0
H575 H 0.46967 0.37223 0.53844 0.0
C576 C 0.41971 0.34515 0.54503 0.0
C577 C 0.4251 0.32737 0.57407 0.0
C578 C 0.42645 0.36289 0.5612 0.0
C579 C 0.43856 0.36312 0.60691 0.0
C580 C 0.44328 0.34542 0.63743 0.0
H581 H 0.51211 0.45413 0.71439 0.0
H582 H 0.49846 0.42471 0.68029 0.0
C583 C 0.4366 0.32767 0.62116 0.0
C584 C 0.44634 0.3818 0.623 0.0
H585 H 0.47675 0.42039 0.58083 0.0
C586 C 0.44088 0.38742 0.67407 0.0
C587 C 0.4595 0.39372 0.58899 0.0
C588 C 0.46629 0.38798 0.53452 0.0
C589 C 0.44816 0.40478 0.69199 0.0
C590 C 0.46112 0.41683 0.65767 0.0
C591 C 0.46669 0.41115 0.60676 0.0
C592 C 0.46945 0.43513 0.67481 0.0
C593 C 0.44222 0.40993 0.74791 0.0
C594 C 0.4577 0.45087 0.68162 0.0
C595 C 0.46543 0.4677 0.70088 0.0
C596 C 0.48508 0.46908 0.71364 0.0
C597 C 0.49693 0.45352 0.70503 0.0
C598 C 0.48917 0.43671 0.68558 0.0
H599 H 0.4354 0.39726 0.77373 0.0
H600 H 0.45479 0.4153 0.77026 0.0
H601 H 0.43169 0.42178 0.74256 0.0
H602 H 0.44249 0.45002 0.67273 0.0
H603 H 0.45591 0.47944 0.70691 0.0
H604 H 0.15808 0.42014 0.50231 0.0
H605 H 0.12987 0.43713 0.52933 0.0
H606 H 0.16652 0.4832 0.58013 0.0
H607 H 0.19485 0.46613 0.55329 0.0
H608 H 0.14091 0.47013 0.65808 0.0
H609 H 0.1027 0.48455 0.45984 0.0
H610 H 0.10879 0.45939 0.47457 0.0
H611 H 0.12759 0.47791 0.46369 0.0
C612 C 0.16009 0.43418 0.51762 0.0
C613 C 0.1786 0.44205 0.52458 0.0
C614 C 0.14396 0.44388 0.53311 0.0
C615 C 0.14605 0.4617 0.55547 0.0
C616 C 0.16456 0.46959 0.56235 0.0
H617 H 0.05663 0.52374 0.7171 0.0
H618 H 0.0863 0.51808 0.6673 0.0
C619 C 0.18071 0.45982 0.5472 0.0
C620 C 0.12904 0.47105 0.57649 0.0
H621 H 0.08378 0.48575 0.54217 0.0
C622 C 0.12856 0.47392 0.63248 0.0
C623 C 0.11296 0.47603 0.54298 0.0
C624 C 0.11308 0.47451 0.48181 0.0
C625 C 0.11208 0.48064 0.65656 0.0
C626 C 0.09572 0.48472 0.62363 0.0
C627 C 0.09639 0.48257 0.56722 0.0
C628 C 0.07726 0.48933 0.64844 0.0
C629 C 0.11191 0.48239 0.71761 0.0
C630 C 0.06229 0.47524 0.65288 0.0
C631 C 0.04547 0.47837 0.68126 0.0
C632 C 0.04325 0.49572 0.70549 0.0
C633 C 0.05795 0.51022 0.69895 0.0
C634 C 0.07489 0.507 0.67071 0.0
H635 H 0.12495 0.47633 0.7385 0.0
H636 H 0.11118 0.49802 0.72413 0.0
H637 H 0.09904 0.47466 0.73746 0.0
H638 H 0.06388 0.46151 0.63594 0.0
H639 H 0.03434 0.46699 0.6851 0.0
H640 H 0.92093 0.80024 0.98331 0.0
H641 H 0.93904 0.82922 0.94185 0.0
H642 H 0.91056 0.86435 0.05082 0.0
H643 H 0.89193 0.83553 0.09117 0.0
H644 H 0.91157 0.88058 0.93984 0.0
H645 H 0.98381 0.85757 0.01243 0.0
H646 H 0.97082 0.83996 0.97696 0.0
H647 H 0.96189 0.84612 0.04171 0.0
C648 C 0.91858 0.81414 0.99854 0.0
C649 C 0.90541 0.81555 0.04152 0.0
C650 C 0.92903 0.83063 0.97513 0.0
C651 C 0.92645 0.84881 0.99417 0.0
C652 C 0.91298 0.85036 0.03622 0.0
H653 H 0.99433 0.95603 0.92523 0.0
H654 H 0.97857 0.92581 0.96748 0.0
C655 C 0.90254 0.83385 0.05973 0.0
C656 C 0.93733 0.86634 0.96887 0.0
H657 H 0.9827 0.88579 0.94679 0.0
C658 C 0.92711 0.88176 0.94143 0.0
C659 C 0.95759 0.86787 0.97158 0.0
C660 C 0.96921 0.85209 0.00266 0.0
C661 C 0.93666 0.8986 0.91578 0.0
C662 C 0.95695 0.89987 0.91708 0.0
C663 C 0.96716 0.88461 0.94532 0.0
C664 C 0.96774 0.91725 0.89064 0.0
C665 C 0.92496 0.91502 0.88821 0.0
C666 C 0.96733 0.92208 0.83327 0.0
C667 C 0.97637 0.9393 0.8089 0.0
C668 C 0.98598 0.95196 0.84161 0.0
C669 C 0.98702 0.94663 0.89888 0.0
C670 C 0.97802 0.92938 0.92313 0.0
H671 H 0.90963 0.91357 0.9011 0.0
H672 H 0.9308 0.92939 0.89783 0.0
H673 H 0.92566 0.91487 0.84285 0.0
H674 H 0.95969 0.91271 0.80747 0.0
H675 H 0.97533 0.94296 0.76468 0.0
H676 H 0.68718 0.93657 0.98674 0.0
H677 H 0.65878 0.95324 0.94897 0.0
H678 H 0.6822 0.00797 0.99292 0.0
H679 H 0.71009 0.99101 0.03369 0.0
H680 H 0.64657 0.00661 0.01446 0.0
H681 H 0.65346 0.98491 0.80544 0.0
H682 H 0.65183 0.96343 0.85407 0.0
H683 H 0.67199 0.98035 0.85628 0.0
C684 C 0.68618 0.95215 0.98838 0.0
C685 C 0.70069 0.96253 0.0132 0.0
C686 C 0.67008 0.96173 0.96621 0.0
C687 C 0.66857 0.98201 0.96644 0.0
C688 C 0.68305 0.99235 0.99184 0.0
H689 H 0.57098 0.02808 0.77146 0.0
H690 H 0.60421 0.02529 0.8035 0.0
C691 C 0.69893 0.98266 0.01531 0.0
C692 C 0.65155 0.99222 0.94201 0.0
H693 H 0.62171 0.99433 0.83118 0.0
C694 C 0.64133 0.00419 0.97394 0.0
C695 C 0.64497 0.98975 0.88835 0.0
C696 C 0.65631 0.97911 0.84893 0.0
C697 C 0.62413 0.01269 0.95515 0.0
C698 C 0.61645 0.00835 0.90416 0.0
C699 C 0.62731 0.99743 0.87076 0.0
C700 C 0.59654 0.0133 0.88692 0.0
C701 C 0.61446 0.02618 0.99043 0.0
C702 C 0.58114 0.00794 0.92325 0.0
C703 C 0.56224 0.01002 0.90546 0.0
C704 C 0.55826 0.01689 0.85035 0.0
C705 C 0.57361 0.02278 0.81421 0.0
C706 C 0.5926 0.02112 0.83246 0.0
H707 H 0.62527 0.03438 0.01277 0.0
H708 H 0.60539 0.03684 0.96558 0.0
H709 H 0.60533 0.0174 0.02196 0.0
H710 H 0.58364 0.0012 0.96477 0.0
H711 H 0.55078 0.0051 0.93424 0.0
H712 H 0.61065 0.69348 0.95022 0.0
H713 H 0.59517 0.66378 0.92278 0.0
H714 H 0.55163 0.66591 0.0477 0.0
H715 H 0.56672 0.69589 0.07431 0.0
H716 H 0.56823 0.62792 0.0431 0.0
H717 H 0.54321 0.66223 0.83974 0.0
H718 H 0.56831 0.66614 0.85291 0.0
H719 H 0.55067 0.67634 0.89426 0.0
C720 C 0.59778 0.6876 0.97186 0.0
C721 C 0.59015 0.69673 0.01532 0.0
C722 C 0.58896 0.67068 0.95611 0.0
C723 C 0.57225 0.66273 0.98316 0.0
C724 C 0.56462 0.67176 0.02667 0.0
H725 H 0.49631 0.57497 0.86236 0.0
H726 H 0.50927 0.6037 0.9014 0.0
C727 C 0.5734 0.68874 0.04232 0.0
C728 C 0.56268 0.64506 0.96567 0.0
H729 H 0.54012 0.62769 0.85666 0.0
C730 C 0.56199 0.62785 0.00247 0.0
C731 C 0.55436 0.64515 0.91292 0.0
C732 C 0.55398 0.66348 0.87273 0.0
C733 C 0.55361 0.61051 0.98725 0.0
C734 C 0.5459 0.61043 0.93376 0.0
C735 C 0.54616 0.62778 0.89753 0.0
C736 C 0.53779 0.59245 0.91397 0.0
C737 C 0.55297 0.59245 0.02855 0.0
C738 C 0.54956 0.57663 0.90819 0.0
C739 C 0.54224 0.5602 0.88585 0.0
C740 C 0.523 0.55935 0.86869 0.0
C741 C 0.51117 0.57513 0.87532 0.0
C742 C 0.51854 0.59157 0.89754 0.0
H743 H 0.55493 0.5961 0.07138 0.0
H744 H 0.53914 0.5842 0.02623 0.0
H745 H 0.56473 0.58278 0.01923 0.0
H746 H 0.56456 0.57719 0.91966 0.0
H747 H 0.55176 0.54835 0.88105 0.0
H748 H 0.81003 0.5329 0.12974 0.0
H749 H 0.8381 0.51546 0.10217 0.0
H750 H 0.85352 0.56436 0.98225 0.0
H751 H 0.8259 0.58204 0.01076 0.0
H752 H 0.85189 0.52521 0.94347 0.0
H753 H 0.89632 0.52988 0.13135 0.0
H754 H 0.87151 0.52198 0.13993 0.0
H755 H 0.87738 0.54669 0.11262 0.0
C756 C 0.81962 0.54003 0.09821 0.0
C757 C 0.81588 0.55884 0.07246 0.0
C758 C 0.83554 0.53002 0.08233 0.0
C759 C 0.84787 0.53869 0.04041 0.0
C760 C 0.84411 0.55743 0.01461 0.0
H761 H 0.95817 0.53171 0.91164 0.0
H762 H 0.92861 0.53726 0.9602 0.0
C763 C 0.82829 0.56745 0.03063 0.0
C764 C 0.8646 0.5283 0.02228 0.0
H765 H 0.91044 0.51617 0.05767 0.0
C766 C 0.8646 0.52289 0.96865 0.0
C767 C 0.88109 0.52541 0.05544 0.0
C768 C 0.88178 0.53132 0.11302 0.0
C769 C 0.88101 0.51535 0.94633 0.0
C770 C 0.89774 0.51306 0.97878 0.0
C771 C 0.89749 0.51778 0.0332 0.0
C772 C 0.91628 0.50844 0.95436 0.0
C773 C 0.88069 0.51093 0.88721 0.0
C774 C 0.91929 0.4902 0.93595 0.0
C775 C 0.93628 0.48693 0.90796 0.0
C776 C 0.95041 0.50191 0.89794 0.0
C777 C 0.94755 0.51989 0.91833 0.0
C778 C 0.93069 0.52308 0.94635 0.0
H779 H 0.86733 0.51579 0.86571 0.0
H780 H 0.8932 0.51817 0.86413 0.0
H781 H 0.88173 0.49495 0.88612 0.0
H782 H 0.90835 0.47867 0.9422 0.0
H783 H 0.9381 0.47292 0.89284 0.0
H784 H 0.06404 0.13587 0.33331 0.0
H785 H 0.05448 0.11384 0.26606 0.0
H786 H 0.10779 0.12715 0.17772 0.0
H787 H 0.1176 0.14916 0.24506 0.0
H788 H 0.05033 0.1239 0.15108 0.0
H789 H 0.10448 0.06676 0.19934 0.0
H790 H 0.09911 0.08451 0.24571 0.0
H791 H 0.11388 0.09141 0.18584 0.0
C792 C 0.07382 0.13404 0.29983 0.0
C793 C 0.0916 0.14427 0.29462 0.0
C794 C 0.0683 0.12146 0.26139 0.0
C795 C 0.0805 0.11874 0.21723 0.0
C796 C 0.0983 0.12882 0.21199 0.0
H797 H 0.04023 0.06458 0.92861 0.0
H798 H 0.05597 0.08686 0.98696 0.0
C799 C 0.10384 0.14145 0.2504 0.0
C800 C 0.07419 0.10582 0.17584 0.0
H801 H 0.08392 0.06317 0.1241 0.0
C802 C 0.05771 0.11067 0.14492 0.0
C803 C 0.08382 0.08853 0.16827 0.0
C804 C 0.10122 0.08233 0.20176 0.0
C805 C 0.05046 0.09857 0.1069 0.0
C806 C 0.06012 0.08131 0.09913 0.0
C807 C 0.07669 0.07653 0.12977 0.0
C808 C 0.05236 0.06733 0.06247 0.0
C809 C 0.03216 0.10402 0.07671 0.0
C810 C 0.0458 0.04873 0.08528 0.0
C811 C 0.03694 0.03597 0.05209 0.0
C812 C 0.03454 0.04151 0.99532 0.0
C813 C 0.04191 0.05984 0.9721 0.0
C814 C 0.05074 0.07266 0.00545 0.0
H815 H 0.02453 0.11563 0.09529 0.0
H816 H 0.03564 0.10953 0.03322 0.0
H817 H 0.02231 0.09108 0.0767 0.0
H818 H 0.04703 0.04429 0.12914 0.0
H819 H 0.03175 0.02182 0.07105 0.0
H820 H 0.371 0.97641 0.42577 0.0
H821 H 0.39343 0.98591 0.34961 0.0
H822 H 0.34832 0.97833 0.23277 0.0
H823 H 0.32569 0.96896 0.3087 0.0
H824 H 0.4025 0.96149 0.26931 0.0
H825 H 0.37336 0.03159 0.17371 0.0
H826 H 0.36704 0.02107 0.24283 0.0
H827 H 0.35629 0.01146 0.18449 0.0
C828 C 0.36575 0.97699 0.38391 0.0
C829 C 0.34656 0.97187 0.37332 0.0
C830 C 0.3786 0.98244 0.34045 0.0
C831 C 0.37248 0.98302 0.28561 0.0
C832 C 0.35324 0.97833 0.27481 0.0
H833 H 0.43691 0.99637 0.97538 0.0
H834 H 0.41102 0.99334 0.04461 0.0
C835 C 0.34037 0.97285 0.31828 0.0
C836 C 0.38664 0.98694 0.24005 0.0
H837 H 0.3988 0.01846 0.12601 0.0
C838 C 0.40173 0.97398 0.2381 0.0
C839 C 0.38545 0.00313 0.1991 0.0
C840 C 0.36976 0.01773 0.20011 0.0
C841 C 0.41569 0.97675 0.19629 0.0
C842 C 0.41474 0.99313 0.15591 0.0
C843 C 0.39949 0.00596 0.1572 0.0
C844 C 0.42983 0.99727 0.11304 0.0
C845 C 0.43123 0.96196 0.19533 0.0
C846 C 0.44878 0.00119 0.12843 0.0
C847 C 0.46351 0.00291 0.0892 0.0
C848 C 0.45956 0.00087 0.0337 0.0
C849 C 0.44038 0.99807 0.01778 0.0
C850 C 0.42561 0.99627 0.05725 0.0
H851 H 0.42716 0.94789 0.22005 0.0
H852 H 0.43446 0.95911 0.15246 0.0
H853 H 0.44455 0.96776 0.21313 0.0
H854 H 0.45226 0.00241 0.17114 0.0
H855 H 0.47808 0.00549 0.10247 0.0
H856 H 0.45549 0.34755 0.22922 0.0
H857 H 0.4639 0.37385 0.15656 0.0
H858 H 0.44196 0.41613 0.25612 0.0
H859 H 0.43369 0.38993 0.32945 0.0
H860 H 0.43974 0.40093 0.09935 0.0
H861 H 0.49637 0.43756 0.21391 0.0
H862 H 0.48718 0.41317 0.2362 0.0
H863 H 0.4735 0.43398 0.24836 0.0
C864 C 0.45249 0.36243 0.23582 0.0
C865 C 0.44399 0.36664 0.28526 0.0
C866 C 0.45728 0.37744 0.1942 0.0
C867 C 0.45376 0.39693 0.20126 0.0
C868 C 0.44511 0.4012 0.25027 0.0
H869 H 0.45848 0.49186 0.92969 0.0
H870 H 0.44794 0.46928 0.00965 0.0
C871 C 0.44031 0.38619 0.292 0.0
C872 C 0.45896 0.4127 0.15681 0.0
H873 H 0.48832 0.45299 0.12576 0.0
C874 C 0.4503 0.41237 0.1051 0.0
C875 C 0.47287 0.42747 0.16446 0.0
C876 C 0.48317 0.42807 0.21854 0.0
C877 C 0.45526 0.42638 0.06061 0.0
C878 C 0.46903 0.44127 0.0684 0.0
C879 C 0.47763 0.44165 0.12017 0.0
C880 C 0.47553 0.45586 0.02235 0.0
C881 C 0.44616 0.42477 0.00523 0.0
C882 C 0.49467 0.45622 0.00424 0.0
C883 C 0.50076 0.46914 0.95888 0.0
C884 C 0.48782 0.48203 0.93088 0.0
C885 C 0.46878 0.48207 0.95021 0.0
C886 C 0.4627 0.46911 0.99567 0.0
H887 H 0.43908 0.41023 0.00328 0.0
H888 H 0.43509 0.43602 0.99758 0.0
H889 H 0.45704 0.42736 0.97165 0.0
H890 H 0.5048 0.44614 0.02443 0.0
H891 H 0.51554 0.46875 0.94518 0.0
H892 H 0.12501 0.42172 0.27778 0.0
H893 H 0.10242 0.43096 0.20347 0.0
H894 H 0.10171 0.48949 0.24924 0.0
H895 H 0.12429 0.48042 0.3239 0.0
H896 H 0.06416 0.44915 0.21041 0.0
H897 H 0.11858 0.49449 0.0816 0.0
H898 H 0.12521 0.47617 0.13666 0.0
H899 H 0.11619 0.49902 0.15241 0.0
C900 C 0.11999 0.43654 0.2723 0.0
C901 C 0.12658 0.45039 0.30644 0.0
C902 C 0.10706 0.44176 0.22991 0.0
C903 C 0.10063 0.46093 0.22066 0.0
C904 C 0.10673 0.47467 0.25549 0.0
H905 H 0.03407 0.51787 0.94971 0.0
H906 H 0.05316 0.51086 0.03321 0.0
C907 C 0.11958 0.46944 0.29814 0.0
C908 C 0.08793 0.46661 0.17354 0.0
H909 H 0.08728 0.49279 0.04622 0.0
C910 C 0.06914 0.45873 0.17452 0.0
C911 C 0.09453 0.47918 0.1271 0.0
C912 C 0.11476 0.48767 0.12382 0.0
C913 C 0.05669 0.46314 0.13001 0.0
C914 C 0.06344 0.47532 0.08285 0.0
C915 C 0.08216 0.48343 0.08237 0.0
C916 C 0.05151 0.47947 0.03297 0.0
C917 C 0.03636 0.45491 0.13429 0.0
C918 C 0.0445 0.46417 0.00471 0.0
C919 C 0.03351 0.46811 0.95719 0.0
C920 C 0.02955 0.48747 0.93662 0.0
C921 C 0.03685 0.5028 0.96452 0.0
C922 C 0.04774 0.49882 0.01225 0.0
H923 H 0.03182 0.4511 0.17796 0.0
H924 H 0.02612 0.46543 0.11379 0.0
H925 H 0.03548 0.44136 0.1138 0.0
H926 H 0.04768 0.44916 0.0191 0.0
H927 H 0.02824 0.45598 0.9364 0.0
H928 H 0.88235 0.852 0.36225 0.0
H929 H 0.89383 0.87684 0.41938 0.0
H930 H 0.94338 0.88885 0.31335 0.0
H931 H 0.93197 0.86426 0.25574 0.0
H932 H 0.92876 0.87857 0.47631 0.0
H933 H 0.92152 0.9431 0.32065 0.0
H934 H 0.91006 0.91972 0.31336 0.0
H935 H 0.93509 0.92398 0.29653 0.0
C936 C 0.89565 0.85998 0.35092 0.0
C937 C 0.9062 0.85621 0.30425 0.0
C938 C 0.90218 0.87415 0.38365 0.0
C939 C 0.91928 0.88489 0.37006 0.0
C940 C 0.92993 0.88102 0.32388 0.0
H941 H 0.99365 0.96847 0.50029 0.0
H942 H 0.97683 0.94517 0.44837 0.0
C943 C 0.92344 0.86686 0.29118 0.0
C944 C 0.92634 0.89977 0.40491 0.0
H945 H 0.93996 0.94788 0.40044 0.0
C946 C 0.93101 0.89378 0.46003 0.0
C947 C 0.92918 0.91959 0.38349 0.0
C948 C 0.92353 0.92707 0.32542 0.0
C949 C 0.93924 0.90694 0.49369 0.0
C950 C 0.94258 0.92665 0.47174 0.0
C951 C 0.93743 0.93274 0.41707 0.0
C952 C 0.95239 0.94096 0.50371 0.0
C953 C 0.94499 0.89952 0.5517 0.0
C954 C 0.94411 0.9465 0.55181 0.0
C955 C 0.95367 0.95997 0.58161 0.0
C956 C 0.97164 0.96821 0.56359 0.0
C957 C 0.97974 0.9627 0.51503 0.0
C958 C 0.97019 0.94927 0.48538 0.0
H959 H 0.945 0.8833 0.55851 0.0
H960 H 0.9595 0.9053 0.5611 0.0
H961 H 0.93466 0.90462 0.58125 0.0
H962 H 0.9302 0.94051 0.56608 0.0
H963 H 0.94689 0.96409 0.61833 0.0
H964 H 0.64642 0.94869 0.25376 0.0
H965 H 0.623 0.9564 0.32212 0.0
H966 H 0.65132 0.01247 0.3292 0.0
H967 H 0.67502 0.00481 0.26111 0.0
H968 H 0.64221 0.9922 0.43355 0.0
H969 H 0.57944 0.99516 0.2937 0.0
H970 H 0.59248 0.97298 0.29592 0.0
H971 H 0.60389 0.99578 0.26866 0.0
C972 C 0.64768 0.9627 0.26969 0.0
C973 C 0.66254 0.97618 0.25175 0.0
C974 C 0.63422 0.9671 0.3086 0.0
C975 C 0.63528 0.98511 0.33008 0.0
C976 C 0.65022 0.99852 0.31287 0.0
H977 H 0.54441 0.03371 0.51052 0.0
H978 H 0.56956 0.02773 0.44513 0.0
C979 C 0.66371 0.99413 0.2739 0.0
C980 C 0.62087 0.98983 0.3709 0.0
H981 H 0.57285 0.99557 0.38906 0.0
C982 C 0.62705 0.99302 0.42386 0.0
C983 C 0.60115 0.99111 0.35784 0.0
C984 C 0.59381 0.98876 0.30081 0.0
C985 C 0.61394 0.99712 0.46455 0.0
C986 C 0.59414 0.99775 0.452 0.0
C987 C 0.58803 0.9949 0.39872 0.0
C988 C 0.57947 0.00163 0.49316 0.0
C989 C 0.62143 0.00101 0.52028 0.0
C990 C 0.57666 0.98889 0.54183 0.0
C991 C 0.56223 0.99225 0.57932 0.0
C992 C 0.55024 0.0083 0.5685 0.0
C993 C 0.55319 0.02106 0.51977 0.0
C994 C 0.56763 0.01773 0.48247 0.0
H995 H 0.63701 0.00499 0.51867 0.0
H996 H 0.61354 0.01296 0.53637 0.0
H997 H 0.61935 0.98762 0.54979 0.0
H998 H 0.58536 0.97613 0.55031 0.0
H999 H 0.56016 0.98199 0.61602 0.0
H1000 H 0.60137 0.63098 0.28453 0.0
H1001 H 0.58867 0.60817 0.3611 0.0
H1002 H 0.53704 0.64117 0.36251 0.0
H1003 H 0.54954 0.66403 0.28578 0.0
H1004 H 0.57721 0.61802 0.46704 0.0
H1005 H 0.51732 0.58404 0.35829 0.0
H1006 H 0.53706 0.59749 0.32209 0.0
H1007 H 0.51812 0.6103 0.35109 0.0
C1008 C 0.58726 0.63334 0.30086 0.0
C1009 C 0.57646 0.64932 0.27898 0.0
C1010 C 0.58004 0.62029 0.34462 0.0
C1011 C 0.56184 0.62287 0.36694 0.0
C1012 C 0.55099 0.63875 0.3452 0.0
H1013 H 0.49504 0.56285 0.63902 0.0
H1014 H 0.50661 0.58424 0.558 0.0
C1015 C 0.55821 0.65186 0.30156 0.0
C1016 C 0.55455 0.60938 0.41447 0.0
H1017 H 0.51884 0.57582 0.45511 0.0
C1018 C 0.56451 0.60871 0.46445 0.0
C1019 C 0.53791 0.59738 0.41087 0.0
C1020 C 0.52702 0.59714 0.35764 0.0
C1021 C 0.5581 0.59656 0.51137 0.0
C1022 C 0.54153 0.58442 0.50773 0.0
C1023 C 0.53155 0.58512 0.45772 0.0
C1024 C 0.53433 0.57095 0.55551 0.0
C1025 C 0.56886 0.59719 0.56473 0.0
C1026 C 0.54591 0.55611 0.58018 0.0
C1027 C 0.53939 0.54392 0.62657 0.0
C1028 C 0.52106 0.54622 0.64882 0.0
C1029 C 0.50924 0.56071 0.62297 0.0
C1030 C 0.51582 0.57295 0.57667 0.0
H1031 H 0.57779 0.61081 0.56444 0.0
H1032 H 0.55882 0.59612 0.60044 0.0
H1033 H 0.57858 0.58465 0.57068 0.0
H1034 H 0.56007 0.55402 0.56372 0.0
H1035 H 0.5488 0.53281 0.64524 0.0
H1036 H 0.88764 0.54938 0.25605 0.0
H1037 H 0.91014 0.54192 0.33174 0.0
H1038 H 0.86336 0.51854 0.4377 0.0
H1039 H 0.84071 0.52629 0.36272 0.0
H1040 H 0.8863 0.54475 0.48516 0.0
H1041 H 0.93054 0.48971 0.39871 0.0
H1042 H 0.92881 0.51228 0.35453 0.0
H1043 H 0.90765 0.49708 0.37006 0.0
C1044 C 0.88215 0.54248 0.29531 0.0
C1045 C 0.86237 0.53849 0.30344 0.0
C1046 C 0.89506 0.53812 0.33842 0.0
C1047 C 0.88844 0.5295 0.39015 0.0
C1048 C 0.86875 0.52517 0.39804 0.0
H1049 H 0.95424 0.47913 0.66763 0.0
H1050 H 0.93334 0.48547 0.58783 0.0
C1051 C 0.85584 0.52959 0.35511 0.0
C1052 C 0.9018 0.52598 0.43707 0.0
H1053 H 0.94185 0.50146 0.48089 0.0
C1054 C 0.89843 0.53525 0.48431 0.0
C1055 C 0.9175 0.51346 0.43594 0.0
C1056 C 0.92129 0.5024 0.38733 0.0
C1057 C 0.91038 0.53242 0.53045 0.0
C1058 C 0.92637 0.52029 0.52881 0.0
C1059 C 0.92968 0.51091 0.48173 0.0
C1060 C 0.93943 0.51662 0.57636 0.0
C1061 C 0.90553 0.54207 0.58099 0.0
C1062 C 0.94997 0.53203 0.59591 0.0
C1063 C 0.96187 0.52848 0.64177 0.0
C1064 C 0.96355 0.50943 0.66851 0.0
C1065 C 0.95323 0.49399 0.64809 0.0
C1066 C 0.94131 0.49756 0.60242 0.0
H1067 H 0.89038 0.54672 0.58063 0.0
H1068 H 0.90791 0.53208 0.61922 0.0
H1069 H 0.91494 0.55526 0.58222 0.0
H1070 H 0.949 0.54679 0.57568 0.0
H1071 H 0.96973 0.54066 0.65623 0.0
loop_
_geom_bond_atom_site_label_1
_geom_bond_atom_site_label_2
_geom_bond_distance
_geom_bond_site_symmetry_2
_ccdc_geom_bond_type
O0 Cd1 2.300 . S
O0 C7 1.275 . S
Cd1 O0 2.300 . S
Cd1 O9 2.381 . S
Cd1 O10 2.378 . S
O2 Cd3 2.385 . S
O2 C7 1.255 . S
Cd3 O2 2.385 . S
Cd3 O4 2.317 . S
O4 Cd3 2.317 . S
O4 C5 1.232 . S
C5 O4 1.232 . S
C5 O6 1.218 . S
O6 C5 1.218 . S
C7 O0 1.275 . S
C7 O2 1.255 . S
C8 O9 1.258 . S
C8 O10 1.256 . S
O9 Cd1 2.381 . S
O9 C8 1.258 . S
O10 Cd1 2.378 . S
O10 C8 1.256 . S
O11 Cd12 2.300 . S
O11 C18 1.275 . S
Cd12 O11 2.300 . S
Cd12 O20 2.381 . S
Cd12 O21 2.378 . S
O13 Cd14 2.385 . S
O13 C18 1.255 . S
Cd14 O13 2.385 . S
Cd14 O15 2.317 . S
O15 Cd14 2.317 . S
O15 C16 1.232 . S
C16 O15 1.232 . S
C16 O17 1.218 . S
O17 C16 1.218 . S
C18 O11 1.275 . S
C18 O13 1.255 . S
C19 O20 1.258 . S
C19 O21 1.256 . S
O20 Cd12 2.381 . S
O20 C19 1.258 . S
O21 Cd12 2.378 . S
O21 C19 1.256 . S
O22 Cd23 2.300 1_565 S
O22 C29 1.275 1_565 S
Cd23 O22 2.300 1_545 S
Cd23 O31 2.381 1_545 S
Cd23 O32 2.378 . S
O24 Cd25 2.385 . S
O24 C29 1.255 . S
Cd25 O24 2.385 . S
Cd25 O26 2.317 . S
O26 Cd25 2.317 . S
O26 C27 1.232 . S
C27 O26 1.232 . S
C27 O28 1.218 . S
O28 C27 1.218 . S
C29 O22 1.275 1_545 S
C29 O24 1.255 . S
C30 O31 1.258 1_545 S
C30 O32 1.256 . S
O31 Cd23 2.381 1_565 S
O31 C30 1.258 1_565 S
O32 Cd23 2.378 . S
O32 C30 1.256 . S
O33 Cd34 2.300 . S
O33 C40 1.275 . S
Cd34 O33 2.300 . S
Cd34 O42 2.381 . S
Cd34 O43 2.378 . S
O35 Cd36 2.385 . S
O35 C40 1.255 . S
Cd36 O35 2.385 . S
Cd36 O37 2.317 . S
O37 Cd36 2.317 . S
O37 C38 1.232 . S
C38 O37 1.232 . S
C38 O39 1.218 . S
O39 C38 1.218 . S
C40 O33 1.275 . S
C40 O35 1.255 . S
C41 O42 1.258 . S
C41 O43 1.256 . S
O42 Cd34 2.381 . S
O42 C41 1.258 . S
O43 Cd34 2.378 . S
O43 C41 1.256 . S
O44 Cd45 2.300 . S
O44 C51 1.275 . S
Cd45 O44 2.300 . S
Cd45 O53 2.381 . S
Cd45 O54 2.378 . S
O46 Cd47 2.385 . S
O46 C51 1.255 . S
Cd47 O46 2.385 . S
Cd47 O48 2.317 . S
O48 Cd47 2.317 . S
O48 C49 1.232 . S
C49 O48 1.232 . S
C49 O50 1.218 . S
O50 C49 1.218 . S
C51 O44 1.275 . S
C51 O46 1.255 . S
C52 O53 1.258 . S
C52 O54 1.256 . S
O53 Cd45 2.381 . S
O53 C52 1.258 . S
O54 Cd45 2.378 . S
O54 C52 1.256 . S
O55 Cd56 2.300 . S
O55 C62 1.275 . S
Cd56 O55 2.300 . S
Cd56 O64 2.381 . S
Cd56 O65 2.378 . S
O57 Cd58 2.385 . S
O57 C62 1.255 . S
Cd58 O57 2.385 . S
Cd58 O59 2.317 . S
O59 Cd58 2.317 . S
O59 C60 1.232 . S
C60 O59 1.232 . S
C60 O61 1.218 . S
O61 C60 1.218 . S
C62 O55 1.275 . S
C62 O57 1.255 . S
C63 O64 1.258 . S
C63 O65 1.256 . S
O64 Cd56 2.381 . S
O64 C63 1.258 . S
O65 Cd56 2.378 . S
O65 C63 1.256 . S
O66 Cd67 2.300 1_565 S
O66 C73 1.275 1_565 S
Cd67 O66 2.300 1_545 S
Cd67 O75 2.381 1_545 S
Cd67 O76 2.378 . S
O68 Cd69 2.385 . S
O68 C73 1.255 . S
Cd69 O68 2.385 . S
Cd69 O70 2.317 . S
O70 Cd69 2.317 . S
O70 C71 1.232 . S
C71 O70 1.232 . S
C71 O72 1.218 . S
O72 C71 1.218 . S
C73 O66 1.275 1_545 S
C73 O68 1.255 . S
C74 O75 1.258 1_545 S
C74 O76 1.256 . S
O75 Cd67 2.381 1_565 S
O75 C74 1.258 1_565 S
O76 Cd67 2.378 . S
O76 C74 1.256 . S
O77 Cd78 2.300 . S
O77 C84 1.275 . S
Cd78 O77 2.300 . S
Cd78 O86 2.381 . S
Cd78 O87 2.378 . S
O79 Cd80 2.385 . S
O79 C84 1.255 . S
Cd80 O79 2.385 . S
Cd80 O81 2.317 . S
O81 Cd80 2.317 . S
O81 C82 1.232 . S
C82 O81 1.232 . S
C82 O83 1.218 . S
O83 C82 1.218 . S
C84 O77 1.275 . S
C84 O79 1.255 . S
C85 O86 1.258 . S
C85 O87 1.256 . S
O86 Cd78 2.381 . S
O86 C85 1.258 . S
O87 Cd78 2.378 . S
O87 C85 1.256 . S
Co88 N93 2.057 . S
Co88 O105 2.021 . S
Co88 O108 2.062 . S
Co88 O112 2.117 1_455 S
Co88 O113 2.020 1_545 S
C89 O109 1.259 1_545 S
C89 O112 1.258 . S
Co90 N99 2.057 . S
Co90 O106 2.117 1_655 S
Co90 O107 2.020 1_665 S
Co90 O109 2.021 . S
Co90 O114 2.062 . S
C91 N93 1.316 . S
C91 N94 1.347 . S
C91 H96 0.931 . S
C92 N93 1.375 1_655 S
C92 C95 1.350 1_655 S
C92 H97 0.930 . S
N93 Co88 2.057 . S
N93 C91 1.316 . S
N93 C92 1.375 1_455 S
N94 C91 1.347 . S
N94 C95 1.373 . S
C95 C92 1.350 1_455 S
C95 N94 1.373 . S
C95 H116 0.931 1_455 S
H96 C91 0.931 . S
H97 C92 0.930 . S
C98 O105 1.259 1_565 S
C98 O106 1.258 . S
N99 Co90 2.057 . S
N99 C100 1.316 . S
N99 C101 1.375 1_655 S
C100 N99 1.316 . S
C100 N102 1.347 . S
C100 H111 0.931 . S
C101 N99 1.375 1_455 S
C101 C103 1.350 . S
C101 H110 0.930 . S
N102 C100 1.347 . S
N102 C103 1.373 1_655 S
C103 C101 1.350 . S
C103 N102 1.373 1_455 S
C103 H117 0.931 . S
C104 O107 1.256 . S
C104 O108 1.255 . S
O105 Co88 2.021 . S
O105 C98 1.259 1_545 S
O106 Co90 2.117 1_455 S
O106 C98 1.258 . S
O107 Co90 2.020 1_445 S
O107 C104 1.256 . S
O108 Co88 2.062 . S
O108 C104 1.255 . S
O109 C89 1.259 1_565 S
O109 Co90 2.021 . S
H110 C101 0.930 . S
H111 C100 0.931 . S
O112 Co88 2.117 1_655 S
O112 C89 1.258 . S
O113 Co88 2.020 1_565 S
O113 C115 1.256 . S
O114 Co90 2.062 . S
O114 C115 1.255 1_655 S
C115 O113 1.256 . S
C115 O114 1.255 1_455 S
H116 C95 0.931 1_655 S
H117 C103 0.931 . S
Co118 N123 2.057 . S
Co118 O135 2.021 . S
Co118 O138 2.061 . S
Co118 O142 2.117 1_545 S
Co118 O143 2.020 . S
C119 O139 1.259 . S
C119 O142 1.258 . S
Co120 N129 2.057 1_565 S
Co120 O136 2.117 1_565 S
Co120 O137 2.020 . S
Co120 O139 2.021 . S
Co120 O144 2.061 1_565 S
C121 N123 1.317 . S
C121 N124 1.347 . S
C121 H126 0.931 . S
C122 N123 1.374 1_565 S
C122 C125 1.350 . S
C122 H127 0.930 . S
N123 Co118 2.057 . S
N123 C121 1.317 . S
N123 C122 1.374 1_545 S
N124 C121 1.347 . S
N124 C125 1.373 1_545 S
C125 C122 1.350 . S
C125 N124 1.373 1_565 S
C125 H146 0.931 1_556 S
H126 C121 0.931 . S
H127 C122 0.930 . S
C128 O135 1.259 . S
C128 O136 1.258 . S
N129 Co120 2.057 1_545 S
N129 C130 1.317 1_545 S
N129 C131 1.374 . S
C130 N129 1.317 1_565 S
C130 N132 1.347 . S
C130 H141 0.931 . S
C131 N129 1.374 . S
C131 C133 1.350 . S
C131 H140 0.930 . S
N132 C130 1.347 . S
N132 C133 1.373 1_565 S
C133 C131 1.350 . S
C133 N132 1.373 1_545 S
C133 H147 0.931 . S
C134 O137 1.256 . S
C134 O138 1.256 1_565 S
O135 Co118 2.021 . S
O135 C128 1.259 . S
O136 Co120 2.117 1_545 S
O136 C128 1.258 . S
O137 Co120 2.020 . S
O137 C134 1.256 . S
O138 Co118 2.061 . S
O138 C134 1.256 1_545 S
O139 C119 1.259 . S
O139 Co120 2.021 . S
H140 C131 0.930 . S
H141 C130 0.931 . S
O142 Co118 2.117 1_565 S
O142 C119 1.258 . S
O143 Co118 2.020 . S
O143 C145 1.256 . S
O144 Co120 2.061 1_545 S
O144 C145 1.256 . S
C145 O143 1.256 . S
C145 O144 1.256 . S
H146 C125 0.931 1_554 S
H147 C133 0.931 . S
Co148 N153 2.057 . S
Co148 O165 2.021 . S
Co148 O168 2.062 . S
Co148 O172 2.117 . S
Co148 O173 2.020 . S
C149 O169 1.259 . S
C149 O172 1.258 . S
Co150 N159 2.057 . S
Co150 O166 2.117 . S
Co150 O167 2.020 . S
Co150 O169 2.021 . S
Co150 O174 2.062 . S
C151 N153 1.316 . S
C151 N154 1.347 . S
C151 H156 0.931 . S
C152 N153 1.375 . S
C152 C155 1.350 . S
C152 H157 0.930 . S
N153 Co148 2.057 . S
N153 C151 1.316 . S
N153 C152 1.375 . S
N154 C151 1.347 . S
N154 C155 1.373 . S
C155 C152 1.350 . S
C155 N154 1.373 . S
C155 H176 0.931 . S
H156 C151 0.931 . S
H157 C152 0.930 . S
C158 O165 1.259 . S
C158 O166 1.258 . S
N159 Co150 2.057 . S
N159 C160 1.316 . S
N159 C161 1.375 . S
C160 N159 1.316 . S
C160 N162 1.347 . S
C160 H171 0.931 . S
C161 N159 1.375 . S
C161 C163 1.350 . S
C161 H170 0.930 . S
N162 C160 1.347 . S
N162 C163 1.373 . S
C163 C161 1.350 . S
C163 N162 1.373 . S
C163 H177 0.931 . S
C164 O167 1.256 . S
C164 O168 1.255 . S
O165 Co148 2.021 . S
O165 C158 1.259 . S
O166 Co150 2.117 . S
O166 C158 1.258 . S
O167 Co150 2.020 . S
O167 C164 1.256 . S
O168 Co148 2.062 . S
O168 C164 1.255 . S
O169 C149 1.259 . S
O169 Co150 2.021 . S
H170 C161 0.930 . S
H171 C160 0.931 . S
O172 Co148 2.117 . S
O172 C149 1.258 . S
O173 Co148 2.020 . S
O173 C175 1.256 . S
O174 Co150 2.062 . S
O174 C175 1.255 . S
C175 O173 1.256 . S
C175 O174 1.255 . S
H176 C155 0.931 . S
H177 C163 0.931 . S
Co178 N183 2.057 . S
Co178 O195 2.021 1_455 S
Co178 O198 2.062 1_455 S
Co178 O202 2.117 . S
Co178 O203 2.020 . S
C179 O199 1.259 . S
C179 O202 1.258 . S
Co180 N189 2.057 . S
Co180 O196 2.117 1_455 S
Co180 O197 2.020 1_455 S
Co180 O199 2.021 . S
Co180 O204 2.062 . S
C181 N183 1.316 1_655 S
C181 N184 1.353 . S
C181 H186 0.931 . S
C182 N183 1.375 . S
C182 C185 1.350 . S
C182 H187 0.930 . S
N183 Co178 2.057 . S
N183 C181 1.316 1_455 S
N183 C182 1.375 . S
N184 C181 1.353 . S
N184 C185 1.347 1_655 S
C185 C182 1.350 . S
C185 N184 1.347 1_455 S
C185 H206 0.931 . S
H186 C181 0.931 . S
H187 C182 0.930 . S
C188 O195 1.259 . S
C188 O196 1.258 . S
N189 Co180 2.057 . S
N189 C190 1.316 . S
N189 C191 1.375 1_455 S
C190 N189 1.316 . S
C190 N192 1.347 . S
C190 H201 0.931 . S
C191 N189 1.375 1_655 S
C191 C193 1.350 . S
C191 H200 0.930 . S
N192 C190 1.347 . S
N192 C193 1.373 1_455 S
C193 C191 1.350 . S
C193 N192 1.373 1_655 S
C193 H207 0.931 . S
C194 O197 1.256 . S
C194 O198 1.255 . S
O195 Co178 2.021 1_655 S
O195 C188 1.259 . S
O196 Co180 2.117 1_655 S
O196 C188 1.258 . S
O197 Co180 2.020 1_655 S
O197 C194 1.256 . S
O198 Co178 2.062 1_655 S
O198 C194 1.255 . S
O199 C179 1.259 . S
O199 Co180 2.021 . S
H200 C191 0.930 . S
H201 C190 0.931 . S
O202 Co178 2.117 . S
O202 C179 1.258 . S
O203 Co178 2.020 . S
O203 C205 1.256 . S
O204 Co180 2.062 . S
O204 C205 1.255 . S
C205 O203 1.256 . S
C205 O204 1.255 . S
H206 C185 0.931 . S
H207 C193 0.931 . S
H208 C216 0.931 . S
H209 C218 0.922 . S
H210 C220 0.930 . S
H211 C223 0.929 . S
H212 C226 0.930 . S
H213 C228 0.960 . S
H214 C228 0.960 . S
H215 C228 0.960 . S
C216 H208 0.931 . S
C216 C217 1.372 1_545 S
C216 C218 1.385 . S
C217 C216 1.372 1_565 S
C217 C223 1.392 . S
C218 H209 0.922 . S
C218 C216 1.385 . S
C218 C219 1.372 1_545 S
C219 C218 1.372 1_565 S
C219 C220 1.400 . S
C219 C224 1.490 . S
C220 H210 0.930 . S
C220 C219 1.400 . S
C220 C223 1.386 . S
H221 C237 0.930 . S
H222 C238 0.930 . S
C223 H211 0.929 . S
C223 C217 1.392 . S
C223 C220 1.386 . S
C224 C219 1.490 . S
C224 C226 1.395 1_565 S
C224 C227 1.403 . S
H225 C231 0.930 . S
C226 H212 0.930 . S
C226 C224 1.395 1_545 S
C226 C229 1.403 . S
C227 C224 1.403 . S
C227 C228 1.524 . S
C227 C231 1.400 . S
C228 H213 0.960 . S
C228 H214 0.960 . S
C228 H215 0.960 . S
C228 C227 1.524 . S
C229 C226 1.403 . S
C229 C230 1.421 . S
C229 C233 1.495 . S
C230 C229 1.421 . S
C230 C231 1.353 1_545 S
C230 C232 1.478 . S
C231 H225 0.930 . S
C231 C227 1.400 . S
C231 C230 1.353 1_565 S
C232 C230 1.478 . S
C232 C234 1.382 1_545 S
C232 C238 1.383 . S
C233 C229 1.495 . S
C233 H239 0.959 . S
C233 H240 0.961 . S
C233 H241 0.960 . S
C234 C232 1.382 1_565 S
C234 C235 1.394 . S
C234 H242 0.935 . S
C235 C234 1.394 . S
C235 C236 1.383 . S
C235 H243 0.929 . S
C236 C235 1.383 . S
C236 C237 1.377 . S
C237 H221 0.930 . S
C237 C236 1.377 . S
C237 C238 1.379 1_565 S
C238 H222 0.930 . S
C238 C232 1.383 . S
C238 C237 1.379 1_545 S
H239 C233 0.959 . S
H240 C233 0.961 . S
H241 C233 0.960 . S
H242 C234 0.935 . S
H243 C235 0.929 . S
H244 C252 0.929 . S
H245 C254 0.930 . S
H246 C256 0.930 . S
H247 C259 0.929 . S
H248 C262 0.930 . S
H249 C264 0.960 . S
H250 C264 0.960 . S
H251 C264 0.960 . S
C252 H244 0.929 . S
C252 C253 1.377 . S
C252 C254 1.384 . S
C253 C252 1.377 . S
C253 C259 1.390 . S
C254 H245 0.930 . S
C254 C252 1.384 . S
C254 C255 1.372 . S
C255 C254 1.372 . S
C255 C256 1.400 . S
C255 C260 1.490 . S
C256 H246 0.930 . S
C256 C255 1.400 . S
C256 C259 1.386 . S
H257 C273 0.930 . S
H258 C274 0.931 . S
C259 H247 0.929 . S
C259 C253 1.390 . S
C259 C256 1.386 . S
C260 C255 1.490 . S
C260 C262 1.395 . S
C260 C263 1.403 . S
H261 C267 0.930 . S
C262 H248 0.930 . S
C262 C260 1.395 . S
C262 C265 1.403 . S
C263 C260 1.403 . S
C263 C264 1.524 . S
C263 C267 1.400 . S
C264 H249 0.960 . S
C264 H250 0.960 . S
C264 H251 0.960 . S
C264 C263 1.524 . S
C265 C262 1.403 . S
C265 C266 1.392 . S
C265 C269 1.495 . S
C266 C265 1.392 . S
C266 C267 1.385 . S
C266 C268 1.478 . S
C267 H261 0.930 . S
C267 C263 1.400 . S
C267 C266 1.385 . S
C268 C266 1.478 . S
C268 C270 1.381 . S
C268 C274 1.383 . S
C269 C265 1.495 . S
C269 H275 0.959 . S
C269 H276 0.961 . S
C269 H277 0.960 . S
C270 C268 1.381 . S
C270 C271 1.394 . S
C270 H278 0.930 . S
C271 C270 1.394 . S
C271 C272 1.383 . S
C271 H279 0.929 . S
C272 C271 1.383 . S
C272 C273 1.377 . S
C273 H257 0.930 . S
C273 C272 1.377 . S
C273 C274 1.379 . S
C274 H258 0.931 . S
C274 C268 1.383 . S
C274 C273 1.379 . S
H275 C269 0.959 . S
H276 C269 0.961 . S
H277 C269 0.960 . S
H278 C270 0.930 . S
H279 C271 0.929 . S
H280 C288 0.929 . S
H281 C290 0.930 . S
H282 C292 0.930 . S
H283 C295 0.929 . S
H284 C298 0.930 . S
H285 C300 0.960 . S
H286 C300 0.960 . S
H287 C300 0.960 . S
C288 H280 0.929 . S
C288 C289 1.377 . S
C288 C290 1.384 . S
C289 C288 1.377 . S
C289 C295 1.390 . S
C290 H281 0.930 . S
C290 C288 1.384 . S
C290 C291 1.372 . S
C291 C290 1.372 . S
C291 C292 1.400 . S
C291 C296 1.490 . S
C292 H282 0.930 . S
C292 C291 1.400 . S
C292 C295 1.386 . S
H293 C309 0.930 . S
H294 C310 0.931 . S
C295 H283 0.929 . S
C295 C289 1.390 . S
C295 C292 1.386 . S
C296 C291 1.490 . S
C296 C298 1.395 . S
C296 C299 1.403 . S
H297 C303 0.930 . S
C298 H284 0.930 . S
C298 C296 1.395 . S
C298 C301 1.403 . S
C299 C296 1.403 . S
C299 C300 1.524 . S
C299 C303 1.400 . S
C300 H285 0.960 . S
C300 H286 0.960 . S
C300 H287 0.960 . S
C300 C299 1.524 . S
C301 C298 1.403 . S
C301 C302 1.392 . S
C301 C305 1.495 . S
C302 C301 1.392 . S
C302 C303 1.385 . S
C302 C304 1.478 . S
C303 H297 0.930 . S
C303 C299 1.400 . S
C303 C302 1.385 . S
C304 C302 1.478 . S
C304 C306 1.381 . S
C304 C310 1.383 . S
C305 C301 1.495 . S
C305 H311 0.959 . S
C305 H312 0.961 . S
C305 H313 0.960 . S
C306 C304 1.381 . S
C306 C307 1.394 . S
C306 H314 0.930 . S
C307 C306 1.394 . S
C307 C308 1.383 . S
C307 H315 0.929 . S
C308 C307 1.383 . S
C308 C309 1.377 . S
C309 H293 0.930 . S
C309 C308 1.377 . S
C309 C310 1.379 . S
C310 H294 0.931 . S
C310 C304 1.383 . S
C310 C309 1.379 . S
H311 C305 0.959 . S
H312 C305 0.961 . S
H313 C305 0.960 . S
H314 C306 0.930 . S
H315 C307 0.929 . S
H316 C324 0.929 . S
H317 C326 0.930 . S
H318 C328 0.930 . S
H319 C331 0.929 . S
H320 C334 0.930 . S
H321 C336 0.960 . S
H322 C336 0.960 . S
H323 C336 0.960 . S
C324 H316 0.929 . S
C324 C325 1.377 . S
C324 C326 1.384 . S
C325 C324 1.377 . S
C325 C331 1.390 . S
C326 H317 0.930 . S
C326 C324 1.384 . S
C326 C327 1.372 . S
C327 C326 1.372 . S
C327 C328 1.400 . S
C327 C332 1.490 . S
C328 H318 0.930 . S
C328 C327 1.400 . S
C328 C331 1.386 . S
H329 C345 0.930 . S
H330 C346 0.931 . S
C331 H319 0.929 . S
C331 C325 1.390 . S
C331 C328 1.386 . S
C332 C327 1.490 . S
C332 C334 1.395 . S
C332 C335 1.403 . S
H333 C339 0.930 . S
C334 H320 0.930 . S
C334 C332 1.395 . S
C334 C337 1.403 . S
C335 C332 1.403 . S
C335 C336 1.524 . S
C335 C339 1.400 . S
C336 H321 0.960 . S
C336 H322 0.960 . S
C336 H323 0.960 . S
C336 C335 1.524 . S
C337 C334 1.403 . S
C337 C338 1.392 . S
C337 C341 1.495 . S
C338 C337 1.392 . S
C338 C339 1.385 . S
C338 C340 1.478 . S
C339 H333 0.930 . S
C339 C335 1.400 . S
C339 C338 1.385 . S
C340 C338 1.478 . S
C340 C342 1.381 . S
C340 C346 1.383 . S
C341 C337 1.495 . S
C341 H347 0.959 1_455 S
C341 H348 0.961 1_455 S
C341 H349 0.960 . S
C342 C340 1.381 . S
C342 C343 1.394 . S
C342 H350 0.930 . S
C343 C342 1.394 . S
C343 C344 1.383 . S
C343 H351 0.929 . S
C344 C343 1.383 . S
C344 C345 1.377 . S
C345 H329 0.930 . S
C345 C344 1.377 . S
C345 C346 1.379 . S
C346 H330 0.931 . S
C346 C340 1.383 . S
C346 C345 1.379 . S
H347 C341 0.959 1_655 S
H348 C341 0.961 1_655 S
H349 C341 0.960 . S
H350 C342 0.930 . S
H351 C343 0.929 . S
H352 C360 0.929 . S
H353 C362 0.930 . S
H354 C364 0.930 . S
H355 C367 0.929 . S
H356 C370 0.930 . S
H357 C372 0.960 . S
H358 C372 0.960 . S
H359 C372 0.960 1_545 S
C360 H352 0.929 . S
C360 C361 1.378 1_566 S
C360 C362 1.384 . S
C361 C360 1.378 1_544 S
C361 C367 1.389 . S
C362 H353 0.930 . S
C362 C360 1.384 . S
C362 C363 1.358 1_565 S
C363 C362 1.358 1_545 S
C363 C364 1.414 1_556 S
C363 C368 1.489 . S
C364 H354 0.930 . S
C364 C363 1.414 1_554 S
C364 C367 1.386 . S
H365 C381 0.930 . S
H366 C382 0.931 . S
C367 H355 0.929 . S
C367 C361 1.389 . S
C367 C364 1.386 . S
C368 C363 1.489 . S
C368 C370 1.395 . S
C368 C371 1.403 1_545 S
H369 C375 0.930 . S
C370 H356 0.930 . S
C370 C368 1.395 . S
C370 C373 1.403 . S
C371 C368 1.403 1_565 S
C371 C372 1.524 1_556 S
C371 C375 1.400 . S
C372 H357 0.960 . S
C372 H358 0.960 . S
C372 H359 0.960 1_565 S
C372 C371 1.524 1_554 S
C373 C370 1.403 . S
C373 C374 1.392 . S
C373 C377 1.495 . S
C374 C373 1.392 . S
C374 C375 1.385 1_545 S
C374 C376 1.478 . S
C375 H369 0.930 . S
C375 C371 1.400 . S
C375 C374 1.385 1_565 S
C376 C374 1.478 . S
C376 C378 1.381 1_545 S
C376 C382 1.383 . S
C377 C373 1.495 . S
C377 H383 0.959 . S
C377 H384 0.961 . S
C377 H385 0.960 1_545 S
C378 C376 1.381 1_565 S
C378 C379 1.394 . S
C378 H386 0.930 . S
C379 C378 1.394 . S
C379 C380 1.383 1_565 S
C379 H387 0.929 . S
C380 C379 1.383 1_545 S
C380 C381 1.377 . S
C381 H365 0.930 . S
C381 C380 1.377 . S
C381 C382 1.379 . S
C382 H366 0.931 . S
C382 C376 1.383 . S
C382 C381 1.379 . S
H383 C377 0.959 . S
H384 C377 0.961 . S
H385 C377 0.960 1_565 S
H386 C378 0.930 . S
H387 C379 0.929 . S
H388 C396 0.929 . S
H389 C398 0.930 . S
H390 C400 0.930 . S
H391 C403 0.929 . S
H392 C406 0.930 . S
H393 C408 0.960 . S
H394 C408 0.960 1_554 S
H395 C408 0.960 . S
C396 H388 0.929 . S
C396 C397 1.377 . S
C396 C398 1.384 . S
C397 C396 1.377 . S
C397 C403 1.390 1_554 S
C398 H389 0.930 . S
C398 C396 1.384 . S
C398 C399 1.372 1_554 S
C399 C398 1.372 1_556 S
C399 C400 1.400 . S
C399 C404 1.490 . S
C400 H390 0.930 . S
C400 C399 1.400 . S
C400 C403 1.386 . S
H401 C417 0.930 . S
H402 C418 0.931 . S
C403 H391 0.929 . S
C403 C397 1.390 1_556 S
C403 C400 1.386 . S
C404 C399 1.490 . S
C404 C406 1.395 . S
C404 C407 1.403 . S
H405 C411 0.930 . S
C406 H392 0.930 . S
C406 C404 1.395 . S
C406 C409 1.403 . S
C407 C404 1.403 . S
C407 C408 1.524 . S
C407 C411 1.400 . S
C408 H393 0.960 . S
C408 H394 0.960 1_556 S
C408 H395 0.960 . S
C408 C407 1.524 . S
C409 C406 1.403 . S
C409 C410 1.392 . S
C409 C413 1.495 . S
C410 C409 1.392 . S
C410 C411 1.385 . S
C410 C412 1.478 . S
C411 H405 0.930 . S
C411 C407 1.400 . S
C411 C410 1.385 . S
C412 C410 1.478 . S
C412 C414 1.381 . S
C412 C418 1.383 . S
C413 C409 1.495 . S
C413 H419 0.959 . S
C413 H420 0.961 . S
C413 H421 0.960 . S
C414 C412 1.381 . S
C414 C415 1.394 . S
C414 H422 0.930 . S
C415 C414 1.394 . S
C415 C416 1.383 . S
C415 H423 0.929 . S
C416 C415 1.383 . S
C416 C417 1.377 . S
C417 H401 0.930 . S
C417 C416 1.377 . S
C417 C418 1.379 . S
C418 H402 0.931 . S
C418 C412 1.383 . S
C418 C417 1.379 . S
H419 C413 0.959 . S
H420 C413 0.961 . S
H421 C413 0.960 . S
H422 C414 0.930 . S
H423 C415 0.929 . S
H424 C432 0.929 . S
H425 C434 0.930 . S
H426 C436 0.930 . S
H427 C439 0.929 . S
H428 C442 0.930 . S
H429 C444 0.960 . S
H430 C444 0.960 . S
H431 C444 0.960 . S
C432 H424 0.929 . S
C432 C433 1.377 . S
C432 C434 1.384 . S
C433 C432 1.377 . S
C433 C439 1.390 . S
C434 H425 0.930 . S
C434 C432 1.384 . S
C434 C435 1.372 . S
C435 C434 1.372 . S
C435 C436 1.400 . S
C435 C440 1.490 . S
C436 H426 0.930 . S
C436 C435 1.400 . S
C436 C439 1.386 . S
H437 C453 0.930 . S
H438 C454 0.931 . S
C439 H427 0.929 . S
C439 C433 1.390 . S
C439 C436 1.386 . S
C440 C435 1.490 . S
C440 C442 1.395 . S
C440 C443 1.403 1_554 S
H441 C447 0.930 . S
C442 H428 0.930 . S
C442 C440 1.395 . S
C442 C445 1.403 . S
C443 C440 1.403 1_556 S
C443 C444 1.524 . S
C443 C447 1.400 . S
C444 H429 0.960 . S
C444 H430 0.960 . S
C444 H431 0.960 . S
C444 C443 1.524 . S
C445 C442 1.403 . S
C445 C446 1.392 1_554 S
C445 C449 1.495 . S
C446 C445 1.392 1_556 S
C446 C447 1.385 . S
C446 C448 1.478 . S
C447 H441 0.930 . S
C447 C443 1.400 . S
C447 C446 1.385 . S
C448 C446 1.478 . S
C448 C450 1.381 . S
C448 C454 1.383 . S
C449 C445 1.495 . S
C449 H455 0.959 . S
C449 H456 0.961 . S
C449 H457 0.960 . S
C450 C448 1.381 . S
C450 C451 1.394 . S
C450 H458 0.930 . S
C451 C450 1.394 . S
C451 C452 1.383 . S
C451 H459 0.929 . S
C452 C451 1.383 . S
C452 C453 1.377 . S
C453 H437 0.930 . S
C453 C452 1.377 . S
C453 C454 1.379 . S
C454 H438 0.931 . S
C454 C448 1.383 . S
C454 C453 1.379 . S
H455 C449 0.959 . S
H456 C449 0.961 . S
H457 C449 0.960 . S
H458 C450 0.930 . S
H459 C451 0.929 . S
H460 C468 0.929 . S
H461 C470 0.930 . S
H462 C472 0.930 . S
H463 C475 0.929 . S
H464 C478 0.930 . S
H465 C480 0.961 1_456 S
H466 C480 0.959 . S
H467 C480 0.960 1_456 S
C468 H460 0.929 . S
C468 C469 1.377 . S
C468 C470 1.384 . S
C469 C468 1.377 . S
C469 C475 1.390 . S
C470 H461 0.930 . S
C470 C468 1.384 . S
C470 C471 1.372 . S
C471 C470 1.372 . S
C471 C472 1.400 1_554 S
C471 C476 1.490 1_554 S
C472 H462 0.930 . S
C472 C471 1.400 1_556 S
C472 C475 1.386 1_556 S
H473 C489 0.930 1_455 S
H474 C490 0.931 . S
C475 H463 0.929 . S
C475 C469 1.390 . S
C475 C472 1.386 1_554 S
C476 C471 1.490 1_556 S
C476 C478 1.395 . S
C476 C479 1.403 . S
H477 C483 0.989 . S
C478 H464 0.930 . S
C478 C476 1.395 . S
C478 C481 1.403 . S
C479 C476 1.403 . S
C479 C480 1.520 1_556 S
C479 C483 1.400 . S
C480 H465 0.961 1_654 S
C480 H466 0.959 . S
C480 H467 0.960 1_654 S
C480 C479 1.520 1_554 S
C481 C478 1.403 . S
C481 C482 1.392 . S
C481 C485 1.495 . S
C482 C481 1.392 . S
C482 C483 1.385 . S
C482 C484 1.478 . S
C483 H477 0.989 . S
C483 C479 1.400 . S
C483 C482 1.385 . S
C484 C482 1.478 . S
C484 C486 1.381 . S
C484 C490 1.383 . S
C485 C481 1.495 . S
C485 H491 0.959 . S
C485 H492 0.961 . S
C485 H493 0.960 . S
C486 C484 1.381 . S
C486 C487 1.394 . S
C486 H494 0.930 . S
C487 C486 1.394 . S
C487 C488 1.383 . S
C487 H495 0.929 . S
C488 C487 1.383 . S
C488 C489 1.377 . S
C489 H473 0.930 1_655 S
C489 C488 1.377 . S
C489 C490 1.379 . S
C490 H474 0.931 . S
C490 C484 1.383 . S
C490 C489 1.379 . S
H491 C485 0.959 . S
H492 C485 0.961 . S
H493 C485 0.960 . S
H494 C486 0.930 . S
H495 C487 0.929 . S
H496 C504 0.929 . S
H497 C506 0.930 . S
H498 C508 0.930 . S
H499 C511 0.929 . S
H500 C514 0.930 . S
H501 C516 0.960 . S
H502 C516 0.960 . S
H503 C516 0.960 . S
C504 H496 0.929 . S
C504 C505 1.377 . S
C504 C506 1.384 . S
C505 C504 1.377 . S
C505 C511 1.390 . S
C506 H497 0.930 . S
C506 C504 1.384 . S
C506 C507 1.372 . S
C507 C506 1.372 . S
C507 C508 1.400 . S
C507 C512 1.490 . S
C508 H498 0.930 . S
C508 C507 1.400 . S
C508 C511 1.386 . S
H509 C525 0.930 . S
H510 C526 0.931 . S
C511 H499 0.929 . S
C511 C505 1.390 . S
C511 C508 1.386 . S
C512 C507 1.490 . S
C512 C514 1.395 . S
C512 C515 1.403 . S
H513 C519 0.930 . S
C514 H500 0.930 . S
C514 C512 1.395 . S
C514 C517 1.403 . S
C515 C512 1.403 . S
C515 C516 1.524 . S
C515 C519 1.400 . S
C516 H501 0.960 . S
C516 H502 0.960 . S
C516 H503 0.960 . S
C516 C515 1.524 . S
C517 C514 1.403 . S
C517 C518 1.392 . S
C517 C521 1.495 . S
C518 C517 1.392 . S
C518 C519 1.385 . S
C518 C520 1.478 . S
C519 H513 0.930 . S
C519 C515 1.400 . S
C519 C518 1.385 . S
C520 C518 1.478 . S
C520 C522 1.383 . S
C520 C526 1.383 . S
C521 C517 1.495 . S
C521 H527 0.959 . S
C521 H528 0.961 . S
C521 H529 0.960 . S
C522 C520 1.383 . S
C522 C523 1.394 1_455 S
C522 H530 0.929 1_455 S
C523 C522 1.394 1_655 S
C523 C524 1.383 1_655 S
C523 H531 0.929 . S
C524 C523 1.383 1_455 S
C524 C525 1.377 . S
C525 H509 0.930 . S
C525 C524 1.377 . S
C525 C526 1.379 . S
C526 H510 0.931 . S
C526 C520 1.383 . S
C526 C525 1.379 . S
H527 C521 0.959 . S
H528 C521 0.961 . S
H529 C521 0.960 . S
H530 C522 0.929 1_655 S
H531 C523 0.929 . S
H532 C540 0.929 . S
H533 C542 0.930 . S
H534 C544 0.930 . S
H535 C547 0.929 . S
H536 C550 0.930 . S
H537 C552 0.960 . S
H538 C552 0.960 . S
H539 C552 0.960 . S
C540 H532 0.929 . S
C540 C541 1.393 . S
C540 C542 1.384 . S
C541 C540 1.393 . S
C541 C547 1.374 1_545 S
C542 H533 0.930 . S
C542 C540 1.384 . S
C542 C543 1.359 1_545 S
C543 C542 1.359 1_565 S
C543 C544 1.413 . S
C543 C548 1.490 . S
C544 H534 0.930 . S
C544 C543 1.413 . S
C544 C547 1.386 . S
H545 C561 0.930 . S
H546 C562 0.931 . S
C547 H535 0.929 . S
C547 C541 1.374 1_565 S
C547 C544 1.386 . S
C548 C543 1.490 . S
C548 C550 1.367 1_565 S
C548 C551 1.430 . S
H549 C555 0.930 . S
C550 H536 0.930 . S
C550 C548 1.367 1_545 S
C550 C553 1.403 . S
C551 C548 1.430 . S
C551 C552 1.524 . S
C551 C555 1.400 . S
C552 H537 0.960 . S
C552 H538 0.960 . S
C552 H539 0.960 . S
C552 C551 1.524 . S
C553 C550 1.403 . S
C553 C554 1.366 1_545 S
C553 C557 1.495 . S
C554 C553 1.366 1_565 S
C554 C555 1.412 . S
C554 C556 1.480 . S
C555 H549 0.930 . S
C555 C551 1.400 . S
C555 C554 1.412 . S
C556 C554 1.480 . S
C556 C558 1.381 1_565 S
C556 C562 1.383 . S
C557 C553 1.495 . S
C557 H563 0.959 . S
C557 H564 0.961 . S
C557 H565 0.960 . S
C558 C556 1.381 1_545 S
C558 C559 1.394 . S
C558 H566 0.930 . S
C559 C558 1.394 . S
C559 C560 1.383 1_545 S
C559 H567 0.929 . S
C560 C559 1.383 1_565 S
C560 C561 1.377 . S
C561 H545 0.930 . S
C561 C560 1.377 . S
C561 C562 1.379 . S
C562 H546 0.931 . S
C562 C556 1.383 . S
C562 C561 1.379 . S
H563 C557 0.959 . S
H564 C557 0.961 . S
H565 C557 0.960 . S
H566 C558 0.930 . S
H567 C559 0.929 . S
H568 C576 0.929 . S
H569 C578 0.930 . S
H570 C580 0.930 . S
H571 C583 0.929 . S
H572 C586 0.930 . S
H573 C588 0.960 . S
H574 C588 0.960 . S
H575 C588 0.960 . S
C576 H568 0.929 . S
C576 C577 1.377 . S
C576 C578 1.384 . S
C577 C576 1.377 . S
C577 C583 1.390 . S
C578 H569 0.930 . S
C578 C576 1.384 . S
C578 C579 1.372 . S
C579 C578 1.372 . S
C579 C580 1.400 . S
C579 C584 1.490 . S
C580 H570 0.930 . S
C580 C579 1.400 . S
C580 C583 1.386 . S
H581 C597 0.930 . S
H582 C598 0.931 . S
C583 H571 0.929 . S
C583 C577 1.390 . S
C583 C580 1.386 . S
C584 C579 1.490 . S
C584 C586 1.395 . S
C584 C587 1.403 . S
H585 C591 0.930 . S
C586 H572 0.930 . S
C586 C584 1.395 . S
C586 C589 1.403 . S
C587 C584 1.403 . S
C587 C588 1.524 . S
C587 C591 1.400 . S
C588 H573 0.960 . S
C588 H574 0.960 . S
C588 H575 0.960 . S
C588 C587 1.524 . S
C589 C586 1.403 . S
C589 C590 1.392 . S
C589 C593 1.495 . S
C590 C589 1.392 . S
C590 C591 1.385 . S
C590 C592 1.478 . S
C591 H585 0.930 . S
C591 C587 1.400 . S
C591 C590 1.385 . S
C592 C590 1.478 . S
C592 C594 1.381 . S
C592 C598 1.383 . S
C593 C589 1.495 . S
C593 H599 0.959 . S
C593 H600 0.961 . S
C593 H601 0.960 . S
C594 C592 1.381 . S
C594 C595 1.394 . S
C594 H602 0.930 . S
C595 C594 1.394 . S
C595 C596 1.383 . S
C595 H603 0.929 . S
C596 C595 1.383 . S
C596 C597 1.377 . S
C597 H581 0.930 . S
C597 C596 1.377 . S
C597 C598 1.379 . S
C598 H582 0.931 . S
C598 C592 1.383 . S
C598 C597 1.379 . S
H599 C593 0.959 . S
H600 C593 0.961 . S
H601 C593 0.960 . S
H602 C594 0.930 . S
H603 C595 0.929 . S
H604 C612 0.929 . S
H605 C614 0.930 . S
H606 C616 0.930 . S
H607 C619 0.929 . S
H608 C622 0.930 . S
H609 C624 0.960 . S
H610 C624 0.960 . S
H611 C624 0.960 . S
C612 H604 0.929 . S
C612 C613 1.377 . S
C612 C614 1.384 . S
C613 C612 1.377 . S
C613 C619 1.390 . S
C614 H605 0.930 . S
C614 C612 1.384 . S
C614 C615 1.372 . S
C615 C614 1.372 . S
C615 C616 1.400 . S
C615 C620 1.490 . S
C616 H606 0.930 . S
C616 C615 1.400 . S
C616 C619 1.386 . S
H617 C633 0.930 . S
H618 C634 0.931 . S
C619 H607 0.929 . S
C619 C613 1.390 . S
C619 C616 1.386 . S
C620 C615 1.490 . S
C620 C622 1.395 . S
C620 C623 1.403 . S
H621 C627 0.930 . S
C622 H608 0.930 . S
C622 C620 1.395 . S
C622 C625 1.403 . S
C623 C620 1.403 . S
C623 C624 1.524 . S
C623 C627 1.400 . S
C624 H609 0.960 . S
C624 H610 0.960 . S
C624 H611 0.960 . S
C624 C623 1.524 . S
C625 C622 1.403 . S
C625 C626 1.392 . S
C625 C629 1.495 . S
C626 C625 1.392 . S
C626 C627 1.385 . S
C626 C628 1.478 . S
C627 H621 0.930 . S
C627 C623 1.400 . S
C627 C626 1.385 . S
C628 C626 1.478 . S
C628 C630 1.381 . S
C628 C634 1.383 . S
C629 C625 1.495 . S
C629 H635 0.959 . S
C629 H636 0.961 . S
C629 H637 0.960 . S
C630 C628 1.381 . S
C630 C631 1.394 . S
C630 H638 0.930 . S
C631 C630 1.394 . S
C631 C632 1.383 . S
C631 H639 0.929 . S
C632 C631 1.383 . S
C632 C633 1.377 . S
C633 H617 0.930 . S
C633 C632 1.377 . S
C633 C634 1.379 . S
C634 H618 0.931 . S
C634 C628 1.383 . S
C634 C633 1.379 . S
H635 C629 0.959 . S
H636 C629 0.961 . S
H637 C629 0.960 . S
H638 C630 0.930 . S
H639 C631 0.929 . S
H640 C648 0.929 1_556 S
H641 C650 0.930 . S
H642 C652 0.930 . S
H643 C655 0.929 . S
H644 C658 0.930 . S
H645 C660 0.982 1_556 S
H646 C660 0.949 1_656 S
H647 C660 0.973 1_655 S
C648 H640 0.929 1_554 S
C648 C649 1.377 . S
C648 C650 1.384 1_554 S
C649 C648 1.377 . S
C649 C655 1.390 . S
C650 H641 0.930 . S
C650 C648 1.384 1_556 S
C650 C651 1.372 1_556 S
C651 C650 1.372 1_554 S
C651 C652 1.400 . S
C651 C656 1.490 1_554 S
C652 H642 0.930 . S
C652 C651 1.400 . S
C652 C655 1.386 . S
H653 C669 0.930 . S
H654 C670 0.931 . S
C655 H643 0.929 . S
C655 C649 1.390 . S
C655 C652 1.386 . S
C656 C651 1.490 1_556 S
C656 C658 1.395 . S
C656 C659 1.403 . S
H657 C663 0.930 1_455 S
C658 H644 0.930 . S
C658 C656 1.395 . S
C658 C661 1.403 . S
C659 C656 1.403 . S
C659 C660 1.501 1_656 S
C659 C663 1.400 . S
C660 H645 0.982 1_554 S
C660 H646 0.949 1_454 S
C660 H647 0.973 1_455 S
C660 C659 1.501 1_454 S
C661 C658 1.403 . S
C661 C662 1.392 . S
C661 C665 1.495 . S
C662 C661 1.392 . S
C662 C663 1.385 . S
C662 C664 1.478 . S
C663 H657 0.930 1_655 S
C663 C659 1.400 . S
C663 C662 1.385 . S
C664 C662 1.478 . S
C664 C666 1.381 . S
C664 C670 1.383 . S
C665 C661 1.495 . S
C665 H671 0.959 . S
C665 H672 0.961 . S
C665 H673 0.960 . S
C666 C664 1.381 . S
C666 C667 1.394 . S
C666 H674 0.930 . S
C667 C666 1.394 . S
C667 C668 1.383 1_655 S
C667 H675 0.929 . S
C668 C667 1.383 1_455 S
C668 C669 1.377 . S
C669 H653 0.930 . S
C669 C668 1.377 . S
C669 C670 1.379 1_455 S
C670 H654 0.931 . S
C670 C664 1.383 . S
C670 C669 1.379 1_655 S
H671 C665 0.959 . S
H672 C665 0.961 . S
H673 C665 0.960 . S
H674 C666 0.930 . S
H675 C667 0.929 . S
H676 C684 0.929 . S
H677 C686 0.930 . S
H678 C688 0.930 . S
H679 C691 0.929 . S
H680 C694 0.930 . S
H681 C696 0.960 . S
H682 C696 0.960 . S
H683 C696 0.960 . S
C684 H676 0.929 . S
C684 C685 1.374 1_545 S
C684 C686 1.384 . S
C685 C684 1.374 1_565 S
C685 C691 1.393 1_554 S
C686 H677 0.930 . S
C686 C684 1.384 . S
C686 C687 1.372 1_554 S
C687 C686 1.372 1_556 S
C687 C688 1.400 1_545 S
C687 C692 1.490 . S
C688 H678 0.930 . S
C688 C687 1.400 1_565 S
C688 C691 1.386 . S
H689 C705 0.930 . S
H690 C706 0.931 . S
C691 H679 0.929 . S
C691 C685 1.393 1_556 S
C691 C688 1.386 . S
C692 C687 1.490 . S
C692 C694 1.395 . S
C692 C695 1.403 1_545 S
H693 C699 0.930 . S
C694 H680 0.930 . S
C694 C692 1.395 . S
C694 C697 1.403 . S
C695 C692 1.403 1_565 S
C695 C696 1.524 . S
C695 C699 1.400 . S
C696 H681 0.960 . S
C696 H682 0.960 . S
C696 H683 0.960 . S
C696 C695 1.524 . S
C697 C694 1.403 . S
C697 C698 1.392 . S
C697 C701 1.495 . S
C698 C697 1.392 . S
C698 C699 1.385 1_545 S
C698 C700 1.478 . S
C699 H693 0.930 . S
C699 C695 1.400 . S
C699 C698 1.385 1_565 S
C700 C698 1.478 . S
C700 C702 1.381 . S
C700 C706 1.383 . S
C701 C697 1.495 . S
C701 H707 0.959 . S
C701 H708 0.961 . S
C701 H709 0.960 . S
C702 C700 1.381 . S
C702 C703 1.394 . S
C702 H710 0.930 . S
C703 C702 1.394 . S
C703 C704 1.383 . S
C703 H711 0.929 . S
C704 C703 1.383 . S
C704 C705 1.377 . S
C705 H689 0.930 . S
C705 C704 1.377 . S
C705 C706 1.379 . S
C706 H690 0.931 . S
C706 C700 1.383 . S
C706 C705 1.379 . S
H707 C701 0.959 . S
H708 C701 0.961 . S
H709 C701 0.960 . S
H710 C702 0.930 . S
H711 C703 0.929 . S
H712 C720 0.929 1_556 S
H713 C722 0.930 . S
H714 C724 0.930 . S
H715 C727 0.929 . S
H716 C730 0.930 . S
H717 C732 0.960 . S
H718 C732 0.960 . S
H719 C732 0.960 1_554 S
C720 H712 0.929 1_554 S
C720 C721 1.377 . S
C720 C722 1.384 1_554 S
C721 C720 1.377 . S
C721 C727 1.390 . S
C722 H713 0.930 . S
C722 C720 1.384 1_556 S
C722 C723 1.372 1_556 S
C723 C722 1.372 1_554 S
C723 C724 1.400 . S
C723 C728 1.490 1_554 S
C724 H714 0.930 . S
C724 C723 1.400 . S
C724 C727 1.386 . S
H725 C741 0.930 . S
H726 C742 0.931 . S
C727 H715 0.929 . S
C727 C721 1.390 . S
C727 C724 1.386 . S
C728 C723 1.490 1_556 S
C728 C730 1.395 . S
C728 C731 1.403 . S
H729 C735 0.930 . S
C730 H716 0.930 . S
C730 C728 1.395 . S
C730 C733 1.403 . S
C731 C728 1.403 . S
C731 C732 1.524 . S
C731 C735 1.400 . S
C732 H717 0.960 . S
C732 H718 0.960 . S
C732 H719 0.960 1_556 S
C732 C731 1.524 . S
C733 C730 1.403 . S
C733 C734 1.392 . S
C733 C737 1.495 . S
C734 C733 1.392 . S
C734 C735 1.385 . S
C734 C736 1.478 . S
C735 H729 0.930 . S
C735 C731 1.400 . S
C735 C734 1.385 . S
C736 C734 1.478 . S
C736 C738 1.381 . S
C736 C742 1.383 . S
C737 C733 1.495 . S
C737 H743 0.959 . S
C737 H744 0.961 . S
C737 H745 0.960 . S
C738 C736 1.381 . S
C738 C739 1.394 . S
C738 H746 0.930 . S
C739 C738 1.394 . S
C739 C740 1.383 . S
C739 H747 0.929 . S
C740 C739 1.383 . S
C740 C741 1.377 . S
C741 H725 0.930 . S
C741 C740 1.377 . S
C741 C742 1.379 . S
C742 H726 0.931 . S
C742 C736 1.383 . S
C742 C741 1.379 . S
H743 C737 0.959 . S
H744 C737 0.961 . S
H745 C737 0.960 . S
H746 C738 0.930 . S
H747 C739 0.929 . S
H748 C756 0.929 . S
H749 C758 0.930 . S
H750 C760 0.930 . S
H751 C763 0.929 . S
H752 C766 0.930 . S
H753 C768 0.960 . S
H754 C768 0.960 . S
H755 C768 0.960 . S
C756 H748 0.929 . S
C756 C757 1.377 . S
C756 C758 1.384 . S
C757 C756 1.377 . S
C757 C763 1.390 . S
C758 H749 0.930 . S
C758 C756 1.384 . S
C758 C759 1.372 . S
C759 C758 1.372 . S
C759 C760 1.400 . S
C759 C764 1.490 . S
C760 H750 0.930 . S
C760 C759 1.400 . S
C760 C763 1.386 . S
H761 C777 0.930 . S
H762 C778 0.931 . S
C763 H751 0.929 . S
C763 C757 1.390 . S
C763 C760 1.386 . S
C764 C759 1.490 . S
C764 C766 1.395 1_554 S
C764 C767 1.403 . S
H765 C771 0.930 . S
C766 H752 0.930 . S
C766 C764 1.395 1_556 S
C766 C769 1.403 . S
C767 C764 1.403 . S
C767 C768 1.524 . S
C767 C771 1.400 . S
C768 H753 0.960 . S
C768 H754 0.960 . S
C768 H755 0.960 . S
C768 C767 1.524 . S
C769 C766 1.403 . S
C769 C770 1.392 . S
C769 C773 1.495 . S
C770 C769 1.392 . S
C770 C771 1.385 1_556 S
C770 C772 1.478 . S
C771 H765 0.930 . S
C771 C767 1.400 . S
C771 C770 1.385 1_554 S
C772 C770 1.478 . S
C772 C774 1.381 . S
C772 C778 1.383 . S
C773 C769 1.495 . S
C773 H779 0.959 . S
C773 H780 0.961 . S
C773 H781 0.960 . S
C774 C772 1.381 . S
C774 C775 1.394 . S
C774 H782 0.930 . S
C775 C774 1.394 . S
C775 C776 1.383 . S
C775 H783 0.929 . S
C776 C775 1.383 . S
C776 C777 1.377 . S
C777 H761 0.930 . S
C777 C776 1.377 . S
C777 C778 1.379 . S
C778 H762 0.931 . S
C778 C772 1.383 . S
C778 C777 1.379 . S
H779 C773 0.959 . S
H780 C773 0.961 . S
H781 C773 0.960 . S
H782 C774 0.930 . S
H783 C775 0.929 . S
H784 C792 0.929 . S
H785 C794 0.930 . S
H786 C796 0.930 . S
H787 C799 0.929 . S
H788 C802 0.930 . S
H789 C804 0.960 . S
H790 C804 0.960 . S
H791 C804 0.960 . S
C792 H784 0.929 . S
C792 C793 1.377 . S
C792 C794 1.384 . S
C793 C792 1.377 . S
C793 C799 1.390 . S
C794 H785 0.930 . S
C794 C792 1.384 . S
C794 C795 1.372 . S
C795 C794 1.372 . S
C795 C796 1.400 . S
C795 C800 1.490 . S
C796 H786 0.930 . S
C796 C795 1.400 . S
C796 C799 1.386 . S
H797 C813 0.930 . S
H798 C814 0.931 . S
C799 H787 0.929 . S
C799 C793 1.390 . S
C799 C796 1.386 . S
C800 C795 1.490 . S
C800 C802 1.395 . S
C800 C803 1.403 . S
H801 C807 0.930 . S
C802 H788 0.930 . S
C802 C800 1.395 . S
C802 C805 1.403 . S
C803 C800 1.403 . S
C803 C804 1.524 . S
C803 C807 1.400 . S
C804 H789 0.960 . S
C804 H790 0.960 . S
C804 H791 0.960 . S
C804 C803 1.524 . S
C805 C802 1.403 . S
C805 C806 1.392 . S
C805 C809 1.495 . S
C806 C805 1.392 . S
C806 C807 1.385 . S
C806 C808 1.478 . S
C807 H801 0.930 . S
C807 C803 1.400 . S
C807 C806 1.385 . S
C808 C806 1.478 . S
C808 C810 1.381 . S
C808 C814 1.383 . S
C809 C805 1.495 . S
C809 H815 0.989 . S
C809 H816 0.961 . S
C809 H817 0.943 1_455 S
C810 C808 1.381 . S
C810 C811 1.394 . S
C810 H818 0.930 . S
C811 C810 1.394 . S
C811 C812 1.383 1_554 S
C811 H819 0.929 . S
C812 C811 1.383 1_556 S
C812 C813 1.377 . S
C813 H797 0.930 . S
C813 C812 1.377 . S
C813 C814 1.379 1_556 S
C814 H798 0.931 . S
C814 C808 1.383 . S
C814 C813 1.379 1_554 S
H815 C809 0.989 . S
H816 C809 0.961 . S
H817 C809 0.943 1_655 S
H818 C810 0.930 . S
H819 C811 0.929 . S
H820 C828 0.929 . S
H821 C830 0.930 . S
H822 C832 0.922 1_565 S
H823 C835 0.938 . S
H824 C838 0.930 . S
H825 C840 0.960 . S
H826 C840 0.960 . S
H827 C840 0.960 . S
C828 H820 0.929 . S
C828 C829 1.387 . S
C828 C830 1.384 . S
C829 C828 1.387 . S
C829 C835 1.374 1_545 S
C830 H821 0.930 . S
C830 C828 1.384 . S
C830 C831 1.372 . S
C831 C830 1.372 . S
C831 C832 1.402 . S
C831 C836 1.490 . S
C832 H822 0.922 1_545 S
C832 C831 1.402 . S
C832 C835 1.390 1_545 S
H833 C849 0.933 . S
H834 C850 0.926 1_565 S
C835 H823 0.938 . S
C835 C829 1.374 1_565 S
C835 C832 1.390 1_565 S
C836 C831 1.490 . S
C836 C838 1.395 1_545 S
C836 C839 1.403 . S
H837 C843 0.930 . S
C838 H824 0.930 . S
C838 C836 1.395 1_565 S
C838 C841 1.403 . S
C839 C836 1.403 . S
C839 C840 1.524 . S
C839 C843 1.400 . S
C840 H825 0.960 . S
C840 H826 0.960 . S
C840 H827 0.960 . S
C840 C839 1.524 . S
C841 C838 1.403 . S
C841 C842 1.392 1_565 S
C841 C845 1.495 . S
C842 C841 1.392 1_545 S
C842 C843 1.385 . S
C842 C844 1.478 . S
C843 H837 0.930 . S
C843 C839 1.400 . S
C843 C842 1.385 . S
C844 C842 1.478 . S
C844 C846 1.381 . S
C844 C850 1.388 . S
C845 C841 1.495 . S
C845 H851 0.959 . S
C845 H852 0.961 . S
C845 H853 0.960 . S
C846 C844 1.381 . S
C846 C847 1.394 . S
C846 H854 0.930 . S
C847 C846 1.394 . S
C847 C848 1.383 . S
C847 H855 0.929 . S
C848 C847 1.383 . S
C848 C849 1.377 1_554 S
C849 H833 0.933 . S
C849 C848 1.377 1_556 S
C849 C850 1.380 1_556 S
C850 H834 0.926 1_545 S
C850 C844 1.388 . S
C850 C849 1.380 1_554 S
H851 C845 0.959 . S
H852 C845 0.961 . S
H853 C845 0.960 . S
H854 C846 0.930 . S
H855 C847 0.929 . S
H856 C864 0.929 . S
H857 C866 0.930 . S
H858 C868 0.930 . S
H859 C871 0.929 . S
H860 C874 0.930 . S
H861 C876 0.960 . S
H862 C876 0.960 . S
H863 C876 0.960 . S
C864 H856 0.929 . S
C864 C865 1.377 . S
C864 C866 1.384 . S
C865 C864 1.377 . S
C865 C871 1.390 . S
C866 H857 0.930 . S
C866 C864 1.384 . S
C866 C867 1.372 . S
C867 C866 1.372 . S
C867 C868 1.400 . S
C867 C872 1.490 . S
C868 H858 0.930 . S
C868 C867 1.400 . S
C868 C871 1.386 . S
H869 C885 0.930 . S
H870 C886 0.931 . S
C871 H859 0.929 . S
C871 C865 1.390 . S
C871 C868 1.386 . S
C872 C867 1.490 . S
C872 C874 1.395 . S
C872 C875 1.403 . S
H873 C879 0.930 . S
C874 H860 0.930 . S
C874 C872 1.395 . S
C874 C877 1.403 . S
C875 C872 1.403 . S
C875 C876 1.524 . S
C875 C879 1.400 . S
C876 H861 0.960 . S
C876 H862 0.960 . S
C876 H863 0.960 . S
C876 C875 1.524 . S
C877 C874 1.403 . S
C877 C878 1.392 . S
C877 C881 1.495 1_554 S
C878 C877 1.392 . S
C878 C879 1.385 . S
C878 C880 1.478 . S
C879 H873 0.930 . S
C879 C875 1.400 . S
C879 C878 1.385 . S
C880 C878 1.478 . S
C880 C882 1.381 1_554 S
C880 C886 1.383 . S
C881 C877 1.495 1_556 S
C881 H887 0.959 . S
C881 H888 0.961 . S
C881 H889 0.960 . S
C882 C880 1.381 1_556 S
C882 C883 1.394 . S
C882 H890 0.930 . S
C883 C882 1.394 . S
C883 C884 1.383 . S
C883 H891 0.929 . S
C884 C883 1.383 . S
C884 C885 1.377 . S
C885 H869 0.930 . S
C885 C884 1.377 . S
C885 C886 1.379 1_556 S
C886 H870 0.931 . S
C886 C880 1.383 . S
C886 C885 1.379 1_554 S
H887 C881 0.959 . S
H888 C881 0.961 . S
H889 C881 0.960 . S
H890 C882 0.930 . S
H891 C883 0.929 . S
H892 C900 0.929 . S
H893 C902 0.930 . S
H894 C904 0.930 . S
H895 C907 0.929 . S
H896 C910 0.930 . S
H897 C912 0.960 . S
H898 C912 0.960 . S
H899 C912 0.960 . S
C900 H892 0.929 . S
C900 C901 1.377 . S
C900 C902 1.384 . S
C901 C900 1.377 . S
C901 C907 1.390 . S
C902 H893 0.930 . S
C902 C900 1.384 . S
C902 C903 1.372 . S
C903 C902 1.372 . S
C903 C904 1.400 . S
C903 C908 1.490 . S
C904 H894 0.930 . S
C904 C903 1.400 . S
C904 C907 1.386 . S
H905 C921 0.930 . S
H906 C922 0.931 . S
C907 H895 0.929 . S
C907 C901 1.390 . S
C907 C904 1.386 . S
C908 C903 1.490 . S
C908 C910 1.395 . S
C908 C911 1.403 . S
H909 C915 0.930 1_556 S
C910 H896 0.930 . S
C910 C908 1.395 . S
C910 C913 1.403 . S
C911 C908 1.403 . S
C911 C912 1.524 . S
C911 C915 1.400 . S
C912 H897 0.960 . S
C912 H898 0.960 . S
C912 H899 0.960 . S
C912 C911 1.524 . S
C913 C910 1.403 . S
C913 C914 1.392 . S
C913 C917 1.495 . S
C914 C913 1.392 . S
C914 C915 1.385 . S
C914 C916 1.478 . S
C915 H909 0.930 1_554 S
C915 C911 1.400 . S
C915 C914 1.385 . S
C916 C914 1.478 . S
C916 C918 1.381 . S
C916 C922 1.383 1_554 S
C917 C913 1.495 . S
C917 H923 0.959 . S
C917 H924 0.961 . S
C917 H925 0.960 . S
C918 C916 1.381 . S
C918 C919 1.394 1_554 S
C918 H926 0.930 . S
C919 C918 1.394 1_556 S
C919 C920 1.383 . S
C919 H927 0.929 . S
C920 C919 1.383 . S
C920 C921 1.377 . S
C921 H905 0.930 . S
C921 C920 1.377 . S
C921 C922 1.379 . S
C922 H906 0.931 . S
C922 C916 1.383 1_556 S
C922 C921 1.379 . S
H923 C917 0.959 . S
H924 C917 0.961 . S
H925 C917 0.960 . S
H926 C918 0.930 . S
H927 C919 0.929 . S
H928 C936 0.929 . S
H929 C938 0.930 . S
H930 C940 0.930 . S
H931 C943 0.929 . S
H932 C946 0.930 . S
H933 C948 0.960 . S
H934 C948 0.960 . S
H935 C948 0.960 . S
C936 H928 0.929 . S
C936 C937 1.377 . S
C936 C938 1.384 . S
C937 C936 1.377 . S
C937 C943 1.390 . S
C938 H929 0.930 . S
C938 C936 1.384 . S
C938 C939 1.372 . S
C939 C938 1.372 . S
C939 C940 1.400 . S
C939 C944 1.490 . S
C940 H930 0.930 . S
C940 C939 1.400 . S
C940 C943 1.386 . S
H941 C957 0.930 1_455 S
H942 C958 0.931 . S
C943 H931 0.929 . S
C943 C937 1.390 . S
C943 C940 1.386 . S
C944 C939 1.490 . S
C944 C946 1.395 . S
C944 C947 1.403 . S
H945 C951 0.930 . S
C946 H932 0.930 . S
C946 C944 1.395 . S
C946 C949 1.403 . S
C947 C944 1.403 . S
C947 C948 1.524 . S
C947 C951 1.400 . S
C948 H933 0.960 . S
C948 H934 0.960 . S
C948 H935 0.960 . S
C948 C947 1.524 . S
C949 C946 1.403 . S
C949 C950 1.392 . S
C949 C953 1.495 . S
C950 C949 1.392 . S
C950 C951 1.385 . S
C950 C952 1.478 . S
C951 H945 0.930 . S
C951 C947 1.400 . S
C951 C950 1.385 . S
C952 C950 1.478 . S
C952 C954 1.381 . S
C952 C958 1.383 . S
C953 C949 1.495 . S
C953 H959 0.959 . S
C953 H960 0.961 . S
C953 H961 0.960 . S
C954 C952 1.381 . S
C954 C955 1.394 . S
C954 H962 0.930 . S
C955 C954 1.394 . S
C955 C956 1.383 . S
C955 H963 0.929 . S
C956 C955 1.383 . S
C956 C957 1.377 . S
C957 H941 0.930 1_655 S
C957 C956 1.377 . S
C957 C958 1.379 . S
C958 H942 0.931 . S
C958 C952 1.383 . S
C958 C957 1.379 . S
H959 C953 0.959 . S
H960 C953 0.961 . S
H961 C953 0.960 . S
H962 C954 0.930 . S
H963 C955 0.929 . S
H964 C972 0.929 . S
H965 C974 0.930 . S
H966 C976 0.930 . S
H967 C979 0.929 . S
H968 C982 0.930 . S
H969 C984 0.960 . S
H970 C984 0.960 . S
H971 C984 0.960 . S
C972 H964 0.929 . S
C972 C973 1.406 . S
C972 C974 1.384 . S
C973 C972 1.406 . S
C973 C979 1.360 1_565 S
C974 H965 0.930 . S
C974 C972 1.384 . S
C974 C975 1.372 . S
C975 C974 1.372 . S
C975 C976 1.400 1_565 S
C975 C980 1.490 . S
C976 H966 0.930 . S
C976 C975 1.400 1_545 S
C976 C979 1.386 . S
H977 C993 0.930 . S
H978 C994 0.931 . S
C979 H967 0.929 . S
C979 C973 1.360 1_545 S
C979 C976 1.386 . S
C980 C975 1.490 . S
C980 C982 1.395 . S
C980 C983 1.403 1_565 S
H981 C987 0.930 . S
C982 H968 0.930 . S
C982 C980 1.395 . S
C982 C985 1.403 . S
C983 C980 1.403 1_545 S
C983 C984 1.524 . S
C983 C987 1.400 . S
C984 H969 0.960 . S
C984 H970 0.960 . S
C984 H971 0.960 . S
C984 C983 1.524 . S
C985 C982 1.403 . S
C985 C986 1.392 . S
C985 C989 1.495 . S
C986 C985 1.392 . S
C986 C987 1.385 1_565 S
C986 C988 1.478 . S
C987 H981 0.930 . S
C987 C983 1.400 . S
C987 C986 1.385 1_545 S
C988 C986 1.478 . S
C988 C990 1.381 . S
C988 C994 1.383 1_565 S
C989 C985 1.495 . S
C989 H995 0.959 . S
C989 H996 0.961 . S
C989 H997 0.960 . S
C990 C988 1.381 . S
C990 C991 1.394 . S
C990 H998 0.930 . S
C991 C990 1.394 . S
C991 C992 1.383 . S
C991 H999 0.929 . S
C992 C991 1.383 . S
C992 C993 1.377 1_565 S
C993 H977 0.930 . S
C993 C992 1.377 1_545 S
C993 C994 1.379 . S
C994 H978 0.931 . S
C994 C988 1.383 1_545 S
C994 C993 1.379 . S
H995 C989 0.959 . S
H996 C989 0.961 . S
H997 C989 0.960 . S
H998 C990 0.930 . S
H999 C991 0.929 . S
H1000 C1008 0.929 . S
H1001 C1010 0.930 . S
H1002 C1012 0.930 . S
H1003 C1015 0.929 . S
H1004 C1018 0.930 . S
H1005 C1020 0.960 . S
H1006 C1020 0.960 . S
H1007 C1020 0.960 . S
C1008 H1000 0.929 . S
C1008 C1009 1.377 . S
C1008 C1010 1.384 . S
C1009 C1008 1.377 . S
C1009 C1015 1.390 . S
C1010 H1001 0.930 . S
C1010 C1008 1.384 . S
C1010 C1011 1.372 . S
C1011 C1010 1.372 . S
C1011 C1012 1.400 . S
C1011 C1016 1.490 . S
C1012 H1002 0.930 . S
C1012 C1011 1.400 . S
C1012 C1015 1.386 . S
H1013 C1029 0.930 . S
H1014 C1030 0.931 . S
C1015 H1003 0.929 . S
C1015 C1009 1.390 . S
C1015 C1012 1.386 . S
C1016 C1011 1.490 . S
C1016 C1018 1.395 . S
C1016 C1019 1.403 . S
H1017 C1023 0.930 . S
C1018 H1004 0.930 . S
C1018 C1016 1.395 . S
C1018 C1021 1.403 . S
C1019 C1016 1.403 . S
C1019 C1020 1.524 . S
C1019 C1023 1.400 . S
C1020 H1005 0.960 . S
C1020 H1006 0.960 . S
C1020 H1007 0.960 . S
C1020 C1019 1.524 . S
C1021 C1018 1.403 . S
C1021 C1022 1.392 . S
C1021 C1025 1.495 . S
C1022 C1021 1.392 . S
C1022 C1023 1.385 . S
C1022 C1024 1.478 . S
C1023 H1017 0.930 . S
C1023 C1019 1.400 . S
C1023 C1022 1.385 . S
C1024 C1022 1.478 . S
C1024 C1026 1.381 . S
C1024 C1030 1.383 . S
C1025 C1021 1.495 . S
C1025 H1031 0.959 . S
C1025 H1032 0.961 . S
C1025 H1033 0.960 . S
C1026 C1024 1.381 . S
C1026 C1027 1.394 . S
C1026 H1034 0.930 . S
C1027 C1026 1.394 . S
C1027 C1028 1.383 . S
C1027 H1035 0.929 . S
C1028 C1027 1.383 . S
C1028 C1029 1.377 . S
C1029 H1013 0.930 . S
C1029 C1028 1.377 . S
C1029 C1030 1.379 . S
C1030 H1014 0.931 . S
C1030 C1024 1.383 . S
C1030 C1029 1.379 . S
H1031 C1025 0.959 . S
H1032 C1025 0.961 . S
H1033 C1025 0.960 . S
H1034 C1026 0.930 . S
H1035 C1027 0.929 . S
H1036 C1044 0.929 . S
H1037 C1046 0.930 . S
H1038 C1048 0.930 . S
H1039 C1051 0.929 . S
H1040 C1054 0.930 . S
H1041 C1056 0.960 . S
H1042 C1056 0.960 . S
H1043 C1056 0.960 . S
C1044 H1036 0.929 . S
C1044 C1045 1.377 . S
C1044 C1046 1.384 . S
C1045 C1044 1.377 . S
C1045 C1051 1.390 . S
C1046 H1037 0.930 . S
C1046 C1044 1.384 . S
C1046 C1047 1.372 . S
C1047 C1046 1.372 . S
C1047 C1048 1.400 . S
C1047 C1052 1.490 . S
C1048 H1038 0.930 . S
C1048 C1047 1.400 . S
C1048 C1051 1.386 . S
H1049 C1065 0.930 . S
H1050 C1066 0.931 . S
C1051 H1039 0.929 . S
C1051 C1045 1.390 . S
C1051 C1048 1.386 . S
C1052 C1047 1.490 . S
C1052 C1054 1.395 . S
C1052 C1055 1.403 . S
H1053 C1059 0.930 . S
C1054 H1040 0.930 . S
C1054 C1052 1.395 . S
C1054 C1057 1.403 . S
C1055 C1052 1.403 . S
C1055 C1056 1.524 . S
C1055 C1059 1.400 . S
C1056 H1041 0.960 . S
C1056 H1042 0.960 . S
C1056 H1043 0.960 . S
C1056 C1055 1.524 . S
C1057 C1054 1.403 . S
C1057 C1058 1.392 . S
C1057 C1061 1.495 . S
C1058 C1057 1.392 . S
C1058 C1059 1.385 . S
C1058 C1060 1.478 . S
C1059 H1053 0.930 . S
C1059 C1055 1.400 . S
C1059 C1058 1.385 . S
C1060 C1058 1.478 . S
C1060 C1062 1.381 . S
C1060 C1066 1.383 . S
C1061 C1057 1.495 . S
C1061 H1067 0.959 . S
C1061 H1068 0.961 . S
C1061 H1069 0.960 . S
C1062 C1060 1.381 . S
C1062 C1063 1.394 . S
C1062 H1070 0.930 . S
C1063 C1062 1.394 . S
C1063 C1064 1.383 . S
C1063 H1071 0.929 . S
C1064 C1063 1.383 . S
C1064 C1065 1.377 . S
C1065 H1049 0.930 . S
C1065 C1064 1.377 . S
C1065 C1066 1.379 . S
C1066 H1050 0.931 . S
C1066 C1060 1.383 . S
C1066 C1065 1.379 . S
H1067 C1061 0.959 . S
H1068 C1061 0.961 . S
H1069 C1061 0.960 . S
H1070 C1062 0.930 . S
H1071 C1063 0.929 . S
C217 C74 1.583 1_565 S
C236 C98 1.583 . S
C272 C128 1.776 . S
C253 C85 1.769 . S
C308 N162 1.359 . S
C289 C52 1.373 . S
C344 N192 1.353 . S
C325 C63 1.419 . S
C380 C89 1.592 . S
C361 C30 1.581 . S
C397 C41 1.741 . S
C416 C119 1.773 . S
C433 C8 1.361 . S
C452 N154 1.316 . S
C469 C19 1.378 . S
C488 N184 1.416 . S
C524 C104 0.296 . S
C505 C62 0.143 . S
C560 C134 0.444 . S
C541 C73 0.488 . S
C596 C175 0.753 . S
C577 C84 0.766 . S
C613 C51 0.335 . S
C632 C205 0.367 . S
C649 C18 0.488 . S
C668 C115 0.177 . S
C704 C145 0.510 . S
C685 C29 0.488 1_565 S
C740 C164 0.748 . S
C721 C40 0.758 . S
C757 C7 0.411 . S
C776 C194 0.324 . S
C793 C60 1.330 . S
C812 N94 1.458 . S
C829 C71 1.218 . S
C848 N124 1.378 1_554 S
C884 C149 1.636 . S
C865 C82 1.452 . S
C920 C179 1.563 . S
C901 C49 1.317 . S
C937 C16 1.208 . S
C956 N102 1.492 . S
C992 N132 1.421 . S
C973 C27 1.217 1_565 S
C1028 C158 1.638 . S
C1009 C38 1.318 . S
C1045 C5 1.310 . S
C1064 C188 1.558 . S
