# Generated by pormake.
# Topology gar, (4,6)-cn, num edge types: 1
# Building blocks:
#     Node 0, Type 0, BuildingBlock: TATPOV_clean_sbu_0, # of connection points: 4
#     Node 1, Type 0, BuildingBlock: TATPOV_clean_sbu_0, # of connection points: 4
#     Node 2, Type 0, BuildingBlock: TATPOV_clean_sbu_0, # of connection points: 4
#     Node 3, Type 0, BuildingBlock: TATPOV_clean_sbu_0, # of connection points: 4
#     Node 4, Type 0, BuildingBlock: TATPOV_clean_sbu_0, # of connection points: 4
#     Node 5, Type 0, BuildingBlock: TATPOV_clean_sbu_0, # of connection points: 4
#     Node 6, Type 0, BuildingBlock: TATPOV_clean_sbu_0, # of connection points: 4
#     Node 7, Type 0, BuildingBlock: TATPOV_clean_sbu_0, # of connection points: 4
#     Node 8, Type 0, BuildingBlock: TATPOV_clean_sbu_0, # of connection points: 4
#     Node 9, Type 0, BuildingBlock: TATPOV_clean_sbu_0, # of connection points: 4
#     Node 10, Type 0, BuildingBlock: TATPOV_clean_sbu_0, # of connection points: 4
#     Node 11, Type 0, BuildingBlock: TATPOV_clean_sbu_0, # of connection points: 4
#     Node 12, Type 0, BuildingBlock: TATPOV_clean_sbu_0, # of connection points: 4
#     Node 13, Type 0, BuildingBlock: TATPOV_clean_sbu_0, # of connection points: 4
#     Node 14, Type 0, BuildingBlock: TATPOV_clean_sbu_0, # of connection points: 4
#     Node 15, Type 0, BuildingBlock: TATPOV_clean_sbu_0, # of connection points: 4
#     Node 16, Type 0, BuildingBlock: TATPOV_clean_sbu_0, # of connection points: 4
#     Node 17, Type 0, BuildingBlock: TATPOV_clean_sbu_0, # of connection points: 4
#     Node 18, Type 0, BuildingBlock: TATPOV_clean_sbu_0, # of connection points: 4
#     Node 19, Type 0, BuildingBlock: TATPOV_clean_sbu_0, # of connection points: 4
#     Node 20, Type 0, BuildingBlock: TATPOV_clean_sbu_0, # of connection points: 4
#     Node 21, Type 0, BuildingBlock: TATPOV_clean_sbu_0, # of connection points: 4
#     Node 22, Type 0, BuildingBlock: TATPOV_clean_sbu_0, # of connection points: 4
#     Node 23, Type 0, BuildingBlock: TATPOV_clean_sbu_0, # of connection points: 4
#     Node 24, Type 1, BuildingBlock: KUMBUR_clean_sbu_1, # of connection points: 6
#     Node 25, Type 1, BuildingBlock: KUMBUR_clean_sbu_1, # of connection points: 6
#     Node 26, Type 1, BuildingBlock: KUMBUR_clean_sbu_1, # of connection points: 6
#     Node 27, Type 1, BuildingBlock: KUMBUR_clean_sbu_1, # of connection points: 6
#     Node 28, Type 1, BuildingBlock: KUMBUR_clean_sbu_1, # of connection points: 6
#     Node 29, Type 1, BuildingBlock: KUMBUR_clean_sbu_1, # of connection points: 6
#     Node 30, Type 1, BuildingBlock: KUMBUR_clean_sbu_1, # of connection points: 6
#     Node 31, Type 1, BuildingBlock: KUMBUR_clean_sbu_1, # of connection points: 6
#     Node 32, Type 1, BuildingBlock: KUMBUR_clean_sbu_1, # of connection points: 6
#     Node 33, Type 1, BuildingBlock: KUMBUR_clean_sbu_1, # of connection points: 6
#     Node 34, Type 1, BuildingBlock: KUMBUR_clean_sbu_1, # of connection points: 6
#     Node 35, Type 1, BuildingBlock: KUMBUR_clean_sbu_1, # of connection points: 6
#     Node 36, Type 1, BuildingBlock: KUMBUR_clean_sbu_1, # of connection points: 6
#     Node 37, Type 1, BuildingBlock: KUMBUR_clean_sbu_1, # of connection points: 6
#     Node 38, Type 1, BuildingBlock: KUMBUR_clean_sbu_1, # of connection points: 6
#     Node 39, Type 1, BuildingBlock: KUMBUR_clean_sbu_1, # of connection points: 6
#     Edge 40, Type (0, 1), None
#     Edge 41, Type (0, 1), None
#     Edge 42, Type (0, 1), None
#     Edge 43, Type (0, 1), None
#     Edge 44, Type (0, 1), None
#     Edge 45, Type (0, 1), None
#     Edge 46, Type (0, 1), None
#     Edge 47, Type (0, 1), None
#     Edge 48, Type (0, 1), None
#     Edge 49, Type (0, 1), None
#     Edge 50, Type (0, 1), None
#     Edge 51, Type (0, 1), None
#     Edge 52, Type (0, 1), None
#     Edge 53, Type (0, 1), None
#     Edge 54, Type (0, 1), None
#     Edge 55, Type (0, 1), None
#     Edge 56, Type (0, 1), None
#     Edge 57, Type (0, 1), None
#     Edge 58, Type (0, 1), None
#     Edge 59, Type (0, 1), None
#     Edge 60, Type (0, 1), None
#     Edge 61, Type (0, 1), None
#     Edge 62, Type (0, 1), None
#     Edge 63, Type (0, 1), None
#     Edge 64, Type (0, 1), None
#     Edge 65, Type (0, 1), None
#     Edge 66, Type (0, 1), None
#     Edge 67, Type (0, 1), None
#     Edge 68, Type (0, 1), None
#     Edge 69, Type (0, 1), None
#     Edge 70, Type (0, 1), None
#     Edge 71, Type (0, 1), None
#     Edge 72, Type (0, 1), None
#     Edge 73, Type (0, 1), None
#     Edge 74, Type (0, 1), None
#     Edge 75, Type (0, 1), None
#     Edge 76, Type (0, 1), None
#     Edge 77, Type (0, 1), None
#     Edge 78, Type (0, 1), None
#     Edge 79, Type (0, 1), None
#     Edge 80, Type (0, 1), None
#     Edge 81, Type (0, 1), None
#     Edge 82, Type (0, 1), None
#     Edge 83, Type (0, 1), None
#     Edge 84, Type (0, 1), None
#     Edge 85, Type (0, 1), None
#     Edge 86, Type (0, 1), None
#     Edge 87, Type (0, 1), None
#     Edge 88, Type (0, 1), None
#     Edge 89, Type (0, 1), None
#     Edge 90, Type (0, 1), None
#     Edge 91, Type (0, 1), None
#     Edge 92, Type (0, 1), None
#     Edge 93, Type (0, 1), None
#     Edge 94, Type (0, 1), None
#     Edge 95, Type (0, 1), None
#     Edge 96, Type (0, 1), None
#     Edge 97, Type (0, 1), None
#     Edge 98, Type (0, 1), None
#     Edge 99, Type (0, 1), None
#     Edge 100, Type (0, 1), None
#     Edge 101, Type (0, 1), None
#     Edge 102, Type (0, 1), None
#     Edge 103, Type (0, 1), None
#     Edge 104, Type (0, 1), None
#     Edge 105, Type (0, 1), None
#     Edge 106, Type (0, 1), None
#     Edge 107, Type (0, 1), None
#     Edge 108, Type (0, 1), None
#     Edge 109, Type (0, 1), None
#     Edge 110, Type (0, 1), None
#     Edge 111, Type (0, 1), None
#     Edge 112, Type (0, 1), None
#     Edge 113, Type (0, 1), None
#     Edge 114, Type (0, 1), None
#     Edge 115, Type (0, 1), None
#     Edge 116, Type (0, 1), None
#     Edge 117, Type (0, 1), None
#     Edge 118, Type (0, 1), None
#     Edge 119, Type (0, 1), None
#     Edge 120, Type (0, 1), None
#     Edge 121, Type (0, 1), None
#     Edge 122, Type (0, 1), None
#     Edge 123, Type (0, 1), None
#     Edge 124, Type (0, 1), None
#     Edge 125, Type (0, 1), None
#     Edge 126, Type (0, 1), None
#     Edge 127, Type (0, 1), None
#     Edge 128, Type (0, 1), None
#     Edge 129, Type (0, 1), None
#     Edge 130, Type (0, 1), None
#     Edge 131, Type (0, 1), None
#     Edge 132, Type (0, 1), None
#     Edge 133, Type (0, 1), None
#     Edge 134, Type (0, 1), None
#     Edge 135, Type (0, 1), None
# Relax obj value: 0.231
# Max RMSD: 0.249
# Mean RMSD: 0.157
data_MOF--net-gar--node1-TATPOV_clean_sbu_0--node2-KUMBUR_clean_sbu_1--edge1-none
_symmetry_space_group_name_H-M    P1
_symmetry_Int_Tables_number       1
_symmetry_cell_setting            triclinic
loop_
_symmetry_equiv_pos_as_xyz
'x, y, z'
_cell_length_a     29.414412
_cell_length_b     28.845675
_cell_length_c     27.212664
_cell_angle_alpha  98.594659
_cell_angle_beta   100.73493
_cell_angle_gamma 105.59867
loop_
_atom_site_label
_atom_site_type_symbol
_atom_site_fract_x
_atom_site_fract_y
_atom_site_fract_z
_atom_type_partial_charge
Zn0 Zn 0.08162 0.39658 0.44442 0.0
Zn1 Zn 0.12769 0.41798 0.37572 0.0
O2 O 0.13223 0.48069 0.44774 0.0
O3 O 0.09672 0.44693 0.50447 0.0
O4 O 0.20962 0.40812 0.35541 0.0
O5 O 0.12226 0.34889 0.45499 0.0
O6 O 0.09707 0.34272 0.37506 0.0
C7 C 0.11824 0.48528 0.49135 0.0
C8 C 1.00779 0.40126 0.34803 0.0
O9 O 0.04691 0.41355 0.32923 0.0
O10 O 1.01538 0.39255 0.39294 0.0
C11 C 0.2568 0.41473 0.35183 0.0
O12 O 0.28883 0.45784 0.37317 0.0
C13 C 0.10131 0.32107 0.41225 0.0
Zn14 Zn 0.08989 0.79233 0.77542 0.0
Zn15 Zn 0.08404 0.83147 0.70663 0.0
O16 O 1.0108 0.8271 0.72343 0.0
O17 O 1.01843 0.80305 0.79443 0.0
O18 O 0.07703 0.87945 0.66491 0.0
O19 O 0.17339 0.82706 0.79837 0.0
O20 O 0.16733 0.86317 0.73504 0.0
C21 C 0.99145 0.81767 0.76096 0.0
C22 C 0.07915 0.7269 0.67323 0.0
O23 O 0.07796 0.76588 0.65749 0.0
O24 O 0.08042 0.7274 0.72035 0.0
C25 C 0.09153 0.87123 0.6253 0.0
O26 O 0.07739 0.82583 0.59936 0.0
C27 C 0.19617 0.85274 0.77044 0.0
Zn28 Zn 0.58326 0.89267 0.94933 0.0
Zn29 Zn 0.63105 0.91398 0.88189 0.0
O30 O 0.63526 0.97701 0.95354 0.0
O31 O 0.59826 0.94342 0.00935 0.0
O32 O 0.71294 0.90627 0.86015 0.0
O33 O 0.61939 0.84213 0.96375 0.0
O34 O 0.60298 0.83814 0.88313 0.0
C35 C 0.62065 0.98171 -0.00322 0.0
C36 C 0.51053 0.89731 0.85229 0.0
O37 O 0.55022 0.90933 0.8343 0.0
O38 O 0.51726 0.8885 0.89724 0.0
C39 C 0.75992 0.91356 0.85562 0.0
O40 O 0.7917 0.95686 0.87674 0.0
C41 C 0.6033 0.81531 0.91985 0.0
Zn42 Zn 0.58661 0.29092 0.27366 0.0
Zn43 Zn 0.58041 0.3293 0.20458 0.0
O44 O 0.50722 0.32538 0.22181 0.0
O45 O 0.5155 0.30216 0.29324 0.0
O46 O 0.57328 0.37559 0.16118 0.0
O47 O 0.67021 0.32647 0.2963 0.0
O48 O 0.66354 0.36237 0.23292 0.0
C49 C 0.48824 0.31648 0.25973 0.0
C50 C 0.57569 0.22455 0.17178 0.0
O51 O 0.5749 0.2635 0.15601 0.0
O52 O 0.57639 0.22523 0.21885 0.0
C53 C 0.58929 0.36609 0.12284 0.0
O54 O 0.57449 0.32072 0.09676 0.0
C55 C 0.69272 0.35234 0.26831 0.0
Zn56 Zn 0.17195 0.87204 0.09699 0.0
Zn57 Zn 0.13228 0.87198 0.16538 0.0
O58 O 0.12958 0.94911 0.145 0.0
O59 O 0.15584 0.94529 0.07653 0.0
O60 O 0.0826 0.86066 0.20763 0.0
O61 O 0.13801 0.785 0.06758 0.0
O62 O 0.10568 0.7854 0.13174 0.0
C63 C 0.13812 0.97056 0.10716 0.0
C64 C 0.24038 0.88547 0.20384 0.0
O65 O 0.20111 0.88462 0.21747 0.0
O66 O 0.23905 0.88431 0.1563 0.0
C67 C 0.09247 0.83069 0.23441 0.0
O68 O 0.13679 0.82814 0.24406 0.0
C69 C 0.11371 0.75817 0.09381 0.0
Zn70 Zn 0.50197 0.81264 0.49772 0.0
Zn71 Zn 0.56157 0.82135 0.45228 0.0
O72 O 0.58234 0.90573 0.48869 0.0
O73 O 0.52658 0.89645 0.5293 0.0
O74 O 0.6216 0.83279 0.42752 0.0
O75 O 0.51506 0.74148 0.52433 0.0
O76 O 0.56321 0.7431 0.4745 0.0
C77 C 0.56005 0.9277 0.51668 0.0
C78 C 0.45935 0.81245 0.38694 0.0
O79 O 0.5037 0.81702 0.38637 0.0
O80 O 0.44721 0.8052 0.42857 0.0
C81 C 0.61955 0.84639 0.38548 0.0
O82 O 0.57821 0.83119 0.35105 0.0
C83 C 0.54319 0.71931 0.50622 0.0
Zn84 Zn 0.67081 0.37265 0.59612 0.0
Zn85 Zn 0.63246 0.37291 0.6655 0.0
O86 O 0.62848 0.44977 0.64466 0.0
O87 O 0.65421 0.44558 0.57575 0.0
O88 O 0.58547 0.35884 0.71033 0.0
O89 O 0.63665 0.2856 0.56649 0.0
O90 O 0.60499 0.2864 0.63084 0.0
C91 C 0.63663 0.47093 0.60646 0.0
C92 C 0.74065 0.38767 0.70286 0.0
O93 O 0.70177 0.38718 0.71711 0.0
O94 O 0.7385 0.38566 0.65507 0.0
C95 C 0.59595 0.32472 0.73038 0.0
O96 O 0.63902 0.31951 0.73237 0.0
C97 C 0.61256 0.25895 0.59295 0.0
Zn98 Zn 1.00263 0.3116 0.99577 0.0
Zn99 Zn 0.06275 0.32103 0.95253 0.0
O100 O 0.08324 0.40484 0.99067 0.0
O101 O 1.02451 0.39531 0.02742 0.0
O102 O 0.1213 0.33123 0.92744 0.0
O103 O 1.01568 0.24073 0.0236 0.0
O104 O 0.06469 0.24272 0.9748 0.0
C105 C 0.05941 0.4266 0.01682 0.0
C106 C 0.96377 0.31302 0.88314 0.0
O107 O 1.00846 0.31907 0.88376 0.0
O108 O 0.95107 0.30449 0.9243 0.0
C109 C 0.11525 0.32623 0.87968 0.0
O110 O 0.07571 0.29437 0.84953 0.0
C111 C 0.04446 0.21887 0.00636 0.0
Zn112 Zn 0.4988 0.97242 0.41383 0.0
Zn113 Zn 0.40754 0.06761 0.35932 0.0
O114 O 0.45182 0.10246 0.43355 0.0
O115 O 0.46969 0.03424 0.41744 0.0
O116 O 0.36144 0.10192 0.32874 0.0
O117 O 0.47832 1.01984 0.36817 0.0
O118 O 0.45404 0.05971 0.31215 0.0
C119 C 0.47922 0.07667 0.44629 0.0
C120 C 0.39141 0.96832 0.35586 0.0
O121 O 0.36584 0.99564 0.34481 0.0
O122 O 0.433 0.98887 0.38688 0.0
C123 C 0.31793 0.0777 0.3041 0.0
O124 O 0.29865 0.03287 0.30985 0.0
C125 C 0.47956 1.03214 0.32551 0.0
Zn126 Zn 0.2838 0.3155 0.53506 0.0
Zn127 Zn 0.33724 0.25947 0.54229 0.0
O128 O 0.35665 0.2896 0.4757 0.0
O129 O 0.31858 0.34477 0.47477 0.0
O130 O 0.38946 0.22839 0.56238 0.0
O131 O 0.30402 0.34199 0.61728 0.0
O132 O 0.35188 0.296 0.61928 0.0
C133 C 0.3469 0.3245 0.45546 0.0
C134 C 0.22539 0.2108 0.52699 0.0
O135 O 0.26803 0.20588 0.53314 0.0
O136 O 0.22075 0.25249 0.52102 0.0
C137 C 0.37691 0.1842 0.56728 0.0
O138 O 0.33349 0.15573 0.54269 0.0
C139 C 0.33269 0.32376 0.64358 0.0
Zn140 Zn 0.14153 0.16589 0.81951 0.0
Zn141 Zn 0.19272 0.11275 0.81643 0.0
O142 O 0.15737 0.09631 0.88241 0.0
O143 O 0.10487 0.1369 0.87746 0.0
O144 O 0.2228 0.059 0.81018 0.0
O145 O 0.11199 0.14124 0.73776 0.0
O146 O 0.15899 0.09478 0.73626 0.0
C147 C 0.12224 0.10708 0.89927 0.0
C148 C 0.24755 0.22396 0.82669 0.0
O149 O 0.25066 0.18013 0.82026 0.0
O150 O 0.20766 0.22857 0.83593 0.0
C151 C 0.26736 0.0717 0.81041 0.0
O152 O 0.2958 0.11235 0.8419 0.0
C153 C 0.13001 0.11363 0.71145 0.0
Zn154 Zn 0.47807 0.95039 0.95321 0.0
Zn155 Zn 0.37383 1.0277 0.00023 0.0
O156 O 0.35989 1.01044 0.91917 0.0
O157 O 0.42475 0.9898 0.9428 0.0
O158 O 0.33494 0.07009 0.02553 0.0
O159 O 0.41677 0.9557 0.98198 0.0
O160 O 0.36066 0.96022 0.0222 0.0
C161 C 0.38919 0.98808 0.90671 0.0
C162 C 0.47378 0.04307 0.03142 0.0
O163 O 0.44484 0.06624 0.04194 0.0
O164 O 0.45632 1.00567 0.99441 0.0
C165 C 0.35545 0.11637 0.03292 0.0
O166 O 0.39645 0.13205 0.0192 0.0
C167 C 0.38847 0.93618 0.00823 0.0
Zn168 Zn 0.4282 0.38933 0.07017 0.0
Zn169 Zn 0.38183 0.45237 0.06761 0.0
O170 O 0.36579 0.41682 0.98742 0.0
O171 O 0.39832 0.3576 0.98962 0.0
O172 O 0.33624 0.49397 0.05568 0.0
O173 O 0.40044 0.36595 0.13611 0.0
O174 O 0.36312 0.42161 0.13578 0.0
C175 C 0.37677 0.38161 0.96292 0.0
C176 C 0.49319 0.49171 0.07658 0.0
O177 O 0.45311 0.50108 0.0777 0.0
O178 O 0.49413 0.44778 0.07685 0.0
C179 C 0.34492 0.51722 0.02058 0.0
O180 O 0.38438 0.51762 0.0044 0.0
C181 C 0.37307 0.38679 0.15639 0.0
Zn182 Zn 0.72096 0.26762 0.10775 0.0
Zn183 Zn 0.83083 0.18691 0.12901 0.0
O184 O 0.8331 0.21379 0.06283 0.0
O185 O 0.77696 0.23657 0.09161 0.0
O186 O 0.88202 0.15543 0.13846 0.0
O187 O 0.77699 0.24913 0.14658 0.0
O188 O 0.8429 0.24277 0.19112 0.0
C189 C 0.80312 0.23794 0.05911 0.0
C190 C 0.73003 0.15539 0.10915 0.0
O191 O 0.76371 0.13613 0.11792 0.0
O192 O 0.74263 0.2018 0.1109 0.0
C193 C 0.86377 0.11063 0.11662 0.0
O194 O 0.82322 0.08569 0.12583 0.0
C195 C 0.81132 0.26571 0.18654 0.0
Zn196 Zn 0.17738 0.73222 0.24585 0.0
Zn197 Zn 0.25923 0.62001 0.25228 0.0
O198 O 0.22803 0.62218 0.3142 0.0
O199 O 0.20546 0.67604 0.27517 0.0
O200 O 0.30626 0.5835 0.25408 0.0
O201 O 0.19071 0.66507 0.22008 0.0
O202 O 0.20349 0.59711 0.18893 0.0
C203 C 0.20292 0.65178 0.3107 0.0
C204 C 0.28302 0.71844 0.25184 0.0
O205 O 0.30402 0.68635 0.25442 0.0
O206 O 0.23766 0.70553 0.24995 0.0
C207 C 0.34743 0.6023 0.24448 0.0
O208 O 0.35394 0.63767 0.21884 0.0
C209 C 0.17695 0.62547 0.18601 0.0
Zn210 Zn 0.92717 0.89227 0.56895 0.0
Zn211 Zn 0.88006 0.95424 0.56873 0.0
O212 O 0.85953 0.9172 0.48817 0.0
O213 O 0.89453 0.85983 0.48826 0.0
O214 O 0.83551 0.99663 0.55845 0.0
O215 O 0.90133 0.86856 0.63562 0.0
O216 O 0.86335 0.9238 0.63724 0.0
C217 C 0.86984 0.88211 0.46253 0.0
C218 C 0.99177 0.99603 0.57868 0.0
O219 O 0.95117 1.00432 0.57914 0.0
O220 O 0.99297 0.95193 0.57725 0.0
C221 C 0.84453 1.01905 0.52287 0.0
O222 O 0.88293 1.01707 0.50554 0.0
C223 C 0.8746 0.88925 0.65725 0.0
Zn224 Zn 0.05247 0.03646 0.28056 0.0
Zn225 Zn 0.99421 0.08579 0.28578 0.0
O226 O 1.03521 0.10028 0.36526 0.0
O227 O 0.09174 0.06567 0.36054 0.0
O228 O 0.9564 0.13436 0.30035 0.0
O229 O 0.07687 0.06337 0.21717 0.0
O230 O 1.02101 0.10043 0.21452 0.0
C231 C 0.07109 0.08858 0.38862 0.0
C232 C 0.94784 0.97361 0.27114 0.0
O233 O 0.94211 1.0162 0.27713 0.0
O234 O 0.98944 0.97136 0.26547 0.0
C235 C 0.93623 0.12353 0.33646 0.0
O236 O 0.93738 0.08249 0.35128 0.0
C237 C 0.05447 0.08932 0.19455 0.0
Zn238 Zn 0.22278 0.76764 0.60736 0.0
Zn239 Zn 0.33207 0.68606 0.62962 0.0
O240 O 0.33638 0.7148 0.5647 0.0
O241 O 0.27957 0.73683 0.59305 0.0
O242 O 0.38194 0.65294 0.64007 0.0
O243 O 0.27892 0.74927 0.64739 0.0
O244 O 0.34401 0.74123 0.69215 0.0
C245 C 0.30655 0.73922 0.5614 0.0
C246 C 0.23104 0.65575 0.60812 0.0
O247 O 0.26424 0.63588 0.61687 0.0
O248 O 0.24438 0.7022 0.61052 0.0
C249 C 0.36231 0.60788 0.61981 0.0
O250 O 0.3225 0.5846 0.63176 0.0
C251 C 0.31326 0.76512 0.68743 0.0
Zn252 Zn 0.55339 0.53243 0.77695 0.0
Zn253 Zn 0.49485 0.58201 0.7845 0.0
O254 O 0.53967 0.59755 0.86114 0.0
O255 O 0.59548 0.56197 0.85552 0.0
O256 O 0.45605 0.629 0.80117 0.0
O257 O 0.57541 0.56062 0.71342 0.0
O258 O 0.51947 0.59755 0.71284 0.0
C259 C 0.57592 0.58599 0.88375 0.0
C260 C 0.4496 0.46978 0.77241 0.0
O261 O 0.444 0.51239 0.7791 0.0
O262 O 0.49038 0.46744 0.76404 0.0
C263 C 0.43844 0.61884 0.83908 0.0
O264 O 0.44371 0.5799 0.85617 0.0
C265 C 0.55268 0.587 0.69208 0.0
Zn266 Zn 0.68325 0.23701 0.7459 0.0
Zn267 Zn 0.76193 0.12232 0.75106 0.0
O268 O 0.73237 0.12605 0.81395 0.0
O269 O 0.71046 0.18043 0.77532 0.0
O270 O 0.80727 0.08375 0.753 0.0
O271 O 0.69332 0.16833 0.71971 0.0
O272 O 0.70443 0.09942 0.68901 0.0
C273 C 0.70813 0.15644 0.81111 0.0
C274 C 0.78788 0.22091 0.7505 0.0
O275 O 0.80808 0.18814 0.75239 0.0
O276 O 0.74235 0.20845 0.74803 0.0
C277 C 0.84851 0.10154 0.74317 0.0
O278 O 0.8553 0.13628 0.71681 0.0
C279 C 0.67802 0.12796 0.68655 0.0
Zn280 Zn 0.78699 0.81436 0.03097 0.0
Zn281 Zn 0.83818 0.75851 0.04207 0.0
O282 O 0.85858 0.78847 0.97519 0.0
O283 O 0.82026 0.84332 0.97152 0.0
O284 O 0.89252 0.73184 0.06603 0.0
O285 O 0.80879 0.84908 0.11136 0.0
O286 O 0.84667 0.79443 0.11826 0.0
C287 C 0.84912 0.82296 0.95385 0.0
C288 C 0.72846 0.70729 0.0242 0.0
O289 O 0.771 0.70226 0.03192 0.0
O290 O 0.72479 0.74881 0.01601 0.0
C291 C 0.88203 0.6871 0.06888 0.0
O292 O 0.84056 0.65685 0.0411 0.0
C293 C 0.83147 0.82741 0.1401 0.0
Zn294 Zn 0.99847 0.47131 0.91343 0.0
Zn295 Zn 0.90847 0.5672 0.85817 0.0
O296 O 0.95286 0.60202 0.93253 0.0
O297 O 0.97009 0.53342 0.91693 0.0
O298 O 0.86318 0.60188 0.8268 0.0
O299 O 0.97822 0.51855 0.86749 0.0
O300 O 0.95497 0.55872 0.81128 0.0
C301 C 0.97989 0.57596 0.94565 0.0
C302 C 0.89132 0.46782 0.85466 0.0
O303 O 0.86615 0.49549 0.84361 0.0
O304 O 0.93258 0.48803 0.88646 0.0
C305 C 0.81999 0.57782 0.80105 0.0
O306 O 0.80013 0.53284 0.80603 0.0
C307 C 0.97999 0.53084 0.82492 0.0
Zn308 Zn 0.97693 0.45836 0.44717 0.0
Zn309 Zn 0.87258 0.53309 0.49702 0.0
O310 O 0.85715 0.51587 0.41565 0.0
O311 O 0.92332 0.49731 0.43759 0.0
O312 O 0.83311 0.57434 0.52259 0.0
O313 O 0.91568 0.46244 0.47731 0.0
O314 O 0.85973 0.46547 0.51819 0.0
C315 C 0.88654 0.49416 0.40221 0.0
C316 C 0.97289 0.54887 0.52812 0.0
O317 O 0.94385 0.57153 0.5396 0.0
O318 O 0.9554 0.5126 0.48989 0.0
C319 C 0.8536 0.62068 0.5312 0.0
O320 O 0.89546 0.63696 0.51942 0.0
C321 C 0.88769 0.44203 0.50346 0.0
Zn322 Zn 0.63139 0.66876 0.31104 0.0
Zn323 Zn 0.6892 0.61946 0.31503 0.0
O324 O 0.6534 0.59957 0.37932 0.0
O325 O 0.59833 0.63705 0.37205 0.0
O326 O 0.72267 0.56781 0.30648 0.0
O327 O 0.60658 0.64118 0.22845 0.0
O328 O 0.6611 0.60323 0.23321 0.0
C329 C 0.61735 0.60884 0.39537 0.0
C330 C 0.73636 0.73284 0.32657 0.0
O331 O 0.74271 0.69055 0.32688 0.0
O332 O 0.6933 0.73541 0.32445 0.0
C333 C 0.76633 0.5827 0.30346 0.0
O334 O 0.79282 0.62633 0.32993 0.0
C335 C 0.62964 0.61702 0.20515 0.0
Tb336 Tb 0.14027 0.13408 0.06964 0.0
C337 C 0.05166 0.91677 0.97127 0.0
N338 N 1.03719 0.97528 0.92504 0.0
C339 C 0.96239 0.87802 0.85392 0.0
C340 C 1.02247 0.85716 0.94476 0.0
C341 C 0.99204 0.95544 0.87224 0.0
C342 C 0.9796 0.83763 0.89043 0.0
C343 C 0.04679 0.87716 0.05179 0.0
C344 C 0.05119 0.92001 0.03075 0.0
C345 C 0.04629 0.83249 0.02342 0.0
C346 C 1.03156 0.82168 0.97081 0.0
Tb347 Tb 1.03648 0.04235 0.01842 0.0
N348 N 0.04365 0.96249 0.06222 0.0
C349 C 1.03559 0.87694 0.09974 0.0
C350 C 1.03024 0.95942 0.1071 0.0
C351 C 1.02624 0.91702 0.12642 0.0
H352 H 0.98486 0.98096 0.84855 0.0
H353 H 1.01556 0.91507 0.16222 0.0
H354 H 0.09154 0.20638 0.13495 0.0
H355 H 0.26721 0.17623 0.94594 0.0
H356 H 1.02147 0.98954 0.12756 0.0
H357 H 1.03058 0.84393 0.11525 0.0
H358 H 0.2215 0.12533 0.99485 0.0
H359 H 0.96801 0.8522 0.86979 0.0
H360 H 0.04678 0.80179 0.04187 0.0
H361 H 1.02023 0.78345 0.95116 0.0
H362 H 0.08583 0.29073 0.14061 0.0
H363 H 0.96456 0.79322 0.88291 0.0
H364 H 0.26134 0.25966 0.94413 0.0
N365 N 0.13619 0.21296 0.08166 0.0
C366 C 0.15958 0.24271 0.05372 0.0
C367 C 0.10766 0.27797 0.11699 0.0
C368 C 0.15921 0.29202 0.05793 0.0
C369 C 0.11092 0.23007 0.1136 0.0
C370 C 0.1326 0.30935 0.08985 0.0
N371 N 0.18469 0.17682 0.01845 0.0
C372 C 0.21691 0.16119 0.99409 0.0
C373 C 0.21132 0.25502 0.9938 0.0
C374 C 0.18438 0.22408 0.02107 0.0
C375 C 0.24009 0.23697 0.96524 0.0
C376 C 0.24353 0.19007 0.96616 0.0
H377 H 0.13043 0.34657 0.09314 0.0
H378 H 0.18418 0.35995 0.03201 0.0
H379 H 0.2304 0.32764 0.97644 0.0
O380 O 0.19974 0.10861 0.08805 0.0
O381 O 0.06387 0.13286 0.02721 0.0
O382 O 0.0622 0.13051 0.02651 0.0
O383 O 0.20187 0.18052 0.1263 0.0
O384 O 0.13877 0.09683 0.99058 0.0
O385 O 0.06034 0.0719 0.95011 0.0
O386 O 0.97249 1.03107 0.04484 0.0
O387 O 0.11285 0.05338 0.08246 0.0
O388 O 0.11547 0.05445 0.08409 0.0
O389 O 0.97095 0.04179 0.96919 0.0
O390 O 1.03193 0.06926 0.09949 0.0
O391 O 0.10684 0.12727 0.13849 0.0
C392 C 1.03577 0.15943 0.00682 0.0
C393 C 0.27308 0.1697 0.10095 0.0
C394 C 0.33522 0.15227 0.05892 0.0
C395 C 0.35952 0.20308 0.06968 0.0
C396 C 0.29621 0.22035 0.10788 0.0
C397 C 0.33963 0.23672 0.09301 0.0
C398 C 0.29253 0.13595 0.07552 0.0
C399 C 0.10616 0.09084 0.94791 0.0
C400 C 0.22713 0.15065 0.11645 0.0
C401 C 0.1844 0.32217 0.02945 0.0
C402 C 0.21043 0.30372 -0.00248 0.0
C403 C 0.14215 1.02934 0.10855 0.0
C404 C 0.91328 0.06451 0.00959 0.0
C405 C 0.86988 0.09811 0.06517 0.0
C406 C 0.83833 0.10398 0.02263 0.0
C407 C 0.88245 0.0711 0.9669 0.0
C408 C 0.90749 0.07953 0.05871 0.0
C409 C 0.84528 0.09131 0.97358 0.0
C410 C 0.0634 0.09896 0.14164 0.0
C411 C 0.94605 0.03524 0.00322 0.0
H412 H 0.39427 0.2171 0.06106 0.0
H413 H 0.28107 0.24723 0.12501 0.0
H414 H 0.35811 0.27563 0.0997 0.0
H415 H 0.27455 0.09673 0.06908 0.0
H416 H 0.80843 0.11804 0.02736 0.0
H417 H 0.88611 0.0593 0.92858 0.0
H418 H 0.93069 0.07465 0.09228 0.0
H419 H 0.82111 0.09588 0.9407 0.0
Tb420 Tb 0.31606 0.83458 0.34859 0.0
C421 C 0.41659 0.76372 0.15998 0.0
N422 N 0.43602 0.80168 0.20217 0.0
C423 C 0.51569 0.80173 0.19523 0.0
C424 C 0.44595 0.74241 0.13471 0.0
C425 C 0.48486 0.81583 0.22335 0.0
C426 C 0.49596 0.76603 0.14996 0.0
C427 C 0.34287 0.69378 0.0915 0.0
C428 C 0.36865 0.75108 0.13727 0.0
C429 C 0.37679 0.67341 0.07685 0.0
C430 C 0.42635 0.70089 0.09323 0.0
Tb431 Tb 0.38772 0.84759 0.22877 0.0
N432 N 0.34182 0.79123 0.15319 0.0
C433 C 0.27913 0.67463 0.05621 0.0
C434 C 0.28818 0.79447 0.13158 0.0
C435 C 0.24341 0.74763 0.0859 0.0
H436 H 0.50057 0.84396 0.25794 0.0
H437 H 0.20728 0.75152 0.07945 0.0
H438 H 0.20411 0.81853 0.30964 0.0
H439 H 0.48346 0.95254 0.52403 0.0
H440 H 0.27741 0.82484 0.14508 0.0
H441 H 0.26328 0.64191 0.02684 0.0
H442 H 0.43073 0.92069 0.4757 0.0
H443 H 0.55439 0.81988 0.20756 0.0
H444 H 0.36502 0.63972 0.04821 0.0
H445 H 0.45076 0.68887 0.07305 0.0
H446 H 0.13565 0.82246 0.34778 0.0
H447 H 0.51954 0.75648 0.12708 0.0
H448 H 0.38428 0.99591 0.58758 0.0
N449 N 0.25778 0.86352 0.375 0.0
C450 C 0.26673 0.89174 0.42271 0.0
C451 C 0.17233 0.84388 0.36819 0.0
C452 C 0.22845 0.90012 0.44322 0.0
C453 C 0.21119 0.84264 0.34641 0.0
C454 C 0.18146 0.87155 0.41743 0.0
N455 N 0.35153 0.8904 0.42764 0.0
C456 C 0.4082 0.90093 0.44591 0.0
C457 C 0.32191 0.94561 0.51081 0.0
C458 C 0.31283 0.90735 0.4526 0.0
C459 C 0.37952 0.97102 0.55129 0.0
C460 C 0.44149 0.94104 0.50648 0.0
H461 H 0.1517 0.87189 0.43477 0.0
H462 H 0.2055 0.9415 0.50078 0.0
H463 H 0.28815 0.9904 0.55036 0.0
O464 O 0.33154 0.78155 0.38818 0.0
O465 O 0.38152 0.88566 0.34885 0.0
O466 O 0.3918 0.91569 0.2805 0.0
O467 O 0.25884 0.77208 0.34805 0.0
O468 O 0.37556 0.80031 0.34442 0.0
O469 O 0.43355 0.84264 0.30543 0.0
O470 O 0.37881 0.89238 0.17741 0.0
O471 O 0.34867 0.77537 0.23504 0.0
O472 O 0.2947 0.80287 0.26878 0.0
O473 O 0.44962 0.88727 0.20883 0.0
O474 O 0.32079 0.87286 0.22013 0.0
O475 O 0.27737 0.86438 0.28469 0.0
C476 C 0.38116 0.92015 0.325 0.0
C477 C 0.27257 0.76106 0.43235 0.0
C478 C 0.29754 0.76582 0.5222 0.0
C479 C 0.2728 0.80032 0.53195 0.0
C480 C 0.24007 0.78658 0.44262 0.0
C481 C 0.24157 0.80805 0.49205 0.0
C482 C 0.30012 0.74841 0.47259 0.0
C483 C 0.42158 0.81726 0.34172 0.0
C484 C 0.28596 0.75924 0.38349 0.0
C485 C 0.23636 0.93406 0.48923 0.0
C486 C 0.28261 0.95942 0.52007 0.0
C487 C 0.30881 0.76696 0.2505 0.0
C488 C 0.42857 0.89124 0.1217 0.0
C489 C 0.40272 0.90113 0.03597 0.0
C490 C 0.43433 0.87628 0.01996 0.0
C491 C 0.46174 0.86839 0.10672 0.0
C492 C 0.39827 0.90583 0.08589 0.0
C493 C 0.46363 0.85972 0.05545 0.0
C494 C 0.28357 0.87778 0.24013 0.0
C495 C 0.42366 0.90162 0.17389 0.0
H496 H 0.27372 0.8172 0.57057 0.0
H497 H 0.21373 0.79 0.41216 0.0
H498 H 0.2183 0.83001 0.49948 0.0
H499 H 0.32217 0.72467 0.46523 0.0
H500 H 0.43918 0.87334 0.98129 0.0
H501 H 0.48657 0.85829 0.1343 0.0
H502 H 0.3745 0.92572 0.09843 0.0
H503 H 0.48966 0.84277 0.0439 0.0
Tb504 Tb 0.53329 0.08171 0.6006 0.0
C505 C 0.64664 0.1885 0.46844 0.0
N506 N 0.61172 0.14526 0.46413 0.0
C507 C 0.56508 0.15098 0.38219 0.0
C508 C 0.63933 0.21479 0.41553 0.0
C509 C 0.57718 0.12458 0.41928 0.0
C510 C 0.59486 0.19686 0.38124 0.0
C511 C 0.76496 0.2326 0.50619 0.0
C512 C 0.70095 0.19258 0.51021 0.0
C513 C 0.7698 0.25319 0.45319 0.0
C514 C 0.68801 0.24755 0.39505 0.0
Tb515 Tb 0.62794 0.09998 0.52426 0.0
N516 N 0.69337 0.16704 0.55546 0.0
C517 C 0.809 0.25507 0.5623 0.0
C518 C 0.72405 0.17281 0.61045 0.0
C519 C 0.78026 0.21131 0.63431 0.0
H520 H 0.55881 0.08574 0.41063 0.0
H521 H 0.79363 0.22586 0.62331 0.0
H522 H 0.64385 1.02996 0.63885 0.0
H523 H 0.36613 0.9802 0.44035 0.0
H524 H 0.72094 0.13994 0.62355 0.0
H525 H 0.84194 0.2837 0.56178 0.0
H526 H 0.43237 0.05671 0.50763 0.0
H527 H 0.53448 0.133 0.35 0.0
H528 H 0.80734 0.27364 0.45478 0.0
H529 H 0.67884 0.26725 0.36574 0.0
H530 H 0.66767 0.97161 0.70451 0.0
H531 H 0.58762 0.21269 0.34807 0.0
H532 H 0.34876 0.85911 0.50477 0.0
N533 N 0.55739 1.02089 0.63555 0.0
C534 C 0.50405 0.9861 0.64462 0.0
C535 C 0.6306 0.9727 0.69682 0.0
C536 C 0.5178 0.922 0.70167 0.0
C537 C 0.61489 1.01584 0.65592 0.0
C538 C 0.58552 0.92722 0.71932 0.0
N539 N 0.46311 1.01653 0.5654 0.0
C540 C 0.43272 1.02081 0.51302 0.0
C541 C 0.4151 0.91186 0.57577 0.0
C542 C 0.45953 0.97398 0.59743 0.0
C543 C 0.37373 0.89636 0.51768 0.0
C544 C 0.3872 0.97291 0.47403 0.0
H545 H 0.5968 0.89972 0.73709 0.0
H546 H 0.50521 0.90024 0.70054 0.0
H547 H 0.43258 0.86953 0.6256 0.0
O548 O 0.52259 0.11134 0.67262 0.0
O549 O 0.5513 1.00948 0.56807 0.0
O550 O 0.59261 1.01728 0.50472 0.0
O551 O 0.46366 0.06879 0.61103 0.0
O552 O 0.51551 0.11201 0.53418 0.0
O553 O 0.55098 0.06609 0.4912 0.0
O554 O 0.68416 0.06795 0.53871 0.0
O555 O 0.62718 0.17734 0.55908 0.0
O556 O 0.56164 0.16672 0.59669 0.0
O557 O 0.65683 0.07791 0.46282 0.0
O558 O 0.63387 0.08906 0.60123 0.0
O559 O 0.59859 0.12522 0.65375 0.0
C560 C 0.57004 0.98788 0.53175 0.0
C561 C 0.44696 0.1292 0.65975 0.0
C562 C 0.39834 0.17313 0.61542 0.0
C563 C 0.37549 0.17653 0.65606 0.0
C564 C 0.42038 0.12836 0.69718 0.0
C565 C 0.38735 0.15495 0.69727 0.0
C566 C 0.43607 0.15214 0.61869 0.0
C567 C 0.51993 0.09088 0.49095 0.0
C568 C 0.47561 0.09539 0.65605 0.0
C569 C 0.47448 0.87202 0.6791 0.0
C570 C 0.41552 0.87029 0.60265 0.0
C571 C 0.59888 0.19785 0.58239 0.0
C572 C 0.73383 0.06138 0.47934 0.0
C573 C 0.81061 0.04201 0.49625 0.0
C574 C 0.82253 0.06283 0.45517 0.0
C575 C 0.7475 0.08228 0.43896 0.0
C576 C 0.76598 0.04151 0.50852 0.0
C577 C 0.79187 0.08395 0.42787 0.0
C578 C 0.63792 0.12042 0.64299 0.0
C579 C 0.68628 0.06002 0.49087 0.0
H580 H 0.34673 0.19354 0.65464 0.0
H581 H 0.42571 0.10773 0.72683 0.0
H582 H 0.36892 0.15635 0.72807 0.0
H583 H 0.45341 0.14922 0.587 0.0
H584 H 0.8553 0.06187 0.44328 0.0
H585 H 0.72275 0.09396 0.41316 0.0
H586 H 0.75585 1.02494 0.53967 0.0
H587 H 0.80145 0.09974 0.39642 0.0
Tb588 Tb 0.39693 0.31348 0.80876 0.0
C589 C 0.26493 0.41164 0.69892 0.0
N590 N 0.30276 0.43118 0.74139 0.0
C591 C 0.33485 0.49985 0.70434 0.0
C592 C 0.26258 0.43495 0.65638 0.0
C593 C 0.33513 0.47641 0.7455 0.0
C594 C 0.29938 0.47822 0.65927 0.0
C595 C 0.18432 0.34742 0.64377 0.0
C596 C 0.22946 0.36808 0.69801 0.0
C597 C 0.1861 0.37405 0.60562 0.0
C598 C 0.22464 0.41642 0.61173 0.0
Tb599 Tb 0.30882 0.38541 0.80389 0.0
N600 N 0.23815 0.34115 0.74439 0.0
C601 C 0.14133 0.29237 0.63381 0.0
C602 C 0.20943 0.29077 0.75534 0.0
C603 C 0.16061 0.25103 0.7128 0.0
H604 H 0.35947 0.49611 0.78173 0.0
H605 H 0.13999 0.21948 0.72455 0.0
H606 H 0.35084 0.20789 0.83968 0.0
H607 H 0.56093 0.48706 0.87249 0.0
H608 H 0.20726 0.28927 0.7934 0.0
H609 H 0.11006 0.28483 0.60256 0.0
H610 H 0.49396 0.4104 0.8102 0.0
H611 H 0.36147 0.53511 0.70784 0.0
H612 H 0.15816 0.3612 0.57029 0.0
H613 H 0.22465 0.43572 0.58046 0.0
H614 H 0.36018 0.17099 0.91547 0.0
H615 H 0.29971 0.49587 0.62695 0.0
H616 H 0.59219 0.43714 0.00588 0.0
N617 N 0.404 0.27665 0.87685 0.0
C618 C 0.44149 0.30127 0.91834 0.0
C619 C 0.38183 0.20815 0.91698 0.0
C620 C 0.44691 0.28136 0.96292 0.0
C621 C 0.37626 0.22964 0.87461 0.0
C622 C 0.41675 0.23431 0.9612 0.0
N623 N 0.46294 0.36814 0.86614 0.0
C624 C 0.49114 0.41527 0.84888 0.0
C625 C 0.51982 0.37058 0.96762 0.0
C626 C 0.47344 0.34631 0.9159 0.0
C627 C 0.56337 0.42345 0.97138 0.0
C628 C 0.54158 0.45708 0.8871 0.0
H629 H 0.42237 0.21654 0.99287 0.0
H630 H 0.48209 0.29277 0.04268 0.0
H631 H 0.54013 0.37302 0.04533 0.0
O632 O 0.4613 0.29801 0.81901 0.0
O633 O 0.36968 0.32922 0.87935 0.0
O634 O 0.36488 0.40495 0.87684 0.0
O635 O 0.4008 0.24876 0.76212 0.0
O636 O 0.41598 0.37996 0.77206 0.0
O637 O 0.38351 0.43293 0.81286 0.0
O638 O 0.28209 0.39999 0.86877 0.0
O639 O 0.3156 0.35337 0.72616 0.0
O640 O 0.37353 0.3136 0.72679 0.0
O641 O 0.2754 0.44059 0.81075 0.0
O642 O 0.28474 0.3142 0.83171 0.0
O643 O 0.32121 0.26233 0.7944 0.0
C644 C 0.36883 0.3715 0.9041 0.0
C645 C 0.48286 0.24862 0.76082 0.0
C646 C 0.55865 0.28331 0.73839 0.0
C647 C 0.56947 0.23891 0.74079 0.0
C648 C 0.49748 0.20757 0.76929 0.0
C649 C 0.53938 0.20164 0.7571 0.0
C650 C 0.51386 0.2871 0.74551 0.0
C651 C 0.41209 0.42515 0.78279 0.0
C652 C 0.44583 0.25755 0.78587 0.0
C653 C 0.48172 0.30729 0.00816 0.0
C654 C 0.51653 0.35141 0.01024 0.0
C655 C 0.34065 0.33024 0.70168 0.0
C656 C 0.21216 0.4233 0.85195 0.0
C657 C 0.13808 0.37033 0.86337 0.0
C658 C 0.11891 0.41 0.86708 0.0
C659 C 0.192 0.46201 0.85193 0.0
C660 C 0.18452 0.37715 0.85635 0.0
C661 C 0.14588 0.45578 0.86093 0.0
C662 C 0.28732 0.26867 0.81842 0.0
C663 C 0.2631 0.43182 0.85201 0.0
H664 H 0.60211 0.23351 0.73173 0.0
H665 H 0.47681 0.18006 0.78629 0.0
H666 H 0.54943 0.16898 0.76235 0.0
H667 H 0.50523 0.32122 0.74403 0.0
H668 H 0.0837 0.40582 0.87571 0.0
H669 H 0.21226 0.4971 0.84615 0.0
H670 H 0.20001 0.34715 0.85772 0.0
H671 H 0.13135 0.48654 0.86367 0.0
Tb672 Tb 0.14145 0.05871 0.54241 0.0
C673 C 1.0372 0.19518 0.64922 0.0
N674 N 1.02075 0.15548 0.60905 0.0
C675 C 0.9483 0.12586 0.63854 0.0
C676 C 1.00988 0.20126 0.68606 0.0
C677 C 0.97542 0.12278 0.60196 0.0
C678 C 0.9656 0.16513 0.68052 0.0
C679 C 0.09585 0.28261 0.69737 0.0
C680 C 0.08261 0.22801 0.65504 0.0
C681 C 0.0667 0.28285 0.73192 0.0
C682 C 1.02562 0.24262 0.72711 0.0
Tb683 Tb 0.07301 0.14963 0.55622 0.0
N684 N 0.11847 0.20728 0.62792 0.0
C685 C 0.15329 0.32372 0.71362 0.0
C686 C 0.17461 0.22633 0.63232 0.0
C687 C 0.20912 0.28156 0.66769 0.0
H688 H 0.95887 0.09501 0.56729 0.0
H689 H 0.24758 0.291 0.67083 0.0
H690 H 0.24906 0.1046 0.52136 0.0
H691 H 0.95145 0.92876 0.43733 0.0
H692 H 0.19371 0.2019 0.62079 0.0
H693 H 0.16222 0.35691 0.74326 0.0
H694 H 1.0121 1.01897 0.48061 0.0
H695 H 0.91282 0.0994 0.6329 0.0
H696 H 0.07603 0.31445 0.76288 0.0
H697 H 1.00393 0.24511 0.75498 0.0
H698 H 0.29403 0.08768 0.4559 0.0
H699 H 0.94298 0.1689 0.70681 0.0
H700 H 1.02879 0.85386 0.36239 0.0
N701 N 0.18428 0.04822 0.4824 0.0
C702 C 0.16262 1.00844 0.44318 0.0
C703 C 0.25687 0.06561 0.45164 0.0
C704 C 0.18738 0.99605 0.40592 0.0
C705 C 0.23117 0.07574 0.48805 0.0
C706 C 0.23473 1.02596 0.41026 0.0
N707 N 0.08492 1.00577 0.47186 0.0
C708 C 1.02887 0.9916 0.47097 0.0
C709 C 0.09776 0.92378 0.40296 0.0
C710 C 0.116 0.98005 0.44169 0.0
C711 C 1.04023 0.88636 0.39281 0.0
C712 C 0.99006 0.93567 0.43999 0.0
H713 H 0.25517 1.0177 0.38277 0.0
H714 H 0.18363 0.94866 0.33487 0.0
H715 H 0.10569 0.88944 0.33113 0.0
O716 O 0.16102 0.99468 0.53766 0.0
O717 O 0.12431 0.08636 0.46997 0.0
O718 O 0.05493 0.10583 0.4759 0.0
O719 O 0.20287 0.05559 0.59614 0.0
O720 O 0.07632 1.02554 0.5714 0.0
O721 O 1.02718 0.07455 0.55549 0.0
O722 O 0.08535 0.21798 0.53985 0.0
O723 O 0.10079 0.13892 0.63336 0.0
O724 O 0.13814 0.07852 0.62479 0.0
O725 O 1.0118 0.17021 0.52232 0.0
O726 O 0.139 0.17669 0.52564 0.0
O727 O 0.1901 0.1345 0.55484 0.0
C728 C 0.08506 0.09646 0.44775 0.0
C729 C 0.19344 0.97333 0.6102 0.0
C730 C 0.14003 0.90138 0.62772 0.0
C731 C 0.17871 0.88242 0.63961 0.0
C732 C 0.23136 0.95253 0.62017 0.0
C733 C 0.22437 0.90811 0.63607 0.0
C734 C 0.14779 0.9481 0.61664 0.0
C735 C 1.03535 0.03622 0.57294 0.0
C736 C 0.19621 1.00955 0.57726 0.0
C737 C 0.16537 0.95504 0.36517 0.0
C738 C 0.12158 0.91986 0.36369 0.0
C739 C 0.12208 0.10923 0.65327 0.0
C740 C 1.03127 0.23744 0.47923 0.0
C741 C 0.05905 0.28032 0.41409 0.0
C742 C 1.01522 0.29136 0.40523 0.0
C743 C 0.99564 0.26104 0.47859 0.0
C744 C 0.06522 0.2495 0.44878 0.0
C745 C 0.98912 0.28961 0.44291 0.0
C746 C 0.18234 0.17009 0.53247 0.0
C747 C 1.04022 0.21351 0.52209 0.0
H748 H 0.17274 0.84561 0.64688 0.0
H749 H 0.26583 0.96828 0.61297 0.0
H750 H 0.25293 0.89111 0.6411 0.0
H751 H 0.11712 0.96182 0.60692 0.0
H752 H 1.00635 0.30936 0.37458 0.0
H753 H 0.97359 0.25846 0.50641 0.0
H754 H 0.09892 0.24038 0.45642 0.0
H755 H 0.96373 0.31028 0.44461 0.0
Tb756 Tb 0.36642 0.91926 0.74495 0.0
C757 C 0.26476 0.80779 0.90144 0.0
N758 N 0.29442 0.84809 0.89171 0.0
C759 C 0.2648 0.90095 0.94939 0.0
C760 C 0.23923 0.81618 0.9537 0.0
C761 C 0.28942 0.8928 0.91047 0.0
C762 C 0.24261 0.86414 0.97299 0.0
C763 C 0.22852 0.68812 0.87342 0.0
C764 C 0.26342 0.75326 0.86469 0.0
C765 C 0.20984 0.68427 0.9251 0.0
C766 C 0.20923 0.76575 0.97784 0.0
Tb767 Tb 0.34539 0.83116 0.83837 0.0
N768 N 0.27982 0.7628 0.81564 0.0
C769 C 0.20002 0.64216 0.81864 0.0
C770 C 0.26766 0.7328 0.76038 0.0
C771 C 0.22953 0.67551 0.73971 0.0
H772 H 0.30187 0.92342 0.89384 0.0
H773 H 0.22584 0.6576 0.7009 0.0
H774 H 0.35865 0.80686 0.64091 0.0
H775 H 0.53008 0.05245 0.86094 0.0
H776 H 0.30043 0.72948 0.75272 0.0
H777 H 0.17525 0.60716 0.82093 0.0
H778 H 0.44999 0.99145 0.84027 0.0
H779 H 0.26366 0.93793 0.96215 0.0
H780 H 0.19328 0.64582 0.92561 0.0
H781 H 0.19141 0.77314 0.00813 0.0
H782 H 0.42035 0.75783 0.61196 0.0
H783 H 0.22611 0.87284 0.00412 0.0
H784 H 0.57674 0.06406 0.79885 0.0
N785 N 0.40268 0.88598 0.68464 0.0
C786 C 0.44411 0.93378 0.67265 0.0
C787 C 0.43044 0.79731 0.62397 0.0
C788 C 0.4972 0.90553 0.61541 0.0
C789 C 0.39397 0.82444 0.66401 0.0
C790 C 0.47993 0.83491 0.5987 0.0
N791 N 0.44408 0.97297 0.76101 0.0
C792 C 0.46669 0.99919 0.80976 0.0
C793 C 0.52301 1.00828 0.73937 0.0
C794 C 0.46795 0.97632 0.72206 0.0
C795 C 0.53954 0.03993 0.78651 0.0
C796 C 0.51261 0.03352 0.82216 0.0
H797 H 0.49542 0.87179 0.6015 0.0
H798 H 0.57856 0.92815 0.61982 0.0
H799 H 0.56345 0.98274 0.69136 0.0
O800 O 0.38141 0.99423 0.74738 0.0
O801 O 0.43655 0.89953 0.78063 0.0
O802 O 0.42358 0.87879 0.85669 0.0
O803 O 0.33541 0.94343 0.68031 0.0
O804 O 0.35179 0.94673 0.81822 0.0
O805 O 0.38222 0.90634 0.87639 0.0
O806 O 0.37732 0.77535 0.82352 0.0
O807 O 0.27233 0.83552 0.80434 0.0
O808 O 0.28434 0.89522 0.75468 0.0
O809 O 0.36984 0.8008 0.90015 0.0
O810 O 0.35712 0.82459 0.76268 0.0
O811 O 0.31677 0.84919 0.70171 0.0
C812 C 0.45447 0.89119 0.82693 0.0
C813 C 0.31981 1.01922 0.70766 0.0
C814 C 0.27886 0.06039 0.76102 0.0
C815 C 0.2709 0.08875 0.72462 0.0
C816 C 0.31375 0.04931 0.67264 0.0
C817 C 0.28759 0.0825 0.68018 0.0
C818 C 0.30128 1.02434 0.75154 0.0
C819 C 0.37537 0.94635 0.86371 0.0
C820 C 0.35269 0.98943 0.70385 0.0
C821 C 0.55319 0.94083 0.63922 0.0
C822 C 0.56482 1.00129 0.71523 0.0
C823 C 0.25433 0.86332 0.77666 0.0
C824 C 0.38951 0.72423 0.88338 0.0
C825 C 0.41586 0.65091 0.86737 0.0
C826 C 0.40257 0.63868 0.91184 0.0
C827 C 0.37578 0.71018 0.92689 0.0
C828 C 0.40894 0.69389 0.85293 0.0
C829 C 0.38171 0.66739 0.94036 0.0
C830 C 0.32219 0.81256 0.72185 0.0
C831 C 0.38629 0.77178 0.87126 0.0
H832 H 0.25356 0.11701 0.73146 0.0
H833 H 0.3295 0.04735 0.63971 0.0
H834 H 0.28326 0.10594 0.65328 0.0
H835 H 0.30718 1.00274 0.78001 0.0
H836 H 0.40938 0.60735 0.92555 0.0
H837 H 0.36266 0.73318 0.95201 0.0
H838 H 0.42004 0.70455 0.81941 0.0
H839 H 0.37137 0.65716 0.97391 0.0
Tb840 Tb 0.60149 0.13873 0.0246 0.0
C841 C 0.68643 0.04492 0.22217 0.0
N842 N 0.64408 1.02445 0.18576 0.0
C843 C 0.63971 0.94675 0.20573 0.0
C844 C 0.71055 1.01624 0.24697 0.0
C845 C 0.6251 0.97477 0.17254 0.0
C846 C 0.68327 0.96722 0.24174 0.0
C847 C 0.75667 0.11947 0.28232 0.0
C848 C 0.69951 0.0931 0.24211 0.0
C849 C 0.78253 0.0875 0.29293 0.0
C850 C 0.7581 0.03695 0.27899 0.0
Tb851 Tb 0.60342 0.0726 0.14906 0.0
N852 N 0.65751 0.11662 0.22941 0.0
C853 C 0.77372 0.18017 0.31625 0.0
C854 C 0.65251 0.16754 0.25273 0.0
C855 C 0.69903 0.21231 0.29395 0.0
H856 H 0.59559 0.95675 0.13947 0.0
H857 H 0.69489 0.24879 0.298 0.0
H858 H 0.64848 0.25399 0.082 0.0
H859 H 0.43325 0.05536 0.87194 0.0
H860 H 0.61813 0.17379 0.24619 0.0
H861 H 0.8078 0.1969 0.34236 0.0
H862 H 0.50359 0.05261 0.93646 0.0
H863 H 0.61875 0.90876 0.2018 0.0
H864 H 0.81859 0.10101 0.31777 0.0
H865 H 0.77656 1.01381 0.29565 0.0
H866 H 0.66312 0.3316 0.04869 0.0
H867 H 0.69459 0.94368 0.26377 0.0
H868 H 0.42711 0.13084 0.85046 0.0
N869 N 0.59203 0.21389 0.01885 0.0
C870 C 0.55879 0.21646 0.97903 0.0
C871 C 0.63226 0.30012 0.03079 0.0
C872 C 0.56157 0.26098 0.96271 0.0
C873 C 0.62603 0.25586 0.04741 0.0
C874 C 0.59875 0.30318 0.98939 0.0
N875 N 0.53155 0.131 0.96237 0.0
C876 C 0.49869 0.08779 0.93338 0.0
C877 C 0.49089 0.17455 0.90868 0.0
C878 C 0.52644 0.17359 0.9507 0.0
C879 C 0.45572 0.13142 0.88234 0.0
C880 C 0.45935 0.08809 0.89519 0.0
H881 H 0.60183 0.33806 0.97854 0.0
H882 H 0.53464 0.2928 0.90183 0.0
H883 H 0.46631 0.21892 0.86033 0.0
O884 O 0.63047 0.11667 0.96475 0.0
O885 O 0.54969 0.06934 0.01788 0.0
O886 O 0.5449 0.08767 0.09812 0.0
O887 O 0.66903 0.18431 0.01863 0.0
O888 O 0.61456 0.06567 0.00736 0.0
O889 O 0.61375 1.02725 0.07802 0.0
O890 O 0.55597 0.06685 0.19518 0.0
O891 O 0.67133 0.09151 0.12716 0.0
O892 O 0.64759 0.15078 0.09867 0.0
O893 O 0.54551 1.00545 0.13315 0.0
O894 O 0.59382 0.14718 0.16114 0.0
O895 O 0.57909 0.1802 0.08818 0.0
C896 C 0.52566 0.0616 0.05209 0.0
C897 C 0.66994 0.17777 0.93195 0.0
C898 C 0.67975 0.1669 0.84652 0.0
C899 C 0.64698 0.19329 0.83373 0.0
C900 C 0.64281 0.20933 0.92067 0.0
C901 C 0.62881 0.21504 0.87114 0.0
C902 C 0.689 0.15664 0.89484 0.0
C903 C 0.62029 1.0293 0.03033 0.0
C904 C 0.66696 0.15625 0.97587 0.0
C905 C 0.53047 0.26065 0.9174 0.0
C906 C 0.49317 0.21818 0.89235 0.0
C907 C 0.68034 0.12867 0.10547 0.0
C908 C 0.5167 0.9926 0.20809 0.0
C909 C 0.50105 1.00685 0.29092 0.0
C910 C 0.5275 0.97522 0.30635 0.0
C911 C 0.53829 0.95707 0.22094 0.0
C912 C 0.49379 1.01323 0.2413 0.0
C913 C 0.54497 0.94925 0.27074 0.0
C914 C 0.5822 0.1813 0.138 0.0
C915 C 0.52996 1.02212 0.1718 0.0
H916 H 0.63775 0.19946 0.79564 0.0
H917 H 0.6355 0.23162 0.95065 0.0
H918 H 0.6063 0.23825 0.8625 0.0
H919 H 0.71143 0.13328 0.90388 0.0
H920 H 0.53367 0.96958 0.34507 0.0
H921 H 0.54666 0.93347 0.19202 0.0
H922 H 0.47513 0.03916 0.22997 0.0
H923 H 0.56315 0.92297 0.28144 0.0
Tb924 Tb 0.32782 0.29487 0.28322 0.0
C925 C 0.54123 0.40975 0.38513 0.0
N926 N 0.48188 0.4165 0.42947 0.0
C927 C 0.57375 0.49987 0.50016 0.0
C928 C 0.59877 0.44463 0.41199 0.0
C929 C 0.49792 0.4617 0.48067 0.0
C930 C 0.61524 0.488 0.46516 0.0
C931 C 0.57808 0.4186 0.30537 0.0
C932 C 0.53584 0.41035 0.32523 0.0
C933 C 0.62373 0.423 0.33516 0.0
C934 C 0.63474 0.43918 0.38745 0.0
Tb935 Tb 0.40955 0.40933 0.33511 0.0
N936 N 0.49102 0.41381 0.29208 0.0
C937 C 0.57641 0.4306 0.25733 0.0
C938 C 0.49293 0.42875 0.24702 0.0
C939 C 0.53483 0.43665 0.22913 0.0
H940 H 0.47152 0.46004 0.50301 0.0
H941 H 0.53548 0.44894 0.19348 0.0
H942 H 0.23633 0.31381 0.20707 0.0
H943 H 0.32236 0.1676 0.41538 0.0
H944 H 0.46329 0.43758 0.22518 0.0
H945 H 0.60909 0.43956 0.24308 0.0
H946 H 0.35758 0.21374 0.35537 0.0
H947 H 0.59992 0.49754 0.4851 0.0
H948 H 0.65417 0.42506 0.31756 0.0
H949 H 0.67264 0.45404 0.40767 0.0
H950 H 0.15329 0.31459 0.21203 0.0
H951 H 0.65857 0.5074 0.47315 0.0
H952 H 0.24241 0.16946 0.42997 0.0
N953 N 0.24574 0.27962 0.27041 0.0
C954 C 0.22538 0.25918 0.30624 0.0
C955 C 0.17233 0.2967 0.2369 0.0
C956 C 0.17729 0.25652 0.30855 0.0
C957 C 0.21948 0.29665 0.23459 0.0
C958 C 0.15095 0.27621 0.2736 0.0
N959 N 0.29874 0.2437 0.3368 0.0
C960 C 0.32223 0.21455 0.36071 0.0
C961 C 0.23158 0.21509 0.3752 0.0
C962 C 0.25266 0.24028 0.3403 0.0
C963 C 0.25764 0.18987 0.40348 0.0
C964 C 0.3026 0.18845 0.39511 0.0
H965 H 0.11436 0.27624 0.27496 0.0
H966 H 0.12084 0.23354 0.349 0.0
H967 H 0.16818 0.19631 0.40677 0.0
O968 O 0.35991 0.23923 0.27077 0.0
O969 O 0.31949 0.36868 0.31989 0.0
O970 O 0.32299 0.37086 0.32076 0.0
O971 O 0.29308 0.23599 0.21916 0.0
O972 O 0.36134 0.30368 0.36733 0.0
O973 O 0.38103 0.38429 0.40205 0.0
O974 O 0.37535 0.45462 0.30238 0.0
O975 O 0.40366 0.33159 0.27731 0.0
O976 O 0.40375 0.32908 0.27568 0.0
O977 O 0.41628 0.48085 0.3798 0.0
O978 O 0.39372 0.40975 0.25115 0.0
O979 O 0.3322 0.33516 0.21493 0.0
C980 C 0.27665 0.37234 0.32648 0.0
C981 C 0.31704 0.16225 0.21939 0.0
C982 C 0.30319 0.08889 0.2542 0.0
C983 C 0.31777 0.0648 0.21403 0.0
C984 C 0.33942 0.14071 0.18513 0.0
C985 C 0.33588 0.09094 0.17922 0.0
C986 C 0.29655 0.13486 0.25243 0.0
C987 C 0.36433 0.33823 0.40684 0.0
C988 C 0.32785 0.21586 0.22866 0.0
C989 C 0.15743 0.23512 0.34606 0.0
C990 C 0.18445 0.21416 0.37915 0.0
C991 C 0.43082 0.3058 0.25414 0.0
C992 C 0.4117 0.53822 0.32585 0.0
C993 C 0.38908 0.59278 0.27426 0.0
C994 C 0.4317 0.63063 0.30088 0.0
C995 C 0.45505 0.575 0.35194 0.0
C996 C 0.38065 0.54674 0.28572 0.0
C997 C 0.46545 0.62111 0.33859 0.0
C998 C 0.36309 0.37784 0.20973 0.0
C999 C 0.3932 0.49166 0.34037 0.0
H1000 H 0.32206 1.02863 0.21412 0.0
H1001 H 0.36083 0.16287 0.1639 0.0
H1002 H 0.35161 0.07417 0.15119 0.0
H1003 H 0.28116 0.15115 0.28067 0.0
H1004 H 0.43776 0.6677 0.29436 0.0
H1005 H 0.47987 0.56861 0.38281 0.0
H1006 H 0.3468 0.51824 0.26598 0.0
H1007 H 0.49832 0.65011 0.35919 0.0
Tb1008 Tb 0.64424 0.55759 0.04152 0.0
C1009 C 0.54699 0.68222 0.15299 0.0
N1010 N 0.52569 0.64815 0.10816 0.0
C1011 C 0.455 0.61644 0.13942 0.0
C1012 C 0.52365 0.68201 0.19424 0.0
C1013 C 0.47901 0.61813 0.09997 0.0
C1014 C 0.47763 0.64796 0.18664 0.0
C1015 C 0.61303 0.75908 0.21234 0.0
C1016 C 0.59254 0.71579 0.15742 0.0
C1017 C 0.58846 0.75286 0.25065 0.0
C1018 C 0.54496 0.71505 0.24185 0.0
Tb1019 Tb 0.57133 0.64505 0.0486 0.0
N1020 N 0.61761 0.71151 0.11035 0.0
C1021 C 0.6648 0.80616 0.2218 0.0
C1022 C 0.66463 0.74485 0.0984 0.0
C1023 C 0.70237 0.79475 0.14093 0.0
H1024 H 0.45988 0.5955 0.06262 0.0
H1025 H 0.73287 0.81761 0.12999 0.0
H1026 H 0.75507 0.6034 0.02557 0.0
H1027 H 0.4571 0.42672 0.93421 0.0
H1028 H 0.66536 0.74752 0.06009 0.0
H1029 H 0.67511 0.83346 0.25686 0.0
H1030 H 0.51572 0.51817 0.97558 0.0
H1031 H 0.41848 0.59178 0.13296 0.0
H1032 H 0.60302 0.77776 0.28743 0.0
H1033 H 0.52647 0.71255 0.27275 0.0
H1034 H 0.80127 0.58741 0.9608 0.0
H1035 H 0.45812 0.64712 0.21635 0.0
H1036 H 0.53761 0.35192 0.86399 0.0
N1037 N 0.68993 0.54859 0.9839 0.0
C1038 C 0.66869 0.50939 0.94376 0.0
C1039 C 0.76378 0.56583 0.95543 0.0
C1040 C 0.6943 0.4974 0.90727 0.0
C1041 C 0.73734 0.57549 0.99133 0.0
C1042 C 0.742 0.52714 0.91303 0.0
N1043 N 0.58924 0.50589 0.96929 0.0
C1044 C 0.53307 0.49092 0.96706 0.0
C1045 C 0.60509 0.42397 0.90344 0.0
C1046 C 0.62167 0.48064 0.94091 0.0
C1047 C 0.54795 0.38514 0.8933 0.0
C1048 C 0.49564 0.43419 0.93729 0.0
H1049 H 0.76305 0.51931 0.88599 0.0
H1050 H 0.6912 0.45114 0.83575 0.0
H1051 H 0.61284 0.39174 0.83042 0.0
O1052 O 0.66758 0.49524 0.03711 0.0
O1053 O 0.62772 0.58309 0.96667 0.0
O1054 O 0.55877 0.60575 0.96829 0.0
O1055 O 0.69717 0.55056 0.10238 0.0
O1056 O 0.57795 0.52117 0.06772 0.0
O1057 O 0.52778 0.56977 0.05262 0.0
O1058 O 0.5566 0.71152 0.05064 0.0
O1059 O 0.58483 0.61782 0.12032 0.0
O1060 O 0.65468 0.59866 0.12214 0.0
O1061 O 0.5104 0.64796 0.99477 0.0
O1062 O 0.63978 0.67004 0.01941 0.0
O1063 O 0.69326 0.63272 0.05467 0.0
C1064 C 0.58933 0.59391 0.94249 0.0
C1065 C 0.69175 0.46792 0.10913 0.0
C1066 C 0.63779 0.39577 0.12515 0.0
C1067 C 0.67625 0.37648 0.13709 0.0
C1068 C 0.7296 0.4471 0.11936 0.0
C1069 C 0.72214 0.40217 0.13416 0.0
C1070 C 0.64569 0.44239 0.11379 0.0
C1071 C 0.53617 0.53058 0.06826 0.0
C1072 C 0.69694 0.50761 0.0807 0.0
C1073 C 0.67263 0.45692 0.86591 0.0
C1074 C 0.62873 0.42149 0.8637 0.0
C1075 C 0.62243 0.60906 0.14634 0.0
C1076 C 0.52211 0.72731 0.97444 0.0
C1077 C 0.55965 0.77363 0.91629 0.0
C1078 C 0.51686 0.78607 0.90366 0.0
C1079 C 0.48947 0.75451 0.97317 0.0
C1080 C 0.5607 0.7404 0.9497 0.0
C1081 C 0.48819 0.78535 0.93886 0.0
C1082 C 0.68498 0.66746 0.03178 0.0
C1083 C 0.52071 0.69521 0.0112 0.0
H1084 H 0.67007 0.33975 0.14466 0.0
H1085 H 0.76457 0.4636 0.1136 0.0
H1086 H 0.7508 0.3853 0.13966 0.0
H1087 H 0.6153 0.45645 0.10393 0.0
H1088 H 0.51183 0.80581 0.87356 0.0
H1089 H 0.46511 0.75197 -0.00126 0.0
H1090 H 0.59276 0.72896 0.96008 0.0
H1091 H 0.46463 0.80812 0.9392 0.0
Tb1092 Tb 0.86232 0.4207 0.24182 0.0
C1093 C 0.76375 0.31077 0.40169 0.0
N1094 N 0.79312 0.35129 0.39185 0.0
C1095 C 0.76336 0.40384 0.44982 0.0
C1096 C 0.73779 0.31905 0.45367 0.0
C1097 C 0.78824 0.39594 0.4111 0.0
C1098 C 0.74094 0.36689 0.47302 0.0
C1099 C 0.72727 0.19115 0.37373 0.0
C1100 C 0.76284 0.25617 0.36526 0.0
C1101 C 0.70788 0.18721 0.42497 0.0
C1102 C 0.70742 0.26868 0.47754 0.0
Tb1103 Tb 0.84408 0.33552 0.33797 0.0
N1104 N 0.78078 0.26524 0.31684 0.0
C1105 C 0.69987 0.14512 0.31924 0.0
C1106 C 0.77015 0.23471 0.2621 0.0
C1107 C 0.7319 0.17742 0.24115 0.0
H1108 H 0.80146 0.42701 0.39549 0.0
H1109 H 0.72932 0.15901 0.20277 0.0
H1110 H 0.85235 0.30883 0.13722 0.0
H1111 H 1.02665 0.55247 0.3579 0.0
H1112 H 0.80361 0.23253 0.25509 0.0
H1113 H 0.67486 0.11023 0.3215 0.0
H1114 H 0.94545 0.49401 0.33664 0.0
H1115 H 0.76231 0.44081 0.46286 0.0
H1116 H 0.68985 0.14895 0.42451 0.0
H1117 H 0.68937 0.2761 0.5076 0.0
H1118 H 0.91471 0.258 0.10923 0.0
H1119 H 0.7242 0.3754 0.504 0.0
H1120 H 0.07401 0.56292 0.29676 0.0
N1121 N 0.89799 0.38725 0.1807 0.0
C1122 C 0.94064 0.43444 0.16953 0.0
C1123 C 0.92475 0.29748 0.12062 0.0
C1124 C 0.99409 0.40496 0.11331 0.0
C1125 C 0.88814 0.32559 0.15978 0.0
C1126 C 0.97554 0.33428 0.09637 0.0
N1127 N 0.94024 0.47406 0.25774 0.0
C1128 C 0.96259 0.50081 0.30635 0.0
C1129 C 1.01991 0.50783 0.23705 0.0
C1130 C 0.96457 0.47679 0.21912 0.0
C1131 C 1.03651 0.53957 0.28402 0.0
C1132 C 1.00907 0.53402 0.31914 0.0
H1133 H 0.99177 0.37106 0.09931 0.0
H1134 H 0.07558 0.42608 0.11905 0.0
H1135 H 0.06039 0.48115 0.18986 0.0
O1136 O 0.87652 0.49563 0.2451 0.0
O1137 O 0.93265 0.40127 0.27687 0.0
O1138 O 0.92148 0.38471 0.35475 0.0
O1139 O 0.83187 0.44509 0.17706 0.0
O1140 O 0.84755 0.44965 0.31464 0.0
O1141 O 0.87964 0.41158 0.37421 0.0
O1142 O 0.87877 0.28209 0.32422 0.0
O1143 O 0.77019 0.33807 0.304 0.0
O1144 O 0.78025 0.39532 0.25142 0.0
O1145 O 0.86986 0.30672 0.40048 0.0
O1146 O 0.85465 0.32623 0.26155 0.0
O1147 O 0.81286 0.34963 0.20041 0.0
C1148 C 0.95158 0.39511 0.32381 0.0
C1149 C 0.81645 0.52166 0.20311 0.0
C1150 C 0.77674 0.5672 0.25418 0.0
C1151 C 0.77042 0.59432 0.21614 0.0
C1152 C 0.81136 0.55013 0.16623 0.0
C1153 C 0.78711 0.58523 0.17209 0.0
C1154 C 0.79802 0.52972 0.24681 0.0
C1155 C 0.87153 0.45077 0.36049 0.0
C1156 C 0.84886 0.49103 0.20099 0.0
C1157 C 0.05021 0.43935 0.13793 0.0
C1158 C 0.06178 0.49986 0.21373 0.0
C1159 C 0.75108 0.36413 0.27479 0.0
C1160 C 0.89106 0.23112 0.38367 0.0
C1161 C 0.91701 0.15762 0.36671 0.0
C1162 C 0.90818 0.14767 0.41353 0.0
C1163 C 0.88072 0.21867 0.42907 0.0
C1164 C 0.90868 0.19993 0.35183 0.0
C1165 C 0.8891 0.17712 0.44337 0.0
C1166 C 0.81954 0.31342 0.22074 0.0
C1167 C 0.8875 0.27857 0.37195 0.0
H1168 H 0.75439 0.62387 0.22143 0.0
H1169 H 0.82708 0.54595 0.13348 0.0
H1170 H 0.78357 0.60736 0.14363 0.0
H1171 H 0.80343 0.50951 0.27676 0.0
H1172 H 0.91689 0.11735 0.42786 0.0
H1173 H 0.86869 0.24222 0.45499 0.0
H1174 H 0.91698 0.20919 0.31669 0.0
H1175 H 0.88177 0.16813 0.4783 0.0
Tb1176 Tb 0.10375 0.64386 0.52512 0.0
C1177 C 0.18748 0.54357 0.71664 0.0
N1178 N 0.14663 0.52378 0.67803 0.0
C1179 C 0.15145 0.44366 0.68347 0.0
C1180 C 0.21434 0.5147 0.73715 0.0
C1181 C 0.13267 0.47466 0.65712 0.0
C1182 C 0.19185 0.46397 0.72449 0.0
C1183 C 0.25604 0.61758 0.77933 0.0
C1184 C 0.1985 0.59086 0.74031 0.0
C1185 C 0.28337 0.58665 0.78763 0.0
C1186 C 0.26058 0.53609 0.77145 0.0
Tb1187 Tb 0.10382 0.57338 0.64657 0.0
N1188 N 0.15606 0.61406 0.72906 0.0
C1189 C 0.27309 0.6778 0.81377 0.0
C1190 C 0.15087 0.66459 0.75376 0.0
C1191 C 0.19801 0.70961 0.79453 0.0
H1192 H 0.10317 0.45824 0.62359 0.0
H1193 H 0.19404 0.74617 0.79852 0.0
H1194 H 0.15033 0.75968 0.5839 0.0
H1195 H 0.93669 0.5617 0.37098 0.0
H1196 H 0.11625 0.67064 0.74742 0.0
H1197 H 0.30793 0.69487 0.83777 0.0
H1198 H 1.00679 0.55856 0.43487 0.0
H1199 H 0.13377 0.40448 0.67273 0.0
H1200 H 0.31933 0.60057 0.81268 0.0
H1201 H 0.28 0.51363 0.78724 0.0
H1202 H 0.16495 0.83743 0.55126 0.0
H1203 H 0.2051 0.44034 0.74629 0.0
H1204 H 0.93078 0.63763 0.34965 0.0
N1205 N 0.09447 0.71943 0.51966 0.0
C1206 C 0.06162 0.72236 0.47963 0.0
C1207 C 0.13429 0.80596 0.53289 0.0
C1208 C 0.06418 0.76725 0.46424 0.0
C1209 C 0.12786 0.76149 0.54916 0.0
C1210 C 0.101 0.8094 0.49158 0.0
N1211 N 1.03509 0.63691 0.46131 0.0
C1212 C 1.00226 0.59391 0.43189 0.0
C1213 C 0.99438 0.68105 0.40828 0.0
C1214 C 1.02982 0.67967 0.45031 0.0
C1215 C 0.95942 0.63798 0.38136 0.0
C1216 C 0.96294 0.59447 0.39391 0.0
H1217 H 0.10391 0.84457 0.48133 0.0
H1218 H 1.03722 0.8001 0.40463 0.0
H1219 H 0.96966 0.72682 0.36116 0.0
O1220 O 0.13923 0.62064 0.47169 0.0
O1221 O 0.05003 0.5752 0.51695 0.0
O1222 O 0.04389 0.58918 0.59754 0.0
O1223 O 0.16975 0.69251 0.51945 0.0
O1224 O 0.11374 0.56997 0.50342 0.0
O1225 O 0.11176 0.53013 0.57291 0.0
O1226 O 0.05372 0.56833 0.68972 0.0
O1227 O 0.17159 0.59199 0.62464 0.0
O1228 O 0.14915 0.65282 0.59865 0.0
O1229 O 0.04971 0.50443 0.63412 0.0
O1230 O 0.09672 0.64907 0.6613 0.0
O1231 O 0.08146 0.6834 0.58944 0.0
C1232 C 1.0249 0.56639 0.55011 0.0
C1233 C 0.1706 0.68053 0.43287 0.0
C1234 C 0.17487 0.66276 0.34605 0.0
C1235 C 0.14166 0.68857 0.33265 0.0
C1236 C 0.14319 0.71176 0.42066 0.0
C1237 C 0.12659 0.71409 0.37035 0.0
C1238 C 0.18704 0.65625 0.39551 0.0
C1239 C 0.11847 0.53277 0.52542 0.0
C1240 C 0.17127 0.66307 0.47948 0.0
C1241 C 1.0331 0.76756 0.41923 0.0
C1242 C 0.99631 0.7252 0.39303 0.0
C1243 C 0.18114 0.62968 0.60388 0.0
C1244 C 1.02379 0.49585 0.71063 0.0
C1245 C 1.00311 0.50666 0.79132 0.0
C1246 C 1.02886 0.47466 0.80708 0.0
C1247 C 0.049 0.4636 0.72545 0.0
C1248 C 0.99842 0.51463 0.74233 0.0
C1249 C 0.05062 0.45228 0.77331 0.0
C1250 C 0.08487 0.68359 0.63898 0.0
C1251 C 1.03212 0.52176 0.67064 0.0
H1252 H 0.13031 0.69189 0.29366 0.0
H1253 H 0.13795 0.73664 0.45025 0.0
H1254 H 0.10431 0.73737 0.36106 0.0
H1255 H 0.21017 0.63371 0.40531 0.0
H1256 H 1.03196 0.46653 0.84478 0.0
H1257 H 0.06604 0.44611 0.70022 0.0
H1258 H 0.97855 0.53934 0.7301 0.0
H1259 H 0.06837 0.42579 0.78347 0.0
Tb1260 Tb 0.8897 0.81743 0.30764 0.0
C1261 C 0.75124 0.9176 0.19929 0.0
N1262 N 0.79376 0.9357 0.23605 0.0
C1263 C 0.8171 1.00609 0.19871 0.0
C1264 C 0.74005 0.94337 0.1606 0.0
C1265 C 0.82545 0.98042 0.23726 0.0
C1266 C 0.77438 0.98739 0.16025 0.0
C1267 C 0.66506 0.85498 0.15819 0.0
C1268 C 0.72111 0.87156 0.19849 0.0
C1269 C 0.65843 0.88425 0.12297 0.0
C1270 C 0.69573 0.92622 0.12313 0.0
Tb1271 Tb 0.80457 0.88921 0.29646 0.0
N1272 N 0.7472 0.83741 0.2257 0.0
C1273 C 0.62937 0.79558 0.14257 0.0
C1274 C 0.73389 0.77981 0.22033 0.0
C1275 C 0.67922 0.7415 0.18578 0.0
H1276 H 0.85549 0.9983 0.26956 0.0
H1277 H 0.67279 0.70214 0.18106 0.0
H1278 H 0.85034 0.70797 0.3319 0.0
H1279 H 0.05538 0.98975 0.37567 0.0
H1280 H 0.76145 0.76291 0.23019 0.0
H1281 H 0.59529 0.7859 0.11408 0.0
H1282 H 0.98879 0.91496 0.31326 0.0
H1283 H 0.84271 0.04137 0.20018 0.0
H1284 H 0.62541 0.87274 0.09289 0.0
H1285 H 0.68908 0.9469 0.09385 0.0
H1286 H 0.85992 0.66743 0.40573 0.0
H1287 H 0.76713 1.00783 0.13109 0.0
H1288 H 0.08678 0.93507 0.50584 0.0
N1289 N 0.89917 0.7773 0.37314 0.0
C1290 C 0.93518 0.80171 0.41591 0.0
C1291 C 0.87958 0.70568 0.40924 0.0
C1292 C 0.94119 0.7797 0.45902 0.0
C1293 C 0.87393 0.72894 0.36815 0.0
C1294 C 0.91242 0.73152 0.45489 0.0
N1295 N 0.95542 0.87159 0.36704 0.0
C1296 C 0.98437 0.91937 0.3513 0.0
C1297 C 1.01311 0.87025 0.4672 0.0
C1298 C 0.96606 0.84788 0.41561 0.0
C1299 C 0.05737 0.92283 0.47181 0.0
C1300 C 1.03564 0.95944 0.3897 0.0
H1301 H 0.91811 0.71266 0.48564 0.0
H1302 H 0.97761 0.78727 0.53784 0.0
H1303 H 1.03639 0.86734 0.54367 0.0
O1304 O 0.95306 0.80014 0.31773 0.0
O1305 O 0.86254 0.83052 0.3784 0.0
O1306 O 0.84918 0.90338 0.37658 0.0
O1307 O 0.89399 0.75474 0.25707 0.0
O1308 O 0.91263 0.88355 0.27086 0.0
O1309 O 0.8787 0.93761 0.30701 0.0
O1310 O 0.73962 0.89803 0.3013 0.0
O1311 O 0.82232 0.87221 0.22039 0.0
O1312 O 0.85389 0.80749 0.22487 0.0
O1313 O 0.80278 0.95387 0.34687 0.0
O1314 O 0.7707 0.821 0.32416 0.0
O1315 O 0.81569 0.76891 0.30681 0.0
C1316 C 0.85823 0.87101 0.40323 0.0
C1317 C 0.97667 0.75342 0.25908 0.0
C1318 C 0.05439 0.78904 0.24068 0.0
C1319 C 0.06564 0.74512 0.24459 0.0
C1320 C 0.99135 0.71262 0.26848 0.0
C1321 C 1.0343 0.70724 0.25876 0.0
C1322 C 1.00864 0.79231 0.24523 0.0
C1323 C 0.90936 0.9292 0.28022 0.0
C1324 C 0.93812 0.76139 0.28241 0.0
C1325 C 0.97614 0.80403 0.50471 0.0
C1326 C 1.01103 0.8485 0.50845 0.0
C1327 C 0.83625 0.83625 0.19789 0.0
C1328 C 0.72486 0.94337 0.36937 0.0
C1329 C 0.65161 0.89471 0.38707 0.0
C1330 C 0.63242 0.93424 0.38705 0.0
C1331 C 0.70494 0.9823 0.36844 0.0
C1332 C 0.69906 0.9004 0.38243 0.0
C1333 C 0.65952 0.97833 0.37846 0.0
C1334 C 0.77751 0.77704 0.32208 0.0
C1335 C 0.75576 0.93882 0.33401 0.0
H1336 H 0.09958 0.74063 0.23847 0.0
H1337 H 0.96995 0.68496 0.28475 0.0
H1338 H 0.0441 0.67456 0.26446 0.0
H1339 H 0.99995 0.82631 0.24311 0.0
H1340 H 0.59568 0.93013 0.39116 0.0
H1341 H 0.72198 1.01398 0.35468 0.0
H1342 H 0.71237 0.86868 0.3801 0.0
H1343 H 0.64392 1.00809 0.3757 0.0
Tb1344 Tb 0.81638 0.33791 0.84702 0.0
C1345 C 0.91596 0.26866 0.64998 0.0
N1346 N 0.93745 0.31012 0.688 0.0
C1347 C 1.01137 0.31954 0.6607 0.0
C1348 C 0.94229 0.24922 0.61827 0.0
C1349 C 0.98646 0.33063 0.69755 0.0
C1350 C 0.98964 0.27809 0.62159 0.0
C1351 C 0.84024 0.19515 0.58969 0.0
C1352 C 0.86721 0.25254 0.63493 0.0
C1353 C 0.87288 0.17484 0.57226 0.0
C1354 C 0.92152 0.20406 0.58189 0.0
Tb1355 Tb 0.88949 0.35167 0.72447 0.0
N1356 N 0.84124 0.29326 0.65164 0.0
C1357 C 0.77669 0.17694 0.5556 0.0
C1358 C 0.78758 0.29701 0.63111 0.0
C1359 C 0.74213 0.25045 0.58595 0.0
H1360 H 1.00526 0.35971 0.7304 0.0
H1361 H 0.70627 0.2549 0.57952 0.0
H1362 H 0.7048 0.3198 0.80699 0.0
H1363 H 0.98202 0.45433 0.02132 0.0
H1364 H 0.77771 0.32808 0.64387 0.0
H1365 H 0.76046 0.14498 0.5261 0.0
H1366 H 0.92914 0.42394 0.97275 0.0
H1367 H 0.04815 0.34207 0.66385 0.0
H1368 H 0.85978 0.14038 0.54477 0.0
H1369 H 0.94402 0.19101 0.55957 0.0
H1370 H 0.63552 0.31921 0.84517 0.0
H1371 H 1.01052 0.26797 0.59544 0.0
H1372 H 0.88255 0.49648 0.08641 0.0
N1373 N 0.75728 0.36537 0.87285 0.0
C1374 C 0.76536 0.39288 0.92065 0.0
C1375 C 0.67182 0.34142 0.866 0.0
C1376 C 0.72657 0.398 0.94187 0.0
C1377 C 0.71101 0.34307 0.84403 0.0
C1378 C 0.68026 0.36733 0.91598 0.0
N1379 N 0.85022 0.39429 0.92479 0.0
C1380 C 0.90672 0.40473 0.94268 0.0
C1381 C 0.82013 0.44738 0.00869 0.0
C1382 C 0.81144 0.4103 0.95002 0.0
C1383 C 0.87781 0.47257 0.04951 0.0
C1384 C 0.93992 0.4436 0.00378 0.0
H1385 H 0.65029 0.36504 0.93347 0.0
H1386 H 0.70213 0.43456 0.0015 0.0
H1387 H 0.78399 0.48762 0.05041 0.0
O1388 O 0.83377 0.28547 0.88676 0.0
O1389 O 0.88202 0.38467 0.84213 0.0
O1390 O 0.89587 0.41938 0.77824 0.0
O1391 O 0.76156 0.27263 0.84436 0.0
O1392 O 0.88459 0.31746 0.85398 0.0
O1393 O 0.93637 0.34019 0.7984 0.0
O1394 O 0.87347 0.39104 0.66961 0.0
O1395 O 0.85376 0.27933 0.73466 0.0
O1396 O 0.79862 0.30531 0.76777 0.0
O1397 O 0.94796 0.4014 0.70725 0.0
O1398 O 0.82119 0.37468 0.71902 0.0
O1399 O 0.77811 0.36814 0.78401 0.0
C1400 C 0.88273 0.42114 0.82131 0.0
C1401 C 0.77369 0.26106 0.92885 0.0
C1402 C 0.79412 0.26391 0.01905 0.0
C1403 C 0.768 0.29728 0.02731 0.0
C1404 C 0.73949 0.28473 0.93746 0.0
C1405 C 0.73798 0.30469 0.98632 0.0
C1406 C 0.80004 0.24832 0.97012 0.0
C1407 C 0.92611 0.32081 0.83956 0.0
C1408 C 0.78874 0.26083 0.88066 0.0
C1409 C 0.73361 0.43045 0.98875 0.0
C1410 C 0.77967 0.45805 0.01912 0.0
C1411 C 0.81513 0.27022 0.75254 0.0
C1412 C 0.92803 0.40246 0.6183 0.0
C1413 C 0.90232 0.40655 0.53041 0.0
C1414 C 0.94064 0.38984 0.5187 0.0
C1415 C 0.97048 0.3942 0.6082 0.0
C1416 C 0.8932 0.40692 0.57853 0.0
C1417 C 0.97526 0.38441 0.55805 0.0
C1418 C 0.78407 0.38017 0.73901 0.0
C1419 C 0.91895 0.40949 0.66941 0.0
H1420 H 0.7668 0.31348 0.06536 0.0
H1421 H 0.71393 0.28747 0.90603 0.0
H1422 H 0.71301 0.32487 0.99255 0.0
H1423 H 0.82357 0.22592 0.96407 0.0
H1424 H 0.94748 0.38763 0.48084 0.0
H1425 H 1.00038 0.39696 0.63863 0.0
H1426 H 0.86248 0.41794 0.58691 0.0
H1427 H 1.00749 0.37651 0.55026 0.0
Tb1428 Tb 0.83065 0.79572 0.7827 0.0
C1429 C 0.04366 0.90969 0.88723 0.0
N1430 N 0.98386 0.91659 0.93088 0.0
C1431 C 0.0757 0.99934 0.00253 0.0
C1432 C 0.1012 0.94414 0.91472 0.0
C1433 C 0.99974 0.96168 0.98226 0.0
C1434 C 0.11747 0.98725 0.96804 0.0
C1435 C 0.08148 0.91965 0.80817 0.0
C1436 C 1.03889 0.91083 0.82742 0.0
C1437 C 0.12684 0.9234 0.83815 0.0
C1438 C 0.13739 0.93873 0.89051 0.0
Tb1439 Tb 0.91241 0.91002 0.83616 0.0
N1440 N 0.99431 0.91457 0.79395 0.0
C1441 C 0.0805 0.93302 0.7608 0.0
C1442 C 0.99667 0.93017 0.7493 0.0
C1443 C 1.03909 0.93922 0.73238 0.0
H1444 H 0.9731 0.96042 0.00426 0.0
H1445 H 1.04022 0.95236 0.69722 0.0
H1446 H 0.74373 0.82061 0.70615 0.0
H1447 H 0.81711 0.66677 0.91295 0.0
H1448 H 0.96697 0.93869 0.72717 0.0
H1449 H 0.11353 0.9427 0.74722 0.0
H1450 H 0.85602 0.71378 0.85566 0.0
H1451 H 0.102 0.99684 0.98778 0.0
H1452 H 0.1575 0.9257 0.82084 0.0
H1453 H 0.17519 0.95325 0.91109 0.0
H1454 H 0.66099 0.82345 0.70822 0.0
H1455 H 0.16089 1.00635 0.97653 0.0
H1456 H 0.73544 0.66772 0.9224 0.0
N1457 N 0.74864 0.78215 0.76661 0.0
C1458 C 0.72579 0.76031 0.80016 0.0
C1459 C 0.6778 0.80323 0.73225 0.0
C1460 C 0.67742 0.75834 0.80037 0.0
C1461 C 0.72492 0.80204 0.73157 0.0
C1462 C 0.65363 0.7807 0.76614 0.0
N1463 N 0.79786 0.74389 0.83394 0.0
C1464 C 0.82016 0.71464 0.85909 0.0
C1465 C 0.72772 0.71416 0.8677 0.0
C1466 C 0.75113 0.74021 0.8347 0.0
C1467 C 0.75236 0.68863 0.89715 0.0
C1468 C 0.79833 0.68783 0.89179 0.0
H1469 H 0.61703 0.78155 0.7662 0.0
H1470 H 0.61806 0.73423 0.83682 0.0
H1471 H 0.66185 0.69443 0.89499 0.0
O1472 O 0.86271 0.73988 0.77091 0.0
O1473 O 0.82251 0.86876 0.82153 0.0
O1474 O 0.82602 0.871 0.82241 0.0
O1475 O 0.79742 0.73782 0.71757 0.0
O1476 O 0.86455 0.80292 0.86629 0.0
O1477 O 0.88432 0.88337 0.9024 0.0
O1478 O 0.87666 0.95461 0.80414 0.0
O1479 O 0.90673 0.83289 0.77769 0.0
O1480 O 0.90679 0.83039 0.77606 0.0
O1481 O 0.91943 0.98171 0.88071 0.0
O1482 O 0.8967 0.91121 0.75224 0.0
O1483 O 0.83516 0.83679 0.71538 0.0
C1484 C 0.77982 0.87176 0.82927 0.0
C1485 C 0.82036 0.66368 0.71738 0.0
C1486 C 0.80626 0.58985 0.75135 0.0
C1487 C 0.82089 0.56608 0.71103 0.0
C1488 C 0.84208 0.64223 0.68233 0.0
C1489 C 0.83856 0.59243 0.67611 0.0
C1490 C 0.79985 0.63593 0.75012 0.0
C1491 C 0.86789 0.83703 0.90634 0.0
C1492 C 0.83176 0.71734 0.72778 0.0
C1493 C 0.65496 0.73546 0.83559 0.0
C1494 C 0.67997 0.71308 0.86895 0.0
C1495 C 0.93402 0.80705 0.75487 0.0
C1496 C 0.91303 0.03815 0.82612 0.0
C1497 C 0.89003 0.09153 0.77295 0.0
C1498 C 0.93448 0.1283 0.79618 0.0
C1499 C 0.9579 0.07396 0.84911 0.0
C1500 C 0.88063 0.04662 0.78717 0.0
C1501 C 0.96885 0.11893 0.83339 0.0
C1502 C 0.86581 0.87967 0.71066 0.0
C1503 C 0.89523 0.99202 0.84168 0.0
H1504 H 0.82513 0.52986 0.71078 0.0
H1505 H 0.86296 0.66448 0.66075 0.0
H1506 H 0.85392 0.57574 0.64765 0.0
H1507 H 0.78454 0.65198 0.77852 0.0
H1508 H 0.94145 0.16487 0.78829 0.0
H1509 H 0.98365 0.0677 0.87929 0.0
H1510 H 0.8457 1.01881 0.76997 0.0
H1511 H 1.00292 0.14727 0.85164 0.0
Tb1512 Tb 0.63776 0.63389 0.56786 0.0
C1513 C 0.55012 0.41723 0.46926 0.0
N1514 N 0.53463 0.47531 0.42289 0.0
C1515 C 0.45984 0.37765 0.35265 0.0
C1516 C 0.52107 0.35747 0.44312 0.0
C1517 C 0.48911 0.45503 0.37043 0.0
C1518 C 0.47772 0.33757 0.38916 0.0
C1519 C 0.54659 0.37781 0.55005 0.0
C1520 C 0.55028 0.42056 0.52883 0.0
C1521 C 0.54622 0.33322 0.52166 0.0
C1522 C 0.53085 0.3222 0.46911 0.0
Tb1523 Tb 0.53413 0.54228 0.51659 0.0
N1524 N 0.54255 0.46283 0.56034 0.0
C1525 C 0.53596 0.37758 0.59828 0.0
C1526 C 0.52904 0.45945 0.60515 0.0
C1527 C 0.52583 0.41725 0.62471 0.0
H1528 H 0.48152 0.48034 0.34667 0.0
H1529 H 0.51541 0.41523 0.66063 0.0
H1530 H 0.58909 0.70493 0.63498 0.0
H1531 H 0.76499 0.67878 0.44513 0.0
H1532 H 0.51966 0.48919 0.62543 0.0
H1533 H 0.53208 0.34489 0.61429 0.0
H1534 H 0.71916 0.62664 0.49316 0.0
H1535 H 0.46581 0.35198 0.36856 0.0
H1536 H 0.54718 0.30264 0.54015 0.0
H1537 H 0.5196 0.28394 0.44956 0.0
H1538 H 0.58392 0.78948 0.64303 0.0
H1539 H 0.46288 0.29316 0.38189 0.0
H1540 H 0.75918 0.76249 0.44509 0.0
N1541 N 0.63373 0.71267 0.5817 0.0
C1542 C 0.65727 0.74314 0.55446 0.0
C1543 C 0.60535 0.77709 0.61866 0.0
C1544 C 0.65694 0.79251 0.55976 0.0
C1545 C 0.60847 0.72911 0.61408 0.0
C1546 C 0.63032 0.80918 0.59212 0.0
N1547 N 0.68239 0.67779 0.51773 0.0
C1548 C 0.71463 0.66263 0.49302 0.0
C1549 C 0.70919 0.75681 0.49485 0.0
C1550 C 0.68214 0.72516 0.52141 0.0
C1551 C 0.73791 0.73929 0.46579 0.0
C1552 C 0.74128 0.6922 0.46565 0.0
H1553 H 0.62832 0.84649 0.59637 0.0
H1554 H 0.68209 0.86126 0.53537 0.0
H1555 H 0.72851 0.83012 0.47921 0.0
O1556 O 0.69758 0.60869 0.58523 0.0
O1557 O 0.56142 0.63271 0.52598 0.0
O1558 O 0.55987 0.63047 0.52535 0.0
O1559 O 0.69873 0.67952 0.62563 0.0
O1560 O 0.63557 0.59908 0.48723 0.0
O1561 O 0.55673 0.57238 0.44774 0.0
O1562 O 0.47079 0.53024 0.54422 0.0
O1563 O 0.61077 0.55311 0.58049 0.0
O1564 O 0.61343 0.55419 0.58217 0.0
O1565 O 0.46763 0.54137 0.4686 0.0
O1566 O 0.52939 0.56882 0.59742 0.0
O1567 O 0.6045 0.62622 0.63661 0.0
C1568 C 0.53377 0.65974 0.5059 0.0
C1569 C 0.77044 0.671 0.60016 0.0
C1570 C 0.83244 0.65582 0.5568 0.0
C1571 C 0.85447 0.70696 0.56544 0.0
C1572 C 0.79158 0.7219 0.60592 0.0
C1573 C 0.83375 0.73961 0.5892 0.0
C1574 C 0.79091 0.63832 0.5749 0.0
C1575 C 0.60221 0.59268 0.44488 0.0
C1576 C 0.72448 0.65038 0.61494 0.0
C1577 C 0.68227 0.8234 0.53198 0.0
C1578 C 0.70841 0.80561 0.4997 0.0
C1579 C 0.64022 0.52954 0.6072 0.0
C1580 C 0.40943 0.56173 0.51041 0.0
C1581 C 0.3661 0.59353 0.56758 0.0
C1582 C 0.33332 0.59873 0.52564 0.0
C1583 C 0.37699 0.56714 0.46833 0.0
C1584 C 0.40429 0.57622 0.55999 0.0
C1585 C 0.33924 0.58609 0.47609 0.0
C1586 C 0.56108 0.59791 0.63962 0.0
C1587 C 0.44339 0.53397 0.50307 0.0
H1588 H 0.88778 0.72202 0.55428 0.0
H1589 H 0.77547 0.74795 0.62293 0.0
H1590 H 0.85029 0.77879 0.59432 0.0
H1591 H 0.77446 0.59892 0.56956 0.0
H1592 H 0.30357 0.61272 0.53124 0.0
H1593 H 0.37999 0.55555 0.42967 0.0
H1594 H 0.42881 0.57234 0.59312 0.0
H1595 H 0.31406 0.59006 0.44368 0.0
Tb1596 Tb 1.03309 0.58133 0.10011 0.0
C1597 C 0.14854 0.6855 0.96844 0.0
N1598 N 0.1131 0.64281 0.96424 0.0
C1599 C 0.06657 0.64855 0.88237 0.0
C1600 C 0.14112 0.71177 0.91578 0.0
C1601 C 0.07854 0.62212 0.9194 0.0
C1602 C 0.09657 0.69432 0.88162 0.0
C1603 C 0.26697 0.72992 0.00649 0.0
C1604 C 0.20295 0.68953 0.01025 0.0
C1605 C 0.2715 0.75046 0.95307 0.0
C1606 C 0.18939 0.74449 0.8954 0.0
Tb1607 Tb 0.12851 0.59821 0.02453 0.0
N1608 N 0.1953 0.66399 0.05536 0.0
C1609 C 0.31087 0.75291 0.06336 0.0
C1610 C 0.22569 0.66994 0.11043 0.0
C1611 C 0.28158 0.7088 0.13467 0.0
H1612 H 0.05993 0.5833 0.91081 0.0
H1613 H 0.29498 0.72353 0.12365 0.0
H1614 H 0.14265 0.52769 0.1393 0.0
H1615 H 0.86487 0.48412 0.93922 0.0
H1616 H 0.22186 0.63748 0.12438 0.0
H1617 H 0.34385 0.78174 0.06336 0.0
H1618 H 0.93188 0.55983 0.00756 0.0
H1619 H 1.03592 0.63079 0.8502 0.0
H1620 H 0.30879 0.77178 0.95493 0.0
H1621 H 0.17986 0.76494 0.86693 0.0
H1622 H 0.16396 0.46821 0.2049 0.0
H1623 H 0.08942 0.71038 0.8486 0.0
H1624 H 0.84677 0.36123 0.00119 0.0
N1625 N 0.05607 0.51972 0.13426 0.0
C1626 C 1.00199 0.48576 0.14248 0.0
C1627 C 0.12711 0.46992 0.19654 0.0
C1628 C 1.01333 0.42106 0.19956 0.0
C1629 C 0.11305 0.51366 0.15552 0.0
C1630 C 0.08073 0.42499 0.21823 0.0
N1631 N 0.96169 0.51796 0.06425 0.0
C1632 C 0.93134 0.52354 0.0125 0.0
C1633 C 0.91323 0.41287 0.07238 0.0
C1634 C 0.95787 0.47457 0.09504 0.0
C1635 C 0.87218 0.39837 0.01441 0.0
C1636 C 0.88573 0.47622 0.97268 0.0
H1637 H 0.09108 0.39714 0.23616 0.0
H1638 H 1.00032 0.39941 0.1982 0.0
H1639 H 0.92873 0.37011 0.12238 0.0
O1640 O 1.02391 0.61157 0.17281 0.0
O1641 O 0.05042 0.50854 0.06767 0.0
O1642 O 0.09336 0.51576 0.00559 0.0
O1643 O 0.96405 0.5691 0.11207 0.0
O1644 O 1.01594 0.61166 0.03359 0.0
O1645 O 0.05127 0.56497 0.99144 0.0
O1646 O 0.1852 0.56668 0.03861 0.0
O1647 O 0.12808 0.67611 0.05932 0.0
O1648 O 0.06211 0.66612 0.09641 0.0
O1649 O 0.15553 0.57442 0.96229 0.0
O1650 O 0.13366 0.5867 0.10087 0.0
O1651 O 0.09874 0.62459 0.15237 0.0
C1652 C 0.06966 0.48666 0.032 0.0
C1653 C 0.94861 0.62982 0.16119 0.0
C1654 C 0.90202 0.67538 0.11706 0.0
C1655 C 0.87794 0.67813 0.15674 0.0
C1656 C 0.92067 0.62802 0.19744 0.0
C1657 C 0.88818 0.65536 0.19742 0.0
C1658 C 0.93939 0.65401 0.12087 0.0
C1659 C 1.02046 0.59012 0.99059 0.0
C1660 C 0.97685 0.59574 0.15714 0.0
C1661 C 0.96938 0.37166 0.17633 0.0
C1662 C 0.91209 0.37123 0.09923 0.0
C1663 C 0.09982 0.69698 0.08261 0.0
C1664 C 0.23192 0.55656 0.97661 0.0
C1665 C 0.30881 0.53691 0.99208 0.0
C1666 C 0.31633 0.55057 0.94621 0.0
C1667 C 0.24122 0.57038 0.93139 0.0
C1668 C 0.26614 0.53985 0.00728 0.0
C1669 C 0.28361 0.56841 0.91719 0.0
C1670 C 0.13776 0.61841 0.14218 0.0
C1671 C 0.18571 0.55729 0.99035 0.0
H1672 H 0.84946 0.69555 0.15488 0.0
H1673 H 0.92507 0.60678 0.22669 0.0
H1674 H 0.86923 0.65679 0.2278 0.0
H1675 H 0.95769 0.65169 0.08989 0.0
H1676 H 0.34698 0.54614 0.93168 0.0
H1677 H 0.21491 0.58049 0.90543 0.0
H1678 H 0.25917 0.52845 0.04205 0.0
H1679 H 0.29032 0.57902 0.88248 0.0
loop_
_geom_bond_atom_site_label_1
_geom_bond_atom_site_label_2
_geom_bond_distance
_geom_bond_site_symmetry_2
_ccdc_geom_bond_type
Zn0 O3 2.031 . S
Zn0 O5 2.049 . S
Zn0 O10 2.067 1_455 S
Zn1 O2 1.962 . S
Zn1 O4 1.986 . S
Zn1 O6 1.996 . S
Zn1 O9 1.943 . S
O2 Zn1 1.962 . S
O2 C7 1.254 . S
O3 Zn0 2.031 . S
O3 C7 1.269 . S
O4 Zn1 1.986 . S
O4 C11 1.262 . S
O5 Zn0 2.049 . S
O5 C13 1.260 . S
O6 Zn1 1.996 . S
O6 C13 1.257 . S
C7 O2 1.254 . S
C7 O3 1.269 . S
C8 O9 1.249 1_655 S
C8 O10 1.270 . S
O9 Zn1 1.943 . S
O9 C8 1.249 1_455 S
O10 Zn0 2.067 1_655 S
O10 C8 1.270 . S
C11 O4 1.262 . S
C11 O12 1.232 . S
O12 C11 1.232 . S
C13 O5 1.260 . S
C13 O6 1.257 . S
Zn14 O17 2.031 1_455 S
Zn14 O19 2.049 . S
Zn14 O24 2.067 . S
Zn15 O16 1.962 . S
Zn15 O18 1.986 . S
Zn15 O20 1.996 . S
Zn15 O23 1.943 . S
O16 Zn15 1.962 . S
O16 C21 1.254 1_455 S
O17 Zn14 2.031 1_655 S
O17 C21 1.269 . S
O18 Zn15 1.986 . S
O18 C25 1.262 . S
O19 Zn14 2.049 . S
O19 C27 1.260 . S
O20 Zn15 1.996 . S
O20 C27 1.257 . S
C21 O16 1.254 1_655 S
C21 O17 1.269 . S
C22 O23 1.249 . S
C22 O24 1.270 . S
O23 Zn15 1.943 . S
O23 C22 1.249 . S
O24 Zn14 2.067 . S
O24 C22 1.270 . S
C25 O18 1.262 . S
C25 O26 1.232 . S
O26 C25 1.232 . S
C27 O19 1.260 . S
C27 O20 1.257 . S
Zn28 O31 2.031 . S
Zn28 O33 2.049 . S
Zn28 O38 2.067 . S
Zn29 O30 1.962 . S
Zn29 O32 1.986 . S
Zn29 O34 1.996 . S
Zn29 O37 1.943 . S
O30 Zn29 1.962 . S
O30 C35 1.254 . S
O31 Zn28 2.031 . S
O31 C35 1.269 . S
O32 Zn29 1.986 . S
O32 C39 1.262 . S
O33 Zn28 2.049 . S
O33 C41 1.260 . S
O34 Zn29 1.996 . S
O34 C41 1.257 . S
C35 O30 1.254 . S
C35 O31 1.269 . S
C36 O37 1.249 . S
C36 O38 1.270 . S
O37 Zn29 1.943 . S
O37 C36 1.249 . S
O38 Zn28 2.067 . S
O38 C36 1.270 . S
C39 O32 1.262 . S
C39 O40 1.232 . S
O40 C39 1.232 . S
C41 O33 1.260 . S
C41 O34 1.257 . S
Zn42 O45 2.031 . S
Zn42 O47 2.049 . S
Zn42 O52 2.067 . S
Zn43 O44 1.962 . S
Zn43 O46 1.986 . S
Zn43 O48 1.996 . S
Zn43 O51 1.943 . S
O44 Zn43 1.962 . S
O44 C49 1.254 . S
O45 Zn42 2.031 . S
O45 C49 1.269 . S
O46 Zn43 1.986 . S
O46 C53 1.262 . S
O47 Zn42 2.049 . S
O47 C55 1.260 . S
O48 Zn43 1.996 . S
O48 C55 1.257 . S
C49 O44 1.254 . S
C49 O45 1.269 . S
C50 O51 1.249 . S
C50 O52 1.270 . S
O51 Zn43 1.943 . S
O51 C50 1.249 . S
O52 Zn42 2.067 . S
O52 C50 1.270 . S
C53 O46 1.262 . S
C53 O54 1.232 . S
O54 C53 1.232 . S
C55 O47 1.260 . S
C55 O48 1.257 . S
Zn56 O59 2.031 . S
Zn56 O61 2.049 . S
Zn56 O66 2.067 . S
Zn57 O58 1.962 . S
Zn57 O60 1.986 . S
Zn57 O62 1.996 . S
Zn57 O65 1.943 . S
O58 Zn57 1.962 . S
O58 C63 1.254 . S
O59 Zn56 2.031 . S
O59 C63 1.269 . S
O60 Zn57 1.986 . S
O60 C67 1.262 . S
O61 Zn56 2.049 . S
O61 C69 1.260 . S
O62 Zn57 1.996 . S
O62 C69 1.257 . S
C63 O58 1.254 . S
C63 O59 1.269 . S
C64 O65 1.249 . S
C64 O66 1.270 . S
O65 Zn57 1.943 . S
O65 C64 1.249 . S
O66 Zn56 2.067 . S
O66 C64 1.270 . S
C67 O60 1.262 . S
C67 O68 1.232 . S
O68 C67 1.232 . S
C69 O61 1.260 . S
C69 O62 1.257 . S
Zn70 O73 2.031 . S
Zn70 O75 2.049 . S
Zn70 O80 2.067 . S
Zn71 O72 1.962 . S
Zn71 O74 1.986 . S
Zn71 O76 1.996 . S
Zn71 O79 1.943 . S
O72 Zn71 1.962 . S
O72 C77 1.254 . S
O73 Zn70 2.031 . S
O73 C77 1.269 . S
O74 Zn71 1.986 . S
O74 C81 1.262 . S
O75 Zn70 2.049 . S
O75 C83 1.260 . S
O76 Zn71 1.996 . S
O76 C83 1.257 . S
C77 O72 1.254 . S
C77 O73 1.269 . S
C78 O79 1.249 . S
C78 O80 1.270 . S
O79 Zn71 1.943 . S
O79 C78 1.249 . S
O80 Zn70 2.067 . S
O80 C78 1.270 . S
C81 O74 1.262 . S
C81 O82 1.232 . S
O82 C81 1.232 . S
C83 O75 1.260 . S
C83 O76 1.257 . S
Zn84 O87 2.031 . S
Zn84 O89 2.049 . S
Zn84 O94 2.067 . S
Zn85 O86 1.962 . S
Zn85 O88 1.986 . S
Zn85 O90 1.996 . S
Zn85 O93 1.943 . S
O86 Zn85 1.962 . S
O86 C91 1.254 . S
O87 Zn84 2.031 . S
O87 C91 1.269 . S
O88 Zn85 1.986 . S
O88 C95 1.262 . S
O89 Zn84 2.049 . S
O89 C97 1.260 . S
O90 Zn85 1.996 . S
O90 C97 1.257 . S
C91 O86 1.254 . S
C91 O87 1.269 . S
C92 O93 1.249 . S
C92 O94 1.270 . S
O93 Zn85 1.943 . S
O93 C92 1.249 . S
O94 Zn84 2.067 . S
O94 C92 1.270 . S
C95 O88 1.262 . S
C95 O96 1.232 . S
O96 C95 1.232 . S
C97 O89 1.260 . S
C97 O90 1.257 . S
Zn98 O101 2.031 . S
Zn98 O103 2.049 . S
Zn98 O108 2.067 1_554 S
Zn99 O100 1.962 1_556 S
Zn99 O102 1.986 . S
Zn99 O104 1.996 1_556 S
Zn99 O107 1.943 1_455 S
O100 Zn99 1.962 1_554 S
O100 C105 1.254 . S
O101 Zn98 2.031 . S
O101 C105 1.269 1_655 S
O102 Zn99 1.986 . S
O102 C109 1.262 . S
O103 Zn98 2.049 . S
O103 C111 1.260 . S
O104 Zn99 1.996 1_554 S
O104 C111 1.257 1_455 S
C105 O100 1.254 . S
C105 O101 1.269 1_455 S
C106 O107 1.249 . S
C106 O108 1.270 . S
O107 Zn99 1.943 1_655 S
O107 C106 1.249 . S
O108 Zn98 2.067 1_556 S
O108 C106 1.270 . S
C109 O102 1.262 . S
C109 O110 1.232 . S
O110 C109 1.232 . S
C111 O103 1.260 . S
C111 O104 1.257 1_655 S
Zn112 O115 2.031 . S
Zn112 O117 2.049 . S
Zn112 O122 2.067 . S
Zn113 O114 1.962 . S
Zn113 O116 1.986 . S
Zn113 O118 1.996 . S
Zn113 O121 1.943 1_545 S
O114 Zn113 1.962 . S
O114 C119 1.254 . S
O115 Zn112 2.031 . S
O115 C119 1.269 1_565 S
O116 Zn113 1.986 . S
O116 C123 1.262 . S
O117 Zn112 2.049 . S
O117 C125 1.260 . S
O118 Zn113 1.996 . S
O118 C125 1.257 1_545 S
C119 O114 1.254 . S
C119 O115 1.269 1_545 S
C120 O121 1.249 . S
C120 O122 1.270 . S
O121 Zn113 1.943 1_565 S
O121 C120 1.249 . S
O122 Zn112 2.067 . S
O122 C120 1.270 . S
C123 O116 1.262 . S
C123 O124 1.232 . S
O124 C123 1.232 . S
C125 O117 1.260 . S
C125 O118 1.257 1_565 S
Zn126 O129 2.031 . S
Zn126 O131 2.049 . S
Zn126 O136 2.067 . S
Zn127 O128 1.962 . S
Zn127 O130 1.986 . S
Zn127 O132 1.996 . S
Zn127 O135 1.943 . S
O128 Zn127 1.962 . S
O128 C133 1.254 . S
O129 Zn126 2.031 . S
O129 C133 1.269 . S
O130 Zn127 1.986 . S
O130 C137 1.262 . S
O131 Zn126 2.049 . S
O131 C139 1.260 . S
O132 Zn127 1.996 . S
O132 C139 1.257 . S
C133 O128 1.254 . S
C133 O129 1.269 . S
C134 O135 1.249 . S
C134 O136 1.270 . S
O135 Zn127 1.943 . S
O135 C134 1.249 . S
O136 Zn126 2.067 . S
O136 C134 1.270 . S
C137 O130 1.262 . S
C137 O138 1.232 . S
O138 C137 1.232 . S
C139 O131 1.260 . S
C139 O132 1.257 . S
Zn140 O143 2.031 . S
Zn140 O145 2.049 . S
Zn140 O150 2.067 . S
Zn141 O142 1.962 . S
Zn141 O144 1.986 . S
Zn141 O146 1.996 . S
Zn141 O149 1.943 . S
O142 Zn141 1.962 . S
O142 C147 1.254 . S
O143 Zn140 2.031 . S
O143 C147 1.269 . S
O144 Zn141 1.986 . S
O144 C151 1.262 . S
O145 Zn140 2.049 . S
O145 C153 1.260 . S
O146 Zn141 1.996 . S
O146 C153 1.257 . S
C147 O142 1.254 . S
C147 O143 1.269 . S
C148 O149 1.249 . S
C148 O150 1.270 . S
O149 Zn141 1.943 . S
O149 C148 1.249 . S
O150 Zn140 2.067 . S
O150 C148 1.270 . S
C151 O144 1.262 . S
C151 O152 1.232 . S
O152 C151 1.232 . S
C153 O145 1.260 . S
C153 O146 1.257 . S
Zn154 O157 2.031 1_554 S
Zn154 O159 2.049 . S
Zn154 O164 2.067 1_565 S
Zn155 O156 1.962 . S
Zn155 O158 1.986 1_566 S
Zn155 O160 1.996 1_556 S
Zn155 O163 1.943 1_566 S
O156 Zn155 1.962 . S
O156 C161 1.254 . S
O157 Zn154 2.031 1_556 S
O157 C161 1.269 . S
O158 Zn155 1.986 1_544 S
O158 C165 1.262 1_554 S
O159 Zn154 2.049 . S
O159 C167 1.260 . S
O160 Zn155 1.996 1_554 S
O160 C167 1.257 . S
C161 O156 1.254 . S
C161 O157 1.269 . S
C162 O163 1.249 . S
C162 O164 1.270 . S
O163 Zn155 1.943 1_544 S
O163 C162 1.249 . S
O164 Zn154 2.067 1_545 S
O164 C162 1.270 . S
C165 O158 1.262 1_556 S
C165 O166 1.232 . S
O166 C165 1.232 . S
C167 O159 1.260 . S
C167 O160 1.257 . S
Zn168 O171 2.031 . S
Zn168 O173 2.049 . S
Zn168 O178 2.067 . S
Zn169 O170 1.962 . S
Zn169 O172 1.986 . S
Zn169 O174 1.996 . S
Zn169 O177 1.943 . S
O170 Zn169 1.962 . S
O170 C175 1.254 1_554 S
O171 Zn168 2.031 . S
O171 C175 1.269 1_554 S
O172 Zn169 1.986 . S
O172 C179 1.262 . S
O173 Zn168 2.049 . S
O173 C181 1.260 . S
O174 Zn169 1.996 . S
O174 C181 1.257 . S
C175 O170 1.254 1_556 S
C175 O171 1.269 1_556 S
C176 O177 1.249 . S
C176 O178 1.270 . S
O177 Zn169 1.943 . S
O177 C176 1.249 . S
O178 Zn168 2.067 . S
O178 C176 1.270 . S
C179 O172 1.262 . S
C179 O180 1.232 . S
O180 C179 1.232 . S
C181 O173 1.260 . S
C181 O174 1.257 . S
Zn182 O185 2.031 . S
Zn182 O187 2.049 . S
Zn182 O192 2.067 . S
Zn183 O184 1.962 . S
Zn183 O186 1.986 . S
Zn183 O188 1.996 . S
Zn183 O191 1.943 . S
O184 Zn183 1.962 . S
O184 C189 1.254 . S
O185 Zn182 2.031 . S
O185 C189 1.269 . S
O186 Zn183 1.986 . S
O186 C193 1.262 . S
O187 Zn182 2.049 . S
O187 C195 1.260 . S
O188 Zn183 1.996 . S
O188 C195 1.257 . S
C189 O184 1.254 . S
C189 O185 1.269 . S
C190 O191 1.249 . S
C190 O192 1.270 . S
O191 Zn183 1.943 . S
O191 C190 1.249 . S
O192 Zn182 2.067 . S
O192 C190 1.270 . S
C193 O186 1.262 . S
C193 O194 1.232 . S
O194 C193 1.232 . S
C195 O187 1.260 . S
C195 O188 1.257 . S
Zn196 O199 2.031 . S
Zn196 O201 2.049 . S
Zn196 O206 2.067 . S
Zn197 O198 1.962 . S
Zn197 O200 1.986 . S
Zn197 O202 1.996 . S
Zn197 O205 1.943 . S
O198 Zn197 1.962 . S
O198 C203 1.254 . S
O199 Zn196 2.031 . S
O199 C203 1.269 . S
O200 Zn197 1.986 . S
O200 C207 1.262 . S
O201 Zn196 2.049 . S
O201 C209 1.260 . S
O202 Zn197 1.996 . S
O202 C209 1.257 . S
C203 O198 1.254 . S
C203 O199 1.269 . S
C204 O205 1.249 . S
C204 O206 1.270 . S
O205 Zn197 1.943 . S
O205 C204 1.249 . S
O206 Zn196 2.067 . S
O206 C204 1.270 . S
C207 O200 1.262 . S
C207 O208 1.232 . S
O208 C207 1.232 . S
C209 O201 1.260 . S
C209 O202 1.257 . S
Zn210 O213 2.031 . S
Zn210 O215 2.049 . S
Zn210 O220 2.067 . S
Zn211 O212 1.962 . S
Zn211 O214 1.986 . S
Zn211 O216 1.996 . S
Zn211 O219 1.943 . S
O212 Zn211 1.962 . S
O212 C217 1.254 . S
O213 Zn210 2.031 . S
O213 C217 1.269 . S
O214 Zn211 1.986 . S
O214 C221 1.262 . S
O215 Zn210 2.049 . S
O215 C223 1.260 . S
O216 Zn211 1.996 . S
O216 C223 1.257 . S
C217 O212 1.254 . S
C217 O213 1.269 . S
C218 O219 1.249 . S
C218 O220 1.270 . S
O219 Zn211 1.943 . S
O219 C218 1.249 . S
O220 Zn210 2.067 . S
O220 C218 1.270 . S
C221 O214 1.262 . S
C221 O222 1.232 . S
O222 C221 1.232 . S
C223 O215 1.260 . S
C223 O216 1.257 . S
Zn224 O227 2.031 . S
Zn224 O229 2.049 . S
Zn224 O234 2.067 1_455 S
Zn225 O226 1.962 1_655 S
Zn225 O228 1.986 . S
Zn225 O230 1.996 1_655 S
Zn225 O233 1.943 1_545 S
O226 Zn225 1.962 1_455 S
O226 C231 1.254 . S
O227 Zn224 2.031 . S
O227 C231 1.269 1_565 S
O228 Zn225 1.986 . S
O228 C235 1.262 . S
O229 Zn224 2.049 . S
O229 C237 1.260 1_565 S
O230 Zn225 1.996 1_455 S
O230 C237 1.257 . S
C231 O226 1.254 . S
C231 O227 1.269 1_545 S
C232 O233 1.249 . S
C232 O234 1.270 . S
O233 Zn225 1.943 1_565 S
O233 C232 1.249 . S
O234 Zn224 2.067 1_655 S
O234 C232 1.270 . S
C235 O228 1.262 . S
C235 O236 1.232 . S
O236 C235 1.232 . S
C237 O229 1.260 1_545 S
C237 O230 1.257 . S
Zn238 O241 2.031 . S
Zn238 O243 2.049 . S
Zn238 O248 2.067 . S
Zn239 O240 1.962 . S
Zn239 O242 1.986 . S
Zn239 O244 1.996 . S
Zn239 O247 1.943 . S
O240 Zn239 1.962 . S
O240 C245 1.254 . S
O241 Zn238 2.031 . S
O241 C245 1.269 . S
O242 Zn239 1.986 . S
O242 C249 1.262 . S
O243 Zn238 2.049 . S
O243 C251 1.260 . S
O244 Zn239 1.996 . S
O244 C251 1.257 . S
C245 O240 1.254 . S
C245 O241 1.269 . S
C246 O247 1.249 . S
C246 O248 1.270 . S
O247 Zn239 1.943 . S
O247 C246 1.249 . S
O248 Zn238 2.067 . S
O248 C246 1.270 . S
C249 O242 1.262 . S
C249 O250 1.232 . S
O250 C249 1.232 . S
C251 O243 1.260 . S
C251 O244 1.257 . S
Zn252 O255 2.031 . S
Zn252 O257 2.049 . S
Zn252 O262 2.067 . S
Zn253 O254 1.962 . S
Zn253 O256 1.986 . S
Zn253 O258 1.996 . S
Zn253 O261 1.943 . S
O254 Zn253 1.962 . S
O254 C259 1.254 . S
O255 Zn252 2.031 . S
O255 C259 1.269 . S
O256 Zn253 1.986 . S
O256 C263 1.262 . S
O257 Zn252 2.049 . S
O257 C265 1.260 . S
O258 Zn253 1.996 . S
O258 C265 1.257 . S
C259 O254 1.254 . S
C259 O255 1.269 . S
C260 O261 1.249 . S
C260 O262 1.270 . S
O261 Zn253 1.943 . S
O261 C260 1.249 . S
O262 Zn252 2.067 . S
O262 C260 1.270 . S
C263 O256 1.262 . S
C263 O264 1.232 . S
O264 C263 1.232 . S
C265 O257 1.260 . S
C265 O258 1.257 . S
Zn266 O269 2.031 . S
Zn266 O271 2.049 . S
Zn266 O276 2.067 . S
Zn267 O268 1.962 . S
Zn267 O270 1.986 . S
Zn267 O272 1.996 . S
Zn267 O275 1.943 . S
O268 Zn267 1.962 . S
O268 C273 1.254 . S
O269 Zn266 2.031 . S
O269 C273 1.269 . S
O270 Zn267 1.986 . S
O270 C277 1.262 . S
O271 Zn266 2.049 . S
O271 C279 1.260 . S
O272 Zn267 1.996 . S
O272 C279 1.257 . S
C273 O268 1.254 . S
C273 O269 1.269 . S
C274 O275 1.249 . S
C274 O276 1.270 . S
O275 Zn267 1.943 . S
O275 C274 1.249 . S
O276 Zn266 2.067 . S
O276 C274 1.270 . S
C277 O270 1.262 . S
C277 O278 1.232 . S
O278 C277 1.232 . S
C279 O271 1.260 . S
C279 O272 1.257 . S
Zn280 O283 2.031 1_554 S
Zn280 O285 2.049 . S
Zn280 O290 2.067 . S
Zn281 O282 1.962 1_554 S
Zn281 O284 1.986 . S
Zn281 O286 1.996 . S
Zn281 O289 1.943 . S
O282 Zn281 1.962 1_556 S
O282 C287 1.254 . S
O283 Zn280 2.031 1_556 S
O283 C287 1.269 . S
O284 Zn281 1.986 . S
O284 C291 1.262 . S
O285 Zn280 2.049 . S
O285 C293 1.260 . S
O286 Zn281 1.996 . S
O286 C293 1.257 . S
C287 O282 1.254 . S
C287 O283 1.269 . S
C288 O289 1.249 . S
C288 O290 1.270 . S
O289 Zn281 1.943 . S
O289 C288 1.249 . S
O290 Zn280 2.067 . S
O290 C288 1.270 . S
C291 O284 1.262 . S
C291 O292 1.232 1_554 S
O292 C291 1.232 1_556 S
C293 O285 1.260 . S
C293 O286 1.257 . S
Zn294 O297 2.031 . S
Zn294 O299 2.049 . S
Zn294 O304 2.067 . S
Zn295 O296 1.962 . S
Zn295 O298 1.986 . S
Zn295 O300 1.996 . S
Zn295 O303 1.943 . S
O296 Zn295 1.962 . S
O296 C301 1.254 . S
O297 Zn294 2.031 . S
O297 C301 1.269 . S
O298 Zn295 1.986 . S
O298 C305 1.262 . S
O299 Zn294 2.049 . S
O299 C307 1.260 . S
O300 Zn295 1.996 . S
O300 C307 1.257 . S
C301 O296 1.254 . S
C301 O297 1.269 . S
C302 O303 1.249 . S
C302 O304 1.270 . S
O303 Zn295 1.943 . S
O303 C302 1.249 . S
O304 Zn294 2.067 . S
O304 C302 1.270 . S
C305 O298 1.262 . S
C305 O306 1.232 . S
O306 C305 1.232 . S
C307 O299 1.260 . S
C307 O300 1.257 . S
Zn308 O311 2.031 . S
Zn308 O313 2.049 . S
Zn308 O318 2.067 . S
Zn309 O310 1.962 . S
Zn309 O312 1.986 . S
Zn309 O314 1.996 . S
Zn309 O317 1.943 . S
O310 Zn309 1.962 . S
O310 C315 1.254 . S
O311 Zn308 2.031 . S
O311 C315 1.269 . S
O312 Zn309 1.986 . S
O312 C319 1.262 . S
O313 Zn308 2.049 . S
O313 C321 1.260 . S
O314 Zn309 1.996 . S
O314 C321 1.257 . S
C315 O310 1.254 . S
C315 O311 1.269 . S
C316 O317 1.249 . S
C316 O318 1.270 . S
O317 Zn309 1.943 . S
O317 C316 1.249 . S
O318 Zn308 2.067 . S
O318 C316 1.270 . S
C319 O312 1.262 . S
C319 O320 1.232 . S
O320 C319 1.232 . S
C321 O313 1.260 . S
C321 O314 1.257 . S
Zn322 O325 2.031 . S
Zn322 O327 2.049 . S
Zn322 O332 2.067 . S
Zn323 O324 1.962 . S
Zn323 O326 1.986 . S
Zn323 O328 1.996 . S
Zn323 O331 1.943 . S
O324 Zn323 1.962 . S
O324 C329 1.254 . S
O325 Zn322 2.031 . S
O325 C329 1.269 . S
O326 Zn323 1.986 . S
O326 C333 1.262 . S
O327 Zn322 2.049 . S
O327 C335 1.260 . S
O328 Zn323 1.996 . S
O328 C335 1.257 . S
C329 O324 1.254 . S
C329 O325 1.269 . S
C330 O331 1.249 . S
C330 O332 1.270 . S
O331 Zn323 1.943 . S
O331 C330 1.249 . S
O332 Zn322 2.067 . S
O332 C330 1.270 . S
C333 O326 1.262 . S
C333 O334 1.232 . S
O334 C333 1.232 . S
C335 O327 1.260 . S
C335 O328 1.257 . S
Tb336 N365 2.617 . S
Tb336 N371 2.572 . S
Tb336 O380 2.465 . S
Tb336 O381 2.387 . S
Tb336 O383 2.428 . S
Tb336 O384 2.308 . S
Tb336 O388 2.349 . S
Tb336 O391 2.393 . S
Tb336 C400 2.802 . S
C337 N338 1.379 . S
C337 C340 1.416 . S
C337 C344 1.424 . S
N338 C337 1.379 . S
N338 C341 1.334 . S
N338 Tb347 2.617 1_566 S
C339 C341 1.390 . S
C339 C342 1.339 . S
C339 H359 0.930 . S
C340 C337 1.416 . S
C340 C342 1.416 . S
C340 C346 1.448 . S
C341 N338 1.334 . S
C341 C339 1.390 . S
C341 H352 0.930 . S
C342 C339 1.339 . S
C342 C340 1.416 . S
C342 H363 0.930 . S
C343 C344 1.413 . S
C343 C345 1.427 . S
C343 C349 1.416 1_556 S
C344 C337 1.424 . S
C344 C343 1.413 . S
C344 N348 1.361 1_556 S
C345 C343 1.427 . S
C345 C346 1.328 . S
C345 H360 0.929 . S
C346 C340 1.448 . S
C346 C345 1.328 . S
C346 H361 0.930 . S
Tb347 N338 2.617 1_544 S
Tb347 N348 2.572 1_545 S
Tb347 O382 2.349 1_655 S
Tb347 O385 2.393 1_654 S
Tb347 O386 2.465 . S
Tb347 O387 2.387 1_645 S
Tb347 O389 2.428 1_554 S
Tb347 O390 2.308 1_655 S
Tb347 C411 2.802 . S
N348 C344 1.361 1_554 S
N348 Tb347 2.572 1_565 S
N348 C350 1.340 . S
C349 C343 1.416 1_554 S
C349 C351 1.332 . S
C349 H357 0.931 . S
C350 N348 1.340 . S
C350 C351 1.407 . S
C350 H356 0.930 . S
C351 C349 1.332 . S
C351 C350 1.407 . S
C351 H353 0.929 . S
H352 C341 0.930 . S
H353 C351 0.929 . S
H354 C369 0.930 . S
H355 C376 0.929 . S
H356 C350 0.930 . S
H357 C349 0.931 . S
H358 C372 0.930 . S
H359 C339 0.930 . S
H360 C345 0.929 . S
H361 C346 0.930 . S
H362 C367 0.930 . S
H363 C342 0.930 . S
H364 C375 0.931 . S
N365 Tb336 2.617 . S
N365 C366 1.379 . S
N365 C369 1.334 . S
C366 N365 1.379 . S
C366 C368 1.416 . S
C366 C374 1.424 . S
C367 H362 0.930 . S
C367 C369 1.390 . S
C367 C370 1.339 . S
C368 C366 1.416 . S
C368 C370 1.416 . S
C368 C401 1.448 . S
C369 H354 0.930 . S
C369 N365 1.334 . S
C369 C367 1.390 . S
C370 C367 1.339 . S
C370 C368 1.416 . S
C370 H377 0.930 . S
N371 Tb336 2.572 . S
N371 C372 1.340 . S
N371 C374 1.361 . S
C372 H358 0.930 . S
C372 N371 1.340 . S
C372 C376 1.407 . S
C373 C374 1.413 . S
C373 C375 1.416 . S
C373 C402 1.427 . S
C374 C366 1.424 . S
C374 N371 1.361 . S
C374 C373 1.413 . S
C375 H364 0.931 . S
C375 C373 1.416 . S
C375 C376 1.332 . S
C376 H355 0.929 . S
C376 C372 1.407 . S
C376 C375 1.332 . S
H377 C370 0.930 . S
H378 C401 0.930 . S
H379 C402 0.929 . S
O380 Tb336 2.465 . S
O380 C400 1.264 . S
O381 Tb336 2.387 . S
O381 C392 1.264 . S
O382 Tb347 2.349 1_455 S
O382 C392 1.243 . S
O383 Tb336 2.428 . S
O383 C400 1.256 . S
O384 Tb336 2.308 . S
O384 C399 1.266 1_554 S
O385 Tb347 2.393 1_456 S
O385 C399 1.248 . S
O386 Tb347 2.465 . S
O386 C411 1.263 . S
O387 Tb347 2.387 1_465 S
O387 C403 1.264 . S
O388 Tb336 2.349 . S
O388 C403 1.243 1_545 S
O389 Tb347 2.428 1_556 S
O389 C411 1.257 1_556 S
O390 Tb347 2.308 1_455 S
O390 C410 1.266 . S
O391 Tb336 2.393 . S
O391 C410 1.248 . S
C392 O381 1.264 . S
C392 O382 1.243 . S
C393 C396 1.399 . S
C393 C398 1.383 . S
C393 C400 1.496 . S
C394 C395 1.399 . S
C394 C398 1.389 . S
C395 C394 1.399 . S
C395 C397 1.380 . S
C395 H412 0.929 . S
C396 C393 1.399 . S
C396 C397 1.392 . S
C396 H413 0.929 . S
C397 C395 1.380 . S
C397 C396 1.392 . S
C397 H414 0.929 . S
C398 C393 1.383 . S
C398 C394 1.389 . S
C398 H415 0.931 . S
C399 O384 1.266 1_556 S
C399 O385 1.248 . S
C400 Tb336 2.802 . S
C400 O380 1.264 . S
C400 O383 1.256 . S
C400 C393 1.496 . S
C401 C368 1.448 . S
C401 H378 0.930 . S
C401 C402 1.328 . S
C402 C373 1.427 . S
C402 H379 0.929 . S
C402 C401 1.328 . S
C403 O387 1.264 . S
C403 O388 1.243 1_565 S
C404 C407 1.399 . S
C404 C408 1.383 1_556 S
C404 C411 1.496 1_556 S
C405 C406 1.399 1_554 S
C405 C408 1.389 . S
C406 C405 1.399 1_556 S
C406 C409 1.380 . S
C406 H416 0.929 . S
C407 C404 1.399 . S
C407 C409 1.392 . S
C407 H417 0.929 . S
C408 C404 1.383 1_554 S
C408 C405 1.389 . S
C408 H418 0.931 . S
C409 C406 1.380 . S
C409 C407 1.392 . S
C409 H419 0.929 . S
C410 O390 1.266 . S
C410 O391 1.248 . S
C411 Tb347 2.802 . S
C411 O386 1.263 . S
C411 O389 1.257 1_554 S
C411 C404 1.496 1_554 S
H412 C395 0.929 . S
H413 C396 0.929 . S
H414 C397 0.929 . S
H415 C398 0.931 . S
H416 C406 0.929 . S
H417 C407 0.929 . S
H418 C408 0.931 . S
H419 C409 0.929 . S
Tb420 N449 2.617 . S
Tb420 N455 2.572 . S
Tb420 O464 2.465 . S
Tb420 O465 2.387 . S
Tb420 O467 2.428 . S
Tb420 O468 2.308 . S
Tb420 O472 2.349 . S
Tb420 O475 2.393 . S
Tb420 C484 2.802 . S
C421 N422 1.379 . S
C421 C424 1.416 . S
C421 C428 1.424 . S
N422 C421 1.379 . S
N422 C425 1.334 . S
N422 Tb431 2.617 . S
C423 C425 1.390 . S
C423 C426 1.339 . S
C423 H443 0.930 . S
C424 C421 1.416 . S
C424 C426 1.416 . S
C424 C430 1.448 . S
C425 N422 1.334 . S
C425 C423 1.390 . S
C425 H436 0.930 . S
C426 C423 1.339 . S
C426 C424 1.416 . S
C426 H447 0.930 . S
C427 C428 1.413 . S
C427 C429 1.427 . S
C427 C433 1.416 . S
C428 C421 1.424 . S
C428 C427 1.413 . S
C428 N432 1.361 . S
C429 C427 1.427 . S
C429 C430 1.328 . S
C429 H444 0.929 . S
C430 C424 1.448 . S
C430 C429 1.328 . S
C430 H445 0.930 . S
Tb431 N422 2.617 . S
Tb431 N432 2.572 . S
Tb431 O466 2.349 . S
Tb431 O469 2.393 . S
Tb431 O470 2.465 . S
Tb431 O471 2.387 . S
Tb431 O473 2.428 . S
Tb431 O474 2.308 . S
Tb431 C495 2.802 . S
N432 C428 1.361 . S
N432 Tb431 2.572 . S
N432 C434 1.340 . S
C433 C427 1.416 . S
C433 C435 1.332 . S
C433 H441 0.931 . S
C434 N432 1.340 . S
C434 C435 1.407 . S
C434 H440 0.930 . S
C435 C433 1.332 . S
C435 C434 1.407 . S
C435 H437 0.929 . S
H436 C425 0.930 . S
H437 C435 0.929 . S
H438 C453 0.930 . S
H439 C460 0.929 . S
H440 C434 0.930 . S
H441 C433 0.931 . S
H442 C456 0.930 . S
H443 C423 0.930 . S
H444 C429 0.929 . S
H445 C430 0.930 . S
H446 C451 0.930 . S
H447 C426 0.930 . S
H448 C459 0.931 . S
N449 Tb420 2.617 . S
N449 C450 1.379 . S
N449 C453 1.334 . S
C450 N449 1.379 . S
C450 C452 1.416 . S
C450 C458 1.424 . S
C451 H446 0.930 . S
C451 C453 1.390 . S
C451 C454 1.339 . S
C452 C450 1.416 . S
C452 C454 1.416 . S
C452 C485 1.448 . S
C453 H438 0.930 . S
C453 N449 1.334 . S
C453 C451 1.390 . S
C454 C451 1.339 . S
C454 C452 1.416 . S
C454 H461 0.930 . S
N455 Tb420 2.572 . S
N455 C456 1.340 . S
N455 C458 1.361 . S
C456 H442 0.930 . S
C456 N455 1.340 . S
C456 C460 1.407 . S
C457 C458 1.413 . S
C457 C459 1.416 . S
C457 C486 1.427 . S
C458 C450 1.424 . S
C458 N455 1.361 . S
C458 C457 1.413 . S
C459 H448 0.931 . S
C459 C457 1.416 . S
C459 C460 1.332 . S
C460 H439 0.929 . S
C460 C456 1.407 . S
C460 C459 1.332 . S
H461 C454 0.930 . S
H462 C485 0.933 . S
H463 C486 0.929 1_545 S
O464 Tb420 2.465 . S
O464 C484 1.264 . S
O465 Tb420 2.387 . S
O465 C476 1.264 . S
O466 Tb431 2.349 . S
O466 C476 1.243 . S
O467 Tb420 2.428 . S
O467 C484 1.256 . S
O468 Tb420 2.308 . S
O468 C483 1.266 . S
O469 Tb431 2.393 . S
O469 C483 1.248 . S
O470 Tb431 2.465 . S
O470 C495 1.264 . S
O471 Tb431 2.387 . S
O471 C487 1.264 . S
O472 Tb420 2.349 . S
O472 C487 1.243 . S
O473 Tb431 2.428 . S
O473 C495 1.256 . S
O474 Tb431 2.308 . S
O474 C494 1.266 . S
O475 Tb420 2.393 . S
O475 C494 1.248 . S
C476 O465 1.264 . S
C476 O466 1.243 . S
C477 C480 1.399 . S
C477 C482 1.383 . S
C477 C484 1.496 . S
C478 C479 1.399 . S
C478 C482 1.389 . S
C479 C478 1.399 . S
C479 C481 1.380 . S
C479 H496 0.929 . S
C480 C477 1.399 . S
C480 C481 1.392 . S
C480 H497 0.929 . S
C481 C479 1.380 . S
C481 C480 1.392 . S
C481 H498 0.929 . S
C482 C477 1.383 . S
C482 C478 1.389 . S
C482 H499 0.931 . S
C483 O468 1.266 . S
C483 O469 1.248 . S
C484 Tb420 2.802 . S
C484 O464 1.264 . S
C484 O467 1.256 . S
C484 C477 1.496 . S
C485 C452 1.448 . S
C485 H462 0.933 . S
C485 C486 1.328 . S
C486 C457 1.427 . S
C486 H463 0.929 1_565 S
C486 C485 1.328 . S
C487 O471 1.264 . S
C487 O472 1.243 . S
C488 C491 1.399 . S
C488 C492 1.383 . S
C488 C495 1.496 . S
C489 C490 1.399 . S
C489 C492 1.389 . S
C490 C489 1.399 . S
C490 C493 1.380 . S
C490 H500 0.929 . S
C491 C488 1.399 . S
C491 C493 1.392 . S
C491 H501 0.929 . S
C492 C488 1.383 . S
C492 C489 1.389 . S
C492 H502 0.931 . S
C493 C490 1.380 . S
C493 C491 1.392 . S
C493 H503 0.929 . S
C494 O474 1.266 . S
C494 O475 1.248 . S
C495 Tb431 2.802 . S
C495 O470 1.264 . S
C495 O473 1.256 . S
C495 C488 1.496 . S
H496 C479 0.929 . S
H497 C480 0.929 . S
H498 C481 0.929 . S
H499 C482 0.931 . S
H500 C490 0.929 . S
H501 C491 0.929 . S
H502 C492 0.931 . S
H503 C493 0.929 . S
Tb504 N533 2.617 . S
Tb504 N539 2.572 1_545 S
Tb504 O548 2.465 . S
Tb504 O549 2.387 1_545 S
Tb504 O551 2.428 . S
Tb504 O552 2.308 . S
Tb504 O556 2.349 . S
Tb504 O559 2.393 . S
Tb504 C568 2.802 . S
C505 N506 1.379 . S
C505 C508 1.416 . S
C505 C512 1.424 . S
N506 C505 1.379 . S
N506 C509 1.334 . S
N506 Tb515 2.617 . S
C507 C509 1.390 . S
C507 C510 1.339 . S
C507 H527 0.930 . S
C508 C505 1.416 . S
C508 C510 1.416 . S
C508 C514 1.448 . S
C509 N506 1.334 . S
C509 C507 1.390 . S
C509 H520 0.930 . S
C510 C507 1.339 . S
C510 C508 1.416 . S
C510 H531 0.930 . S
C511 C512 1.413 . S
C511 C513 1.427 . S
C511 C517 1.416 . S
C512 C505 1.424 . S
C512 C511 1.413 . S
C512 N516 1.361 . S
C513 C511 1.427 . S
C513 C514 1.328 . S
C513 H528 0.929 . S
C514 C508 1.448 . S
C514 C513 1.328 . S
C514 H529 0.930 . S
Tb515 N506 2.617 . S
Tb515 N516 2.572 . S
Tb515 O550 2.349 1_545 S
Tb515 O553 2.393 . S
Tb515 O554 2.465 . S
Tb515 O555 2.387 . S
Tb515 O557 2.428 . S
Tb515 O558 2.308 . S
Tb515 C579 2.802 . S
N516 C512 1.361 . S
N516 Tb515 2.572 . S
N516 C518 1.340 . S
C517 C511 1.416 . S
C517 C519 1.332 . S
C517 H525 0.931 . S
C518 N516 1.340 . S
C518 C519 1.407 . S
C518 H524 0.930 . S
C519 C517 1.332 . S
C519 C518 1.407 . S
C519 H521 0.929 . S
H520 C509 0.930 . S
H521 C519 0.929 . S
H522 C537 0.930 . S
H523 C544 0.929 . S
H524 C518 0.930 . S
H525 C517 0.931 . S
H526 C540 0.930 . S
H527 C507 0.930 . S
H528 C513 0.929 . S
H529 C514 0.930 . S
H530 C535 0.930 . S
H531 C510 0.930 . S
H532 C543 0.931 . S
N533 Tb504 2.617 . S
N533 C534 1.379 1_545 S
N533 C537 1.334 . S
C534 N533 1.379 1_565 S
C534 C536 1.416 . S
C534 C542 1.424 . S
C535 H530 0.930 . S
C535 C537 1.390 . S
C535 C538 1.339 1_545 S
C536 C534 1.416 . S
C536 C538 1.416 . S
C536 C569 1.448 . S
C537 H522 0.930 . S
C537 N533 1.334 . S
C537 C535 1.390 . S
C538 C535 1.339 1_565 S
C538 C536 1.416 . S
C538 H545 0.930 . S
N539 Tb504 2.572 1_565 S
N539 C540 1.340 . S
N539 C542 1.361 . S
C540 H526 0.930 . S
C540 N539 1.340 . S
C540 C544 1.407 . S
C541 C542 1.413 . S
C541 C543 1.416 . S
C541 C570 1.427 . S
C542 C534 1.424 . S
C542 N539 1.361 . S
C542 C541 1.413 . S
C543 H532 0.931 . S
C543 C541 1.416 . S
C543 C544 1.332 . S
C544 H523 0.929 . S
C544 C540 1.407 . S
C544 C543 1.332 . S
H545 C538 0.930 . S
H546 C569 0.930 . S
H547 C570 0.929 . S
O548 Tb504 2.465 . S
O548 C568 1.264 . S
O549 Tb504 2.387 1_565 S
O549 C560 1.264 . S
O550 Tb515 2.349 1_565 S
O550 C560 1.243 . S
O551 Tb504 2.428 . S
O551 C568 1.256 . S
O552 Tb504 2.308 . S
O552 C567 1.266 . S
O553 Tb515 2.393 . S
O553 C567 1.248 . S
O554 Tb515 2.465 . S
O554 C579 1.264 . S
O555 Tb515 2.387 . S
O555 C571 1.264 . S
O556 Tb504 2.349 . S
O556 C571 1.243 . S
O557 Tb515 2.428 . S
O557 C579 1.256 . S
O558 Tb515 2.308 . S
O558 C578 1.266 . S
O559 Tb504 2.393 . S
O559 C578 1.248 . S
C560 O549 1.264 . S
C560 O550 1.243 . S
C561 C564 1.399 . S
C561 C566 1.383 . S
C561 C568 1.496 . S
C562 C563 1.399 . S
C562 C566 1.389 . S
C563 C562 1.399 . S
C563 C565 1.380 . S
C563 H580 0.929 . S
C564 C561 1.399 . S
C564 C565 1.392 . S
C564 H581 0.929 . S
C565 C563 1.380 . S
C565 C564 1.392 . S
C565 H582 0.929 . S
C566 C561 1.383 . S
C566 C562 1.389 . S
C566 H583 0.931 . S
C567 O552 1.266 . S
C567 O553 1.248 . S
C568 Tb504 2.802 . S
C568 O548 1.264 . S
C568 O551 1.256 . S
C568 C561 1.496 . S
C569 C536 1.448 . S
C569 H546 0.930 . S
C569 C570 1.328 . S
C570 C541 1.427 . S
C570 H547 0.929 . S
C570 C569 1.328 . S
C571 O555 1.264 . S
C571 O556 1.243 . S
C572 C575 1.399 . S
C572 C576 1.383 . S
C572 C579 1.496 1_565 S
C573 C574 1.399 . S
C573 C576 1.389 . S
C574 C573 1.399 . S
C574 C577 1.380 . S
C574 H584 0.929 . S
C575 C572 1.399 . S
C575 C577 1.392 . S
C575 H585 0.929 . S
C576 C572 1.383 . S
C576 C573 1.389 . S
C576 H586 0.931 1_565 S
C577 C574 1.380 . S
C577 C575 1.392 . S
C577 H587 0.929 . S
C578 O558 1.266 . S
C578 O559 1.248 . S
C579 Tb515 2.802 . S
C579 O554 1.264 . S
C579 O557 1.256 . S
C579 C572 1.496 1_545 S
H580 C563 0.929 . S
H581 C564 0.929 . S
H582 C565 0.929 . S
H583 C566 0.931 . S
H584 C574 0.929 . S
H585 C575 0.929 . S
H586 C576 0.931 1_545 S
H587 C577 0.929 . S
Tb588 N617 2.617 . S
Tb588 N623 2.572 . S
Tb588 O632 2.465 . S
Tb588 O633 2.387 . S
Tb588 O635 2.428 . S
Tb588 O636 2.308 . S
Tb588 O640 2.349 . S
Tb588 O643 2.393 . S
Tb588 C652 2.802 . S
C589 N590 1.379 . S
C589 C592 1.416 . S
C589 C596 1.424 . S
N590 C589 1.379 . S
N590 C593 1.334 . S
N590 Tb599 2.617 . S
C591 C593 1.390 . S
C591 C594 1.339 . S
C591 H611 0.930 . S
C592 C589 1.416 . S
C592 C594 1.416 . S
C592 C598 1.448 . S
C593 N590 1.334 . S
C593 C591 1.390 . S
C593 H604 0.930 . S
C594 C591 1.339 . S
C594 C592 1.416 . S
C594 H615 0.930 . S
C595 C596 1.413 . S
C595 C597 1.427 . S
C595 C601 1.416 . S
C596 C589 1.424 . S
C596 C595 1.413 . S
C596 N600 1.361 . S
C597 C595 1.427 . S
C597 C598 1.328 . S
C597 H612 0.929 . S
C598 C592 1.448 . S
C598 C597 1.328 . S
C598 H613 0.930 . S
Tb599 N590 2.617 . S
Tb599 N600 2.572 . S
Tb599 O634 2.349 . S
Tb599 O637 2.393 . S
Tb599 O638 2.465 . S
Tb599 O639 2.387 . S
Tb599 O641 2.428 . S
Tb599 O642 2.308 . S
Tb599 C663 2.802 . S
N600 C596 1.361 . S
N600 Tb599 2.572 . S
N600 C602 1.340 . S
C601 C595 1.416 . S
C601 C603 1.332 . S
C601 H609 0.931 . S
C602 N600 1.340 . S
C602 C603 1.407 . S
C602 H608 0.930 . S
C603 C601 1.332 . S
C603 C602 1.407 . S
C603 H605 0.929 . S
H604 C593 0.930 . S
H605 C603 0.929 . S
H606 C621 0.930 . S
H607 C628 0.929 . S
H608 C602 0.930 . S
H609 C601 0.931 . S
H610 C624 0.930 . S
H611 C591 0.930 . S
H612 C597 0.929 . S
H613 C598 0.930 . S
H614 C619 0.930 . S
H615 C594 0.930 . S
H616 C627 0.931 1_554 S
N617 Tb588 2.617 . S
N617 C618 1.379 . S
N617 C621 1.334 . S
C618 N617 1.379 . S
C618 C620 1.416 . S
C618 C626 1.424 . S
C619 H614 0.930 . S
C619 C621 1.390 . S
C619 C622 1.339 . S
C620 C618 1.416 . S
C620 C622 1.416 . S
C620 C653 1.448 1_556 S
C621 H606 0.930 . S
C621 N617 1.334 . S
C621 C619 1.390 . S
C622 C619 1.339 . S
C622 C620 1.416 . S
C622 H629 0.930 . S
N623 Tb588 2.572 . S
N623 C624 1.340 . S
N623 C626 1.361 . S
C624 H610 0.930 . S
C624 N623 1.340 . S
C624 C628 1.407 . S
C625 C626 1.413 . S
C625 C627 1.416 . S
C625 C654 1.427 1_556 S
C626 C618 1.424 . S
C626 N623 1.361 . S
C626 C625 1.413 . S
C627 H616 0.931 1_556 S
C627 C625 1.416 . S
C627 C628 1.332 . S
C628 H607 0.929 . S
C628 C624 1.407 . S
C628 C627 1.332 . S
H629 C622 0.930 . S
H630 C653 0.930 . S
H631 C654 0.929 . S
O632 Tb588 2.465 . S
O632 C652 1.264 . S
O633 Tb588 2.387 . S
O633 C644 1.264 . S
O634 Tb599 2.349 . S
O634 C644 1.243 . S
O635 Tb588 2.428 . S
O635 C652 1.256 . S
O636 Tb588 2.308 . S
O636 C651 1.266 . S
O637 Tb599 2.393 . S
O637 C651 1.248 . S
O638 Tb599 2.465 . S
O638 C663 1.264 . S
O639 Tb599 2.387 . S
O639 C655 1.264 . S
O640 Tb588 2.349 . S
O640 C655 1.243 . S
O641 Tb599 2.428 . S
O641 C663 1.256 . S
O642 Tb599 2.308 . S
O642 C662 1.266 . S
O643 Tb588 2.393 . S
O643 C662 1.248 . S
C644 O633 1.264 . S
C644 O634 1.243 . S
C645 C648 1.399 . S
C645 C650 1.383 . S
C645 C652 1.496 . S
C646 C647 1.399 . S
C646 C650 1.389 . S
C647 C646 1.399 . S
C647 C649 1.380 . S
C647 H664 0.929 . S
C648 C645 1.399 . S
C648 C649 1.392 . S
C648 H665 0.929 . S
C649 C647 1.380 . S
C649 C648 1.392 . S
C649 H666 0.929 . S
C650 C645 1.383 . S
C650 C646 1.389 . S
C650 H667 0.931 . S
C651 O636 1.266 . S
C651 O637 1.248 . S
C652 Tb588 2.802 . S
C652 O632 1.264 . S
C652 O635 1.256 . S
C652 C645 1.496 . S
C653 C620 1.448 1_554 S
C653 H630 0.930 . S
C653 C654 1.328 . S
C654 C625 1.427 1_554 S
C654 H631 0.929 . S
C654 C653 1.328 . S
C655 O639 1.264 . S
C655 O640 1.243 . S
C656 C659 1.399 . S
C656 C660 1.383 . S
C656 C663 1.496 . S
C657 C658 1.399 . S
C657 C660 1.389 . S
C658 C657 1.399 . S
C658 C661 1.380 . S
C658 H668 0.929 . S
C659 C656 1.399 . S
C659 C661 1.392 . S
C659 H669 0.929 . S
C660 C656 1.383 . S
C660 C657 1.389 . S
C660 H670 0.931 . S
C661 C658 1.380 . S
C661 C659 1.392 . S
C661 H671 0.929 . S
C662 O642 1.266 . S
C662 O643 1.248 . S
C663 Tb599 2.802 . S
C663 O638 1.264 . S
C663 O641 1.256 . S
C663 C656 1.496 . S
H664 C647 0.929 . S
H665 C648 0.929 . S
H666 C649 0.929 . S
H667 C650 0.931 . S
H668 C658 0.929 . S
H669 C659 0.929 . S
H670 C660 0.931 . S
H671 C661 0.929 . S
Tb672 N701 2.617 1_545 S
Tb672 N707 2.572 1_545 S
Tb672 O716 2.465 1_545 S
Tb672 O717 2.387 . S
Tb672 O719 2.428 1_545 S
Tb672 O720 2.308 . S
Tb672 O724 2.349 . S
Tb672 O727 2.393 . S
Tb672 C736 2.802 1_545 S
C673 N674 1.379 1_455 S
C673 C676 1.416 1_455 S
C673 C680 1.424 . S
N674 C673 1.379 1_655 S
N674 C677 1.334 . S
N674 Tb683 2.617 1_655 S
C675 C677 1.390 . S
C675 C678 1.339 . S
C675 H695 0.930 . S
C676 C673 1.416 1_655 S
C676 C678 1.416 . S
C676 C682 1.448 1_655 S
C677 N674 1.334 . S
C677 C675 1.390 . S
C677 H688 0.930 . S
C678 C675 1.339 . S
C678 C676 1.416 . S
C678 H699 0.930 . S
C679 C680 1.413 . S
C679 C681 1.427 . S
C679 C685 1.416 . S
C680 C673 1.424 . S
C680 C679 1.413 . S
C680 N684 1.361 . S
C681 C679 1.427 . S
C681 C682 1.328 . S
C681 H696 0.929 . S
C682 C676 1.448 1_455 S
C682 C681 1.328 . S
C682 H697 0.930 . S
Tb683 N674 2.617 1_455 S
Tb683 N684 2.572 . S
Tb683 O718 2.349 . S
Tb683 O721 2.393 1_455 S
Tb683 O722 2.465 . S
Tb683 O723 2.387 . S
Tb683 O725 2.428 1_455 S
Tb683 O726 2.308 . S
Tb683 C747 2.802 . S
N684 C680 1.361 . S
N684 Tb683 2.572 . S
N684 C686 1.340 . S
C685 C679 1.416 . S
C685 C687 1.332 . S
C685 H693 0.931 . S
C686 N684 1.340 . S
C686 C687 1.407 . S
C686 H692 0.930 . S
C687 C685 1.332 . S
C687 C686 1.407 . S
C687 H689 0.929 . S
H688 C677 0.930 . S
H689 C687 0.929 . S
H690 C705 0.930 . S
H691 C712 0.929 . S
H692 C686 0.930 . S
H693 C685 0.931 . S
H694 C708 0.930 . S
H695 C675 0.930 . S
H696 C681 0.929 . S
H697 C682 0.930 . S
H698 C703 0.930 . S
H699 C678 0.930 . S
H700 C711 0.931 . S
N701 Tb672 2.617 1_565 S
N701 C702 1.379 . S
N701 C705 1.334 1_565 S
C702 N701 1.379 . S
C702 C704 1.416 . S
C702 C710 1.424 . S
C703 H698 0.930 . S
C703 C705 1.390 . S
C703 C706 1.339 1_545 S
C704 C702 1.416 . S
C704 C706 1.416 . S
C704 C737 1.448 . S
C705 H690 0.930 . S
C705 N701 1.334 1_545 S
C705 C703 1.390 . S
C706 C703 1.339 1_565 S
C706 C704 1.416 . S
C706 H713 0.930 . S
N707 Tb672 2.572 1_565 S
N707 C708 1.340 1_455 S
N707 C710 1.361 . S
C708 H694 0.930 . S
C708 N707 1.340 1_655 S
C708 C712 1.407 . S
C709 C710 1.413 . S
C709 C711 1.416 1_455 S
C709 C738 1.427 . S
C710 C702 1.424 . S
C710 N707 1.361 . S
C710 C709 1.413 . S
C711 H700 0.931 . S
C711 C709 1.416 1_655 S
C711 C712 1.332 . S
C712 H691 0.929 . S
C712 C708 1.407 . S
C712 C711 1.332 . S
H713 C706 0.930 . S
H714 C737 0.930 . S
H715 C738 0.929 . S
O716 Tb672 2.465 1_565 S
O716 C736 1.264 . S
O717 Tb672 2.387 . S
O717 C728 1.264 . S
O718 Tb683 2.349 . S
O718 C728 1.243 . S
O719 Tb672 2.428 1_565 S
O719 C736 1.256 . S
O720 Tb672 2.308 . S
O720 C735 1.266 1_455 S
O721 Tb683 2.393 1_655 S
O721 C735 1.248 . S
O722 Tb683 2.465 . S
O722 C747 1.264 . S
O723 Tb683 2.387 . S
O723 C739 1.264 . S
O724 Tb672 2.349 . S
O724 C739 1.243 . S
O725 Tb683 2.428 1_655 S
O725 C747 1.256 1_655 S
O726 Tb683 2.308 . S
O726 C746 1.266 . S
O727 Tb672 2.393 . S
O727 C746 1.248 . S
C728 O717 1.264 . S
C728 O718 1.243 . S
C729 C732 1.399 . S
C729 C734 1.383 . S
C729 C736 1.496 . S
C730 C731 1.399 . S
C730 C734 1.389 . S
C731 C730 1.399 . S
C731 C733 1.380 . S
C731 H748 0.929 . S
C732 C729 1.399 . S
C732 C733 1.392 . S
C732 H749 0.929 . S
C733 C731 1.380 . S
C733 C732 1.392 . S
C733 H750 0.929 . S
C734 C729 1.383 . S
C734 C730 1.389 . S
C734 H751 0.931 . S
C735 O720 1.266 1_655 S
C735 O721 1.248 . S
C736 Tb672 2.802 1_565 S
C736 O716 1.264 . S
C736 O719 1.256 . S
C736 C729 1.496 . S
C737 C704 1.448 . S
C737 H714 0.930 . S
C737 C738 1.328 . S
C738 C709 1.427 . S
C738 H715 0.929 . S
C738 C737 1.328 . S
C739 O723 1.264 . S
C739 O724 1.243 . S
C740 C743 1.399 1_455 S
C740 C744 1.383 . S
C740 C747 1.496 . S
C741 C742 1.399 1_455 S
C741 C744 1.389 . S
C742 C741 1.399 1_655 S
C742 C745 1.380 . S
C742 H752 0.929 . S
C743 C740 1.399 1_655 S
C743 C745 1.392 . S
C743 H753 0.929 . S
C744 C740 1.383 . S
C744 C741 1.389 . S
C744 H754 0.931 . S
C745 C742 1.380 . S
C745 C743 1.392 . S
C745 H755 0.929 . S
C746 O726 1.266 . S
C746 O727 1.248 . S
C747 Tb683 2.802 . S
C747 O722 1.264 . S
C747 O725 1.256 1_455 S
C747 C740 1.496 . S
H748 C731 0.929 . S
H749 C732 0.929 . S
H750 C733 0.929 . S
H751 C734 0.931 . S
H752 C742 0.929 . S
H753 C743 0.929 . S
H754 C744 0.931 . S
H755 C745 0.929 . S
Tb756 N785 2.617 . S
Tb756 N791 2.572 . S
Tb756 O800 2.465 . S
Tb756 O801 2.387 . S
Tb756 O803 2.428 . S
Tb756 O804 2.308 . S
Tb756 O808 2.349 . S
Tb756 O811 2.393 . S
Tb756 C820 2.802 . S
C757 N758 1.379 . S
C757 C760 1.416 . S
C757 C764 1.424 . S
N758 C757 1.379 . S
N758 C761 1.334 . S
N758 Tb767 2.617 . S
C759 C761 1.390 1_554 S
C759 C762 1.339 . S
C759 H779 0.930 . S
C760 C757 1.416 . S
C760 C762 1.416 1_556 S
C760 C766 1.448 . S
C761 N758 1.334 . S
C761 C759 1.390 1_556 S
C761 H772 0.930 . S
C762 C759 1.339 . S
C762 C760 1.416 1_554 S
C762 H783 0.930 . S
C763 C764 1.413 . S
C763 C765 1.427 . S
C763 C769 1.416 . S
C764 C757 1.424 . S
C764 C763 1.413 . S
C764 N768 1.361 . S
C765 C763 1.427 . S
C765 C766 1.328 . S
C765 H780 0.929 . S
C766 C760 1.448 . S
C766 C765 1.328 . S
C766 H781 0.930 . S
Tb767 N758 2.617 . S
Tb767 N768 2.572 . S
Tb767 O802 2.349 . S
Tb767 O805 2.393 . S
Tb767 O806 2.465 . S
Tb767 O807 2.387 . S
Tb767 O809 2.428 . S
Tb767 O810 2.308 . S
Tb767 C831 2.802 . S
N768 C764 1.361 . S
N768 Tb767 2.572 . S
N768 C770 1.340 . S
C769 C763 1.416 . S
C769 C771 1.332 . S
C769 H777 0.931 . S
C770 N768 1.340 . S
C770 C771 1.407 . S
C770 H776 0.930 . S
C771 C769 1.332 . S
C771 C770 1.407 . S
C771 H773 0.929 . S
H772 C761 0.930 . S
H773 C771 0.929 . S
H774 C789 0.930 . S
H775 C796 0.929 . S
H776 C770 0.930 . S
H777 C769 0.931 . S
H778 C792 0.930 . S
H779 C759 0.930 . S
H780 C765 0.929 . S
H781 C766 0.930 . S
H782 C787 0.930 . S
H783 C762 0.930 . S
H784 C795 0.931 . S
N785 Tb756 2.617 . S
N785 C786 1.379 . S
N785 C789 1.334 . S
C786 N785 1.379 . S
C786 C788 1.416 . S
C786 C794 1.424 . S
C787 H782 0.930 . S
C787 C789 1.390 . S
C787 C790 1.339 . S
C788 C786 1.416 . S
C788 C790 1.416 . S
C788 C821 1.448 . S
C789 H774 0.930 . S
C789 N785 1.334 . S
C789 C787 1.390 . S
C790 C787 1.339 . S
C790 C788 1.416 . S
C790 H797 0.930 . S
N791 Tb756 2.572 . S
N791 C792 1.340 . S
N791 C794 1.361 . S
C792 H778 0.930 . S
C792 N791 1.340 . S
C792 C796 1.407 1_565 S
C793 C794 1.413 . S
C793 C795 1.416 1_565 S
C793 C822 1.427 . S
C794 C786 1.424 . S
C794 N791 1.361 . S
C794 C793 1.413 . S
C795 H784 0.931 . S
C795 C793 1.416 1_545 S
C795 C796 1.332 . S
C796 H775 0.929 . S
C796 C792 1.407 1_545 S
C796 C795 1.332 . S
H797 C790 0.930 . S
H798 C821 0.930 . S
H799 C822 0.929 1_545 S
O800 Tb756 2.465 . S
O800 C820 1.264 . S
O801 Tb756 2.387 . S
O801 C812 1.264 . S
O802 Tb767 2.349 . S
O802 C812 1.243 . S
O803 Tb756 2.428 . S
O803 C820 1.256 . S
O804 Tb756 2.308 . S
O804 C819 1.266 . S
O805 Tb767 2.393 . S
O805 C819 1.248 . S
O806 Tb767 2.465 . S
O806 C831 1.264 . S
O807 Tb767 2.387 . S
O807 C823 1.264 . S
O808 Tb756 2.349 . S
O808 C823 1.243 . S
O809 Tb767 2.428 . S
O809 C831 1.256 . S
O810 Tb767 2.308 . S
O810 C830 1.266 . S
O811 Tb756 2.393 . S
O811 C830 1.248 . S
C812 O801 1.264 . S
C812 O802 1.243 . S
C813 C816 1.399 . S
C813 C818 1.383 . S
C813 C820 1.496 . S
C814 C815 1.399 . S
C814 C818 1.389 1_545 S
C815 C814 1.399 . S
C815 C817 1.380 1_545 S
C815 H832 0.929 . S
C816 C813 1.399 . S
C816 C817 1.392 . S
C816 H833 0.929 . S
C817 C815 1.380 1_565 S
C817 C816 1.392 . S
C817 H834 0.929 . S
C818 C813 1.383 . S
C818 C814 1.389 1_565 S
C818 H835 0.931 . S
C819 O804 1.266 . S
C819 O805 1.248 . S
C820 Tb756 2.802 . S
C820 O800 1.264 . S
C820 O803 1.256 . S
C820 C813 1.496 . S
C821 C788 1.448 . S
C821 H798 0.930 . S
C821 C822 1.328 . S
C822 C793 1.427 . S
C822 H799 0.929 1_565 S
C822 C821 1.328 . S
C823 O807 1.264 . S
C823 O808 1.243 . S
C824 C827 1.399 . S
C824 C828 1.383 . S
C824 C831 1.496 . S
C825 C826 1.399 . S
C825 C828 1.389 . S
C826 C825 1.399 . S
C826 C829 1.380 . S
C826 H836 0.929 . S
C827 C824 1.399 . S
C827 C829 1.392 . S
C827 H837 0.929 . S
C828 C824 1.383 . S
C828 C825 1.389 . S
C828 H838 0.931 . S
C829 C826 1.380 . S
C829 C827 1.392 . S
C829 H839 0.929 . S
C830 O810 1.266 . S
C830 O811 1.248 . S
C831 Tb767 2.802 . S
C831 O806 1.264 . S
C831 O809 1.256 . S
C831 C824 1.496 . S
H832 C815 0.929 . S
H833 C816 0.929 . S
H834 C817 0.929 . S
H835 C818 0.931 . S
H836 C826 0.929 . S
H837 C827 0.929 . S
H838 C828 0.931 . S
H839 C829 0.929 . S
Tb840 N869 2.617 . S
Tb840 N875 2.572 . S
Tb840 O884 2.465 . S
Tb840 O885 2.387 1_556 S
Tb840 O887 2.428 . S
Tb840 O888 2.308 . S
Tb840 O892 2.349 1_556 S
Tb840 O895 2.393 1_556 S
Tb840 C904 2.802 . S
C841 N842 1.379 1_545 S
C841 C844 1.416 1_545 S
C841 C848 1.424 . S
N842 C841 1.379 1_565 S
N842 C845 1.334 . S
N842 Tb851 2.617 1_565 S
C843 C845 1.390 . S
C843 C846 1.339 . S
C843 H863 0.930 . S
C844 C841 1.416 1_565 S
C844 C846 1.416 . S
C844 C850 1.448 1_565 S
C845 N842 1.334 . S
C845 C843 1.390 . S
C845 H856 0.930 . S
C846 C843 1.339 . S
C846 C844 1.416 . S
C846 H867 0.930 . S
C847 C848 1.413 . S
C847 C849 1.427 . S
C847 C853 1.416 . S
C848 C841 1.424 . S
C848 C847 1.413 . S
C848 N852 1.361 . S
C849 C847 1.427 . S
C849 C850 1.328 . S
C849 H864 0.929 . S
C850 C844 1.448 1_545 S
C850 C849 1.328 . S
C850 H865 0.930 1_545 S
Tb851 N842 2.617 1_545 S
Tb851 N852 2.572 . S
Tb851 O886 2.349 . S
Tb851 O889 2.393 1_545 S
Tb851 O890 2.465 . S
Tb851 O891 2.387 . S
Tb851 O893 2.428 1_545 S
Tb851 O894 2.308 . S
Tb851 C915 2.809 . S
N852 C848 1.361 . S
N852 Tb851 2.572 . S
N852 C854 1.340 . S
C853 C847 1.416 . S
C853 C855 1.332 . S
C853 H861 0.931 . S
C854 N852 1.340 . S
C854 C855 1.407 . S
C854 H860 0.930 . S
C855 C853 1.332 . S
C855 C854 1.407 . S
C855 H857 0.929 . S
H856 C845 0.930 . S
H857 C855 0.929 . S
H858 C873 0.930 1_554 S
H859 C880 0.929 1_565 S
H860 C854 0.930 . S
H861 C853 0.931 . S
H862 C876 0.930 . S
H863 C843 0.930 . S
H864 C849 0.929 . S
H865 C850 0.930 1_565 S
H866 C871 0.930 1_554 S
H867 C846 0.930 . S
H868 C879 0.931 . S
N869 Tb840 2.617 . S
N869 C870 1.379 . S
N869 C873 1.335 . S
C870 N869 1.379 . S
C870 C872 1.416 . S
C870 C878 1.424 . S
C871 H866 0.930 1_556 S
C871 C873 1.390 . S
C871 C874 1.339 . S
C872 C870 1.416 . S
C872 C874 1.416 . S
C872 C905 1.448 . S
C873 H858 0.930 1_556 S
C873 N869 1.335 . S
C873 C871 1.390 . S
C874 C871 1.339 . S
C874 C872 1.416 . S
C874 H881 0.930 . S
N875 Tb840 2.572 . S
N875 C876 1.340 . S
N875 C878 1.361 . S
C876 H862 0.930 . S
C876 N875 1.340 . S
C876 C880 1.407 . S
C877 C878 1.413 . S
C877 C879 1.416 . S
C877 C906 1.427 . S
C878 C870 1.424 . S
C878 N875 1.361 . S
C878 C877 1.413 . S
C879 H868 0.931 . S
C879 C877 1.416 . S
C879 C880 1.332 . S
C880 H859 0.929 1_545 S
C880 C876 1.407 . S
C880 C879 1.332 . S
H881 C874 0.930 . S
H882 C905 0.930 . S
H883 C906 0.929 . S
O884 Tb840 2.465 . S
O884 C904 1.264 . S
O885 Tb840 2.387 1_554 S
O885 C896 1.264 . S
O886 Tb851 2.349 . S
O886 C896 1.243 . S
O887 Tb840 2.428 . S
O887 C904 1.256 . S
O888 Tb840 2.308 . S
O888 C903 1.266 1_545 S
O889 Tb851 2.393 1_565 S
O889 C903 1.248 1_554 S
O890 Tb851 2.465 . S
O890 C915 1.284 . S
O891 Tb851 2.387 . S
O891 C907 1.264 . S
O892 Tb840 2.349 1_554 S
O892 C907 1.243 . S
O893 Tb851 2.428 1_565 S
O893 C915 1.243 1_565 S
O894 Tb851 2.308 . S
O894 C914 1.266 . S
O895 Tb840 2.393 1_554 S
O895 C914 1.248 . S
C896 O885 1.264 . S
C896 O886 1.243 . S
C897 C900 1.399 . S
C897 C902 1.383 . S
C897 C904 1.496 . S
C898 C899 1.399 . S
C898 C902 1.389 . S
C899 C898 1.399 . S
C899 C901 1.380 . S
C899 H916 0.929 . S
C900 C897 1.399 . S
C900 C901 1.392 . S
C900 H917 0.929 . S
C901 C899 1.380 . S
C901 C900 1.392 . S
C901 H918 0.929 . S
C902 C897 1.383 . S
C902 C898 1.389 . S
C902 H919 0.931 . S
C903 O888 1.266 1_565 S
C903 O889 1.248 1_556 S
C904 Tb840 2.802 . S
C904 O884 1.264 . S
C904 O887 1.256 . S
C904 C897 1.496 . S
C905 C872 1.448 . S
C905 H882 0.930 . S
C905 C906 1.328 . S
C906 C877 1.427 . S
C906 H883 0.929 . S
C906 C905 1.328 . S
C907 O891 1.264 . S
C907 O892 1.243 . S
C908 C911 1.399 . S
C908 C912 1.383 1_565 S
C908 C915 1.489 1_565 S
C909 C910 1.399 . S
C909 C912 1.389 1_565 S
C910 C909 1.399 . S
C910 C913 1.380 . S
C910 H920 0.929 . S
C911 C908 1.399 . S
C911 C913 1.392 . S
C911 H921 0.929 . S
C912 C908 1.383 1_545 S
C912 C909 1.389 1_545 S
C912 H922 0.931 . S
C913 C910 1.380 . S
C913 C911 1.392 . S
C913 H923 0.929 . S
C914 O894 1.266 . S
C914 O895 1.248 . S
C915 Tb851 2.809 . S
C915 O890 1.284 . S
C915 O893 1.243 1_545 S
C915 C908 1.489 1_545 S
H916 C899 0.929 . S
H917 C900 0.929 . S
H918 C901 0.929 . S
H919 C902 0.931 . S
H920 C910 0.929 . S
H921 C911 0.929 . S
H922 C912 0.931 . S
H923 C913 0.929 . S
Tb924 N953 2.617 . S
Tb924 N959 2.572 . S
Tb924 O968 2.465 . S
Tb924 O969 2.387 . S
Tb924 O971 2.428 . S
Tb924 O972 2.308 . S
Tb924 O976 2.349 . S
Tb924 O979 2.393 . S
Tb924 C988 2.802 . S
C925 N926 1.379 . S
C925 C928 1.416 . S
C925 C932 1.424 . S
N926 C925 1.379 . S
N926 C929 1.334 . S
N926 Tb935 2.617 . S
C927 C929 1.390 . S
C927 C930 1.339 . S
C927 H947 0.930 . S
C928 C925 1.416 . S
C928 C930 1.416 . S
C928 C934 1.448 . S
C929 N926 1.334 . S
C929 C927 1.390 . S
C929 H940 0.930 . S
C930 C927 1.339 . S
C930 C928 1.416 . S
C930 H951 0.930 . S
C931 C932 1.413 . S
C931 C933 1.427 . S
C931 C937 1.416 . S
C932 C925 1.424 . S
C932 C931 1.413 . S
C932 N936 1.361 . S
C933 C931 1.427 . S
C933 C934 1.328 . S
C933 H948 0.929 . S
C934 C928 1.448 . S
C934 C933 1.328 . S
C934 H949 0.930 . S
Tb935 N926 2.617 . S
Tb935 N936 2.572 . S
Tb935 O970 2.349 . S
Tb935 O973 2.393 . S
Tb935 O974 2.465 . S
Tb935 O975 2.387 . S
Tb935 O977 2.428 . S
Tb935 O978 2.308 . S
Tb935 C999 2.802 . S
N936 C932 1.361 . S
N936 Tb935 2.572 . S
N936 C938 1.340 . S
C937 C931 1.416 . S
C937 C939 1.332 . S
C937 H945 0.931 . S
C938 N936 1.340 . S
C938 C939 1.407 . S
C938 H944 0.930 . S
C939 C937 1.332 . S
C939 C938 1.407 . S
C939 H941 0.929 . S
H940 C929 0.930 . S
H941 C939 0.929 . S
H942 C957 0.930 . S
H943 C964 0.929 . S
H944 C938 0.930 . S
H945 C937 0.931 . S
H946 C960 0.930 . S
H947 C927 0.930 . S
H948 C933 0.929 . S
H949 C934 0.930 . S
H950 C955 0.930 . S
H951 C930 0.930 . S
H952 C963 0.931 . S
N953 Tb924 2.617 . S
N953 C954 1.379 . S
N953 C957 1.334 . S
C954 N953 1.379 . S
C954 C956 1.416 . S
C954 C962 1.424 . S
C955 H950 0.930 . S
C955 C957 1.390 . S
C955 C958 1.339 . S
C956 C954 1.416 . S
C956 C958 1.416 . S
C956 C989 1.448 . S
C957 H942 0.930 . S
C957 N953 1.334 . S
C957 C955 1.390 . S
C958 C955 1.339 . S
C958 C956 1.416 . S
C958 H965 0.930 . S
N959 Tb924 2.572 . S
N959 C960 1.340 . S
N959 C962 1.361 . S
C960 H946 0.930 . S
C960 N959 1.340 . S
C960 C964 1.407 . S
C961 C962 1.413 . S
C961 C963 1.416 . S
C961 C990 1.427 . S
C962 C954 1.424 . S
C962 N959 1.361 . S
C962 C961 1.413 . S
C963 H952 0.931 . S
C963 C961 1.416 . S
C963 C964 1.332 . S
C964 H943 0.929 . S
C964 C960 1.407 . S
C964 C963 1.332 . S
H965 C958 0.930 . S
H966 C989 0.930 . S
H967 C990 0.929 . S
O968 Tb924 2.465 . S
O968 C988 1.264 . S
O969 Tb924 2.387 . S
O969 C980 1.264 . S
O970 Tb935 2.349 . S
O970 C980 1.243 . S
O971 Tb924 2.428 . S
O971 C988 1.256 . S
O972 Tb924 2.308 . S
O972 C987 1.266 . S
O973 Tb935 2.393 . S
O973 C987 1.248 . S
O974 Tb935 2.465 . S
O974 C999 1.264 . S
O975 Tb935 2.387 . S
O975 C991 1.264 . S
O976 Tb924 2.349 . S
O976 C991 1.243 . S
O977 Tb935 2.428 . S
O977 C999 1.256 . S
O978 Tb935 2.308 . S
O978 C998 1.266 . S
O979 Tb924 2.393 . S
O979 C998 1.248 . S
C980 O969 1.264 . S
C980 O970 1.243 . S
C981 C984 1.399 . S
C981 C986 1.383 . S
C981 C988 1.496 . S
C982 C983 1.399 . S
C982 C986 1.389 . S
C983 C982 1.399 . S
C983 C985 1.380 . S
C983 H1000 0.929 . S
C984 C981 1.399 . S
C984 C985 1.392 . S
C984 H1001 0.929 . S
C985 C983 1.380 . S
C985 C984 1.392 . S
C985 H1002 0.929 . S
C986 C981 1.383 . S
C986 C982 1.389 . S
C986 H1003 0.931 . S
C987 O972 1.266 . S
C987 O973 1.248 . S
C988 Tb924 2.802 . S
C988 O968 1.264 . S
C988 O971 1.256 . S
C988 C981 1.496 . S
C989 C956 1.448 . S
C989 H966 0.930 . S
C989 C990 1.328 . S
C990 C961 1.427 . S
C990 H967 0.929 . S
C990 C989 1.328 . S
C991 O975 1.264 . S
C991 O976 1.243 . S
C992 C995 1.399 . S
C992 C996 1.383 . S
C992 C999 1.496 . S
C993 C994 1.399 . S
C993 C996 1.389 . S
C994 C993 1.399 . S
C994 C997 1.380 . S
C994 H1004 0.929 . S
C995 C992 1.399 . S
C995 C997 1.392 . S
C995 H1005 0.929 . S
C996 C992 1.383 . S
C996 C993 1.389 . S
C996 H1006 0.931 . S
C997 C994 1.380 . S
C997 C995 1.392 . S
C997 H1007 0.929 . S
C998 O978 1.266 . S
C998 O979 1.248 . S
C999 Tb935 2.802 . S
C999 O974 1.264 . S
C999 O977 1.256 . S
C999 C992 1.496 . S
H1000 C983 0.929 . S
H1001 C984 0.929 . S
H1002 C985 0.929 . S
H1003 C986 0.931 . S
H1004 C994 0.929 . S
H1005 C995 0.929 . S
H1006 C996 0.931 . S
H1007 C997 0.929 . S
Tb1008 N1037 2.617 1_554 S
Tb1008 N1043 2.572 1_554 S
Tb1008 O1052 2.465 . S
Tb1008 O1053 2.387 1_554 S
Tb1008 O1055 2.428 . S
Tb1008 O1056 2.308 . S
Tb1008 O1060 2.349 . S
Tb1008 O1063 2.393 . S
Tb1008 C1072 2.802 . S
C1009 N1010 1.379 . S
C1009 C1012 1.416 . S
C1009 C1016 1.424 . S
N1010 C1009 1.379 . S
N1010 C1013 1.334 . S
N1010 Tb1019 2.617 . S
C1011 C1013 1.390 . S
C1011 C1014 1.339 . S
C1011 H1031 0.930 . S
C1012 C1009 1.416 . S
C1012 C1014 1.416 . S
C1012 C1018 1.448 . S
C1013 N1010 1.334 . S
C1013 C1011 1.390 . S
C1013 H1024 0.930 . S
C1014 C1011 1.339 . S
C1014 C1012 1.416 . S
C1014 H1035 0.930 . S
C1015 C1016 1.413 . S
C1015 C1017 1.427 . S
C1015 C1021 1.416 . S
C1016 C1009 1.424 . S
C1016 C1015 1.413 . S
C1016 N1020 1.361 . S
C1017 C1015 1.427 . S
C1017 C1018 1.328 . S
C1017 H1032 0.929 . S
C1018 C1012 1.448 . S
C1018 C1017 1.328 . S
C1018 H1033 0.930 . S
Tb1019 N1010 2.617 . S
Tb1019 N1020 2.572 . S
Tb1019 O1054 2.349 1_554 S
Tb1019 O1057 2.393 . S
Tb1019 O1058 2.465 . S
Tb1019 O1059 2.387 . S
Tb1019 O1061 2.428 . S
Tb1019 O1062 2.308 . S
Tb1019 C1083 2.802 . S
N1020 C1016 1.361 . S
N1020 Tb1019 2.572 . S
N1020 C1022 1.340 . S
C1021 C1015 1.416 . S
C1021 C1023 1.332 . S
C1021 H1029 0.931 . S
C1022 N1020 1.340 . S
C1022 C1023 1.407 . S
C1022 H1028 0.930 . S
C1023 C1021 1.332 . S
C1023 C1022 1.407 . S
C1023 H1025 0.929 . S
H1024 C1013 0.930 . S
H1025 C1023 0.929 . S
H1026 C1041 0.930 1_554 S
H1027 C1048 0.929 . S
H1028 C1022 0.930 . S
H1029 C1021 0.931 . S
H1030 C1044 0.930 . S
H1031 C1011 0.930 . S
H1032 C1017 0.929 . S
H1033 C1018 0.930 . S
H1034 C1039 0.930 . S
H1035 C1014 0.930 . S
H1036 C1047 0.931 . S
N1037 Tb1008 2.617 1_556 S
N1037 C1038 1.379 . S
N1037 C1041 1.334 . S
C1038 N1037 1.379 . S
C1038 C1040 1.416 . S
C1038 C1046 1.424 . S
C1039 H1034 0.930 . S
C1039 C1041 1.390 . S
C1039 C1042 1.339 . S
C1040 C1038 1.416 . S
C1040 C1042 1.416 . S
C1040 C1073 1.448 . S
C1041 H1026 0.930 1_556 S
C1041 N1037 1.334 . S
C1041 C1039 1.390 . S
C1042 C1039 1.339 . S
C1042 C1040 1.416 . S
C1042 H1049 0.930 . S
N1043 Tb1008 2.572 1_556 S
N1043 C1044 1.340 . S
N1043 C1046 1.361 . S
C1044 H1030 0.930 . S
C1044 N1043 1.340 . S
C1044 C1048 1.407 . S
C1045 C1046 1.413 . S
C1045 C1047 1.416 . S
C1045 C1074 1.427 . S
C1046 C1038 1.424 . S
C1046 N1043 1.361 . S
C1046 C1045 1.413 . S
C1047 H1036 0.931 . S
C1047 C1045 1.416 . S
C1047 C1048 1.332 . S
C1048 H1027 0.929 . S
C1048 C1044 1.407 . S
C1048 C1047 1.332 . S
H1049 C1042 0.930 . S
H1050 C1073 0.930 . S
H1051 C1074 0.929 . S
O1052 Tb1008 2.465 . S
O1052 C1072 1.264 . S
O1053 Tb1008 2.387 1_556 S
O1053 C1064 1.264 . S
O1054 Tb1019 2.349 1_556 S
O1054 C1064 1.243 . S
O1055 Tb1008 2.428 . S
O1055 C1072 1.256 . S
O1056 Tb1008 2.308 . S
O1056 C1071 1.266 . S
O1057 Tb1019 2.393 . S
O1057 C1071 1.248 . S
O1058 Tb1019 2.465 . S
O1058 C1083 1.264 . S
O1059 Tb1019 2.387 . S
O1059 C1075 1.264 . S
O1060 Tb1008 2.349 . S
O1060 C1075 1.243 . S
O1061 Tb1019 2.428 . S
O1061 C1083 1.256 . S
O1062 Tb1019 2.308 . S
O1062 C1082 1.266 . S
O1063 Tb1008 2.393 . S
O1063 C1082 1.248 . S
C1064 O1053 1.264 . S
C1064 O1054 1.243 . S
C1065 C1068 1.399 . S
C1065 C1070 1.383 . S
C1065 C1072 1.496 . S
C1066 C1067 1.399 . S
C1066 C1070 1.389 . S
C1067 C1066 1.399 . S
C1067 C1069 1.380 . S
C1067 H1084 0.929 . S
C1068 C1065 1.399 . S
C1068 C1069 1.392 . S
C1068 H1085 0.929 . S
C1069 C1067 1.380 . S
C1069 C1068 1.392 . S
C1069 H1086 0.929 . S
C1070 C1065 1.383 . S
C1070 C1066 1.389 . S
C1070 H1087 0.931 . S
C1071 O1056 1.266 . S
C1071 O1057 1.248 . S
C1072 Tb1008 2.802 . S
C1072 O1052 1.264 . S
C1072 O1055 1.256 . S
C1072 C1065 1.496 . S
C1073 C1040 1.448 . S
C1073 H1050 0.930 . S
C1073 C1074 1.328 . S
C1074 C1045 1.427 . S
C1074 H1051 0.929 . S
C1074 C1073 1.328 . S
C1075 O1059 1.264 . S
C1075 O1060 1.243 . S
C1076 C1079 1.399 . S
C1076 C1080 1.383 . S
C1076 C1083 1.496 1_556 S
C1077 C1078 1.399 . S
C1077 C1080 1.389 . S
C1078 C1077 1.399 . S
C1078 C1081 1.380 . S
C1078 H1088 0.929 . S
C1079 C1076 1.399 . S
C1079 C1081 1.392 . S
C1079 H1089 0.929 . S
C1080 C1076 1.383 . S
C1080 C1077 1.389 . S
C1080 H1090 0.931 . S
C1081 C1078 1.380 . S
C1081 C1079 1.392 . S
C1081 H1091 0.929 . S
C1082 O1062 1.266 . S
C1082 O1063 1.248 . S
C1083 Tb1019 2.802 . S
C1083 O1058 1.264 . S
C1083 O1061 1.256 . S
C1083 C1076 1.496 1_554 S
H1084 C1067 0.929 . S
H1085 C1068 0.929 . S
H1086 C1069 0.929 . S
H1087 C1070 0.931 . S
H1088 C1078 0.929 . S
H1089 C1079 0.929 . S
H1090 C1080 0.931 . S
H1091 C1081 0.929 . S
Tb1092 N1121 2.617 . S
Tb1092 N1127 2.572 . S
Tb1092 O1136 2.465 . S
Tb1092 O1137 2.387 . S
Tb1092 O1139 2.428 . S
Tb1092 O1140 2.308 . S
Tb1092 O1144 2.349 . S
Tb1092 O1147 2.393 . S
Tb1092 C1156 2.802 . S
C1093 N1094 1.379 . S
C1093 C1096 1.416 . S
C1093 C1100 1.424 . S
N1094 C1093 1.379 . S
N1094 C1097 1.334 . S
N1094 Tb1103 2.617 . S
C1095 C1097 1.390 . S
C1095 C1098 1.339 . S
C1095 H1115 0.930 . S
C1096 C1093 1.416 . S
C1096 C1098 1.416 . S
C1096 C1102 1.448 . S
C1097 N1094 1.334 . S
C1097 C1095 1.390 . S
C1097 H1108 0.930 . S
C1098 C1095 1.339 . S
C1098 C1096 1.416 . S
C1098 H1119 0.930 . S
C1099 C1100 1.413 . S
C1099 C1101 1.427 . S
C1099 C1105 1.416 . S
C1100 C1093 1.424 . S
C1100 C1099 1.413 . S
C1100 N1104 1.361 . S
C1101 C1099 1.427 . S
C1101 C1102 1.328 . S
C1101 H1116 0.929 . S
C1102 C1096 1.448 . S
C1102 C1101 1.328 . S
C1102 H1117 0.930 . S
Tb1103 N1094 2.617 . S
Tb1103 N1104 2.572 . S
Tb1103 O1138 2.349 . S
Tb1103 O1141 2.393 . S
Tb1103 O1142 2.465 . S
Tb1103 O1143 2.387 . S
Tb1103 O1145 2.428 . S
Tb1103 O1146 2.308 . S
Tb1103 C1167 2.802 . S
N1104 C1100 1.361 . S
N1104 Tb1103 2.572 . S
N1104 C1106 1.340 . S
C1105 C1099 1.416 . S
C1105 C1107 1.332 . S
C1105 H1113 0.931 . S
C1106 N1104 1.340 . S
C1106 C1107 1.407 . S
C1106 H1112 0.930 . S
C1107 C1105 1.332 . S
C1107 C1106 1.407 . S
C1107 H1109 0.929 . S
H1108 C1097 0.930 . S
H1109 C1107 0.929 . S
H1110 C1125 0.930 . S
H1111 C1132 0.929 . S
H1112 C1106 0.930 . S
H1113 C1105 0.931 . S
H1114 C1128 0.930 . S
H1115 C1095 0.930 . S
H1116 C1101 0.929 . S
H1117 C1102 0.930 . S
H1118 C1123 0.930 . S
H1119 C1098 0.930 . S
H1120 C1131 0.931 1_455 S
N1121 Tb1092 2.617 . S
N1121 C1122 1.379 . S
N1121 C1125 1.334 . S
C1122 N1121 1.379 . S
C1122 C1124 1.416 . S
C1122 C1130 1.424 . S
C1123 H1118 0.930 . S
C1123 C1125 1.390 . S
C1123 C1126 1.339 . S
C1124 C1122 1.416 . S
C1124 C1126 1.416 . S
C1124 C1157 1.448 . S
C1125 H1110 0.930 . S
C1125 N1121 1.334 . S
C1125 C1123 1.390 . S
C1126 C1123 1.339 . S
C1126 C1124 1.416 . S
C1126 H1133 0.930 . S
N1127 Tb1092 2.572 . S
N1127 C1128 1.340 . S
N1127 C1130 1.361 . S
C1128 H1114 0.930 . S
C1128 N1127 1.340 . S
C1128 C1132 1.407 . S
C1129 C1130 1.413 . S
C1129 C1131 1.416 . S
C1129 C1158 1.427 . S
C1130 C1122 1.424 . S
C1130 N1127 1.361 . S
C1130 C1129 1.413 . S
C1131 H1120 0.931 1_655 S
C1131 C1129 1.416 . S
C1131 C1132 1.332 . S
C1132 H1111 0.929 . S
C1132 C1128 1.407 . S
C1132 C1131 1.332 . S
H1133 C1126 0.930 . S
H1134 C1157 0.930 . S
H1135 C1158 0.929 1_455 S
O1136 Tb1092 2.465 . S
O1136 C1156 1.264 . S
O1137 Tb1092 2.387 . S
O1137 C1148 1.264 . S
O1138 Tb1103 2.349 . S
O1138 C1148 1.243 . S
O1139 Tb1092 2.428 . S
O1139 C1156 1.256 . S
O1140 Tb1092 2.308 . S
O1140 C1155 1.266 . S
O1141 Tb1103 2.393 . S
O1141 C1155 1.248 . S
O1142 Tb1103 2.465 . S
O1142 C1167 1.264 . S
O1143 Tb1103 2.387 . S
O1143 C1159 1.264 . S
O1144 Tb1092 2.349 . S
O1144 C1159 1.243 . S
O1145 Tb1103 2.428 . S
O1145 C1167 1.256 . S
O1146 Tb1103 2.308 . S
O1146 C1166 1.266 . S
O1147 Tb1092 2.393 . S
O1147 C1166 1.248 . S
C1148 O1137 1.264 . S
C1148 O1138 1.243 . S
C1149 C1152 1.399 . S
C1149 C1154 1.383 . S
C1149 C1156 1.496 . S
C1150 C1151 1.399 . S
C1150 C1154 1.389 . S
C1151 C1150 1.399 . S
C1151 C1153 1.380 . S
C1151 H1168 0.929 . S
C1152 C1149 1.399 . S
C1152 C1153 1.392 . S
C1152 H1169 0.929 . S
C1153 C1151 1.380 . S
C1153 C1152 1.392 . S
C1153 H1170 0.929 . S
C1154 C1149 1.383 . S
C1154 C1150 1.389 . S
C1154 H1171 0.931 . S
C1155 O1140 1.266 . S
C1155 O1141 1.248 . S
C1156 Tb1092 2.802 . S
C1156 O1136 1.264 . S
C1156 O1139 1.256 . S
C1156 C1149 1.496 . S
C1157 C1124 1.448 . S
C1157 H1134 0.930 . S
C1157 C1158 1.328 . S
C1158 C1129 1.427 . S
C1158 H1135 0.929 1_655 S
C1158 C1157 1.328 . S
C1159 O1143 1.264 . S
C1159 O1144 1.243 . S
C1160 C1163 1.399 . S
C1160 C1164 1.383 . S
C1160 C1167 1.496 . S
C1161 C1162 1.399 . S
C1161 C1164 1.389 . S
C1162 C1161 1.399 . S
C1162 C1165 1.380 . S
C1162 H1172 0.929 . S
C1163 C1160 1.399 . S
C1163 C1165 1.392 . S
C1163 H1173 0.929 . S
C1164 C1160 1.383 . S
C1164 C1161 1.389 . S
C1164 H1174 0.931 . S
C1165 C1162 1.380 . S
C1165 C1163 1.392 . S
C1165 H1175 0.929 . S
C1166 O1146 1.266 . S
C1166 O1147 1.248 . S
C1167 Tb1103 2.802 . S
C1167 O1142 1.264 . S
C1167 O1145 1.256 . S
C1167 C1160 1.496 . S
H1168 C1151 0.929 . S
H1169 C1152 0.929 . S
H1170 C1153 0.929 . S
H1171 C1154 0.931 . S
H1172 C1162 0.929 . S
H1173 C1163 0.929 . S
H1174 C1164 0.931 . S
H1175 C1165 0.929 . S
Tb1176 N1205 2.617 . S
Tb1176 N1211 2.572 1_455 S
Tb1176 O1220 2.465 . S
Tb1176 O1221 2.387 1_455 S
Tb1176 O1223 2.428 . S
Tb1176 O1224 2.308 . S
Tb1176 O1228 2.349 . S
Tb1176 O1231 2.393 . S
Tb1176 C1240 2.802 . S
C1177 N1178 1.379 . S
C1177 C1180 1.416 . S
C1177 C1184 1.424 . S
N1178 C1177 1.379 . S
N1178 C1181 1.334 . S
N1178 Tb1187 2.617 . S
C1179 C1181 1.390 . S
C1179 C1182 1.339 . S
C1179 H1199 0.930 . S
C1180 C1177 1.416 . S
C1180 C1182 1.416 . S
C1180 C1186 1.448 . S
C1181 N1178 1.334 . S
C1181 C1179 1.390 . S
C1181 H1192 0.930 . S
C1182 C1179 1.339 . S
C1182 C1180 1.416 . S
C1182 H1203 0.930 . S
C1183 C1184 1.413 . S
C1183 C1185 1.427 . S
C1183 C1189 1.416 . S
C1184 C1177 1.424 . S
C1184 C1183 1.413 . S
C1184 N1188 1.361 . S
C1185 C1183 1.427 . S
C1185 C1186 1.328 . S
C1185 H1200 0.929 . S
C1186 C1180 1.448 . S
C1186 C1185 1.328 . S
C1186 H1201 0.930 . S
Tb1187 N1178 2.617 . S
Tb1187 N1188 2.572 . S
Tb1187 O1222 2.349 1_455 S
Tb1187 O1225 2.393 . S
Tb1187 O1226 2.465 . S
Tb1187 O1227 2.387 . S
Tb1187 O1229 2.428 . S
Tb1187 O1230 2.308 . S
Tb1187 C1251 2.811 . S
N1188 C1184 1.361 . S
N1188 Tb1187 2.572 . S
N1188 C1190 1.340 . S
C1189 C1183 1.416 . S
C1189 C1191 1.332 . S
C1189 H1197 0.931 . S
C1190 N1188 1.340 . S
C1190 C1191 1.407 . S
C1190 H1196 0.930 . S
C1191 C1189 1.332 . S
C1191 C1190 1.407 . S
C1191 H1193 0.929 . S
H1192 C1181 0.930 . S
H1193 C1191 0.929 . S
H1194 C1209 0.930 . S
H1195 C1216 0.929 . S
H1196 C1190 0.930 . S
H1197 C1189 0.931 . S
H1198 C1212 0.930 1_455 S
H1199 C1179 0.930 . S
H1200 C1185 0.929 . S
H1201 C1186 0.930 . S
H1202 C1207 0.930 . S
H1203 C1182 0.930 . S
H1204 C1215 0.931 . S
N1205 Tb1176 2.617 . S
N1205 C1206 1.379 1_455 S
N1205 C1209 1.334 . S
C1206 N1205 1.379 1_655 S
C1206 C1208 1.416 . S
C1206 C1214 1.424 . S
C1207 H1202 0.930 . S
C1207 C1209 1.390 1_655 S
C1207 C1210 1.339 . S
C1208 C1206 1.416 . S
C1208 C1210 1.416 . S
C1208 C1241 1.448 . S
C1209 H1194 0.930 . S
C1209 N1205 1.334 . S
C1209 C1207 1.390 1_455 S
C1210 C1207 1.339 . S
C1210 C1208 1.416 . S
C1210 H1217 0.930 . S
N1211 Tb1176 2.572 1_655 S
N1211 C1212 1.340 . S
N1211 C1214 1.361 . S
C1212 H1198 0.930 1_655 S
C1212 N1211 1.340 . S
C1212 C1216 1.407 . S
C1213 C1214 1.413 . S
C1213 C1215 1.416 . S
C1213 C1242 1.427 . S
C1214 C1206 1.424 . S
C1214 N1211 1.361 . S
C1214 C1213 1.413 . S
C1215 H1204 0.931 . S
C1215 C1213 1.416 . S
C1215 C1216 1.332 . S
C1216 H1195 0.929 . S
C1216 C1212 1.407 . S
C1216 C1215 1.332 . S
H1217 C1210 0.930 . S
H1218 C1241 0.930 . S
H1219 C1242 0.929 . S
O1220 Tb1176 2.465 . S
O1220 C1240 1.264 . S
O1221 Tb1176 2.387 1_655 S
O1221 C1232 1.264 . S
O1222 Tb1187 2.349 1_655 S
O1222 C1232 1.243 . S
O1223 Tb1176 2.428 . S
O1223 C1240 1.256 . S
O1224 Tb1176 2.308 . S
O1224 C1239 1.266 . S
O1225 Tb1187 2.393 . S
O1225 C1239 1.248 . S
O1226 Tb1187 2.465 . S
O1226 C1251 1.263 . S
O1227 Tb1187 2.387 . S
O1227 C1243 1.264 . S
O1228 Tb1176 2.349 . S
O1228 C1243 1.243 . S
O1229 Tb1187 2.428 . S
O1229 C1251 1.265 . S
O1230 Tb1187 2.308 . S
O1230 C1250 1.266 . S
O1231 Tb1176 2.393 . S
O1231 C1250 1.248 . S
C1232 O1221 1.264 . S
C1232 O1222 1.243 . S
C1233 C1236 1.399 . S
C1233 C1238 1.383 . S
C1233 C1240 1.496 . S
C1234 C1235 1.399 . S
C1234 C1238 1.389 . S
C1235 C1234 1.399 . S
C1235 C1237 1.380 . S
C1235 H1252 0.929 . S
C1236 C1233 1.399 . S
C1236 C1237 1.392 . S
C1236 H1253 0.929 . S
C1237 C1235 1.380 . S
C1237 C1236 1.392 . S
C1237 H1254 0.929 . S
C1238 C1233 1.383 . S
C1238 C1234 1.389 . S
C1238 H1255 0.931 . S
C1239 O1224 1.266 . S
C1239 O1225 1.248 . S
C1240 Tb1176 2.802 . S
C1240 O1220 1.264 . S
C1240 O1223 1.256 . S
C1240 C1233 1.496 . S
C1241 C1208 1.448 . S
C1241 H1218 0.930 . S
C1241 C1242 1.328 . S
C1242 C1213 1.427 . S
C1242 H1219 0.929 . S
C1242 C1241 1.328 . S
C1243 O1227 1.264 . S
C1243 O1228 1.243 . S
C1244 C1247 1.399 . S
C1244 C1248 1.383 . S
C1244 C1251 1.487 1_655 S
C1245 C1246 1.399 . S
C1245 C1248 1.389 . S
C1246 C1245 1.399 . S
C1246 C1249 1.380 . S
C1246 H1256 0.929 . S
C1247 C1244 1.399 . S
C1247 C1249 1.392 . S
C1247 H1257 0.929 . S
C1248 C1244 1.383 . S
C1248 C1245 1.389 . S
C1248 H1258 0.931 . S
C1249 C1246 1.380 . S
C1249 C1247 1.392 . S
C1249 H1259 0.929 . S
C1250 O1230 1.266 . S
C1250 O1231 1.248 . S
C1251 Tb1187 2.811 . S
C1251 O1226 1.263 . S
C1251 O1229 1.265 . S
C1251 C1244 1.487 1_455 S
H1252 C1235 0.929 . S
H1253 C1236 0.929 . S
H1254 C1237 0.929 . S
H1255 C1238 0.931 . S
H1256 C1246 0.929 . S
H1257 C1247 0.929 . S
H1258 C1248 0.931 . S
H1259 C1249 0.929 . S
Tb1260 N1289 2.617 . S
Tb1260 N1295 2.572 . S
Tb1260 O1304 2.465 . S
Tb1260 O1305 2.387 . S
Tb1260 O1307 2.428 . S
Tb1260 O1308 2.308 . S
Tb1260 O1312 2.349 . S
Tb1260 O1315 2.393 . S
Tb1260 C1324 2.802 . S
C1261 N1262 1.379 . S
C1261 C1264 1.416 . S
C1261 C1268 1.424 . S
N1262 C1261 1.379 . S
N1262 C1265 1.334 . S
N1262 Tb1271 2.617 . S
C1263 C1265 1.390 . S
C1263 C1266 1.339 . S
C1263 H1283 0.930 . S
C1264 C1261 1.416 . S
C1264 C1266 1.416 . S
C1264 C1270 1.448 . S
C1265 N1262 1.334 . S
C1265 C1263 1.390 . S
C1265 H1276 0.930 . S
C1266 C1263 1.339 . S
C1266 C1264 1.416 . S
C1266 H1287 0.930 . S
C1267 C1268 1.413 . S
C1267 C1269 1.427 . S
C1267 C1273 1.416 . S
C1268 C1261 1.424 . S
C1268 C1267 1.413 . S
C1268 N1272 1.361 . S
C1269 C1267 1.427 . S
C1269 C1270 1.328 . S
C1269 H1284 0.929 . S
C1270 C1264 1.448 . S
C1270 C1269 1.328 . S
C1270 H1285 0.930 . S
Tb1271 N1262 2.617 . S
Tb1271 N1272 2.572 . S
Tb1271 O1306 2.349 . S
Tb1271 O1309 2.393 . S
Tb1271 O1310 2.465 . S
Tb1271 O1311 2.387 . S
Tb1271 O1313 2.428 . S
Tb1271 O1314 2.308 . S
Tb1271 C1335 2.802 . S
N1272 C1268 1.361 . S
N1272 Tb1271 2.572 . S
N1272 C1274 1.340 . S
C1273 C1267 1.416 . S
C1273 C1275 1.332 . S
C1273 H1281 0.931 . S
C1274 N1272 1.340 . S
C1274 C1275 1.407 . S
C1274 H1280 0.930 . S
C1275 C1273 1.332 . S
C1275 C1274 1.407 . S
C1275 H1277 0.929 . S
H1276 C1265 0.930 . S
H1277 C1275 0.929 . S
H1278 C1293 0.930 . S
H1279 C1300 0.929 . S
H1280 C1274 0.930 . S
H1281 C1273 0.931 . S
H1282 C1296 0.930 . S
H1283 C1263 0.930 . S
H1284 C1269 0.929 . S
H1285 C1270 0.930 . S
H1286 C1291 0.930 . S
H1287 C1266 0.930 . S
H1288 C1299 0.931 . S
N1289 Tb1260 2.617 . S
N1289 C1290 1.379 . S
N1289 C1293 1.334 . S
C1290 N1289 1.379 . S
C1290 C1292 1.416 . S
C1290 C1298 1.424 . S
C1291 H1286 0.930 . S
C1291 C1293 1.390 . S
C1291 C1294 1.339 . S
C1292 C1290 1.416 . S
C1292 C1294 1.416 . S
C1292 C1325 1.448 . S
C1293 H1278 0.930 . S
C1293 N1289 1.334 . S
C1293 C1291 1.390 . S
C1294 C1291 1.339 . S
C1294 C1292 1.416 . S
C1294 H1301 0.930 . S
N1295 Tb1260 2.572 . S
N1295 C1296 1.340 . S
N1295 C1298 1.361 . S
C1296 H1282 0.930 . S
C1296 N1295 1.340 . S
C1296 C1300 1.407 1_655 S
C1297 C1298 1.413 . S
C1297 C1299 1.416 1_655 S
C1297 C1326 1.427 1_655 S
C1298 C1290 1.424 . S
C1298 N1295 1.361 . S
C1298 C1297 1.413 . S
C1299 H1288 0.931 . S
C1299 C1297 1.416 1_455 S
C1299 C1300 1.332 . S
C1300 H1279 0.929 . S
C1300 C1296 1.407 1_455 S
C1300 C1299 1.332 . S
H1301 C1294 0.930 . S
H1302 C1325 0.930 . S
H1303 C1326 0.929 . S
O1304 Tb1260 2.465 . S
O1304 C1324 1.264 . S
O1305 Tb1260 2.387 . S
O1305 C1316 1.264 . S
O1306 Tb1271 2.349 . S
O1306 C1316 1.243 . S
O1307 Tb1260 2.428 . S
O1307 C1324 1.256 . S
O1308 Tb1260 2.308 . S
O1308 C1323 1.266 . S
O1309 Tb1271 2.393 . S
O1309 C1323 1.248 . S
O1310 Tb1271 2.465 . S
O1310 C1335 1.264 . S
O1311 Tb1271 2.387 . S
O1311 C1327 1.264 . S
O1312 Tb1260 2.349 . S
O1312 C1327 1.243 . S
O1313 Tb1271 2.428 . S
O1313 C1335 1.256 . S
O1314 Tb1271 2.308 . S
O1314 C1334 1.266 . S
O1315 Tb1260 2.393 . S
O1315 C1334 1.248 . S
C1316 O1305 1.264 . S
C1316 O1306 1.243 . S
C1317 C1320 1.399 . S
C1317 C1322 1.383 . S
C1317 C1324 1.496 . S
C1318 C1319 1.399 . S
C1318 C1322 1.389 1_455 S
C1319 C1318 1.399 . S
C1319 C1321 1.380 1_455 S
C1319 H1336 0.929 . S
C1320 C1317 1.399 . S
C1320 C1321 1.392 . S
C1320 H1337 0.929 . S
C1321 C1319 1.380 1_655 S
C1321 C1320 1.392 . S
C1321 H1338 0.929 . S
C1322 C1317 1.383 . S
C1322 C1318 1.389 1_655 S
C1322 H1339 0.931 . S
C1323 O1308 1.266 . S
C1323 O1309 1.248 . S
C1324 Tb1260 2.802 . S
C1324 O1304 1.264 . S
C1324 O1307 1.256 . S
C1324 C1317 1.496 . S
C1325 C1292 1.448 . S
C1325 H1302 0.930 . S
C1325 C1326 1.328 1_655 S
C1326 C1297 1.427 1_455 S
C1326 H1303 0.929 . S
C1326 C1325 1.328 1_455 S
C1327 O1311 1.264 . S
C1327 O1312 1.243 . S
C1328 C1331 1.399 . S
C1328 C1332 1.383 . S
C1328 C1335 1.496 . S
C1329 C1330 1.399 . S
C1329 C1332 1.389 . S
C1330 C1329 1.399 . S
C1330 C1333 1.380 . S
C1330 H1340 0.929 . S
C1331 C1328 1.399 . S
C1331 C1333 1.392 . S
C1331 H1341 0.929 . S
C1332 C1328 1.383 . S
C1332 C1329 1.389 . S
C1332 H1342 0.931 . S
C1333 C1330 1.380 . S
C1333 C1331 1.392 . S
C1333 H1343 0.929 . S
C1334 O1314 1.266 . S
C1334 O1315 1.248 . S
C1335 Tb1271 2.802 . S
C1335 O1310 1.264 . S
C1335 O1313 1.256 . S
C1335 C1328 1.496 . S
H1336 C1319 0.929 . S
H1337 C1320 0.929 . S
H1338 C1321 0.929 . S
H1339 C1322 0.931 . S
H1340 C1330 0.929 . S
H1341 C1331 0.929 . S
H1342 C1332 0.931 . S
H1343 C1333 0.929 . S
Tb1344 N1373 2.617 . S
Tb1344 N1379 2.572 . S
Tb1344 O1388 2.465 . S
Tb1344 O1389 2.387 . S
Tb1344 O1391 2.428 . S
Tb1344 O1392 2.308 . S
Tb1344 O1396 2.349 . S
Tb1344 O1399 2.393 . S
Tb1344 C1408 2.802 . S
C1345 N1346 1.379 . S
C1345 C1348 1.416 . S
C1345 C1352 1.424 . S
N1346 C1345 1.379 . S
N1346 C1349 1.334 . S
N1346 Tb1355 2.617 . S
C1347 C1349 1.390 . S
C1347 C1350 1.339 . S
C1347 H1367 0.930 . S
C1348 C1345 1.416 . S
C1348 C1350 1.416 . S
C1348 C1354 1.448 . S
C1349 N1346 1.334 . S
C1349 C1347 1.390 . S
C1349 H1360 0.930 . S
C1350 C1347 1.339 . S
C1350 C1348 1.416 . S
C1350 H1371 0.930 . S
C1351 C1352 1.413 . S
C1351 C1353 1.427 . S
C1351 C1357 1.416 . S
C1352 C1345 1.424 . S
C1352 C1351 1.413 . S
C1352 N1356 1.361 . S
C1353 C1351 1.427 . S
C1353 C1354 1.328 . S
C1353 H1368 0.929 . S
C1354 C1348 1.448 . S
C1354 C1353 1.328 . S
C1354 H1369 0.930 . S
Tb1355 N1346 2.617 . S
Tb1355 N1356 2.572 . S
Tb1355 O1390 2.349 . S
Tb1355 O1393 2.393 . S
Tb1355 O1394 2.465 . S
Tb1355 O1395 2.387 . S
Tb1355 O1397 2.428 . S
Tb1355 O1398 2.308 . S
Tb1355 C1419 2.802 . S
N1356 C1352 1.361 . S
N1356 Tb1355 2.572 . S
N1356 C1358 1.340 . S
C1357 C1351 1.416 . S
C1357 C1359 1.332 . S
C1357 H1365 0.931 . S
C1358 N1356 1.340 . S
C1358 C1359 1.407 . S
C1358 H1364 0.930 . S
C1359 C1357 1.332 . S
C1359 C1358 1.407 . S
C1359 H1361 0.929 . S
H1360 C1349 0.930 . S
H1361 C1359 0.929 . S
H1362 C1377 0.930 . S
H1363 C1384 0.929 . S
H1364 C1358 0.930 . S
H1365 C1357 0.931 . S
H1366 C1380 0.930 . S
H1367 C1347 0.930 . S
H1368 C1353 0.929 . S
H1369 C1354 0.930 . S
H1370 C1375 0.930 . S
H1371 C1350 0.930 . S
H1372 C1383 0.931 . S
N1373 Tb1344 2.617 . S
N1373 C1374 1.379 . S
N1373 C1377 1.334 . S
C1374 N1373 1.379 . S
C1374 C1376 1.416 . S
C1374 C1382 1.424 . S
C1375 H1370 0.930 . S
C1375 C1377 1.390 . S
C1375 C1378 1.339 . S
C1376 C1374 1.416 . S
C1376 C1378 1.416 . S
C1376 C1409 1.448 . S
C1377 H1362 0.930 . S
C1377 N1373 1.334 . S
C1377 C1375 1.390 . S
C1378 C1375 1.339 . S
C1378 C1376 1.416 . S
C1378 H1385 0.930 . S
N1379 Tb1344 2.572 . S
N1379 C1380 1.340 . S
N1379 C1382 1.361 . S
C1380 H1366 0.930 . S
C1380 N1379 1.340 . S
C1380 C1384 1.407 1_556 S
C1381 C1382 1.413 1_554 S
C1381 C1383 1.416 . S
C1381 C1410 1.427 . S
C1382 C1374 1.424 . S
C1382 N1379 1.361 . S
C1382 C1381 1.413 1_556 S
C1383 H1372 0.931 . S
C1383 C1381 1.416 . S
C1383 C1384 1.332 . S
C1384 H1363 0.929 . S
C1384 C1380 1.407 1_554 S
C1384 C1383 1.332 . S
H1385 C1378 0.930 . S
H1386 C1409 0.930 1_554 S
H1387 C1410 0.929 . S
O1388 Tb1344 2.465 . S
O1388 C1408 1.264 . S
O1389 Tb1344 2.387 . S
O1389 C1400 1.264 . S
O1390 Tb1355 2.349 . S
O1390 C1400 1.243 . S
O1391 Tb1344 2.428 . S
O1391 C1408 1.256 . S
O1392 Tb1344 2.308 . S
O1392 C1407 1.266 . S
O1393 Tb1355 2.393 . S
O1393 C1407 1.248 . S
O1394 Tb1355 2.465 . S
O1394 C1419 1.264 . S
O1395 Tb1355 2.387 . S
O1395 C1411 1.264 . S
O1396 Tb1344 2.349 . S
O1396 C1411 1.243 . S
O1397 Tb1355 2.428 . S
O1397 C1419 1.256 . S
O1398 Tb1355 2.308 . S
O1398 C1418 1.266 . S
O1399 Tb1344 2.393 . S
O1399 C1418 1.248 . S
C1400 O1389 1.264 . S
C1400 O1390 1.243 . S
C1401 C1404 1.399 . S
C1401 C1406 1.383 . S
C1401 C1408 1.496 . S
C1402 C1403 1.399 . S
C1402 C1406 1.389 1_554 S
C1403 C1402 1.399 . S
C1403 C1405 1.380 1_554 S
C1403 H1420 0.929 . S
C1404 C1401 1.399 . S
C1404 C1405 1.392 . S
C1404 H1421 0.929 . S
C1405 C1403 1.380 1_556 S
C1405 C1404 1.392 . S
C1405 H1422 0.929 . S
C1406 C1401 1.383 . S
C1406 C1402 1.389 1_556 S
C1406 H1423 0.931 . S
C1407 O1392 1.266 . S
C1407 O1393 1.248 . S
C1408 Tb1344 2.802 . S
C1408 O1388 1.264 . S
C1408 O1391 1.256 . S
C1408 C1401 1.496 . S
C1409 C1376 1.448 . S
C1409 H1386 0.930 1_556 S
C1409 C1410 1.328 1_556 S
C1410 C1381 1.427 . S
C1410 H1387 0.929 . S
C1410 C1409 1.328 1_554 S
C1411 O1395 1.264 . S
C1411 O1396 1.243 . S
C1412 C1415 1.399 . S
C1412 C1416 1.383 . S
C1412 C1419 1.496 . S
C1413 C1414 1.399 . S
C1413 C1416 1.389 . S
C1414 C1413 1.399 . S
C1414 C1417 1.380 . S
C1414 H1424 0.929 . S
C1415 C1412 1.399 . S
C1415 C1417 1.392 . S
C1415 H1425 0.929 . S
C1416 C1412 1.383 . S
C1416 C1413 1.389 . S
C1416 H1426 0.931 . S
C1417 C1414 1.380 . S
C1417 C1415 1.392 . S
C1417 H1427 0.929 . S
C1418 O1398 1.266 . S
C1418 O1399 1.248 . S
C1419 Tb1355 2.802 . S
C1419 O1394 1.264 . S
C1419 O1397 1.256 . S
C1419 C1412 1.496 . S
H1420 C1403 0.929 . S
H1421 C1404 0.929 . S
H1422 C1405 0.929 . S
H1423 C1406 0.931 . S
H1424 C1414 0.929 . S
H1425 C1415 0.929 . S
H1426 C1416 0.931 . S
H1427 C1417 0.929 . S
Tb1428 N1457 2.617 . S
Tb1428 N1463 2.572 . S
Tb1428 O1472 2.465 . S
Tb1428 O1473 2.387 . S
Tb1428 O1475 2.428 . S
Tb1428 O1476 2.308 . S
Tb1428 O1480 2.349 . S
Tb1428 O1483 2.393 . S
Tb1428 C1492 2.802 . S
C1429 N1430 1.379 . S
C1429 C1432 1.425 . S
C1429 C1436 1.424 . S
N1430 C1429 1.379 . S
N1430 C1433 1.334 . S
N1430 Tb1439 2.617 . S
C1431 C1433 1.390 1_554 S
C1431 C1434 1.339 . S
C1431 H1451 0.930 . S
C1432 C1429 1.425 . S
C1432 C1434 1.420 1_556 S
C1432 C1438 1.436 1_655 S
C1433 N1430 1.334 . S
C1433 C1431 1.390 1_556 S
C1433 H1444 0.930 . S
C1434 C1431 1.339 . S
C1434 C1432 1.420 1_554 S
C1434 H1455 0.930 1_655 S
C1435 C1436 1.413 1_455 S
C1435 C1437 1.427 . S
C1435 C1441 1.416 . S
C1436 C1429 1.424 . S
C1436 C1435 1.413 1_655 S
C1436 N1440 1.361 . S
C1437 C1435 1.427 . S
C1437 C1438 1.328 . S
C1437 H1452 0.929 1_565 S
C1438 C1432 1.436 1_455 S
C1438 C1437 1.328 . S
C1438 H1453 0.930 1_565 S
Tb1439 N1430 2.617 . S
Tb1439 N1440 2.572 . S
Tb1439 O1474 2.349 . S
Tb1439 O1477 2.393 . S
Tb1439 O1478 2.465 . S
Tb1439 O1479 2.387 . S
Tb1439 O1481 2.428 . S
Tb1439 O1482 2.308 . S
Tb1439 C1503 2.802 . S
N1440 C1436 1.361 . S
N1440 Tb1439 2.572 . S
N1440 C1442 1.340 . S
C1441 C1435 1.416 . S
C1441 C1443 1.332 1_455 S
C1441 H1449 0.929 1_565 S
C1442 N1440 1.340 . S
C1442 C1443 1.407 . S
C1442 H1448 0.930 . S
C1443 C1441 1.332 1_655 S
C1443 C1442 1.407 . S
C1443 H1445 0.929 . S
H1444 C1433 0.930 . S
H1445 C1443 0.929 . S
H1446 C1461 0.930 . S
H1447 C1468 0.929 . S
H1448 C1442 0.930 . S
H1449 C1441 0.929 1_545 S
H1450 C1464 0.930 . S
H1451 C1431 0.930 . S
H1452 C1437 0.929 1_545 S
H1453 C1438 0.930 1_545 S
H1454 C1459 0.930 . S
H1455 C1434 0.930 1_455 S
H1456 C1467 0.931 . S
N1457 Tb1428 2.617 . S
N1457 C1458 1.379 . S
N1457 C1461 1.334 . S
C1458 N1457 1.379 . S
C1458 C1460 1.416 . S
C1458 C1466 1.424 . S
C1459 H1454 0.930 . S
C1459 C1461 1.390 . S
C1459 C1462 1.339 . S
C1460 C1458 1.416 . S
C1460 C1462 1.416 . S
C1460 C1493 1.448 . S
C1461 H1446 0.930 . S
C1461 N1457 1.334 . S
C1461 C1459 1.390 . S
C1462 C1459 1.339 . S
C1462 C1460 1.416 . S
C1462 H1469 0.930 . S
N1463 Tb1428 2.572 . S
N1463 C1464 1.340 . S
N1463 C1466 1.361 . S
C1464 H1450 0.930 . S
C1464 N1463 1.340 . S
C1464 C1468 1.407 . S
C1465 C1466 1.413 . S
C1465 C1467 1.416 . S
C1465 C1494 1.427 . S
C1466 C1458 1.424 . S
C1466 N1463 1.361 . S
C1466 C1465 1.413 . S
C1467 H1456 0.931 . S
C1467 C1465 1.416 . S
C1467 C1468 1.332 . S
C1468 H1447 0.929 . S
C1468 C1464 1.407 . S
C1468 C1467 1.332 . S
H1469 C1462 0.930 . S
H1470 C1493 0.930 . S
H1471 C1494 0.929 . S
O1472 Tb1428 2.465 . S
O1472 C1492 1.264 . S
O1473 Tb1428 2.387 . S
O1473 C1484 1.264 . S
O1474 Tb1439 2.349 . S
O1474 C1484 1.243 . S
O1475 Tb1428 2.428 . S
O1475 C1492 1.256 . S
O1476 Tb1428 2.308 . S
O1476 C1491 1.266 . S
O1477 Tb1439 2.393 . S
O1477 C1491 1.248 . S
O1478 Tb1439 2.465 . S
O1478 C1503 1.264 . S
O1479 Tb1439 2.387 . S
O1479 C1495 1.264 . S
O1480 Tb1428 2.349 . S
O1480 C1495 1.243 . S
O1481 Tb1439 2.428 . S
O1481 C1503 1.256 . S
O1482 Tb1439 2.308 . S
O1482 C1502 1.266 . S
O1483 Tb1428 2.393 . S
O1483 C1502 1.248 . S
C1484 O1473 1.264 . S
C1484 O1474 1.243 . S
C1485 C1488 1.399 . S
C1485 C1490 1.383 . S
C1485 C1492 1.496 . S
C1486 C1487 1.399 . S
C1486 C1490 1.389 . S
C1487 C1486 1.399 . S
C1487 C1489 1.380 . S
C1487 H1504 0.929 . S
C1488 C1485 1.399 . S
C1488 C1489 1.392 . S
C1488 H1505 0.929 . S
C1489 C1487 1.380 . S
C1489 C1488 1.392 . S
C1489 H1506 0.929 . S
C1490 C1485 1.383 . S
C1490 C1486 1.389 . S
C1490 H1507 0.931 . S
C1491 O1476 1.266 . S
C1491 O1477 1.248 . S
C1492 Tb1428 2.802 . S
C1492 O1472 1.264 . S
C1492 O1475 1.256 . S
C1492 C1485 1.496 . S
C1493 C1460 1.448 . S
C1493 H1470 0.930 . S
C1493 C1494 1.328 . S
C1494 C1465 1.427 . S
C1494 H1471 0.929 . S
C1494 C1493 1.328 . S
C1495 O1479 1.264 . S
C1495 O1480 1.243 . S
C1496 C1499 1.399 . S
C1496 C1500 1.383 . S
C1496 C1503 1.496 1_545 S
C1497 C1498 1.399 . S
C1497 C1500 1.389 . S
C1498 C1497 1.399 . S
C1498 C1501 1.380 . S
C1498 H1508 0.929 . S
C1499 C1496 1.399 . S
C1499 C1501 1.392 . S
C1499 H1509 0.929 . S
C1500 C1496 1.383 . S
C1500 C1497 1.389 . S
C1500 H1510 0.931 . S
C1501 C1498 1.380 . S
C1501 C1499 1.392 . S
C1501 H1511 0.929 . S
C1502 O1482 1.266 . S
C1502 O1483 1.248 . S
C1503 Tb1439 2.802 . S
C1503 O1478 1.264 . S
C1503 O1481 1.256 . S
C1503 C1496 1.496 1_565 S
H1504 C1487 0.929 . S
H1505 C1488 0.929 . S
H1506 C1489 0.929 . S
H1507 C1490 0.931 . S
H1508 C1498 0.929 . S
H1509 C1499 0.929 . S
H1510 C1500 0.931 . S
H1511 C1501 0.929 . S
Tb1512 N1541 2.617 . S
Tb1512 N1547 2.572 . S
Tb1512 O1556 2.465 . S
Tb1512 O1557 2.387 . S
Tb1512 O1559 2.428 . S
Tb1512 O1560 2.308 . S
Tb1512 O1564 2.349 . S
Tb1512 O1567 2.393 . S
Tb1512 C1576 2.802 . S
C1513 N1514 1.379 . S
C1513 C1516 1.416 . S
C1513 C1520 1.424 . S
N1514 C1513 1.379 . S
N1514 C1517 1.334 . S
N1514 Tb1523 2.617 . S
C1515 C1517 1.390 . S
C1515 C1518 1.339 . S
C1515 H1535 0.930 . S
C1516 C1513 1.416 . S
C1516 C1518 1.416 . S
C1516 C1522 1.448 . S
C1517 N1514 1.334 . S
C1517 C1515 1.390 . S
C1517 H1528 0.930 . S
C1518 C1515 1.339 . S
C1518 C1516 1.416 . S
C1518 H1539 0.930 . S
C1519 C1520 1.413 . S
C1519 C1521 1.427 . S
C1519 C1525 1.416 . S
C1520 C1513 1.424 . S
C1520 C1519 1.413 . S
C1520 N1524 1.361 . S
C1521 C1519 1.427 . S
C1521 C1522 1.328 . S
C1521 H1536 0.929 . S
C1522 C1516 1.448 . S
C1522 C1521 1.328 . S
C1522 H1537 0.930 . S
Tb1523 N1514 2.617 . S
Tb1523 N1524 2.572 . S
Tb1523 O1558 2.349 . S
Tb1523 O1561 2.393 . S
Tb1523 O1562 2.465 . S
Tb1523 O1563 2.387 . S
Tb1523 O1565 2.428 . S
Tb1523 O1566 2.308 . S
Tb1523 C1587 2.802 . S
N1524 C1520 1.361 . S
N1524 Tb1523 2.572 . S
N1524 C1526 1.340 . S
C1525 C1519 1.416 . S
C1525 C1527 1.332 . S
C1525 H1533 0.931 . S
C1526 N1524 1.340 . S
C1526 C1527 1.407 . S
C1526 H1532 0.930 . S
C1527 C1525 1.332 . S
C1527 C1526 1.407 . S
C1527 H1529 0.929 . S
H1528 C1517 0.930 . S
H1529 C1527 0.929 . S
H1530 C1545 0.930 . S
H1531 C1552 0.929 . S
H1532 C1526 0.930 . S
H1533 C1525 0.931 . S
H1534 C1548 0.930 . S
H1535 C1515 0.930 . S
H1536 C1521 0.929 . S
H1537 C1522 0.930 . S
H1538 C1543 0.930 . S
H1539 C1518 0.930 . S
H1540 C1551 0.931 . S
N1541 Tb1512 2.617 . S
N1541 C1542 1.379 . S
N1541 C1545 1.334 . S
C1542 N1541 1.379 . S
C1542 C1544 1.416 . S
C1542 C1550 1.424 . S
C1543 H1538 0.930 . S
C1543 C1545 1.390 . S
C1543 C1546 1.339 . S
C1544 C1542 1.416 . S
C1544 C1546 1.416 . S
C1544 C1577 1.448 . S
C1545 H1530 0.930 . S
C1545 N1541 1.334 . S
C1545 C1543 1.390 . S
C1546 C1543 1.339 . S
C1546 C1544 1.416 . S
C1546 H1553 0.930 . S
N1547 Tb1512 2.572 . S
N1547 C1548 1.340 . S
N1547 C1550 1.361 . S
C1548 H1534 0.930 . S
C1548 N1547 1.340 . S
C1548 C1552 1.407 . S
C1549 C1550 1.413 . S
C1549 C1551 1.416 . S
C1549 C1578 1.427 . S
C1550 C1542 1.424 . S
C1550 N1547 1.361 . S
C1550 C1549 1.413 . S
C1551 H1540 0.931 . S
C1551 C1549 1.416 . S
C1551 C1552 1.332 . S
C1552 H1531 0.929 . S
C1552 C1548 1.407 . S
C1552 C1551 1.332 . S
H1553 C1546 0.930 . S
H1554 C1577 0.930 . S
H1555 C1578 0.929 . S
O1556 Tb1512 2.465 . S
O1556 C1576 1.264 . S
O1557 Tb1512 2.387 . S
O1557 C1568 1.264 . S
O1558 Tb1523 2.349 . S
O1558 C1568 1.243 . S
O1559 Tb1512 2.428 . S
O1559 C1576 1.256 . S
O1560 Tb1512 2.308 . S
O1560 C1575 1.266 . S
O1561 Tb1523 2.393 . S
O1561 C1575 1.248 . S
O1562 Tb1523 2.465 . S
O1562 C1587 1.264 . S
O1563 Tb1523 2.387 . S
O1563 C1579 1.264 . S
O1564 Tb1512 2.349 . S
O1564 C1579 1.243 . S
O1565 Tb1523 2.428 . S
O1565 C1587 1.256 . S
O1566 Tb1523 2.308 . S
O1566 C1586 1.266 . S
O1567 Tb1512 2.393 . S
O1567 C1586 1.248 . S
C1568 O1557 1.264 . S
C1568 O1558 1.243 . S
C1569 C1572 1.399 . S
C1569 C1574 1.383 . S
C1569 C1576 1.496 . S
C1570 C1571 1.399 . S
C1570 C1574 1.389 . S
C1571 C1570 1.399 . S
C1571 C1573 1.380 . S
C1571 H1588 0.929 . S
C1572 C1569 1.399 . S
C1572 C1573 1.392 . S
C1572 H1589 0.929 . S
C1573 C1571 1.380 . S
C1573 C1572 1.392 . S
C1573 H1590 0.929 . S
C1574 C1569 1.383 . S
C1574 C1570 1.389 . S
C1574 H1591 0.931 . S
C1575 O1560 1.266 . S
C1575 O1561 1.248 . S
C1576 Tb1512 2.802 . S
C1576 O1556 1.264 . S
C1576 O1559 1.256 . S
C1576 C1569 1.496 . S
C1577 C1544 1.448 . S
C1577 H1554 0.930 . S
C1577 C1578 1.328 . S
C1578 C1549 1.427 . S
C1578 H1555 0.929 . S
C1578 C1577 1.328 . S
C1579 O1563 1.264 . S
C1579 O1564 1.243 . S
C1580 C1583 1.399 . S
C1580 C1584 1.383 . S
C1580 C1587 1.496 . S
C1581 C1582 1.399 . S
C1581 C1584 1.389 . S
C1582 C1581 1.399 . S
C1582 C1585 1.380 . S
C1582 H1592 0.929 . S
C1583 C1580 1.399 . S
C1583 C1585 1.392 . S
C1583 H1593 0.929 . S
C1584 C1580 1.383 . S
C1584 C1581 1.389 . S
C1584 H1594 0.931 . S
C1585 C1582 1.380 . S
C1585 C1583 1.392 . S
C1585 H1595 0.929 . S
C1586 O1566 1.266 . S
C1586 O1567 1.248 . S
C1587 Tb1523 2.802 . S
C1587 O1562 1.264 . S
C1587 O1565 1.256 . S
C1587 C1580 1.496 . S
H1588 C1571 0.929 . S
H1589 C1572 0.929 . S
H1590 C1573 0.929 . S
H1591 C1574 0.931 . S
H1592 C1582 0.929 . S
H1593 C1583 0.929 . S
H1594 C1584 0.931 . S
H1595 C1585 0.929 . S
Tb1596 N1625 2.617 1_455 S
Tb1596 N1631 2.572 1_455 S
Tb1596 O1640 2.465 1_455 S
Tb1596 O1641 2.387 . S
Tb1596 O1643 2.428 1_455 S
Tb1596 O1644 2.308 1_455 S
Tb1596 O1648 2.349 . S
Tb1596 O1651 2.393 . S
Tb1596 C1660 2.802 1_455 S
C1597 N1598 1.379 . S
C1597 C1600 1.416 . S
C1597 C1604 1.424 . S
N1598 C1597 1.379 . S
N1598 C1601 1.334 . S
N1598 Tb1607 2.617 1_556 S
C1599 C1601 1.390 . S
C1599 C1602 1.339 . S
C1599 H1619 0.930 . S
C1600 C1597 1.416 . S
C1600 C1602 1.416 . S
C1600 C1606 1.448 . S
C1601 N1598 1.334 . S
C1601 C1599 1.390 . S
C1601 H1612 0.930 . S
C1602 C1599 1.339 . S
C1602 C1600 1.416 . S
C1602 H1623 0.930 . S
C1603 C1604 1.413 1_554 S
C1603 C1605 1.427 1_554 S
C1603 C1609 1.416 . S
C1604 C1597 1.424 . S
C1604 C1603 1.413 1_556 S
C1604 N1608 1.361 1_556 S
C1605 C1603 1.427 1_556 S
C1605 C1606 1.328 . S
C1605 H1620 0.929 . S
C1606 C1600 1.448 . S
C1606 C1605 1.328 . S
C1606 H1621 0.930 . S
Tb1607 N1598 2.617 1_554 S
Tb1607 N1608 2.572 . S
Tb1607 O1642 2.349 . S
Tb1607 O1645 2.393 1_554 S
Tb1607 O1646 2.465 . S
Tb1607 O1647 2.387 . S
Tb1607 O1649 2.428 1_554 S
Tb1607 O1650 2.308 . S
Tb1607 C1671 2.802 1_554 S
N1608 C1604 1.361 1_554 S
N1608 Tb1607 2.572 . S
N1608 C1610 1.340 . S
C1609 C1603 1.416 . S
C1609 C1611 1.332 . S
C1609 H1617 0.931 . S
C1610 N1608 1.340 . S
C1610 C1611 1.407 . S
C1610 H1616 0.930 . S
C1611 C1609 1.332 . S
C1611 C1610 1.407 . S
C1611 H1613 0.929 . S
H1612 C1601 0.930 . S
H1613 C1611 0.929 . S
H1614 C1629 0.930 . S
H1615 C1636 0.929 1_556 S
H1616 C1610 0.930 . S
H1617 C1609 0.931 . S
H1618 C1632 0.930 . S
H1619 C1599 0.930 . S
H1620 C1605 0.929 . S
H1621 C1606 0.930 . S
H1622 C1627 0.930 . S
H1623 C1602 0.930 . S
H1624 C1635 0.931 . S
N1625 Tb1596 2.617 1_655 S
N1625 C1626 1.379 . S
N1625 C1629 1.334 1_655 S
C1626 N1625 1.379 . S
C1626 C1628 1.416 . S
C1626 C1634 1.424 . S
C1627 H1622 0.930 . S
C1627 C1629 1.390 . S
C1627 C1630 1.339 1_455 S
C1628 C1626 1.416 . S
C1628 C1630 1.416 . S
C1628 C1661 1.448 . S
C1629 H1614 0.930 . S
C1629 N1625 1.334 1_455 S
C1629 C1627 1.390 . S
C1630 C1627 1.339 1_655 S
C1630 C1628 1.416 . S
C1630 H1637 0.930 . S
N1631 Tb1596 2.572 1_655 S
N1631 C1632 1.340 . S
N1631 C1634 1.361 . S
C1632 H1618 0.930 . S
C1632 N1631 1.340 . S
C1632 C1636 1.407 . S
C1633 C1634 1.413 . S
C1633 C1635 1.416 . S
C1633 C1662 1.427 . S
C1634 C1626 1.424 . S
C1634 N1631 1.361 . S
C1634 C1633 1.413 . S
C1635 H1624 0.931 . S
C1635 C1633 1.416 . S
C1635 C1636 1.332 . S
C1636 H1615 0.929 1_554 S
C1636 C1632 1.407 . S
C1636 C1635 1.332 . S
H1637 C1630 0.930 . S
H1638 C1661 0.930 . S
H1639 C1662 0.929 . S
O1640 Tb1596 2.465 1_655 S
O1640 C1660 1.264 . S
O1641 Tb1596 2.387 . S
O1641 C1652 1.264 . S
O1642 Tb1607 2.349 . S
O1642 C1652 1.243 . S
O1643 Tb1596 2.428 1_655 S
O1643 C1660 1.256 . S
O1644 Tb1596 2.308 1_655 S
O1644 C1659 1.266 1_554 S
O1645 Tb1607 2.393 1_556 S
O1645 C1659 1.248 1_455 S
O1646 Tb1607 2.465 . S
O1646 C1671 1.264 1_554 S
O1647 Tb1607 2.387 . S
O1647 C1663 1.264 . S
O1648 Tb1596 2.349 . S
O1648 C1663 1.243 . S
O1649 Tb1607 2.428 1_556 S
O1649 C1671 1.256 . S
O1650 Tb1607 2.308 . S
O1650 C1670 1.266 . S
O1651 Tb1596 2.393 . S
O1651 C1670 1.248 . S
C1652 O1641 1.264 . S
C1652 O1642 1.243 . S
C1653 C1656 1.399 . S
C1653 C1658 1.383 . S
C1653 C1660 1.496 . S
C1654 C1655 1.399 . S
C1654 C1658 1.389 . S
C1655 C1654 1.399 . S
C1655 C1657 1.380 . S
C1655 H1672 0.929 . S
C1656 C1653 1.399 . S
C1656 C1657 1.392 . S
C1656 H1673 0.929 . S
C1657 C1655 1.380 . S
C1657 C1656 1.392 . S
C1657 H1674 0.929 . S
C1658 C1653 1.383 . S
C1658 C1654 1.389 . S
C1658 H1675 0.931 . S
C1659 O1644 1.266 1_556 S
C1659 O1645 1.248 1_655 S
C1660 Tb1596 2.802 1_655 S
C1660 O1640 1.264 . S
C1660 O1643 1.256 . S
C1660 C1653 1.496 . S
C1661 C1628 1.448 . S
C1661 H1638 0.930 . S
C1661 C1662 1.328 . S
C1662 C1633 1.427 . S
C1662 H1639 0.929 . S
C1662 C1661 1.328 . S
C1663 O1647 1.264 . S
C1663 O1648 1.243 . S
C1664 C1667 1.399 . S
C1664 C1668 1.383 1_556 S
C1664 C1671 1.496 . S
C1665 C1666 1.399 1_554 S
C1665 C1668 1.389 . S
C1666 C1665 1.399 1_556 S
C1666 C1669 1.380 . S
C1666 H1676 0.929 . S
C1667 C1664 1.399 . S
C1667 C1669 1.392 . S
C1667 H1677 0.929 . S
C1668 C1664 1.383 1_554 S
C1668 C1665 1.389 . S
C1668 H1678 0.931 . S
C1669 C1666 1.380 . S
C1669 C1667 1.392 . S
C1669 H1679 0.929 . S
C1670 O1650 1.266 . S
C1670 O1651 1.248 . S
C1671 Tb1607 2.802 1_556 S
C1671 O1646 1.264 1_556 S
C1671 O1649 1.256 . S
C1671 C1664 1.496 . S
H1672 C1655 0.929 . S
H1673 C1656 0.929 . S
H1674 C1657 0.929 . S
H1675 C1658 0.931 . S
H1676 C1666 0.929 . S
H1677 C1667 0.929 . S
H1678 C1668 0.931 . S
H1679 C1669 0.929 . S
C111 C392 3.863 1_655 S
C64 C494 2.873 . S
C77 C560 2.757 . S
C646 C95 1.387 . S
C25 C730 1.356 . S
C812 C36 2.590 . S
C914 C50 2.843 . S
C11 C980 3.569 . S
C410 C237 2.791 . S
C245 C478 0.548 . S
C578 C279 1.358 . S
C644 C175 1.935 . S
C231 C728 1.926 . S
C830 C251 1.332 . S
C898 C273 0.645 . S
C998 C181 2.817 . S
C394 C165 2.555 1_554 S
C288 C1082 2.150 . S
C1150 C333 2.135 . S
C1232 C316 0.184 . S
C123 C982 2.571 . S
C137 C562 2.171 . S
C330 C1334 2.160 . S
C1400 C302 0.199 . S
C403 C63 3.893 . S
C1407 C106 3.024 . S
C97 C571 2.902 . S
C81 C1329 1.197 . S
C741 C13 0.845 . S
C55 C1159 2.884 . S
C903 C35 2.584 . S
C1495 C21 3.875 . S
C399 C147 2.931 . S
C1413 C321 0.494 . S
C119 C567 1.404 . S
C293 C1327 2.099 . S
C153 C739 2.087 . S
C1155 C315 1.446 . S
C125 C909 0.506 . S
C287 C1491 2.918 . S
C193 C405 2.366 . S
C176 C1071 2.331 . S
C263 C825 1.963 . S
C246 C1243 0.798 . S
C1497 C277 2.214 . S
C221 C573 1.805 . S
C651 C260 2.332 . S
C487 C204 0.769 . S
C83 C1568 3.863 . S
C1418 C92 2.873 . S
C105 C1652 2.757 . S
C67 C1318 1.387 . S
C53 C1066 1.356 . S
C1148 C8 2.591 . S
C1250 C22 2.843 . S
C1484 C39 3.570 . S
C1586 C265 2.791 . S
C189 C1402 0.548 . S
C1670 C209 1.358 . S
C1316 C217 1.935 . S
C1064 C259 1.925 . S
C195 C1166 1.331 . S
C1234 C203 0.645 . S
C223 C1502 2.818 . S
C1570 C319 2.554 . S
C134 C746 2.151 . S
C814 C151 2.135 . S
C896 C162 0.184 . S
C1486 C305 2.571 . S
C291 C1654 2.171 . S
C662 C148 2.160 . S
C476 C120 0.199 . S
C91 C1579 3.893 . S
C483 C78 3.024 . S
C69 C1663 2.902 . S
C109 C657 1.197 . S
C41 C1077 0.845 . S
C823 C27 2.884 . S
C7 C1239 2.584 . S
C49 C991 3.876 . S
C1575 C329 2.931 . S
C167 C489 0.494 . S
C1659 C301 1.404 . S
C139 C655 2.099 . S
C335 C1075 2.087 . S
C819 C161 1.446 . S
C307 C1245 0.506 . S
C987 C133 2.918 . S
C1581 C249 2.366 . S
C735 C218 2.332 1_545 S
C235 C1161 1.963 . S
C907 C190 0.798 . S
C207 C993 2.214 . S
C179 C1665 1.805 . S
C1323 C232 2.332 . S
C1411 C274 0.769 . S
