# Generated by pormake.
# Topology ssa, (4,4)-cn, num edge types: 1
# Building blocks:
#     Node 0, Type 0, BuildingBlock: ESEHIV_clean_sbu_0, # of connection points: 4
#     Node 1, Type 0, BuildingBlock: ESEHIV_clean_sbu_0, # of connection points: 4
#     Node 2, Type 0, BuildingBlock: ESEHIV_clean_sbu_0, # of connection points: 4
#     Node 3, Type 0, BuildingBlock: ESEHIV_clean_sbu_0, # of connection points: 4
#     Node 4, Type 0, BuildingBlock: ESEHIV_clean_sbu_0, # of connection points: 4
#     Node 5, Type 0, BuildingBlock: ESEHIV_clean_sbu_0, # of connection points: 4
#     Node 6, Type 1, BuildingBlock: NAWXER_clean_sbu_0, # of connection points: 4
#     Node 7, Type 1, BuildingBlock: NAWXER_clean_sbu_0, # of connection points: 4
#     Node 8, Type 1, BuildingBlock: NAWXER_clean_sbu_0, # of connection points: 4
#     Node 9, Type 1, BuildingBlock: NAWXER_clean_sbu_0, # of connection points: 4
#     Node 10, Type 1, BuildingBlock: NAWXER_clean_sbu_0, # of connection points: 4
#     Node 11, Type 1, BuildingBlock: NAWXER_clean_sbu_0, # of connection points: 4
#     Edge 12, Type (0, 1), BuildingBlock: CIFDUS_clean_linker_0, # of connection points: 2
#     Edge 13, Type (0, 1), BuildingBlock: CIFDUS_clean_linker_0, # of connection points: 2
#     Edge 14, Type (0, 1), BuildingBlock: CIFDUS_clean_linker_0, # of connection points: 2
#     Edge 15, Type (0, 1), BuildingBlock: CIFDUS_clean_linker_0, # of connection points: 2
#     Edge 16, Type (0, 1), BuildingBlock: CIFDUS_clean_linker_0, # of connection points: 2
#     Edge 17, Type (0, 1), BuildingBlock: CIFDUS_clean_linker_0, # of connection points: 2
#     Edge 18, Type (0, 1), BuildingBlock: CIFDUS_clean_linker_0, # of connection points: 2
#     Edge 19, Type (0, 1), BuildingBlock: CIFDUS_clean_linker_0, # of connection points: 2
#     Edge 20, Type (0, 1), BuildingBlock: CIFDUS_clean_linker_0, # of connection points: 2
#     Edge 21, Type (0, 1), BuildingBlock: CIFDUS_clean_linker_0, # of connection points: 2
#     Edge 22, Type (0, 1), BuildingBlock: CIFDUS_clean_linker_0, # of connection points: 2
#     Edge 23, Type (0, 1), BuildingBlock: CIFDUS_clean_linker_0, # of connection points: 2
#     Edge 24, Type (0, 1), BuildingBlock: CIFDUS_clean_linker_0, # of connection points: 2
#     Edge 25, Type (0, 1), BuildingBlock: CIFDUS_clean_linker_0, # of connection points: 2
#     Edge 26, Type (0, 1), BuildingBlock: CIFDUS_clean_linker_0, # of connection points: 2
#     Edge 27, Type (0, 1), BuildingBlock: CIFDUS_clean_linker_0, # of connection points: 2
#     Edge 28, Type (0, 1), BuildingBlock: CIFDUS_clean_linker_0, # of connection points: 2
#     Edge 29, Type (0, 1), BuildingBlock: CIFDUS_clean_linker_0, # of connection points: 2
#     Edge 30, Type (0, 1), BuildingBlock: CIFDUS_clean_linker_0, # of connection points: 2
#     Edge 31, Type (0, 1), BuildingBlock: CIFDUS_clean_linker_0, # of connection points: 2
#     Edge 32, Type (0, 1), BuildingBlock: CIFDUS_clean_linker_0, # of connection points: 2
#     Edge 33, Type (0, 1), BuildingBlock: CIFDUS_clean_linker_0, # of connection points: 2
#     Edge 34, Type (0, 1), BuildingBlock: CIFDUS_clean_linker_0, # of connection points: 2
#     Edge 35, Type (0, 1), BuildingBlock: CIFDUS_clean_linker_0, # of connection points: 2
# Relax obj value: 0.018
# Max RMSD: 0.109
# Mean RMSD: 0.057
data_MOF--net-ssa--node1-ESEHIV_clean_sbu_0--node2-NAWXER_clean_sbu_0--edge1-CIFDUS_clean_linker_0
_symmetry_space_group_name_H-M    P1
_symmetry_Int_Tables_number       1
_symmetry_cell_setting            triclinic
loop_
_symmetry_equiv_pos_as_xyz
'x, y, z'
_cell_length_a     39.428594
_cell_length_b     43.017103
_cell_length_c     33.766954
_cell_angle_alpha  88.232034
_cell_angle_beta   90.973027
_cell_angle_gamma 123.17771
loop_
_atom_site_label
_atom_site_type_symbol
_atom_site_fract_x
_atom_site_fract_y
_atom_site_fract_z
_atom_type_partial_charge
Cu0 Cu 1.00529 0.48404 1.00192 0.0
N1 N 1.00818 0.46263 0.9556 0.0
N2 N 0.98258 0.42334 0.90514 0.0
C3 C 0.97639 0.44302 0.93112 0.0
C4 C 0.02005 0.43115 0.91337 0.0
C5 C 0.03575 0.45534 0.94453 0.0
O6 O 0.94831 0.46828 1.00375 0.0
C7 C 0.0642 0.48492 0.04861 0.0
O8 O 0.08625 0.50857 0.01997 0.0
H9 H 0.94797 0.44096 0.93434 0.0
H10 H 0.06414 0.46492 0.95949 0.0
N11 N 0.03762 0.53614 1.00019 0.0
N12 N 0.0744 0.59322 0.02476 0.0
C13 C 0.05349 0.55639 0.03288 0.0
C14 C 0.04845 0.56101 0.97001 0.0
C15 C 0.07117 0.59641 0.98517 0.0
C16 C 0.93739 0.49108 1.00673 0.0
O17 O 0.96331 0.52417 0.0206 0.0
H18 H 0.049 0.54413 0.06236 0.0
H19 H 0.04016 0.55394 0.93936 0.0
O20 O 0.02565 0.46847 0.04683 0.0
H21 H 0.0345 0.41919 0.89896 0.0
H22 H 0.08462 0.62235 0.96838 0.0
Cu23 Cu 0.47917 0.01039 0.50587 0.0
N24 N 0.5074 0.01267 0.46097 0.0
N25 N 0.52883 0.99131 0.41458 0.0
C26 C 0.50336 0.98244 0.44522 0.0
C27 C 0.54954 0.02875 0.41071 0.0
C28 C 0.53606 0.04187 0.43932 0.0
O29 O 0.42383 0.96841 0.49594 0.0
C30 C 0.5406 0.01176 0.55338 0.0
O31 O 0.55804 0.01445 0.51955 0.0
H32 H 0.48346 0.9546 0.45742 0.0
H33 H 0.54712 0.07058 0.44467 0.0
N34 N 0.48235 0.05491 0.5149 0.0
N35 N 0.49278 0.10305 0.54965 0.0
C36 C 0.49517 0.07295 0.54943 0.0
C37 C 0.4719 0.07473 0.49221 0.0
C38 C 0.47797 0.10425 0.51373 0.0
C39 C 0.40662 0.96985 0.46418 0.0
O40 O 0.42433 1.00107 0.44325 0.0
H41 H 0.50497 0.06355 0.57449 0.0
H42 H 0.46048 0.06829 0.46229 0.0
O43 O 0.50445 1.00421 0.55323 0.0
H44 H 0.57324 0.04553 0.38927 0.0
H45 H 0.47207 0.12501 0.50373 0.0
Cu46 Cu 0.53476 0.52658 0.02636 0.0
N47 N 0.54583 0.48948 0.02554 0.0
N48 N 0.55961 0.4512 0.99733 0.0
C49 C 0.5497 0.47638 0.99139 0.0
C50 C 0.56171 0.4479 0.03705 0.0
C51 C 0.55361 0.47194 0.05444 0.0
O52 O 0.55713 0.55273 0.97586 0.0
C53 C 0.456 0.479 0.05673 0.0
O54 O 0.47215 0.46204 0.07333 0.0
H55 H 0.54478 0.48488 0.96255 0.0
H56 H 0.55362 0.47643 0.08579 0.0
N57 N 0.55859 0.5584 0.06901 0.0
N58 N 0.56647 0.59793 0.11545 0.0
C59 C 0.54492 0.57837 0.08366 0.0
C60 C 0.5898 0.56527 0.09241 0.0
C61 C 0.59489 0.58984 0.12097 0.0
C62 C 0.59542 0.57508 0.97271 0.0
O63 O 0.61706 0.58761 1.00521 0.0
H64 H 0.51961 0.57854 0.07102 0.0
H65 H 0.60735 0.55308 0.08913 0.0
O66 O 0.47696 0.50566 0.03194 0.0
H67 H 0.56913 0.42987 0.05233 0.0
H68 H 0.61723 0.60026 0.14444 0.0
Cu69 Cu 1.00877 0.48982 0.52324 0.0
N70 N 0.03874 0.4681 0.51886 0.0
N71 N 0.07845 0.45427 0.48819 0.0
C72 C 0.05752 0.47055 0.48496 0.0
C73 C 0.07235 0.4404 0.52563 0.0
C74 C 0.04776 0.44912 0.54469 0.0
O75 O 0.03437 0.5317 0.48447 0.0
C76 C 0.93698 0.41728 0.51712 0.0
O77 O 0.9614 0.40693 0.50735 0.0
H78 H 0.05655 0.48477 0.45838 0.0
H79 H 0.03782 0.44269 0.57521 0.0
N80 N 1.01053 0.50769 0.57365 0.0
N81 N 0.98497 0.51986 0.62507 0.0
C82 C 0.9771 0.50276 0.59029 0.0
C83 C 0.04088 0.52862 0.59919 0.0
C84 C 0.02514 0.53648 0.63092 0.0
C85 C 0.07261 0.5535 0.48961 0.0
O86 O 0.08868 0.54803 0.52125 0.0
H87 H 0.94755 0.48789 0.57646 0.0
H88 H 0.07221 0.53789 0.59507 0.0
O89 O 0.95073 0.4519 0.5171 0.0
H90 H 0.08598 0.42643 0.53864 0.0
H91 H 0.04175 0.55287 0.65627 0.0
Cu92 Cu 0.52889 0.01332 0.03473 0.0
N93 N 0.51159 0.04516 0.0441 0.0
N94 N 0.48819 0.08 0.02389 0.0
C95 C 0.48935 0.04997 1.01694 0.0
C96 C 0.5102 0.09457 0.05714 0.0
C97 C 0.52426 0.07271 0.06988 0.0
O98 O 0.54974 0.0258 0.98024 0.0
C99 C 0.47531 0.95462 0.08342 0.0
O100 O 0.49875 0.97986 0.10922 0.0
H101 H 0.47813 0.0342 0.99011 0.0
H102 H 0.54483 0.07841 0.0942 0.0
N103 N 0.57075 0.01854 0.06716 0.0
N104 N 0.60051 0.99502 0.10293 0.0
C105 C 0.57558 0.99009 0.07239 0.0
C106 C 0.59481 0.04345 0.09437 0.0
C107 C 0.6132 0.02898 0.1165 0.0
C108 C 0.5742 0.06064 0.97317 0.0
O109 O 0.58424 0.08369 1.0023 0.0
H110 H 0.55862 0.96511 0.05545 0.0
H111 H 0.59698 0.06912 0.09957 0.0
O112 O 0.48199 0.96289 0.04642 0.0
H113 H 0.51797 0.12057 0.06961 0.0
H114 H 0.63194 0.04139 0.1424 0.0
Cu115 Cu 0.50767 0.51327 0.5418 0.0
N116 N 0.52106 0.56217 0.54684 0.0
N117 N 0.53661 0.61823 0.52527 0.0
C118 C 0.51908 0.58224 0.51656 0.0
C119 C 0.55083 0.62144 0.5625 0.0
C120 C 0.54107 0.58668 0.57583 0.0
O121 O 0.48257 0.49757 0.48947 0.0
C122 C 0.56693 0.51464 0.58789 0.0
O123 O 0.54519 0.51725 0.61495 0.0
H124 H 0.50732 0.57132 0.48757 0.0
H125 H 0.5496 0.58024 0.60398 0.0
N126 N 0.47028 0.47866 0.57897 0.0
N127 N 0.44832 0.42878 0.61919 0.0
C128 C 0.4655 0.44537 0.58403 0.0
C129 C 0.45417 0.48305 0.61147 0.0
C130 C 0.44042 0.45215 0.63632 0.0
C131 C 0.45025 0.49741 0.48511 0.0
O132 O 0.43634 0.50553 0.51551 0.0
H133 H 0.47826 0.43543 0.56375 0.0
H134 H 0.45623 0.50839 0.61852 0.0
O135 O 0.55711 0.51342 0.55141 0.0
H136 H 0.5676 0.64706 0.57853 0.0
H137 H 0.42947 0.44908 0.66628 0.0
C138 C 0.3205 0.49962 0.30333 0.0
C139 C 0.22072 0.49271 0.20861 0.0
O140 O 0.29281 0.46603 0.29498 0.0
Zn141 Zn 0.2392 0.43785 0.25789 0.0
O142 O 0.31978 0.5262 0.28674 0.0
Zn143 Zn 0.27151 0.49661 0.25515 0.0
O144 O 0.22608 0.4703 0.30019 0.0
O145 O 0.19699 0.40968 0.29791 0.0
O146 O 0.25243 0.52125 0.22216 0.0
O147 O 0.21228 0.46029 0.21937 0.0
O148 O 0.25339 0.41234 0.22151 0.0
O149 O 0.29042 0.47321 0.21274 0.0
C150 C 0.2001 0.43756 0.31386 0.0
C151 C 0.2814 0.441 0.20294 0.0
C152 C 0.78127 0.26094 0.66944 0.0
C153 C 0.69999 0.18965 0.78725 0.0
O154 O 0.7544 0.264 0.68578 0.0
Zn155 Zn 0.74087 0.2274 0.72931 0.0
O156 O 0.78973 0.23828 0.68463 0.0
Zn157 Zn 0.77246 0.1998 0.7337 0.0
O158 O 0.75264 0.15386 0.70619 0.0
O159 O 0.71321 0.17549 0.69918 0.0
O160 O 0.72562 0.18179 0.77722 0.0
O161 O 0.69926 0.21542 0.76846 0.0
O162 O 0.795 0.25548 0.76392 0.0
O163 O 0.8222 0.22239 0.76518 0.0
C164 C 0.72041 0.15038 0.6927 0.0
C165 C 0.82338 0.25121 0.77533 0.0
C166 C 0.53939 0.82799 0.32463 0.0
C167 C 0.56909 0.74903 0.24966 0.0
O168 O 0.57642 0.83772 0.32609 0.0
Zn169 Zn 0.61437 0.82056 0.30533 0.0
O170 O 0.51333 0.79834 0.30712 0.0
Zn171 Zn 0.55142 0.78602 0.28853 0.0
O172 O 0.56674 0.7686 0.34169 0.0
O173 O 0.63166 0.8075 0.3543 0.0
O174 O 0.5346 0.74454 0.25365 0.0
O175 O 0.59996 0.77595 0.26716 0.0
O176 O 0.65167 0.86495 0.27315 0.0
O177 O 0.58882 0.8332 0.25065 0.0
C178 C 0.59759 0.7785 0.36382 0.0
C179 C 0.62547 0.86125 0.24776 0.0
C180 C 0.79376 0.51044 0.85467 0.0
C181 C 0.71539 0.5021 0.73609 0.0
O182 O 0.76366 0.48122 0.8401 0.0
Zn183 Zn 0.75464 0.50561 0.79511 0.0
O184 O 0.80663 0.542 0.83746 0.0
Zn185 Zn 0.79273 0.5638 0.78591 0.0
O186 O 0.78057 0.59693 0.80968 0.0
O187 O 0.73456 0.53767 0.82265 0.0
O188 O 0.74474 0.53561 0.74256 0.0
O189 O 0.71044 0.47597 0.75911 0.0
O190 O 0.80768 0.52403 0.75973 0.0
O191 O 0.84202 0.58515 0.75521 0.0
C192 C 0.74731 0.57207 0.82585 0.0
C193 C 0.83871 0.55494 0.74719 0.0
C194 C 0.31256 0.79314 0.22592 0.0
C195 C 0.20483 0.70621 0.31953 0.0
O196 O 0.28195 0.79611 0.22567 0.0
Zn197 Zn 0.22545 0.77243 0.25633 0.0
O198 O 0.3133 0.77029 0.2502 0.0
Zn199 Zn 0.2604 0.75013 0.27469 0.0
O200 O 0.21941 0.72283 0.22665 0.0
O201 O 0.1875 0.7508 0.2118 0.0
O202 O 0.2389 0.71012 0.3143 0.0
O203 O 0.19668 0.72747 0.30007 0.0
O204 O 0.23373 0.81514 0.28507 0.0
O205 O 0.2709 0.79511 0.3091 0.0
C206 C 0.19363 0.72521 0.20539 0.0
C207 C 0.25939 0.81769 0.31039 0.0
C208 C 0.533 0.30744 0.8404 0.0
C209 C 0.50428 0.22469 0.7291 0.0
O210 O 0.55876 0.31206 0.81466 0.0
Zn211 Zn 0.52121 0.26742 0.7846 0.0
O212 O 0.49599 0.28026 0.83764 0.0
Zn213 Zn 0.45785 0.23419 0.80059 0.0
O214 O 0.43966 0.19304 0.83943 0.0
O215 O 0.50569 0.22573 0.82927 0.0
O216 O 0.47277 0.21628 0.74893 0.0
O217 O 0.53898 0.25142 0.7401 0.0
O218 O 0.48427 0.28403 0.75704 0.0
O219 O 0.42148 0.24838 0.77915 0.0
C220 C 0.4746 0.19978 0.84814 0.0
C221 C 0.4476 0.27544 0.75725 0.0
H222 H 0.13784 0.53642 0.07644 0.0
H223 H 0.03821 0.42332 0.09754 0.0
H224 H 0.07772 0.41554 0.14947 0.0
H225 H 0.14243 0.44056 0.18652 0.0
H226 H 0.24009 0.55484 0.16571 0.0
H227 H 0.19949 0.56243 0.11604 0.0
C228 C 0.12465 0.51002 0.09245 0.0
C229 C 0.08535 0.4803 0.08282 0.0
C230 C 0.14734 0.50596 0.12221 0.0
C231 C 0.0684 0.44658 0.10439 0.0
C232 C 0.0911 0.44212 0.13391 0.0
C233 C 0.15476 0.46712 0.17114 0.0
C234 C 0.19454 0.497 0.17969 0.0
C235 C 0.1309 0.47151 0.14269 0.0
C236 C 0.20975 0.53135 0.15981 0.0
C237 C 0.18654 0.53574 0.13129 0.0
H238 H 0.61849 0.03109 0.56422 0.0
H239 H 0.52137 0.03017 0.6227 0.0
H240 H 0.56868 0.07171 0.67256 0.0
H241 H 0.63897 0.11454 0.69452 0.0
H242 H 0.73591 0.11391 0.63833 0.0
H243 H 0.6873 0.06647 0.59276 0.0
C244 C 0.60744 0.03929 0.58835 0.0
C245 C 0.56652 0.02822 0.58898 0.0
C246 C 0.6349 0.06329 0.61705 0.0
C247 C 0.55272 0.03865 0.62094 0.0
C248 C 0.57984 0.06261 0.64946 0.0
C249 C 0.64932 0.10362 0.67258 0.0
C250 C 0.69094 0.11803 0.66922 0.0
C251 C 0.6212 0.07618 0.64691 0.0
C252 C 0.704 0.10326 0.6413 0.0
C253 C 0.67623 0.07627 0.6152 0.0
H254 H 0.62255 0.65699 0.15701 0.0
H255 H 0.49572 0.59331 0.1263 0.0
H256 H 0.485 0.63446 0.16464 0.0
H257 H 0.51173 0.68878 0.20743 0.0
H258 H 0.63886 0.75185 0.23785 0.0
H259 H 0.64908 0.71066 0.19958 0.0
C260 C 0.59249 0.65187 0.15897 0.0
C261 C 0.56009 0.62204 0.13865 0.0
C262 C 0.5865 0.67566 0.18112 0.0
C263 C 0.52141 0.61629 0.14112 0.0
C264 C 0.51517 0.63974 0.16327 0.0
C265 C 0.54166 0.69353 0.20566 0.0
C266 C 0.57439 0.72352 0.22563 0.0
C267 C 0.54752 0.66961 0.18338 0.0
C268 C 0.61298 0.72912 0.22289 0.0
C269 C 0.61896 0.70551 0.20097 0.0
H270 H 0.99287 0.57912 0.65965 0.0
H271 H 0.91087 0.46149 0.64395 0.0
H272 H 0.85822 0.46185 0.68078 0.0
H273 H 0.83492 0.4958 0.71579 0.0
H274 H 0.91516 0.61426 0.72892 0.0
H275 H 0.9689 0.61359 0.69456 0.0
C276 C 0.96361 0.55363 0.66488 0.0
C277 C 0.9557 0.52026 0.64952 0.0
C278 C 0.93308 0.5543 0.68516 0.0
C279 C 0.91747 0.48742 0.65563 0.0
C280 C 0.88742 0.48766 0.67657 0.0
C281 C 0.86415 0.52152 0.71117 0.0
C282 C 0.87093 0.55502 0.72496 0.0
C283 C 0.89473 0.52098 0.69112 0.0
C284 C 0.90899 0.58809 0.71846 0.0
C285 C 0.93983 0.58771 0.69896 0.0
H286 H 0.47777 0.91448 0.14476 0.0
H287 H 0.39659 0.91446 0.05772 0.0
H288 H 0.33842 0.86231 0.09332 0.0
H289 H 0.31068 0.8217 0.15347 0.0
H290 H 0.39255 0.82034 0.23881 0.0
H291 H 0.45056 0.8679 0.19952 0.0
C292 C 0.44734 0.90248 0.13318 0.0
C293 C 0.4413 0.91832 0.09885 0.0
C294 C 0.41427 0.87262 0.15379 0.0
C295 C 0.40192 0.90251 0.0839 0.0
C296 C 0.3687 0.87297 0.1045 0.0
C297 C 0.34125 0.83151 0.16318 0.0
C298 C 0.34734 0.81788 0.19933 0.0
C299 C 0.37447 0.85858 0.14014 0.0
C300 C 0.38705 0.83039 0.21121 0.0
C301 C 0.42022 0.85771 0.18882 0.0
H302 H 0.3991 0.38139 0.67792 0.0
H303 H 0.50082 0.40846 0.60427 0.0
H304 H 0.507 0.36183 0.63882 0.0
H305 H 0.48694 0.3159 0.69203 0.0
H306 H 0.38574 0.28671 0.76704 0.0
H307 H 0.37568 0.33106 0.72974 0.0
C308 C 0.42241 0.37687 0.66937 0.0
C309 C 0.44934 0.3987 0.63832 0.0
C310 C 0.426 0.34957 0.68964 0.0
C311 C 0.47917 0.39211 0.62745 0.0
C312 C 0.48303 0.36544 0.64746 0.0
C313 C 0.46245 0.31899 0.70017 0.0
C314 C 0.4374 0.29832 0.73251 0.0
C315 C 0.45703 0.3444 0.67883 0.0
C316 C 0.40544 0.30228 0.74222 0.0
C317 C 0.39987 0.32781 0.72103 0.0
H318 H 0.47391 0.91895 0.39932 0.0
H319 H 0.59969 0.0071 0.38428 0.0
H320 H 0.61334 0.96406 0.35466 0.0
H321 H 0.59061 0.90133 0.3357 0.0
H322 H 0.46492 0.81239 0.3486 0.0
H323 H 0.45011 0.85577 0.37667 0.0
C324 C 0.50427 0.92867 0.38953 0.0
C325 C 0.5358 0.96626 0.39421 0.0
C326 C 0.51195 0.90362 0.37248 0.0
C327 C 0.57483 0.97856 0.38073 0.0
C328 C 0.58273 0.95386 0.36406 0.0
C329 C 0.55992 0.89125 0.3448 0.0
C330 C 0.529 0.8535 0.3407 0.0
C331 C 0.55167 0.91631 0.36028 0.0
C332 C 0.48928 0.84123 0.35172 0.0
C333 C 0.48086 0.86603 0.36776 0.0
H334 H 0.67498 0.62297 0.9541 0.0
H335 H 0.56297 0.53082 0.90802 0.0
H336 H 0.60031 0.52269 0.85692 0.0
H337 H 0.66556 0.53651 0.83105 0.0
H338 H 0.77719 0.63082 0.87444 0.0
H339 H 0.73928 0.64335 0.92086 0.0
C340 C 0.65861 0.60163 0.93233 0.0
C341 C 0.61627 0.57699 0.9356 0.0
C342 C 0.68031 0.59707 0.90296 0.0
C343 C 0.59555 0.54995 0.90664 0.0
C344 C 0.61694 0.54509 0.87748 0.0
C345 C 0.68146 0.56007 0.85036 0.0
C346 C 0.72408 0.58238 0.84988 0.0
C347 C 0.65942 0.56753 0.87639 0.0
C348 C 0.7444 0.61322 0.87444 0.0
C349 C 0.72274 0.62032 0.90103 0.0
H350 H 0.05715 0.58941 0.42951 0.0
H351 H 0.15141 0.57837 0.48027 0.0
H352 H 0.19968 0.62297 0.43199 0.0
H353 H 0.21654 0.66658 0.37623 0.0
H354 H 0.12454 0.68109 0.32632 0.0
H355 H 0.07464 0.63428 0.37299 0.0
C356 C 0.0882 0.59676 0.42983 0.0
C357 C 0.10046 0.58054 0.45871 0.0
C358 C 0.11656 0.62335 0.40211 0.0
C359 C 0.14099 0.59055 0.45875 0.0
C360 C 0.16881 0.6161 0.43101 0.0
C361 C 0.18556 0.65945 0.37542 0.0
C362 C 0.17447 0.6774 0.34772 0.0
C363 C 0.15711 0.63291 0.40273 0.0
C364 C 0.13411 0.66786 0.3474 0.0
C365 C 0.10543 0.64099 0.37409 0.0
H366 H 0.5359 0.14907 0.99475 0.0
H367 H 0.41632 0.05023 0.98662 0.0
H368 H 0.39979 0.07877 0.9318 0.0
H369 H 0.42117 0.1316 0.88405 0.0
H370 H 0.54362 0.22794 0.89043 0.0
H371 H 0.55728 0.20083 0.94758 0.0
C372 C 0.506 0.13423 0.98142 0.0
C373 C 0.477 0.09809 0.99501 0.0
C374 C 0.49748 0.15023 0.94914 0.0
C375 C 0.43877 0.07838 0.97677 0.0
C376 C 0.42949 0.09461 0.94538 0.0
C377 C 0.45073 0.14656 0.89807 0.0
C378 C 0.48132 0.18163 0.8827 0.0
C379 C 0.45884 0.13044 0.9309 0.0
C380 C 0.51959 0.20067 0.90117 0.0
C381 C 0.52748 0.18533 0.93412 0.0
H382 H 0.43543 0.54628 0.45215 0.0
H383 H 0.42326 0.44245 0.43088 0.0
H384 H 0.38298 0.43441 0.37106 0.0
H385 H 0.34654 0.45494 0.32825 0.0
H386 H 0.36279 0.56088 0.34853 0.0
H387 H 0.40663 0.5704 0.40504 0.0
C388 C 0.42447 0.52219 0.43399 0.0
C389 C 0.43194 0.49484 0.44582 0.0
C390 C 0.4019 0.51811 0.39969 0.0
C391 C 0.41795 0.46387 0.42211 0.0
C392 C 0.39473 0.45922 0.38814 0.0
C393 C 0.36003 0.48026 0.34483 0.0
C394 C 0.35096 0.50697 0.33443 0.0
C395 C 0.38575 0.4858 0.37714 0.0
C396 C 0.36916 0.53987 0.35585 0.0
C397 C 0.39412 0.54527 0.38831 0.0
H398 H 0.97512 0.36006 0.8818 0.0
H399 H 0.92249 0.42517 0.86816 0.0
H400 H 0.86881 0.37763 0.82685 0.0
H401 H 0.83579 0.31715 0.796 0.0
H402 H 0.88753 0.2512 0.80887 0.0
H403 H 0.94269 0.29957 0.84885 0.0
C404 C 0.95225 0.36408 0.86933 0.0
C405 C 0.95286 0.39622 0.87826 0.0
C406 C 0.92115 0.33637 0.84566 0.0
C407 C 0.92255 0.40062 0.86222 0.0
C408 C 0.89186 0.37344 0.8385 0.0
C409 C 0.85907 0.3132 0.80749 0.0
C410 C 0.85727 0.28036 0.7995 0.0
C411 C 0.89061 0.34107 0.83037 0.0
C412 C 0.88798 0.27606 0.81457 0.0
C413 C 0.91959 0.30376 0.83744 0.0
H414 H 0.91418 0.53956 0.99457 0.0
H415 H 0.87953 0.42839 0.96786 0.0
H416 H 0.82852 0.42288 0.92112 0.0
H417 H 0.79922 0.45256 0.88205 0.0
H418 H 0.83827 0.56533 0.90655 0.0
H419 H 0.88173 0.56714 0.95982 0.0
C420 C 0.89502 0.51378 0.97917 0.0
C421 C 0.90104 0.48455 0.98471 0.0
C422 C 0.86669 0.51125 0.95139 0.0
C423 C 0.87575 0.45142 0.96427 0.0
C424 C 0.84667 0.44833 0.93728 0.0
C425 C 0.81672 0.47725 0.89955 0.0
C426 C 0.81564 0.50885 0.89012 0.0
C427 C 0.84269 0.47849 0.92969 0.0
C428 C 0.83877 0.54074 0.9129 0.0
C429 C 0.86367 0.54182 0.94343 0.0
H430 H 0.35524 0.96537 0.40662 0.0
H431 H 0.3827 0.89771 0.47949 0.0
H432 H 0.33672 0.84369 0.43979 0.0
H433 H 0.29483 0.81759 0.37999 0.0
H434 H 0.26675 0.8849 0.30734 0.0
H435 H 0.30659 0.93709 0.35152 0.0
C436 C 0.35058 0.93862 0.41429 0.0
C437 C 0.37266 0.9357 0.44587 0.0
C438 C 0.32434 0.90774 0.39108 0.0
C439 C 0.36603 0.90078 0.45555 0.0
C440 C 0.33998 0.86993 0.43259 0.0
C441 C 0.29701 0.84355 0.37405 0.0
C442 C 0.27824 0.84749 0.34005 0.0
C443 C 0.31994 0.87338 0.3996 0.0
C444 C 0.28089 0.88112 0.33318 0.0
C445 C 0.30385 0.91102 0.35837 0.0
H446 H 0.53751 0.3799 1.00047 0.0
H447 H 0.59391 0.47841 0.92554 0.0
H448 H 0.59587 0.44365 0.8706 0.0
H449 H 0.57497 0.38327 0.84186 0.0
H450 H 0.51454 0.28433 0.91636 0.0
H451 H 0.5214 0.3209 0.97342 0.0
C452 C 0.55091 0.3938 0.97234 0.0
C453 C 0.56514 0.43153 0.96691 0.0
C454 C 0.55111 0.37338 0.94067 0.0
C455 C 0.5821 0.4492 0.93014 0.0
C456 C 0.58335 0.42935 0.89878 0.0
C457 C 0.5643 0.37005 0.87084 0.0
C458 C 0.54447 0.3313 0.87509 0.0
C459 C 0.56701 0.39116 0.90335 0.0
C460 C 0.52996 0.31421 0.91255 0.0
C461 C 0.53371 0.33505 0.94514 0.0
H462 H 0.08322 0.39829 0.46094 0.0
H463 H 0.13419 0.51582 0.44885 0.0
H464 H 0.17678 0.52089 0.39423 0.0
H465 H 0.1975 0.49196 0.34846 0.0
H466 H 0.14602 0.37397 0.35704 0.0
H467 H 0.10546 0.36882 0.41424 0.0
C468 C 0.10413 0.42492 0.44652 0.0
C469 C 0.1058 0.45672 0.45877 0.0
C470 C 0.12798 0.42744 0.41432 0.0
C471 C 0.13248 0.4911 0.4397 0.0
C472 C 0.15672 0.49396 0.40849 0.0
C473 C 0.17752 0.465 0.36274 0.0
C474 C 0.17482 0.43338 0.34831 0.0
C475 C 0.15432 0.46228 0.39523 0.0
C476 C 0.14859 0.39876 0.36737 0.0
C477 C 0.12548 0.39583 0.40016 0.0
H478 H 0.5914 0.12587 0.94117 0.0
H479 H 0.59714 0.03111 0.91662 0.0
H480 H 0.6359 0.06256 0.85595 0.0
H481 H 0.67249 0.1191 0.81287 0.0
H482 H 0.6637 0.21249 0.83628 0.0
H483 H 0.62158 0.17943 0.89447 0.0
C484 C 0.6008 0.11194 0.92229 0.0
C485 C 0.59186 0.07638 0.93351 0.0
C486 C 0.62277 0.13011 0.88753 0.0
C487 C 0.6036 0.0584 0.90854 0.0
C488 C 0.626 0.07653 0.87405 0.0
C489 C 0.66121 0.13216 0.83065 0.0
C490 C 0.67176 0.1685 0.82061 0.0
C491 C 0.63651 0.11272 0.86374 0.0
C492 C 0.65621 0.1847 0.84343 0.0
C493 C 0.63222 0.16582 0.87676 0.0
H494 H 0.60373 0.68676 0.51174 0.0
H495 H 0.47892 0.61299 0.47765 0.0
H496 H 0.48643 0.65733 0.42601 0.0
H497 H 0.52909 0.71481 0.38814 0.0
H498 H 0.6552 0.78861 0.41881 0.0
H499 H 0.64667 0.74677 0.47434 0.0
C500 C 0.57816 0.6809 0.49337 0.0
C501 C 0.54077 0.64674 0.49837 0.0
C502 C 0.58306 0.70633 0.46299 0.0
C503 C 0.50794 0.63904 0.47407 0.0
C504 C 0.51226 0.66435 0.44459 0.0
C505 C 0.55482 0.72206 0.40701 0.0
C506 C 0.59281 0.75484 0.39909 0.0
C507 C 0.54982 0.69773 0.43833 0.0
C508 C 0.62563 0.76355 0.42409 0.0
C509 C 0.62075 0.7396 0.45585 0.0
H510 H 0.45105 0.13218 0.57248 0.0
H511 H 0.55521 0.1278 0.60105 0.0
H512 H 0.57012 0.16735 0.65805 0.0
H513 H 0.55209 0.20196 0.70122 0.0
H514 H 0.44405 0.20095 0.67533 0.0
H515 H 0.43228 0.16528 0.61599 0.0
C516 C 0.47722 0.14027 0.59098 0.0
C517 C 0.50217 0.12737 0.58239 0.0
C518 C 0.48486 0.16208 0.62434 0.0
C519 C 0.53555 0.13738 0.60712 0.0
C520 C 0.5441 0.16003 0.63966 0.0
C521 C 0.52621 0.19411 0.68234 0.0
C522 C 0.49908 0.20422 0.69254 0.0
C523 C 0.51881 0.1724 0.64878 0.0
C524 C 0.46529 0.1934 0.66817 0.0
C525 C 0.45854 0.17303 0.63419 0.0
H526 H 0.39917 0.41954 0.10111 0.0
H527 H 0.42854 0.52516 0.05146 0.0
H528 H 0.3744 0.52101 0.09015 0.0
H529 H 0.32416 0.49096 0.1437 0.0
H530 H 0.29393 0.38507 0.19307 0.0
H531 H 0.34266 0.38556 0.14862 0.0
C532 C 0.39323 0.44133 0.0982 0.0
C533 C 0.41819 0.47279 0.07367 0.0
C534 C 0.36217 0.4389 0.12081 0.0
C535 C 0.40984 0.50061 0.06999 0.0
C536 C 0.37904 0.4984 0.09238 0.0
C537 C 0.32786 0.46775 0.14438 0.0
C538 C 0.30587 0.43825 0.17205 0.0
C539 C 0.35588 0.46824 0.11877 0.0
C540 C 0.31052 0.40813 0.17214 0.0
C541 C 0.33854 0.4085 0.14685 0.0
H542 H 0.90333 0.34322 0.52823 0.0
H543 H 0.88524 0.43028 0.55647 0.0
H544 H 0.83238 0.3885 0.604 0.0
H545 H 0.79667 0.32897 0.64333 0.0
H546 H 0.81821 0.2439 0.61557 0.0
H547 H 0.86378 0.28291 0.56224 0.0
C548 C 0.88739 0.35301 0.54416 0.0
C549 C 0.89888 0.39016 0.53899 0.0
C550 C 0.8577 0.32912 0.57209 0.0
C551 C 0.87745 0.402 0.5599 0.0
C552 C 0.84724 0.37809 0.58733 0.0
C553 C 0.81081 0.3188 0.62512 0.0
C554 C 0.80425 0.28361 0.63382 0.0
C555 C 0.83794 0.34187 0.59461 0.0
C556 C 0.823 0.27096 0.60996 0.0
C557 C 0.84912 0.29327 0.57933 0.0
H558 H 0.659 1.00486 0.15511 0.0
H559 H 0.55143 0.92022 0.09433 0.0
H560 H 0.55469 0.8723 0.12928 0.0
H561 H 0.58272 0.85334 0.18176 0.0
H562 H 0.68696 0.93558 0.24741 0.0
H563 H 0.69065 0.98511 0.20563 0.0
C564 C 0.63638 0.97598 0.14936 0.0
C565 C 0.60506 0.96674 0.12177 0.0
C566 C 0.63771 0.94784 0.17056 0.0
C567 C 0.57638 0.92889 0.11459 0.0
C568 C 0.57792 0.90108 0.13493 0.0
C569 C 0.60672 0.88208 0.18664 0.0
C570 C 0.63429 0.89074 0.21788 0.0
C571 C 0.60781 0.91019 0.16352 0.0
C572 C 0.66543 0.9281 0.22345 0.0
C573 C 0.66724 0.95644 0.19982 0.0
H574 H 0.56111 0.46171 0.63649 0.0
H575 H 0.64782 0.56232 0.57289 0.0
H576 H 0.70319 0.56609 0.61176 0.0
H577 H 0.7251 0.54486 0.67015 0.0
H578 H 0.63738 0.44278 0.7318 0.0
H579 H 0.58424 0.43502 0.68696 0.0
C580 C 0.59231 0.48363 0.63014 0.0
C581 C 0.6006 0.51145 0.60168 0.0
C582 C 0.62364 0.48563 0.65275 0.0
C583 C 0.64094 0.54025 0.59417 0.0
C584 C 0.67245 0.54261 0.61677 0.0
C585 C 0.69448 0.52062 0.67332 0.0
C586 C 0.68516 0.49472 0.70471 0.0
C587 C 0.66395 0.51615 0.64714 0.0
C588 C 0.64544 0.4632 0.70808 0.0
C589 C 0.61494 0.45879 0.68252 0.0
H590 H 0.11095 0.59002 0.09084 0.0
H591 H 0.0866 0.66193 0.02247 0.0
H592 H 0.12046 0.7096 0.07295 0.0
H593 H 0.15655 0.7303 0.13769 0.0
H594 H 0.18052 0.65678 0.20391 0.0
H595 H 0.1466 0.61016 0.15362 0.0
C596 C 0.11267 0.61597 0.0871 0.0
C597 C 0.09589 0.62223 0.05316 0.0
C598 C 0.13197 0.64295 0.1161 0.0
C599 C 0.09942 0.65648 0.04827 0.0
C600 C 0.11854 0.68361 0.07727 0.0
C601 C 0.15404 0.70397 0.14112 0.0
C602 C 0.17108 0.69713 0.17461 0.0
C603 C 0.13478 0.67709 0.11152 0.0
C604 C 0.16794 0.66298 0.17841 0.0
C605 C 0.1485 0.63618 0.14965 0.0
loop_
_geom_bond_atom_site_label_1
_geom_bond_atom_site_label_2
_geom_bond_distance
_geom_bond_site_symmetry_2
_ccdc_geom_bond_type
Cu0 N1 1.999 1_554 S
Cu0 O6 1.974 1_554 S
Cu0 N11 1.985 1_655 S
Cu0 O20 1.959 1_655 S
N1 Cu0 1.999 1_556 S
N1 C3 1.263 . S
N1 C5 1.389 1_556 S
N2 C3 1.358 . S
N2 C4 1.400 . S
C3 N1 1.263 . S
C3 N2 1.358 . S
C3 H9 0.930 . S
C4 N2 1.400 . S
C4 C5 1.351 1_556 S
C4 H21 0.930 . S
C5 N1 1.389 1_554 S
C5 C4 1.351 1_554 S
C5 H10 0.930 . S
O6 Cu0 1.974 1_556 S
O6 C16 1.282 . S
C7 O8 1.261 . S
C7 O20 1.251 . S
O8 C7 1.261 . S
H9 C3 0.930 . S
H10 C5 0.930 . S
N11 Cu0 1.985 1_455 S
N11 C13 1.335 . S
N11 C14 1.390 . S
N12 C13 1.345 . S
N12 C15 1.336 . S
C13 N11 1.335 . S
C13 N12 1.345 . S
C13 H18 0.930 . S
C14 N11 1.390 . S
C14 C15 1.346 . S
C14 H19 0.930 1_554 S
C15 N12 1.336 . S
C15 C14 1.346 . S
C15 H22 0.929 . S
C16 O6 1.282 . S
C16 O17 1.216 1_655 S
O17 C16 1.216 1_455 S
H18 C13 0.930 . S
H19 C14 0.930 1_556 S
O20 Cu0 1.959 1_455 S
O20 C7 1.251 . S
H21 C4 0.930 . S
H22 C15 0.929 . S
Cu23 N24 1.999 . S
Cu23 O29 1.974 . S
Cu23 N34 1.985 1_565 S
Cu23 O43 1.959 1_565 S
N24 Cu23 1.999 . S
N24 C26 1.263 . S
N24 C28 1.389 . S
N25 C26 1.358 . S
N25 C27 1.400 . S
C26 N24 1.263 . S
C26 N25 1.358 . S
C26 H32 0.930 . S
C27 N25 1.400 . S
C27 C28 1.351 . S
C27 H44 0.930 . S
C28 N24 1.389 . S
C28 C27 1.351 . S
C28 H33 0.930 . S
O29 Cu23 1.974 . S
O29 C39 1.282 . S
C30 O31 1.261 . S
C30 O43 1.251 . S
O31 C30 1.261 . S
H32 C26 0.930 . S
H33 C28 0.930 . S
N34 Cu23 1.985 1_545 S
N34 C36 1.335 . S
N34 C37 1.390 . S
N35 C36 1.345 . S
N35 C38 1.336 . S
C36 N34 1.335 . S
C36 N35 1.345 . S
C36 H41 0.930 . S
C37 N34 1.390 . S
C37 C38 1.346 . S
C37 H42 0.930 . S
C38 N35 1.336 . S
C38 C37 1.346 . S
C38 H45 0.929 . S
C39 O29 1.282 . S
C39 O40 1.216 1_565 S
O40 C39 1.216 1_545 S
H41 C36 0.930 . S
H42 C37 0.930 . S
O43 Cu23 1.959 1_545 S
O43 C30 1.251 . S
H44 C27 0.930 . S
H45 C38 0.929 . S
Cu46 N47 1.999 1_554 S
Cu46 O52 1.973 1_554 S
Cu46 N57 1.986 . S
Cu46 O66 1.960 . S
N47 Cu46 1.999 1_556 S
N47 C49 1.263 . S
N47 C51 1.389 . S
N48 C49 1.358 . S
N48 C50 1.400 . S
C49 N47 1.263 . S
C49 N48 1.358 . S
C49 H55 0.930 . S
C50 N48 1.400 . S
C50 C51 1.351 . S
C50 H67 0.930 . S
C51 N47 1.389 . S
C51 C50 1.351 . S
C51 H56 0.930 . S
O52 Cu46 1.973 1_556 S
O52 C62 1.282 . S
C53 O54 1.261 . S
C53 O66 1.251 . S
O54 C53 1.261 . S
H55 C49 0.930 . S
H56 C51 0.930 . S
N57 Cu46 1.986 . S
N57 C59 1.335 . S
N57 C60 1.390 . S
N58 C59 1.345 . S
N58 C61 1.336 . S
C59 N57 1.335 . S
C59 N58 1.345 . S
C59 H64 0.930 . S
C60 N57 1.390 . S
C60 C61 1.346 . S
C60 H65 0.930 . S
C61 N58 1.336 . S
C61 C60 1.346 . S
C61 H68 0.929 . S
C62 O52 1.282 . S
C62 O63 1.216 1_556 S
O63 C62 1.216 1_554 S
H64 C59 0.930 . S
H65 C60 0.930 . S
O66 Cu46 1.960 . S
O66 C53 1.251 . S
H67 C50 0.930 . S
H68 C61 0.929 . S
Cu69 N70 1.999 1_655 S
Cu69 O75 1.974 1_655 S
Cu69 N80 1.985 . S
Cu69 O89 1.959 . S
N70 Cu69 1.999 1_455 S
N70 C72 1.263 . S
N70 C74 1.389 1_455 S
N71 C72 1.358 . S
N71 C73 1.400 . S
C72 N70 1.263 . S
C72 N71 1.358 . S
C72 H78 0.930 . S
C73 N71 1.400 . S
C73 C74 1.351 1_455 S
C73 H90 0.930 1_455 S
C74 N70 1.389 1_655 S
C74 C73 1.351 1_655 S
C74 H79 0.930 . S
O75 Cu69 1.974 1_455 S
O75 C85 1.282 . S
C76 O77 1.261 1_655 S
C76 O89 1.251 . S
O77 C76 1.261 1_455 S
H78 C72 0.930 . S
H79 C74 0.930 . S
N80 Cu69 1.985 . S
N80 C82 1.335 . S
N80 C83 1.390 . S
N81 C82 1.345 . S
N81 C84 1.336 . S
C82 N80 1.335 . S
C82 N81 1.345 . S
C82 H87 0.930 . S
C83 N80 1.390 . S
C83 C84 1.346 . S
C83 H88 0.930 1_655 S
C84 N81 1.336 . S
C84 C83 1.346 . S
C84 H91 0.929 . S
C85 O75 1.282 . S
C85 O86 1.216 . S
O86 C85 1.216 . S
H87 C82 0.930 . S
H88 C83 0.930 1_455 S
O89 Cu69 1.959 . S
O89 C76 1.251 . S
H90 C73 0.930 1_655 S
H91 C84 0.929 . S
Cu92 N93 1.999 1_554 S
Cu92 O98 1.974 1_554 S
Cu92 N103 1.985 1_545 S
Cu92 O112 1.959 1_545 S
N93 Cu92 1.999 1_556 S
N93 C95 1.263 . S
N93 C97 1.389 1_556 S
N94 C95 1.358 . S
N94 C96 1.400 . S
C95 N93 1.263 . S
C95 N94 1.358 . S
C95 H101 0.930 . S
C96 N94 1.400 . S
C96 C97 1.351 1_556 S
C96 H113 0.930 . S
C97 N93 1.389 1_554 S
C97 C96 1.351 1_554 S
C97 H102 0.930 . S
O98 Cu92 1.974 1_556 S
O98 C108 1.282 . S
C99 O100 1.261 . S
C99 O112 1.251 . S
O100 C99 1.261 . S
H101 C95 0.930 . S
H102 C97 0.930 . S
N103 Cu92 1.985 1_565 S
N103 C105 1.335 . S
N103 C106 1.390 . S
N104 C105 1.345 . S
N104 C107 1.336 . S
C105 N103 1.335 . S
C105 N104 1.345 . S
C105 H110 0.930 . S
C106 N103 1.390 . S
C106 C107 1.346 . S
C106 H111 0.930 . S
C107 N104 1.336 . S
C107 C106 1.346 . S
C107 H114 0.929 . S
C108 O98 1.282 . S
C108 O109 1.216 . S
O109 C108 1.216 . S
H110 C105 0.930 . S
H111 C106 0.930 . S
O112 Cu92 1.959 1_565 S
O112 C99 1.251 . S
H113 C96 0.930 . S
H114 C107 0.929 . S
Cu115 N116 1.999 . S
Cu115 O121 1.974 . S
Cu115 N126 1.985 . S
Cu115 O135 1.959 . S
N116 Cu115 1.999 . S
N116 C118 1.263 . S
N116 C120 1.389 . S
N117 C118 1.358 . S
N117 C119 1.400 . S
C118 N116 1.263 . S
C118 N117 1.358 . S
C118 H124 0.930 . S
C119 N117 1.400 . S
C119 C120 1.351 . S
C119 H136 0.930 . S
C120 N116 1.389 . S
C120 C119 1.351 . S
C120 H125 0.930 . S
O121 Cu115 1.974 . S
O121 C131 1.282 . S
C122 O123 1.261 . S
C122 O135 1.251 . S
O123 C122 1.261 . S
H124 C118 0.930 . S
H125 C120 0.930 . S
N126 Cu115 1.985 . S
N126 C128 1.335 . S
N126 C129 1.390 . S
N127 C128 1.345 . S
N127 C130 1.336 . S
C128 N126 1.335 . S
C128 N127 1.345 . S
C128 H133 0.930 . S
C129 N126 1.390 . S
C129 C130 1.346 . S
C129 H134 0.930 . S
C130 N127 1.336 . S
C130 C129 1.346 . S
C130 H137 0.929 . S
C131 O121 1.282 . S
C131 O132 1.216 . S
O132 C131 1.216 . S
H133 C128 0.930 . S
H134 C129 0.930 . S
O135 Cu115 1.959 . S
O135 C122 1.251 . S
H136 C119 0.930 . S
H137 C130 0.929 . S
C138 O140 1.247 . S
C138 O142 1.258 . S
C139 O146 1.247 . S
C139 O147 1.258 . S
O140 C138 1.247 . S
O140 Zn141 2.028 . S
Zn141 O140 2.028 . S
Zn141 O145 2.035 . S
Zn141 O147 2.035 . S
Zn141 O148 2.028 . S
O142 C138 1.258 . S
O142 Zn143 2.035 . S
Zn143 O142 2.035 . S
Zn143 O144 2.028 . S
Zn143 O146 2.028 . S
Zn143 O149 2.035 . S
O144 Zn143 2.028 . S
O144 C150 1.247 . S
O145 Zn141 2.035 . S
O145 C150 1.258 . S
O146 C139 1.247 . S
O146 Zn143 2.028 . S
O147 C139 1.258 . S
O147 Zn141 2.035 . S
O148 Zn141 2.028 . S
O148 C151 1.247 . S
O149 Zn143 2.035 . S
O149 C151 1.258 . S
C150 O144 1.247 . S
C150 O145 1.258 . S
C151 O148 1.247 . S
C151 O149 1.258 . S
C152 O154 1.247 . S
C152 O156 1.258 . S
C153 O160 1.247 . S
C153 O161 1.258 . S
O154 C152 1.247 . S
O154 Zn155 2.028 . S
Zn155 O154 2.028 . S
Zn155 O159 2.035 . S
Zn155 O161 2.035 . S
Zn155 O162 2.028 . S
O156 C152 1.258 . S
O156 Zn157 2.035 . S
Zn157 O156 2.035 . S
Zn157 O158 2.028 . S
Zn157 O160 2.028 . S
Zn157 O163 2.035 . S
O158 Zn157 2.028 . S
O158 C164 1.247 . S
O159 Zn155 2.035 . S
O159 C164 1.258 . S
O160 C153 1.247 . S
O160 Zn157 2.028 . S
O161 C153 1.258 . S
O161 Zn155 2.035 . S
O162 Zn155 2.028 . S
O162 C165 1.247 . S
O163 Zn157 2.035 . S
O163 C165 1.258 . S
C164 O158 1.247 . S
C164 O159 1.258 . S
C165 O162 1.247 . S
C165 O163 1.258 . S
C166 O168 1.247 . S
C166 O170 1.258 . S
C167 O174 1.247 . S
C167 O175 1.258 . S
O168 C166 1.247 . S
O168 Zn169 2.028 . S
Zn169 O168 2.028 . S
Zn169 O173 2.035 . S
Zn169 O175 2.035 . S
Zn169 O176 2.028 . S
O170 C166 1.258 . S
O170 Zn171 2.035 . S
Zn171 O170 2.035 . S
Zn171 O172 2.028 . S
Zn171 O174 2.028 . S
Zn171 O177 2.035 . S
O172 Zn171 2.028 . S
O172 C178 1.247 . S
O173 Zn169 2.035 . S
O173 C178 1.258 . S
O174 C167 1.247 . S
O174 Zn171 2.028 . S
O175 C167 1.258 . S
O175 Zn169 2.035 . S
O176 Zn169 2.028 . S
O176 C179 1.247 . S
O177 Zn171 2.035 . S
O177 C179 1.258 . S
C178 O172 1.247 . S
C178 O173 1.258 . S
C179 O176 1.247 . S
C179 O177 1.258 . S
C180 O182 1.247 . S
C180 O184 1.258 . S
C181 O188 1.247 . S
C181 O189 1.258 . S
O182 C180 1.247 . S
O182 Zn183 2.028 . S
Zn183 O182 2.028 . S
Zn183 O187 2.035 . S
Zn183 O189 2.035 . S
Zn183 O190 2.028 . S
O184 C180 1.258 . S
O184 Zn185 2.035 . S
Zn185 O184 2.035 . S
Zn185 O186 2.028 . S
Zn185 O188 2.028 . S
Zn185 O191 2.035 . S
O186 Zn185 2.028 . S
O186 C192 1.247 . S
O187 Zn183 2.035 . S
O187 C192 1.258 . S
O188 C181 1.247 . S
O188 Zn185 2.028 . S
O189 C181 1.258 . S
O189 Zn183 2.035 . S
O190 Zn183 2.028 . S
O190 C193 1.247 . S
O191 Zn185 2.035 . S
O191 C193 1.258 . S
C192 O186 1.247 . S
C192 O187 1.258 . S
C193 O190 1.247 . S
C193 O191 1.258 . S
C194 O196 1.247 . S
C194 O198 1.258 . S
C195 O202 1.247 . S
C195 O203 1.258 . S
O196 C194 1.247 . S
O196 Zn197 2.028 . S
Zn197 O196 2.028 . S
Zn197 O201 2.035 . S
Zn197 O203 2.035 . S
Zn197 O204 2.028 . S
O198 C194 1.258 . S
O198 Zn199 2.035 . S
Zn199 O198 2.035 . S
Zn199 O200 2.028 . S
Zn199 O202 2.028 . S
Zn199 O205 2.035 . S
O200 Zn199 2.028 . S
O200 C206 1.247 . S
O201 Zn197 2.035 . S
O201 C206 1.258 . S
O202 C195 1.247 . S
O202 Zn199 2.028 . S
O203 C195 1.258 . S
O203 Zn197 2.035 . S
O204 Zn197 2.028 . S
O204 C207 1.247 . S
O205 Zn199 2.035 . S
O205 C207 1.258 . S
C206 O200 1.247 . S
C206 O201 1.258 . S
C207 O204 1.247 . S
C207 O205 1.258 . S
C208 O210 1.247 . S
C208 O212 1.258 . S
C209 O216 1.247 . S
C209 O217 1.258 . S
O210 C208 1.247 . S
O210 Zn211 2.028 . S
Zn211 O210 2.028 . S
Zn211 O215 2.035 . S
Zn211 O217 2.035 . S
Zn211 O218 2.028 . S
O212 C208 1.258 . S
O212 Zn213 2.035 . S
Zn213 O212 2.035 . S
Zn213 O214 2.028 . S
Zn213 O216 2.028 . S
Zn213 O219 2.035 . S
O214 Zn213 2.028 . S
O214 C220 1.247 . S
O215 Zn211 2.035 . S
O215 C220 1.258 . S
O216 C209 1.247 . S
O216 Zn213 2.028 . S
O217 C209 1.258 . S
O217 Zn211 2.035 . S
O218 Zn211 2.028 . S
O218 C221 1.247 . S
O219 Zn213 2.035 . S
O219 C221 1.258 . S
C220 O214 1.247 . S
C220 O215 1.258 . S
C221 O218 1.247 . S
C221 O219 1.258 . S
H222 C228 0.930 . S
H223 C231 0.930 . S
H224 C232 0.930 . S
H225 C233 0.930 . S
H226 C236 0.930 . S
H227 C237 0.930 . S
C228 H222 0.930 . S
C228 C229 1.355 . S
C228 C230 1.415 . S
C229 C228 1.355 . S
C229 C231 1.419 . S
C230 C228 1.415 . S
C230 C235 1.425 . S
C230 C237 1.409 . S
C231 H223 0.930 . S
C231 C229 1.419 . S
C231 C232 1.362 . S
C232 H224 0.930 . S
C232 C231 1.362 . S
C232 C235 1.409 . S
C233 H225 0.930 . S
C233 C234 1.355 . S
C233 C235 1.415 . S
C234 C233 1.355 . S
C234 C236 1.419 . S
C235 C230 1.425 . S
C235 C232 1.409 . S
C235 C233 1.415 . S
C236 H226 0.930 . S
C236 C234 1.419 . S
C236 C237 1.362 . S
C237 H227 0.930 . S
C237 C230 1.409 . S
C237 C236 1.362 . S
H238 C244 0.930 . S
H239 C247 0.930 . S
H240 C248 0.930 . S
H241 C249 0.930 . S
H242 C252 0.930 . S
H243 C253 0.930 . S
C244 H238 0.930 . S
C244 C245 1.355 . S
C244 C246 1.415 . S
C245 C244 1.355 . S
C245 C247 1.419 . S
C246 C244 1.415 . S
C246 C251 1.425 . S
C246 C253 1.409 . S
C247 H239 0.930 . S
C247 C245 1.419 . S
C247 C248 1.362 . S
C248 H240 0.930 . S
C248 C247 1.362 . S
C248 C251 1.409 . S
C249 H241 0.930 . S
C249 C250 1.355 . S
C249 C251 1.415 . S
C250 C249 1.355 . S
C250 C252 1.419 . S
C251 C246 1.425 . S
C251 C248 1.409 . S
C251 C249 1.415 . S
C252 H242 0.930 . S
C252 C250 1.419 . S
C252 C253 1.362 . S
C253 H243 0.930 . S
C253 C246 1.409 . S
C253 C252 1.362 . S
H254 C260 0.930 . S
H255 C263 0.930 . S
H256 C264 0.930 . S
H257 C265 0.930 . S
H258 C268 0.930 . S
H259 C269 0.930 . S
C260 H254 0.930 . S
C260 C261 1.355 . S
C260 C262 1.415 . S
C261 C260 1.355 . S
C261 C263 1.419 . S
C262 C260 1.415 . S
C262 C267 1.425 . S
C262 C269 1.409 . S
C263 H255 0.930 . S
C263 C261 1.419 . S
C263 C264 1.362 . S
C264 H256 0.930 . S
C264 C263 1.362 . S
C264 C267 1.409 . S
C265 H257 0.930 . S
C265 C266 1.355 . S
C265 C267 1.415 . S
C266 C265 1.355 . S
C266 C268 1.419 . S
C267 C262 1.425 . S
C267 C264 1.409 . S
C267 C265 1.415 . S
C268 H258 0.930 . S
C268 C266 1.419 . S
C268 C269 1.362 . S
C269 H259 0.930 . S
C269 C262 1.409 . S
C269 C268 1.362 . S
H270 C276 0.930 . S
H271 C279 0.930 . S
H272 C280 0.930 . S
H273 C281 0.930 . S
H274 C284 0.930 . S
H275 C285 0.930 . S
C276 H270 0.930 . S
C276 C277 1.355 . S
C276 C278 1.415 . S
C277 C276 1.355 . S
C277 C279 1.419 . S
C278 C276 1.415 . S
C278 C283 1.425 . S
C278 C285 1.409 . S
C279 H271 0.930 . S
C279 C277 1.419 . S
C279 C280 1.362 . S
C280 H272 0.930 . S
C280 C279 1.362 . S
C280 C283 1.409 . S
C281 H273 0.930 . S
C281 C282 1.355 . S
C281 C283 1.415 . S
C282 C281 1.355 . S
C282 C284 1.419 . S
C283 C278 1.425 . S
C283 C280 1.409 . S
C283 C281 1.415 . S
C284 H274 0.930 . S
C284 C282 1.419 . S
C284 C285 1.362 . S
C285 H275 0.930 . S
C285 C278 1.409 . S
C285 C284 1.362 . S
H286 C292 0.930 . S
H287 C295 0.930 . S
H288 C296 0.930 . S
H289 C297 0.930 . S
H290 C300 0.930 . S
H291 C301 0.930 . S
C292 H286 0.930 . S
C292 C293 1.355 . S
C292 C294 1.415 . S
C293 C292 1.355 . S
C293 C295 1.419 . S
C294 C292 1.415 . S
C294 C299 1.425 . S
C294 C301 1.409 . S
C295 H287 0.930 . S
C295 C293 1.419 . S
C295 C296 1.362 . S
C296 H288 0.930 . S
C296 C295 1.362 . S
C296 C299 1.409 . S
C297 H289 0.930 . S
C297 C298 1.355 . S
C297 C299 1.415 . S
C298 C297 1.355 . S
C298 C300 1.419 . S
C299 C294 1.425 . S
C299 C296 1.409 . S
C299 C297 1.415 . S
C300 H290 0.930 . S
C300 C298 1.419 . S
C300 C301 1.362 . S
C301 H291 0.930 . S
C301 C294 1.409 . S
C301 C300 1.362 . S
H302 C308 0.930 . S
H303 C311 0.930 . S
H304 C312 0.930 . S
H305 C313 0.930 . S
H306 C316 0.930 . S
H307 C317 0.930 . S
C308 H302 0.930 . S
C308 C309 1.355 . S
C308 C310 1.415 . S
C309 C308 1.355 . S
C309 C311 1.419 . S
C310 C308 1.415 . S
C310 C315 1.425 . S
C310 C317 1.409 . S
C311 H303 0.930 . S
C311 C309 1.419 . S
C311 C312 1.362 . S
C312 H304 0.930 . S
C312 C311 1.362 . S
C312 C315 1.409 . S
C313 H305 0.930 . S
C313 C314 1.355 . S
C313 C315 1.415 . S
C314 C313 1.355 . S
C314 C316 1.419 . S
C315 C310 1.425 . S
C315 C312 1.409 . S
C315 C313 1.415 . S
C316 H306 0.930 . S
C316 C314 1.419 . S
C316 C317 1.362 . S
C317 H307 0.930 . S
C317 C310 1.409 . S
C317 C316 1.362 . S
H318 C324 0.930 . S
H319 C327 0.930 . S
H320 C328 0.930 . S
H321 C329 0.930 . S
H322 C332 0.930 . S
H323 C333 0.930 . S
C324 H318 0.930 . S
C324 C325 1.355 . S
C324 C326 1.415 . S
C325 C324 1.355 . S
C325 C327 1.419 . S
C326 C324 1.415 . S
C326 C331 1.425 . S
C326 C333 1.409 . S
C327 H319 0.930 . S
C327 C325 1.419 . S
C327 C328 1.362 . S
C328 H320 0.930 . S
C328 C327 1.362 . S
C328 C331 1.409 . S
C329 H321 0.930 . S
C329 C330 1.355 . S
C329 C331 1.415 . S
C330 C329 1.355 . S
C330 C332 1.419 . S
C331 C326 1.425 . S
C331 C328 1.409 . S
C331 C329 1.415 . S
C332 H322 0.930 . S
C332 C330 1.419 . S
C332 C333 1.362 . S
C333 H323 0.930 . S
C333 C326 1.409 . S
C333 C332 1.362 . S
H334 C340 0.930 . S
H335 C343 0.930 . S
H336 C344 0.930 . S
H337 C345 0.930 . S
H338 C348 0.930 . S
H339 C349 0.930 . S
C340 H334 0.930 . S
C340 C341 1.355 . S
C340 C342 1.415 . S
C341 C340 1.355 . S
C341 C343 1.419 . S
C342 C340 1.415 . S
C342 C347 1.425 . S
C342 C349 1.409 . S
C343 H335 0.930 . S
C343 C341 1.419 . S
C343 C344 1.362 . S
C344 H336 0.930 . S
C344 C343 1.362 . S
C344 C347 1.409 . S
C345 H337 0.930 . S
C345 C346 1.355 . S
C345 C347 1.415 . S
C346 C345 1.355 . S
C346 C348 1.419 . S
C347 C342 1.425 . S
C347 C344 1.409 . S
C347 C345 1.415 . S
C348 H338 0.930 . S
C348 C346 1.419 . S
C348 C349 1.362 . S
C349 H339 0.930 . S
C349 C342 1.409 . S
C349 C348 1.362 . S
H350 C356 0.930 . S
H351 C359 0.930 . S
H352 C360 0.930 . S
H353 C361 0.930 . S
H354 C364 0.930 . S
H355 C365 0.930 . S
C356 H350 0.930 . S
C356 C357 1.355 . S
C356 C358 1.415 . S
C357 C356 1.355 . S
C357 C359 1.419 . S
C358 C356 1.415 . S
C358 C363 1.425 . S
C358 C365 1.409 . S
C359 H351 0.930 . S
C359 C357 1.419 . S
C359 C360 1.362 . S
C360 H352 0.930 . S
C360 C359 1.362 . S
C360 C363 1.409 . S
C361 H353 0.930 . S
C361 C362 1.355 . S
C361 C363 1.415 . S
C362 C361 1.355 . S
C362 C364 1.419 . S
C363 C358 1.425 . S
C363 C360 1.409 . S
C363 C361 1.415 . S
C364 H354 0.930 . S
C364 C362 1.419 . S
C364 C365 1.362 . S
C365 H355 0.930 . S
C365 C358 1.409 . S
C365 C364 1.362 . S
H366 C372 0.930 . S
H367 C375 0.930 . S
H368 C376 0.930 . S
H369 C377 0.930 . S
H370 C380 0.930 . S
H371 C381 0.930 . S
C372 H366 0.930 . S
C372 C373 1.355 . S
C372 C374 1.415 . S
C373 C372 1.355 . S
C373 C375 1.419 . S
C374 C372 1.415 . S
C374 C379 1.425 . S
C374 C381 1.409 . S
C375 H367 0.930 . S
C375 C373 1.419 . S
C375 C376 1.362 . S
C376 H368 0.930 . S
C376 C375 1.362 . S
C376 C379 1.409 . S
C377 H369 0.930 . S
C377 C378 1.355 . S
C377 C379 1.415 . S
C378 C377 1.355 . S
C378 C380 1.419 . S
C379 C374 1.425 . S
C379 C376 1.409 . S
C379 C377 1.415 . S
C380 H370 0.930 . S
C380 C378 1.419 . S
C380 C381 1.362 . S
C381 H371 0.930 . S
C381 C374 1.409 . S
C381 C380 1.362 . S
H382 C388 0.930 . S
H383 C391 0.930 . S
H384 C392 0.930 . S
H385 C393 0.930 . S
H386 C396 0.930 . S
H387 C397 0.930 . S
C388 H382 0.930 . S
C388 C389 1.355 . S
C388 C390 1.415 . S
C389 C388 1.355 . S
C389 C391 1.419 . S
C390 C388 1.415 . S
C390 C395 1.425 . S
C390 C397 1.409 . S
C391 H383 0.930 . S
C391 C389 1.419 . S
C391 C392 1.362 . S
C392 H384 0.930 . S
C392 C391 1.362 . S
C392 C395 1.409 . S
C393 H385 0.930 . S
C393 C394 1.355 . S
C393 C395 1.415 . S
C394 C393 1.355 . S
C394 C396 1.419 . S
C395 C390 1.425 . S
C395 C392 1.409 . S
C395 C393 1.415 . S
C396 H386 0.930 . S
C396 C394 1.419 . S
C396 C397 1.362 . S
C397 H387 0.930 . S
C397 C390 1.409 . S
C397 C396 1.362 . S
H398 C404 0.930 . S
H399 C407 0.930 . S
H400 C408 0.930 . S
H401 C409 0.930 . S
H402 C412 0.930 . S
H403 C413 0.930 . S
C404 H398 0.930 . S
C404 C405 1.355 . S
C404 C406 1.415 . S
C405 C404 1.355 . S
C405 C407 1.419 . S
C406 C404 1.415 . S
C406 C411 1.425 . S
C406 C413 1.409 . S
C407 H399 0.930 . S
C407 C405 1.419 . S
C407 C408 1.362 . S
C408 H400 0.930 . S
C408 C407 1.362 . S
C408 C411 1.409 . S
C409 H401 0.930 . S
C409 C410 1.355 . S
C409 C411 1.415 . S
C410 C409 1.355 . S
C410 C412 1.419 . S
C411 C406 1.425 . S
C411 C408 1.409 . S
C411 C409 1.415 . S
C412 H402 0.930 . S
C412 C410 1.419 . S
C412 C413 1.362 . S
C413 H403 0.930 . S
C413 C406 1.409 . S
C413 C412 1.362 . S
H414 C420 0.930 . S
H415 C423 0.930 . S
H416 C424 0.930 . S
H417 C425 0.930 . S
H418 C428 0.930 . S
H419 C429 0.930 . S
C420 H414 0.930 . S
C420 C421 1.355 . S
C420 C422 1.415 . S
C421 C420 1.355 . S
C421 C423 1.419 . S
C422 C420 1.415 . S
C422 C427 1.425 . S
C422 C429 1.409 . S
C423 H415 0.930 . S
C423 C421 1.419 . S
C423 C424 1.362 . S
C424 H416 0.930 . S
C424 C423 1.362 . S
C424 C427 1.409 . S
C425 H417 0.930 . S
C425 C426 1.355 . S
C425 C427 1.415 . S
C426 C425 1.355 . S
C426 C428 1.419 . S
C427 C422 1.425 . S
C427 C424 1.409 . S
C427 C425 1.415 . S
C428 H418 0.930 . S
C428 C426 1.419 . S
C428 C429 1.362 . S
C429 H419 0.930 . S
C429 C422 1.409 . S
C429 C428 1.362 . S
H430 C436 0.930 . S
H431 C439 0.930 . S
H432 C440 0.930 . S
H433 C441 0.930 . S
H434 C444 0.930 . S
H435 C445 0.930 . S
C436 H430 0.930 . S
C436 C437 1.355 . S
C436 C438 1.415 . S
C437 C436 1.355 . S
C437 C439 1.419 . S
C438 C436 1.415 . S
C438 C443 1.425 . S
C438 C445 1.409 . S
C439 H431 0.930 . S
C439 C437 1.419 . S
C439 C440 1.362 . S
C440 H432 0.930 . S
C440 C439 1.362 . S
C440 C443 1.409 . S
C441 H433 0.930 . S
C441 C442 1.355 . S
C441 C443 1.415 . S
C442 C441 1.355 . S
C442 C444 1.419 . S
C443 C438 1.425 . S
C443 C440 1.409 . S
C443 C441 1.415 . S
C444 H434 0.930 . S
C444 C442 1.419 . S
C444 C445 1.362 . S
C445 H435 0.930 . S
C445 C438 1.409 . S
C445 C444 1.362 . S
H446 C452 0.930 . S
H447 C455 0.930 . S
H448 C456 0.930 . S
H449 C457 0.930 . S
H450 C460 0.930 . S
H451 C461 0.930 . S
C452 H446 0.930 . S
C452 C453 1.355 . S
C452 C454 1.415 . S
C453 C452 1.355 . S
C453 C455 1.419 . S
C454 C452 1.415 . S
C454 C459 1.425 . S
C454 C461 1.409 . S
C455 H447 0.930 . S
C455 C453 1.419 . S
C455 C456 1.362 . S
C456 H448 0.930 . S
C456 C455 1.362 . S
C456 C459 1.409 . S
C457 H449 0.930 . S
C457 C458 1.355 . S
C457 C459 1.415 . S
C458 C457 1.355 . S
C458 C460 1.419 . S
C459 C454 1.425 . S
C459 C456 1.409 . S
C459 C457 1.415 . S
C460 H450 0.930 . S
C460 C458 1.419 . S
C460 C461 1.362 . S
C461 H451 0.930 . S
C461 C454 1.409 . S
C461 C460 1.362 . S
H462 C468 0.930 . S
H463 C471 0.930 . S
H464 C472 0.930 . S
H465 C473 0.930 . S
H466 C476 0.930 . S
H467 C477 0.930 . S
C468 H462 0.930 . S
C468 C469 1.355 . S
C468 C470 1.415 . S
C469 C468 1.355 . S
C469 C471 1.419 . S
C470 C468 1.415 . S
C470 C475 1.425 . S
C470 C477 1.409 . S
C471 H463 0.930 . S
C471 C469 1.419 . S
C471 C472 1.362 . S
C472 H464 0.930 . S
C472 C471 1.362 . S
C472 C475 1.409 . S
C473 H465 0.930 . S
C473 C474 1.355 . S
C473 C475 1.415 . S
C474 C473 1.355 . S
C474 C476 1.419 . S
C475 C470 1.425 . S
C475 C472 1.409 . S
C475 C473 1.415 . S
C476 H466 0.930 . S
C476 C474 1.419 . S
C476 C477 1.362 . S
C477 H467 0.930 . S
C477 C470 1.409 . S
C477 C476 1.362 . S
H478 C484 0.930 . S
H479 C487 0.930 . S
H480 C488 0.930 . S
H481 C489 0.930 . S
H482 C492 0.930 . S
H483 C493 0.930 . S
C484 H478 0.930 . S
C484 C485 1.355 . S
C484 C486 1.415 . S
C485 C484 1.355 . S
C485 C487 1.419 . S
C486 C484 1.415 . S
C486 C491 1.425 . S
C486 C493 1.409 . S
C487 H479 0.930 . S
C487 C485 1.419 . S
C487 C488 1.362 . S
C488 H480 0.930 . S
C488 C487 1.362 . S
C488 C491 1.409 . S
C489 H481 0.930 . S
C489 C490 1.355 . S
C489 C491 1.415 . S
C490 C489 1.355 . S
C490 C492 1.419 . S
C491 C486 1.425 . S
C491 C488 1.409 . S
C491 C489 1.415 . S
C492 H482 0.930 . S
C492 C490 1.419 . S
C492 C493 1.362 . S
C493 H483 0.930 . S
C493 C486 1.409 . S
C493 C492 1.362 . S
H494 C500 0.930 . S
H495 C503 0.930 . S
H496 C504 0.930 . S
H497 C505 0.930 . S
H498 C508 0.930 . S
H499 C509 0.930 . S
C500 H494 0.930 . S
C500 C501 1.355 . S
C500 C502 1.415 . S
C501 C500 1.355 . S
C501 C503 1.419 . S
C502 C500 1.415 . S
C502 C507 1.425 . S
C502 C509 1.409 . S
C503 H495 0.930 . S
C503 C501 1.419 . S
C503 C504 1.362 . S
C504 H496 0.930 . S
C504 C503 1.362 . S
C504 C507 1.409 . S
C505 H497 0.930 . S
C505 C506 1.355 . S
C505 C507 1.415 . S
C506 C505 1.355 . S
C506 C508 1.419 . S
C507 C502 1.425 . S
C507 C504 1.409 . S
C507 C505 1.415 . S
C508 H498 0.930 . S
C508 C506 1.419 . S
C508 C509 1.362 . S
C509 H499 0.930 . S
C509 C502 1.409 . S
C509 C508 1.362 . S
H510 C516 0.930 . S
H511 C519 0.930 . S
H512 C520 0.930 . S
H513 C521 0.930 . S
H514 C524 0.930 . S
H515 C525 0.930 . S
C516 H510 0.930 . S
C516 C517 1.355 . S
C516 C518 1.415 . S
C517 C516 1.355 . S
C517 C519 1.419 . S
C518 C516 1.415 . S
C518 C523 1.425 . S
C518 C525 1.409 . S
C519 H511 0.930 . S
C519 C517 1.419 . S
C519 C520 1.362 . S
C520 H512 0.930 . S
C520 C519 1.362 . S
C520 C523 1.409 . S
C521 H513 0.930 . S
C521 C522 1.355 . S
C521 C523 1.415 . S
C522 C521 1.355 . S
C522 C524 1.419 . S
C523 C518 1.425 . S
C523 C520 1.409 . S
C523 C521 1.415 . S
C524 H514 0.930 . S
C524 C522 1.419 . S
C524 C525 1.362 . S
C525 H515 0.930 . S
C525 C518 1.409 . S
C525 C524 1.362 . S
H526 C532 0.930 . S
H527 C535 0.930 . S
H528 C536 0.930 . S
H529 C537 0.930 . S
H530 C540 0.930 . S
H531 C541 0.930 . S
C532 H526 0.930 . S
C532 C533 1.355 . S
C532 C534 1.415 . S
C533 C532 1.355 . S
C533 C535 1.419 . S
C534 C532 1.415 . S
C534 C539 1.425 . S
C534 C541 1.409 . S
C535 H527 0.930 . S
C535 C533 1.419 . S
C535 C536 1.362 . S
C536 H528 0.930 . S
C536 C535 1.362 . S
C536 C539 1.409 . S
C537 H529 0.930 . S
C537 C538 1.355 . S
C537 C539 1.415 . S
C538 C537 1.355 . S
C538 C540 1.419 . S
C539 C534 1.425 . S
C539 C536 1.409 . S
C539 C537 1.415 . S
C540 H530 0.930 . S
C540 C538 1.419 . S
C540 C541 1.362 . S
C541 H531 0.930 . S
C541 C534 1.409 . S
C541 C540 1.362 . S
H542 C548 0.930 . S
H543 C551 0.930 . S
H544 C552 0.930 . S
H545 C553 0.930 . S
H546 C556 0.930 . S
H547 C557 0.930 . S
C548 H542 0.930 . S
C548 C549 1.355 . S
C548 C550 1.415 . S
C549 C548 1.355 . S
C549 C551 1.419 . S
C550 C548 1.415 . S
C550 C555 1.425 . S
C550 C557 1.409 . S
C551 H543 0.930 . S
C551 C549 1.419 . S
C551 C552 1.362 . S
C552 H544 0.930 . S
C552 C551 1.362 . S
C552 C555 1.409 . S
C553 H545 0.930 . S
C553 C554 1.355 . S
C553 C555 1.415 . S
C554 C553 1.355 . S
C554 C556 1.419 . S
C555 C550 1.425 . S
C555 C552 1.409 . S
C555 C553 1.415 . S
C556 H546 0.930 . S
C556 C554 1.419 . S
C556 C557 1.362 . S
C557 H547 0.930 . S
C557 C550 1.409 . S
C557 C556 1.362 . S
H558 C564 0.930 . S
H559 C567 0.930 . S
H560 C568 0.930 . S
H561 C569 0.930 . S
H562 C572 0.930 . S
H563 C573 0.930 . S
C564 H558 0.930 . S
C564 C565 1.355 . S
C564 C566 1.415 . S
C565 C564 1.355 . S
C565 C567 1.419 . S
C566 C564 1.415 . S
C566 C571 1.425 . S
C566 C573 1.409 . S
C567 H559 0.930 . S
C567 C565 1.419 . S
C567 C568 1.362 . S
C568 H560 0.930 . S
C568 C567 1.362 . S
C568 C571 1.409 . S
C569 H561 0.930 . S
C569 C570 1.355 . S
C569 C571 1.415 . S
C570 C569 1.355 . S
C570 C572 1.419 . S
C571 C566 1.425 . S
C571 C568 1.409 . S
C571 C569 1.415 . S
C572 H562 0.930 . S
C572 C570 1.419 . S
C572 C573 1.362 . S
C573 H563 0.930 . S
C573 C566 1.409 . S
C573 C572 1.362 . S
H574 C580 0.930 . S
H575 C583 0.930 . S
H576 C584 0.930 . S
H577 C585 0.930 . S
H578 C588 0.930 . S
H579 C589 0.930 . S
C580 H574 0.930 . S
C580 C581 1.355 . S
C580 C582 1.415 . S
C581 C580 1.355 . S
C581 C583 1.419 . S
C582 C580 1.415 . S
C582 C587 1.425 . S
C582 C589 1.409 . S
C583 H575 0.930 . S
C583 C581 1.419 . S
C583 C584 1.362 . S
C584 H576 0.930 . S
C584 C583 1.362 . S
C584 C587 1.409 . S
C585 H577 0.930 . S
C585 C586 1.355 . S
C585 C587 1.415 . S
C586 C585 1.355 . S
C586 C588 1.419 . S
C587 C582 1.425 . S
C587 C584 1.409 . S
C587 C585 1.415 . S
C588 H578 0.930 . S
C588 C586 1.419 . S
C588 C589 1.362 . S
C589 H579 0.930 . S
C589 C582 1.409 . S
C589 C588 1.362 . S
H590 C596 0.930 . S
H591 C599 0.930 . S
H592 C600 0.930 . S
H593 C601 0.930 . S
H594 C604 0.930 . S
H595 C605 0.930 . S
C596 H590 0.930 . S
C596 C597 1.355 . S
C596 C598 1.415 . S
C597 C596 1.355 . S
C597 C599 1.419 . S
C598 C596 1.415 . S
C598 C603 1.425 . S
C598 C605 1.409 . S
C599 H591 0.930 . S
C599 C597 1.419 . S
C599 C600 1.362 . S
C600 H592 0.930 . S
C600 C599 1.362 . S
C600 C603 1.409 . S
C601 H593 0.930 . S
C601 C602 1.355 . S
C601 C603 1.415 . S
C602 C601 1.355 . S
C602 C604 1.419 . S
C603 C598 1.425 . S
C603 C600 1.409 . S
C603 C601 1.415 . S
C604 H594 0.930 . S
C604 C602 1.419 . S
C604 C605 1.362 . S
C605 H595 0.930 . S
C605 C598 1.409 . S
C605 C604 1.362 . S
C229 C7 1.800 . S
C234 C139 1.768 . S
C245 C30 1.598 . S
C250 C164 1.578 . S
C266 C167 1.663 . S
C261 N58 1.651 . S
C282 C193 1.431 . S
C277 N81 1.415 . S
C298 C194 1.734 . S
C293 C99 1.752 . S
C314 C221 1.424 . S
C309 N127 1.403 . S
C325 N25 1.608 . S
C330 C166 1.626 . S
C341 C62 1.600 . S
C346 C192 1.575 . S
C362 C195 1.755 . S
C357 C85 1.752 . S
C378 C220 1.408 . S
C373 N94 1.412 . S
C389 C131 1.769 . S
C394 C138 1.723 . S
C410 C165 1.431 . S
C405 N2 1.459 . S
C426 C180 1.735 . S
C421 C16 1.751 . S
C437 C39 1.544 . S
C442 C207 1.527 . S
C458 C208 1.649 . S
C453 N48 1.640 . S
C469 N71 1.426 . S
C474 C150 1.443 . S
C485 C108 1.725 . S
C490 C153 1.707 . S
C501 N117 1.397 . S
C506 C178 1.425 . S
C517 N35 1.634 . S
C522 C209 1.659 . S
C538 C151 1.590 . S
C533 C53 1.595 . S
C549 C76 1.790 . S
C554 C152 1.783 . S
C565 N104 1.372 . S
C570 C179 1.411 . S
C581 C122 1.734 . S
C586 C181 1.700 . S
C597 N12 1.366 . S
C602 C206 1.397 . S
