# Generated by pormake.
# Topology gar, (4,6)-cn, num edge types: 1
# Building blocks:
#     Node 0, Type 0, BuildingBlock: UXUYUI_clean_sbu_0, # of connection points: 4
#     Node 1, Type 0, BuildingBlock: UXUYUI_clean_sbu_0, # of connection points: 4
#     Node 2, Type 0, BuildingBlock: UXUYUI_clean_sbu_0, # of connection points: 4
#     Node 3, Type 0, BuildingBlock: UXUYUI_clean_sbu_0, # of connection points: 4
#     Node 4, Type 0, BuildingBlock: UXUYUI_clean_sbu_0, # of connection points: 4
#     Node 5, Type 0, BuildingBlock: UXUYUI_clean_sbu_0, # of connection points: 4
#     Node 6, Type 0, BuildingBlock: UXUYUI_clean_sbu_0, # of connection points: 4
#     Node 7, Type 0, BuildingBlock: UXUYUI_clean_sbu_0, # of connection points: 4
#     Node 8, Type 0, BuildingBlock: UXUYUI_clean_sbu_0, # of connection points: 4
#     Node 9, Type 0, BuildingBlock: UXUYUI_clean_sbu_0, # of connection points: 4
#     Node 10, Type 0, BuildingBlock: UXUYUI_clean_sbu_0, # of connection points: 4
#     Node 11, Type 0, BuildingBlock: UXUYUI_clean_sbu_0, # of connection points: 4
#     Node 12, Type 0, BuildingBlock: UXUYUI_clean_sbu_0, # of connection points: 4
#     Node 13, Type 0, BuildingBlock: UXUYUI_clean_sbu_0, # of connection points: 4
#     Node 14, Type 0, BuildingBlock: UXUYUI_clean_sbu_0, # of connection points: 4
#     Node 15, Type 0, BuildingBlock: UXUYUI_clean_sbu_0, # of connection points: 4
#     Node 16, Type 0, BuildingBlock: UXUYUI_clean_sbu_0, # of connection points: 4
#     Node 17, Type 0, BuildingBlock: UXUYUI_clean_sbu_0, # of connection points: 4
#     Node 18, Type 0, BuildingBlock: UXUYUI_clean_sbu_0, # of connection points: 4
#     Node 19, Type 0, BuildingBlock: UXUYUI_clean_sbu_0, # of connection points: 4
#     Node 20, Type 0, BuildingBlock: UXUYUI_clean_sbu_0, # of connection points: 4
#     Node 21, Type 0, BuildingBlock: UXUYUI_clean_sbu_0, # of connection points: 4
#     Node 22, Type 0, BuildingBlock: UXUYUI_clean_sbu_0, # of connection points: 4
#     Node 23, Type 0, BuildingBlock: UXUYUI_clean_sbu_0, # of connection points: 4
#     Node 24, Type 1, BuildingBlock: PAMTOO_clean_sbu_0, # of connection points: 6
#     Node 25, Type 1, BuildingBlock: PAMTOO_clean_sbu_0, # of connection points: 6
#     Node 26, Type 1, BuildingBlock: PAMTOO_clean_sbu_0, # of connection points: 6
#     Node 27, Type 1, BuildingBlock: PAMTOO_clean_sbu_0, # of connection points: 6
#     Node 28, Type 1, BuildingBlock: PAMTOO_clean_sbu_0, # of connection points: 6
#     Node 29, Type 1, BuildingBlock: PAMTOO_clean_sbu_0, # of connection points: 6
#     Node 30, Type 1, BuildingBlock: PAMTOO_clean_sbu_0, # of connection points: 6
#     Node 31, Type 1, BuildingBlock: PAMTOO_clean_sbu_0, # of connection points: 6
#     Node 32, Type 1, BuildingBlock: PAMTOO_clean_sbu_0, # of connection points: 6
#     Node 33, Type 1, BuildingBlock: PAMTOO_clean_sbu_0, # of connection points: 6
#     Node 34, Type 1, BuildingBlock: PAMTOO_clean_sbu_0, # of connection points: 6
#     Node 35, Type 1, BuildingBlock: PAMTOO_clean_sbu_0, # of connection points: 6
#     Node 36, Type 1, BuildingBlock: PAMTOO_clean_sbu_0, # of connection points: 6
#     Node 37, Type 1, BuildingBlock: PAMTOO_clean_sbu_0, # of connection points: 6
#     Node 38, Type 1, BuildingBlock: PAMTOO_clean_sbu_0, # of connection points: 6
#     Node 39, Type 1, BuildingBlock: PAMTOO_clean_sbu_0, # of connection points: 6
#     Edge 40, Type (0, 1), None
#     Edge 41, Type (0, 1), None
#     Edge 42, Type (0, 1), None
#     Edge 43, Type (0, 1), None
#     Edge 44, Type (0, 1), None
#     Edge 45, Type (0, 1), None
#     Edge 46, Type (0, 1), None
#     Edge 47, Type (0, 1), None
#     Edge 48, Type (0, 1), None
#     Edge 49, Type (0, 1), None
#     Edge 50, Type (0, 1), None
#     Edge 51, Type (0, 1), None
#     Edge 52, Type (0, 1), None
#     Edge 53, Type (0, 1), None
#     Edge 54, Type (0, 1), None
#     Edge 55, Type (0, 1), None
#     Edge 56, Type (0, 1), None
#     Edge 57, Type (0, 1), None
#     Edge 58, Type (0, 1), None
#     Edge 59, Type (0, 1), None
#     Edge 60, Type (0, 1), None
#     Edge 61, Type (0, 1), None
#     Edge 62, Type (0, 1), None
#     Edge 63, Type (0, 1), None
#     Edge 64, Type (0, 1), None
#     Edge 65, Type (0, 1), None
#     Edge 66, Type (0, 1), None
#     Edge 67, Type (0, 1), None
#     Edge 68, Type (0, 1), None
#     Edge 69, Type (0, 1), None
#     Edge 70, Type (0, 1), None
#     Edge 71, Type (0, 1), None
#     Edge 72, Type (0, 1), None
#     Edge 73, Type (0, 1), None
#     Edge 74, Type (0, 1), None
#     Edge 75, Type (0, 1), None
#     Edge 76, Type (0, 1), None
#     Edge 77, Type (0, 1), None
#     Edge 78, Type (0, 1), None
#     Edge 79, Type (0, 1), None
#     Edge 80, Type (0, 1), None
#     Edge 81, Type (0, 1), None
#     Edge 82, Type (0, 1), None
#     Edge 83, Type (0, 1), None
#     Edge 84, Type (0, 1), None
#     Edge 85, Type (0, 1), None
#     Edge 86, Type (0, 1), None
#     Edge 87, Type (0, 1), None
#     Edge 88, Type (0, 1), None
#     Edge 89, Type (0, 1), None
#     Edge 90, Type (0, 1), None
#     Edge 91, Type (0, 1), None
#     Edge 92, Type (0, 1), None
#     Edge 93, Type (0, 1), None
#     Edge 94, Type (0, 1), None
#     Edge 95, Type (0, 1), None
#     Edge 96, Type (0, 1), None
#     Edge 97, Type (0, 1), None
#     Edge 98, Type (0, 1), None
#     Edge 99, Type (0, 1), None
#     Edge 100, Type (0, 1), None
#     Edge 101, Type (0, 1), None
#     Edge 102, Type (0, 1), None
#     Edge 103, Type (0, 1), None
#     Edge 104, Type (0, 1), None
#     Edge 105, Type (0, 1), None
#     Edge 106, Type (0, 1), None
#     Edge 107, Type (0, 1), None
#     Edge 108, Type (0, 1), None
#     Edge 109, Type (0, 1), None
#     Edge 110, Type (0, 1), None
#     Edge 111, Type (0, 1), None
#     Edge 112, Type (0, 1), None
#     Edge 113, Type (0, 1), None
#     Edge 114, Type (0, 1), None
#     Edge 115, Type (0, 1), None
#     Edge 116, Type (0, 1), None
#     Edge 117, Type (0, 1), None
#     Edge 118, Type (0, 1), None
#     Edge 119, Type (0, 1), None
#     Edge 120, Type (0, 1), None
#     Edge 121, Type (0, 1), None
#     Edge 122, Type (0, 1), None
#     Edge 123, Type (0, 1), None
#     Edge 124, Type (0, 1), None
#     Edge 125, Type (0, 1), None
#     Edge 126, Type (0, 1), None
#     Edge 127, Type (0, 1), None
#     Edge 128, Type (0, 1), None
#     Edge 129, Type (0, 1), None
#     Edge 130, Type (0, 1), None
#     Edge 131, Type (0, 1), None
#     Edge 132, Type (0, 1), None
#     Edge 133, Type (0, 1), None
#     Edge 134, Type (0, 1), None
#     Edge 135, Type (0, 1), None
# Relax obj value: 0.221
# Max RMSD: 0.274
# Mean RMSD: 0.211
data_MOF--net-gar--node1-UXUYUI_clean_sbu_0--node2-PAMTOO_clean_sbu_0--edge1-none
_symmetry_space_group_name_H-M    P1
_symmetry_Int_Tables_number       1
_symmetry_cell_setting            triclinic
loop_
_symmetry_equiv_pos_as_xyz
'x, y, z'
_cell_length_a     42.370183
_cell_length_b     42.296327
_cell_length_c     39.796019
_cell_angle_alpha  98.222894
_cell_angle_beta   97.505086
_cell_angle_gamma 106.8631
loop_
_atom_site_label
_atom_site_type_symbol
_atom_site_fract_x
_atom_site_fract_y
_atom_site_fract_z
_atom_type_partial_charge
Li0 Li 0.05489 0.36531 0.36971 0.0
Li1 Li 0.09778 0.41238 0.41705 0.0
Li2 Li 0.12553 0.37354 0.37378 0.0
Li3 Li 0.09128 0.35182 0.4176 0.0
C4 C 0.08743 0.42107 0.33813 0.0
N5 N 0.07104 0.4514 0.28433 0.0
C6 C 0.07404 0.44749 0.34389 0.0
C7 C 0.09254 0.41007 0.30507 0.0
C8 C 0.06589 0.4625 0.31634 0.0
C9 C 0.08405 0.42573 0.27818 0.0
C10 C 0.04435 0.38005 0.4485 0.0
C11 C 0.04953 0.38951 0.5105 0.0
N12 N 1.01765 0.39096 0.50725 0.0
C13 C 1.01161 0.3816 0.44578 0.0
C14 C 0.06347 0.38406 0.48112 0.0
C15 C 0.99858 0.38716 0.47578 0.0
C16 C 0.98192 0.33053 0.36109 0.0
N17 N 1.00397 0.35496 0.34894 0.0
C18 C 0.95612 0.36944 0.32208 0.0
C19 C 0.99125 0.37417 0.32941 0.0
C20 C 0.93293 0.34498 0.33518 0.0
C21 C 0.94683 0.32521 0.35462 0.0
H22 H 0.99163 0.31595 0.37754 0.0
H23 H 1.00832 0.39413 0.3203 0.0
C24 C 0.12271 0.47734 0.46972 0.0
N25 N 0.09672 0.45532 0.44575 0.0
C26 C 0.11752 0.5033 0.49282 0.0
C27 C 0.05929 0.48419 0.46623 0.0
C28 C 0.06564 0.45917 0.44325 0.0
C29 C 0.08531 0.50668 0.49167 0.0
H30 H 0.14728 0.4742 0.47186 0.0
H31 H 0.04519 0.44189 0.42406 0.0
C32 C 0.07691 0.29877 0.36783 0.0
N33 N 0.06472 0.2323 0.37421 0.0
C34 C 0.10334 0.28746 0.38004 0.0
C35 C 0.04437 0.27617 0.35836 0.0
C36 C 0.09663 0.25379 0.38325 0.0
C37 C 0.03871 0.24265 0.3618 0.0
C38 C 0.15913 0.39148 0.45171 0.0
C39 C 0.18362 0.37667 0.44464 0.0
C40 C 0.16176 0.40939 0.48487 0.0
C41 C 0.21068 0.38053 0.47065 0.0
C42 C 0.18898 0.41227 0.51037 0.0
N43 N 0.21277 0.39805 0.50274 0.0
C44 C 0.2006 0.3938 0.36233 0.0
C45 C 0.17003 0.33775 0.33752 0.0
C46 C 0.23099 0.38862 0.35405 0.0
N47 N 0.17027 0.36849 0.35446 0.0
C48 C 0.19976 0.33157 0.32897 0.0
C49 C 0.23156 0.35688 0.33733 0.0
H50 H 0.20182 0.41816 0.37627 0.0
H51 H 0.14671 0.31719 0.33123 0.0
C52 C 0.05327 0.30262 0.4496 0.0
N53 N 0.0856 0.31908 0.44778 0.0
C54 C 0.04597 0.27855 0.47054 0.0
C55 C 0.10532 0.28774 0.48668 0.0
C56 C 0.11151 0.31198 0.46572 0.0
C57 C 0.07216 0.27079 0.48946 0.0
H58 H 0.03301 0.30812 0.43459 0.0
H59 H 0.13697 0.32474 0.46356 0.0
O60 O 0.09583 0.40621 0.36477 0.0
O61 O 0.05787 0.37526 0.41946 0.0
O62 O 0.08277 0.33196 0.36587 0.0
O63 O 0.13406 0.39037 0.42571 0.0
H64 H 0.07002 0.45633 0.36936 0.0
H65 H 0.10302 0.38971 0.30028 0.0
H66 H 0.05551 0.48298 0.3204 0.0
H67 H 0.08792 0.41754 0.25246 0.0
H68 H 0.06407 0.3926 0.53589 0.0
H69 H 0.99661 0.37919 0.42084 0.0
H70 H 0.08873 0.38277 0.48371 0.0
H71 H 0.97336 0.38861 0.47405 0.0
H72 H 0.94734 0.38558 0.30698 0.0
H73 H 0.93074 0.30595 0.36552 0.0
H74 H 0.13813 0.51948 0.51257 0.0
H75 H 0.03406 0.48575 0.46422 0.0
H76 H 0.12863 0.30472 0.38778 0.0
H77 H 1.02371 0.28444 0.34853 0.0
H78 H 0.11676 0.24478 0.39309 0.0
H79 H 1.01364 0.22488 0.35467 0.0
H80 H 0.18182 0.36233 0.41936 0.0
H81 H 0.14325 0.42127 0.49082 0.0
H82 H 0.23006 0.36966 0.46522 0.0
H83 H 0.19137 0.42611 0.53613 0.0
H84 H 0.25415 0.40939 0.36159 0.0
H85 H 0.19773 0.30649 0.31622 0.0
H86 H 1.02003 0.26571 0.47141 0.0
H87 H 0.1263 0.28256 0.50084 0.0
Li88 Li 0.05977 0.8098 0.72062 0.0
Li89 Li 0.09347 0.79242 0.76799 0.0
Li90 Li 0.04679 0.74945 0.71968 0.0
Li91 Li 1.02214 0.78915 0.76241 0.0
C92 C 0.11315 0.78149 0.69752 0.0
N93 N 0.16083 0.78038 0.65633 0.0
C94 C 0.14607 0.80315 0.70824 0.0
C95 C 0.1044 0.75994 0.66531 0.0
C96 C 0.16983 0.80204 0.68722 0.0
C97 C 0.12887 0.75955 0.64501 0.0
C98 C 0.07964 0.86222 0.77322 0.0
C99 C 0.07302 0.91726 0.78436 0.0
N100 N 0.10369 0.93083 0.77628 0.0
C101 C 0.11102 0.87669 0.76488 0.0
C102 C 0.06037 0.8826 0.78285 0.0
C103 C 0.12274 0.91144 0.76655 0.0
C104 C 0.04731 0.8651 0.69204 0.0
N105 N 0.06583 0.84361 0.69093 0.0
C106 C 0.09249 0.86856 0.64731 0.0
C107 C 0.08805 0.84506 0.66896 0.0
C108 C 0.07368 0.89095 0.64768 0.0
C109 C 0.05079 0.88899 0.67057 0.0
H110 H 1.02955 0.86355 0.70942 0.0
H111 H 0.10249 0.82805 0.66785 0.0
C112 C 0.15634 0.7732 0.78387 0.0
N113 N 0.14398 0.79965 0.79 0.0
C114 C 0.19137 0.77758 0.79077 0.0
C115 C 0.20172 0.83646 0.8104 0.0
C116 C 0.16644 0.83091 0.80382 0.0
C117 C 0.2152 0.80974 0.80357 0.0
H118 H 0.13913 0.74856 0.77196 0.0
H119 H 0.15734 0.85223 0.80833 0.0
C120 C 0.9996 0.78383 0.68221 0.0
N121 N 0.97247 0.80391 0.62517 0.0
C122 C 0.97491 0.79952 0.68456 0.0
C123 C 1.01053 0.77842 0.65086 0.0
C124 C 0.96145 0.80942 0.6554 0.0
C125 C 0.99652 0.78877 0.62232 0.0
C126 C 0.03828 0.72192 0.77662 0.0
C127 C 1.00411 0.70394 0.76711 0.0
C128 C 0.06076 0.70605 0.78922 0.0
C129 C 0.99301 0.67013 0.77008 0.0
C130 C 0.04867 0.67219 0.79174 0.0
N131 N 1.01534 0.65508 0.78216 0.0
C132 C 0.06308 0.68795 0.69879 0.0
C133 C 1.02096 0.69504 0.65821 0.0
C134 C 0.06567 0.66086 0.67535 0.0
N135 N 0.04129 0.70492 0.68992 0.0
C136 C 1.02374 0.66896 0.63353 0.0
C137 C 0.04667 0.65171 0.64173 0.0
H138 H 0.07993 0.69655 0.72343 0.0
H139 H 1.00392 0.70865 0.65116 0.0
C140 C 0.97877 0.8202 0.80852 0.0
N141 N 0.97767 0.79509 0.78188 0.0
C142 C 0.94897 0.82589 0.81789 0.0
C143 C 0.91606 0.7797 0.77339 0.0
C144 C 0.94639 0.77481 0.76485 0.0
C145 C 0.91638 0.80584 0.80021 0.0
H146 H 1.0029 0.83666 0.82255 0.0
H147 H 0.94459 0.75498 0.74354 0.0
O148 O 0.08958 0.78195 0.71807 0.0
O149 O 0.06799 0.8283 0.77212 0.0
O150 O 1.01362 0.77455 0.71063 0.0
O151 O 0.04962 0.75478 0.77305 0.0
H152 H 0.15318 0.82111 0.7322 0.0
H153 H 0.07897 0.744 0.65569 0.0
H154 H 0.19538 0.81857 0.69538 0.0
H155 H 0.12239 0.74282 0.62016 0.0
H156 H 0.05844 0.93335 0.79193 0.0
H157 H 0.12594 0.86118 0.75676 0.0
H158 H 0.03591 0.87178 0.78903 0.0
H159 H 0.14694 0.92298 0.7601 0.0
H160 H 0.11094 0.86936 0.63074 0.0
H161 H 0.03538 0.9054 0.67163 0.0
H162 H 0.19975 0.7559 0.78479 0.0
H163 H 0.21838 0.86182 0.8204 0.0
H164 H 0.96653 0.80443 0.70871 0.0
H165 H 1.03016 0.76704 0.64879 0.0
H166 H 0.94238 0.82167 0.65684 0.0
H167 H 1.00492 0.78496 0.59797 0.0
H168 H 0.98643 0.71592 0.75726 0.0
H169 H 0.08728 0.71968 0.79672 0.0
H170 H 0.96666 0.65584 0.76268 0.0
H171 H 0.06577 0.6595 0.80131 0.0
H172 H 0.08388 0.64852 0.68279 0.0
H173 H 1.00845 0.66273 0.60801 0.0
H174 H 0.95167 0.84649 0.83874 0.0
H175 H 0.89232 0.76317 0.75842 0.0
Li176 Li 0.55489 0.86531 0.86971 0.0
Li177 Li 0.59778 0.91238 0.91705 0.0
Li178 Li 0.62553 0.87353 0.87378 0.0
Li179 Li 0.59128 0.85182 0.9176 0.0
C180 C 0.58743 0.92107 0.83813 0.0
N181 N 0.57104 0.95141 0.78434 0.0
C182 C 0.57404 0.94749 0.8439 0.0
C183 C 0.59254 0.91007 0.80507 0.0
C184 C 0.56589 0.9625 0.81634 0.0
C185 C 0.58406 0.92573 0.77819 0.0
C186 C 0.54435 0.88005 0.94851 0.0
C187 C 0.54953 0.88951 1.0105 0.0
N188 N 0.51765 0.89096 1.00725 0.0
C189 C 0.51162 0.8816 0.94578 0.0
C190 C 0.56347 0.88406 0.98112 0.0
C191 C 0.49859 0.88716 0.97578 0.0
C192 C 0.48192 0.83053 0.86109 0.0
N193 N 0.50397 0.85496 0.84894 0.0
C194 C 0.45612 0.86944 0.82208 0.0
C195 C 0.49126 0.87417 0.82941 0.0
C196 C 0.43293 0.84498 0.83518 0.0
C197 C 0.44683 0.82521 0.85462 0.0
H198 H 0.49163 0.81595 0.87754 0.0
H199 H 0.50832 0.89413 0.8203 0.0
C200 C 0.62271 0.97733 0.96972 0.0
N201 N 0.59672 0.95532 0.94575 0.0
C202 C 0.61752 1.0033 0.99282 0.0
C203 C 0.55929 0.98418 0.96623 0.0
C204 C 0.56564 0.95917 0.94326 0.0
C205 C 0.58531 1.00668 0.99168 0.0
H206 H 0.64728 0.9742 0.97187 0.0
H207 H 0.54519 0.94189 0.92406 0.0
C208 C 0.57691 0.79877 0.86783 0.0
N209 N 0.56472 0.7323 0.87421 0.0
C210 C 0.60334 0.78746 0.88003 0.0
C211 C 0.54437 0.77617 0.85836 0.0
C212 C 0.59663 0.75379 0.88325 0.0
C213 C 0.53871 0.74265 0.8618 0.0
C214 C 0.65913 0.89148 0.95171 0.0
C215 C 0.68362 0.87666 0.94464 0.0
C216 C 0.66176 0.90938 0.98487 0.0
C217 C 0.71068 0.88052 0.97065 0.0
C218 C 0.68898 0.91226 1.01037 0.0
N219 N 0.71277 0.89805 1.00274 0.0
C220 C 0.7006 0.8938 0.86233 0.0
C221 C 0.67003 0.83775 0.83752 0.0
C222 C 0.73099 0.88862 0.85406 0.0
N223 N 0.67027 0.86849 0.85446 0.0
C224 C 0.69977 0.83157 0.82897 0.0
C225 C 0.73157 0.85688 0.83733 0.0
H226 H 0.70182 0.91816 0.87627 0.0
H227 H 0.64672 0.81719 0.83123 0.0
C228 C 0.55327 0.80262 0.9496 0.0
N229 N 0.5856 0.81908 0.94778 0.0
C230 C 0.54597 0.77855 0.97054 0.0
C231 C 0.60532 0.78773 0.98668 0.0
C232 C 0.61151 0.81198 0.96572 0.0
C233 C 0.57216 0.77079 0.98946 0.0
H234 H 0.53301 0.80812 0.93459 0.0
H235 H 0.63697 0.82474 0.96355 0.0
O236 O 0.59583 0.90621 0.86478 0.0
O237 O 0.55787 0.87525 0.91946 0.0
O238 O 0.58277 0.83196 0.86587 0.0
O239 O 0.63406 0.89037 0.92571 0.0
H240 H 0.57002 0.95633 0.86937 0.0
H241 H 0.60302 0.88971 0.80028 0.0
H242 H 0.55551 0.98299 0.8204 0.0
H243 H 0.58793 0.91754 0.75246 0.0
H244 H 0.56407 0.8926 0.03589 0.0
H245 H 0.49661 0.87919 0.92085 0.0
H246 H 0.58873 0.88277 0.98371 0.0
H247 H 0.47336 0.8886 0.97405 0.0
H248 H 0.44734 0.88558 0.80698 0.0
H249 H 0.43074 0.80595 0.86552 0.0
H250 H 0.63813 1.01947 1.01257 0.0
H251 H 0.53406 0.98575 0.96422 0.0
H252 H 0.62863 0.80472 0.88778 0.0
H253 H 0.52371 0.78444 0.84853 0.0
H254 H 0.61676 0.74478 0.89309 0.0
H255 H 0.51364 0.72488 0.85467 0.0
H256 H 0.68182 0.86233 0.91936 0.0
H257 H 0.64325 0.92126 0.99083 0.0
H258 H 0.73006 0.86966 0.96522 0.0
H259 H 0.69137 0.92611 0.03613 0.0
H260 H 0.75415 0.90939 0.86159 0.0
H261 H 0.69773 0.80649 0.81622 0.0
H262 H 0.52003 0.7657 0.97141 0.0
H263 H 0.6263 0.78255 1.00084 0.0
Li264 Li 0.55977 0.3098 0.22062 0.0
Li265 Li 0.59347 0.29242 0.26799 0.0
Li266 Li 0.54679 0.24945 0.21968 0.0
Li267 Li 0.52214 0.28915 0.26241 0.0
C268 C 0.61315 0.28149 0.19753 0.0
N269 N 0.66084 0.28039 0.15635 0.0
C270 C 0.64606 0.30316 0.20824 0.0
C271 C 0.60441 0.25993 0.16532 0.0
C272 C 0.66983 0.30205 0.18723 0.0
C273 C 0.62888 0.25955 0.14502 0.0
C274 C 0.57964 0.36222 0.27322 0.0
C275 C 0.57303 0.41726 0.28437 0.0
N276 N 0.60369 0.43083 0.27629 0.0
C277 C 0.61102 0.37669 0.26488 0.0
C278 C 0.56037 0.3826 0.28286 0.0
C279 C 0.62274 0.41144 0.26656 0.0
C280 C 0.54731 0.36511 0.19205 0.0
N281 N 0.56583 0.3436 0.19093 0.0
C282 C 0.59248 0.36855 0.1473 0.0
C283 C 0.58804 0.34505 0.16895 0.0
C284 C 0.57368 0.39094 0.14768 0.0
C285 C 0.5508 0.38899 0.17058 0.0
H286 H 0.52957 0.36356 0.20943 0.0
H287 H 0.60247 0.32803 0.16783 0.0
C288 C 0.65634 0.2732 0.28387 0.0
N289 N 0.64398 0.29965 0.29 0.0
C290 C 0.69137 0.27758 0.29077 0.0
C291 C 0.70172 0.33645 0.3104 0.0
C292 C 0.66644 0.33091 0.30382 0.0
C293 C 0.7152 0.30974 0.30357 0.0
H294 H 0.63913 0.24855 0.27196 0.0
H295 H 0.65734 0.35223 0.30833 0.0
C296 C 0.4996 0.28383 0.18221 0.0
N297 N 0.47248 0.30391 0.12517 0.0
C298 C 0.47491 0.29953 0.18456 0.0
C299 C 0.51053 0.27842 0.15086 0.0
C300 C 0.46146 0.30943 0.1554 0.0
C301 C 0.49652 0.28877 0.12232 0.0
C302 C 0.53828 0.22192 0.27663 0.0
C303 C 0.50411 0.20394 0.26712 0.0
C304 C 0.56076 0.20605 0.28923 0.0
C305 C 0.49301 0.17013 0.27008 0.0
C306 C 0.54867 0.17219 0.29175 0.0
N307 N 0.51534 0.15508 0.28217 0.0
C308 C 0.56308 0.18794 0.19879 0.0
C309 C 0.52096 0.19503 0.15822 0.0
C310 C 0.56567 0.16085 0.17535 0.0
N311 N 0.54129 0.20492 0.18992 0.0
C312 C 0.52374 0.16896 0.13353 0.0
C313 C 0.54667 0.15171 0.14174 0.0
H314 H 0.57993 0.19655 0.22344 0.0
H315 H 0.50392 0.20865 0.15116 0.0
C316 C 0.47877 0.32019 0.30852 0.0
N317 N 0.47767 0.29509 0.28188 0.0
C318 C 0.44897 0.32588 0.31789 0.0
C319 C 0.41606 0.2797 0.27339 0.0
C320 C 0.44639 0.27481 0.26484 0.0
C321 C 0.41638 0.30584 0.30021 0.0
H322 H 0.5029 0.33666 0.32255 0.0
H323 H 0.44459 0.25498 0.24354 0.0
O324 O 0.58958 0.28194 0.21808 0.0
O325 O 0.56799 0.3283 0.27212 0.0
O326 O 0.51362 0.27454 0.21063 0.0
O327 O 0.54962 0.25478 0.27305 0.0
H328 H 0.65317 0.32112 0.2322 0.0
H329 H 0.57898 0.24399 0.15569 0.0
H330 H 0.69538 0.31859 0.19539 0.0
H331 H 0.6224 0.24282 0.12017 0.0
H332 H 0.55845 0.43335 0.29195 0.0
H333 H 0.62594 0.36118 0.25676 0.0
H334 H 0.53591 0.37178 0.28904 0.0
H335 H 0.64695 0.42298 0.26011 0.0
H336 H 0.61092 0.36935 0.13072 0.0
H337 H 0.53539 0.40541 0.17165 0.0
H338 H 0.69975 0.2559 0.28478 0.0
H339 H 0.71838 0.36182 0.3204 0.0
H340 H 0.46653 0.30443 0.20871 0.0
H341 H 0.53016 0.26704 0.14879 0.0
H342 H 0.44239 0.32168 0.15684 0.0
H343 H 0.50492 0.28495 0.09797 0.0
H344 H 0.48643 0.21592 0.25727 0.0
H345 H 0.58728 0.21968 0.29672 0.0
H346 H 0.46666 0.15584 0.26268 0.0
H347 H 0.56577 0.1595 0.30132 0.0
H348 H 0.58387 0.14852 0.18279 0.0
H349 H 0.50845 0.16273 0.10801 0.0
H350 H 0.45167 0.34649 0.33874 0.0
H351 H 0.39232 0.26317 0.25841 0.0
Li352 Li 0.1154 0.88924 0.12133 0.0
Li353 Li 0.15269 0.86304 0.1632 0.0
Li354 Li 0.11058 0.81717 0.11635 0.0
Li355 Li 0.09334 0.85323 0.16343 0.0
C356 C 0.18067 0.87096 0.10538 0.0
N357 N 0.24687 0.89291 0.09777 0.0
C358 C 0.20078 0.90372 0.12052 0.0
C359 C 0.19398 0.84952 0.08587 0.0
C360 C 0.23427 0.91429 0.11653 0.0
C361 C 0.22756 0.86111 0.08235 0.0
C362 C 0.1227 0.91546 0.2015 0.0
C363 C 0.11633 0.92128 0.26124 0.0
N364 N 0.10845 0.94994 0.25897 0.0
C365 C 0.11433 0.9449 0.19976 0.0
C366 C 0.12357 0.9035 0.23246 0.0
C367 C 0.10728 0.96201 0.22911 0.0
C368 C 0.08092 0.93166 0.07904 0.0
N369 N 0.1091 0.93321 0.10152 0.0
C370 C 0.12632 0.9948 0.10628 0.0
C371 C 0.13184 0.96464 0.11446 0.0
C372 C 0.09712 0.99405 0.0838 0.0
C373 C 0.07466 0.96121 0.06993 0.0
H374 H 0.06237 0.9074 0.06848 0.0
H375 H 0.15416 0.96682 0.13249 0.0
C376 C 0.21865 0.85168 0.17922 0.0
N377 N 0.19679 0.86598 0.19261 0.0
C378 C 0.24529 0.84674 0.20083 0.0
C379 C 0.22698 0.871 0.25003 0.0
C380 C 0.20136 0.87642 0.22748 0.0
C381 C 0.24918 0.85545 0.23693 0.0
H382 H 0.2144 0.84204 0.15189 0.0
H383 H 0.18414 0.88752 0.23824 0.0
C384 C 0.04209 0.83572 0.11 0.0
N385 N 0.9735 0.81897 0.10524 0.0
C386 C 1.02225 0.80194 0.10262 0.0
C387 C 1.02711 0.86098 0.11503 0.0
C388 C 0.98758 0.79397 0.10039 0.0
C389 C 0.99236 0.852 0.11249 0.0
C390 C 0.1339 0.80485 0.18686 0.0
C391 C 0.15312 0.78612 0.17311 0.0
C392 C 0.13144 0.80721 0.22178 0.0
C393 C 0.16952 0.77008 0.19449 0.0
C394 C 0.14824 0.79081 0.24232 0.0
N395 N 0.16678 0.77275 0.22837 0.0
C396 C 0.11754 0.75208 0.07401 0.0
C397 C 0.08027 0.74437 0.11321 0.0
C398 C 0.11348 0.71689 0.06761 0.0
N399 N 0.10111 0.76564 0.09674 0.0
C400 C 0.07558 0.70926 0.1076 0.0
C401 C 0.0925 0.69451 0.08479 0.0
H402 H 0.1348 0.76854 0.06146 0.0
H403 H 0.06796 0.75479 0.13206 0.0
C404 C 0.04401 0.86999 0.20105 0.0
N405 N 0.05856 0.84617 0.19143 0.0
C406 C 1.02038 0.86433 0.22285 0.0
C407 C 1.02554 0.80899 0.22287 0.0
C408 C 0.04915 0.81579 0.20123 0.0
C409 C 1.0111 0.83359 0.23448 0.0
H410 H 0.05099 0.89361 0.19218 0.0
H411 H 0.06011 0.79675 0.19232 0.0
O412 O 0.14822 0.85985 0.11011 0.0
O413 O 0.1299 0.89845 0.17307 0.0
O414 O 0.076 0.84402 0.11188 0.0
O415 O 0.11824 0.82135 0.16641 0.0
H416 H 0.19075 0.92058 0.13566 0.0
H417 H 0.17865 0.82413 0.07394 0.0
H418 H 0.25026 0.93946 0.12841 0.0
H419 H 0.23833 0.84477 0.06753 0.0
H420 H 0.11672 0.91215 0.28528 0.0
H421 H 0.11306 0.95438 0.17602 0.0
H422 H 0.12883 0.88022 0.234 0.0
H423 H 0.10077 0.98482 0.22813 0.0
H424 H 0.14486 1.01878 0.11811 0.0
H425 H 0.05163 0.95818 0.05258 0.0
H426 H 0.26152 0.83444 0.18937 0.0
H427 H 0.22903 0.8785 0.27762 0.0
H428 H 0.03348 0.78213 0.09842 0.0
H429 H 0.0422 0.88723 0.12112 0.0
H430 H 0.97184 0.76795 0.09468 0.0
H431 H 0.9804 0.87128 0.11632 0.0
H432 H 0.15601 0.78461 0.14639 0.0
H433 H 0.11685 0.82163 0.23302 0.0
H434 H 0.18464 0.75572 0.1842 0.0
H435 H 0.14661 0.79251 0.26938 0.0
H436 H 0.12729 0.70744 0.04972 0.0
H437 H 0.05907 0.69385 0.12171 0.0
H438 H 1.01003 0.88413 0.23101 0.0
H439 H 1.01853 0.78456 0.23021 0.0
Li440 Li 0.53613 0.85322 0.51116 0.0
Li441 Li 0.48973 0.80928 0.46168 0.0
Li442 Li 0.5271 0.78237 0.50759 0.0
Li443 Li 0.55075 0.81662 0.46492 0.0
C444 C 0.47763 0.82303 0.5388 0.0
N445 N 0.44571 0.84641 0.5884 0.0
C446 C 0.45053 0.83435 0.52915 0.0
C447 C 0.48835 0.82329 0.57359 0.0
C448 C 0.43472 0.84611 0.55464 0.0
C449 C 0.47191 0.83528 0.5983 0.0
C450 C 0.53386 0.86552 0.43431 0.0
C451 C 0.53262 0.86324 0.37322 0.0
N452 N 0.54867 0.89695 0.37942 0.0
C453 C 0.55019 0.90018 0.44006 0.0
C454 C 0.52485 0.84692 0.40062 0.0
C455 C 0.55751 0.91559 0.41197 0.0
C456 C 0.57686 0.9269 0.53798 0.0
N457 N 0.54524 0.90436 0.53287 0.0
C458 C 0.524 0.95211 0.54375 0.0
C459 C 0.51905 0.91686 0.5358 0.0
C460 C 0.55629 0.97592 0.54851 0.0
C461 C 0.58285 0.96228 0.54583 0.0
H462 H 0.59765 0.91774 0.53428 0.0
H463 H 0.49379 0.89962 0.53057 0.0
C464 C 0.42276 0.78171 0.41205 0.0
N465 N 0.44819 0.80933 0.43007 0.0
C466 C 0.39706 0.78512 0.38757 0.0
C467 C 0.4238 0.84499 0.40016 0.0
C468 C 0.44835 0.84061 0.42488 0.0
C469 C 0.39761 0.8171 0.38083 0.0
H470 H 0.42271 0.75689 0.41591 0.0
H471 H 0.46814 0.86251 0.43951 0.0
C472 C 0.60132 0.82605 0.51563 0.0
N473 N 0.66653 0.82859 0.51117 0.0
C474 C 0.60815 0.79757 0.50002 0.0
C475 C 0.62776 0.8556 0.52963 0.0
C476 C 0.64125 0.79941 0.49784 0.0
C477 C 0.66055 0.85642 0.52702 0.0
C478 C 0.50996 0.74742 0.4293 0.0
C479 C 0.52399 0.72226 0.43566 0.0
C480 C 0.49128 0.74466 0.39675 0.0
C481 C 0.5188 0.69459 0.40943 0.0
C482 C 0.48704 0.7168 0.37103 0.0
N483 N 0.50067 0.69248 0.37789 0.0
C484 C 0.50702 0.70706 0.51881 0.0
C485 C 0.56181 0.73893 0.54593 0.0
C486 C 0.51226 0.67702 0.52793 0.0
N487 N 0.53168 0.73786 0.52744 0.0
C488 C 0.56809 0.70957 0.55525 0.0
C489 C 0.54345 0.67732 0.54624 0.0
H490 H 0.48317 0.70516 0.50367 0.0
H491 H 0.58186 0.76264 0.55296 0.0
C492 C 0.60667 0.85394 0.44075 0.0
N493 N 0.58472 0.82227 0.43594 0.0
C494 C 0.63149 0.86141 0.42058 0.0
C495 C 0.61171 0.80324 0.39153 0.0
C496 C 0.58693 0.79698 0.41198 0.0
C497 C 0.63423 0.8359 0.39551 0.0
H498 H 0.60482 0.87354 0.46032 0.0
H499 H 0.56959 0.77194 0.40859 0.0
O500 O 0.49388 0.81213 0.51432 0.0
O501 O 0.52673 0.84982 0.46148 0.0
O502 O 0.56886 0.82494 0.51677 0.0
O503 O 0.51269 0.77343 0.45541 0.0
H504 H 0.44199 0.8343 0.50228 0.0
H505 H 0.50931 0.81455 0.5814 0.0
H506 H 0.4138 0.8551 0.5476 0.0
H507 H 0.47997 0.83576 0.62536 0.0
H508 H 0.52593 0.8491 0.34704 0.0
H509 H 0.55722 0.91503 0.46588 0.0
H510 H 0.51224 0.82013 0.39573 0.0
H511 H 0.57024 0.94237 0.41607 0.0
H512 H 0.50236 0.96059 0.54522 0.0
H513 H 0.60831 0.97889 0.54896 0.0
H514 H 0.3776 0.76287 0.37306 0.0
H515 H 0.42527 0.8702 0.39636 0.0
H516 H 0.58798 0.77451 0.489 0.0
H517 H 0.62306 0.87763 0.54241 0.0
H518 H 0.64682 0.7777 0.48539 0.0
H519 H 0.68126 0.87916 0.53762 0.0
H520 H 0.53856 0.72393 0.46061 0.0
H521 H 0.47981 0.76357 0.39146 0.0
H522 H 0.52907 0.6747 0.41422 0.0
H523 H 0.4726 0.71434 0.34574 0.0
H524 H 0.49205 0.65346 0.51976 0.0
H525 H 0.59272 0.71226 0.56922 0.0
H526 H 0.64867 0.88679 0.42491 0.0
H527 H 0.61293 0.78283 0.37244 0.0
Li528 Li 0.6154 0.38924 0.62133 0.0
Li529 Li 0.65269 0.36304 0.6632 0.0
Li530 Li 0.61058 0.31717 0.61635 0.0
Li531 Li 0.59334 0.35323 0.66343 0.0
C532 C 0.68067 0.37095 0.60538 0.0
N533 N 0.74687 0.39291 0.59777 0.0
C534 C 0.70079 0.40372 0.62052 0.0
C535 C 0.69398 0.34952 0.58587 0.0
C536 C 0.73427 0.41429 0.61653 0.0
C537 C 0.72756 0.3611 0.58235 0.0
C538 C 0.6227 0.41546 0.7015 0.0
C539 C 0.61634 0.42127 0.76124 0.0
N540 N 0.60846 0.44994 0.75897 0.0
C541 C 0.61433 0.4449 0.69976 0.0
C542 C 0.62357 0.4035 0.73246 0.0
C543 C 0.60728 0.462 0.72911 0.0
C544 C 0.58092 0.43166 0.57904 0.0
N545 N 0.6091 0.43321 0.60152 0.0
C546 C 0.62632 0.4948 0.60628 0.0
C547 C 0.63184 0.46464 0.61446 0.0
C548 C 0.59712 0.49405 0.5838 0.0
C549 C 0.57466 0.46121 0.56993 0.0
H550 H 0.56237 0.4074 0.56848 0.0
H551 H 0.65416 0.46682 0.63249 0.0
C552 C 0.71865 0.35168 0.67922 0.0
N553 N 0.69679 0.36598 0.69261 0.0
C554 C 0.74529 0.34674 0.70082 0.0
C555 C 0.72698 0.371 0.75002 0.0
C556 C 0.70136 0.37642 0.72748 0.0
C557 C 0.74918 0.35545 0.73692 0.0
H558 H 0.7144 0.34204 0.65189 0.0
H559 H 0.68415 0.38752 0.73824 0.0
C560 C 0.54209 0.33571 0.61 0.0
N561 N 0.4735 0.31897 0.60524 0.0
C562 C 0.52225 0.30194 0.60262 0.0
C563 C 0.52711 0.36098 0.61503 0.0
C564 C 0.48758 0.29397 0.6004 0.0
C565 C 0.49236 0.352 0.61249 0.0
C566 C 0.6339 0.30485 0.68686 0.0
C567 C 0.65312 0.28612 0.67311 0.0
C568 C 0.63144 0.30721 0.72178 0.0
C569 C 0.66952 0.27008 0.69449 0.0
C570 C 0.64825 0.29081 0.74232 0.0
N571 N 0.66679 0.27275 0.72837 0.0
C572 C 0.61754 0.25208 0.574 0.0
C573 C 0.58027 0.24436 0.61321 0.0
C574 C 0.61348 0.21689 0.56761 0.0
N575 N 0.60111 0.26563 0.59674 0.0
C576 C 0.57558 0.20926 0.6076 0.0
C577 C 0.5925 0.1945 0.58479 0.0
H578 H 0.6348 0.26854 0.56146 0.0
H579 H 0.56796 0.25479 0.63206 0.0
C580 C 0.54401 0.36999 0.70105 0.0
N581 N 0.55856 0.34617 0.69143 0.0
C582 C 0.52038 0.36433 0.72285 0.0
C583 C 0.52554 0.30899 0.72287 0.0
C584 C 0.54915 0.31579 0.70123 0.0
C585 C 0.5111 0.33359 0.73448 0.0
H586 H 0.55099 0.39361 0.69218 0.0
H587 H 0.56011 0.29675 0.69232 0.0
O588 O 0.64822 0.35985 0.61011 0.0
O589 O 0.6299 0.39845 0.67307 0.0
O590 O 0.576 0.34401 0.61188 0.0
O591 O 0.61824 0.32135 0.66641 0.0
H592 H 0.69075 0.42058 0.63566 0.0
H593 H 0.67865 0.32412 0.57393 0.0
H594 H 0.75026 0.43946 0.62841 0.0
H595 H 0.73833 0.34476 0.56753 0.0
H596 H 0.61672 0.41215 0.78528 0.0
H597 H 0.61306 0.45438 0.67602 0.0
H598 H 0.62884 0.38022 0.734 0.0
H599 H 0.60077 0.48481 0.72813 0.0
H600 H 0.64486 0.51878 0.61811 0.0
H601 H 0.55163 0.45818 0.55258 0.0
H602 H 0.76152 0.33444 0.68937 0.0
H603 H 0.72904 0.3785 0.77761 0.0
H604 H 0.53348 0.28213 0.59842 0.0
H605 H 0.5422 0.38723 0.62112 0.0
H606 H 0.47185 0.26795 0.59469 0.0
H607 H 0.4804 0.37128 0.61632 0.0
H608 H 0.65601 0.28461 0.64639 0.0
H609 H 0.61685 0.32163 0.73302 0.0
H610 H 0.68464 0.25571 0.6842 0.0
H611 H 0.64661 0.29251 0.76938 0.0
H612 H 0.62729 0.20744 0.54972 0.0
H613 H 0.55907 0.19385 0.62172 0.0
H614 H 0.51003 0.38413 0.73101 0.0
H615 H 0.51853 0.28456 0.73021 0.0
Li616 Li 0.03613 0.35322 1.01116 0.0
Li617 Li 0.98974 0.30928 0.96168 0.0
Li618 Li 1.0271 0.28237 1.00759 0.0
Li619 Li 0.05076 0.31662 0.96492 0.0
C620 C 0.97764 0.32303 0.0388 0.0
N621 N 0.94571 0.34641 0.0884 0.0
C622 C 0.95053 0.33435 0.02915 0.0
C623 C 0.98836 0.32329 0.07359 0.0
C624 C 0.93473 0.34611 0.05464 0.0
C625 C 0.97191 0.33528 0.0983 0.0
C626 C 0.03386 0.36552 0.93431 0.0
C627 C 0.03262 0.36324 0.87322 0.0
N628 N 0.04868 0.39695 0.87942 0.0
C629 C 0.05019 0.40018 0.94006 0.0
C630 C 1.02485 0.34692 0.90062 0.0
C631 C 0.05751 0.41559 0.91197 0.0
C632 C 0.07686 0.4269 0.03798 0.0
N633 N 0.04524 0.40436 0.03287 0.0
C634 C 1.02401 0.45211 0.04376 0.0
C635 C 1.01906 0.41686 0.0358 0.0
C636 C 0.05629 0.47593 0.04851 0.0
C637 C 0.08286 0.46229 0.04582 0.0
H638 H 0.09765 0.41774 0.03427 0.0
H639 H 0.99379 0.39963 0.03058 0.0
C640 C 0.92276 0.28171 0.91205 0.0
N641 N 0.94819 0.30933 0.93007 0.0
C642 C 0.89706 0.28512 0.88756 0.0
C643 C 0.9238 0.345 0.90016 0.0
C644 C 0.94836 0.34061 0.92488 0.0
C645 C 0.89762 0.3171 0.88083 0.0
H646 H 0.92272 0.25689 0.91591 0.0
H647 H 0.96814 0.36251 0.93951 0.0
C648 C 0.10132 0.32605 1.01563 0.0
N649 N 0.16653 0.3286 1.01117 0.0
C650 C 0.10815 0.29757 1.00002 0.0
C651 C 0.12776 0.3556 0.02963 0.0
C652 C 0.14125 0.29942 0.99784 0.0
C653 C 0.16056 0.35642 0.02703 0.0
C654 C 1.00997 0.24742 0.92931 0.0
C655 C 1.024 0.22227 0.93566 0.0
C656 C 0.99129 0.24466 0.89675 0.0
C657 C 1.01881 0.1946 0.90943 0.0
C658 C 0.98705 0.2168 0.87104 0.0
N659 N 1.00068 0.19249 0.8779 0.0
C660 C 1.00702 0.20706 0.01881 0.0
C661 C 0.06181 0.23893 0.04593 0.0
C662 C 1.01226 0.17703 0.02793 0.0
N663 N 1.03168 0.23787 0.02744 0.0
C664 C 0.06809 0.20957 0.05525 0.0
C665 C 0.04345 0.17732 0.04624 0.0
H666 H 0.98317 0.20517 1.00367 0.0
H667 H 0.08186 0.26264 0.05296 0.0
C668 C 0.10668 0.35394 0.94075 0.0
N669 N 0.08472 0.32227 0.93594 0.0
C670 C 0.13149 0.36141 0.92058 0.0
C671 C 0.11172 0.30324 0.89153 0.0
C672 C 0.08693 0.29698 0.91198 0.0
C673 C 0.13423 0.33591 0.89551 0.0
H674 H 0.10482 0.37355 0.96032 0.0
H675 H 0.0696 0.27194 0.90859 0.0
O676 O 0.99388 0.31214 1.01432 0.0
O677 O 1.02674 0.34982 0.96148 0.0
O678 O 0.06886 0.32494 1.01678 0.0
O679 O 1.01269 0.27344 0.95541 0.0
H680 H 0.94199 0.3343 1.00228 0.0
H681 H 1.00931 0.31456 0.0814 0.0
H682 H 0.9138 0.3551 0.0476 0.0
H683 H 0.97997 0.33576 0.12536 0.0
H684 H 1.02593 0.34909 0.84704 0.0
H685 H 0.05723 0.41503 0.96588 0.0
H686 H 1.01224 0.32013 0.89573 0.0
H687 H 0.07024 0.44237 0.91607 0.0
H688 H 1.00236 0.46059 0.04523 0.0
H689 H 0.10832 0.47889 0.04896 0.0
H690 H 0.87761 0.26287 0.87306 0.0
H691 H 0.92527 0.3702 0.89636 0.0
H692 H 0.08798 0.27451 0.989 0.0
H693 H 0.12306 0.37763 0.04242 0.0
H694 H 0.14683 0.27771 0.9854 0.0
H695 H 0.18126 0.37917 0.03762 0.0
H696 H 0.03857 0.22393 0.96061 0.0
H697 H 0.97981 0.26357 0.89146 0.0
H698 H 1.02908 0.17471 0.91422 0.0
H699 H 0.97261 0.21433 0.84574 0.0
H700 H 0.99205 0.15346 0.01976 0.0
H701 H 0.09272 0.21226 0.06922 0.0
H702 H 0.14867 0.38679 0.92492 0.0
H703 H 0.11293 0.28284 0.87244 0.0
Li704 Li 0.43792 0.07788 0.38802 0.0
Li705 Li 0.38511 0.03315 0.37177 0.0
Li706 Li 0.41466 0.05781 0.32839 0.0
Li707 Li 0.38711 0.088 0.36479 0.0
C708 C 0.44714 1.01473 0.34542 0.0
N709 N 0.48224 0.97886 0.31073 0.0
C710 C 0.43729 0.97963 0.34107 0.0
C711 C 0.47482 0.03146 0.33185 0.0
C712 C 0.45554 0.96202 0.32377 0.0
C713 C 0.49208 1.01291 0.31426 0.0
C714 C 0.38344 0.05775 0.43374 0.0
C715 C 0.33584 0.03156 0.4587 0.0
N716 N 0.35665 0.02457 0.48354 0.0
C717 C 0.40429 0.04996 0.45933 0.0
C718 C 0.34889 0.04825 0.43327 0.0
C719 C 0.3903 0.03332 0.48435 0.0
C720 C 0.47705 0.11287 0.45105 0.0
N721 N 0.47757 0.0936 0.42093 0.0
C722 C 0.52681 0.08283 0.44563 0.0
C723 C 0.50269 0.08017 0.41725 0.0
C724 C 0.5244 0.099 0.47792 0.0
C725 C 0.5004 0.11584 0.48027 0.0
H726 H 0.4566 0.12311 0.45313 0.0
H727 H 0.50267 0.06506 0.39322 0.0
C728 C 0.32947 0.97714 0.35796 0.0
N729 N 0.35954 0.99148 0.37939 0.0
C730 C 0.31555 0.94241 0.35027 0.0
C731 C 0.36151 0.93821 0.39057 0.0
C732 C 0.37467 0.97326 0.39748 0.0
C733 C 0.33307 0.92281 0.36477 0.0
H734 H 0.31849 0.99213 0.34343 0.0
H735 H 0.39908 0.98542 0.4136 0.0
C736 C 0.45774 0.13393 0.36627 0.0
N737 N 0.50983 0.19181 0.3963 0.0
C738 C 0.45224 0.159 0.38951 0.0
C739 C 0.48971 0.13826 0.35831 0.0
C740 C 0.47891 0.18809 0.40441 0.0
C741 C 0.51572 0.16771 0.37377 0.0
C742 C 0.3414 0.0516 0.30906 0.0
C743 C 0.3464 0.06106 0.27739 0.0
C744 C 0.31061 0.04891 0.31954 0.0
C745 C 0.32061 0.06772 0.25685 0.0
C746 C 0.28546 0.0558 0.29826 0.0
N747 N 0.29094 0.06497 0.26762 0.0
C748 C 0.41414 1.01543 0.26812 0.0
C749 C 0.44458 0.07292 0.27141 0.0
C750 C 0.42636 1.00616 0.23878 0.0
N751 N 0.42449 0.04814 0.28437 0.0
C752 C 0.45665 0.06485 0.24152 0.0
C753 C 0.44816 0.03094 0.22539 0.0
H754 H 0.39811 0.99638 0.27925 0.0
H755 H 0.45224 0.09868 0.28508 0.0
C756 C 0.33591 0.11727 0.37812 0.0
N757 N 0.36206 0.11744 0.36157 0.0
C758 C 0.31201 0.1316 0.36563 0.0
C759 C 0.3442 0.1478 0.32132 0.0
C760 C 0.36734 0.13343 0.33466 0.0
C761 C 0.31545 0.14569 0.33593 0.0
H762 H 0.33235 0.10415 0.39935 0.0
H763 H 0.38819 0.13268 0.32188 0.0
O764 O 0.42979 0.03253 0.36272 0.0
O765 O 0.39668 0.07431 0.40912 0.0
O766 O 0.43204 0.10507 0.35181 0.0
O767 O 0.36649 0.0452 0.32973 0.0
H768 H 0.4159 0.96605 0.35102 0.0
H769 H 0.48256 0.05852 0.33438 0.0
H770 H 0.44859 0.93496 0.32084 0.0
H771 H 0.51329 0.02561 0.30341 0.0
H772 H 0.30915 0.02405 0.4586 0.0
H773 H 0.43094 0.05623 0.45972 0.0
H774 H 0.33221 0.05314 0.41316 0.0
H775 H 0.40617 0.0272 0.5043 0.0
H776 H 0.54517 0.06983 0.44282 0.0
H777 H 0.4982 0.12911 0.50479 0.0
H778 H 0.29379 0.93101 0.32988 0.0
H779 H 0.3759 0.92353 0.4015 0.0
H780 H 0.42773 0.15592 0.3962 0.0
H781 H 0.49445 0.11906 0.34051 0.0
H782 H 0.47505 0.20768 0.4225 0.0
H783 H 0.5406 0.17138 0.36791 0.0
H784 H 0.36998 0.06361 0.2688 0.0
H785 H 0.30638 0.04231 0.34422 0.0
H786 H 0.32424 0.07519 0.23238 0.0
H787 H 0.26167 0.0541 0.30625 0.0
H788 H 0.41972 0.97989 0.22736 0.0
H789 H 0.47373 0.08467 0.23215 0.0
H790 H 0.2904 0.13023 0.37788 0.0
H791 H 0.34828 0.1596 0.29914 0.0
Li792 Li 0.30969 0.26586 0.59016 0.0
Li793 Li 0.33221 0.2221 0.56174 0.0
Li794 Li 0.30899 0.2587 0.52499 0.0
Li795 Li 0.27246 0.2161 0.54993 0.0
C796 C 0.36995 0.30244 0.58376 0.0
N797 N 0.40819 0.36275 0.62616 0.0
C798 C 0.39393 0.30291 0.61165 0.0
C799 C 0.36614 0.3327 0.5768 0.0
C800 C 0.41259 0.33361 0.63316 0.0
C801 C 0.3857 0.36294 0.59853 0.0
C802 C 0.28351 0.20236 0.61557 0.0
C803 C 0.27086 0.15763 0.64794 0.0
N804 N 0.24612 0.16861 0.65892 0.0
C805 C 0.25796 0.21321 0.62717 0.0
C806 C 0.29004 0.17434 0.62597 0.0
C807 C 0.23934 0.19581 0.64909 0.0
C808 C 0.2915 0.30435 0.6492 0.0
N809 N 0.31397 0.28973 0.63793 0.0
C810 C 0.34 0.29456 0.69669 0.0
C811 C 0.33758 0.28439 0.66114 0.0
C812 C 0.31704 0.30934 0.70924 0.0
C813 C 0.29258 0.31434 0.68484 0.0
H814 H 0.27162 0.30676 0.63075 0.0
H815 H 0.3536 0.27054 0.65217 0.0
C816 C 0.36982 0.17872 0.54348 0.0
N817 N 0.36371 0.19903 0.56982 0.0
C818 C 0.39015 0.15881 0.5504 0.0
C819 C 0.39853 0.18222 0.61123 0.0
C820 C 0.37779 0.2014 0.60316 0.0
C821 C 0.40448 0.16017 0.58471 0.0
H822 H 0.35834 0.17746 0.5172 0.0
H823 H 0.37209 0.21751 0.62357 0.0
C824 C 0.26287 0.28879 0.54152 0.0
N825 N 0.24264 0.34035 0.52054 0.0
C826 C 0.23823 0.2821 0.51213 0.0
C827 C 0.27731 0.32167 0.56015 0.0
C828 C 0.2283 0.30855 0.50196 0.0
C829 C 0.26676 0.34743 0.54911 0.0
C830 C 0.27848 0.1826 0.49287 0.0
C831 C 0.25358 0.18849 0.47024 0.0
C832 C 0.27955 0.14978 0.49199 0.0
C833 C 0.2302 0.16139 0.44696 0.0
C834 C 0.25572 0.12335 0.46832 0.0
N835 N 0.23175 0.12966 0.44648 0.0
C836 C 0.31508 0.30851 0.47799 0.0
C837 C 0.31764 0.25519 0.45382 0.0
C838 C 0.3189 0.31946 0.44648 0.0
N839 N 0.31443 0.27669 0.48131 0.0
C840 C 0.32087 0.26491 0.4217 0.0
C841 C 0.32166 0.29753 0.41753 0.0
H842 H 0.31255 0.32554 0.49969 0.0
H843 H 0.31769 0.23018 0.45664 0.0
C844 C 0.20227 0.19467 0.54358 0.0
N845 N 0.22935 0.18357 0.546 0.0
C846 C 0.17109 0.1737 0.54678 0.0
C847 C 0.19596 0.12988 0.55423 0.0
C848 C 0.22672 0.15173 0.55073 0.0
C849 C 0.16772 0.14101 0.55288 0.0
H850 H 0.20519 0.2203 0.54063 0.0
H851 H 0.24885 0.14379 0.55337 0.0
O852 O 0.3495 0.27246 0.5641 0.0
O853 O 0.30163 0.21864 0.59357 0.0
O854 O 0.27234 0.26312 0.5523 0.0
O855 O 0.30154 0.20887 0.51585 0.0
H856 H 0.39756 0.27974 0.61708 0.0
H857 H 0.34803 0.33281 0.55506 0.0
H858 H 0.43071 0.33427 0.65531 0.0
H859 H 0.38282 0.38653 0.59358 0.0
H860 H 0.27559 0.13588 0.65619 0.0
H861 H 0.25222 0.2345 0.61887 0.0
H862 H 0.30956 0.16547 0.61699 0.0
H863 H 0.2194 0.20384 0.65817 0.0
H864 H 0.35895 0.2895 0.71424 0.0
H865 H 0.27412 0.32534 0.69317 0.0
H866 H 0.39452 0.14245 0.52919 0.0
H867 H 0.40891 0.18382 0.63801 0.0
H868 H 0.22681 0.25676 0.49743 0.0
H869 H 0.29649 0.32728 0.58285 0.0
H870 H 0.20917 0.3038 0.47934 0.0
H871 H 0.27771 0.37303 0.56324 0.0
H872 H 0.2523 0.21373 0.47074 0.0
H873 H 0.29838 0.1447 0.50959 0.0
H874 H 0.2108 0.16558 0.4293 0.0
H875 H 0.25622 0.09782 0.46736 0.0
H876 H 0.31912 0.34484 0.44472 0.0
H877 H 0.32311 0.24711 0.40045 0.0
H878 H 0.15012 0.1835 0.54553 0.0
H879 H 0.19457 0.10494 0.55886 0.0
Li880 Li 0.18904 0.13428 0.83789 0.0
Li881 Li 0.14549 0.0978 0.86209 0.0
Li882 Li 0.18307 0.07405 0.82671 0.0
Li883 Li 0.13967 0.09654 0.79705 0.0
C884 C 0.22274 0.125 0.89579 0.0
N885 N 0.27807 0.16279 0.94521 0.0
C886 C 0.21983 0.14927 0.92196 0.0
C887 C 0.25383 0.12003 0.89473 0.0
C888 C 0.24809 0.1681 0.94671 0.0
C889 C 0.2815 0.13936 0.91995 0.0
C890 C 0.12295 0.1503 0.85095 0.0
C891 C 0.07016 0.16034 0.85402 0.0
N892 N 0.08501 0.18426 0.88292 0.0
C893 C 0.13766 0.17488 0.88075 0.0
C894 C 0.08894 0.1429 0.83745 0.0
C895 C 0.11804 0.19178 0.89654 0.0
C896 C 0.2086 0.20303 0.83663 0.0
N897 N 0.22126 0.1777 0.84171 0.0
C898 C 0.27657 0.21259 0.83991 0.0
C899 C 0.2546 0.18194 0.84364 0.0
C900 C 0.26403 0.23903 0.83416 0.0
C901 C 0.22959 0.23402 0.83302 0.0
H902 H 0.18191 0.19872 0.83379 0.0
H903 H 0.26395 0.16107 0.84631 0.0
C904 C 0.09455 0.09231 0.90801 0.0
N905 N 0.12635 0.09263 0.90509 0.0
C906 C 0.08294 0.08885 0.93935 0.0
C907 C 0.13678 0.08642 0.9646 0.0
C908 C 0.14711 0.08919 0.93266 0.0
C909 C 0.10424 0.08615 0.96845 0.0
H910 H 0.07809 0.0948 0.88608 0.0
H911 H 0.17197 0.08857 0.93004 0.0
C912 C 0.2086 0.12256 0.77621 0.0
N913 N 0.25277 0.1611 0.7414 0.0
C914 C 0.19931 0.14578 0.75868 0.0
C915 C 0.2403 0.11886 0.77596 0.0
C916 C 0.22202 0.16506 0.74126 0.0
C917 C 0.26227 0.13859 0.7582 0.0
C918 C 0.10345 0.03657 0.80228 0.0
C919 C 0.10399 1.01036 0.77687 0.0
C920 C 0.07323 0.04283 0.80526 0.0
C921 C 0.07427 0.99122 0.7543 0.0
C922 C 0.04398 0.02289 0.78244 0.0
N923 N 0.04512 0.99779 0.75758 0.0
C924 C 0.22104 0.03303 0.84869 0.0
C925 C 0.20997 0.03089 0.78831 0.0
C926 C 0.24153 1.01268 0.84447 0.0
N927 N 0.20635 0.04217 0.82084 0.0
C928 C 0.23009 1.0104 0.78287 0.0
C929 C 0.24668 1.00149 0.81121 0.0
H930 H 0.21769 0.04243 0.87428 0.0
H931 H 0.19787 0.03856 0.76667 0.0
C932 C 0.10197 0.11514 0.73884 0.0
N933 N 0.1161 0.09223 0.7495 0.0
C934 C 0.09216 0.11428 0.7033 0.0
C935 C 0.11082 0.06601 0.6904 0.0
C936 C 0.12077 0.06816 0.72586 0.0
C937 C 0.09671 0.08952 0.6784 0.0
H938 H 0.09972 0.13506 0.75775 0.0
H939 H 0.13382 0.05146 0.73443 0.0
O940 O 0.19508 0.10552 0.87199 0.0
O941 O 0.14191 0.1341 0.8346 0.0
O942 O 0.187 0.10395 0.79403 0.0
O943 O 0.13257 0.0569 0.82324 0.0
H944 H 0.19592 0.15325 0.92339 0.0
H945 H 0.25669 0.10163 0.8745 0.0
H946 H 0.24614 0.18684 0.96719 0.0
H947 H 0.3057 0.13575 0.91944 0.0
H948 H 0.0438 0.15493 0.84387 0.0
H949 H 0.16403 0.1811 0.89131 0.0
H950 H 0.07722 0.12397 0.81436 0.0
H951 H 0.12909 0.21099 0.91953 0.0
H952 H 0.30289 0.21526 0.84084 0.0
H953 H 0.21859 0.25342 0.8282 0.0
H954 H 0.05764 0.08895 0.94093 0.0
H955 H 0.15406 0.08411 0.98599 0.0
H956 H 0.17504 0.14924 0.75897 0.0
H957 H 0.24802 0.10127 0.78971 0.0
H958 H 0.21525 0.18325 0.72774 0.0
H959 H 0.28694 0.13611 0.7579 0.0
H960 H 0.12728 1.00534 0.77417 0.0
H961 H 0.07247 0.06312 0.82473 0.0
H962 H 0.07436 0.97116 0.73415 0.0
H963 H 1.02041 0.02753 0.78435 0.0
H964 H 0.25398 1.00666 0.86709 0.0
H965 H 0.23278 1.00182 0.75674 0.0
H966 H 0.08157 0.13308 0.69544 0.0
H967 H 0.11553 0.04682 0.67251 0.0
Li968 Li 0.30669 0.02223 1.01548 0.0
Li969 Li 0.33719 0.99514 0.04886 0.0
Li970 Li 0.36158 0.0303 1.00784 0.0
Li971 Li 0.31963 0.97543 0.98733 0.0
C972 C 0.34067 0.06695 0.07392 0.0
N973 N 0.32641 0.11416 0.11982 0.0
C974 C 0.329 0.05848 0.10375 0.0
C975 C 0.34523 0.09948 0.06751 0.0
C976 C 0.32189 0.08269 0.12661 0.0
C977 C 0.33778 0.12295 0.09099 0.0
C978 C 0.25793 0.95864 1.00713 0.0
C979 C 0.20384 0.91831 1.00537 0.0
N980 N 0.19202 0.92618 0.97528 0.0
C981 C 0.24523 0.96635 0.97617 0.0
C982 C 0.23707 0.93444 0.02181 0.0
C983 C 0.21185 0.94965 0.96049 0.0
C984 C 0.27913 0.07347 1.00475 0.0
N985 N 0.27662 0.04611 0.01971 0.0
C986 C 0.24574 0.0642 0.05971 0.0
C987 C 0.25919 0.0403 0.04561 0.0
C988 C 0.25042 0.09415 0.04689 0.0
C989 C 0.26583 0.09811 1.018 0.0
H990 H 0.29369 0.07748 0.98452 0.0
H991 H 0.2584 1.01859 0.05731 0.0
C992 C 0.381 0.98701 0.10308 0.0
N993 N 0.34809 0.98042 0.0897 0.0
C994 C 0.39016 0.97221 0.13025 0.0
C995 C 0.33137 0.94586 0.13061 0.0
C996 C 0.32332 0.96062 0.10293 0.0
C997 C 0.36521 0.95126 0.14431 0.0
H998 H 0.40009 1.00273 0.09172 0.0
H999 H 0.29743 0.95567 0.09134 0.0
C1000 C 0.3329 0.03417 0.9452 0.0
N1001 N 0.35447 0.06715 0.89322 0.0
C1002 C 0.32797 1.01617 0.91158 0.0
C1003 C 0.34829 0.06903 0.95222 0.0
C1004 C 0.33921 0.03327 0.88571 0.0
C1005 C 0.35917 0.08521 0.92564 0.0
C1006 C 0.37738 0.96125 0.02055 0.0
C1007 C 0.41193 0.96699 0.02386 0.0
C1008 C 0.35649 0.93019 0.02451 0.0
C1009 C 0.42504 0.94143 0.03097 0.0
C1010 C 0.37058 0.90529 0.03159 0.0
N1011 N 0.40426 0.91137 0.03466 0.0
C1012 C 0.41994 0.0816 0.02996 0.0
C1013 C 0.41983 0.0434 0.97992 0.0
C1014 C 0.45463 0.09129 0.03815 0.0
N1015 N 0.40346 0.05667 1.00251 0.0
C1016 C 0.45477 0.05268 0.98698 0.0
C1017 C 0.47195 0.07508 1.01772 0.0
H1018 H 0.4062 0.09072 0.04801 0.0
H1019 H 0.40581 0.02271 0.95907 0.0
C1020 C 0.28998 0.90673 0.94847 0.0
N1021 N 0.31303 0.93784 0.95397 0.0
C1022 C 0.29361 0.88043 0.92519 0.0
C1023 C 0.34472 0.91914 0.91528 0.0
C1024 C 0.33993 0.94433 0.9381 0.0
C1025 C 0.3214 0.88676 0.90844 0.0
H1026 H 0.26947 0.90217 0.96259 0.0
H1027 H 0.35823 0.96915 0.94406 0.0
O1028 O 0.34814 0.04367 0.05141 0.0
O1029 O 0.29057 0.97431 0.02318 0.0
O1030 O 0.32113 1.01792 0.97059 0.0
O1031 O 0.36429 0.98636 1.01455 0.0
H1032 H 0.32527 0.03344 0.10913 0.0
H1033 H 0.35411 0.10643 0.04448 0.0
H1034 H 0.31274 0.07646 0.14974 0.0
H1035 H 0.34095 0.14815 0.08624 0.0
H1036 H 0.18748 0.89951 1.01651 0.0
H1037 H 0.26076 0.98495 0.96427 0.0
H1038 H 0.24654 0.92814 0.04564 0.0
H1039 H 0.20171 0.95536 0.93654 0.0
H1040 H 0.23296 0.05992 0.08131 0.0
H1041 H 0.26923 0.12071 1.0072 0.0
H1042 H 0.41642 0.97673 0.13979 0.0
H1043 H 0.31138 0.92946 0.14037 0.0
H1044 H 0.31514 0.98936 0.90537 0.0
H1045 H 0.35193 0.08342 0.97799 0.0
H1046 H 0.33562 1.01964 0.85962 0.0
H1047 H 0.37128 0.11215 0.93077 0.0
H1048 H 0.42847 0.99103 0.02128 0.0
H1049 H 0.32975 0.92554 0.02254 0.0
H1050 H 0.45174 0.94554 0.03368 0.0
H1051 H 0.35474 0.88117 0.03481 0.0
H1052 H 0.46742 0.1085 0.06219 0.0
H1053 H 0.46762 0.03941 0.97116 0.0
H1054 H 0.27506 0.85573 0.9203 0.0
H1055 H 0.36656 0.92518 0.90307 0.0
Li1056 Li 0.31607 0.43957 0.08118 0.0
Li1057 Li 0.33627 0.40149 0.11357 0.0
Li1058 Li 0.37582 0.44531 0.08877 0.0
Li1059 Li 0.33659 0.39519 0.04779 0.0
C1060 C 0.34112 0.47572 0.14596 0.0
N1061 N 0.3239 0.5242 0.18715 0.0
C1062 C 0.32476 0.46765 0.17341 0.0
C1063 C 0.34854 0.50844 0.13944 0.0
C1064 C 0.31624 0.49249 0.19389 0.0
C1065 C 0.33978 0.53261 0.16062 0.0
C1066 C 0.2678 0.37213 0.08169 0.0
C1067 C 0.22006 0.32217 0.07339 0.0
N1068 N 0.20856 0.33704 0.09969 0.0
C1069 C 0.25563 0.38686 0.10872 0.0
C1070 C 0.24991 0.33955 0.06381 0.0
C1071 C 0.22557 0.36875 0.11737 0.0
C1072 C 0.27953 0.47175 0.0423 0.0
N1073 N 0.28475 0.46436 0.0743 0.0
C1074 C 0.25098 0.49716 0.0942 0.0
C1075 C 0.27 0.47577 0.09978 0.0
C1076 C 0.24614 0.50623 0.06171 0.0
C1077 C 0.26026 0.49263 0.03539 0.0
H1078 H 0.2908 0.46181 0.02213 0.0
H1079 H 0.27352 0.46905 0.12478 0.0
C1080 C 0.354 0.39917 0.185 0.0
N1081 N 0.33139 0.38137 0.15603 0.0
C1082 C 0.35099 0.39016 0.2174 0.0
C1083 C 0.30224 0.34343 0.19003 0.0
C1084 C 0.30598 0.35357 0.15808 0.0
C1085 C 0.32467 0.36204 0.22056 0.0
H1086 H 0.37402 0.42122 0.18319 0.0
H1087 H 0.2882 0.33933 0.13508 0.0
C1088 C 0.36331 0.46611 0.02949 0.0
N1089 N 0.40149 0.51263 0.99662 0.0
C1090 C 0.3806 0.45588 1.00461 0.0
C1091 C 0.36529 0.49999 0.03748 0.0
C1092 C 0.3998 0.47978 0.98833 0.0
C1093 C 0.38477 0.52312 0.02062 0.0
C1094 C 0.37692 0.36537 0.08423 0.0
C1095 C 0.40791 0.36096 0.08115 0.0
C1096 C 0.34933 0.33753 0.08416 0.0
C1097 C 0.41077 0.32863 0.07795 0.0
C1098 C 0.35327 0.30564 0.08116 0.0
N1099 N 0.38365 0.30187 0.07809 0.0
C1100 C 0.43028 0.50876 0.10852 0.0
C1101 C 0.43896 0.4646 0.07092 0.0
C1102 C 0.46026 0.53141 0.10405 0.0
N1103 N 0.41993 0.47621 0.09144 0.0
C1104 C 0.469 0.48625 0.06576 0.0
C1105 C 0.47979 0.52035 0.08193 0.0
H1106 H 0.41503 0.51748 0.12495 0.0
H1107 H 0.43002 0.43871 0.05736 0.0
C1108 C 0.30896 0.37782 0.97701 0.0
N1109 N 0.33174 0.37127 1.00015 0.0
C1110 C 0.30774 0.36924 0.94138 0.0
C1111 C 0.35259 0.34585 0.95329 0.0
C1112 C 0.35319 0.35522 0.98894 0.0
C1113 C 0.33016 0.35359 0.92884 0.0
H1114 H 0.29273 0.39135 0.9863 0.0
H1115 H 0.37189 0.35109 1.00751 0.0
O1116 O 0.34952 0.4517 0.12543 0.0
O1117 O 0.29745 0.38915 0.07317 0.0
O1118 O 0.34497 0.44319 0.0463 0.0
O1119 O 0.37357 0.39675 0.08645 0.0
H1120 H 0.31798 0.44237 0.17846 0.0
H1121 H 0.36027 0.51499 0.11782 0.0
H1122 H 0.30329 0.48645 0.21496 0.0
H1123 H 0.34542 0.55797 0.15578 0.0
H1124 H 0.20597 0.29689 0.05986 0.0
H1125 H 0.26956 0.41175 0.12323 0.0
H1126 H 0.25914 0.32776 0.04292 0.0
H1127 H 0.21588 0.37983 0.13828 0.0
H1128 H 0.24085 0.50703 0.11546 0.0
H1129 H 0.25648 0.49799 1.00964 0.0
H1130 H 0.36931 0.40518 0.23978 0.0
H1131 H 0.28175 0.32133 0.19078 0.0
H1132 H 0.37971 0.42989 0.99832 0.0
H1133 H 0.35205 0.50838 0.05658 0.0
H1134 H 0.41349 0.47221 0.96925 0.0
H1135 H 0.38662 0.54943 0.02667 0.0
H1136 H 0.42945 0.38226 0.08093 0.0
H1137 H 0.3251 0.34044 0.08621 0.0
H1138 H 0.43452 0.32481 0.07519 0.0
H1139 H 0.33215 0.28386 0.08111 0.0
H1140 H 0.46783 0.55732 0.11745 0.0
H1141 H 0.48326 0.47636 0.04872 0.0
H1142 H 0.28976 0.37559 0.92384 0.0
H1143 H 0.3704 0.33387 0.94506 0.0
Li1144 Li 0.81253 0.19602 0.13057 0.0
Li1145 Li 0.82065 0.14391 0.10263 0.0
Li1146 Li 0.78969 0.17622 0.07124 0.0
Li1147 Li 0.76655 0.14537 0.11311 0.0
C1148 C 0.86733 0.21488 0.1079 0.0
N1149 N 0.92529 0.26486 0.14181 0.0
C1150 C 0.89213 0.20685 0.12849 0.0
C1151 C 0.87207 0.24824 0.10432 0.0
C1152 C 0.9213 0.23249 0.14538 0.0
C1153 C 0.90147 0.27317 0.12185 0.0
C1154 C 0.7927 0.1384 0.17263 0.0
C1155 C 0.76886 0.08913 0.19616 0.0
N1156 N 0.76098 0.10865 0.2219 0.0
C1157 C 0.78398 0.15789 0.19912 0.0
C1158 C 0.78477 0.10367 0.17095 0.0
C1159 C 0.76812 0.14241 0.22385 0.0
C1160 C 0.81901 0.26073 0.16495 0.0
N1161 N 0.83032 0.23393 0.16629 0.0
C1162 C 0.85087 0.25217 0.2266 0.0
C1163 C 0.84779 0.23031 0.19581 0.0
C1164 C 0.83611 0.27794 0.22643 0.0
C1165 C 0.82191 0.28344 0.19492 0.0
H1166 H 0.80529 0.26314 0.14137 0.0
H1167 H 0.85635 0.20859 0.19604 0.0
C1168 C 0.85654 0.11661 0.06383 0.0
N1169 N 0.84664 0.11623 0.09482 0.0
C1170 C 0.8717 0.0935 0.05139 0.0
C1171 C 0.8666 0.07034 0.10343 0.0
C1172 C 0.85164 0.09419 0.115 0.0
C1173 C 0.87645 0.06962 0.07101 0.0
H1174 H 0.85175 0.13438 0.04842 0.0
H1175 H 0.84354 0.09469 0.13962 0.0
C1176 C 0.74977 0.20965 0.092 0.0
N1177 N 0.7153 0.24666 0.05942 0.0
C1178 C 0.71468 0.19951 0.08633 0.0
C1179 C 0.76716 0.23851 0.08063 0.0
C1180 C 0.69778 0.21866 0.07005 0.0
C1181 C 0.74935 0.25684 0.06426 0.0
C1182 C 0.75596 0.09983 0.04851 0.0
C1183 C 0.72357 0.0996 0.03575 0.0
C1184 C 0.76545 0.07119 0.03937 0.0
C1185 C 0.70128 0.07077 1.01385 0.0
C1186 C 0.74247 0.04292 1.01729 0.0
N1187 N 0.71111 0.0433 1.00508 0.0
C1188 C 0.80754 0.20623 1.01555 0.0
C1189 C 0.74885 0.18314 1.01232 0.0
C1190 C 0.80235 0.22012 0.98643 0.0
N1191 N 0.78093 0.18857 0.02807 0.0
C1192 C 0.74254 0.19733 0.98376 0.0
C1193 C 0.76944 0.21604 0.97049 0.0
H1194 H 0.83277 0.21037 0.0288 0.0
H1195 H 0.72814 0.16953 0.02308 0.0
C1196 C 0.71075 0.13978 0.1414 0.0
N1197 N 0.72635 0.12047 0.12435 0.0
C1198 C 0.67642 0.12758 0.13998 0.0
C1199 C 0.67624 0.07394 0.10882 0.0
C1200 C 0.71078 0.08727 0.11101 0.0
C1201 C 0.65865 0.09535 0.12088 0.0
H1202 H 0.72423 0.1659 0.15249 0.0
H1203 H 0.72434 0.07218 0.09887 0.0
O1204 O 0.83811 0.19031 0.0922 0.0
O1205 O 0.8082 0.15309 0.14808 0.0
O1206 O 0.76693 0.19135 0.1082 0.0
O1207 O 0.77827 0.12771 0.07008 0.0
H1208 H 0.88873 0.18116 0.1317 0.0
H1209 H 0.85312 0.25488 0.08851 0.0
H1210 H 0.94068 0.22669 0.16151 0.0
H1211 H 0.90521 0.29914 0.11974 0.0
H1212 H 0.76258 0.06228 0.19513 0.0
H1213 H 0.78885 0.18459 0.20033 0.0
H1214 H 0.79017 0.08795 0.15002 0.0
H1215 H 0.76129 0.15723 0.24448 0.0
H1216 H 0.86265 0.24756 0.25045 0.0
H1217 H 0.81062 0.30328 0.19372 0.0
H1218 H 0.87997 0.09468 0.02684 0.0
H1219 H 0.87016 0.05258 0.11949 0.0
H1220 H 0.70048 0.17698 0.09403 0.0
H1221 H 0.79416 0.24616 0.08344 0.0
H1222 H 0.67071 0.21127 0.0658 0.0
H1223 H 0.76259 0.279 0.05515 0.0
H1224 H 0.71538 0.12101 0.04356 0.0
H1225 H 0.79027 0.07069 0.04924 0.0
H1226 H 0.67608 0.07014 1.00398 0.0
H1227 H 0.74953 1.02064 1.00994 0.0
H1228 H 0.82382 0.23478 0.97718 0.0
H1229 H 0.71696 0.19414 0.97248 0.0
H1230 H 0.66351 0.14448 0.15011 0.0
H1231 H 0.66319 0.04878 0.09422 0.0
Li1232 Li 0.26622 0.63021 0.26916 0.0
Li1233 Li 0.23076 0.60879 0.30925 0.0
Li1234 Li 0.26272 0.57661 0.28135 0.0
Li1235 Li 0.21473 0.58574 0.24823 0.0
C1236 C 0.30993 0.64005 0.33198 0.0
N1237 N 0.37157 0.68187 0.36836 0.0
C1238 C 0.31213 0.66961 0.35423 0.0
C1239 C 0.33909 0.63166 0.32843 0.0
C1240 C 0.34354 0.69043 0.37237 0.0
C1241 C 0.37 0.65316 0.34695 0.0
C1242 C 0.1908 0.63761 0.27339 0.0
C1243 C 0.13312 0.61933 0.28092 0.0
N1244 N 0.13057 0.64991 0.27672 0.0
C1245 C 0.18763 0.6689 0.2693 0.0
C1246 C 0.16336 0.61265 0.27939 0.0
C1247 C 0.15696 0.6746 0.27101 0.0
C1248 C 0.27039 0.68361 0.23859 0.0
N1249 N 0.2907 0.67097 0.25813 0.0
C1250 C 0.33391 0.72386 0.27191 0.0
C1251 C 0.32275 0.68964 0.27283 0.0
C1252 C 0.31151 0.73832 0.25595 0.0
C1253 C 0.28031 0.71757 0.23722 0.0
H1254 H 0.24522 0.66803 0.22684 0.0
H1255 H 0.33876 0.67888 0.28752 0.0
C1256 C 0.20042 0.59466 0.36554 0.0
N1257 N 0.21422 0.61988 0.34919 0.0
C1258 C 0.18478 0.60098 0.39326 0.0
C1259 C 0.19812 0.65919 0.38682 0.0
C1260 C 0.21377 0.65179 0.35936 0.0
C1261 C 0.18333 0.63357 0.40408 0.0
H1262 H 0.20099 0.56952 0.35654 0.0
H1263 H 0.22485 0.67126 0.3456 0.0
C1264 C 0.27915 0.59595 0.21163 0.0
N1265 N 0.31995 0.61137 0.16357 0.0
C1266 C 0.26586 0.58582 0.17631 0.0
C1267 C 0.31339 0.61306 0.22244 0.0
C1268 C 0.28685 0.59398 0.15242 0.0
C1269 C 0.33354 0.62089 0.19777 0.0
C1270 C 0.20148 0.52604 0.27355 0.0
C1271 C 0.20509 0.51323 0.24037 0.0
C1272 C 0.18561 0.50394 0.29365 0.0
C1273 C 0.19268 0.47854 0.22786 0.0
C1274 C 0.17368 0.46941 0.28026 0.0
N1275 N 0.1774 0.45753 0.24791 0.0
C1276 C 0.28616 0.53848 0.32103 0.0
C1277 C 0.31217 0.54603 0.27213 0.0
C1278 C 0.30936 0.52402 0.33431 0.0
N1279 N 0.28824 0.54928 0.2907 0.0
C1280 C 0.33627 0.53214 0.2847 0.0
C1281 C 0.33521 0.52129 0.31639 0.0
H1282 H 0.26712 0.54224 0.33538 0.0
H1283 H 0.31352 0.55573 0.24856 0.0
C1284 C 0.18951 0.597 0.19015 0.0
N1285 N 0.17951 0.57479 0.21095 0.0
C1286 C 0.16687 0.59988 0.16347 0.0
C1287 C 0.12333 0.55654 0.17969 0.0
C1288 C 0.14725 0.55448 0.20648 0.0
C1289 C 0.13321 0.57993 0.1582 0.0
H1290 H 0.21503 0.61357 0.19536 0.0
H1291 H 0.13986 0.53797 0.22443 0.0
O1292 O 0.27933 0.61905 0.31453 0.0
O1293 O 0.22085 0.63185 0.27214 0.0
O1294 O 0.25883 0.5882 0.23535 0.0
O1295 O 0.21379 0.55986 0.28679 0.0
H1296 H 0.28979 0.67636 0.35735 0.0
H1297 H 0.33805 0.60903 0.31137 0.0
H1298 H 0.34573 0.71336 0.38969 0.0
H1299 H 0.39274 0.64704 0.34428 0.0
H1300 H 0.1117 0.60023 0.2855 0.0
H1301 H 0.20869 0.68867 0.26504 0.0
H1302 H 0.16538 0.58839 0.28295 0.0
H1303 H 0.15417 0.6987 0.26788 0.0
H1304 H 0.35825 0.73927 0.2866 0.0
H1305 H 0.26258 0.72799 0.22442 0.0
H1306 H 0.17325 0.58037 0.40551 0.0
H1307 H 0.19757 0.68458 0.39439 0.0
H1308 H 0.23966 0.57152 0.16738 0.0
H1309 H 0.32425 0.62028 0.24963 0.0
H1310 H 0.27685 0.58639 0.12503 0.0
H1311 H 0.36002 0.63443 0.20581 0.0
H1312 H 0.21722 0.52973 0.22429 0.0
H1313 H 0.18269 0.51333 0.31942 0.0
H1314 H 0.19526 0.46832 0.20222 0.0
H1315 H 0.16156 0.45205 0.29565 0.0
H1316 H 0.30697 0.51503 0.35829 0.0
H1317 H 0.35579 0.53048 0.27012 0.0
H1318 H 0.17577 0.61818 0.14759 0.0
H1319 H 0.09754 0.54066 0.17626 0.0
Li1320 Li 0.81607 0.93957 0.58118 0.0
Li1321 Li 0.83627 0.90149 0.61357 0.0
Li1322 Li 0.87582 0.94531 0.58877 0.0
Li1323 Li 0.83659 0.89519 0.54779 0.0
C1324 C 0.84112 0.97572 0.64596 0.0
N1325 N 0.82389 0.0242 0.68715 0.0
C1326 C 0.82476 0.96765 0.67341 0.0
C1327 C 0.84854 1.00844 0.63944 0.0
C1328 C 0.81624 0.99249 0.69389 0.0
C1329 C 0.83978 0.03261 0.66062 0.0
C1330 C 0.7678 0.87213 0.58169 0.0
C1331 C 0.72006 0.82217 0.57339 0.0
N1332 N 0.70856 0.83704 0.59969 0.0
C1333 C 0.75564 0.88686 0.60873 0.0
C1334 C 0.74991 0.83955 0.56381 0.0
C1335 C 0.72557 0.86876 0.61737 0.0
C1336 C 0.77953 0.97175 0.54229 0.0
N1337 N 0.78475 0.96436 0.5743 0.0
C1338 C 0.75098 0.99716 0.5942 0.0
C1339 C 0.77 0.97577 0.59978 0.0
C1340 C 0.74614 1.00622 0.56171 0.0
C1341 C 0.76026 0.99263 0.53539 0.0
H1342 H 0.7908 0.96181 0.52213 0.0
H1343 H 0.77352 0.96905 0.62478 0.0
C1344 C 0.854 0.89917 0.685 0.0
N1345 N 0.83139 0.88137 0.65603 0.0
C1346 C 0.85099 0.89016 0.7174 0.0
C1347 C 0.80224 0.84343 0.69003 0.0
C1348 C 0.80598 0.85357 0.65808 0.0
C1349 C 0.82467 0.86204 0.72056 0.0
H1350 H 0.87402 0.92122 0.68319 0.0
H1351 H 0.7882 0.83933 0.63508 0.0
C1352 C 0.86331 0.96611 0.52949 0.0
N1353 N 0.9015 1.01263 0.49662 0.0
C1354 C 0.8806 0.95588 0.50461 0.0
C1355 C 0.86529 0.99999 0.53748 0.0
C1356 C 0.8998 0.97978 0.48833 0.0
C1357 C 0.88477 0.02312 0.52062 0.0
C1358 C 0.87692 0.86537 0.58423 0.0
C1359 C 0.90791 0.86096 0.58115 0.0
C1360 C 0.84933 0.83753 0.58416 0.0
C1361 C 0.91077 0.82863 0.57795 0.0
C1362 C 0.85328 0.80564 0.58116 0.0
N1363 N 0.88365 0.80188 0.57809 0.0
C1364 C 0.93028 1.00877 0.60852 0.0
C1365 C 0.93896 0.9646 0.57092 0.0
C1366 C 0.96026 0.03141 0.60405 0.0
N1367 N 0.91993 0.97621 0.59144 0.0
C1368 C 0.969 0.98625 0.56577 0.0
C1369 C 0.97979 1.02035 0.58193 0.0
H1370 H 0.91502 1.01748 0.62495 0.0
H1371 H 0.93002 0.93871 0.55736 0.0
C1372 C 0.80896 0.87782 0.47701 0.0
N1373 N 0.83174 0.87127 0.50015 0.0
C1374 C 0.80774 0.86924 0.44138 0.0
C1375 C 0.85259 0.84585 0.45329 0.0
C1376 C 0.85319 0.85522 0.48894 0.0
C1377 C 0.83016 0.85359 0.42884 0.0
H1378 H 0.79273 0.89135 0.4863 0.0
H1379 H 0.87189 0.85109 0.50751 0.0
O1380 O 0.84952 0.9517 0.62543 0.0
O1381 O 0.79745 0.88915 0.57317 0.0
O1382 O 0.84497 0.94319 0.5463 0.0
O1383 O 0.87357 0.89675 0.58645 0.0
H1384 H 0.81798 0.94237 0.67846 0.0
H1385 H 0.86027 1.01499 0.61781 0.0
H1386 H 0.80329 0.98645 0.71496 0.0
H1387 H 0.84542 0.05797 0.65577 0.0
H1388 H 0.70597 0.79689 0.55986 0.0
H1389 H 0.76956 0.91175 0.62323 0.0
H1390 H 0.75914 0.82776 0.54292 0.0
H1391 H 0.71588 0.87983 0.63829 0.0
H1392 H 0.74085 1.00703 0.61546 0.0
H1393 H 0.75648 0.99799 0.50964 0.0
H1394 H 0.86931 0.90518 0.73978 0.0
H1395 H 0.78175 0.82133 0.69078 0.0
H1396 H 0.87972 0.92989 0.49832 0.0
H1397 H 0.85205 1.00838 0.55658 0.0
H1398 H 0.91349 0.97221 0.46925 0.0
H1399 H 0.88662 0.04943 0.52666 0.0
H1400 H 0.92945 0.88226 0.58093 0.0
H1401 H 0.8251 0.84044 0.58621 0.0
H1402 H 0.93452 0.82481 0.57519 0.0
H1403 H 0.83215 0.78386 0.58111 0.0
H1404 H 0.96783 0.05733 0.61745 0.0
H1405 H 0.98327 0.97636 0.54872 0.0
H1406 H 0.78976 0.87559 0.42384 0.0
H1407 H 0.8704 0.83387 0.44506 0.0
Li1408 Li 1.0126 0.06893 0.34069 0.0
Li1409 Li 0.96231 0.03012 0.29969 0.0
Li1410 Li 1.00522 0.07055 0.27507 0.0
Li1411 Li 0.96789 0.0898 0.30987 0.0
C1412 C 0.04186 0.02903 0.30255 0.0
N1413 N 0.10519 0.02233 0.30938 0.0
C1414 C 0.04643 0.9986 0.30792 0.0
C1415 C 0.06946 0.05605 0.30063 0.0
C1416 C 0.07868 0.99577 0.31149 0.0
C1417 C 0.10126 0.05211 0.30398 0.0
C1418 C 0.94276 0.04029 0.36026 0.0
C1419 C 0.88648 1.01669 0.37029 0.0
N1420 N 0.89797 0.99956 0.39292 0.0
C1421 C 0.95401 0.02254 0.38373 0.0
C1422 C 0.90872 0.03743 0.35355 0.0
C1423 C 0.93099 1.00207 0.39992 0.0
C1424 C 1.02988 0.09675 0.41121 0.0
N1425 N 0.03674 0.07393 0.38792 0.0
C1426 C 0.06199 0.05343 0.43456 0.0
C1427 C 0.05292 0.05266 0.39895 0.0
C1428 C 0.05382 0.07583 0.45914 0.0
C1429 C 0.03815 0.09813 0.44679 0.0
H1430 H 1.01627 0.11283 0.40206 0.0
H1431 H 0.05731 0.03393 0.38027 0.0
C1432 C 0.8989 0.97645 0.28031 0.0
N1433 N 0.93162 0.98584 0.29598 0.0
C1434 C 0.87613 0.94649 0.28463 0.0
C1435 C 0.92152 0.9358 0.31972 0.0
C1436 C 0.94329 0.96585 0.31475 0.0
C1437 C 0.88725 0.92608 0.30519 0.0
H1438 H 0.89016 0.99262 0.26541 0.0
H1439 H 0.9693 0.97414 0.32735 0.0
C1440 C 0.03747 0.13825 0.31041 0.0
N1441 N 0.07767 0.19773 0.29726 0.0
C1442 C 1.02483 0.15427 0.28601 0.0
C1443 C 0.07052 0.15243 0.32814 0.0
C1444 C 0.04553 0.1844 0.27981 0.0
C1445 C 0.0905 0.18247 0.32102 0.0
C1446 C 0.93127 0.06717 0.24562 0.0
C1447 C 0.9391 0.08405 0.21852 0.0
C1448 C 0.89892 0.06025 0.2532 0.0
C1449 C 0.91433 0.09321 0.19919 0.0
C1450 C 0.8749 0.06997 0.23337 0.0
N1451 N 0.88301 0.08604 0.20696 0.0
C1452 C 1.00588 0.0536 0.20298 0.0
C1453 C 0.05109 0.10224 0.2293 0.0
C1454 C 1.01367 0.05719 0.17015 0.0
N1455 N 1.02406 0.07625 0.23189 0.0
C1456 C 0.05997 0.1066 0.1969 0.0
C1457 C 0.04091 0.08417 0.16648 0.0
H1458 H 0.98443 0.03313 0.20523 0.0
H1459 H 0.0657 0.11999 0.25222 0.0
C1460 C 0.9351 0.12398 0.35102 0.0
N1461 N 0.94399 0.12115 0.31936 0.0
C1462 C 0.91498 0.14376 0.35942 0.0
C1463 C 0.91492 0.15888 0.30313 0.0
C1464 C 0.93499 0.13875 0.29581 0.0
C1465 C 0.9043 0.16121 0.33515 0.0
H1466 H 0.94328 0.1105 0.36971 0.0
H1467 H 0.94268 0.13672 0.27103 0.0
O1468 O 1.01067 0.03262 0.30053 0.0
O1469 O 0.96482 0.05986 0.34347 0.0
O1470 O 1.0178 0.10859 0.31669 0.0
O1471 O 0.95506 0.05745 0.26452 0.0
H1472 H 1.02535 0.97752 0.30973 0.0
H1473 H 0.06642 0.07989 0.2969 0.0
H1474 H 0.08262 0.97249 0.31606 0.0
H1475 H 0.12286 0.07281 0.30253 0.0
H1476 H 0.86006 1.01415 0.36522 0.0
H1477 H 0.9801 0.024 0.38894 0.0
H1478 H 0.89951 0.05092 0.33548 0.0
H1479 H 0.93937 0.98799 0.41788 0.0
H1480 H 0.07404 0.03574 0.44267 0.0
H1481 H 1.03153 0.11612 0.46445 0.0
H1482 H 0.85005 0.93977 0.27254 0.0
H1483 H 0.93142 0.92078 0.33547 0.0
H1484 H 0.99957 0.14323 0.27159 0.0
H1485 H 0.08066 0.14023 0.34705 0.0
H1486 H 0.0361 0.19705 0.26094 0.0
H1487 H 0.11616 0.19372 0.33448 0.0
H1488 H 0.96408 0.09049 0.21267 0.0
H1489 H 0.89254 0.04806 0.27455 0.0
H1490 H 0.92006 0.1062 0.17813 0.0
H1491 H 0.84983 0.06485 0.23908 0.0
H1492 H 0.99842 0.03881 0.14785 0.0
H1493 H 0.0815 0.12754 0.19576 0.0
H1494 H 0.90797 0.14546 0.38468 0.0
H1495 H 0.90717 0.17184 0.28359 0.0
Li1496 Li 0.31253 0.69602 0.63057 0.0
Li1497 Li 0.32065 0.64391 0.60264 0.0
Li1498 Li 0.28969 0.67621 0.57124 0.0
Li1499 Li 0.26655 0.64537 0.61311 0.0
C1500 C 0.36733 0.71487 0.6079 0.0
N1501 N 0.42529 0.76485 0.64181 0.0
C1502 C 0.39213 0.70685 0.62849 0.0
C1503 C 0.37207 0.74824 0.60432 0.0
C1504 C 0.42131 0.73249 0.64538 0.0
C1505 C 0.40147 0.77317 0.62185 0.0
C1506 C 0.2927 0.6384 0.67264 0.0
C1507 C 0.26886 0.58914 0.69617 0.0
N1508 N 0.26098 0.60866 0.72191 0.0
C1509 C 0.28398 0.6579 0.69912 0.0
C1510 C 0.28477 0.60367 0.67096 0.0
C1511 C 0.26812 0.64243 0.72385 0.0
C1512 C 0.319 0.76073 0.66495 0.0
N1513 N 0.33032 0.73393 0.66629 0.0
C1514 C 0.35088 0.75218 0.7266 0.0
C1515 C 0.34779 0.73032 0.69581 0.0
C1516 C 0.33611 0.77795 0.72643 0.0
C1517 C 0.3219 0.78344 0.69492 0.0
H1518 H 0.30529 0.76313 0.64137 0.0
H1519 H 0.35636 0.7086 0.69604 0.0
C1520 C 0.35655 0.61661 0.56384 0.0
N1521 N 0.34664 0.61623 0.59483 0.0
C1522 C 0.3717 0.59351 0.5514 0.0
C1523 C 0.36659 0.57033 0.60343 0.0
C1524 C 0.35164 0.59418 0.615 0.0
C1525 C 0.37645 0.56962 0.57101 0.0
H1526 H 0.35176 0.63439 0.54843 0.0
H1527 H 0.34353 0.59468 0.63961 0.0
C1528 C 0.24977 0.70965 0.592 0.0
N1529 N 0.2153 0.74665 0.55941 0.0
C1530 C 0.21468 0.69951 0.58632 0.0
C1531 C 0.26716 0.73851 0.58062 0.0
C1532 C 0.19778 0.71866 0.57004 0.0
C1533 C 0.24935 0.75683 0.56425 0.0
C1534 C 0.25596 0.59984 0.54849 0.0
C1535 C 0.22356 0.59961 0.53575 0.0
C1536 C 0.26546 0.57121 0.53932 0.0
C1537 C 0.20127 0.57079 0.51385 0.0
C1538 C 0.24247 0.54295 0.51723 0.0
N1539 N 0.21111 0.54333 0.50504 0.0
C1540 C 0.30754 0.70623 0.51555 0.0
C1541 C 0.24886 0.68313 0.51232 0.0
C1542 C 0.30235 0.72012 0.48643 0.0
N1543 N 0.28093 0.68856 0.52807 0.0
C1544 C 0.24255 0.69732 0.48376 0.0
C1545 C 0.26944 0.71604 0.47049 0.0
H1546 H 0.33277 0.71037 0.5288 0.0
H1547 H 0.22814 0.66952 0.52308 0.0
C1548 C 0.21075 0.63978 0.6414 0.0
N1549 N 0.22635 0.62047 0.62435 0.0
C1550 C 0.17642 0.62758 0.63998 0.0
C1551 C 0.17623 0.57395 0.60881 0.0
C1552 C 0.21078 0.58727 0.61101 0.0
C1553 C 0.15865 0.59535 0.62087 0.0
H1554 H 0.22422 0.6659 0.6525 0.0
H1555 H 0.22434 0.57218 0.59887 0.0
O1556 O 0.33811 0.69031 0.5922 0.0
O1557 O 0.3082 0.65309 0.64809 0.0
O1558 O 0.26693 0.69135 0.6082 0.0
O1559 O 0.27827 0.62771 0.57009 0.0
H1560 H 0.38873 0.68116 0.6317 0.0
H1561 H 0.35312 0.75488 0.58851 0.0
H1562 H 0.44068 0.72669 0.66151 0.0
H1563 H 0.40521 0.79914 0.61974 0.0
H1564 H 0.26258 0.56229 0.69515 0.0
H1565 H 0.28885 0.6846 0.70033 0.0
H1566 H 0.29017 0.58795 0.65003 0.0
H1567 H 0.26129 0.65725 0.74448 0.0
H1568 H 0.36265 0.74757 0.75045 0.0
H1569 H 0.31061 0.80327 0.69371 0.0
H1570 H 0.37998 0.59469 0.52685 0.0
H1571 H 0.37015 0.55257 0.61948 0.0
H1572 H 0.20048 0.67698 0.59403 0.0
H1573 H 0.29416 0.74616 0.58344 0.0
H1574 H 0.17071 0.71127 0.56579 0.0
H1575 H 0.26259 0.77899 0.55514 0.0
H1576 H 0.21537 0.62101 0.5436 0.0
H1577 H 0.29027 0.57071 0.54918 0.0
H1578 H 0.17607 0.57016 0.50399 0.0
H1579 H 0.24953 0.52068 0.50985 0.0
H1580 H 0.32382 0.73477 0.47718 0.0
H1581 H 0.21696 0.69413 0.47248 0.0
H1582 H 0.16351 0.64448 0.65011 0.0
H1583 H 0.16319 0.54878 0.59421 0.0
Li1584 Li 0.46231 0.53012 0.79969 0.0
Li1585 Li 0.5126 0.56893 0.84069 0.0
Li1586 Li 0.46789 0.5898 0.80987 0.0
Li1587 Li 0.50522 0.57055 0.77507 0.0
C1588 C 0.44276 0.54029 0.86026 0.0
N1589 N 0.39798 0.49956 0.89292 0.0
C1590 C 0.45401 0.52254 0.88373 0.0
C1591 C 0.40872 0.53743 0.85355 0.0
C1592 C 0.43099 0.50207 0.89993 0.0
C1593 C 0.38648 0.51669 0.87029 0.0
C1594 C 0.54186 0.52903 0.80255 0.0
C1595 C 0.60126 0.55211 0.80398 0.0
N1596 N 0.60519 0.52233 0.80938 0.0
C1597 C 0.54643 0.4986 0.80792 0.0
C1598 C 0.56946 0.55605 0.80063 0.0
C1599 C 0.57868 0.49577 0.81148 0.0
C1600 C 0.3989 0.47645 0.78031 0.0
N1601 N 0.43162 0.48584 0.79598 0.0
C1602 C 0.42152 0.4358 0.81972 0.0
C1603 C 0.44329 0.46585 0.81475 0.0
C1604 C 0.38725 0.42608 0.80519 0.0
C1605 C 0.37613 0.44649 0.78463 0.0
H1606 H 0.39016 0.49262 0.76541 0.0
H1607 H 0.4693 0.47414 0.82735 0.0
C1608 C 0.52989 0.59675 0.91121 0.0
N1609 N 0.53675 0.57392 0.88792 0.0
C1610 C 0.53815 0.59813 0.94679 0.0
C1611 C 0.56199 0.55343 0.93456 0.0
C1612 C 0.55292 0.55266 0.89895 0.0
C1613 C 0.55382 0.57583 0.95914 0.0
H1614 H 0.51628 0.61283 0.90206 0.0
H1615 H 0.55731 0.53393 0.88027 0.0
C1616 C 0.43127 0.56717 0.74562 0.0
N1617 N 0.38301 0.58604 0.70696 0.0
C1618 C 0.4391 0.58405 0.71852 0.0
C1619 C 0.39892 0.56025 0.7532 0.0
C1620 C 0.41433 0.59321 0.69919 0.0
C1621 C 0.3749 0.56997 0.73337 0.0
C1622 C 0.53747 0.63825 0.81041 0.0
C1623 C 0.52484 0.65427 0.78601 0.0
C1624 C 0.57053 0.65243 0.82814 0.0
C1625 C 0.54553 0.6844 0.77981 0.0
C1626 C 0.5905 0.68246 0.82102 0.0
N1627 N 0.57767 0.69773 0.79726 0.0
C1628 C 0.4351 0.62398 0.85102 0.0
C1629 C 0.43499 0.63875 0.79581 0.0
C1630 C 0.41498 0.64376 0.85942 0.0
N1631 N 0.44399 0.62115 0.81936 0.0
C1632 C 0.41492 0.65888 0.80313 0.0
C1633 C 0.4043 0.66121 0.83516 0.0
H1634 H 0.44328 0.6105 0.86971 0.0
H1635 H 0.44268 0.63672 0.77103 0.0
C1636 C 0.50588 0.5536 0.70298 0.0
N1637 N 0.52406 0.57625 0.73189 0.0
C1638 C 0.51367 0.55719 0.67015 0.0
C1639 C 0.55997 0.6066 0.6969 0.0
C1640 C 0.55109 0.60224 0.7293 0.0
C1641 C 0.5409 0.58417 0.66648 0.0
H1642 H 0.48443 0.53313 0.70523 0.0
H1643 H 0.5657 0.61999 0.75222 0.0
O1644 O 0.46482 0.55986 0.84347 0.0
O1645 O 0.51067 0.53262 0.80053 0.0
O1646 O 0.45506 0.55745 0.76453 0.0
O1647 O 0.51781 0.60859 0.81669 0.0
H1648 H 0.48011 0.524 0.88894 0.0
H1649 H 0.39951 0.55092 0.83548 0.0
H1650 H 0.43937 0.48799 0.91788 0.0
H1651 H 0.36006 0.51415 0.86522 0.0
H1652 H 0.62286 0.57281 0.80253 0.0
H1653 H 0.52535 0.47752 0.80973 0.0
H1654 H 0.56642 0.57989 0.7969 0.0
H1655 H 0.58262 0.47249 0.81606 0.0
H1656 H 0.43142 0.42078 0.83547 0.0
H1657 H 0.35006 0.43977 0.77254 0.0
H1658 H 0.53154 0.61612 0.96445 0.0
H1659 H 0.57404 0.53573 0.94266 0.0
H1660 H 0.46408 0.59049 0.71267 0.0
H1661 H 0.39254 0.54806 0.77455 0.0
H1662 H 0.42006 0.6062 0.67813 0.0
H1663 H 0.34983 0.56485 0.73908 0.0
H1664 H 0.49957 0.64323 0.77159 0.0
H1665 H 0.58067 0.64022 0.84705 0.0
H1666 H 0.53611 0.69705 0.76094 0.0
H1667 H 0.61616 0.69371 0.83448 0.0
H1668 H 0.40797 0.64546 0.88468 0.0
H1669 H 0.40717 0.67184 0.78359 0.0
H1670 H 0.49841 0.53881 0.64785 0.0
H1671 H 0.5815 0.62754 0.69575 0.0
Li1672 Li 0.73075 0.10879 0.80925 0.0
Li1673 Li 0.76621 0.13021 0.76916 0.0
Li1674 Li 0.71472 0.08573 0.74823 0.0
Li1675 Li 0.76272 0.07661 0.78135 0.0
C1676 C 0.69079 0.13761 0.77339 0.0
N1677 N 0.63057 0.1499 0.77673 0.0
C1678 C 0.68763 0.1689 0.76931 0.0
C1679 C 0.66336 0.11264 0.77939 0.0
C1680 C 0.65696 0.1746 0.77102 0.0
C1681 C 0.63312 0.11933 0.78092 0.0
C1682 C 0.80993 0.14005 0.83198 0.0
C1683 C 0.86999 0.15317 0.84695 0.0
N1684 N 0.87156 0.18188 0.86836 0.0
C1685 C 0.81212 0.16961 0.85422 0.0
C1686 C 0.83908 0.13166 0.82843 0.0
C1687 C 0.84354 0.19043 0.87236 0.0
C1688 C 0.70042 0.09466 0.86554 0.0
N1689 N 0.71422 0.11987 0.84919 0.0
C1690 C 0.69813 0.15918 0.88683 0.0
C1691 C 0.71377 0.15178 0.85937 0.0
C1692 C 0.68333 0.13356 0.90409 0.0
C1693 C 0.68478 0.10097 0.89326 0.0
H1694 H 0.70098 0.06952 0.85654 0.0
H1695 H 0.72485 0.17125 0.84561 0.0
C1696 C 0.77039 0.18361 0.7386 0.0
N1697 N 0.7907 0.17097 0.75813 0.0
C1698 C 0.78031 0.21757 0.73723 0.0
C1699 C 0.83391 0.22386 0.77191 0.0
C1700 C 0.82275 0.18963 0.77283 0.0
C1701 C 0.81152 0.23832 0.75595 0.0
H1702 H 0.74521 0.16804 0.72685 0.0
H1703 H 0.83876 0.17887 0.78752 0.0
C1704 C 0.70148 0.02603 0.77355 0.0
N1705 N 0.67739 0.95753 0.7479 0.0
C1706 C 0.70509 1.01323 0.74036 0.0
C1707 C 0.68561 1.00394 0.79365 0.0
C1708 C 0.69268 0.97854 0.72785 0.0
C1709 C 0.67368 0.9694 0.78026 0.0
C1710 C 0.77915 0.09595 0.71163 0.0
C1711 C 0.76586 0.08583 0.67631 0.0
C1712 C 0.81339 0.11306 0.72244 0.0
C1713 C 0.78685 0.09399 0.65242 0.0
C1714 C 0.83354 0.12089 0.69777 0.0
N1715 N 0.81995 0.11137 0.66357 0.0
C1716 C 0.68951 0.097 0.69015 0.0
C1717 C 0.64724 0.05448 0.70648 0.0
C1718 C 0.66687 0.09988 0.66347 0.0
N1719 N 0.67951 0.07479 0.71095 0.0
C1720 C 0.62333 0.05654 0.67969 0.0
C1721 C 0.6332 0.07993 0.6582 0.0
H1722 H 0.71502 0.11358 0.69536 0.0
H1723 H 0.63986 0.03796 0.72443 0.0
C1724 C 0.78616 0.03848 0.82102 0.0
N1725 N 0.78824 0.04927 0.7907 0.0
C1726 C 0.80936 0.02402 0.8343 0.0
C1727 C 0.83627 0.03214 0.78469 0.0
C1728 C 0.81216 0.04602 0.77213 0.0
C1729 C 0.83521 1.02129 0.81638 0.0
H1730 H 0.76712 0.04223 0.83538 0.0
H1731 H 0.81352 0.05572 0.74856 0.0
O1732 O 0.72084 0.13185 0.77214 0.0
O1733 O 0.77932 0.11905 0.81453 0.0
O1734 O 0.71379 0.05986 0.78679 0.0
O1735 O 0.75883 0.0882 0.73535 0.0
H1736 H 0.70868 0.18866 0.76505 0.0
H1737 H 0.66538 0.08839 0.78295 0.0
H1738 H 0.65417 0.1987 0.76789 0.0
H1739 H 0.6117 0.10022 0.78551 0.0
H1740 H 0.89274 0.14704 0.84429 0.0
H1741 H 0.78979 0.17636 0.85734 0.0
H1742 H 0.83805 0.10902 0.81138 0.0
H1743 H 0.84572 0.21337 0.88968 0.0
H1744 H 0.69758 0.18458 0.8944 0.0
H1745 H 0.67325 0.08037 0.90552 0.0
H1746 H 0.76258 0.228 0.72443 0.0
H1747 H 0.85826 0.23926 0.78659 0.0
H1748 H 0.71722 0.02973 0.72429 0.0
H1749 H 0.68269 1.01333 0.81942 0.0
H1750 H 0.69526 0.96832 0.70221 0.0
H1751 H 0.66156 0.95204 0.79565 0.0
H1752 H 0.73966 0.07153 0.66738 0.0
H1753 H 0.82425 0.12028 0.74963 0.0
H1754 H 0.77685 0.08639 0.62503 0.0
H1755 H 0.86002 0.13443 0.70581 0.0
H1756 H 0.67577 0.11818 0.64759 0.0
H1757 H 0.59754 0.04065 0.67625 0.0
H1758 H 0.80697 1.01502 0.85829 0.0
H1759 H 0.85579 0.03048 0.77012 0.0
Li1760 Li 0.80969 0.76586 0.09016 0.0
Li1761 Li 0.83221 0.7221 0.06174 0.0
Li1762 Li 0.80898 0.7587 0.02499 0.0
Li1763 Li 0.77246 0.7161 0.04993 0.0
C1764 C 0.86994 0.80244 0.08376 0.0
N1765 N 0.90818 0.86275 0.12616 0.0
C1766 C 0.89393 0.80292 0.11164 0.0
C1767 C 0.86614 0.8327 0.0768 0.0
C1768 C 0.91259 0.83361 0.13316 0.0
C1769 C 0.8857 0.86294 0.09853 0.0
C1770 C 0.78351 0.70235 0.11557 0.0
C1771 C 0.77086 0.65763 0.14793 0.0
N1772 N 0.74611 0.66861 0.15891 0.0
C1773 C 0.75796 0.71321 0.12717 0.0
C1774 C 0.79004 0.67434 0.12597 0.0
C1775 C 0.73934 0.69581 0.14909 0.0
C1776 C 0.79149 0.80435 0.1492 0.0
N1777 N 0.81397 0.78973 0.13793 0.0
C1778 C 0.84 0.79456 0.19669 0.0
C1779 C 0.83758 0.78439 0.16114 0.0
C1780 C 0.81704 0.80934 0.20924 0.0
C1781 C 0.79258 0.81434 0.18484 0.0
H1782 H 0.77161 0.80676 0.13075 0.0
H1783 H 0.8536 0.77055 0.15217 0.0
C1784 C 0.86983 0.67872 0.04348 0.0
N1785 N 0.86372 0.69903 0.06982 0.0
C1786 C 0.89015 0.65881 0.0504 0.0
C1787 C 0.89854 0.68222 0.11123 0.0
C1788 C 0.87779 0.7014 0.10316 0.0
C1789 C 0.90448 0.66017 0.08471 0.0
H1790 H 0.85834 0.67746 1.0172 0.0
H1791 H 0.87209 0.71751 0.12357 0.0
C1792 C 0.76287 0.78879 0.04152 0.0
N1793 N 0.74264 0.84035 0.02055 0.0
C1794 C 0.73823 0.7821 1.01213 0.0
C1795 C 0.77731 0.82167 0.06015 0.0
C1796 C 0.7283 0.80854 1.00196 0.0
C1797 C 0.76676 0.84743 0.04911 0.0
C1798 C 0.77848 0.6826 0.99287 0.0
C1799 C 0.75358 0.68849 0.97024 0.0
C1800 C 0.77955 0.64978 0.99199 0.0
C1801 C 0.7302 0.66139 0.94696 0.0
C1802 C 0.75572 0.62335 0.96832 0.0
N1803 N 0.73175 0.62966 0.94648 0.0
C1804 C 0.81508 0.80851 0.97799 0.0
C1805 C 0.81764 0.75519 0.95382 0.0
C1806 C 0.8189 0.81946 0.94648 0.0
N1807 N 0.81443 0.77669 0.98132 0.0
C1808 C 0.82087 0.76491 0.9217 0.0
C1809 C 0.82166 0.79753 0.91754 0.0
H1810 H 0.81255 0.82554 0.99969 0.0
H1811 H 0.8177 0.73018 0.95664 0.0
C1812 C 0.70227 0.69467 0.04358 0.0
N1813 N 0.72935 0.68357 0.046 0.0
C1814 C 0.67109 0.6737 0.04678 0.0
C1815 C 0.69596 0.62987 0.05423 0.0
C1816 C 0.72672 0.65172 0.05073 0.0
C1817 C 0.66772 0.641 0.05288 0.0
H1818 H 0.70519 0.7203 0.04063 0.0
H1819 H 0.74885 0.64379 0.05337 0.0
O1820 O 0.8495 0.77246 0.0641 0.0
O1821 O 0.80163 0.71864 0.09357 0.0
O1822 O 0.77234 0.76312 0.0523 0.0
O1823 O 0.80154 0.70887 1.01585 0.0
H1824 H 0.89756 0.77974 0.11708 0.0
H1825 H 0.84803 0.83281 0.05506 0.0
H1826 H 0.93071 0.83428 0.15531 0.0
H1827 H 0.88282 0.88654 0.09358 0.0
H1828 H 0.77559 0.63588 0.15618 0.0
H1829 H 0.75222 0.7345 0.11887 0.0
H1830 H 0.80956 0.66546 0.11698 0.0
H1831 H 0.7194 0.70383 0.15817 0.0
H1832 H 0.85895 0.7895 0.21424 0.0
H1833 H 0.77412 0.82533 0.19317 0.0
H1834 H 0.89453 0.64246 0.02919 0.0
H1835 H 0.90891 0.68382 0.13801 0.0
H1836 H 0.72681 0.75676 0.99743 0.0
H1837 H 0.79649 0.82728 0.08286 0.0
H1838 H 0.70917 0.8038 0.97935 0.0
H1839 H 0.7777 0.87302 0.06324 0.0
H1840 H 0.7523 0.71373 0.97074 0.0
H1841 H 0.79838 0.6447 1.00959 0.0
H1842 H 0.7108 0.66558 0.9293 0.0
H1843 H 0.75622 0.59782 0.96736 0.0
H1844 H 0.81912 0.84484 0.94472 0.0
H1845 H 0.82312 0.74711 0.90045 0.0
H1846 H 0.65012 0.6835 0.04553 0.0
H1847 H 0.69458 0.60494 0.05885 0.0
Li1848 Li 0.88511 0.53315 0.87177 0.0
Li1849 Li 0.93793 0.57788 0.88801 0.0
Li1850 Li 0.88712 0.588 0.86479 0.0
Li1851 Li 0.91466 0.55781 0.82839 0.0
C1852 C 0.88345 0.55775 0.93374 0.0
N1853 N 0.85666 0.52456 0.98355 0.0
C1854 C 0.9043 0.54995 0.95932 0.0
C1855 C 0.84889 0.54825 0.93328 0.0
C1856 C 0.89031 0.53331 0.98435 0.0
C1857 C 0.83585 0.53156 0.95871 0.0
C1858 C 0.94715 0.51473 0.84541 0.0
C1859 C 0.99209 0.51293 0.81425 0.0
N1860 N 0.98225 0.47887 0.81071 0.0
C1861 C 0.93729 0.47964 0.84106 0.0
C1862 C 0.97482 0.53147 0.83184 0.0
C1863 C 0.95555 0.46203 0.82375 0.0
C1864 C 0.82947 0.47715 0.85797 0.0
N1865 N 0.85955 0.49148 0.87939 0.0
C1866 C 0.86152 0.43821 0.89055 0.0
C1867 C 0.87468 0.47325 0.89747 0.0
C1868 C 0.83307 0.42281 0.86476 0.0
C1869 C 0.81555 0.44242 0.85028 0.0
H1870 H 0.81848 0.49214 0.84345 0.0
H1871 H 0.8991 0.48542 0.91358 0.0
C1872 C 0.97705 0.61287 0.95104 0.0
N1873 N 0.97757 0.5936 0.92093 0.0
C1874 C 1.0004 0.61584 0.98027 0.0
C1875 C 1.02681 0.58283 0.94563 0.0
C1876 C 1.00269 0.58017 0.91725 0.0
C1877 C 1.0244 0.599 0.97792 0.0
H1878 H 0.95661 0.62311 0.95313 0.0
H1879 H 1.00267 0.56506 0.89322 0.0
C1880 C 0.8414 0.5516 0.80906 0.0
N1881 N 0.79094 0.56498 0.76762 0.0
C1882 C 0.8464 0.56107 0.77739 0.0
C1883 C 0.81061 0.54892 0.81954 0.0
C1884 C 0.82061 0.56772 0.75685 0.0
C1885 C 0.78546 0.55581 0.79827 0.0
C1886 C 0.95774 0.63393 0.86627 0.0
C1887 C 0.95225 0.659 0.88951 0.0
C1888 C 0.98971 0.63826 0.85831 0.0
C1889 C 0.97891 0.68809 0.90441 0.0
C1890 C 1.01572 0.66771 0.87376 0.0
N1891 N 1.00983 0.69181 0.8963 0.0
C1892 C 0.83592 0.61728 0.87813 0.0
C1893 C 0.86734 0.63343 0.83466 0.0
C1894 C 0.81202 0.6316 0.86563 0.0
N1895 N 0.86207 0.61745 0.86157 0.0
C1896 C 0.84421 0.6478 0.82132 0.0
C1897 C 0.81546 0.64569 0.83593 0.0
H1898 H 0.83236 0.60415 0.89936 0.0
H1899 H 0.8882 0.63268 0.82188 0.0
C1900 C 0.91414 0.51544 0.76811 0.0
N1901 N 0.92449 0.54814 0.78437 0.0
C1902 C 0.92636 0.50617 0.73877 0.0
C1903 C 0.95665 0.56485 0.74151 0.0
C1904 C 0.94458 0.57293 0.7714 0.0
C1905 C 0.94816 0.53095 0.72539 0.0
H1906 H 0.8981 0.49638 0.77924 0.0
H1907 H 0.95224 0.59869 0.78508 0.0
O1908 O 0.89668 0.57431 0.90912 0.0
O1909 O 0.92979 0.53253 0.86272 0.0
O1910 O 0.86649 0.5452 0.82973 0.0
O1911 O 0.93204 0.60508 0.85181 0.0
H1912 H 0.93095 0.55622 0.95971 0.0
H1913 H 0.83222 0.55315 0.91317 0.0
H1914 H 0.90619 0.52719 1.00429 0.0
H1915 H 0.80916 0.52405 0.95861 0.0
H1916 H 1.0133 0.52563 0.8034 0.0
H1917 H 0.9159 0.46605 0.851 0.0
H1918 H 0.98256 0.55853 0.83438 0.0
H1919 H 0.9486 0.43497 0.82082 0.0
H1920 H 0.87591 0.42353 0.90148 0.0
H1921 H 0.79378 0.43102 0.82989 0.0
H1922 H 0.99821 0.62911 1.00479 0.0
H1923 H 0.04517 0.56983 0.94282 0.0
H1924 H 0.86998 0.56361 0.7688 0.0
H1925 H 0.80638 0.54232 0.84422 0.0
H1926 H 0.82424 0.57519 0.73238 0.0
H1927 H 0.76167 0.55411 0.80625 0.0
H1928 H 0.92773 0.65592 0.89621 0.0
H1929 H 0.99446 0.61907 0.8405 0.0
H1930 H 0.97505 0.70768 0.92251 0.0
H1931 H 0.0406 0.67139 0.8679 0.0
H1932 H 0.79041 0.63024 0.87789 0.0
H1933 H 0.84828 0.6596 0.79914 0.0
H1934 H 0.91972 0.47989 0.72735 0.0
H1935 H 0.97373 0.58468 0.73215 0.0
Li1936 Li 0.83718 0.49514 0.54886 0.0
Li1937 Li 0.80669 0.52223 0.51548 0.0
Li1938 Li 0.81962 0.47543 0.48733 0.0
Li1939 Li 0.86158 0.5303 0.50784 0.0
C1940 C 0.75793 0.45864 0.50713 0.0
N1941 N 0.69202 0.42618 0.47528 0.0
C1942 C 0.74523 0.46634 0.47617 0.0
C1943 C 0.73707 0.43444 0.52181 0.0
C1944 C 0.71185 0.44964 0.46049 0.0
C1945 C 0.70384 0.41831 0.50537 0.0
C1946 C 0.84067 0.56694 0.57392 0.0
C1947 C 0.83777 0.62295 0.59099 0.0
N1948 N 0.82641 0.61415 0.61983 0.0
C1949 C 0.82899 0.55847 0.60375 0.0
C1950 C 0.84522 0.59947 0.56752 0.0
C1951 C 0.82188 0.58268 0.62662 0.0
C1952 C 0.88099 0.48701 0.60307 0.0
N1953 N 0.84809 0.48041 0.5897 0.0
C1954 C 0.83137 0.44585 0.6306 0.0
C1955 C 0.82332 0.46062 0.60293 0.0
C1956 C 0.86521 0.45126 0.6443 0.0
C1957 C 0.89016 0.4722 0.63024 0.0
H1958 H 0.90009 0.50273 0.59172 0.0
H1959 H 0.79743 0.45566 0.59133 0.0
C1960 C 0.77912 0.57347 0.50475 0.0
N1961 N 0.77661 0.5461 0.51971 0.0
C1962 C 0.76582 0.5981 0.518 0.0
C1963 C 0.74573 0.5642 0.55971 0.0
C1964 C 0.75918 0.54029 0.54561 0.0
C1965 C 0.75042 0.59415 0.5469 0.0
H1966 H 0.79368 0.57747 0.48452 0.0
H1967 H 0.75839 0.51858 0.55731 0.0
C1968 C 0.87737 0.46124 0.52054 0.0
N1969 N 0.90426 0.41137 0.53465 0.0
C1970 C 0.91192 0.46699 0.52385 0.0
C1971 C 0.85649 0.43019 0.5245 0.0
C1972 C 0.92503 0.44143 0.53097 0.0
C1973 C 0.87057 0.40528 0.53159 0.0
C1974 C 0.8329 0.53417 0.4452 0.0
C1975 C 0.82796 0.51617 0.41158 0.0
C1976 C 0.84828 0.56903 0.45222 0.0
C1977 C 0.8392 0.53327 0.38571 0.0
C1978 C 0.85916 0.58521 0.42564 0.0
N1979 N 0.85446 0.56715 0.39322 0.0
C1980 C 0.78998 0.40673 0.44847 0.0
C1981 C 0.83992 0.44433 0.43809 0.0
C1982 C 0.79361 0.38043 0.42519 0.0
N1983 N 0.81302 0.43784 0.45397 0.0
C1984 C 0.84471 0.41914 0.41528 0.0
C1985 C 0.8214 0.38676 0.40844 0.0
H1986 H 0.76947 0.40217 0.46259 0.0
H1987 H 0.85822 0.46915 0.44405 0.0
C1988 C 0.91994 0.5816 0.52996 0.0
N1989 N 0.90345 0.55667 0.50251 0.0
C1990 C 0.95462 0.59129 0.53814 0.0
C1991 C 0.95476 0.55268 0.48698 0.0
C1992 C 0.91982 0.5434 0.47991 0.0
C1993 C 0.97195 0.57508 0.51771 0.0
H1994 H 0.90619 0.59072 0.54801 0.0
H1995 H 0.9058 0.52271 0.45907 0.0
O1996 O 0.79057 0.4743 0.52318 0.0
O1997 O 0.84813 0.54366 0.55141 0.0
O1998 O 0.86428 0.48636 0.51455 0.0
O1999 O 0.82112 0.51792 0.47059 0.0
H2000 H 0.76076 0.48494 0.46427 0.0
H2001 H 0.74653 0.42814 0.54564 0.0
H2002 H 0.70171 0.45535 0.43653 0.0
H2003 H 0.68748 0.39951 0.51652 0.0
H2004 H 0.84095 0.64814 0.58625 0.0
H2005 H 0.82527 0.53343 0.60912 0.0
H2006 H 0.8541 0.60643 0.54448 0.0
H2007 H 0.81273 0.57645 0.64975 0.0
H2008 H 0.81138 0.42945 0.64037 0.0
H2009 H 0.91642 0.47673 0.63979 0.0
H2010 H 0.76923 0.62071 0.50721 0.0
H2011 H 0.73296 0.55992 0.58132 0.0
H2012 H 0.92846 0.49103 0.52127 0.0
H2013 H 0.82975 0.42553 0.52254 0.0
H2014 H 0.95174 0.44554 0.53367 0.0
H2015 H 0.85474 0.38116 0.53481 0.0
H2016 H 0.81513 0.48936 0.40537 0.0
H2017 H 0.85192 0.58341 0.47799 0.0
H2018 H 0.83561 0.51965 0.35962 0.0
H2019 H 0.87127 0.61215 0.43077 0.0
H2020 H 0.77506 0.35573 0.4203 0.0
H2021 H 0.86655 0.42518 0.40306 0.0
H2022 H 0.96742 0.6085 0.56218 0.0
H2023 H 0.96762 0.53942 0.47115 0.0
Li2024 Li 0.64549 0.5978 0.3621 0.0
Li2025 Li 0.68904 0.63428 0.33789 0.0
Li2026 Li 0.63967 0.59654 0.29705 0.0
Li2027 Li 0.68307 0.57405 0.32671 0.0
C2028 C 0.62294 0.65029 0.35095 0.0
N2029 N 0.58499 0.68423 0.38291 0.0
C2030 C 0.63765 0.67487 0.38075 0.0
C2031 C 0.58893 0.64289 0.33744 0.0
C2032 C 0.61802 0.69177 0.39654 0.0
C2033 C 0.57014 0.66032 0.35401 0.0
C2034 C 0.72274 0.62501 0.39579 0.0
C2035 C 0.78151 0.63937 0.41994 0.0
N2036 N 0.77808 0.6628 0.4452 0.0
C2037 C 0.71984 0.64927 0.42196 0.0
C2038 C 0.75384 0.62003 0.39472 0.0
C2039 C 0.7481 0.66811 0.44669 0.0
C2040 C 0.59455 0.5923 0.408 0.0
N2041 N 0.62635 0.59263 0.40509 0.0
C2042 C 0.63678 0.58643 0.46461 0.0
C2043 C 0.64711 0.58919 0.43266 0.0
C2044 C 0.60424 0.58615 0.46845 0.0
C2045 C 0.58294 0.58884 0.43935 0.0
H2046 H 0.57809 0.59479 0.38608 0.0
H2047 H 0.67198 0.58858 0.43004 0.0
C2048 C 0.7086 0.70303 0.33664 0.0
N2049 N 0.72126 0.6777 0.34171 0.0
C2050 C 0.72959 0.73402 0.33304 0.0
C2051 C 0.77657 0.71258 0.3399 0.0
C2052 C 0.7546 0.68194 0.34363 0.0
C2053 C 0.76403 0.73903 0.33416 0.0
H2054 H 0.68191 0.69872 0.3338 0.0
H2055 H 0.76394 0.66107 0.34629 0.0
C2056 C 0.60345 0.53657 0.30228 0.0
N2057 N 0.54512 0.49778 0.25758 0.0
C2058 C 0.604 0.51036 0.27687 0.0
C2059 C 0.57323 0.54282 0.30525 0.0
C2060 C 0.57427 0.49122 0.25429 0.0
C2061 C 0.54398 0.52288 0.28244 0.0
C2062 C 0.7086 0.62256 0.27621 0.0
C2063 C 0.69931 0.64578 0.25869 0.0
C2064 C 0.7403 0.61886 0.27595 0.0
C2065 C 0.72201 0.66506 0.24126 0.0
C2066 C 0.76226 0.63858 0.25818 0.0
N2067 N 0.75275 0.6611 0.24138 0.0
C2068 C 0.60197 0.61513 0.23884 0.0
C2069 C 0.62078 0.56816 0.22586 0.0
C2070 C 0.59215 0.61428 0.2033 0.0
N2071 N 0.6161 0.59223 0.2495 0.0
C2072 C 0.61082 0.56601 0.1904 0.0
C2073 C 0.59671 0.58952 0.1784 0.0
H2074 H 0.59971 0.63506 0.25775 0.0
H2075 H 0.63383 0.55146 0.23443 0.0
C2076 C 0.72104 0.53303 0.34869 0.0
N2077 N 0.70635 0.54217 0.32084 0.0
C2078 C 0.74153 0.51268 0.34447 0.0
C2079 C 0.73009 0.5104 0.28287 0.0
C2080 C 0.70997 0.53089 0.28831 0.0
C2081 C 0.74668 0.50149 0.31121 0.0
H2082 H 0.71769 0.54243 0.37428 0.0
H2083 H 0.69787 0.53855 0.26667 0.0
O2084 O 0.64191 0.6341 0.3346 0.0
O2085 O 0.69508 0.60552 0.37199 0.0
O2086 O 0.63257 0.5569 0.32324 0.0
O2087 O 0.687 0.60395 0.29403 0.0
H2088 H 0.66402 0.6811 0.39131 0.0
H2089 H 0.57722 0.62395 0.31435 0.0
H2090 H 0.62907 0.71097 0.41952 0.0
H2091 H 0.54379 0.6549 0.34386 0.0
H2092 H 0.80571 0.63575 0.41942 0.0
H2093 H 0.69593 0.65326 0.42338 0.0
H2094 H 0.75669 0.60163 0.3745 0.0
H2095 H 0.74615 0.68686 0.46717 0.0
H2096 H 0.65407 0.58412 0.48599 0.0
H2097 H 0.55764 0.58894 0.44093 0.0
H2098 H 0.71859 0.75343 0.32822 0.0
H2099 H 0.80289 0.71525 0.34083 0.0
H2100 H 0.62729 0.50534 0.27417 0.0
H2101 H 0.57247 0.56311 0.32473 0.0
H2102 H 0.57438 0.47116 0.23415 0.0
H2103 H 0.52041 0.52751 0.28434 0.0
H2104 H 0.67503 0.64924 0.25898 0.0
H2105 H 0.74801 0.60126 0.28969 0.0
H2106 H 0.71523 0.68325 0.22774 0.0
H2107 H 0.78693 0.6361 0.25787 0.0
H2108 H 0.58156 0.63307 0.19544 0.0
H2109 H 0.61553 0.54682 0.17251 0.0
H2110 H 0.75398 0.50665 0.36709 0.0
H2111 H 0.73277 0.50181 0.25674 0.0
Dy2112 Dy 0.10689 0.10969 0.08556 0.0
Dy2113 Dy 0.03438 0.06234 0.04721 0.0
C2114 C 0.09275 0.08396 1.0025 0.0
O2115 O 0.08267 0.14749 0.06695 0.0
O2116 O 1.02793 0.11515 0.04889 0.0
O2117 O 0.14458 0.15844 0.09354 0.0
O2118 O 0.15347 0.12063 0.12107 0.0
O2119 O 1.03057 0.0672 0.10375 0.0
O2120 O 0.07882 0.10942 0.12957 0.0
O2121 O 0.06316 0.0243 0.05269 0.0
O2122 O 0.10827 0.05688 0.09346 0.0
O2123 O 0.9961 1.01403 0.03991 0.0
O2124 O 0.98846 0.05098 1.01048 0.0
C2125 C 0.05138 0.14508 0.05456 0.0
O2126 O 0.11484 0.09324 0.03149 0.0
O2127 O 0.06049 0.07361 1.00278 0.0
C2128 C 0.19712 0.15005 0.09669 0.0
C2129 C 0.23837 0.12041 0.06378 0.0
C2130 C 0.21599 0.13241 0.04431 0.0
C2131 C 0.19531 0.14718 0.06074 0.0
C2132 C 0.22344 0.14342 0.11646 0.0
C2133 C 0.24399 0.1285 0.10001 0.0
C2134 C 0.16692 0.14882 0.11126 0.0
C2135 C 0.0503 0.08753 0.13158 0.0
C2136 C 0.08941 0.02658 0.07612 0.0
C2137 C 0.94346 0.0223 0.03351 0.0
C2138 C 0.89485 0.04676 0.05884 0.0
C2139 C 0.92062 0.04248 0.08189 0.0
C2140 C 0.94471 0.0302 0.06927 0.0
C2141 C 0.91538 0.02223 1.01066 0.0
C2142 C 0.89096 0.03414 0.02331 0.0
C2143 C 0.97442 0.02318 0.02063 0.0
H2144 H 0.21171 0.12689 1.01634 0.0
H2145 H 0.17539 0.15246 0.04482 0.0
H2146 H 0.22536 0.14569 0.14419 0.0
H2147 H 0.2618 0.12008 0.11548 0.0
H2148 H 0.92428 0.05178 0.10938 0.0
H2149 H 0.96605 0.03017 0.08745 0.0
H2150 H 0.91395 1.01607 0.983 0.0
H2151 H 0.87066 0.03621 1.00507 0.0
Dy2152 Dy 0.3522 0.8498 0.28532 0.0
Dy2153 Dy 0.29411 0.81287 0.32398 0.0
C2154 C 0.32887 0.88987 0.34474 0.0
O2155 O 0.38055 0.84598 0.33612 0.0
O2156 O 0.34032 0.80166 0.34821 0.0
O2157 O 0.39479 0.89137 0.28214 0.0
O2158 O 0.37516 0.84816 0.24013 0.0
O2159 O 0.29138 0.78399 0.27179 0.0
O2160 O 0.3469 0.79545 0.27696 0.0
O2161 O 0.26878 0.84099 0.29123 0.0
O2162 O 0.30311 0.84529 0.25092 0.0
O2163 O 0.25786 0.76552 0.32511 0.0
O2164 O 0.26082 0.81032 0.36108 0.0
C2165 C 0.37166 0.82167 0.35381 0.0
O2166 O 0.33445 0.88869 0.31309 0.0
O2167 O 0.32047 0.86275 0.35796 0.0
C2168 C 0.38999 0.90098 0.22536 0.0
C2169 C 0.37433 0.93456 0.17262 0.0
C2170 C 0.35605 0.9317 0.19968 0.0
C2171 C 0.36378 0.91501 0.22576 0.0
C2172 C 0.40879 0.90431 0.19892 0.0
C2173 C 0.40105 0.92102 0.17269 0.0
C2174 C 0.39444 0.87933 0.24993 0.0
C2175 C 0.31695 0.7744 0.26544 0.0
C2176 C 0.27497 0.84714 0.26078 0.0
C2177 C 0.25267 0.76008 0.38209 0.0
C2178 C 0.26324 0.73108 0.44004 0.0
C2179 C 0.28226 0.72938 0.41399 0.0
C2180 C 0.27722 0.74388 0.38537 0.0
C2181 C 0.23321 0.76149 0.40781 0.0
C2182 C 0.23849 0.74712 0.4367 0.0
C2183 C 0.24921 0.77756 0.35325 0.0
H2184 H 0.33575 0.94235 0.20071 0.0
H2185 H 0.34873 0.91231 0.24583 0.0
H2186 H 0.42873 0.89312 0.198 0.0
H2187 H 0.41538 0.92253 0.15202 0.0
H2188 H 0.30099 0.7167 0.41584 0.0
H2189 H 0.29284 0.74273 0.36602 0.0
H2190 H 0.21441 0.7742 0.40584 0.0
H2191 H 0.22362 0.749 0.45662 0.0
Dy2192 Dy 0.54215 0.07991 0.58604 0.0
Dy2193 Dy 0.60961 0.09062 0.55284 0.0
C2194 C 0.54348 0.09462 0.50936 0.0
O2195 O 0.53745 0.02656 0.55968 0.0
O2196 O 0.59287 0.03513 0.55766 0.0
O2197 O 0.48866 0.05775 0.58072 0.0
O2198 O 0.51762 0.09083 0.62857 0.0
O2199 O 0.62162 0.10447 0.60971 0.0
O2200 O 0.57805 0.06604 0.62275 0.0
O2201 O 0.60378 0.14305 0.55734 0.0
O2202 O 0.56827 0.13719 0.59677 0.0
O2203 O 0.66338 0.11327 0.56025 0.0
O2204 O 0.63707 0.07624 0.51439 0.0
C2205 C 0.56233 1.0142 0.55547 0.0
O2206 O 0.53154 0.09831 0.53781 0.0
O2207 O 0.57029 0.08537 0.5079 0.0
C2208 C 0.4651 0.09698 0.60649 0.0
C2209 C 0.42502 0.13827 0.59283 0.0
C2210 C 0.41429 0.10412 0.57696 0.0
C2211 C 0.43402 0.08366 0.5839 0.0
C2212 C 0.47544 0.13097 0.62304 0.0
C2213 C 0.45552 0.15135 0.61638 0.0
C2214 C 0.48776 0.07626 0.60962 0.0
C2215 C 0.60976 0.08364 0.62951 0.0
C2216 C 0.5881 0.15655 0.57934 0.0
C2217 C 0.68767 0.07208 0.5419 0.0
C2218 C 0.7263 0.0294 0.55523 0.0
C2219 C 0.69835 0.02853 0.57111 0.0
C2220 C 0.67942 0.04978 0.56467 0.0
C2221 C 0.71563 0.07347 0.52624 0.0
C2222 C 0.73492 0.05243 0.53298 0.0
C2223 C 0.6661 0.09271 0.5339 0.0
H2224 H 0.39065 0.09322 0.55909 0.0
H2225 H 0.42539 0.05757 0.57082 0.0
H2226 H 0.49934 0.14217 0.64042 0.0
H2227 H 0.46447 0.17762 0.62886 0.0
H2228 H 0.69056 1.01096 0.588 0.0
H2229 H 0.65801 0.04848 0.5772 0.0
H2230 H 0.72244 0.09064 0.50871 0.0
H2231 H 0.75664 0.05436 0.52083 0.0
Dy2232 Dy 0.35881 0.3209 0.82462 0.0
Dy2233 Dy 0.29137 0.34641 0.81378 0.0
C2234 C 0.36383 0.39463 0.81128 0.0
O2235 O 0.34655 0.32668 0.87814 0.0
O2236 O 0.31357 0.36076 0.87055 0.0
O2237 O 0.41132 0.33161 0.84599 0.0
O2238 O 0.38471 0.28562 0.80931 0.0
O2239 O 0.27364 0.2965 0.8289 0.0
O2240 O 0.31686 0.27428 0.82408 0.0
O2241 O 0.29268 0.32322 0.75963 0.0
O2242 O 0.34662 0.32079 0.76793 0.0
O2243 O 0.23969 0.33812 0.79176 0.0
O2244 O 0.26737 0.38375 0.82873 0.0
C2245 C 0.33013 0.34643 0.8907 0.0
O2246 O 0.37587 0.37675 0.83069 0.0
O2247 O 0.33186 0.38519 0.79754 0.0
C2248 C 0.43947 0.31406 0.80315 0.0
C2249 C 0.48653 0.32714 0.75842 0.0
C2250 C 0.45878 0.33914 0.75513 0.0
C2251 C 0.4356 0.33275 0.77731 0.0
C2252 C 0.46711 0.30221 0.80679 0.0
C2253 C 0.49048 0.30875 0.78472 0.0
C2254 C 0.41395 0.30606 0.82522 0.0
C2255 C 0.2861 0.2715 0.82874 0.0
C2256 C 0.31867 0.31833 0.74743 0.0
C2257 C 0.21124 0.35713 0.83335 0.0
C2258 C 0.1607 0.34327 0.87399 0.0
C2259 C 0.17992 0.32157 0.86866 0.0
C2260 C 0.20508 0.32858 0.84881 0.0
C2261 C 0.19222 0.37893 0.83865 0.0
C2262 C 0.16723 0.37215 0.85892 0.0
C2263 C 0.23786 0.36421 0.81236 0.0
H2264 H 0.45455 0.35294 0.73499 0.0
H2265 H 0.41438 0.34211 0.77403 0.0
H2266 H 0.47055 0.28777 0.82658 0.0
H2267 H 0.51178 0.29957 0.78845 0.0
H2268 H 0.17588 0.29944 0.88034 0.0
H2269 H 0.2198 0.3117 0.84559 0.0
H2270 H 0.1967 0.40118 0.82715 0.0
H2271 H 0.15272 0.38926 0.86246 0.0
Dy2272 Dy 0.08514 0.04738 0.56295 0.0
Dy2273 Dy 0.06097 0.11561 0.57414 0.0
C2274 C 1.01156 0.04353 0.57612 0.0
O2275 O 0.08048 0.0599 0.5097 0.0
O2276 O 0.04587 0.09233 0.51751 0.0
O2277 O 0.07347 0.99444 0.54118 0.0
O2278 O 0.11984 1.02082 0.57694 0.0
O2279 O 0.10986 0.13148 0.55641 0.0
O2280 O 0.13235 0.08944 0.56566 0.0
O2281 O 0.08422 0.11436 0.62815 0.0
O2282 O 0.08404 0.0594 0.61952 0.0
O2283 O 0.0712 0.16829 0.59498 0.0
O2284 O 1.0242 0.14035 0.56071 0.0
C2285 C 0.06059 0.07598 0.49722 0.0
O2286 O 1.0294 0.03109 0.55664 0.0
O2287 O 1.02146 0.07563 0.59029 0.0
C2288 C 0.09146 0.96558 0.58259 0.0
C2289 C 0.07854 0.91636 0.62471 0.0
C2290 C 0.07726 0.94892 0.63624 0.0
C2291 C 0.08346 0.97316 0.61533 0.0
C2292 C 0.09215 0.93305 0.57063 0.0
C2293 C 0.08563 0.90864 0.59139 0.0
C2294 C 0.09909 0.99159 0.5611 0.0
C2295 C 0.13513 0.11945 0.55865 0.0
C2296 C 0.08776 0.0879 0.64023 0.0
C2297 C 0.05116 0.19559 0.55346 0.0
C2298 C 0.06486 0.24487 0.51156 0.0
C2299 C 0.08152 0.22054 0.51088 0.0
C2300 C 0.07456 0.19604 0.53141 0.0
C2301 C 0.03433 0.21966 0.55416 0.0
C2302 C 0.04099 0.24401 0.53327 0.0
C2303 C 0.04465 0.17008 0.57564 0.0
H2304 H 0.07226 0.95603 0.66177 0.0
H2305 H 0.08241 0.99799 0.62497 0.0
H2306 H 0.09787 0.92656 0.5453 0.0
H2307 H 0.08614 0.88367 0.58124 0.0
H2308 H 0.09962 0.22015 0.49408 0.0
H2309 H 0.0875 0.17741 0.53009 0.0
H2310 H 1.01613 0.21971 0.5709 0.0
H2311 H 1.02785 0.2625 0.53449 0.0
Dy2312 Dy 0.32958 0.86228 0.80531 0.0
Dy2313 Dy 0.31854 0.79397 0.83609 0.0
C2314 C 0.32546 0.86151 0.88152 0.0
O2315 O 0.38175 0.85634 0.80822 0.0
O2316 O 0.37562 0.81991 0.84639 0.0
O2317 O 0.35145 0.91636 0.81563 0.0
O2318 O 0.31724 0.89109 0.76776 0.0
O2319 O 0.33595 0.78361 0.78671 0.0
O2320 O 0.32347 0.8236 0.75905 0.0
O2321 O 0.26534 0.79005 0.81117 0.0
O2322 O 0.27453 0.84619 0.81233 0.0
O2323 O 0.29763 0.74011 0.83041 0.0
O2324 O 0.32945 0.76984 0.87849 0.0
C2325 C 0.39506 0.84021 0.82947 0.0
O2326 O 0.34666 0.87181 0.86157 0.0
O2327 O 0.30567 0.83052 0.87381 0.0
C2328 C 0.31213 0.94169 0.79539 0.0
C2329 C 0.26955 0.98109 0.80609 0.0
C2330 C 0.27015 0.9558 0.82537 0.0
C2331 C 0.29122 0.93628 0.82004 0.0
C2332 C 0.31201 0.96709 0.77643 0.0
C2333 C 0.29095 0.98669 0.78176 0.0
C2334 C 0.33279 0.91979 0.78855 0.0
C2335 C 0.33223 0.79634 0.75895 0.0
C2336 C 0.25332 0.81548 0.8091 0.0
C2337 C 0.3391 0.72007 0.85534 0.0
C2338 C 0.38223 0.68177 0.84306 0.0
C2339 C 0.38801 0.71327 0.8333 0.0
C2340 C 0.36662 0.73214 0.83931 0.0
C2341 C 0.33336 0.6889 0.86564 0.0
C2342 C 0.35486 0.66986 0.85961 0.0
C2343 C 0.31602 0.7398 0.85932 0.0
H2344 H 0.25386 0.95062 0.84409 0.0
H2345 H 0.2909 0.91665 0.83489 0.0
H2346 H 0.328 0.97159 0.75733 0.0
H2347 H 0.29156 1.00636 0.76694 0.0
H2348 H 0.40908 0.72337 0.82097 0.0
H2349 H 0.37137 0.75607 0.83098 0.0
H2350 H 0.31207 0.67912 0.87779 0.0
H2351 H 0.34961 0.6455 0.86711 0.0
Dy2352 Dy 0.58197 0.10831 0.04699 0.0
Dy2353 Dy 0.54858 0.04877 0.08562 0.0
C2354 C 0.5783 0.03218 1.01757 0.0
O2355 O 0.53034 0.08249 1.01715 0.0
O2356 O 0.50867 0.06833 0.06423 0.0
O2357 O 0.5809 0.13644 1.00571 0.0
O2358 O 0.62503 0.15 0.04539 0.0
O2359 O 0.55416 0.09712 0.12279 0.0
O2360 O 0.55635 0.13308 0.08429 0.0
O2361 O 0.60344 0.05743 0.09544 0.0
O2362 O 0.61393 0.11318 0.09762 0.0
O2363 O 0.55014 0.02373 0.129 0.0
O2364 O 0.50808 1.00406 0.08616 0.0
C2365 C 0.50502 0.07511 0.03323 0.0
O2366 O 0.59744 0.06391 0.02428 0.0
O2367 O 0.5529 0.02247 0.03365 0.0
C2368 C 0.63304 0.15147 0.98828 0.0
C2369 C 0.66646 0.14053 0.93329 0.0
C2370 C 0.67055 0.12583 0.96234 0.0
C2371 C 0.65392 0.13113 0.98949 0.0
C2372 C 0.62955 0.16701 0.95982 0.0
C2373 C 0.64618 0.16163 0.93247 0.0
C2374 C 0.61258 0.15367 1.01503 0.0
C2375 C 0.55221 0.12597 0.11499 0.0
C2376 C 0.62335 0.0882 0.10621 0.0
C2377 C 0.49691 1.00677 0.14237 0.0
C2378 C 0.46336 1.02143 0.19583 0.0
C2379 C 0.46632 0.04041 0.16959 0.0
C2380 C 0.48297 0.03313 0.14307 0.0
C2381 C 0.49306 0.98698 0.16778 0.0
C2382 C 0.47627 0.9942 0.19438 0.0
C2383 C 0.51945 1.00372 0.1182 0.0
H2384 H 0.68678 0.11033 0.96408 0.0
H2385 H 0.65691 0.11882 1.01119 0.0
H2386 H 0.61327 0.18254 0.95834 0.0
H2387 H 0.64245 0.17321 0.91034 0.0
H2388 H 0.45618 0.06118 0.16982 0.0
H2389 H 0.48606 0.04893 0.1238 0.0
H2390 H 0.50416 0.9669 0.16781 0.0
H2391 H 0.47456 0.97935 0.2145 0.0
Dy2392 Dy 0.30104 0.29393 0.30018 0.0
Dy2393 Dy 0.34696 0.36673 0.3392 0.0
C2394 C 0.32462 0.30871 0.38347 0.0
O2395 O 0.26228 0.31781 0.3175 0.0
O2396 O 0.29402 0.37287 0.33641 0.0
O2397 O 0.25311 0.25505 0.29225 0.0
O2398 O 0.29163 0.247 0.26491 0.0
O2399 O 0.34182 0.37146 0.28305 0.0
O2400 O 0.30088 0.3223 0.25656 0.0
O2401 O 0.38521 0.33805 0.33339 0.0
O2402 O 0.35378 0.29442 0.29039 0.0
O2403 O 0.395 0.40543 0.34706 0.0
O2404 O 0.35793 0.41216 0.37719 0.0
C2405 C 0.26422 0.34917 0.32992 0.0
O2406 O 0.3171 0.28652 0.35443 0.0
O2407 O 0.33398 0.34098 0.38318 0.0
C2408 C 0.26284 0.20297 0.28921 0.0
C2409 C 0.29031 0.15958 0.32034 0.0
C2410 C 0.28058 0.18359 0.34078 0.0
C2411 C 0.26691 0.20531 0.32526 0.0
C2412 C 0.26763 0.17563 0.26865 0.0
C2413 C 0.28128 0.15391 0.28419 0.0
C2414 C 0.26353 0.23298 0.27463 0.0
C2415 C 0.3219 0.3516 0.25505 0.0
C2416 C 0.38368 0.31288 0.30853 0.0
C2417 C 0.38604 0.45793 0.35503 0.0
C2418 C 0.35887 0.50439 0.3295 0.0
C2419 C 0.36652 0.48039 0.30663 0.0
C2420 C 0.38019 0.4574 0.31935 0.0
C2421 C 0.38286 0.48469 0.37798 0.0
C2422 C 0.3695 0.50801 0.36525 0.0
C2423 C 0.38559 0.42675 0.36704 0.0
H2424 H 0.2869 0.18806 0.36869 0.0
H2425 H 0.26311 0.22608 0.34175 0.0
H2426 H 0.26446 0.17334 0.24084 0.0
H2427 H 0.28789 0.13485 0.26797 0.0
H2428 H 0.35884 0.47702 0.27896 0.0
H2429 H 0.3827 0.43712 0.30106 0.0
H2430 H 0.38742 0.48557 0.40559 0.0
H2431 H 0.36488 0.52708 0.38341 0.0
Dy2432 Dy 0.58514 0.54738 0.06295 0.0
Dy2433 Dy 0.56097 0.61561 0.07414 0.0
C2434 C 0.51156 0.54353 0.07612 0.0
O2435 O 0.58048 0.5599 1.0097 0.0
O2436 O 0.54587 0.59233 1.01751 0.0
O2437 O 0.57347 0.49444 0.04118 0.0
O2438 O 0.61984 0.52082 0.07694 0.0
O2439 O 0.60986 0.63148 0.05641 0.0
O2440 O 0.63235 0.58944 0.06566 0.0
O2441 O 0.58422 0.61436 0.12815 0.0
O2442 O 0.58404 0.55939 0.11952 0.0
O2443 O 0.5712 0.66829 0.09498 0.0
O2444 O 0.5242 0.64034 0.06071 0.0
C2445 C 0.56059 0.57598 0.99722 0.0
O2446 O 0.5294 0.53109 0.05664 0.0
O2447 O 0.52146 0.57563 0.09029 0.0
C2448 C 0.59146 0.46558 0.08259 0.0
C2449 C 0.57854 0.41635 0.12471 0.0
C2450 C 0.57727 0.44892 0.13625 0.0
C2451 C 0.58347 0.47316 0.11534 0.0
C2452 C 0.59214 0.43305 0.07063 0.0
C2453 C 0.58562 0.40863 0.09139 0.0
C2454 C 0.59909 0.49158 0.0611 0.0
C2455 C 0.63513 0.61945 0.05865 0.0
C2456 C 0.58776 0.5879 0.14023 0.0
C2457 C 0.55116 0.69559 0.05346 0.0
C2458 C 0.56486 0.74486 1.01156 0.0
C2459 C 0.58152 0.72054 1.01088 0.0
C2460 C 0.57456 0.69604 0.03141 0.0
C2461 C 0.53432 0.71966 0.05415 0.0
C2462 C 0.54099 0.74401 0.03327 0.0
C2463 C 0.54465 0.67008 0.07564 0.0
H2464 H 0.57228 0.45604 0.16177 0.0
H2465 H 0.58243 0.49799 0.12498 0.0
H2466 H 0.59785 0.42655 0.04529 0.0
H2467 H 0.58612 0.38367 0.08124 0.0
H2468 H 0.59962 0.72015 0.99408 0.0
H2469 H 0.5875 0.67741 0.03009 0.0
H2470 H 0.51613 0.7197 0.0709 0.0
H2471 H 0.52785 0.7625 0.03449 0.0
Dy2472 Dy 0.82958 0.36227 0.30531 0.0
Dy2473 Dy 0.81854 0.29397 0.33609 0.0
C2474 C 0.82546 0.36151 0.38152 0.0
O2475 O 0.88175 0.35634 0.30822 0.0
O2476 O 0.87561 0.31991 0.34639 0.0
O2477 O 0.85145 0.41636 0.31563 0.0
O2478 O 0.81724 0.39109 0.26776 0.0
O2479 O 0.83595 0.28361 0.28671 0.0
O2480 O 0.82347 0.3236 0.25905 0.0
O2481 O 0.76534 0.29004 0.31117 0.0
O2482 O 0.77453 0.34619 0.31233 0.0
O2483 O 0.79763 0.24011 0.33041 0.0
O2484 O 0.82945 0.26984 0.37849 0.0
C2485 C 0.89506 0.34021 0.32947 0.0
O2486 O 0.84665 0.37181 0.36157 0.0
O2487 O 0.80567 0.33052 0.37381 0.0
C2488 C 0.81213 0.44169 0.29539 0.0
C2489 C 0.76955 0.48108 0.30609 0.0
C2490 C 0.77015 0.4558 0.32537 0.0
C2491 C 0.79122 0.43628 0.32004 0.0
C2492 C 0.81201 0.46709 0.27643 0.0
C2493 C 0.79095 0.48669 0.28176 0.0
C2494 C 0.83279 0.41979 0.28855 0.0
C2495 C 0.83223 0.29634 0.25895 0.0
C2496 C 0.75332 0.31548 0.3091 0.0
C2497 C 0.8391 0.22007 0.35534 0.0
C2498 C 0.88223 0.18177 0.34306 0.0
C2499 C 0.88801 0.21327 0.3333 0.0
C2500 C 0.86662 0.23214 0.33931 0.0
C2501 C 0.83336 0.1889 0.36564 0.0
C2502 C 0.85486 0.16986 0.35961 0.0
C2503 C 0.81602 0.2398 0.35932 0.0
H2504 H 0.75385 0.45061 0.34409 0.0
H2505 H 0.7909 0.41665 0.33489 0.0
H2506 H 0.82799 0.47158 0.25733 0.0
H2507 H 0.79156 0.50635 0.26693 0.0
H2508 H 0.90908 0.22337 0.32097 0.0
H2509 H 0.87137 0.25607 0.33098 0.0
H2510 H 0.81207 0.17911 0.37779 0.0
H2511 H 0.84961 0.1455 0.36711 0.0
Dy2512 Dy 0.08196 0.60832 0.54698 0.0
Dy2513 Dy 0.04858 0.54877 0.58561 0.0
C2514 C 0.0783 0.53219 0.51757 0.0
O2515 O 1.03034 0.58249 0.51715 0.0
O2516 O 1.00867 0.56834 0.56423 0.0
O2517 O 0.08089 0.63644 0.5057 0.0
O2518 O 0.12502 0.65 0.54538 0.0
O2519 O 0.05416 0.59713 0.62278 0.0
O2520 O 0.05635 0.63308 0.58429 0.0
O2521 O 0.10344 0.55743 0.59544 0.0
O2522 O 0.11393 0.61318 0.5976 0.0
O2523 O 0.05014 0.52373 0.629 0.0
O2524 O 1.00807 0.50406 0.58615 0.0
C2525 C 1.00502 0.57511 0.53323 0.0
O2526 O 0.09743 0.56391 0.52427 0.0
O2527 O 0.0529 0.52248 0.53365 0.0
C2528 C 0.13303 0.65147 0.48827 0.0
C2529 C 0.16645 0.64053 0.43328 0.0
C2530 C 0.17054 0.62584 0.46233 0.0
C2531 C 0.15392 0.63114 0.48948 0.0
C2532 C 0.12954 0.66701 0.45981 0.0
C2533 C 0.14617 0.66163 0.43246 0.0
C2534 C 0.11257 0.65367 0.51502 0.0
C2535 C 0.05221 0.62597 0.61499 0.0
C2536 C 0.12335 0.5882 0.6062 0.0
C2537 C 0.99691 0.50678 0.64236 0.0
C2538 C 0.96336 0.52143 0.69583 0.0
C2539 C 0.96632 0.54042 0.66958 0.0
C2540 C 0.98296 0.53314 0.64306 0.0
C2541 C 0.99306 0.48698 0.66777 0.0
C2542 C 0.97627 0.49421 0.69437 0.0
C2543 C 1.01945 0.50373 0.61819 0.0
H2544 H 0.18678 0.61034 0.46408 0.0
H2545 H 0.1569 0.61883 0.51119 0.0
H2546 H 0.11325 0.68254 0.45833 0.0
H2547 H 0.14244 0.6732 0.41032 0.0
H2548 H 0.95618 0.56118 0.66982 0.0
H2549 H 0.98605 0.54893 0.62379 0.0
H2550 H 1.00415 0.46691 0.6678 0.0
H2551 H 0.97455 0.47936 0.7145 0.0
Dy2552 Dy 0.85881 0.8209 0.32462 0.0
Dy2553 Dy 0.79137 0.84641 0.31378 0.0
C2554 C 0.86383 0.89463 0.31128 0.0
O2555 O 0.84655 0.82668 0.37814 0.0
O2556 O 0.81357 0.86076 0.37055 0.0
O2557 O 0.91132 0.83161 0.34599 0.0
O2558 O 0.88471 0.78562 0.30931 0.0
O2559 O 0.77364 0.79651 0.32891 0.0
O2560 O 0.81686 0.77428 0.32407 0.0
O2561 O 0.79268 0.82321 0.25963 0.0
O2562 O 0.84662 0.82079 0.26793 0.0
O2563 O 0.73969 0.83812 0.29176 0.0
O2564 O 0.76737 0.88375 0.32873 0.0
C2565 C 0.83013 0.84643 0.3907 0.0
O2566 O 0.87587 0.87675 0.33069 0.0
O2567 O 0.83186 0.88518 0.29754 0.0
C2568 C 0.93947 0.81406 0.30315 0.0
C2569 C 0.98652 0.82714 0.25842 0.0
C2570 C 0.95878 0.83914 0.25513 0.0
C2571 C 0.9356 0.83275 0.27731 0.0
C2572 C 0.96711 0.80221 0.30679 0.0
C2573 C 0.99048 0.80875 0.28472 0.0
C2574 C 0.91394 0.80606 0.32522 0.0
C2575 C 0.7861 0.7715 0.32874 0.0
C2576 C 0.81867 0.81833 0.24743 0.0
C2577 C 0.71124 0.85712 0.33336 0.0
C2578 C 0.6607 0.84327 0.37399 0.0
C2579 C 0.67992 0.82157 0.36867 0.0
C2580 C 0.70508 0.82858 0.34881 0.0
C2581 C 0.69221 0.87893 0.33864 0.0
C2582 C 0.66722 0.87214 0.35891 0.0
C2583 C 0.73786 0.86421 0.31236 0.0
H2584 H 0.95455 0.85294 0.23499 0.0
H2585 H 0.91438 0.84211 0.27403 0.0
H2586 H 0.97055 0.78777 0.32658 0.0
H2587 H 1.01178 0.79957 0.28845 0.0
H2588 H 0.67588 0.79944 0.38035 0.0
H2589 H 0.7198 0.8117 0.3456 0.0
H2590 H 0.69669 0.90118 0.32714 0.0
H2591 H 0.65271 0.88925 0.36245 0.0
Dy2592 Dy 0.8522 0.3498 0.78532 0.0
Dy2593 Dy 0.79412 0.31288 0.82398 0.0
C2594 C 0.82888 0.38987 0.84473 0.0
O2595 O 0.88056 0.34598 0.83611 0.0
O2596 O 0.84032 0.30166 0.84821 0.0
O2597 O 0.89479 0.39137 0.78213 0.0
O2598 O 0.87517 0.34816 0.74013 0.0
O2599 O 0.79138 0.28399 0.77179 0.0
O2600 O 0.8469 0.29545 0.77695 0.0
O2601 O 0.76878 0.34099 0.79122 0.0
O2602 O 0.80311 0.34529 0.75091 0.0
O2603 O 0.75786 0.26552 0.82511 0.0
O2604 O 0.76082 0.31032 0.86108 0.0
C2605 C 0.87166 0.32168 0.85381 0.0
O2606 O 0.83446 0.38869 0.81308 0.0
O2607 O 0.82047 0.36276 0.85795 0.0
C2608 C 0.88999 0.40098 0.72535 0.0
C2609 C 0.87433 0.43455 0.67262 0.0
C2610 C 0.85605 0.43169 0.69967 0.0
C2611 C 0.86379 0.415 0.72576 0.0
C2612 C 0.90879 0.40431 0.69892 0.0
C2613 C 0.90105 0.42102 0.67269 0.0
C2614 C 0.89444 0.37933 0.74993 0.0
C2615 C 0.81695 0.2744 0.76544 0.0
C2616 C 0.77498 0.34714 0.76078 0.0
C2617 C 0.75267 0.26008 0.88209 0.0
C2618 C 0.76324 0.23108 0.94004 0.0
C2619 C 0.78226 0.22938 0.91399 0.0
C2620 C 0.77722 0.24389 0.88537 0.0
C2621 C 0.73321 0.26149 0.90781 0.0
C2622 C 0.73849 0.24713 0.9367 0.0
C2623 C 0.74921 0.27756 0.85325 0.0
H2624 H 0.83575 0.44234 0.70071 0.0
H2625 H 0.84873 0.4123 0.74583 0.0
H2626 H 0.92873 0.39312 0.69799 0.0
H2627 H 0.91538 0.42253 0.65201 0.0
H2628 H 0.80099 0.2167 0.91584 0.0
H2629 H 0.79284 0.24273 0.86602 0.0
H2630 H 0.71442 0.27421 0.90584 0.0
H2631 H 0.72362 0.24901 0.95662 0.0
Dy2632 Dy 0.80104 0.79393 0.80018 0.0
Dy2633 Dy 0.84696 0.86673 0.8392 0.0
C2634 C 0.82462 0.80871 0.88347 0.0
O2635 O 0.76228 0.81781 0.8175 0.0
O2636 O 0.79402 0.87287 0.83641 0.0
O2637 O 0.75312 0.75505 0.79225 0.0
O2638 O 0.79163 0.747 0.76492 0.0
O2639 O 0.84182 0.87146 0.78305 0.0
O2640 O 0.80088 0.8223 0.75656 0.0
O2641 O 0.88521 0.83805 0.83339 0.0
O2642 O 0.85378 0.79442 0.79039 0.0
O2643 O 0.895 0.90543 0.84706 0.0
O2644 O 0.85793 0.91216 0.87719 0.0
C2645 C 0.76422 0.84917 0.82992 0.0
O2646 O 0.8171 0.78652 0.85443 0.0
O2647 O 0.83399 0.84098 0.88318 0.0
C2648 C 0.76284 0.70297 0.78921 0.0
C2649 C 0.79032 0.65958 0.82034 0.0
C2650 C 0.78058 0.6836 0.84078 0.0
C2651 C 0.76691 0.70531 0.82526 0.0
C2652 C 0.76763 0.67563 0.76865 0.0
C2653 C 0.78129 0.65392 0.78419 0.0
C2654 C 0.76353 0.73298 0.77463 0.0
C2655 C 0.8219 0.8516 0.75505 0.0
C2656 C 0.88368 0.81288 0.80853 0.0
C2657 C 0.88604 0.95793 0.85503 0.0
C2658 C 0.85887 1.00439 0.8295 0.0
C2659 C 0.86652 0.98039 0.80663 0.0
C2660 C 0.88019 0.9574 0.81935 0.0
C2661 C 0.88286 0.98469 0.87798 0.0
C2662 C 0.8695 1.00801 0.86525 0.0
C2663 C 0.88559 0.92675 0.86704 0.0
H2664 H 0.7869 0.68807 0.86869 0.0
H2665 H 0.76311 0.72608 0.84176 0.0
H2666 H 0.76446 0.67334 0.74085 0.0
H2667 H 0.7879 0.63485 0.76798 0.0
H2668 H 0.85884 0.97702 0.77896 0.0
H2669 H 0.88271 0.93712 0.80106 0.0
H2670 H 0.88742 0.98557 0.90559 0.0
H2671 H 0.86487 0.02708 0.88341 0.0
Dy2672 Dy 0.60689 0.60968 0.58556 0.0
Dy2673 Dy 0.53438 0.56233 0.54721 0.0
C2674 C 0.59275 0.58396 0.5025 0.0
O2675 O 0.58267 0.64749 0.56695 0.0
O2676 O 0.52793 0.61515 0.54889 0.0
O2677 O 0.64458 0.65844 0.59354 0.0
O2678 O 0.65347 0.62063 0.62107 0.0
O2679 O 0.53057 0.5672 0.60375 0.0
O2680 O 0.57882 0.60942 0.62957 0.0
O2681 O 0.56316 0.52429 0.55269 0.0
O2682 O 0.60827 0.55688 0.59346 0.0
O2683 O 0.49609 0.51402 0.53991 0.0
O2684 O 0.48846 0.55098 0.51048 0.0
C2685 C 0.55138 0.64508 0.55456 0.0
O2686 O 0.61484 0.59324 0.53149 0.0
O2687 O 0.56049 0.57361 0.50278 0.0
C2688 C 0.69711 0.65005 0.5967 0.0
C2689 C 0.73837 0.62041 0.56378 0.0
C2690 C 0.71599 0.63241 0.54431 0.0
C2691 C 0.69532 0.64719 0.56074 0.0
C2692 C 0.72344 0.64342 0.61647 0.0
C2693 C 0.74398 0.62849 0.60002 0.0
C2694 C 0.66691 0.64882 0.61126 0.0
C2695 C 0.55029 0.58753 0.63158 0.0
C2696 C 0.58941 0.52658 0.57612 0.0
C2697 C 0.44346 0.5223 0.53351 0.0
C2698 C 0.39485 0.54676 0.55884 0.0
C2699 C 0.42062 0.54248 0.58189 0.0
C2700 C 0.44471 0.53019 0.56927 0.0
C2701 C 0.41538 0.52223 0.51066 0.0
C2702 C 0.39096 0.53415 0.52331 0.0
C2703 C 0.47442 0.52318 0.52063 0.0
H2704 H 0.71171 0.62689 0.51635 0.0
H2705 H 0.67539 0.65247 0.54483 0.0
H2706 H 0.72536 0.64569 0.64419 0.0
H2707 H 0.7618 0.62007 0.61548 0.0
H2708 H 0.42428 0.55178 0.60938 0.0
H2709 H 0.46604 0.53017 0.58745 0.0
H2710 H 0.41395 0.51608 0.483 0.0
H2711 H 0.37066 0.53622 0.50506 0.0
Dy2712 Dy 0.04215 0.57992 0.08604 0.0
Dy2713 Dy 0.10961 0.59062 0.05285 0.0
C2714 C 0.04348 0.59462 1.00936 0.0
O2715 O 0.03746 0.52656 0.05968 0.0
O2716 O 0.09287 0.53514 0.05766 0.0
O2717 O 0.98867 0.55776 0.08072 0.0
O2718 O 1.01762 0.59083 0.12857 0.0
O2719 O 0.12162 0.60447 0.10971 0.0
O2720 O 0.07805 0.56604 0.12275 0.0
O2721 O 0.10378 0.64305 0.05734 0.0
O2722 O 0.06827 0.63719 0.09677 0.0
O2723 O 0.16338 0.61328 0.06026 0.0
O2724 O 0.13708 0.57625 1.0144 0.0
C2725 C 0.06233 0.5142 0.05547 0.0
O2726 O 1.03155 0.59831 0.03781 0.0
O2727 O 0.07029 0.58537 1.0079 0.0
C2728 C 0.96511 0.59698 0.10649 0.0
C2729 C 0.92502 0.63827 0.09283 0.0
C2730 C 0.9143 0.60412 0.07696 0.0
C2731 C 0.93402 0.58366 0.0839 0.0
C2732 C 0.97544 0.63098 0.12304 0.0
C2733 C 0.95552 0.65135 0.11638 0.0
C2734 C 0.98777 0.57626 0.10961 0.0
C2735 C 0.10976 0.58364 0.12951 0.0
C2736 C 0.08811 0.65655 0.07934 0.0
C2737 C 0.18767 0.57209 0.0419 0.0
C2738 C 0.22631 0.5294 0.05523 0.0
C2739 C 0.19836 0.52854 0.07111 0.0
C2740 C 0.17942 0.54978 0.06467 0.0
C2741 C 0.21564 0.57347 0.02625 0.0
C2742 C 0.23492 0.55244 0.03298 0.0
C2743 C 0.16611 0.59272 0.03391 0.0
H2744 H 0.89066 0.59323 0.05908 0.0
H2745 H 0.92539 0.55758 0.07081 0.0
H2746 H 0.99934 0.64218 0.14042 0.0
H2747 H 0.96447 0.67762 0.12886 0.0
H2748 H 0.19057 0.51096 0.088 0.0
H2749 H 0.15801 0.54848 0.0772 0.0
H2750 H 0.22245 0.59065 1.00872 0.0
H2751 H 0.25665 0.55436 0.02083 0.0
loop_
_geom_bond_atom_site_label_1
_geom_bond_atom_site_label_2
_geom_bond_distance
_geom_bond_site_symmetry_2
_ccdc_geom_bond_type
Li0 N17 1.990 1_455 S
Li0 O60 1.956 . S
Li0 O61 1.970 . S
Li0 O62 1.961 . S
Li1 N25 1.990 . S
Li1 O60 1.970 . S
Li1 O61 1.956 . S
Li1 O63 1.961 . S
Li2 N47 1.990 . S
Li2 O60 1.961 . S
Li2 O62 1.956 . S
Li2 O63 1.970 . S
Li3 N53 1.990 . S
Li3 O61 1.961 . S
Li3 O62 1.970 . S
Li3 O63 1.956 . S
C4 C6 1.348 . S
C4 C7 1.356 . S
C4 O60 1.325 . S
N5 C8 1.314 . S
N5 C9 1.279 . S
C6 C4 1.348 . S
C6 C8 1.353 . S
C6 H64 0.929 . S
C7 C4 1.356 . S
C7 C9 1.358 . S
C7 H65 0.930 . S
C8 N5 1.314 . S
C8 C6 1.353 . S
C8 H66 0.930 . S
C9 N5 1.279 . S
C9 C7 1.358 . S
C9 H67 0.930 . S
C10 C13 1.348 . S
C10 C14 1.356 . S
C10 O61 1.325 1_655 S
C11 N12 1.279 . S
C11 C14 1.358 . S
C11 H68 0.930 . S
N12 C11 1.279 . S
N12 C15 1.314 . S
C13 C10 1.348 . S
C13 C15 1.353 . S
C13 H69 0.929 . S
C14 C10 1.356 . S
C14 C11 1.358 . S
C14 H70 0.930 1_655 S
C15 N12 1.314 . S
C15 C13 1.353 . S
C15 H71 0.930 . S
C16 N17 1.314 . S
C16 C21 1.353 . S
C16 H22 0.930 . S
N17 Li0 1.990 1_655 S
N17 C16 1.314 . S
N17 C19 1.279 . S
C18 C19 1.358 . S
C18 C20 1.356 . S
C18 H72 0.930 . S
C19 N17 1.279 . S
C19 C18 1.358 . S
C19 H23 0.930 . S
C20 C18 1.356 . S
C20 C21 1.348 . S
C21 C16 1.353 . S
C21 C20 1.348 . S
C21 H73 0.929 . S
H22 C16 0.930 . S
H23 C19 0.930 . S
C24 N25 1.314 . S
C24 C26 1.353 . S
C24 H30 0.930 . S
N25 Li1 1.990 . S
N25 C24 1.314 . S
N25 C28 1.279 . S
C26 C24 1.353 . S
C26 C29 1.348 . S
C26 H74 0.929 . S
C27 C28 1.358 . S
C27 C29 1.356 . S
C27 H75 0.930 . S
C28 N25 1.279 . S
C28 C27 1.358 . S
C28 H31 0.930 . S
C29 C26 1.348 . S
C29 C27 1.356 . S
H30 C24 0.930 . S
H31 C28 0.930 . S
C32 C34 1.348 . S
C32 C35 1.356 . S
C32 O62 1.325 . S
N33 C36 1.314 . S
N33 C37 1.279 . S
C34 C32 1.348 . S
C34 C36 1.353 . S
C34 H76 0.929 . S
C35 C32 1.356 . S
C35 C37 1.358 . S
C35 H77 0.930 . S
C36 N33 1.314 . S
C36 C34 1.353 . S
C36 H78 0.930 . S
C37 N33 1.279 . S
C37 C35 1.358 . S
C37 H79 0.930 . S
C38 C39 1.348 . S
C38 C40 1.356 . S
C38 O63 1.325 . S
C39 C38 1.348 . S
C39 C41 1.353 . S
C39 H80 0.929 . S
C40 C38 1.356 . S
C40 C42 1.358 . S
C40 H81 0.930 . S
C41 C39 1.353 . S
C41 N43 1.314 . S
C41 H82 0.930 . S
C42 C40 1.358 . S
C42 N43 1.279 . S
C42 H83 0.930 . S
N43 C41 1.314 . S
N43 C42 1.279 . S
C44 C46 1.353 . S
C44 N47 1.314 . S
C44 H50 0.930 . S
C45 N47 1.279 . S
C45 C48 1.358 . S
C45 H51 0.930 . S
C46 C44 1.353 . S
C46 C49 1.348 . S
C46 H84 0.929 . S
N47 Li2 1.990 . S
N47 C44 1.314 . S
N47 C45 1.279 . S
C48 C45 1.358 . S
C48 C49 1.356 . S
C48 H85 0.930 . S
C49 C46 1.348 . S
C49 C48 1.356 . S
H50 C44 0.930 . S
H51 C45 0.930 . S
C52 N53 1.314 . S
C52 C54 1.353 . S
C52 H58 0.930 1_455 S
N53 Li3 1.990 . S
N53 C52 1.314 . S
N53 C56 1.279 . S
C54 C52 1.353 . S
C54 C57 1.348 . S
C54 H86 0.929 1_455 S
C55 C56 1.358 . S
C55 C57 1.356 . S
C55 H87 0.930 . S
C56 N53 1.279 . S
C56 C55 1.358 . S
C56 H59 0.930 . S
C57 C54 1.348 . S
C57 C55 1.356 . S
H58 C52 0.930 1_655 S
H59 C56 0.930 . S
O60 Li0 1.956 . S
O60 Li1 1.970 . S
O60 Li2 1.961 . S
O60 C4 1.325 . S
O61 Li0 1.970 . S
O61 Li1 1.956 . S
O61 Li3 1.961 . S
O61 C10 1.325 1_455 S
O62 Li0 1.961 . S
O62 Li2 1.956 . S
O62 Li3 1.970 . S
O62 C32 1.325 . S
O63 Li1 1.961 . S
O63 Li2 1.970 . S
O63 Li3 1.956 . S
O63 C38 1.325 . S
H64 C6 0.929 . S
H65 C7 0.930 . S
H66 C8 0.930 . S
H67 C9 0.930 . S
H68 C11 0.930 . S
H69 C13 0.929 . S
H70 C14 0.930 1_455 S
H71 C15 0.930 . S
H72 C18 0.930 . S
H73 C21 0.929 . S
H74 C26 0.929 . S
H75 C27 0.930 . S
H76 C34 0.929 . S
H77 C35 0.930 . S
H78 C36 0.930 . S
H79 C37 0.930 . S
H80 C39 0.929 . S
H81 C40 0.930 . S
H82 C41 0.930 . S
H83 C42 0.930 . S
H84 C46 0.929 . S
H85 C48 0.930 . S
H86 C54 0.929 1_655 S
H87 C55 0.930 . S
Li88 N105 1.990 . S
Li88 O148 1.956 . S
Li88 O149 1.970 . S
Li88 O150 1.961 1_455 S
Li89 N113 1.990 . S
Li89 O148 1.970 . S
Li89 O149 1.956 . S
Li89 O151 1.961 . S
Li90 N135 1.990 . S
Li90 O148 1.961 . S
Li90 O150 1.956 1_455 S
Li90 O151 1.970 . S
Li91 N141 1.990 1_455 S
Li91 O149 1.961 . S
Li91 O150 1.970 1_455 S
Li91 O151 1.956 . S
C92 C94 1.348 . S
C92 C95 1.356 . S
C92 O148 1.325 . S
N93 C96 1.314 . S
N93 C97 1.279 . S
C94 C92 1.348 . S
C94 C96 1.353 . S
C94 H152 0.929 . S
C95 C92 1.356 . S
C95 C97 1.358 . S
C95 H153 0.930 . S
C96 N93 1.314 . S
C96 C94 1.353 . S
C96 H154 0.930 . S
C97 N93 1.279 . S
C97 C95 1.358 . S
C97 H155 0.930 . S
C98 C101 1.348 . S
C98 C102 1.356 . S
C98 O149 1.325 . S
C99 N100 1.279 . S
C99 C102 1.358 . S
C99 H156 0.930 . S
N100 C99 1.279 . S
N100 C103 1.314 . S
C101 C98 1.348 . S
C101 C103 1.353 . S
C101 H157 0.929 . S
C102 C98 1.356 . S
C102 C99 1.358 . S
C102 H158 0.930 . S
C103 N100 1.314 . S
C103 C101 1.353 . S
C103 H159 0.930 . S
C104 N105 1.314 . S
C104 C109 1.353 . S
C104 H110 0.918 1_455 S
N105 Li88 1.990 . S
N105 C104 1.314 . S
N105 C107 1.279 . S
C106 C107 1.358 . S
C106 C108 1.356 . S
C106 H160 0.930 . S
C107 N105 1.279 . S
C107 C106 1.358 . S
C107 H111 0.930 . S
C108 C106 1.356 . S
C108 C109 1.348 . S
C109 C104 1.353 . S
C109 C108 1.348 . S
C109 H161 0.941 . S
H110 C104 0.918 1_655 S
H111 C107 0.930 . S
C112 N113 1.314 . S
C112 C114 1.353 . S
C112 H118 0.930 . S
N113 Li89 1.990 . S
N113 C112 1.314 . S
N113 C116 1.279 . S
C114 C112 1.353 . S
C114 C117 1.348 . S
C114 H162 0.929 . S
C115 C116 1.358 . S
C115 C117 1.356 . S
C115 H163 0.930 . S
C116 N113 1.279 . S
C116 C115 1.358 . S
C116 H119 0.930 . S
C117 C114 1.348 . S
C117 C115 1.356 . S
H118 C112 0.930 . S
H119 C116 0.930 . S
C120 C122 1.348 . S
C120 C123 1.356 . S
C120 O150 1.325 . S
N121 C124 1.314 . S
N121 C125 1.279 . S
C122 C120 1.348 . S
C122 C124 1.353 . S
C122 H164 0.929 . S
C123 C120 1.356 . S
C123 C125 1.358 . S
C123 H165 0.930 . S
C124 N121 1.314 . S
C124 C122 1.353 . S
C124 H166 0.930 . S
C125 N121 1.279 . S
C125 C123 1.358 . S
C125 H167 0.930 . S
C126 C127 1.348 . S
C126 C128 1.356 . S
C126 O151 1.325 . S
C127 C126 1.348 . S
C127 C129 1.353 . S
C127 H168 0.929 . S
C128 C126 1.356 . S
C128 C130 1.358 . S
C128 H169 0.930 . S
C129 C127 1.353 . S
C129 N131 1.314 . S
C129 H170 0.930 . S
C130 C128 1.358 . S
C130 N131 1.279 . S
C130 H171 0.930 . S
N131 C129 1.314 . S
N131 C130 1.279 . S
C132 C134 1.353 . S
C132 N135 1.314 . S
C132 H138 0.930 . S
C133 N135 1.279 1_655 S
C133 C136 1.358 . S
C133 H139 0.930 . S
C134 C132 1.353 . S
C134 C137 1.348 . S
C134 H172 0.929 . S
N135 Li90 1.990 . S
N135 C132 1.314 . S
N135 C133 1.279 1_455 S
C136 C133 1.358 . S
C136 C137 1.356 1_655 S
C136 H173 0.930 . S
C137 C134 1.348 . S
C137 C136 1.356 1_455 S
H138 C132 0.930 . S
H139 C133 0.930 . S
C140 N141 1.314 . S
C140 C142 1.353 . S
C140 H146 0.930 . S
N141 Li91 1.990 1_655 S
N141 C140 1.314 . S
N141 C144 1.279 . S
C142 C140 1.353 . S
C142 C145 1.348 . S
C142 H174 0.929 . S
C143 C144 1.358 . S
C143 C145 1.356 . S
C143 H175 0.930 . S
C144 N141 1.279 . S
C144 C143 1.358 . S
C144 H147 0.930 . S
C145 C142 1.348 . S
C145 C143 1.356 . S
H146 C140 0.930 . S
H147 C144 0.930 . S
O148 Li88 1.956 . S
O148 Li89 1.970 . S
O148 Li90 1.961 . S
O148 C92 1.325 . S
O149 Li88 1.970 . S
O149 Li89 1.956 . S
O149 Li91 1.961 . S
O149 C98 1.325 . S
O150 Li88 1.961 1_655 S
O150 Li90 1.956 1_655 S
O150 Li91 1.970 1_655 S
O150 C120 1.325 . S
O151 Li89 1.961 . S
O151 Li90 1.970 . S
O151 Li91 1.956 . S
O151 C126 1.325 . S
H152 C94 0.929 . S
H153 C95 0.930 . S
H154 C96 0.930 . S
H155 C97 0.930 . S
H156 C99 0.930 . S
H157 C101 0.929 . S
H158 C102 0.930 . S
H159 C103 0.930 . S
H160 C106 0.930 . S
H161 C109 0.941 . S
H162 C114 0.929 . S
H163 C115 0.930 . S
H164 C122 0.929 . S
H165 C123 0.930 . S
H166 C124 0.930 . S
H167 C125 0.930 . S
H168 C127 0.929 . S
H169 C128 0.930 . S
H170 C129 0.930 . S
H171 C130 0.930 . S
H172 C134 0.929 . S
H173 C136 0.930 . S
H174 C142 0.929 . S
H175 C143 0.930 . S
Li176 N193 1.990 . S
Li176 O236 1.956 . S
Li176 O237 1.970 . S
Li176 O238 1.961 . S
Li177 N201 1.990 . S
Li177 O236 1.970 . S
Li177 O237 1.956 . S
Li177 O239 1.961 . S
Li178 N223 1.990 . S
Li178 O236 1.961 . S
Li178 O238 1.956 . S
Li178 O239 1.970 . S
Li179 N229 1.990 . S
Li179 O237 1.961 . S
Li179 O238 1.970 . S
Li179 O239 1.956 . S
C180 C182 1.348 . S
C180 C183 1.356 . S
C180 O236 1.325 . S
N181 C184 1.314 . S
N181 C185 1.279 . S
C182 C180 1.348 . S
C182 C184 1.353 . S
C182 H240 0.929 . S
C183 C180 1.356 . S
C183 C185 1.358 . S
C183 H241 0.930 . S
C184 N181 1.314 . S
C184 C182 1.353 . S
C184 H242 0.930 . S
C185 N181 1.279 . S
C185 C183 1.358 . S
C185 H243 0.930 . S
C186 C189 1.348 . S
C186 C190 1.356 . S
C186 O237 1.325 . S
C187 N188 1.279 . S
C187 C190 1.358 . S
C187 H244 0.930 . S
N188 C187 1.279 . S
N188 C191 1.314 . S
C189 C186 1.348 . S
C189 C191 1.353 . S
C189 H245 0.929 . S
C190 C186 1.356 . S
C190 C187 1.358 . S
C190 H246 0.930 . S
C191 N188 1.314 . S
C191 C189 1.353 . S
C191 H247 0.930 . S
C192 N193 1.314 . S
C192 C197 1.353 . S
C192 H198 0.930 . S
N193 Li176 1.990 . S
N193 C192 1.314 . S
N193 C195 1.279 . S
C194 C195 1.358 . S
C194 C196 1.356 . S
C194 H248 0.930 . S
C195 N193 1.279 . S
C195 C194 1.358 . S
C195 H199 0.930 . S
C196 C194 1.356 . S
C196 C197 1.348 . S
C197 C192 1.353 . S
C197 C196 1.348 . S
C197 H249 0.929 . S
H198 C192 0.930 . S
H199 C195 0.930 . S
C200 N201 1.314 . S
C200 C202 1.353 . S
C200 H206 0.930 . S
N201 Li177 1.990 . S
N201 C200 1.314 . S
N201 C204 1.279 . S
C202 C200 1.353 . S
C202 C205 1.348 . S
C202 H250 0.929 . S
C203 C204 1.358 . S
C203 C205 1.356 . S
C203 H251 0.930 . S
C204 N201 1.279 . S
C204 C203 1.358 . S
C204 H207 0.930 . S
C205 C202 1.348 . S
C205 C203 1.356 . S
H206 C200 0.930 . S
H207 C204 0.930 . S
C208 C210 1.348 . S
C208 C211 1.356 . S
C208 O238 1.325 . S
N209 C212 1.314 . S
N209 C213 1.279 . S
C210 C208 1.348 . S
C210 C212 1.353 . S
C210 H252 0.929 . S
C211 C208 1.356 . S
C211 C213 1.358 . S
C211 H253 0.930 . S
C212 N209 1.314 . S
C212 C210 1.353 . S
C212 H254 0.930 . S
C213 N209 1.279 . S
C213 C211 1.358 . S
C213 H255 0.930 . S
C214 C215 1.348 . S
C214 C216 1.356 . S
C214 O239 1.325 . S
C215 C214 1.348 . S
C215 C217 1.353 . S
C215 H256 0.929 . S
C216 C214 1.356 . S
C216 C218 1.358 . S
C216 H257 0.930 . S
C217 C215 1.353 . S
C217 N219 1.314 . S
C217 H258 0.930 . S
C218 C216 1.358 . S
C218 N219 1.279 . S
C218 H259 0.930 . S
N219 C217 1.314 . S
N219 C218 1.279 . S
C220 C222 1.353 . S
C220 N223 1.314 . S
C220 H226 0.930 . S
C221 N223 1.279 . S
C221 C224 1.358 . S
C221 H227 0.930 . S
C222 C220 1.353 . S
C222 C225 1.348 . S
C222 H260 0.929 . S
N223 Li178 1.990 . S
N223 C220 1.314 . S
N223 C221 1.279 . S
C224 C221 1.358 . S
C224 C225 1.356 . S
C224 H261 0.930 . S
C225 C222 1.348 . S
C225 C224 1.356 . S
H226 C220 0.930 . S
H227 C221 0.930 . S
C228 N229 1.314 . S
C228 C230 1.353 . S
C228 H234 0.930 . S
N229 Li179 1.990 . S
N229 C228 1.314 . S
N229 C232 1.279 . S
C230 C228 1.353 . S
C230 C233 1.348 . S
C230 H262 0.929 . S
C231 C232 1.358 . S
C231 C233 1.356 . S
C231 H263 0.930 . S
C232 N229 1.279 . S
C232 C231 1.358 . S
C232 H235 0.930 . S
C233 C230 1.348 . S
C233 C231 1.356 . S
H234 C228 0.930 . S
H235 C232 0.930 . S
O236 Li176 1.956 . S
O236 Li177 1.970 . S
O236 Li178 1.961 . S
O236 C180 1.325 . S
O237 Li176 1.970 . S
O237 Li177 1.956 . S
O237 Li179 1.961 . S
O237 C186 1.325 . S
O238 Li176 1.961 . S
O238 Li178 1.956 . S
O238 Li179 1.970 . S
O238 C208 1.325 . S
O239 Li177 1.961 . S
O239 Li178 1.970 . S
O239 Li179 1.956 . S
O239 C214 1.325 . S
H240 C182 0.929 . S
H241 C183 0.930 . S
H242 C184 0.930 . S
H243 C185 0.930 . S
H244 C187 0.930 . S
H245 C189 0.929 . S
H246 C190 0.930 . S
H247 C191 0.930 . S
H248 C194 0.930 . S
H249 C197 0.929 . S
H250 C202 0.929 . S
H251 C203 0.930 . S
H252 C210 0.929 . S
H253 C211 0.930 . S
H254 C212 0.930 . S
H255 C213 0.930 . S
H256 C215 0.929 . S
H257 C216 0.930 . S
H258 C217 0.930 . S
H259 C218 0.930 . S
H260 C222 0.929 . S
H261 C224 0.930 . S
H262 C230 0.929 . S
H263 C231 0.930 . S
Li264 N281 1.990 . S
Li264 O324 1.956 . S
Li264 O325 1.970 . S
Li264 O326 1.961 . S
Li265 N289 1.990 . S
Li265 O324 1.970 . S
Li265 O325 1.956 . S
Li265 O327 1.961 . S
Li266 N311 1.990 . S
Li266 O324 1.961 . S
Li266 O326 1.956 . S
Li266 O327 1.970 . S
Li267 N317 1.990 . S
Li267 O325 1.961 . S
Li267 O326 1.970 . S
Li267 O327 1.956 . S
C268 C270 1.348 . S
C268 C271 1.356 . S
C268 O324 1.325 . S
N269 C272 1.314 . S
N269 C273 1.279 . S
C270 C268 1.348 . S
C270 C272 1.353 . S
C270 H328 0.929 . S
C271 C268 1.356 . S
C271 C273 1.358 . S
C271 H329 0.930 . S
C272 N269 1.314 . S
C272 C270 1.353 . S
C272 H330 0.930 . S
C273 N269 1.279 . S
C273 C271 1.358 . S
C273 H331 0.930 . S
C274 C277 1.348 . S
C274 C278 1.356 . S
C274 O325 1.325 . S
C275 N276 1.279 . S
C275 C278 1.358 . S
C275 H332 0.930 . S
N276 C275 1.279 . S
N276 C279 1.314 . S
C277 C274 1.348 . S
C277 C279 1.353 . S
C277 H333 0.929 . S
C278 C274 1.356 . S
C278 C275 1.358 . S
C278 H334 0.930 . S
C279 N276 1.314 . S
C279 C277 1.353 . S
C279 H335 0.930 . S
C280 N281 1.314 . S
C280 C285 1.353 . S
C280 H286 0.930 . S
N281 Li264 1.990 . S
N281 C280 1.314 . S
N281 C283 1.279 . S
C282 C283 1.358 . S
C282 C284 1.356 . S
C282 H336 0.930 . S
C283 N281 1.279 . S
C283 C282 1.358 . S
C283 H287 0.930 . S
C284 C282 1.356 . S
C284 C285 1.348 . S
C285 C280 1.353 . S
C285 C284 1.348 . S
C285 H337 0.929 . S
H286 C280 0.930 . S
H287 C283 0.930 . S
C288 N289 1.314 . S
C288 C290 1.353 . S
C288 H294 0.930 . S
N289 Li265 1.990 . S
N289 C288 1.314 . S
N289 C292 1.279 . S
C290 C288 1.353 . S
C290 C293 1.348 . S
C290 H338 0.929 . S
C291 C292 1.358 . S
C291 C293 1.356 . S
C291 H339 0.930 . S
C292 N289 1.279 . S
C292 C291 1.358 . S
C292 H295 0.930 . S
C293 C290 1.348 . S
C293 C291 1.356 . S
H294 C288 0.930 . S
H295 C292 0.930 . S
C296 C298 1.348 . S
C296 C299 1.356 . S
C296 O326 1.325 . S
N297 C300 1.314 . S
N297 C301 1.279 . S
C298 C296 1.348 . S
C298 C300 1.353 . S
C298 H340 0.929 . S
C299 C296 1.356 . S
C299 C301 1.358 . S
C299 H341 0.930 . S
C300 N297 1.314 . S
C300 C298 1.353 . S
C300 H342 0.930 . S
C301 N297 1.279 . S
C301 C299 1.358 . S
C301 H343 0.930 . S
C302 C303 1.348 . S
C302 C304 1.356 . S
C302 O327 1.325 . S
C303 C302 1.348 . S
C303 C305 1.353 . S
C303 H344 0.929 . S
C304 C302 1.356 . S
C304 C306 1.358 . S
C304 H345 0.930 . S
C305 C303 1.353 . S
C305 N307 1.314 . S
C305 H346 0.930 . S
C306 C304 1.358 . S
C306 N307 1.279 . S
C306 H347 0.930 . S
N307 C305 1.314 . S
N307 C306 1.279 . S
C308 C310 1.353 . S
C308 N311 1.314 . S
C308 H314 0.930 . S
C309 N311 1.279 . S
C309 C312 1.358 . S
C309 H315 0.930 . S
C310 C308 1.353 . S
C310 C313 1.348 . S
C310 H348 0.929 . S
N311 Li266 1.990 . S
N311 C308 1.314 . S
N311 C309 1.279 . S
C312 C309 1.358 . S
C312 C313 1.356 . S
C312 H349 0.930 . S
C313 C310 1.348 . S
C313 C312 1.356 . S
H314 C308 0.930 . S
H315 C309 0.930 . S
C316 N317 1.314 . S
C316 C318 1.353 . S
C316 H322 0.930 . S
N317 Li267 1.990 . S
N317 C316 1.314 . S
N317 C320 1.279 . S
C318 C316 1.353 . S
C318 C321 1.348 . S
C318 H350 0.929 . S
C319 C320 1.358 . S
C319 C321 1.356 . S
C319 H351 0.930 . S
C320 N317 1.279 . S
C320 C319 1.358 . S
C320 H323 0.930 . S
C321 C318 1.348 . S
C321 C319 1.356 . S
H322 C316 0.930 . S
H323 C320 0.930 . S
O324 Li264 1.956 . S
O324 Li265 1.970 . S
O324 Li266 1.961 . S
O324 C268 1.325 . S
O325 Li264 1.970 . S
O325 Li265 1.956 . S
O325 Li267 1.961 . S
O325 C274 1.325 . S
O326 Li264 1.961 . S
O326 Li266 1.956 . S
O326 Li267 1.970 . S
O326 C296 1.325 . S
O327 Li265 1.961 . S
O327 Li266 1.970 . S
O327 Li267 1.956 . S
O327 C302 1.325 . S
H328 C270 0.929 . S
H329 C271 0.930 . S
H330 C272 0.930 . S
H331 C273 0.930 . S
H332 C275 0.930 . S
H333 C277 0.929 . S
H334 C278 0.930 . S
H335 C279 0.930 . S
H336 C282 0.930 . S
H337 C285 0.929 . S
H338 C290 0.929 . S
H339 C291 0.930 . S
H340 C298 0.929 . S
H341 C299 0.930 . S
H342 C300 0.930 . S
H343 C301 0.930 . S
H344 C303 0.929 . S
H345 C304 0.930 . S
H346 C305 0.930 . S
H347 C306 0.930 . S
H348 C310 0.929 . S
H349 C312 0.930 . S
H350 C318 0.929 . S
H351 C319 0.930 . S
Li352 N369 1.990 . S
Li352 O412 1.956 . S
Li352 O413 1.970 . S
Li352 O414 1.961 . S
Li353 N377 1.990 . S
Li353 O412 1.970 . S
Li353 O413 1.956 . S
Li353 O415 1.961 . S
Li354 N399 1.990 . S
Li354 O412 1.961 . S
Li354 O414 1.956 . S
Li354 O415 1.970 . S
Li355 N405 1.990 . S
Li355 O413 1.961 . S
Li355 O414 1.970 . S
Li355 O415 1.956 . S
C356 C358 1.348 . S
C356 C359 1.356 . S
C356 O412 1.325 . S
N357 C360 1.314 . S
N357 C361 1.279 . S
C358 C356 1.348 . S
C358 C360 1.353 . S
C358 H416 0.929 . S
C359 C356 1.356 . S
C359 C361 1.358 . S
C359 H417 0.930 . S
C360 N357 1.314 . S
C360 C358 1.353 . S
C360 H418 0.930 . S
C361 N357 1.279 . S
C361 C359 1.358 . S
C361 H419 0.930 1_554 S
C362 C365 1.348 . S
C362 C366 1.356 . S
C362 O413 1.325 . S
C363 N364 1.279 . S
C363 C366 1.358 . S
C363 H420 0.930 . S
N364 C363 1.279 . S
N364 C367 1.314 . S
C365 C362 1.348 . S
C365 C367 1.353 . S
C365 H421 0.929 . S
C366 C362 1.356 . S
C366 C363 1.358 . S
C366 H422 0.930 . S
C367 N364 1.314 . S
C367 C365 1.353 . S
C367 H423 0.930 . S
C368 N369 1.314 . S
C368 C373 1.353 . S
C368 H374 0.930 . S
N369 Li352 1.990 . S
N369 C368 1.314 . S
N369 C371 1.279 . S
C370 C371 1.358 . S
C370 C372 1.356 . S
C370 H424 0.930 . S
C371 N369 1.279 . S
C371 C370 1.358 . S
C371 H375 0.930 . S
C372 C370 1.356 . S
C372 C373 1.348 . S
C373 C368 1.353 . S
C373 C372 1.348 . S
C373 H425 0.929 . S
H374 C368 0.930 . S
H375 C371 0.930 . S
C376 N377 1.314 . S
C376 C378 1.353 . S
C376 H382 0.930 . S
N377 Li353 1.990 . S
N377 C376 1.314 . S
N377 C380 1.279 . S
C378 C376 1.353 . S
C378 C381 1.348 . S
C378 H426 0.929 . S
C379 C380 1.358 . S
C379 C381 1.356 . S
C379 H427 0.930 . S
C380 N377 1.279 . S
C380 C379 1.358 . S
C380 H383 0.930 . S
C381 C378 1.348 . S
C381 C379 1.356 . S
H382 C376 0.930 . S
H383 C380 0.930 . S
C384 C386 1.348 1_455 S
C384 C387 1.356 . S
C384 O414 1.325 . S
N385 C388 1.314 . S
N385 C389 1.279 . S
C386 C384 1.348 1_655 S
C386 C388 1.353 . S
C386 H428 0.929 . S
C387 C384 1.356 . S
C387 C389 1.358 1_455 S
C387 H429 0.930 . S
C388 N385 1.314 . S
C388 C386 1.353 . S
C388 H430 0.930 . S
C389 N385 1.279 . S
C389 C387 1.358 1_655 S
C389 H431 0.930 1_554 S
C390 C391 1.348 . S
C390 C392 1.356 . S
C390 O415 1.325 . S
C391 C390 1.348 . S
C391 C393 1.353 . S
C391 H432 0.929 . S
C392 C390 1.356 . S
C392 C394 1.358 . S
C392 H433 0.930 . S
C393 C391 1.353 . S
C393 N395 1.314 . S
C393 H434 0.930 . S
C394 C392 1.358 . S
C394 N395 1.279 . S
C394 H435 0.930 . S
N395 C393 1.314 . S
N395 C394 1.279 . S
C396 C398 1.353 . S
C396 N399 1.314 . S
C396 H402 0.930 . S
C397 N399 1.279 . S
C397 C400 1.358 . S
C397 H403 0.930 . S
C398 C396 1.353 . S
C398 C401 1.348 . S
C398 H436 0.929 . S
N399 Li354 1.990 . S
N399 C396 1.314 . S
N399 C397 1.279 . S
C400 C397 1.358 . S
C400 C401 1.356 . S
C400 H437 0.930 1_554 S
C401 C398 1.348 . S
C401 C400 1.356 . S
H402 C396 0.930 . S
H403 C397 0.930 . S
C404 N405 1.314 . S
C404 C406 1.353 1_455 S
C404 H410 0.930 . S
N405 Li355 1.990 . S
N405 C404 1.314 . S
N405 C408 1.279 . S
C406 C404 1.353 1_655 S
C406 C409 1.348 . S
C406 H438 0.929 . S
C407 C408 1.358 1_655 S
C407 C409 1.356 . S
C407 H439 0.930 . S
C408 N405 1.279 . S
C408 C407 1.358 1_455 S
C408 H411 0.930 . S
C409 C406 1.348 . S
C409 C407 1.356 . S
H410 C404 0.930 . S
H411 C408 0.930 . S
O412 Li352 1.956 . S
O412 Li353 1.970 . S
O412 Li354 1.961 . S
O412 C356 1.325 . S
O413 Li352 1.970 . S
O413 Li353 1.956 . S
O413 Li355 1.961 . S
O413 C362 1.325 . S
O414 Li352 1.961 . S
O414 Li354 1.956 . S
O414 Li355 1.970 . S
O414 C384 1.325 . S
O415 Li353 1.961 . S
O415 Li354 1.970 . S
O415 Li355 1.956 . S
O415 C390 1.325 . S
H416 C358 0.929 . S
H417 C359 0.930 . S
H418 C360 0.930 . S
H419 C361 0.930 1_556 S
H420 C363 0.930 . S
H421 C365 0.929 . S
H422 C366 0.930 . S
H423 C367 0.930 . S
H424 C370 0.930 . S
H425 C373 0.929 . S
H426 C378 0.929 . S
H427 C379 0.930 . S
H428 C386 0.929 . S
H429 C387 0.930 . S
H430 C388 0.930 . S
H431 C389 0.930 1_556 S
H432 C391 0.929 . S
H433 C392 0.930 . S
H434 C393 0.930 . S
H435 C394 0.930 . S
H436 C398 0.929 . S
H437 C400 0.930 1_556 S
H438 C406 0.929 . S
H439 C407 0.930 . S
Li440 N457 1.990 . S
Li440 O500 1.956 . S
Li440 O501 1.970 . S
Li440 O502 1.961 . S
Li441 N465 1.990 . S
Li441 O500 1.970 . S
Li441 O501 1.956 . S
Li441 O503 1.961 . S
Li442 N487 1.990 . S
Li442 O500 1.961 . S
Li442 O502 1.956 . S
Li442 O503 1.970 . S
Li443 N493 1.990 . S
Li443 O501 1.961 . S
Li443 O502 1.970 . S
Li443 O503 1.956 . S
C444 C446 1.348 . S
C444 C447 1.356 . S
C444 O500 1.325 . S
N445 C448 1.314 . S
N445 C449 1.279 . S
C446 C444 1.348 . S
C446 C448 1.353 . S
C446 H504 0.929 . S
C447 C444 1.356 . S
C447 C449 1.358 . S
C447 H505 0.930 . S
C448 N445 1.314 . S
C448 C446 1.353 . S
C448 H506 0.930 . S
C449 N445 1.279 . S
C449 C447 1.358 . S
C449 H507 0.930 . S
C450 C453 1.348 . S
C450 C454 1.356 . S
C450 O501 1.325 . S
C451 N452 1.279 . S
C451 C454 1.358 . S
C451 H508 0.930 . S
N452 C451 1.279 . S
N452 C455 1.314 . S
C453 C450 1.348 . S
C453 C455 1.353 . S
C453 H509 0.929 . S
C454 C450 1.356 . S
C454 C451 1.358 . S
C454 H510 0.930 . S
C455 N452 1.314 . S
C455 C453 1.353 . S
C455 H511 0.930 . S
C456 N457 1.314 . S
C456 C461 1.353 . S
C456 H462 0.930 . S
N457 Li440 1.990 . S
N457 C456 1.314 . S
N457 C459 1.279 . S
C458 C459 1.358 . S
C458 C460 1.356 . S
C458 H512 0.930 . S
C459 N457 1.279 . S
C459 C458 1.358 . S
C459 H463 0.930 . S
C460 C458 1.356 . S
C460 C461 1.348 . S
C461 C456 1.353 . S
C461 C460 1.348 . S
C461 H513 0.929 . S
H462 C456 0.930 . S
H463 C459 0.930 . S
C464 N465 1.314 . S
C464 C466 1.353 . S
C464 H470 0.930 . S
N465 Li441 1.990 . S
N465 C464 1.314 . S
N465 C468 1.279 . S
C466 C464 1.353 . S
C466 C469 1.348 . S
C466 H514 0.929 . S
C467 C468 1.358 . S
C467 C469 1.356 . S
C467 H515 0.930 . S
C468 N465 1.279 . S
C468 C467 1.358 . S
C468 H471 0.930 . S
C469 C466 1.348 . S
C469 C467 1.356 . S
H470 C464 0.930 . S
H471 C468 0.930 . S
C472 C474 1.348 . S
C472 C475 1.356 . S
C472 O502 1.325 . S
N473 C476 1.314 . S
N473 C477 1.279 . S
C474 C472 1.348 . S
C474 C476 1.353 . S
C474 H516 0.929 . S
C475 C472 1.356 . S
C475 C477 1.358 . S
C475 H517 0.930 . S
C476 N473 1.314 . S
C476 C474 1.353 . S
C476 H518 0.930 . S
C477 N473 1.279 . S
C477 C475 1.358 . S
C477 H519 0.930 . S
C478 C479 1.348 . S
C478 C480 1.356 . S
C478 O503 1.325 . S
C479 C478 1.348 . S
C479 C481 1.353 . S
C479 H520 0.929 . S
C480 C478 1.356 . S
C480 C482 1.358 . S
C480 H521 0.930 . S
C481 C479 1.353 . S
C481 N483 1.314 . S
C481 H522 0.930 . S
C482 C480 1.358 . S
C482 N483 1.279 . S
C482 H523 0.930 . S
N483 C481 1.314 . S
N483 C482 1.279 . S
C484 C486 1.353 . S
C484 N487 1.314 . S
C484 H490 0.930 . S
C485 N487 1.279 . S
C485 C488 1.358 . S
C485 H491 0.930 . S
C486 C484 1.353 . S
C486 C489 1.348 . S
C486 H524 0.929 . S
N487 Li442 1.990 . S
N487 C484 1.314 . S
N487 C485 1.279 . S
C488 C485 1.358 . S
C488 C489 1.356 . S
C488 H525 0.930 . S
C489 C486 1.348 . S
C489 C488 1.356 . S
H490 C484 0.930 . S
H491 C485 0.930 . S
C492 N493 1.314 . S
C492 C494 1.353 . S
C492 H498 0.930 . S
N493 Li443 1.990 . S
N493 C492 1.314 . S
N493 C496 1.279 . S
C494 C492 1.353 . S
C494 C497 1.348 . S
C494 H526 0.929 . S
C495 C496 1.358 . S
C495 C497 1.356 . S
C495 H527 0.930 . S
C496 N493 1.279 . S
C496 C495 1.358 . S
C496 H499 0.930 . S
C497 C494 1.348 . S
C497 C495 1.356 . S
H498 C492 0.930 . S
H499 C496 0.930 . S
O500 Li440 1.956 . S
O500 Li441 1.970 . S
O500 Li442 1.961 . S
O500 C444 1.325 . S
O501 Li440 1.970 . S
O501 Li441 1.956 . S
O501 Li443 1.961 . S
O501 C450 1.325 . S
O502 Li440 1.961 . S
O502 Li442 1.956 . S
O502 Li443 1.970 . S
O502 C472 1.325 . S
O503 Li441 1.961 . S
O503 Li442 1.970 . S
O503 Li443 1.956 . S
O503 C478 1.325 . S
H504 C446 0.929 . S
H505 C447 0.930 . S
H506 C448 0.930 . S
H507 C449 0.930 . S
H508 C451 0.930 . S
H509 C453 0.929 . S
H510 C454 0.930 . S
H511 C455 0.930 . S
H512 C458 0.930 . S
H513 C461 0.929 . S
H514 C466 0.929 . S
H515 C467 0.930 . S
H516 C474 0.929 . S
H517 C475 0.930 . S
H518 C476 0.930 . S
H519 C477 0.930 . S
H520 C479 0.929 . S
H521 C480 0.930 . S
H522 C481 0.930 . S
H523 C482 0.930 . S
H524 C486 0.929 . S
H525 C488 0.930 . S
H526 C494 0.929 . S
H527 C495 0.930 . S
Li528 N545 1.990 . S
Li528 O588 1.956 . S
Li528 O589 1.970 . S
Li528 O590 1.961 . S
Li529 N553 1.990 . S
Li529 O588 1.970 . S
Li529 O589 1.956 . S
Li529 O591 1.961 . S
Li530 N575 1.990 . S
Li530 O588 1.961 . S
Li530 O590 1.956 . S
Li530 O591 1.970 . S
Li531 N581 1.990 . S
Li531 O589 1.961 . S
Li531 O590 1.970 . S
Li531 O591 1.956 . S
C532 C534 1.348 . S
C532 C535 1.356 . S
C532 O588 1.325 . S
N533 C536 1.314 . S
N533 C537 1.279 . S
C534 C532 1.348 . S
C534 C536 1.353 . S
C534 H592 0.929 . S
C535 C532 1.356 . S
C535 C537 1.358 . S
C535 H593 0.930 . S
C536 N533 1.314 . S
C536 C534 1.353 . S
C536 H594 0.930 . S
C537 N533 1.279 . S
C537 C535 1.358 . S
C537 H595 0.930 . S
C538 C541 1.348 . S
C538 C542 1.356 . S
C538 O589 1.325 . S
C539 N540 1.279 . S
C539 C542 1.358 . S
C539 H596 0.930 . S
N540 C539 1.279 . S
N540 C543 1.314 . S
C541 C538 1.348 . S
C541 C543 1.353 . S
C541 H597 0.929 . S
C542 C538 1.356 . S
C542 C539 1.358 . S
C542 H598 0.930 . S
C543 N540 1.314 . S
C543 C541 1.353 . S
C543 H599 0.930 . S
C544 N545 1.314 . S
C544 C549 1.353 . S
C544 H550 0.930 . S
N545 Li528 1.990 . S
N545 C544 1.314 . S
N545 C547 1.279 . S
C546 C547 1.358 . S
C546 C548 1.356 . S
C546 H600 0.930 . S
C547 N545 1.279 . S
C547 C546 1.358 . S
C547 H551 0.930 . S
C548 C546 1.356 . S
C548 C549 1.348 . S
C549 C544 1.353 . S
C549 C548 1.348 . S
C549 H601 0.929 . S
H550 C544 0.930 . S
H551 C547 0.930 . S
C552 N553 1.314 . S
C552 C554 1.353 . S
C552 H558 0.930 . S
N553 Li529 1.990 . S
N553 C552 1.314 . S
N553 C556 1.279 . S
C554 C552 1.353 . S
C554 C557 1.348 . S
C554 H602 0.929 . S
C555 C556 1.358 . S
C555 C557 1.356 . S
C555 H603 0.930 . S
C556 N553 1.279 . S
C556 C555 1.358 . S
C556 H559 0.930 . S
C557 C554 1.348 . S
C557 C555 1.356 . S
H558 C552 0.930 . S
H559 C556 0.930 . S
C560 C562 1.348 . S
C560 C563 1.356 . S
C560 O590 1.325 . S
N561 C564 1.314 . S
N561 C565 1.279 . S
C562 C560 1.348 . S
C562 C564 1.353 . S
C562 H604 0.929 . S
C563 C560 1.356 . S
C563 C565 1.358 . S
C563 H605 0.930 . S
C564 N561 1.314 . S
C564 C562 1.353 . S
C564 H606 0.930 . S
C565 N561 1.279 . S
C565 C563 1.358 . S
C565 H607 0.930 . S
C566 C567 1.348 . S
C566 C568 1.356 . S
C566 O591 1.325 . S
C567 C566 1.348 . S
C567 C569 1.353 . S
C567 H608 0.929 . S
C568 C566 1.356 . S
C568 C570 1.358 . S
C568 H609 0.930 . S
C569 C567 1.353 . S
C569 N571 1.314 . S
C569 H610 0.930 . S
C570 C568 1.358 . S
C570 N571 1.279 . S
C570 H611 0.930 . S
N571 C569 1.314 . S
N571 C570 1.279 . S
C572 C574 1.353 . S
C572 N575 1.314 . S
C572 H578 0.930 . S
C573 N575 1.279 . S
C573 C576 1.358 . S
C573 H579 0.930 . S
C574 C572 1.353 . S
C574 C577 1.348 . S
C574 H612 0.929 . S
N575 Li530 1.990 . S
N575 C572 1.314 . S
N575 C573 1.279 . S
C576 C573 1.358 . S
C576 C577 1.356 . S
C576 H613 0.930 . S
C577 C574 1.348 . S
C577 C576 1.356 . S
H578 C572 0.930 . S
H579 C573 0.930 . S
C580 N581 1.314 . S
C580 C582 1.353 . S
C580 H586 0.930 . S
N581 Li531 1.990 . S
N581 C580 1.314 . S
N581 C584 1.279 . S
C582 C580 1.353 . S
C582 C585 1.348 . S
C582 H614 0.929 . S
C583 C584 1.358 . S
C583 C585 1.356 . S
C583 H615 0.930 . S
C584 N581 1.279 . S
C584 C583 1.358 . S
C584 H587 0.930 . S
C585 C582 1.348 . S
C585 C583 1.356 . S
H586 C580 0.930 . S
H587 C584 0.930 . S
O588 Li528 1.956 . S
O588 Li529 1.970 . S
O588 Li530 1.961 . S
O588 C532 1.325 . S
O589 Li528 1.970 . S
O589 Li529 1.956 . S
O589 Li531 1.961 . S
O589 C538 1.325 . S
O590 Li528 1.961 . S
O590 Li530 1.956 . S
O590 Li531 1.970 . S
O590 C560 1.325 . S
O591 Li529 1.961 . S
O591 Li530 1.970 . S
O591 Li531 1.956 . S
O591 C566 1.325 . S
H592 C534 0.929 . S
H593 C535 0.930 . S
H594 C536 0.930 . S
H595 C537 0.930 . S
H596 C539 0.930 . S
H597 C541 0.929 . S
H598 C542 0.930 . S
H599 C543 0.930 . S
H600 C546 0.930 . S
H601 C549 0.929 . S
H602 C554 0.929 . S
H603 C555 0.930 . S
H604 C562 0.929 . S
H605 C563 0.930 . S
H606 C564 0.930 . S
H607 C565 0.930 . S
H608 C567 0.929 . S
H609 C568 0.930 . S
H610 C569 0.930 . S
H611 C570 0.930 . S
H612 C574 0.929 . S
H613 C576 0.930 . S
H614 C582 0.929 . S
H615 C583 0.930 . S
Li616 N633 1.990 . S
Li616 O676 1.956 1_455 S
Li616 O677 1.970 1_554 S
Li616 O678 1.961 . S
Li617 N641 1.990 . S
Li617 O676 1.970 1_556 S
Li617 O677 1.956 1_655 S
Li617 O679 1.961 . S
Li618 N663 1.988 . S
Li618 O676 1.977 . S
Li618 O678 1.945 1_655 S
Li618 O679 1.970 1_554 S
Li619 N669 1.990 . S
Li619 O677 1.961 . S
Li619 O678 1.970 1_556 S
Li619 O679 1.956 1_455 S
C620 C622 1.348 . S
C620 C623 1.356 . S
C620 O676 1.325 . S
N621 C624 1.314 . S
N621 C625 1.279 . S
C622 C620 1.348 . S
C622 C624 1.353 . S
C622 H680 0.929 1_554 S
C623 C620 1.356 . S
C623 C625 1.358 . S
C623 H681 0.930 . S
C624 N621 1.314 . S
C624 C622 1.353 . S
C624 H682 0.930 . S
C625 N621 1.279 . S
C625 C623 1.358 . S
C625 H683 0.930 . S
C626 C629 1.348 . S
C626 C630 1.356 . S
C626 O677 1.325 . S
C627 N628 1.279 . S
C627 C630 1.358 . S
C627 H684 0.930 . S
N628 C627 1.279 . S
N628 C631 1.314 . S
C629 C626 1.348 . S
C629 C631 1.353 . S
C629 H685 0.935 . S
C630 C626 1.356 . S
C630 C627 1.358 . S
C630 H686 0.930 . S
C631 N628 1.314 . S
C631 C629 1.353 . S
C631 H687 0.930 . S
C632 N633 1.314 . S
C632 C637 1.353 . S
C632 H638 0.930 . S
N633 Li616 1.990 . S
N633 C632 1.314 . S
N633 C635 1.279 1_455 S
C634 C635 1.358 1_455 S
C634 C636 1.356 . S
C634 H688 0.930 1_455 S
C635 N633 1.279 1_655 S
C635 C634 1.358 1_655 S
C635 H639 0.930 . S
C636 C634 1.356 . S
C636 C637 1.348 . S
C637 C632 1.353 . S
C637 C636 1.348 . S
C637 H689 0.929 . S
H638 C632 0.930 . S
H639 C635 0.930 . S
C640 N641 1.314 . S
C640 C642 1.353 . S
C640 H646 0.930 . S
N641 Li617 1.990 . S
N641 C640 1.314 . S
N641 C644 1.279 . S
C642 C640 1.353 . S
C642 C645 1.348 . S
C642 H690 0.929 . S
C643 C644 1.358 . S
C643 C645 1.356 . S
C643 H691 0.930 . S
C644 N641 1.279 . S
C644 C643 1.358 . S
C644 H647 0.930 . S
C645 C642 1.348 . S
C645 C643 1.356 . S
H646 C640 0.930 . S
H647 C644 0.930 . S
C648 C650 1.348 . S
C648 C651 1.356 . S
C648 O678 1.325 . S
N649 C652 1.314 . S
N649 C653 1.279 . S
C650 C648 1.348 . S
C650 C652 1.353 . S
C650 H692 0.929 . S
C651 C648 1.356 . S
C651 C653 1.358 . S
C651 H693 0.930 . S
C652 N649 1.314 . S
C652 C650 1.353 . S
C652 H694 0.930 . S
C653 N649 1.279 . S
C653 C651 1.358 . S
C653 H695 0.930 . S
C654 C655 1.348 . S
C654 C656 1.356 . S
C654 O679 1.325 . S
C655 C654 1.348 . S
C655 C657 1.353 . S
C655 H696 0.935 . S
C656 C654 1.356 . S
C656 C658 1.358 . S
C656 H697 0.930 . S
C657 C655 1.353 . S
C657 N659 1.314 . S
C657 H698 0.930 . S
C658 C656 1.358 . S
C658 N659 1.279 . S
C658 H699 0.930 . S
N659 C657 1.314 . S
N659 C658 1.279 . S
C660 C662 1.353 . S
C660 N663 1.314 . S
C660 H666 0.930 . S
C661 N663 1.279 1_455 S
C661 C664 1.358 . S
C661 H667 0.930 . S
C662 C660 1.353 . S
C662 C665 1.348 . S
C662 H700 0.929 . S
N663 Li618 1.988 . S
N663 C660 1.314 . S
N663 C661 1.279 1_655 S
C664 C661 1.358 . S
C664 C665 1.356 1_455 S
C664 H701 0.930 . S
C665 C662 1.348 . S
C665 C664 1.356 1_655 S
H666 C660 0.930 . S
H667 C661 0.930 . S
C668 N669 1.314 . S
C668 C670 1.353 . S
C668 H674 0.930 . S
N669 Li619 1.990 . S
N669 C668 1.314 . S
N669 C672 1.279 . S
C670 C668 1.353 . S
C670 C673 1.348 . S
C670 H702 0.929 . S
C671 C672 1.358 . S
C671 C673 1.356 . S
C671 H703 0.930 . S
C672 N669 1.279 . S
C672 C671 1.358 . S
C672 H675 0.930 . S
C673 C670 1.348 . S
C673 C671 1.356 . S
H674 C668 0.930 . S
H675 C672 0.930 . S
O676 Li616 1.956 1_655 S
O676 Li617 1.970 1_554 S
O676 Li618 1.977 . S
O676 C620 1.325 . S
O677 Li616 1.970 1_556 S
O677 Li617 1.956 1_455 S
O677 Li619 1.961 . S
O677 C626 1.325 . S
O678 Li616 1.961 . S
O678 Li618 1.945 1_455 S
O678 Li619 1.970 1_554 S
O678 C648 1.325 . S
O679 Li617 1.961 . S
O679 Li618 1.970 1_556 S
O679 Li619 1.956 1_655 S
O679 C654 1.325 . S
H680 C622 0.929 1_556 S
H681 C623 0.930 . S
H682 C624 0.930 . S
H683 C625 0.930 . S
H684 C627 0.930 . S
H685 C629 0.935 . S
H686 C630 0.930 . S
H687 C631 0.930 . S
H688 C634 0.930 1_655 S
H689 C637 0.929 . S
H690 C642 0.929 . S
H691 C643 0.930 . S
H692 C650 0.929 . S
H693 C651 0.930 . S
H694 C652 0.930 . S
H695 C653 0.930 . S
H696 C655 0.935 . S
H697 C656 0.930 . S
H698 C657 0.930 . S
H699 C658 0.930 . S
H700 C662 0.929 . S
H701 C664 0.930 . S
H702 C670 0.929 . S
H703 C671 0.930 . S
Li704 N721 1.990 . S
Li704 O764 1.956 1_545 S
Li704 O765 1.975 1_545 S
Li704 O766 1.961 . S
Li705 N729 1.990 . S
Li705 O764 1.970 . S
Li705 O765 1.975 . S
Li705 O767 1.961 . S
Li706 N751 1.990 . S
Li706 O764 1.961 1_545 S
Li706 O766 1.956 . S
Li706 O767 1.970 1_545 S
Li707 N757 1.990 . S
Li707 O765 1.940 1_545 S
Li707 O766 1.970 . S
Li707 O767 1.956 1_545 S
C708 C710 1.348 . S
C708 C711 1.356 . S
C708 O764 1.325 . S
N709 C712 1.314 . S
N709 C713 1.279 . S
C710 C708 1.348 . S
C710 C712 1.353 . S
C710 H768 0.929 . S
C711 C708 1.356 . S
C711 C713 1.358 . S
C711 H769 0.930 . S
C712 N709 1.314 . S
C712 C710 1.353 . S
C712 H770 0.930 . S
C713 N709 1.279 . S
C713 C711 1.358 . S
C713 H771 0.930 . S
C714 C717 1.348 . S
C714 C718 1.356 . S
C714 O765 1.326 . S
C715 N716 1.279 . S
C715 C718 1.358 . S
C715 H772 0.930 . S
N716 C715 1.279 . S
N716 C719 1.314 . S
C717 C714 1.348 . S
C717 C719 1.353 . S
C717 H773 0.929 . S
C718 C714 1.356 . S
C718 C715 1.358 . S
C718 H774 0.930 . S
C719 N716 1.314 . S
C719 C717 1.353 . S
C719 H775 0.930 . S
C720 N721 1.314 . S
C720 C725 1.353 . S
C720 H726 0.930 . S
N721 Li704 1.990 . S
N721 C720 1.314 . S
N721 C723 1.279 1_545 S
C722 C723 1.358 1_545 S
C722 C724 1.356 . S
C722 H776 0.930 1_545 S
C723 N721 1.279 1_565 S
C723 C722 1.358 1_565 S
C723 H727 0.930 . S
C724 C722 1.356 . S
C724 C725 1.348 . S
C725 C720 1.353 . S
C725 C724 1.348 . S
C725 H777 0.929 . S
H726 C720 0.930 . S
H727 C723 0.930 . S
C728 N729 1.314 . S
C728 C730 1.353 . S
C728 H734 0.930 . S
N729 Li705 1.990 . S
N729 C728 1.314 . S
N729 C732 1.279 . S
C730 C728 1.353 . S
C730 C733 1.348 . S
C730 H778 0.929 . S
C731 C732 1.358 . S
C731 C733 1.356 . S
C731 H779 0.930 . S
C732 N729 1.279 . S
C732 C731 1.358 . S
C732 H735 0.930 . S
C733 C730 1.348 . S
C733 C731 1.356 . S
H734 C728 0.930 . S
H735 C732 0.930 . S
C736 C738 1.348 . S
C736 C739 1.356 . S
C736 O766 1.325 . S
N737 C740 1.314 . S
N737 C741 1.279 . S
C738 C736 1.348 . S
C738 C740 1.353 . S
C738 H780 0.929 . S
C739 C736 1.356 . S
C739 C741 1.358 . S
C739 H781 0.930 . S
C740 N737 1.314 . S
C740 C738 1.353 . S
C740 H782 0.930 . S
C741 N737 1.279 . S
C741 C739 1.358 . S
C741 H783 0.930 . S
C742 C743 1.348 . S
C742 C744 1.356 . S
C742 O767 1.325 . S
C743 C742 1.348 . S
C743 C745 1.353 . S
C743 H784 0.929 1_565 S
C744 C742 1.356 . S
C744 C746 1.358 . S
C744 H785 0.930 . S
C745 C743 1.353 . S
C745 N747 1.314 . S
C745 H786 0.930 . S
C746 C744 1.358 . S
C746 N747 1.279 . S
C746 H787 0.930 . S
N747 C745 1.314 . S
N747 C746 1.279 . S
C748 C750 1.353 . S
C748 N751 1.314 1_565 S
C748 H754 0.930 . S
C749 N751 1.279 . S
C749 C752 1.358 . S
C749 H755 0.930 . S
C750 C748 1.353 . S
C750 C753 1.348 1_565 S
C750 H788 0.929 . S
N751 Li706 1.990 . S
N751 C748 1.314 1_545 S
N751 C749 1.279 . S
C752 C749 1.358 . S
C752 C753 1.356 . S
C752 H789 0.930 . S
C753 C750 1.348 1_545 S
C753 C752 1.356 . S
H754 C748 0.930 . S
H755 C749 0.930 . S
C756 N757 1.314 . S
C756 C758 1.353 . S
C756 H762 0.930 . S
N757 Li707 1.990 . S
N757 C756 1.314 . S
N757 C760 1.279 . S
C758 C756 1.353 . S
C758 C761 1.348 . S
C758 H790 0.929 . S
C759 C760 1.358 . S
C759 C761 1.356 . S
C759 H791 0.930 . S
C760 N757 1.279 . S
C760 C759 1.358 . S
C760 H763 0.930 . S
C761 C758 1.348 . S
C761 C759 1.356 . S
H762 C756 0.930 . S
H763 C760 0.930 . S
O764 Li704 1.956 1_565 S
O764 Li705 1.970 . S
O764 Li706 1.961 1_565 S
O764 C708 1.325 . S
O765 Li704 1.975 1_565 S
O765 Li705 1.975 . S
O765 Li707 1.940 1_565 S
O765 C714 1.326 . S
O766 Li704 1.961 . S
O766 Li706 1.956 . S
O766 Li707 1.970 . S
O766 C736 1.325 . S
O767 Li705 1.961 . S
O767 Li706 1.970 1_565 S
O767 Li707 1.956 1_565 S
O767 C742 1.325 . S
H768 C710 0.929 . S
H769 C711 0.930 . S
H770 C712 0.930 . S
H771 C713 0.930 . S
H772 C715 0.930 . S
H773 C717 0.929 . S
H774 C718 0.930 . S
H775 C719 0.930 . S
H776 C722 0.930 1_565 S
H777 C725 0.929 . S
H778 C730 0.929 . S
H779 C731 0.930 . S
H780 C738 0.929 . S
H781 C739 0.930 . S
H782 C740 0.930 . S
H783 C741 0.930 . S
H784 C743 0.929 1_545 S
H785 C744 0.930 . S
H786 C745 0.930 . S
H787 C746 0.930 . S
H788 C750 0.929 . S
H789 C752 0.930 . S
H790 C758 0.929 . S
H791 C759 0.930 . S
Li792 N809 1.990 . S
Li792 O852 1.956 . S
Li792 O853 1.970 . S
Li792 O854 1.961 . S
Li793 N817 1.990 . S
Li793 O852 1.970 . S
Li793 O853 1.956 . S
Li793 O855 1.961 . S
Li794 N839 1.990 . S
Li794 O852 1.961 . S
Li794 O854 1.956 . S
Li794 O855 1.970 . S
Li795 N845 1.990 . S
Li795 O853 1.961 . S
Li795 O854 1.970 . S
Li795 O855 1.956 . S
C796 C798 1.348 . S
C796 C799 1.356 . S
C796 O852 1.325 . S
N797 C800 1.314 . S
N797 C801 1.279 . S
C798 C796 1.348 . S
C798 C800 1.353 . S
C798 H856 0.929 . S
C799 C796 1.356 . S
C799 C801 1.358 . S
C799 H857 0.930 . S
C800 N797 1.314 . S
C800 C798 1.353 . S
C800 H858 0.930 . S
C801 N797 1.279 . S
C801 C799 1.358 . S
C801 H859 0.930 . S
C802 C805 1.348 . S
C802 C806 1.356 . S
C802 O853 1.325 . S
C803 N804 1.279 . S
C803 C806 1.358 . S
C803 H860 0.930 . S
N804 C803 1.279 . S
N804 C807 1.314 . S
C805 C802 1.348 . S
C805 C807 1.353 . S
C805 H861 0.929 . S
C806 C802 1.356 . S
C806 C803 1.358 . S
C806 H862 0.930 . S
C807 N804 1.314 . S
C807 C805 1.353 . S
C807 H863 0.930 . S
C808 N809 1.314 . S
C808 C813 1.353 . S
C808 H814 0.930 . S
N809 Li792 1.990 . S
N809 C808 1.314 . S
N809 C811 1.279 . S
C810 C811 1.358 . S
C810 C812 1.356 . S
C810 H864 0.930 . S
C811 N809 1.279 . S
C811 C810 1.358 . S
C811 H815 0.930 . S
C812 C810 1.356 . S
C812 C813 1.348 . S
C813 C808 1.353 . S
C813 C812 1.348 . S
C813 H865 0.929 . S
H814 C808 0.930 . S
H815 C811 0.930 . S
C816 N817 1.314 . S
C816 C818 1.353 . S
C816 H822 0.930 . S
N817 Li793 1.990 . S
N817 C816 1.314 . S
N817 C820 1.279 . S
C818 C816 1.353 . S
C818 C821 1.348 . S
C818 H866 0.929 . S
C819 C820 1.358 . S
C819 C821 1.356 . S
C819 H867 0.930 . S
C820 N817 1.279 . S
C820 C819 1.358 . S
C820 H823 0.930 . S
C821 C818 1.348 . S
C821 C819 1.356 . S
H822 C816 0.930 . S
H823 C820 0.930 . S
C824 C826 1.348 . S
C824 C827 1.356 . S
C824 O854 1.325 . S
N825 C828 1.314 . S
N825 C829 1.279 . S
C826 C824 1.348 . S
C826 C828 1.353 . S
C826 H868 0.929 . S
C827 C824 1.356 . S
C827 C829 1.358 . S
C827 H869 0.930 . S
C828 N825 1.314 . S
C828 C826 1.353 . S
C828 H870 0.930 . S
C829 N825 1.279 . S
C829 C827 1.358 . S
C829 H871 0.930 . S
C830 C831 1.348 . S
C830 C832 1.356 . S
C830 O855 1.325 . S
C831 C830 1.348 . S
C831 C833 1.353 . S
C831 H872 0.929 . S
C832 C830 1.356 . S
C832 C834 1.358 . S
C832 H873 0.930 . S
C833 C831 1.353 . S
C833 N835 1.314 . S
C833 H874 0.930 . S
C834 C832 1.358 . S
C834 N835 1.279 . S
C834 H875 0.930 . S
N835 C833 1.314 . S
N835 C834 1.279 . S
C836 C838 1.353 . S
C836 N839 1.314 . S
C836 H842 0.930 . S
C837 N839 1.279 . S
C837 C840 1.358 . S
C837 H843 0.930 . S
C838 C836 1.353 . S
C838 C841 1.348 . S
C838 H876 0.929 . S
N839 Li794 1.990 . S
N839 C836 1.314 . S
N839 C837 1.279 . S
C840 C837 1.358 . S
C840 C841 1.356 . S
C840 H877 0.930 . S
C841 C838 1.348 . S
C841 C840 1.356 . S
H842 C836 0.930 . S
H843 C837 0.930 . S
C844 N845 1.314 . S
C844 C846 1.353 . S
C844 H850 0.930 . S
N845 Li795 1.990 . S
N845 C844 1.314 . S
N845 C848 1.279 . S
C846 C844 1.353 . S
C846 C849 1.348 . S
C846 H878 0.929 . S
C847 C848 1.358 . S
C847 C849 1.356 . S
C847 H879 0.930 . S
C848 N845 1.279 . S
C848 C847 1.358 . S
C848 H851 0.930 . S
C849 C846 1.348 . S
C849 C847 1.356 . S
H850 C844 0.930 . S
H851 C848 0.930 . S
O852 Li792 1.956 . S
O852 Li793 1.970 . S
O852 Li794 1.961 . S
O852 C796 1.325 . S
O853 Li792 1.970 . S
O853 Li793 1.956 . S
O853 Li795 1.961 . S
O853 C802 1.325 . S
O854 Li792 1.961 . S
O854 Li794 1.956 . S
O854 Li795 1.970 . S
O854 C824 1.325 . S
O855 Li793 1.961 . S
O855 Li794 1.970 . S
O855 Li795 1.956 . S
O855 C830 1.325 . S
H856 C798 0.929 . S
H857 C799 0.930 . S
H858 C800 0.930 . S
H859 C801 0.930 . S
H860 C803 0.930 . S
H861 C805 0.929 . S
H862 C806 0.930 . S
H863 C807 0.930 . S
H864 C810 0.930 . S
H865 C813 0.929 . S
H866 C818 0.929 . S
H867 C819 0.930 . S
H868 C826 0.929 . S
H869 C827 0.930 . S
H870 C828 0.930 . S
H871 C829 0.930 . S
H872 C831 0.929 . S
H873 C832 0.930 . S
H874 C833 0.930 . S
H875 C834 0.930 . S
H876 C838 0.929 . S
H877 C840 0.930 . S
H878 C846 0.929 . S
H879 C847 0.930 . S
Li880 N897 1.990 . S
Li880 O940 1.956 . S
Li880 O941 1.970 . S
Li880 O942 1.961 . S
Li881 N905 1.990 . S
Li881 O940 1.970 . S
Li881 O941 1.956 . S
Li881 O943 1.961 . S
Li882 N927 1.990 . S
Li882 O940 1.961 . S
Li882 O942 1.956 . S
Li882 O943 1.970 . S
Li883 N933 1.990 . S
Li883 O941 1.961 . S
Li883 O942 1.970 . S
Li883 O943 1.956 . S
C884 C886 1.348 . S
C884 C887 1.356 . S
C884 O940 1.325 . S
N885 C888 1.314 . S
N885 C889 1.279 . S
C886 C884 1.348 . S
C886 C888 1.353 . S
C886 H944 0.929 . S
C887 C884 1.356 . S
C887 C889 1.358 . S
C887 H945 0.930 . S
C888 N885 1.314 . S
C888 C886 1.353 . S
C888 H946 0.930 . S
C889 N885 1.279 . S
C889 C887 1.358 . S
C889 H947 0.930 . S
C890 C893 1.348 . S
C890 C894 1.356 . S
C890 O941 1.325 . S
C891 N892 1.279 . S
C891 C894 1.358 . S
C891 H948 0.930 . S
N892 C891 1.279 . S
N892 C895 1.314 . S
C893 C890 1.348 . S
C893 C895 1.353 . S
C893 H949 0.929 . S
C894 C890 1.356 . S
C894 C891 1.358 . S
C894 H950 0.930 . S
C895 N892 1.314 . S
C895 C893 1.353 . S
C895 H951 0.930 . S
C896 N897 1.314 . S
C896 C901 1.353 . S
C896 H902 0.930 . S
N897 Li880 1.990 . S
N897 C896 1.314 . S
N897 C899 1.279 . S
C898 C899 1.358 . S
C898 C900 1.356 . S
C898 H952 0.930 . S
C899 N897 1.279 . S
C899 C898 1.358 . S
C899 H903 0.930 . S
C900 C898 1.356 . S
C900 C901 1.348 . S
C901 C896 1.353 . S
C901 C900 1.348 . S
C901 H953 0.929 . S
H902 C896 0.930 . S
H903 C899 0.930 . S
C904 N905 1.314 . S
C904 C906 1.353 . S
C904 H910 0.930 . S
N905 Li881 1.990 . S
N905 C904 1.314 . S
N905 C908 1.279 . S
C906 C904 1.353 . S
C906 C909 1.348 . S
C906 H954 0.929 . S
C907 C908 1.358 . S
C907 C909 1.356 . S
C907 H955 0.930 . S
C908 N905 1.279 . S
C908 C907 1.358 . S
C908 H911 0.930 . S
C909 C906 1.348 . S
C909 C907 1.356 . S
H910 C904 0.930 . S
H911 C908 0.930 . S
C912 C914 1.348 . S
C912 C915 1.356 . S
C912 O942 1.325 . S
N913 C916 1.314 . S
N913 C917 1.279 . S
C914 C912 1.348 . S
C914 C916 1.353 . S
C914 H956 0.929 . S
C915 C912 1.356 . S
C915 C917 1.358 . S
C915 H957 0.930 . S
C916 N913 1.314 . S
C916 C914 1.353 . S
C916 H958 0.930 . S
C917 N913 1.279 . S
C917 C915 1.358 . S
C917 H959 0.930 . S
C918 C919 1.348 1_545 S
C918 C920 1.356 . S
C918 O943 1.325 . S
C919 C918 1.348 1_565 S
C919 C921 1.353 . S
C919 H960 0.929 . S
C920 C918 1.356 . S
C920 C922 1.358 1_545 S
C920 H961 0.930 . S
C921 C919 1.353 . S
C921 N923 1.314 . S
C921 H962 0.930 . S
C922 C920 1.358 1_565 S
C922 N923 1.279 . S
C922 H963 0.930 1_455 S
N923 C921 1.314 . S
N923 C922 1.279 . S
C924 C926 1.353 1_545 S
C924 N927 1.314 . S
C924 H930 0.930 . S
C925 N927 1.279 . S
C925 C928 1.358 1_545 S
C925 H931 0.930 . S
C926 C924 1.353 1_565 S
C926 C929 1.348 . S
C926 H964 0.929 . S
N927 Li882 1.990 . S
N927 C924 1.314 . S
N927 C925 1.279 . S
C928 C925 1.358 1_565 S
C928 C929 1.356 . S
C928 H965 0.930 . S
C929 C926 1.348 . S
C929 C928 1.356 . S
H930 C924 0.930 . S
H931 C925 0.930 . S
C932 N933 1.314 . S
C932 C934 1.353 . S
C932 H938 0.930 . S
N933 Li883 1.990 . S
N933 C932 1.314 . S
N933 C936 1.279 . S
C934 C932 1.353 . S
C934 C937 1.348 . S
C934 H966 0.929 . S
C935 C936 1.358 . S
C935 C937 1.356 . S
C935 H967 0.930 . S
C936 N933 1.279 . S
C936 C935 1.358 . S
C936 H939 0.930 . S
C937 C934 1.348 . S
C937 C935 1.356 . S
H938 C932 0.930 . S
H939 C936 0.930 . S
O940 Li880 1.956 . S
O940 Li881 1.970 . S
O940 Li882 1.961 . S
O940 C884 1.325 . S
O941 Li880 1.970 . S
O941 Li881 1.956 . S
O941 Li883 1.961 . S
O941 C890 1.325 . S
O942 Li880 1.961 . S
O942 Li882 1.956 . S
O942 Li883 1.970 . S
O942 C912 1.325 . S
O943 Li881 1.961 . S
O943 Li882 1.970 . S
O943 Li883 1.956 . S
O943 C918 1.325 . S
H944 C886 0.929 . S
H945 C887 0.930 . S
H946 C888 0.930 . S
H947 C889 0.930 . S
H948 C891 0.930 . S
H949 C893 0.929 . S
H950 C894 0.930 . S
H951 C895 0.930 . S
H952 C898 0.930 . S
H953 C901 0.929 . S
H954 C906 0.929 . S
H955 C907 0.930 . S
H956 C914 0.929 . S
H957 C915 0.930 . S
H958 C916 0.930 . S
H959 C917 0.930 . S
H960 C919 0.929 . S
H961 C920 0.930 . S
H962 C921 0.930 . S
H963 C922 0.930 1_655 S
H964 C926 0.929 . S
H965 C928 0.930 . S
H966 C934 0.929 . S
H967 C935 0.930 . S
Li968 N985 1.990 . S
Li968 O1028 1.956 . S
Li968 O1029 1.970 1_554 S
Li968 O1030 1.961 1_554 S
Li969 N993 1.990 . S
Li969 O1028 1.970 . S
Li969 O1029 1.956 1_554 S
Li969 O1031 1.961 . S
Li970 N1015 1.990 1_565 S
Li970 O1028 1.961 . S
Li970 O1030 1.956 1_554 S
Li970 O1031 1.970 . S
Li971 N1021 1.990 . S
Li971 O1029 1.961 . S
Li971 O1030 1.970 . S
Li971 O1031 1.956 1_556 S
C972 C974 1.348 . S
C972 C975 1.356 1_565 S
C972 O1028 1.325 . S
N973 C976 1.314 . S
N973 C977 1.279 . S
C974 C972 1.348 . S
C974 C976 1.353 1_565 S
C974 H1032 0.929 . S
C975 C972 1.356 1_545 S
C975 C977 1.358 . S
C975 H1033 0.930 . S
C976 N973 1.314 . S
C976 C974 1.353 1_545 S
C976 H1034 0.930 . S
C977 N973 1.279 . S
C977 C975 1.358 . S
C977 H1035 0.930 . S
C978 C981 1.348 . S
C978 C982 1.356 . S
C978 O1029 1.325 . S
C979 N980 1.279 . S
C979 C982 1.358 . S
C979 H1036 0.930 . S
N980 C979 1.279 . S
N980 C983 1.314 . S
C981 C978 1.348 . S
C981 C983 1.353 . S
C981 H1037 0.929 1_556 S
C982 C978 1.356 . S
C982 C979 1.358 . S
C982 H1038 0.930 . S
C983 N980 1.314 . S
C983 C981 1.353 . S
C983 H1039 0.930 . S
C984 N985 1.314 1_556 S
C984 C989 1.353 1_565 S
C984 H990 0.930 . S
N985 Li968 1.990 . S
N985 C984 1.314 1_554 S
N985 C987 1.279 1_565 S
C986 C987 1.358 . S
C986 C988 1.354 . S
C986 H1040 0.930 . S
C987 N985 1.279 1_545 S
C987 C986 1.358 . S
C987 H991 0.930 . S
C988 C986 1.354 . S
C988 C989 1.350 1_554 S
C989 C984 1.353 1_545 S
C989 C988 1.350 1_556 S
C989 H1041 0.929 . S
H990 C984 0.930 . S
H991 C987 0.930 . S
C992 N993 1.314 . S
C992 C994 1.353 . S
C992 H998 0.930 . S
N993 Li969 1.990 . S
N993 C992 1.314 . S
N993 C996 1.279 . S
C994 C992 1.353 . S
C994 C997 1.348 . S
C994 H1042 0.929 . S
C995 C996 1.358 . S
C995 C997 1.356 . S
C995 H1043 0.930 . S
C996 N993 1.279 . S
C996 C995 1.358 . S
C996 H999 0.930 . S
C997 C994 1.348 . S
C997 C995 1.356 . S
H998 C992 0.930 . S
H999 C996 0.930 . S
C1000 C1002 1.348 . S
C1000 C1003 1.356 1_565 S
C1000 O1030 1.325 . S
N1001 C1004 1.314 1_545 S
N1001 C1005 1.279 . S
C1002 C1000 1.348 . S
C1002 C1004 1.353 . S
C1002 H1044 0.929 . S
C1003 C1000 1.356 1_545 S
C1003 C1005 1.358 . S
C1003 H1045 0.930 . S
C1004 N1001 1.314 1_565 S
C1004 C1002 1.353 . S
C1004 H1046 0.930 . S
C1005 N1001 1.279 . S
C1005 C1003 1.358 . S
C1005 H1047 0.930 . S
C1006 C1007 1.345 1_554 S
C1006 C1008 1.358 . S
C1006 O1031 1.325 . S
C1007 C1006 1.345 1_556 S
C1007 C1009 1.353 . S
C1007 H1048 0.929 . S
C1008 C1006 1.358 . S
C1008 C1010 1.358 . S
C1008 H1049 0.930 . S
C1009 C1007 1.353 . S
C1009 N1011 1.314 . S
C1009 H1050 0.930 . S
C1010 C1008 1.358 . S
C1010 N1011 1.279 1_554 S
C1010 H1051 0.930 . S
N1011 C1009 1.314 . S
N1011 C1010 1.279 1_556 S
C1012 C1014 1.353 . S
C1012 N1015 1.314 . S
C1012 H1018 0.930 . S
C1013 N1015 1.279 1_556 S
C1013 C1016 1.358 . S
C1013 H1019 0.930 . S
C1014 C1012 1.353 . S
C1014 C1017 1.348 . S
C1014 H1052 0.929 . S
N1015 Li970 1.990 1_545 S
N1015 C1012 1.314 . S
N1015 C1013 1.279 1_554 S
C1016 C1013 1.358 . S
C1016 C1017 1.356 1_556 S
C1016 H1053 0.930 . S
C1017 C1014 1.348 . S
C1017 C1016 1.356 1_554 S
H1018 C1012 0.930 . S
H1019 C1013 0.930 . S
C1020 N1021 1.314 . S
C1020 C1022 1.353 . S
C1020 H1026 0.930 . S
N1021 Li971 1.990 . S
N1021 C1020 1.314 . S
N1021 C1024 1.279 . S
C1022 C1020 1.353 . S
C1022 C1025 1.348 . S
C1022 H1054 0.929 . S
C1023 C1024 1.358 . S
C1023 C1025 1.356 . S
C1023 H1055 0.930 . S
C1024 N1021 1.279 . S
C1024 C1023 1.358 . S
C1024 H1027 0.930 . S
C1025 C1022 1.348 . S
C1025 C1023 1.356 . S
H1026 C1020 0.930 . S
H1027 C1024 0.930 . S
O1028 Li968 1.956 . S
O1028 Li969 1.970 . S
O1028 Li970 1.961 . S
O1028 C972 1.325 . S
O1029 Li968 1.970 1_556 S
O1029 Li969 1.956 1_556 S
O1029 Li971 1.961 . S
O1029 C978 1.325 . S
O1030 Li968 1.961 1_556 S
O1030 Li970 1.956 1_556 S
O1030 Li971 1.970 . S
O1030 C1000 1.325 . S
O1031 Li969 1.961 . S
O1031 Li970 1.970 . S
O1031 Li971 1.956 1_554 S
O1031 C1006 1.325 . S
H1032 C974 0.929 . S
H1033 C975 0.930 . S
H1034 C976 0.930 . S
H1035 C977 0.930 . S
H1036 C979 0.930 . S
H1037 C981 0.929 1_554 S
H1038 C982 0.930 . S
H1039 C983 0.930 . S
H1040 C986 0.930 . S
H1041 C989 0.929 . S
H1042 C994 0.929 . S
H1043 C995 0.930 . S
H1044 C1002 0.929 . S
H1045 C1003 0.930 . S
H1046 C1004 0.930 . S
H1047 C1005 0.930 . S
H1048 C1007 0.929 . S
H1049 C1008 0.930 . S
H1050 C1009 0.930 . S
H1051 C1010 0.930 . S
H1052 C1014 0.929 . S
H1053 C1016 0.930 . S
H1054 C1022 0.929 . S
H1055 C1023 0.930 . S
Li1056 N1073 1.990 . S
Li1056 O1116 1.956 . S
Li1056 O1117 1.970 . S
Li1056 O1118 1.961 . S
Li1057 N1081 1.990 . S
Li1057 O1116 1.970 . S
Li1057 O1117 1.956 . S
Li1057 O1119 1.961 . S
Li1058 N1103 1.990 . S
Li1058 O1116 1.961 . S
Li1058 O1118 1.956 . S
Li1058 O1119 1.970 . S
Li1059 N1109 1.990 1_554 S
Li1059 O1117 1.961 . S
Li1059 O1118 1.970 . S
Li1059 O1119 1.956 . S
C1060 C1062 1.348 . S
C1060 C1063 1.356 . S
C1060 O1116 1.325 . S
N1061 C1064 1.314 . S
N1061 C1065 1.279 . S
C1062 C1060 1.348 . S
C1062 C1064 1.353 . S
C1062 H1120 0.929 . S
C1063 C1060 1.356 . S
C1063 C1065 1.358 . S
C1063 H1121 0.930 . S
C1064 N1061 1.314 . S
C1064 C1062 1.353 . S
C1064 H1122 0.930 . S
C1065 N1061 1.279 . S
C1065 C1063 1.358 . S
C1065 H1123 0.930 . S
C1066 C1069 1.348 . S
C1066 C1070 1.356 . S
C1066 O1117 1.325 . S
C1067 N1068 1.279 . S
C1067 C1070 1.358 . S
C1067 H1124 0.930 . S
N1068 C1067 1.279 . S
N1068 C1071 1.314 . S
C1069 C1066 1.348 . S
C1069 C1071 1.353 . S
C1069 H1125 0.929 . S
C1070 C1066 1.356 . S
C1070 C1067 1.358 . S
C1070 H1126 0.930 . S
C1071 N1068 1.314 . S
C1071 C1069 1.353 . S
C1071 H1127 0.930 . S
C1072 N1073 1.314 . S
C1072 C1077 1.353 . S
C1072 H1078 0.930 . S
N1073 Li1056 1.990 . S
N1073 C1072 1.314 . S
N1073 C1075 1.279 . S
C1074 C1075 1.358 . S
C1074 C1076 1.356 . S
C1074 H1128 0.930 . S
C1075 N1073 1.279 . S
C1075 C1074 1.358 . S
C1075 H1079 0.930 . S
C1076 C1074 1.356 . S
C1076 C1077 1.348 . S
C1077 C1072 1.353 . S
C1077 C1076 1.348 . S
C1077 H1129 0.929 . S
H1078 C1072 0.930 . S
H1079 C1075 0.930 . S
C1080 N1081 1.314 . S
C1080 C1082 1.353 . S
C1080 H1086 0.930 . S
N1081 Li1057 1.990 . S
N1081 C1080 1.314 . S
N1081 C1084 1.279 . S
C1082 C1080 1.353 . S
C1082 C1085 1.348 . S
C1082 H1130 0.929 . S
C1083 C1084 1.358 . S
C1083 C1085 1.356 . S
C1083 H1131 0.930 . S
C1084 N1081 1.279 . S
C1084 C1083 1.358 . S
C1084 H1087 0.930 . S
C1085 C1082 1.348 . S
C1085 C1083 1.356 . S
H1086 C1080 0.930 . S
H1087 C1084 0.930 . S
C1088 C1090 1.348 . S
C1088 C1091 1.356 1_556 S
C1088 O1118 1.325 1_556 S
N1089 C1092 1.314 . S
N1089 C1093 1.279 . S
C1090 C1088 1.348 . S
C1090 C1092 1.353 . S
C1090 H1132 0.929 . S
C1091 C1088 1.356 1_554 S
C1091 C1093 1.353 1_554 S
C1091 H1133 0.935 . S
C1092 N1089 1.314 . S
C1092 C1090 1.353 . S
C1092 H1134 0.930 . S
C1093 N1089 1.279 . S
C1093 C1091 1.353 1_556 S
C1093 H1135 0.930 . S
C1094 C1095 1.348 . S
C1094 C1096 1.356 . S
C1094 O1119 1.325 . S
C1095 C1094 1.348 . S
C1095 C1097 1.353 . S
C1095 H1136 0.929 . S
C1096 C1094 1.356 . S
C1096 C1098 1.358 . S
C1096 H1137 0.930 . S
C1097 C1095 1.353 . S
C1097 N1099 1.314 . S
C1097 H1138 0.930 . S
C1098 C1096 1.358 . S
C1098 N1099 1.279 . S
C1098 H1139 0.930 . S
N1099 C1097 1.314 . S
N1099 C1098 1.279 . S
C1100 C1102 1.353 . S
C1100 N1103 1.314 . S
C1100 H1106 0.930 . S
C1101 N1103 1.279 . S
C1101 C1104 1.358 . S
C1101 H1107 0.930 . S
C1102 C1100 1.353 . S
C1102 C1105 1.348 . S
C1102 H1140 0.929 . S
N1103 Li1058 1.990 . S
N1103 C1100 1.314 . S
N1103 C1101 1.279 . S
C1104 C1101 1.358 . S
C1104 C1105 1.356 . S
C1104 H1141 0.930 . S
C1105 C1102 1.348 . S
C1105 C1104 1.356 . S
H1106 C1100 0.930 . S
H1107 C1101 0.930 . S
C1108 N1109 1.314 . S
C1108 C1110 1.353 . S
C1108 H1114 0.930 . S
N1109 Li1059 1.990 1_556 S
N1109 C1108 1.314 . S
N1109 C1112 1.279 . S
C1110 C1108 1.353 . S
C1110 C1113 1.348 . S
C1110 H1142 0.929 . S
C1111 C1112 1.358 . S
C1111 C1113 1.356 . S
C1111 H1143 0.930 . S
C1112 N1109 1.279 . S
C1112 C1111 1.358 . S
C1112 H1115 0.930 . S
C1113 C1110 1.348 . S
C1113 C1111 1.356 . S
H1114 C1108 0.930 . S
H1115 C1112 0.930 . S
O1116 Li1056 1.956 . S
O1116 Li1057 1.970 . S
O1116 Li1058 1.961 . S
O1116 C1060 1.325 . S
O1117 Li1056 1.970 . S
O1117 Li1057 1.956 . S
O1117 Li1059 1.961 . S
O1117 C1066 1.325 . S
O1118 Li1056 1.961 . S
O1118 Li1058 1.956 . S
O1118 Li1059 1.970 . S
O1118 C1088 1.325 1_554 S
O1119 Li1057 1.961 . S
O1119 Li1058 1.970 . S
O1119 Li1059 1.956 . S
O1119 C1094 1.325 . S
H1120 C1062 0.929 . S
H1121 C1063 0.930 . S
H1122 C1064 0.930 . S
H1123 C1065 0.930 . S
H1124 C1067 0.930 . S
H1125 C1069 0.929 . S
H1126 C1070 0.930 . S
H1127 C1071 0.930 . S
H1128 C1074 0.930 . S
H1129 C1077 0.929 . S
H1130 C1082 0.929 . S
H1131 C1083 0.930 . S
H1132 C1090 0.929 . S
H1133 C1091 0.935 . S
H1134 C1092 0.930 . S
H1135 C1093 0.930 . S
H1136 C1095 0.929 . S
H1137 C1096 0.930 . S
H1138 C1097 0.930 . S
H1139 C1098 0.930 . S
H1140 C1102 0.929 . S
H1141 C1104 0.930 . S
H1142 C1110 0.929 . S
H1143 C1111 0.930 . S
Li1144 N1161 1.990 . S
Li1144 O1204 1.956 . S
Li1144 O1205 1.970 . S
Li1144 O1206 1.961 . S
Li1145 N1169 1.990 . S
Li1145 O1204 1.970 . S
Li1145 O1205 1.956 . S
Li1145 O1207 1.961 . S
Li1146 N1191 1.990 . S
Li1146 O1204 1.961 . S
Li1146 O1206 1.956 . S
Li1146 O1207 1.970 . S
Li1147 N1197 1.990 . S
Li1147 O1205 1.961 . S
Li1147 O1206 1.970 . S
Li1147 O1207 1.956 . S
C1148 C1150 1.348 . S
C1148 C1151 1.356 . S
C1148 O1204 1.325 . S
N1149 C1152 1.314 . S
N1149 C1153 1.279 . S
C1150 C1148 1.348 . S
C1150 C1152 1.353 . S
C1150 H1208 0.929 . S
C1151 C1148 1.356 . S
C1151 C1153 1.358 . S
C1151 H1209 0.930 . S
C1152 N1149 1.314 . S
C1152 C1150 1.353 . S
C1152 H1210 0.930 . S
C1153 N1149 1.279 . S
C1153 C1151 1.358 . S
C1153 H1211 0.930 . S
C1154 C1157 1.348 . S
C1154 C1158 1.356 . S
C1154 O1205 1.325 . S
C1155 N1156 1.279 . S
C1155 C1158 1.358 . S
C1155 H1212 0.930 . S
N1156 C1155 1.279 . S
N1156 C1159 1.314 . S
C1157 C1154 1.348 . S
C1157 C1159 1.353 . S
C1157 H1213 0.929 . S
C1158 C1154 1.356 . S
C1158 C1155 1.358 . S
C1158 H1214 0.930 . S
C1159 N1156 1.314 . S
C1159 C1157 1.353 . S
C1159 H1215 0.930 . S
C1160 N1161 1.314 . S
C1160 C1165 1.353 . S
C1160 H1166 0.930 . S
N1161 Li1144 1.990 . S
N1161 C1160 1.314 . S
N1161 C1163 1.279 . S
C1162 C1163 1.358 . S
C1162 C1164 1.356 . S
C1162 H1216 0.930 . S
C1163 N1161 1.279 . S
C1163 C1162 1.358 . S
C1163 H1167 0.930 . S
C1164 C1162 1.356 . S
C1164 C1165 1.348 . S
C1165 C1160 1.353 . S
C1165 C1164 1.348 . S
C1165 H1217 0.929 . S
H1166 C1160 0.930 . S
H1167 C1163 0.930 . S
C1168 N1169 1.314 . S
C1168 C1170 1.353 . S
C1168 H1174 0.930 . S
N1169 Li1145 1.990 . S
N1169 C1168 1.314 . S
N1169 C1172 1.279 . S
C1170 C1168 1.353 . S
C1170 C1173 1.348 . S
C1170 H1218 0.929 . S
C1171 C1172 1.358 . S
C1171 C1173 1.356 . S
C1171 H1219 0.930 . S
C1172 N1169 1.279 . S
C1172 C1171 1.358 . S
C1172 H1175 0.930 . S
C1173 C1170 1.348 . S
C1173 C1171 1.356 . S
H1174 C1168 0.930 . S
H1175 C1172 0.930 . S
C1176 C1178 1.348 . S
C1176 C1179 1.356 . S
C1176 O1206 1.325 . S
N1177 C1180 1.314 . S
N1177 C1181 1.279 . S
C1178 C1176 1.348 . S
C1178 C1180 1.353 . S
C1178 H1220 0.929 . S
C1179 C1176 1.356 . S
C1179 C1181 1.358 . S
C1179 H1221 0.930 . S
C1180 N1177 1.314 . S
C1180 C1178 1.353 . S
C1180 H1222 0.930 . S
C1181 N1177 1.279 . S
C1181 C1179 1.358 . S
C1181 H1223 0.930 . S
C1182 C1183 1.321 1_554 S
C1182 C1184 1.356 . S
C1182 O1207 1.325 . S
C1183 C1182 1.321 1_556 S
C1183 C1185 1.375 . S
C1183 H1224 0.935 . S
C1184 C1182 1.356 . S
C1184 C1186 1.358 1_554 S
C1184 H1225 0.930 . S
C1185 C1183 1.375 . S
C1185 N1187 1.314 . S
C1185 H1226 0.930 . S
C1186 C1184 1.358 1_556 S
C1186 N1187 1.279 . S
C1186 H1227 0.930 . S
N1187 C1185 1.314 . S
N1187 C1186 1.279 . S
C1188 C1190 1.353 1_554 S
C1188 N1191 1.314 . S
C1188 H1194 0.930 . S
C1189 N1191 1.279 . S
C1189 C1192 1.358 1_554 S
C1189 H1195 0.930 . S
C1190 C1188 1.353 1_556 S
C1190 C1193 1.348 . S
C1190 H1228 0.929 . S
N1191 Li1146 1.990 . S
N1191 C1188 1.314 . S
N1191 C1189 1.279 . S
C1192 C1189 1.358 1_556 S
C1192 C1193 1.356 . S
C1192 H1229 0.930 . S
C1193 C1190 1.348 . S
C1193 C1192 1.356 . S
H1194 C1188 0.930 . S
H1195 C1189 0.930 . S
C1196 N1197 1.314 . S
C1196 C1198 1.353 . S
C1196 H1202 0.930 . S
N1197 Li1147 1.990 . S
N1197 C1196 1.314 . S
N1197 C1200 1.279 . S
C1198 C1196 1.353 . S
C1198 C1201 1.348 . S
C1198 H1230 0.929 . S
C1199 C1200 1.358 . S
C1199 C1201 1.356 . S
C1199 H1231 0.930 . S
C1200 N1197 1.279 . S
C1200 C1199 1.358 . S
C1200 H1203 0.930 . S
C1201 C1198 1.348 . S
C1201 C1199 1.356 . S
H1202 C1196 0.930 . S
H1203 C1200 0.930 . S
O1204 Li1144 1.956 . S
O1204 Li1145 1.970 . S
O1204 Li1146 1.961 . S
O1204 C1148 1.325 . S
O1205 Li1144 1.970 . S
O1205 Li1145 1.956 . S
O1205 Li1147 1.961 . S
O1205 C1154 1.325 . S
O1206 Li1144 1.961 . S
O1206 Li1146 1.956 . S
O1206 Li1147 1.970 . S
O1206 C1176 1.325 . S
O1207 Li1145 1.961 . S
O1207 Li1146 1.970 . S
O1207 Li1147 1.956 . S
O1207 C1182 1.325 . S
H1208 C1150 0.929 . S
H1209 C1151 0.930 . S
H1210 C1152 0.930 . S
H1211 C1153 0.930 . S
H1212 C1155 0.930 . S
H1213 C1157 0.929 . S
H1214 C1158 0.930 . S
H1215 C1159 0.930 . S
H1216 C1162 0.930 . S
H1217 C1165 0.929 . S
H1218 C1170 0.929 . S
H1219 C1171 0.930 . S
H1220 C1178 0.929 . S
H1221 C1179 0.930 . S
H1222 C1180 0.930 . S
H1223 C1181 0.930 . S
H1224 C1183 0.935 . S
H1225 C1184 0.930 . S
H1226 C1185 0.930 . S
H1227 C1186 0.930 . S
H1228 C1190 0.929 . S
H1229 C1192 0.930 . S
H1230 C1198 0.929 . S
H1231 C1199 0.930 . S
Li1232 N1249 1.990 . S
Li1232 O1292 1.956 . S
Li1232 O1293 1.970 . S
Li1232 O1294 1.961 . S
Li1233 N1257 1.990 . S
Li1233 O1292 1.970 . S
Li1233 O1293 1.956 . S
Li1233 O1295 1.961 . S
Li1234 N1279 1.990 . S
Li1234 O1292 1.961 . S
Li1234 O1294 1.956 . S
Li1234 O1295 1.970 . S
Li1235 N1285 1.990 . S
Li1235 O1293 1.961 . S
Li1235 O1294 1.970 . S
Li1235 O1295 1.956 . S
C1236 C1238 1.348 . S
C1236 C1239 1.356 . S
C1236 O1292 1.325 . S
N1237 C1240 1.314 . S
N1237 C1241 1.279 . S
C1238 C1236 1.348 . S
C1238 C1240 1.353 . S
C1238 H1296 0.929 . S
C1239 C1236 1.356 . S
C1239 C1241 1.358 . S
C1239 H1297 0.930 . S
C1240 N1237 1.314 . S
C1240 C1238 1.353 . S
C1240 H1298 0.930 . S
C1241 N1237 1.279 . S
C1241 C1239 1.358 . S
C1241 H1299 0.930 . S
C1242 C1245 1.348 . S
C1242 C1246 1.356 . S
C1242 O1293 1.325 . S
C1243 N1244 1.279 . S
C1243 C1246 1.358 . S
C1243 H1300 0.930 . S
N1244 C1243 1.279 . S
N1244 C1247 1.314 . S
C1245 C1242 1.348 . S
C1245 C1247 1.353 . S
C1245 H1301 0.929 . S
C1246 C1242 1.356 . S
C1246 C1243 1.358 . S
C1246 H1302 0.930 . S
C1247 N1244 1.314 . S
C1247 C1245 1.353 . S
C1247 H1303 0.930 . S
C1248 N1249 1.314 . S
C1248 C1253 1.353 . S
C1248 H1254 0.930 . S
N1249 Li1232 1.990 . S
N1249 C1248 1.314 . S
N1249 C1251 1.279 . S
C1250 C1251 1.358 . S
C1250 C1252 1.356 . S
C1250 H1304 0.930 . S
C1251 N1249 1.279 . S
C1251 C1250 1.358 . S
C1251 H1255 0.930 . S
C1252 C1250 1.356 . S
C1252 C1253 1.348 . S
C1253 C1248 1.353 . S
C1253 C1252 1.348 . S
C1253 H1305 0.929 . S
H1254 C1248 0.930 . S
H1255 C1251 0.930 . S
C1256 N1257 1.314 . S
C1256 C1258 1.353 . S
C1256 H1262 0.930 . S
N1257 Li1233 1.990 . S
N1257 C1256 1.314 . S
N1257 C1260 1.279 . S
C1258 C1256 1.353 . S
C1258 C1261 1.348 . S
C1258 H1306 0.929 . S
C1259 C1260 1.358 . S
C1259 C1261 1.356 . S
C1259 H1307 0.930 . S
C1260 N1257 1.279 . S
C1260 C1259 1.358 . S
C1260 H1263 0.930 . S
C1261 C1258 1.348 . S
C1261 C1259 1.356 . S
H1262 C1256 0.930 . S
H1263 C1260 0.930 . S
C1264 C1266 1.348 . S
C1264 C1267 1.356 . S
C1264 O1294 1.325 . S
N1265 C1268 1.314 . S
N1265 C1269 1.279 . S
C1266 C1264 1.348 . S
C1266 C1268 1.353 . S
C1266 H1308 0.929 . S
C1267 C1264 1.356 . S
C1267 C1269 1.358 . S
C1267 H1309 0.930 . S
C1268 N1265 1.314 . S
C1268 C1266 1.353 . S
C1268 H1310 0.930 . S
C1269 N1265 1.279 . S
C1269 C1267 1.358 . S
C1269 H1311 0.930 . S
C1270 C1271 1.348 . S
C1270 C1272 1.356 . S
C1270 O1295 1.325 . S
C1271 C1270 1.348 . S
C1271 C1273 1.353 . S
C1271 H1312 0.929 . S
C1272 C1270 1.356 . S
C1272 C1274 1.358 . S
C1272 H1313 0.930 . S
C1273 C1271 1.353 . S
C1273 N1275 1.314 . S
C1273 H1314 0.930 . S
C1274 C1272 1.358 . S
C1274 N1275 1.279 . S
C1274 H1315 0.930 . S
N1275 C1273 1.314 . S
N1275 C1274 1.279 . S
C1276 C1278 1.353 . S
C1276 N1279 1.314 . S
C1276 H1282 0.930 . S
C1277 N1279 1.279 . S
C1277 C1280 1.358 . S
C1277 H1283 0.930 . S
C1278 C1276 1.353 . S
C1278 C1281 1.348 . S
C1278 H1316 0.929 . S
N1279 Li1234 1.990 . S
N1279 C1276 1.314 . S
N1279 C1277 1.279 . S
C1280 C1277 1.358 . S
C1280 C1281 1.356 . S
C1280 H1317 0.930 . S
C1281 C1278 1.348 . S
C1281 C1280 1.356 . S
H1282 C1276 0.930 . S
H1283 C1277 0.930 . S
C1284 N1285 1.314 . S
C1284 C1286 1.353 . S
C1284 H1290 0.930 . S
N1285 Li1235 1.990 . S
N1285 C1284 1.314 . S
N1285 C1288 1.279 . S
C1286 C1284 1.353 . S
C1286 C1289 1.348 . S
C1286 H1318 0.929 . S
C1287 C1288 1.358 . S
C1287 C1289 1.356 . S
C1287 H1319 0.930 . S
C1288 N1285 1.279 . S
C1288 C1287 1.358 . S
C1288 H1291 0.930 . S
C1289 C1286 1.348 . S
C1289 C1287 1.356 . S
H1290 C1284 0.930 . S
H1291 C1288 0.930 . S
O1292 Li1232 1.956 . S
O1292 Li1233 1.970 . S
O1292 Li1234 1.961 . S
O1292 C1236 1.325 . S
O1293 Li1232 1.970 . S
O1293 Li1233 1.956 . S
O1293 Li1235 1.961 . S
O1293 C1242 1.325 . S
O1294 Li1232 1.961 . S
O1294 Li1234 1.956 . S
O1294 Li1235 1.970 . S
O1294 C1264 1.325 . S
O1295 Li1233 1.961 . S
O1295 Li1234 1.970 . S
O1295 Li1235 1.956 . S
O1295 C1270 1.325 . S
H1296 C1238 0.929 . S
H1297 C1239 0.930 . S
H1298 C1240 0.930 . S
H1299 C1241 0.930 . S
H1300 C1243 0.930 . S
H1301 C1245 0.929 . S
H1302 C1246 0.930 . S
H1303 C1247 0.930 . S
H1304 C1250 0.930 . S
H1305 C1253 0.929 . S
H1306 C1258 0.929 . S
H1307 C1259 0.930 . S
H1308 C1266 0.929 . S
H1309 C1267 0.930 . S
H1310 C1268 0.930 . S
H1311 C1269 0.930 . S
H1312 C1271 0.929 . S
H1313 C1272 0.930 . S
H1314 C1273 0.930 . S
H1315 C1274 0.930 . S
H1316 C1278 0.929 . S
H1317 C1280 0.930 . S
H1318 C1286 0.929 . S
H1319 C1287 0.930 . S
Li1320 N1337 1.990 . S
Li1320 O1380 1.956 . S
Li1320 O1381 1.970 . S
Li1320 O1382 1.961 . S
Li1321 N1345 1.990 . S
Li1321 O1380 1.970 . S
Li1321 O1381 1.956 . S
Li1321 O1383 1.961 . S
Li1322 N1367 1.990 . S
Li1322 O1380 1.961 . S
Li1322 O1382 1.956 . S
Li1322 O1383 1.970 . S
Li1323 N1373 1.990 . S
Li1323 O1381 1.961 . S
Li1323 O1382 1.970 . S
Li1323 O1383 1.956 . S
C1324 C1326 1.348 . S
C1324 C1327 1.356 . S
C1324 O1380 1.325 . S
N1325 C1328 1.314 . S
N1325 C1329 1.279 . S
C1326 C1324 1.348 . S
C1326 C1328 1.353 . S
C1326 H1384 0.929 . S
C1327 C1324 1.356 . S
C1327 C1329 1.358 . S
C1327 H1385 0.930 . S
C1328 N1325 1.314 . S
C1328 C1326 1.353 . S
C1328 H1386 0.930 . S
C1329 N1325 1.279 . S
C1329 C1327 1.358 . S
C1329 H1387 0.930 1_565 S
C1330 C1333 1.348 . S
C1330 C1334 1.356 . S
C1330 O1381 1.325 . S
C1331 N1332 1.279 . S
C1331 C1334 1.358 . S
C1331 H1388 0.930 . S
N1332 C1331 1.279 . S
N1332 C1335 1.314 . S
C1333 C1330 1.348 . S
C1333 C1335 1.353 . S
C1333 H1389 0.929 . S
C1334 C1330 1.356 . S
C1334 C1331 1.358 . S
C1334 H1390 0.930 . S
C1335 N1332 1.314 . S
C1335 C1333 1.353 . S
C1335 H1391 0.930 . S
C1336 N1337 1.314 . S
C1336 C1341 1.353 . S
C1336 H1342 0.930 . S
N1337 Li1320 1.990 . S
N1337 C1336 1.314 . S
N1337 C1339 1.279 . S
C1338 C1339 1.358 . S
C1338 C1340 1.356 . S
C1338 H1392 0.930 . S
C1339 N1337 1.279 . S
C1339 C1338 1.358 . S
C1339 H1343 0.930 . S
C1340 C1338 1.356 . S
C1340 C1341 1.348 . S
C1341 C1336 1.353 . S
C1341 C1340 1.348 . S
C1341 H1393 0.929 . S
H1342 C1336 0.930 . S
H1343 C1339 0.930 . S
C1344 N1345 1.314 . S
C1344 C1346 1.353 . S
C1344 H1350 0.930 . S
N1345 Li1321 1.990 . S
N1345 C1344 1.314 . S
N1345 C1348 1.279 . S
C1346 C1344 1.353 . S
C1346 C1349 1.348 . S
C1346 H1394 0.929 . S
C1347 C1348 1.358 . S
C1347 C1349 1.356 . S
C1347 H1395 0.930 . S
C1348 N1345 1.279 . S
C1348 C1347 1.358 . S
C1348 H1351 0.930 . S
C1349 C1346 1.348 . S
C1349 C1347 1.356 . S
H1350 C1344 0.930 . S
H1351 C1348 0.930 . S
C1352 C1354 1.348 . S
C1352 C1355 1.356 . S
C1352 O1382 1.325 . S
N1353 C1356 1.314 . S
N1353 C1357 1.279 . S
C1354 C1352 1.348 . S
C1354 C1356 1.353 . S
C1354 H1396 0.929 . S
C1355 C1352 1.356 . S
C1355 C1357 1.358 . S
C1355 H1397 0.930 . S
C1356 N1353 1.314 . S
C1356 C1354 1.353 . S
C1356 H1398 0.930 . S
C1357 N1353 1.279 . S
C1357 C1355 1.358 . S
C1357 H1399 0.930 . S
C1358 C1359 1.348 . S
C1358 C1360 1.356 . S
C1358 O1383 1.325 . S
C1359 C1358 1.348 . S
C1359 C1361 1.353 . S
C1359 H1400 0.929 . S
C1360 C1358 1.356 . S
C1360 C1362 1.358 . S
C1360 H1401 0.930 . S
C1361 C1359 1.353 . S
C1361 N1363 1.314 . S
C1361 H1402 0.930 . S
C1362 C1360 1.358 . S
C1362 N1363 1.279 . S
C1362 H1403 0.930 . S
N1363 C1361 1.314 . S
N1363 C1362 1.279 . S
C1364 C1366 1.353 . S
C1364 N1367 1.314 . S
C1364 H1370 0.930 . S
C1365 N1367 1.279 . S
C1365 C1368 1.358 . S
C1365 H1371 0.930 . S
C1366 C1364 1.353 . S
C1366 C1369 1.348 . S
C1366 H1404 0.929 . S
N1367 Li1322 1.990 . S
N1367 C1364 1.314 . S
N1367 C1365 1.279 . S
C1368 C1365 1.358 . S
C1368 C1369 1.356 . S
C1368 H1405 0.930 . S
C1369 C1366 1.348 . S
C1369 C1368 1.356 . S
H1370 C1364 0.930 . S
H1371 C1365 0.930 . S
C1372 N1373 1.314 . S
C1372 C1374 1.353 . S
C1372 H1378 0.930 . S
N1373 Li1323 1.990 . S
N1373 C1372 1.314 . S
N1373 C1376 1.279 . S
C1374 C1372 1.353 . S
C1374 C1377 1.348 . S
C1374 H1406 0.929 . S
C1375 C1376 1.358 . S
C1375 C1377 1.356 . S
C1375 H1407 0.930 . S
C1376 N1373 1.279 . S
C1376 C1375 1.358 . S
C1376 H1379 0.930 . S
C1377 C1374 1.348 . S
C1377 C1375 1.356 . S
H1378 C1372 0.930 . S
H1379 C1376 0.930 . S
O1380 Li1320 1.956 . S
O1380 Li1321 1.970 . S
O1380 Li1322 1.961 . S
O1380 C1324 1.325 . S
O1381 Li1320 1.970 . S
O1381 Li1321 1.956 . S
O1381 Li1323 1.961 . S
O1381 C1330 1.325 . S
O1382 Li1320 1.961 . S
O1382 Li1322 1.956 . S
O1382 Li1323 1.970 . S
O1382 C1352 1.325 . S
O1383 Li1321 1.961 . S
O1383 Li1322 1.970 . S
O1383 Li1323 1.956 . S
O1383 C1358 1.325 . S
H1384 C1326 0.929 . S
H1385 C1327 0.930 . S
H1386 C1328 0.930 . S
H1387 C1329 0.930 1_545 S
H1388 C1331 0.930 . S
H1389 C1333 0.929 . S
H1390 C1334 0.930 . S
H1391 C1335 0.930 . S
H1392 C1338 0.930 . S
H1393 C1341 0.929 . S
H1394 C1346 0.929 . S
H1395 C1347 0.930 . S
H1396 C1354 0.929 . S
H1397 C1355 0.930 . S
H1398 C1356 0.930 . S
H1399 C1357 0.930 . S
H1400 C1359 0.929 . S
H1401 C1360 0.930 . S
H1402 C1361 0.930 . S
H1403 C1362 0.930 . S
H1404 C1366 0.929 . S
H1405 C1368 0.930 . S
H1406 C1374 0.929 . S
H1407 C1375 0.930 . S
Li1408 N1425 1.990 1_655 S
Li1408 O1468 1.956 . S
Li1408 O1469 1.970 . S
Li1408 O1470 1.961 . S
Li1409 N1433 1.990 1_545 S
Li1409 O1468 1.970 . S
Li1409 O1469 1.956 . S
Li1409 O1471 1.961 . S
Li1410 N1455 1.990 1_655 S
Li1410 O1468 1.961 . S
Li1410 O1470 1.956 . S
Li1410 O1471 1.970 . S
Li1411 N1461 1.990 . S
Li1411 O1469 1.961 . S
Li1411 O1470 1.970 . S
Li1411 O1471 1.956 . S
C1412 C1414 1.348 . S
C1412 C1415 1.356 1_655 S
C1412 O1468 1.325 1_565 S
N1413 C1416 1.314 1_455 S
N1413 C1417 1.279 . S
C1414 C1412 1.348 . S
C1414 C1416 1.353 . S
C1414 H1472 0.929 . S
C1415 C1412 1.356 1_455 S
C1415 C1417 1.358 . S
C1415 H1473 0.930 1_565 S
C1416 N1413 1.314 1_655 S
C1416 C1414 1.353 . S
C1416 H1474 0.930 . S
C1417 N1413 1.279 . S
C1417 C1415 1.358 . S
C1417 H1475 0.930 . S
C1418 C1421 1.348 . S
C1418 C1422 1.356 . S
C1418 O1469 1.325 . S
C1419 N1420 1.279 . S
C1419 C1422 1.358 . S
C1419 H1476 0.930 . S
N1420 C1419 1.279 . S
N1420 C1423 1.314 . S
C1421 C1418 1.348 . S
C1421 C1423 1.353 . S
C1421 H1477 0.929 . S
C1422 C1418 1.356 . S
C1422 C1419 1.358 . S
C1422 H1478 0.930 . S
C1423 N1420 1.314 . S
C1423 C1421 1.353 . S
C1423 H1479 0.930 . S
C1424 N1425 1.314 . S
C1424 C1429 1.353 . S
C1424 H1430 0.930 . S
N1425 Li1408 1.990 1_455 S
N1425 C1424 1.314 . S
N1425 C1427 1.279 . S
C1426 C1427 1.358 . S
C1426 C1428 1.356 . S
C1426 H1480 0.930 . S
C1427 N1425 1.279 . S
C1427 C1426 1.358 . S
C1427 H1431 0.930 . S
C1428 C1426 1.356 . S
C1428 C1429 1.348 . S
C1429 C1424 1.353 . S
C1429 C1428 1.348 . S
C1429 H1481 0.929 . S
H1430 C1424 0.930 . S
H1431 C1427 0.930 . S
C1432 N1433 1.314 . S
C1432 C1434 1.353 . S
C1432 H1438 0.930 . S
N1433 Li1409 1.990 1_565 S
N1433 C1432 1.314 . S
N1433 C1436 1.279 . S
C1434 C1432 1.353 . S
C1434 C1437 1.348 . S
C1434 H1482 0.929 . S
C1435 C1436 1.358 . S
C1435 C1437 1.356 . S
C1435 H1483 0.930 . S
C1436 N1433 1.279 . S
C1436 C1435 1.358 . S
C1436 H1439 0.930 . S
C1437 C1434 1.348 . S
C1437 C1435 1.356 . S
H1438 C1432 0.930 . S
H1439 C1436 0.930 . S
C1440 C1442 1.348 . S
C1440 C1443 1.356 . S
C1440 O1470 1.325 1_455 S
N1441 C1444 1.314 . S
N1441 C1445 1.279 . S
C1442 C1440 1.348 . S
C1442 C1444 1.353 . S
C1442 H1484 0.929 1_455 S
C1443 C1440 1.356 . S
C1443 C1445 1.358 . S
C1443 H1485 0.930 . S
C1444 N1441 1.314 . S
C1444 C1442 1.353 . S
C1444 H1486 0.930 . S
C1445 N1441 1.279 . S
C1445 C1443 1.358 . S
C1445 H1487 0.930 . S
C1446 C1447 1.348 . S
C1446 C1448 1.356 . S
C1446 O1471 1.325 . S
C1447 C1446 1.348 . S
C1447 C1449 1.353 . S
C1447 H1488 0.929 . S
C1448 C1446 1.356 . S
C1448 C1450 1.358 . S
C1448 H1489 0.930 . S
C1449 C1447 1.353 . S
C1449 N1451 1.314 . S
C1449 H1490 0.930 . S
C1450 C1448 1.358 . S
C1450 N1451 1.279 . S
C1450 H1491 0.930 1_545 S
N1451 C1449 1.314 . S
N1451 C1450 1.279 . S
C1452 C1454 1.353 . S
C1452 N1455 1.314 . S
C1452 H1458 0.946 1_455 S
C1453 N1455 1.279 . S
C1453 C1456 1.358 . S
C1453 H1459 0.930 . S
C1454 C1452 1.353 . S
C1454 C1457 1.348 . S
C1454 H1492 0.920 1_545 S
N1455 Li1410 1.990 1_455 S
N1455 C1452 1.314 . S
N1455 C1453 1.279 . S
C1456 C1453 1.358 . S
C1456 C1457 1.356 . S
C1456 H1493 0.930 . S
C1457 C1454 1.348 . S
C1457 C1456 1.356 . S
H1458 C1452 0.946 1_655 S
H1459 C1453 0.930 . S
C1460 N1461 1.314 . S
C1460 C1462 1.353 . S
C1460 H1466 0.930 . S
N1461 Li1411 1.990 . S
N1461 C1460 1.314 . S
N1461 C1464 1.279 . S
C1462 C1460 1.353 . S
C1462 C1465 1.348 . S
C1462 H1494 0.929 . S
C1463 C1464 1.358 . S
C1463 C1465 1.356 . S
C1463 H1495 0.930 . S
C1464 N1461 1.279 . S
C1464 C1463 1.358 . S
C1464 H1467 0.930 . S
C1465 C1462 1.348 . S
C1465 C1463 1.356 . S
H1466 C1460 0.930 . S
H1467 C1464 0.930 . S
O1468 Li1408 1.956 . S
O1468 Li1409 1.970 . S
O1468 Li1410 1.961 . S
O1468 C1412 1.325 1_545 S
O1469 Li1408 1.970 . S
O1469 Li1409 1.956 . S
O1469 Li1411 1.961 . S
O1469 C1418 1.325 . S
O1470 Li1408 1.961 . S
O1470 Li1410 1.956 . S
O1470 Li1411 1.970 . S
O1470 C1440 1.325 1_655 S
O1471 Li1409 1.961 . S
O1471 Li1410 1.970 . S
O1471 Li1411 1.956 . S
O1471 C1446 1.325 . S
H1472 C1414 0.929 . S
H1473 C1415 0.930 1_545 S
H1474 C1416 0.930 . S
H1475 C1417 0.930 . S
H1476 C1419 0.930 . S
H1477 C1421 0.929 . S
H1478 C1422 0.930 . S
H1479 C1423 0.930 . S
H1480 C1426 0.930 . S
H1481 C1429 0.929 . S
H1482 C1434 0.929 . S
H1483 C1435 0.930 . S
H1484 C1442 0.929 1_655 S
H1485 C1443 0.930 . S
H1486 C1444 0.930 . S
H1487 C1445 0.930 . S
H1488 C1447 0.929 . S
H1489 C1448 0.930 . S
H1490 C1449 0.930 . S
H1491 C1450 0.930 1_565 S
H1492 C1454 0.920 1_565 S
H1493 C1456 0.930 . S
H1494 C1462 0.929 . S
H1495 C1463 0.930 . S
Li1496 N1513 1.990 . S
Li1496 O1556 1.956 . S
Li1496 O1557 1.970 . S
Li1496 O1558 1.961 . S
Li1497 N1521 1.990 . S
Li1497 O1556 1.970 . S
Li1497 O1557 1.956 . S
Li1497 O1559 1.961 . S
Li1498 N1543 1.990 . S
Li1498 O1556 1.961 . S
Li1498 O1558 1.956 . S
Li1498 O1559 1.970 . S
Li1499 N1549 1.990 . S
Li1499 O1557 1.961 . S
Li1499 O1558 1.970 . S
Li1499 O1559 1.956 . S
C1500 C1502 1.348 . S
C1500 C1503 1.356 . S
C1500 O1556 1.325 . S
N1501 C1504 1.314 . S
N1501 C1505 1.279 . S
C1502 C1500 1.348 . S
C1502 C1504 1.353 . S
C1502 H1560 0.929 . S
C1503 C1500 1.356 . S
C1503 C1505 1.358 . S
C1503 H1561 0.930 . S
C1504 N1501 1.314 . S
C1504 C1502 1.353 . S
C1504 H1562 0.930 . S
C1505 N1501 1.279 . S
C1505 C1503 1.358 . S
C1505 H1563 0.930 . S
C1506 C1509 1.348 . S
C1506 C1510 1.356 . S
C1506 O1557 1.325 . S
C1507 N1508 1.279 . S
C1507 C1510 1.358 . S
C1507 H1564 0.930 . S
N1508 C1507 1.279 . S
N1508 C1511 1.314 . S
C1509 C1506 1.348 . S
C1509 C1511 1.353 . S
C1509 H1565 0.929 . S
C1510 C1506 1.356 . S
C1510 C1507 1.358 . S
C1510 H1566 0.930 . S
C1511 N1508 1.314 . S
C1511 C1509 1.353 . S
C1511 H1567 0.930 . S
C1512 N1513 1.314 . S
C1512 C1517 1.353 . S
C1512 H1518 0.930 . S
N1513 Li1496 1.990 . S
N1513 C1512 1.314 . S
N1513 C1515 1.279 . S
C1514 C1515 1.358 . S
C1514 C1516 1.356 . S
C1514 H1568 0.930 . S
C1515 N1513 1.279 . S
C1515 C1514 1.358 . S
C1515 H1519 0.930 . S
C1516 C1514 1.356 . S
C1516 C1517 1.348 . S
C1517 C1512 1.353 . S
C1517 C1516 1.348 . S
C1517 H1569 0.929 . S
H1518 C1512 0.930 . S
H1519 C1515 0.930 . S
C1520 N1521 1.314 . S
C1520 C1522 1.353 . S
C1520 H1526 0.930 . S
N1521 Li1497 1.990 . S
N1521 C1520 1.314 . S
N1521 C1524 1.279 . S
C1522 C1520 1.353 . S
C1522 C1525 1.348 . S
C1522 H1570 0.929 . S
C1523 C1524 1.358 . S
C1523 C1525 1.356 . S
C1523 H1571 0.930 . S
C1524 N1521 1.279 . S
C1524 C1523 1.358 . S
C1524 H1527 0.930 . S
C1525 C1522 1.348 . S
C1525 C1523 1.356 . S
H1526 C1520 0.930 . S
H1527 C1524 0.930 . S
C1528 C1530 1.348 . S
C1528 C1531 1.356 . S
C1528 O1558 1.325 . S
N1529 C1532 1.314 . S
N1529 C1533 1.279 . S
C1530 C1528 1.348 . S
C1530 C1532 1.353 . S
C1530 H1572 0.929 . S
C1531 C1528 1.356 . S
C1531 C1533 1.358 . S
C1531 H1573 0.930 . S
C1532 N1529 1.314 . S
C1532 C1530 1.353 . S
C1532 H1574 0.930 . S
C1533 N1529 1.279 . S
C1533 C1531 1.358 . S
C1533 H1575 0.930 . S
C1534 C1535 1.348 . S
C1534 C1536 1.356 . S
C1534 O1559 1.325 . S
C1535 C1534 1.348 . S
C1535 C1537 1.353 . S
C1535 H1576 0.929 . S
C1536 C1534 1.356 . S
C1536 C1538 1.358 . S
C1536 H1577 0.930 . S
C1537 C1535 1.353 . S
C1537 N1539 1.314 . S
C1537 H1578 0.930 . S
C1538 C1536 1.358 . S
C1538 N1539 1.279 . S
C1538 H1579 0.930 . S
N1539 C1537 1.314 . S
N1539 C1538 1.279 . S
C1540 C1542 1.353 . S
C1540 N1543 1.314 . S
C1540 H1546 0.930 . S
C1541 N1543 1.279 . S
C1541 C1544 1.358 . S
C1541 H1547 0.930 . S
C1542 C1540 1.353 . S
C1542 C1545 1.348 . S
C1542 H1580 0.929 . S
N1543 Li1498 1.990 . S
N1543 C1540 1.314 . S
N1543 C1541 1.279 . S
C1544 C1541 1.358 . S
C1544 C1545 1.356 . S
C1544 H1581 0.930 . S
C1545 C1542 1.348 . S
C1545 C1544 1.356 . S
H1546 C1540 0.930 . S
H1547 C1541 0.930 . S
C1548 N1549 1.314 . S
C1548 C1550 1.353 . S
C1548 H1554 0.930 . S
N1549 Li1499 1.990 . S
N1549 C1548 1.314 . S
N1549 C1552 1.279 . S
C1550 C1548 1.353 . S
C1550 C1553 1.348 . S
C1550 H1582 0.929 . S
C1551 C1552 1.358 . S
C1551 C1553 1.356 . S
C1551 H1583 0.930 . S
C1552 N1549 1.279 . S
C1552 C1551 1.358 . S
C1552 H1555 0.930 . S
C1553 C1550 1.348 . S
C1553 C1551 1.356 . S
H1554 C1548 0.930 . S
H1555 C1552 0.930 . S
O1556 Li1496 1.956 . S
O1556 Li1497 1.970 . S
O1556 Li1498 1.961 . S
O1556 C1500 1.325 . S
O1557 Li1496 1.970 . S
O1557 Li1497 1.956 . S
O1557 Li1499 1.961 . S
O1557 C1506 1.325 . S
O1558 Li1496 1.961 . S
O1558 Li1498 1.956 . S
O1558 Li1499 1.970 . S
O1558 C1528 1.325 . S
O1559 Li1497 1.961 . S
O1559 Li1498 1.970 . S
O1559 Li1499 1.956 . S
O1559 C1534 1.325 . S
H1560 C1502 0.929 . S
H1561 C1503 0.930 . S
H1562 C1504 0.930 . S
H1563 C1505 0.930 . S
H1564 C1507 0.930 . S
H1565 C1509 0.929 . S
H1566 C1510 0.930 . S
H1567 C1511 0.930 . S
H1568 C1514 0.930 . S
H1569 C1517 0.929 . S
H1570 C1522 0.929 . S
H1571 C1523 0.930 . S
H1572 C1530 0.929 . S
H1573 C1531 0.930 . S
H1574 C1532 0.930 . S
H1575 C1533 0.930 . S
H1576 C1535 0.929 . S
H1577 C1536 0.930 . S
H1578 C1537 0.930 . S
H1579 C1538 0.930 . S
H1580 C1542 0.929 . S
H1581 C1544 0.930 . S
H1582 C1550 0.929 . S
H1583 C1551 0.930 . S
Li1584 N1601 1.990 . S
Li1584 O1644 1.956 . S
Li1584 O1645 1.970 . S
Li1584 O1646 1.961 . S
Li1585 N1609 1.990 . S
Li1585 O1644 1.970 . S
Li1585 O1645 1.956 . S
Li1585 O1647 1.961 . S
Li1586 N1631 1.990 . S
Li1586 O1644 1.961 . S
Li1586 O1646 1.956 . S
Li1586 O1647 1.970 . S
Li1587 N1637 1.990 . S
Li1587 O1645 1.961 . S
Li1587 O1646 1.970 . S
Li1587 O1647 1.956 . S
C1588 C1590 1.348 . S
C1588 C1591 1.356 . S
C1588 O1644 1.325 . S
N1589 C1592 1.314 . S
N1589 C1593 1.279 . S
C1590 C1588 1.348 . S
C1590 C1592 1.353 . S
C1590 H1648 0.929 . S
C1591 C1588 1.356 . S
C1591 C1593 1.358 . S
C1591 H1649 0.930 . S
C1592 N1589 1.314 . S
C1592 C1590 1.353 . S
C1592 H1650 0.930 . S
C1593 N1589 1.279 . S
C1593 C1591 1.358 . S
C1593 H1651 0.930 . S
C1594 C1597 1.348 . S
C1594 C1598 1.356 . S
C1594 O1645 1.325 . S
C1595 N1596 1.279 . S
C1595 C1598 1.358 . S
C1595 H1652 0.930 . S
N1596 C1595 1.279 . S
N1596 C1599 1.314 . S
C1597 C1594 1.348 . S
C1597 C1599 1.353 . S
C1597 H1653 0.929 . S
C1598 C1594 1.356 . S
C1598 C1595 1.358 . S
C1598 H1654 0.930 . S
C1599 N1596 1.314 . S
C1599 C1597 1.353 . S
C1599 H1655 0.930 . S
C1600 N1601 1.314 . S
C1600 C1605 1.353 . S
C1600 H1606 0.930 . S
N1601 Li1584 1.990 . S
N1601 C1600 1.314 . S
N1601 C1603 1.279 . S
C1602 C1603 1.358 . S
C1602 C1604 1.356 . S
C1602 H1656 0.930 . S
C1603 N1601 1.279 . S
C1603 C1602 1.358 . S
C1603 H1607 0.930 . S
C1604 C1602 1.356 . S
C1604 C1605 1.348 . S
C1605 C1600 1.353 . S
C1605 C1604 1.348 . S
C1605 H1657 0.929 . S
H1606 C1600 0.930 . S
H1607 C1603 0.930 . S
C1608 N1609 1.314 . S
C1608 C1610 1.353 . S
C1608 H1614 0.930 . S
N1609 Li1585 1.990 . S
N1609 C1608 1.314 . S
N1609 C1612 1.279 . S
C1610 C1608 1.353 . S
C1610 C1613 1.348 . S
C1610 H1658 0.929 . S
C1611 C1612 1.358 . S
C1611 C1613 1.356 . S
C1611 H1659 0.930 . S
C1612 N1609 1.279 . S
C1612 C1611 1.358 . S
C1612 H1615 0.930 . S
C1613 C1610 1.348 . S
C1613 C1611 1.356 . S
H1614 C1608 0.930 . S
H1615 C1612 0.930 . S
C1616 C1618 1.348 . S
C1616 C1619 1.356 . S
C1616 O1646 1.325 . S
N1617 C1620 1.314 . S
N1617 C1621 1.279 . S
C1618 C1616 1.348 . S
C1618 C1620 1.353 . S
C1618 H1660 0.929 . S
C1619 C1616 1.356 . S
C1619 C1621 1.358 . S
C1619 H1661 0.930 . S
C1620 N1617 1.314 . S
C1620 C1618 1.353 . S
C1620 H1662 0.930 . S
C1621 N1617 1.279 . S
C1621 C1619 1.358 . S
C1621 H1663 0.930 . S
C1622 C1623 1.348 . S
C1622 C1624 1.356 . S
C1622 O1647 1.325 . S
C1623 C1622 1.348 . S
C1623 C1625 1.353 . S
C1623 H1664 0.929 . S
C1624 C1622 1.356 . S
C1624 C1626 1.358 . S
C1624 H1665 0.930 . S
C1625 C1623 1.353 . S
C1625 N1627 1.314 . S
C1625 H1666 0.930 . S
C1626 C1624 1.358 . S
C1626 N1627 1.279 . S
C1626 H1667 0.930 . S
N1627 C1625 1.314 . S
N1627 C1626 1.279 . S
C1628 C1630 1.353 . S
C1628 N1631 1.314 . S
C1628 H1634 0.930 . S
C1629 N1631 1.279 . S
C1629 C1632 1.358 . S
C1629 H1635 0.930 . S
C1630 C1628 1.353 . S
C1630 C1633 1.348 . S
C1630 H1668 0.929 . S
N1631 Li1586 1.990 . S
N1631 C1628 1.314 . S
N1631 C1629 1.279 . S
C1632 C1629 1.358 . S
C1632 C1633 1.356 . S
C1632 H1669 0.930 . S
C1633 C1630 1.348 . S
C1633 C1632 1.356 . S
H1634 C1628 0.930 . S
H1635 C1629 0.930 . S
C1636 N1637 1.314 . S
C1636 C1638 1.353 . S
C1636 H1642 0.930 . S
N1637 Li1587 1.990 . S
N1637 C1636 1.314 . S
N1637 C1640 1.279 . S
C1638 C1636 1.353 . S
C1638 C1641 1.348 . S
C1638 H1670 0.929 . S
C1639 C1640 1.358 . S
C1639 C1641 1.356 . S
C1639 H1671 0.930 . S
C1640 N1637 1.279 . S
C1640 C1639 1.358 . S
C1640 H1643 0.930 . S
C1641 C1638 1.348 . S
C1641 C1639 1.356 . S
H1642 C1636 0.930 . S
H1643 C1640 0.930 . S
O1644 Li1584 1.956 . S
O1644 Li1585 1.970 . S
O1644 Li1586 1.961 . S
O1644 C1588 1.325 . S
O1645 Li1584 1.970 . S
O1645 Li1585 1.956 . S
O1645 Li1587 1.961 . S
O1645 C1594 1.325 . S
O1646 Li1584 1.961 . S
O1646 Li1586 1.956 . S
O1646 Li1587 1.970 . S
O1646 C1616 1.325 . S
O1647 Li1585 1.961 . S
O1647 Li1586 1.970 . S
O1647 Li1587 1.956 . S
O1647 C1622 1.325 . S
H1648 C1590 0.929 . S
H1649 C1591 0.930 . S
H1650 C1592 0.930 . S
H1651 C1593 0.930 . S
H1652 C1595 0.930 . S
H1653 C1597 0.929 . S
H1654 C1598 0.930 . S
H1655 C1599 0.930 . S
H1656 C1602 0.930 . S
H1657 C1605 0.929 . S
H1658 C1610 0.929 . S
H1659 C1611 0.930 . S
H1660 C1618 0.929 . S
H1661 C1619 0.930 . S
H1662 C1620 0.930 . S
H1663 C1621 0.930 . S
H1664 C1623 0.929 . S
H1665 C1624 0.930 . S
H1666 C1625 0.930 . S
H1667 C1626 0.930 . S
H1668 C1630 0.929 . S
H1669 C1632 0.930 . S
H1670 C1638 0.929 . S
H1671 C1639 0.930 . S
Li1672 N1689 1.990 . S
Li1672 O1732 1.956 . S
Li1672 O1733 1.970 . S
Li1672 O1734 1.961 . S
Li1673 N1697 1.990 . S
Li1673 O1732 1.970 . S
Li1673 O1733 1.956 . S
Li1673 O1735 1.961 . S
Li1674 N1719 1.990 . S
Li1674 O1732 1.961 . S
Li1674 O1734 1.956 . S
Li1674 O1735 1.970 . S
Li1675 N1725 1.990 . S
Li1675 O1733 1.961 . S
Li1675 O1734 1.970 . S
Li1675 O1735 1.956 . S
C1676 C1678 1.348 . S
C1676 C1679 1.356 . S
C1676 O1732 1.325 . S
N1677 C1680 1.314 . S
N1677 C1681 1.279 . S
C1678 C1676 1.348 . S
C1678 C1680 1.353 . S
C1678 H1736 0.929 . S
C1679 C1676 1.356 . S
C1679 C1681 1.358 . S
C1679 H1737 0.930 . S
C1680 N1677 1.314 . S
C1680 C1678 1.353 . S
C1680 H1738 0.930 . S
C1681 N1677 1.279 . S
C1681 C1679 1.358 . S
C1681 H1739 0.930 . S
C1682 C1685 1.348 . S
C1682 C1686 1.356 . S
C1682 O1733 1.325 . S
C1683 N1684 1.279 . S
C1683 C1686 1.358 . S
C1683 H1740 0.930 . S
N1684 C1683 1.279 . S
N1684 C1687 1.314 . S
C1685 C1682 1.348 . S
C1685 C1687 1.353 . S
C1685 H1741 0.929 . S
C1686 C1682 1.356 . S
C1686 C1683 1.358 . S
C1686 H1742 0.930 . S
C1687 N1684 1.314 . S
C1687 C1685 1.353 . S
C1687 H1743 0.930 . S
C1688 N1689 1.314 . S
C1688 C1693 1.353 . S
C1688 H1694 0.930 . S
N1689 Li1672 1.990 . S
N1689 C1688 1.314 . S
N1689 C1691 1.279 . S
C1690 C1691 1.358 . S
C1690 C1692 1.356 . S
C1690 H1744 0.930 . S
C1691 N1689 1.279 . S
C1691 C1690 1.358 . S
C1691 H1695 0.930 . S
C1692 C1690 1.356 . S
C1692 C1693 1.348 . S
C1693 C1688 1.353 . S
C1693 C1692 1.348 . S
C1693 H1745 0.929 . S
H1694 C1688 0.930 . S
H1695 C1691 0.930 . S
C1696 N1697 1.314 . S
C1696 C1698 1.353 . S
C1696 H1702 0.930 . S
N1697 Li1673 1.990 . S
N1697 C1696 1.314 . S
N1697 C1700 1.279 . S
C1698 C1696 1.353 . S
C1698 C1701 1.348 . S
C1698 H1746 0.929 . S
C1699 C1700 1.358 . S
C1699 C1701 1.356 . S
C1699 H1747 0.930 . S
C1700 N1697 1.279 . S
C1700 C1699 1.358 . S
C1700 H1703 0.930 . S
C1701 C1698 1.348 . S
C1701 C1699 1.356 . S
H1702 C1696 0.930 . S
H1703 C1700 0.930 . S
C1704 C1706 1.348 . S
C1704 C1707 1.356 . S
C1704 O1734 1.325 . S
N1705 C1708 1.314 . S
N1705 C1709 1.279 1_565 S
C1706 C1704 1.348 . S
C1706 C1708 1.353 1_545 S
C1706 H1748 0.929 . S
C1707 C1704 1.356 . S
C1707 C1709 1.358 . S
C1707 H1749 0.930 . S
C1708 N1705 1.314 . S
C1708 C1706 1.353 1_565 S
C1708 H1750 0.930 . S
C1709 N1705 1.279 1_545 S
C1709 C1707 1.358 . S
C1709 H1751 0.930 . S
C1710 C1711 1.348 . S
C1710 C1712 1.356 . S
C1710 O1735 1.325 . S
C1711 C1710 1.348 . S
C1711 C1713 1.353 . S
C1711 H1752 0.929 . S
C1712 C1710 1.356 . S
C1712 C1714 1.358 . S
C1712 H1753 0.930 . S
C1713 C1711 1.353 . S
C1713 N1715 1.314 . S
C1713 H1754 0.930 . S
C1714 C1712 1.358 . S
C1714 N1715 1.279 . S
C1714 H1755 0.930 . S
N1715 C1713 1.314 . S
N1715 C1714 1.279 . S
C1716 C1718 1.353 . S
C1716 N1719 1.314 . S
C1716 H1722 0.930 . S
C1717 N1719 1.279 . S
C1717 C1720 1.358 . S
C1717 H1723 0.930 . S
C1718 C1716 1.353 . S
C1718 C1721 1.348 . S
C1718 H1756 0.929 . S
N1719 Li1674 1.990 . S
N1719 C1716 1.314 . S
N1719 C1717 1.279 . S
C1720 C1717 1.358 . S
C1720 C1721 1.356 . S
C1720 H1757 0.930 . S
C1721 C1718 1.348 . S
C1721 C1720 1.356 . S
H1722 C1716 0.930 . S
H1723 C1717 0.930 . S
C1724 N1725 1.314 . S
C1724 C1726 1.353 . S
C1724 H1730 0.930 . S
N1725 Li1675 1.990 . S
N1725 C1724 1.314 . S
N1725 C1728 1.279 . S
C1726 C1724 1.353 . S
C1726 C1729 1.348 . S
C1726 H1758 0.929 . S
C1727 C1728 1.358 . S
C1727 C1729 1.356 . S
C1727 H1759 0.930 . S
C1728 N1725 1.279 . S
C1728 C1727 1.358 . S
C1728 H1731 0.930 . S
C1729 C1726 1.348 . S
C1729 C1727 1.356 . S
H1730 C1724 0.930 . S
H1731 C1728 0.930 . S
O1732 Li1672 1.956 . S
O1732 Li1673 1.970 . S
O1732 Li1674 1.961 . S
O1732 C1676 1.325 . S
O1733 Li1672 1.970 . S
O1733 Li1673 1.956 . S
O1733 Li1675 1.961 . S
O1733 C1682 1.325 . S
O1734 Li1672 1.961 . S
O1734 Li1674 1.956 . S
O1734 Li1675 1.970 . S
O1734 C1704 1.325 . S
O1735 Li1673 1.961 . S
O1735 Li1674 1.970 . S
O1735 Li1675 1.956 . S
O1735 C1710 1.325 . S
H1736 C1678 0.929 . S
H1737 C1679 0.930 . S
H1738 C1680 0.930 . S
H1739 C1681 0.930 . S
H1740 C1683 0.930 . S
H1741 C1685 0.929 . S
H1742 C1686 0.930 . S
H1743 C1687 0.930 . S
H1744 C1690 0.930 . S
H1745 C1693 0.929 . S
H1746 C1698 0.929 . S
H1747 C1699 0.930 . S
H1748 C1706 0.929 . S
H1749 C1707 0.930 . S
H1750 C1708 0.930 . S
H1751 C1709 0.930 . S
H1752 C1711 0.929 . S
H1753 C1712 0.930 . S
H1754 C1713 0.930 . S
H1755 C1714 0.930 . S
H1756 C1718 0.929 . S
H1757 C1720 0.930 . S
H1758 C1726 0.929 . S
H1759 C1727 0.930 . S
Li1760 N1777 1.990 . S
Li1760 O1820 1.956 . S
Li1760 O1821 1.970 . S
Li1760 O1822 1.961 . S
Li1761 N1785 1.990 . S
Li1761 O1820 1.970 . S
Li1761 O1821 1.956 . S
Li1761 O1823 1.961 . S
Li1762 N1807 1.990 1_554 S
Li1762 O1820 1.961 . S
Li1762 O1822 1.956 . S
Li1762 O1823 1.970 . S
Li1763 N1813 1.990 . S
Li1763 O1821 1.961 . S
Li1763 O1822 1.970 . S
Li1763 O1823 1.956 . S
C1764 C1766 1.348 . S
C1764 C1767 1.356 . S
C1764 O1820 1.325 . S
N1765 C1768 1.314 . S
N1765 C1769 1.279 . S
C1766 C1764 1.348 . S
C1766 C1768 1.353 . S
C1766 H1824 0.929 . S
C1767 C1764 1.356 . S
C1767 C1769 1.358 . S
C1767 H1825 0.930 . S
C1768 N1765 1.314 . S
C1768 C1766 1.353 . S
C1768 H1826 0.930 . S
C1769 N1765 1.279 . S
C1769 C1767 1.358 . S
C1769 H1827 0.930 . S
C1770 C1773 1.348 . S
C1770 C1774 1.356 . S
C1770 O1821 1.325 . S
C1771 N1772 1.279 . S
C1771 C1774 1.358 . S
C1771 H1828 0.930 . S
N1772 C1771 1.279 . S
N1772 C1775 1.314 . S
C1773 C1770 1.348 . S
C1773 C1775 1.353 . S
C1773 H1829 0.929 . S
C1774 C1770 1.356 . S
C1774 C1771 1.358 . S
C1774 H1830 0.930 . S
C1775 N1772 1.314 . S
C1775 C1773 1.353 . S
C1775 H1831 0.930 . S
C1776 N1777 1.314 . S
C1776 C1781 1.353 . S
C1776 H1782 0.930 . S
N1777 Li1760 1.990 . S
N1777 C1776 1.314 . S
N1777 C1779 1.279 . S
C1778 C1779 1.358 . S
C1778 C1780 1.356 . S
C1778 H1832 0.930 . S
C1779 N1777 1.279 . S
C1779 C1778 1.358 . S
C1779 H1783 0.930 . S
C1780 C1778 1.356 . S
C1780 C1781 1.348 . S
C1781 C1776 1.353 . S
C1781 C1780 1.348 . S
C1781 H1833 0.929 . S
H1782 C1776 0.930 . S
H1783 C1779 0.930 . S
C1784 N1785 1.314 . S
C1784 C1786 1.353 . S
C1784 H1790 0.930 . S
N1785 Li1761 1.990 . S
N1785 C1784 1.314 . S
N1785 C1788 1.279 . S
C1786 C1784 1.353 . S
C1786 C1789 1.348 . S
C1786 H1834 0.929 1_554 S
C1787 C1788 1.358 . S
C1787 C1789 1.356 . S
C1787 H1835 0.930 . S
C1788 N1785 1.279 . S
C1788 C1787 1.358 . S
C1788 H1791 0.930 . S
C1789 C1786 1.348 . S
C1789 C1787 1.356 . S
H1790 C1784 0.930 . S
H1791 C1788 0.930 . S
C1792 C1794 1.348 . S
C1792 C1795 1.356 . S
C1792 O1822 1.325 . S
N1793 C1796 1.314 . S
N1793 C1797 1.279 . S
C1794 C1792 1.348 . S
C1794 C1796 1.353 . S
C1794 H1836 0.929 . S
C1795 C1792 1.356 . S
C1795 C1797 1.358 . S
C1795 H1837 0.930 . S
C1796 N1793 1.314 . S
C1796 C1794 1.353 . S
C1796 H1838 0.930 . S
C1797 N1793 1.279 . S
C1797 C1795 1.358 . S
C1797 H1839 0.930 . S
C1798 C1799 1.348 . S
C1798 C1800 1.356 . S
C1798 O1823 1.325 1_556 S
C1799 C1798 1.348 . S
C1799 C1801 1.353 . S
C1799 H1840 0.929 . S
C1800 C1798 1.356 . S
C1800 C1802 1.358 . S
C1800 H1841 0.930 . S
C1801 C1799 1.353 . S
C1801 N1803 1.314 . S
C1801 H1842 0.930 . S
C1802 C1800 1.358 . S
C1802 N1803 1.279 . S
C1802 H1843 0.930 . S
N1803 C1801 1.314 . S
N1803 C1802 1.279 . S
C1804 C1806 1.353 . S
C1804 N1807 1.314 . S
C1804 H1810 0.930 . S
C1805 N1807 1.279 . S
C1805 C1808 1.358 . S
C1805 H1811 0.930 . S
C1806 C1804 1.353 . S
C1806 C1809 1.348 . S
C1806 H1844 0.929 . S
N1807 Li1762 1.990 1_556 S
N1807 C1804 1.314 . S
N1807 C1805 1.279 . S
C1808 C1805 1.358 . S
C1808 C1809 1.356 . S
C1808 H1845 0.930 . S
C1809 C1806 1.348 . S
C1809 C1808 1.356 . S
H1810 C1804 0.930 . S
H1811 C1805 0.930 . S
C1812 N1813 1.314 . S
C1812 C1814 1.353 . S
C1812 H1818 0.930 . S
N1813 Li1763 1.990 . S
N1813 C1812 1.314 . S
N1813 C1816 1.279 . S
C1814 C1812 1.353 . S
C1814 C1817 1.348 . S
C1814 H1846 0.929 . S
C1815 C1816 1.358 1_556 S
C1815 C1817 1.356 1_556 S
C1815 H1847 0.930 . S
C1816 N1813 1.279 . S
C1816 C1815 1.358 1_554 S
C1816 H1819 0.930 1_554 S
C1817 C1814 1.348 . S
C1817 C1815 1.356 1_554 S
H1818 C1812 0.930 . S
H1819 C1816 0.930 1_556 S
O1820 Li1760 1.956 . S
O1820 Li1761 1.970 . S
O1820 Li1762 1.961 . S
O1820 C1764 1.325 . S
O1821 Li1760 1.970 . S
O1821 Li1761 1.956 . S
O1821 Li1763 1.961 . S
O1821 C1770 1.325 . S
O1822 Li1760 1.961 . S
O1822 Li1762 1.956 . S
O1822 Li1763 1.970 . S
O1822 C1792 1.325 . S
O1823 Li1761 1.961 . S
O1823 Li1762 1.970 . S
O1823 Li1763 1.956 . S
O1823 C1798 1.325 1_554 S
H1824 C1766 0.929 . S
H1825 C1767 0.930 . S
H1826 C1768 0.930 . S
H1827 C1769 0.930 . S
H1828 C1771 0.930 . S
H1829 C1773 0.929 . S
H1830 C1774 0.930 . S
H1831 C1775 0.930 . S
H1832 C1778 0.930 . S
H1833 C1781 0.929 . S
H1834 C1786 0.929 1_556 S
H1835 C1787 0.930 . S
H1836 C1794 0.929 . S
H1837 C1795 0.930 . S
H1838 C1796 0.930 . S
H1839 C1797 0.930 . S
H1840 C1799 0.929 . S
H1841 C1800 0.930 . S
H1842 C1801 0.930 . S
H1843 C1802 0.930 . S
H1844 C1806 0.929 . S
H1845 C1808 0.930 . S
H1846 C1814 0.929 . S
H1847 C1815 0.930 . S
Li1848 N1865 1.990 . S
Li1848 O1908 1.956 . S
Li1848 O1909 1.970 . S
Li1848 O1910 1.961 . S
Li1849 N1873 1.990 . S
Li1849 O1908 1.970 . S
Li1849 O1909 1.956 . S
Li1849 O1911 1.961 . S
Li1850 N1895 1.990 . S
Li1850 O1908 1.961 . S
Li1850 O1910 1.956 . S
Li1850 O1911 1.970 . S
Li1851 N1901 1.990 . S
Li1851 O1909 1.961 . S
Li1851 O1910 1.970 . S
Li1851 O1911 1.956 . S
C1852 C1854 1.348 . S
C1852 C1855 1.356 . S
C1852 O1908 1.325 . S
N1853 C1856 1.314 . S
N1853 C1857 1.279 . S
C1854 C1852 1.348 . S
C1854 C1856 1.353 . S
C1854 H1912 0.929 . S
C1855 C1852 1.356 . S
C1855 C1857 1.358 . S
C1855 H1913 0.930 . S
C1856 N1853 1.314 . S
C1856 C1854 1.353 . S
C1856 H1914 0.930 . S
C1857 N1853 1.279 . S
C1857 C1855 1.358 . S
C1857 H1915 0.930 . S
C1858 C1861 1.348 . S
C1858 C1862 1.356 . S
C1858 O1909 1.325 . S
C1859 N1860 1.279 . S
C1859 C1862 1.358 . S
C1859 H1916 0.930 . S
N1860 C1859 1.279 . S
N1860 C1863 1.314 . S
C1861 C1858 1.348 . S
C1861 C1863 1.353 . S
C1861 H1917 0.929 . S
C1862 C1858 1.356 . S
C1862 C1859 1.358 . S
C1862 H1918 0.930 . S
C1863 N1860 1.314 . S
C1863 C1861 1.353 . S
C1863 H1919 0.930 . S
C1864 N1865 1.314 . S
C1864 C1869 1.353 . S
C1864 H1870 0.930 . S
N1865 Li1848 1.990 . S
N1865 C1864 1.314 . S
N1865 C1867 1.279 . S
C1866 C1867 1.358 . S
C1866 C1868 1.356 . S
C1866 H1920 0.930 . S
C1867 N1865 1.279 . S
C1867 C1866 1.358 . S
C1867 H1871 0.930 . S
C1868 C1866 1.356 . S
C1868 C1869 1.348 . S
C1869 C1864 1.353 . S
C1869 C1868 1.348 . S
C1869 H1921 0.929 . S
H1870 C1864 0.930 . S
H1871 C1867 0.930 . S
C1872 N1873 1.314 . S
C1872 C1874 1.353 . S
C1872 H1878 0.930 . S
N1873 Li1849 1.990 . S
N1873 C1872 1.314 . S
N1873 C1876 1.279 . S
C1874 C1872 1.353 . S
C1874 C1877 1.348 . S
C1874 H1922 0.929 . S
C1875 C1876 1.358 . S
C1875 C1877 1.356 . S
C1875 H1923 0.930 . S
C1876 N1873 1.279 . S
C1876 C1875 1.358 . S
C1876 H1879 0.930 . S
C1877 C1874 1.348 . S
C1877 C1875 1.356 . S
H1878 C1872 0.930 . S
H1879 C1876 0.930 . S
C1880 C1882 1.348 . S
C1880 C1883 1.356 . S
C1880 O1910 1.325 . S
N1881 C1884 1.314 . S
N1881 C1885 1.279 . S
C1882 C1880 1.348 . S
C1882 C1884 1.353 . S
C1882 H1924 0.929 . S
C1883 C1880 1.356 . S
C1883 C1885 1.358 . S
C1883 H1925 0.930 . S
C1884 N1881 1.314 . S
C1884 C1882 1.353 . S
C1884 H1926 0.930 . S
C1885 N1881 1.279 . S
C1885 C1883 1.358 . S
C1885 H1927 0.930 . S
C1886 C1887 1.348 . S
C1886 C1888 1.356 . S
C1886 O1911 1.325 . S
C1887 C1886 1.348 . S
C1887 C1889 1.353 . S
C1887 H1928 0.929 . S
C1888 C1886 1.356 . S
C1888 C1890 1.358 . S
C1888 H1929 0.930 . S
C1889 C1887 1.353 . S
C1889 N1891 1.314 . S
C1889 H1930 0.930 . S
C1890 C1888 1.358 . S
C1890 N1891 1.279 . S
C1890 H1931 0.930 1_655 S
N1891 C1889 1.314 . S
N1891 C1890 1.279 . S
C1892 C1894 1.353 . S
C1892 N1895 1.314 . S
C1892 H1898 0.930 . S
C1893 N1895 1.279 . S
C1893 C1896 1.358 . S
C1893 H1899 0.930 . S
C1894 C1892 1.353 . S
C1894 C1897 1.348 . S
C1894 H1932 0.929 . S
N1895 Li1850 1.990 . S
N1895 C1892 1.314 . S
N1895 C1893 1.279 . S
C1896 C1893 1.358 . S
C1896 C1897 1.356 . S
C1896 H1933 0.930 . S
C1897 C1894 1.348 . S
C1897 C1896 1.356 . S
H1898 C1892 0.930 . S
H1899 C1893 0.930 . S
C1900 N1901 1.314 . S
C1900 C1902 1.353 . S
C1900 H1906 0.930 . S
N1901 Li1851 1.990 . S
N1901 C1900 1.314 . S
N1901 C1904 1.279 . S
C1902 C1900 1.353 . S
C1902 C1905 1.348 . S
C1902 H1934 0.929 . S
C1903 C1904 1.358 . S
C1903 C1905 1.356 . S
C1903 H1935 0.930 . S
C1904 N1901 1.279 . S
C1904 C1903 1.358 . S
C1904 H1907 0.930 . S
C1905 C1902 1.348 . S
C1905 C1903 1.356 . S
H1906 C1900 0.930 . S
H1907 C1904 0.930 . S
O1908 Li1848 1.956 . S
O1908 Li1849 1.970 . S
O1908 Li1850 1.961 . S
O1908 C1852 1.325 . S
O1909 Li1848 1.970 . S
O1909 Li1849 1.956 . S
O1909 Li1851 1.961 . S
O1909 C1858 1.325 . S
O1910 Li1848 1.961 . S
O1910 Li1850 1.956 . S
O1910 Li1851 1.970 . S
O1910 C1880 1.325 . S
O1911 Li1849 1.961 . S
O1911 Li1850 1.970 . S
O1911 Li1851 1.956 . S
O1911 C1886 1.325 . S
H1912 C1854 0.929 . S
H1913 C1855 0.930 . S
H1914 C1856 0.930 . S
H1915 C1857 0.930 . S
H1916 C1859 0.930 . S
H1917 C1861 0.929 . S
H1918 C1862 0.930 . S
H1919 C1863 0.930 . S
H1920 C1866 0.930 . S
H1921 C1869 0.929 . S
H1922 C1874 0.929 . S
H1923 C1875 0.930 . S
H1924 C1882 0.929 . S
H1925 C1883 0.930 . S
H1926 C1884 0.930 . S
H1927 C1885 0.930 . S
H1928 C1887 0.929 . S
H1929 C1888 0.930 . S
H1930 C1889 0.930 . S
H1931 C1890 0.930 1_455 S
H1932 C1894 0.929 . S
H1933 C1896 0.930 . S
H1934 C1902 0.929 . S
H1935 C1903 0.930 . S
Li1936 N1953 1.990 . S
Li1936 O1996 1.956 . S
Li1936 O1997 1.970 . S
Li1936 O1998 1.961 . S
Li1937 N1961 1.990 . S
Li1937 O1996 1.970 . S
Li1937 O1997 1.956 . S
Li1937 O1999 1.961 . S
Li1938 N1983 1.990 . S
Li1938 O1996 1.961 . S
Li1938 O1998 1.956 . S
Li1938 O1999 1.970 . S
Li1939 N1989 1.990 . S
Li1939 O1997 1.961 . S
Li1939 O1998 1.970 . S
Li1939 O1999 1.956 . S
C1940 C1942 1.348 . S
C1940 C1943 1.356 . S
C1940 O1996 1.325 . S
N1941 C1944 1.314 . S
N1941 C1945 1.279 . S
C1942 C1940 1.348 . S
C1942 C1944 1.353 . S
C1942 H2000 0.929 . S
C1943 C1940 1.356 . S
C1943 C1945 1.358 . S
C1943 H2001 0.930 . S
C1944 N1941 1.314 . S
C1944 C1942 1.353 . S
C1944 H2002 0.930 . S
C1945 N1941 1.279 . S
C1945 C1943 1.358 . S
C1945 H2003 0.930 . S
C1946 C1949 1.348 . S
C1946 C1950 1.356 . S
C1946 O1997 1.325 . S
C1947 N1948 1.279 . S
C1947 C1950 1.358 . S
C1947 H2004 0.930 . S
N1948 C1947 1.279 . S
N1948 C1951 1.314 . S
C1949 C1946 1.348 . S
C1949 C1951 1.353 . S
C1949 H2005 0.929 . S
C1950 C1946 1.356 . S
C1950 C1947 1.358 . S
C1950 H2006 0.930 . S
C1951 N1948 1.314 . S
C1951 C1949 1.353 . S
C1951 H2007 0.930 . S
C1952 N1953 1.314 . S
C1952 C1957 1.353 . S
C1952 H1958 0.930 . S
N1953 Li1936 1.990 . S
N1953 C1952 1.314 . S
N1953 C1955 1.279 . S
C1954 C1955 1.358 . S
C1954 C1956 1.356 . S
C1954 H2008 0.930 . S
C1955 N1953 1.279 . S
C1955 C1954 1.358 . S
C1955 H1959 0.930 . S
C1956 C1954 1.356 . S
C1956 C1957 1.348 . S
C1957 C1952 1.353 . S
C1957 C1956 1.348 . S
C1957 H2009 0.929 . S
H1958 C1952 0.930 . S
H1959 C1955 0.930 . S
C1960 N1961 1.314 . S
C1960 C1962 1.353 . S
C1960 H1966 0.930 . S
N1961 Li1937 1.990 . S
N1961 C1960 1.314 . S
N1961 C1964 1.279 . S
C1962 C1960 1.353 . S
C1962 C1965 1.348 . S
C1962 H2010 0.929 . S
C1963 C1964 1.358 . S
C1963 C1965 1.356 . S
C1963 H2011 0.930 . S
C1964 N1961 1.279 . S
C1964 C1963 1.358 . S
C1964 H1967 0.930 . S
C1965 C1962 1.348 . S
C1965 C1963 1.356 . S
H1966 C1960 0.930 . S
H1967 C1964 0.930 . S
C1968 C1970 1.348 . S
C1968 C1971 1.356 . S
C1968 O1998 1.325 . S
N1969 C1972 1.314 . S
N1969 C1973 1.279 . S
C1970 C1968 1.348 . S
C1970 C1972 1.353 . S
C1970 H2012 0.929 . S
C1971 C1968 1.356 . S
C1971 C1973 1.358 . S
C1971 H2013 0.930 . S
C1972 N1969 1.314 . S
C1972 C1970 1.353 . S
C1972 H2014 0.930 . S
C1973 N1969 1.279 . S
C1973 C1971 1.358 . S
C1973 H2015 0.930 . S
C1974 C1975 1.348 . S
C1974 C1976 1.356 . S
C1974 O1999 1.325 . S
C1975 C1974 1.348 . S
C1975 C1977 1.353 . S
C1975 H2016 0.929 . S
C1976 C1974 1.356 . S
C1976 C1978 1.358 . S
C1976 H2017 0.930 . S
C1977 C1975 1.353 . S
C1977 N1979 1.314 . S
C1977 H2018 0.930 . S
C1978 C1976 1.358 . S
C1978 N1979 1.279 . S
C1978 H2019 0.930 . S
N1979 C1977 1.314 . S
N1979 C1978 1.279 . S
C1980 C1982 1.353 . S
C1980 N1983 1.314 . S
C1980 H1986 0.930 . S
C1981 N1983 1.279 . S
C1981 C1984 1.358 . S
C1981 H1987 0.930 . S
C1982 C1980 1.353 . S
C1982 C1985 1.348 . S
C1982 H2020 0.929 . S
N1983 Li1938 1.990 . S
N1983 C1980 1.314 . S
N1983 C1981 1.279 . S
C1984 C1981 1.358 . S
C1984 C1985 1.356 . S
C1984 H2021 0.930 . S
C1985 C1982 1.348 . S
C1985 C1984 1.356 . S
H1986 C1980 0.930 . S
H1987 C1981 0.930 . S
C1988 N1989 1.314 . S
C1988 C1990 1.353 . S
C1988 H1994 0.930 . S
N1989 Li1939 1.990 . S
N1989 C1988 1.314 . S
N1989 C1992 1.279 . S
C1990 C1988 1.353 . S
C1990 C1993 1.348 . S
C1990 H2022 0.929 . S
C1991 C1992 1.358 . S
C1991 C1993 1.356 . S
C1991 H2023 0.930 . S
C1992 N1989 1.279 . S
C1992 C1991 1.358 . S
C1992 H1995 0.930 . S
C1993 C1990 1.348 . S
C1993 C1991 1.356 . S
H1994 C1988 0.930 . S
H1995 C1992 0.930 . S
O1996 Li1936 1.956 . S
O1996 Li1937 1.970 . S
O1996 Li1938 1.961 . S
O1996 C1940 1.325 . S
O1997 Li1936 1.970 . S
O1997 Li1937 1.956 . S
O1997 Li1939 1.961 . S
O1997 C1946 1.325 . S
O1998 Li1936 1.961 . S
O1998 Li1938 1.956 . S
O1998 Li1939 1.970 . S
O1998 C1968 1.325 . S
O1999 Li1937 1.961 . S
O1999 Li1938 1.970 . S
O1999 Li1939 1.956 . S
O1999 C1974 1.325 . S
H2000 C1942 0.929 . S
H2001 C1943 0.930 . S
H2002 C1944 0.930 . S
H2003 C1945 0.930 . S
H2004 C1947 0.930 . S
H2005 C1949 0.929 . S
H2006 C1950 0.930 . S
H2007 C1951 0.930 . S
H2008 C1954 0.930 . S
H2009 C1957 0.929 . S
H2010 C1962 0.929 . S
H2011 C1963 0.930 . S
H2012 C1970 0.929 . S
H2013 C1971 0.930 . S
H2014 C1972 0.930 . S
H2015 C1973 0.930 . S
H2016 C1975 0.929 . S
H2017 C1976 0.930 . S
H2018 C1977 0.930 . S
H2019 C1978 0.930 . S
H2020 C1982 0.929 . S
H2021 C1984 0.930 . S
H2022 C1990 0.929 . S
H2023 C1991 0.930 . S
Li2024 N2041 1.990 . S
Li2024 O2084 1.956 . S
Li2024 O2085 1.970 . S
Li2024 O2086 1.961 . S
Li2025 N2049 1.990 . S
Li2025 O2084 1.970 . S
Li2025 O2085 1.956 . S
Li2025 O2087 1.961 . S
Li2026 N2071 1.990 . S
Li2026 O2084 1.961 . S
Li2026 O2086 1.956 . S
Li2026 O2087 1.970 . S
Li2027 N2077 1.990 . S
Li2027 O2085 1.961 . S
Li2027 O2086 1.970 . S
Li2027 O2087 1.956 . S
C2028 C2030 1.348 . S
C2028 C2031 1.356 . S
C2028 O2084 1.325 . S
N2029 C2032 1.314 . S
N2029 C2033 1.279 . S
C2030 C2028 1.348 . S
C2030 C2032 1.353 . S
C2030 H2088 0.929 . S
C2031 C2028 1.356 . S
C2031 C2033 1.358 . S
C2031 H2089 0.930 . S
C2032 N2029 1.314 . S
C2032 C2030 1.353 . S
C2032 H2090 0.930 . S
C2033 N2029 1.279 . S
C2033 C2031 1.358 . S
C2033 H2091 0.930 . S
C2034 C2037 1.348 . S
C2034 C2038 1.356 . S
C2034 O2085 1.325 . S
C2035 N2036 1.279 . S
C2035 C2038 1.358 . S
C2035 H2092 0.930 . S
N2036 C2035 1.279 . S
N2036 C2039 1.314 . S
C2037 C2034 1.348 . S
C2037 C2039 1.353 . S
C2037 H2093 0.929 . S
C2038 C2034 1.356 . S
C2038 C2035 1.358 . S
C2038 H2094 0.930 . S
C2039 N2036 1.314 . S
C2039 C2037 1.353 . S
C2039 H2095 0.930 . S
C2040 N2041 1.314 . S
C2040 C2045 1.353 . S
C2040 H2046 0.930 . S
N2041 Li2024 1.990 . S
N2041 C2040 1.314 . S
N2041 C2043 1.279 . S
C2042 C2043 1.358 . S
C2042 C2044 1.356 . S
C2042 H2096 0.930 . S
C2043 N2041 1.279 . S
C2043 C2042 1.358 . S
C2043 H2047 0.930 . S
C2044 C2042 1.356 . S
C2044 C2045 1.348 . S
C2045 C2040 1.353 . S
C2045 C2044 1.348 . S
C2045 H2097 0.929 . S
H2046 C2040 0.930 . S
H2047 C2043 0.930 . S
C2048 N2049 1.314 . S
C2048 C2050 1.353 . S
C2048 H2054 0.930 . S
N2049 Li2025 1.990 . S
N2049 C2048 1.314 . S
N2049 C2052 1.279 . S
C2050 C2048 1.353 . S
C2050 C2053 1.348 . S
C2050 H2098 0.929 . S
C2051 C2052 1.358 . S
C2051 C2053 1.356 . S
C2051 H2099 0.930 . S
C2052 N2049 1.279 . S
C2052 C2051 1.358 . S
C2052 H2055 0.930 . S
C2053 C2050 1.348 . S
C2053 C2051 1.356 . S
H2054 C2048 0.930 . S
H2055 C2052 0.930 . S
C2056 C2058 1.348 . S
C2056 C2059 1.356 . S
C2056 O2086 1.325 . S
N2057 C2060 1.314 . S
N2057 C2061 1.279 . S
C2058 C2056 1.348 . S
C2058 C2060 1.353 . S
C2058 H2100 0.929 . S
C2059 C2056 1.356 . S
C2059 C2061 1.358 . S
C2059 H2101 0.930 . S
C2060 N2057 1.314 . S
C2060 C2058 1.353 . S
C2060 H2102 0.930 . S
C2061 N2057 1.279 . S
C2061 C2059 1.358 . S
C2061 H2103 0.930 . S
C2062 C2063 1.348 . S
C2062 C2064 1.356 . S
C2062 O2087 1.325 . S
C2063 C2062 1.348 . S
C2063 C2065 1.353 . S
C2063 H2104 0.929 . S
C2064 C2062 1.356 . S
C2064 C2066 1.358 . S
C2064 H2105 0.930 . S
C2065 C2063 1.353 . S
C2065 N2067 1.314 . S
C2065 H2106 0.930 . S
C2066 C2064 1.358 . S
C2066 N2067 1.279 . S
C2066 H2107 0.930 . S
N2067 C2065 1.314 . S
N2067 C2066 1.279 . S
C2068 C2070 1.353 . S
C2068 N2071 1.314 . S
C2068 H2074 0.930 . S
C2069 N2071 1.279 . S
C2069 C2072 1.358 . S
C2069 H2075 0.930 . S
C2070 C2068 1.353 . S
C2070 C2073 1.348 . S
C2070 H2108 0.929 . S
N2071 Li2026 1.990 . S
N2071 C2068 1.314 . S
N2071 C2069 1.279 . S
C2072 C2069 1.358 . S
C2072 C2073 1.356 . S
C2072 H2109 0.930 . S
C2073 C2070 1.348 . S
C2073 C2072 1.356 . S
H2074 C2068 0.930 . S
H2075 C2069 0.930 . S
C2076 N2077 1.314 . S
C2076 C2078 1.353 . S
C2076 H2082 0.930 . S
N2077 Li2027 1.990 . S
N2077 C2076 1.314 . S
N2077 C2080 1.279 . S
C2078 C2076 1.353 . S
C2078 C2081 1.348 . S
C2078 H2110 0.929 . S
C2079 C2080 1.358 . S
C2079 C2081 1.356 . S
C2079 H2111 0.930 . S
C2080 N2077 1.279 . S
C2080 C2079 1.358 . S
C2080 H2083 0.930 . S
C2081 C2078 1.348 . S
C2081 C2079 1.356 . S
H2082 C2076 0.930 . S
H2083 C2080 0.930 . S
O2084 Li2024 1.956 . S
O2084 Li2025 1.970 . S
O2084 Li2026 1.961 . S
O2084 C2028 1.325 . S
O2085 Li2024 1.970 . S
O2085 Li2025 1.956 . S
O2085 Li2027 1.961 . S
O2085 C2034 1.325 . S
O2086 Li2024 1.961 . S
O2086 Li2026 1.956 . S
O2086 Li2027 1.970 . S
O2086 C2056 1.325 . S
O2087 Li2025 1.961 . S
O2087 Li2026 1.970 . S
O2087 Li2027 1.956 . S
O2087 C2062 1.325 . S
H2088 C2030 0.929 . S
H2089 C2031 0.930 . S
H2090 C2032 0.930 . S
H2091 C2033 0.930 . S
H2092 C2035 0.930 . S
H2093 C2037 0.929 . S
H2094 C2038 0.930 . S
H2095 C2039 0.930 . S
H2096 C2042 0.930 . S
H2097 C2045 0.929 . S
H2098 C2050 0.929 . S
H2099 C2051 0.930 . S
H2100 C2058 0.929 . S
H2101 C2059 0.930 . S
H2102 C2060 0.930 . S
H2103 C2061 0.930 . S
H2104 C2063 0.929 . S
H2105 C2064 0.930 . S
H2106 C2065 0.930 . S
H2107 C2066 0.930 . S
H2108 C2070 0.929 . S
H2109 C2072 0.930 . S
H2110 C2078 0.929 . S
H2111 C2079 0.930 . S
Dy2112 O2115 2.307 . S
Dy2112 O2117 2.395 . S
Dy2112 O2118 2.379 . S
Dy2112 O2120 2.339 . S
Dy2112 O2122 2.298 . S
Dy2112 O2126 2.275 . S
Dy2112 C2134 2.738 . S
Dy2113 O2116 2.298 1_655 S
Dy2113 O2119 2.275 1_655 S
Dy2113 O2121 2.307 1_655 S
Dy2113 O2123 2.395 . S
Dy2113 O2124 2.379 . S
Dy2113 O2127 2.339 1_654 S
Dy2113 C2143 2.738 . S
C2114 O2126 1.254 1_556 S
C2114 O2127 1.257 . S
O2115 Dy2112 2.307 . S
O2115 C2125 1.266 . S
O2116 Dy2113 2.298 1_455 S
O2116 C2125 1.236 . S
O2117 Dy2112 2.395 . S
O2117 C2134 1.255 . S
O2118 Dy2112 2.379 . S
O2118 C2134 1.249 . S
O2119 Dy2113 2.275 1_455 S
O2119 C2135 1.254 . S
O2120 Dy2112 2.339 . S
O2120 C2135 1.257 . S
O2121 Dy2113 2.307 1_455 S
O2121 C2136 1.285 . S
O2122 Dy2112 2.298 . S
O2122 C2136 1.253 . S
O2123 Dy2113 2.395 . S
O2123 C2143 1.255 . S
O2124 Dy2113 2.379 . S
O2124 C2143 1.249 . S
C2125 O2115 1.266 . S
C2125 O2116 1.236 . S
O2126 Dy2112 2.275 . S
O2126 C2114 1.254 1_554 S
O2127 Dy2113 2.339 1_456 S
O2127 C2114 1.257 . S
C2128 C2131 1.344 . S
C2128 C2132 1.328 . S
C2128 C2134 1.516 . S
C2129 C2130 1.304 . S
C2129 C2133 1.323 . S
C2130 C2129 1.304 . S
C2130 C2131 1.371 . S
C2130 H2144 0.930 . S
C2131 C2128 1.344 . S
C2131 C2130 1.371 . S
C2131 H2145 0.931 . S
C2132 C2128 1.328 . S
C2132 C2133 1.433 . S
C2132 H2146 0.931 . S
C2133 C2129 1.323 . S
C2133 C2132 1.433 . S
C2133 H2147 0.933 . S
C2134 Dy2112 2.738 . S
C2134 O2117 1.255 . S
C2134 O2118 1.249 . S
C2134 C2128 1.516 . S
C2135 O2119 1.254 . S
C2135 O2120 1.257 . S
C2136 O2121 1.285 . S
C2136 O2122 1.253 . S
C2137 C2140 1.344 . S
C2137 C2141 1.328 1_554 S
C2137 C2143 1.516 . S
C2138 C2139 1.304 . S
C2138 C2142 1.323 1_554 S
C2139 C2138 1.304 . S
C2139 C2140 1.371 . S
C2139 H2148 0.930 . S
C2140 C2137 1.344 . S
C2140 C2139 1.371 . S
C2140 H2149 0.931 . S
C2141 C2137 1.328 1_556 S
C2141 C2142 1.433 . S
C2141 H2150 0.931 . S
C2142 C2138 1.323 1_556 S
C2142 C2141 1.433 . S
C2142 H2151 0.933 . S
C2143 Dy2113 2.738 . S
C2143 O2123 1.255 . S
C2143 O2124 1.249 . S
C2143 C2137 1.516 . S
H2144 C2130 0.930 . S
H2145 C2131 0.931 . S
H2146 C2132 0.931 . S
H2147 C2133 0.933 . S
H2148 C2139 0.930 . S
H2149 C2140 0.931 . S
H2150 C2141 0.931 . S
H2151 C2142 0.933 . S
Dy2152 O2155 2.307 . S
Dy2152 O2157 2.395 . S
Dy2152 O2158 2.379 . S
Dy2152 O2160 2.339 . S
Dy2152 O2162 2.298 . S
Dy2152 O2166 2.275 . S
Dy2152 C2174 2.738 . S
Dy2153 O2156 2.298 . S
Dy2153 O2159 2.275 . S
Dy2153 O2161 2.307 . S
Dy2153 O2163 2.395 . S
Dy2153 O2164 2.379 . S
Dy2153 O2167 2.339 . S
Dy2153 C2183 2.738 . S
C2154 O2166 1.254 . S
C2154 O2167 1.257 . S
O2155 Dy2152 2.307 . S
O2155 C2165 1.266 . S
O2156 Dy2153 2.298 . S
O2156 C2165 1.236 . S
O2157 Dy2152 2.395 . S
O2157 C2174 1.255 . S
O2158 Dy2152 2.379 . S
O2158 C2174 1.249 . S
O2159 Dy2153 2.275 . S
O2159 C2175 1.254 . S
O2160 Dy2152 2.339 . S
O2160 C2175 1.257 . S
O2161 Dy2153 2.307 . S
O2161 C2176 1.266 . S
O2162 Dy2152 2.298 . S
O2162 C2176 1.236 . S
O2163 Dy2153 2.395 . S
O2163 C2183 1.255 . S
O2164 Dy2153 2.379 . S
O2164 C2183 1.249 . S
C2165 O2155 1.266 . S
C2165 O2156 1.236 . S
O2166 Dy2152 2.275 . S
O2166 C2154 1.254 . S
O2167 Dy2153 2.339 . S
O2167 C2154 1.257 . S
C2168 C2171 1.344 . S
C2168 C2172 1.328 . S
C2168 C2174 1.516 . S
C2169 C2170 1.304 . S
C2169 C2173 1.323 . S
C2170 C2169 1.304 . S
C2170 C2171 1.371 . S
C2170 H2184 0.930 . S
C2171 C2168 1.344 . S
C2171 C2170 1.371 . S
C2171 H2185 0.931 . S
C2172 C2168 1.328 . S
C2172 C2173 1.433 . S
C2172 H2186 0.931 . S
C2173 C2169 1.323 . S
C2173 C2172 1.433 . S
C2173 H2187 0.933 . S
C2174 Dy2152 2.738 . S
C2174 O2157 1.255 . S
C2174 O2158 1.249 . S
C2174 C2168 1.516 . S
C2175 O2159 1.254 . S
C2175 O2160 1.257 . S
C2176 O2161 1.266 . S
C2176 O2162 1.236 . S
C2177 C2180 1.344 . S
C2177 C2181 1.328 . S
C2177 C2183 1.516 . S
C2178 C2179 1.304 . S
C2178 C2182 1.323 . S
C2179 C2178 1.304 . S
C2179 C2180 1.371 . S
C2179 H2188 0.930 . S
C2180 C2177 1.344 . S
C2180 C2179 1.371 . S
C2180 H2189 0.931 . S
C2181 C2177 1.328 . S
C2181 C2182 1.433 . S
C2181 H2190 0.931 . S
C2182 C2178 1.323 . S
C2182 C2181 1.433 . S
C2182 H2191 0.933 . S
C2183 Dy2153 2.738 . S
C2183 O2163 1.255 . S
C2183 O2164 1.249 . S
C2183 C2177 1.516 . S
H2184 C2170 0.930 . S
H2185 C2171 0.931 . S
H2186 C2172 0.931 . S
H2187 C2173 0.933 . S
H2188 C2179 0.930 . S
H2189 C2180 0.931 . S
H2190 C2181 0.931 . S
H2191 C2182 0.933 . S
Dy2192 O2195 2.307 . S
Dy2192 O2197 2.395 . S
Dy2192 O2198 2.379 . S
Dy2192 O2200 2.339 . S
Dy2192 O2202 2.298 . S
Dy2192 O2206 2.275 . S
Dy2192 C2214 2.738 . S
Dy2193 O2196 2.298 . S
Dy2193 O2199 2.275 . S
Dy2193 O2201 2.307 . S
Dy2193 O2203 2.395 . S
Dy2193 O2204 2.379 . S
Dy2193 O2207 2.339 . S
Dy2193 C2223 2.738 . S
C2194 O2206 1.254 . S
C2194 O2207 1.257 . S
O2195 Dy2192 2.307 . S
O2195 C2205 1.266 1_545 S
O2196 Dy2193 2.298 . S
O2196 C2205 1.236 1_545 S
O2197 Dy2192 2.395 . S
O2197 C2214 1.255 . S
O2198 Dy2192 2.379 . S
O2198 C2214 1.249 . S
O2199 Dy2193 2.275 . S
O2199 C2215 1.254 . S
O2200 Dy2192 2.339 . S
O2200 C2215 1.257 . S
O2201 Dy2193 2.307 . S
O2201 C2216 1.266 . S
O2202 Dy2192 2.298 . S
O2202 C2216 1.236 . S
O2203 Dy2193 2.395 . S
O2203 C2223 1.255 . S
O2204 Dy2193 2.379 . S
O2204 C2223 1.249 . S
C2205 O2195 1.266 1_565 S
C2205 O2196 1.236 1_565 S
O2206 Dy2192 2.275 . S
O2206 C2194 1.254 . S
O2207 Dy2193 2.339 . S
O2207 C2194 1.257 . S
C2208 C2211 1.344 . S
C2208 C2212 1.328 . S
C2208 C2214 1.516 . S
C2209 C2210 1.304 . S
C2209 C2213 1.323 . S
C2210 C2209 1.304 . S
C2210 C2211 1.371 . S
C2210 H2224 0.930 . S
C2211 C2208 1.344 . S
C2211 C2210 1.371 . S
C2211 H2225 0.931 . S
C2212 C2208 1.328 . S
C2212 C2213 1.433 . S
C2212 H2226 0.931 . S
C2213 C2209 1.323 . S
C2213 C2212 1.433 . S
C2213 H2227 0.933 . S
C2214 Dy2192 2.738 . S
C2214 O2197 1.255 . S
C2214 O2198 1.249 . S
C2214 C2208 1.516 . S
C2215 O2199 1.254 . S
C2215 O2200 1.257 . S
C2216 O2201 1.266 . S
C2216 O2202 1.236 . S
C2217 C2220 1.357 . S
C2217 C2221 1.328 . S
C2217 C2223 1.516 . S
C2218 C2219 1.304 . S
C2218 C2222 1.323 . S
C2219 C2218 1.304 . S
C2219 C2220 1.356 1_565 S
C2219 H2228 0.930 . S
C2220 C2217 1.357 . S
C2220 C2219 1.356 1_545 S
C2220 H2229 0.933 . S
C2221 C2217 1.328 . S
C2221 C2222 1.433 1_545 S
C2221 H2230 0.931 . S
C2222 C2218 1.323 . S
C2222 C2221 1.433 1_565 S
C2222 H2231 0.933 . S
C2223 Dy2193 2.738 . S
C2223 O2203 1.255 . S
C2223 O2204 1.249 . S
C2223 C2217 1.516 . S
H2224 C2210 0.930 . S
H2225 C2211 0.931 . S
H2226 C2212 0.931 . S
H2227 C2213 0.933 . S
H2228 C2219 0.930 . S
H2229 C2220 0.933 . S
H2230 C2221 0.931 . S
H2231 C2222 0.933 . S
Dy2232 O2235 2.307 . S
Dy2232 O2237 2.395 . S
Dy2232 O2238 2.379 . S
Dy2232 O2240 2.339 . S
Dy2232 O2242 2.298 . S
Dy2232 O2246 2.275 . S
Dy2232 C2254 2.738 . S
Dy2233 O2236 2.298 . S
Dy2233 O2239 2.275 . S
Dy2233 O2241 2.307 . S
Dy2233 O2243 2.395 . S
Dy2233 O2244 2.379 . S
Dy2233 O2247 2.339 . S
Dy2233 C2263 2.738 . S
C2234 O2246 1.254 . S
C2234 O2247 1.257 . S
O2235 Dy2232 2.307 . S
O2235 C2245 1.266 . S
O2236 Dy2233 2.298 . S
O2236 C2245 1.236 . S
O2237 Dy2232 2.395 . S
O2237 C2254 1.255 . S
O2238 Dy2232 2.379 . S
O2238 C2254 1.249 . S
O2239 Dy2233 2.275 . S
O2239 C2255 1.254 . S
O2240 Dy2232 2.339 . S
O2240 C2255 1.257 . S
O2241 Dy2233 2.307 . S
O2241 C2256 1.266 . S
O2242 Dy2232 2.298 . S
O2242 C2256 1.236 . S
O2243 Dy2233 2.395 . S
O2243 C2263 1.255 . S
O2244 Dy2233 2.379 . S
O2244 C2263 1.249 . S
C2245 O2235 1.266 . S
C2245 O2236 1.236 . S
O2246 Dy2232 2.275 . S
O2246 C2234 1.254 . S
O2247 Dy2233 2.339 . S
O2247 C2234 1.257 . S
C2248 C2251 1.344 . S
C2248 C2252 1.328 . S
C2248 C2254 1.516 . S
C2249 C2250 1.304 . S
C2249 C2253 1.323 . S
C2250 C2249 1.304 . S
C2250 C2251 1.371 . S
C2250 H2264 0.930 . S
C2251 C2248 1.344 . S
C2251 C2250 1.371 . S
C2251 H2265 0.931 . S
C2252 C2248 1.328 . S
C2252 C2253 1.433 . S
C2252 H2266 0.931 . S
C2253 C2249 1.323 . S
C2253 C2252 1.433 . S
C2253 H2267 0.933 . S
C2254 Dy2232 2.738 . S
C2254 O2237 1.255 . S
C2254 O2238 1.249 . S
C2254 C2248 1.516 . S
C2255 O2239 1.254 . S
C2255 O2240 1.257 . S
C2256 O2241 1.266 . S
C2256 O2242 1.236 . S
C2257 C2260 1.344 . S
C2257 C2261 1.328 . S
C2257 C2263 1.516 . S
C2258 C2259 1.304 . S
C2258 C2262 1.323 . S
C2259 C2258 1.304 . S
C2259 C2260 1.371 . S
C2259 H2268 0.930 . S
C2260 C2257 1.344 . S
C2260 C2259 1.371 . S
C2260 H2269 0.931 . S
C2261 C2257 1.328 . S
C2261 C2262 1.433 . S
C2261 H2270 0.931 . S
C2262 C2258 1.323 . S
C2262 C2261 1.433 . S
C2262 H2271 0.933 . S
C2263 Dy2233 2.738 . S
C2263 O2243 1.255 . S
C2263 O2244 1.249 . S
C2263 C2257 1.516 . S
H2264 C2250 0.930 . S
H2265 C2251 0.931 . S
H2266 C2252 0.931 . S
H2267 C2253 0.933 . S
H2268 C2259 0.930 . S
H2269 C2260 0.931 . S
H2270 C2261 0.931 . S
H2271 C2262 0.933 . S
Dy2272 O2275 2.307 . S
Dy2272 O2277 2.395 1_545 S
Dy2272 O2278 2.379 1_545 S
Dy2272 O2280 2.339 . S
Dy2272 O2282 2.298 . S
Dy2272 O2286 2.275 . S
Dy2272 C2294 2.738 1_545 S
Dy2273 O2276 2.298 . S
Dy2273 O2279 2.275 . S
Dy2273 O2281 2.307 . S
Dy2273 O2283 2.395 . S
Dy2273 O2284 2.379 1_455 S
Dy2273 O2287 2.339 1_455 S
Dy2273 C2303 2.738 . S
C2274 O2286 1.254 1_655 S
C2274 O2287 1.257 . S
O2275 Dy2272 2.307 . S
O2275 C2285 1.266 . S
O2276 Dy2273 2.298 . S
O2276 C2285 1.236 . S
O2277 Dy2272 2.395 1_565 S
O2277 C2294 1.255 . S
O2278 Dy2272 2.379 1_565 S
O2278 C2294 1.249 . S
O2279 Dy2273 2.275 . S
O2279 C2295 1.254 . S
O2280 Dy2272 2.339 . S
O2280 C2295 1.257 . S
O2281 Dy2273 2.307 . S
O2281 C2296 1.266 . S
O2282 Dy2272 2.298 . S
O2282 C2296 1.236 . S
O2283 Dy2273 2.395 . S
O2283 C2303 1.255 . S
O2284 Dy2273 2.379 1_655 S
O2284 C2303 1.249 1_655 S
C2285 O2275 1.266 . S
C2285 O2276 1.236 . S
O2286 Dy2272 2.275 . S
O2286 C2274 1.254 1_455 S
O2287 Dy2273 2.339 1_655 S
O2287 C2274 1.257 . S
C2288 C2291 1.344 . S
C2288 C2292 1.328 . S
C2288 C2294 1.516 . S
C2289 C2290 1.304 . S
C2289 C2293 1.323 . S
C2290 C2289 1.304 . S
C2290 C2291 1.371 . S
C2290 H2304 0.930 . S
C2291 C2288 1.344 . S
C2291 C2290 1.371 . S
C2291 H2305 0.931 . S
C2292 C2288 1.328 . S
C2292 C2293 1.433 . S
C2292 H2306 0.931 . S
C2293 C2289 1.323 . S
C2293 C2292 1.433 . S
C2293 H2307 0.933 . S
C2294 Dy2272 2.738 1_565 S
C2294 O2277 1.255 . S
C2294 O2278 1.249 . S
C2294 C2288 1.516 . S
C2295 O2279 1.254 . S
C2295 O2280 1.257 . S
C2296 O2281 1.266 . S
C2296 O2282 1.236 . S
C2297 C2300 1.344 . S
C2297 C2301 1.328 1_455 S
C2297 C2303 1.516 . S
C2298 C2299 1.304 . S
C2298 C2302 1.323 1_455 S
C2299 C2298 1.304 . S
C2299 C2300 1.371 . S
C2299 H2308 0.930 . S
C2300 C2297 1.344 . S
C2300 C2299 1.371 . S
C2300 H2309 0.931 . S
C2301 C2297 1.328 1_655 S
C2301 C2302 1.433 . S
C2301 H2310 0.931 . S
C2302 C2298 1.323 1_655 S
C2302 C2301 1.433 . S
C2302 H2311 0.933 . S
C2303 Dy2273 2.738 . S
C2303 O2283 1.255 . S
C2303 O2284 1.249 1_455 S
C2303 C2297 1.516 . S
H2304 C2290 0.930 . S
H2305 C2291 0.931 . S
H2306 C2292 0.931 . S
H2307 C2293 0.933 . S
H2308 C2299 0.930 . S
H2309 C2300 0.931 . S
H2310 C2301 0.931 . S
H2311 C2302 0.933 . S
Dy2312 O2315 2.307 . S
Dy2312 O2317 2.395 . S
Dy2312 O2318 2.379 . S
Dy2312 O2320 2.339 . S
Dy2312 O2322 2.298 . S
Dy2312 O2326 2.275 . S
Dy2312 C2334 2.738 . S
Dy2313 O2316 2.298 . S
Dy2313 O2319 2.275 . S
Dy2313 O2321 2.307 . S
Dy2313 O2323 2.395 . S
Dy2313 O2324 2.379 . S
Dy2313 O2327 2.339 . S
Dy2313 C2343 2.738 . S
C2314 O2326 1.254 . S
C2314 O2327 1.257 . S
O2315 Dy2312 2.307 . S
O2315 C2325 1.266 . S
O2316 Dy2313 2.298 . S
O2316 C2325 1.236 . S
O2317 Dy2312 2.395 . S
O2317 C2334 1.255 . S
O2318 Dy2312 2.379 . S
O2318 C2334 1.249 . S
O2319 Dy2313 2.275 . S
O2319 C2335 1.254 . S
O2320 Dy2312 2.339 . S
O2320 C2335 1.257 . S
O2321 Dy2313 2.307 . S
O2321 C2336 1.266 . S
O2322 Dy2312 2.298 . S
O2322 C2336 1.236 . S
O2323 Dy2313 2.395 . S
O2323 C2343 1.255 . S
O2324 Dy2313 2.379 . S
O2324 C2343 1.249 . S
C2325 O2315 1.266 . S
C2325 O2316 1.236 . S
O2326 Dy2312 2.275 . S
O2326 C2314 1.254 . S
O2327 Dy2313 2.339 . S
O2327 C2314 1.257 . S
C2328 C2331 1.344 . S
C2328 C2332 1.328 . S
C2328 C2334 1.516 . S
C2329 C2330 1.304 . S
C2329 C2333 1.323 . S
C2330 C2329 1.304 . S
C2330 C2331 1.371 . S
C2330 H2344 0.930 . S
C2331 C2328 1.344 . S
C2331 C2330 1.371 . S
C2331 H2345 0.931 . S
C2332 C2328 1.328 . S
C2332 C2333 1.433 . S
C2332 H2346 0.931 . S
C2333 C2329 1.323 . S
C2333 C2332 1.433 . S
C2333 H2347 0.933 . S
C2334 Dy2312 2.738 . S
C2334 O2317 1.255 . S
C2334 O2318 1.249 . S
C2334 C2328 1.516 . S
C2335 O2319 1.254 . S
C2335 O2320 1.257 . S
C2336 O2321 1.266 . S
C2336 O2322 1.236 . S
C2337 C2340 1.344 . S
C2337 C2341 1.328 . S
C2337 C2343 1.516 . S
C2338 C2339 1.304 . S
C2338 C2342 1.323 . S
C2339 C2338 1.304 . S
C2339 C2340 1.371 . S
C2339 H2348 0.930 . S
C2340 C2337 1.344 . S
C2340 C2339 1.371 . S
C2340 H2349 0.931 . S
C2341 C2337 1.328 . S
C2341 C2342 1.433 . S
C2341 H2350 0.931 . S
C2342 C2338 1.323 . S
C2342 C2341 1.433 . S
C2342 H2351 0.933 . S
C2343 Dy2313 2.738 . S
C2343 O2323 1.255 . S
C2343 O2324 1.249 . S
C2343 C2337 1.516 . S
H2344 C2330 0.930 . S
H2345 C2331 0.931 . S
H2346 C2332 0.931 . S
H2347 C2333 0.933 . S
H2348 C2339 0.930 . S
H2349 C2340 0.931 . S
H2350 C2341 0.931 . S
H2351 C2342 0.933 . S
Dy2352 O2355 2.307 . S
Dy2352 O2357 2.395 1_554 S
Dy2352 O2358 2.379 1_554 S
Dy2352 O2360 2.339 . S
Dy2352 O2362 2.298 . S
Dy2352 O2366 2.275 . S
Dy2352 C2374 2.738 1_554 S
Dy2353 O2356 2.298 . S
Dy2353 O2359 2.275 . S
Dy2353 O2361 2.307 . S
Dy2353 O2363 2.395 . S
Dy2353 O2364 2.386 . S
Dy2353 O2367 2.339 1_545 S
Dy2353 C2383 2.738 . S
C2354 O2366 1.254 . S
C2354 O2367 1.257 1_545 S
O2355 Dy2352 2.307 . S
O2355 C2365 1.266 . S
O2356 Dy2353 2.298 . S
O2356 C2365 1.236 . S
O2357 Dy2352 2.395 1_556 S
O2357 C2374 1.255 . S
O2358 Dy2352 2.379 1_556 S
O2358 C2374 1.249 . S
O2359 Dy2353 2.275 . S
O2359 C2375 1.254 . S
O2360 Dy2352 2.339 . S
O2360 C2375 1.257 . S
O2361 Dy2353 2.307 . S
O2361 C2376 1.266 . S
O2362 Dy2352 2.298 . S
O2362 C2376 1.236 . S
O2363 Dy2353 2.395 . S
O2363 C2383 1.255 . S
O2364 Dy2353 2.386 . S
O2364 C2383 1.257 . S
C2365 O2355 1.266 . S
C2365 O2356 1.236 . S
O2366 Dy2352 2.275 . S
O2366 C2354 1.254 . S
O2367 Dy2353 2.339 1_565 S
O2367 C2354 1.257 1_565 S
C2368 C2371 1.344 . S
C2368 C2372 1.328 . S
C2368 C2374 1.516 . S
C2369 C2370 1.304 . S
C2369 C2373 1.323 . S
C2370 C2369 1.304 . S
C2370 C2371 1.371 . S
C2370 H2384 0.930 . S
C2371 C2368 1.344 . S
C2371 C2370 1.371 . S
C2371 H2385 0.931 . S
C2372 C2368 1.328 . S
C2372 C2373 1.433 . S
C2372 H2386 0.931 . S
C2373 C2369 1.323 . S
C2373 C2372 1.433 . S
C2373 H2387 0.933 . S
C2374 Dy2352 2.738 1_556 S
C2374 O2357 1.255 . S
C2374 O2358 1.249 . S
C2374 C2368 1.516 . S
C2375 O2359 1.254 . S
C2375 O2360 1.257 . S
C2376 O2361 1.266 . S
C2376 O2362 1.236 . S
C2377 C2380 1.344 . S
C2377 C2381 1.328 1_545 S
C2377 C2383 1.516 . S
C2378 C2379 1.304 1_565 S
C2378 C2382 1.323 . S
C2379 C2378 1.304 1_545 S
C2379 C2380 1.371 . S
C2379 H2388 0.930 . S
C2380 C2377 1.344 . S
C2380 C2379 1.371 . S
C2380 H2389 0.931 . S
C2381 C2377 1.328 1_565 S
C2381 C2382 1.433 . S
C2381 H2390 0.931 . S
C2382 C2378 1.323 . S
C2382 C2381 1.433 . S
C2382 H2391 0.933 . S
C2383 Dy2353 2.738 . S
C2383 O2363 1.255 . S
C2383 O2364 1.257 . S
C2383 C2377 1.516 . S
H2384 C2370 0.930 . S
H2385 C2371 0.931 . S
H2386 C2372 0.931 . S
H2387 C2373 0.933 . S
H2388 C2379 0.930 . S
H2389 C2380 0.931 . S
H2390 C2381 0.931 . S
H2391 C2382 0.933 . S
Dy2392 O2395 2.307 . S
Dy2392 O2397 2.395 . S
Dy2392 O2398 2.379 . S
Dy2392 O2400 2.339 . S
Dy2392 O2402 2.298 . S
Dy2392 O2406 2.275 . S
Dy2392 C2414 2.738 . S
Dy2393 O2396 2.298 . S
Dy2393 O2399 2.275 . S
Dy2393 O2401 2.307 . S
Dy2393 O2403 2.395 . S
Dy2393 O2404 2.379 . S
Dy2393 O2407 2.339 . S
Dy2393 C2423 2.738 . S
C2394 O2406 1.254 . S
C2394 O2407 1.257 . S
O2395 Dy2392 2.307 . S
O2395 C2405 1.266 . S
O2396 Dy2393 2.298 . S
O2396 C2405 1.236 . S
O2397 Dy2392 2.395 . S
O2397 C2414 1.255 . S
O2398 Dy2392 2.379 . S
O2398 C2414 1.249 . S
O2399 Dy2393 2.275 . S
O2399 C2415 1.254 . S
O2400 Dy2392 2.339 . S
O2400 C2415 1.257 . S
O2401 Dy2393 2.307 . S
O2401 C2416 1.266 . S
O2402 Dy2392 2.298 . S
O2402 C2416 1.236 . S
O2403 Dy2393 2.395 . S
O2403 C2423 1.255 . S
O2404 Dy2393 2.379 . S
O2404 C2423 1.249 . S
C2405 O2395 1.266 . S
C2405 O2396 1.236 . S
O2406 Dy2392 2.275 . S
O2406 C2394 1.254 . S
O2407 Dy2393 2.339 . S
O2407 C2394 1.257 . S
C2408 C2411 1.344 . S
C2408 C2412 1.328 . S
C2408 C2414 1.516 . S
C2409 C2410 1.304 . S
C2409 C2413 1.323 . S
C2410 C2409 1.304 . S
C2410 C2411 1.371 . S
C2410 H2424 0.930 . S
C2411 C2408 1.344 . S
C2411 C2410 1.371 . S
C2411 H2425 0.931 . S
C2412 C2408 1.328 . S
C2412 C2413 1.433 . S
C2412 H2426 0.931 . S
C2413 C2409 1.323 . S
C2413 C2412 1.433 . S
C2413 H2427 0.933 . S
C2414 Dy2392 2.738 . S
C2414 O2397 1.255 . S
C2414 O2398 1.249 . S
C2414 C2408 1.516 . S
C2415 O2399 1.254 . S
C2415 O2400 1.257 . S
C2416 O2401 1.266 . S
C2416 O2402 1.236 . S
C2417 C2420 1.344 . S
C2417 C2421 1.328 . S
C2417 C2423 1.516 . S
C2418 C2419 1.304 . S
C2418 C2422 1.323 . S
C2419 C2418 1.304 . S
C2419 C2420 1.371 . S
C2419 H2428 0.930 . S
C2420 C2417 1.344 . S
C2420 C2419 1.371 . S
C2420 H2429 0.931 . S
C2421 C2417 1.328 . S
C2421 C2422 1.433 . S
C2421 H2430 0.931 . S
C2422 C2418 1.323 . S
C2422 C2421 1.433 . S
C2422 H2431 0.933 . S
C2423 Dy2393 2.738 . S
C2423 O2403 1.255 . S
C2423 O2404 1.249 . S
C2423 C2417 1.516 . S
H2424 C2410 0.930 . S
H2425 C2411 0.931 . S
H2426 C2412 0.931 . S
H2427 C2413 0.933 . S
H2428 C2419 0.930 . S
H2429 C2420 0.931 . S
H2430 C2421 0.931 . S
H2431 C2422 0.933 . S
Dy2432 O2435 2.307 1_554 S
Dy2432 O2437 2.395 . S
Dy2432 O2438 2.379 . S
Dy2432 O2440 2.339 . S
Dy2432 O2442 2.298 . S
Dy2432 O2446 2.275 . S
Dy2432 C2454 2.738 . S
Dy2433 O2436 2.298 1_554 S
Dy2433 O2439 2.275 . S
Dy2433 O2441 2.307 . S
Dy2433 O2443 2.395 . S
Dy2433 O2444 2.379 . S
Dy2433 O2447 2.339 . S
Dy2433 C2463 2.738 . S
C2434 O2446 1.254 . S
C2434 O2447 1.257 . S
O2435 Dy2432 2.307 1_556 S
O2435 C2445 1.266 . S
O2436 Dy2433 2.298 1_556 S
O2436 C2445 1.236 . S
O2437 Dy2432 2.395 . S
O2437 C2454 1.255 . S
O2438 Dy2432 2.379 . S
O2438 C2454 1.249 . S
O2439 Dy2433 2.275 . S
O2439 C2455 1.254 . S
O2440 Dy2432 2.339 . S
O2440 C2455 1.257 . S
O2441 Dy2433 2.307 . S
O2441 C2456 1.266 . S
O2442 Dy2432 2.298 . S
O2442 C2456 1.236 . S
O2443 Dy2433 2.395 . S
O2443 C2463 1.255 . S
O2444 Dy2433 2.379 . S
O2444 C2463 1.249 . S
C2445 O2435 1.266 . S
C2445 O2436 1.236 . S
O2446 Dy2432 2.275 . S
O2446 C2434 1.254 . S
O2447 Dy2433 2.339 . S
O2447 C2434 1.257 . S
C2448 C2451 1.344 . S
C2448 C2452 1.328 . S
C2448 C2454 1.516 . S
C2449 C2450 1.304 . S
C2449 C2453 1.323 . S
C2450 C2449 1.304 . S
C2450 C2451 1.371 . S
C2450 H2464 0.930 . S
C2451 C2448 1.344 . S
C2451 C2450 1.371 . S
C2451 H2465 0.931 . S
C2452 C2448 1.328 . S
C2452 C2453 1.433 . S
C2452 H2466 0.931 . S
C2453 C2449 1.323 . S
C2453 C2452 1.433 . S
C2453 H2467 0.933 . S
C2454 Dy2432 2.738 . S
C2454 O2437 1.255 . S
C2454 O2438 1.249 . S
C2454 C2448 1.516 . S
C2455 O2439 1.254 . S
C2455 O2440 1.257 . S
C2456 O2441 1.266 . S
C2456 O2442 1.236 . S
C2457 C2460 1.344 . S
C2457 C2461 1.328 . S
C2457 C2463 1.516 1_556 S
C2458 C2459 1.304 . S
C2458 C2462 1.323 . S
C2459 C2458 1.304 . S
C2459 C2460 1.371 . S
C2459 H2468 0.930 . S
C2460 C2457 1.344 . S
C2460 C2459 1.371 . S
C2460 H2469 0.931 . S
C2461 C2457 1.328 . S
C2461 C2462 1.433 . S
C2461 H2470 0.931 1_556 S
C2462 C2458 1.323 . S
C2462 C2461 1.433 . S
C2462 H2471 0.933 . S
C2463 Dy2433 2.738 . S
C2463 O2443 1.255 . S
C2463 O2444 1.249 . S
C2463 C2457 1.516 1_554 S
H2464 C2450 0.930 . S
H2465 C2451 0.931 . S
H2466 C2452 0.931 . S
H2467 C2453 0.933 . S
H2468 C2459 0.930 . S
H2469 C2460 0.931 . S
H2470 C2461 0.931 1_554 S
H2471 C2462 0.933 . S
Dy2472 O2475 2.307 . S
Dy2472 O2477 2.395 . S
Dy2472 O2478 2.379 . S
Dy2472 O2480 2.339 . S
Dy2472 O2482 2.298 . S
Dy2472 O2486 2.275 . S
Dy2472 C2494 2.738 . S
Dy2473 O2476 2.298 . S
Dy2473 O2479 2.275 . S
Dy2473 O2481 2.307 . S
Dy2473 O2483 2.395 . S
Dy2473 O2484 2.379 . S
Dy2473 O2487 2.339 . S
Dy2473 C2503 2.738 . S
C2474 O2486 1.254 . S
C2474 O2487 1.257 . S
O2475 Dy2472 2.307 . S
O2475 C2485 1.266 . S
O2476 Dy2473 2.298 . S
O2476 C2485 1.236 . S
O2477 Dy2472 2.395 . S
O2477 C2494 1.255 . S
O2478 Dy2472 2.379 . S
O2478 C2494 1.249 . S
O2479 Dy2473 2.275 . S
O2479 C2495 1.254 . S
O2480 Dy2472 2.339 . S
O2480 C2495 1.257 . S
O2481 Dy2473 2.307 . S
O2481 C2496 1.266 . S
O2482 Dy2472 2.298 . S
O2482 C2496 1.236 . S
O2483 Dy2473 2.395 . S
O2483 C2503 1.255 . S
O2484 Dy2473 2.379 . S
O2484 C2503 1.249 . S
C2485 O2475 1.266 . S
C2485 O2476 1.236 . S
O2486 Dy2472 2.275 . S
O2486 C2474 1.254 . S
O2487 Dy2473 2.339 . S
O2487 C2474 1.257 . S
C2488 C2491 1.344 . S
C2488 C2492 1.328 . S
C2488 C2494 1.516 . S
C2489 C2490 1.304 . S
C2489 C2493 1.323 . S
C2490 C2489 1.304 . S
C2490 C2491 1.371 . S
C2490 H2504 0.930 . S
C2491 C2488 1.344 . S
C2491 C2490 1.371 . S
C2491 H2505 0.931 . S
C2492 C2488 1.328 . S
C2492 C2493 1.433 . S
C2492 H2506 0.931 . S
C2493 C2489 1.323 . S
C2493 C2492 1.433 . S
C2493 H2507 0.933 . S
C2494 Dy2472 2.738 . S
C2494 O2477 1.255 . S
C2494 O2478 1.249 . S
C2494 C2488 1.516 . S
C2495 O2479 1.254 . S
C2495 O2480 1.257 . S
C2496 O2481 1.266 . S
C2496 O2482 1.236 . S
C2497 C2500 1.344 . S
C2497 C2501 1.328 . S
C2497 C2503 1.516 . S
C2498 C2499 1.304 . S
C2498 C2502 1.323 . S
C2499 C2498 1.304 . S
C2499 C2500 1.371 . S
C2499 H2508 0.930 . S
C2500 C2497 1.344 . S
C2500 C2499 1.371 . S
C2500 H2509 0.931 . S
C2501 C2497 1.328 . S
C2501 C2502 1.433 . S
C2501 H2510 0.931 . S
C2502 C2498 1.323 . S
C2502 C2501 1.433 . S
C2502 H2511 0.933 . S
C2503 Dy2473 2.738 . S
C2503 O2483 1.255 . S
C2503 O2484 1.249 . S
C2503 C2497 1.516 . S
H2504 C2490 0.930 . S
H2505 C2491 0.931 . S
H2506 C2492 0.931 . S
H2507 C2493 0.933 . S
H2508 C2499 0.930 . S
H2509 C2500 0.931 . S
H2510 C2501 0.931 . S
H2511 C2502 0.933 . S
Dy2512 O2515 2.307 1_455 S
Dy2512 O2517 2.395 . S
Dy2512 O2518 2.379 . S
Dy2512 O2520 2.339 . S
Dy2512 O2522 2.298 . S
Dy2512 O2526 2.275 . S
Dy2512 C2534 2.738 . S
Dy2513 O2516 2.298 1_455 S
Dy2513 O2519 2.275 . S
Dy2513 O2521 2.307 . S
Dy2513 O2523 2.395 . S
Dy2513 O2524 2.379 . S
Dy2513 O2527 2.339 . S
Dy2513 C2543 2.738 . S
C2514 O2526 1.254 . S
C2514 O2527 1.257 . S
O2515 Dy2512 2.307 1_655 S
O2515 C2525 1.266 . S
O2516 Dy2513 2.298 1_655 S
O2516 C2525 1.236 . S
O2517 Dy2512 2.395 . S
O2517 C2534 1.255 . S
O2518 Dy2512 2.379 . S
O2518 C2534 1.249 . S
O2519 Dy2513 2.275 . S
O2519 C2535 1.254 . S
O2520 Dy2512 2.339 . S
O2520 C2535 1.257 . S
O2521 Dy2513 2.307 . S
O2521 C2536 1.266 . S
O2522 Dy2512 2.298 . S
O2522 C2536 1.236 . S
O2523 Dy2513 2.395 . S
O2523 C2543 1.255 . S
O2524 Dy2513 2.379 . S
O2524 C2543 1.249 . S
C2525 O2515 1.266 . S
C2525 O2516 1.236 . S
O2526 Dy2512 2.275 . S
O2526 C2514 1.254 . S
O2527 Dy2513 2.339 . S
O2527 C2514 1.257 . S
C2528 C2531 1.344 . S
C2528 C2532 1.328 . S
C2528 C2534 1.516 . S
C2529 C2530 1.304 . S
C2529 C2533 1.323 . S
C2530 C2529 1.304 . S
C2530 C2531 1.371 . S
C2530 H2544 0.930 . S
C2531 C2528 1.344 . S
C2531 C2530 1.371 . S
C2531 H2545 0.931 . S
C2532 C2528 1.328 . S
C2532 C2533 1.433 . S
C2532 H2546 0.931 . S
C2533 C2529 1.323 . S
C2533 C2532 1.433 . S
C2533 H2547 0.933 . S
C2534 Dy2512 2.738 . S
C2534 O2517 1.255 . S
C2534 O2518 1.249 . S
C2534 C2528 1.516 . S
C2535 O2519 1.254 . S
C2535 O2520 1.257 . S
C2536 O2521 1.266 . S
C2536 O2522 1.236 . S
C2537 C2540 1.344 . S
C2537 C2541 1.328 . S
C2537 C2543 1.516 1_655 S
C2538 C2539 1.304 . S
C2538 C2542 1.323 . S
C2539 C2538 1.304 . S
C2539 C2540 1.371 . S
C2539 H2548 0.930 . S
C2540 C2537 1.344 . S
C2540 C2539 1.371 . S
C2540 H2549 0.931 . S
C2541 C2537 1.328 . S
C2541 C2542 1.433 . S
C2541 H2550 0.931 . S
C2542 C2538 1.323 . S
C2542 C2541 1.433 . S
C2542 H2551 0.933 . S
C2543 Dy2513 2.738 . S
C2543 O2523 1.255 . S
C2543 O2524 1.249 . S
C2543 C2537 1.516 1_455 S
H2544 C2530 0.930 . S
H2545 C2531 0.931 . S
H2546 C2532 0.931 . S
H2547 C2533 0.933 . S
H2548 C2539 0.930 . S
H2549 C2540 0.931 . S
H2550 C2541 0.931 . S
H2551 C2542 0.933 . S
Dy2552 O2555 2.307 . S
Dy2552 O2557 2.395 . S
Dy2552 O2558 2.379 . S
Dy2552 O2560 2.339 . S
Dy2552 O2562 2.298 . S
Dy2552 O2566 2.275 . S
Dy2552 C2574 2.738 . S
Dy2553 O2556 2.298 . S
Dy2553 O2559 2.275 . S
Dy2553 O2561 2.307 . S
Dy2553 O2563 2.395 . S
Dy2553 O2564 2.379 . S
Dy2553 O2567 2.339 . S
Dy2553 C2583 2.738 . S
C2554 O2566 1.254 . S
C2554 O2567 1.257 . S
O2555 Dy2552 2.307 . S
O2555 C2565 1.266 . S
O2556 Dy2553 2.298 . S
O2556 C2565 1.236 . S
O2557 Dy2552 2.395 . S
O2557 C2574 1.255 . S
O2558 Dy2552 2.379 . S
O2558 C2574 1.249 . S
O2559 Dy2553 2.275 . S
O2559 C2575 1.254 . S
O2560 Dy2552 2.339 . S
O2560 C2575 1.257 . S
O2561 Dy2553 2.307 . S
O2561 C2576 1.266 . S
O2562 Dy2552 2.298 . S
O2562 C2576 1.236 . S
O2563 Dy2553 2.395 . S
O2563 C2583 1.255 . S
O2564 Dy2553 2.379 . S
O2564 C2583 1.249 . S
C2565 O2555 1.266 . S
C2565 O2556 1.236 . S
O2566 Dy2552 2.275 . S
O2566 C2554 1.254 . S
O2567 Dy2553 2.339 . S
O2567 C2554 1.257 . S
C2568 C2571 1.344 . S
C2568 C2572 1.328 . S
C2568 C2574 1.516 . S
C2569 C2570 1.304 . S
C2569 C2573 1.323 . S
C2570 C2569 1.304 . S
C2570 C2571 1.371 . S
C2570 H2584 0.930 . S
C2571 C2568 1.344 . S
C2571 C2570 1.371 . S
C2571 H2585 0.931 . S
C2572 C2568 1.328 . S
C2572 C2573 1.433 . S
C2572 H2586 0.931 . S
C2573 C2569 1.323 . S
C2573 C2572 1.433 . S
C2573 H2587 0.933 . S
C2574 Dy2552 2.738 . S
C2574 O2557 1.255 . S
C2574 O2558 1.249 . S
C2574 C2568 1.516 . S
C2575 O2559 1.254 . S
C2575 O2560 1.257 . S
C2576 O2561 1.266 . S
C2576 O2562 1.236 . S
C2577 C2580 1.344 . S
C2577 C2581 1.328 . S
C2577 C2583 1.516 . S
C2578 C2579 1.304 . S
C2578 C2582 1.323 . S
C2579 C2578 1.304 . S
C2579 C2580 1.371 . S
C2579 H2588 0.930 . S
C2580 C2577 1.344 . S
C2580 C2579 1.371 . S
C2580 H2589 0.931 . S
C2581 C2577 1.328 . S
C2581 C2582 1.433 . S
C2581 H2590 0.931 . S
C2582 C2578 1.323 . S
C2582 C2581 1.433 . S
C2582 H2591 0.933 . S
C2583 Dy2553 2.738 . S
C2583 O2563 1.255 . S
C2583 O2564 1.249 . S
C2583 C2577 1.516 . S
H2584 C2570 0.930 . S
H2585 C2571 0.931 . S
H2586 C2572 0.931 . S
H2587 C2573 0.933 . S
H2588 C2579 0.930 . S
H2589 C2580 0.931 . S
H2590 C2581 0.931 . S
H2591 C2582 0.933 . S
Dy2592 O2595 2.307 . S
Dy2592 O2597 2.395 . S
Dy2592 O2598 2.379 . S
Dy2592 O2600 2.339 . S
Dy2592 O2602 2.298 . S
Dy2592 O2606 2.275 . S
Dy2592 C2614 2.738 . S
Dy2593 O2596 2.298 . S
Dy2593 O2599 2.275 . S
Dy2593 O2601 2.307 . S
Dy2593 O2603 2.395 . S
Dy2593 O2604 2.379 . S
Dy2593 O2607 2.339 . S
Dy2593 C2623 2.738 . S
C2594 O2606 1.254 . S
C2594 O2607 1.257 . S
O2595 Dy2592 2.307 . S
O2595 C2605 1.266 . S
O2596 Dy2593 2.298 . S
O2596 C2605 1.236 . S
O2597 Dy2592 2.395 . S
O2597 C2614 1.255 . S
O2598 Dy2592 2.379 . S
O2598 C2614 1.249 . S
O2599 Dy2593 2.275 . S
O2599 C2615 1.254 . S
O2600 Dy2592 2.339 . S
O2600 C2615 1.257 . S
O2601 Dy2593 2.307 . S
O2601 C2616 1.266 . S
O2602 Dy2592 2.298 . S
O2602 C2616 1.236 . S
O2603 Dy2593 2.395 . S
O2603 C2623 1.255 . S
O2604 Dy2593 2.379 . S
O2604 C2623 1.249 . S
C2605 O2595 1.266 . S
C2605 O2596 1.236 . S
O2606 Dy2592 2.275 . S
O2606 C2594 1.254 . S
O2607 Dy2593 2.339 . S
O2607 C2594 1.257 . S
C2608 C2611 1.344 . S
C2608 C2612 1.328 . S
C2608 C2614 1.516 . S
C2609 C2610 1.304 . S
C2609 C2613 1.323 . S
C2610 C2609 1.304 . S
C2610 C2611 1.371 . S
C2610 H2624 0.930 . S
C2611 C2608 1.344 . S
C2611 C2610 1.371 . S
C2611 H2625 0.931 . S
C2612 C2608 1.328 . S
C2612 C2613 1.433 . S
C2612 H2626 0.931 . S
C2613 C2609 1.323 . S
C2613 C2612 1.433 . S
C2613 H2627 0.933 . S
C2614 Dy2592 2.738 . S
C2614 O2597 1.255 . S
C2614 O2598 1.249 . S
C2614 C2608 1.516 . S
C2615 O2599 1.254 . S
C2615 O2600 1.257 . S
C2616 O2601 1.266 . S
C2616 O2602 1.236 . S
C2617 C2620 1.344 . S
C2617 C2621 1.328 . S
C2617 C2623 1.516 . S
C2618 C2619 1.304 . S
C2618 C2622 1.323 . S
C2619 C2618 1.304 . S
C2619 C2620 1.371 . S
C2619 H2628 0.930 . S
C2620 C2617 1.344 . S
C2620 C2619 1.371 . S
C2620 H2629 0.931 . S
C2621 C2617 1.328 . S
C2621 C2622 1.433 . S
C2621 H2630 0.931 . S
C2622 C2618 1.323 . S
C2622 C2621 1.433 . S
C2622 H2631 0.933 1_556 S
C2623 Dy2593 2.738 . S
C2623 O2603 1.255 . S
C2623 O2604 1.249 . S
C2623 C2617 1.516 . S
H2624 C2610 0.930 . S
H2625 C2611 0.931 . S
H2626 C2612 0.931 . S
H2627 C2613 0.933 . S
H2628 C2619 0.930 . S
H2629 C2620 0.931 . S
H2630 C2621 0.931 . S
H2631 C2622 0.933 1_554 S
Dy2632 O2635 2.307 . S
Dy2632 O2637 2.395 . S
Dy2632 O2638 2.379 . S
Dy2632 O2640 2.339 . S
Dy2632 O2642 2.298 . S
Dy2632 O2646 2.275 . S
Dy2632 C2654 2.738 . S
Dy2633 O2636 2.298 . S
Dy2633 O2639 2.275 . S
Dy2633 O2641 2.307 . S
Dy2633 O2643 2.395 . S
Dy2633 O2644 2.379 . S
Dy2633 O2647 2.339 . S
Dy2633 C2663 2.738 . S
C2634 O2646 1.254 . S
C2634 O2647 1.257 . S
O2635 Dy2632 2.307 . S
O2635 C2645 1.266 . S
O2636 Dy2633 2.298 . S
O2636 C2645 1.236 . S
O2637 Dy2632 2.395 . S
O2637 C2654 1.255 . S
O2638 Dy2632 2.379 . S
O2638 C2654 1.249 . S
O2639 Dy2633 2.275 . S
O2639 C2655 1.254 . S
O2640 Dy2632 2.339 . S
O2640 C2655 1.257 . S
O2641 Dy2633 2.307 . S
O2641 C2656 1.266 . S
O2642 Dy2632 2.298 . S
O2642 C2656 1.236 . S
O2643 Dy2633 2.395 . S
O2643 C2663 1.255 . S
O2644 Dy2633 2.379 . S
O2644 C2663 1.249 . S
C2645 O2635 1.266 . S
C2645 O2636 1.236 . S
O2646 Dy2632 2.275 . S
O2646 C2634 1.254 . S
O2647 Dy2633 2.339 . S
O2647 C2634 1.257 . S
C2648 C2651 1.344 . S
C2648 C2652 1.328 . S
C2648 C2654 1.516 . S
C2649 C2650 1.304 . S
C2649 C2653 1.323 . S
C2650 C2649 1.304 . S
C2650 C2651 1.371 . S
C2650 H2664 0.930 . S
C2651 C2648 1.344 . S
C2651 C2650 1.371 . S
C2651 H2665 0.931 . S
C2652 C2648 1.328 . S
C2652 C2653 1.433 . S
C2652 H2666 0.931 . S
C2653 C2649 1.323 . S
C2653 C2652 1.433 . S
C2653 H2667 0.933 . S
C2654 Dy2632 2.738 . S
C2654 O2637 1.255 . S
C2654 O2638 1.249 . S
C2654 C2648 1.516 . S
C2655 O2639 1.254 . S
C2655 O2640 1.257 . S
C2656 O2641 1.266 . S
C2656 O2642 1.236 . S
C2657 C2660 1.344 . S
C2657 C2661 1.328 . S
C2657 C2663 1.516 . S
C2658 C2659 1.304 1_545 S
C2658 C2662 1.323 1_545 S
C2659 C2658 1.304 1_565 S
C2659 C2660 1.371 . S
C2659 H2668 0.930 . S
C2660 C2657 1.344 . S
C2660 C2659 1.371 . S
C2660 H2669 0.931 . S
C2661 C2657 1.328 . S
C2661 C2662 1.433 . S
C2661 H2670 0.931 . S
C2662 C2658 1.323 1_565 S
C2662 C2661 1.433 . S
C2662 H2671 0.933 1_565 S
C2663 Dy2633 2.738 . S
C2663 O2643 1.255 . S
C2663 O2644 1.249 . S
C2663 C2657 1.516 . S
H2664 C2650 0.930 . S
H2665 C2651 0.931 . S
H2666 C2652 0.931 . S
H2667 C2653 0.933 . S
H2668 C2659 0.930 . S
H2669 C2660 0.931 . S
H2670 C2661 0.931 . S
H2671 C2662 0.933 1_545 S
Dy2672 O2675 2.307 . S
Dy2672 O2677 2.395 . S
Dy2672 O2678 2.379 . S
Dy2672 O2680 2.339 . S
Dy2672 O2682 2.298 . S
Dy2672 O2686 2.275 . S
Dy2672 C2694 2.738 . S
Dy2673 O2676 2.298 . S
Dy2673 O2679 2.275 . S
Dy2673 O2681 2.307 . S
Dy2673 O2683 2.395 . S
Dy2673 O2684 2.379 . S
Dy2673 O2687 2.339 . S
Dy2673 C2703 2.738 . S
C2674 O2686 1.254 . S
C2674 O2687 1.257 . S
O2675 Dy2672 2.307 . S
O2675 C2685 1.266 . S
O2676 Dy2673 2.298 . S
O2676 C2685 1.236 . S
O2677 Dy2672 2.395 . S
O2677 C2694 1.255 . S
O2678 Dy2672 2.379 . S
O2678 C2694 1.249 . S
O2679 Dy2673 2.275 . S
O2679 C2695 1.254 . S
O2680 Dy2672 2.339 . S
O2680 C2695 1.257 . S
O2681 Dy2673 2.307 . S
O2681 C2696 1.266 . S
O2682 Dy2672 2.298 . S
O2682 C2696 1.236 . S
O2683 Dy2673 2.395 . S
O2683 C2703 1.255 . S
O2684 Dy2673 2.379 . S
O2684 C2703 1.249 . S
C2685 O2675 1.266 . S
C2685 O2676 1.236 . S
O2686 Dy2672 2.275 . S
O2686 C2674 1.254 . S
O2687 Dy2673 2.339 . S
O2687 C2674 1.257 . S
C2688 C2691 1.344 . S
C2688 C2692 1.328 . S
C2688 C2694 1.516 . S
C2689 C2690 1.304 . S
C2689 C2693 1.323 . S
C2690 C2689 1.304 . S
C2690 C2691 1.371 . S
C2690 H2704 0.930 . S
C2691 C2688 1.344 . S
C2691 C2690 1.371 . S
C2691 H2705 0.931 . S
C2692 C2688 1.328 . S
C2692 C2693 1.433 . S
C2692 H2706 0.931 . S
C2693 C2689 1.323 . S
C2693 C2692 1.433 . S
C2693 H2707 0.933 . S
C2694 Dy2672 2.738 . S
C2694 O2677 1.255 . S
C2694 O2678 1.249 . S
C2694 C2688 1.516 . S
C2695 O2679 1.254 . S
C2695 O2680 1.257 . S
C2696 O2681 1.266 . S
C2696 O2682 1.236 . S
C2697 C2700 1.344 . S
C2697 C2701 1.328 . S
C2697 C2703 1.516 . S
C2698 C2699 1.304 . S
C2698 C2702 1.323 . S
C2699 C2698 1.304 . S
C2699 C2700 1.371 . S
C2699 H2708 0.930 . S
C2700 C2697 1.344 . S
C2700 C2699 1.371 . S
C2700 H2709 0.931 . S
C2701 C2697 1.328 . S
C2701 C2702 1.433 . S
C2701 H2710 0.931 . S
C2702 C2698 1.323 . S
C2702 C2701 1.433 . S
C2702 H2711 0.933 . S
C2703 Dy2673 2.738 . S
C2703 O2683 1.255 . S
C2703 O2684 1.249 . S
C2703 C2697 1.516 . S
H2704 C2690 0.930 . S
H2705 C2691 0.931 . S
H2706 C2692 0.931 . S
H2707 C2693 0.933 . S
H2708 C2699 0.930 . S
H2709 C2700 0.931 . S
H2710 C2701 0.931 . S
H2711 C2702 0.933 . S
Dy2712 O2715 2.307 . S
Dy2712 O2717 2.395 1_455 S
Dy2712 O2718 2.379 1_455 S
Dy2712 O2720 2.339 . S
Dy2712 O2722 2.298 . S
Dy2712 O2726 2.275 . S
Dy2712 C2734 2.738 1_455 S
Dy2713 O2716 2.298 . S
Dy2713 O2719 2.275 . S
Dy2713 O2721 2.307 . S
Dy2713 O2723 2.395 . S
Dy2713 O2724 2.379 1_554 S
Dy2713 O2727 2.339 1_554 S
Dy2713 C2743 2.738 . S
C2714 O2726 1.254 1_556 S
C2714 O2727 1.257 . S
O2715 Dy2712 2.307 . S
O2715 C2725 1.266 . S
O2716 Dy2713 2.298 . S
O2716 C2725 1.236 . S
O2717 Dy2712 2.395 1_655 S
O2717 C2734 1.255 . S
O2718 Dy2712 2.379 1_655 S
O2718 C2734 1.249 . S
O2719 Dy2713 2.275 . S
O2719 C2735 1.254 . S
O2720 Dy2712 2.339 . S
O2720 C2735 1.257 . S
O2721 Dy2713 2.307 . S
O2721 C2736 1.266 . S
O2722 Dy2712 2.298 . S
O2722 C2736 1.236 . S
O2723 Dy2713 2.395 . S
O2723 C2743 1.255 . S
O2724 Dy2713 2.379 1_556 S
O2724 C2743 1.249 1_556 S
C2725 O2715 1.266 . S
C2725 O2716 1.236 . S
O2726 Dy2712 2.275 . S
O2726 C2714 1.254 1_554 S
O2727 Dy2713 2.339 1_556 S
O2727 C2714 1.257 . S
C2728 C2731 1.344 . S
C2728 C2732 1.328 . S
C2728 C2734 1.516 . S
C2729 C2730 1.304 . S
C2729 C2733 1.323 . S
C2730 C2729 1.304 . S
C2730 C2731 1.371 . S
C2730 H2744 0.930 . S
C2731 C2728 1.344 . S
C2731 C2730 1.371 . S
C2731 H2745 0.931 . S
C2732 C2728 1.328 . S
C2732 C2733 1.433 . S
C2732 H2746 0.931 . S
C2733 C2729 1.323 . S
C2733 C2732 1.433 . S
C2733 H2747 0.933 . S
C2734 Dy2712 2.738 1_655 S
C2734 O2717 1.255 . S
C2734 O2718 1.249 . S
C2734 C2728 1.516 . S
C2735 O2719 1.254 . S
C2735 O2720 1.257 . S
C2736 O2721 1.266 . S
C2736 O2722 1.236 . S
C2737 C2740 1.344 . S
C2737 C2741 1.328 1_554 S
C2737 C2743 1.516 . S
C2738 C2739 1.304 . S
C2738 C2742 1.323 1_554 S
C2739 C2738 1.304 . S
C2739 C2740 1.371 . S
C2739 H2748 0.930 . S
C2740 C2737 1.344 . S
C2740 C2739 1.371 . S
C2740 H2749 0.931 . S
C2741 C2737 1.328 1_556 S
C2741 C2742 1.433 . S
C2741 H2750 0.931 . S
C2742 C2738 1.323 1_556 S
C2742 C2741 1.433 . S
C2742 H2751 0.933 . S
C2743 Dy2713 2.738 . S
C2743 O2723 1.255 . S
C2743 O2724 1.249 1_554 S
C2743 C2737 1.516 . S
H2744 C2730 0.930 . S
H2745 C2731 0.931 . S
H2746 C2732 0.931 . S
H2747 C2733 0.933 . S
H2748 C2739 0.930 . S
H2749 C2740 0.931 . S
H2750 C2741 0.931 . S
H2751 C2742 0.933 . S
C665 C2125 4.300 1_655 S
C381 C2176 3.084 . S
C460 C2205 3.438 . S
C2249 C585 1.795 . S
C108 C2289 1.564 . S
C2325 C196 3.169 . S
C2375 C313 2.914 . S
C49 C2405 4.296 . S
C2135 C1457 2.997 . S
C1545 C2178 0.530 . S
C2215 C1721 1.558 . S
C2245 C1113 2.715 . S
C1428 C2285 2.653 . S
C2335 C1516 0.659 . S
C2369 C1692 1.014 . S
C2415 C1085 3.007 . S
C2129 C988 2.979 . S
C1817 C2455 2.202 . S
C2489 C2081 2.162 . S
C2525 C1993 1.158 . S
C761 C2409 3.167 . S
C821 C2209 2.373 . S
C2053 C2575 2.104 . S
C2594 C1868 1.538 . S
C2136 C372 4.270 1_545 S
C2605 C645 3.074 . S
C577 C2216 3.429 . S
C497 C2578 1.807 . S
C2298 C57 1.576 . S
C293 C2496 3.160 . S
C2354 C205 2.906 1_544 S
C2656 C145 4.299 . S
C2114 C909 2.997 . S
C2609 C1956 0.545 . S
C724 C2194 1.568 . S
C1780 C2576 2.708 . S
C937 C2296 2.645 . S
C2474 C1985 0.668 . S
C753 C2378 1.027 1_545 S
C1809 C2634 3.006 . S
C1173 C2138 3.005 . S
C1105 C2434 2.196 . S
C1633 C2338 2.180 . S
C1553 C2536 1.138 . S
C2658 C1729 3.181 . S
C1340 C2218 2.390 . S
C2234 C1604 2.098 . S
C2175 C1252 1.530 . S
C489 C2685 4.300 . S
C2616 C557 3.084 . S
C636 C2725 3.438 . S
C409 C2569 1.795 . S
C284 C2449 1.564 . S
C2485 C20 3.169 . S
C2535 C137 2.914 . S
C2645 C225 4.296 . S
C2695 C1641 2.997 . S
C1193 C2618 0.529 . S
C2735 C1289 1.560 . S
C2565 C1377 2.715 . S
C2445 C1613 2.653 . S
C1164 C2495 0.658 . S
C2529 C1261 1.014 . S
C1349 C2655 3.007 . S
C2689 C1965 2.987 . S
C849 C2295 2.202 . S
C2329 C929 2.161 . S
C2365 C1017 1.155 . S
C2649 C1897 3.168 . S
C1789 C2729 2.372 . S
C2255 C900 2.104 . S
C2154 C733 1.538 . S
C548 C2696 4.303 . S
C2165 C469 3.074 . S
C401 C2736 3.428 . S
C673 C2258 1.807 . S
C233 C2458 1.576 . S
C2336 C117 3.160 . S
C29 C2514 2.905 . S
C321 C2416 4.299 . S
C2674 C2044 2.997 . S
C997 C2169 0.548 . S
C2714 C1877 1.570 1_455 S
C812 C2256 2.708 . S
C2073 C2456 2.645 . S
C2314 C1025 0.668 . S
C1905 C2538 1.026 . S
C2394 C841 3.006 . S
C2698 C1525 3.005 . S
C2274 C1369 2.196 1_545 S
C1465 C2498 2.179 . S
C2376 C1201 1.136 . S
C1281 C2418 3.181 . S
C1076 C2738 2.390 . S
C2554 C1437 2.098 . S
C2615 C1701 1.529 . S
