# Generated by pormake.
# Topology rtl, (3,6)-cn, num edge types: 1
# Building blocks:
#     Node 0, Type 0, BuildingBlock: WUSLED_clean_sbu_0, # of connection points: 3
#     Node 1, Type 0, BuildingBlock: WUSLED_clean_sbu_0, # of connection points: 3
#     Node 2, Type 0, BuildingBlock: WUSLED_clean_sbu_0, # of connection points: 3
#     Node 3, Type 0, BuildingBlock: WUSLED_clean_sbu_0, # of connection points: 3
#     Node 4, Type 1, BuildingBlock: VOLQOD_clean_sbu_1, # of connection points: 6
#     Node 5, Type 1, BuildingBlock: VOLQOD_clean_sbu_1, # of connection points: 6
#     Edge 6, Type (0, 1), BuildingBlock: EZIPEK_clean_linker_0, # of connection points: 2
#     Edge 7, Type (0, 1), BuildingBlock: EZIPEK_clean_linker_0, # of connection points: 2
#     Edge 8, Type (0, 1), BuildingBlock: EZIPEK_clean_linker_0, # of connection points: 2
#     Edge 9, Type (0, 1), BuildingBlock: EZIPEK_clean_linker_0, # of connection points: 2
#     Edge 10, Type (0, 1), BuildingBlock: EZIPEK_clean_linker_0, # of connection points: 2
#     Edge 11, Type (0, 1), BuildingBlock: EZIPEK_clean_linker_0, # of connection points: 2
#     Edge 12, Type (0, 1), BuildingBlock: EZIPEK_clean_linker_0, # of connection points: 2
#     Edge 13, Type (0, 1), BuildingBlock: EZIPEK_clean_linker_0, # of connection points: 2
#     Edge 14, Type (0, 1), BuildingBlock: EZIPEK_clean_linker_0, # of connection points: 2
#     Edge 15, Type (0, 1), BuildingBlock: EZIPEK_clean_linker_0, # of connection points: 2
#     Edge 16, Type (0, 1), BuildingBlock: EZIPEK_clean_linker_0, # of connection points: 2
#     Edge 17, Type (0, 1), BuildingBlock: EZIPEK_clean_linker_0, # of connection points: 2
# Relax obj value: 0.076
# Max RMSD: 0.155
# Mean RMSD: 0.087
data_MOF--net-rtl--node1-WUSLED_clean_sbu_0--node2-VOLQOD_clean_sbu_1--edge1-EZIPEK_clean_linker_0
_symmetry_space_group_name_H-M    P1
_symmetry_Int_Tables_number       1
_symmetry_cell_setting            triclinic
loop_
_symmetry_equiv_pos_as_xyz
'x, y, z'
_cell_length_a     38.497989
_cell_length_b     33.529595
_cell_length_c     24.695073
_cell_angle_alpha  90.453684
_cell_angle_beta   90.73165
_cell_angle_gamma 90.001151
loop_
_atom_site_label
_atom_site_type_symbol
_atom_site_fract_x
_atom_site_fract_y
_atom_site_fract_z
_atom_type_partial_charge
C0 C 0.15354 0.80643 0.17253 0.0
C1 C 0.12698 0.83289 0.15713 0.0
C2 C 0.11667 0.84919 0.25149 0.0
C3 C 0.10866 0.85414 0.19639 0.0
C4 C 0.14297 0.82241 0.26695 0.0
C5 C 0.16134 0.80114 0.2276 0.0
U6 U 0.17057 0.787 0.02498 0.0
O7 O 0.219 0.78234 0.97941 0.0
O8 O 0.18276 0.73176 0.98009 0.0
C9 C 0.21354 0.7448 0.96605 0.0
C10 C 0.17355 0.78523 0.13105 0.0
C11 C 0.24279 0.71754 0.97632 0.0
C12 C 0.29152 0.69538 0.032 0.0
C13 C 0.26262 0.72011 0.02441 0.0
C14 C 0.28043 0.66443 0.94439 0.0
C15 C 0.3007 0.66764 0.99181 0.0
C16 C 0.25167 0.68931 0.93667 0.0
C17 C 0.11354 0.84487 0.92397 0.0
C18 C 0.11522 0.83616 0.82624 0.0
C19 C 0.08166 0.8901 0.86552 0.0
C20 C 0.09166 0.87789 0.9173 0.0
C21 C 0.09344 0.86944 0.8197 0.0
C22 C 0.12535 0.824 0.87823 0.0
C23 C 0.12407 0.83337 0.97897 0.0
O24 O 0.15577 0.75924 0.10178 0.0
O25 O 0.19361 0.80814 0.1019 0.0
O26 O 0.15491 0.84592 0.99484 0.0
O27 O 0.11777 0.79622 0.9924 0.0
H28 H 0.12069 0.83735 0.11471 0.0
H29 H 0.08849 0.87476 0.18385 0.0
H30 H 0.14945 0.81834 0.30936 0.0
H31 H 0.18179 0.78089 0.2401 0.0
H32 H 0.30696 0.69815 0.06882 0.0
H33 H 0.25605 0.74162 0.05562 0.0
H34 H 0.28725 0.64318 0.91302 0.0
H35 H 0.23664 0.68689 0.89939 0.0
H36 H 0.12443 0.81988 0.7912 0.0
H37 H 0.0648 0.91577 0.86111 0.0
H38 H 0.08241 0.89434 0.95221 0.0
H39 H 0.14239 0.79849 0.88278 0.0
C40 C 0.65228 0.71128 0.67469 0.0
C41 C 0.62595 0.68405 0.66039 0.0
C42 C 0.61604 0.67056 0.75536 0.0
C43 C 0.60797 0.66377 0.70051 0.0
C44 C 0.64191 0.69832 0.76973 0.0
C45 C 0.65998 0.71857 0.72952 0.0
U46 U 0.66946 0.72722 0.52635 0.0
O47 O 0.68396 0.78105 0.48118 0.0
O48 O 0.71813 0.72857 0.48104 0.0
C49 C 0.71429 0.76622 0.46766 0.0
C50 C 0.67254 0.73079 0.63244 0.0
C51 C 0.74453 0.79225 0.47798 0.0
C52 C 0.7969 0.80951 0.52915 0.0
C53 C 0.7675 0.78545 0.52167 0.0
C54 C 0.78017 0.84819 0.45049 0.0
C55 C 0.8035 0.8409 0.49342 0.0
C56 C 0.75095 0.82395 0.44276 0.0
C57 C 0.61042 0.6706 0.42453 0.0
C58 C 0.5634 0.6581 0.35989 0.0
C59 C 0.62228 0.63903 0.33764 0.0
C60 C 0.63406 0.65417 0.38751 0.0
C61 C 0.58684 0.64043 0.32394 0.0
C62 C 0.57511 0.67295 0.40993 0.0
C63 C 0.62139 0.68282 0.47971 0.0
O64 O 0.69174 0.70648 0.60348 0.0
O65 O 0.65539 0.75683 0.60289 0.0
O66 O 0.61637 0.72044 0.49282 0.0
O67 O 0.65132 0.66874 0.49729 0.0
H68 H 0.61974 0.67805 0.61818 0.0
H69 H 0.58814 0.64232 0.68885 0.0
H70 H 0.64849 0.70371 0.81194 0.0
H71 H 0.68029 0.73943 0.74117 0.0
H72 H 0.81463 0.80352 0.56251 0.0
H73 H 0.76294 0.76132 0.54962 0.0
H74 H 0.78487 0.87232 0.42261 0.0
H75 H 0.73351 0.8297 0.40893 0.0
H76 H 0.53594 0.65924 0.34989 0.0
H77 H 0.64064 0.62541 0.31024 0.0
H78 H 0.66146 0.65209 0.39757 0.0
H79 H 0.55644 0.68536 0.43788 0.0
C80 C 0.84042 0.19387 0.17364 0.0
C81 C 0.8626 0.16207 0.16051 0.0
C82 C 0.87872 0.15506 0.25534 0.0
C83 C 0.88156 0.14271 0.20117 0.0
C84 C 0.85678 0.18706 0.26845 0.0
C85 C 0.83771 0.20636 0.22775 0.0
U86 U 0.82298 0.2118 0.02483 0.0
O87 O 0.77421 0.21941 0.97874 0.0
O88 O 0.81309 0.26732 0.98026 0.0
C89 C 0.78138 0.25655 0.96626 0.0
C90 C 0.82054 0.21435 0.13093 0.0
C91 C 0.75422 0.28605 0.97839 0.0
C92 C 0.71206 0.31514 0.03944 0.0
C93 C 0.73679 0.28582 0.02774 0.0
C94 C 0.7209 0.34416 0.9518 0.0
C95 C 0.70558 0.34725 0.00363 0.0
C96 C 0.74541 0.31472 0.93997 0.0
C97 C 0.88154 0.15352 0.92571 0.0
C98 C 0.89426 0.16942 0.8322 0.0
C99 C 0.91507 0.10801 0.87068 0.0
C100 C 0.89886 0.1173 0.91935 0.0
C101 C 0.91629 0.13565 0.82758 0.0
C102 C 0.87799 0.17881 0.88117 0.0
C103 C 0.8688 0.16457 0.97964 0.0
O104 O 0.83853 0.23975 0.10233 0.0
O105 O 0.80027 0.19129 0.101 0.0
O106 O 0.87582 0.20113 0.99594 0.0
O107 O 0.83723 0.15288 0.99154 0.0
H108 H 0.86516 0.15222 0.11886 0.0
H109 H 0.89837 0.11804 0.19049 0.0
H110 H 0.85431 0.19685 0.31012 0.0
H111 H 0.82084 0.23096 0.23848 0.0
H112 H 0.6979 0.31113 0.07626 0.0
H113 H 0.74206 0.26272 0.05716 0.0
H114 H 0.71388 0.36398 0.91921 0.0
H115 H 0.75744 0.31432 0.90052 0.0
H116 H 0.88865 0.18892 0.7989 0.0
H117 H 0.92696 0.0789 0.8677 0.0
H118 H 0.90041 0.09634 0.95248 0.0
H119 H 0.86293 0.20601 0.88438 0.0
C120 C 0.35538 0.29834 0.34133 0.0
C121 C 0.38016 0.32781 0.35395 0.0
C122 C 0.39112 0.33706 0.25821 0.0
C123 C 0.39789 0.34709 0.31261 0.0
C124 C 0.36698 0.30686 0.24567 0.0
C125 C 0.34914 0.28767 0.28706 0.0
U126 U 0.33723 0.28469 0.49053 0.0
O127 O 0.28761 0.28452 0.53387 0.0
O128 O 0.32162 0.23198 0.53669 0.0
C129 C 0.29118 0.2472 0.54883 0.0
C130 C 0.33499 0.27995 0.38441 0.0
C131 C 0.26091 0.22141 0.53813 0.0
C132 C 0.22846 0.17511 0.48049 0.0
C133 C 0.25736 0.19979 0.48938 0.0
C134 C 0.20614 0.19404 0.56841 0.0
C135 C 0.20276 0.17208 0.52006 0.0
C136 C 0.23507 0.2185 0.5774 0.0
C137 C 0.39626 0.34068 0.59336 0.0
C138 C 0.38587 0.37613 0.67808 0.0
C139 C 0.44265 0.348 0.66059 0.0
C140 C 0.43064 0.33364 0.61045 0.0
C141 C 0.42052 0.36999 0.69426 0.0
C142 C 0.37377 0.36152 0.62807 0.0
C143 C 0.38539 0.32857 0.53796 0.0
O144 O 0.35175 0.25412 0.41482 0.0
O145 O 0.31601 0.30502 0.41253 0.0
O146 O 0.35577 0.34305 0.51967 0.0
O147 O 0.3901 0.29087 0.52497 0.0
H148 H 0.38528 0.33638 0.3957 0.0
H149 H 0.41644 0.37032 0.32294 0.0
H150 H 0.3615 0.29879 0.20387 0.0
H151 H 0.33008 0.265 0.27669 0.0
H152 H 0.22615 0.15832 0.44296 0.0
H153 H 0.27696 0.20187 0.45843 0.0
H154 H 0.18652 0.19196 0.59931 0.0
H155 H 0.23734 0.23508 0.61512 0.0
H156 H 0.36848 0.39308 0.70359 0.0
H157 H 0.46948 0.34305 0.67246 0.0
H158 H 0.4485 0.31784 0.58436 0.0
H159 H 0.3471 0.36739 0.61615 0.0
O160 O 0.9223 0.97733 0.52175 0.0
Zn161 Zn 0.95544 0.0239 0.52551 0.0
O162 O 0.00361 0.00575 0.51746 0.0
Zn163 Zn 0.03143 0.02555 0.57829 0.0
Zn164 Zn 0.00491 0.94724 0.51684 0.0
Zn165 Zn 0.02318 0.0264 0.45035 0.0
O166 O 0.0722 0.058 0.55438 0.0
O167 O 0.06432 0.06277 0.46528 0.0
O168 O 0.94836 0.05326 0.59695 0.0
O169 O 0.00271 0.05938 0.62745 0.0
O170 O 0.04868 0.98067 0.62472 0.0
O171 O 0.02784 0.9259 0.58467 0.0
O172 O 0.03155 0.92675 0.45265 0.0
O173 O 0.94167 0.05945 0.46324 0.0
O174 O 0.04136 0.98124 0.40416 0.0
O175 O 0.98695 0.0571 0.40792 0.0
C176 C 0.92642 0.93988 0.51563 0.0
C177 C 0.08122 0.07124 0.50853 0.0
C178 C 0.04443 0.94305 0.62322 0.0
C179 C 0.97035 0.06617 0.63192 0.0
C180 C 0.04369 0.94371 0.41098 0.0
C181 C 0.95626 0.06857 0.41898 0.0
O182 O 0.95651 0.9243 0.51245 0.0
O183 O 0.58523 0.48389 0.0186 0.0
Zn184 Zn 0.54991 0.52782 0.0182 0.0
O185 O 0.50302 0.5059 0.00904 0.0
Zn186 Zn 0.48137 0.52898 0.94431 0.0
Zn187 Zn 0.50542 0.44731 1.0014 0.0
Zn188 Zn 0.47541 0.52034 0.0723 0.0
O189 O 0.43892 0.56117 0.96268 0.0
O190 O 0.43451 0.55514 0.05199 0.0
O191 O 0.56233 0.56411 0.95681 0.0
O192 O 0.51455 0.56492 0.9052 0.0
O193 O 0.46719 0.48593 0.89147 0.0
O194 O 0.48551 0.42936 0.92878 0.0
O195 O 0.47792 0.42034 0.06035 0.0
O196 O 0.55556 0.55776 0.08892 0.0
O197 O 0.45699 0.47132 0.10817 0.0
O198 O 0.50428 0.55 0.12807 0.0
C199 C 0.58396 0.44614 0.01329 0.0
C200 C 0.42352 0.5687 0.0069 0.0
C201 C 0.47089 0.4482 0.89008 0.0
C202 C 0.54567 0.57583 0.91504 0.0
C203 C 0.46021 0.43403 0.09961 0.0
C204 C 0.53529 0.56319 0.12862 0.0
O205 O 0.55529 0.42769 0.00631 0.0
C206 C 0.17485 0.10467 0.52687 0.0
C207 C 0.17239 0.14531 0.51173 0.0
C208 C 0.1101 0.13726 0.49227 0.0
C209 C 0.11283 0.09629 0.50576 0.0
N210 N 0.1486 0.03889 0.52444 0.0
N211 N 0.13994 0.19883 0.4707 0.0
C212 C 0.1455 0.07936 0.5197 0.0
C213 C 0.14067 0.16112 0.49138 0.0
N214 N 0.20496 0.09058 0.54965 0.0
N215 N 0.07812 0.1538 0.48296 0.0
H216 H 0.16173 0.21732 0.47035 0.0
H217 H 0.11864 0.21066 0.45002 0.0
H218 H 0.05515 0.1373 0.48299 0.0
H219 H 0.07394 0.18432 0.47907 0.0
H220 H 0.20712 0.06266 0.56752 0.0
H221 H 0.22737 0.10786 0.55403 0.0
H222 H 0.1723 0.02428 0.52902 0.0
H223 H 0.1277 0.0194 0.51885 0.0
C224 C 0.32986 0.60403 0.02028 0.0
C225 C 0.33241 0.64285 0.99827 0.0
C226 C 0.39536 0.63468 0.98888 0.0
C227 C 0.39227 0.59447 0.00572 0.0
N228 N 0.35632 0.53885 0.03095 0.0
N229 N 0.36635 0.69407 0.95586 0.0
C230 C 0.35947 0.57861 0.02005 0.0
C231 C 0.36485 0.65792 0.981 0.0
N232 N 0.29923 0.59171 0.04202 0.0
N233 N 0.42756 0.6511 0.98242 0.0
H234 H 0.34476 0.71254 0.95084 0.0
H235 H 0.38837 0.70458 0.93655 0.0
H236 H 0.45055 0.63516 0.98842 0.0
H237 H 0.43172 0.68134 0.97584 0.0
H238 H 0.29664 0.56555 0.06404 0.0
H239 H 0.27682 0.60921 0.04169 0.0
H240 H 0.33257 0.52455 0.0358 0.0
H241 H 0.37733 0.51921 0.03094 0.0
C242 C 0.83853 0.89284 0.54415 0.0
C243 C 0.83536 0.86564 0.50003 0.0
C244 C 0.8905 0.88958 0.46386 0.0
C245 C 0.89532 0.91393 0.51067 0.0
N246 N 0.87721 0.93276 0.60056 0.0
N247 N 0.86151 0.83224 0.42383 0.0
C248 C 0.87022 0.91394 0.55232 0.0
C249 C 0.86232 0.86226 0.46161 0.0
N250 N 0.81088 0.89951 0.57721 0.0
N251 N 0.91181 0.89385 0.42038 0.0
H252 H 0.84146 0.81135 0.42116 0.0
H253 H 0.88226 0.82577 0.39855 0.0
H254 H 0.93213 0.91438 0.41953 0.0
H255 H 0.90722 0.87987 0.38315 0.0
H256 H 0.81044 0.92213 0.60635 0.0
H257 H 0.78717 0.88478 0.5724 0.0
H258 H 0.86145 0.93026 0.63432 0.0
H259 H 0.90048 0.94773 0.60866 0.0
C260 C 0.65865 0.38085 0.06258 0.0
C261 C 0.68033 0.38108 0.01655 0.0
C262 C 0.64284 0.43184 0.97564 0.0
C263 C 0.61709 0.42369 0.01471 0.0
N264 N 0.60117 0.39155 0.09817 0.0
N265 N 0.70433 0.43066 0.95791 0.0
C266 C 0.62509 0.39837 0.05896 0.0
C267 C 0.67595 0.41367 0.98086 0.0
N268 N 0.67247 0.37175 0.11205 0.0
N269 N 0.63545 0.4556 0.93232 0.0
H270 H 0.72949 0.42124 0.96769 0.0
H271 H 0.70314 0.45688 0.93555 0.0
H272 H 0.61122 0.46881 0.92609 0.0
H273 H 0.65248 0.45914 0.90022 0.0
H274 H 0.65871 0.37436 0.14798 0.0
H275 H 0.69923 0.36821 0.1176 0.0
H276 H 0.60484 0.37012 0.12808 0.0
H277 H 0.57697 0.40551 0.09891 0.0
C278 C 0.11478 0.9062 0.31789 0.0
C279 C 0.09804 0.873 0.29296 0.0
C280 C 0.04458 0.88826 0.34198 0.0
C281 C 0.0623 0.9193 0.37036 0.0
N282 N 0.11606 0.95291 0.39319 0.0
N283 N 0.0491 0.82824 0.28705 0.0
C284 C 0.09792 0.92699 0.36044 0.0
C285 C 0.0635 0.8628 0.30669 0.0
N286 N 0.1464 0.9186 0.29983 0.0
N287 N 0.00943 0.88414 0.34705 0.0
H288 H 0.06213 0.80899 0.26084 0.0
H289 H 0.02549 0.81695 0.30017 0.0
H290 H 0.9946 0.90252 0.37198 0.0
H291 H 0.99448 0.86489 0.32307 0.0
H292 H 0.15806 0.94523 0.3122 0.0
H293 H 0.15974 0.90402 0.26895 0.0
H294 H 0.14291 0.95642 0.39163 0.0
H295 H 0.10489 0.96827 0.42547 0.0
C296 C 0.56963 0.66326 0.82535 0.0
C297 C 0.59846 0.64696 0.79758 0.0
C298 C 0.59094 0.58332 0.84412 0.0
C299 C 0.56381 0.60053 0.87489 0.0
N300 N 0.53013 0.658 0.90087 0.0
N301 N 0.64029 0.59412 0.78608 0.0
C302 C 0.55385 0.64084 0.86714 0.0
C303 C 0.61023 0.60773 0.80866 0.0
N304 N 0.55682 0.69971 0.81073 0.0
N305 N 0.59722 0.54322 0.84702 0.0
H306 H 0.65489 0.6109 0.75921 0.0
H307 H 0.65232 0.56756 0.79727 0.0
H308 H 0.58336 0.52421 0.87203 0.0
H309 H 0.61401 0.52811 0.82128 0.0
H310 H 0.53361 0.71139 0.82508 0.0
H311 H 0.56819 0.71727 0.78111 0.0
H312 H 0.52445 0.68835 0.90122 0.0
H313 H 0.51793 0.64236 0.93165 0.0
C314 C 0.88499 0.0972 0.31838 0.0
C315 C 0.89821 0.13367 0.29852 0.0
C316 C 0.94778 0.1295 0.36169 0.0
C317 C 0.9362 0.09127 0.37792 0.0
N318 N 0.89721 0.03545 0.36516 0.0
N319 N 0.94411 0.18247 0.29545 0.0
C320 C 0.90564 0.07425 0.35465 0.0
C321 C 0.93017 0.14929 0.31858 0.0
N322 N 0.85238 0.08488 0.30336 0.0
N323 N 0.9748 0.14748 0.38882 0.0
H324 H 0.93161 0.19818 0.26455 0.0
H325 H 0.96912 0.19275 0.30397 0.0
H326 H 0.98817 0.134 0.4208 0.0
H327 H 0.98214 0.17699 0.38282 0.0
H328 H 0.83974 0.06095 0.32114 0.0
H329 H 0.83667 0.10059 0.2762 0.0
H330 H 0.87748 0.02003 0.34477 0.0
H331 H 0.9119 0.0173 0.39079 0.0
C332 C 0.45735 0.42166 0.74161 0.0
C333 C 0.43426 0.38881 0.74491 0.0
C334 C 0.43398 0.39555 0.84394 0.0
C335 C 0.45929 0.42624 0.8407 0.0
N336 N 0.50101 0.46197 0.78735 0.0
N337 N 0.40543 0.33964 0.79906 0.0
C338 C 0.47271 0.43742 0.78975 0.0
C339 C 0.42401 0.37427 0.7961 0.0
N340 N 0.46365 0.43886 0.69268 0.0
N341 N 0.41826 0.38796 0.89211 0.0
H342 H 0.39767 0.32332 0.76485 0.0
H343 H 0.40033 0.32529 0.83536 0.0
H344 H 0.42445 0.40323 0.9279 0.0
H345 H 0.397 0.36901 0.89569 0.0
H346 H 0.4772 0.46555 0.6887 0.0
H347 H 0.45265 0.42858 0.65637 0.0
H348 H 0.51408 0.46779 0.75159 0.0
H349 H 0.5137 0.47329 0.82174 0.0
C350 C 0.56348 0.58025 0.27501 0.0
C351 C 0.57388 0.62083 0.27352 0.0
C352 C 0.557 0.62442 0.17752 0.0
C353 C 0.54879 0.58316 0.17821 0.0
N354 N 0.54967 0.51999 0.2243 0.0
N355 N 0.58492 0.6806 0.22303 0.0
C356 C 0.55342 0.56057 0.22612 0.0
C357 C 0.57195 0.64266 0.22459 0.0
N358 N 0.56267 0.56071 0.32339 0.0
N359 N 0.54925 0.64642 0.13256 0.0
H360 H 0.59504 0.69526 0.25715 0.0
H361 H 0.58789 0.6966 0.18744 0.0
H362 H 0.53839 0.63401 0.09736 0.0
H363 H 0.55107 0.67737 0.13129 0.0
H364 H 0.55137 0.53277 0.32822 0.0
H365 H 0.5711 0.57354 0.35986 0.0
H366 H 0.55647 0.50132 0.2562 0.0
H367 H 0.54251 0.50437 0.1892 0.0
C368 C 0.93374 0.14557 0.72724 0.0
C369 C 0.93816 0.12628 0.77786 0.0
C370 C 0.96961 0.07238 0.73285 0.0
C371 C 0.95853 0.087 0.68163 0.0
N372 N 0.93076 0.13914 0.62958 0.0
N373 N 0.98378 0.09113 0.82486 0.0
C374 C 0.94056 0.12397 0.67859 0.0
C375 C 0.96323 0.09539 0.77986 0.0
N376 N 0.93074 0.18605 0.72578 0.0
N377 N 0.98466 0.03561 0.73736 0.0
H378 H 0.98245 0.11113 0.85742 0.0
H379 H 0.00469 0.07139 0.82664 0.0
H380 H 0.98821 0.01642 0.70445 0.0
H381 H 0.9902 0.02264 0.77473 0.0
H382 H 0.93 0.20228 0.68999 0.0
H383 H 0.9358 0.20347 0.7602 0.0
H384 H 0.91434 0.16373 0.62594 0.0
H385 H 0.93734 0.1259 0.59278 0.0
C386 C 0.44416 0.35308 0.20414 0.0
C387 C 0.4084 0.35949 0.2144 0.0
C388 C 0.40577 0.40886 0.14177 0.0
C389 C 0.44235 0.4062 0.13638 0.0
N390 N 0.49736 0.37963 0.16735 0.0
N391 N 0.35595 0.3973 0.19842 0.0
C392 C 0.46186 0.3791 0.16857 0.0
C393 C 0.38934 0.38832 0.18453 0.0
N394 N 0.46102 0.32169 0.22772 0.0
N395 N 0.3866 0.43012 0.105 0.0
H396 H 0.34289 0.38299 0.2295 0.0
H397 H 0.34215 0.42122 0.18222 0.0
H398 H 0.39767 0.44493 0.07248 0.0
H399 H 0.35955 0.42987 0.10355 0.0
H400 H 0.48606 0.31294 0.21751 0.0
H401 H 0.44884 0.30213 0.25411 0.0
H402 H 0.51302 0.3638 0.19432 0.0
H403 H 0.51139 0.39848 0.14235 0.0
C404 C 0.0476 0.87684 0.74778 0.0
C405 C 0.08244 0.88306 0.76507 0.0
C406 C 0.09384 0.92036 0.6822 0.0
C407 C 0.05785 0.91925 0.6692 0.0
N408 N 0.99937 0.90074 0.69329 0.0
N409 N 0.1384 0.9136 0.75174 0.0
C410 C 0.03441 0.89824 0.70258 0.0
C411 C 0.10563 0.90531 0.73287 0.0
N412 N 0.02722 0.85021 0.77443 0.0
N413 N 0.11679 0.93507 0.64558 0.0
H414 H 0.14816 0.90275 0.78835 0.0
H415 H 0.15506 0.93356 0.73308 0.0
H416 H 0.10901 0.94585 0.60779 0.0
H417 H 0.14365 0.93313 0.65038 0.0
H418 H 0.00274 0.84136 0.76049 0.0
H419 H 0.03614 0.83405 0.80777 0.0
H420 H 0.98098 0.8899 0.72001 0.0
H421 H 0.98838 0.91667 0.6613 0.0
loop_
_geom_bond_atom_site_label_1
_geom_bond_atom_site_label_2
_geom_bond_distance
_geom_bond_site_symmetry_2
_ccdc_geom_bond_type
C0 C1 1.264 . S
C0 C5 1.479 . S
C0 C10 1.465 . S
C1 C0 1.264 . S
C1 C3 1.339 . S
C1 H28 0.931 . S
C2 C3 1.395 . S
C2 C4 1.320 . S
C3 C1 1.339 . S
C3 C2 1.395 . S
C3 H29 0.929 . S
C4 C2 1.320 . S
C4 C5 1.405 . S
C4 H30 0.930 . S
C5 C0 1.479 . S
C5 C4 1.405 . S
C5 H31 0.931 . S
U6 O7 2.454 . S
U6 O8 2.458 1_554 S
U6 C9 2.984 . S
U6 C10 2.847 . S
U6 C23 2.882 1_554 S
U6 O24 2.441 . S
U6 O25 2.420 . S
U6 O26 2.455 1_554 S
U6 O27 2.449 1_554 S
O7 U6 2.454 . S
O7 C9 1.353 . S
O8 U6 2.458 1_556 S
O8 C9 1.286 1_556 S
C9 U6 2.984 . S
C9 O7 1.353 . S
C9 O8 1.286 1_554 S
C9 C11 1.363 . S
C10 C0 1.465 . S
C10 U6 2.847 . S
C10 O24 1.249 . S
C10 O25 1.202 . S
C11 C9 1.363 . S
C11 C13 1.408 . S
C11 C16 1.342 1_554 S
C12 C13 1.310 . S
C12 C15 1.461 . S
C12 H32 0.932 . S
C13 C11 1.408 . S
C13 C12 1.310 . S
C13 H33 0.930 . S
C14 C15 1.474 1_556 S
C14 C16 1.285 . S
C14 H34 0.929 . S
C15 C12 1.461 . S
C15 C14 1.474 1_554 S
C16 C11 1.342 1_556 S
C16 C14 1.285 . S
C16 H35 0.930 . S
C17 C20 1.424 . S
C17 C22 1.245 . S
C17 C23 1.428 . S
C18 C21 1.260 . S
C18 C22 1.477 . S
C18 H36 0.932 . S
C19 C20 1.384 . S
C19 C21 1.479 . S
C19 H37 0.929 . S
C20 C17 1.424 . S
C20 C19 1.384 . S
C20 H38 0.928 . S
C21 C18 1.260 . S
C21 C19 1.479 . S
C22 C17 1.245 . S
C22 C18 1.477 . S
C22 H39 0.932 . S
C23 U6 2.882 1_556 S
C23 C17 1.428 . S
C23 O26 1.301 . S
C23 O27 1.282 . S
O24 U6 2.441 . S
O24 C10 1.249 . S
O25 U6 2.420 . S
O25 C10 1.202 . S
O26 U6 2.455 1_556 S
O26 C23 1.301 . S
O27 U6 2.449 1_556 S
O27 C23 1.282 . S
H28 C1 0.931 . S
H29 C3 0.929 . S
H30 C4 0.930 . S
H31 C5 0.931 . S
H32 C12 0.932 . S
H33 C13 0.930 . S
H34 C14 0.929 . S
H35 C16 0.930 . S
H36 C18 0.932 . S
H37 C19 0.929 . S
H38 C20 0.928 . S
H39 C22 0.932 . S
C40 C41 1.264 . S
C40 C45 1.479 . S
C40 C50 1.465 . S
C41 C40 1.264 . S
C41 C43 1.339 . S
C41 H68 0.931 . S
C42 C43 1.395 . S
C42 C44 1.320 . S
C43 C41 1.339 . S
C43 C42 1.395 . S
C43 H69 0.929 . S
C44 C42 1.320 . S
C44 C45 1.405 . S
C44 H70 0.930 . S
C45 C40 1.479 . S
C45 C44 1.405 . S
C45 H71 0.931 . S
U46 O47 2.454 . S
U46 O48 2.458 . S
U46 C49 2.984 . S
U46 C50 2.847 . S
U46 C63 2.882 . S
U46 O64 2.441 . S
U46 O65 2.420 . S
U46 O66 2.455 . S
U46 O67 2.449 . S
O47 U46 2.454 . S
O47 C49 1.353 . S
O48 U46 2.458 . S
O48 C49 1.286 . S
C49 U46 2.984 . S
C49 O47 1.353 . S
C49 O48 1.286 . S
C49 C51 1.363 . S
C50 C40 1.465 . S
C50 U46 2.847 . S
C50 O64 1.249 . S
C50 O65 1.202 . S
C51 C49 1.363 . S
C51 C53 1.408 . S
C51 C56 1.342 . S
C52 C53 1.310 . S
C52 C55 1.461 . S
C52 H72 0.932 . S
C53 C51 1.408 . S
C53 C52 1.310 . S
C53 H73 0.930 . S
C54 C55 1.474 . S
C54 C56 1.285 . S
C54 H74 0.929 . S
C55 C52 1.461 . S
C55 C54 1.474 . S
C56 C51 1.342 . S
C56 C54 1.285 . S
C56 H75 0.930 . S
C57 C60 1.424 . S
C57 C62 1.245 . S
C57 C63 1.428 . S
C58 C61 1.260 . S
C58 C62 1.477 . S
C58 H76 0.932 . S
C59 C60 1.384 . S
C59 C61 1.479 . S
C59 H77 0.929 . S
C60 C57 1.424 . S
C60 C59 1.384 . S
C60 H78 0.928 . S
C61 C58 1.260 . S
C61 C59 1.479 . S
C62 C57 1.245 . S
C62 C58 1.477 . S
C62 H79 0.932 . S
C63 U46 2.882 . S
C63 C57 1.428 . S
C63 O66 1.301 . S
C63 O67 1.282 . S
O64 U46 2.441 . S
O64 C50 1.249 . S
O65 U46 2.420 . S
O65 C50 1.202 . S
O66 U46 2.455 . S
O66 C63 1.301 . S
O67 U46 2.449 . S
O67 C63 1.282 . S
H68 C41 0.931 . S
H69 C43 0.929 . S
H70 C44 0.930 . S
H71 C45 0.931 . S
H72 C52 0.932 . S
H73 C53 0.930 . S
H74 C54 0.929 . S
H75 C56 0.930 . S
H76 C58 0.932 . S
H77 C59 0.929 . S
H78 C60 0.928 . S
H79 C62 0.932 . S
C80 C81 1.264 . S
C80 C85 1.479 . S
C80 C90 1.465 . S
C81 C80 1.264 . S
C81 C83 1.339 . S
C81 H108 0.931 . S
C82 C83 1.395 . S
C82 C84 1.320 . S
C83 C81 1.339 . S
C83 C82 1.395 . S
C83 H109 0.929 . S
C84 C82 1.320 . S
C84 C85 1.405 . S
C84 H110 0.930 . S
C85 C80 1.479 . S
C85 C84 1.405 . S
C85 H111 0.931 . S
U86 O87 2.454 . S
U86 O88 2.458 1_554 S
U86 C89 2.984 . S
U86 C90 2.847 . S
U86 C103 2.882 1_554 S
U86 O104 2.441 . S
U86 O105 2.420 . S
U86 O106 2.455 1_554 S
U86 O107 2.449 1_554 S
O87 U86 2.454 . S
O87 C89 1.353 . S
O88 U86 2.458 1_556 S
O88 C89 1.286 1_556 S
C89 U86 2.984 . S
C89 O87 1.353 . S
C89 O88 1.286 1_554 S
C89 C91 1.363 . S
C90 C80 1.465 . S
C90 U86 2.847 . S
C90 O104 1.249 . S
C90 O105 1.202 . S
C91 C89 1.363 . S
C91 C93 1.408 . S
C91 C96 1.342 1_554 S
C92 C93 1.310 . S
C92 C95 1.461 . S
C92 H112 0.932 . S
C93 C91 1.408 . S
C93 C92 1.310 . S
C93 H113 0.930 . S
C94 C95 1.474 1_556 S
C94 C96 1.285 . S
C94 H114 0.929 . S
C95 C92 1.461 . S
C95 C94 1.474 1_554 S
C96 C91 1.342 1_556 S
C96 C94 1.285 . S
C96 H115 0.930 . S
C97 C100 1.424 . S
C97 C102 1.245 . S
C97 C103 1.428 . S
C98 C101 1.260 . S
C98 C102 1.477 . S
C98 H116 0.932 . S
C99 C100 1.384 . S
C99 C101 1.479 . S
C99 H117 0.929 . S
C100 C97 1.424 . S
C100 C99 1.384 . S
C100 H118 0.928 . S
C101 C98 1.260 . S
C101 C99 1.479 . S
C102 C97 1.245 . S
C102 C98 1.477 . S
C102 H119 0.932 . S
C103 U86 2.882 1_556 S
C103 C97 1.428 . S
C103 O106 1.301 . S
C103 O107 1.282 . S
O104 U86 2.441 . S
O104 C90 1.249 . S
O105 U86 2.420 . S
O105 C90 1.202 . S
O106 U86 2.455 1_556 S
O106 C103 1.301 . S
O107 U86 2.449 1_556 S
O107 C103 1.282 . S
H108 C81 0.931 . S
H109 C83 0.929 . S
H110 C84 0.930 . S
H111 C85 0.931 . S
H112 C92 0.932 . S
H113 C93 0.930 . S
H114 C94 0.929 . S
H115 C96 0.930 . S
H116 C98 0.932 . S
H117 C99 0.929 . S
H118 C100 0.928 . S
H119 C102 0.932 . S
C120 C121 1.264 . S
C120 C125 1.479 . S
C120 C130 1.465 . S
C121 C120 1.264 . S
C121 C123 1.339 . S
C121 H148 0.931 . S
C122 C123 1.395 . S
C122 C124 1.320 . S
C123 C121 1.339 . S
C123 C122 1.395 . S
C123 H149 0.929 . S
C124 C122 1.320 . S
C124 C125 1.405 . S
C124 H150 0.930 . S
C125 C120 1.479 . S
C125 C124 1.405 . S
C125 H151 0.931 . S
U126 O127 2.454 . S
U126 O128 2.458 . S
U126 C129 2.984 . S
U126 C130 2.847 . S
U126 C143 2.882 . S
U126 O144 2.441 . S
U126 O145 2.420 . S
U126 O146 2.455 . S
U126 O147 2.449 . S
O127 U126 2.454 . S
O127 C129 1.353 . S
O128 U126 2.458 . S
O128 C129 1.286 . S
C129 U126 2.984 . S
C129 O127 1.353 . S
C129 O128 1.286 . S
C129 C131 1.363 . S
C130 C120 1.465 . S
C130 U126 2.847 . S
C130 O144 1.249 . S
C130 O145 1.202 . S
C131 C129 1.363 . S
C131 C133 1.408 . S
C131 C136 1.342 . S
C132 C133 1.310 . S
C132 C135 1.461 . S
C132 H152 0.932 . S
C133 C131 1.408 . S
C133 C132 1.310 . S
C133 H153 0.930 . S
C134 C135 1.474 . S
C134 C136 1.285 . S
C134 H154 0.929 . S
C135 C132 1.461 . S
C135 C134 1.474 . S
C136 C131 1.342 . S
C136 C134 1.285 . S
C136 H155 0.930 . S
C137 C140 1.424 . S
C137 C142 1.245 . S
C137 C143 1.428 . S
C138 C141 1.260 . S
C138 C142 1.477 . S
C138 H156 0.932 . S
C139 C140 1.384 . S
C139 C141 1.479 . S
C139 H157 0.929 . S
C140 C137 1.424 . S
C140 C139 1.384 . S
C140 H158 0.928 . S
C141 C138 1.260 . S
C141 C139 1.479 . S
C142 C137 1.245 . S
C142 C138 1.477 . S
C142 H159 0.932 . S
C143 U126 2.882 . S
C143 C137 1.428 . S
C143 O146 1.301 . S
C143 O147 1.282 . S
O144 U126 2.441 . S
O144 C130 1.249 . S
O145 U126 2.420 . S
O145 C130 1.202 . S
O146 U126 2.455 . S
O146 C143 1.301 . S
O147 U126 2.449 . S
O147 C143 1.282 . S
H148 C121 0.931 . S
H149 C123 0.929 . S
H150 C124 0.930 . S
H151 C125 0.931 . S
H152 C132 0.932 . S
H153 C133 0.930 . S
H154 C134 0.929 . S
H155 C136 0.930 . S
H156 C138 0.932 . S
H157 C139 0.929 . S
H158 C140 0.928 . S
H159 C142 0.932 . S
O160 Zn161 1.953 1_565 S
O160 C176 1.225 . S
Zn161 O160 1.953 1_545 S
Zn161 O162 1.949 1_655 S
Zn161 O168 1.919 . S
Zn161 O173 1.924 . S
O162 Zn161 1.949 1_455 S
O162 Zn163 1.923 . S
O162 Zn164 1.950 1_445 S
O162 Zn165 1.945 . S
Zn163 O162 1.923 . S
Zn163 O166 1.933 . S
Zn163 O169 1.941 . S
Zn163 O170 1.965 1_545 S
Zn164 O162 1.950 1_665 S
Zn164 O171 1.938 1_655 S
Zn164 O172 1.906 1_655 S
Zn164 O182 1.953 . S
Zn165 O162 1.945 . S
Zn165 O167 1.932 . S
Zn165 O174 1.977 1_545 S
Zn165 O175 1.910 1_455 S
O166 Zn163 1.933 . S
O166 C177 1.226 . S
O167 Zn165 1.932 . S
O167 C177 1.307 . S
O168 Zn161 1.919 . S
O168 C179 1.253 . S
O169 Zn163 1.941 . S
O169 C179 1.283 1_455 S
O170 Zn163 1.965 1_565 S
O170 C178 1.303 . S
O171 Zn164 1.938 1_455 S
O171 C178 1.247 . S
O172 Zn164 1.906 1_455 S
O172 C180 1.304 . S
O173 Zn161 1.924 . S
O173 C181 1.311 . S
O174 Zn165 1.977 1_565 S
O174 C180 1.272 . S
O175 Zn165 1.910 1_655 S
O175 C181 1.231 . S
C176 O160 1.225 . S
C176 O182 1.298 . S
C177 O166 1.226 . S
C177 O167 1.307 . S
C178 O170 1.303 . S
C178 O171 1.247 . S
C179 O168 1.253 . S
C179 O169 1.283 1_655 S
C180 O172 1.304 . S
C180 O174 1.272 . S
C181 O173 1.311 . S
C181 O175 1.231 . S
O182 Zn164 1.953 . S
O182 C176 1.298 . S
O183 Zn184 1.953 1_556 S
O183 C199 1.225 1_556 S
Zn184 O183 1.953 1_554 S
Zn184 O185 1.949 . S
Zn184 O191 1.915 1_554 S
Zn184 O196 1.929 . S
O185 Zn184 1.949 . S
O185 Zn186 1.923 1_554 S
O185 Zn187 1.950 . S
O185 Zn188 1.945 . S
Zn186 O185 1.923 1_556 S
Zn186 O189 1.933 . S
Zn186 O192 1.941 . S
Zn186 O193 1.965 . S
Zn187 O185 1.950 . S
Zn187 O194 1.938 1_554 S
Zn187 O195 1.906 . S
Zn187 O205 1.953 . S
Zn188 O185 1.945 . S
Zn188 O190 1.932 . S
Zn188 O197 1.977 . S
Zn188 O198 1.910 . S
O189 Zn186 1.933 . S
O189 C200 1.226 1_556 S
O190 Zn188 1.932 . S
O190 C200 1.307 . S
O191 Zn184 1.915 1_556 S
O191 C202 1.253 . S
O192 Zn186 1.941 . S
O192 C202 1.283 . S
O193 Zn186 1.965 . S
O193 C201 1.303 . S
O194 Zn187 1.938 1_556 S
O194 C201 1.247 . S
O195 Zn187 1.906 . S
O195 C203 1.304 . S
O196 Zn184 1.929 . S
O196 C204 1.311 . S
O197 Zn188 1.977 . S
O197 C203 1.272 . S
O198 Zn188 1.910 . S
O198 C204 1.231 . S
C199 O183 1.225 1_554 S
C199 O205 1.298 . S
C200 O189 1.226 1_554 S
C200 O190 1.307 . S
C201 O193 1.303 . S
C201 O194 1.247 . S
C202 O191 1.253 . S
C202 O192 1.283 . S
C203 O195 1.304 . S
C203 O197 1.272 . S
C204 O196 1.311 . S
C204 O198 1.231 . S
O205 Zn187 1.953 . S
O205 C199 1.298 . S
C206 C207 1.363 . S
C206 C212 1.379 . S
C206 N214 1.356 . S
C207 C206 1.363 . S
C207 C213 1.363 . S
C208 C209 1.363 . S
C208 C213 1.379 . S
C208 N215 1.356 . S
C209 C208 1.363 . S
C209 C212 1.363 . S
N210 C212 1.356 . S
N210 H222 0.984 . S
N210 H223 0.985 . S
N211 C213 1.356 . S
N211 H216 0.984 . S
N211 H217 0.985 . S
C212 C206 1.379 . S
C212 C209 1.363 . S
C212 N210 1.356 . S
C213 C207 1.363 . S
C213 C208 1.379 . S
C213 N211 1.356 . S
N214 C206 1.356 . S
N214 H220 0.984 . S
N214 H221 0.984 . S
N215 C208 1.356 . S
N215 H218 0.984 . S
N215 H219 0.985 . S
H216 N211 0.984 . S
H217 N211 0.985 . S
H218 N215 0.984 . S
H219 N215 0.985 . S
H220 N214 0.984 . S
H221 N214 0.984 . S
H222 N210 0.984 . S
H223 N210 0.985 . S
C224 C225 1.363 . S
C224 C230 1.379 . S
C224 N232 1.356 . S
C225 C224 1.363 . S
C225 C231 1.363 1_554 S
C226 C227 1.363 1_556 S
C226 C231 1.379 . S
C226 N233 1.356 . S
C227 C226 1.363 1_554 S
C227 C230 1.363 . S
N228 C230 1.356 . S
N228 H240 0.984 . S
N228 H241 0.985 . S
N229 C231 1.356 . S
N229 H234 0.984 . S
N229 H235 0.985 . S
C230 C224 1.379 . S
C230 C227 1.363 . S
C230 N228 1.356 . S
C231 C225 1.363 1_556 S
C231 C226 1.379 . S
C231 N229 1.356 . S
N232 C224 1.356 . S
N232 H238 0.984 . S
N232 H239 0.984 . S
N233 C226 1.356 . S
N233 H236 0.984 . S
N233 H237 0.985 . S
H234 N229 0.984 . S
H235 N229 0.985 . S
H236 N233 0.984 . S
H237 N233 0.985 . S
H238 N232 0.984 . S
H239 N232 0.984 . S
H240 N228 0.984 . S
H241 N228 0.985 . S
C242 C243 1.363 . S
C242 C248 1.379 . S
C242 N250 1.356 . S
C243 C242 1.363 . S
C243 C249 1.363 . S
C244 C245 1.363 . S
C244 C249 1.379 . S
C244 N251 1.356 . S
C245 C244 1.363 . S
C245 C248 1.363 . S
N246 C248 1.356 . S
N246 H258 0.984 . S
N246 H259 0.985 . S
N247 C249 1.356 . S
N247 H252 0.984 . S
N247 H253 0.985 . S
C248 C242 1.379 . S
C248 C245 1.363 . S
C248 N246 1.356 . S
C249 C243 1.363 . S
C249 C244 1.379 . S
C249 N247 1.356 . S
N250 C242 1.356 . S
N250 H256 0.984 . S
N250 H257 0.984 . S
N251 C244 1.356 . S
N251 H254 0.984 . S
N251 H255 0.985 . S
H252 N247 0.984 . S
H253 N247 0.985 . S
H254 N251 0.984 . S
H255 N251 0.985 . S
H256 N250 0.984 . S
H257 N250 0.984 . S
H258 N246 0.984 . S
H259 N246 0.985 . S
C260 C261 1.363 . S
C260 C266 1.379 . S
C260 N268 1.356 . S
C261 C260 1.363 . S
C261 C267 1.363 1_554 S
C262 C263 1.363 1_556 S
C262 C267 1.379 . S
C262 N269 1.356 . S
C263 C262 1.363 1_554 S
C263 C266 1.363 . S
N264 C266 1.356 . S
N264 H276 0.984 . S
N264 H277 0.985 . S
N265 C267 1.356 . S
N265 H270 0.984 . S
N265 H271 0.985 . S
C266 C260 1.379 . S
C266 C263 1.363 . S
C266 N264 1.356 . S
C267 C261 1.363 1_556 S
C267 C262 1.379 . S
C267 N265 1.356 . S
N268 C260 1.356 . S
N268 H274 0.984 . S
N268 H275 0.984 . S
N269 C262 1.356 . S
N269 H272 0.984 . S
N269 H273 0.985 . S
H270 N265 0.984 . S
H271 N265 0.985 . S
H272 N269 0.984 . S
H273 N269 0.985 . S
H274 N268 0.984 . S
H275 N268 0.984 . S
H276 N264 0.984 . S
H277 N264 0.985 . S
C278 C279 1.363 . S
C278 C284 1.379 . S
C278 N286 1.356 . S
C279 C278 1.363 . S
C279 C285 1.363 . S
C280 C281 1.363 . S
C280 C285 1.379 . S
C280 N287 1.356 1_455 S
C281 C280 1.363 . S
C281 C284 1.363 . S
N282 C284 1.356 . S
N282 H294 0.984 . S
N282 H295 0.985 . S
N283 C285 1.356 1_655 S
N283 H288 0.984 . S
N283 H289 0.985 . S
C284 C278 1.379 . S
C284 C281 1.363 . S
C284 N282 1.356 . S
C285 C279 1.363 . S
C285 C280 1.379 . S
C285 N283 1.356 1_455 S
N286 C278 1.356 . S
N286 H292 0.984 . S
N286 H293 0.984 . S
N287 C280 1.356 1_655 S
N287 H290 0.984 1_655 S
N287 H291 0.985 . S
H288 N283 0.984 . S
H289 N283 0.985 . S
H290 N287 0.984 1_455 S
H291 N287 0.985 . S
H292 N286 0.984 . S
H293 N286 0.984 . S
H294 N282 0.984 . S
H295 N282 0.985 . S
C296 C297 1.363 . S
C296 C302 1.379 . S
C296 N304 1.356 . S
C297 C296 1.363 . S
C297 C303 1.363 . S
C298 C299 1.363 . S
C298 C303 1.379 . S
C298 N305 1.356 . S
C299 C298 1.363 . S
C299 C302 1.363 . S
N300 C302 1.356 . S
N300 H312 0.984 . S
N300 H313 0.985 . S
N301 C303 1.356 . S
N301 H306 0.984 . S
N301 H307 0.985 . S
C302 C296 1.379 . S
C302 C299 1.363 . S
C302 N300 1.356 . S
C303 C297 1.363 . S
C303 C298 1.379 . S
C303 N301 1.356 . S
N304 C296 1.356 . S
N304 H310 0.984 . S
N304 H311 0.984 . S
N305 C298 1.356 . S
N305 H308 0.984 . S
N305 H309 0.985 . S
H306 N301 0.984 . S
H307 N301 0.985 . S
H308 N305 0.984 . S
H309 N305 0.985 . S
H310 N304 0.984 . S
H311 N304 0.984 . S
H312 N300 0.984 . S
H313 N300 0.985 . S
C314 C315 1.363 . S
C314 C320 1.379 . S
C314 N322 1.356 . S
C315 C314 1.363 . S
C315 C321 1.363 . S
C316 C317 1.363 . S
C316 C321 1.379 . S
C316 N323 1.356 1_655 S
C317 C316 1.363 . S
C317 C320 1.363 . S
N318 C320 1.356 . S
N318 H330 0.984 . S
N318 H331 0.985 . S
N319 C321 1.356 1_455 S
N319 H324 0.984 . S
N319 H325 0.985 . S
C320 C314 1.379 . S
C320 C317 1.363 . S
C320 N318 1.356 . S
C321 C315 1.363 . S
C321 C316 1.379 . S
C321 N319 1.356 1_655 S
N322 C314 1.356 . S
N322 H328 0.984 . S
N322 H329 0.984 . S
N323 C316 1.356 1_455 S
N323 H326 0.984 1_455 S
N323 H327 0.985 . S
H324 N319 0.984 . S
H325 N319 0.985 . S
H326 N323 0.984 1_655 S
H327 N323 0.985 . S
H328 N322 0.984 . S
H329 N322 0.984 . S
H330 N318 0.984 . S
H331 N318 0.985 . S
C332 C333 1.363 . S
C332 C338 1.379 . S
C332 N340 1.356 . S
C333 C332 1.363 . S
C333 C339 1.363 . S
C334 C335 1.363 . S
C334 C339 1.379 . S
C334 N341 1.356 . S
C335 C334 1.363 . S
C335 C338 1.363 . S
N336 C338 1.356 . S
N336 H348 0.984 . S
N336 H349 0.985 . S
N337 C339 1.356 . S
N337 H342 0.984 . S
N337 H343 0.985 . S
C338 C332 1.379 . S
C338 C335 1.363 . S
C338 N336 1.356 . S
C339 C333 1.363 . S
C339 C334 1.379 . S
C339 N337 1.356 . S
N340 C332 1.356 . S
N340 H346 0.984 . S
N340 H347 0.984 . S
N341 C334 1.356 . S
N341 H344 0.984 . S
N341 H345 0.985 . S
H342 N337 0.984 . S
H343 N337 0.985 . S
H344 N341 0.984 . S
H345 N341 0.985 . S
H346 N340 0.984 . S
H347 N340 0.984 . S
H348 N336 0.984 . S
H349 N336 0.985 . S
C350 C351 1.363 . S
C350 C356 1.379 . S
C350 N358 1.356 . S
C351 C350 1.363 . S
C351 C357 1.363 . S
C352 C353 1.363 . S
C352 C357 1.379 . S
C352 N359 1.356 . S
C353 C352 1.363 . S
C353 C356 1.363 . S
N354 C356 1.356 . S
N354 H366 0.984 . S
N354 H367 0.985 . S
N355 C357 1.356 . S
N355 H360 0.984 . S
N355 H361 0.985 . S
C356 C350 1.379 . S
C356 C353 1.363 . S
C356 N354 1.356 . S
C357 C351 1.363 . S
C357 C352 1.379 . S
C357 N355 1.356 . S
N358 C350 1.356 . S
N358 H364 0.984 . S
N358 H365 0.984 . S
N359 C352 1.356 . S
N359 H362 0.984 . S
N359 H363 0.985 . S
H360 N355 0.984 . S
H361 N355 0.985 . S
H362 N359 0.984 . S
H363 N359 0.985 . S
H364 N358 0.984 . S
H365 N358 0.984 . S
H366 N354 0.984 . S
H367 N354 0.985 . S
C368 C369 1.363 . S
C368 C374 1.379 . S
C368 N376 1.356 . S
C369 C368 1.363 . S
C369 C375 1.363 . S
C370 C371 1.363 . S
C370 C375 1.379 . S
C370 N377 1.356 1_655 S
C371 C370 1.363 . S
C371 C374 1.363 . S
N372 C374 1.356 . S
N372 H384 0.984 . S
N372 H385 0.985 . S
N373 C375 1.356 . S
N373 H378 0.984 . S
N373 H379 0.985 1_655 S
C374 C368 1.379 . S
C374 C371 1.363 . S
C374 N372 1.356 . S
C375 C369 1.363 . S
C375 C370 1.379 . S
C375 N373 1.356 . S
N376 C368 1.356 . S
N376 H382 0.984 . S
N376 H383 0.984 . S
N377 C370 1.356 1_455 S
N377 H380 0.984 . S
N377 H381 0.985 . S
H378 N373 0.984 . S
H379 N373 0.985 1_455 S
H380 N377 0.984 . S
H381 N377 0.985 . S
H382 N376 0.984 . S
H383 N376 0.984 . S
H384 N372 0.984 . S
H385 N372 0.985 . S
C386 C387 1.363 . S
C386 C392 1.379 . S
C386 N394 1.356 . S
C387 C386 1.363 . S
C387 C393 1.363 . S
C388 C389 1.363 . S
C388 C393 1.379 . S
C388 N395 1.356 . S
C389 C388 1.363 . S
C389 C392 1.363 . S
N390 C392 1.356 . S
N390 H402 0.984 . S
N390 H403 0.985 . S
N391 C393 1.356 . S
N391 H396 0.984 . S
N391 H397 0.985 . S
C392 C386 1.379 . S
C392 C389 1.363 . S
C392 N390 1.356 . S
C393 C387 1.363 . S
C393 C388 1.379 . S
C393 N391 1.356 . S
N394 C386 1.356 . S
N394 H400 0.984 . S
N394 H401 0.984 . S
N395 C388 1.356 . S
N395 H398 0.984 . S
N395 H399 0.985 . S
H396 N391 0.984 . S
H397 N391 0.985 . S
H398 N395 0.984 . S
H399 N395 0.985 . S
H400 N394 0.984 . S
H401 N394 0.984 . S
H402 N390 0.984 . S
H403 N390 0.985 . S
C404 C405 1.363 . S
C404 C410 1.379 . S
C404 N412 1.356 . S
C405 C404 1.363 . S
C405 C411 1.363 . S
C406 C407 1.363 . S
C406 C411 1.379 . S
C406 N413 1.356 . S
C407 C406 1.363 . S
C407 C410 1.363 . S
N408 C410 1.356 1_655 S
N408 H420 0.984 . S
N408 H421 0.985 . S
N409 C411 1.356 . S
N409 H414 0.984 . S
N409 H415 0.985 . S
C410 C404 1.379 . S
C410 C407 1.363 . S
C410 N408 1.356 1_455 S
C411 C405 1.363 . S
C411 C406 1.379 . S
C411 N409 1.356 . S
N412 C404 1.356 . S
N412 H418 0.984 1_455 S
N412 H419 0.984 . S
N413 C406 1.356 . S
N413 H416 0.984 . S
N413 H417 0.985 . S
H414 N409 0.984 . S
H415 N409 0.985 . S
H416 N413 0.984 . S
H417 N413 0.985 . S
H418 N412 0.984 1_655 S
H419 N412 0.984 . S
H420 N408 0.984 . S
H421 N408 0.985 . S
C209 C177 1.753 . S
C207 C135 1.706 . S
C225 C15 1.707 . S
C227 C200 1.754 . S
C243 C55 1.724 . S
C245 C176 1.764 . S
C261 C95 1.709 . S
C263 C199 1.761 . S
C281 C180 1.751 . S
C279 C2 1.691 . S
C299 C202 1.737 . S
C297 C42 1.735 . S
C315 C82 1.709 . S
C317 C181 1.727 . S
C333 C141 1.602 . S
C335 C201 1.676 . S
C353 C204 1.756 . S
C351 C61 1.880 . S
C371 C179 1.768 . S
C369 C101 1.651 . S
C389 C203 1.778 . S
C387 C122 1.718 . S
C405 C21 1.629 . S
C407 C178 1.704 . S
