# Generated by pormake.
# Topology ocu, (6,8)-cn, num edge types: 1
# Building blocks:
#     Node 0, Type 0, BuildingBlock: KUMBOL_clean_sbu_1, # of connection points: 6
#     Node 1, Type 0, BuildingBlock: KUMBOL_clean_sbu_1, # of connection points: 6
#     Node 2, Type 0, BuildingBlock: KUMBOL_clean_sbu_1, # of connection points: 6
#     Node 3, Type 0, BuildingBlock: KUMBOL_clean_sbu_1, # of connection points: 6
#     Node 4, Type 0, BuildingBlock: KUMBOL_clean_sbu_1, # of connection points: 6
#     Node 5, Type 0, BuildingBlock: KUMBOL_clean_sbu_1, # of connection points: 6
#     Node 6, Type 0, BuildingBlock: KUMBOL_clean_sbu_1, # of connection points: 6
#     Node 7, Type 0, BuildingBlock: KUMBOL_clean_sbu_1, # of connection points: 6
#     Node 8, Type 1, BuildingBlock: VETTIZ_charged_sbu_0, # of connection points: 8
#     Node 9, Type 1, BuildingBlock: VETTIZ_charged_sbu_0, # of connection points: 8
#     Node 10, Type 1, BuildingBlock: VETTIZ_charged_sbu_0, # of connection points: 8
#     Node 11, Type 1, BuildingBlock: VETTIZ_charged_sbu_0, # of connection points: 8
#     Node 12, Type 1, BuildingBlock: VETTIZ_charged_sbu_0, # of connection points: 8
#     Node 13, Type 1, BuildingBlock: VETTIZ_charged_sbu_0, # of connection points: 8
#     Edge 14, Type (0, 1), BuildingBlock: AJUNOK_clean_linker_0, # of connection points: 2
#     Edge 15, Type (0, 1), BuildingBlock: AJUNOK_clean_linker_0, # of connection points: 2
#     Edge 16, Type (0, 1), BuildingBlock: AJUNOK_clean_linker_0, # of connection points: 2
#     Edge 17, Type (0, 1), BuildingBlock: AJUNOK_clean_linker_0, # of connection points: 2
#     Edge 18, Type (0, 1), BuildingBlock: AJUNOK_clean_linker_0, # of connection points: 2
#     Edge 19, Type (0, 1), BuildingBlock: AJUNOK_clean_linker_0, # of connection points: 2
#     Edge 20, Type (0, 1), BuildingBlock: AJUNOK_clean_linker_0, # of connection points: 2
#     Edge 21, Type (0, 1), BuildingBlock: AJUNOK_clean_linker_0, # of connection points: 2
#     Edge 22, Type (0, 1), BuildingBlock: AJUNOK_clean_linker_0, # of connection points: 2
#     Edge 23, Type (0, 1), BuildingBlock: AJUNOK_clean_linker_0, # of connection points: 2
#     Edge 24, Type (0, 1), BuildingBlock: AJUNOK_clean_linker_0, # of connection points: 2
#     Edge 25, Type (0, 1), BuildingBlock: AJUNOK_clean_linker_0, # of connection points: 2
#     Edge 26, Type (0, 1), BuildingBlock: AJUNOK_clean_linker_0, # of connection points: 2
#     Edge 27, Type (0, 1), BuildingBlock: AJUNOK_clean_linker_0, # of connection points: 2
#     Edge 28, Type (0, 1), BuildingBlock: AJUNOK_clean_linker_0, # of connection points: 2
#     Edge 29, Type (0, 1), BuildingBlock: AJUNOK_clean_linker_0, # of connection points: 2
#     Edge 30, Type (0, 1), BuildingBlock: AJUNOK_clean_linker_0, # of connection points: 2
#     Edge 31, Type (0, 1), BuildingBlock: AJUNOK_clean_linker_0, # of connection points: 2
#     Edge 32, Type (0, 1), BuildingBlock: AJUNOK_clean_linker_0, # of connection points: 2
#     Edge 33, Type (0, 1), BuildingBlock: AJUNOK_clean_linker_0, # of connection points: 2
#     Edge 34, Type (0, 1), BuildingBlock: AJUNOK_clean_linker_0, # of connection points: 2
#     Edge 35, Type (0, 1), BuildingBlock: AJUNOK_clean_linker_0, # of connection points: 2
#     Edge 36, Type (0, 1), BuildingBlock: AJUNOK_clean_linker_0, # of connection points: 2
#     Edge 37, Type (0, 1), BuildingBlock: AJUNOK_clean_linker_0, # of connection points: 2
#     Edge 38, Type (0, 1), BuildingBlock: AJUNOK_clean_linker_0, # of connection points: 2
#     Edge 39, Type (0, 1), BuildingBlock: AJUNOK_clean_linker_0, # of connection points: 2
#     Edge 40, Type (0, 1), BuildingBlock: AJUNOK_clean_linker_0, # of connection points: 2
#     Edge 41, Type (0, 1), BuildingBlock: AJUNOK_clean_linker_0, # of connection points: 2
#     Edge 42, Type (0, 1), BuildingBlock: AJUNOK_clean_linker_0, # of connection points: 2
#     Edge 43, Type (0, 1), BuildingBlock: AJUNOK_clean_linker_0, # of connection points: 2
#     Edge 44, Type (0, 1), BuildingBlock: AJUNOK_clean_linker_0, # of connection points: 2
#     Edge 45, Type (0, 1), BuildingBlock: AJUNOK_clean_linker_0, # of connection points: 2
#     Edge 46, Type (0, 1), BuildingBlock: AJUNOK_clean_linker_0, # of connection points: 2
#     Edge 47, Type (0, 1), BuildingBlock: AJUNOK_clean_linker_0, # of connection points: 2
#     Edge 48, Type (0, 1), BuildingBlock: AJUNOK_clean_linker_0, # of connection points: 2
#     Edge 49, Type (0, 1), BuildingBlock: AJUNOK_clean_linker_0, # of connection points: 2
#     Edge 50, Type (0, 1), BuildingBlock: AJUNOK_clean_linker_0, # of connection points: 2
#     Edge 51, Type (0, 1), BuildingBlock: AJUNOK_clean_linker_0, # of connection points: 2
#     Edge 52, Type (0, 1), BuildingBlock: AJUNOK_clean_linker_0, # of connection points: 2
#     Edge 53, Type (0, 1), BuildingBlock: AJUNOK_clean_linker_0, # of connection points: 2
#     Edge 54, Type (0, 1), BuildingBlock: AJUNOK_clean_linker_0, # of connection points: 2
#     Edge 55, Type (0, 1), BuildingBlock: AJUNOK_clean_linker_0, # of connection points: 2
#     Edge 56, Type (0, 1), BuildingBlock: AJUNOK_clean_linker_0, # of connection points: 2
#     Edge 57, Type (0, 1), BuildingBlock: AJUNOK_clean_linker_0, # of connection points: 2
#     Edge 58, Type (0, 1), BuildingBlock: AJUNOK_clean_linker_0, # of connection points: 2
#     Edge 59, Type (0, 1), BuildingBlock: AJUNOK_clean_linker_0, # of connection points: 2
#     Edge 60, Type (0, 1), BuildingBlock: AJUNOK_clean_linker_0, # of connection points: 2
#     Edge 61, Type (0, 1), BuildingBlock: AJUNOK_clean_linker_0, # of connection points: 2
# Relax obj value: 0.100
# Max RMSD: 0.136
# Mean RMSD: 0.108
data_MOF--net-ocu--node1-KUMBOL_clean_sbu_1--node2-VETTIZ_charged_sbu_0--edge1-AJUNOK_clean_linker_0
_symmetry_space_group_name_H-M    P1
_symmetry_Int_Tables_number       1
_symmetry_cell_setting            triclinic
loop_
_symmetry_equiv_pos_as_xyz
'x, y, z'
_cell_length_a     29.892526
_cell_length_b     31.0169
_cell_length_c     31.926069
_cell_angle_alpha  103.10602
_cell_angle_beta   77.518333
_cell_angle_gamma 107.5061
loop_
_atom_site_label
_atom_site_type_symbol
_atom_site_fract_x
_atom_site_fract_y
_atom_site_fract_z
_atom_type_partial_charge
C0 C 0.3724 0.3938 0.38814 0.0
C1 C 0.32426 0.3866 0.45929 0.0
C2 C 0.33725 0.36766 0.41539 0.0
C3 C 0.34624 0.43256 0.47509 0.0
C4 C 0.3948 0.43986 0.40403 0.0
C5 C 0.38119 0.45919 0.44748 0.0
N6 N 0.38555 0.37384 0.34652 0.0
C7 C 0.42168 0.39773 0.31946 0.0
C8 C 0.43083 0.4649 0.376 0.0
C9 C 0.44448 0.44365 0.33363 0.0
Gd10 Gd 0.24402 0.25859 0.25579 0.0
Gd11 Gd 0.34459 0.29661 0.32656 0.0
N12 N 0.31639 0.32335 0.39912 0.0
C13 C 0.29034 0.3584 0.48619 0.0
C14 C 0.28524 0.29519 0.42561 0.0
C15 C 0.27105 0.31237 0.46934 0.0
H16 H 0.27244 0.25931 0.41331 0.0
H17 H 0.24591 0.28991 0.49018 0.0
H18 H 0.32414 0.28761 0.16892 0.0
H19 H 0.43387 0.3813 0.28721 0.0
H20 H 0.35029 0.25141 0.09394 0.0
H21 H 0.27974 0.37145 0.52022 0.0
H22 H 0.33691 0.44771 0.50875 0.0
H23 H 0.14759 0.1817 0.29632 0.0
H24 H 0.44888 0.50038 0.38698 0.0
H25 H 0.47297 0.46246 0.31201 0.0
H26 H 0.24631 0.09867 0.07992 0.0
H27 H 0.39805 0.4945 0.46025 0.0
H28 H 0.12602 0.05866 0.20126 0.0
H29 H 0.10279 0.10154 0.27416 0.0
N30 N 0.19742 0.18335 0.23759 0.0
C31 C 0.21021 0.16075 0.19707 0.0
C32 C 0.15897 0.16291 0.26495 0.0
C33 C 0.1463 0.09362 0.21108 0.0
C34 C 0.13312 0.11768 0.25229 0.0
C35 C 0.18494 0.11524 0.18271 0.0
H36 H 0.17966 0.05799 0.12885 0.0
N37 N 0.27198 0.22735 0.1844 0.0
C38 C 0.24808 0.18359 0.16943 0.0
C39 C 0.29907 0.18624 0.09961 0.0
C40 C 0.26142 0.16165 0.12676 0.0
C41 C 0.30714 0.25223 0.1575 0.0
C42 C 0.32174 0.23186 0.11494 0.0
O43 O 0.28795 0.33832 0.34485 0.0
O44 O 0.21954 0.28629 0.32632 0.0
O45 O 0.23083 0.31291 0.23104 0.0
O46 O 0.17425 0.2519 0.24107 0.0
O47 O 0.29261 0.22557 0.33095 0.0
O48 O 0.22133 0.23101 0.31989 0.0
O49 O 0.301 0.21706 0.23597 0.0
O50 O 0.36968 0.26682 0.25676 0.0
O51 O 0.36343 0.24431 0.34883 0.0
O52 O 0.41571 0.30893 0.34052 0.0
O53 O 0.29736 0.32917 0.25227 0.0
O54 O 0.36774 0.32109 0.26191 0.0
C55 C 0.24097 0.32545 0.34851 0.0
C56 C 0.24588 0.21167 0.33615 0.0
C57 C 0.1734 0.28903 0.18375 0.0
C58 C 0.15363 0.32777 0.13392 0.0
C59 C 0.15528 0.24778 0.11246 0.0
C60 C 0.16777 0.24872 0.15236 0.0
C61 C 0.14844 0.28698 0.10318 0.0
C62 C 0.16587 0.32857 0.17448 0.0
C63 C 0.18741 0.29019 0.22588 0.0
C64 C 0.23664 0.11616 0.11254 0.0
C65 C 0.1986 0.09298 0.14044 0.0
H66 H 0.31046 0.17056 0.06661 0.0
C67 C 0.34792 0.22851 0.23354 0.0
C68 C 0.34414 0.34062 0.24511 0.0
C69 C 0.42216 0.27009 0.39419 0.0
C70 C 0.44367 0.22765 0.43898 0.0
C71 C 0.4513 0.30957 0.46169 0.0
C72 C 0.43404 0.31043 0.42471 0.0
C73 C 0.45644 0.26855 0.46871 0.0
C74 C 0.4269 0.22886 0.40156 0.0
C75 C 0.40601 0.26994 0.35382 0.0
H76 H 0.15105 0.21654 0.0885 0.0
H77 H 0.17296 0.21787 0.15862 0.0
H78 H 0.13885 0.28541 0.07193 0.0
H79 H 0.17029 0.35995 0.19833 0.0
H80 H 0.46114 0.34091 0.48476 0.0
H81 H 0.43055 0.34261 0.41978 0.0
H82 H 0.4711 0.26891 0.49702 0.0
H83 H 0.41763 0.19767 0.37801 0.0
C84 C 0.88263 0.18249 0.18549 0.0
C85 C 0.96367 0.23072 0.17735 0.0
C86 C 0.9172 0.22063 0.20093 0.0
C87 C 0.97474 0.20225 0.1378 0.0
C88 C 0.89363 0.15377 0.14584 0.0
C89 C 0.9398 0.16395 0.12205 0.0
N90 N 0.83831 0.17346 0.20921 0.0
C91 C 0.80345 0.13602 0.19549 0.0
C92 C 0.8579 0.11561 0.13131 0.0
C93 C 0.81265 0.10666 0.15631 0.0
Gd94 Gd 0.76194 0.32419 0.29368 0.0
Gd95 Gd 0.82648 0.22529 0.27388 0.0
N96 N 0.90512 0.24825 0.23875 0.0
C97 C 0.9977 0.26903 0.19432 0.0
C98 C 0.9384 0.28493 0.25605 0.0
C99 C 0.98505 0.29606 0.23398 0.0
H100 H 0.9292 0.30573 0.2868 0.0
H101 H 1.01126 0.32538 0.24768 0.0
H102 H 0.66807 0.25836 0.24349 0.0
H103 H 0.76864 0.1283 0.21507 0.0
H104 H 0.58414 0.21963 0.26419 0.0
H105 H 1.03387 0.27773 0.17729 0.0
H106 H 1.01024 0.20954 0.11917 0.0
H107 H 0.79551 0.39881 0.38168 0.0
H108 H 0.86494 0.09274 0.10101 0.0
H109 H 0.78492 0.07701 0.14554 0.0
H110 H 0.55105 0.27596 0.417 0.0
H111 H 0.94888 0.14231 0.0915 0.0
H112 H 0.67586 0.38883 0.48426 0.0
H113 H 0.76047 0.42356 0.45764 0.0
N114 N 0.7314 0.35064 0.36576 0.0
C115 C 0.68458 0.33182 0.37935 0.0
C116 C 0.75859 0.38341 0.39308 0.0
C117 C 0.69101 0.37794 0.45089 0.0
C118 C 0.73882 0.39757 0.43603 0.0
C119 C 0.66323 0.34464 0.4225 0.0
H120 H 0.59806 0.33309 0.46902 0.0
N121 N 0.67999 0.28747 0.30855 0.0
C122 C 0.6583 0.29894 0.35009 0.0
C123 C 0.58311 0.24884 0.33221 0.0
C124 C 0.60952 0.27914 0.3632 0.0
C125 C 0.6532 0.26166 0.27746 0.0
C126 C 0.60485 0.24089 0.28894 0.0
O127 O 0.84876 0.26942 0.22047 0.0
O128 O 0.83761 0.3382 0.25909 0.0
O129 O 0.73922 0.35035 0.24669 0.0
O130 O 0.76428 0.3964 0.30366 0.0
O131 O 0.84622 0.28492 0.32993 0.0
O132 O 0.83362 0.35012 0.31602 0.0
O133 O 0.75186 0.28504 0.3487 0.0
O134 O 0.75081 0.21574 0.30662 0.0
O135 O 0.85286 0.2174 0.32939 0.0
O136 O 0.82546 0.1577 0.28268 0.0
O137 O 0.75327 0.26924 0.23199 0.0
O138 O 0.75396 0.20304 0.25229 0.0
C139 C 0.85516 0.31384 0.22366 0.0
C140 C 0.85243 0.32988 0.3373 0.0
C141 C 0.70569 0.413 0.27452 0.0
C142 C 0.65686 0.43915 0.23851 0.0
C143 C 0.65497 0.4607 0.31707 0.0
C144 C 0.68805 0.43631 0.31481 0.0
C145 C 0.63997 0.46275 0.27919 0.0
C146 C 0.68851 0.41307 0.237 0.0
C147 C 0.74457 0.3914 0.26975 0.0
C148 C 0.58831 0.29119 0.40637 0.0
C149 C 0.61507 0.32386 0.43594 0.0
H150 H 0.54554 0.23309 0.34093 0.0
C151 C 0.73915 0.24037 0.34411 0.0
C152 C 0.74182 0.22394 0.22657 0.0
C153 C 0.88733 0.15519 0.31734 0.0
C154 C 0.94122 0.14248 0.35865 0.0
C155 C 0.94161 0.10857 0.28175 0.0
C156 C 0.90656 0.12885 0.27983 0.0
C157 C 0.9582 0.11458 0.32081 0.0
C158 C 0.90515 0.16232 0.35661 0.0
C159 C 0.84722 0.17339 0.31646 0.0
H160 H 0.64187 0.4791 0.34812 0.0
H161 H 0.70024 0.43626 0.34436 0.0
H162 H 0.61604 0.48372 0.28173 0.0
H163 H 0.70079 0.39332 0.2064 0.0
H164 H 0.95537 0.08735 0.25297 0.0
H165 H 0.89389 0.12304 0.24917 0.0
H166 H 0.98374 0.09639 0.32142 0.0
H167 H 0.89064 0.18294 0.38551 0.0
C168 C 0.91553 0.86914 0.20689 0.0
C169 C 0.92027 0.82809 0.13215 0.0
C170 C 0.89552 0.83409 0.17508 0.0
C171 C 0.96561 0.85731 0.12172 0.0
C172 C 0.96112 0.89844 0.19642 0.0
C173 C 0.98611 0.89212 0.15382 0.0
N174 N 0.88998 0.87541 0.24759 0.0
C175 C 0.90736 0.91112 0.2788 0.0
C176 C 0.9799 0.93389 0.22885 0.0
C177 C 0.95281 0.94036 0.27012 0.0
Gd178 Gd 0.77393 0.72774 0.33185 0.0
Gd179 Gd 0.8132 0.82586 0.25657 0.0
N180 N 0.85195 0.80565 0.18619 0.0
C181 C 0.89878 0.7927 0.10102 0.0
C182 C 0.82986 0.77251 0.15558 0.0
C183 C 0.85332 0.76491 0.11276 0.0
H184 H 0.79415 0.75212 0.16423 0.0
H185 H 0.83608 0.73808 0.08871 0.0
H186 H 0.81728 0.78558 0.42254 0.0
H187 H 0.88599 0.91812 0.31014 0.0
H188 H 0.78723 0.8091 0.49996 0.0
H189 H 0.91673 0.78691 0.06775 0.0
H190 H 0.98526 0.85306 0.08896 0.0
H191 H 0.6796 0.6582 0.2858 0.0
H192 H 1.01484 0.95704 0.22209 0.0
H193 H 0.96657 0.96844 0.29503 0.0
H194 H 0.61969 0.73776 0.51247 0.0
H195 H 1.02115 0.91434 0.14523 0.0
H196 H 0.55768 0.64701 0.38516 0.0
H197 H 0.59396 0.62741 0.30849 0.0
N198 N 0.69143 0.69869 0.34774 0.0
C199 C 0.67248 0.70909 0.3904 0.0
C200 C 0.66406 0.66911 0.31868 0.0
C201 C 0.59525 0.66164 0.37509 0.0
C202 C 0.61553 0.65072 0.33173 0.0
C203 C 0.6238 0.69069 0.40513 0.0
H204 H 0.56777 0.68799 0.46107 0.0
N205 N 0.74902 0.75514 0.40486 0.0
C206 C 0.70192 0.73829 0.41956 0.0
C207 C 0.71424 0.77539 0.49289 0.0
C208 C 0.68322 0.74858 0.46403 0.0
C209 C 0.77965 0.77852 0.43332 0.0
C210 C 0.76271 0.79019 0.47753 0.0
O211 O 0.85861 0.77323 0.2335 0.0
O212 O 0.82813 0.71248 0.27203 0.0
O213 O 0.80871 0.70083 0.37031 0.0
O214 O 0.75286 0.65497 0.33405 0.0
O215 O 0.74662 0.76741 0.25102 0.0
O216 O 0.76111 0.70361 0.26331 0.0
O217 O 0.72546 0.77743 0.34221 0.0
O218 O 0.77474 0.84605 0.32457 0.0
O219 O 0.75832 0.83384 0.22559 0.0
O220 O 0.81881 0.89099 0.23866 0.0
O221 O 0.84423 0.78102 0.33693 0.0
O222 O 0.83241 0.84673 0.32484 0.0
C223 C 0.85847 0.73268 0.24081 0.0
C224 C 0.74411 0.72349 0.24075 0.0
C225 C 0.78574 0.61912 0.37589 0.0
C226 C 0.82928 0.581 0.40593 0.0
C227 C 0.74879 0.54221 0.39207 0.0
C228 C 0.74684 0.58006 0.37654 0.0
C229 C 0.78968 0.54254 0.40659 0.0
C230 C 0.82694 0.61951 0.3908 0.0
C231 C 0.78255 0.65916 0.36004 0.0
C232 C 0.63468 0.73048 0.47852 0.0
C233 C 0.60508 0.70177 0.44921 0.0
H234 H 0.70156 0.78325 0.52734 0.0
C235 C 0.7344 0.82255 0.34471 0.0
C236 C 0.85076 0.82559 0.34563 0.0
C237 C 0.74878 0.90913 0.23369 0.0
C238 C 0.70228 0.95001 0.21002 0.0
C239 C 0.71619 0.96684 0.28528 0.0
C240 C 0.74205 0.93419 0.27589 0.0
C241 C 0.69686 0.97504 0.25267 0.0
C242 C 0.7288 0.91711 0.20075 0.0
C243 C 0.77904 0.87686 0.22315 0.0
H244 H 0.71845 0.51251 0.39293 0.0
H245 H 0.71462 0.57895 0.3655 0.0
H246 H 0.79055 0.51247 0.41797 0.0
H247 H 0.85698 0.64964 0.39076 0.0
H248 H 0.71172 0.98641 0.31789 0.0
H249 H 0.75779 0.92921 0.30128 0.0
H250 H 0.67832 1.00167 0.26078 0.0
H251 H 0.73404 0.89788 0.16803 0.0
C252 C 0.35119 0.71214 0.36945 0.0
C253 C 0.29443 0.63777 0.37304 0.0
C254 C 0.3156 0.67633 0.35233 0.0
C255 C 0.31 0.63545 0.41074 0.0
C256 C 0.367 0.70986 0.40727 0.0
C257 C 0.34634 0.67128 0.42769 0.0
N258 N 0.37024 0.74921 0.34923 0.0
C259 C 0.40615 0.7846 0.36445 0.0
C260 C 0.40306 0.74649 0.42354 0.0
C261 C 0.42285 0.78391 0.4019 0.0
Gd262 Gd 0.25366 0.81751 0.27815 0.0
Gd263 Gd 0.34048 0.74638 0.28594 0.0
N264 N 0.3009 0.67975 0.316 0.0
C265 C 0.25819 0.60267 0.35522 0.0
C266 C 0.2667 0.6449 0.29769 0.0
C267 C 0.24447 0.60617 0.31727 0.0
H268 H 0.25641 0.6466 0.26797 0.0
H269 H 0.21694 0.57889 0.30292 0.0
H270 H 0.19787 0.85014 0.3784 0.0
H271 H 0.42275 0.81304 0.3472 0.0
H272 H 0.20593 0.92015 0.43491 0.0
H273 H 0.2409 0.57258 0.37026 0.0
H274 H 0.29414 0.60609 0.42706 0.0
H275 H 0.29579 0.8561 0.18186 0.0
H276 H 0.4161 0.74605 0.45254 0.0
H277 H 0.45121 0.81211 0.41386 0.0
H278 H 0.3233 0.03621 0.36387 0.0
H279 H 0.35795 0.669 0.45681 0.0
H280 H 0.37185 0.99743 0.2103 0.0
H281 H 0.34589 0.92746 0.15664 0.0
N282 N 0.29867 0.88368 0.24907 0.0
C283 C 0.30657 0.92313 0.27881 0.0
C284 C 0.30855 0.88588 0.20561 0.0
C285 C 0.3507 0.9659 0.22156 0.0
C286 C 0.33621 0.9265 0.19116 0.0
C287 C 0.33419 0.96509 0.26597 0.0
H288 H 0.36349 0.03768 0.28817 0.0
N289 N 0.25171 0.88286 0.33157 0.0
C290 C 0.28237 0.92273 0.32126 0.0
C291 C 0.25999 0.96237 0.39369 0.0
C292 C 0.2874 0.96362 0.35218 0.0
C293 C 0.22279 0.88191 0.37106 0.0
C294 C 0.22729 0.92143 0.403 0.0
O295 O 0.27708 0.74279 0.34095 0.0
O296 O 0.21933 0.77561 0.33209 0.0
O297 O 0.19626 0.84681 0.27895 0.0
O298 O 0.20518 0.78831 0.23049 0.0
O299 O 0.29275 0.71622 0.23242 0.0
O300 O 0.22774 0.74013 0.26753 0.0
O301 O 0.30866 0.80234 0.21961 0.0
O302 O 0.36836 0.81006 0.25531 0.0
O303 O 0.36719 0.70184 0.23001 0.0
O304 O 0.41301 0.74127 0.27726 0.0
O305 O 0.29367 0.84073 0.33805 0.0
O306 O 0.36347 0.82254 0.30839 0.0
C307 C 0.23547 0.75249 0.35303 0.0
C308 C 0.24734 0.71404 0.23511 0.0
C309 C 0.12707 0.79102 0.2611 0.0
C310 C 0.05951 0.78591 0.31901 0.0
C311 C 0.04729 0.75809 0.24391 0.0
C312 C 0.09652 0.77185 0.23008 0.0
C313 C 1.02857 0.76709 0.28823 0.0
C314 C 0.10835 0.79299 0.30511 0.0
C315 C 0.17741 0.81439 0.2492 0.0
C316 C 0.3185 1.00455 0.3404 0.0
C317 C 0.34164 1.00535 0.29732 0.0
H318 H 0.26305 0.99301 0.41843 0.0
C319 C 0.35417 0.81149 0.21992 0.0
C320 C 0.33868 0.84502 0.33963 0.0
C321 C 0.44299 0.74423 0.20295 0.0
C322 C 0.4613 0.74679 0.12517 0.0
C323 C 0.49605 0.8126 0.17671 0.0
C324 C 0.47207 0.78929 0.21133 0.0
C325 C 0.4905 0.79163 0.13371 0.0
C326 C 0.43865 0.72356 0.16024 0.0
C327 C 0.41087 0.72018 0.2374 0.0
H328 H 1.02358 0.74345 0.22019 0.0
H329 H 0.11045 0.76878 0.19559 0.0
H330 H 0.99059 0.76197 0.29814 0.0
H331 H 0.13237 0.80769 0.3288 0.0
H332 H 0.51854 0.84719 0.18325 0.0
H333 H 0.47545 0.80684 0.24439 0.0
H334 H 0.50985 0.80973 0.10723 0.0
H335 H 0.41747 0.6883 0.15475 0.0
C336 C 0.38851 0.72755 0.66724 0.0
C337 C 0.46931 0.77527 0.66932 0.0
C338 C 0.42366 0.75563 0.69082 0.0
C339 C 0.47858 0.76781 0.62361 0.0
C340 C 0.39843 0.7183 0.6213 0.0
C341 C 0.44314 0.73954 0.59965 0.0
N342 N 0.34574 0.70709 0.68922 0.0
C343 C 0.3145 0.67213 0.66722 0.0
C344 C 0.36386 0.68647 0.59854 0.0
C345 C 0.32221 0.66244 0.62168 0.0
Gd346 Gd 0.25267 0.81529 0.79479 0.0
Gd347 Gd 0.33569 0.72892 0.7661 0.0
N348 N 0.41325 0.76351 0.73501 0.0
C349 C 0.50437 0.80153 0.69446 0.0
C350 C 0.44766 0.78766 0.75975 0.0
C351 C 0.49362 0.80738 0.73988 0.0
H352 H 0.43945 0.79199 0.79479 0.0
H353 H 0.52071 0.82704 0.75956 0.0
H354 H 0.16033 0.74999 0.74147 0.0
H355 H 0.28404 0.65061 0.68447 0.0
H356 H 0.08257 0.69578 0.75953 0.0
H357 H 0.53995 0.81677 0.67912 0.0
H358 H 0.51326 0.7831 0.6065 0.0
H359 H 0.27568 0.88924 0.88572 0.0
H360 H 0.37004 0.67846 0.56328 0.0
H361 H 0.29649 0.63568 0.60452 0.0
H362 H 0.05277 0.72312 0.91558 0.0
H363 H 0.45115 0.7332 0.56439 0.0
H364 H 0.16286 0.84903 0.98928 0.0
H365 H 0.24026 0.90078 0.96373 0.0
N366 N 0.21905 0.83195 0.86794 0.0
C367 C 0.17546 0.80482 0.88079 0.0
C368 C 0.24187 0.86682 0.89673 0.0
C369 C 0.17803 0.84425 0.95506 0.0
C370 C 0.2218 0.87345 0.94078 0.0
C371 C 0.15421 0.80942 0.92492 0.0
H372 H 0.09368 0.78136 0.97126 0.0
N373 N 0.17327 0.77026 0.80704 0.0
C374 C 0.15239 0.77223 0.84948 0.0
C375 C 0.08299 0.71385 0.82874 0.0
C376 C 0.10713 0.74339 0.86156 0.0
C377 C 0.14717 0.74609 0.77496 0.0
C378 C 0.10233 0.71635 0.78518 0.0
O379 O 0.36151 0.79998 0.74828 0.0
O380 O 0.29614 0.80561 0.72785 0.0
O381 O 0.20432 0.84985 0.78281 0.0
O382 O 0.27646 0.88775 0.79003 0.0
O383 O 0.34954 0.78258 0.8275 0.0
O384 O 0.32349 0.84509 0.8225 0.0
O385 O 0.25613 0.7768 0.84655 0.0
O386 O 0.26318 0.70721 0.80726 0.0
O387 O 0.36584 0.70242 0.80924 0.0
O388 O 0.35365 0.66444 0.74433 0.0
O389 O 0.24544 0.76181 0.73288 0.0
O390 O 0.2605 0.6999 0.74979 0.0
C391 C 0.34219 0.81273 0.72174 0.0
C392 C 0.34965 0.82664 0.83885 0.0
C393 C 0.24418 0.90146 0.73349 0.0
C394 C 0.21387 0.90097 0.66736 0.0
C395 C 0.29716 0.93681 0.67396 0.0
C396 C 0.28953 0.92536 0.71513 0.0
C397 C 0.25985 0.92476 0.65029 0.0
C398 C 0.20603 0.88991 0.70948 0.0
C399 C 0.23795 0.88677 0.7763 0.0
C400 C 0.08691 0.74592 0.90576 0.0
C401 C 0.11021 0.7791 0.93739 0.0
H402 H 0.04858 0.6907 0.83676 0.0
C403 C 0.24606 0.73201 0.84282 0.0
C404 C 0.23945 0.71728 0.72791 0.0
C405 C 0.38837 0.62928 0.78456 0.0
C406 C 0.42532 0.59593 0.82581 0.0
C407 C 0.40876 0.55706 0.75353 0.0
C408 C 0.3898 0.59186 0.75022 0.0
C409 C 0.4265 0.55903 0.79103 0.0
C410 C 0.40625 0.63114 0.82239 0.0
C411 C 0.3695 0.66646 0.77964 0.0
H412 H 0.33232 0.95505 0.66023 0.0
H413 H 0.31952 0.93487 0.73235 0.0
H414 H 0.2669 0.93474 0.61861 0.0
H415 H 0.17073 0.87173 0.72303 0.0
H416 H 0.40951 0.52835 0.727 0.0
H417 H 0.37641 0.58946 0.72061 0.0
H418 H 0.44031 0.5312 0.79323 0.0
H419 H 0.40565 0.6599 0.84895 0.0
C420 C 0.40875 0.35644 0.67986 0.0
C421 C 0.40324 0.3167 0.60561 0.0
C422 C 0.38282 0.32477 0.64982 0.0
C423 C 0.45058 0.34011 0.59229 0.0
C424 C 0.45595 0.38083 0.66641 0.0
C425 C 0.47685 0.37212 0.6226 0.0
N426 N 0.38716 0.36471 0.72183 0.0
C427 C 0.4101 0.39865 0.75132 0.0
C428 C 0.48037 0.41402 0.69718 0.0
C429 C 0.45714 0.42327 0.73975 0.0
Gd430 Gd 0.26883 0.2267 0.81515 0.0
Gd431 Gd 0.30737 0.32267 0.7374 0.0
N432 N 0.33705 0.30289 0.66366 0.0
C433 C 0.37497 0.28628 0.57599 0.0
C434 C 0.30867 0.27572 0.63454 0.0
C435 C 0.32731 0.26605 0.59046 0.0
H436 H 0.27131 0.26332 0.645 0.0
H437 H 0.30462 0.244 0.56753 0.0
H438 H 0.29972 0.31124 0.89938 0.0
H439 H 0.39186 0.40801 0.78338 0.0
H440 H 0.26173 0.34228 0.97177 0.0
H441 H 0.38897 0.27945 0.54174 0.0
H442 H 0.46707 0.33421 0.5586 0.0
H443 H 0.1827 0.14266 0.76967 0.0
H444 H 0.51665 0.4335 0.68815 0.0
H445 H 0.47511 0.44997 0.76347 0.0
H446 H 0.1021 0.2459 0.98537 0.0
H447 H 0.51313 0.39036 0.61171 0.0
H448 H 0.05573 0.1297 0.86384 0.0
H449 H 0.09782 0.10526 0.79066 0.0
N450 N 0.18808 0.18935 0.8297 0.0
C451 C 0.16578 0.20316 0.87038 0.0
C452 C 0.1645 0.1545 0.8013 0.0
C453 C 0.09291 0.14662 0.85471 0.0
C454 C 0.11651 0.13284 0.81327 0.0
C455 C 0.11747 0.1821 0.88387 0.0
H456 H 0.05796 0.18155 0.93658 0.0
N457 N 0.23696 0.26089 0.88373 0.0
C458 C 0.19089 0.23968 0.8982 0.0
C459 C 0.19379 0.29334 0.9662 0.0
C460 C 0.16802 0.25569 0.93978 0.0
C461 C 0.2627 0.29643 0.90993 0.0
C462 C 0.24136 0.31363 0.95128 0.0
O463 O 0.35561 0.27301 0.71764 0.0
O464 O 0.32071 0.21048 0.75382 0.0
O465 O 0.3068 0.21246 0.85947 0.0
O466 O 0.25595 0.15719 0.8266 0.0
O467 O 0.24168 0.26273 0.73148 0.0
O468 O 0.25546 0.19924 0.74593 0.0
O469 O 0.21874 0.27386 0.82219 0.0
O470 O 0.27042 0.34121 0.8065 0.0
O471 O 0.2577 0.33998 0.707 0.0
O472 O 0.31239 0.3934 0.7379 0.0
O473 O 0.3395 0.2795 0.81996 0.0
O474 O 0.32644 0.34249 0.8041 0.0
C475 C 0.35348 0.23172 0.72452 0.0
C476 C 0.24159 0.21925 0.72067 0.0
C477 C 0.32229 0.13912 0.84191 0.0
C478 C 0.37729 0.10811 0.86615 0.0
C479 C 0.3622 0.0858 0.79127 0.0
C480 C 0.33026 0.1128 0.8004 0.0
C481 C 0.38561 0.08348 0.82377 0.0
C482 C 0.34599 0.13663 0.87477 0.0
C483 C 0.28859 0.16822 0.85132 0.0
C484 C 0.12017 0.23411 0.95348 0.0
C485 C 0.09502 0.19743 0.92567 0.0
H486 H 0.17737 0.30688 0.99819 0.0
C487 C 0.22906 0.31901 0.8258 0.0
C488 C 0.35021 0.32392 0.82146 0.0
C489 C 0.28737 0.41069 0.68038 0.0
C490 C 0.25698 0.45205 0.64148 0.0
C491 C 0.34178 0.45894 0.63082 0.0
C492 C 0.33374 0.42891 0.65985 0.0
C493 C 0.30378 0.47096 0.62203 0.0
C494 C 0.24919 0.42199 0.67079 0.0
C495 C 0.27842 0.38386 0.71511 0.0
H496 H 0.36814 0.06585 0.75903 0.0
H497 H 0.31126 0.11263 0.77516 0.0
H498 H 0.40902 0.06109 0.8161 0.0
H499 H 0.33967 0.15648 0.90704 0.0
H500 H 0.37763 0.4735 0.6156 0.0
H501 H 0.36382 0.42102 0.66709 0.0
H502 H 0.31108 0.49525 0.60024 0.0
H503 H 0.2134 0.40755 0.68643 0.0
C504 C 0.79919 0.20039 0.88262 0.0
C505 C 0.75815 0.11917 0.86788 0.0
C506 C 0.78185 0.16109 0.85319 0.0
C507 C 0.7507 0.11746 0.91245 0.0
C508 C 0.79348 0.19798 0.92721 0.0
C509 C 0.76793 0.15681 0.94209 0.0
N510 N 0.82477 0.23976 0.86722 0.0
C511 C 0.85155 0.27441 0.89343 0.0
C512 C 0.81574 0.23631 0.95523 0.0
C513 C 0.84596 0.27426 0.93801 0.0
Gd514 Gd 0.74625 0.31235 0.78553 0.0
Gd515 Gd 0.82933 0.23546 0.79153 0.0
N516 N 0.7903 0.16323 0.80999 0.0
C517 C 0.74382 0.07981 0.83715 0.0
C518 C 0.77915 0.12449 0.77972 0.0
C519 C 0.75495 0.08238 0.79285 0.0
H520 H 0.78898 0.12593 0.74535 0.0
H521 H 0.74531 0.05185 0.76878 0.0
H522 H 0.73056 0.3772 0.88416 0.0
H523 H 0.87951 0.30068 0.87984 0.0
H524 H 0.74172 0.45965 0.91646 0.0
H525 H 0.72542 0.04703 0.8472 0.0
H526 H 0.73279 0.08547 0.92419 0.0
H527 H 0.72992 0.30192 0.6837 0.0
H528 H 0.81219 0.23585 0.98964 0.0
H529 H 0.86636 0.30266 0.95873 0.0
H530 H 0.77002 0.53365 0.79298 0.0
H531 H 0.76282 0.15459 0.97627 0.0
H532 H 0.75482 0.43585 0.65384 0.0
H533 H 0.73586 0.35143 0.63091 0.0
N534 N 0.74662 0.35766 0.7354 0.0
C535 C 0.75436 0.40345 0.74906 0.0
C536 C 0.73856 0.33868 0.69388 0.0
C537 C 0.75248 0.41426 0.677 0.0
C538 C 0.74175 0.36663 0.66395 0.0
C539 C 0.75801 0.43324 0.72032 0.0
H540 H 0.76854 0.50413 0.71464 0.0
N541 N 0.74673 0.3888 0.8191 0.0
C542 C 0.7547 0.41973 0.79266 0.0
C543 C 0.75586 0.48123 0.85449 0.0
C544 C 0.7594 0.46675 0.80942 0.0
C545 C 0.73955 0.40228 0.86321 0.0
C546 C 0.74528 0.44875 0.88155 0.0
O547 O 0.75044 0.22014 0.8127 0.0
O548 O 0.74063 0.28823 0.84905 0.0
O549 O 0.67291 0.31418 0.7922 0.0
O550 O 0.68937 0.24898 0.78111 0.0
O551 O 0.77786 0.20028 0.7425 0.0
O552 O 0.76297 0.26156 0.72409 0.0
O553 O 0.81104 0.32121 0.73287 0.0
O554 O 0.86534 0.28547 0.74379 0.0
O555 O 0.88114 0.20768 0.74241 0.0
O556 O 0.88106 0.21199 0.81129 0.0
O557 O 0.79374 0.34045 0.83925 0.0
O558 O 0.8592 0.31196 0.81366 0.0
C559 C 0.73317 0.24425 0.84817 0.0
C560 C 0.75729 0.21701 0.71941 0.0
C561 C 0.62418 0.25789 0.83345 0.0
C562 C 0.6057 0.27695 0.91247 0.0
C563 C 0.57084 0.20065 0.87489 0.0
C564 C 0.59487 0.21325 0.83481 0.0
C565 C 0.57638 0.23224 0.91374 0.0
C566 C 0.6287 0.28928 0.87218 0.0
C567 C 0.65628 0.27033 0.79362 0.0
C568 C 0.76592 0.49732 0.7808 0.0
C569 C 0.76511 0.48053 0.73623 0.0
H570 H 0.75993 0.51708 0.86875 0.0
C571 C 0.85281 0.31188 0.72357 0.0
C572 C 0.83885 0.34283 0.83894 0.0
C573 C 0.95436 0.23426 0.76902 0.0
C574 C 1.03542 0.24037 0.73368 0.0
C575 C 1.01627 0.30456 0.78573 0.0
C576 C 0.96847 0.27936 0.79194 0.0
C577 C 0.04987 0.28538 0.75584 0.0
C578 C 0.988 0.21479 0.74142 0.0
C579 C 0.90477 0.20723 0.7723 0.0
H580 H 0.54877 0.16605 0.87593 0.0
H581 H 0.59185 0.18793 0.80525 0.0
H582 H 0.55788 0.22184 0.94444 0.0
H583 H 0.65065 0.32396 0.87094 0.0
H584 H 1.02692 0.33935 0.80311 0.0
H585 H 0.94268 0.29513 0.81413 0.0
H586 H 0.08627 0.30567 0.74928 0.0
H587 H 0.97657 0.18024 0.7234 0.0
C588 C 0.86958 0.89218 0.88704 0.0
C589 C 0.80965 0.89047 0.95211 0.0
C590 C 0.82829 0.86896 0.91101 0.0
C591 C 0.83273 0.93588 0.96855 0.0
C592 C 0.89312 0.93759 0.90373 0.0
C593 C 0.87431 0.95937 0.94443 0.0
N594 N 0.8869 0.8703 0.84767 0.0
C595 C 0.92844 0.89125 0.82406 0.0
C596 C 0.93504 0.95971 0.87912 0.0
C597 C 0.9529 0.93633 0.83925 0.0
Gd598 Gd 0.74959 0.76068 0.74635 0.0
Gd599 Gd 0.84215 0.79533 0.82513 0.0
N600 N 0.80579 0.82554 0.89365 0.0
C601 C 0.76834 0.86566 0.97543 0.0
C602 C 0.76696 0.80037 0.91711 0.0
C603 C 0.74719 0.82026 0.95802 0.0
H604 H 0.75082 0.76523 0.90401 0.0
H605 H 0.71572 0.80055 0.97611 0.0
H606 H 0.83245 0.79575 0.66315 0.0
H607 H 0.94323 0.87309 0.79375 0.0
H608 H 0.86429 0.76355 0.58864 0.0
H609 H 0.75284 0.88103 1.00706 0.0
H610 H 0.8188 0.95309 0.99996 0.0
H611 H 0.65358 0.67897 0.78006 0.0
H612 H 0.95416 0.99461 0.89081 0.0
H613 H 0.98568 0.95292 0.82033 0.0
H614 H 0.76737 0.60821 0.5658 0.0
H615 H 0.89184 0.99432 0.95767 0.0
H616 H 0.64155 0.55957 0.68059 0.0
H617 H 0.61291 0.59859 0.75367 0.0
N618 N 0.70655 0.6848 0.72362 0.0
C619 C 0.72203 0.6644 0.6829 0.0
C620 C 0.66737 0.66199 0.74868 0.0
C621 C 0.66 0.59472 0.69226 0.0
C622 C 0.64379 0.61658 0.73357 0.0
C623 C 0.69929 0.61872 0.66617 0.0
H624 H 0.69925 0.56352 0.61061 0.0
N625 N 0.78173 0.73338 0.67487 0.0
C626 C 0.76039 0.68957 0.65756 0.0
C627 C 0.81533 0.69661 0.59022 0.0
C628 C 0.77707 0.66977 0.61497 0.0
C629 C 0.81759 0.76032 0.65026 0.0
C630 C 0.83535 0.74223 0.60782 0.0
O631 O 0.78778 0.83888 0.83693 0.0
O632 O 0.72039 0.78805 0.81572 0.0
O633 O 0.73709 0.81455 0.72053 0.0
O634 O 0.68021 0.75363 0.73154 0.0
O635 O 0.7916 0.72321 0.81893 0.0
O636 O 0.72231 0.73274 0.8095 0.0
O637 O 0.80528 0.71849 0.72932 0.0
O638 O 0.87233 0.76469 0.75709 0.0
O639 O 0.84475 0.74861 0.86524 0.0
O640 O 0.90931 0.79775 0.84302 0.0
O641 O 0.80593 0.82997 0.74516 0.0
O642 O 0.87417 0.82331 0.76189 0.0
C643 C 0.74098 0.82687 0.83885 0.0
C644 C 0.74497 0.71174 0.8257 0.0
C645 C 0.67685 0.79145 0.67623 0.0
C646 C 0.65015 0.83148 0.6328 0.0
C647 C 0.64466 0.74988 0.61058 0.0
C648 C 0.66494 0.75061 0.64627 0.0
C649 C 0.63655 0.78983 0.60432 0.0
C650 C 0.66981 0.83191 0.66916 0.0
C651 C 0.69331 0.79197 0.71658 0.0
C652 C 0.75495 0.62408 0.5984 0.0
C653 C 0.71617 0.59863 0.62394 0.0
H654 H 0.82918 0.68267 0.55734 0.0
C655 C 0.85154 0.72912 0.73 0.0
C656 C 0.8528 0.84139 0.74094 0.0
C657 C 0.91502 0.72546 0.85175 0.0
C658 C 0.93826 0.6658 0.87437 0.0
C659 C 0.95401 0.67394 0.7979 0.0
C660 C 0.93377 0.71086 0.80843 0.0
C661 C 0.95607 0.65144 0.83043 0.0
C662 C 0.91692 0.70261 0.88452 0.0
C663 C 0.89073 0.76248 0.86287 0.0
H664 H 0.63451 0.71814 0.58808 0.0
H665 H 0.67018 0.71908 0.65098 0.0
H666 H 0.61913 0.78824 0.57743 0.0
H667 H 0.67913 0.86352 0.69217 0.0
H668 H 0.96838 0.66282 0.76436 0.0
H669 H 0.93237 0.72769 0.78272 0.0
H670 H 0.97299 0.62357 0.82123 0.0
H671 H 0.90097 0.7131 0.91769 0.0
Fe672 Fe 0.07223 0.06951 0.53049 0.0
O673 O 1.01283 1.02004 0.51902 0.0
Fe674 Fe 0.15812 1.00949 0.50776 0.0
Fe675 Fe 0.94928 0.02645 0.55352 0.0
O676 O 0.09652 1.01844 0.53661 0.0
O677 O 0.09373 1.01412 0.54124 0.0
O678 O 1.01004 1.01573 0.52363 0.0
Fe679 Fe 1.03408 0.96441 0.5301 0.0
C680 C 1.01612 0.09394 0.61163 0.0
O681 O 1.03703 0.11598 0.51916 0.0
O682 O 0.96108 0.071 0.51189 0.0
O683 O 0.06056 0.96108 0.4657 0.0
O684 O 0.13146 0.95212 0.46267 0.0
O685 O 0.17055 0.05487 0.46435 0.0
O686 O 0.1021 0.06968 0.46547 0.0
O687 O 0.92481 0.96789 0.51093 0.0
O688 O 0.96994 0.91906 0.51088 0.0
C689 C 0.14585 0.07344 0.44969 0.0
O690 O 0.06926 0.91781 0.5406 0.0
O691 O 0.14524 0.96325 0.54837 0.0
O692 O 0.0456 0.07133 0.59454 0.0
O693 O 0.97734 0.08476 0.59706 0.0
C694 C 0.99629 0.10633 0.50505 0.0
C695 C 0.93517 0.9287 0.49904 0.0
C696 C 0.96178 0.9641 0.61336 0.0
O697 O 0.93824 0.98332 0.59809 0.0
O698 O 1.00467 0.96457 0.59603 0.0
C699 C 0.09206 0.94053 0.44855 0.0
O700 O 0.1808 0.06755 0.55221 0.0
O701 O 0.13558 0.11536 0.55003 0.0
C702 C 0.11003 0.92765 0.55458 0.0
C703 C 0.16955 0.10639 0.56367 0.0
Fe704 Fe 0.54216 0.97466 1.02739 0.0
O705 O 0.58255 0.03146 1.00427 0.0
Fe706 Fe 0.43397 1.00459 0.0681 0.0
Fe707 Fe 0.65248 0.0516 1.00093 0.0
O708 O 0.50355 1.01819 0.06216 0.0
O709 O 0.50392 1.02391 0.06429 0.0
O710 O 0.58275 0.03735 1.00612 0.0
Fe711 Fe 0.54484 0.08105 0.04203 0.0
C712 C 0.62527 0.99566 0.0756 0.0
O713 O 0.59122 0.93724 0.98593 0.0
O714 O 0.64925 0.99306 0.95342 0.0
O715 O 0.50506 0.06872 0.99219 0.0
O716 O 0.43211 0.04803 1.02889 0.0
O717 O 0.42902 0.95194 1.01421 0.0
O718 O 0.50208 0.95557 0.97654 0.0
O719 O 0.64814 0.09636 0.96408 0.0
O720 O 0.59407 0.13367 1.00917 0.0
C721 C 0.45677 0.94267 0.97899 0.0
O722 O 0.49643 0.1182 0.08519 0.0
O723 O 0.43821 0.06189 0.11731 0.0
O724 O 0.58073 0.98953 0.07801 0.0
O725 O 0.65484 1.01087 0.04358 0.0
C726 C 0.6293 0.95038 0.95725 0.0
C727 C 0.62752 0.12961 0.97537 0.0
C728 C 0.63101 0.11398 0.08813 0.0
O729 O 0.65718 0.10702 0.05153 0.0
O730 O 0.58575 0.09777 0.09252 0.0
C731 C 0.46042 0.06414 0.99687 0.0
O732 O 0.43702 0.95758 0.1033 0.0
O733 O 0.49357 0.92223 0.06009 0.0
C734 C 0.45846 0.10473 0.11397 0.0
C735 C 0.45874 0.92521 0.09264 0.0
Fe736 Fe 0.05335 0.58135 0.045 0.0
O737 O 1.00761 0.52513 0.06589 0.0
Fe738 Fe 0.15394 0.53934 1.001 0.0
Fe739 Fe 0.93769 0.51248 0.06998 0.0
O740 O 0.08569 0.5337 1.00795 0.0
O741 O 0.08412 0.52733 1.00447 0.0
O742 O 1.00611 0.51856 0.06262 0.0
Fe743 Fe 1.03741 0.47083 1.0241 0.0
C744 C 0.9704 0.61061 0.11818 0.0
O745 O 1.01563 0.57324 0.99565 0.0
O746 O 0.94134 0.55935 1.03125 0.0
O747 O 0.08109 0.4295 0.97867 0.0
O748 O 0.14358 0.48458 0.9496 0.0
O749 O 0.15775 0.59072 0.96812 0.0
O750 O 0.10664 0.63197 1.01208 0.0
O751 O 0.92685 0.46028 1.01704 0.0
O752 O 0.99623 0.46101 0.97439 0.0
C753 C 0.14006 0.62586 0.97869 0.0
O754 O 0.07538 0.47555 0.07279 0.0
O755 O 0.14914 0.49001 0.03708 0.0
O756 O 1.00861 0.6228 0.08908 0.0
O757 O 0.94792 0.56804 0.12012 0.0
C758 C 0.97252 0.57358 0.9998 0.0
C759 C 0.95061 0.45137 0.97952 0.0
C760 C 0.95264 0.42661 0.0913 0.0
O761 O 0.93564 0.46229 0.10335 0.0
O762 O 0.98394 0.41997 0.05623 0.0
C763 C 0.12011 0.44192 0.95054 0.0
O764 O 0.1643 0.59017 0.05625 0.0
O765 O 0.09371 0.59407 0.09529 0.0
C766 C 0.11767 0.47188 0.06646 0.0
C767 C 0.13904 0.60308 0.09199 0.0
Fe768 Fe 0.54895 0.5152 0.98203 0.0
O769 O 0.58878 0.55293 1.02735 0.0
Fe770 Fe 0.43415 0.49153 0.03916 0.0
Fe771 Fe 0.65544 0.55146 1.02548 0.0
O772 O 0.50123 0.49426 1.03273 0.0
O773 O 0.50126 0.49245 0.03714 0.0
O774 O 0.58882 0.55095 1.03166 0.0
Fe775 Fe 0.54035 0.53147 0.08257 0.0
C776 C 0.6126 0.45575 0.98319 0.0
O777 O 0.60539 0.5435 0.93418 0.0
O778 O 0.6669 0.58401 0.97237 0.0
O779 O 0.5151 0.58469 0.08093 0.0
O780 O 0.43822 0.55137 0.08328 0.0
O781 O 0.44456 0.52888 0.99042 0.0
O782 O 0.52081 0.56768 0.98123 0.0
O783 O 0.6553 0.60764 0.07425 0.0
O784 O 0.58892 0.57732 0.12246 0.0
C785 C 0.47827 0.56029 0.97501 0.0
O786 O 0.48323 0.50384 0.13056 0.0
O787 O 0.42448 0.45799 0.09098 0.0
O788 O 0.57326 0.46162 0.98152 0.0
O789 O 0.6502 0.48885 0.9839 0.0
C790 C 0.64575 0.57458 0.93867 0.0
C791 C 0.62943 0.60723 0.11269 0.0
C792 C 0.60958 0.48485 0.09063 0.0
O793 O 0.64369 0.5161 0.07562 0.0
O794 O 0.56725 0.4786 0.08471 0.0
C795 C 0.47354 0.58632 0.0801 0.0
O796 O 0.43601 0.43685 0.98898 0.0
O797 O 0.50136 0.47026 0.94173 0.0
C798 C 0.44438 0.47054 0.12569 0.0
C799 C 0.46226 0.4387 0.95084 0.0
Fe800 Fe 1.04151 0.47518 0.52696 0.0
O801 O 1.0093 0.52046 0.56872 0.0
Fe802 Fe 0.08199 0.52597 0.43424 0.0
Fe803 Fe 1.00625 0.53005 0.63317 0.0
O804 O 0.07389 0.5289 0.49678 0.0
O805 O 0.07617 0.53448 0.49846 0.0
O806 O 1.0113 0.52642 0.57033 0.0
Fe807 Fe 0.04561 0.58048 0.54078 0.0
C808 C 0.97064 0.42779 0.60278 0.0
O809 O 0.09601 0.49593 0.56135 0.0
O810 O 0.059 0.49698 0.62967 0.0
O811 O 0.08639 0.63057 0.50141 0.0
O812 O 0.12886 0.5905 0.44461 0.0
O813 O 0.1277 0.48534 0.43205 0.0
O814 O 0.08335 0.43562 0.47885 0.0
O815 O 0.05622 0.59211 0.6417 0.0
O816 O 0.10123 0.59986 0.57749 0.0
C817 C 0.11858 0.44744 0.44733 0.0
O818 O 0.99139 0.56397 0.50488 0.0
O819 O 1.03135 0.56037 0.4369 0.0
O820 O 1.00306 0.42535 0.56789 0.0
O821 O 0.96052 0.46532 0.62451 0.0
C822 C 0.09478 0.4927 0.60034 0.0
C823 C 0.0964 0.60612 0.61905 0.0
C824 C 0.9696 0.6081 0.62159 0.0
O825 O 0.95966 0.56959 0.63603 0.0
O826 O 1.00508 0.62037 0.59031 0.0
C827 C 0.11962 0.62821 0.46725 0.0
O828 O 1.02968 0.46508 0.42496 0.0
O829 O 0.98673 0.45226 0.48978 0.0
C830 C 0.99454 0.56501 0.46463 0.0
C831 C 0.99139 0.44641 0.44821 0.0
Fe832 Fe 0.53406 0.97245 0.52593 0.0
O833 O 0.51086 1.02268 0.56944 0.0
Fe834 Fe 0.57846 1.0236 0.43446 0.0
Fe835 Fe 0.50796 0.02976 0.63342 0.0
O836 O 0.57304 0.02526 0.4967 0.0
O837 O 0.5757 0.03154 0.49858 0.0
O838 O 0.51375 0.0287 0.57133 0.0
Fe839 Fe 0.55098 0.08156 0.54129 0.0
C840 C 0.45743 0.93127 0.60109 0.0
O841 O 0.58842 0.98179 0.55992 0.0
O842 O 0.54959 0.98568 0.62776 0.0
O843 O 0.59396 0.12905 0.49997 0.0
O844 O 0.63139 0.08343 0.44452 0.0
O845 O 0.61757 0.97703 0.42975 0.0
O846 O 0.56924 0.92785 0.47555 0.0
O847 O 0.56732 0.08479 0.64189 0.0
O848 O 0.60767 0.09811 0.57658 0.0
C849 C 0.60536 0.93848 0.44425 0.0
O850 O 0.49572 0.06922 0.50764 0.0
O851 O 0.53464 0.0658 0.44 0.0
O852 O 0.48889 0.92504 0.5662 0.0
O853 O 0.45357 0.9709 0.62353 0.0
C854 C 0.58257 0.97446 0.59861 0.0
C855 C 0.60557 0.10224 0.61783 0.0
C856 C 0.4809 0.11546 0.6234 0.0
O857 O 0.47028 0.07752 0.63863 0.0
O858 O 0.51534 0.12575 0.59084 0.0
C859 C 0.62506 0.12298 0.46476 0.0
O860 O 0.52085 0.96715 0.42565 0.0
O861 O 0.47762 0.95953 0.49073 0.0
C862 C 0.50139 0.07669 0.46908 0.0
C863 C 0.48076 0.95466 0.44931 0.0
C864 C 0.19366 0.18675 0.40507 0.0
C865 C 0.22035 0.17545 0.36399 0.0
C866 C 0.17061 0.15373 0.43239 0.0
C867 C 0.17111 0.10723 0.41924 0.0
H868 H 0.19047 0.22152 0.41638 0.0
H869 H 0.15155 0.16469 0.46405 0.0
S870 S 0.23797 0.05988 0.31577 0.0
N871 N 0.24825 0.11462 0.31274 0.0
N872 N 0.20336 0.05248 0.36298 0.0
C873 C 0.19864 0.09565 0.37869 0.0
C874 C 0.22317 0.12959 0.35128 0.0
C875 C 0.92738 0.14237 0.43957 0.0
C876 C 0.95915 0.14752 0.40037 0.0
C877 C 0.94193 0.13557 0.47609 0.0
C878 C 0.98863 0.13297 0.47488 0.0
H879 H 0.89014 0.13979 0.44109 0.0
H880 H 0.91514 0.128 0.50422 0.0
S881 S 0.08694 0.15323 0.38253 0.0
N882 N 1.04123 0.15875 0.36539 0.0
N883 N 0.06752 0.14199 0.43247 0.0
C884 C 1.02166 0.14289 0.43745 0.0
C885 C 1.00711 0.15099 0.40064 0.0
C886 C 0.91096 0.84125 0.39555 0.0
C887 C 0.87228 0.85142 0.38491 0.0
C888 C 0.92948 0.86376 0.43428 0.0
C889 C 0.9093 0.89653 0.46418 0.0
H890 H 0.92747 0.81627 0.37345 0.0
H891 H 0.96069 0.85657 0.44004 0.0
S892 S 0.80131 0.92789 0.45538 0.0
N893 N 0.8112 0.89215 0.40977 0.0
N894 N 0.84359 0.93227 0.48296 0.0
C895 C 0.86827 0.90405 0.45515 0.0
C896 C 0.85062 0.88238 0.41536 0.0
C897 C 1.03562 0.85457 0.35824 0.0
C898 C 0.04646 0.81428 0.36091 0.0
C899 C 0.05075 0.89539 0.38688 0.0
C900 C 0.07722 0.89715 0.41891 0.0
H901 H 1.02032 0.85599 0.3309 0.0
H902 H 1.04365 0.92627 0.38262 0.0
S903 S 0.10313 0.79828 0.44645 0.0
N904 N 0.07578 0.77628 0.40364 0.0
N905 N 0.10539 0.85351 0.45709 0.0
C906 C 0.08316 0.85603 0.42522 0.0
C907 C 0.06652 0.81422 0.39683 0.0
C908 C 0.13604 0.90988 0.65705 0.0
C909 C 0.1749 0.89076 0.641 0.0
C910 C 0.10824 0.91451 0.62858 0.0
C911 C 0.11828 0.90018 0.58315 0.0
H912 H 0.13014 0.92565 0.69098 0.0
H913 H 0.08264 0.9345 0.64164 0.0
S914 S 0.20992 0.83966 0.52608 0.0
N915 N 0.21631 0.85005 0.57783 0.0
N916 N 0.16565 0.86052 0.52467 0.0
C917 C 0.1534 0.87632 0.56766 0.0
C918 C 0.1813 0.87119 0.5965 0.0
C919 C 0.18948 0.20158 0.66292 0.0
C920 C 0.22418 0.19142 0.67993 0.0
C921 C 0.17395 0.17601 0.62373 0.0
C922 C 0.19276 0.13944 0.59981 0.0
H923 H 0.17394 0.22926 0.68025 0.0
H924 H 0.14593 0.18409 0.61296 0.0
S925 S 0.28931 0.1034 0.62762 0.0
N926 N 0.27938 0.14485 0.66804 0.0
N927 N 0.2522 0.09821 0.59429 0.0
C928 C 0.2295 0.13091 0.61546 0.0
C929 C 0.24443 0.15627 0.65558 0.0
C930 C 0.07295 0.17961 0.70157 0.0
C931 C 0.06469 0.22018 0.69627 0.0
C932 C 0.05715 0.13847 0.6735 0.0
C933 C 1.03426 0.13768 0.63911 0.0
H934 H 0.08372 0.1781 0.73141 0.0
H935 H 0.05997 0.10684 0.6804 0.0
S936 S 1.02558 0.23883 0.60123 0.0
N937 N 0.04924 0.26024 0.64623 0.0
N938 N 1.01766 0.18275 0.59397 0.0
C939 C 1.03497 0.17949 0.62878 0.0
C940 C 0.05283 0.22131 0.65646 0.0
C941 C 0.92988 0.87779 0.69339 0.0
C942 C 0.88196 0.87599 0.71183 0.0
C943 C 0.95604 0.90718 0.66304 0.0
C944 C 0.93591 0.93685 0.64984 0.0
H945 H 0.94702 0.85518 0.70134 0.0
H946 H 0.99196 0.90558 0.6489 0.0
S947 S 0.81299 0.949 0.69177 0.0
N948 N 0.81679 0.9092 0.71642 0.0
N949 N 0.86508 0.96411 0.66092 0.0
C950 C 0.88855 0.9366 0.66961 0.0
C951 C 0.86196 0.90644 0.70001 0.0
C952 C 0.35551 0.15433 0.18129 0.0
C953 C 0.3775 0.19865 0.20201 0.0
C954 C 0.38204 0.1253 0.15298 0.0
C955 C 0.43232 0.13876 0.143 0.0
H956 H 0.31723 0.14135 0.18753 0.0
H957 H 0.3626 0.09159 0.13861 0.0
S958 S 0.50855 0.25082 0.18853 0.0
N959 N 0.45402 0.25398 0.21055 0.0
N960 N 0.50294 0.20003 0.15674 0.0
C961 C 0.45496 0.18313 0.16287 0.0
C962 C 0.42796 0.21263 0.19244 0.0
C963 C 0.90701 0.38637 0.19959 0.0
C964 C 0.88674 0.33891 0.18872 0.0
C965 C 0.93098 0.41314 0.16762 0.0
C966 C 0.93611 0.39408 0.12295 0.0
H967 H 0.90313 0.40357 0.23322 0.0
H968 H 0.94426 0.4498 0.17806 0.0
S969 S 0.89385 0.27071 0.0768 0.0
N970 N 0.87682 0.273 0.12992 0.0
N971 N 0.92193 0.32389 0.06953 0.0
C972 C 0.91885 0.34619 0.11145 0.0
C973 C 0.8942 0.31853 0.14437 0.0
C974 C 0.70843 0.9661 0.13442 0.0
C975 C 0.6812 0.9595 0.17548 0.0
C976 C 0.69018 0.97792 0.10267 0.0
C977 C 0.64367 0.98337 0.11033 0.0
H978 H 0.74459 0.9631 0.12702 0.0
H979 H 0.71288 0.98271 0.07176 0.0
S980 S 0.55752 0.96934 0.2126 0.0
N981 N 0.60485 0.95826 0.22167 0.0
N982 N 0.57096 0.98122 0.16278 0.0
C983 C 0.61595 0.97648 0.15123 0.0
C984 C 0.63457 0.96444 0.1835 0.0
C985 C 0.24124 0.66988 0.15791 0.0
C986 C 0.21852 0.68397 0.20013 0.0
C987 C 0.21536 0.64403 0.12397 0.0
C988 C 0.16495 0.63045 0.13005 0.0
H989 H 0.27964 0.67986 0.15067 0.0
H990 H 0.23546 0.63504 0.09229 0.0
S991 S 0.08746 0.65597 0.23542 0.0
N992 N 0.14183 0.68054 0.24651 0.0
N993 N 0.09361 0.63244 0.18334 0.0
C994 C 0.14168 0.64383 0.17245 0.0
C995 C 0.16817 0.67032 0.20708 0.0
C996 C 0.3805 0.90333 0.88762 0.0
C997 C 0.37983 0.85655 0.87294 0.0
C998 C 0.40632 0.93113 0.92093 0.0
C999 C 0.43416 0.91415 0.94038 0.0
H1000 H 0.36034 0.91872 0.87377 0.0
H1001 H 0.40422 0.96629 0.9318 0.0
S1002 S 0.44598 0.79505 0.91495 0.0
N1003 N 0.41016 0.79502 0.88215 0.0
N1004 N 0.45964 0.84782 0.94268 0.0
C1005 C 0.43495 0.8681 0.92561 0.0
C1006 C 0.40777 0.83933 0.89249 0.0
C1007 C 0.21879 0.39413 0.8725 0.0
C1008 C 0.19819 0.3473 0.85793 0.0
C1009 C 0.19315 0.42277 0.90207 0.0
C1010 C 0.14439 0.40719 0.91923 0.0
H1011 H 0.25568 0.40945 0.86096 0.0
H1012 H 0.2126 0.45809 0.91159 0.0
S1013 S 0.0707 0.28816 0.88914 0.0
N1014 N 0.12402 0.28699 0.86144 0.0
N1015 N 0.07583 0.34078 0.9172 0.0
C1016 C 0.12263 0.36032 0.90481 0.0
C1017 C 0.14925 0.33068 0.87427 0.0
C1018 C 0.67163 0.17507 0.86998 0.0
C1019 C 0.69946 0.21991 0.88244 0.0
C1020 C 0.64478 0.14778 0.90092 0.0
C1021 C 0.64436 0.16398 0.94584 0.0
H1022 H 0.6719 0.16019 0.83581 0.0
H1023 H 0.62609 0.11265 0.88945 0.0
S1024 S 0.71186 0.27828 0.99592 0.0
N1025 N 0.72566 0.27887 0.94302 0.0
N1026 N 0.67382 0.22793 1.00138 0.0
C1027 C 0.67038 0.20934 0.95902 0.0
C1028 C 0.69826 0.2372 0.9273 0.0
C1029 C 0.93629 0.59437 0.90088 0.0
C1030 C 0.94292 0.64245 0.90894 0.0
C1031 C 0.94477 0.57193 0.93086 0.0
C1032 C 0.95995 0.59666 0.97013 0.0
H1033 H 0.92487 0.57382 0.8709 0.0
H1034 H 0.94017 0.53514 0.92296 0.0
S1035 S 0.98127 0.72199 1.00862 0.0
N1036 N 0.96463 0.71345 0.96065 0.0
N1037 N 0.98009 0.67088 1.01663 0.0
C1038 C 0.96549 0.6442 0.97942 0.0
C1039 C 0.9569 0.66718 0.94903 0.0
C1040 C 0.17693 0.38674 0.0857 0.0
C1041 C 0.14746 0.36917 0.12203 0.0
C1042 C 0.16832 0.42154 0.06965 0.0
C1043 C 0.12918 0.43981 0.08867 0.0
H1044 H 0.20626 0.37252 0.06877 0.0
H1045 H 0.19148 0.43266 0.04076 0.0
S1046 S 1.04237 0.40659 0.18598 0.0
N1047 N 0.07902 0.37384 0.17802 0.0
N1048 N 0.06178 0.43851 0.14742 0.0
C1049 C 0.10015 0.42334 0.12593 0.0
C1050 C 0.10956 0.3883 0.14271 0.0
C1051 C 0.184 0.66478 0.86949 0.0
C1052 C 0.21483 0.70869 0.87916 0.0
C1053 C 0.15662 0.64032 0.90258 0.0
C1054 C 0.15866 0.65844 0.94706 0.0
H1055 H 0.18175 0.64862 0.83591 0.0
H1056 H 0.1352 0.60575 0.89313 0.0
S1057 S 0.23354 0.77211 0.99029 0.0
N1058 N 0.2452 0.76974 0.93691 0.0
N1059 N 0.19378 0.72348 0.99896 0.0
C1060 C 0.18797 0.70299 0.95743 0.0
C1061 C 0.21599 0.72812 0.92357 0.0
C1062 C 0.44747 0.1016 0.89443 0.0
C1063 C 0.39904 0.10104 0.90134 0.0
C1064 C 0.46744 0.09067 0.92556 0.0
C1065 C 0.43965 0.07805 0.96478 0.0
H1066 H 0.47005 0.11009 0.86438 0.0
H1067 H 0.50471 0.09128 0.91839 0.0
S1068 S 0.31054 0.07082 0.99828 0.0
N1069 N 0.32387 0.0866 0.95015 0.0
N1070 N 0.36058 0.06652 1.00864 0.0
C1071 C 0.39116 0.07802 0.97219 0.0
C1072 C 0.37112 0.08938 0.9406 0.0
C1073 C 0.91708 0.38945 0.8657 0.0
C1074 C 0.86664 0.37655 0.87299 0.0
C1075 C 0.94412 0.41398 0.8994 0.0
C1076 C 0.92222 0.42701 0.9424 0.0
H1077 H 0.93602 0.3792 0.83376 0.0
H1078 H 0.98249 0.42193 0.89178 0.0
S1079 S 0.79091 0.40227 0.97906 0.0
N1080 N 0.79643 0.37917 0.927 0.0
N1081 N 0.84564 0.4256 0.98932 0.0
C1082 C 0.87164 0.41538 0.94964 0.0
C1083 C 0.84441 0.39035 0.91539 0.0
C1084 C 0.73227 0.90246 0.88728 0.0
C1085 C 0.71095 0.85664 0.86973 0.0
C1086 C 0.70554 0.93137 0.91539 0.0
C1087 C 0.65568 0.91636 0.92838 0.0
H1088 H 0.77019 0.91662 0.87879 0.0
H1089 H 0.72459 0.96622 0.92723 0.0
S1090 S 0.58153 0.79928 0.89268 0.0
N1091 N 0.63578 0.79765 0.86805 0.0
N1092 N 0.58632 0.85156 0.9213 0.0
C1093 C 0.6338 0.87039 0.91179 0.0
C1094 C 0.66104 0.84091 0.88244 0.0
C1095 C 0.87796 0.6567 0.20786 0.0
C1096 C 0.89063 0.70467 0.20991 0.0
C1097 C 0.90471 0.62822 0.17943 0.0
C1098 C 0.94643 0.64517 0.15039 0.0
H1099 H 0.84616 0.64027 0.22809 0.0
H1100 H 0.89141 0.5918 0.18014 0.0
S1101 S 0.99922 0.76889 0.14485 0.0
N1102 N 0.95125 0.76844 0.18221 0.0
N1103 N 1.0003 0.71474 0.12772 0.0
C1104 C 0.9605 0.69331 0.15255 0.0
C1105 C 0.93312 0.7228 0.18223 0.0
C1106 C 0.42251 0.87559 0.19621 0.0
C1107 C 0.38768 0.83476 0.18508 0.0
C1108 C 0.44817 0.90307 0.16492 0.0
C1109 C 0.44145 0.89003 0.12108 0.0
H1110 H 0.42759 0.88805 0.22985 0.0
H1111 H 0.47119 0.93629 0.17561 0.0
S1112 S 0.35567 0.78577 0.07487 0.0
N1113 N 0.34834 0.78222 0.12692 0.0
N1114 N 0.39814 0.83325 0.06801 0.0
C1115 C 0.4085 0.84824 0.10909 0.0
C1116 C 0.38137 0.82073 0.14111 0.0
C1117 C 0.67658 0.15569 0.19827 0.0
C1118 C 0.71275 0.19626 0.19166 0.0
C1119 C 0.64821 0.13038 0.16587 0.0
C1120 C 0.65559 0.14402 0.1251 0.0
H1121 H 0.66989 0.14354 0.22885 0.0
H1122 H 0.62152 0.09908 0.17221 0.0
S1123 S 0.74664 0.24662 0.09074 0.0
N1124 N 0.75401 0.24841 0.14094 0.0
N1125 N 0.70263 0.20059 0.08012 0.0
C1126 C 0.69185 0.18434 0.1182 0.0
C1127 C 0.71981 0.21047 0.15135 0.0
C1128 C 0.73978 0.64281 0.85865 0.0
C1129 C 0.71771 0.67449 0.85186 0.0
C1130 C 0.71562 0.60915 0.88497 0.0
C1131 C 0.66808 0.6051 0.90529 0.0
H1132 H 0.77637 0.64442 0.84405 0.0
H1133 H 0.73471 0.58677 0.89031 0.0
S1134 S 0.59572 0.68261 0.90287 0.0
N1135 N 0.64597 0.70098 0.8706 0.0
N1136 N 0.60163 0.63864 0.92018 0.0
C1137 C 0.64583 0.63674 0.89925 0.0
C1138 C 0.67026 0.67101 0.87249 0.0
C1139 C 0.48628 0.58748 0.86388 0.0
C1140 C 0.44198 0.59578 0.86621 0.0
C1141 C 0.49933 0.57934 0.90039 0.0
C1142 C 0.46884 0.57971 0.94064 0.0
H1143 H 0.51008 0.58513 0.83309 0.0
H1144 H 0.5319 0.56925 0.89613 0.0
S1145 S 0.34865 0.59898 0.96344 0.0
N1146 N 0.36768 0.60396 0.9118 0.0
N1147 N 0.39223 0.58863 0.98035 0.0
C1148 C 0.42505 0.58927 0.9436 0.0
C1149 C 0.41176 0.59762 0.90648 0.0
C1150 C 0.41465 0.33853 0.86589 0.0
C1151 C 0.38154 0.35443 0.85229 0.0
C1152 C 0.44274 0.36653 0.89691 0.0
C1153 C 0.43866 0.41114 0.91453 0.0
H1154 H 0.41834 0.3041 0.85302 0.0
H1155 H 0.46687 0.35301 0.90782 0.0
S1156 S 0.35738 0.46912 0.8915 0.0
N1157 N 0.3458 0.41782 0.86086 0.0
N1158 N 0.4001 0.47027 0.91716 0.0
C1159 C 0.4066 0.4277 0.90093 0.0
C1160 C 0.37756 0.39934 0.87026 0.0
C1161 C 0.65267 0.34732 0.95435 0.0
C1162 C 0.60874 0.31412 0.95088 0.0
C1163 C 0.65467 0.39382 0.96903 0.0
C1164 C 0.61268 0.40777 0.98153 0.0
H1165 H 0.6854 0.3385 0.93931 0.0
H1166 H 0.68881 0.41886 0.96673 0.0
S1167 S 0.49016 0.3314 1.0003 0.0
N1168 N 0.52361 0.29639 0.97566 0.0
N1169 N 0.52699 0.38326 1.00629 0.0
C1170 C 0.56926 0.37367 0.98815 0.0
C1171 C 0.56736 0.32661 0.97236 0.0
C1172 C 0.59713 0.44624 0.19753 0.0
C1173 C 0.64346 0.44392 0.19769 0.0
C1174 C 0.58526 0.45649 0.16146 0.0
C1175 C 0.61873 0.46336 0.12361 0.0
H1176 H 0.57017 0.44182 0.22611 0.0
H1177 H 0.55065 0.46217 0.16449 0.0
S1178 S 0.74392 0.45822 0.10537 0.0
N1179 N 0.72294 0.44893 0.15569 0.0
N1180 N 0.69898 0.46405 0.08692 0.0
C1181 C 0.6642 0.45827 0.12213 0.0
C1182 C 0.67693 0.44942 0.15929 0.0
C1183 C 0.6821 0.70986 0.19357 0.0
C1184 C 0.71393 0.69351 0.2086 0.0
C1185 C 0.6528 0.68125 0.16366 0.0
C1186 C 0.65417 0.63548 0.14846 0.0
H1187 H 0.67989 0.74494 0.20478 0.0
H1188 H 0.62966 0.69516 0.15181 0.0
S1189 S 0.7319 0.57623 0.17581 0.0
N1190 N 0.74577 0.62857 0.20421 0.0
N1191 N 0.68989 0.57517 0.14925 0.0
C1192 C 0.68547 0.61871 0.16317 0.0
C1193 C 0.71561 0.64765 0.19294 0.0
C1194 C 0.50629 0.70935 0.06469 0.0
C1195 C 0.46231 0.71912 0.08078 0.0
C1196 C 0.50959 0.6649 0.06243 0.0
C1197 C 0.46837 0.62929 0.07171 0.0
H1198 H 0.53881 0.73689 0.06432 0.0
H1199 H 0.54473 0.65958 0.05708 0.0
S1200 S 0.34464 0.63555 0.08202 0.0
N1201 N 0.37753 0.68872 0.08047 0.0
N1202 N 0.38218 0.60433 0.07701 0.0
C1203 C 0.42417 0.63703 0.07287 0.0
C1204 C 0.42171 0.68249 0.07406 0.0
C1205 C 0.35323 0.41162 0.21359 0.0
C1206 C 0.37134 0.37547 0.21647 0.0
C1207 C 0.37822 0.44395 0.186 0.0
C1208 C 0.42237 0.44151 0.16016 0.0
H1209 H 0.31934 0.41486 0.23263 0.0
H1210 H 0.36235 0.47044 0.18411 0.0
S1211 S 0.48236 0.35039 0.15099 0.0
N1212 N 0.4351 0.33798 0.18846 0.0
N1213 N 0.48036 0.39719 0.13589 0.0
C1214 C 0.44024 0.40507 0.162 0.0
C1215 C 0.41529 0.37261 0.19038 0.0
C1216 C 0.86195 0.65251 0.68493 0.0
C1217 C 0.88161 0.69973 0.69926 0.0
C1218 C 0.89026 0.6237 0.65914 0.0
C1219 C 0.93952 0.64072 0.64497 0.0
H1220 H 0.82454 0.6372 0.69494 0.0
H1221 H 0.87335 0.58746 0.6505 0.0
S1222 S 1.00847 0.76225 0.67095 0.0
N1223 N 0.9539 0.76223 0.69571 0.0
N1224 N 1.0061 0.70878 0.64653 0.0
C1225 C 0.95926 0.68817 0.65765 0.0
C1226 C 0.9307 0.71733 0.68483 0.0
C1227 C 0.41945 0.86328 0.69186 0.0
C1228 C 0.37266 0.83801 0.68686 0.0
C1229 C 0.44824 0.88992 0.6611 0.0
C1230 C 0.43145 0.8926 0.62415 0.0
H1231 H 0.43343 0.86402 0.72067 0.0
H1232 H 0.48312 0.91072 0.6676 0.0
S1233 S 0.31359 0.82971 0.59323 0.0
N1234 N 0.31224 0.81435 0.63987 0.0
N1235 N 0.36632 0.86581 0.58269 0.0
C1236 C 0.38559 0.86617 0.61761 0.0
C1237 C 0.35617 0.83862 0.64887 0.0
C1238 C 0.17952 0.47376 0.66386 0.0
C1239 C 0.21615 0.46298 0.63079 0.0
C1240 C 0.14018 0.48303 0.65395 0.0
C1241 C 0.13637 0.48257 0.61068 0.0
H1242 H 0.18131 0.47516 0.69768 0.0
H1243 H 0.11263 0.49054 0.6804 0.0
S1244 S 0.22152 0.45261 0.51199 0.0
N1245 N 0.2446 0.4492 0.55314 0.0
N1246 N 0.17232 0.46813 0.53419 0.0
C1247 C 0.1728 0.47131 0.5773 0.0
C1248 C 0.21229 0.4613 0.58745 0.0
C1249 C 0.71646 0.19656 0.65202 0.0
C1250 C 0.72275 0.18483 0.69032 0.0
C1251 C 0.6804 0.16889 0.62731 0.0
C1252 C 0.64809 0.12868 0.64031 0.0
H1253 H 0.73929 0.22772 0.64121 0.0
H1254 H 0.67666 0.18012 0.59881 0.0
S1255 S 0.64925 0.08207 0.73761 0.0
N1256 N 0.69343 0.12927 0.73913 0.0
N1257 N 0.62649 0.07808 0.69371 0.0
C1258 C 0.65478 0.11622 0.67804 0.0
C1259 C 0.69172 0.14392 0.70266 0.0
C1260 C 0.90972 0.40474 0.36258 0.0
C1261 C 0.88513 0.35948 0.36838 0.0
C1262 C 0.94263 0.43275 0.38957 0.0
C1263 C 0.95179 0.41733 0.42435 0.0
H1264 H 0.90466 0.41835 0.33606 0.0
H1265 H 0.96162 0.4668 0.38276 0.0
S1266 S 0.89472 0.30293 0.45583 0.0
N1267 N 0.87098 0.30124 0.41309 0.0
N1268 N 0.93206 0.35443 0.46428 0.0
C1269 C 0.92619 0.37288 0.43176 0.0
C1270 C 0.89322 0.34385 0.40364 0.0
C1271 C 0.7154 0.89781 0.38313 0.0
C1272 C 0.69969 0.84948 0.37252 0.0
C1273 C 0.68506 0.9251 0.40716 0.0
C1274 C 0.63662 0.90617 0.42267 0.0
H1275 H 0.75188 0.91539 0.37242 0.0
H1276 H 0.70003 0.96194 0.41339 0.0
S1277 S 0.57485 0.78201 0.40201 0.0
N1278 N 0.6302 0.78424 0.37811 0.0
N1279 N 0.57382 0.83535 0.42418 0.0
C1280 C 0.61996 0.8579 0.41281 0.0
C1281 C 0.65108 0.82982 0.38766 0.0
C1282 C 0.15561 0.70605 0.38356 0.0
C1283 C 0.2027 0.73006 0.38889 0.0
C1284 C 0.12714 0.67615 0.41202 0.0
C1285 C 0.14437 0.66961 0.44722 0.0
H1286 H 0.14174 0.70785 0.35551 0.0
H1287 H 0.09242 0.65573 0.40476 0.0
S1288 S 0.26184 0.73066 0.48005 0.0
N1289 N 0.26295 0.74982 0.43545 0.0
N1290 N 0.20939 0.6935 0.48862 0.0
C1291 C 0.18997 0.69598 0.45481 0.0
C1292 C 0.2191 0.72627 0.42576 0.0
C1293 C 0.47544 0.15866 0.41172 0.0
C1294 C 0.45077 0.18445 0.44564 0.0
C1295 C 0.48783 0.12107 0.41874 0.0
C1296 C 0.4769 0.10823 0.46017 0.0
H1297 H 0.48719 0.16878 0.37998 0.0
H1298 H 0.5081 0.10335 0.3918 0.0
S1299 S 0.40242 0.15827 0.55683 0.0
N1300 N 0.40818 0.18976 0.51973 0.0
N1301 N 0.43236 0.11981 0.53358 0.0
C1302 C 0.44836 0.13126 0.49331 0.0
C1303 C 0.4354 0.16937 0.48595 0.0
C1304 C 0.61574 0.89908 0.65891 0.0
C1305 C 0.64104 0.87348 0.62542 0.0
C1306 C 0.59971 0.93391 0.65052 0.0
C1307 C 0.60853 0.94465 0.6083 0.0
H1308 H 0.60593 0.89049 0.69131 0.0
H1309 H 0.57826 0.95097 0.67701 0.0
S1310 S 0.68096 0.89272 0.51129 0.0
N1311 N 0.68001 0.86524 0.55017 0.0
N1312 N 0.64987 0.93029 0.53395 0.0
C1313 C 0.63726 0.92169 0.57539 0.0
C1314 C 0.65341 0.88619 0.58404 0.0
C1315 C 0.71136 0.22742 0.42174 0.0
C1316 C 0.70425 0.21729 0.37792 0.0
C1317 C 0.68312 0.19894 0.4518 0.0
C1318 C 0.64691 0.16011 0.43869 0.0
H1319 H 0.74073 0.25555 0.43202 0.0
H1320 H 0.6916 0.20559 0.48437 0.0
S1321 S 0.60965 0.12397 0.32948 0.0
N1322 N 0.65488 0.16972 0.32474 0.0
N1323 N 0.60261 0.11643 0.38026 0.0
C1324 C 0.63748 0.15227 0.39586 0.0
C1325 C 0.66594 0.18083 0.36568 0.0
C1326 C 0.86869 0.56705 0.46142 0.0
C1327 C 0.87263 0.58024 0.42114 0.0
C1328 C 0.90838 0.56305 0.47544 0.0
C1329 C 0.95364 0.57155 0.44952 0.0
H1330 H 0.83451 0.55953 0.48226 0.0
H1331 H 0.90321 0.5523 0.50653 0.0
S1332 S 0.98304 0.6083 0.34154 0.0
N1333 N 0.92535 0.60266 0.35577 0.0
N1334 N 1.00007 0.59523 0.38188 0.0
C1335 C 0.95816 0.58545 0.40933 0.0
C1336 C 0.9177 0.58987 0.39527 0.0
C1337 C 0.36401 0.87116 0.41459 0.0
C1338 C 0.36548 0.8801 0.37271 0.0
C1339 C 0.3995 0.89676 0.44075 0.0
C1340 C 0.43813 0.93221 0.42596 0.0
H1341 H 0.33722 0.84209 0.42591 0.0
H1342 H 0.39818 0.88683 0.47149 0.0
S1343 S 0.45394 0.97349 0.32149 0.0
N1344 N 0.40597 0.92985 0.32004 0.0
N1345 N 0.47124 0.97815 0.36843 0.0
C1346 C 0.43759 0.94334 0.38545 0.0
C1347 C 0.40181 0.91732 0.35912 0.0
C1348 C 0.22707 0.40428 0.38232 0.0
C1349 C 0.21088 0.356 0.37738 0.0
C1350 C 0.19742 0.43309 0.40517 0.0
C1351 C 0.15032 0.41547 0.42574 0.0
H1352 H 0.26252 0.42003 0.367 0.0
H1353 H 0.21171 0.4698 0.40663 0.0
S1354 S 0.09152 0.29138 0.42567 0.0
N1355 N 0.14465 0.29202 0.39681 0.0
N1356 N 0.09022 0.34566 0.44075 0.0
C1357 C 0.13444 0.36726 0.42256 0.0
C1358 C 0.16421 0.33785 0.39828 0.0
C1359 C 0.37606 0.15696 0.69539 0.0
C1360 C 0.38758 0.20465 0.6963 0.0
C1361 C 0.40575 0.12945 0.67113 0.0
C1362 C 0.44982 0.14757 0.64604 0.0
H1363 H 0.34294 0.13994 0.71323 0.0
H1364 H 0.3935 0.09308 0.67234 0.0
S1365 S 0.49946 0.27081 0.63723 0.0
N1366 N 0.44798 0.26917 0.66973 0.0
N1367 N 0.50392 0.21742 0.62401 0.0
C1368 C 0.46234 0.1953 0.64612 0.0
C1369 C 0.43149 0.22367 0.67111 0.0
C1370 C 0.93367 0.35744 0.69273 0.0
C1371 C 0.88699 0.3323 0.68707 0.0
C1372 C 0.96294 0.38477 0.66222 0.0
C1373 C 0.94706 0.38726 0.62448 0.0
H1374 H 0.94643 0.35868 0.72238 0.0
H1375 H 0.99705 0.40668 0.66976 0.0
S1376 S 0.83127 0.3214 0.59052 0.0
N1377 N 0.82885 0.30676 0.63778 0.0
N1378 N 0.88373 0.35822 0.58102 0.0
C1379 C 0.90204 0.35941 0.61679 0.0
C1380 C 0.87211 0.33188 0.6479 0.0
C1381 C 0.20454 0.69824 0.6582 0.0
C1382 C 0.20654 0.68619 0.69776 0.0
C1383 C 0.17081 0.67106 0.63123 0.0
C1384 C 0.13682 0.63156 0.64354 0.0
H1385 H 0.22893 0.72924 0.64826 0.0
H1386 H 0.17 0.68219 0.60166 0.0
S1387 S 0.12713 0.58529 0.74392 0.0
N1388 N 0.17256 0.63135 0.74686 0.0
N1389 N 0.10825 0.58171 0.698 0.0
C1390 C 0.13918 0.61899 0.68273 0.0
C1391 C 0.17421 0.64584 0.70932 0.0
loop_
_geom_bond_atom_site_label_1
_geom_bond_atom_site_label_2
_geom_bond_distance
_geom_bond_site_symmetry_2
_ccdc_geom_bond_type
C0 C2 1.422 . S
C0 C4 1.415 . S
C0 N6 1.369 . S
C1 C2 1.421 . S
C1 C3 1.417 . S
C1 C13 1.422 . S
C2 C0 1.422 . S
C2 C1 1.421 . S
C2 N12 1.359 . S
C3 C1 1.417 . S
C3 C5 1.329 . S
C3 H22 0.930 . S
C4 C0 1.415 . S
C4 C5 1.437 . S
C4 C8 1.413 . S
C5 C3 1.329 . S
C5 C4 1.437 . S
C5 H27 0.929 . S
N6 C0 1.369 . S
N6 C7 1.338 . S
N6 Gd11 2.622 . S
C7 N6 1.338 . S
C7 C9 1.378 . S
C7 H19 0.929 . S
C8 C4 1.413 . S
C8 C9 1.348 . S
C8 H24 0.931 . S
C9 C7 1.378 . S
C9 C8 1.348 . S
C9 H25 0.930 . S
Gd10 N30 2.622 . S
Gd10 N37 2.570 . S
Gd10 O44 2.353 . S
Gd10 O45 2.468 . S
Gd10 O46 2.427 . S
Gd10 O48 2.388 . S
Gd10 O49 2.386 . S
Gd10 O53 2.307 . S
Gd10 C63 2.805 . S
Gd11 N6 2.622 . S
Gd11 N12 2.570 . S
Gd11 O43 2.386 . S
Gd11 O47 2.307 . S
Gd11 O50 2.353 . S
Gd11 O51 2.468 . S
Gd11 O52 2.427 . S
Gd11 O54 2.388 . S
Gd11 C75 2.805 . S
N12 C2 1.359 . S
N12 Gd11 2.570 . S
N12 C14 1.343 . S
C13 C1 1.422 . S
C13 C15 1.321 . S
C13 H21 0.931 . S
C14 N12 1.343 . S
C14 C15 1.390 . S
C14 H16 0.931 . S
C15 C13 1.321 . S
C15 C14 1.390 . S
C15 H17 0.930 . S
H16 C14 0.931 . S
H17 C15 0.930 . S
H18 C41 0.931 . S
H19 C7 0.929 . S
H20 C42 0.930 . S
H21 C13 0.931 . S
H22 C3 0.930 . S
H23 C32 0.929 . S
H24 C8 0.931 . S
H25 C9 0.930 . S
H26 C64 0.930 . S
H27 C5 0.929 . S
H28 C33 0.931 . S
H29 C34 0.930 . S
N30 Gd10 2.622 . S
N30 C31 1.369 . S
N30 C32 1.338 . S
C31 N30 1.369 . S
C31 C35 1.415 . S
C31 C38 1.422 . S
C32 H23 0.929 . S
C32 N30 1.338 . S
C32 C34 1.378 . S
C33 H28 0.931 . S
C33 C34 1.348 . S
C33 C35 1.413 . S
C34 H29 0.930 . S
C34 C32 1.378 . S
C34 C33 1.348 . S
C35 C31 1.415 . S
C35 C33 1.413 . S
C35 C65 1.437 . S
H36 C65 0.929 . S
N37 Gd10 2.570 . S
N37 C38 1.359 . S
N37 C41 1.343 . S
C38 C31 1.422 . S
C38 N37 1.359 . S
C38 C40 1.421 . S
C39 C40 1.422 . S
C39 C42 1.321 . S
C39 H66 0.931 . S
C40 C38 1.421 . S
C40 C39 1.422 . S
C40 C64 1.417 . S
C41 H18 0.931 . S
C41 N37 1.343 . S
C41 C42 1.390 . S
C42 H20 0.930 . S
C42 C39 1.321 . S
C42 C41 1.390 . S
O43 Gd11 2.386 . S
O43 C55 1.265 . S
O44 Gd10 2.353 . S
O44 C55 1.242 . S
O45 Gd10 2.468 . S
O45 C63 1.263 . S
O46 Gd10 2.427 . S
O46 C63 1.252 . S
O47 Gd11 2.307 . S
O47 C56 1.261 . S
O48 Gd10 2.388 . S
O48 C56 1.252 . S
O49 Gd10 2.386 . S
O49 C67 1.265 . S
O50 Gd11 2.353 . S
O50 C67 1.242 . S
O51 Gd11 2.468 . S
O51 C75 1.263 . S
O52 Gd11 2.427 . S
O52 C75 1.252 . S
O53 Gd10 2.307 . S
O53 C68 1.261 . S
O54 Gd11 2.388 . S
O54 C68 1.252 . S
C55 O43 1.265 . S
C55 O44 1.242 . S
C56 O47 1.261 . S
C56 O48 1.252 . S
C57 C60 1.394 . S
C57 C62 1.370 . S
C57 C63 1.500 . S
C58 C61 1.383 . S
C58 C62 1.395 . S
C59 C60 1.396 . S
C59 C61 1.365 . S
C59 H76 0.929 . S
C60 C57 1.394 . S
C60 C59 1.396 . S
C60 H77 0.930 . S
C61 C58 1.383 . S
C61 C59 1.365 . S
C61 H78 0.931 . S
C62 C57 1.370 . S
C62 C58 1.395 . S
C62 H79 0.930 . S
C63 Gd10 2.805 . S
C63 O45 1.263 . S
C63 O46 1.252 . S
C63 C57 1.500 . S
C64 H26 0.930 . S
C64 C40 1.417 . S
C64 C65 1.329 . S
C65 C35 1.437 . S
C65 H36 0.929 . S
C65 C64 1.329 . S
H66 C39 0.931 . S
C67 O49 1.265 . S
C67 O50 1.242 . S
C68 O53 1.261 . S
C68 O54 1.252 . S
C69 C72 1.394 . S
C69 C74 1.370 . S
C69 C75 1.500 . S
C70 C73 1.383 . S
C70 C74 1.395 . S
C71 C72 1.396 . S
C71 C73 1.365 . S
C71 H80 0.929 . S
C72 C69 1.394 . S
C72 C71 1.396 . S
C72 H81 0.930 . S
C73 C70 1.383 . S
C73 C71 1.365 . S
C73 H82 0.931 . S
C74 C69 1.370 . S
C74 C70 1.395 . S
C74 H83 0.930 . S
C75 Gd11 2.805 . S
C75 O51 1.263 . S
C75 O52 1.252 . S
C75 C69 1.500 . S
H76 C59 0.929 . S
H77 C60 0.930 . S
H78 C61 0.931 . S
H79 C62 0.930 . S
H80 C71 0.929 . S
H81 C72 0.930 . S
H82 C73 0.931 . S
H83 C74 0.930 . S
C84 C86 1.422 . S
C84 C88 1.415 . S
C84 N90 1.369 . S
C85 C86 1.421 . S
C85 C87 1.417 . S
C85 C97 1.422 . S
C86 C84 1.422 . S
C86 C85 1.421 . S
C86 N96 1.359 . S
C87 C85 1.417 . S
C87 C89 1.329 . S
C87 H106 0.930 . S
C88 C84 1.415 . S
C88 C89 1.437 . S
C88 C92 1.413 . S
C89 C87 1.329 . S
C89 C88 1.437 . S
C89 H111 0.929 . S
N90 C84 1.369 . S
N90 C91 1.338 . S
N90 Gd95 2.622 . S
C91 N90 1.338 . S
C91 C93 1.378 . S
C91 H103 0.929 . S
C92 C88 1.413 . S
C92 C93 1.348 . S
C92 H108 0.931 . S
C93 C91 1.378 . S
C93 C92 1.348 . S
C93 H109 0.930 . S
Gd94 N114 2.622 . S
Gd94 N121 2.570 . S
Gd94 O128 2.353 . S
Gd94 O129 2.468 . S
Gd94 O130 2.427 . S
Gd94 O132 2.388 . S
Gd94 O133 2.386 . S
Gd94 O137 2.307 . S
Gd94 C147 2.805 . S
Gd95 N90 2.622 . S
Gd95 N96 2.570 . S
Gd95 O127 2.386 . S
Gd95 O131 2.307 . S
Gd95 O134 2.353 . S
Gd95 O135 2.468 . S
Gd95 O136 2.427 . S
Gd95 O138 2.388 . S
Gd95 C159 2.805 . S
N96 C86 1.359 . S
N96 Gd95 2.570 . S
N96 C98 1.343 . S
C97 C85 1.422 . S
C97 C99 1.321 . S
C97 H105 0.931 . S
C98 N96 1.343 . S
C98 C99 1.390 . S
C98 H100 0.931 . S
C99 C97 1.321 . S
C99 C98 1.390 . S
C99 H101 0.930 . S
H100 C98 0.931 . S
H101 C99 0.930 . S
H102 C125 0.931 . S
H103 C91 0.929 . S
H104 C126 0.930 . S
H105 C97 0.931 . S
H106 C87 0.930 . S
H107 C116 0.929 . S
H108 C92 0.931 . S
H109 C93 0.930 . S
H110 C148 0.930 . S
H111 C89 0.929 . S
H112 C117 0.931 . S
H113 C118 0.930 . S
N114 Gd94 2.622 . S
N114 C115 1.369 . S
N114 C116 1.338 . S
C115 N114 1.369 . S
C115 C119 1.415 . S
C115 C122 1.422 . S
C116 H107 0.929 . S
C116 N114 1.338 . S
C116 C118 1.378 . S
C117 H112 0.931 . S
C117 C118 1.348 . S
C117 C119 1.413 . S
C118 H113 0.930 . S
C118 C116 1.378 . S
C118 C117 1.348 . S
C119 C115 1.415 . S
C119 C117 1.413 . S
C119 C149 1.437 . S
H120 C149 0.929 . S
N121 Gd94 2.570 . S
N121 C122 1.359 . S
N121 C125 1.343 . S
C122 C115 1.422 . S
C122 N121 1.359 . S
C122 C124 1.421 . S
C123 C124 1.422 . S
C123 C126 1.321 . S
C123 H150 0.931 . S
C124 C122 1.421 . S
C124 C123 1.422 . S
C124 C148 1.417 . S
C125 H102 0.931 . S
C125 N121 1.343 . S
C125 C126 1.390 . S
C126 H104 0.930 . S
C126 C123 1.321 . S
C126 C125 1.390 . S
O127 Gd95 2.386 . S
O127 C139 1.265 . S
O128 Gd94 2.353 . S
O128 C139 1.242 . S
O129 Gd94 2.468 . S
O129 C147 1.263 . S
O130 Gd94 2.427 . S
O130 C147 1.252 . S
O131 Gd95 2.307 . S
O131 C140 1.261 . S
O132 Gd94 2.388 . S
O132 C140 1.252 . S
O133 Gd94 2.386 . S
O133 C151 1.265 . S
O134 Gd95 2.353 . S
O134 C151 1.242 . S
O135 Gd95 2.468 . S
O135 C159 1.263 . S
O136 Gd95 2.427 . S
O136 C159 1.252 . S
O137 Gd94 2.307 . S
O137 C152 1.261 . S
O138 Gd95 2.388 . S
O138 C152 1.252 . S
C139 O127 1.265 . S
C139 O128 1.242 . S
C140 O131 1.261 . S
C140 O132 1.252 . S
C141 C144 1.394 . S
C141 C146 1.370 . S
C141 C147 1.500 . S
C142 C145 1.383 . S
C142 C146 1.395 . S
C143 C144 1.396 . S
C143 C145 1.365 . S
C143 H160 0.929 . S
C144 C141 1.394 . S
C144 C143 1.396 . S
C144 H161 0.930 . S
C145 C142 1.383 . S
C145 C143 1.365 . S
C145 H162 0.931 . S
C146 C141 1.370 . S
C146 C142 1.395 . S
C146 H163 0.930 . S
C147 Gd94 2.805 . S
C147 O129 1.263 . S
C147 O130 1.252 . S
C147 C141 1.500 . S
C148 H110 0.930 . S
C148 C124 1.417 . S
C148 C149 1.329 . S
C149 C119 1.437 . S
C149 H120 0.929 . S
C149 C148 1.329 . S
H150 C123 0.931 . S
C151 O133 1.265 . S
C151 O134 1.242 . S
C152 O137 1.261 . S
C152 O138 1.252 . S
C153 C156 1.394 . S
C153 C158 1.370 . S
C153 C159 1.500 . S
C154 C157 1.383 . S
C154 C158 1.395 . S
C155 C156 1.396 . S
C155 C157 1.365 . S
C155 H164 0.929 . S
C156 C153 1.394 . S
C156 C155 1.396 . S
C156 H165 0.930 . S
C157 C154 1.383 . S
C157 C155 1.365 . S
C157 H166 0.931 . S
C158 C153 1.370 . S
C158 C154 1.395 . S
C158 H167 0.930 . S
C159 Gd95 2.805 . S
C159 O135 1.263 . S
C159 O136 1.252 . S
C159 C153 1.500 . S
H160 C143 0.929 . S
H161 C144 0.930 . S
H162 C145 0.931 . S
H163 C146 0.930 . S
H164 C155 0.929 . S
H165 C156 0.930 . S
H166 C157 0.931 . S
H167 C158 0.930 . S
C168 C170 1.422 . S
C168 C172 1.415 . S
C168 N174 1.369 . S
C169 C170 1.421 . S
C169 C171 1.417 . S
C169 C181 1.422 . S
C170 C168 1.422 . S
C170 C169 1.421 . S
C170 N180 1.359 . S
C171 C169 1.417 . S
C171 C173 1.329 . S
C171 H190 0.930 . S
C172 C168 1.415 . S
C172 C173 1.437 . S
C172 C176 1.413 . S
C173 C171 1.329 . S
C173 C172 1.437 . S
C173 H195 0.929 . S
N174 C168 1.369 . S
N174 C175 1.338 . S
N174 Gd179 2.622 . S
C175 N174 1.338 . S
C175 C177 1.378 . S
C175 H187 0.929 . S
C176 C172 1.413 . S
C176 C177 1.348 . S
C176 H192 0.931 . S
C177 C175 1.378 . S
C177 C176 1.348 . S
C177 H193 0.930 . S
Gd178 N198 2.622 . S
Gd178 N205 2.570 . S
Gd178 O212 2.353 . S
Gd178 O213 2.468 . S
Gd178 O214 2.427 . S
Gd178 O216 2.388 . S
Gd178 O217 2.386 . S
Gd178 O221 2.307 . S
Gd178 C231 2.805 . S
Gd179 N174 2.622 . S
Gd179 N180 2.570 . S
Gd179 O211 2.386 . S
Gd179 O215 2.307 . S
Gd179 O218 2.353 . S
Gd179 O219 2.468 . S
Gd179 O220 2.427 . S
Gd179 O222 2.388 . S
Gd179 C243 2.805 . S
N180 C170 1.359 . S
N180 Gd179 2.570 . S
N180 C182 1.343 . S
C181 C169 1.422 . S
C181 C183 1.321 . S
C181 H189 0.931 . S
C182 N180 1.343 . S
C182 C183 1.390 . S
C182 H184 0.931 . S
C183 C181 1.321 . S
C183 C182 1.390 . S
C183 H185 0.930 . S
H184 C182 0.931 . S
H185 C183 0.930 . S
H186 C209 0.931 . S
H187 C175 0.929 . S
H188 C210 0.930 . S
H189 C181 0.931 . S
H190 C171 0.930 . S
H191 C200 0.929 . S
H192 C176 0.931 . S
H193 C177 0.930 . S
H194 C232 0.930 . S
H195 C173 0.929 . S
H196 C201 0.931 . S
H197 C202 0.930 . S
N198 Gd178 2.622 . S
N198 C199 1.369 . S
N198 C200 1.338 . S
C199 N198 1.369 . S
C199 C203 1.415 . S
C199 C206 1.422 . S
C200 H191 0.929 . S
C200 N198 1.338 . S
C200 C202 1.378 . S
C201 H196 0.931 . S
C201 C202 1.348 . S
C201 C203 1.413 . S
C202 H197 0.930 . S
C202 C200 1.378 . S
C202 C201 1.348 . S
C203 C199 1.415 . S
C203 C201 1.413 . S
C203 C233 1.437 . S
H204 C233 0.929 . S
N205 Gd178 2.570 . S
N205 C206 1.359 . S
N205 C209 1.343 . S
C206 C199 1.422 . S
C206 N205 1.359 . S
C206 C208 1.421 . S
C207 C208 1.422 . S
C207 C210 1.321 . S
C207 H234 0.931 . S
C208 C206 1.421 . S
C208 C207 1.422 . S
C208 C232 1.417 . S
C209 H186 0.931 . S
C209 N205 1.343 . S
C209 C210 1.390 . S
C210 H188 0.930 . S
C210 C207 1.321 . S
C210 C209 1.390 . S
O211 Gd179 2.386 . S
O211 C223 1.265 . S
O212 Gd178 2.353 . S
O212 C223 1.242 . S
O213 Gd178 2.468 . S
O213 C231 1.263 . S
O214 Gd178 2.427 . S
O214 C231 1.252 . S
O215 Gd179 2.307 . S
O215 C224 1.261 . S
O216 Gd178 2.388 . S
O216 C224 1.252 . S
O217 Gd178 2.386 . S
O217 C235 1.265 . S
O218 Gd179 2.353 . S
O218 C235 1.242 . S
O219 Gd179 2.468 . S
O219 C243 1.263 . S
O220 Gd179 2.427 . S
O220 C243 1.252 . S
O221 Gd178 2.307 . S
O221 C236 1.261 . S
O222 Gd179 2.388 . S
O222 C236 1.252 . S
C223 O211 1.265 . S
C223 O212 1.242 . S
C224 O215 1.261 . S
C224 O216 1.252 . S
C225 C228 1.394 . S
C225 C230 1.370 . S
C225 C231 1.500 . S
C226 C229 1.383 . S
C226 C230 1.395 . S
C227 C228 1.396 . S
C227 C229 1.365 . S
C227 H244 0.929 . S
C228 C225 1.394 . S
C228 C227 1.396 . S
C228 H245 0.930 . S
C229 C226 1.383 . S
C229 C227 1.365 . S
C229 H246 0.931 . S
C230 C225 1.370 . S
C230 C226 1.395 . S
C230 H247 0.930 . S
C231 Gd178 2.805 . S
C231 O213 1.263 . S
C231 O214 1.252 . S
C231 C225 1.500 . S
C232 H194 0.930 . S
C232 C208 1.417 . S
C232 C233 1.329 . S
C233 C203 1.437 . S
C233 H204 0.929 . S
C233 C232 1.329 . S
H234 C207 0.931 . S
C235 O217 1.265 . S
C235 O218 1.242 . S
C236 O221 1.261 . S
C236 O222 1.252 . S
C237 C240 1.394 . S
C237 C242 1.370 . S
C237 C243 1.500 . S
C238 C241 1.383 . S
C238 C242 1.395 . S
C239 C240 1.396 . S
C239 C241 1.365 . S
C239 H248 0.929 . S
C240 C237 1.394 . S
C240 C239 1.396 . S
C240 H249 0.930 . S
C241 C238 1.383 . S
C241 C239 1.365 . S
C241 H250 0.931 . S
C242 C237 1.370 . S
C242 C238 1.395 . S
C242 H251 0.930 . S
C243 Gd179 2.805 . S
C243 O219 1.263 . S
C243 O220 1.252 . S
C243 C237 1.500 . S
H244 C227 0.929 . S
H245 C228 0.930 . S
H246 C229 0.931 . S
H247 C230 0.930 . S
H248 C239 0.929 . S
H249 C240 0.930 . S
H250 C241 0.931 . S
H251 C242 0.930 . S
C252 C254 1.422 . S
C252 C256 1.415 . S
C252 N258 1.369 . S
C253 C254 1.421 . S
C253 C255 1.417 . S
C253 C265 1.422 . S
C254 C252 1.422 . S
C254 C253 1.421 . S
C254 N264 1.359 . S
C255 C253 1.417 . S
C255 C257 1.329 . S
C255 H274 0.930 . S
C256 C252 1.415 . S
C256 C257 1.437 . S
C256 C260 1.413 . S
C257 C255 1.329 . S
C257 C256 1.437 . S
C257 H279 0.929 . S
N258 C252 1.369 . S
N258 C259 1.338 . S
N258 Gd263 2.622 . S
C259 N258 1.338 . S
C259 C261 1.378 . S
C259 H271 0.929 . S
C260 C256 1.413 . S
C260 C261 1.348 . S
C260 H276 0.931 . S
C261 C259 1.378 . S
C261 C260 1.348 . S
C261 H277 0.930 . S
Gd262 N282 2.622 . S
Gd262 N289 2.570 . S
Gd262 O296 2.353 . S
Gd262 O297 2.468 . S
Gd262 O298 2.427 . S
Gd262 O300 2.388 . S
Gd262 O301 2.386 . S
Gd262 O305 2.307 . S
Gd262 C315 2.805 . S
Gd263 N258 2.622 . S
Gd263 N264 2.570 . S
Gd263 O295 2.386 . S
Gd263 O299 2.307 . S
Gd263 O302 2.353 . S
Gd263 O303 2.468 . S
Gd263 O304 2.427 . S
Gd263 O306 2.388 . S
Gd263 C327 2.805 . S
N264 C254 1.359 . S
N264 Gd263 2.570 . S
N264 C266 1.343 . S
C265 C253 1.422 . S
C265 C267 1.321 . S
C265 H273 0.931 . S
C266 N264 1.343 . S
C266 C267 1.390 . S
C266 H268 0.931 . S
C267 C265 1.321 . S
C267 C266 1.390 . S
C267 H269 0.930 . S
H268 C266 0.931 . S
H269 C267 0.930 . S
H270 C293 0.931 . S
H271 C259 0.929 . S
H272 C294 0.930 . S
H273 C265 0.931 . S
H274 C255 0.930 . S
H275 C284 0.929 . S
H276 C260 0.931 . S
H277 C261 0.930 . S
H278 C316 0.930 . S
H279 C257 0.929 . S
H280 C285 0.931 . S
H281 C286 0.930 . S
N282 Gd262 2.622 . S
N282 C283 1.369 . S
N282 C284 1.338 . S
C283 N282 1.369 . S
C283 C287 1.415 . S
C283 C290 1.422 . S
C284 H275 0.929 . S
C284 N282 1.338 . S
C284 C286 1.378 . S
C285 H280 0.931 . S
C285 C286 1.348 . S
C285 C287 1.413 . S
C286 H281 0.930 . S
C286 C284 1.378 . S
C286 C285 1.348 . S
C287 C283 1.415 . S
C287 C285 1.413 . S
C287 C317 1.437 . S
H288 C317 0.929 . S
N289 Gd262 2.570 . S
N289 C290 1.359 . S
N289 C293 1.343 . S
C290 C283 1.422 . S
C290 N289 1.359 . S
C290 C292 1.421 . S
C291 C292 1.422 . S
C291 C294 1.321 . S
C291 H318 0.931 . S
C292 C290 1.421 . S
C292 C291 1.422 . S
C292 C316 1.417 . S
C293 H270 0.931 . S
C293 N289 1.343 . S
C293 C294 1.390 . S
C294 H272 0.930 . S
C294 C291 1.321 . S
C294 C293 1.390 . S
O295 Gd263 2.386 . S
O295 C307 1.265 . S
O296 Gd262 2.353 . S
O296 C307 1.242 . S
O297 Gd262 2.468 . S
O297 C315 1.263 . S
O298 Gd262 2.427 . S
O298 C315 1.252 . S
O299 Gd263 2.307 . S
O299 C308 1.261 . S
O300 Gd262 2.388 . S
O300 C308 1.252 . S
O301 Gd262 2.386 . S
O301 C319 1.265 . S
O302 Gd263 2.353 . S
O302 C319 1.242 . S
O303 Gd263 2.468 . S
O303 C327 1.263 . S
O304 Gd263 2.427 . S
O304 C327 1.252 . S
O305 Gd262 2.307 . S
O305 C320 1.261 . S
O306 Gd263 2.388 . S
O306 C320 1.252 . S
C307 O295 1.265 . S
C307 O296 1.242 . S
C308 O299 1.261 . S
C308 O300 1.252 . S
C309 C312 1.394 . S
C309 C314 1.370 . S
C309 C315 1.500 . S
C310 C313 1.383 . S
C310 C314 1.395 . S
C311 C312 1.396 . S
C311 C313 1.365 . S
C311 H328 0.929 . S
C312 C309 1.394 . S
C312 C311 1.396 . S
C312 H329 0.930 . S
C313 C310 1.383 . S
C313 C311 1.365 . S
C313 H330 0.931 . S
C314 C309 1.370 . S
C314 C310 1.395 . S
C314 H331 0.930 . S
C315 Gd262 2.805 . S
C315 O297 1.263 . S
C315 O298 1.252 . S
C315 C309 1.500 . S
C316 H278 0.930 . S
C316 C292 1.417 . S
C316 C317 1.329 . S
C317 C287 1.437 . S
C317 H288 0.929 . S
C317 C316 1.329 . S
H318 C291 0.931 . S
C319 O301 1.265 . S
C319 O302 1.242 . S
C320 O305 1.261 . S
C320 O306 1.252 . S
C321 C324 1.394 . S
C321 C326 1.370 . S
C321 C327 1.500 . S
C322 C325 1.383 . S
C322 C326 1.395 . S
C323 C324 1.396 . S
C323 C325 1.365 . S
C323 H332 0.929 . S
C324 C321 1.394 . S
C324 C323 1.396 . S
C324 H333 0.930 . S
C325 C322 1.383 . S
C325 C323 1.365 . S
C325 H334 0.931 . S
C326 C321 1.370 . S
C326 C322 1.395 . S
C326 H335 0.930 . S
C327 Gd263 2.805 . S
C327 O303 1.263 . S
C327 O304 1.252 . S
C327 C321 1.500 . S
H328 C311 0.929 . S
H329 C312 0.930 . S
H330 C313 0.931 . S
H331 C314 0.930 . S
H332 C323 0.929 . S
H333 C324 0.930 . S
H334 C325 0.931 . S
H335 C326 0.930 . S
C336 C338 1.422 . S
C336 C340 1.415 . S
C336 N342 1.369 . S
C337 C338 1.421 . S
C337 C339 1.417 . S
C337 C349 1.422 . S
C338 C336 1.422 . S
C338 C337 1.421 . S
C338 N348 1.359 . S
C339 C337 1.417 . S
C339 C341 1.329 . S
C339 H358 0.930 . S
C340 C336 1.415 . S
C340 C341 1.437 . S
C340 C344 1.413 . S
C341 C339 1.329 . S
C341 C340 1.437 . S
C341 H363 0.929 . S
N342 C336 1.369 . S
N342 C343 1.338 . S
N342 Gd347 2.622 . S
C343 N342 1.338 . S
C343 C345 1.378 . S
C343 H355 0.929 . S
C344 C340 1.413 . S
C344 C345 1.348 . S
C344 H360 0.931 . S
C345 C343 1.378 . S
C345 C344 1.348 . S
C345 H361 0.930 . S
Gd346 N366 2.622 . S
Gd346 N373 2.570 . S
Gd346 O380 2.353 . S
Gd346 O381 2.468 . S
Gd346 O382 2.427 . S
Gd346 O384 2.388 . S
Gd346 O385 2.386 . S
Gd346 O389 2.307 . S
Gd346 C399 2.805 . S
Gd347 N342 2.622 . S
Gd347 N348 2.570 . S
Gd347 O379 2.386 . S
Gd347 O383 2.307 . S
Gd347 O386 2.353 . S
Gd347 O387 2.468 . S
Gd347 O388 2.427 . S
Gd347 O390 2.388 . S
Gd347 C411 2.805 . S
N348 C338 1.359 . S
N348 Gd347 2.570 . S
N348 C350 1.343 . S
C349 C337 1.422 . S
C349 C351 1.321 . S
C349 H357 0.931 . S
C350 N348 1.343 . S
C350 C351 1.390 . S
C350 H352 0.931 . S
C351 C349 1.321 . S
C351 C350 1.390 . S
C351 H353 0.930 . S
H352 C350 0.931 . S
H353 C351 0.930 . S
H354 C377 0.931 . S
H355 C343 0.929 . S
H356 C378 0.930 . S
H357 C349 0.931 . S
H358 C339 0.930 . S
H359 C368 0.929 . S
H360 C344 0.931 . S
H361 C345 0.930 . S
H362 C400 0.930 . S
H363 C341 0.929 . S
H364 C369 0.931 . S
H365 C370 0.930 . S
N366 Gd346 2.622 . S
N366 C367 1.369 . S
N366 C368 1.338 . S
C367 N366 1.369 . S
C367 C371 1.415 . S
C367 C374 1.422 . S
C368 H359 0.929 . S
C368 N366 1.338 . S
C368 C370 1.378 . S
C369 H364 0.931 . S
C369 C370 1.348 . S
C369 C371 1.413 . S
C370 H365 0.930 . S
C370 C368 1.378 . S
C370 C369 1.348 . S
C371 C367 1.415 . S
C371 C369 1.413 . S
C371 C401 1.437 . S
H372 C401 0.929 . S
N373 Gd346 2.570 . S
N373 C374 1.359 . S
N373 C377 1.343 . S
C374 C367 1.422 . S
C374 N373 1.359 . S
C374 C376 1.421 . S
C375 C376 1.422 . S
C375 C378 1.321 . S
C375 H402 0.931 . S
C376 C374 1.421 . S
C376 C375 1.422 . S
C376 C400 1.417 . S
C377 H354 0.931 . S
C377 N373 1.343 . S
C377 C378 1.390 . S
C378 H356 0.930 . S
C378 C375 1.321 . S
C378 C377 1.390 . S
O379 Gd347 2.386 . S
O379 C391 1.265 . S
O380 Gd346 2.353 . S
O380 C391 1.242 . S
O381 Gd346 2.468 . S
O381 C399 1.263 . S
O382 Gd346 2.427 . S
O382 C399 1.252 . S
O383 Gd347 2.307 . S
O383 C392 1.261 . S
O384 Gd346 2.388 . S
O384 C392 1.252 . S
O385 Gd346 2.386 . S
O385 C403 1.265 . S
O386 Gd347 2.353 . S
O386 C403 1.242 . S
O387 Gd347 2.468 . S
O387 C411 1.263 . S
O388 Gd347 2.427 . S
O388 C411 1.252 . S
O389 Gd346 2.307 . S
O389 C404 1.261 . S
O390 Gd347 2.388 . S
O390 C404 1.252 . S
C391 O379 1.265 . S
C391 O380 1.242 . S
C392 O383 1.261 . S
C392 O384 1.252 . S
C393 C396 1.394 . S
C393 C398 1.370 . S
C393 C399 1.500 . S
C394 C397 1.383 . S
C394 C398 1.395 . S
C395 C396 1.396 . S
C395 C397 1.365 . S
C395 H412 0.929 . S
C396 C393 1.394 . S
C396 C395 1.396 . S
C396 H413 0.930 . S
C397 C394 1.383 . S
C397 C395 1.365 . S
C397 H414 0.931 . S
C398 C393 1.370 . S
C398 C394 1.395 . S
C398 H415 0.930 . S
C399 Gd346 2.805 . S
C399 O381 1.263 . S
C399 O382 1.252 . S
C399 C393 1.500 . S
C400 H362 0.930 . S
C400 C376 1.417 . S
C400 C401 1.329 . S
C401 C371 1.437 . S
C401 H372 0.929 . S
C401 C400 1.329 . S
H402 C375 0.931 . S
C403 O385 1.265 . S
C403 O386 1.242 . S
C404 O389 1.261 . S
C404 O390 1.252 . S
C405 C408 1.394 . S
C405 C410 1.370 . S
C405 C411 1.500 . S
C406 C409 1.383 . S
C406 C410 1.395 . S
C407 C408 1.396 . S
C407 C409 1.365 . S
C407 H416 0.929 . S
C408 C405 1.394 . S
C408 C407 1.396 . S
C408 H417 0.930 . S
C409 C406 1.383 . S
C409 C407 1.365 . S
C409 H418 0.931 . S
C410 C405 1.370 . S
C410 C406 1.395 . S
C410 H419 0.930 . S
C411 Gd347 2.805 . S
C411 O387 1.263 . S
C411 O388 1.252 . S
C411 C405 1.500 . S
H412 C395 0.929 . S
H413 C396 0.930 . S
H414 C397 0.931 . S
H415 C398 0.930 . S
H416 C407 0.929 . S
H417 C408 0.930 . S
H418 C409 0.931 . S
H419 C410 0.930 . S
C420 C422 1.422 . S
C420 C424 1.415 . S
C420 N426 1.369 . S
C421 C422 1.421 . S
C421 C423 1.417 . S
C421 C433 1.422 . S
C422 C420 1.422 . S
C422 C421 1.421 . S
C422 N432 1.359 . S
C423 C421 1.417 . S
C423 C425 1.329 . S
C423 H442 0.930 . S
C424 C420 1.415 . S
C424 C425 1.437 . S
C424 C428 1.413 . S
C425 C423 1.329 . S
C425 C424 1.437 . S
C425 H447 0.929 . S
N426 C420 1.369 . S
N426 C427 1.338 . S
N426 Gd431 2.622 . S
C427 N426 1.338 . S
C427 C429 1.378 . S
C427 H439 0.929 . S
C428 C424 1.413 . S
C428 C429 1.348 . S
C428 H444 0.931 . S
C429 C427 1.378 . S
C429 C428 1.348 . S
C429 H445 0.930 . S
Gd430 N450 2.622 . S
Gd430 N457 2.570 . S
Gd430 O464 2.353 . S
Gd430 O465 2.468 . S
Gd430 O466 2.427 . S
Gd430 O468 2.388 . S
Gd430 O469 2.386 . S
Gd430 O473 2.307 . S
Gd430 C483 2.805 . S
Gd431 N426 2.622 . S
Gd431 N432 2.570 . S
Gd431 O463 2.386 . S
Gd431 O467 2.307 . S
Gd431 O470 2.353 . S
Gd431 O471 2.468 . S
Gd431 O472 2.427 . S
Gd431 O474 2.388 . S
Gd431 C495 2.805 . S
N432 C422 1.359 . S
N432 Gd431 2.570 . S
N432 C434 1.343 . S
C433 C421 1.422 . S
C433 C435 1.321 . S
C433 H441 0.931 . S
C434 N432 1.343 . S
C434 C435 1.390 . S
C434 H436 0.931 . S
C435 C433 1.321 . S
C435 C434 1.390 . S
C435 H437 0.930 . S
H436 C434 0.931 . S
H437 C435 0.930 . S
H438 C461 0.931 . S
H439 C427 0.929 . S
H440 C462 0.930 . S
H441 C433 0.931 . S
H442 C423 0.930 . S
H443 C452 0.929 . S
H444 C428 0.931 . S
H445 C429 0.930 . S
H446 C484 0.930 . S
H447 C425 0.929 . S
H448 C453 0.931 . S
H449 C454 0.930 . S
N450 Gd430 2.622 . S
N450 C451 1.369 . S
N450 C452 1.338 . S
C451 N450 1.369 . S
C451 C455 1.415 . S
C451 C458 1.422 . S
C452 H443 0.929 . S
C452 N450 1.338 . S
C452 C454 1.378 . S
C453 H448 0.931 . S
C453 C454 1.348 . S
C453 C455 1.413 . S
C454 H449 0.930 . S
C454 C452 1.378 . S
C454 C453 1.348 . S
C455 C451 1.415 . S
C455 C453 1.413 . S
C455 C485 1.437 . S
H456 C485 0.929 . S
N457 Gd430 2.570 . S
N457 C458 1.359 . S
N457 C461 1.343 . S
C458 C451 1.422 . S
C458 N457 1.359 . S
C458 C460 1.421 . S
C459 C460 1.422 . S
C459 C462 1.321 . S
C459 H486 0.931 . S
C460 C458 1.421 . S
C460 C459 1.422 . S
C460 C484 1.417 . S
C461 H438 0.931 . S
C461 N457 1.343 . S
C461 C462 1.390 . S
C462 H440 0.930 . S
C462 C459 1.321 . S
C462 C461 1.390 . S
O463 Gd431 2.386 . S
O463 C475 1.265 . S
O464 Gd430 2.353 . S
O464 C475 1.242 . S
O465 Gd430 2.468 . S
O465 C483 1.263 . S
O466 Gd430 2.427 . S
O466 C483 1.252 . S
O467 Gd431 2.307 . S
O467 C476 1.261 . S
O468 Gd430 2.388 . S
O468 C476 1.252 . S
O469 Gd430 2.386 . S
O469 C487 1.265 . S
O470 Gd431 2.353 . S
O470 C487 1.242 . S
O471 Gd431 2.468 . S
O471 C495 1.263 . S
O472 Gd431 2.427 . S
O472 C495 1.252 . S
O473 Gd430 2.307 . S
O473 C488 1.261 . S
O474 Gd431 2.388 . S
O474 C488 1.252 . S
C475 O463 1.265 . S
C475 O464 1.242 . S
C476 O467 1.261 . S
C476 O468 1.252 . S
C477 C480 1.394 . S
C477 C482 1.370 . S
C477 C483 1.500 . S
C478 C481 1.383 . S
C478 C482 1.395 . S
C479 C480 1.396 . S
C479 C481 1.365 . S
C479 H496 0.929 . S
C480 C477 1.394 . S
C480 C479 1.396 . S
C480 H497 0.930 . S
C481 C478 1.383 . S
C481 C479 1.365 . S
C481 H498 0.931 . S
C482 C477 1.370 . S
C482 C478 1.395 . S
C482 H499 0.930 . S
C483 Gd430 2.805 . S
C483 O465 1.263 . S
C483 O466 1.252 . S
C483 C477 1.500 . S
C484 H446 0.930 . S
C484 C460 1.417 . S
C484 C485 1.329 . S
C485 C455 1.437 . S
C485 H456 0.929 . S
C485 C484 1.329 . S
H486 C459 0.931 . S
C487 O469 1.265 . S
C487 O470 1.242 . S
C488 O473 1.261 . S
C488 O474 1.252 . S
C489 C492 1.394 . S
C489 C494 1.370 . S
C489 C495 1.500 . S
C490 C493 1.383 . S
C490 C494 1.395 . S
C491 C492 1.396 . S
C491 C493 1.365 . S
C491 H500 0.929 . S
C492 C489 1.394 . S
C492 C491 1.396 . S
C492 H501 0.930 . S
C493 C490 1.383 . S
C493 C491 1.365 . S
C493 H502 0.931 . S
C494 C489 1.370 . S
C494 C490 1.395 . S
C494 H503 0.930 . S
C495 Gd431 2.805 . S
C495 O471 1.263 . S
C495 O472 1.252 . S
C495 C489 1.500 . S
H496 C479 0.929 . S
H497 C480 0.930 . S
H498 C481 0.931 . S
H499 C482 0.930 . S
H500 C491 0.929 . S
H501 C492 0.930 . S
H502 C493 0.931 . S
H503 C494 0.930 . S
C504 C506 1.422 . S
C504 C508 1.415 . S
C504 N510 1.369 . S
C505 C506 1.421 . S
C505 C507 1.417 . S
C505 C517 1.422 . S
C506 C504 1.422 . S
C506 C505 1.421 . S
C506 N516 1.359 . S
C507 C505 1.417 . S
C507 C509 1.329 . S
C507 H526 0.930 . S
C508 C504 1.415 . S
C508 C509 1.437 . S
C508 C512 1.413 . S
C509 C507 1.329 . S
C509 C508 1.437 . S
C509 H531 0.929 . S
N510 C504 1.369 . S
N510 C511 1.338 . S
N510 Gd515 2.622 . S
C511 N510 1.338 . S
C511 C513 1.378 . S
C511 H523 0.929 . S
C512 C508 1.413 . S
C512 C513 1.348 . S
C512 H528 0.931 . S
C513 C511 1.378 . S
C513 C512 1.348 . S
C513 H529 0.930 . S
Gd514 N534 2.622 . S
Gd514 N541 2.570 . S
Gd514 O548 2.353 . S
Gd514 O549 2.468 . S
Gd514 O550 2.427 . S
Gd514 O552 2.388 . S
Gd514 O553 2.386 . S
Gd514 O557 2.307 . S
Gd514 C567 2.805 . S
Gd515 N510 2.622 . S
Gd515 N516 2.570 . S
Gd515 O547 2.386 . S
Gd515 O551 2.307 . S
Gd515 O554 2.353 . S
Gd515 O555 2.468 . S
Gd515 O556 2.427 . S
Gd515 O558 2.388 . S
Gd515 C579 2.805 . S
N516 C506 1.359 . S
N516 Gd515 2.570 . S
N516 C518 1.343 . S
C517 C505 1.422 . S
C517 C519 1.321 . S
C517 H525 0.931 . S
C518 N516 1.343 . S
C518 C519 1.390 . S
C518 H520 0.931 . S
C519 C517 1.321 . S
C519 C518 1.390 . S
C519 H521 0.930 . S
H520 C518 0.931 . S
H521 C519 0.930 . S
H522 C545 0.931 . S
H523 C511 0.929 . S
H524 C546 0.930 . S
H525 C517 0.931 . S
H526 C507 0.930 . S
H527 C536 0.929 . S
H528 C512 0.931 . S
H529 C513 0.930 . S
H530 C568 0.930 . S
H531 C509 0.929 . S
H532 C537 0.931 . S
H533 C538 0.930 . S
N534 Gd514 2.622 . S
N534 C535 1.369 . S
N534 C536 1.338 . S
C535 N534 1.369 . S
C535 C539 1.415 . S
C535 C542 1.422 . S
C536 H527 0.929 . S
C536 N534 1.338 . S
C536 C538 1.378 . S
C537 H532 0.931 . S
C537 C538 1.348 . S
C537 C539 1.413 . S
C538 H533 0.930 . S
C538 C536 1.378 . S
C538 C537 1.348 . S
C539 C535 1.415 . S
C539 C537 1.413 . S
C539 C569 1.437 . S
H540 C569 0.929 . S
N541 Gd514 2.570 . S
N541 C542 1.359 . S
N541 C545 1.343 . S
C542 C535 1.422 . S
C542 N541 1.359 . S
C542 C544 1.421 . S
C543 C544 1.422 . S
C543 C546 1.321 . S
C543 H570 0.931 . S
C544 C542 1.421 . S
C544 C543 1.422 . S
C544 C568 1.417 . S
C545 H522 0.931 . S
C545 N541 1.343 . S
C545 C546 1.390 . S
C546 H524 0.930 . S
C546 C543 1.321 . S
C546 C545 1.390 . S
O547 Gd515 2.386 . S
O547 C559 1.265 . S
O548 Gd514 2.353 . S
O548 C559 1.242 . S
O549 Gd514 2.468 . S
O549 C567 1.263 . S
O550 Gd514 2.427 . S
O550 C567 1.252 . S
O551 Gd515 2.307 . S
O551 C560 1.261 . S
O552 Gd514 2.388 . S
O552 C560 1.252 . S
O553 Gd514 2.386 . S
O553 C571 1.265 . S
O554 Gd515 2.353 . S
O554 C571 1.242 . S
O555 Gd515 2.468 . S
O555 C579 1.263 . S
O556 Gd515 2.427 . S
O556 C579 1.252 . S
O557 Gd514 2.307 . S
O557 C572 1.261 . S
O558 Gd515 2.388 . S
O558 C572 1.252 . S
C559 O547 1.265 . S
C559 O548 1.242 . S
C560 O551 1.261 . S
C560 O552 1.252 . S
C561 C564 1.394 . S
C561 C566 1.370 . S
C561 C567 1.500 . S
C562 C565 1.383 . S
C562 C566 1.395 . S
C563 C564 1.396 . S
C563 C565 1.365 . S
C563 H580 0.929 . S
C564 C561 1.394 . S
C564 C563 1.396 . S
C564 H581 0.930 . S
C565 C562 1.383 . S
C565 C563 1.365 . S
C565 H582 0.931 . S
C566 C561 1.370 . S
C566 C562 1.395 . S
C566 H583 0.930 . S
C567 Gd514 2.805 . S
C567 O549 1.263 . S
C567 O550 1.252 . S
C567 C561 1.500 . S
C568 H530 0.930 . S
C568 C544 1.417 . S
C568 C569 1.329 . S
C569 C539 1.437 . S
C569 H540 0.929 . S
C569 C568 1.329 . S
H570 C543 0.931 . S
C571 O553 1.265 . S
C571 O554 1.242 . S
C572 O557 1.261 . S
C572 O558 1.252 . S
C573 C576 1.394 . S
C573 C578 1.370 . S
C573 C579 1.500 . S
C574 C577 1.383 . S
C574 C578 1.395 . S
C575 C576 1.396 . S
C575 C577 1.365 . S
C575 H584 0.929 . S
C576 C573 1.394 . S
C576 C575 1.396 . S
C576 H585 0.930 . S
C577 C574 1.383 . S
C577 C575 1.365 . S
C577 H586 0.931 . S
C578 C573 1.370 . S
C578 C574 1.395 . S
C578 H587 0.930 . S
C579 Gd515 2.805 . S
C579 O555 1.263 . S
C579 O556 1.252 . S
C579 C573 1.500 . S
H580 C563 0.929 . S
H581 C564 0.930 . S
H582 C565 0.931 . S
H583 C566 0.930 . S
H584 C575 0.929 . S
H585 C576 0.930 . S
H586 C577 0.931 . S
H587 C578 0.930 . S
C588 C590 1.422 . S
C588 C592 1.415 . S
C588 N594 1.369 . S
C589 C590 1.421 . S
C589 C591 1.417 . S
C589 C601 1.422 . S
C590 C588 1.422 . S
C590 C589 1.421 . S
C590 N600 1.359 . S
C591 C589 1.417 . S
C591 C593 1.329 . S
C591 H610 0.930 . S
C592 C588 1.415 . S
C592 C593 1.437 . S
C592 C596 1.413 . S
C593 C591 1.329 . S
C593 C592 1.437 . S
C593 H615 0.929 . S
N594 C588 1.369 . S
N594 C595 1.338 . S
N594 Gd599 2.622 . S
C595 N594 1.338 . S
C595 C597 1.378 . S
C595 H607 0.929 . S
C596 C592 1.413 . S
C596 C597 1.348 . S
C596 H612 0.931 . S
C597 C595 1.378 . S
C597 C596 1.348 . S
C597 H613 0.930 . S
Gd598 N618 2.622 . S
Gd598 N625 2.570 . S
Gd598 O632 2.353 . S
Gd598 O633 2.468 . S
Gd598 O634 2.427 . S
Gd598 O636 2.388 . S
Gd598 O637 2.386 . S
Gd598 O641 2.307 . S
Gd598 C651 2.805 . S
Gd599 N594 2.622 . S
Gd599 N600 2.570 . S
Gd599 O631 2.386 . S
Gd599 O635 2.307 . S
Gd599 O638 2.353 . S
Gd599 O639 2.468 . S
Gd599 O640 2.427 . S
Gd599 O642 2.388 . S
Gd599 C663 2.805 . S
N600 C590 1.359 . S
N600 Gd599 2.570 . S
N600 C602 1.343 . S
C601 C589 1.422 . S
C601 C603 1.321 . S
C601 H609 0.931 . S
C602 N600 1.343 . S
C602 C603 1.390 . S
C602 H604 0.931 . S
C603 C601 1.321 . S
C603 C602 1.390 . S
C603 H605 0.930 . S
H604 C602 0.931 . S
H605 C603 0.930 . S
H606 C629 0.931 . S
H607 C595 0.929 . S
H608 C630 0.930 . S
H609 C601 0.931 . S
H610 C591 0.930 . S
H611 C620 0.929 . S
H612 C596 0.931 . S
H613 C597 0.930 . S
H614 C652 0.930 . S
H615 C593 0.929 . S
H616 C621 0.931 . S
H617 C622 0.930 . S
N618 Gd598 2.622 . S
N618 C619 1.369 . S
N618 C620 1.338 . S
C619 N618 1.369 . S
C619 C623 1.415 . S
C619 C626 1.422 . S
C620 H611 0.929 . S
C620 N618 1.338 . S
C620 C622 1.378 . S
C621 H616 0.931 . S
C621 C622 1.348 . S
C621 C623 1.413 . S
C622 H617 0.930 . S
C622 C620 1.378 . S
C622 C621 1.348 . S
C623 C619 1.415 . S
C623 C621 1.413 . S
C623 C653 1.437 . S
H624 C653 0.929 . S
N625 Gd598 2.570 . S
N625 C626 1.359 . S
N625 C629 1.343 . S
C626 C619 1.422 . S
C626 N625 1.359 . S
C626 C628 1.421 . S
C627 C628 1.422 . S
C627 C630 1.321 . S
C627 H654 0.931 . S
C628 C626 1.421 . S
C628 C627 1.422 . S
C628 C652 1.417 . S
C629 H606 0.931 . S
C629 N625 1.343 . S
C629 C630 1.390 . S
C630 H608 0.930 . S
C630 C627 1.321 . S
C630 C629 1.390 . S
O631 Gd599 2.386 . S
O631 C643 1.265 . S
O632 Gd598 2.353 . S
O632 C643 1.242 . S
O633 Gd598 2.468 . S
O633 C651 1.263 . S
O634 Gd598 2.427 . S
O634 C651 1.252 . S
O635 Gd599 2.307 . S
O635 C644 1.261 . S
O636 Gd598 2.388 . S
O636 C644 1.252 . S
O637 Gd598 2.386 . S
O637 C655 1.265 . S
O638 Gd599 2.353 . S
O638 C655 1.242 . S
O639 Gd599 2.468 . S
O639 C663 1.263 . S
O640 Gd599 2.427 . S
O640 C663 1.252 . S
O641 Gd598 2.307 . S
O641 C656 1.261 . S
O642 Gd599 2.388 . S
O642 C656 1.252 . S
C643 O631 1.265 . S
C643 O632 1.242 . S
C644 O635 1.261 . S
C644 O636 1.252 . S
C645 C648 1.394 . S
C645 C650 1.370 . S
C645 C651 1.500 . S
C646 C649 1.383 . S
C646 C650 1.395 . S
C647 C648 1.396 . S
C647 C649 1.365 . S
C647 H664 0.929 . S
C648 C645 1.394 . S
C648 C647 1.396 . S
C648 H665 0.930 . S
C649 C646 1.383 . S
C649 C647 1.365 . S
C649 H666 0.931 . S
C650 C645 1.370 . S
C650 C646 1.395 . S
C650 H667 0.930 . S
C651 Gd598 2.805 . S
C651 O633 1.263 . S
C651 O634 1.252 . S
C651 C645 1.500 . S
C652 H614 0.930 . S
C652 C628 1.417 . S
C652 C653 1.329 . S
C653 C623 1.437 . S
C653 H624 0.929 . S
C653 C652 1.329 . S
H654 C627 0.931 . S
C655 O637 1.265 . S
C655 O638 1.242 . S
C656 O641 1.261 . S
C656 O642 1.252 . S
C657 C660 1.394 . S
C657 C662 1.370 . S
C657 C663 1.500 . S
C658 C661 1.383 . S
C658 C662 1.395 . S
C659 C660 1.396 . S
C659 C661 1.365 . S
C659 H668 0.929 . S
C660 C657 1.394 . S
C660 C659 1.396 . S
C660 H669 0.930 . S
C661 C658 1.383 . S
C661 C659 1.365 . S
C661 H670 0.931 . S
C662 C657 1.370 . S
C662 C658 1.395 . S
C662 H671 0.930 . S
C663 Gd599 2.805 . S
C663 O639 1.263 . S
C663 O640 1.252 . S
C663 C657 1.500 . S
H664 C647 0.929 . S
H665 C648 0.930 . S
H666 C649 0.931 . S
H667 C650 0.930 . S
H668 C659 0.929 . S
H669 C660 0.930 . S
H670 C661 0.931 . S
H671 C662 0.930 . S
Fe672 O673 1.886 1_455 S
Fe672 O676 1.715 . S
Fe672 O681 2.077 1_455 S
Fe672 O686 1.935 . S
Fe672 O692 2.077 1_455 S
Fe672 O701 1.935 . S
O673 Fe672 1.886 1_655 S
O673 Fe675 1.715 1_545 S
Fe674 O676 1.886 . S
Fe674 O677 1.715 1_545 S
Fe674 O684 1.935 1_545 S
Fe674 O685 2.077 . S
Fe674 O691 1.935 1_545 S
Fe674 O700 2.077 . S
Fe675 O673 1.715 1_565 S
Fe675 O678 1.886 . S
Fe675 O682 1.935 1_565 S
Fe675 O687 2.077 . S
Fe675 O693 1.935 1_565 S
Fe675 O697 2.077 . S
O676 Fe672 1.715 . S
O676 Fe674 1.886 . S
O677 Fe674 1.715 1_565 S
O677 Fe679 1.886 1_455 S
O678 Fe675 1.886 . S
O678 Fe679 1.715 . S
Fe679 O677 1.886 1_655 S
Fe679 O678 1.715 . S
Fe679 O683 2.077 1_655 S
Fe679 O688 1.935 . S
Fe679 O690 2.077 1_655 S
Fe679 O698 1.935 . S
C680 O692 1.381 . S
C680 O693 1.421 . S
O681 Fe672 2.077 1_655 S
O681 C694 1.381 . S
O682 Fe675 1.935 1_545 S
O682 C694 1.421 . S
O683 Fe679 2.077 1_455 S
O683 C699 1.381 . S
O684 Fe674 1.935 1_565 S
O684 C699 1.421 . S
O685 Fe674 2.077 . S
O685 C689 1.381 . S
O686 Fe672 1.935 . S
O686 C689 1.421 . S
O687 Fe675 2.077 . S
O687 C695 1.381 . S
O688 Fe679 1.935 . S
O688 C695 1.421 . S
C689 O685 1.381 . S
C689 O686 1.421 . S
O690 Fe679 2.077 1_455 S
O690 C702 1.381 . S
O691 Fe674 1.935 1_565 S
O691 C702 1.421 . S
O692 Fe672 2.077 1_655 S
O692 C680 1.381 . S
O693 Fe675 1.935 1_545 S
O693 C680 1.421 . S
C694 O681 1.381 . S
C694 O682 1.421 . S
C695 O687 1.381 . S
C695 O688 1.421 . S
C696 O697 1.381 . S
C696 O698 1.421 . S
O697 Fe675 2.077 . S
O697 C696 1.381 . S
O698 Fe679 1.935 . S
O698 C696 1.421 . S
C699 O683 1.381 . S
C699 O684 1.421 . S
O700 Fe674 2.077 . S
O700 C703 1.381 . S
O701 Fe672 1.935 . S
O701 C703 1.421 . S
C702 O690 1.381 . S
C702 O691 1.421 . S
C703 O700 1.381 . S
C703 O701 1.421 . S
Fe704 O705 1.886 . S
Fe704 O708 1.714 . S
Fe704 O713 2.077 . S
Fe704 O718 1.935 . S
Fe704 O724 2.077 1_556 S
Fe704 O733 1.935 1_556 S
O705 Fe704 1.886 . S
O705 Fe707 1.715 1_565 S
Fe706 O708 1.887 1_554 S
Fe706 O709 1.715 1_565 S
Fe706 O716 1.935 1_564 S
Fe706 O717 2.077 1_554 S
Fe706 O723 1.935 1_565 S
Fe706 O732 2.077 . S
Fe707 O705 1.715 1_545 S
Fe707 O710 1.888 1_556 S
Fe707 O714 1.935 1_545 S
Fe707 O719 2.077 . S
Fe707 O725 1.935 1_546 S
Fe707 O729 2.077 1_556 S
O708 Fe704 1.714 . S
O708 Fe706 1.887 1_556 S
O709 Fe706 1.715 1_545 S
O709 Fe711 1.886 . S
O710 Fe707 1.888 1_554 S
O710 Fe711 1.713 . S
Fe711 O709 1.886 . S
Fe711 O710 1.713 . S
Fe711 O715 2.077 1_554 S
Fe711 O720 1.935 1_554 S
Fe711 O722 2.077 . S
Fe711 O730 1.935 . S
C712 O724 1.381 . S
C712 O725 1.421 . S
O713 Fe704 2.077 . S
O713 C726 1.381 . S
O714 Fe707 1.935 1_565 S
O714 C726 1.421 . S
O715 Fe711 2.077 1_556 S
O715 C731 1.381 . S
O716 Fe706 1.935 1_546 S
O716 C731 1.421 . S
O717 Fe706 2.077 1_556 S
O717 C721 1.381 . S
O718 Fe704 1.935 . S
O718 C721 1.421 . S
O719 Fe707 2.077 . S
O719 C727 1.381 . S
O720 Fe711 1.935 1_556 S
O720 C727 1.421 . S
C721 O717 1.381 . S
C721 O718 1.421 . S
O722 Fe711 2.077 . S
O722 C734 1.381 . S
O723 Fe706 1.935 1_545 S
O723 C734 1.421 . S
O724 Fe704 2.077 1_554 S
O724 C712 1.381 . S
O725 Fe707 1.935 1_564 S
O725 C712 1.421 . S
C726 O713 1.381 . S
C726 O714 1.421 . S
C727 O719 1.381 . S
C727 O720 1.421 . S
C728 O729 1.381 . S
C728 O730 1.421 . S
O729 Fe707 2.077 1_554 S
O729 C728 1.381 . S
O730 Fe711 1.935 . S
O730 C728 1.421 . S
C731 O715 1.381 . S
C731 O716 1.421 . S
O732 Fe706 2.077 . S
O732 C735 1.381 . S
O733 Fe704 1.935 1_554 S
O733 C735 1.421 . S
C734 O722 1.381 . S
C734 O723 1.421 . S
C735 O732 1.381 . S
C735 O733 1.421 . S
Fe736 O737 1.886 1_455 S
Fe736 O740 1.714 . S
Fe736 O745 2.077 1_454 S
Fe736 O750 1.935 1_554 S
Fe736 O756 2.077 1_455 S
Fe736 O765 1.935 . S
O737 Fe736 1.886 1_655 S
O737 Fe739 1.715 . S
Fe738 O740 1.887 1_556 S
Fe738 O741 1.715 . S
Fe738 O748 1.935 . S
Fe738 O749 2.077 . S
Fe738 O755 1.935 1_556 S
Fe738 O764 2.077 1_556 S
Fe739 O737 1.715 . S
Fe739 O742 1.887 1_554 S
Fe739 O746 1.935 1_554 S
Fe739 O751 2.077 1_554 S
Fe739 O757 1.935 . S
Fe739 O761 2.077 . S
O740 Fe736 1.714 . S
O740 Fe738 1.887 1_554 S
O741 Fe738 1.715 . S
O741 Fe743 1.886 1_455 S
O742 Fe739 1.887 1_556 S
O742 Fe743 1.714 . S
Fe743 O741 1.886 1_655 S
Fe743 O742 1.714 . S
Fe743 O747 2.077 1_655 S
Fe743 O752 1.935 . S
Fe743 O754 2.077 1_656 S
Fe743 O762 1.935 1_556 S
C744 O756 1.381 . S
C744 O757 1.421 . S
O745 Fe736 2.077 1_656 S
O745 C758 1.381 . S
O746 Fe739 1.935 1_556 S
O746 C758 1.421 . S
O747 Fe743 2.077 1_455 S
O747 C763 1.381 . S
O748 Fe738 1.935 . S
O748 C763 1.421 . S
O749 Fe738 2.077 . S
O749 C753 1.381 . S
O750 Fe736 1.935 1_556 S
O750 C753 1.421 . S
O751 Fe739 2.077 1_556 S
O751 C759 1.381 . S
O752 Fe743 1.935 . S
O752 C759 1.421 . S
C753 O749 1.381 . S
C753 O750 1.421 . S
O754 Fe743 2.077 1_454 S
O754 C766 1.381 . S
O755 Fe738 1.935 1_554 S
O755 C766 1.421 . S
O756 Fe736 2.077 1_655 S
O756 C744 1.381 . S
O757 Fe739 1.935 . S
O757 C744 1.421 . S
C758 O745 1.381 . S
C758 O746 1.421 . S
C759 O751 1.381 . S
C759 O752 1.421 . S
C760 O761 1.381 . S
C760 O762 1.421 . S
O761 Fe739 2.077 . S
O761 C760 1.381 . S
O762 Fe743 1.935 1_554 S
O762 C760 1.421 . S
C763 O747 1.381 . S
C763 O748 1.421 . S
O764 Fe738 2.077 1_554 S
O764 C767 1.381 . S
O765 Fe736 1.935 . S
O765 C767 1.421 . S
C766 O754 1.381 . S
C766 O755 1.421 . S
C767 O764 1.381 . S
C767 O765 1.421 . S
Fe768 O769 1.886 . S
Fe768 O772 1.715 . S
Fe768 O777 2.077 . S
Fe768 O782 1.935 . S
Fe768 O788 2.077 . S
Fe768 O797 1.935 . S
O769 Fe768 1.886 . S
O769 Fe771 1.715 . S
Fe770 O772 1.886 1_554 S
Fe770 O773 1.715 . S
Fe770 O780 1.935 . S
Fe770 O781 2.077 1_554 S
Fe770 O787 1.935 . S
Fe770 O796 2.077 1_554 S
Fe771 O769 1.715 . S
Fe771 O774 1.886 1_556 S
Fe771 O778 1.935 . S
Fe771 O783 2.077 1_556 S
Fe771 O789 1.935 . S
Fe771 O793 2.077 1_556 S
O772 Fe768 1.715 . S
O772 Fe770 1.886 1_556 S
O773 Fe770 1.715 . S
O773 Fe775 1.886 . S
O774 Fe771 1.886 1_554 S
O774 Fe775 1.715 . S
Fe775 O773 1.886 . S
Fe775 O774 1.715 . S
Fe775 O779 2.077 . S
Fe775 O784 1.935 . S
Fe775 O786 2.077 . S
Fe775 O794 1.935 . S
C776 O788 1.381 . S
C776 O789 1.421 . S
O777 Fe768 2.077 . S
O777 C790 1.381 . S
O778 Fe771 1.935 . S
O778 C790 1.421 . S
O779 Fe775 2.077 . S
O779 C795 1.381 . S
O780 Fe770 1.935 . S
O780 C795 1.421 . S
O781 Fe770 2.077 1_556 S
O781 C785 1.381 . S
O782 Fe768 1.935 . S
O782 C785 1.421 . S
O783 Fe771 2.077 1_554 S
O783 C791 1.381 . S
O784 Fe775 1.935 . S
O784 C791 1.421 . S
C785 O781 1.381 . S
C785 O782 1.421 . S
O786 Fe775 2.077 . S
O786 C798 1.381 . S
O787 Fe770 1.935 . S
O787 C798 1.421 . S
O788 Fe768 2.077 . S
O788 C776 1.381 . S
O789 Fe771 1.935 . S
O789 C776 1.421 . S
C790 O777 1.381 . S
C790 O778 1.421 . S
C791 O783 1.381 . S
C791 O784 1.421 . S
C792 O793 1.381 . S
C792 O794 1.421 . S
O793 Fe771 2.077 1_554 S
O793 C792 1.381 . S
O794 Fe775 1.935 . S
O794 C792 1.421 . S
C795 O779 1.381 . S
C795 O780 1.421 . S
O796 Fe770 2.077 1_556 S
O796 C799 1.381 . S
O797 Fe768 1.935 . S
O797 C799 1.421 . S
C798 O786 1.381 . S
C798 O787 1.421 . S
C799 O796 1.381 . S
C799 O797 1.421 . S
Fe800 O801 1.886 . S
Fe800 O804 1.715 . S
Fe800 O809 2.077 1_655 S
Fe800 O814 1.935 1_655 S
Fe800 O820 2.077 . S
Fe800 O829 1.935 . S
O801 Fe800 1.886 . S
O801 Fe803 1.715 . S
Fe802 O804 1.886 1_455 S
Fe802 O805 1.715 . S
Fe802 O812 1.935 . S
Fe802 O813 2.077 . S
Fe802 O819 1.935 1_455 S
Fe802 O828 2.077 1_455 S
Fe803 O801 1.715 . S
Fe803 O806 1.886 1_655 S
Fe803 O810 1.935 1_655 S
Fe803 O815 2.077 1_655 S
Fe803 O821 1.935 . S
Fe803 O825 2.077 . S
O804 Fe800 1.715 . S
O804 Fe802 1.886 1_655 S
O805 Fe802 1.715 . S
O805 Fe807 1.886 . S
O806 Fe803 1.886 1_455 S
O806 Fe807 1.715 . S
Fe807 O805 1.886 . S
Fe807 O806 1.715 . S
Fe807 O811 2.077 . S
Fe807 O816 1.935 . S
Fe807 O818 2.077 1_455 S
Fe807 O826 1.935 1_455 S
C808 O820 1.381 . S
C808 O821 1.421 . S
O809 Fe800 2.077 1_455 S
O809 C822 1.381 . S
O810 Fe803 1.935 1_455 S
O810 C822 1.421 . S
O811 Fe807 2.077 . S
O811 C827 1.381 . S
O812 Fe802 1.935 . S
O812 C827 1.421 . S
O813 Fe802 2.077 . S
O813 C817 1.381 . S
O814 Fe800 1.935 1_455 S
O814 C817 1.421 . S
O815 Fe803 2.077 1_455 S
O815 C823 1.381 . S
O816 Fe807 1.935 . S
O816 C823 1.421 . S
C817 O813 1.381 . S
C817 O814 1.421 . S
O818 Fe807 2.077 1_655 S
O818 C830 1.381 . S
O819 Fe802 1.935 1_655 S
O819 C830 1.421 . S
O820 Fe800 2.077 . S
O820 C808 1.381 . S
O821 Fe803 1.935 . S
O821 C808 1.421 . S
C822 O809 1.381 . S
C822 O810 1.421 . S
C823 O815 1.381 . S
C823 O816 1.421 . S
C824 O825 1.381 . S
C824 O826 1.421 . S
O825 Fe803 2.077 . S
O825 C824 1.381 . S
O826 Fe807 1.935 1_655 S
O826 C824 1.421 . S
C827 O811 1.381 . S
C827 O812 1.421 . S
O828 Fe802 2.077 1_655 S
O828 C831 1.381 . S
O829 Fe800 1.935 . S
O829 C831 1.421 . S
C830 O818 1.381 . S
C830 O819 1.421 . S
C831 O828 1.381 . S
C831 O829 1.421 . S
Fe832 O833 1.886 . S
Fe832 O836 1.715 . S
Fe832 O841 2.077 . S
Fe832 O846 1.935 . S
Fe832 O852 2.077 . S
Fe832 O861 1.935 . S
O833 Fe832 1.886 . S
O833 Fe835 1.715 1_565 S
Fe834 O836 1.886 . S
Fe834 O837 1.715 1_565 S
Fe834 O844 1.935 1_565 S
Fe834 O845 2.077 . S
Fe834 O851 1.935 1_565 S
Fe834 O860 2.077 . S
Fe835 O833 1.715 1_545 S
Fe835 O838 1.886 . S
Fe835 O842 1.935 1_545 S
Fe835 O847 2.077 . S
Fe835 O853 1.935 1_545 S
Fe835 O857 2.077 . S
O836 Fe832 1.715 . S
O836 Fe834 1.886 . S
O837 Fe834 1.715 1_545 S
O837 Fe839 1.886 . S
O838 Fe835 1.886 . S
O838 Fe839 1.715 . S
Fe839 O837 1.886 . S
Fe839 O838 1.715 . S
Fe839 O843 2.077 . S
Fe839 O848 1.935 . S
Fe839 O850 2.077 . S
Fe839 O858 1.935 . S
C840 O852 1.381 . S
C840 O853 1.421 . S
O841 Fe832 2.077 . S
O841 C854 1.381 . S
O842 Fe835 1.935 1_565 S
O842 C854 1.421 . S
O843 Fe839 2.077 . S
O843 C859 1.381 . S
O844 Fe834 1.935 1_545 S
O844 C859 1.421 . S
O845 Fe834 2.077 . S
O845 C849 1.381 . S
O846 Fe832 1.935 . S
O846 C849 1.421 . S
O847 Fe835 2.077 . S
O847 C855 1.381 . S
O848 Fe839 1.935 . S
O848 C855 1.421 . S
C849 O845 1.381 . S
C849 O846 1.421 . S
O850 Fe839 2.077 . S
O850 C862 1.381 . S
O851 Fe834 1.935 1_545 S
O851 C862 1.421 . S
O852 Fe832 2.077 . S
O852 C840 1.381 . S
O853 Fe835 1.935 1_565 S
O853 C840 1.421 . S
C854 O841 1.381 . S
C854 O842 1.421 . S
C855 O847 1.381 . S
C855 O848 1.421 . S
C856 O857 1.381 . S
C856 O858 1.421 . S
O857 Fe835 2.077 . S
O857 C856 1.381 . S
O858 Fe839 1.935 . S
O858 C856 1.421 . S
C859 O843 1.381 . S
C859 O844 1.421 . S
O860 Fe834 2.077 . S
O860 C863 1.381 . S
O861 Fe832 1.935 . S
O861 C863 1.421 . S
C862 O850 1.381 . S
C862 O851 1.421 . S
C863 O860 1.381 . S
C863 O861 1.421 . S
C864 C865 1.369 . S
C864 C866 1.419 . S
C864 H868 0.930 . S
C865 C864 1.369 . S
C865 C874 1.429 . S
C866 C864 1.419 . S
C866 C867 1.363 . S
C866 H869 0.929 . S
C867 C866 1.363 . S
C867 C873 1.428 . S
H868 C864 0.930 . S
H869 C866 0.929 . S
S870 N871 1.613 . S
S870 N872 1.610 . S
N871 S870 1.613 . S
N871 C874 1.350 . S
N872 S870 1.610 . S
N872 C873 1.351 . S
C873 C867 1.428 . S
C873 N872 1.351 . S
C873 C874 1.434 . S
C874 C865 1.429 . S
C874 N871 1.350 . S
C874 C873 1.434 . S
C875 C876 1.369 . S
C875 C877 1.419 . S
C875 H879 0.930 . S
C876 C875 1.369 . S
C876 C885 1.429 . S
C877 C875 1.419 . S
C877 C878 1.363 . S
C877 H880 0.929 . S
C878 C877 1.363 . S
C878 C884 1.428 . S
H879 C875 0.930 . S
H880 C877 0.929 . S
S881 N882 1.613 1_455 S
S881 N883 1.610 1_455 S
N882 S881 1.613 1_655 S
N882 C885 1.350 . S
N883 S881 1.610 1_655 S
N883 C884 1.351 . S
C884 C878 1.428 . S
C884 N883 1.351 . S
C884 C885 1.434 . S
C885 C876 1.429 . S
C885 N882 1.350 . S
C885 C884 1.434 . S
C886 C887 1.369 . S
C886 C888 1.419 . S
C886 H890 0.930 . S
C887 C886 1.369 . S
C887 C896 1.429 . S
C888 C886 1.419 . S
C888 C889 1.363 . S
C888 H891 0.929 . S
C889 C888 1.363 . S
C889 C895 1.428 . S
H890 C886 0.930 . S
H891 C888 0.929 . S
S892 N893 1.613 . S
S892 N894 1.610 . S
N893 S892 1.613 . S
N893 C896 1.350 . S
N894 S892 1.610 . S
N894 C895 1.351 . S
C895 C889 1.428 . S
C895 N894 1.351 . S
C895 C896 1.434 . S
C896 C887 1.429 . S
C896 N893 1.350 . S
C896 C895 1.434 . S
C897 C898 1.369 . S
C897 C899 1.419 . S
C897 H901 0.930 . S
C898 C897 1.369 . S
C898 C907 1.429 . S
C899 C897 1.419 . S
C899 C900 1.363 . S
C899 H902 0.929 . S
C900 C899 1.363 . S
C900 C906 1.428 . S
H901 C897 0.930 . S
H902 C899 0.929 . S
S903 N904 1.613 . S
S903 N905 1.610 . S
N904 S903 1.613 . S
N904 C907 1.350 . S
N905 S903 1.610 . S
N905 C906 1.351 . S
C906 C900 1.428 . S
C906 N905 1.351 . S
C906 C907 1.434 . S
C907 C898 1.429 . S
C907 N904 1.350 . S
C907 C906 1.434 . S
C908 C909 1.369 . S
C908 C910 1.419 . S
C908 H912 0.930 . S
C909 C908 1.369 . S
C909 C918 1.429 . S
C910 C908 1.419 . S
C910 C911 1.363 . S
C910 H913 0.929 . S
C911 C910 1.363 . S
C911 C917 1.428 . S
H912 C908 0.930 . S
H913 C910 0.929 . S
S914 N915 1.613 . S
S914 N916 1.610 . S
N915 S914 1.613 . S
N915 C918 1.350 . S
N916 S914 1.610 . S
N916 C917 1.351 . S
C917 C911 1.428 . S
C917 N916 1.351 . S
C917 C918 1.434 . S
C918 C909 1.429 . S
C918 N915 1.350 . S
C918 C917 1.434 . S
C919 C920 1.369 . S
C919 C921 1.419 . S
C919 H923 0.930 . S
C920 C919 1.369 . S
C920 C929 1.429 . S
C921 C919 1.419 . S
C921 C922 1.363 . S
C921 H924 0.929 . S
C922 C921 1.363 . S
C922 C928 1.428 . S
H923 C919 0.930 . S
H924 C921 0.929 . S
S925 N926 1.613 . S
S925 N927 1.610 . S
N926 S925 1.613 . S
N926 C929 1.350 . S
N927 S925 1.610 . S
N927 C928 1.351 . S
C928 C922 1.428 . S
C928 N927 1.351 . S
C928 C929 1.434 . S
C929 C920 1.429 . S
C929 N926 1.350 . S
C929 C928 1.434 . S
C930 C931 1.369 . S
C930 C932 1.419 . S
C930 H934 0.930 . S
C931 C930 1.369 . S
C931 C940 1.429 . S
C932 C930 1.419 . S
C932 C933 1.363 . S
C932 H935 0.929 . S
C933 C932 1.363 . S
C933 C939 1.428 . S
H934 C930 0.930 . S
H935 C932 0.929 . S
S936 N937 1.613 . S
S936 N938 1.610 . S
N937 S936 1.613 . S
N937 C940 1.350 . S
N938 S936 1.610 . S
N938 C939 1.351 . S
C939 C933 1.428 . S
C939 N938 1.351 . S
C939 C940 1.434 . S
C940 C931 1.429 . S
C940 N937 1.350 . S
C940 C939 1.434 . S
C941 C942 1.369 . S
C941 C943 1.419 . S
C941 H945 0.930 . S
C942 C941 1.369 . S
C942 C951 1.429 . S
C943 C941 1.419 . S
C943 C944 1.363 . S
C943 H946 0.929 . S
C944 C943 1.363 . S
C944 C950 1.428 . S
H945 C941 0.930 . S
H946 C943 0.929 . S
S947 N948 1.613 . S
S947 N949 1.610 . S
N948 S947 1.613 . S
N948 C951 1.350 . S
N949 S947 1.610 . S
N949 C950 1.351 . S
C950 C944 1.428 . S
C950 N949 1.351 . S
C950 C951 1.434 . S
C951 C942 1.429 . S
C951 N948 1.350 . S
C951 C950 1.434 . S
C952 C953 1.369 . S
C952 C954 1.419 . S
C952 H956 0.930 . S
C953 C952 1.369 . S
C953 C962 1.429 . S
C954 C952 1.419 . S
C954 C955 1.363 . S
C954 H957 0.929 . S
C955 C954 1.363 . S
C955 C961 1.428 . S
H956 C952 0.930 . S
H957 C954 0.929 . S
S958 N959 1.613 . S
S958 N960 1.610 . S
N959 S958 1.613 . S
N959 C962 1.350 . S
N960 S958 1.610 . S
N960 C961 1.351 . S
C961 C955 1.428 . S
C961 N960 1.351 . S
C961 C962 1.434 . S
C962 C953 1.429 . S
C962 N959 1.350 . S
C962 C961 1.434 . S
C963 C964 1.369 . S
C963 C965 1.419 . S
C963 H967 0.930 . S
C964 C963 1.369 . S
C964 C973 1.429 . S
C965 C963 1.419 . S
C965 C966 1.363 . S
C965 H968 0.929 . S
C966 C965 1.363 . S
C966 C972 1.428 . S
H967 C963 0.930 . S
H968 C965 0.929 . S
S969 N970 1.613 . S
S969 N971 1.610 . S
N970 S969 1.613 . S
N970 C973 1.350 . S
N971 S969 1.610 . S
N971 C972 1.351 . S
C972 C966 1.428 . S
C972 N971 1.351 . S
C972 C973 1.434 . S
C973 C964 1.429 . S
C973 N970 1.350 . S
C973 C972 1.434 . S
C974 C975 1.369 . S
C974 C976 1.419 . S
C974 H978 0.930 . S
C975 C974 1.369 . S
C975 C984 1.429 . S
C976 C974 1.419 . S
C976 C977 1.363 . S
C976 H979 0.929 . S
C977 C976 1.363 . S
C977 C983 1.428 . S
H978 C974 0.930 . S
H979 C976 0.929 . S
S980 N981 1.613 . S
S980 N982 1.610 . S
N981 S980 1.613 . S
N981 C984 1.350 . S
N982 S980 1.610 . S
N982 C983 1.351 . S
C983 C977 1.428 . S
C983 N982 1.351 . S
C983 C984 1.434 . S
C984 C975 1.429 . S
C984 N981 1.350 . S
C984 C983 1.434 . S
C985 C986 1.369 . S
C985 C987 1.419 . S
C985 H989 0.930 . S
C986 C985 1.369 . S
C986 C995 1.429 . S
C987 C985 1.419 . S
C987 C988 1.363 . S
C987 H990 0.929 . S
C988 C987 1.363 . S
C988 C994 1.428 . S
H989 C985 0.930 . S
H990 C987 0.929 . S
S991 N992 1.613 . S
S991 N993 1.610 . S
N992 S991 1.613 . S
N992 C995 1.350 . S
N993 S991 1.610 . S
N993 C994 1.351 . S
C994 C988 1.428 . S
C994 N993 1.351 . S
C994 C995 1.434 . S
C995 C986 1.429 . S
C995 N992 1.350 . S
C995 C994 1.434 . S
C996 C997 1.369 . S
C996 C998 1.419 . S
C996 H1000 0.930 . S
C997 C996 1.369 . S
C997 C1006 1.429 . S
C998 C996 1.419 . S
C998 C999 1.363 . S
C998 H1001 0.929 . S
C999 C998 1.363 . S
C999 C1005 1.428 . S
H1000 C996 0.930 . S
H1001 C998 0.929 . S
S1002 N1003 1.613 . S
S1002 N1004 1.610 . S
N1003 S1002 1.613 . S
N1003 C1006 1.350 . S
N1004 S1002 1.610 . S
N1004 C1005 1.351 . S
C1005 C999 1.428 . S
C1005 N1004 1.351 . S
C1005 C1006 1.434 . S
C1006 C997 1.429 . S
C1006 N1003 1.350 . S
C1006 C1005 1.434 . S
C1007 C1008 1.369 . S
C1007 C1009 1.419 . S
C1007 H1011 0.930 . S
C1008 C1007 1.369 . S
C1008 C1017 1.429 . S
C1009 C1007 1.419 . S
C1009 C1010 1.363 . S
C1009 H1012 0.929 . S
C1010 C1009 1.363 . S
C1010 C1016 1.428 . S
H1011 C1007 0.930 . S
H1012 C1009 0.929 . S
S1013 N1014 1.613 . S
S1013 N1015 1.610 . S
N1014 S1013 1.613 . S
N1014 C1017 1.350 . S
N1015 S1013 1.610 . S
N1015 C1016 1.351 . S
C1016 C1010 1.428 . S
C1016 N1015 1.351 . S
C1016 C1017 1.434 . S
C1017 C1008 1.429 . S
C1017 N1014 1.350 . S
C1017 C1016 1.434 . S
C1018 C1019 1.369 . S
C1018 C1020 1.419 . S
C1018 H1022 0.930 . S
C1019 C1018 1.369 . S
C1019 C1028 1.429 . S
C1020 C1018 1.419 . S
C1020 C1021 1.363 . S
C1020 H1023 0.929 . S
C1021 C1020 1.363 . S
C1021 C1027 1.428 . S
H1022 C1018 0.930 . S
H1023 C1020 0.929 . S
S1024 N1025 1.613 . S
S1024 N1026 1.610 . S
N1025 S1024 1.613 . S
N1025 C1028 1.350 . S
N1026 S1024 1.610 . S
N1026 C1027 1.351 . S
C1027 C1021 1.428 . S
C1027 N1026 1.351 . S
C1027 C1028 1.434 . S
C1028 C1019 1.429 . S
C1028 N1025 1.350 . S
C1028 C1027 1.434 . S
C1029 C1030 1.369 . S
C1029 C1031 1.419 . S
C1029 H1033 0.930 . S
C1030 C1029 1.369 . S
C1030 C1039 1.429 . S
C1031 C1029 1.419 . S
C1031 C1032 1.363 . S
C1031 H1034 0.929 . S
C1032 C1031 1.363 . S
C1032 C1038 1.428 . S
H1033 C1029 0.930 . S
H1034 C1031 0.929 . S
S1035 N1036 1.613 1_554 S
S1035 N1037 1.610 1_554 S
N1036 S1035 1.613 1_556 S
N1036 C1039 1.350 . S
N1037 S1035 1.610 1_556 S
N1037 C1038 1.351 . S
C1038 C1032 1.428 . S
C1038 N1037 1.351 . S
C1038 C1039 1.434 . S
C1039 C1030 1.429 . S
C1039 N1036 1.350 . S
C1039 C1038 1.434 . S
C1040 C1041 1.369 . S
C1040 C1042 1.419 . S
C1040 H1044 0.930 . S
C1041 C1040 1.369 . S
C1041 C1050 1.429 . S
C1042 C1040 1.419 . S
C1042 C1043 1.363 . S
C1042 H1045 0.929 . S
C1043 C1042 1.363 . S
C1043 C1049 1.428 . S
H1044 C1040 0.930 . S
H1045 C1042 0.929 . S
S1046 N1047 1.613 1_655 S
S1046 N1048 1.610 . S
N1047 S1046 1.613 1_455 S
N1047 C1050 1.350 . S
N1048 S1046 1.610 . S
N1048 C1049 1.351 1_655 S
C1049 C1043 1.428 . S
C1049 N1048 1.351 1_455 S
C1049 C1050 1.434 . S
C1050 C1041 1.429 . S
C1050 N1047 1.350 . S
C1050 C1049 1.434 . S
C1051 C1052 1.369 . S
C1051 C1053 1.419 . S
C1051 H1055 0.930 . S
C1052 C1051 1.369 . S
C1052 C1061 1.429 . S
C1053 C1051 1.419 . S
C1053 C1054 1.363 . S
C1053 H1056 0.929 . S
C1054 C1053 1.363 . S
C1054 C1060 1.428 . S
H1055 C1051 0.930 . S
H1056 C1053 0.929 . S
S1057 N1058 1.613 . S
S1057 N1059 1.610 . S
N1058 S1057 1.613 . S
N1058 C1061 1.350 . S
N1059 S1057 1.610 . S
N1059 C1060 1.351 . S
C1060 C1054 1.428 . S
C1060 N1059 1.351 . S
C1060 C1061 1.434 . S
C1061 C1052 1.429 . S
C1061 N1058 1.350 . S
C1061 C1060 1.434 . S
C1062 C1063 1.369 . S
C1062 C1064 1.419 . S
C1062 H1066 0.930 . S
C1063 C1062 1.369 . S
C1063 C1072 1.429 . S
C1064 C1062 1.419 . S
C1064 C1065 1.363 . S
C1064 H1067 0.929 . S
C1065 C1064 1.363 . S
C1065 C1071 1.428 . S
H1066 C1062 0.930 . S
H1067 C1064 0.929 . S
S1068 N1069 1.613 1_554 S
S1068 N1070 1.610 1_554 S
N1069 S1068 1.613 1_556 S
N1069 C1072 1.350 . S
N1070 S1068 1.610 1_556 S
N1070 C1071 1.351 . S
C1071 C1065 1.428 . S
C1071 N1070 1.351 . S
C1071 C1072 1.434 . S
C1072 C1063 1.429 . S
C1072 N1069 1.350 . S
C1072 C1071 1.434 . S
C1073 C1074 1.369 . S
C1073 C1075 1.419 . S
C1073 H1077 0.930 . S
C1074 C1073 1.369 . S
C1074 C1083 1.429 . S
C1075 C1073 1.419 . S
C1075 C1076 1.363 . S
C1075 H1078 0.929 . S
C1076 C1075 1.363 . S
C1076 C1082 1.428 . S
H1077 C1073 0.930 . S
H1078 C1075 0.929 . S
S1079 N1080 1.613 . S
S1079 N1081 1.610 . S
N1080 S1079 1.613 . S
N1080 C1083 1.350 . S
N1081 S1079 1.610 . S
N1081 C1082 1.351 . S
C1082 C1076 1.428 . S
C1082 N1081 1.351 . S
C1082 C1083 1.434 . S
C1083 C1074 1.429 . S
C1083 N1080 1.350 . S
C1083 C1082 1.434 . S
C1084 C1085 1.369 . S
C1084 C1086 1.419 . S
C1084 H1088 0.930 . S
C1085 C1084 1.369 . S
C1085 C1094 1.429 . S
C1086 C1084 1.419 . S
C1086 C1087 1.363 . S
C1086 H1089 0.929 . S
C1087 C1086 1.363 . S
C1087 C1093 1.428 . S
H1088 C1084 0.930 . S
H1089 C1086 0.929 . S
S1090 N1091 1.613 . S
S1090 N1092 1.610 . S
N1091 S1090 1.613 . S
N1091 C1094 1.350 . S
N1092 S1090 1.610 . S
N1092 C1093 1.351 . S
C1093 C1087 1.428 . S
C1093 N1092 1.351 . S
C1093 C1094 1.434 . S
C1094 C1085 1.429 . S
C1094 N1091 1.350 . S
C1094 C1093 1.434 . S
C1095 C1096 1.369 . S
C1095 C1097 1.419 . S
C1095 H1099 0.930 . S
C1096 C1095 1.369 . S
C1096 C1105 1.429 . S
C1097 C1095 1.419 . S
C1097 C1098 1.363 . S
C1097 H1100 0.929 . S
C1098 C1097 1.363 . S
C1098 C1104 1.428 . S
H1099 C1095 0.930 . S
H1100 C1097 0.929 . S
S1101 N1102 1.613 . S
S1101 N1103 1.610 . S
N1102 S1101 1.613 . S
N1102 C1105 1.350 . S
N1103 S1101 1.610 . S
N1103 C1104 1.351 . S
C1104 C1098 1.428 . S
C1104 N1103 1.351 . S
C1104 C1105 1.434 . S
C1105 C1096 1.429 . S
C1105 N1102 1.350 . S
C1105 C1104 1.434 . S
C1106 C1107 1.369 . S
C1106 C1108 1.419 . S
C1106 H1110 0.930 . S
C1107 C1106 1.369 . S
C1107 C1116 1.429 . S
C1108 C1106 1.419 . S
C1108 C1109 1.363 . S
C1108 H1111 0.929 . S
C1109 C1108 1.363 . S
C1109 C1115 1.428 . S
H1110 C1106 0.930 . S
H1111 C1108 0.929 . S
S1112 N1113 1.613 . S
S1112 N1114 1.610 . S
N1113 S1112 1.613 . S
N1113 C1116 1.350 . S
N1114 S1112 1.610 . S
N1114 C1115 1.351 . S
C1115 C1109 1.428 . S
C1115 N1114 1.351 . S
C1115 C1116 1.434 . S
C1116 C1107 1.429 . S
C1116 N1113 1.350 . S
C1116 C1115 1.434 . S
C1117 C1118 1.369 . S
C1117 C1119 1.419 . S
C1117 H1121 0.930 . S
C1118 C1117 1.369 . S
C1118 C1127 1.429 . S
C1119 C1117 1.419 . S
C1119 C1120 1.363 . S
C1119 H1122 0.929 . S
C1120 C1119 1.363 . S
C1120 C1126 1.428 . S
H1121 C1117 0.930 . S
H1122 C1119 0.929 . S
S1123 N1124 1.613 . S
S1123 N1125 1.610 . S
N1124 S1123 1.613 . S
N1124 C1127 1.350 . S
N1125 S1123 1.610 . S
N1125 C1126 1.351 . S
C1126 C1120 1.428 . S
C1126 N1125 1.351 . S
C1126 C1127 1.434 . S
C1127 C1118 1.429 . S
C1127 N1124 1.350 . S
C1127 C1126 1.434 . S
C1128 C1129 1.369 . S
C1128 C1130 1.419 . S
C1128 H1132 0.930 . S
C1129 C1128 1.369 . S
C1129 C1138 1.429 . S
C1130 C1128 1.419 . S
C1130 C1131 1.363 . S
C1130 H1133 0.929 . S
C1131 C1130 1.363 . S
C1131 C1137 1.428 . S
H1132 C1128 0.930 . S
H1133 C1130 0.929 . S
S1134 N1135 1.613 . S
S1134 N1136 1.610 . S
N1135 S1134 1.613 . S
N1135 C1138 1.350 . S
N1136 S1134 1.610 . S
N1136 C1137 1.351 . S
C1137 C1131 1.428 . S
C1137 N1136 1.351 . S
C1137 C1138 1.434 . S
C1138 C1129 1.429 . S
C1138 N1135 1.350 . S
C1138 C1137 1.434 . S
C1139 C1140 1.369 . S
C1139 C1141 1.419 . S
C1139 H1143 0.930 . S
C1140 C1139 1.369 . S
C1140 C1149 1.429 . S
C1141 C1139 1.419 . S
C1141 C1142 1.363 . S
C1141 H1144 0.929 . S
C1142 C1141 1.363 . S
C1142 C1148 1.428 . S
H1143 C1139 0.930 . S
H1144 C1141 0.929 . S
S1145 N1146 1.613 . S
S1145 N1147 1.610 . S
N1146 S1145 1.613 . S
N1146 C1149 1.350 . S
N1147 S1145 1.610 . S
N1147 C1148 1.351 . S
C1148 C1142 1.428 . S
C1148 N1147 1.351 . S
C1148 C1149 1.434 . S
C1149 C1140 1.429 . S
C1149 N1146 1.350 . S
C1149 C1148 1.434 . S
C1150 C1151 1.369 . S
C1150 C1152 1.419 . S
C1150 H1154 0.930 . S
C1151 C1150 1.369 . S
C1151 C1160 1.429 . S
C1152 C1150 1.419 . S
C1152 C1153 1.363 . S
C1152 H1155 0.929 . S
C1153 C1152 1.363 . S
C1153 C1159 1.428 . S
H1154 C1150 0.930 . S
H1155 C1152 0.929 . S
S1156 N1157 1.613 . S
S1156 N1158 1.610 . S
N1157 S1156 1.613 . S
N1157 C1160 1.350 . S
N1158 S1156 1.610 . S
N1158 C1159 1.351 . S
C1159 C1153 1.428 . S
C1159 N1158 1.351 . S
C1159 C1160 1.434 . S
C1160 C1151 1.429 . S
C1160 N1157 1.350 . S
C1160 C1159 1.434 . S
C1161 C1162 1.369 . S
C1161 C1163 1.419 . S
C1161 H1165 0.930 . S
C1162 C1161 1.369 . S
C1162 C1171 1.429 . S
C1163 C1161 1.419 . S
C1163 C1164 1.363 . S
C1163 H1166 0.929 . S
C1164 C1163 1.363 . S
C1164 C1170 1.428 . S
H1165 C1161 0.930 . S
H1166 C1163 0.929 . S
S1167 N1168 1.613 . S
S1167 N1169 1.610 . S
N1168 S1167 1.613 . S
N1168 C1171 1.350 . S
N1169 S1167 1.610 . S
N1169 C1170 1.351 . S
C1170 C1164 1.428 . S
C1170 N1169 1.351 . S
C1170 C1171 1.434 . S
C1171 C1162 1.429 . S
C1171 N1168 1.350 . S
C1171 C1170 1.434 . S
C1172 C1173 1.369 . S
C1172 C1174 1.419 . S
C1172 H1176 0.930 . S
C1173 C1172 1.369 . S
C1173 C1182 1.429 . S
C1174 C1172 1.419 . S
C1174 C1175 1.363 . S
C1174 H1177 0.929 . S
C1175 C1174 1.363 . S
C1175 C1181 1.428 . S
H1176 C1172 0.930 . S
H1177 C1174 0.929 . S
S1178 N1179 1.613 . S
S1178 N1180 1.610 . S
N1179 S1178 1.613 . S
N1179 C1182 1.350 . S
N1180 S1178 1.610 . S
N1180 C1181 1.351 . S
C1181 C1175 1.428 . S
C1181 N1180 1.351 . S
C1181 C1182 1.434 . S
C1182 C1173 1.429 . S
C1182 N1179 1.350 . S
C1182 C1181 1.434 . S
C1183 C1184 1.369 . S
C1183 C1185 1.419 . S
C1183 H1187 0.930 . S
C1184 C1183 1.369 . S
C1184 C1193 1.429 . S
C1185 C1183 1.419 . S
C1185 C1186 1.363 . S
C1185 H1188 0.929 . S
C1186 C1185 1.363 . S
C1186 C1192 1.428 . S
H1187 C1183 0.930 . S
H1188 C1185 0.929 . S
S1189 N1190 1.613 . S
S1189 N1191 1.610 . S
N1190 S1189 1.613 . S
N1190 C1193 1.350 . S
N1191 S1189 1.610 . S
N1191 C1192 1.351 . S
C1192 C1186 1.428 . S
C1192 N1191 1.351 . S
C1192 C1193 1.434 . S
C1193 C1184 1.429 . S
C1193 N1190 1.350 . S
C1193 C1192 1.434 . S
C1194 C1195 1.369 . S
C1194 C1196 1.419 . S
C1194 H1198 0.930 . S
C1195 C1194 1.369 . S
C1195 C1204 1.429 . S
C1196 C1194 1.419 . S
C1196 C1197 1.363 . S
C1196 H1199 0.929 . S
C1197 C1196 1.363 . S
C1197 C1203 1.428 . S
H1198 C1194 0.930 . S
H1199 C1196 0.929 . S
S1200 N1201 1.613 . S
S1200 N1202 1.610 . S
N1201 S1200 1.613 . S
N1201 C1204 1.350 . S
N1202 S1200 1.610 . S
N1202 C1203 1.351 . S
C1203 C1197 1.428 . S
C1203 N1202 1.351 . S
C1203 C1204 1.434 . S
C1204 C1195 1.429 . S
C1204 N1201 1.350 . S
C1204 C1203 1.434 . S
C1205 C1206 1.369 . S
C1205 C1207 1.419 . S
C1205 H1209 0.930 . S
C1206 C1205 1.369 . S
C1206 C1215 1.429 . S
C1207 C1205 1.419 . S
C1207 C1208 1.363 . S
C1207 H1210 0.929 . S
C1208 C1207 1.363 . S
C1208 C1214 1.428 . S
H1209 C1205 0.930 . S
H1210 C1207 0.929 . S
S1211 N1212 1.613 . S
S1211 N1213 1.610 . S
N1212 S1211 1.613 . S
N1212 C1215 1.350 . S
N1213 S1211 1.610 . S
N1213 C1214 1.351 . S
C1214 C1208 1.428 . S
C1214 N1213 1.351 . S
C1214 C1215 1.434 . S
C1215 C1206 1.429 . S
C1215 N1212 1.350 . S
C1215 C1214 1.434 . S
C1216 C1217 1.369 . S
C1216 C1218 1.419 . S
C1216 H1220 0.930 . S
C1217 C1216 1.369 . S
C1217 C1226 1.429 . S
C1218 C1216 1.419 . S
C1218 C1219 1.363 . S
C1218 H1221 0.929 . S
C1219 C1218 1.363 . S
C1219 C1225 1.428 . S
H1220 C1216 0.930 . S
H1221 C1218 0.929 . S
S1222 N1223 1.613 . S
S1222 N1224 1.610 . S
N1223 S1222 1.613 . S
N1223 C1226 1.350 . S
N1224 S1222 1.610 . S
N1224 C1225 1.351 . S
C1225 C1219 1.428 . S
C1225 N1224 1.351 . S
C1225 C1226 1.434 . S
C1226 C1217 1.429 . S
C1226 N1223 1.350 . S
C1226 C1225 1.434 . S
C1227 C1228 1.369 . S
C1227 C1229 1.419 . S
C1227 H1231 0.930 . S
C1228 C1227 1.369 . S
C1228 C1237 1.429 . S
C1229 C1227 1.419 . S
C1229 C1230 1.363 . S
C1229 H1232 0.929 . S
C1230 C1229 1.363 . S
C1230 C1236 1.428 . S
H1231 C1227 0.930 . S
H1232 C1229 0.929 . S
S1233 N1234 1.613 . S
S1233 N1235 1.610 . S
N1234 S1233 1.613 . S
N1234 C1237 1.350 . S
N1235 S1233 1.610 . S
N1235 C1236 1.351 . S
C1236 C1230 1.428 . S
C1236 N1235 1.351 . S
C1236 C1237 1.434 . S
C1237 C1228 1.429 . S
C1237 N1234 1.350 . S
C1237 C1236 1.434 . S
C1238 C1239 1.369 . S
C1238 C1240 1.419 . S
C1238 H1242 0.930 . S
C1239 C1238 1.369 . S
C1239 C1248 1.429 . S
C1240 C1238 1.419 . S
C1240 C1241 1.363 . S
C1240 H1243 0.929 . S
C1241 C1240 1.363 . S
C1241 C1247 1.428 . S
H1242 C1238 0.930 . S
H1243 C1240 0.929 . S
S1244 N1245 1.613 . S
S1244 N1246 1.610 . S
N1245 S1244 1.613 . S
N1245 C1248 1.350 . S
N1246 S1244 1.610 . S
N1246 C1247 1.351 . S
C1247 C1241 1.428 . S
C1247 N1246 1.351 . S
C1247 C1248 1.434 . S
C1248 C1239 1.429 . S
C1248 N1245 1.350 . S
C1248 C1247 1.434 . S
C1249 C1250 1.369 . S
C1249 C1251 1.419 . S
C1249 H1253 0.930 . S
C1250 C1249 1.369 . S
C1250 C1259 1.429 . S
C1251 C1249 1.419 . S
C1251 C1252 1.363 . S
C1251 H1254 0.929 . S
C1252 C1251 1.363 . S
C1252 C1258 1.428 . S
H1253 C1249 0.930 . S
H1254 C1251 0.929 . S
S1255 N1256 1.613 . S
S1255 N1257 1.610 . S
N1256 S1255 1.613 . S
N1256 C1259 1.350 . S
N1257 S1255 1.610 . S
N1257 C1258 1.351 . S
C1258 C1252 1.428 . S
C1258 N1257 1.351 . S
C1258 C1259 1.434 . S
C1259 C1250 1.429 . S
C1259 N1256 1.350 . S
C1259 C1258 1.434 . S
C1260 C1261 1.369 . S
C1260 C1262 1.419 . S
C1260 H1264 0.930 . S
C1261 C1260 1.369 . S
C1261 C1270 1.429 . S
C1262 C1260 1.419 . S
C1262 C1263 1.363 . S
C1262 H1265 0.929 . S
C1263 C1262 1.363 . S
C1263 C1269 1.428 . S
H1264 C1260 0.930 . S
H1265 C1262 0.929 . S
S1266 N1267 1.613 . S
S1266 N1268 1.610 . S
N1267 S1266 1.613 . S
N1267 C1270 1.350 . S
N1268 S1266 1.610 . S
N1268 C1269 1.351 . S
C1269 C1263 1.428 . S
C1269 N1268 1.351 . S
C1269 C1270 1.434 . S
C1270 C1261 1.429 . S
C1270 N1267 1.350 . S
C1270 C1269 1.434 . S
C1271 C1272 1.369 . S
C1271 C1273 1.419 . S
C1271 H1275 0.930 . S
C1272 C1271 1.369 . S
C1272 C1281 1.429 . S
C1273 C1271 1.419 . S
C1273 C1274 1.363 . S
C1273 H1276 0.929 . S
C1274 C1273 1.363 . S
C1274 C1280 1.428 . S
H1275 C1271 0.930 . S
H1276 C1273 0.929 . S
S1277 N1278 1.613 . S
S1277 N1279 1.610 . S
N1278 S1277 1.613 . S
N1278 C1281 1.350 . S
N1279 S1277 1.610 . S
N1279 C1280 1.351 . S
C1280 C1274 1.428 . S
C1280 N1279 1.351 . S
C1280 C1281 1.434 . S
C1281 C1272 1.429 . S
C1281 N1278 1.350 . S
C1281 C1280 1.434 . S
C1282 C1283 1.369 . S
C1282 C1284 1.419 . S
C1282 H1286 0.930 . S
C1283 C1282 1.369 . S
C1283 C1292 1.429 . S
C1284 C1282 1.419 . S
C1284 C1285 1.363 . S
C1284 H1287 0.929 . S
C1285 C1284 1.363 . S
C1285 C1291 1.428 . S
H1286 C1282 0.930 . S
H1287 C1284 0.929 . S
S1288 N1289 1.613 . S
S1288 N1290 1.610 . S
N1289 S1288 1.613 . S
N1289 C1292 1.350 . S
N1290 S1288 1.610 . S
N1290 C1291 1.351 . S
C1291 C1285 1.428 . S
C1291 N1290 1.351 . S
C1291 C1292 1.434 . S
C1292 C1283 1.429 . S
C1292 N1289 1.350 . S
C1292 C1291 1.434 . S
C1293 C1294 1.369 . S
C1293 C1295 1.419 . S
C1293 H1297 0.930 . S
C1294 C1293 1.369 . S
C1294 C1303 1.429 . S
C1295 C1293 1.419 . S
C1295 C1296 1.363 . S
C1295 H1298 0.929 . S
C1296 C1295 1.363 . S
C1296 C1302 1.428 . S
H1297 C1293 0.930 . S
H1298 C1295 0.929 . S
S1299 N1300 1.613 . S
S1299 N1301 1.610 . S
N1300 S1299 1.613 . S
N1300 C1303 1.350 . S
N1301 S1299 1.610 . S
N1301 C1302 1.351 . S
C1302 C1296 1.428 . S
C1302 N1301 1.351 . S
C1302 C1303 1.434 . S
C1303 C1294 1.429 . S
C1303 N1300 1.350 . S
C1303 C1302 1.434 . S
C1304 C1305 1.369 . S
C1304 C1306 1.419 . S
C1304 H1308 0.930 . S
C1305 C1304 1.369 . S
C1305 C1314 1.429 . S
C1306 C1304 1.419 . S
C1306 C1307 1.363 . S
C1306 H1309 0.929 . S
C1307 C1306 1.363 . S
C1307 C1313 1.428 . S
H1308 C1304 0.930 . S
H1309 C1306 0.929 . S
S1310 N1311 1.613 . S
S1310 N1312 1.610 . S
N1311 S1310 1.613 . S
N1311 C1314 1.350 . S
N1312 S1310 1.610 . S
N1312 C1313 1.351 . S
C1313 C1307 1.428 . S
C1313 N1312 1.351 . S
C1313 C1314 1.434 . S
C1314 C1305 1.429 . S
C1314 N1311 1.350 . S
C1314 C1313 1.434 . S
C1315 C1316 1.369 . S
C1315 C1317 1.419 . S
C1315 H1319 0.930 . S
C1316 C1315 1.369 . S
C1316 C1325 1.429 . S
C1317 C1315 1.419 . S
C1317 C1318 1.363 . S
C1317 H1320 0.929 . S
C1318 C1317 1.363 . S
C1318 C1324 1.428 . S
H1319 C1315 0.930 . S
H1320 C1317 0.929 . S
S1321 N1322 1.613 . S
S1321 N1323 1.610 . S
N1322 S1321 1.613 . S
N1322 C1325 1.350 . S
N1323 S1321 1.610 . S
N1323 C1324 1.351 . S
C1324 C1318 1.428 . S
C1324 N1323 1.351 . S
C1324 C1325 1.434 . S
C1325 C1316 1.429 . S
C1325 N1322 1.350 . S
C1325 C1324 1.434 . S
C1326 C1327 1.369 . S
C1326 C1328 1.419 . S
C1326 H1330 0.930 . S
C1327 C1326 1.369 . S
C1327 C1336 1.429 . S
C1328 C1326 1.419 . S
C1328 C1329 1.363 . S
C1328 H1331 0.929 . S
C1329 C1328 1.363 . S
C1329 C1335 1.428 . S
H1330 C1326 0.930 . S
H1331 C1328 0.929 . S
S1332 N1333 1.613 . S
S1332 N1334 1.610 . S
N1333 S1332 1.613 . S
N1333 C1336 1.350 . S
N1334 S1332 1.610 . S
N1334 C1335 1.351 . S
C1335 C1329 1.428 . S
C1335 N1334 1.351 . S
C1335 C1336 1.434 . S
C1336 C1327 1.429 . S
C1336 N1333 1.350 . S
C1336 C1335 1.434 . S
C1337 C1338 1.369 . S
C1337 C1339 1.419 . S
C1337 H1341 0.930 . S
C1338 C1337 1.369 . S
C1338 C1347 1.429 . S
C1339 C1337 1.419 . S
C1339 C1340 1.363 . S
C1339 H1342 0.929 . S
C1340 C1339 1.363 . S
C1340 C1346 1.428 . S
H1341 C1337 0.930 . S
H1342 C1339 0.929 . S
S1343 N1344 1.613 . S
S1343 N1345 1.610 . S
N1344 S1343 1.613 . S
N1344 C1347 1.350 . S
N1345 S1343 1.610 . S
N1345 C1346 1.351 . S
C1346 C1340 1.428 . S
C1346 N1345 1.351 . S
C1346 C1347 1.434 . S
C1347 C1338 1.429 . S
C1347 N1344 1.350 . S
C1347 C1346 1.434 . S
C1348 C1349 1.369 . S
C1348 C1350 1.419 . S
C1348 H1352 0.930 . S
C1349 C1348 1.369 . S
C1349 C1358 1.429 . S
C1350 C1348 1.419 . S
C1350 C1351 1.363 . S
C1350 H1353 0.929 . S
C1351 C1350 1.363 . S
C1351 C1357 1.428 . S
H1352 C1348 0.930 . S
H1353 C1350 0.929 . S
S1354 N1355 1.613 . S
S1354 N1356 1.610 . S
N1355 S1354 1.613 . S
N1355 C1358 1.350 . S
N1356 S1354 1.610 . S
N1356 C1357 1.351 . S
C1357 C1351 1.428 . S
C1357 N1356 1.351 . S
C1357 C1358 1.434 . S
C1358 C1349 1.429 . S
C1358 N1355 1.350 . S
C1358 C1357 1.434 . S
C1359 C1360 1.369 . S
C1359 C1361 1.419 . S
C1359 H1363 0.930 . S
C1360 C1359 1.369 . S
C1360 C1369 1.429 . S
C1361 C1359 1.419 . S
C1361 C1362 1.363 . S
C1361 H1364 0.929 . S
C1362 C1361 1.363 . S
C1362 C1368 1.428 . S
H1363 C1359 0.930 . S
H1364 C1361 0.929 . S
S1365 N1366 1.613 . S
S1365 N1367 1.610 . S
N1366 S1365 1.613 . S
N1366 C1369 1.350 . S
N1367 S1365 1.610 . S
N1367 C1368 1.351 . S
C1368 C1362 1.428 . S
C1368 N1367 1.351 . S
C1368 C1369 1.434 . S
C1369 C1360 1.429 . S
C1369 N1366 1.350 . S
C1369 C1368 1.434 . S
C1370 C1371 1.369 . S
C1370 C1372 1.419 . S
C1370 H1374 0.930 . S
C1371 C1370 1.369 . S
C1371 C1380 1.429 . S
C1372 C1370 1.419 . S
C1372 C1373 1.363 . S
C1372 H1375 0.929 . S
C1373 C1372 1.363 . S
C1373 C1379 1.428 . S
H1374 C1370 0.930 . S
H1375 C1372 0.929 . S
S1376 N1377 1.613 . S
S1376 N1378 1.610 . S
N1377 S1376 1.613 . S
N1377 C1380 1.350 . S
N1378 S1376 1.610 . S
N1378 C1379 1.351 . S
C1379 C1373 1.428 . S
C1379 N1378 1.351 . S
C1379 C1380 1.434 . S
C1380 C1371 1.429 . S
C1380 N1377 1.350 . S
C1380 C1379 1.434 . S
C1381 C1382 1.369 . S
C1381 C1383 1.419 . S
C1381 H1385 0.930 . S
C1382 C1381 1.369 . S
C1382 C1391 1.429 . S
C1383 C1381 1.419 . S
C1383 C1384 1.363 . S
C1383 H1386 0.929 . S
C1384 C1383 1.363 . S
C1384 C1390 1.428 . S
H1385 C1381 0.930 . S
H1386 C1383 0.929 . S
S1387 N1388 1.613 . S
S1387 N1389 1.610 . S
N1388 S1387 1.613 . S
N1388 C1391 1.350 . S
N1389 S1387 1.610 . S
N1389 C1390 1.351 . S
C1390 C1384 1.428 . S
C1390 N1389 1.351 . S
C1390 C1391 1.434 . S
C1391 C1382 1.429 . S
C1391 N1388 1.350 . S
C1391 C1390 1.434 . S
C867 C689 1.746 . S
C865 C56 1.713 . S
C878 C694 1.210 . S
C876 C154 1.144 . S
C889 C695 1.698 . S
C887 C236 1.657 . S
C898 C310 0.962 . S
C900 C699 0.853 . S
C909 C394 1.152 . S
C911 C702 1.203 . S
C922 C703 1.695 . S
C920 C476 1.656 . S
C931 C574 0.956 . S
C933 C680 0.866 . S
C942 C656 1.713 . S
C944 C696 1.746 . S
C955 C734 2.375 . S
C953 C67 2.481 . S
C964 C139 1.640 . S
C966 C760 1.612 . S
C977 C712 1.204 . S
C975 C238 1.186 . S
C988 C767 1.638 . S
C986 C308 1.608 . S
C997 C392 1.646 . S
C999 C721 1.636 . S
C1010 C763 2.371 . S
C1008 C487 2.471 . S
C1019 C559 1.661 . S
C1021 C727 1.635 . S
C1030 C658 1.180 . S
C1032 C758 1.202 . S
C1041 C58 1.175 . S
C1043 C766 1.204 . S
C1052 C403 1.639 . S
C1054 C753 1.612 . S
C1065 C731 1.196 . S
C1063 C478 1.188 . S
C1076 C759 1.636 . S
C1074 C572 1.613 . S
C1085 C643 2.481 . S
C1087 C726 2.377 . S
C1096 C223 2.471 . S
C1098 C744 2.370 . S
C1109 C735 1.635 . S
C1107 C319 1.660 . S
C1118 C152 1.646 . S
C1120 C728 1.634 . S
C1129 C644 1.680 . S
C1131 C790 1.655 . S
C1140 C406 1.129 . S
C1142 C785 1.183 . S
C1153 C799 1.563 . S
C1151 C488 1.635 . S
C1164 C776 0.579 . S
C1162 C562 0.958 . S
C1173 C142 1.115 . S
C1175 C792 1.176 . S
C1186 C791 1.570 . S
C1184 C224 1.633 . S
C1195 C322 0.972 . S
C1197 C795 0.564 . S
C1206 C68 1.680 . S
C1208 C798 1.654 . S
C1217 C655 2.490 . S
C1219 C824 2.457 . S
C1230 C840 1.547 . S
C1228 C391 1.638 . S
C1239 C490 1.197 . S
C1241 C822 1.251 . S
C1250 C560 1.615 . S
C1252 C855 1.628 . S
C1263 C831 1.603 . S
C1261 C140 1.629 . S
C1272 C235 2.499 . S
C1274 C849 2.422 . S
C1285 C827 1.543 . S
C1283 C307 1.639 . S
C1296 C862 1.230 . S
C1294 C70 1.203 . S
C1307 C854 1.230 . S
C1305 C646 1.205 . S
C1316 C151 1.640 . S
C1318 C859 1.539 . S
C1327 C226 1.189 . S
C1329 C830 1.250 . S
C1340 C863 1.630 . S
C1338 C320 1.618 . S
C1349 C55 2.490 . S
C1351 C817 2.456 . S
C1360 C475 2.499 . S
C1362 C856 2.421 . S
C1373 C808 1.539 . S
C1371 C571 1.642 . S
C1384 C823 1.599 . S
C1382 C404 1.625 . S
