# Generated by pormake.
# Topology fgl, (4,4)-cn, num edge types: 1
# Building blocks:
#     Node 0, Type 0, BuildingBlock: ESEHIV_clean_sbu_0, # of connection points: 4
#     Node 1, Type 0, BuildingBlock: ESEHIV_clean_sbu_0, # of connection points: 4
#     Node 2, Type 0, BuildingBlock: ESEHIV_clean_sbu_0, # of connection points: 4
#     Node 3, Type 0, BuildingBlock: ESEHIV_clean_sbu_0, # of connection points: 4
#     Node 4, Type 0, BuildingBlock: ESEHIV_clean_sbu_0, # of connection points: 4
#     Node 5, Type 0, BuildingBlock: ESEHIV_clean_sbu_0, # of connection points: 4
#     Node 6, Type 0, BuildingBlock: ESEHIV_clean_sbu_0, # of connection points: 4
#     Node 7, Type 0, BuildingBlock: ESEHIV_clean_sbu_0, # of connection points: 4
#     Node 8, Type 0, BuildingBlock: ESEHIV_clean_sbu_0, # of connection points: 4
#     Node 9, Type 0, BuildingBlock: ESEHIV_clean_sbu_0, # of connection points: 4
#     Node 10, Type 0, BuildingBlock: ESEHIV_clean_sbu_0, # of connection points: 4
#     Node 11, Type 0, BuildingBlock: ESEHIV_clean_sbu_0, # of connection points: 4
#     Node 12, Type 0, BuildingBlock: ESEHIV_clean_sbu_0, # of connection points: 4
#     Node 13, Type 0, BuildingBlock: ESEHIV_clean_sbu_0, # of connection points: 4
#     Node 14, Type 0, BuildingBlock: ESEHIV_clean_sbu_0, # of connection points: 4
#     Node 15, Type 0, BuildingBlock: ESEHIV_clean_sbu_0, # of connection points: 4
#     Node 16, Type 0, BuildingBlock: ESEHIV_clean_sbu_0, # of connection points: 4
#     Node 17, Type 0, BuildingBlock: ESEHIV_clean_sbu_0, # of connection points: 4
#     Node 18, Type 1, BuildingBlock: CEKHIL_clean_sbu_0, # of connection points: 4
#     Node 19, Type 1, BuildingBlock: CEKHIL_clean_sbu_0, # of connection points: 4
#     Node 20, Type 1, BuildingBlock: CEKHIL_clean_sbu_0, # of connection points: 4
#     Node 21, Type 1, BuildingBlock: CEKHIL_clean_sbu_0, # of connection points: 4
#     Node 22, Type 1, BuildingBlock: CEKHIL_clean_sbu_0, # of connection points: 4
#     Node 23, Type 1, BuildingBlock: CEKHIL_clean_sbu_0, # of connection points: 4
#     Node 24, Type 1, BuildingBlock: CEKHIL_clean_sbu_0, # of connection points: 4
#     Node 25, Type 1, BuildingBlock: CEKHIL_clean_sbu_0, # of connection points: 4
#     Node 26, Type 1, BuildingBlock: CEKHIL_clean_sbu_0, # of connection points: 4
#     Node 27, Type 1, BuildingBlock: CEKHIL_clean_sbu_0, # of connection points: 4
#     Node 28, Type 1, BuildingBlock: CEKHIL_clean_sbu_0, # of connection points: 4
#     Node 29, Type 1, BuildingBlock: CEKHIL_clean_sbu_0, # of connection points: 4
#     Node 30, Type 1, BuildingBlock: CEKHIL_clean_sbu_0, # of connection points: 4
#     Node 31, Type 1, BuildingBlock: CEKHIL_clean_sbu_0, # of connection points: 4
#     Node 32, Type 1, BuildingBlock: CEKHIL_clean_sbu_0, # of connection points: 4
#     Node 33, Type 1, BuildingBlock: CEKHIL_clean_sbu_0, # of connection points: 4
#     Node 34, Type 1, BuildingBlock: CEKHIL_clean_sbu_0, # of connection points: 4
#     Node 35, Type 1, BuildingBlock: CEKHIL_clean_sbu_0, # of connection points: 4
#     Edge 36, Type (0, 1), None
#     Edge 37, Type (0, 1), None
#     Edge 38, Type (0, 1), None
#     Edge 39, Type (0, 1), None
#     Edge 40, Type (0, 1), None
#     Edge 41, Type (0, 1), None
#     Edge 42, Type (0, 1), None
#     Edge 43, Type (0, 1), None
#     Edge 44, Type (0, 1), None
#     Edge 45, Type (0, 1), None
#     Edge 46, Type (0, 1), None
#     Edge 47, Type (0, 1), None
#     Edge 48, Type (0, 1), None
#     Edge 49, Type (0, 1), None
#     Edge 50, Type (0, 1), None
#     Edge 51, Type (0, 1), None
#     Edge 52, Type (0, 1), None
#     Edge 53, Type (0, 1), None
#     Edge 54, Type (0, 1), None
#     Edge 55, Type (0, 1), None
#     Edge 56, Type (0, 1), None
#     Edge 57, Type (0, 1), None
#     Edge 58, Type (0, 1), None
#     Edge 59, Type (0, 1), None
#     Edge 60, Type (0, 1), None
#     Edge 61, Type (0, 1), None
#     Edge 62, Type (0, 1), None
#     Edge 63, Type (0, 1), None
#     Edge 64, Type (0, 1), None
#     Edge 65, Type (0, 1), None
#     Edge 66, Type (0, 1), None
#     Edge 67, Type (0, 1), None
#     Edge 68, Type (0, 1), None
#     Edge 69, Type (0, 1), None
#     Edge 70, Type (0, 1), None
#     Edge 71, Type (0, 1), None
#     Edge 72, Type (0, 1), None
#     Edge 73, Type (0, 1), None
#     Edge 74, Type (0, 1), None
#     Edge 75, Type (0, 1), None
#     Edge 76, Type (0, 1), None
#     Edge 77, Type (0, 1), None
#     Edge 78, Type (0, 1), None
#     Edge 79, Type (0, 1), None
#     Edge 80, Type (0, 1), None
#     Edge 81, Type (0, 1), None
#     Edge 82, Type (0, 1), None
#     Edge 83, Type (0, 1), None
#     Edge 84, Type (0, 1), None
#     Edge 85, Type (0, 1), None
#     Edge 86, Type (0, 1), None
#     Edge 87, Type (0, 1), None
#     Edge 88, Type (0, 1), None
#     Edge 89, Type (0, 1), None
#     Edge 90, Type (0, 1), None
#     Edge 91, Type (0, 1), None
#     Edge 92, Type (0, 1), None
#     Edge 93, Type (0, 1), None
#     Edge 94, Type (0, 1), None
#     Edge 95, Type (0, 1), None
#     Edge 96, Type (0, 1), None
#     Edge 97, Type (0, 1), None
#     Edge 98, Type (0, 1), None
#     Edge 99, Type (0, 1), None
#     Edge 100, Type (0, 1), None
#     Edge 101, Type (0, 1), None
#     Edge 102, Type (0, 1), None
#     Edge 103, Type (0, 1), None
#     Edge 104, Type (0, 1), None
#     Edge 105, Type (0, 1), None
#     Edge 106, Type (0, 1), None
#     Edge 107, Type (0, 1), None
# Relax obj value: 0.039
# Max RMSD: 0.145
# Mean RMSD: 0.083
data_MOF--net-fgl--node1-ESEHIV_clean_sbu_0--node2-CEKHIL_clean_sbu_0--edge1-none
_symmetry_space_group_name_H-M    P1
_symmetry_Int_Tables_number       1
_symmetry_cell_setting            triclinic
loop_
_symmetry_equiv_pos_as_xyz
'x, y, z'
_cell_length_a     34.406277
_cell_length_b     34.279032
_cell_length_c     23.689241
_cell_angle_alpha  91.471933
_cell_angle_beta   90.79272
_cell_angle_gamma 119.96547
loop_
_atom_site_label
_atom_site_type_symbol
_atom_site_fract_x
_atom_site_fract_y
_atom_site_fract_z
_atom_type_partial_charge
Cu0 Cu 0.04403 0.54863 1.02116 0.0
N1 N 1.02134 0.55773 0.09176 0.0
N2 N 1.02089 0.59745 0.17008 0.0
C3 C 0.04005 0.59881 0.11986 0.0
C4 C 0.98869 0.5537 0.17358 0.0
C5 C 0.98871 0.52961 0.12553 0.0
O6 O 0.0555 0.60505 0.98741 0.0
C7 C 0.06752 0.49019 0.064 0.0
O8 O 1.02509 0.47228 0.07638 0.0
H9 H 0.06834 0.62892 0.10442 0.0
H10 H 0.96683 0.49394 0.11656 0.0
N11 N 1.01566 0.50773 0.95636 0.0
N12 N 0.03497 0.47172 0.88968 0.0
C13 C 1.02132 0.47173 0.94335 0.0
C14 C 1.02162 0.52742 0.90581 0.0
C15 C 0.03476 0.50671 0.86613 0.0
C16 C 1.01862 0.6061 0.9846 0.0
O17 O 0.9818 0.57203 1.00303 0.0
H18 H 1.01981 0.44821 0.97374 0.0
H19 H 1.02293 0.55898 0.89899 0.0
O20 O 0.08726 0.52919 0.04227 0.0
H21 H 0.96669 0.53978 0.20879 0.0
H22 H 0.04473 0.51751 0.82365 0.0
Cu23 Cu 0.57887 0.58052 0.05623 0.0
N24 N 0.56653 0.6016 0.98868 0.0
N25 N 0.5905 0.62733 0.90158 0.0
C26 C 0.58567 0.59735 0.94085 0.0
C27 C 0.57127 0.64996 0.92431 0.0
C28 C 0.55734 0.63467 0.97834 0.0
O29 O 0.63828 0.63375 0.08103 0.0
C30 C 0.53364 0.48203 0.04622 0.0
O31 O 0.52506 0.47896 0.10012 0.0
H32 H 0.60146 0.57685 0.93827 0.0
H33 H 0.54625 0.65014 1.00973 0.0
N34 N 0.55081 0.57044 0.12755 0.0
N35 N 0.51273 0.53234 0.20305 0.0
C36 C 0.5094 0.54424 0.1493 0.0
C37 C 0.57965 0.57624 0.17047 0.0
C38 C 0.55684 0.55274 0.21575 0.0
C39 C 0.66636 0.66604 0.05158 0.0
O40 O 0.66722 0.6594 0.997 0.0
H41 H 0.47835 0.52956 0.12443 0.0
H42 H 0.61562 0.59231 0.16725 0.0
O43 O 0.5646 0.51945 0.02729 0.0
H44 H 0.57189 0.67895 0.90619 0.0
H45 H 0.5718 0.54996 0.25491 0.0
Cu46 Cu 0.55098 0.03848 0.02716 0.0
N47 N 0.53216 0.03833 0.95319 0.0
N48 N 0.48112 0.02868 0.88735 0.0
C49 C 0.50074 0.04848 0.93782 0.0
C50 C 0.50135 1.00588 0.86956 0.0
C51 C 0.53232 1.01128 0.91079 0.0
O52 O 0.49254 1.00495 0.0645 0.0
C53 C 0.62774 0.04451 0.98661 0.0
O54 O 0.62152 0.07169 0.95453 0.0
H55 H 0.48929 0.06595 0.96572 0.0
H56 H 0.55041 0.99304 0.91221 0.0
N57 N 0.58428 0.09423 0.06617 0.0
N58 N 0.62438 0.12141 0.1471 0.0
C59 C 0.61846 0.09802 0.09852 0.0
C60 C 0.57031 0.11984 0.09347 0.0
C61 C 0.59559 0.13726 0.14354 0.0
C62 C 0.48057 1.0155 0.11083 0.0
O63 O 0.51034 0.03591 0.15223 0.0
H64 H 0.63288 0.07673 0.09245 0.0
H65 H 0.53934 0.11941 0.08329 0.0
O66 O 0.59663 1.01979 1.02035 0.0
H67 H 0.49211 0.98428 0.83178 0.0
H68 H 0.58809 0.15352 0.17808 0.0
Cu69 Cu 0.56818 0.069 0.55078 0.0
N70 N 0.56523 0.05015 0.47599 0.0
N71 N 0.59158 0.05377 0.38979 0.0
C72 C 0.60107 0.07071 0.44315 0.0
C73 C 0.54804 0.02086 0.38885 0.0
C74 C 0.53174 1.01869 0.44247 0.0
O75 O 0.62703 0.07599 0.57638 0.0
C76 C 0.532 0.12378 0.51155 0.0
O77 O 0.53522 0.11165 0.45966 0.0
H78 H 0.63325 0.0984 0.45805 0.0
H79 H 0.49786 0.99664 0.45562 0.0
N80 N 0.52106 0.02905 0.59458 0.0
N81 N 0.46431 1.01083 0.65281 0.0
C82 C 0.50409 0.04383 0.63558 0.0
C83 C 0.49115 0.98498 0.58593 0.0
C84 C 0.45621 0.97354 0.62223 0.0
C85 C 0.63015 0.04146 0.58969 0.0
O86 O 0.59326 1.00335 0.59818 0.0
H87 H 0.51946 0.07875 0.65016 0.0
H88 H 0.49334 0.96337 0.55359 0.0
O89 O 0.55444 0.11872 0.55169 0.0
H90 H 0.52918 1.00046 0.35197 0.0
H91 H 0.42637 0.94072 0.6244 0.0
Cu92 Cu 0.0833 0.59474 0.55598 0.0
N93 N 0.09884 0.57452 0.62315 0.0
N94 N 0.0802 0.51212 0.67328 0.0
C95 C 0.10624 0.53935 0.63198 0.0
C96 C 0.05701 0.53127 0.69246 0.0
C97 C 0.06967 0.56984 0.66371 0.0
O98 O 0.0362 0.53743 0.52856 0.0
C99 C 0.09973 0.68053 0.58325 0.0
O100 O 0.13851 0.69068 0.5619 0.0
H101 H 0.12617 0.53084 0.60488 0.0
H102 H 0.05271 0.58913 0.66653 0.0
N103 N 0.1108 0.62118 0.4873 0.0
N104 N 0.10736 0.64996 0.40389 0.0
C105 C 0.08962 0.63753 0.45516 0.0
C106 C 0.14371 0.6235 0.45481 0.0
C107 C 0.14154 0.64114 0.40322 0.0
C108 C 0.05369 0.51441 0.51089 0.0
O109 O 0.09737 0.53331 0.50748 0.0
H110 H 0.05993 0.63814 0.46847 0.0
H111 H 0.16629 0.61147 0.46645 0.0
O112 O 0.0687 0.63932 0.58509 0.0
H113 H 1.03202 0.51798 0.72461 0.0
H114 H 0.16269 0.64591 0.36763 0.0
Cu115 Cu 0.534 0.59854 0.53915 0.0
N116 N 0.55859 0.65963 0.52095 0.0
N117 N 0.62585 0.71967 0.50259 0.0
C118 C 0.59908 0.6922 0.5427 0.0
C119 C 0.60073 0.70522 0.4544 0.0
C120 C 0.5592 0.66949 0.46609 0.0
O121 O 0.58407 0.60179 0.5868 0.0
C122 C 0.49983 0.52646 0.4513 0.0
O123 O 0.49666 0.49888 0.49079 0.0
H124 H 0.61175 0.69032 0.58399 0.0
H125 H 0.53438 0.64748 0.43447 0.0
N126 N 0.47719 0.56956 0.57413 0.0
N127 N 0.41315 0.50448 0.5876 0.0
C128 C 0.4417 0.53246 0.5498 0.0
C129 C 0.46777 0.56709 0.62945 0.0
C130 C 0.42832 0.52701 0.63791 0.0
C131 C 0.58679 0.59585 0.63979 0.0
O132 O 0.55037 0.57028 0.66728 0.0
H133 H 0.43771 0.52436 0.50524 0.0
H134 H 0.48998 0.59046 0.66221 0.0
O135 O 0.52036 0.56871 0.46274 0.0
H136 H 0.61275 0.71722 0.4128 0.0
H137 H 0.41456 0.51371 0.67843 0.0
Cu138 Cu 0.70918 0.90144 0.36848 0.0
N139 N 0.6875 0.93126 0.32423 0.0
N140 N 0.67512 0.97783 0.27337 0.0
C141 C 0.69933 0.97464 0.3166 0.0
C142 C 0.64716 0.93563 0.25351 0.0
C143 C 0.65369 0.90708 0.28623 0.0
O144 O 0.6934 0.90602 0.45234 0.0
C145 C 0.70531 0.85248 0.26191 0.0
O146 O 0.72716 0.89397 0.24468 0.0
H147 H 0.72676 1.00321 0.33916 0.0
H148 H 0.63557 0.87075 0.28155 0.0
N149 N 0.77165 0.92517 0.37641 0.0
N150 N 0.78818 0.87702 0.41765 0.0
C151 C 0.77864 0.89002 0.36897 0.0
C152 C 0.78977 0.94152 0.42875 0.0
C153 C 0.7981 0.91088 0.45526 0.0
C154 C 0.70457 0.94549 0.47483 0.0
O155 O 0.71946 0.97928 0.44089 0.0
H156 H 0.76924 0.86916 0.33095 0.0
H157 H 0.78971 0.96971 0.45004 0.0
O158 O 0.69213 0.8462 0.3142 0.0
H159 H 0.62284 0.92615 0.2189 0.0
H160 H 0.80563 0.91102 0.49983 0.0
Cu161 Cu 0.24031 0.92046 0.40198 0.0
N162 N 0.18567 0.88868 0.35736 0.0
N163 N 0.13523 0.82928 0.30251 0.0
C164 C 0.16605 0.84353 0.34567 0.0
C165 C 0.13457 0.86673 0.28743 0.0
C166 C 0.16477 0.90285 0.32179 0.0
O167 O 0.22047 0.88255 0.47165 0.0
C168 C 0.28128 0.95409 0.30356 0.0
O169 O 0.25522 0.97113 0.31297 0.0
H170 H 0.17684 0.82229 0.36553 0.0
H171 H 0.17236 0.93736 0.31877 0.0
N172 N 0.26796 0.98201 0.43172 0.0
N173 N 0.32716 0.04972 0.46167 0.0
C174 C 0.31014 1.01642 0.42068 0.0
C175 C 0.25868 0.99486 0.48162 0.0
C176 C 0.29459 0.03595 0.49993 0.0
C177 C 0.18293 0.87676 0.49079 0.0
O178 O 0.16338 0.89592 0.46447 0.0
H179 H 0.32978 1.01543 0.38604 0.0
H180 H 0.22937 0.97424 0.50571 0.0
O181 O 0.28313 0.92817 0.34086 0.0
H182 H 0.11381 0.86807 0.2536 0.0
H183 H 0.29691 0.05379 0.53937 0.0
Cu184 Cu 0.21263 0.42708 0.39628 0.0
N185 N 0.19101 0.40484 0.3236 0.0
N186 N 0.14953 0.39688 0.24685 0.0
C187 C 0.16545 0.41833 0.29715 0.0
C188 C 0.16621 0.36888 0.24035 0.0
C189 C 0.19222 0.37406 0.28812 0.0
O190 O 0.17194 0.44933 0.42161 0.0
C191 C 0.30431 0.46647 0.35833 0.0
O192 O 0.28724 0.45538 0.30665 0.0
H193 H 0.15853 0.44361 0.31472 0.0
H194 H 0.21099 0.35706 0.29563 0.0
N195 N 0.2058 0.38191 0.44266 0.0
N196 N 0.2386 0.36534 0.5118 0.0
C197 C 0.22252 0.39207 0.49609 0.0
C198 C 0.20922 0.34603 0.42554 0.0
C199 C 0.22992 0.336 0.468 0.0
C200 C 0.13117 0.41935 0.4311 0.0
O201 O 0.12091 0.37703 0.43298 0.0
H202 H 0.22979 0.42292 0.51882 0.0
H203 H 0.20261 0.33172 0.38313 0.0
O204 O 0.27916 0.46509 0.39863 0.0
H205 H 0.16065 0.34701 0.20366 0.0
H206 H 0.2406 0.31117 0.46543 0.0
Cu207 Cu 0.23976 0.37781 0.90371 0.0
N208 N 0.23031 0.33592 0.84729 0.0
N209 N 0.24842 0.32787 0.76023 0.0
C210 C 0.26234 0.35124 0.80935 0.0
C211 C 0.20613 0.29418 0.76788 0.0
C212 C 0.19453 0.29982 0.82225 0.0
O213 O 0.30681 0.40495 0.91864 0.0
C214 C 0.1857 0.40202 0.82898 0.0
O215 O 0.19773 0.38713 0.78487 0.0
H216 H 0.29337 0.38302 0.81523 0.0
H217 H 0.16126 0.28255 0.83916 0.0
N218 N 0.20705 0.35356 0.9676 0.0
N219 N 0.15458 0.35603 1.01954 0.0
C220 C 0.19606 0.37977 0.99915 0.0
C221 C 0.17201 0.31142 0.97044 0.0
C222 C 0.13962 0.31281 1.00276 0.0
C223 C 0.32009 0.37769 0.93493 0.0
O224 O 0.28939 0.33752 0.95015 0.0
H225 H 0.2149 0.41624 0.99922 0.0
H226 H 0.16753 0.28292 0.94463 0.0
O227 O 0.20734 0.40923 0.87644 0.0
H228 H 0.18367 0.27111 0.73496 0.0
H229 H 0.10624 0.28487 1.00918 0.0
Cu230 Cu 0.75133 0.90049 0.86565 0.0
N231 N 0.76806 0.86111 0.82833 0.0
N232 N 0.74673 0.78992 0.79811 0.0
C233 C 0.7515 0.8176 0.84293 0.0
C234 C 0.76219 0.81691 0.75396 0.0
C235 C 0.77582 0.86041 0.77261 0.0
O236 O 0.73185 0.8699 0.94167 0.0
C237 C 0.74888 0.94265 0.76297 0.0
O238 O 0.79218 0.95913 0.77127 0.0
H239 H 0.73654 0.8053 0.88324 0.0
H240 H 0.78562 0.88805 0.74506 0.0
N241 N 0.79556 0.95805 0.8943 0.0
N242 N 0.80505 1.01959 0.94373 0.0
C243 C 0.78807 0.99345 0.89584 0.0
C244 C 0.81993 0.96354 0.94186 0.0
C245 C 0.82535 1.00085 0.9725 0.0
C246 C 0.70068 0.84929 0.97729 0.0
O247 O 0.65977 0.84056 0.96468 0.0
H248 H 0.76366 0.99507 0.86813 0.0
H249 H 0.82683 0.93824 0.95774 0.0
O250 O 0.72213 0.91677 0.801 0.0
H251 H 0.76085 0.80557 0.71049 0.0
H252 H 0.83945 1.01084 1.01509 0.0
Cu253 Cu 0.19602 0.87012 0.90474 0.0
N254 N 0.16746 0.88408 0.84663 0.0
N255 N 0.14204 0.8708 0.75622 0.0
C256 C 0.14887 0.85347 0.80321 0.0
C257 C 0.15492 0.91401 0.77109 0.0
C258 C 0.17138 0.92238 0.82685 0.0
O259 O 0.15248 0.80734 0.91208 0.0
C260 C 0.27016 0.90791 0.83172 0.0
O261 O 0.24352 0.89339 0.78664 0.0
H262 H 0.14533 0.82028 0.80419 0.0
H263 H 0.18884 0.95487 0.84901 0.0
N264 N 0.20802 0.89529 0.97917 0.0
N265 N 0.26094 0.9324 0.04764 0.0
C266 C 0.24618 0.9335 0.99457 0.0
C267 C 0.1982 0.86976 0.02528 0.0
C268 C 0.23044 0.89259 0.0675 0.0
C269 C 0.1163 0.80258 0.93276 0.0
O270 O 0.11516 0.83825 0.95202 0.0
H271 H 0.26565 0.95919 0.96497 0.0
H272 H 0.17288 0.83457 0.02614 0.0
O273 O 0.25612 0.88943 0.87886 0.0
H274 H 0.15655 0.93885 0.74243 0.0
H275 H 0.2328 0.87974 0.10792 0.0
Cu276 Cu 0.39903 0.23086 0.73958 0.0
N277 N 0.36274 0.24229 0.69237 0.0
N278 N 0.34881 0.2841 0.63421 0.0
C279 C 0.36413 0.28189 0.68611 0.0
C280 C 0.33635 0.24425 0.60741 0.0
C281 C 0.34445 0.21831 0.64373 0.0
O282 O 0.41049 0.26362 0.81749 0.0
C283 C 0.44989 0.24221 0.63379 0.0
O284 O 0.44186 0.27333 0.61528 0.0
H285 H 0.38019 0.31001 0.71643 0.0
H286 H 0.34181 0.18615 0.63324 0.0
N287 N 0.36694 0.16953 0.75765 0.0
N288 N 0.35481 0.09912 0.76548 0.0
C289 C 0.36611 0.1337 0.73071 0.0
C290 C 0.35375 0.15619 0.81025 0.0
C291 C 0.34712 0.11348 0.81545 0.0
C292 C 0.42808 0.30516 0.83466 0.0
O293 O 0.4474 0.33675 0.79779 0.0
H294 H 0.37985 0.13537 0.68978 0.0
H295 H 0.35419 0.17794 0.84443 0.0
O296 O 0.44639 0.23391 0.68726 0.0
H297 H 0.3234 0.23501 0.56427 0.0
H298 H 0.34127 0.09598 0.85461 0.0
Cu299 Cu 0.8973 0.23181 0.69394 0.0
N300 N 0.89033 0.26788 0.64139 0.0
N301 N 0.91353 0.31673 0.5719 0.0
C302 C 0.91416 0.28129 0.59421 0.0
C303 C 0.88589 0.32441 0.60424 0.0
C304 C 0.87204 0.29445 0.64771 0.0
O305 O 0.96255 0.27121 0.72168 0.0
C306 C 0.84067 0.1289 0.67888 0.0
O307 O 0.84334 0.12343 0.73313 0.0
H308 H 0.93404 0.26715 0.57855 0.0
H309 H 0.85323 0.29465 0.68383 0.0
N310 N 0.86772 0.23035 0.75999 0.0
N311 N 0.83513 0.19682 0.83895 0.0
C312 C 0.83157 0.19503 0.78204 0.0
C313 C 0.89211 0.25684 0.8046 0.0
C314 C 0.87268 0.23594 0.85311 0.0
C315 C 0.99778 0.29924 0.69562 0.0
O316 O 0.99964 0.29331 0.64107 0.0
H317 H 0.80614 0.16644 0.75736 0.0
H318 H 0.92475 0.28668 0.80226 0.0
O319 O 0.86534 0.16821 0.65819 0.0
H320 H 0.87978 0.3523 0.60021 0.0
H321 H 0.88642 0.24752 0.89563 0.0
Cu322 Cu 0.88293 0.7108 0.69642 0.0
N323 N 0.8711 0.73678 0.63595 0.0
N324 N 0.82347 0.74489 0.57964 0.0
C325 C 0.8442 0.75476 0.63128 0.0
C326 C 0.83845 0.72097 0.55078 0.0
C327 C 0.86806 0.71657 0.58526 0.0
O328 O 0.8218 0.65986 0.70905 0.0
C329 C 0.96927 0.74346 0.65594 0.0
O330 O 0.96329 0.77727 0.64374 0.0
H331 H 0.83611 0.77005 0.66637 0.0
H332 H 0.88228 0.69526 0.57631 0.0
N333 N 0.90602 0.73999 0.76553 0.0
N334 N 0.93952 0.74413 0.84841 0.0
C335 C 0.92597 0.72288 0.79775 0.0
C336 C 0.90722 0.774 0.79654 0.0
C337 C 0.92807 0.77661 0.84827 0.0
C338 C 0.79734 0.65979 0.74974 0.0
O339 O 0.81513 0.67042 0.80111 0.0
H340 H 0.92862 0.69377 0.78484 0.0
H341 H 0.89296 0.79429 0.78335 0.0
O342 O 0.93588 0.70688 0.6733 0.0
H343 H 0.82809 0.70699 0.50808 0.0
H344 H 0.93295 0.7995 0.88354 0.0
Cu345 Cu 0.87834 0.72899 0.2245 0.0
N346 N 0.8724 0.69398 0.15993 0.0
N347 N 0.89934 0.67923 0.082 0.0
C348 C 0.90917 0.70384 0.13046 0.0
C349 C 0.85424 0.65227 0.08052 0.0
C350 C 0.83758 0.66143 0.12907 0.0
O351 O 0.94113 0.74751 0.24744 0.0
C352 C 0.83545 0.77171 0.16192 0.0
O353 O 0.84388 0.75728 0.11436 0.0
H354 H 0.94239 0.73106 0.14242 0.0
H355 H 0.80269 0.64707 0.13957 0.0
N356 N 0.84146 0.69991 0.28406 0.0
N357 N 0.8008 0.70655 0.35257 0.0
C358 C 0.84117 0.72515 0.32857 0.0
C359 C 0.80018 0.66326 0.28096 0.0
C360 C 0.7751 0.66706 0.32361 0.0
C361 C 0.94959 0.7178 0.2674 0.0
O362 O 0.91649 0.68085 0.28709 0.0
H363 H 0.8677 0.75955 0.33732 0.0
H364 H 0.78736 0.63875 0.24603 0.0
O365 O 0.85577 0.77117 0.20754 0.0
H366 H 0.83462 0.62913 0.04594 0.0
H367 H 0.73954 0.64479 0.32911 0.0
Cu368 Cu 0.41708 0.25027 0.23165 0.0
N369 N 0.3856 0.18904 0.2058 0.0
N370 N 0.37679 0.12122 0.18072 0.0
C371 C 0.39771 0.15766 0.21667 0.0
C372 C 0.35012 0.12968 0.14698 0.0
C373 C 0.35498 0.1707 0.16295 0.0
O374 O 0.44382 0.24485 0.30699 0.0
C375 C 0.41889 0.28536 0.12451 0.0
O376 O 0.37691 0.26569 0.13922 0.0
H377 H 0.42328 0.16268 0.24781 0.0
H378 H 0.33786 0.18606 0.14314 0.0
N379 N 0.38215 0.27709 0.25214 0.0
N380 N 0.37029 0.33269 0.28365 0.0
C381 C 0.39876 0.32223 0.25736 0.0
C382 C 0.34082 0.25846 0.27335 0.0
C383 C 0.33417 0.29251 0.29458 0.0
C384 C 0.41517 0.2234 0.34566 0.0
O385 O 0.37276 0.20909 0.33401 0.0
H386 H 0.43307 0.34672 0.24807 0.0
H387 H 0.3183 0.22268 0.27687 0.0
O388 O 0.44746 0.28497 0.16044 0.0
H389 H 0.32789 0.10733 0.11331 0.0
H390 H 0.30573 0.28803 0.31855 0.0
Cu391 Cu 0.8723 0.26757 0.19232 0.0
N392 N 0.83674 0.25534 0.12628 0.0
N393 N 0.79247 0.20571 0.05812 0.0
C394 C 0.82397 0.21563 0.09867 0.0
C395 C 0.78578 0.24141 0.05867 0.0
C396 C 0.81266 0.27178 0.10171 0.0
O397 O 0.8394 0.20628 0.21907 0.0
C398 C 0.94835 0.33348 0.14356 0.0
O399 O 0.91878 0.34584 0.13156 0.0
H400 H 0.8373 0.19391 0.10905 0.0
H401 H 0.81329 0.30247 0.11525 0.0
N402 N 0.87322 0.30384 0.25481 0.0
N403 N 0.91806 0.34448 0.32863 0.0
C404 C 0.91183 0.34145 0.27199 0.0
C405 C 0.85356 0.28546 0.30394 0.0
C406 C 0.88109 0.30982 0.34877 0.0
C407 C 0.79847 0.19603 0.22603 0.0
O408 O 0.78711 0.22703 0.21966 0.0
H409 H 0.93817 0.36199 0.24399 0.0
H410 H 0.82468 0.25282 0.30891 0.0
O411 O 0.93508 0.29649 0.16886 0.0
H412 H 0.76253 0.24489 0.03087 0.0
H413 H 0.87569 0.30094 0.39269 0.0
Co414 Co 0.05966 0.68372 0.28748 0.0
O415 O 0.1058 0.66898 0.31024 0.0
O416 O 0.05869 0.67317 0.36839 0.0
C417 C 1.03283 0.63106 0.21145 0.0
O418 O 1.00571 0.69565 0.28293 0.0
Co419 Co 0.05896 0.72528 0.18295 0.0
O420 O 1.00975 0.73488 0.20732 0.0
C421 C 0.11094 0.78709 0.27689 0.0
C422 C 0.09115 0.66465 0.3611 0.0
C423 C 0.99168 0.71775 0.25324 0.0
O424 O 0.10421 0.75163 0.30296 0.0
O425 O 0.09431 0.78379 0.22735 0.0
O426 O 1.01916 0.62103 0.26239 0.0
O427 O 0.06384 0.67303 0.2058 0.0
Co428 Co 0.43495 0.47547 0.31431 0.0
O429 O 0.49149 0.48928 0.28255 0.0
O430 O 0.4407 0.49981 0.23866 0.0
C431 C 0.47136 0.50765 0.39881 0.0
O432 O 0.37333 0.47056 0.33034 0.0
Co433 Co 0.38944 0.42487 0.41689 0.0
O434 O 0.35181 0.45354 0.41873 0.0
C435 C 0.38171 0.37309 0.30992 0.0
C436 C 0.48081 0.50531 0.23959 0.0
C437 C 0.34702 0.46665 0.37099 0.0
O438 O 0.4056 0.4103 0.2842 0.0
O439 O 0.37068 0.37243 0.36151 0.0
O440 O 0.46855 0.53222 0.35967 0.0
O441 O 0.44898 0.46471 0.38848 0.0
Co442 Co 0.66537 0.09312 0.27166 0.0
O443 O 0.60609 0.05035 0.29549 0.0
O444 O 0.6611 0.10115 0.35198 0.0
C445 C 0.64241 0.11433 0.1945 0.0
O446 O 0.72952 0.1422 0.25946 0.0
Co447 Co 0.6968 0.07328 0.15795 0.0
O448 O 0.75582 0.12607 0.18076 0.0
C449 C 0.67819 1.01528 0.25189 0.0
C450 C 0.61971 0.06831 0.3458 0.0
C451 C 0.76127 0.15014 0.22526 0.0
O452 O 0.68624 0.04869 0.28521 0.0
O453 O 0.67121 1.01547 0.19882 0.0
O454 O 0.64299 0.13233 0.24369 0.0
O455 O 0.65183 0.08226 0.19513 0.0
Co456 Co 0.07526 0.41934 0.75195 0.0
O457 O 0.04009 0.44051 0.71064 0.0
O458 O 0.11376 0.47419 0.71142 0.0
C459 C 1.03307 0.34351 0.72316 0.0
O460 O 0.12833 0.41314 0.78458 0.0
Co461 Co 0.04896 0.36032 0.84843 0.0
O462 O 0.11166 0.3735 0.86225 0.0
C463 C 0.04702 0.44314 0.86398 0.0
C464 C 0.07789 0.47436 0.69492 0.0
C465 C 0.14019 0.39783 0.82671 0.0
O466 O 0.07163 0.45572 0.81976 0.0
O467 O 1.03233 0.40389 0.883 0.0
O468 O 0.06454 0.37365 0.69289 0.0
O469 O 1.02665 0.35956 0.7703 0.0
Co470 Co 0.6739 0.66777 0.78986 0.0
O471 O 0.62297 0.67051 0.82243 0.0
O472 O 0.64487 0.6231 0.84775 0.0
C473 C 0.72185 0.74391 0.79524 0.0
O474 O 0.72734 0.65683 0.77298 0.0
Co475 Co 0.71782 0.70903 0.67829 0.0
O476 O 0.76281 0.69088 0.69461 0.0
C477 C 0.62896 0.62742 0.67236 0.0
C478 C 0.61819 0.63918 0.85613 0.0
C479 C 0.75929 0.66787 0.73734 0.0
O480 O 0.63241 0.6234 0.72634 0.0
O481 O 0.65846 0.66095 0.64593 0.0
O482 O 0.7143 0.71984 0.83955 0.0
O483 O 0.69856 0.72211 0.75011 0.0
Co484 Co 0.39183 1.01665 0.75889 0.0
O485 O 0.4474 0.0519 0.7188 0.0
O486 O 0.39919 0.97929 0.70295 0.0
C487 C 0.36753 0.06745 0.76025 0.0
O488 O 0.33201 0.96634 0.78585 0.0
Co489 Co 0.36848 0.04202 0.87595 0.0
O490 O 0.31986 0.97826 0.87583 0.0
C491 C 0.44506 0.02821 0.86321 0.0
C492 C 0.43692 1.01425 0.69123 0.0
C493 C 0.31036 0.95289 0.83167 0.0
O494 O 0.42675 1.00432 0.81742 0.0
O495 O 0.42991 0.05118 0.8881 0.0
O496 O 0.36198 0.04325 0.71419 0.0
O497 O 0.38943 0.06229 0.80079 0.0
Co498 Co 0.72473 0.99115 0.63072 0.0
O499 O 0.75845 0.96446 0.66386 0.0
O500 O 0.70442 0.96765 0.70714 0.0
C501 C 0.71261 0.9588 0.5378 0.0
O502 O 0.67911 1.01289 0.61543 0.0
Co503 Co 0.75476 0.05792 0.53499 0.0
O504 O 0.70053 0.0637 0.54792 0.0
C505 C 0.80529 0.09042 0.64239 0.0
C506 C 0.73491 0.95607 0.70929 0.0
C507 C 0.67318 0.04074 0.58558 0.0
O508 O 0.77358 0.05413 0.66473 0.0
O509 O 0.80592 0.09657 0.58937 0.0
O510 O 0.68787 0.93571 0.57916 0.0
O511 O 0.74458 0.9983 0.55462 0.0
Co512 Co 0.11525 0.8128 0.61742 0.0
O513 O 0.17646 0.84494 0.58584 0.0
O514 O 0.1146 0.83063 0.54033 0.0
C515 C 0.13232 0.85034 0.70351 0.0
O516 O 0.04696 0.7828 0.63181 0.0
Co517 Co 0.08813 0.75391 0.72315 0.0
O518 O 1.0252 0.73628 0.70471 0.0
C519 C 0.09686 0.71586 0.61481 0.0
C520 C 0.15791 0.84846 0.53948 0.0
C521 C 1.01611 0.75315 0.66294 0.0
O522 O 0.10718 0.75275 0.59011 0.0
O523 O 0.08995 0.71027 0.66753 0.0
O524 O 0.12654 0.86849 0.65894 0.0
O525 O 0.131 0.81234 0.69428 0.0
Co526 Co 0.30577 0.37365 0.63292 0.0
O527 O 0.25659 0.32052 0.66423 0.0
O528 O 0.30441 0.38433 0.71122 0.0
C529 C 0.26489 0.37106 0.55768 0.0
O530 O 0.3582 0.43652 0.6184 0.0
Co531 Co 0.34616 0.37424 0.51957 0.0
O532 O 0.38016 0.44138 0.52949 0.0
C533 C 0.34657 0.3192 0.6127 0.0
C534 C 0.27005 0.34372 0.71173 0.0
C535 C 0.38212 0.45984 0.5777 0.0
O536 O 0.34639 0.34877 0.64664 0.0
O537 O 0.3414 0.32029 0.55917 0.0
O538 O 0.26379 0.39161 0.60419 0.0
O539 O 0.29012 0.35325 0.55821 0.0
Co540 Co 0.72167 0.78891 0.09979 0.0
O541 O 0.67683 0.79651 0.05541 0.0
O542 O 0.74894 0.8415 0.05022 0.0
C543 C 0.69208 0.7134 0.07524 0.0
O544 O 0.7799 0.79104 0.13032 0.0
Co545 Co 0.70073 0.73112 0.20042 0.0
O546 O 0.76273 0.74099 0.19808 0.0
C547 C 0.70342 0.81598 0.22226 0.0
C548 C 0.70913 0.82974 0.02997 0.0
C549 C 0.7911 0.76971 0.16552 0.0
O550 O 0.71758 0.82536 0.17044 0.0
O551 O 0.69135 0.77749 0.24225 0.0
O552 O 0.71791 0.7452 0.04249 0.0
O553 O 0.68129 0.72737 0.12089 0.0
Co554 Co 0.35485 1.00686 0.17891 0.0
O555 O 0.3024 0.99627 0.21923 0.0
O556 O 0.34286 0.9652 0.24122 0.0
C557 C 0.37865 0.08228 0.17766 0.0
O558 O 0.41353 1.00953 0.15152 0.0
Co559 Co 0.38433 0.05119 0.0649 0.0
O560 O 0.43503 0.03979 0.06688 0.0
C561 C 0.30018 0.96452 0.07305 0.0
C562 C 0.30918 0.97079 0.25283 0.0
C563 C 0.44013 0.02074 0.1093 0.0
O564 O 0.31403 0.95764 0.12115 0.0
O565 O 0.32194 1.0015 0.04762 0.0
O566 O 0.38911 0.06609 0.22085 0.0
O567 O 0.35829 0.05393 0.13629 0.0
Co568 Co 0.09017 0.39771 0.09276 0.0
O569 O 0.14826 0.41492 0.06142 0.0
O570 O 0.08812 0.3467 0.05399 0.0
C571 C 0.08755 0.46097 0.06786 0.0
O572 O 1.02422 0.36356 0.11523 0.0
Co573 Co 0.07161 0.4505 0.18662 0.0
O574 O 1.0074 0.40459 0.17458 0.0
C575 C 0.1237 0.40467 0.21055 0.0
C576 C 0.13034 0.37271 0.04471 0.0
C577 C 0.99613 0.36879 0.14504 0.0
O578 O 0.10993 0.38166 0.16377 0.0
O579 O 0.11496 0.43583 0.22432 0.0
O580 O 0.07598 0.42722 0.03187 0.0
O581 O 0.10151 0.45591 0.11614 0.0
Co582 Co 0.42746 0.34737 0.98744 0.0
O583 O 0.45858 0.32134 0.03396 0.0
O584 O 0.39836 0.32276 0.05714 0.0
C585 C 0.42819 0.31925 0.89619 0.0
O586 O 0.37858 0.3627 0.96335 0.0
Co587 Co 0.45484 0.41527 0.89656 0.0
O588 O 0.39541 0.41367 0.89812 0.0
C589 C 0.50145 0.44494 1.00667 0.0
C590 C 0.42785 0.31201 0.0715 0.0
C591 C 0.36786 0.3869 0.93305 0.0
O592 O 0.46806 0.40915 0.0265 0.0
O593 O 0.50501 0.45191 0.95376 0.0
O594 O 0.40016 0.29362 0.93362 0.0
O595 O 0.45594 0.35975 0.91541 0.0
Co596 Co 0.769 0.12296 0.94698 0.0
O597 O 0.82767 0.16655 0.92561 0.0
O598 O 0.76889 0.1338 0.86621 0.0
C599 C 0.77507 0.16932 1.02125 0.0
O600 O 0.7022 0.07948 0.95661 0.0
Co601 Co 0.75451 0.07738 0.05527 0.0
O602 O 0.68868 0.05127 0.04291 0.0
C603 C 0.79351 0.04981 0.96525 0.0
C604 C 0.81067 0.1647 0.87605 0.0
C605 C 0.67488 0.05591 0.9949 0.0
O606 O 0.78155 0.07125 0.93165 0.0
O607 O 0.7916 0.05353 1.01888 0.0
O608 O 0.75922 0.17165 0.97248 0.0
O609 O 0.78594 0.13804 0.02522 0.0
Co610 Co 0.97602 0.70556 0.96755 0.0
O611 O 0.91502 0.66676 0.99078 0.0
O612 O 0.97149 0.71482 0.04741 0.0
C613 C 0.95608 0.73144 0.89228 0.0
O614 O 0.0421 0.752 0.95816 0.0
Co615 Co 1.00864 0.68704 0.85766 0.0
O616 O 0.06777 0.73923 0.877 0.0
C617 C 1.01377 0.64121 0.95684 0.0
C618 C 0.92877 0.68587 0.04053 0.0
C619 C 0.07373 0.76108 0.92335 0.0
O620 O 0.99234 0.6576 0.98319 0.0
O621 O 1.02339 0.648 0.90489 0.0
O622 O 0.9603 0.74932 0.94234 0.0
O623 O 0.96097 0.69605 0.88876 0.0
Co624 Co 0.42826 0.1627 0.47151 0.0
O625 O 0.39255 0.18557 0.43513 0.0
O626 O 0.46081 0.20554 0.41098 0.0
C627 C 0.36818 0.08898 0.46587 0.0
O628 O 0.4782 0.14708 0.48925 0.0
Co629 Co 0.4126 0.10858 0.57591 0.0
O630 O 0.46878 0.10726 0.56603 0.0
C631 C 0.44505 0.20588 0.59246 0.0
C632 C 0.4246 0.20702 0.40002 0.0
C633 C 0.49199 0.12802 0.52443 0.0
O634 O 0.44922 0.21122 0.5378 0.0
O635 O 0.43067 0.16768 0.6142 0.0
O636 O 0.39412 0.10642 0.42328 0.0
O637 O 0.38036 0.11468 0.51101 0.0
Co638 Co 0.99593 0.39409 0.4768 0.0
O639 O 0.93998 0.37812 0.51374 0.0
O640 O 0.97618 0.33991 0.51776 0.0
C641 C 1.02716 0.46647 0.50099 0.0
O642 O 0.05551 0.39945 0.45076 0.0
Co643 Co 0.0398 0.45958 0.38162 0.0
O644 O 0.09732 0.46262 0.4048 0.0
C645 C 0.95567 0.37255 0.35969 0.0
C646 C 0.94243 0.34424 0.53323 0.0
C647 C 0.09358 0.4292 0.43134 0.0
O648 O 0.96125 0.35921 0.40782 0.0
O649 O 0.98301 0.4115 0.34125 0.0
O650 O 1.02827 0.43865 0.53657 0.0
O651 O 1.0081 0.45025 0.45225 0.0
Co652 Co 0.76029 0.76333 0.44621 0.0
O653 O 0.81345 0.76687 0.41312 0.0
O654 O 0.74419 0.70968 0.40039 0.0
C655 C 0.77812 0.83422 0.42809 0.0
O656 O 0.69536 0.74503 0.46596 0.0
Co657 Co 0.75546 0.81429 0.54917 0.0
O658 O 0.68968 0.77152 0.55056 0.0
C659 C 0.79463 0.75721 0.55847 0.0
C660 C 0.78636 0.72736 0.38956 0.0
C661 C 0.6715 0.74651 0.50658 0.0
O662 O 0.77074 0.73596 0.514 0.0
O663 O 0.79515 0.79206 0.57973 0.0
O664 O 0.75936 0.80206 0.38917 0.0
O665 O 0.78656 0.82323 0.4768 0.0
loop_
_geom_bond_atom_site_label_1
_geom_bond_atom_site_label_2
_geom_bond_distance
_geom_bond_site_symmetry_2
_ccdc_geom_bond_type
Cu0 N1 1.999 . S
Cu0 O6 1.974 1_554 S
Cu0 N11 1.985 1_554 S
Cu0 O20 1.959 . S
N1 Cu0 1.999 . S
N1 C3 1.263 . S
N1 C5 1.389 . S
N2 C3 1.358 . S
N2 C4 1.400 . S
C3 N1 1.263 . S
C3 N2 1.358 . S
C3 H9 0.930 . S
C4 N2 1.400 . S
C4 C5 1.351 . S
C4 H21 0.930 . S
C5 N1 1.389 . S
C5 C4 1.351 . S
C5 H10 0.930 . S
O6 Cu0 1.974 1_556 S
O6 C16 1.282 . S
C7 O8 1.261 1_455 S
C7 O20 1.251 . S
O8 C7 1.261 1_655 S
H9 C3 0.930 . S
H10 C5 0.930 . S
N11 Cu0 1.985 1_556 S
N11 C13 1.335 . S
N11 C14 1.390 . S
N12 C13 1.345 . S
N12 C15 1.336 . S
C13 N11 1.335 . S
C13 N12 1.345 . S
C13 H18 0.930 . S
C14 N11 1.390 . S
C14 C15 1.346 . S
C14 H19 0.930 . S
C15 N12 1.336 . S
C15 C14 1.346 . S
C15 H22 0.929 . S
C16 O6 1.282 . S
C16 O17 1.216 1_455 S
O17 C16 1.216 1_655 S
H18 C13 0.930 . S
H19 C14 0.930 . S
O20 Cu0 1.959 . S
O20 C7 1.251 . S
H21 C4 0.930 . S
H22 C15 0.929 . S
Cu23 N24 1.999 1_554 S
Cu23 O29 1.974 . S
Cu23 N34 1.985 . S
Cu23 O43 1.959 1_554 S
N24 Cu23 1.999 1_556 S
N24 C26 1.263 . S
N24 C28 1.389 . S
N25 C26 1.358 . S
N25 C27 1.400 . S
C26 N24 1.263 . S
C26 N25 1.358 . S
C26 H32 0.930 . S
C27 N25 1.400 . S
C27 C28 1.351 . S
C27 H44 0.930 . S
C28 N24 1.389 . S
C28 C27 1.351 . S
C28 H33 0.930 . S
O29 Cu23 1.974 . S
O29 C39 1.282 . S
C30 O31 1.261 . S
C30 O43 1.251 . S
O31 C30 1.261 . S
H32 C26 0.930 . S
H33 C28 0.930 . S
N34 Cu23 1.985 . S
N34 C36 1.335 . S
N34 C37 1.390 . S
N35 C36 1.345 . S
N35 C38 1.336 . S
C36 N34 1.335 . S
C36 N35 1.345 . S
C36 H41 0.930 . S
C37 N34 1.390 . S
C37 C38 1.346 . S
C37 H42 0.930 . S
C38 N35 1.336 . S
C38 C37 1.346 . S
C38 H45 0.929 . S
C39 O29 1.282 . S
C39 O40 1.216 . S
O40 C39 1.216 . S
H41 C36 0.930 . S
H42 C37 0.930 . S
O43 Cu23 1.959 1_556 S
O43 C30 1.251 . S
H44 C27 0.930 . S
H45 C38 0.929 . S
Cu46 N47 1.999 1_554 S
Cu46 O52 1.974 . S
Cu46 N57 1.985 1_565 S
Cu46 O66 1.959 1_564 S
N47 Cu46 1.999 1_556 S
N47 C49 1.263 . S
N47 C51 1.389 . S
N48 C49 1.358 . S
N48 C50 1.400 . S
C49 N47 1.263 . S
C49 N48 1.358 . S
C49 H55 0.930 1_565 S
C50 N48 1.400 . S
C50 C51 1.351 . S
C50 H67 0.930 . S
C51 N47 1.389 . S
C51 C50 1.351 . S
C51 H56 0.930 . S
O52 Cu46 1.974 . S
O52 C62 1.282 1_565 S
C53 O54 1.261 . S
C53 O66 1.251 . S
O54 C53 1.261 . S
H55 C49 0.930 1_545 S
H56 C51 0.930 . S
N57 Cu46 1.985 1_545 S
N57 C59 1.335 . S
N57 C60 1.390 . S
N58 C59 1.345 . S
N58 C61 1.336 . S
C59 N57 1.335 . S
C59 N58 1.345 . S
C59 H64 0.930 1_545 S
C60 N57 1.390 . S
C60 C61 1.346 . S
C60 H65 0.930 . S
C61 N58 1.336 . S
C61 C60 1.346 . S
C61 H68 0.929 . S
C62 O52 1.282 1_545 S
C62 O63 1.216 . S
O63 C62 1.216 . S
H64 C59 0.930 1_565 S
H65 C60 0.930 . S
O66 Cu46 1.959 1_546 S
O66 C53 1.251 . S
H67 C50 0.930 . S
H68 C61 0.929 . S
Cu69 N70 1.999 . S
Cu69 O75 1.974 . S
Cu69 N80 1.985 . S
Cu69 O89 1.959 . S
N70 Cu69 1.999 . S
N70 C72 1.263 . S
N70 C74 1.389 . S
N71 C72 1.358 . S
N71 C73 1.400 . S
C72 N70 1.263 . S
C72 N71 1.358 . S
C72 H78 0.930 . S
C73 N71 1.400 . S
C73 C74 1.351 . S
C73 H90 0.930 . S
C74 N70 1.389 . S
C74 C73 1.351 . S
C74 H79 0.930 . S
O75 Cu69 1.974 . S
O75 C85 1.282 1_545 S
C76 O77 1.261 . S
C76 O89 1.251 . S
O77 C76 1.261 . S
H78 C72 0.930 . S
H79 C74 0.930 . S
N80 Cu69 1.985 . S
N80 C82 1.335 . S
N80 C83 1.390 1_545 S
N81 C82 1.345 . S
N81 C84 1.336 1_545 S
C82 N80 1.335 . S
C82 N81 1.345 . S
C82 H87 0.930 . S
C83 N80 1.390 1_565 S
C83 C84 1.346 . S
C83 H88 0.930 . S
C84 N81 1.336 1_565 S
C84 C83 1.346 . S
C84 H91 0.929 . S
C85 O75 1.282 1_565 S
C85 O86 1.216 . S
O86 C85 1.216 . S
H87 C82 0.930 . S
H88 C83 0.930 . S
O89 Cu69 1.959 . S
O89 C76 1.251 . S
H90 C73 0.930 . S
H91 C84 0.929 . S
Cu92 N93 1.999 . S
Cu92 O98 1.974 . S
Cu92 N103 1.985 . S
Cu92 O112 1.959 . S
N93 Cu92 1.999 . S
N93 C95 1.263 . S
N93 C97 1.389 . S
N94 C95 1.358 . S
N94 C96 1.400 . S
C95 N93 1.263 . S
C95 N94 1.358 . S
C95 H101 0.930 . S
C96 N94 1.400 . S
C96 C97 1.351 . S
C96 H113 0.930 . S
C97 N93 1.389 . S
C97 C96 1.351 . S
C97 H102 0.930 . S
O98 Cu92 1.974 . S
O98 C108 1.282 . S
C99 O100 1.261 . S
C99 O112 1.251 . S
O100 C99 1.261 . S
H101 C95 0.930 . S
H102 C97 0.930 . S
N103 Cu92 1.985 . S
N103 C105 1.335 . S
N103 C106 1.390 . S
N104 C105 1.345 . S
N104 C107 1.336 . S
C105 N103 1.335 . S
C105 N104 1.345 . S
C105 H110 0.930 . S
C106 N103 1.390 . S
C106 C107 1.346 . S
C106 H111 0.930 . S
C107 N104 1.336 . S
C107 C106 1.346 . S
C107 H114 0.929 . S
C108 O98 1.282 . S
C108 O109 1.216 . S
O109 C108 1.216 . S
H110 C105 0.930 . S
H111 C106 0.930 . S
O112 Cu92 1.959 . S
O112 C99 1.251 . S
H113 C96 0.930 . S
H114 C107 0.929 . S
Cu115 N116 1.999 . S
Cu115 O121 1.974 . S
Cu115 N126 1.985 . S
Cu115 O135 1.959 . S
N116 Cu115 1.999 . S
N116 C118 1.263 . S
N116 C120 1.389 . S
N117 C118 1.358 . S
N117 C119 1.400 . S
C118 N116 1.263 . S
C118 N117 1.358 . S
C118 H124 0.930 . S
C119 N117 1.400 . S
C119 C120 1.351 . S
C119 H136 0.930 . S
C120 N116 1.389 . S
C120 C119 1.351 . S
C120 H125 0.930 . S
O121 Cu115 1.974 . S
O121 C131 1.282 . S
C122 O123 1.261 . S
C122 O135 1.251 . S
O123 C122 1.261 . S
H124 C118 0.930 . S
H125 C120 0.930 . S
N126 Cu115 1.985 . S
N126 C128 1.335 . S
N126 C129 1.390 . S
N127 C128 1.345 . S
N127 C130 1.336 . S
C128 N126 1.335 . S
C128 N127 1.345 . S
C128 H133 0.930 . S
C129 N126 1.390 . S
C129 C130 1.346 . S
C129 H134 0.930 . S
C130 N127 1.336 . S
C130 C129 1.346 . S
C130 H137 0.929 . S
C131 O121 1.282 . S
C131 O132 1.216 . S
O132 C131 1.216 . S
H133 C128 0.930 . S
H134 C129 0.930 . S
O135 Cu115 1.959 . S
O135 C122 1.251 . S
H136 C119 0.930 . S
H137 C130 0.929 . S
Cu138 N139 1.999 . S
Cu138 O144 1.974 . S
Cu138 N149 1.985 . S
Cu138 O158 1.959 . S
N139 Cu138 1.999 . S
N139 C141 1.263 . S
N139 C143 1.389 . S
N140 C141 1.358 . S
N140 C142 1.400 . S
C141 N139 1.263 . S
C141 N140 1.358 . S
C141 H147 0.930 . S
C142 N140 1.400 . S
C142 C143 1.351 . S
C142 H159 0.930 . S
C143 N139 1.389 . S
C143 C142 1.351 . S
C143 H148 0.930 . S
O144 Cu138 1.974 . S
O144 C154 1.282 . S
C145 O146 1.261 . S
C145 O158 1.251 . S
O146 C145 1.261 . S
H147 C141 0.930 . S
H148 C143 0.930 . S
N149 Cu138 1.985 . S
N149 C151 1.335 . S
N149 C152 1.390 . S
N150 C151 1.345 . S
N150 C153 1.336 . S
C151 N149 1.335 . S
C151 N150 1.345 . S
C151 H156 0.930 . S
C152 N149 1.390 . S
C152 C153 1.346 . S
C152 H157 0.930 . S
C153 N150 1.336 . S
C153 C152 1.346 . S
C153 H160 0.929 . S
C154 O144 1.282 . S
C154 O155 1.216 . S
O155 C154 1.216 . S
H156 C151 0.930 . S
H157 C152 0.930 . S
O158 Cu138 1.959 . S
O158 C145 1.251 . S
H159 C142 0.930 . S
H160 C153 0.929 . S
Cu161 N162 1.999 . S
Cu161 O167 1.974 . S
Cu161 N172 1.985 . S
Cu161 O181 1.959 . S
N162 Cu161 1.999 . S
N162 C164 1.263 . S
N162 C166 1.389 . S
N163 C164 1.358 . S
N163 C165 1.400 . S
C164 N162 1.263 . S
C164 N163 1.358 . S
C164 H170 0.930 . S
C165 N163 1.400 . S
C165 C166 1.351 . S
C165 H182 0.930 . S
C166 N162 1.389 . S
C166 C165 1.351 . S
C166 H171 0.930 . S
O167 Cu161 1.974 . S
O167 C177 1.282 . S
C168 O169 1.261 . S
C168 O181 1.251 . S
O169 C168 1.261 . S
H170 C164 0.930 . S
H171 C166 0.930 . S
N172 Cu161 1.985 . S
N172 C174 1.335 . S
N172 C175 1.390 . S
N173 C174 1.345 1_545 S
N173 C176 1.336 1_545 S
C174 N172 1.335 . S
C174 N173 1.345 1_565 S
C174 H179 0.930 . S
C175 N172 1.390 . S
C175 C176 1.346 . S
C175 H180 0.930 . S
C176 N173 1.336 1_565 S
C176 C175 1.346 . S
C176 H183 0.929 1_565 S
C177 O167 1.282 . S
C177 O178 1.216 . S
O178 C177 1.216 . S
H179 C174 0.930 . S
H180 C175 0.930 . S
O181 Cu161 1.959 . S
O181 C168 1.251 . S
H182 C165 0.930 . S
H183 C176 0.929 1_545 S
Cu184 N185 1.999 . S
Cu184 O190 1.974 . S
Cu184 N195 1.985 . S
Cu184 O204 1.959 . S
N185 Cu184 1.999 . S
N185 C187 1.263 . S
N185 C189 1.389 . S
N186 C187 1.358 . S
N186 C188 1.400 . S
C187 N185 1.263 . S
C187 N186 1.358 . S
C187 H193 0.930 . S
C188 N186 1.400 . S
C188 C189 1.351 . S
C188 H205 0.930 . S
C189 N185 1.389 . S
C189 C188 1.351 . S
C189 H194 0.930 . S
O190 Cu184 1.974 . S
O190 C200 1.282 . S
C191 O192 1.261 . S
C191 O204 1.251 . S
O192 C191 1.261 . S
H193 C187 0.930 . S
H194 C189 0.930 . S
N195 Cu184 1.985 . S
N195 C197 1.335 . S
N195 C198 1.390 . S
N196 C197 1.345 . S
N196 C199 1.336 . S
C197 N195 1.335 . S
C197 N196 1.345 . S
C197 H202 0.930 . S
C198 N195 1.390 . S
C198 C199 1.346 . S
C198 H203 0.930 . S
C199 N196 1.336 . S
C199 C198 1.346 . S
C199 H206 0.929 . S
C200 O190 1.282 . S
C200 O201 1.216 . S
O201 C200 1.216 . S
H202 C197 0.930 . S
H203 C198 0.930 . S
O204 Cu184 1.959 . S
O204 C191 1.251 . S
H205 C188 0.930 . S
H206 C199 0.929 . S
Cu207 N208 1.999 . S
Cu207 O213 1.974 . S
Cu207 N218 1.985 . S
Cu207 O227 1.959 . S
N208 Cu207 1.999 . S
N208 C210 1.263 . S
N208 C212 1.389 . S
N209 C210 1.358 . S
N209 C211 1.400 . S
C210 N208 1.263 . S
C210 N209 1.358 . S
C210 H216 0.930 . S
C211 N209 1.400 . S
C211 C212 1.351 . S
C211 H228 0.930 . S
C212 N208 1.389 . S
C212 C211 1.351 . S
C212 H217 0.930 . S
O213 Cu207 1.974 . S
O213 C223 1.282 . S
C214 O215 1.261 . S
C214 O227 1.251 . S
O215 C214 1.261 . S
H216 C210 0.930 . S
H217 C212 0.930 . S
N218 Cu207 1.985 . S
N218 C220 1.335 . S
N218 C221 1.390 . S
N219 C220 1.345 1_554 S
N219 C222 1.336 . S
C220 N218 1.335 . S
C220 N219 1.345 1_556 S
C220 H225 0.930 . S
C221 N218 1.390 . S
C221 C222 1.346 1_556 S
C221 H226 0.930 . S
C222 N219 1.336 . S
C222 C221 1.346 1_554 S
C222 H229 0.929 . S
C223 O213 1.282 . S
C223 O224 1.216 . S
O224 C223 1.216 . S
H225 C220 0.930 . S
H226 C221 0.930 . S
O227 Cu207 1.959 . S
O227 C214 1.251 . S
H228 C211 0.930 . S
H229 C222 0.929 . S
Cu230 N231 1.999 . S
Cu230 O236 1.974 . S
Cu230 N241 1.985 . S
Cu230 O250 1.959 . S
N231 Cu230 1.999 . S
N231 C233 1.263 . S
N231 C235 1.389 . S
N232 C233 1.358 . S
N232 C234 1.400 . S
C233 N231 1.263 . S
C233 N232 1.358 . S
C233 H239 0.930 . S
C234 N232 1.400 . S
C234 C235 1.351 . S
C234 H251 0.930 . S
C235 N231 1.389 . S
C235 C234 1.351 . S
C235 H240 0.930 . S
O236 Cu230 1.974 . S
O236 C246 1.282 . S
C237 O238 1.261 . S
C237 O250 1.251 . S
O238 C237 1.261 . S
H239 C233 0.930 . S
H240 C235 0.930 . S
N241 Cu230 1.985 . S
N241 C243 1.335 . S
N241 C244 1.390 . S
N242 C243 1.345 1_545 S
N242 C245 1.336 1_545 S
C243 N241 1.335 . S
C243 N242 1.345 1_565 S
C243 H248 0.930 1_565 S
C244 N241 1.390 . S
C244 C245 1.346 . S
C244 H249 0.930 . S
C245 N242 1.336 1_565 S
C245 C244 1.346 . S
C245 H252 0.929 . S
C246 O236 1.282 . S
C246 O247 1.216 . S
O247 C246 1.216 . S
H248 C243 0.930 1_545 S
H249 C244 0.930 . S
O250 Cu230 1.959 . S
O250 C237 1.251 . S
H251 C234 0.930 . S
H252 C245 0.929 . S
Cu253 N254 1.999 . S
Cu253 O259 1.974 . S
Cu253 N264 1.985 . S
Cu253 O273 1.959 . S
N254 Cu253 1.999 . S
N254 C256 1.263 . S
N254 C258 1.389 . S
N255 C256 1.358 . S
N255 C257 1.400 . S
C256 N254 1.263 . S
C256 N255 1.358 . S
C256 H262 0.930 . S
C257 N255 1.400 . S
C257 C258 1.351 . S
C257 H274 0.930 . S
C258 N254 1.389 . S
C258 C257 1.351 . S
C258 H263 0.930 . S
O259 Cu253 1.974 . S
O259 C269 1.282 . S
C260 O261 1.261 . S
C260 O273 1.251 . S
O261 C260 1.261 . S
H262 C256 0.930 . S
H263 C258 0.930 . S
N264 Cu253 1.985 . S
N264 C266 1.335 . S
N264 C267 1.390 . S
N265 C266 1.345 1_554 S
N265 C268 1.336 . S
C266 N264 1.335 . S
C266 N265 1.345 1_556 S
C266 H271 0.930 . S
C267 N264 1.390 . S
C267 C268 1.346 1_556 S
C267 H272 0.930 . S
C268 N265 1.336 . S
C268 C267 1.346 1_554 S
C268 H275 0.929 . S
C269 O259 1.282 . S
C269 O270 1.216 . S
O270 C269 1.216 . S
H271 C266 0.930 . S
H272 C267 0.930 . S
O273 Cu253 1.959 . S
O273 C260 1.251 . S
H274 C257 0.930 . S
H275 C268 0.929 . S
Cu276 N277 1.999 . S
Cu276 O282 1.974 . S
Cu276 N287 1.985 . S
Cu276 O296 1.959 . S
N277 Cu276 1.999 . S
N277 C279 1.263 . S
N277 C281 1.389 . S
N278 C279 1.358 . S
N278 C280 1.400 . S
C279 N277 1.263 . S
C279 N278 1.358 . S
C279 H285 0.930 . S
C280 N278 1.400 . S
C280 C281 1.351 . S
C280 H297 0.930 . S
C281 N277 1.389 . S
C281 C280 1.351 . S
C281 H286 0.930 . S
O282 Cu276 1.974 . S
O282 C292 1.282 . S
C283 O284 1.261 . S
C283 O296 1.251 . S
O284 C283 1.261 . S
H285 C279 0.930 . S
H286 C281 0.930 . S
N287 Cu276 1.985 . S
N287 C289 1.335 . S
N287 C290 1.390 . S
N288 C289 1.345 . S
N288 C291 1.336 . S
C289 N287 1.335 . S
C289 N288 1.345 . S
C289 H294 0.930 . S
C290 N287 1.390 . S
C290 C291 1.346 . S
C290 H295 0.930 . S
C291 N288 1.336 . S
C291 C290 1.346 . S
C291 H298 0.929 . S
C292 O282 1.282 . S
C292 O293 1.216 . S
O293 C292 1.216 . S
H294 C289 0.930 . S
H295 C290 0.930 . S
O296 Cu276 1.959 . S
O296 C283 1.251 . S
H297 C280 0.930 . S
H298 C291 0.929 . S
Cu299 N300 1.999 . S
Cu299 O305 1.974 . S
Cu299 N310 1.985 . S
Cu299 O319 1.959 . S
N300 Cu299 1.999 . S
N300 C302 1.263 . S
N300 C304 1.389 . S
N301 C302 1.358 . S
N301 C303 1.400 . S
C302 N300 1.263 . S
C302 N301 1.358 . S
C302 H308 0.930 . S
C303 N301 1.400 . S
C303 C304 1.351 . S
C303 H320 0.930 . S
C304 N300 1.389 . S
C304 C303 1.351 . S
C304 H309 0.930 . S
O305 Cu299 1.974 . S
O305 C315 1.282 . S
C306 O307 1.261 . S
C306 O319 1.251 . S
O307 C306 1.261 . S
H308 C302 0.930 . S
H309 C304 0.930 . S
N310 Cu299 1.985 . S
N310 C312 1.335 . S
N310 C313 1.390 . S
N311 C312 1.345 . S
N311 C314 1.336 . S
C312 N310 1.335 . S
C312 N311 1.345 . S
C312 H317 0.930 . S
C313 N310 1.390 . S
C313 C314 1.346 . S
C313 H318 0.930 . S
C314 N311 1.336 . S
C314 C313 1.346 . S
C314 H321 0.929 . S
C315 O305 1.282 . S
C315 O316 1.216 . S
O316 C315 1.216 . S
H317 C312 0.930 . S
H318 C313 0.930 . S
O319 Cu299 1.959 . S
O319 C306 1.251 . S
H320 C303 0.930 . S
H321 C314 0.929 . S
Cu322 N323 1.999 . S
Cu322 O328 1.974 . S
Cu322 N333 1.985 . S
Cu322 O342 1.959 . S
N323 Cu322 1.999 . S
N323 C325 1.263 . S
N323 C327 1.389 . S
N324 C325 1.358 . S
N324 C326 1.400 . S
C325 N323 1.263 . S
C325 N324 1.358 . S
C325 H331 0.930 . S
C326 N324 1.400 . S
C326 C327 1.351 . S
C326 H343 0.930 . S
C327 N323 1.389 . S
C327 C326 1.351 . S
C327 H332 0.930 . S
O328 Cu322 1.974 . S
O328 C338 1.282 . S
C329 O330 1.261 . S
C329 O342 1.251 . S
O330 C329 1.261 . S
H331 C325 0.930 . S
H332 C327 0.930 . S
N333 Cu322 1.985 . S
N333 C335 1.335 . S
N333 C336 1.390 . S
N334 C335 1.345 . S
N334 C337 1.336 . S
C335 N333 1.335 . S
C335 N334 1.345 . S
C335 H340 0.930 . S
C336 N333 1.390 . S
C336 C337 1.346 . S
C336 H341 0.930 . S
C337 N334 1.336 . S
C337 C336 1.346 . S
C337 H344 0.929 . S
C338 O328 1.282 . S
C338 O339 1.216 . S
O339 C338 1.216 . S
H340 C335 0.930 . S
H341 C336 0.930 . S
O342 Cu322 1.959 . S
O342 C329 1.251 . S
H343 C326 0.930 . S
H344 C337 0.929 . S
Cu345 N346 1.999 . S
Cu345 O351 1.974 . S
Cu345 N356 1.985 . S
Cu345 O365 1.959 . S
N346 Cu345 1.999 . S
N346 C348 1.263 . S
N346 C350 1.389 . S
N347 C348 1.358 . S
N347 C349 1.400 . S
C348 N346 1.263 . S
C348 N347 1.358 . S
C348 H354 0.930 . S
C349 N347 1.400 . S
C349 C350 1.351 . S
C349 H366 0.930 1_554 S
C350 N346 1.389 . S
C350 C349 1.351 . S
C350 H355 0.930 . S
O351 Cu345 1.974 . S
O351 C361 1.282 . S
C352 O353 1.261 . S
C352 O365 1.251 . S
O353 C352 1.261 . S
H354 C348 0.930 . S
H355 C350 0.930 . S
N356 Cu345 1.985 . S
N356 C358 1.335 . S
N356 C359 1.390 . S
N357 C358 1.345 . S
N357 C360 1.336 . S
C358 N356 1.335 . S
C358 N357 1.345 . S
C358 H363 0.930 . S
C359 N356 1.390 . S
C359 C360 1.346 . S
C359 H364 0.930 . S
C360 N357 1.336 . S
C360 C359 1.346 . S
C360 H367 0.929 . S
C361 O351 1.282 . S
C361 O362 1.216 . S
O362 C361 1.216 . S
H363 C358 0.930 . S
H364 C359 0.930 . S
O365 Cu345 1.959 . S
O365 C352 1.251 . S
H366 C349 0.930 1_556 S
H367 C360 0.929 . S
Cu368 N369 1.999 . S
Cu368 O374 1.974 . S
Cu368 N379 1.985 . S
Cu368 O388 1.959 . S
N369 Cu368 1.999 . S
N369 C371 1.263 . S
N369 C373 1.389 . S
N370 C371 1.358 . S
N370 C372 1.400 . S
C371 N369 1.263 . S
C371 N370 1.358 . S
C371 H377 0.930 . S
C372 N370 1.400 . S
C372 C373 1.351 . S
C372 H389 0.930 . S
C373 N369 1.389 . S
C373 C372 1.351 . S
C373 H378 0.930 . S
O374 Cu368 1.974 . S
O374 C384 1.282 . S
C375 O376 1.261 . S
C375 O388 1.251 . S
O376 C375 1.261 . S
H377 C371 0.930 . S
H378 C373 0.930 . S
N379 Cu368 1.985 . S
N379 C381 1.335 . S
N379 C382 1.390 . S
N380 C381 1.345 . S
N380 C383 1.336 . S
C381 N379 1.335 . S
C381 N380 1.345 . S
C381 H386 0.930 . S
C382 N379 1.390 . S
C382 C383 1.346 . S
C382 H387 0.930 . S
C383 N380 1.336 . S
C383 C382 1.346 . S
C383 H390 0.929 . S
C384 O374 1.282 . S
C384 O385 1.216 . S
O385 C384 1.216 . S
H386 C381 0.930 . S
H387 C382 0.930 . S
O388 Cu368 1.959 . S
O388 C375 1.251 . S
H389 C372 0.930 . S
H390 C383 0.929 . S
Cu391 N392 1.999 . S
Cu391 O397 1.974 . S
Cu391 N402 1.985 . S
Cu391 O411 1.959 . S
N392 Cu391 1.999 . S
N392 C394 1.263 . S
N392 C396 1.389 . S
N393 C394 1.358 . S
N393 C395 1.400 . S
C394 N392 1.263 . S
C394 N393 1.358 . S
C394 H400 0.930 . S
C395 N393 1.400 . S
C395 C396 1.351 . S
C395 H412 0.930 1_554 S
C396 N392 1.389 . S
C396 C395 1.351 . S
C396 H401 0.930 . S
O397 Cu391 1.974 . S
O397 C407 1.282 . S
C398 O399 1.261 . S
C398 O411 1.251 . S
O399 C398 1.261 . S
H400 C394 0.930 . S
H401 C396 0.930 . S
N402 Cu391 1.985 . S
N402 C404 1.335 . S
N402 C405 1.390 . S
N403 C404 1.345 . S
N403 C406 1.336 . S
C404 N402 1.335 . S
C404 N403 1.345 . S
C404 H409 0.930 . S
C405 N402 1.390 . S
C405 C406 1.346 . S
C405 H410 0.930 . S
C406 N403 1.336 . S
C406 C405 1.346 . S
C406 H413 0.929 . S
C407 O397 1.282 . S
C407 O408 1.216 . S
O408 C407 1.216 . S
H409 C404 0.930 . S
H410 C405 0.930 . S
O411 Cu391 1.959 . S
O411 C398 1.251 . S
H412 C395 0.930 1_556 S
H413 C406 0.929 . S
Co414 O415 2.216 1_655 S
Co414 O416 2.091 . S
Co414 O418 2.004 . S
Co414 O424 2.021 1_655 S
Co414 O426 2.137 . S
Co414 O427 2.244 1_655 S
O415 Co414 2.216 1_455 S
O415 C422 1.247 . S
O416 Co414 2.091 . S
O416 C422 1.261 1_655 S
C417 O426 1.247 1_455 S
C417 O427 1.272 . S
O418 Co414 2.004 . S
O418 C423 1.259 . S
Co419 O420 2.061 1_455 S
Co419 O425 2.052 . S
Co419 O427 2.135 . S
O420 Co419 2.061 1_655 S
O420 C423 1.235 . S
C421 O424 1.238 . S
C421 O425 1.241 . S
C422 O415 1.247 . S
C422 O416 1.261 1_455 S
C423 O418 1.259 . S
C423 O420 1.235 . S
O424 Co414 2.021 1_455 S
O424 C421 1.238 . S
O425 Co419 2.052 . S
O425 C421 1.241 . S
O426 Co414 2.137 . S
O426 C417 1.247 1_655 S
O427 Co414 2.244 1_455 S
O427 C417 1.272 . S
O427 Co419 2.135 . S
Co428 O429 2.216 . S
Co428 O430 2.091 . S
Co428 O432 2.004 . S
Co428 O438 2.021 . S
Co428 O440 2.137 . S
Co428 O441 2.244 . S
O429 Co428 2.216 . S
O429 C436 1.247 . S
O430 Co428 2.091 . S
O430 C436 1.261 . S
C431 O440 1.247 . S
C431 O441 1.272 . S
O432 Co428 2.004 . S
O432 C437 1.259 . S
Co433 O434 2.061 . S
Co433 O439 2.052 . S
Co433 O441 2.135 . S
O434 Co433 2.061 . S
O434 C437 1.235 . S
C435 O438 1.238 . S
C435 O439 1.241 . S
C436 O429 1.247 . S
C436 O430 1.261 . S
C437 O432 1.259 . S
C437 O434 1.235 . S
O438 Co428 2.021 . S
O438 C435 1.238 . S
O439 Co433 2.052 . S
O439 C435 1.241 . S
O440 Co428 2.137 . S
O440 C431 1.247 . S
O441 Co428 2.244 . S
O441 C431 1.272 . S
O441 Co433 2.135 . S
Co442 O443 2.216 . S
Co442 O444 2.091 . S
Co442 O446 2.004 . S
Co442 O452 2.021 . S
Co442 O454 2.137 . S
Co442 O455 2.244 . S
O443 Co442 2.216 . S
O443 C450 1.247 . S
O444 Co442 2.091 . S
O444 C450 1.261 . S
C445 O454 1.247 . S
C445 O455 1.272 . S
O446 Co442 2.004 . S
O446 C451 1.259 . S
Co447 O448 2.061 . S
Co447 O453 2.052 . S
Co447 O455 2.135 . S
O448 Co447 2.061 . S
O448 C451 1.235 . S
C449 O452 1.238 . S
C449 O453 1.241 . S
C450 O443 1.247 . S
C450 O444 1.261 . S
C451 O446 1.259 . S
C451 O448 1.235 . S
O452 Co442 2.021 . S
O452 C449 1.238 . S
O453 Co447 2.052 . S
O453 C449 1.241 . S
O454 Co442 2.137 . S
O454 C445 1.247 . S
O455 Co442 2.244 . S
O455 C445 1.272 . S
O455 Co447 2.135 . S
Co456 O457 2.216 1_455 S
Co456 O458 2.091 . S
Co456 O460 2.004 . S
Co456 O466 2.021 . S
Co456 O468 2.137 1_455 S
Co456 O469 2.244 1_455 S
O457 Co456 2.216 1_655 S
O457 C464 1.247 1_655 S
O458 Co456 2.091 . S
O458 C464 1.261 . S
C459 O468 1.247 . S
C459 O469 1.272 . S
O460 Co456 2.004 . S
O460 C465 1.259 . S
Co461 O462 2.061 1_655 S
Co461 O467 2.052 . S
Co461 O469 2.135 . S
O462 Co461 2.061 1_455 S
O462 C465 1.235 . S
C463 O466 1.238 . S
C463 O467 1.241 1_455 S
C464 O457 1.247 1_455 S
C464 O458 1.261 . S
C465 O460 1.259 . S
C465 O462 1.235 . S
O466 Co456 2.021 . S
O466 C463 1.238 . S
O467 Co461 2.052 . S
O467 C463 1.241 1_655 S
O468 Co456 2.137 1_655 S
O468 C459 1.247 . S
O469 Co456 2.244 1_655 S
O469 C459 1.272 . S
O469 Co461 2.135 . S
Co470 O471 2.216 . S
Co470 O472 2.091 . S
Co470 O474 2.004 . S
Co470 O480 2.021 . S
Co470 O482 2.137 . S
Co470 O483 2.244 . S
O471 Co470 2.216 . S
O471 C478 1.247 . S
O472 Co470 2.091 . S
O472 C478 1.261 . S
C473 O482 1.247 . S
C473 O483 1.272 . S
O474 Co470 2.004 . S
O474 C479 1.259 . S
Co475 O476 2.061 . S
Co475 O481 2.052 . S
Co475 O483 2.135 . S
O476 Co475 2.061 . S
O476 C479 1.235 . S
C477 O480 1.238 . S
C477 O481 1.241 . S
C478 O471 1.247 . S
C478 O472 1.261 . S
C479 O474 1.259 . S
C479 O476 1.235 . S
O480 Co470 2.021 . S
O480 C477 1.238 . S
O481 Co475 2.052 . S
O481 C477 1.241 . S
O482 Co470 2.137 . S
O482 C473 1.247 . S
O483 Co470 2.244 . S
O483 C473 1.272 . S
O483 Co475 2.135 . S
Co484 O485 2.216 . S
Co484 O486 2.091 1_545 S
Co484 O488 2.004 1_545 S
Co484 O494 2.021 1_545 S
Co484 O496 2.137 . S
Co484 O497 2.244 . S
O485 Co484 2.216 . S
O485 C492 1.247 . S
O486 Co484 2.091 1_565 S
O486 C492 1.261 1_565 S
C487 O496 1.247 . S
C487 O497 1.272 . S
O488 Co484 2.004 1_565 S
O488 C493 1.259 . S
Co489 O490 2.061 1_545 S
Co489 O495 2.052 . S
Co489 O497 2.135 . S
O490 Co489 2.061 1_565 S
O490 C493 1.235 . S
C491 O494 1.238 1_545 S
C491 O495 1.241 . S
C492 O485 1.247 . S
C492 O486 1.261 1_545 S
C493 O488 1.259 . S
C493 O490 1.235 . S
O494 Co484 2.021 1_565 S
O494 C491 1.238 1_565 S
O495 Co489 2.052 . S
O495 C491 1.241 . S
O496 Co484 2.137 . S
O496 C487 1.247 . S
O497 Co484 2.244 . S
O497 C487 1.272 . S
O497 Co489 2.135 . S
Co498 O499 2.216 . S
Co498 O500 2.091 . S
Co498 O502 2.004 . S
Co498 O508 2.021 1_565 S
Co498 O510 2.137 . S
Co498 O511 2.244 . S
O499 Co498 2.216 . S
O499 C506 1.247 . S
O500 Co498 2.091 . S
O500 C506 1.261 . S
C501 O510 1.247 . S
C501 O511 1.292 . S
O502 Co498 2.004 . S
O502 C507 1.259 1_565 S
Co503 O504 2.061 . S
Co503 O509 2.052 . S
Co503 O511 2.112 1_545 S
O504 Co503 2.061 . S
O504 C507 1.235 . S
C505 O508 1.238 . S
C505 O509 1.241 . S
C506 O499 1.247 . S
C506 O500 1.261 . S
C507 O502 1.259 1_545 S
C507 O504 1.235 . S
O508 Co498 2.021 1_545 S
O508 C505 1.238 . S
O509 Co503 2.052 . S
O509 C505 1.241 . S
O510 Co498 2.137 . S
O510 C501 1.247 . S
O511 Co498 2.244 . S
O511 C501 1.292 . S
O511 Co503 2.112 1_565 S
Co512 O513 2.216 . S
Co512 O514 2.091 . S
Co512 O516 2.005 1_455 S
Co512 O522 2.021 . S
Co512 O524 2.137 . S
Co512 O525 2.244 . S
O513 Co512 2.216 . S
O513 C520 1.247 . S
O514 Co512 2.091 . S
O514 C520 1.261 . S
C515 O524 1.247 . S
C515 O525 1.272 . S
O516 Co512 2.005 1_655 S
O516 C521 1.259 . S
Co517 O518 2.061 1_455 S
Co517 O523 2.052 . S
Co517 O525 2.135 . S
O518 Co517 2.061 1_655 S
O518 C521 1.235 . S
C519 O522 1.238 . S
C519 O523 1.241 . S
C520 O513 1.247 . S
C520 O514 1.261 . S
C521 O516 1.259 . S
C521 O518 1.235 . S
O522 Co512 2.021 . S
O522 C519 1.238 . S
O523 Co517 2.052 . S
O523 C519 1.241 . S
O524 Co512 2.137 . S
O524 C515 1.247 . S
O525 Co512 2.244 . S
O525 C515 1.272 . S
O525 Co517 2.135 . S
Co526 O527 2.216 . S
Co526 O528 2.091 . S
Co526 O530 2.004 . S
Co526 O536 2.021 . S
Co526 O538 2.137 . S
Co526 O539 2.244 . S
O527 Co526 2.216 . S
O527 C534 1.247 . S
O528 Co526 2.091 . S
O528 C534 1.261 . S
C529 O538 1.247 . S
C529 O539 1.272 . S
O530 Co526 2.004 . S
O530 C535 1.259 . S
Co531 O532 2.061 . S
Co531 O537 2.052 . S
Co531 O539 2.135 . S
O532 Co531 2.061 . S
O532 C535 1.235 . S
C533 O536 1.238 . S
C533 O537 1.241 . S
C534 O527 1.247 . S
C534 O528 1.261 . S
C535 O530 1.259 . S
C535 O532 1.235 . S
O536 Co526 2.021 . S
O536 C533 1.238 . S
O537 Co531 2.052 . S
O537 C533 1.241 . S
O538 Co526 2.137 . S
O538 C529 1.247 . S
O539 Co526 2.244 . S
O539 C529 1.272 . S
O539 Co531 2.135 . S
Co540 O541 2.216 . S
Co540 O542 2.091 . S
Co540 O544 2.004 . S
Co540 O550 2.021 . S
Co540 O552 2.137 . S
Co540 O553 2.244 . S
O541 Co540 2.216 . S
O541 C548 1.247 . S
O542 Co540 2.091 . S
O542 C548 1.261 . S
C543 O552 1.247 . S
C543 O553 1.272 . S
O544 Co540 2.004 . S
O544 C549 1.259 . S
Co545 O546 2.061 . S
Co545 O551 2.052 . S
Co545 O553 2.135 . S
O546 Co545 2.061 . S
O546 C549 1.235 . S
C547 O550 1.238 . S
C547 O551 1.241 . S
C548 O541 1.247 . S
C548 O542 1.261 . S
C549 O544 1.259 . S
C549 O546 1.235 . S
O550 Co540 2.021 . S
O550 C547 1.238 . S
O551 Co545 2.052 . S
O551 C547 1.241 . S
O552 Co540 2.137 . S
O552 C543 1.247 . S
O553 Co540 2.244 . S
O553 C543 1.272 . S
O553 Co545 2.135 . S
Co554 O555 2.216 . S
Co554 O556 2.091 . S
Co554 O558 2.004 . S
Co554 O564 2.021 . S
Co554 O566 2.137 1_565 S
Co554 O567 2.244 1_565 S
O555 Co554 2.216 . S
O555 C562 1.247 . S
O556 Co554 2.091 . S
O556 C562 1.261 . S
C557 O566 1.247 . S
C557 O567 1.272 . S
O558 Co554 2.004 . S
O558 C563 1.259 1_565 S
Co559 O560 2.061 . S
Co559 O565 2.052 1_545 S
Co559 O567 2.135 . S
O560 Co559 2.061 . S
O560 C563 1.235 . S
C561 O564 1.238 . S
C561 O565 1.241 . S
C562 O555 1.247 . S
C562 O556 1.261 . S
C563 O558 1.259 1_545 S
C563 O560 1.235 . S
O564 Co554 2.021 . S
O564 C561 1.238 . S
O565 Co559 2.052 1_565 S
O565 C561 1.241 . S
O566 Co554 2.137 1_545 S
O566 C557 1.247 . S
O567 Co554 2.244 1_545 S
O567 C557 1.272 . S
O567 Co559 2.135 . S
Co568 O569 2.216 . S
Co568 O570 2.091 . S
Co568 O572 2.004 1_455 S
Co568 O578 2.021 . S
Co568 O580 2.137 . S
Co568 O581 2.244 . S
O569 Co568 2.216 . S
O569 C576 1.247 . S
O570 Co568 2.091 . S
O570 C576 1.261 . S
C571 O580 1.247 . S
C571 O581 1.272 . S
O572 Co568 2.004 1_655 S
O572 C577 1.259 . S
Co573 O574 2.061 1_455 S
Co573 O579 2.052 . S
Co573 O581 2.135 . S
O574 Co573 2.061 1_655 S
O574 C577 1.235 . S
C575 O578 1.238 . S
C575 O579 1.241 . S
C576 O569 1.247 . S
C576 O570 1.261 . S
C577 O572 1.259 . S
C577 O574 1.235 . S
O578 Co568 2.021 . S
O578 C575 1.238 . S
O579 Co573 2.052 . S
O579 C575 1.241 . S
O580 Co568 2.137 . S
O580 C571 1.247 . S
O581 Co568 2.244 . S
O581 C571 1.272 . S
O581 Co573 2.135 . S
Co582 O583 2.216 1_556 S
Co582 O584 2.091 1_556 S
Co582 O586 2.004 . S
Co582 O592 2.021 . S
Co582 O594 2.137 . S
Co582 O595 2.244 . S
O583 Co582 2.216 1_554 S
O583 C590 1.247 . S
O584 Co582 2.091 1_554 S
O584 C590 1.261 . S
C585 O594 1.247 . S
C585 O595 1.272 . S
O586 Co582 2.004 . S
O586 C591 1.259 . S
Co587 O588 2.061 . S
Co587 O593 2.052 . S
Co587 O595 2.135 . S
O588 Co587 2.061 . S
O588 C591 1.235 . S
C589 O592 1.238 . S
C589 O593 1.241 . S
C590 O583 1.247 . S
C590 O584 1.261 . S
C591 O586 1.259 . S
C591 O588 1.235 . S
O592 Co582 2.021 . S
O592 C589 1.238 . S
O593 Co587 2.052 . S
O593 C589 1.241 . S
O594 Co582 2.137 . S
O594 C585 1.247 . S
O595 Co582 2.244 . S
O595 C585 1.272 . S
O595 Co587 2.135 . S
Co596 O597 2.216 . S
Co596 O598 2.091 . S
Co596 O600 2.004 . S
Co596 O606 2.021 . S
Co596 O608 2.137 . S
Co596 O609 2.244 1_556 S
O597 Co596 2.216 . S
O597 C604 1.247 . S
O598 Co596 2.091 . S
O598 C604 1.261 . S
C599 O608 1.247 1_554 S
C599 O609 1.272 . S
O600 Co596 2.004 . S
O600 C605 1.259 . S
Co601 O602 2.061 . S
Co601 O607 2.052 1_554 S
Co601 O609 2.135 . S
O602 Co601 2.061 . S
O602 C605 1.235 1_554 S
C603 O606 1.238 . S
C603 O607 1.241 . S
C604 O597 1.247 . S
C604 O598 1.261 . S
C605 O600 1.259 . S
C605 O602 1.235 1_556 S
O606 Co596 2.021 . S
O606 C603 1.238 . S
O607 Co601 2.052 1_556 S
O607 C603 1.241 . S
O608 Co596 2.137 . S
O608 C599 1.247 1_556 S
O609 Co596 2.244 1_554 S
O609 C599 1.272 . S
O609 Co601 2.135 . S
Co610 O611 2.216 . S
Co610 O612 2.091 . S
Co610 O614 2.004 1_655 S
Co610 O620 2.021 1_655 S
Co610 O622 2.137 . S
Co610 O623 2.244 . S
O611 Co610 2.216 . S
O611 C618 1.247 . S
O612 Co610 2.091 . S
O612 C618 1.261 . S
C613 O622 1.247 . S
C613 O623 1.272 . S
O614 Co610 2.004 1_455 S
O614 C619 1.259 . S
Co615 O616 2.061 . S
Co615 O621 2.052 . S
Co615 O623 2.135 1_455 S
O616 Co615 2.061 . S
O616 C619 1.235 . S
C617 O620 1.238 . S
C617 O621 1.241 . S
C618 O611 1.247 . S
C618 O612 1.261 . S
C619 O614 1.259 . S
C619 O616 1.235 . S
O620 Co610 2.021 1_455 S
O620 C617 1.238 . S
O621 Co615 2.052 . S
O621 C617 1.241 . S
O622 Co610 2.137 . S
O622 C613 1.247 . S
O623 Co610 2.244 . S
O623 C613 1.272 . S
O623 Co615 2.135 1_655 S
Co624 O625 2.216 . S
Co624 O626 2.091 . S
Co624 O628 2.004 . S
Co624 O634 2.021 . S
Co624 O636 2.137 . S
Co624 O637 2.244 . S
O625 Co624 2.216 . S
O625 C632 1.247 . S
O626 Co624 2.091 . S
O626 C632 1.261 . S
C627 O636 1.247 . S
C627 O637 1.272 . S
O628 Co624 2.004 . S
O628 C633 1.259 . S
Co629 O630 2.061 . S
Co629 O635 2.052 . S
Co629 O637 2.135 . S
O630 Co629 2.061 . S
O630 C633 1.235 . S
C631 O634 1.238 . S
C631 O635 1.241 . S
C632 O625 1.247 . S
C632 O626 1.261 . S
C633 O628 1.259 . S
C633 O630 1.235 . S
O634 Co624 2.021 . S
O634 C631 1.238 . S
O635 Co629 2.052 . S
O635 C631 1.241 . S
O636 Co624 2.137 . S
O636 C627 1.247 . S
O637 Co624 2.244 . S
O637 C627 1.272 . S
O637 Co629 2.135 . S
Co638 O639 2.216 . S
Co638 O640 2.091 . S
Co638 O642 2.004 1_655 S
Co638 O648 2.021 . S
Co638 O650 2.137 1_655 S
Co638 O651 2.238 . S
O639 Co638 2.216 . S
O639 C646 1.247 . S
O640 Co638 2.091 . S
O640 C646 1.261 . S
C641 O650 1.247 . S
C641 O651 1.268 1_455 S
O642 Co638 2.004 1_455 S
O642 C647 1.259 . S
Co643 O644 2.061 . S
Co643 O649 2.052 1_455 S
Co643 O651 2.128 1_455 S
O644 Co643 2.061 . S
O644 C647 1.235 . S
C645 O648 1.238 . S
C645 O649 1.241 . S
C646 O639 1.247 . S
C646 O640 1.261 . S
C647 O642 1.259 . S
C647 O644 1.235 . S
O648 Co638 2.021 . S
O648 C645 1.238 . S
O649 Co643 2.052 1_655 S
O649 C645 1.241 . S
O650 Co638 2.137 1_455 S
O650 C641 1.247 . S
O651 Co638 2.238 . S
O651 C641 1.268 1_655 S
O651 Co643 2.128 1_655 S
Co652 O653 2.216 . S
Co652 O654 2.091 . S
Co652 O656 2.004 . S
Co652 O662 2.021 . S
Co652 O664 2.137 . S
Co652 O665 2.244 . S
O653 Co652 2.216 . S
O653 C660 1.247 . S
O654 Co652 2.091 . S
O654 C660 1.261 . S
C655 O664 1.247 . S
C655 O665 1.272 . S
O656 Co652 2.004 . S
O656 C661 1.259 . S
Co657 O658 2.061 . S
Co657 O663 2.052 . S
Co657 O665 2.135 . S
O658 Co657 2.061 . S
O658 C661 1.235 . S
C659 O662 1.238 . S
C659 O663 1.241 . S
C660 O653 1.247 . S
C660 O654 1.261 . S
C661 O656 1.259 . S
C661 O658 1.235 . S
O662 Co652 2.021 . S
O662 C659 1.238 . S
O663 Co657 2.052 . S
O663 C659 1.241 . S
O664 Co652 2.137 . S
O664 C655 1.247 . S
O665 Co652 2.244 . S
O665 C655 1.272 . S
O665 Co657 2.135 . S
C7 C571 1.489 . S
C543 C39 2.072 . S
C563 C62 1.607 . S
C76 C633 2.258 . S
C108 C641 1.653 . S
N117 C661 1.695 . S
C617 C16 1.518 . S
C30 C589 2.113 . S
C605 C53 1.515 . S
C85 C507 2.255 1_565 S
C519 C99 1.936 . S
N127 C535 1.662 . S
N150 C655 0.965 . S
C627 N173 1.638 . S
C647 C200 1.339 . S
C214 C465 1.811 . S
N232 C473 1.872 . S
C260 C493 1.588 . S
C449 N140 1.189 1_545 S
N163 C421 1.232 . S
C437 C191 1.834 . S
C591 C223 2.532 . S
C603 N242 1.910 . S
C619 C269 2.048 . S
N288 C487 1.566 . S
C315 C459 1.589 . S
C338 C479 1.855 . S
C352 C549 2.279 . S
C557 N370 1.999 . S
C577 C398 1.796 . S
C533 N278 0.949 . S
C306 C505 1.876 . S
C329 C521 1.757 . S
C423 C361 1.826 . S
N380 C435 1.841 . S
C451 C407 1.866 . S
C463 N12 1.563 . S
N25 C478 1.808 . S
C491 N48 1.498 1_545 S
C492 N81 1.322 . S
C464 N94 1.671 . S
C477 C131 1.691 . S
C417 N2 1.756 . S
N35 C436 1.480 . S
N58 C445 1.656 . S
C450 N71 1.150 . S
C422 N104 1.339 . S
C431 C122 1.807 . S
C145 C547 2.611 . S
C168 C562 2.081 . S
N186 C575 1.735 . S
C576 N219 1.533 . S
C548 C246 2.023 1_554 S
C561 N265 1.412 . S
C501 C154 2.609 . S
C177 C520 2.324 . S
N196 C529 1.110 . S
N209 C534 0.951 . S
C237 C506 2.129 . S
C515 N255 1.381 . S
C283 C631 2.023 . S
N301 C646 1.610 . S
N324 C659 1.788 . S
C660 N357 0.876 . S
C632 C384 2.039 . S
N403 C645 1.347 . S
C292 C585 2.334 . S
C604 N311 1.187 . S
N334 C613 1.605 . S
N347 C618 1.406 1_554 S
C590 C375 2.248 . S
N393 C599 1.342 . S
