# Generated by pormake.
# Topology wbl, (4,4)-cn, num edge types: 1
# Building blocks:
#     Node 0, Type 0, BuildingBlock: MUDLON_clean_sbu_0, # of connection points: 4
#     Node 1, Type 0, BuildingBlock: MUDLON_clean_sbu_0, # of connection points: 4
#     Node 2, Type 0, BuildingBlock: MUDLON_clean_sbu_0, # of connection points: 4
#     Node 3, Type 0, BuildingBlock: MUDLON_clean_sbu_0, # of connection points: 4
#     Node 4, Type 0, BuildingBlock: MUDLON_clean_sbu_0, # of connection points: 4
#     Node 5, Type 0, BuildingBlock: MUDLON_clean_sbu_0, # of connection points: 4
#     Node 6, Type 0, BuildingBlock: MUDLON_clean_sbu_0, # of connection points: 4
#     Node 7, Type 0, BuildingBlock: MUDLON_clean_sbu_0, # of connection points: 4
#     Node 8, Type 1, BuildingBlock: QUQFOY_clean_sbu_1, # of connection points: 4
#     Node 9, Type 1, BuildingBlock: QUQFOY_clean_sbu_1, # of connection points: 4
#     Node 10, Type 1, BuildingBlock: QUQFOY_clean_sbu_1, # of connection points: 4
#     Node 11, Type 1, BuildingBlock: QUQFOY_clean_sbu_1, # of connection points: 4
#     Node 12, Type 1, BuildingBlock: QUQFOY_clean_sbu_1, # of connection points: 4
#     Node 13, Type 1, BuildingBlock: QUQFOY_clean_sbu_1, # of connection points: 4
#     Node 14, Type 1, BuildingBlock: QUQFOY_clean_sbu_1, # of connection points: 4
#     Node 15, Type 1, BuildingBlock: QUQFOY_clean_sbu_1, # of connection points: 4
#     Edge 16, Type (0, 1), BuildingBlock: XUDNAN_clean_linker_2, # of connection points: 2
#     Edge 17, Type (0, 1), BuildingBlock: XUDNAN_clean_linker_2, # of connection points: 2
#     Edge 18, Type (0, 1), BuildingBlock: XUDNAN_clean_linker_2, # of connection points: 2
#     Edge 19, Type (0, 1), BuildingBlock: XUDNAN_clean_linker_2, # of connection points: 2
#     Edge 20, Type (0, 1), BuildingBlock: XUDNAN_clean_linker_2, # of connection points: 2
#     Edge 21, Type (0, 1), BuildingBlock: XUDNAN_clean_linker_2, # of connection points: 2
#     Edge 22, Type (0, 1), BuildingBlock: XUDNAN_clean_linker_2, # of connection points: 2
#     Edge 23, Type (0, 1), BuildingBlock: XUDNAN_clean_linker_2, # of connection points: 2
#     Edge 24, Type (0, 1), BuildingBlock: XUDNAN_clean_linker_2, # of connection points: 2
#     Edge 25, Type (0, 1), BuildingBlock: XUDNAN_clean_linker_2, # of connection points: 2
#     Edge 26, Type (0, 1), BuildingBlock: XUDNAN_clean_linker_2, # of connection points: 2
#     Edge 27, Type (0, 1), BuildingBlock: XUDNAN_clean_linker_2, # of connection points: 2
#     Edge 28, Type (0, 1), BuildingBlock: XUDNAN_clean_linker_2, # of connection points: 2
#     Edge 29, Type (0, 1), BuildingBlock: XUDNAN_clean_linker_2, # of connection points: 2
#     Edge 30, Type (0, 1), BuildingBlock: XUDNAN_clean_linker_2, # of connection points: 2
#     Edge 31, Type (0, 1), BuildingBlock: XUDNAN_clean_linker_2, # of connection points: 2
#     Edge 32, Type (0, 1), BuildingBlock: XUDNAN_clean_linker_2, # of connection points: 2
#     Edge 33, Type (0, 1), BuildingBlock: XUDNAN_clean_linker_2, # of connection points: 2
#     Edge 34, Type (0, 1), BuildingBlock: XUDNAN_clean_linker_2, # of connection points: 2
#     Edge 35, Type (0, 1), BuildingBlock: XUDNAN_clean_linker_2, # of connection points: 2
#     Edge 36, Type (0, 1), BuildingBlock: XUDNAN_clean_linker_2, # of connection points: 2
#     Edge 37, Type (0, 1), BuildingBlock: XUDNAN_clean_linker_2, # of connection points: 2
#     Edge 38, Type (0, 1), BuildingBlock: XUDNAN_clean_linker_2, # of connection points: 2
#     Edge 39, Type (0, 1), BuildingBlock: XUDNAN_clean_linker_2, # of connection points: 2
#     Edge 40, Type (0, 1), BuildingBlock: XUDNAN_clean_linker_2, # of connection points: 2
#     Edge 41, Type (0, 1), BuildingBlock: XUDNAN_clean_linker_2, # of connection points: 2
#     Edge 42, Type (0, 1), BuildingBlock: XUDNAN_clean_linker_2, # of connection points: 2
#     Edge 43, Type (0, 1), BuildingBlock: XUDNAN_clean_linker_2, # of connection points: 2
#     Edge 44, Type (0, 1), BuildingBlock: XUDNAN_clean_linker_2, # of connection points: 2
#     Edge 45, Type (0, 1), BuildingBlock: XUDNAN_clean_linker_2, # of connection points: 2
#     Edge 46, Type (0, 1), BuildingBlock: XUDNAN_clean_linker_2, # of connection points: 2
#     Edge 47, Type (0, 1), BuildingBlock: XUDNAN_clean_linker_2, # of connection points: 2
# Relax obj value: 0.235
# Max RMSD: 0.253
# Mean RMSD: 0.183
data_MOF--net-wbl--node1-MUDLON_clean_sbu_0--node2-QUQFOY_clean_sbu_1--edge1-XUDNAN_clean_linker_2
_symmetry_space_group_name_H-M    P1
_symmetry_Int_Tables_number       1
_symmetry_cell_setting            triclinic
loop_
_symmetry_equiv_pos_as_xyz
'x, y, z'
_cell_length_a     34.956947
_cell_length_b     34.909131
_cell_length_c     76.647026
_cell_angle_alpha  93.140358
_cell_angle_beta   93.162688
_cell_angle_gamma 90.849805
loop_
_atom_site_label
_atom_site_type_symbol
_atom_site_fract_x
_atom_site_fract_y
_atom_site_fract_z
_atom_type_partial_charge
Mg0 Mg 0.18772 0.19597 0.3791 0.0
C1 C 0.18625 0.11815 0.39518 0.0
O2 O 0.20142 0.10686 0.38051 0.0
C3 C 0.13625 0.22975 0.35051 0.0
O4 O 0.16548 0.25364 0.34987 0.0
C5 C 0.24459 0.16245 0.35253 0.0
O6 O 0.21609 0.16355 0.34067 0.0
O7 O 0.24037 0.17629 0.36799 0.0
O8 O 0.17521 0.15254 0.3972 0.0
O9 O 0.19669 0.24468 0.39777 0.0
C10 C 0.17258 0.27121 0.39995 0.0
O11 O 0.14431 0.27455 0.38816 0.0
O12 O 0.13857 0.20272 0.36097 0.0
Mg13 Mg 0.04025 0.70321 0.62753 0.0
C14 C 0.12232 0.69674 0.64335 0.0
O15 O 0.13237 0.71019 0.62857 0.0
C16 C 0.04319 0.6258 0.60742 0.0
O17 O 0.07961 0.6289 0.61261 0.0
C18 C 0.07929 0.73852 0.59907 0.0
O19 O 0.07949 0.70169 0.59457 0.0
O20 O 0.06129 0.7495 0.61237 0.0
O21 O 0.08729 0.68889 0.64531 0.0
O22 O 0.99854 0.71721 0.6467 0.0
C23 C 0.96788 0.6973 0.6471 0.0
O24 O 0.95674 0.67508 0.63332 0.0
O25 O 0.02074 0.65277 0.61148 0.0
Mg26 Mg 0.55734 0.51582 0.86935 0.0
C27 C 0.5479 0.57327 0.89712 0.0
O28 O 0.51312 0.56239 0.89137 0.0
C29 C 0.62197 0.52329 0.84438 0.0
O30 O 0.61954 0.55997 0.84892 0.0
C31 C 0.50695 0.57019 0.85088 0.0
O32 O 0.53957 0.58957 0.85252 0.0
O33 O 0.50583 0.53629 0.85613 0.0
O34 O 0.57616 0.5598 0.88917 0.0
O35 O 0.54563 0.4704 0.8865 0.0
C36 C 0.56951 0.44381 0.88874 0.0
O37 O 0.59647 0.4388 0.8776 0.0
O38 O 0.60005 0.49934 0.85101 0.0
Mg39 Mg 0.66513 0.08472 0.12018 0.0
C40 C 0.72157 0.04666 0.14474 0.0
O41 O 0.69584 0.01876 0.14291 0.0
C42 C 0.62623 0.00808 0.11027 0.0
O43 O 0.62227 0.00875 0.12722 0.0
C44 C 0.70096 0.15624 0.10666 0.0
O45 O 0.72608 0.15078 0.11964 0.0
O46 O 0.67208 0.1336 0.10416 0.0
O47 O 0.71868 0.07435 0.13466 0.0
O48 O 0.6254 0.09484 0.14075 0.0
C49 C 0.63926 0.10814 0.15558 0.0
O50 O 0.67505 0.12036 0.15707 0.0
O51 O 0.64366 0.03568 0.10377 0.0
Mg52 Mg 0.04719 0.69534 0.94709 0.0
C53 C 0.03247 0.73577 0.91401 0.0
O54 O 0.01431 0.70298 0.90998 0.0
C55 C 0.99523 0.66253 0.97229 0.0
O56 O 0.02868 0.65062 0.97827 0.0
C57 C 0.11785 0.68422 0.97234 0.0
O58 O 0.11341 0.64758 0.96769 0.0
O59 O 0.09453 0.70818 0.96607 0.0
O60 O 0.04574 0.74259 0.92968 0.0
O61 O 0.057 0.64661 0.92924 0.0
C62 C 0.04235 0.61328 0.93015 0.0
O63 O 0.02444 0.605 0.94411 0.0
O64 O 0.99401 0.68421 0.95947 0.0
Mg65 Mg 0.54457 0.54909 0.20781 0.0
C66 C 0.46901 0.56236 0.18744 0.0
O67 O 0.46651 0.59113 0.19905 0.0
C68 C 0.59866 0.4989 0.22636 0.0
O69 O 0.62126 0.52361 0.21944 0.0
C70 C 0.51228 0.60681 0.23364 0.0
O71 O 0.49087 0.57682 0.23655 0.0
O72 O 0.53815 0.60313 0.22268 0.0
O73 O 0.49482 0.53757 0.18983 0.0
O74 O 0.58797 0.55536 0.18898 0.0
C75 C 0.58616 0.52955 0.17658 0.0
O76 O 0.56058 0.50167 0.17686 0.0
O77 O 0.56256 0.50241 0.22407 0.0
Mg78 Mg 0.66239 0.07268 0.46003 0.0
C79 C 0.67996 0.13715 0.43821 0.0
O80 O 0.71132 0.13526 0.44832 0.0
C81 C 0.59414 0.07983 0.48466 0.0
O82 O 0.59245 0.11603 0.48086 0.0
C83 C 0.72303 0.11046 0.48502 0.0
O84 O 0.69389 0.13168 0.4893 0.0
O85 O 0.71751 0.08264 0.47374 0.0
O86 O 0.65068 0.1177 0.44184 0.0
O87 O 0.66667 0.02333 0.44207 0.0
C88 C 0.68775 0.0258 0.42917 0.0
O89 O 0.70992 0.05628 0.42839 0.0
O90 O 0.61908 0.05841 0.4779 0.0
Mg91 Mg 0.19232 0.16631 0.71157 0.0
C92 C 0.22912 0.19724 0.68191 0.0
O93 O 0.19425 0.21076 0.68059 0.0
C94 C 0.16312 0.24888 0.72159 0.0
O95 O 0.19009 0.26293 0.71239 0.0
C96 C 0.23677 0.10576 0.73138 0.0
O97 O 0.26192 0.11072 0.71955 0.0
O98 O 0.20618 0.12496 0.73094 0.0
O99 O 0.23962 0.18119 0.69586 0.0
O100 O 0.15312 0.14119 0.69097 0.0
C101 C 0.12049 0.15595 0.68819 0.0
O102 O 0.10769 0.1802 0.70011 0.0
O103 O 0.16124 0.21304 0.72366 0.0
O104 O 0.46814 0.70109 0.01189 0.0
Cd105 Cd 0.43988 0.72958 0.03132 0.0
Cd106 Cd 0.49071 0.69328 0.0519 0.0
O107 O 0.5093 0.66993 0.02847 0.0
O108 O 0.39567 0.75319 0.01872 0.0
O109 O 0.38861 0.70829 0.03761 0.0
C110 C 0.37334 0.73124 0.02669 0.0
C111 C 0.46641 0.65579 0.07301 0.0
C112 C 0.49582 0.67812 0.0134 0.0
C113 C 0.4963 0.77829 0.05458 0.0
O114 O 0.51077 0.74762 0.05997 0.0
O115 O 0.46765 0.77695 0.04361 0.0
O116 O 0.50272 0.65769 0.07078 0.0
O117 O 0.44361 0.67441 0.06281 0.0
O118 O 0.5296 0.93768 0.31947 0.0
Cd119 Cd 0.48553 0.94226 0.30085 0.0
Cd120 Cd 0.54632 0.94958 0.28102 0.0
O121 O 0.57768 0.95732 0.30464 0.0
O122 O 0.44195 0.94891 0.31632 0.0
O123 O 0.45845 0.99285 0.2983 0.0
C124 C 0.4372 0.98253 0.31054 0.0
C125 C 0.55402 0.99343 0.25957 0.0
C126 C 0.56466 0.94706 0.31883 0.0
C127 C 0.49771 0.87694 0.27563 0.0
O128 O 0.52921 0.89385 0.27295 0.0
O129 O 0.4736 0.89329 0.28526 0.0
O130 O 0.57995 0.96871 0.26313 0.0
O131 O 0.52347 0.99352 0.26834 0.0
O132 O 0.26826 0.99081 0.51277 0.0
Cd133 Cd 0.29684 0.98287 0.53635 0.0
Cd134 Cd 0.24304 0.02724 0.54845 0.0
O135 O 0.23347 0.03892 0.52226 0.0
O136 O 0.34737 0.96168 0.53026 0.0
O137 O 0.341 0.01932 0.54317 0.0
C138 C 0.3628 0.99383 0.53628 0.0
C139 C 0.26142 0.07397 0.57033 0.0
C140 C 0.24492 0.01744 0.5097 0.0
C141 C 0.23931 0.9454 0.55746 0.0
O142 O 0.22056 0.97626 0.55658 0.0
O143 O 0.27266 0.94346 0.55166 0.0
O144 O 0.22639 0.07094 0.56402 0.0
O145 O 0.28631 0.05126 0.56371 0.0
O146 O 0.27212 0.77803 0.76383 0.0
Cd147 Cd 0.28782 0.80369 0.78793 0.0
Cd148 Cd 0.22581 0.76766 0.79739 0.0
O149 O 0.2144 0.76004 0.77064 0.0
O150 O 0.31431 0.85294 0.78363 0.0
O151 O 0.25801 0.84922 0.79551 0.0
C152 C 0.28455 0.86997 0.78939 0.0
C153 C 0.17778 0.78602 0.8161 0.0
C154 C 0.2393 0.76354 0.75931 0.0
C155 C 0.30322 0.74044 0.81081 0.0
O156 O 0.26748 0.73345 0.80824 0.0
O157 O 0.31803 0.77046 0.80508 0.0
O158 O 0.17763 0.75245 0.8082 0.0
O159 O 0.20461 0.80997 0.81289 0.0
O160 O 0.01968 0.26722 0.57415 0.0
Cd161 Cd 0.99667 0.29797 0.55402 0.0
Cd162 Cd 0.04646 0.25921 0.5356 0.0
O163 O 0.06553 0.23999 0.55944 0.0
O164 O 0.96904 0.34172 0.56495 0.0
O165 O 0.02056 0.34911 0.54979 0.0
C166 C 0.99412 0.36422 0.55893 0.0
C167 C 0.08698 0.28433 0.51575 0.0
C168 C 0.04838 0.24533 0.57355 0.0
C169 C 0.96384 0.24122 0.52657 0.0
O170 O 0.99821 0.23156 0.52445 0.0
O171 O 0.95672 0.2693 0.53708 0.0
O172 O 0.08713 0.24845 0.51897 0.0
O173 O 0.06501 0.30664 0.52455 0.0
O174 O 0.94927 0.48331 0.80696 0.0
Cd175 Cd 0.92091 0.47348 0.78287 0.0
Cd176 Cd 0.97291 0.52338 0.77369 0.0
O177 O 0.98229 0.53431 0.80043 0.0
O178 O 0.8741 0.44431 0.78826 0.0
O179 O 0.87227 0.50269 0.77844 0.0
C180 C 0.85439 0.47367 0.78414 0.0
C181 C 0.95459 0.57019 0.7545 0.0
C182 C 0.97164 0.51141 0.81165 0.0
C183 C 0.98037 0.44266 0.75983 0.0
O184 O 0.99762 0.47485 0.76282 0.0
O185 O 0.94701 0.43757 0.76519 0.0
O186 O 0.98954 0.56823 0.76075 0.0
O187 O 0.9296 0.54635 0.75978 0.0
O188 O 0.75317 0.48894 0.06689 0.0
Cd189 Cd 0.77458 0.45574 0.04698 0.0
Cd190 Cd 0.71277 0.48003 0.02861 0.0
O191 O 0.6951 0.48879 0.05399 0.0
O192 O 0.79609 0.4077 0.05658 0.0
O193 O 0.74285 0.40955 0.03957 0.0
C194 C 0.76615 0.39013 0.04913 0.0
C195 C 0.67196 0.45156 0.00609 0.0
C196 C 0.71763 0.4954 0.06748 0.0
C197 C 0.79161 0.51039 0.02078 0.0
O198 O 0.75553 0.51521 0.02012 0.0
O199 O 0.80628 0.48389 0.0296 0.0
O200 O 0.66702 0.48631 0.01205 0.0
O201 O 0.69915 0.43248 0.0134 0.0
O202 O 0.79741 0.20121 0.257 0.0
Cd203 Cd 0.80249 0.24568 0.27591 0.0
Cd204 Cd 0.799 0.18708 0.29703 0.0
O205 O 0.78864 0.15357 0.27419 0.0
O206 O 0.78821 0.29276 0.26366 0.0
O207 O 0.75405 0.26945 0.28423 0.0
C208 C 0.75834 0.29483 0.2728 0.0
C209 C 0.76057 0.18049 0.32061 0.0
C210 C 0.79094 0.16579 0.25895 0.0
C211 C 0.87263 0.23398 0.29874 0.0
O212 O 0.85493 0.20453 0.30343 0.0
O213 O 0.85611 0.25625 0.28824 0.0
O214 O 0.78619 0.15567 0.31681 0.0
O215 O 0.75562 0.20877 0.31059 0.0
H216 H 0.27283 0.13924 0.32066 0.0
H217 H 0.29265 0.13136 0.3768 0.0
H218 H 0.3446 0.08612 0.37179 0.0
H219 H 0.2893 0.04233 0.30826 0.0
H220 H 0.31466 0.0516 0.28903 0.0
H221 H 0.27986 0.08513 0.29672 0.0
H222 H 0.33092 0.13992 0.29845 0.0
H223 H 0.36583 0.10661 0.29061 0.0
H224 H 0.37553 0.13437 0.31094 0.0
H225 H 0.38856 0.0366 0.36112 0.0
H226 H 0.42947 0.99135 0.34523 0.0
H227 H 0.38721 0.03424 0.29585 0.0
C228 C 0.28854 0.1284 0.33187 0.0
C229 C 0.2786 0.1389 0.34913 0.0
C230 C 0.29982 0.12407 0.36346 0.0
C231 C 0.32932 0.09816 0.36077 0.0
C232 C 0.33791 0.08783 0.34366 0.0
C233 C 0.31885 0.103 0.32942 0.0
C234 C 0.33427 0.08689 0.31242 0.0
C235 C 0.30263 0.0652 0.30093 0.0
C236 C 0.35274 0.11886 0.30252 0.0
C237 C 0.36419 0.05962 0.31937 0.0
C238 C 0.36536 0.0605 0.33745 0.0
C239 C 0.38849 0.03612 0.34699 0.0
C240 C 0.4114 0.01037 0.33785 0.0
C241 C 0.41162 0.00961 0.31938 0.0
C242 C 0.3879 0.03473 0.31 0.0
H243 H 0.08032 0.81803 0.60071 0.0
H244 H 0.13843 0.71853 0.57914 0.0
H245 H 0.18632 0.76082 0.56738 0.0
H246 H 0.09497 0.87713 0.56375 0.0
H247 H 0.10194 0.92097 0.57718 0.0
H248 H 0.07204 0.88293 0.58421 0.0
H249 H 0.11321 0.88263 0.61336 0.0
H250 H 0.14347 0.9204 0.60633 0.0
H251 H 0.1642 0.87605 0.61284 0.0
H252 H 0.2298 0.81254 0.5593 0.0
H253 H 0.26234 0.87186 0.5518 0.0
H254 H 0.17493 0.93936 0.57665 0.0
C255 C 0.10299 0.80525 0.59341 0.0
C256 C 0.10561 0.76492 0.59089 0.0
C257 C 0.13562 0.74928 0.5812 0.0
C258 C 0.16318 0.77305 0.57454 0.0
C259 C 0.16016 0.81253 0.57745 0.0
C260 C 0.13055 0.8287 0.58635 0.0
C261 C 0.13361 0.87221 0.58702 0.0
C262 C 0.09856 0.88931 0.57747 0.0
C263 C 0.13894 0.88879 0.60602 0.0
C264 C 0.16965 0.87775 0.57719 0.0
C265 C 0.18467 0.84282 0.57204 0.0
C266 C 0.21822 0.84012 0.56313 0.0
C267 C 0.23661 0.87405 0.55902 0.0
C268 C 0.22118 0.91032 0.56358 0.0
C269 C 0.18735 0.91209 0.57293 0.0
H270 H 0.50023 0.64183 0.83828 0.0
H271 H 0.43324 0.54214 0.85066 0.0
H272 H 0.37372 0.57614 0.84299 0.0
H273 H 0.43725 0.71302 0.85522 0.0
H274 H 0.44441 0.74545 0.83813 0.0
H275 H 0.48187 0.71331 0.8445 0.0
H276 H 0.48362 0.68578 0.81246 0.0
H277 H 0.44649 0.71812 0.80596 0.0
H278 H 0.44005 0.66723 0.80118 0.0
H279 H 0.32166 0.62131 0.83448 0.0
H280 H 0.28054 0.67252 0.82355 0.0
H281 H 0.38166 0.74261 0.81648 0.0
C282 C 0.47307 0.62703 0.8393 0.0
C283 C 0.47138 0.58931 0.84508 0.0
C284 C 0.43525 0.57097 0.84621 0.0
C285 C 0.40128 0.59012 0.84197 0.0
C286 C 0.40399 0.62749 0.83658 0.0
C287 C 0.43894 0.64564 0.83508 0.0
C288 C 0.43396 0.68566 0.8287 0.0
C289 C 0.45034 0.71615 0.84246 0.0
C290 C 0.4521 0.68939 0.81102 0.0
C291 C 0.3907 0.68714 0.82678 0.0
C292 C 0.37398 0.65342 0.83152 0.0
C293 C 0.33441 0.64783 0.83071 0.0
C294 C 0.31131 0.67719 0.82452 0.0
C295 C 0.32783 0.71166 0.81913 0.0
C296 C 0.36809 0.71675 0.82055 0.0
H297 H 0.60959 0.93467 0.11865 0.0
H298 H 0.60173 0.01147 0.076 0.0
H299 H 0.56735 0.96087 0.05722 0.0
H300 H 0.62664 0.84865 0.09118 0.0
H301 H 0.59945 0.81782 0.10419 0.0
H302 H 0.62342 0.86011 0.11427 0.0
H303 H 0.55909 0.88355 0.12588 0.0
H304 H 0.53487 0.84148 0.11575 0.0
H305 H 0.51843 0.88852 0.1107 0.0
H306 H 0.52982 0.9041 0.04395 0.0
H307 H 0.49812 0.84164 0.03558 0.0
H308 H 0.53474 0.79955 0.08594 0.0
C309 C 0.60075 0.94071 0.10533 0.0
C310 C 0.60807 0.97696 0.09876 0.0
C311 C 0.59648 0.9838 0.08124 0.0
C312 C 0.57681 0.95534 0.07052 0.0
C313 C 0.56964 0.92004 0.07745 0.0
C314 C 0.58182 0.91233 0.09433 0.0
C315 C 0.57126 0.87163 0.09838 0.0
C316 C 0.60735 0.84817 0.10223 0.0
C317 C 0.54431 0.8713 0.11358 0.0
C318 C 0.5507 0.85787 0.08122 0.0
C319 C 0.54973 0.88645 0.06942 0.0
C320 C 0.53079 0.88132 0.05298 0.0
C321 C 0.5127 0.84587 0.04839 0.0
C322 C 0.51423 0.81582 0.06009 0.0
C323 C 0.53355 0.82193 0.0767 0.0
H324 H 0.17404 0.64187 0.98857 0.0
H325 H 0.13807 0.75881 0.98138 0.0
H326 H 0.19673 0.78326 0.99769 0.0
H327 H 0.22083 0.66149 0.03328 0.0
H328 H 0.25891 0.62855 0.0291 0.0
H329 H 0.21195 0.61985 0.01856 0.0
H330 H 0.24154 0.6169 0.98827 0.0
H331 H 0.28846 0.62561 0.99869 0.0
H332 H 0.27048 0.65672 0.98223 0.0
H333 H 0.26245 0.79526 0.01072 0.0
H334 H 0.33045 0.79386 0.02125 0.0
H335 H 0.32347 0.6699 0.02198 0.0
C336 C 0.17815 0.6726 0.99073 0.0
C337 C 0.15139 0.69838 0.98366 0.0
C338 C 0.15803 0.73842 0.98667 0.0
C339 C 0.19127 0.75265 0.99597 0.0
C340 C 0.21741 0.72655 0.00245 0.0
C341 C 0.21111 0.68737 0.00018 0.0
C342 C 0.24499 0.66567 0.00763 0.0
C343 C 0.23347 0.64252 0.02306 0.0
C344 C 0.26239 0.63971 0.99335 0.0
C345 C 0.27186 0.69879 0.01377 0.0
C346 C 0.25519 0.73365 0.01073 0.0
C347 C 0.27552 0.76825 0.0136 0.0
C348 C 0.31408 0.7672 0.01952 0.0
C349 C 0.33171 0.73188 0.02272 0.0
C350 C 0.31016 0.69732 0.02014 0.0
H351 H 0.55383 0.67388 0.23219 0.0
H352 H 0.45086 0.6267 0.25264 0.0
H353 H 0.43426 0.69133 0.26423 0.0
H354 H 0.57634 0.74171 0.26849 0.0
H355 H 0.59389 0.77807 0.25499 0.0
H356 H 0.5972 0.72815 0.24811 0.0
H357 H 0.56019 0.74102 0.21884 0.0
H358 H 0.55642 0.79094 0.22571 0.0
H359 H 0.51381 0.76287 0.2192 0.0
H360 H 0.42843 0.76114 0.27328 0.0
H361 H 0.43642 0.83026 0.28132 0.0
H362 H 0.54378 0.83181 0.25537 0.0
C363 C 0.52782 0.67709 0.23913 0.0
C364 C 0.5036 0.6452 0.24147 0.0
C365 C 0.46992 0.65064 0.25072 0.0
C366 C 0.46013 0.68729 0.25727 0.0
C367 C 0.48439 0.71815 0.25455 0.0
C368 C 0.51773 0.7134 0.24586 0.0
C369 C 0.53935 0.75116 0.24511 0.0
C370 C 0.57904 0.74967 0.25476 0.0
C371 C 0.54262 0.76213 0.22608 0.0
C372 C 0.513 0.77788 0.25479 0.0
C373 C 0.48131 0.75832 0.25999 0.0
C374 C 0.45313 0.77677 0.26929 0.0
C375 C 0.45789 0.81612 0.27374 0.0
C376 C 0.49072 0.8366 0.26899 0.0
C377 C 0.51827 0.81713 0.25915 0.0
H378 H 0.53035 0.11328 0.49825 0.0
H379 H 0.59437 0.00757 0.49653 0.0
H380 H 0.5456 0.97675 0.51326 0.0
H381 H 0.49406 0.10325 0.54281 0.0
H382 H 0.44813 0.12267 0.53658 0.0
H383 H 0.49051 0.13834 0.52642 0.0
H384 H 0.45841 0.11922 0.49583 0.0
H385 H 0.41604 0.1036 0.50589 0.0
H386 H 0.4401 0.07092 0.49131 0.0
H387 H 0.48653 0.9545 0.52628 0.0
H388 H 0.42085 0.94285 0.53536 0.0
H389 H 0.39547 0.063 0.53011 0.0
C390 C 0.53452 0.08392 0.50173 0.0
C391 C 0.56625 0.06291 0.49606 0.0
C392 C 0.57034 0.02434 0.50068 0.0
C393 C 0.54287 0.00657 0.51027 0.0
C394 C 0.51157 0.02777 0.51535 0.0
C395 C 0.50731 0.06568 0.51138 0.0
C396 C 0.46944 0.08095 0.51726 0.0
C397 C 0.47594 0.11321 0.53162 0.0
C398 C 0.44454 0.09445 0.50164 0.0
C399 C 0.45253 0.04525 0.5245 0.0
C400 C 0.47753 0.01502 0.52341 0.0
C401 C 0.46701 0.97812 0.52761 0.0
C402 C 0.42969 0.97174 0.53272 0.0
C403 C 0.4035 0.00216 0.53373 0.0
C404 C 0.41539 0.03953 0.52997 0.0
H405 H 0.29416 0.05308 0.73363 0.0
H406 H 0.19252 0.09229 0.75886 0.0
H407 H 0.19952 0.04086 0.77954 0.0
H408 H 0.27395 0.95605 0.73469 0.0
H409 H 0.32278 0.94167 0.73884 0.0
H410 H 0.313 0.98475 0.72771 0.0
H411 H 0.35643 0.02384 0.75098 0.0
H412 H 0.36624 0.98076 0.76225 0.0
H413 H 0.34713 0.02189 0.77382 0.0
H414 H 0.21265 0.98083 0.79502 0.0
H415 H 0.23019 0.91594 0.80357 0.0
H416 H 0.3239 0.91627 0.76874 0.0
C417 C 0.27385 0.05139 0.74374 0.0
C418 C 0.24287 0.07682 0.74464 0.0
C419 C 0.21655 0.0732 0.75791 0.0
C420 C 0.22039 0.04419 0.76979 0.0
C421 C 0.25087 0.01917 0.76835 0.0
C422 C 0.27725 0.02256 0.75571 0.0
C423 C 0.30535 0.98997 0.75597 0.0
C424 C 0.30363 0.96675 0.73826 0.0
C425 C 0.34621 0.00503 0.76106 0.0
C426 C 0.28975 0.96694 0.77026 0.0
C427 C 0.25866 0.98456 0.77743 0.0
C428 C 0.23741 0.9671 0.78976 0.0
C429 C 0.24757 0.93023 0.79454 0.0
C430 C 0.27865 0.91123 0.78697 0.0
C431 C 0.30057 0.93039 0.77506 0.0
H432 H 0.6777 0.56567 0.82982 0.0
H433 H 0.63137 0.44983 0.83122 0.0
H434 H 0.68126 0.4261 0.8121 0.0
H435 H 0.70782 0.55682 0.7839 0.0
H436 H 0.75078 0.58526 0.78917 0.0
H437 H 0.70851 0.59417 0.80112 0.0
H438 H 0.7475 0.58502 0.83031 0.0
H439 H 0.78979 0.5763 0.81847 0.0
H440 H 0.77354 0.54134 0.833 0.0
H441 H 0.74009 0.41356 0.79613 0.0
H442 H 0.80479 0.41306 0.78477 0.0
H443 H 0.81266 0.53692 0.79277 0.0
C444 C 0.67759 0.53543 0.82583 0.0
C445 C 0.65053 0.50964 0.832 0.0
C446 C 0.65173 0.47018 0.82667 0.0
C447 C 0.67985 0.45643 0.81571 0.0
C448 C 0.7064 0.48249 0.81006 0.0
C449 C 0.70548 0.52119 0.81487 0.0
C450 C 0.73928 0.54256 0.80817 0.0
C451 C 0.72578 0.57141 0.79479 0.0
C452 C 0.76398 0.56245 0.8234 0.0
C453 C 0.76013 0.50958 0.79946 0.0
C454 C 0.74035 0.47526 0.8005 0.0
C455 C 0.75548 0.44031 0.79489 0.0
C456 C 0.79224 0.44029 0.78847 0.0
C457 C 0.81337 0.47498 0.78767 0.0
C458 C 0.79663 0.51013 0.79277 0.0
H459 H 0.7571 0.2125 0.1096 0.0
H460 H 0.6582 0.17104 0.0768 0.0
H461 H 0.66819 0.22309 0.05691 0.0
H462 H 0.73934 0.31148 0.10616 0.0
H463 H 0.78916 0.32534 0.10583 0.0
H464 H 0.77565 0.28333 0.11679 0.0
H465 H 0.82077 0.24242 0.09788 0.0
H466 H 0.83416 0.28433 0.08674 0.0
H467 H 0.81506 0.2423 0.07435 0.0
H468 H 0.68686 0.28134 0.04141 0.0
H469 H 0.71069 0.34362 0.0323 0.0
H470 H 0.79769 0.34718 0.07504 0.0
C471 C 0.73769 0.21415 0.09816 0.0
C472 C 0.7069 0.18757 0.09475 0.0
C473 C 0.68198 0.19102 0.07971 0.0
C474 C 0.68754 0.22038 0.06828 0.0
C475 C 0.71819 0.24605 0.07202 0.0
C476 C 0.74277 0.24332 0.08663 0.0
C477 C 0.77228 0.27576 0.08815 0.0
C478 C 0.76888 0.30043 0.10524 0.0
C479 C 0.81298 0.26027 0.08669 0.0
C480 C 0.76002 0.29756 0.07228 0.0
C481 C 0.729 0.2797 0.06306 0.0
C482 C 0.71136 0.2954 0.04843 0.0
C483 C 0.72516 0.33078 0.04333 0.0
C484 C 0.75624 0.35015 0.05287 0.0
C485 C 0.77435 0.33278 0.06729 0.0
H486 H 0.06946 0.18742 0.35022 0.0
H487 H 0.12019 0.28677 0.32806 0.0
H488 H 0.05817 0.29927 0.31251 0.0
H489 H 0.00915 0.15643 0.3121 0.0
H490 H 0.97029 0.1414 0.3248 0.0
H491 H 0.01892 0.14006 0.33377 0.0
H492 H 0.0005 0.18259 0.3607 0.0
H493 H 0.95187 0.18431 0.35175 0.0
H494 H 0.97852 0.22824 0.35744 0.0
H495 H 0.98965 0.3016 0.29987 0.0
H496 H 0.92121 0.29215 0.29041 0.0
H497 H 0.91613 0.19143 0.3211 0.0
C498 C 0.0677 0.21169 0.34201 0.0
C499 C 0.09978 0.2361 0.34036 0.0
C500 C 0.09608 0.2676 0.32951 0.0
C501 C 0.06094 0.27499 0.32065 0.0
C502 C 0.02978 0.2506 0.32275 0.0
C503 C 0.03293 0.21948 0.3331 0.0
C504 C 0.99518 0.19777 0.33331 0.0
C505 C 0.9986 0.15647 0.32553 0.0
C506 C 0.98067 0.19828 0.35191 0.0
C507 C 0.9702 0.22157 0.32149 0.0
C508 C 0.9906 0.25195 0.31553 0.0
C509 C 0.97343 0.27786 0.30444 0.0
C510 C 0.9345 0.27231 0.29917 0.0
C511 C 0.91318 0.24108 0.305 0.0
C512 C 0.93146 0.21564 0.3164 0.0
H513 H 0.08399 0.56709 0.5926 0.0
H514 H 0.96803 0.60425 0.60078 0.0
H515 H 0.94261 0.5431 0.58678 0.0
H516 H 0.0615 0.51516 0.54979 0.0
H517 H 0.09497 0.47773 0.55436 0.0
H518 H 0.10399 0.52572 0.56373 0.0
H519 H 0.10936 0.49957 0.59475 0.0
H520 H 0.10032 0.4516 0.58551 0.0
H521 H 0.07037 0.47128 0.60205 0.0
H522 H 0.93019 0.47553 0.57521 0.0
H523 H 0.93146 0.40703 0.56529 0.0
H524 H 0.05499 0.41471 0.56296 0.0
C525 C 0.05323 0.56259 0.59123 0.0
C526 C 0.02799 0.59043 0.5978 0.0
C527 C 0.98793 0.58341 0.59578 0.0
C528 C 0.9732 0.54877 0.58784 0.0
C529 C 0.99887 0.5217 0.58174 0.0
C530 C 0.03802 0.52835 0.58314 0.0
C531 C 0.0594 0.49387 0.57612 0.0
C532 C 0.08125 0.50372 0.56004 0.0
C533 C 0.08644 0.47816 0.59047 0.0
C534 C 0.02621 0.46636 0.57109 0.0
C535 C 0.99154 0.48305 0.57441 0.0
C536 C 0.95706 0.46237 0.57221 0.0
C537 C 0.95806 0.42351 0.56664 0.0
C538 C 0.99324 0.40589 0.56315 0.0
C539 C 0.02763 0.42779 0.56513 0.0
H540 H 0.74625 0.17349 0.50616 0.0
H541 H 0.78935 0.07508 0.47662 0.0
H542 H 0.85552 0.09864 0.48362 0.0
H543 H 0.8136 0.24171 0.49307 0.0
H544 H 0.81867 0.26783 0.51403 0.0
H545 H 0.77448 0.24257 0.50745 0.0
H546 H 0.77957 0.20454 0.53558 0.0
H547 H 0.8235 0.23008 0.54237 0.0
H548 H 0.8225 0.17837 0.54061 0.0
H549 H 0.91661 0.13414 0.49256 0.0
H550 H 0.96926 0.17677 0.50493 0.0
H551 H 0.88651 0.25196 0.52879 0.0
C552 C 0.76959 0.15661 0.50135 0.0
C553 C 0.7626 0.12244 0.49085 0.0
C554 C 0.79397 0.10132 0.48472 0.0
C555 C 0.83168 0.11451 0.48857 0.0
C556 C 0.83751 0.14877 0.49859 0.0
C557 C 0.80743 0.16933 0.50507 0.0
C558 C 0.8216 0.20544 0.51542 0.0
C559 C 0.80617 0.24151 0.50698 0.0
C560 C 0.81118 0.20453 0.53463 0.0
C561 C 0.86434 0.20198 0.51368 0.0
C562 C 0.87287 0.16917 0.50386 0.0
C563 C 0.91035 0.15985 0.50035 0.0
C564 C 0.94005 0.18435 0.50739 0.0
C565 C 0.93206 0.21771 0.51786 0.0
C566 C 0.8936 0.22673 0.52083 0.0
H567 H 0.16034 0.32807 0.72504 0.0
H568 H 0.09353 0.22418 0.73117 0.0
H569 H 0.03846 0.26298 0.73907 0.0
H570 H 0.12398 0.3806 0.7621 0.0
H571 H 0.12362 0.42603 0.752 0.0
H572 H 0.15752 0.39017 0.74576 0.0
H573 H 0.13288 0.39316 0.71336 0.0
H574 H 0.09859 0.42876 0.71954 0.0
H575 H 0.08263 0.38509 0.70751 0.0
H576 H 0.9905 0.31179 0.74607 0.0
H577 H 0.95443 0.36845 0.75549 0.0
H578 H 0.05221 0.44177 0.74655 0.0
C579 C 0.13409 0.31357 0.72803 0.0
C580 C 0.13127 0.27306 0.72737 0.0
C581 C 0.09653 0.25514 0.73156 0.0
C582 C 0.0649 0.27691 0.73597 0.0
C583 C 0.06845 0.31665 0.73633 0.0
C584 C 0.10223 0.33496 0.73276 0.0
C585 C 0.09876 0.37818 0.7352 0.0
C586 C 0.12768 0.39471 0.74963 0.0
C587 C 0.1035 0.39742 0.71787 0.0
C588 C 0.05791 0.38107 0.74083 0.0
C589 C 0.04087 0.34518 0.74107 0.0
C590 C 0.00348 0.34011 0.74597 0.0
C591 C 0.98318 0.37256 0.75126 0.0
C592 C 0.00045 0.40963 0.75183 0.0
C593 C 0.03813 0.41388 0.74622 0.0
H594 H 0.98853 0.60519 0.99498 0.0
H595 H 0.92123 0.68314 0.96402 0.0
H596 H 0.86176 0.6529 0.97323 0.0
H597 H 0.92885 0.52296 0.98495 0.0
H598 H 0.93505 0.50451 0.00641 0.0
H599 H 0.97229 0.53362 0.99822 0.0
H600 H 0.9704 0.58068 0.0255 0.0
H601 H 0.93338 0.55153 0.03386 0.0
H602 H 0.92557 0.60178 0.03102 0.0
H603 H 0.80978 0.61281 0.98512 0.0
H604 H 0.76891 0.56687 0.99925 0.0
H605 H 0.87047 0.51434 0.02202 0.0
C606 C 0.96133 0.61631 0.9903 0.0
C607 C 0.95954 0.6467 0.97884 0.0
C608 C 0.92331 0.65999 0.97285 0.0
C609 C 0.88939 0.64297 0.97799 0.0
C610 C 0.89222 0.61264 0.98908 0.0
C611 C 0.92726 0.59951 0.9952 0.0
C612 C 0.92249 0.56581 0.00658 0.0
C613 C 0.94075 0.52959 0.99856 0.0
C614 C 0.93893 0.57555 0.02535 0.0
C615 C 0.87924 0.56195 0.00589 0.0
C616 C 0.86233 0.58927 0.99574 0.0
C617 C 0.8227 0.59135 0.99312 0.0
C618 C 0.79974 0.56505 0.0012 0.0
C619 C 0.81642 0.5369 0.01176 0.0
C620 C 0.85677 0.53536 0.014 0.0
H621 H 0.67276 0.47574 0.22669 0.0
H622 H 0.56303 0.44951 0.2475 0.0
H623 H 0.59261 0.39609 0.26317 0.0
H624 H 0.70019 0.37917 0.21877 0.0
H625 H 0.75025 0.38885 0.22445 0.0
H626 H 0.72065 0.42593 0.21585 0.0
H627 H 0.74009 0.47068 0.24311 0.0
H628 H 0.76967 0.43366 0.25183 0.0
H629 H 0.7328 0.45457 0.26465 0.0
H630 H 0.63519 0.34478 0.27639 0.0
H631 H 0.68517 0.29814 0.28421 0.0
H632 H 0.76549 0.35795 0.25363 0.0
C633 C 0.6549 0.45905 0.23466 0.0
C634 C 0.61562 0.46699 0.23598 0.0
C635 C 0.59322 0.44399 0.24633 0.0
C636 C 0.6098 0.4137 0.25532 0.0
C637 C 0.64872 0.4067 0.2537 0.0
C638 C 0.67082 0.42866 0.24351 0.0
C639 C 0.71145 0.41443 0.24316 0.0
C640 C 0.72118 0.40131 0.22445 0.0
C641 C 0.74019 0.44517 0.25117 0.0
C642 C 0.70888 0.38084 0.2547 0.0
C643 C 0.67265 0.37696 0.26083 0.0
C644 C 0.66363 0.34763 0.27165 0.0
C645 C 0.69223 0.32135 0.27607 0.0
C646 C 0.72922 0.32438 0.26952 0.0
C647 C 0.73752 0.3548 0.25885 0.0
H648 H 0.17637 0.13964 0.42953 0.0
H649 H 0.203 0.04171 0.39523 0.0
H650 H 0.21539 0.0033 0.42102 0.0
H651 H 0.25031 0.1252 0.46179 0.0
H652 H 0.22203 0.14232 0.47947 0.0
H653 H 0.21299 0.15894 0.45787 0.0
H654 H 0.14039 0.13449 0.4592 0.0
H655 H 0.15265 0.11892 0.48082 0.0
H656 H 0.13188 0.08541 0.46408 0.0
H657 H 0.23197 0.97811 0.45046 0.0
H658 H 0.24959 0.96717 0.48136 0.0
H659 H 0.21186 0.08154 0.49651 0.0
C660 C 0.18379 0.10981 0.42738 0.0
C661 C 0.18838 0.09355 0.41033 0.0
C662 C 0.19906 0.05469 0.40815 0.0
C663 C 0.20615 0.03265 0.42272 0.0
C664 C 0.2024 0.04991 0.43936 0.0
C665 C 0.19128 0.08754 0.44176 0.0
C666 C 0.19223 0.10019 0.46102 0.0
C667 C 0.22104 0.13364 0.46529 0.0
C668 C 0.15192 0.11038 0.46663 0.0
C669 C 0.20611 0.06398 0.46909 0.0
C670 C 0.21174 0.03528 0.45637 0.0
C671 C 0.22711 1.00016 0.46054 0.0
C672 C 0.2372 0.99432 0.47813 0.0
C673 C 0.23188 0.02343 0.49138 0.0
C674 C 0.21566 0.05851 0.48674 0.0
H675 H 0.10619 0.68606 0.67725 0.0
H676 H 0.19936 0.71357 0.64461 0.0
H677 H 0.24155 0.72813 0.67114 0.0
H678 H 0.12265 0.76103 0.70769 0.0
H679 H 0.11015 0.73506 0.72631 0.0
H680 H 0.08972 0.72071 0.70488 0.0
H681 H 0.11592 0.65161 0.70812 0.0
H682 H 0.1354 0.66651 0.72973 0.0
H683 H 0.16609 0.64567 0.71376 0.0
H684 H 0.27073 0.74756 0.70095 0.0
H685 H 0.28579 0.7682 0.73187 0.0
H686 H 0.17272 0.72945 0.74488 0.0
C687 C 0.1358 0.69398 0.67561 0.0
C688 C 0.14955 0.69852 0.65883 0.0
C689 C 0.18827 0.7097 0.65732 0.0
C690 C 0.21244 0.71803 0.67232 0.0
C691 C 0.19744 0.71485 0.68867 0.0
C692 C 0.16012 0.70269 0.6904 0.0
C693 C 0.14987 0.70499 0.70936 0.0
C694 C 0.11612 0.73206 0.71222 0.0
C695 C 0.14132 0.66481 0.71562 0.0
C696 C 0.18684 0.72164 0.71798 0.0
C697 C 0.21408 0.72661 0.70586 0.0
C698 C 0.24984 0.74328 0.71059 0.0
C699 C 0.25801 0.75507 0.72819 0.0
C700 C 0.23043 0.75042 0.74083 0.0
C701 C 0.19448 0.73326 0.73559 0.0
H702 H 0.49628 0.61965 0.9121 0.0
H703 H 0.60981 0.57369 0.92094 0.0
H704 H 0.61083 0.59846 0.95191 0.0
H705 H 0.51067 0.70659 0.94214 0.0
H706 H 0.46206 0.7036 0.94872 0.0
H707 H 0.4733 0.68685 0.92698 0.0
H708 H 0.44266 0.62064 0.93217 0.0
H709 H 0.43213 0.63678 0.95403 0.0
H710 H 0.46017 0.59442 0.95051 0.0
H711 H 0.5943 0.61973 0.98305 0.0
H712 H 0.56578 0.64369 0.01039 0.0
H713 H 0.46396 0.67622 0.98015 0.0
C714 C 0.52183 0.61571 0.92042 0.0
C715 C 0.55297 0.59486 0.91419 0.0
C716 C 0.58585 0.5901 0.92544 0.0
C717 C 0.58653 0.60381 0.94307 0.0
C718 C 0.55436 0.62258 0.94903 0.0
C719 C 0.52303 0.62933 0.93788 0.0
C720 C 0.49128 0.64854 0.94748 0.0
C721 C 0.48391 0.68879 0.94094 0.0
C722 C 0.45441 0.62359 0.94595 0.0
C723 C 0.50904 0.65062 0.9659 0.0
C724 C 0.54538 0.63549 0.96664 0.0
C725 C 0.56619 0.63232 0.98255 0.0
C726 C 0.54965 0.64569 0.99801 0.0
C727 C 0.51278 0.66208 0.99738 0.0
C728 C 0.4924 0.66433 0.98108 0.0
H729 H 0.67082 0.08785 0.18675 0.0
H730 H 0.56189 0.11011 0.15973 0.0
H731 H 0.52805 0.09092 0.18558 0.0
H732 H 0.63992 0.00273 0.20334 0.0
H733 H 0.66905 0.00869 0.2235 0.0
H734 H 0.68375 0.03066 0.20424 0.0
H735 H 0.68743 0.09697 0.2214 0.0
H736 H 0.67232 0.07478 0.24061 0.0
H737 H 0.64588 0.11427 0.2321 0.0
H738 H 0.50624 0.0645 0.21357 0.0
H739 H 0.49788 0.02742 0.23977 0.0
H740 H 0.6212 0.01754 0.24694 0.0
C741 C 0.6399 0.08994 0.18651 0.0
C742 C 0.61886 0.10135 0.17148 0.0
C743 C 0.5784 0.10202 0.17129 0.0
C744 C 0.55904 0.09129 0.18591 0.0
C745 C 0.58062 0.07942 0.20044 0.0
C746 C 0.62019 0.07836 0.20075 0.0
C747 C 0.63654 0.05962 0.21681 0.0
C748 C 0.65859 0.02325 0.21166 0.0
C749 C 0.66204 0.08812 0.22842 0.0
C750 C 0.6 0.04981 0.22542 0.0
C751 C 0.56807 0.06215 0.216 0.0
C752 C 0.53105 0.05495 0.2211 0.0
C753 C 0.52656 0.03393 0.23599 0.0
C754 C 0.55887 0.01961 0.24531 0.0
C755 C 0.59598 0.0282 0.24006 0.0
H756 H 0.0245 0.71874 0.87883 0.0
H757 H 0.07221 0.80469 0.91724 0.0
H758 H 0.10571 0.83562 0.89402 0.0
H759 H 0.1061 0.70328 0.85885 0.0
H760 H 0.08532 0.69533 0.83684 0.0
H761 H 0.05729 0.68641 0.85506 0.0
H762 H 0.00525 0.73228 0.84408 0.0
H763 H 0.03297 0.74159 0.82557 0.0
H764 H 0.01839 0.78088 0.8398 0.0
H765 H 0.14359 0.84945 0.86794 0.0
H766 H 0.1828 0.84355 0.84206 0.0
H767 H 0.11154 0.7473 0.82116 0.0
C768 C 0.04077 0.7449 0.88228 0.0
C769 C 0.04551 0.75935 0.89986 0.0
C770 C 0.06785 0.79322 0.90385 0.0
C771 C 0.08694 0.81106 0.89072 0.0
C772 C 0.0832 0.79485 0.87364 0.0
C773 C 0.06034 0.76264 0.8694 0.0
C774 C 0.06547 0.74728 0.85083 0.0
C775 C 0.07945 0.70565 0.85038 0.0
C776 C 0.0283 0.75074 0.83939 0.0
C777 C 0.09624 0.77449 0.84558 0.0
C778 C 0.1055 0.80239 0.8587 0.0
C779 C 0.13595 0.82825 0.85744 0.0
C780 C 0.15811 0.82468 0.8427 0.0
C781 C 0.15014 0.79497 0.82961 0.0
C782 C 0.11807 0.77051 0.83087 0.0
H783 H 0.49911 0.53843 0.15685 0.0
H784 H 0.40294 0.59885 0.17784 0.0
H785 H 0.38418 0.61955 0.14826 0.0
H786 H 0.52759 0.60887 0.13335 0.0
H787 H 0.54328 0.58065 0.11479 0.0
H788 H 0.54267 0.56021 0.13575 0.0
H789 H 0.49833 0.50401 0.12313 0.0
H790 H 0.50016 0.52315 0.10175 0.0
H791 H 0.45464 0.51416 0.11082 0.0
H792 H 0.38257 0.64259 0.11764 0.0
H793 H 0.40038 0.66888 0.08982 0.0
H794 H 0.50096 0.59773 0.08994 0.0
C795 C 0.47296 0.55434 0.15509 0.0
C796 C 0.45194 0.56634 0.16956 0.0
C797 C 0.41898 0.58877 0.16685 0.0
C798 C 0.40813 0.60062 0.15008 0.0
C799 C 0.43071 0.58997 0.13622 0.0
C800 C 0.46241 0.56717 0.13857 0.0
C801 C 0.48576 0.56511 0.12251 0.0
C802 C 0.52724 0.57958 0.12687 0.0
C803 C 0.48468 0.52417 0.11404 0.0
C804 C 0.46364 0.59211 0.11111 0.0
C805 C 0.43119 0.60507 0.11894 0.0
C806 C 0.40756 0.63211 0.11128 0.0
C807 C 0.41787 0.64688 0.09548 0.0
C808 C 0.45204 0.63531 0.08778 0.0
C809 C 0.4746 0.60693 0.09552 0.0
H810 H 0.70019 0.04052 0.39535 0.0
H811 H 0.6554 0.95403 0.42766 0.0
H812 H 0.62878 0.91759 0.40119 0.0
H813 H 0.6224 0.04631 0.36886 0.0
H814 H 0.6454 0.05284 0.34873 0.0
H815 H 0.67011 0.06678 0.36929 0.0
H816 H 0.72682 0.02269 0.36159 0.0
H817 H 0.70229 0.00952 0.34077 0.0
H818 H 0.71745 0.97288 0.3552 0.0
H819 H 0.59523 0.8989 0.373 0.0
H820 H 0.55917 0.89711 0.34442 0.0
H821 H 0.62521 0.99513 0.32964 0.0
C822 C 0.68641 0.01297 0.39677 0.0
C823 C 0.68013 0.99981 0.41351 0.0
C824 C 0.66072 0.96439 0.41494 0.0
C825 C 0.64563 0.94346 0.39996 0.0
C826 C 0.65042 0.95825 0.38368 0.0
C827 C 0.67085 0.99193 0.38193 0.0
C828 C 0.66701 0.00446 0.36328 0.0
C829 C 0.65023 0.04496 0.36251 0.0
C830 C 0.70569 0.00225 0.35471 0.0
C831 C 0.63916 0.97402 0.35514 0.0
C832 C 0.63069 0.94721 0.36707 0.0
C833 C 0.60242 0.91898 0.36337 0.0
C834 C 0.5819 0.91838 0.34717 0.0
C835 C 0.58977 0.94575 0.33485 0.0
C836 C 0.61939 0.97332 0.3387 0.0
H837 H 0.20427 0.21085 0.64856 0.0
H838 H 0.29999 0.165 0.6787 0.0
H839 H 0.3263 0.13888 0.65134 0.0
H840 H 0.18652 0.13348 0.62288 0.0
H841 H 0.17331 0.15616 0.60291 0.0
H842 H 0.16785 0.18146 0.62361 0.0
H843 H 0.20999 0.23759 0.61473 0.0
H844 H 0.21493 0.21307 0.59367 0.0
H845 H 0.25699 0.22831 0.60707 0.0
H846 H 0.33501 0.10695 0.62169 0.0
H847 H 0.32431 0.07104 0.59311 0.0
H848 H 0.2209 0.13496 0.58279 0.0
C849 C 0.23169 0.19686 0.6494 0.0
C850 C 0.2502 0.19025 0.6658 0.0
C851 C 0.28547 0.17078 0.6663 0.0
C852 C 0.30068 0.1559 0.65079 0.0
C853 C 0.28046 0.16099 0.63489 0.0
C854 C 0.2469 0.18148 0.6341 0.0
C855 C 0.22728 0.17774 0.61595 0.0
C856 C 0.18632 0.1612 0.61639 0.0
C857 C 0.22733 0.21649 0.60735 0.0
C858 C 0.25341 0.14972 0.60698 0.0
C859 C 0.2847 0.14145 0.61788 0.0
C860 C 0.31106 0.11384 0.61293 0.0
C861 C 0.30471 0.09353 0.59667 0.0
C862 C 0.27175 0.10025 0.58575 0.0
C863 C 0.24648 0.12944 0.59082 0.0
H864 H 0.54631 0.47545 0.91958 0.0
H865 H 0.60728 0.37883 0.89742 0.0
H866 H 0.62966 0.36229 0.92716 0.0
H867 H 0.61636 0.50728 0.94707 0.0
H868 H 0.5886 0.5231 0.96518 0.0
H869 H 0.56694 0.52031 0.94338 0.0
H870 H 0.51321 0.4757 0.95251 0.0
H871 H 0.53393 0.47864 0.97463 0.0
H872 H 0.52522 0.43248 0.96327 0.0
H873 H 0.65555 0.36389 0.95813 0.0
H874 H 0.68472 0.38469 0.98719 0.0
H875 H 0.61016 0.48292 0.98892 0.0
C876 C 0.56271 0.44963 0.92103 0.0
C877 C 0.57455 0.42798 0.90621 0.0
C878 C 0.59745 0.39543 0.90861 0.0
C879 C 0.61021 0.3858 0.92547 0.0
C880 C 0.59981 0.40903 0.93978 0.0
C881 C 0.57626 0.44016 0.93773 0.0
C882 C 0.57466 0.46443 0.95469 0.0
C883 C 0.58748 0.50621 0.95244 0.0
C884 C 0.53436 0.46268 0.96169 0.0
C885 C 0.60315 0.44374 0.96624 0.0
C886 C 0.61621 0.41106 0.95761 0.0
C887 C 0.64495 0.38896 0.96512 0.0
C888 C 0.66143 0.40108 0.98164 0.0
C889 C 0.64971 0.43544 0.99032 0.0
C890 C 0.61946 0.45635 0.98268 0.0
H891 H 0.75893 0.11231 0.15754 0.0
H892 H 0.73308 0.99559 0.17045 0.0
H893 H 0.75549 0.0116 0.20115 0.0
H894 H 0.84213 0.13199 0.18991 0.0
H895 H 0.82675 0.18045 0.1943 0.0
H896 H 0.81738 0.1572 0.17288 0.0
H897 H 0.7451 0.17128 0.17494 0.0
H898 H 0.75391 0.19366 0.19649 0.0
H899 H 0.72004 0.15416 0.193 0.0
H900 H 0.76851 0.04379 0.23131 0.0
H901 H 0.77781 0.08766 0.25772 0.0
H902 H 0.79252 0.18335 0.22469 0.0
C903 C 0.75934 0.08961 0.16663 0.0
C904 C 0.74432 0.05265 0.16156 0.0
C905 C 0.74468 0.02407 0.17399 0.0
C906 C 0.75724 0.03295 0.19149 0.0
C907 C 0.76911 0.07052 0.1963 0.0
C908 C 0.77087 0.09821 0.18414 0.0
C909 C 0.78034 0.1374 0.1928 0.0
C910 C 0.81896 0.15265 0.18714 0.0
C911 C 0.74792 0.16577 0.18909 0.0
C912 C 0.78277 0.1277 0.21179 0.0
C913 C 0.77645 0.08899 0.2136 0.0
C914 C 0.77444 0.07399 0.23003 0.0
C915 C 0.77951 0.09917 0.24495 0.0
C916 C 0.78622 0.13893 0.24331 0.0
C917 C 0.78794 0.15308 0.22646 0.0
H918 H 0.19493 0.24082 0.43053 0.0
H919 H 0.13952 0.33973 0.4094 0.0
H920 H 0.12257 0.36168 0.43926 0.0
H921 H 0.12023 0.22192 0.45674 0.0
H922 H 0.15145 0.20137 0.47311 0.0
H923 H 0.16461 0.20111 0.45075 0.0
H924 H 0.22924 0.23559 0.46281 0.0
H925 H 0.21295 0.23758 0.48474 0.0
H926 H 0.22707 0.2811 0.47501 0.0
H927 H 0.10242 0.3665 0.47057 0.0
H928 H 0.07723 0.35139 0.49899 0.0
H929 H 0.14263 0.24684 0.49859 0.0
C930 C 0.18087 0.2681 0.43226 0.0
C931 C 0.16941 0.28915 0.41773 0.0
C932 C 0.14922 0.32362 0.42043 0.0
C933 C 0.13955 0.33627 0.43735 0.0
C934 C 0.1499 0.31385 0.45135 0.0
C935 C 0.16999 0.28033 0.44888 0.0
C936 C 0.1712 0.25731 0.46503 0.0
C937 C 0.1507 0.21813 0.46119 0.0
C938 C 0.21259 0.25265 0.47233 0.0
C939 C 0.14871 0.28291 0.47707 0.0
C940 C 0.13699 0.31569 0.4691 0.0
C941 C 0.11212 0.34132 0.47704 0.0
C942 C 0.09796 0.33253 0.4932 0.0
C943 C 0.10815 0.29803 0.50104 0.0
C944 C 0.13479 0.27373 0.49308 0.0
H945 H 0.00681 0.70284 0.67893 0.0
H946 H 0.89622 0.67071 0.65357 0.0
H947 H 0.87646 0.64394 0.68098 0.0
H948 H 0.01947 0.61876 0.69833 0.0
H949 H 0.0445 0.63885 0.718 0.0
H950 H 0.04577 0.66347 0.69806 0.0
H951 H 0.0193 0.72457 0.71399 0.0
H952 H 0.01823 0.69937 0.73387 0.0
H953 H 0.97536 0.72106 0.72509 0.0
H954 H 0.8728 0.61145 0.70932 0.0
H955 H 0.88614 0.57439 0.73546 0.0
H956 H 0.00063 0.62479 0.74155 0.0
C957 C 0.97777 0.69185 0.67938 0.0
C958 C 0.95269 0.6896 0.66423 0.0
C959 C 0.91559 0.6733 0.66512 0.0
C960 C 0.90415 0.65806 0.68064 0.0
C961 C 0.93025 0.65913 0.69513 0.0
C962 C 0.9663 0.67577 0.69462 0.0
C963 C 0.99116 0.66798 0.71082 0.0
C964 C 0.02733 0.64596 0.70601 0.0
C965 C 0.00162 0.70548 0.72159 0.0
C966 C 0.96401 0.64319 0.72025 0.0
C967 C 0.92872 0.6391 0.7112 0.0
C968 C 0.90007 0.61502 0.71667 0.0
C969 C 0.90793 0.59402 0.73153 0.0
C970 C 0.94438 0.59676 0.7406 0.0
C971 C 0.97234 0.62238 0.73505 0.0
H972 H 0.74283 0.1325 0.41945 0.0
H973 H 0.62443 0.16787 0.4162 0.0
H974 H 0.63153 0.18446 0.38534 0.0
H975 H 0.78301 0.20149 0.39253 0.0
H976 H 0.81454 0.16732 0.3826 0.0
H977 H 0.80013 0.16152 0.4045 0.0
H978 H 0.77439 0.09278 0.39527 0.0
H979 H 0.78875 0.09847 0.37334 0.0
H980 H 0.73976 0.08606 0.37703 0.0
H981 H 0.65424 0.19911 0.35467 0.0
H982 H 0.68749 0.20409 0.32699 0.0
H983 H 0.78761 0.15159 0.35075 0.0
C984 C 0.71849 0.14447 0.41241 0.0
C985 C 0.68334 0.14991 0.4203 0.0
C986 C 0.65179 0.16415 0.41041 0.0
C987 C 0.6556 0.17353 0.39292 0.0
C988 C 0.69084 0.16751 0.38552 0.0
C989 C 0.72147 0.15276 0.39498 0.0
C990 C 0.7555 0.14619 0.38398 0.0
C991 C 0.79034 0.1706 0.39134 0.0
C992 C 0.76517 0.10333 0.38231 0.0
C993 C 0.7397 0.16014 0.3668 0.0
C994 C 0.70257 0.17285 0.36788 0.0
C995 C 0.6831 0.18874 0.35367 0.0
C996 C 0.70214 0.19154 0.33805 0.0
C997 C 0.73979 0.17768 0.33673 0.0
C998 C 0.75852 0.16171 0.35129 0.0
H999 H 0.07031 0.20694 0.67463 0.0
H1000 H 0.13503 0.10579 0.66062 0.0
H1001 H 0.11821 0.11435 0.62935 0.0
H1002 H 0.99503 0.19659 0.63776 0.0
H1003 H 0.99465 0.24775 0.63562 0.0
H1004 H 0.00497 0.22877 0.65673 0.0
H1005 H 0.06862 0.26816 0.65976 0.0
H1006 H 0.05913 0.2865 0.63851 0.0
H1007 H 0.10302 0.26165 0.64321 0.0
H1008 H 0.1038 0.14035 0.59974 0.0
H1009 H 0.08827 0.17852 0.57416 0.0
H1010 H 0.0338 0.26311 0.60771 0.0
C1011 C 0.0798 0.18571 0.66505 0.0
C1012 C 0.10369 0.15547 0.67006 0.0
C1013 C 0.11642 0.12898 0.65707 0.0
C1014 C 0.10714 0.13372 0.63928 0.0
C1015 C 0.08542 0.16522 0.63475 0.0
C1016 C 0.07142 0.19044 0.64729 0.0
C1017 C 0.05204 0.22408 0.63908 0.0
C1018 C 0.00912 0.22429 0.6425 0.0
C1019 C 0.0719 0.26233 0.64553 0.0
C1020 C 0.05842 0.21455 0.62001 0.0
C1021 C 0.07746 0.18038 0.61773 0.0
C1022 C 0.08861 0.16697 0.60136 0.0
C1023 C 0.07992 0.18899 0.58694 0.0
C1024 C 0.05983 0.22375 0.58897 0.0
C1025 C 0.04893 0.2365 0.60574 0.0
H1026 H 0.05287 0.6322 0.89671 0.0
H1027 H 0.01976 0.53733 0.92727 0.0
H1028 H 0.00305 0.49828 0.89989 0.0
H1029 H 0.97449 0.61891 0.86546 0.0
H1030 H 0.00226 0.63595 0.84824 0.0
H1031 H 0.01388 0.65182 0.8707 0.0
H1032 H 0.08468 0.62671 0.86633 0.0
H1033 H 0.0699 0.61056 0.84419 0.0
H1034 H 0.0903 0.57727 0.85912 0.0
H1035 H 0.98335 0.4726 0.8691 0.0
H1036 H 0.96373 0.4618 0.83776 0.0
H1037 H 0.0087 0.57465 0.82782 0.0
C1038 C 0.04324 0.60281 0.89772 0.0
C1039 C 0.0381 0.58762 0.91414 0.0
C1040 C 0.02427 0.54941 0.91482 0.0
C1041 C 0.01469 0.52706 0.89934 0.0
C1042 C 0.01896 0.54347 0.88335 0.0
C1043 C 0.03298 0.58046 0.88248 0.0
C1044 C 0.03114 0.59301 0.8639 0.0
C1045 C 0.00388 0.62694 0.86194 0.0
C1046 C 0.07138 0.60246 0.85803 0.0
C1047 C 0.01438 0.55719 0.85431 0.0
C1048 C 0.00735 0.52893 0.86574 0.0
C1049 C 0.98926 0.49434 0.86002 0.0
C1050 C 0.97805 0.48858 0.8422 0.0
C1051 C 0.98491 0.5173 0.83029 0.0
C1052 C 0.0036 0.55188 0.8365 0.0
H1053 H 0.57812 0.48767 0.14548 0.0
H1054 H 0.64982 0.57549 0.17384 0.0
H1055 H 0.69083 0.57768 0.14857 0.0
H1056 H 0.65382 0.43779 0.12476 0.0
H1057 H 0.62572 0.42705 0.10461 0.0
H1058 H 0.60247 0.43248 0.12496 0.0
H1059 H 0.55946 0.48434 0.112 0.0
H1060 H 0.5827 0.47986 0.09165 0.0
H1061 H 0.58089 0.52603 0.10325 0.0
H1062 H 0.72589 0.5673 0.12069 0.0
H1063 H 0.74987 0.54802 0.09172 0.0
H1064 H 0.65223 0.47063 0.0812 0.0
C1065 C 0.60252 0.50732 0.14644 0.0
C1066 C 0.61097 0.53127 0.16166 0.0
C1067 C 0.64288 0.55687 0.16229 0.0
C1068 C 0.66629 0.5583 0.14802 0.0
C1069 C 0.65708 0.53425 0.13321 0.0
C1070 C 0.62578 0.50944 0.13229 0.0
C1071 C 0.62196 0.48661 0.11491 0.0
C1072 C 0.62627 0.44343 0.11747 0.0
C1073 C 0.58399 0.49477 0.10486 0.0
C1074 C 0.65577 0.50268 0.10608 0.0
C1075 C 0.67607 0.5297 0.11692 0.0
C1076 C 0.70989 0.54664 0.112 0.0
C1077 C 0.72328 0.53555 0.09558 0.0
C1078 C 0.7024 0.50848 0.08423 0.0
C1079 C 0.66812 0.49214 0.0895 0.0
loop_
_geom_bond_atom_site_label_1
_geom_bond_atom_site_label_2
_geom_bond_distance
_geom_bond_site_symmetry_2
_ccdc_geom_bond_type
Mg0 O7 2.141 . S
Mg0 O8 2.048 . S
Mg0 O9 2.048 . S
Mg0 O12 2.141 . S
C1 O2 1.313 . S
C1 O8 1.195 . S
O2 C1 1.313 . S
C3 O4 1.245 . S
C3 O12 1.289 . S
O4 C3 1.245 . S
C5 O6 1.245 . S
C5 O7 1.289 . S
O6 C5 1.245 . S
O7 Mg0 2.141 . S
O7 C5 1.289 . S
O8 Mg0 2.048 . S
O8 C1 1.195 . S
O9 Mg0 2.048 . S
O9 C10 1.195 . S
C10 O9 1.195 . S
C10 O11 1.313 . S
O11 C10 1.313 . S
O12 Mg0 2.141 . S
O12 C3 1.289 . S
Mg13 O20 2.141 . S
Mg13 O21 2.048 . S
Mg13 O22 2.048 . S
Mg13 O25 2.141 . S
C14 O15 1.313 . S
C14 O21 1.195 . S
O15 C14 1.313 . S
C16 O17 1.245 . S
C16 O25 1.289 . S
O17 C16 1.245 . S
C18 O19 1.245 . S
C18 O20 1.289 . S
O19 C18 1.245 . S
O20 Mg13 2.141 . S
O20 C18 1.289 . S
O21 Mg13 2.048 . S
O21 C14 1.195 . S
O22 Mg13 2.048 . S
O22 C23 1.195 . S
C23 O22 1.195 . S
C23 O24 1.313 . S
O24 C23 1.313 . S
O25 Mg13 2.141 . S
O25 C16 1.289 . S
Mg26 O33 2.141 . S
Mg26 O34 2.048 . S
Mg26 O35 2.048 . S
Mg26 O38 2.141 . S
C27 O28 1.313 . S
C27 O34 1.195 . S
O28 C27 1.313 . S
C29 O30 1.245 . S
C29 O38 1.289 . S
O30 C29 1.245 . S
C31 O32 1.245 . S
C31 O33 1.289 . S
O32 C31 1.245 . S
O33 Mg26 2.141 . S
O33 C31 1.289 . S
O34 Mg26 2.048 . S
O34 C27 1.195 . S
O35 Mg26 2.048 . S
O35 C36 1.195 . S
C36 O35 1.195 . S
C36 O37 1.313 . S
O37 C36 1.313 . S
O38 Mg26 2.141 . S
O38 C29 1.289 . S
Mg39 O46 2.141 . S
Mg39 O47 2.048 . S
Mg39 O48 2.048 1_545 S
Mg39 O51 2.141 1_545 S
C40 O41 1.313 . S
C40 O47 1.195 . S
O41 C40 1.313 . S
C42 O43 1.245 . S
C42 O51 1.289 . S
O43 C42 1.245 . S
C44 O45 1.245 . S
C44 O46 1.289 . S
O45 C44 1.245 . S
O46 Mg39 2.141 . S
O46 C44 1.289 . S
O47 Mg39 2.048 . S
O47 C40 1.195 . S
O48 Mg39 2.048 1_565 S
O48 C49 1.195 . S
C49 O48 1.195 . S
C49 O50 1.313 . S
O50 C49 1.313 . S
O51 Mg39 2.141 1_565 S
O51 C42 1.289 . S
Mg52 O59 2.141 . S
Mg52 O60 2.048 . S
Mg52 O61 2.048 1_455 S
Mg52 O64 2.141 1_455 S
C53 O54 1.313 . S
C53 O60 1.195 . S
O54 C53 1.313 . S
C55 O56 1.245 . S
C55 O64 1.289 . S
O56 C55 1.245 . S
C57 O58 1.245 . S
C57 O59 1.289 . S
O58 C57 1.245 . S
O59 Mg52 2.141 . S
O59 C57 1.289 . S
O60 Mg52 2.048 . S
O60 C53 1.195 . S
O61 Mg52 2.048 1_655 S
O61 C62 1.195 . S
C62 O61 1.195 . S
C62 O63 1.313 . S
O63 C62 1.313 . S
O64 Mg52 2.141 1_655 S
O64 C55 1.289 . S
Mg65 O72 2.141 . S
Mg65 O73 2.048 . S
Mg65 O74 2.048 . S
Mg65 O77 2.141 . S
C66 O67 1.313 . S
C66 O73 1.195 . S
O67 C66 1.313 . S
C68 O69 1.245 . S
C68 O77 1.289 . S
O69 C68 1.245 . S
C70 O71 1.245 . S
C70 O72 1.289 . S
O71 C70 1.245 . S
O72 Mg65 2.141 . S
O72 C70 1.289 . S
O73 Mg65 2.048 . S
O73 C66 1.195 . S
O74 Mg65 2.048 . S
O74 C75 1.195 . S
C75 O74 1.195 . S
C75 O76 1.313 . S
O76 C75 1.313 . S
O77 Mg65 2.141 . S
O77 C68 1.289 . S
Mg78 O85 2.141 . S
Mg78 O86 2.048 . S
Mg78 O87 2.048 1_545 S
Mg78 O90 2.141 . S
C79 O80 1.313 . S
C79 O86 1.195 . S
O80 C79 1.313 . S
C81 O82 1.245 . S
C81 O90 1.289 . S
O82 C81 1.245 . S
C83 O84 1.245 . S
C83 O85 1.289 . S
O84 C83 1.245 . S
O85 Mg78 2.141 . S
O85 C83 1.289 . S
O86 Mg78 2.048 . S
O86 C79 1.195 . S
O87 Mg78 2.048 1_565 S
O87 C88 1.195 . S
C88 O87 1.195 . S
C88 O89 1.313 1_565 S
O89 C88 1.313 1_545 S
O90 Mg78 2.141 . S
O90 C81 1.289 . S
Mg91 O98 2.141 . S
Mg91 O99 2.048 . S
Mg91 O100 2.048 . S
Mg91 O103 2.141 . S
C92 O93 1.313 . S
C92 O99 1.195 . S
O93 C92 1.313 . S
C94 O95 1.245 . S
C94 O103 1.289 . S
O95 C94 1.245 . S
C96 O97 1.245 . S
C96 O98 1.289 . S
O97 C96 1.245 . S
O98 Mg91 2.141 . S
O98 C96 1.289 . S
O99 Mg91 2.048 . S
O99 C92 1.195 . S
O100 Mg91 2.048 . S
O100 C101 1.195 . S
C101 O100 1.195 . S
C101 O102 1.313 . S
O102 C101 1.313 . S
O103 Mg91 2.141 . S
O103 C94 1.289 . S
O104 Cd105 2.223 . S
O104 C112 1.315 . S
Cd105 O104 2.223 . S
Cd105 O108 2.297 . S
Cd105 O109 2.439 . S
Cd105 O115 2.240 . S
Cd106 O107 2.240 . S
Cd106 O114 2.223 . S
Cd106 O116 2.297 . S
Cd106 O117 2.439 . S
O107 Cd106 2.240 . S
O107 C112 1.279 . S
O108 Cd105 2.297 . S
O108 C110 1.247 . S
O109 Cd105 2.439 . S
O109 C110 1.208 . S
C110 O108 1.247 . S
C110 O109 1.208 . S
C111 O116 1.247 . S
C111 O117 1.208 . S
C112 O104 1.315 . S
C112 O107 1.279 . S
C113 O114 1.315 . S
C113 O115 1.279 . S
O114 Cd106 2.223 . S
O114 C113 1.315 . S
O115 Cd105 2.240 . S
O115 C113 1.279 . S
O116 Cd106 2.297 . S
O116 C111 1.247 . S
O117 Cd106 2.439 . S
O117 C111 1.208 . S
O118 Cd119 2.223 . S
O118 C126 1.315 . S
Cd119 O118 2.223 . S
Cd119 O122 2.297 . S
Cd119 O123 2.439 . S
Cd119 O129 2.240 . S
Cd120 O121 2.240 . S
Cd120 O128 2.223 . S
Cd120 O130 2.297 . S
Cd120 O131 2.439 . S
O121 Cd120 2.240 . S
O121 C126 1.279 . S
O122 Cd119 2.297 . S
O122 C124 1.247 . S
O123 Cd119 2.439 . S
O123 C124 1.208 . S
C124 O122 1.247 . S
C124 O123 1.208 . S
C125 O130 1.247 . S
C125 O131 1.208 . S
C126 O118 1.315 . S
C126 O121 1.279 . S
C127 O128 1.315 . S
C127 O129 1.279 . S
O128 Cd120 2.223 . S
O128 C127 1.315 . S
O129 Cd119 2.240 . S
O129 C127 1.279 . S
O130 Cd120 2.297 . S
O130 C125 1.247 . S
O131 Cd120 2.439 . S
O131 C125 1.208 . S
O132 Cd133 2.223 . S
O132 C140 1.315 . S
Cd133 O132 2.223 . S
Cd133 O136 2.297 . S
Cd133 O137 2.439 1_565 S
Cd133 O143 2.240 . S
Cd134 O135 2.240 . S
Cd134 O142 2.223 1_545 S
Cd134 O144 2.297 . S
Cd134 O145 2.439 . S
O135 Cd134 2.240 . S
O135 C140 1.279 1_545 S
O136 Cd133 2.297 . S
O136 C138 1.247 . S
O137 Cd133 2.439 1_545 S
O137 C138 1.208 1_545 S
C138 O136 1.247 . S
C138 O137 1.208 1_565 S
C139 O144 1.247 . S
C139 O145 1.208 . S
C140 O132 1.315 . S
C140 O135 1.279 1_565 S
C141 O142 1.315 . S
C141 O143 1.279 . S
O142 Cd134 2.223 1_565 S
O142 C141 1.315 . S
O143 Cd133 2.240 . S
O143 C141 1.279 . S
O144 Cd134 2.297 . S
O144 C139 1.247 . S
O145 Cd134 2.439 . S
O145 C139 1.208 . S
O146 Cd147 2.223 . S
O146 C154 1.315 . S
Cd147 O146 2.223 . S
Cd147 O150 2.297 . S
Cd147 O151 2.439 . S
Cd147 O157 2.240 . S
Cd148 O149 2.240 . S
Cd148 O156 2.223 . S
Cd148 O158 2.297 . S
Cd148 O159 2.439 . S
O149 Cd148 2.240 . S
O149 C154 1.279 . S
O150 Cd147 2.297 . S
O150 C152 1.247 . S
O151 Cd147 2.439 . S
O151 C152 1.208 . S
C152 O150 1.247 . S
C152 O151 1.208 . S
C153 O158 1.247 . S
C153 O159 1.208 . S
C154 O146 1.315 . S
C154 O149 1.279 . S
C155 O156 1.315 . S
C155 O157 1.279 . S
O156 Cd148 2.223 . S
O156 C155 1.315 . S
O157 Cd147 2.240 . S
O157 C155 1.279 . S
O158 Cd148 2.297 . S
O158 C153 1.247 . S
O159 Cd148 2.439 . S
O159 C153 1.208 . S
O160 Cd161 2.223 . S
O160 C168 1.315 1_655 S
Cd161 O160 2.223 . S
Cd161 O164 2.297 . S
Cd161 O165 2.439 1_655 S
Cd161 O171 2.240 . S
Cd162 O163 2.240 . S
Cd162 O170 2.223 1_455 S
Cd162 O172 2.297 . S
Cd162 O173 2.439 . S
O163 Cd162 2.240 . S
O163 C168 1.279 . S
O164 Cd161 2.297 . S
O164 C166 1.247 1_655 S
O165 Cd161 2.439 1_455 S
O165 C166 1.208 . S
C166 O164 1.247 1_455 S
C166 O165 1.208 . S
C167 O172 1.247 . S
C167 O173 1.208 . S
C168 O160 1.315 1_455 S
C168 O163 1.279 . S
C169 O170 1.315 . S
C169 O171 1.279 . S
O170 Cd162 2.223 1_655 S
O170 C169 1.315 . S
O171 Cd161 2.240 . S
O171 C169 1.279 . S
O172 Cd162 2.297 . S
O172 C167 1.247 . S
O173 Cd162 2.439 . S
O173 C167 1.208 . S
O174 Cd175 2.223 . S
O174 C182 1.315 . S
Cd175 O174 2.223 . S
Cd175 O178 2.297 . S
Cd175 O179 2.439 . S
Cd175 O185 2.240 . S
Cd176 O177 2.240 . S
Cd176 O184 2.223 . S
Cd176 O186 2.297 . S
Cd176 O187 2.439 . S
O177 Cd176 2.240 . S
O177 C182 1.279 . S
O178 Cd175 2.297 . S
O178 C180 1.247 . S
O179 Cd175 2.439 . S
O179 C180 1.208 . S
C180 O178 1.247 . S
C180 O179 1.208 . S
C181 O186 1.247 . S
C181 O187 1.208 . S
C182 O174 1.315 . S
C182 O177 1.279 . S
C183 O184 1.315 . S
C183 O185 1.279 . S
O184 Cd176 2.223 . S
O184 C183 1.315 . S
O185 Cd175 2.240 . S
O185 C183 1.279 . S
O186 Cd176 2.297 . S
O186 C181 1.247 . S
O187 Cd176 2.439 . S
O187 C181 1.208 . S
O188 Cd189 2.223 . S
O188 C196 1.315 . S
Cd189 O188 2.223 . S
Cd189 O192 2.297 . S
Cd189 O193 2.439 . S
Cd189 O199 2.240 . S
Cd190 O191 2.240 . S
Cd190 O198 2.223 . S
Cd190 O200 2.297 1_554 S
Cd190 O201 2.439 1_554 S
O191 Cd190 2.240 . S
O191 C196 1.279 . S
O192 Cd189 2.297 . S
O192 C194 1.247 . S
O193 Cd189 2.439 . S
O193 C194 1.208 . S
C194 O192 1.247 . S
C194 O193 1.208 . S
C195 O200 1.247 . S
C195 O201 1.208 . S
C196 O188 1.315 . S
C196 O191 1.279 . S
C197 O198 1.315 . S
C197 O199 1.279 . S
O198 Cd190 2.223 . S
O198 C197 1.315 . S
O199 Cd189 2.240 . S
O199 C197 1.279 . S
O200 Cd190 2.297 1_556 S
O200 C195 1.247 . S
O201 Cd190 2.439 1_556 S
O201 C195 1.208 . S
O202 Cd203 2.223 . S
O202 C210 1.315 . S
Cd203 O202 2.223 . S
Cd203 O206 2.297 . S
Cd203 O207 2.439 . S
Cd203 O213 2.240 . S
Cd204 O205 2.240 . S
Cd204 O212 2.223 . S
Cd204 O214 2.297 . S
Cd204 O215 2.439 . S
O205 Cd204 2.240 . S
O205 C210 1.279 . S
O206 Cd203 2.297 . S
O206 C208 1.247 . S
O207 Cd203 2.439 . S
O207 C208 1.208 . S
C208 O206 1.247 . S
C208 O207 1.208 . S
C209 O214 1.247 . S
C209 O215 1.208 . S
C210 O202 1.315 . S
C210 O205 1.279 . S
C211 O212 1.315 . S
C211 O213 1.279 . S
O212 Cd204 2.223 . S
O212 C211 1.315 . S
O213 Cd203 2.240 . S
O213 C211 1.279 . S
O214 Cd204 2.297 . S
O214 C209 1.247 . S
O215 Cd204 2.439 . S
O215 C209 1.208 . S
H216 C228 0.930 . S
H217 C230 0.930 . S
H218 C231 0.930 . S
H219 C235 0.959 . S
H220 C235 0.959 . S
H221 C235 0.961 . S
H222 C236 0.960 . S
H223 C236 0.961 . S
H224 C236 0.959 . S
H225 C239 0.929 . S
H226 C240 0.931 . S
H227 C242 0.930 . S
C228 H216 0.930 . S
C228 C229 1.399 . S
C228 C233 1.399 . S
C229 C228 1.399 . S
C229 C230 1.376 . S
C230 H217 0.930 . S
C230 C229 1.376 . S
C230 C231 1.388 . S
C231 H218 0.930 . S
C231 C230 1.388 . S
C231 C232 1.390 . S
C232 C231 1.390 . S
C232 C233 1.394 . S
C232 C238 1.465 1_545 S
C233 C228 1.399 . S
C233 C232 1.394 . S
C233 C234 1.516 1_545 S
C234 C233 1.516 1_565 S
C234 C235 1.502 . S
C234 C236 1.561 1_565 S
C234 C237 1.526 . S
C235 H219 0.959 . S
C235 H220 0.959 . S
C235 H221 0.961 . S
C235 C234 1.502 . S
C236 H222 0.960 . S
C236 H223 0.961 . S
C236 H224 0.959 . S
C236 C234 1.561 1_545 S
C237 C234 1.526 . S
C237 C238 1.396 . S
C237 C242 1.390 . S
C238 C232 1.465 1_565 S
C238 C237 1.396 . S
C238 C239 1.399 . S
C239 H225 0.929 . S
C239 C238 1.399 . S
C239 C240 1.385 . S
C240 H226 0.931 . S
C240 C239 1.385 . S
C240 C241 1.389 . S
C241 C240 1.389 . S
C241 C242 1.387 . S
C242 H227 0.930 . S
C242 C237 1.390 . S
C242 C241 1.387 . S
H243 C255 0.930 . S
H244 C257 0.930 . S
H245 C258 0.930 . S
H246 C262 0.959 . S
H247 C262 0.959 . S
H248 C262 0.961 . S
H249 C263 0.960 . S
H250 C263 0.961 . S
H251 C263 0.959 . S
H252 C266 0.929 . S
H253 C267 0.931 . S
H254 C269 0.930 . S
C255 H243 0.930 . S
C255 C256 1.399 . S
C255 C260 1.399 . S
C256 C255 1.399 . S
C256 C257 1.376 . S
C257 H244 0.930 . S
C257 C256 1.376 . S
C257 C258 1.388 . S
C258 H245 0.930 . S
C258 C257 1.388 . S
C258 C259 1.390 . S
C259 C258 1.390 . S
C259 C260 1.394 . S
C259 C265 1.465 . S
C260 C255 1.399 . S
C260 C259 1.394 . S
C260 C261 1.516 . S
C261 C260 1.516 . S
C261 C262 1.502 . S
C261 C263 1.561 . S
C261 C264 1.526 . S
C262 H246 0.959 . S
C262 H247 0.959 . S
C262 H248 0.961 . S
C262 C261 1.502 . S
C263 H249 0.960 . S
C263 H250 0.961 . S
C263 H251 0.959 . S
C263 C261 1.561 . S
C264 C261 1.526 . S
C264 C265 1.396 . S
C264 C269 1.390 . S
C265 C259 1.465 . S
C265 C264 1.396 . S
C265 C266 1.399 . S
C266 H252 0.929 . S
C266 C265 1.399 . S
C266 C267 1.385 . S
C267 H253 0.931 . S
C267 C266 1.385 . S
C267 C268 1.389 . S
C268 C267 1.389 . S
C268 C269 1.387 . S
C269 H254 0.930 . S
C269 C264 1.390 . S
C269 C268 1.387 . S
H270 C282 0.930 . S
H271 C284 0.930 . S
H272 C285 0.930 . S
H273 C289 0.959 . S
H274 C289 0.959 . S
H275 C289 0.961 . S
H276 C290 0.960 . S
H277 C290 0.961 . S
H278 C290 0.959 . S
H279 C293 0.929 . S
H280 C294 0.931 . S
H281 C296 0.930 . S
C282 H270 0.930 . S
C282 C283 1.399 . S
C282 C287 1.399 . S
C283 C282 1.399 . S
C283 C284 1.376 . S
C284 H271 0.930 . S
C284 C283 1.376 . S
C284 C285 1.388 . S
C285 H272 0.930 . S
C285 C284 1.388 . S
C285 C286 1.390 . S
C286 C285 1.390 . S
C286 C287 1.394 . S
C286 C292 1.465 . S
C287 C282 1.399 . S
C287 C286 1.394 . S
C287 C288 1.516 . S
C288 C287 1.516 . S
C288 C289 1.502 . S
C288 C290 1.561 . S
C288 C291 1.526 . S
C289 H273 0.959 . S
C289 H274 0.959 . S
C289 H275 0.961 . S
C289 C288 1.502 . S
C290 H276 0.960 . S
C290 H277 0.961 . S
C290 H278 0.959 . S
C290 C288 1.561 . S
C291 C288 1.526 . S
C291 C292 1.396 . S
C291 C296 1.390 . S
C292 C286 1.465 . S
C292 C291 1.396 . S
C292 C293 1.399 . S
C293 H279 0.929 . S
C293 C292 1.399 . S
C293 C294 1.385 . S
C294 H280 0.931 . S
C294 C293 1.385 . S
C294 C295 1.389 . S
C295 C294 1.389 . S
C295 C296 1.387 . S
C296 H281 0.930 . S
C296 C291 1.390 . S
C296 C295 1.387 . S
H297 C309 0.930 . S
H298 C311 0.930 . S
H299 C312 0.930 . S
H300 C316 0.959 . S
H301 C316 0.959 . S
H302 C316 0.961 . S
H303 C317 0.960 . S
H304 C317 0.961 . S
H305 C317 0.959 . S
H306 C320 0.929 . S
H307 C321 0.931 . S
H308 C323 0.930 . S
C309 H297 0.930 . S
C309 C310 1.399 . S
C309 C314 1.399 . S
C310 C309 1.399 . S
C310 C311 1.376 . S
C311 H298 0.930 . S
C311 C310 1.376 . S
C311 C312 1.388 . S
C312 H299 0.930 . S
C312 C311 1.388 . S
C312 C313 1.390 . S
C313 C312 1.390 . S
C313 C314 1.394 . S
C313 C319 1.465 . S
C314 C309 1.399 . S
C314 C313 1.394 . S
C314 C315 1.516 . S
C315 C314 1.516 . S
C315 C316 1.502 . S
C315 C317 1.561 . S
C315 C318 1.526 . S
C316 H300 0.959 . S
C316 H301 0.959 . S
C316 H302 0.961 . S
C316 C315 1.502 . S
C317 H303 0.960 . S
C317 H304 0.961 . S
C317 H305 0.959 . S
C317 C315 1.561 . S
C318 C315 1.526 . S
C318 C319 1.396 . S
C318 C323 1.390 . S
C319 C313 1.465 . S
C319 C318 1.396 . S
C319 C320 1.399 . S
C320 H306 0.929 . S
C320 C319 1.399 . S
C320 C321 1.385 . S
C321 H307 0.931 . S
C321 C320 1.385 . S
C321 C322 1.389 . S
C322 C321 1.389 . S
C322 C323 1.387 . S
C323 H308 0.930 . S
C323 C318 1.390 . S
C323 C322 1.387 . S
H324 C336 0.930 . S
H325 C338 0.930 . S
H326 C339 0.930 . S
H327 C343 0.959 . S
H328 C343 0.959 . S
H329 C343 0.961 . S
H330 C344 0.960 . S
H331 C344 0.961 . S
H332 C344 0.959 . S
H333 C347 0.929 1_556 S
H334 C348 0.931 . S
H335 C350 0.930 . S
C336 H324 0.930 . S
C336 C337 1.399 1_554 S
C336 C341 1.399 . S
C337 C336 1.399 1_556 S
C337 C338 1.376 . S
C338 H325 0.930 . S
C338 C337 1.376 . S
C338 C339 1.388 . S
C339 H326 0.930 . S
C339 C338 1.388 . S
C339 C340 1.352 1_556 S
C340 C339 1.352 1_554 S
C340 C341 1.422 . S
C340 C346 1.483 . S
C341 C336 1.399 . S
C341 C340 1.422 . S
C341 C342 1.516 . S
C342 C341 1.516 . S
C342 C343 1.502 . S
C342 C344 1.561 . S
C342 C345 1.526 . S
C343 H327 0.959 . S
C343 H328 0.959 . S
C343 H329 0.961 . S
C343 C342 1.502 . S
C344 H330 0.960 . S
C344 H331 0.961 . S
C344 H332 0.959 . S
C344 C342 1.561 . S
C345 C342 1.526 . S
C345 C346 1.396 . S
C345 C350 1.390 . S
C346 C340 1.483 . S
C346 C345 1.396 . S
C346 C347 1.399 . S
C347 H333 0.929 1_554 S
C347 C346 1.399 . S
C347 C348 1.385 . S
C348 H334 0.931 . S
C348 C347 1.385 . S
C348 C349 1.389 . S
C349 C348 1.389 . S
C349 C350 1.387 . S
C350 H335 0.930 . S
C350 C345 1.390 . S
C350 C349 1.387 . S
H351 C363 0.930 . S
H352 C365 0.930 . S
H353 C366 0.930 . S
H354 C370 0.959 . S
H355 C370 0.959 . S
H356 C370 0.961 . S
H357 C371 0.960 . S
H358 C371 0.961 . S
H359 C371 0.959 . S
H360 C374 0.929 . S
H361 C375 0.931 . S
H362 C377 0.930 . S
C363 H351 0.930 . S
C363 C364 1.399 . S
C363 C368 1.399 . S
C364 C363 1.399 . S
C364 C365 1.376 . S
C365 H352 0.930 . S
C365 C364 1.376 . S
C365 C366 1.388 . S
C366 H353 0.930 . S
C366 C365 1.388 . S
C366 C367 1.390 . S
C367 C366 1.390 . S
C367 C368 1.394 . S
C367 C373 1.465 . S
C368 C363 1.399 . S
C368 C367 1.394 . S
C368 C369 1.516 . S
C369 C368 1.516 . S
C369 C370 1.502 . S
C369 C371 1.561 . S
C369 C372 1.526 . S
C370 H354 0.959 . S
C370 H355 0.959 . S
C370 H356 0.961 . S
C370 C369 1.502 . S
C371 H357 0.960 . S
C371 H358 0.961 . S
C371 H359 0.959 . S
C371 C369 1.561 . S
C372 C369 1.526 . S
C372 C373 1.396 . S
C372 C377 1.390 . S
C373 C367 1.465 . S
C373 C372 1.396 . S
C373 C374 1.399 . S
C374 H360 0.929 . S
C374 C373 1.399 . S
C374 C375 1.385 . S
C375 H361 0.931 . S
C375 C374 1.385 . S
C375 C376 1.389 . S
C376 C375 1.389 . S
C376 C377 1.387 . S
C377 H362 0.930 . S
C377 C372 1.390 . S
C377 C376 1.387 . S
H378 C390 0.930 . S
H379 C392 0.930 . S
H380 C393 0.930 . S
H381 C397 0.959 1_565 S
H382 C397 0.959 . S
H383 C397 0.961 . S
H384 C398 0.960 . S
H385 C398 0.961 . S
H386 C398 0.959 . S
H387 C401 0.929 . S
H388 C402 0.931 . S
H389 C404 0.930 . S
C390 H378 0.930 . S
C390 C391 1.399 . S
C390 C395 1.399 . S
C391 C390 1.399 . S
C391 C392 1.376 1_545 S
C392 H379 0.930 . S
C392 C391 1.376 1_565 S
C392 C393 1.388 . S
C393 H380 0.930 . S
C393 C392 1.388 . S
C393 C394 1.390 1_565 S
C394 C393 1.390 1_545 S
C394 C395 1.394 . S
C394 C400 1.465 . S
C395 C390 1.399 . S
C395 C394 1.394 . S
C395 C396 1.516 . S
C396 C395 1.516 . S
C396 C397 1.502 . S
C396 C398 1.561 . S
C396 C399 1.526 . S
C397 H381 0.959 1_545 S
C397 H382 0.959 . S
C397 H383 0.961 . S
C397 C396 1.502 . S
C398 H384 0.960 . S
C398 H385 0.961 . S
C398 H386 0.959 . S
C398 C396 1.561 . S
C399 C396 1.526 . S
C399 C400 1.396 . S
C399 C404 1.390 . S
C400 C394 1.465 . S
C400 C399 1.396 . S
C400 C401 1.399 1_545 S
C401 H387 0.929 . S
C401 C400 1.399 1_565 S
C401 C402 1.385 . S
C402 H388 0.931 . S
C402 C401 1.385 . S
C402 C403 1.389 1_565 S
C403 C402 1.389 1_545 S
C403 C404 1.387 . S
C404 H389 0.930 . S
C404 C399 1.390 . S
C404 C403 1.387 . S
H405 C417 0.930 . S
H406 C419 0.930 . S
H407 C420 0.930 . S
H408 C424 0.959 . S
H409 C424 0.959 . S
H410 C424 0.961 . S
H411 C425 0.960 . S
H412 C425 0.961 . S
H413 C425 0.959 . S
H414 C428 0.929 . S
H415 C429 0.931 1_565 S
H416 C431 0.930 . S
C417 H405 0.930 . S
C417 C418 1.399 . S
C417 C422 1.399 . S
C418 C417 1.399 . S
C418 C419 1.376 . S
C419 H406 0.930 . S
C419 C418 1.376 . S
C419 C420 1.388 . S
C420 H407 0.930 . S
C420 C419 1.388 . S
C420 C421 1.390 . S
C421 C420 1.390 . S
C421 C422 1.394 . S
C421 C427 1.465 . S
C422 C417 1.399 . S
C422 C421 1.394 . S
C422 C423 1.516 . S
C423 C422 1.516 . S
C423 C424 1.502 . S
C423 C425 1.561 . S
C423 C426 1.526 . S
C424 H408 0.959 . S
C424 H409 0.959 . S
C424 H410 0.961 . S
C424 C423 1.502 . S
C425 H411 0.960 . S
C425 H412 0.961 . S
C425 H413 0.959 . S
C425 C423 1.561 . S
C426 C423 1.526 . S
C426 C427 1.396 . S
C426 C431 1.390 . S
C427 C421 1.465 . S
C427 C426 1.396 . S
C427 C428 1.399 . S
C428 H414 0.929 . S
C428 C427 1.399 . S
C428 C429 1.385 . S
C429 H415 0.931 1_545 S
C429 C428 1.385 . S
C429 C430 1.389 . S
C430 C429 1.389 . S
C430 C431 1.387 . S
C431 H416 0.930 . S
C431 C426 1.390 . S
C431 C430 1.387 . S
H432 C444 0.930 . S
H433 C446 0.930 . S
H434 C447 0.930 . S
H435 C451 0.959 . S
H436 C451 0.959 . S
H437 C451 0.961 . S
H438 C452 0.960 . S
H439 C452 0.961 . S
H440 C452 0.959 . S
H441 C455 0.929 . S
H442 C456 0.931 . S
H443 C458 0.930 . S
C444 H432 0.930 . S
C444 C445 1.399 . S
C444 C449 1.399 . S
C445 C444 1.399 . S
C445 C446 1.376 . S
C446 H433 0.930 . S
C446 C445 1.376 . S
C446 C447 1.388 . S
C447 H434 0.930 . S
C447 C446 1.388 . S
C447 C448 1.390 . S
C448 C447 1.390 . S
C448 C449 1.394 . S
C448 C454 1.465 . S
C449 C444 1.399 . S
C449 C448 1.394 . S
C449 C450 1.516 . S
C450 C449 1.516 . S
C450 C451 1.502 . S
C450 C452 1.561 . S
C450 C453 1.526 . S
C451 H435 0.959 . S
C451 H436 0.959 . S
C451 H437 0.961 . S
C451 C450 1.502 . S
C452 H438 0.960 . S
C452 H439 0.961 . S
C452 H440 0.959 . S
C452 C450 1.561 . S
C453 C450 1.526 . S
C453 C454 1.396 . S
C453 C458 1.390 . S
C454 C448 1.465 . S
C454 C453 1.396 . S
C454 C455 1.399 . S
C455 H441 0.929 . S
C455 C454 1.399 . S
C455 C456 1.385 . S
C456 H442 0.931 . S
C456 C455 1.385 . S
C456 C457 1.389 . S
C457 C456 1.389 . S
C457 C458 1.387 . S
C458 H443 0.930 . S
C458 C453 1.390 . S
C458 C457 1.387 . S
H459 C471 0.930 . S
H460 C473 0.930 . S
H461 C474 0.930 . S
H462 C478 0.959 . S
H463 C478 0.959 . S
H464 C478 0.961 . S
H465 C479 0.960 . S
H466 C479 0.961 . S
H467 C479 0.959 . S
H468 C482 0.929 . S
H469 C483 0.931 . S
H470 C485 0.930 . S
C471 H459 0.930 . S
C471 C472 1.399 . S
C471 C476 1.399 . S
C472 C471 1.399 . S
C472 C473 1.376 . S
C473 H460 0.930 . S
C473 C472 1.376 . S
C473 C474 1.388 . S
C474 H461 0.930 . S
C474 C473 1.388 . S
C474 C475 1.390 . S
C475 C474 1.390 . S
C475 C476 1.394 . S
C475 C481 1.465 . S
C476 C471 1.399 . S
C476 C475 1.394 . S
C476 C477 1.516 . S
C477 C476 1.516 . S
C477 C478 1.502 . S
C477 C479 1.561 . S
C477 C480 1.526 . S
C478 H462 0.959 . S
C478 H463 0.959 . S
C478 H464 0.961 . S
C478 C477 1.502 . S
C479 H465 0.960 . S
C479 H466 0.961 . S
C479 H467 0.959 . S
C479 C477 1.561 . S
C480 C477 1.526 . S
C480 C481 1.396 . S
C480 C485 1.390 . S
C481 C475 1.465 . S
C481 C480 1.396 . S
C481 C482 1.399 . S
C482 H468 0.929 . S
C482 C481 1.399 . S
C482 C483 1.385 . S
C483 H469 0.931 . S
C483 C482 1.385 . S
C483 C484 1.389 . S
C484 C483 1.389 . S
C484 C485 1.387 . S
C485 H470 0.930 . S
C485 C480 1.390 . S
C485 C484 1.387 . S
H486 C498 0.930 . S
H487 C500 0.930 . S
H488 C501 0.930 . S
H489 C505 0.959 . S
H490 C505 0.969 . S
H491 C505 0.961 . S
H492 C506 0.960 . S
H493 C506 0.961 . S
H494 C506 0.959 . S
H495 C509 0.929 . S
H496 C510 0.931 . S
H497 C512 0.930 . S
C498 H486 0.930 . S
C498 C499 1.399 . S
C498 C503 1.399 . S
C499 C498 1.399 . S
C499 C500 1.376 . S
C500 H487 0.930 . S
C500 C499 1.376 . S
C500 C501 1.388 . S
C501 H488 0.930 . S
C501 C500 1.388 . S
C501 C502 1.390 . S
C502 C501 1.390 . S
C502 C503 1.394 . S
C502 C508 1.465 . S
C503 C498 1.399 . S
C503 C502 1.394 . S
C503 C504 1.516 . S
C504 C503 1.516 . S
C504 C505 1.502 . S
C504 C506 1.561 . S
C504 C507 1.526 . S
C505 H489 0.959 . S
C505 H490 0.969 . S
C505 H491 0.961 . S
C505 C504 1.502 . S
C506 H492 0.960 . S
C506 H493 0.961 . S
C506 H494 0.959 . S
C506 C504 1.561 . S
C507 C504 1.526 . S
C507 C508 1.396 . S
C507 C512 1.390 1_455 S
C508 C502 1.465 . S
C508 C507 1.396 . S
C508 C509 1.399 . S
C509 H495 0.929 . S
C509 C508 1.399 . S
C509 C510 1.385 1_455 S
C510 H496 0.931 . S
C510 C509 1.385 1_655 S
C510 C511 1.389 . S
C511 C510 1.389 . S
C511 C512 1.387 . S
C512 H497 0.930 . S
C512 C507 1.390 1_655 S
C512 C511 1.387 . S
H513 C525 0.930 . S
H514 C527 0.930 . S
H515 C528 0.930 . S
H516 C532 0.959 . S
H517 C532 0.959 . S
H518 C532 0.961 . S
H519 C533 0.960 . S
H520 C533 0.961 . S
H521 C533 0.959 . S
H522 C536 0.929 . S
H523 C537 0.931 . S
H524 C539 0.930 . S
C525 H513 0.930 . S
C525 C526 1.399 . S
C525 C530 1.399 . S
C526 C525 1.399 . S
C526 C527 1.376 1_455 S
C527 H514 0.930 . S
C527 C526 1.376 1_655 S
C527 C528 1.388 . S
C528 H515 0.930 . S
C528 C527 1.388 . S
C528 C529 1.390 1_655 S
C529 C528 1.390 1_455 S
C529 C530 1.394 . S
C529 C535 1.465 . S
C530 C525 1.399 . S
C530 C529 1.394 . S
C530 C531 1.516 . S
C531 C530 1.516 . S
C531 C532 1.502 . S
C531 C533 1.561 . S
C531 C534 1.526 . S
C532 H516 0.959 . S
C532 H517 0.959 . S
C532 H518 0.961 . S
C532 C531 1.502 . S
C533 H519 0.960 . S
C533 H520 0.961 . S
C533 H521 0.959 . S
C533 C531 1.561 . S
C534 C531 1.526 . S
C534 C535 1.396 . S
C534 C539 1.390 . S
C535 C529 1.465 . S
C535 C534 1.396 . S
C535 C536 1.399 1_455 S
C536 H522 0.929 . S
C536 C535 1.399 1_655 S
C536 C537 1.385 . S
C537 H523 0.931 . S
C537 C536 1.385 . S
C537 C538 1.389 1_655 S
C538 C537 1.389 1_455 S
C538 C539 1.387 . S
C539 H524 0.930 . S
C539 C534 1.390 . S
C539 C538 1.387 . S
H540 C552 0.930 . S
H541 C554 0.930 . S
H542 C555 0.930 . S
H543 C559 0.959 . S
H544 C559 0.959 . S
H545 C559 0.961 . S
H546 C560 0.960 . S
H547 C560 0.961 . S
H548 C560 0.959 . S
H549 C563 0.929 . S
H550 C564 0.931 . S
H551 C566 0.930 . S
C552 H540 0.930 . S
C552 C553 1.399 . S
C552 C557 1.399 . S
C553 C552 1.399 . S
C553 C554 1.376 . S
C554 H541 0.930 . S
C554 C553 1.376 . S
C554 C555 1.388 . S
C555 H542 0.930 . S
C555 C554 1.388 . S
C555 C556 1.390 . S
C556 C555 1.390 . S
C556 C557 1.394 . S
C556 C562 1.465 . S
C557 C552 1.399 . S
C557 C556 1.394 . S
C557 C558 1.516 . S
C558 C557 1.516 . S
C558 C559 1.502 . S
C558 C560 1.561 . S
C558 C561 1.526 . S
C559 H543 0.959 . S
C559 H544 0.959 . S
C559 H545 0.961 . S
C559 C558 1.502 . S
C560 H546 0.960 . S
C560 H547 0.961 . S
C560 H548 0.959 . S
C560 C558 1.561 . S
C561 C558 1.526 . S
C561 C562 1.396 . S
C561 C566 1.390 . S
C562 C556 1.465 . S
C562 C561 1.396 . S
C562 C563 1.399 . S
C563 H549 0.929 . S
C563 C562 1.399 . S
C563 C564 1.385 . S
C564 H550 0.931 . S
C564 C563 1.385 . S
C564 C565 1.389 . S
C565 C564 1.389 . S
C565 C566 1.387 . S
C566 H551 0.930 . S
C566 C561 1.390 . S
C566 C565 1.387 . S
H567 C579 0.930 . S
H568 C581 0.930 . S
H569 C582 0.930 . S
H570 C586 0.959 . S
H571 C586 0.959 . S
H572 C586 0.961 . S
H573 C587 0.942 1_455 S
H574 C587 0.971 . S
H575 C587 0.974 . S
H576 C590 0.929 . S
H577 C591 0.931 . S
H578 C593 0.930 . S
C579 H567 0.930 . S
C579 C580 1.399 . S
C579 C584 1.399 . S
C580 C579 1.399 . S
C580 C581 1.376 . S
C581 H568 0.930 . S
C581 C580 1.376 . S
C581 C582 1.388 . S
C582 H569 0.930 . S
C582 C581 1.388 . S
C582 C583 1.390 . S
C583 C582 1.390 . S
C583 C584 1.394 . S
C583 C589 1.465 1_455 S
C584 C579 1.399 . S
C584 C583 1.394 . S
C584 C585 1.516 . S
C585 C584 1.516 . S
C585 C586 1.502 . S
C585 C587 1.554 1_455 S
C585 C588 1.526 1_455 S
C586 H570 0.959 . S
C586 H571 0.959 . S
C586 H572 0.961 . S
C586 C585 1.502 . S
C587 H573 0.942 1_655 S
C587 H574 0.971 . S
C587 H575 0.974 . S
C587 C585 1.554 1_655 S
C588 C585 1.526 1_655 S
C588 C589 1.396 . S
C588 C593 1.390 . S
C589 C583 1.465 1_655 S
C589 C588 1.396 . S
C589 C590 1.399 . S
C590 H576 0.929 . S
C590 C589 1.399 . S
C590 C591 1.385 . S
C591 H577 0.931 . S
C591 C590 1.385 . S
C591 C592 1.389 . S
C592 C591 1.389 . S
C592 C593 1.387 . S
C593 H578 0.930 . S
C593 C588 1.390 . S
C593 C592 1.387 . S
H594 C606 0.930 1_554 S
H595 C608 0.930 . S
H596 C609 0.930 . S
H597 C613 0.959 . S
H598 C613 0.959 . S
H599 C613 0.961 . S
H600 C614 0.960 . S
H601 C614 0.961 . S
H602 C614 0.959 . S
H603 C617 0.929 . S
H604 C618 0.931 . S
H605 C620 0.930 . S
C606 H594 0.930 1_556 S
C606 C607 1.399 . S
C606 C611 1.399 . S
C607 C606 1.399 . S
C607 C608 1.376 . S
C608 H595 0.930 . S
C608 C607 1.376 . S
C608 C609 1.388 . S
C609 H596 0.930 . S
C609 C608 1.388 . S
C609 C610 1.390 . S
C610 C609 1.390 . S
C610 C611 1.394 . S
C610 C616 1.465 . S
C611 C606 1.399 . S
C611 C610 1.394 . S
C611 C612 1.516 1_556 S
C612 C611 1.516 1_554 S
C612 C613 1.502 . S
C612 C614 1.561 . S
C612 C615 1.526 . S
C613 H597 0.959 . S
C613 H598 0.959 . S
C613 H599 0.961 . S
C613 C612 1.502 . S
C614 H600 0.960 . S
C614 H601 0.961 . S
C614 H602 0.959 . S
C614 C612 1.561 . S
C615 C612 1.526 . S
C615 C616 1.396 1_554 S
C615 C620 1.390 . S
C616 C610 1.465 . S
C616 C615 1.396 1_556 S
C616 C617 1.399 . S
C617 H603 0.929 . S
C617 C616 1.399 . S
C617 C618 1.385 . S
C618 H604 0.931 . S
C618 C617 1.385 . S
C618 C619 1.389 1_556 S
C619 C618 1.389 1_554 S
C619 C620 1.387 . S
C620 H605 0.930 . S
C620 C615 1.390 . S
C620 C619 1.387 . S
H621 C633 0.930 . S
H622 C635 0.930 . S
H623 C636 0.930 . S
H624 C640 0.959 . S
H625 C640 0.959 . S
H626 C640 0.961 . S
H627 C641 0.960 . S
H628 C641 0.961 . S
H629 C641 0.959 . S
H630 C644 0.929 . S
H631 C645 0.931 . S
H632 C647 0.930 . S
C633 H621 0.930 . S
C633 C634 1.399 . S
C633 C638 1.399 . S
C634 C633 1.399 . S
C634 C635 1.376 . S
C635 H622 0.930 . S
C635 C634 1.376 . S
C635 C636 1.388 . S
C636 H623 0.930 . S
C636 C635 1.388 . S
C636 C637 1.390 . S
C637 C636 1.390 . S
C637 C638 1.394 . S
C637 C643 1.465 . S
C638 C633 1.399 . S
C638 C637 1.394 . S
C638 C639 1.516 . S
C639 C638 1.516 . S
C639 C640 1.502 . S
C639 C641 1.561 . S
C639 C642 1.526 . S
C640 H624 0.959 . S
C640 H625 0.959 . S
C640 H626 0.961 . S
C640 C639 1.502 . S
C641 H627 0.960 . S
C641 H628 0.961 . S
C641 H629 0.959 . S
C641 C639 1.561 . S
C642 C639 1.526 . S
C642 C643 1.396 . S
C642 C647 1.390 . S
C643 C637 1.465 . S
C643 C642 1.396 . S
C643 C644 1.399 . S
C644 H630 0.929 . S
C644 C643 1.399 . S
C644 C645 1.385 . S
C645 H631 0.931 . S
C645 C644 1.385 . S
C645 C646 1.389 . S
C646 C645 1.389 . S
C646 C647 1.387 . S
C647 H632 0.930 . S
C647 C642 1.390 . S
C647 C646 1.387 . S
H648 C660 0.930 . S
H649 C662 0.930 . S
H650 C663 0.930 1_565 S
H651 C667 0.959 . S
H652 C667 0.959 . S
H653 C667 0.961 . S
H654 C668 0.960 . S
H655 C668 0.961 . S
H656 C668 0.959 . S
H657 C671 0.929 . S
H658 C672 0.931 . S
H659 C674 0.930 . S
C660 H648 0.930 . S
C660 C661 1.399 . S
C660 C665 1.399 . S
C661 C660 1.399 . S
C661 C662 1.376 . S
C662 H649 0.930 . S
C662 C661 1.376 . S
C662 C663 1.388 . S
C663 H650 0.930 1_545 S
C663 C662 1.388 . S
C663 C664 1.390 . S
C664 C663 1.390 . S
C664 C665 1.394 . S
C664 C670 1.465 . S
C665 C660 1.399 . S
C665 C664 1.394 . S
C665 C666 1.516 . S
C666 C665 1.516 . S
C666 C667 1.502 . S
C666 C668 1.561 . S
C666 C669 1.526 . S
C667 H651 0.959 . S
C667 H652 0.959 . S
C667 H653 0.961 . S
C667 C666 1.502 . S
C668 H654 0.960 . S
C668 H655 0.961 . S
C668 H656 0.959 . S
C668 C666 1.561 . S
C669 C666 1.526 . S
C669 C670 1.396 . S
C669 C674 1.390 . S
C670 C664 1.465 . S
C670 C669 1.396 . S
C670 C671 1.399 1_545 S
C671 H657 0.929 . S
C671 C670 1.399 1_565 S
C671 C672 1.385 . S
C672 H658 0.931 . S
C672 C671 1.385 . S
C672 C673 1.389 1_565 S
C673 C672 1.389 1_545 S
C673 C674 1.387 . S
C674 H659 0.930 . S
C674 C669 1.390 . S
C674 C673 1.387 . S
H675 C687 0.930 . S
H676 C689 0.930 . S
H677 C690 0.930 . S
H678 C694 0.959 . S
H679 C694 0.959 . S
H680 C694 0.961 . S
H681 C695 0.960 . S
H682 C695 0.961 . S
H683 C695 0.959 . S
H684 C698 0.929 . S
H685 C699 0.931 . S
H686 C701 0.930 . S
C687 H675 0.930 . S
C687 C688 1.399 . S
C687 C692 1.399 . S
C688 C687 1.399 . S
C688 C689 1.376 . S
C689 H676 0.930 . S
C689 C688 1.376 . S
C689 C690 1.388 . S
C690 H677 0.930 . S
C690 C689 1.388 . S
C690 C691 1.390 . S
C691 C690 1.390 . S
C691 C692 1.394 . S
C691 C697 1.465 . S
C692 C687 1.399 . S
C692 C691 1.394 . S
C692 C693 1.516 . S
C693 C692 1.516 . S
C693 C694 1.502 . S
C693 C695 1.561 . S
C693 C696 1.526 . S
C694 H678 0.959 . S
C694 H679 0.959 . S
C694 H680 0.961 . S
C694 C693 1.502 . S
C695 H681 0.960 . S
C695 H682 0.961 . S
C695 H683 0.959 . S
C695 C693 1.561 . S
C696 C693 1.526 . S
C696 C697 1.396 . S
C696 C701 1.390 . S
C697 C691 1.465 . S
C697 C696 1.396 . S
C697 C698 1.399 . S
C698 H684 0.929 . S
C698 C697 1.399 . S
C698 C699 1.385 . S
C699 H685 0.931 . S
C699 C698 1.385 . S
C699 C700 1.389 . S
C700 C699 1.389 . S
C700 C701 1.387 . S
C701 H686 0.930 . S
C701 C696 1.390 . S
C701 C700 1.387 . S
H702 C714 0.930 . S
H703 C716 0.930 . S
H704 C717 0.930 . S
H705 C721 0.959 . S
H706 C721 0.959 . S
H707 C721 0.961 . S
H708 C722 0.960 . S
H709 C722 0.961 . S
H710 C722 0.959 . S
H711 C725 0.929 . S
H712 C726 0.912 1_554 S
H713 C728 0.930 . S
C714 H702 0.930 . S
C714 C715 1.399 . S
C714 C719 1.399 . S
C715 C714 1.399 . S
C715 C716 1.376 . S
C716 H703 0.930 . S
C716 C715 1.376 . S
C716 C717 1.388 . S
C717 H704 0.930 . S
C717 C716 1.388 . S
C717 C718 1.390 . S
C718 C717 1.390 . S
C718 C719 1.394 . S
C718 C724 1.465 . S
C719 C714 1.399 . S
C719 C718 1.394 . S
C719 C720 1.516 . S
C720 C719 1.516 . S
C720 C721 1.502 . S
C720 C722 1.561 . S
C720 C723 1.526 . S
C721 H705 0.959 . S
C721 H706 0.959 . S
C721 H707 0.961 . S
C721 C720 1.502 . S
C722 H708 0.960 . S
C722 H709 0.961 . S
C722 H710 0.959 . S
C722 C720 1.561 . S
C723 C720 1.526 . S
C723 C724 1.396 . S
C723 C728 1.390 . S
C724 C718 1.465 . S
C724 C723 1.396 . S
C724 C725 1.399 . S
C725 H711 0.929 . S
C725 C724 1.399 . S
C725 C726 1.404 . S
C726 H712 0.912 1_556 S
C726 C725 1.404 . S
C726 C727 1.389 1_556 S
C727 C726 1.389 1_554 S
C727 C728 1.387 1_554 S
C728 H713 0.930 . S
C728 C723 1.390 . S
C728 C727 1.387 1_556 S
H729 C741 0.930 . S
H730 C743 0.930 . S
H731 C744 0.930 . S
H732 C748 0.959 . S
H733 C748 0.959 . S
H734 C748 0.961 . S
H735 C749 0.960 . S
H736 C749 0.961 . S
H737 C749 0.959 . S
H738 C752 0.929 . S
H739 C753 0.931 . S
H740 C755 0.930 . S
C741 H729 0.930 . S
C741 C742 1.399 . S
C741 C746 1.399 . S
C742 C741 1.399 . S
C742 C743 1.376 . S
C743 H730 0.930 . S
C743 C742 1.376 . S
C743 C744 1.388 . S
C744 H731 0.930 . S
C744 C743 1.388 . S
C744 C745 1.390 . S
C745 C744 1.390 . S
C745 C746 1.394 . S
C745 C751 1.465 . S
C746 C741 1.399 . S
C746 C745 1.394 . S
C746 C747 1.516 . S
C747 C746 1.516 . S
C747 C748 1.502 . S
C747 C749 1.561 . S
C747 C750 1.526 . S
C748 H732 0.959 . S
C748 H733 0.959 . S
C748 H734 0.961 . S
C748 C747 1.502 . S
C749 H735 0.960 . S
C749 H736 0.961 . S
C749 H737 0.959 . S
C749 C747 1.561 . S
C750 C747 1.526 . S
C750 C751 1.396 . S
C750 C755 1.390 . S
C751 C745 1.465 . S
C751 C750 1.396 . S
C751 C752 1.399 . S
C752 H738 0.929 . S
C752 C751 1.399 . S
C752 C753 1.385 . S
C753 H739 0.931 . S
C753 C752 1.385 . S
C753 C754 1.389 . S
C754 C753 1.389 . S
C754 C755 1.387 . S
C755 H740 0.930 . S
C755 C750 1.390 . S
C755 C754 1.387 . S
H756 C768 0.930 . S
H757 C770 0.930 . S
H758 C771 0.930 . S
H759 C775 0.959 . S
H760 C775 0.959 . S
H761 C775 0.961 . S
H762 C776 0.960 . S
H763 C776 0.961 . S
H764 C776 0.959 . S
H765 C779 0.929 . S
H766 C780 0.931 . S
H767 C782 0.930 . S
C768 H756 0.930 . S
C768 C769 1.399 . S
C768 C773 1.399 . S
C769 C768 1.399 . S
C769 C770 1.376 . S
C770 H757 0.930 . S
C770 C769 1.376 . S
C770 C771 1.388 . S
C771 H758 0.930 . S
C771 C770 1.388 . S
C771 C772 1.390 . S
C772 C771 1.390 . S
C772 C773 1.394 . S
C772 C778 1.465 . S
C773 C768 1.399 . S
C773 C772 1.394 . S
C773 C774 1.516 . S
C774 C773 1.516 . S
C774 C775 1.502 . S
C774 C776 1.561 . S
C774 C777 1.526 . S
C775 H759 0.959 . S
C775 H760 0.959 . S
C775 H761 0.961 . S
C775 C774 1.502 . S
C776 H762 0.960 . S
C776 H763 0.961 . S
C776 H764 0.959 . S
C776 C774 1.561 . S
C777 C774 1.526 . S
C777 C778 1.396 . S
C777 C782 1.390 . S
C778 C772 1.465 . S
C778 C777 1.396 . S
C778 C779 1.399 . S
C779 H765 0.929 . S
C779 C778 1.399 . S
C779 C780 1.385 . S
C780 H766 0.931 . S
C780 C779 1.385 . S
C780 C781 1.389 . S
C781 C780 1.389 . S
C781 C782 1.387 . S
C782 H767 0.930 . S
C782 C777 1.390 . S
C782 C781 1.387 . S
H783 C795 0.930 . S
H784 C797 0.930 . S
H785 C798 0.930 . S
H786 C802 0.959 . S
H787 C802 0.959 . S
H788 C802 0.961 . S
H789 C803 0.960 . S
H790 C803 0.961 . S
H791 C803 0.959 . S
H792 C806 0.929 . S
H793 C807 0.931 . S
H794 C809 0.930 . S
C795 H783 0.930 . S
C795 C796 1.399 . S
C795 C800 1.399 . S
C796 C795 1.399 . S
C796 C797 1.376 . S
C797 H784 0.930 . S
C797 C796 1.376 . S
C797 C798 1.388 . S
C798 H785 0.930 . S
C798 C797 1.388 . S
C798 C799 1.390 . S
C799 C798 1.390 . S
C799 C800 1.394 . S
C799 C805 1.465 . S
C800 C795 1.399 . S
C800 C799 1.394 . S
C800 C801 1.516 . S
C801 C800 1.516 . S
C801 C802 1.502 . S
C801 C803 1.561 . S
C801 C804 1.526 . S
C802 H786 0.959 . S
C802 H787 0.959 . S
C802 H788 0.961 . S
C802 C801 1.502 . S
C803 H789 0.960 . S
C803 H790 0.961 . S
C803 H791 0.959 . S
C803 C801 1.561 . S
C804 C801 1.526 . S
C804 C805 1.396 . S
C804 C809 1.390 . S
C805 C799 1.465 . S
C805 C804 1.396 . S
C805 C806 1.399 . S
C806 H792 0.929 . S
C806 C805 1.399 . S
C806 C807 1.385 . S
C807 H793 0.931 . S
C807 C806 1.385 . S
C807 C808 1.389 . S
C808 C807 1.389 . S
C808 C809 1.387 . S
C809 H794 0.930 . S
C809 C804 1.390 . S
C809 C808 1.387 . S
H810 C822 0.930 . S
H811 C824 0.930 . S
H812 C825 0.930 . S
H813 C829 0.959 . S
H814 C829 0.959 . S
H815 C829 0.961 1_545 S
H816 C830 0.960 . S
H817 C830 0.961 . S
H818 C830 0.959 . S
H819 C833 0.929 . S
H820 C834 0.931 . S
H821 C836 0.930 . S
C822 H810 0.930 . S
C822 C823 1.399 . S
C822 C827 1.399 . S
C823 C822 1.399 . S
C823 C824 1.376 . S
C824 H811 0.930 . S
C824 C823 1.376 . S
C824 C825 1.388 . S
C825 H812 0.930 . S
C825 C824 1.388 . S
C825 C826 1.390 . S
C826 C825 1.390 . S
C826 C827 1.394 . S
C826 C832 1.465 . S
C827 C822 1.399 . S
C827 C826 1.394 . S
C827 C828 1.516 . S
C828 C827 1.516 . S
C828 C829 1.502 . S
C828 C830 1.561 . S
C828 C831 1.526 . S
C829 H813 0.959 . S
C829 H814 0.959 . S
C829 H815 0.961 1_565 S
C829 C828 1.502 . S
C830 H816 0.960 . S
C830 H817 0.961 . S
C830 H818 0.959 . S
C830 C828 1.561 . S
C831 C828 1.526 . S
C831 C832 1.396 . S
C831 C836 1.390 . S
C832 C826 1.465 . S
C832 C831 1.396 . S
C832 C833 1.399 . S
C833 H819 0.929 . S
C833 C832 1.399 . S
C833 C834 1.385 . S
C834 H820 0.931 . S
C834 C833 1.385 . S
C834 C835 1.389 . S
C835 C834 1.389 . S
C835 C836 1.387 . S
C836 H821 0.930 . S
C836 C831 1.390 . S
C836 C835 1.387 . S
H837 C849 0.930 . S
H838 C851 0.930 . S
H839 C852 0.930 . S
H840 C856 0.959 . S
H841 C856 0.959 . S
H842 C856 0.961 . S
H843 C857 0.960 . S
H844 C857 0.961 . S
H845 C857 0.959 . S
H846 C860 0.929 . S
H847 C861 0.931 . S
H848 C863 0.930 . S
C849 H837 0.930 . S
C849 C850 1.399 . S
C849 C854 1.399 . S
C850 C849 1.399 . S
C850 C851 1.376 . S
C851 H838 0.930 . S
C851 C850 1.376 . S
C851 C852 1.388 . S
C852 H839 0.930 . S
C852 C851 1.388 . S
C852 C853 1.390 . S
C853 C852 1.390 . S
C853 C854 1.394 . S
C853 C859 1.465 . S
C854 C849 1.399 . S
C854 C853 1.394 . S
C854 C855 1.516 . S
C855 C854 1.516 . S
C855 C856 1.502 . S
C855 C857 1.561 . S
C855 C858 1.526 . S
C856 H840 0.959 . S
C856 H841 0.959 . S
C856 H842 0.961 . S
C856 C855 1.502 . S
C857 H843 0.960 . S
C857 H844 0.961 . S
C857 H845 0.959 . S
C857 C855 1.561 . S
C858 C855 1.526 . S
C858 C859 1.396 . S
C858 C863 1.390 . S
C859 C853 1.465 . S
C859 C858 1.396 . S
C859 C860 1.399 . S
C860 H846 0.929 . S
C860 C859 1.399 . S
C860 C861 1.385 . S
C861 H847 0.931 . S
C861 C860 1.385 . S
C861 C862 1.389 . S
C862 C861 1.389 . S
C862 C863 1.387 . S
C863 H848 0.930 . S
C863 C858 1.390 . S
C863 C862 1.387 . S
H864 C876 0.930 . S
H865 C878 0.930 . S
H866 C879 0.930 . S
H867 C883 0.959 . S
H868 C883 0.959 . S
H869 C883 0.961 . S
H870 C884 0.960 . S
H871 C884 0.961 . S
H872 C884 0.959 . S
H873 C887 0.929 . S
H874 C888 0.931 . S
H875 C890 0.930 . S
C876 H864 0.930 . S
C876 C877 1.399 . S
C876 C881 1.399 . S
C877 C876 1.399 . S
C877 C878 1.376 . S
C878 H865 0.930 . S
C878 C877 1.376 . S
C878 C879 1.388 . S
C879 H866 0.930 . S
C879 C878 1.388 . S
C879 C880 1.390 . S
C880 C879 1.390 . S
C880 C881 1.394 . S
C880 C886 1.465 . S
C881 C876 1.399 . S
C881 C880 1.394 . S
C881 C882 1.516 . S
C882 C881 1.516 . S
C882 C883 1.502 . S
C882 C884 1.561 . S
C882 C885 1.526 . S
C883 H867 0.959 . S
C883 H868 0.959 . S
C883 H869 0.961 . S
C883 C882 1.502 . S
C884 H870 0.960 . S
C884 H871 0.961 . S
C884 H872 0.959 . S
C884 C882 1.561 . S
C885 C882 1.526 . S
C885 C886 1.396 . S
C885 C890 1.390 . S
C886 C880 1.465 . S
C886 C885 1.396 . S
C886 C887 1.399 . S
C887 H873 0.929 . S
C887 C886 1.399 . S
C887 C888 1.385 . S
C888 H874 0.931 . S
C888 C887 1.385 . S
C888 C889 1.389 . S
C889 C888 1.389 . S
C889 C890 1.387 . S
C890 H875 0.930 . S
C890 C885 1.390 . S
C890 C889 1.387 . S
H891 C903 0.930 . S
H892 C905 0.930 . S
H893 C906 0.930 . S
H894 C910 0.959 . S
H895 C910 0.959 . S
H896 C910 0.961 . S
H897 C911 0.960 . S
H898 C911 0.961 . S
H899 C911 0.959 . S
H900 C914 0.929 . S
H901 C915 0.931 . S
H902 C917 0.930 . S
C903 H891 0.930 . S
C903 C904 1.399 . S
C903 C908 1.399 . S
C904 C903 1.399 . S
C904 C905 1.376 . S
C905 H892 0.930 . S
C905 C904 1.376 . S
C905 C906 1.388 . S
C906 H893 0.930 . S
C906 C905 1.388 . S
C906 C907 1.390 . S
C907 C906 1.390 . S
C907 C908 1.394 . S
C907 C913 1.465 . S
C908 C903 1.399 . S
C908 C907 1.394 . S
C908 C909 1.516 . S
C909 C908 1.516 . S
C909 C910 1.502 . S
C909 C911 1.561 . S
C909 C912 1.526 . S
C910 H894 0.959 . S
C910 H895 0.959 . S
C910 H896 0.961 . S
C910 C909 1.502 . S
C911 H897 0.960 . S
C911 H898 0.961 . S
C911 H899 0.959 . S
C911 C909 1.561 . S
C912 C909 1.526 . S
C912 C913 1.396 . S
C912 C917 1.390 . S
C913 C907 1.465 . S
C913 C912 1.396 . S
C913 C914 1.399 . S
C914 H900 0.929 . S
C914 C913 1.399 . S
C914 C915 1.385 . S
C915 H901 0.931 . S
C915 C914 1.385 . S
C915 C916 1.389 . S
C916 C915 1.389 . S
C916 C917 1.387 . S
C917 H902 0.930 . S
C917 C912 1.390 . S
C917 C916 1.387 . S
H918 C930 0.930 . S
H919 C932 0.930 . S
H920 C933 0.930 . S
H921 C937 0.959 . S
H922 C937 0.959 . S
H923 C937 0.961 . S
H924 C938 0.960 . S
H925 C938 0.961 . S
H926 C938 0.959 . S
H927 C941 0.929 . S
H928 C942 0.931 . S
H929 C944 0.930 . S
C930 H918 0.930 . S
C930 C931 1.399 . S
C930 C935 1.399 . S
C931 C930 1.399 . S
C931 C932 1.376 . S
C932 H919 0.930 . S
C932 C931 1.376 . S
C932 C933 1.388 . S
C933 H920 0.930 . S
C933 C932 1.388 . S
C933 C934 1.390 . S
C934 C933 1.390 . S
C934 C935 1.394 . S
C934 C940 1.465 . S
C935 C930 1.399 . S
C935 C934 1.394 . S
C935 C936 1.516 . S
C936 C935 1.516 . S
C936 C937 1.502 . S
C936 C938 1.561 . S
C936 C939 1.526 . S
C937 H921 0.959 . S
C937 H922 0.959 . S
C937 H923 0.961 . S
C937 C936 1.502 . S
C938 H924 0.960 . S
C938 H925 0.961 . S
C938 H926 0.959 . S
C938 C936 1.561 . S
C939 C936 1.526 . S
C939 C940 1.396 . S
C939 C944 1.390 . S
C940 C934 1.465 . S
C940 C939 1.396 . S
C940 C941 1.399 . S
C941 H927 0.929 . S
C941 C940 1.399 . S
C941 C942 1.385 . S
C942 H928 0.931 . S
C942 C941 1.385 . S
C942 C943 1.389 . S
C943 C942 1.389 . S
C943 C944 1.387 . S
C944 H929 0.930 . S
C944 C939 1.390 . S
C944 C943 1.387 . S
H945 C957 0.930 . S
H946 C959 0.930 . S
H947 C960 0.930 . S
H948 C964 0.959 . S
H949 C964 0.959 . S
H950 C964 0.961 . S
H951 C965 0.960 . S
H952 C965 0.961 . S
H953 C965 0.959 . S
H954 C968 0.929 . S
H955 C969 0.931 . S
H956 C971 0.930 . S
C957 H945 0.930 . S
C957 C958 1.399 . S
C957 C962 1.399 . S
C958 C957 1.399 . S
C958 C959 1.376 . S
C959 H946 0.930 . S
C959 C958 1.376 . S
C959 C960 1.388 . S
C960 H947 0.930 . S
C960 C959 1.388 . S
C960 C961 1.390 . S
C961 C960 1.390 . S
C961 C962 1.394 . S
C961 C967 1.465 . S
C962 C957 1.399 . S
C962 C961 1.394 . S
C962 C963 1.516 . S
C963 C962 1.516 . S
C963 C964 1.502 . S
C963 C965 1.561 . S
C963 C966 1.526 . S
C964 H948 0.959 . S
C964 H949 0.959 . S
C964 H950 0.961 . S
C964 C963 1.502 . S
C965 H951 0.960 . S
C965 H952 0.961 . S
C965 H953 0.959 . S
C965 C963 1.561 . S
C966 C963 1.526 . S
C966 C967 1.396 . S
C966 C971 1.390 . S
C967 C961 1.465 . S
C967 C966 1.396 . S
C967 C968 1.399 . S
C968 H954 0.929 . S
C968 C967 1.399 . S
C968 C969 1.385 . S
C969 H955 0.931 . S
C969 C968 1.385 . S
C969 C970 1.389 . S
C970 C969 1.389 . S
C970 C971 1.387 . S
C971 H956 0.930 . S
C971 C966 1.390 . S
C971 C970 1.387 . S
H972 C984 0.930 . S
H973 C986 0.930 . S
H974 C987 0.930 . S
H975 C991 0.959 . S
H976 C991 0.959 . S
H977 C991 0.961 . S
H978 C992 0.960 . S
H979 C992 0.961 . S
H980 C992 0.959 . S
H981 C995 0.929 . S
H982 C996 0.931 . S
H983 C998 0.930 . S
C984 H972 0.930 . S
C984 C985 1.399 . S
C984 C989 1.399 . S
C985 C984 1.399 . S
C985 C986 1.376 . S
C986 H973 0.930 . S
C986 C985 1.376 . S
C986 C987 1.388 . S
C987 H974 0.930 . S
C987 C986 1.388 . S
C987 C988 1.390 . S
C988 C987 1.390 . S
C988 C989 1.394 . S
C988 C994 1.465 . S
C989 C984 1.399 . S
C989 C988 1.394 . S
C989 C990 1.516 . S
C990 C989 1.516 . S
C990 C991 1.502 . S
C990 C992 1.561 . S
C990 C993 1.526 . S
C991 H975 0.959 . S
C991 H976 0.959 . S
C991 H977 0.961 . S
C991 C990 1.502 . S
C992 H978 0.960 . S
C992 H979 0.961 . S
C992 H980 0.959 . S
C992 C990 1.561 . S
C993 C990 1.526 . S
C993 C994 1.396 . S
C993 C998 1.390 . S
C994 C988 1.465 . S
C994 C993 1.396 . S
C994 C995 1.399 . S
C995 H981 0.929 . S
C995 C994 1.399 . S
C995 C996 1.385 . S
C996 H982 0.931 . S
C996 C995 1.385 . S
C996 C997 1.389 . S
C997 C996 1.389 . S
C997 C998 1.387 . S
C998 H983 0.930 . S
C998 C993 1.390 . S
C998 C997 1.387 . S
H999 C1011 0.930 . S
H1000 C1013 0.930 . S
H1001 C1014 0.930 . S
H1002 C1018 0.959 . S
H1003 C1018 0.959 . S
H1004 C1018 0.961 . S
H1005 C1019 0.960 . S
H1006 C1019 0.961 . S
H1007 C1019 0.959 . S
H1008 C1022 0.929 . S
H1009 C1023 0.931 . S
H1010 C1025 0.930 . S
C1011 H999 0.930 . S
C1011 C1012 1.399 . S
C1011 C1016 1.399 . S
C1012 C1011 1.399 . S
C1012 C1013 1.376 . S
C1013 H1000 0.930 . S
C1013 C1012 1.376 . S
C1013 C1014 1.388 . S
C1014 H1001 0.930 . S
C1014 C1013 1.388 . S
C1014 C1015 1.390 . S
C1015 C1014 1.390 . S
C1015 C1016 1.394 . S
C1015 C1021 1.465 . S
C1016 C1011 1.399 . S
C1016 C1015 1.394 . S
C1016 C1017 1.516 . S
C1017 C1016 1.516 . S
C1017 C1018 1.502 . S
C1017 C1019 1.561 . S
C1017 C1020 1.526 . S
C1018 H1002 0.959 . S
C1018 H1003 0.959 . S
C1018 H1004 0.961 . S
C1018 C1017 1.502 . S
C1019 H1005 0.960 . S
C1019 H1006 0.961 . S
C1019 H1007 0.959 . S
C1019 C1017 1.561 . S
C1020 C1017 1.526 . S
C1020 C1021 1.396 . S
C1020 C1025 1.390 . S
C1021 C1015 1.465 . S
C1021 C1020 1.396 . S
C1021 C1022 1.399 . S
C1022 H1008 0.929 . S
C1022 C1021 1.399 . S
C1022 C1023 1.385 . S
C1023 H1009 0.931 . S
C1023 C1022 1.385 . S
C1023 C1024 1.389 . S
C1024 C1023 1.389 . S
C1024 C1025 1.387 . S
C1025 H1010 0.930 . S
C1025 C1020 1.390 . S
C1025 C1024 1.387 . S
H1026 C1038 0.930 . S
H1027 C1040 0.930 . S
H1028 C1041 0.930 . S
H1029 C1045 0.959 . S
H1030 C1045 0.959 . S
H1031 C1045 0.961 . S
H1032 C1046 0.960 1_455 S
H1033 C1046 0.961 . S
H1034 C1046 0.959 . S
H1035 C1049 0.929 . S
H1036 C1050 0.931 . S
H1037 C1052 0.930 . S
C1038 H1026 0.930 . S
C1038 C1039 1.399 . S
C1038 C1043 1.399 . S
C1039 C1038 1.399 . S
C1039 C1040 1.376 . S
C1040 H1027 0.930 . S
C1040 C1039 1.376 . S
C1040 C1041 1.388 . S
C1041 H1028 0.930 . S
C1041 C1040 1.388 . S
C1041 C1042 1.390 . S
C1042 C1041 1.390 . S
C1042 C1043 1.394 . S
C1042 C1048 1.465 . S
C1043 C1038 1.399 . S
C1043 C1042 1.394 . S
C1043 C1044 1.516 . S
C1044 C1043 1.516 . S
C1044 C1045 1.502 . S
C1044 C1046 1.561 . S
C1044 C1047 1.526 . S
C1045 H1029 0.959 . S
C1045 H1030 0.959 . S
C1045 H1031 0.961 . S
C1045 C1044 1.502 . S
C1046 H1032 0.960 1_655 S
C1046 H1033 0.961 . S
C1046 H1034 0.959 . S
C1046 C1044 1.561 . S
C1047 C1044 1.526 . S
C1047 C1048 1.396 . S
C1047 C1052 1.390 . S
C1048 C1042 1.465 . S
C1048 C1047 1.396 . S
C1048 C1049 1.399 . S
C1049 H1035 0.929 . S
C1049 C1048 1.399 . S
C1049 C1050 1.385 . S
C1050 H1036 0.931 . S
C1050 C1049 1.385 . S
C1050 C1051 1.389 . S
C1051 C1050 1.389 . S
C1051 C1052 1.387 . S
C1052 H1037 0.930 . S
C1052 C1047 1.390 . S
C1052 C1051 1.387 . S
H1053 C1065 0.930 . S
H1054 C1067 0.930 . S
H1055 C1068 0.930 . S
H1056 C1072 0.959 . S
H1057 C1072 0.959 . S
H1058 C1072 0.961 . S
H1059 C1073 0.960 . S
H1060 C1073 0.961 . S
H1061 C1073 0.959 . S
H1062 C1076 0.929 . S
H1063 C1077 0.931 . S
H1064 C1079 0.930 . S
C1065 H1053 0.930 . S
C1065 C1066 1.399 . S
C1065 C1070 1.399 . S
C1066 C1065 1.399 . S
C1066 C1067 1.376 . S
C1067 H1054 0.930 . S
C1067 C1066 1.376 . S
C1067 C1068 1.388 . S
C1068 H1055 0.930 . S
C1068 C1067 1.388 . S
C1068 C1069 1.390 . S
C1069 C1068 1.390 . S
C1069 C1070 1.394 . S
C1069 C1075 1.465 . S
C1070 C1065 1.399 . S
C1070 C1069 1.394 . S
C1070 C1071 1.516 . S
C1071 C1070 1.516 . S
C1071 C1072 1.502 . S
C1071 C1073 1.561 . S
C1071 C1074 1.526 . S
C1072 H1056 0.959 . S
C1072 H1057 0.959 . S
C1072 H1058 0.961 . S
C1072 C1071 1.502 . S
C1073 H1059 0.960 . S
C1073 H1060 0.961 . S
C1073 H1061 0.959 . S
C1073 C1071 1.561 . S
C1074 C1071 1.526 . S
C1074 C1075 1.396 . S
C1074 C1079 1.390 . S
C1075 C1069 1.465 . S
C1075 C1074 1.396 . S
C1075 C1076 1.399 . S
C1076 H1062 0.929 . S
C1076 C1075 1.399 . S
C1076 C1077 1.385 . S
C1077 H1063 0.931 . S
C1077 C1076 1.385 . S
C1077 C1078 1.389 . S
C1078 C1077 1.389 . S
C1078 C1079 1.387 . S
C1079 H1064 0.930 . S
C1079 C1074 1.390 . S
C1079 C1078 1.387 . S
C241 C124 1.304 . S
C229 C5 1.300 . S
C268 C141 1.450 . S
C256 C18 1.444 . S
C295 C155 1.555 . S
C283 C31 1.604 . S
C310 C42 1.443 . S
C322 C113 1.413 . S
C337 C57 1.125 . S
C349 C110 1.078 . S
C364 C70 1.063 . S
C376 C127 1.076 . S
C403 C138 1.411 1_545 S
C391 C81 1.385 . S
C430 C152 1.208 1_545 S
C418 C96 1.250 . S
C445 C29 1.163 . S
C457 C180 1.183 . S
C484 C194 1.462 . S
C472 C44 1.481 . S
C499 C3 1.075 . S
C511 C211 1.055 . S
C538 C166 1.124 . S
C526 C16 1.161 . S
C553 C83 1.384 . S
C565 C169 1.329 . S
C580 C94 1.650 . S
C592 C183 1.617 . S
C619 C197 1.416 . S
C607 C55 1.495 . S
C634 C68 1.325 . S
C646 C208 1.306 . S
C673 C140 1.754 1_545 S
C661 C1 1.687 . S
C700 C154 1.873 . S
C688 C14 1.748 . S
C715 C27 1.766 . S
C727 C112 1.755 . S
C742 C49 1.684 . S
C754 C125 1.596 . S
C769 C53 1.386 . S
C781 C153 1.285 . S
C808 C111 1.255 . S
C796 C66 1.279 . S
C835 C126 1.596 . S
C823 C88 1.617 . S
C862 C139 1.413 . S
C850 C92 1.493 . S
C889 C195 1.445 . S
C877 C36 1.522 . S
C916 C210 1.598 . S
C904 C40 1.585 . S
C931 C10 1.336 . S
C943 C167 1.270 . S
C970 C181 1.305 . S
C958 C23 1.403 1_655 S
C997 C209 1.643 . S
C985 C79 1.583 . S
C1012 C101 1.790 . S
C1024 C168 1.810 . S
C1051 C182 1.822 . S
C1039 C62 1.879 . S
C1078 C196 1.758 . S
C1066 C75 1.752 . S
