# Generated by pormake.
# Topology gar, (4,6)-cn, num edge types: 1
# Building blocks:
#     Node 0, Type 0, BuildingBlock: CEKHIL_clean_sbu_0, # of connection points: 4
#     Node 1, Type 0, BuildingBlock: CEKHIL_clean_sbu_0, # of connection points: 4
#     Node 2, Type 0, BuildingBlock: CEKHIL_clean_sbu_0, # of connection points: 4
#     Node 3, Type 0, BuildingBlock: CEKHIL_clean_sbu_0, # of connection points: 4
#     Node 4, Type 0, BuildingBlock: CEKHIL_clean_sbu_0, # of connection points: 4
#     Node 5, Type 0, BuildingBlock: CEKHIL_clean_sbu_0, # of connection points: 4
#     Node 6, Type 0, BuildingBlock: CEKHIL_clean_sbu_0, # of connection points: 4
#     Node 7, Type 0, BuildingBlock: CEKHIL_clean_sbu_0, # of connection points: 4
#     Node 8, Type 0, BuildingBlock: CEKHIL_clean_sbu_0, # of connection points: 4
#     Node 9, Type 0, BuildingBlock: CEKHIL_clean_sbu_0, # of connection points: 4
#     Node 10, Type 0, BuildingBlock: CEKHIL_clean_sbu_0, # of connection points: 4
#     Node 11, Type 0, BuildingBlock: CEKHIL_clean_sbu_0, # of connection points: 4
#     Node 12, Type 0, BuildingBlock: CEKHIL_clean_sbu_0, # of connection points: 4
#     Node 13, Type 0, BuildingBlock: CEKHIL_clean_sbu_0, # of connection points: 4
#     Node 14, Type 0, BuildingBlock: CEKHIL_clean_sbu_0, # of connection points: 4
#     Node 15, Type 0, BuildingBlock: CEKHIL_clean_sbu_0, # of connection points: 4
#     Node 16, Type 0, BuildingBlock: CEKHIL_clean_sbu_0, # of connection points: 4
#     Node 17, Type 0, BuildingBlock: CEKHIL_clean_sbu_0, # of connection points: 4
#     Node 18, Type 0, BuildingBlock: CEKHIL_clean_sbu_0, # of connection points: 4
#     Node 19, Type 0, BuildingBlock: CEKHIL_clean_sbu_0, # of connection points: 4
#     Node 20, Type 0, BuildingBlock: CEKHIL_clean_sbu_0, # of connection points: 4
#     Node 21, Type 0, BuildingBlock: CEKHIL_clean_sbu_0, # of connection points: 4
#     Node 22, Type 0, BuildingBlock: CEKHIL_clean_sbu_0, # of connection points: 4
#     Node 23, Type 0, BuildingBlock: CEKHIL_clean_sbu_0, # of connection points: 4
#     Node 24, Type 1, BuildingBlock: KUMBUR_clean_sbu_0, # of connection points: 6
#     Node 25, Type 1, BuildingBlock: KUMBUR_clean_sbu_0, # of connection points: 6
#     Node 26, Type 1, BuildingBlock: KUMBUR_clean_sbu_0, # of connection points: 6
#     Node 27, Type 1, BuildingBlock: KUMBUR_clean_sbu_0, # of connection points: 6
#     Node 28, Type 1, BuildingBlock: KUMBUR_clean_sbu_0, # of connection points: 6
#     Node 29, Type 1, BuildingBlock: KUMBUR_clean_sbu_0, # of connection points: 6
#     Node 30, Type 1, BuildingBlock: KUMBUR_clean_sbu_0, # of connection points: 6
#     Node 31, Type 1, BuildingBlock: KUMBUR_clean_sbu_0, # of connection points: 6
#     Node 32, Type 1, BuildingBlock: KUMBUR_clean_sbu_0, # of connection points: 6
#     Node 33, Type 1, BuildingBlock: KUMBUR_clean_sbu_0, # of connection points: 6
#     Node 34, Type 1, BuildingBlock: KUMBUR_clean_sbu_0, # of connection points: 6
#     Node 35, Type 1, BuildingBlock: KUMBUR_clean_sbu_0, # of connection points: 6
#     Node 36, Type 1, BuildingBlock: KUMBUR_clean_sbu_0, # of connection points: 6
#     Node 37, Type 1, BuildingBlock: KUMBUR_clean_sbu_0, # of connection points: 6
#     Node 38, Type 1, BuildingBlock: KUMBUR_clean_sbu_0, # of connection points: 6
#     Node 39, Type 1, BuildingBlock: KUMBUR_clean_sbu_0, # of connection points: 6
#     Edge 40, Type (0, 1), BuildingBlock: XUDNAN_clean_linker_2, # of connection points: 2
#     Edge 41, Type (0, 1), BuildingBlock: XUDNAN_clean_linker_2, # of connection points: 2
#     Edge 42, Type (0, 1), BuildingBlock: XUDNAN_clean_linker_2, # of connection points: 2
#     Edge 43, Type (0, 1), BuildingBlock: XUDNAN_clean_linker_2, # of connection points: 2
#     Edge 44, Type (0, 1), BuildingBlock: XUDNAN_clean_linker_2, # of connection points: 2
#     Edge 45, Type (0, 1), BuildingBlock: XUDNAN_clean_linker_2, # of connection points: 2
#     Edge 46, Type (0, 1), BuildingBlock: XUDNAN_clean_linker_2, # of connection points: 2
#     Edge 47, Type (0, 1), BuildingBlock: XUDNAN_clean_linker_2, # of connection points: 2
#     Edge 48, Type (0, 1), BuildingBlock: XUDNAN_clean_linker_2, # of connection points: 2
#     Edge 49, Type (0, 1), BuildingBlock: XUDNAN_clean_linker_2, # of connection points: 2
#     Edge 50, Type (0, 1), BuildingBlock: XUDNAN_clean_linker_2, # of connection points: 2
#     Edge 51, Type (0, 1), BuildingBlock: XUDNAN_clean_linker_2, # of connection points: 2
#     Edge 52, Type (0, 1), BuildingBlock: XUDNAN_clean_linker_2, # of connection points: 2
#     Edge 53, Type (0, 1), BuildingBlock: XUDNAN_clean_linker_2, # of connection points: 2
#     Edge 54, Type (0, 1), BuildingBlock: XUDNAN_clean_linker_2, # of connection points: 2
#     Edge 55, Type (0, 1), BuildingBlock: XUDNAN_clean_linker_2, # of connection points: 2
#     Edge 56, Type (0, 1), BuildingBlock: XUDNAN_clean_linker_2, # of connection points: 2
#     Edge 57, Type (0, 1), BuildingBlock: XUDNAN_clean_linker_2, # of connection points: 2
#     Edge 58, Type (0, 1), BuildingBlock: XUDNAN_clean_linker_2, # of connection points: 2
#     Edge 59, Type (0, 1), BuildingBlock: XUDNAN_clean_linker_2, # of connection points: 2
#     Edge 60, Type (0, 1), BuildingBlock: XUDNAN_clean_linker_2, # of connection points: 2
#     Edge 61, Type (0, 1), BuildingBlock: XUDNAN_clean_linker_2, # of connection points: 2
#     Edge 62, Type (0, 1), BuildingBlock: XUDNAN_clean_linker_2, # of connection points: 2
#     Edge 63, Type (0, 1), BuildingBlock: XUDNAN_clean_linker_2, # of connection points: 2
#     Edge 64, Type (0, 1), BuildingBlock: XUDNAN_clean_linker_2, # of connection points: 2
#     Edge 65, Type (0, 1), BuildingBlock: XUDNAN_clean_linker_2, # of connection points: 2
#     Edge 66, Type (0, 1), BuildingBlock: XUDNAN_clean_linker_2, # of connection points: 2
#     Edge 67, Type (0, 1), BuildingBlock: XUDNAN_clean_linker_2, # of connection points: 2
#     Edge 68, Type (0, 1), BuildingBlock: XUDNAN_clean_linker_2, # of connection points: 2
#     Edge 69, Type (0, 1), BuildingBlock: XUDNAN_clean_linker_2, # of connection points: 2
#     Edge 70, Type (0, 1), BuildingBlock: XUDNAN_clean_linker_2, # of connection points: 2
#     Edge 71, Type (0, 1), BuildingBlock: XUDNAN_clean_linker_2, # of connection points: 2
#     Edge 72, Type (0, 1), BuildingBlock: XUDNAN_clean_linker_2, # of connection points: 2
#     Edge 73, Type (0, 1), BuildingBlock: XUDNAN_clean_linker_2, # of connection points: 2
#     Edge 74, Type (0, 1), BuildingBlock: XUDNAN_clean_linker_2, # of connection points: 2
#     Edge 75, Type (0, 1), BuildingBlock: XUDNAN_clean_linker_2, # of connection points: 2
#     Edge 76, Type (0, 1), BuildingBlock: XUDNAN_clean_linker_2, # of connection points: 2
#     Edge 77, Type (0, 1), BuildingBlock: XUDNAN_clean_linker_2, # of connection points: 2
#     Edge 78, Type (0, 1), BuildingBlock: XUDNAN_clean_linker_2, # of connection points: 2
#     Edge 79, Type (0, 1), BuildingBlock: XUDNAN_clean_linker_2, # of connection points: 2
#     Edge 80, Type (0, 1), BuildingBlock: XUDNAN_clean_linker_2, # of connection points: 2
#     Edge 81, Type (0, 1), BuildingBlock: XUDNAN_clean_linker_2, # of connection points: 2
#     Edge 82, Type (0, 1), BuildingBlock: XUDNAN_clean_linker_2, # of connection points: 2
#     Edge 83, Type (0, 1), BuildingBlock: XUDNAN_clean_linker_2, # of connection points: 2
#     Edge 84, Type (0, 1), BuildingBlock: XUDNAN_clean_linker_2, # of connection points: 2
#     Edge 85, Type (0, 1), BuildingBlock: XUDNAN_clean_linker_2, # of connection points: 2
#     Edge 86, Type (0, 1), BuildingBlock: XUDNAN_clean_linker_2, # of connection points: 2
#     Edge 87, Type (0, 1), BuildingBlock: XUDNAN_clean_linker_2, # of connection points: 2
#     Edge 88, Type (0, 1), BuildingBlock: XUDNAN_clean_linker_2, # of connection points: 2
#     Edge 89, Type (0, 1), BuildingBlock: XUDNAN_clean_linker_2, # of connection points: 2
#     Edge 90, Type (0, 1), BuildingBlock: XUDNAN_clean_linker_2, # of connection points: 2
#     Edge 91, Type (0, 1), BuildingBlock: XUDNAN_clean_linker_2, # of connection points: 2
#     Edge 92, Type (0, 1), BuildingBlock: XUDNAN_clean_linker_2, # of connection points: 2
#     Edge 93, Type (0, 1), BuildingBlock: XUDNAN_clean_linker_2, # of connection points: 2
#     Edge 94, Type (0, 1), BuildingBlock: XUDNAN_clean_linker_2, # of connection points: 2
#     Edge 95, Type (0, 1), BuildingBlock: XUDNAN_clean_linker_2, # of connection points: 2
#     Edge 96, Type (0, 1), BuildingBlock: XUDNAN_clean_linker_2, # of connection points: 2
#     Edge 97, Type (0, 1), BuildingBlock: XUDNAN_clean_linker_2, # of connection points: 2
#     Edge 98, Type (0, 1), BuildingBlock: XUDNAN_clean_linker_2, # of connection points: 2
#     Edge 99, Type (0, 1), BuildingBlock: XUDNAN_clean_linker_2, # of connection points: 2
#     Edge 100, Type (0, 1), BuildingBlock: XUDNAN_clean_linker_2, # of connection points: 2
#     Edge 101, Type (0, 1), BuildingBlock: XUDNAN_clean_linker_2, # of connection points: 2
#     Edge 102, Type (0, 1), BuildingBlock: XUDNAN_clean_linker_2, # of connection points: 2
#     Edge 103, Type (0, 1), BuildingBlock: XUDNAN_clean_linker_2, # of connection points: 2
#     Edge 104, Type (0, 1), BuildingBlock: XUDNAN_clean_linker_2, # of connection points: 2
#     Edge 105, Type (0, 1), BuildingBlock: XUDNAN_clean_linker_2, # of connection points: 2
#     Edge 106, Type (0, 1), BuildingBlock: XUDNAN_clean_linker_2, # of connection points: 2
#     Edge 107, Type (0, 1), BuildingBlock: XUDNAN_clean_linker_2, # of connection points: 2
#     Edge 108, Type (0, 1), BuildingBlock: XUDNAN_clean_linker_2, # of connection points: 2
#     Edge 109, Type (0, 1), BuildingBlock: XUDNAN_clean_linker_2, # of connection points: 2
#     Edge 110, Type (0, 1), BuildingBlock: XUDNAN_clean_linker_2, # of connection points: 2
#     Edge 111, Type (0, 1), BuildingBlock: XUDNAN_clean_linker_2, # of connection points: 2
#     Edge 112, Type (0, 1), BuildingBlock: XUDNAN_clean_linker_2, # of connection points: 2
#     Edge 113, Type (0, 1), BuildingBlock: XUDNAN_clean_linker_2, # of connection points: 2
#     Edge 114, Type (0, 1), BuildingBlock: XUDNAN_clean_linker_2, # of connection points: 2
#     Edge 115, Type (0, 1), BuildingBlock: XUDNAN_clean_linker_2, # of connection points: 2
#     Edge 116, Type (0, 1), BuildingBlock: XUDNAN_clean_linker_2, # of connection points: 2
#     Edge 117, Type (0, 1), BuildingBlock: XUDNAN_clean_linker_2, # of connection points: 2
#     Edge 118, Type (0, 1), BuildingBlock: XUDNAN_clean_linker_2, # of connection points: 2
#     Edge 119, Type (0, 1), BuildingBlock: XUDNAN_clean_linker_2, # of connection points: 2
#     Edge 120, Type (0, 1), BuildingBlock: XUDNAN_clean_linker_2, # of connection points: 2
#     Edge 121, Type (0, 1), BuildingBlock: XUDNAN_clean_linker_2, # of connection points: 2
#     Edge 122, Type (0, 1), BuildingBlock: XUDNAN_clean_linker_2, # of connection points: 2
#     Edge 123, Type (0, 1), BuildingBlock: XUDNAN_clean_linker_2, # of connection points: 2
#     Edge 124, Type (0, 1), BuildingBlock: XUDNAN_clean_linker_2, # of connection points: 2
#     Edge 125, Type (0, 1), BuildingBlock: XUDNAN_clean_linker_2, # of connection points: 2
#     Edge 126, Type (0, 1), BuildingBlock: XUDNAN_clean_linker_2, # of connection points: 2
#     Edge 127, Type (0, 1), BuildingBlock: XUDNAN_clean_linker_2, # of connection points: 2
#     Edge 128, Type (0, 1), BuildingBlock: XUDNAN_clean_linker_2, # of connection points: 2
#     Edge 129, Type (0, 1), BuildingBlock: XUDNAN_clean_linker_2, # of connection points: 2
#     Edge 130, Type (0, 1), BuildingBlock: XUDNAN_clean_linker_2, # of connection points: 2
#     Edge 131, Type (0, 1), BuildingBlock: XUDNAN_clean_linker_2, # of connection points: 2
#     Edge 132, Type (0, 1), BuildingBlock: XUDNAN_clean_linker_2, # of connection points: 2
#     Edge 133, Type (0, 1), BuildingBlock: XUDNAN_clean_linker_2, # of connection points: 2
#     Edge 134, Type (0, 1), BuildingBlock: XUDNAN_clean_linker_2, # of connection points: 2
#     Edge 135, Type (0, 1), BuildingBlock: XUDNAN_clean_linker_2, # of connection points: 2
# Relax obj value: 0.122
# Max RMSD: 0.322
# Mean RMSD: 0.150
data_MOF--net-gar--node1-CEKHIL_clean_sbu_0--node2-KUMBUR_clean_sbu_0--edge1-XUDNAN_clean_linker_2
_symmetry_space_group_name_H-M    P1
_symmetry_Int_Tables_number       1
_symmetry_cell_setting            triclinic
loop_
_symmetry_equiv_pos_as_xyz
'x, y, z'
_cell_length_a     61.394828
_cell_length_b     55.786103
_cell_length_c     55.178428
_cell_angle_alpha  100.31186
_cell_angle_beta   93.677794
_cell_angle_gamma 101.83002
loop_
_atom_site_label
_atom_site_type_symbol
_atom_site_fract_x
_atom_site_fract_y
_atom_site_fract_z
_atom_type_partial_charge
Co0 Co 0.12984 0.3347 0.39357 0.0
O1 O 0.16126 0.33619 0.39208 0.0
O2 O 0.13415 0.31531 0.36267 0.0
C3 C 0.13328 0.37566 0.40758 0.0
O4 O 0.09615 0.32937 0.38721 0.0
Co5 Co 0.10846 0.35084 0.44164 0.0
O6 O 0.0821 0.35065 0.41867 0.0
C7 C 0.12715 0.30556 0.43382 0.0
C8 C 0.15539 0.32246 0.37004 0.0
C9 C 0.08016 0.33815 0.39666 0.0
O10 O 0.12718 0.30534 0.41047 0.0
O11 O 0.12251 0.3233 0.44936 0.0
O12 O 0.13341 0.36732 0.38403 0.0
O13 O 0.13251 0.35946 0.42161 0.0
Co14 Co 1.00901 0.77429 0.67117 0.0
O15 O 0.97767 0.77486 0.67174 0.0
O16 O 0.99985 0.77003 0.70308 0.0
C17 C 0.01827 0.80787 0.65357 0.0
O18 O 0.04149 0.77277 0.67837 0.0
Co19 Co 0.03297 0.76852 0.62301 0.0
O20 O 0.06104 0.77369 0.64538 0.0
C21 C 1.00279 0.72505 0.63603 0.0
C22 C 0.98029 0.7722 0.6946 0.0
C23 C 0.0598 0.77316 0.66824 0.0
O24 O 1.00177 0.73728 0.65791 0.0
O25 O 1.01158 0.73521 0.61886 0.0
O26 O 0.01689 0.81088 0.67729 0.0
O27 O 1.01285 0.78521 0.64141 0.0
Co28 Co 0.62939 0.83815 0.89172 0.0
O29 O 0.66053 0.8392 0.88966 0.0
O30 O 0.63277 0.81872 0.86053 0.0
C31 C 0.63345 0.8791 0.9053 0.0
O32 O 0.5958 0.83355 0.88644 0.0
Co33 Co 0.61039 0.8548 0.94134 0.0
O34 O 0.58303 0.85405 0.91952 0.0
C35 C 0.62598 0.80758 0.9312 0.0
C36 C 0.65406 0.8257 0.86767 0.0
C37 C 0.58031 0.84207 0.89723 0.0
O38 O 0.62649 0.80856 0.90817 0.0
O39 O 0.62215 0.82513 0.94763 0.0
O40 O 0.63287 0.87027 0.88177 0.0
O41 O 0.6332 0.86329 0.91978 0.0
Co42 Co 0.51271 0.27458 0.17046 0.0
O43 O 0.48198 0.27551 0.17079 0.0
O44 O 0.50307 0.26831 0.20179 0.0
C45 C 0.52188 0.30935 0.15496 0.0
O46 O 0.54507 0.27258 0.1765 0.0
Co47 Co 0.53452 0.27077 0.12062 0.0
O48 O 0.5627 0.27445 0.14209 0.0
C49 C 0.50484 0.22659 0.13312 0.0
C50 C 0.48381 0.27138 0.19314 0.0
C51 C 0.56261 0.27335 0.16495 0.0
O52 O 0.50479 0.23801 0.15551 0.0
O53 O 0.51329 0.23741 0.11616 0.0
O54 O 0.521 0.31121 0.17868 0.0
O55 O 0.51612 0.28715 0.14182 0.0
Co56 Co 0.10417 0.82548 0.12537 0.0
O57 O 0.07158 0.82083 0.11947 0.0
O58 O 0.08939 0.81899 0.15459 0.0
C59 C 0.10963 0.86338 0.10973 0.0
O60 O 0.13671 0.83059 0.1425 0.0
Co61 Co 0.1323 0.82044 0.09071 0.0
O62 O 0.15864 0.82046 0.11408 0.0
C63 C 0.10685 0.77329 0.09457 0.0
C64 C 0.07051 0.81809 0.14221 0.0
C65 C 0.15581 0.82623 0.13673 0.0
O66 O 0.10129 0.7871 0.11362 0.0
O67 O 0.11882 0.78362 0.07975 0.0
O68 O 0.10712 0.86165 0.13243 0.0
O69 O 0.10983 0.84193 0.09544 0.0
Co70 Co 0.53529 0.77874 0.43205 0.0
O71 O 0.56799 0.78695 0.43763 0.0
O72 O 0.54862 0.7644 0.40327 0.0
C73 C 0.53225 0.81986 0.44659 0.0
O74 O 0.50194 0.76856 0.41597 0.0
Co75 Co 0.50447 0.78081 0.46919 0.0
O76 O 0.4812 0.78416 0.44355 0.0
C77 C 0.52819 0.73963 0.46668 0.0
C78 C 0.5681 0.7749 0.41525 0.0
C79 C 0.48359 0.7756 0.42118 0.0
O80 O 0.53465 0.7461 0.44636 0.0
O81 O 0.51659 0.75247 0.47993 0.0
O82 O 0.5361 0.8116 0.42416 0.0
O83 O 0.53092 0.80333 0.46077 0.0
Co84 Co 0.6035 0.32575 0.62333 0.0
O85 O 0.57116 0.31951 0.6145 0.0
O86 O 0.58674 0.31914 0.65134 0.0
C87 C 0.60978 0.36211 0.60547 0.0
O88 O 0.63557 0.33072 0.64214 0.0
Co89 Co 0.63691 0.32366 0.58968 0.0
O90 O 0.66211 0.33091 0.61661 0.0
C91 C 0.60985 0.27521 0.59375 0.0
C92 C 0.56851 0.31676 0.63705 0.0
C93 C 0.65643 0.33183 0.6384 0.0
O94 O 0.60223 0.28787 0.61205 0.0
O95 O 0.62308 0.28641 0.58031 0.0
O96 O 0.6053 0.36229 0.62813 0.0
O97 O 0.61124 0.34002 0.59373 0.0
Co98 Co 0.03357 0.2784 0.93052 0.0
O99 O 0.06629 0.28466 0.93447 0.0
O100 O 0.04531 0.26653 0.89965 0.0
C101 C 0.03212 0.31859 0.95068 0.0
O102 O 0.99958 0.27138 0.91624 0.0
Co103 Co 1.0055 0.27779 0.97196 0.0
O104 O 0.98132 0.28227 0.94856 0.0
C105 C 0.02832 0.23632 0.96208 0.0
C106 C 0.06531 0.27486 0.91114 0.0
C107 C 0.98185 0.27719 0.92519 0.0
O108 O 0.03236 0.24364 0.9413 0.0
O109 O 0.01884 0.24894 0.9782 0.0
O110 O 0.03545 0.31355 0.92751 0.0
O111 O 0.03102 0.29963 0.96163 0.0
Co112 Co 0.43021 0.05339 0.32232 0.0
O113 O 0.43515 0.08811 0.32139 0.0
O114 O 0.40279 0.0598 0.31074 0.0
C115 C 0.4483 0.05612 0.35882 0.0
O116 O 0.41905 0.01672 0.32054 0.0
Co117 Co 0.4713 0.0285 0.32268 0.0
O118 O 0.44745 0.99745 0.31284 0.0
C119 C 0.45517 0.04301 0.27781 0.0
C120 C 0.41436 0.08235 0.31198 0.0
C121 C 0.42675 0.99718 0.31403 0.0
O122 O 0.43728 0.04619 0.28726 0.0
O123 O 0.4721 0.03905 0.28989 0.0
O124 O 0.42796 0.05951 0.35789 0.0
O125 O 0.45763 0.05467 0.33856 0.0
Co126 Co 0.30607 0.19376 0.50893 0.0
O127 O 0.33843 0.2031 0.51391 0.0
O128 O 0.31821 0.16557 0.5144 0.0
C129 C 0.30297 0.21195 0.47521 0.0
O130 O 0.27282 0.17595 0.50351 0.0
Co131 Co 0.27692 0.23245 0.51376 0.0
O132 O 0.25077 0.20368 0.50682 0.0
C133 C 0.29962 0.22412 0.55895 0.0
C134 C 0.3379 0.18017 0.51601 0.0
C135 C 0.25336 0.18131 0.50346 0.0
O136 O 0.30438 0.20446 0.54609 0.0
O137 O 0.29086 0.2394 0.54898 0.0
O138 O 0.30719 0.18981 0.47289 0.0
O139 O 0.30203 0.22288 0.49777 0.0
Co140 Co 0.19189 1.01357 0.78097 0.0
O141 O 0.18816 0.9751 0.77794 0.0
O142 O 0.2191 0.99791 0.77367 0.0
C143 C 0.17327 0.02076 0.81996 0.0
O144 O 0.20931 0.05199 0.78349 0.0
Co145 Co 0.16188 0.04988 0.78374 0.0
O146 O 0.18756 0.07944 0.79044 0.0
C147 C 0.16443 0.02354 0.73234 0.0
C148 C 0.20918 0.97544 0.77505 0.0
C149 C 0.20684 0.0752 0.78726 0.0
O150 O 0.17883 1.01184 0.74219 0.0
O151 O 0.15574 0.03896 0.74655 0.0
O152 O 0.19347 0.0169 0.81914 0.0
O153 O 0.16493 0.0205 0.79769 0.0
Co154 Co 0.33024 0.94661 0.01261 0.0
O155 O 0.29852 0.93596 0.00979 0.0
O156 O 0.3176 0.97555 0.01664 0.0
C157 C 0.33541 0.91902 0.98049 0.0
O158 O 0.36306 0.96382 0.01618 0.0
Co159 Co 0.35948 0.90869 0.02261 0.0
O160 O 0.3831 0.93391 0.01278 0.0
C161 C 0.33166 0.92877 0.05947 0.0
C162 C 0.29853 0.95956 0.01446 0.0
C163 C 0.38138 0.95639 0.01336 0.0
O164 O 0.3307 0.94714 0.04886 0.0
O165 O 0.34046 0.91057 0.05073 0.0
O166 O 0.33037 0.93973 0.97675 0.0
O167 O 0.33521 0.91511 1.00271 0.0
Co168 Co 0.32813 0.40258 0.03732 0.0
O169 O 0.29607 0.39271 0.03066 0.0
O170 O 0.31431 0.43035 0.04965 0.0
C171 C 0.3348 0.38717 0.99777 0.0
O172 O 0.36159 0.42031 0.04527 0.0
Co173 Co 0.35414 0.36271 0.036 0.0
O174 O 0.38005 0.39 0.03424 0.0
C175 C 0.32956 0.37164 0.07859 0.0
C176 C 0.29528 0.41538 0.04031 0.0
C177 C 0.37978 0.41307 0.04034 0.0
O178 O 0.3264 0.39118 0.0706 0.0
O179 O 0.33893 0.35575 0.06612 0.0
O180 O 0.33044 0.40901 1.00423 0.0
O181 O 0.33282 0.37365 0.01482 0.0
Co182 Co 0.80394 0.14363 0.03231 0.0
O183 O 0.83506 0.1517 0.04376 0.0
O184 O 0.81224 0.11424 0.0395 0.0
C185 C 0.8089 0.16323 1.00075 0.0
O186 O 0.77135 0.12812 0.02123 0.0
Co187 Co 0.77602 0.18331 0.02642 0.0
O188 O 0.75339 0.1548 1.00703 0.0
C189 C 0.7864 0.17064 0.07562 0.0
C190 C 0.83229 0.12827 0.04499 0.0
C191 C 0.75419 0.13304 0.01041 0.0
O192 O 0.79652 0.15363 0.06671 0.0
O193 O 0.77836 0.18458 0.06301 0.0
O194 O 0.8111 0.14026 0.99805 0.0
O195 O 0.80405 0.17346 0.02191 0.0
Co196 Co 0.21078 0.54124 0.25251 0.0
O197 O 0.20603 0.50614 0.23918 0.0
O198 O 0.23563 0.53506 0.23515 0.0
C199 C 0.20125 0.53692 0.29038 0.0
O200 O 0.22257 0.57828 0.26398 0.0
Co201 Co 0.17465 0.56808 0.27469 0.0
O202 O 0.20049 0.59569 0.28937 0.0
C203 C 0.1782 0.55761 0.22016 0.0
C204 C 0.22583 0.51158 0.2318 0.0
C205 C 0.21877 0.59648 0.27961 0.0
O206 O 0.19478 0.54708 0.22212 0.0
O207 O 0.168 0.56574 0.23835 0.0
O208 O 0.22138 0.536 0.285 0.0
O209 O 0.1875 0.53907 0.27269 0.0
Co210 Co 0.83037 0.90293 0.53935 0.0
O211 O 0.79792 0.89876 0.53407 0.0
O212 O 0.82172 0.93365 0.55208 0.0
C213 C 0.83364 0.88367 0.49979 0.0
O214 O 0.86438 0.91726 0.5465 0.0
Co215 Co 0.8561 0.86077 0.53405 0.0
O216 O 0.88187 0.88734 0.53103 0.0
C217 C 0.83088 0.87012 0.57763 0.0
C218 C 0.80131 0.92248 0.54349 0.0
C219 C 0.88201 0.91016 0.53939 0.0
O220 O 0.82779 0.89095 0.57234 0.0
O221 O 0.84046 0.85536 0.5638 0.0
O222 O 0.83231 0.90695 0.50476 0.0
O223 O 0.8322 0.87255 0.51844 0.0
Co224 Co 0.94672 0.08393 0.28539 0.0
O225 O 0.949 0.12271 0.2905 0.0
O226 O 0.91929 0.09714 0.27441 0.0
C227 C 0.9643 0.08104 0.32666 0.0
O228 O 0.93012 0.04498 0.27921 0.0
Co229 Co 0.97908 0.04968 0.28591 0.0
O230 O 0.9537 0.02179 0.28917 0.0
C231 C 0.97642 0.07027 0.23964 0.0
C232 C 0.92816 0.12067 0.28203 0.0
C233 C 0.93378 0.02357 0.2833 0.0
O234 O 0.95964 0.08011 0.24847 0.0
O235 O 0.98692 0.05908 0.2533 0.0
O236 O 0.9446 0.08594 0.32283 0.0
O237 O 0.97355 0.07988 0.30617 0.0
Co238 Co 0.30895 0.64732 0.53477 0.0
O239 O 0.34037 0.65585 0.5451 0.0
O240 O 0.31867 0.61738 0.53688 0.0
C241 C 0.31201 0.67225 0.50729 0.0
O242 O 0.27642 0.63109 0.5234 0.0
Co243 Co 0.27854 0.68579 0.53605 0.0
O244 O 0.25777 0.65867 0.51242 0.0
C245 C 0.29241 0.66794 0.58149 0.0
C246 C 0.33836 0.63198 0.54328 0.0
C247 C 0.25923 0.63638 0.513 0.0
O248 O 0.3023 0.65197 0.5699 0.0
O249 O 0.28353 0.68321 0.57156 0.0
O250 O 0.31518 0.64971 0.50088 0.0
O251 O 0.30723 0.67867 0.5295 0.0
Co252 Co 0.44592 0.58373 0.78609 0.0
O253 O 0.44831 0.62243 0.79061 0.0
O254 O 0.41767 0.59701 0.77792 0.0
C255 C 0.46687 0.58062 0.82561 0.0
O256 O 0.42952 0.54494 0.7815 0.0
Co257 Co 0.47877 0.54985 0.78213 0.0
O258 O 0.45393 0.52039 0.78304 0.0
C259 C 0.47381 0.57202 0.73788 0.0
C260 C 0.42713 0.62055 0.78365 0.0
C261 C 0.43372 0.52282 0.78179 0.0
O262 O 0.45659 0.58 0.748 0.0
O263 O 0.48584 0.56127 0.75028 0.0
O264 O 0.44692 0.58544 0.82431 0.0
O265 O 0.47401 0.57982 0.80396 0.0
Co266 Co 0.70563 0.04322 0.75559 0.0
O267 O 0.69314 1.00822 0.74665 0.0
O268 O 0.72579 0.02711 0.73685 0.0
C269 C 0.69921 0.04573 0.79541 0.0
O270 O 0.72423 0.07845 0.76236 0.0
Co271 Co 0.67784 0.08124 0.77908 0.0
O272 O 0.70749 0.10436 0.78701 0.0
C273 C 0.67565 0.06396 0.7242 0.0
C274 C 0.71237 1.00639 0.73892 0.0
C275 C 0.72418 0.09953 0.77611 0.0
O276 O 0.6896 0.04978 0.72552 0.0
O277 O 0.66858 0.076 0.74296 0.0
O278 O 0.71713 0.03906 0.78825 0.0
O279 O 0.68557 0.04953 0.77857 0.0
Co280 Co 0.80728 0.69216 0.01022 0.0
O281 O 0.8397 0.70058 0.01535 0.0
O282 O 0.81868 0.66459 0.01937 0.0
C283 C 0.80579 0.70541 0.97285 0.0
O284 O 0.77356 0.67534 1.0059 0.0
Co285 Co 0.78056 0.73076 0.01055 0.0
O286 O 0.75339 0.70348 1.00051 0.0
C287 C 0.80071 0.72629 0.05841 0.0
C288 C 0.83857 0.67849 0.02015 0.0
C289 C 0.75462 0.68123 1.00163 0.0
O290 O 0.80603 0.70653 0.04669 0.0
O291 O 0.79179 0.7405 0.04701 0.0
O292 O 0.80813 0.68323 0.97472 0.0
O293 O 0.80525 0.72004 0.99395 0.0
Co294 Co 0.93235 0.56021 0.81963 0.0
O295 O 0.93431 0.5953 0.82224 0.0
O296 O 0.90379 0.56478 0.80978 0.0
C297 C 0.9512 0.56374 0.85601 0.0
O298 O 0.92274 0.52311 0.81514 0.0
Co299 Co 0.97233 0.53414 0.82192 0.0
O300 O 0.94982 0.50342 0.82333 0.0
C301 C 0.95521 0.54637 0.77473 0.0
C302 C 0.91302 0.58844 0.81478 0.0
C303 C 0.92943 0.5034 0.8175 0.0
O304 O 0.94012 0.55642 0.78473 0.0
O305 O 0.96953 0.53773 0.78651 0.0
O306 O 0.92999 0.56361 0.85485 0.0
O307 O 0.96045 0.56267 0.83566 0.0
Co308 Co 0.83744 0.45105 0.51037 0.0
O309 O 0.80666 0.45094 0.50341 0.0
O310 O 0.83111 0.48054 0.53004 0.0
C311 C 0.84405 0.44071 0.47128 0.0
O312 O 0.87077 0.45673 0.52047 0.0
Co313 Co 0.85064 0.39949 0.49519 0.0
O314 O 0.88104 0.4209 0.50483 0.0
C315 C 0.82378 0.40833 0.5362 0.0
C316 C 0.81086 0.47195 0.51906 0.0
C317 C 0.88566 0.44376 0.51591 0.0
O318 O 0.82992 0.43194 0.53727 0.0
O319 O 0.82771 0.39202 0.51856 0.0
O320 O 0.84423 0.46392 0.48034 0.0
O321 O 0.83731 0.42488 0.48497 0.0
Co322 Co 0.69253 0.51554 0.28136 0.0
O323 O 0.69057 0.47735 0.27996 0.0
O324 O 0.71983 0.50063 0.27228 0.0
C325 C 0.67595 0.5231 0.32177 0.0
O326 O 0.70906 0.55395 0.28279 0.0
Co327 Co 0.66208 0.54993 0.28435 0.0
O328 O 0.68678 0.58051 0.29085 0.0
C329 C 0.66374 0.52441 0.23278 0.0
C330 C 0.71129 0.47827 0.27531 0.0
C331 C 0.70614 0.57694 0.28701 0.0
O332 O 0.6781 0.51266 0.24268 0.0
O333 O 0.65519 0.53984 0.2471 0.0
O334 O 0.69641 0.52057 0.31947 0.0
O335 O 0.66583 0.52146 0.29991 0.0
Tb336 Tb 0.0457 0.02978 0.0126 0.0
C337 C 0.11296 0.11418 0.07896 0.0
C338 C 0.12348 0.14595 0.05441 0.0
C339 C 0.1296 0.15726 0.0992 0.0
C340 C 0.11434 0.12088 0.05595 0.0
C341 C 0.1211 0.13232 0.10079 0.0
C342 C 0.13077 0.16405 0.07609 0.0
C343 C 0.11513 0.09946 0.12427 0.0
N344 N 0.1055 0.0897 0.07997 0.0
C345 C 0.10768 0.0821 0.10226 0.0
C346 C 0.12163 0.12472 0.12357 0.0
Tb347 Tb 0.09673 0.0627 0.04204 0.0
N348 N 0.10768 0.10283 0.03514 0.0
C349 C 0.11041 0.109 0.01235 0.0
C350 C 0.12566 0.15211 0.03112 0.0
C351 C 0.11914 0.13353 0.01003 0.0
H352 H 0.10309 0.06248 0.10307 0.0
H353 H 0.1208 0.13805 0.99186 0.0
H354 H 0.13785 0.18329 0.07516 0.0
H355 H 0.11619 0.09328 0.14173 0.0
H356 H 0.10529 0.09564 0.99547 0.0
H357 H 0.02771 0.95484 0.06405 0.0
H358 H 0.1326 0.1711 0.02923 0.0
H359 H 0.03547 0.0274 0.95175 0.0
H360 H 0.03475 0.99793 0.05877 0.0
H361 H 0.02753 0.99545 0.91349 0.0
H362 H 0.13593 0.17134 0.11576 0.0
H363 H 0.02594 0.92074 0.02815 0.0
H364 H 0.02514 0.90736 0.98232 0.0
H365 H 0.12785 0.13809 0.14064 0.0
H366 H 0.02476 0.9184 0.94116 0.0
N367 N 0.03877 0.9897 0.02018 0.0
C368 C 0.03445 0.98385 0.04274 0.0
C369 C 0.02948 0.93994 0.02568 0.0
C370 C 0.03196 0.94571 1.00225 0.0
C371 C 0.03033 0.95909 0.04593 0.0
C372 C 0.03662 0.97106 1.00002 0.0
H373 H 0.02518 0.95108 0.91536 0.0
N374 N 0.03914 1.00176 0.97541 0.0
C375 C 0.03033 0.99011 0.93115 0.0
C376 C 0.03666 0.97728 0.97684 0.0
C377 C 0.03488 1.00819 0.95296 0.0
C378 C 0.02909 0.96511 0.93228 0.0
C379 C 0.03175 0.95833 0.95531 0.0
O380 O 0.02121 0.05053 0.02127 0.0
O381 O 0.06586 0.0677 0.02387 0.0
O382 O 0.07217 0.06714 0.07174 0.0
O383 O 0.04024 0.03816 0.05333 0.0
O384 O 0.04909 0.05824 0.98936 0.0
O385 O 1.01172 1.01237 1.00255 0.0
O386 O 0.11923 0.04933 0.06357 0.0
O387 O 0.07213 0.02731 0.03921 0.0
O388 O 0.07109 0.02523 0.98371 0.0
O389 O 0.10175 0.05621 1.00134 0.0
O390 O 0.1027 0.02448 0.03153 0.0
O391 O 0.13059 0.07168 0.03613 0.0
C392 C 0.06145 0.07685 1.00479 0.0
C393 C 0.98787 0.03897 0.99476 0.0
C394 C 0.95633 0.05874 0.99243 0.0
C395 C 0.97351 0.05264 1.00634 0.0
C396 C 0.95376 0.05123 0.96651 0.0
C397 C 0.98511 0.0313 0.96889 0.0
C398 C 0.96817 0.0376 0.95483 0.0
C399 C 0.05115 0.05474 0.07324 0.0
C400 C 1.00484 0.03243 0.01063 0.0
C401 C 0.0284 0.93318 0.95749 0.0
C402 C 0.02861 0.92689 0.98092 0.0
C403 C 0.08411 1.01112 0.03503 0.0
C404 C 0.15798 0.06734 0.06654 0.0
C405 C 0.17273 0.05153 0.06209 0.0
C406 C 0.19388 0.05755 0.07523 0.0
C407 C 0.20045 0.07964 0.0931 0.0
C408 C 0.16454 0.08971 0.08403 0.0
C409 C 0.18578 0.09579 0.09734 0.0
C410 C 0.0914 0.03906 0.98172 0.0
C411 C 0.13604 0.05898 0.05244 0.0
H412 H 0.97531 0.05783 0.02641 0.0
H413 H 0.9406 0.0558 0.95535 0.0
H414 H 0.99567 0.02021 0.95958 0.0
H415 H 0.96605 0.03166 0.93488 0.0
H416 H 0.16766 0.03423 0.04845 0.0
H417 H 0.21686 0.08446 0.10343 0.0
H418 H 0.15345 0.10235 0.08743 0.0
H419 H 0.19087 0.11299 0.11094 0.0
Tb420 Tb 0.33295 0.79029 0.25259 0.0
C421 C 0.29294 0.85304 0.33605 0.0
C422 C 0.32468 0.87206 0.3666 0.0
C423 C 0.29097 0.88833 0.36837 0.0
C424 C 0.31441 0.85376 0.34561 0.0
C425 C 0.28091 0.87028 0.34741 0.0
C426 C 0.31279 0.88915 0.37801 0.0
C427 C 0.24913 0.84939 0.31789 0.0
N428 N 0.28367 0.83517 0.31594 0.0
C429 C 0.26153 0.83246 0.30765 0.0
C430 C 0.25891 0.86853 0.33778 0.0
Tb431 Tb 0.30355 0.80487 0.30428 0.0
N432 N 0.32565 0.83741 0.3336 0.0
C433 C 0.34816 0.84052 0.34047 0.0
C434 C 0.34684 0.87315 0.37511 0.0
C435 C 0.35882 0.85784 0.3615 0.0
H436 H 0.2532 0.81696 0.29311 0.0
H437 H 0.37644 0.85968 0.36691 0.0
H438 H 0.32043 0.90329 0.3941 0.0
H439 H 0.23186 0.84729 0.31079 0.0
H440 H 0.35856 0.8305 0.32961 0.0
H441 H 0.26061 0.73062 0.19244 0.0
H442 H 0.35525 0.8868 0.39122 0.0
H443 H 0.3851 0.78323 0.26135 0.0
H444 H 0.2788 0.76477 0.22545 0.0
H445 H 0.40703 0.75226 0.24683 0.0
H446 H 0.28198 0.90166 0.37734 0.0
H447 H 0.28054 0.6982 0.17558 0.0
H448 H 0.31519 0.68148 0.17638 0.0
H449 H 0.24916 0.88141 0.34597 0.0
H450 H 0.35453 0.68661 0.19213 0.0
N451 N 0.31099 0.75511 0.22624 0.0
C452 C 0.28893 0.7525 0.21753 0.0
C453 C 0.28919 0.71399 0.18971 0.0
C454 C 0.31128 0.71597 0.1991 0.0
C455 C 0.27797 0.73234 0.199 0.0
C456 C 0.32189 0.737 0.21747 0.0
H457 H 0.38878 0.71275 0.21838 0.0
N458 N 0.35392 0.76073 0.24312 0.0
C459 C 0.38925 0.74832 0.24115 0.0
C460 C 0.34396 0.73976 0.22643 0.0
C461 C 0.37664 0.76575 0.24946 0.0
C462 C 0.3789 0.72608 0.22513 0.0
C463 C 0.35612 0.72178 0.21714 0.0
O464 O 0.363 0.80948 0.24167 0.0
O465 O 0.32322 0.81954 0.27781 0.0
O466 O 0.28858 0.82052 0.27454 0.0
O467 O 0.30205 0.80229 0.23892 0.0
O468 O 0.35595 0.82376 0.27376 0.0
O469 O 0.33171 0.7975 0.21674 0.0
O470 O 0.27193 0.78588 0.31006 0.0
O471 O 0.31376 0.77601 0.27937 0.0
O472 O 0.35021 0.77777 0.28309 0.0
O473 O 0.33412 0.79243 0.31851 0.0
O474 O 0.28094 0.77153 0.28219 0.0
O475 O 0.30024 0.79397 0.33897 0.0
C476 C 0.34143 0.83514 0.28341 0.0
C477 C 0.36411 0.81837 0.20036 0.0
C478 C 0.36254 0.84322 0.16899 0.0
C479 C 0.35196 0.82959 0.18537 0.0
C480 C 0.38545 0.84479 0.16685 0.0
C481 C 0.38699 0.81987 0.19838 0.0
C482 C 0.39757 0.83284 0.18136 0.0
C483 C 0.28711 0.81381 0.24995 0.0
C484 C 0.35305 0.80785 0.21977 0.0
C485 C 0.34547 0.70059 0.19941 0.0
C486 C 0.32311 0.69772 0.19038 0.0
C487 C 0.29581 0.76014 0.27364 0.0
C488 C 0.26352 0.77275 0.34806 0.0
C489 C 0.27203 0.76427 0.36811 0.0
C490 C 0.25751 0.75276 0.38309 0.0
C491 C 0.23433 0.74962 0.37819 0.0
C492 C 0.24025 0.76959 0.34296 0.0
C493 C 0.22572 0.75806 0.35805 0.0
C494 C 0.35025 0.78279 0.30766 0.0
C495 C 0.2789 0.7845 0.33236 0.0
H496 H 0.33448 0.82923 0.18772 0.0
H497 H 0.39394 0.85543 0.15426 0.0
H498 H 0.39666 0.81143 0.2102 0.0
H499 H 0.41525 0.83415 0.17986 0.0
H500 H 0.28997 0.76655 0.37212 0.0
H501 H 0.22305 0.74082 0.38994 0.0
H502 H 0.23331 0.77611 0.32746 0.0
H503 H 0.20783 0.75574 0.35418 0.0
Tb504 Tb 0.59504 0.04109 0.52119 0.0
C505 C 0.51769 1.00505 0.55749 0.0
C506 C 0.49909 0.9721 0.5233 0.0
C507 C 0.4976 0.96528 0.56545 0.0
C508 C 0.51221 0.9964 0.53237 0.0
C509 C 0.50962 0.98991 0.57438 0.0
C510 C 0.49238 0.95637 0.53993 0.0
C511 C 0.5227 0.02563 0.60745 0.0
N512 N 0.52924 0.029 0.56539 0.0
C513 C 0.53016 0.03988 0.58999 0.0
C514 C 0.51289 1.00034 0.59968 0.0
Tb515 Tb 0.54214 0.05 0.53462 0.0
N516 N 0.51906 1.01211 0.51684 0.0
C517 C 0.51155 1.00534 0.49217 0.0
C518 C 0.49277 0.96453 0.49784 0.0
C519 C 0.49866 0.98141 0.48228 0.0
H520 H 0.53686 0.05967 0.59645 0.0
H521 H 0.49324 0.97605 0.46264 0.0
H522 H 0.48258 0.93754 0.53328 0.0
H523 H 0.52425 0.03428 0.62685 0.0
H524 H 0.51519 0.01822 0.4799 0.0
H525 H 0.64728 0.10814 0.59683 0.0
H526 H 0.48282 0.94599 0.49012 0.0
H527 H 0.60126 0.03719 0.4595 0.0
H528 H 0.62522 0.06701 0.57633 0.0
H529 H 0.61332 0.06614 0.4321 0.0
H530 H 0.49159 0.95328 0.57813 0.0
H531 H 0.65606 0.14198 0.57314 0.0
H532 H 0.65423 0.15551 0.53219 0.0
H533 H 0.50688 0.98938 0.61321 0.0
H534 H 0.64433 0.14416 0.48708 0.0
N535 N 0.61911 0.07752 0.5416 0.0
C536 C 0.62782 0.08163 0.56583 0.0
C537 C 0.64596 0.12392 0.56406 0.0
C538 C 0.63868 0.11902 0.53878 0.0
C539 C 0.64095 0.10492 0.57749 0.0
C540 C 0.6255 0.09518 0.52787 0.0
H541 H 0.6295 0.11073 0.4495 0.0
N542 N 0.60834 0.06525 0.49278 0.0
C543 C 0.61482 0.07299 0.4519 0.0
C544 C 0.61963 0.08894 0.50263 0.0
C545 C 0.60783 0.05663 0.46773 0.0
C546 C 0.62392 0.09811 0.46178 0.0
C547 C 0.62719 0.10619 0.48747 0.0
O548 O 0.60479 1.01172 0.49861 0.0
O549 O 0.55982 0.02186 0.51749 0.0
O550 O 0.56483 0.05792 0.56882 0.0
O551 O 0.59251 0.03645 0.55898 0.0
O552 O 0.58246 1.00633 0.53405 0.0
O553 O 0.62741 0.03438 0.52924 0.0
O554 O 0.52809 0.07636 0.55702 0.0
O555 O 0.57736 0.06956 0.53839 0.0
O556 O 0.57346 0.03464 0.48641 0.0
O557 O 0.54448 0.05395 0.49674 0.0
O558 O 0.55432 0.08535 0.52293 0.0
O559 O 0.51165 0.05709 0.52123 0.0
C560 C 0.56185 1.00183 0.52495 0.0
C561 C 0.64311 1.01108 0.4964 0.0
C562 C 0.6789 0.99824 0.49329 0.0
C563 C 0.66226 1.00537 0.50774 0.0
C564 C 0.67587 0.99646 0.46748 0.0
C565 C 0.6408 1.00924 0.47058 0.0
C566 C 0.65707 1.00202 0.45631 0.0
C567 C 0.58033 0.04623 0.57509 0.0
C568 C 0.62432 0.01538 0.51092 0.0
C569 C 0.63885 0.13052 0.4984 0.0
C570 C 0.64457 0.13694 0.52405 0.0
C571 C 0.57508 0.08963 0.5311 0.0
C572 C 0.48899 0.07368 0.54999 0.0
C573 C 0.4762 0.08971 0.5422 0.0
C574 C 0.45538 0.09097 0.55117 0.0
C575 C 0.44778 0.07602 0.56829 0.0
C576 C 0.48075 0.05851 0.56649 0.0
C577 C 0.46032 0.05985 0.57571 0.0
C578 C 0.55739 0.04568 0.48067 0.0
C579 C 0.51097 0.07363 0.54082 0.0
H580 H 0.66413 1.00637 0.52759 0.0
H581 H 0.68811 0.9906 0.4558 0.0
H582 H 0.62606 1.01249 0.46115 0.0
H583 H 0.65493 1.00039 0.43641 0.0
H584 H 0.48243 0.10097 0.52898 0.0
H585 H 0.43221 0.07692 0.57619 0.0
H586 H 0.49004 0.04573 0.57233 0.0
H587 H 0.4542 0.04836 0.58876 0.0
Tb588 Tb 0.29327 0.30256 0.78361 0.0
C589 C 0.36645 0.26967 0.82036 0.0
C590 C 0.38197 0.30374 0.85473 0.0
C591 C 0.38109 0.2611 0.85922 0.0
C592 C 0.37152 0.29486 0.83027 0.0
C593 C 0.37227 0.2526 0.83433 0.0
C594 C 0.38587 0.28667 0.86945 0.0
C595 C 0.36436 0.22105 0.79698 0.0
N596 N 0.35826 0.26226 0.79617 0.0
C597 C 0.35907 0.23875 0.78394 0.0
C598 C 0.37039 0.22783 0.82245 0.0
Tb599 Tb 0.34779 0.29257 0.77717 0.0
N600 N 0.36782 0.31077 0.81531 0.0
C601 C 0.37641 0.33592 0.82312 0.0
C602 C 0.38899 0.32949 0.86333 0.0
C603 C 0.38672 0.3456 0.84723 0.0
H604 H 0.35452 0.23313 0.76417 0.0
H605 H 0.39282 0.36555 0.85338 0.0
H606 H 0.3935 0.29313 0.88838 0.0
H607 H 0.36388 0.20224 0.78732 0.0
H608 H 0.37543 0.34907 0.81131 0.0
H609 H 0.24609 0.22459 0.71314 0.0
H610 H 0.39695 0.33705 0.88201 0.0
H611 H 0.28709 0.36215 0.79043 0.0
H612 H 0.26368 0.24455 0.75447 0.0
H613 H 0.27911 0.39059 0.76345 0.0
H614 H 0.38524 0.24821 0.87037 0.0
H615 H 0.24276 0.24969 0.68103 0.0
H616 H 0.24758 0.29195 0.66995 0.0
H617 H 0.37472 0.21417 0.8325 0.0
H618 H 0.25735 0.33763 0.6835 0.0
N619 N 0.27266 0.28135 0.74646 0.0
C620 C 0.26341 0.25618 0.74099 0.0
C621 C 0.25092 0.25876 0.69933 0.0
C622 C 0.25858 0.28466 0.7055 0.0
C623 C 0.25281 0.24456 0.71737 0.0
C624 C 0.26919 0.29554 0.72959 0.0
H625 H 0.26863 0.37466 0.71854 0.0
N626 N 0.28338 0.33063 0.76094 0.0
C627 C 0.27828 0.37116 0.7556 0.0
C628 C 0.27503 0.32111 0.73702 0.0
C629 C 0.28288 0.35491 0.77081 0.0
C630 C 0.27244 0.36212 0.7303 0.0
C631 C 0.26987 0.33662 0.72087 0.0
O632 O 0.27981 0.32362 0.81218 0.0
O633 O 0.32692 0.30962 0.80232 0.0
O634 O 0.32356 0.25473 0.77517 0.0
O635 O 0.28989 0.26307 0.78748 0.0
O636 O 0.30123 0.29274 0.81913 0.0
O637 O 0.25962 0.28963 0.79044 0.0
O638 O 0.36316 0.27295 0.74891 0.0
O639 O 0.31407 0.28528 0.75843 0.0
O640 O 0.31745 0.34044 0.78552 0.0
O641 O 0.35189 0.33269 0.7756 0.0
O642 O 0.33979 0.30243 0.74186 0.0
O643 O 0.38003 0.30886 0.76975 0.0
C644 C 0.32214 0.30296 0.82257 0.0
C645 C 0.24003 0.31757 0.8141 0.0
C646 C 0.20415 0.31402 0.83247 0.0
C647 C 0.22226 0.30351 0.82447 0.0
C648 C 0.20384 0.33839 0.82938 0.0
C649 C 0.23896 0.34179 0.81124 0.0
C650 C 0.22097 0.35201 0.81867 0.0
C651 C 0.30289 0.247 0.78183 0.0
C652 C 0.26053 0.30784 0.80908 0.0
C653 C 0.26095 0.32599 0.69632 0.0
C654 C 0.25532 0.3 0.68863 0.0
C655 C 0.31894 0.29228 0.73841 0.0
C656 C 0.40328 0.28376 0.75084 0.0
C657 C 0.41616 0.28828 0.73101 0.0
C658 C 0.43832 0.28464 0.73129 0.0
C659 C 0.44713 0.27597 0.75133 0.0
C660 C 0.4126 0.27511 0.77055 0.0
C661 C 0.43431 0.27108 0.77065 0.0
C662 C 0.33858 0.34852 0.78032 0.0
C663 C 0.38122 0.2906 0.75196 0.0
H664 H 0.22291 0.28485 0.82707 0.0
H665 H 0.19013 0.34687 0.83504 0.0
H666 H 0.25221 0.35319 0.8038 0.0
H667 H 0.22045 0.37076 0.81641 0.0
H668 H 0.40924 0.2953 0.71583 0.0
H669 H 0.46399 0.27285 0.75196 0.0
H670 H 0.4033 0.272 0.78612 0.0
H671 H 0.44138 0.26444 0.78598 0.0
Tb672 Tb 0.06172 0.07248 0.54043 0.0
C673 C 0.09823 1.00128 0.46347 0.0
C674 C 0.06888 0.9855 0.42955 0.0
C675 C 0.10688 0.98178 0.42319 0.0
C676 C 0.07612 0.99746 0.45442 0.0
C677 C 0.11392 0.99348 0.44798 0.0
C678 C 0.08439 0.97779 0.414 0.0
C679 C 0.14225 1.0086 0.48275 0.0
N680 N 0.10432 1.01239 0.48759 0.0
C681 C 0.12608 0.01582 0.49743 0.0
C682 C 0.13615 0.99736 0.45791 0.0
Tb683 Tb 0.07601 0.02092 0.51089 0.0
N684 N 0.06164 1.00501 0.47009 0.0
C685 C 0.03938 1.00064 0.46176 0.0
C686 C 0.04622 0.98125 0.42113 0.0
C687 C 0.0314 0.98878 0.43737 0.0
H688 H 0.13128 0.0243 0.51659 0.0
H689 H 0.01379 0.98566 0.43109 0.0
H690 H 0.07912 0.96855 0.39489 0.0
H691 H 0.1594 1.01155 0.49068 0.0
H692 H 0.02739 1.00643 0.47343 0.0
H693 H 0.13738 0.11859 0.60185 0.0
H694 H 0.04 0.97209 0.40222 0.0
H695 H 1.0081 0.06693 0.54971 0.0
H696 H 0.11662 0.09143 0.5649 0.0
H697 H 0.9859 0.07846 0.58379 0.0
H698 H 0.11867 0.9756 0.41104 0.0
H699 H 0.11778 0.13206 0.6378 0.0
H700 H 0.08182 0.13139 0.65671 0.0
H701 H 0.14869 0.99161 0.44663 0.0
H702 H 0.04071 0.11974 0.65214 0.0
N703 N 0.08412 0.09114 0.57722 0.0
C704 C 0.10708 0.0981 0.57919 0.0
C705 C 0.10822 0.12069 0.62099 0.0
C706 C 0.08496 0.11312 0.61939 0.0
C707 C 0.11931 0.11331 0.6007 0.0
C708 C 0.07323 0.09853 0.59692 0.0
H709 H 1.0049 0.10005 0.62512 0.0
N710 N 0.03955 0.07996 0.57187 0.0
C711 C 1.00396 0.08233 0.58708 0.0
C712 C 0.05018 0.09236 0.59426 0.0
C713 C 0.01664 0.07564 0.56788 0.0
C714 C 0.01473 0.09448 0.61036 0.0
C715 C 0.03811 0.10003 0.61409 0.0
O716 O 0.04143 0.09714 0.53366 0.0
O717 O 0.06172 0.05266 0.50165 0.0
O718 O 0.09808 0.04915 0.49657 0.0
O719 O 0.09587 0.08163 0.52789 0.0
O720 O 0.03302 0.06106 0.51182 0.0
O721 O 0.07789 0.10862 0.53636 0.0
O722 O 0.08941 0.99433 0.5253 0.0
O723 O 0.0748 0.04099 0.54938 0.0
O724 O 0.03782 0.04068 0.55026 0.0
O725 O 0.04072 1.01318 0.51542 0.0
O726 O 0.10336 0.0323 0.54211 0.0
O727 O 0.05537 0.98483 0.50778 0.0
C728 C 0.04176 0.05331 0.49212 0.0
C729 C 0.05651 0.13895 0.52764 0.0
C730 C 0.07102 0.17558 0.51079 0.0
C731 C 0.07422 0.15408 0.5189 0.0
C732 C 0.0503 0.18238 0.51207 0.0
C733 C 0.03585 0.14599 0.52905 0.0
C734 C 0.03285 0.16773 0.52143 0.0
C735 C 0.10615 0.07179 0.50939 0.0
C736 C 0.05869 0.11448 0.5323 0.0
C737 C 0.0497 0.11369 0.63673 0.0
C738 C 0.07308 0.12033 0.63933 0.0
C739 C 0.09404 0.04122 0.56087 0.0
C740 C 0.07179 0.95165 0.51693 0.0
C741 C 0.06422 0.93907 0.53554 0.0
C742 C 0.06849 0.91555 0.53659 0.0
C743 C 0.0794 0.90406 0.51757 0.0
C744 C 0.08284 0.94032 0.49823 0.0
C745 C 0.08631 0.91634 0.49841 0.0
C746 C 0.02973 0.01955 0.53426 0.0
C747 C 0.07069 0.9778 0.5204 0.0
H748 H 0.09012 0.1486 0.51728 0.0
H749 H 0.04766 0.199 0.50581 0.0
H750 H 0.02189 0.13444 0.53555 0.0
H751 H 0.01686 0.17299 0.52236 0.0
H752 H 0.05562 0.94819 0.54982 0.0
H753 H 0.08316 0.88598 0.51784 0.0
H754 H 0.08916 0.95018 0.48403 0.0
H755 H 0.09499 0.90755 0.48408 0.0
Tb756 Tb 0.34359 0.81589 0.76975 0.0
C757 C 0.28643 0.74719 0.82342 0.0
C758 C 0.2896 0.70626 0.80232 0.0
C759 C 0.28101 0.71243 0.84507 0.0
C760 C 0.29034 0.73172 0.80241 0.0
C761 C 0.28133 0.73765 0.84487 0.0
C762 C 0.28519 0.69679 0.82385 0.0
C763 C 0.27584 0.77826 0.86376 0.0
N764 N 0.28679 0.77141 0.82253 0.0
C765 C 0.28089 0.78682 0.84202 0.0
C766 C 0.27624 0.75362 0.86527 0.0
Tb767 Tb 0.2946 0.78328 0.78596 0.0
N768 N 0.2943 0.74149 0.78188 0.0
C769 C 0.29691 0.72634 0.76027 0.0
C770 C 0.29301 0.69099 0.78052 0.0
C771 C 0.29656 0.70107 0.75937 0.0
H772 H 0.28053 0.80588 0.84094 0.0
H773 H 0.29903 0.68939 0.74232 0.0
H774 H 0.28464 0.6773 0.82416 0.0
H775 H 0.27159 0.79063 0.8793 0.0
H776 H 0.29978 0.73347 0.7436 0.0
H777 H 0.33297 0.911 0.79516 0.0
H778 H 0.29268 0.67137 0.77973 0.0
H779 H 0.37114 0.79151 0.72473 0.0
H780 H 0.33516 0.86944 0.80225 0.0
H781 H 0.3841 0.80116 0.68578 0.0
H782 H 0.27723 0.70477 0.86141 0.0
H783 H 0.34016 0.9222 0.7546 0.0
H784 H 0.35264 0.9106 0.71247 0.0
H785 H 0.27221 0.74699 0.88209 0.0
H786 H 0.3668 0.88065 0.68262 0.0
N787 N 0.34169 0.85576 0.76533 0.0
C788 C 0.33774 0.87351 0.78415 0.0
C789 C 0.3407 0.90359 0.75742 0.0
C790 C 0.34654 0.88616 0.7389 0.0
C791 C 0.33669 0.89737 0.78033 0.0
C792 C 0.34701 0.86218 0.74355 0.0
H793 H 0.37886 0.83989 0.67264 0.0
N794 N 0.35691 0.82352 0.73323 0.0
C795 C 0.37576 0.81371 0.69706 0.0
C796 C 0.35502 0.84548 0.7269 0.0
C797 C 0.36818 0.80823 0.71924 0.0
C798 C 0.37272 0.83554 0.68967 0.0
C799 C 0.36272 0.85205 0.70493 0.0
O800 O 0.37501 0.80796 0.77803 0.0
O801 O 0.33017 0.78089 0.78296 0.0
O802 O 0.31854 0.79246 0.81859 0.0
O803 O 0.33729 0.82807 0.8078 0.0
O804 O 0.35091 0.77837 0.75657 0.0
O805 O 0.36906 0.84414 0.79155 0.0
O806 O 0.2634 0.79201 0.79119 0.0
O807 O 0.30752 0.81764 0.77198 0.0
O808 O 0.32467 0.80193 0.73381 0.0
O809 O 0.29586 0.77453 0.74645 0.0
O810 O 0.28916 0.82124 0.80082 0.0
O811 O 0.26609 0.76084 0.7631 0.0
C812 C 0.3405 0.76488 0.77069 0.0
C813 C 0.40618 0.84132 0.78481 0.0
C814 C 0.44638 0.84525 0.79285 0.0
C815 C 0.42438 0.83577 0.79753 0.0
C816 C 0.44992 0.86061 0.77521 0.0
C817 C 0.4099 0.85664 0.76725 0.0
C818 C 0.43173 0.86622 0.76249 0.0
C819 C 0.3325 0.81427 0.82445 0.0
C820 C 0.38367 0.83031 0.79016 0.0
C821 C 0.36111 0.87532 0.69948 0.0
C822 C 0.35303 0.89236 0.71646 0.0
C823 C 0.29793 0.83384 0.78506 0.0
C824 C 0.23065 0.76083 0.77831 0.0
C825 C 0.21173 0.76031 0.76222 0.0
C826 C 0.1901 0.74984 0.76753 0.0
C827 C 0.1878 0.74024 0.78941 0.0
C828 C 0.22793 0.75079 0.79973 0.0
C829 C 0.20658 0.74061 0.80524 0.0
C830 C 0.3065 0.78397 0.72923 0.0
C831 C 0.25272 0.77399 0.7735 0.0
H832 H 0.42134 0.82423 0.81136 0.0
H833 H 0.46668 0.86807 0.77108 0.0
H834 H 0.39604 0.86122 0.75732 0.0
H835 H 0.43458 0.87798 0.74889 0.0
H836 H 0.2139 0.76804 0.74563 0.0
H837 H 0.17143 0.73261 0.79447 0.0
H838 H 0.24218 0.75126 0.81244 0.0
H839 H 0.20455 0.73321 0.822 0.0
Tb840 Tb 0.57431 0.03858 0.05241 0.0
C841 C 0.5206 0.0828 0.97935 0.0
C842 C 0.49805 0.04653 0.95138 0.0
C843 C 0.48632 0.08596 0.95668 0.0
C844 C 0.51688 0.05778 0.96876 0.0
C845 C 0.50577 0.09739 0.97279 0.0
C846 C 0.48246 0.06054 0.94599 0.0
C847 C 0.5323 0.13403 0.99514 0.0
N848 N 0.53987 0.09335 0.99423 0.0
C849 C 0.54633 0.11876 1.00137 0.0
C850 C 0.51165 0.12325 0.98133 0.0
Tb851 Tb 0.56349 0.06786 1.00036 0.0
N852 N 0.5327 0.04509 0.97382 0.0
C853 C 0.53085 0.02108 0.96118 0.0
C854 C 0.49601 0.02194 0.93895 0.0
C855 C 0.51257 1.00924 0.94375 0.0
H856 H 0.56232 0.12717 0.01206 0.0
H857 H 0.51129 0.99026 0.93405 0.0
H858 H 0.46783 0.05214 0.93285 0.0
H859 H 0.5375 0.15411 1.00081 0.0
H860 H 0.54308 1.01037 0.96428 0.0
H861 H 0.62773 0.11682 0.11675 0.0
H862 H 0.48199 1.01279 0.92521 0.0
H863 H 0.57533 0.97909 0.04093 0.0
H864 H 0.59571 0.09643 0.08667 0.0
H865 H 0.60048 0.95211 0.05127 0.0
H866 H 0.47464 0.09681 0.95156 0.0
H867 H 0.65659 0.09399 0.12642 0.0
H868 H 0.67002 0.05403 0.11997 0.0
H869 H 0.50085 0.13515 0.97645 0.0
H870 H 0.6629 1.0092 0.1017 0.0
N871 N 0.6054 0.06124 0.07857 0.0
C872 C 0.60768 0.0856 0.0904 0.0
C873 C 0.64236 0.08466 0.11301 0.0
C874 C 0.63988 0.05973 0.10132 0.0
C875 C 0.62607 0.09755 0.10769 0.0
C876 C 0.62093 0.04839 0.08414 0.0
H877 H 0.63684 0.97093 0.07631 0.0
N878 N 0.59763 1.01284 0.05921 0.0
C879 C 0.60546 0.97214 0.05752 0.0
C880 C 0.61696 0.02331 0.07396 0.0
C881 C 0.59126 0.98745 0.05174 0.0
C882 C 0.62597 0.98284 0.07164 0.0
C883 C 0.63176 1.00867 0.08049 0.0
O884 O 0.55317 1.01081 0.06624 0.0
O885 O 0.5512 0.04323 0.02406 0.0
O886 O 0.54515 0.08325 0.02938 0.0
O887 O 0.5633 0.07378 0.06392 0.0
O888 O 0.54707 1.00859 0.03116 0.0
O889 O 0.56313 0.04891 0.08694 0.0
O890 O 0.58416 0.09628 0.98682 0.0
O891 O 0.58657 0.06261 0.02832 0.0
O892 O 0.5923 0.02241 0.02308 0.0
O893 O 0.57425 0.03277 0.98898 0.0
O894 O 0.59169 0.09674 0.02152 0.0
O895 O 0.57372 0.05859 0.96508 0.0
C896 C 0.53835 0.0221 0.0184 0.0
C897 C 0.55338 0.01721 0.10943 0.0
C898 C 0.53534 1.00899 0.14552 0.0
C899 C 0.53544 0.01774 0.12346 0.0
C900 C 0.55341 0.99968 0.1538 0.0
C901 C 0.57167 1.00816 0.11759 0.0
C902 C 0.57163 0.99938 0.13982 0.0
C903 C 0.5499 0.0859 0.0536 0.0
C904 C 0.55194 0.0263 0.08649 0.0
C905 C 0.65125 0.02008 0.09657 0.0
C906 C 0.65529 0.04559 0.107 0.0
C907 C 0.60094 0.08266 0.0331 0.0
C908 C 0.58349 0.0912 0.94344 0.0
C909 C 0.60073 0.08937 0.92858 0.0
C910 C 0.60116 0.09879 0.90685 0.0
C911 C 0.58411 0.11026 0.89984 0.0
C912 C 0.56619 0.10237 0.93652 0.0
C913 C 0.56657 0.11192 0.91468 0.0
C914 C 0.58724 0.02001 0.99891 0.0
C915 C 0.58482 0.08134 0.96599 0.0
H916 H 0.5214 0.02499 0.11718 0.0
H917 H 0.55354 0.99308 0.17111 0.0
H918 H 0.58579 1.00783 0.1069 0.0
H919 H 0.58572 0.99243 0.14624 0.0
H920 H 0.61403 0.08058 0.93399 0.0
H921 H 0.58422 0.11751 0.8829 0.0
H922 H 0.55262 0.10378 0.94786 0.0
H923 H 0.55325 0.12055 0.90925 0.0
Tb924 Tb 0.33403 0.33349 0.29866 0.0
C925 C 0.25862 0.25446 0.2331 0.0
C926 C 0.2295 0.24839 0.26035 0.0
C927 C 0.21991 0.23738 0.21579 0.0
C928 C 0.25216 0.2566 0.25669 0.0
C929 C 0.24265 0.24424 0.21234 0.0
C930 C 0.21335 0.23941 0.23978 0.0
C931 C 0.27307 0.24454 0.18671 0.0
N932 N 0.2808 0.26011 0.23063 0.0
C933 C 0.28824 0.25398 0.20795 0.0
C934 C 0.25014 0.23992 0.18887 0.0
Tb935 Tb 0.30458 0.27311 0.26646 0.0
N936 N 0.26834 0.26473 0.27605 0.0
C937 C 0.26299 0.26354 0.29956 0.0
C938 C 0.22393 0.24813 0.28447 0.0
C939 C 0.24083 0.25527 0.30408 0.0
H940 H 0.30594 0.25675 0.20615 0.0
H941 H 0.23688 0.25398 0.32266 0.0
H942 H 0.19586 0.23314 0.24224 0.0
H943 H 0.2791 0.24043 0.16876 0.0
H944 H 0.27565 0.26869 0.31501 0.0
H945 H 0.38805 0.37464 0.23488 0.0
H946 H 0.20679 0.24163 0.28806 0.0
H947 H 0.34993 0.32571 0.35632 0.0
H948 H 0.35353 0.36522 0.25362 0.0
H949 H 0.38317 0.32085 0.37911 0.0
H950 H 0.20739 0.22957 0.20008 0.0
H951 H 0.42267 0.36617 0.25321 0.0
H952 H 0.4421 0.35201 0.28718 0.0
H953 H 0.23842 0.23209 0.17247 0.0
H954 H 0.44079 0.3372 0.32646 0.0
N955 N 0.36635 0.34638 0.28025 0.0
C956 C 0.36755 0.35895 0.2609 0.0
C957 C 0.40707 0.36063 0.26095 0.0
C958 C 0.40646 0.35015 0.28208 0.0
C959 C 0.38757 0.36536 0.25053 0.0
C960 C 0.38567 0.34332 0.29156 0.0
H961 H 0.41903 0.32565 0.36081 0.0
N962 N 0.36478 0.3287 0.32238 0.0
C963 C 0.38382 0.32376 0.36027 0.0
C964 C 0.38485 0.33422 0.31327 0.0
C965 C 0.36454 0.32562 0.34656 0.0
C966 C 0.40402 0.32667 0.34997 0.0
C967 C 0.40489 0.33271 0.32653 0.0
O968 O 0.32866 0.35363 0.33306 0.0
O969 O 0.30238 0.30701 0.29058 0.0
O970 O 0.30069 0.29798 0.23988 0.0
O971 O 0.32429 0.33612 0.26 0.0
O972 O 0.30234 0.3433 0.28864 0.0
O973 O 0.3462 0.37223 0.30677 0.0
O974 O 0.32149 0.24529 0.25254 0.0
O975 O 0.3372 0.2971 0.28082 0.0
O976 O 0.32112 0.31141 0.32583 0.0
O977 O 0.31471 0.27037 0.30496 0.0
O978 O 0.33159 0.27946 0.24374 0.0
O979 O 0.29435 0.23749 0.27487 0.0
C980 C 0.28974 0.32131 0.28642 0.0
C981 C 0.32495 0.39451 0.33219 0.0
C982 C 0.30266 0.42062 0.31637 0.0
C983 C 0.31362 0.40091 0.31229 0.0
C984 C 0.30281 0.4339 0.34056 0.0
C985 C 0.32485 0.40762 0.35635 0.0
C986 C 0.31374 0.42724 0.3605 0.0
C987 C 0.31143 0.32145 0.24029 0.0
C988 C 0.33771 0.375 0.32782 0.0
C989 C 0.42535 0.33852 0.31663 0.0
C990 C 0.42611 0.34705 0.29435 0.0
C991 C 0.34619 0.29359 0.26087 0.0
C992 C 0.30241 0.20366 0.24734 0.0
C993 C 0.31746 0.18858 0.24932 0.0
C994 C 0.31209 0.16341 0.23799 0.0
C995 C 0.29187 0.15366 0.22275 0.0
C996 C 0.28198 0.19412 0.2325 0.0
C997 C 0.2769 0.16914 0.21991 0.0
C998 C 0.31817 0.28724 0.32576 0.0
C999 C 0.30906 0.22869 0.26228 0.0
H1000 H 0.31396 0.39123 0.29349 0.0
H1001 H 0.29448 0.44934 0.34398 0.0
H1002 H 0.33359 0.40288 0.3719 0.0
H1003 H 0.31382 0.43747 0.37913 0.0
H1004 H 0.33339 0.19642 0.26056 0.0
H1005 H 0.28747 0.13417 0.21369 0.0
H1006 H 0.27006 0.20573 0.23083 0.0
H1007 H 0.26117 0.16163 0.20842 0.0
Tb1008 Tb 0.5611 0.5745 0.04063 0.0
C1009 C 0.59907 0.50178 0.96519 0.0
C1010 C 0.57046 0.4879 0.93039 0.0
C1011 C 0.60822 0.48265 0.92499 0.0
C1012 C 0.5773 0.49906 0.95554 0.0
C1013 C 0.61482 0.49349 0.95007 0.0
C1014 C 0.58606 0.47987 0.91516 0.0
C1015 C 0.64221 0.50611 0.98582 0.0
N1016 N 0.6047 0.51197 0.98958 0.0
C1017 C 0.62597 0.51383 1.00011 0.0
C1018 C 0.63663 0.49592 0.96068 0.0
Tb1019 Tb 0.57642 0.52192 0.01215 0.0
N1020 N 0.56263 0.50652 0.97101 0.0
C1021 C 0.54049 0.50242 0.9622 0.0
C1022 C 0.54806 0.48462 0.92136 0.0
C1023 C 0.533 0.49187 0.9374 0.0
H1024 H 0.63075 0.52132 0.01953 0.0
H1025 H 0.51552 0.48918 0.93076 0.0
H1026 H 0.5811 0.47121 0.89586 0.0
H1027 H 0.65899 0.50784 0.99429 0.0
H1028 H 0.52813 0.50738 0.97383 0.0
H1029 H 0.63391 0.61447 0.1082 0.0
H1030 H 0.54216 0.47617 0.9022 0.0
H1031 H 0.50709 0.57162 0.04618 0.0
H1032 H 0.61473 0.59616 0.0673 0.0
H1033 H 0.4831 0.58 0.07945 0.0
H1034 H 0.62005 0.47611 0.91312 0.0
H1035 H 0.61252 0.62018 0.14436 0.0
H1036 H 0.57536 0.61772 0.16096 0.0
H1037 H 0.64919 0.48974 0.9497 0.0
H1038 H 0.53433 0.60851 0.15317 0.0
N1039 N 0.58166 0.59064 0.07888 0.0
C1040 C 0.60457 0.59837 0.08229 0.0
C1041 C 0.60372 0.61196 0.12616 0.0
C1042 C 0.58039 0.60515 0.12265 0.0
C1043 C 0.61583 0.60887 0.10581 0.0
C1044 C 0.56972 0.59448 0.09853 0.0
H1045 H 0.49987 0.59469 0.12289 0.0
N1046 N 0.53722 0.58027 0.0706 0.0
C1047 C 0.50095 0.58252 0.08391 0.0
C1048 C 0.54672 0.58919 0.09422 0.0
C1049 C 0.51462 0.5778 0.06514 0.0
C1050 C 0.51047 0.59073 0.10839 0.0
C1051 C 0.53363 0.59454 0.11378 0.0
O1052 O 0.54181 0.59954 0.03234 0.0
O1053 O 0.56264 0.55361 1.00313 0.0
O1054 O 0.60032 0.55019 0.99966 0.0
O1055 O 0.59566 0.58378 0.02887 0.0
O1056 O 0.53406 0.56516 0.00943 0.0
O1057 O 0.57823 0.61145 0.04021 0.0
O1058 O 0.58746 0.49661 0.03117 0.0
O1059 O 0.57452 0.54322 0.04973 0.0
O1060 O 0.53622 0.54292 0.04924 0.0
O1061 O 0.54068 0.5147 0.01553 0.0
O1062 O 0.6035 0.53376 0.04369 0.0
O1063 O 0.55631 0.48555 1.0074 0.0
C1064 C 0.54371 0.55486 0.99168 0.0
C1065 C 0.55784 0.64233 0.03068 0.0
C1066 C 0.5708 0.67776 0.01149 0.0
C1067 C 0.57428 0.65605 0.019 0.0
C1068 C 0.55125 0.68625 0.01659 0.0
C1069 C 0.53839 0.65101 0.03581 0.0
C1070 C 0.53525 0.67305 0.02898 0.0
C1071 C 0.60717 0.57337 0.01187 0.0
C1072 C 0.55943 0.61738 0.03419 0.0
C1073 C 0.5441 0.60434 0.13792 0.0
C1074 C 0.56745 0.60959 0.14235 0.0
C1075 C 0.5937 0.54364 0.06155 0.0
C1076 C 0.57209 0.4537 0.02004 0.0
C1077 C 0.56708 0.44178 0.03977 0.0
C1078 C 0.5705 0.41776 0.03942 0.0
C1079 C 0.57853 0.40537 0.0185 0.0
C1080 C 0.58037 0.44161 0.99935 0.0
C1081 C 0.58343 0.4173 0.99857 0.0
C1082 C 0.52883 0.52152 0.03347 0.0
C1083 C 0.56961 0.47933 0.02325 0.0
H1084 H 0.58908 0.64911 0.01444 0.0
H1085 H 0.5484 0.70308 0.01094 0.0
H1086 H 0.52544 0.64047 0.04462 0.0
H1087 H 0.52018 0.67961 0.03282 0.0
H1088 H 0.56051 0.45141 0.05559 0.0
H1089 H 0.58131 0.38671 0.01773 0.0
H1090 H 0.58458 0.45094 0.98411 0.0
H1091 H 0.58983 0.4078 0.98264 0.0
Tb1092 Tb 0.84556 0.3155 0.27454 0.0
C1093 C 0.78726 0.24503 0.31645 0.0
C1094 C 0.79637 0.20696 0.29526 0.0
C1095 C 0.78538 0.20967 0.33701 0.0
C1096 C 0.79439 0.23182 0.29591 0.0
C1097 C 0.78173 0.23368 0.33677 0.0
C1098 C 0.79271 0.19634 0.31628 0.0
C1099 C 0.7655 0.26848 0.35286 0.0
N1100 N 0.78328 0.26789 0.31524 0.0
C1101 C 0.77094 0.27876 0.33213 0.0
C1102 C 0.7714 0.24612 0.35549 0.0
Tb1103 Tb 0.79367 0.28315 0.28071 0.0
N1104 N 0.79719 0.24245 0.2757 0.0
C1105 C 0.80012 0.22843 0.25364 0.0
C1106 C 0.80069 0.19305 0.27308 0.0
C1107 C 0.80192 0.20362 0.252 0.0
H1108 H 0.76615 0.29593 0.33005 0.0
H1109 H 0.80459 0.19281 0.23453 0.0
H1110 H 0.79447 0.1774 0.31625 0.0
H1111 H 0.75661 0.27768 0.36668 0.0
H1112 H 0.8013 0.23637 0.23733 0.0
H1113 H 0.84162 0.40843 0.32395 0.0
H1114 H 0.80221 0.17386 0.27178 0.0
H1115 H 0.86266 0.30119 0.21727 0.0
H1116 H 0.84866 0.36702 0.32093 0.0
H1117 H 0.86241 0.31736 0.17893 0.0
H1118 H 0.78155 0.20079 0.35262 0.0
H1119 H 0.83526 0.42516 0.28626 0.0
H1120 H 0.83445 0.41985 0.24028 0.0
H1121 H 0.76687 0.23801 0.37139 0.0
H1122 H 0.83986 0.39488 0.2006 0.0
N1123 N 0.84356 0.35732 0.28103 0.0
C1124 C 0.84478 0.37267 0.30382 0.0
C1125 C 0.83781 0.4063 0.2846 0.0
C1126 C 0.83879 0.39172 0.26151 0.0
C1127 C 0.84131 0.3969 0.30586 0.0
C1128 C 0.84185 0.36708 0.26031 0.0
H1129 H 0.85067 0.35693 0.17765 0.0
N1130 N 0.84934 0.33025 0.23793 0.0
C1131 C 0.85708 0.32746 0.1953 0.0
C1132 C 0.8447 0.353 0.23799 0.0
C1133 C 0.857 0.31829 0.21726 0.0
C1134 C 0.85042 0.34974 0.19464 0.0
C1135 C 0.84477 0.3632 0.2163 0.0
O1136 O 0.87557 0.3086 0.26151 0.0
O1137 O 0.8281 0.27628 0.2737 0.0
O1138 O 0.80962 0.29557 0.31835 0.0
O1139 O 0.83993 0.32514 0.31284 0.0
O1140 O 0.85636 0.28945 0.2967 0.0
O1141 O 0.87594 0.33546 0.29507 0.0
O1142 O 0.76078 0.2884 0.2802 0.0
O1143 O 0.80967 0.31972 0.2722 0.0
O1144 O 0.83228 0.28739 0.241 0.0
O1145 O 0.79661 0.29081 0.24382 0.0
O1146 O 0.78612 0.31938 0.29646 0.0
O1147 O 0.76833 0.2578 0.25554 0.0
C1148 C 0.84264 0.26861 0.28735 0.0
C1149 C 0.91 0.33712 0.27678 0.0
C1150 C 0.95003 0.34423 0.28803 0.0
C1151 C 0.92813 0.33221 0.2902 0.0
C1152 C 0.95377 0.36138 0.27217 0.0
C1153 C 0.9137 0.35397 0.26068 0.0
C1154 C 0.93563 0.36606 0.2584 0.0
C1155 C 0.82613 0.31469 0.32692 0.0
C1156 C 0.88775 0.32383 0.28031 0.0
C1157 C 0.84024 0.38697 0.21714 0.0
C1158 C 0.83724 0.40121 0.23973 0.0
C1159 C 0.79819 0.3344 0.28478 0.0
C1160 C 0.73156 0.25342 0.26737 0.0
C1161 C 0.7118 0.25568 0.25472 0.0
C1162 C 0.69104 0.2419 0.25885 0.0
C1163 C 0.69018 0.22629 0.27629 0.0
C1164 C 0.73052 0.23751 0.28445 0.0
C1165 C 0.70986 0.22421 0.28908 0.0
C1166 C 0.8119 0.2844 0.23037 0.0
C1167 C 0.75273 0.26889 0.26312 0.0
H1168 H 0.92518 0.31905 0.30258 0.0
H1169 H 0.97064 0.3708 0.27019 0.0
H1170 H 0.89977 0.35773 0.25003 0.0
H1171 H 0.93859 0.37907 0.24595 0.0
H1172 H 0.71263 0.26776 0.24127 0.0
H1173 H 0.6743 0.21561 0.27988 0.0
H1174 H 0.74551 0.23531 0.29419 0.0
H1175 H 0.70912 0.21211 0.30244 0.0
Tb1176 Tb 0.07974 0.54587 0.55409 0.0
C1177 C 0.01949 0.57623 0.47942 0.0
C1178 C 0.99706 0.53584 0.45902 0.0
C1179 C 0.98232 0.57309 0.45925 0.0
C1180 C 0.01701 0.55076 0.47252 0.0
C1181 C 1.00237 0.58781 0.47242 0.0
C1182 C 0.97968 0.54713 0.45257 0.0
C1183 C 0.02707 0.62775 0.48955 0.0
N1184 N 0.0392 0.58982 0.49179 0.0
C1185 C 0.04362 0.61538 0.49581 0.0
C1186 C 1.00624 0.6139 0.47806 0.0
Tb1187 Tb 0.06606 0.56817 0.49894 0.0
N1188 N 0.03447 0.5407 0.47836 0.0
C1189 C 0.03311 0.51561 0.4708 0.0
C1190 C 0.99534 0.5101 0.45204 0.0
C1191 C 0.01349 0.49997 0.45791 0.0
H1192 H 0.05986 0.62615 0.50435 0.0
H1193 H 1.0124 0.48009 0.45252 0.0
H1194 H 0.96424 0.536 0.44217 0.0
H1195 H 0.03046 0.64795 0.49337 0.0
H1196 H 0.04673 0.50718 0.47528 0.0
H1197 H 0.13501 0.62811 0.61334 0.0
H1198 H 0.98022 0.49797 0.44189 0.0
H1199 H 0.08256 0.48563 0.5447 0.0
H1200 H 0.10414 0.60761 0.58296 0.0
H1201 H 0.10819 0.46062 0.55721 0.0
H1202 H 0.96894 0.58162 0.45374 0.0
H1203 H 0.16182 0.60493 0.62743 0.0
H1204 H 0.17379 0.56488 0.62558 0.0
H1205 H 0.99353 0.62352 0.47297 0.0
H1206 H 0.16738 0.5199 0.60925 0.0
N1207 N 0.11113 0.57068 0.57909 0.0
C1208 C 0.11445 0.59588 0.58877 0.0
C1209 C 0.14776 0.59519 0.61394 0.0
C1210 C 0.14468 0.56973 0.60423 0.0
C1211 C 0.1326 0.60827 0.60616 0.0
C1212 C 0.12613 0.5578 0.58654 0.0
H1213 H 0.14335 0.48115 0.58365 0.0
N1214 N 0.10391 0.52084 0.56162 0.0
C1215 C 0.11265 0.48077 0.56268 0.0
C1216 C 0.12255 0.5323 0.57734 0.0
C1217 C 0.09828 0.49517 0.55545 0.0
C1218 C 0.13243 0.49242 0.57762 0.0
C1219 C 0.13732 0.51833 0.58567 0.0
O1220 O 0.05999 0.51397 0.56344 0.0
O1221 O 0.05618 0.54052 0.52116 0.0
O1222 O 0.05148 0.58857 0.5292 0.0
O1223 O 0.07292 0.58293 0.56334 0.0
O1224 O 0.04407 0.54349 0.5547 0.0
O1225 O 0.07258 0.54908 0.59075 0.0
O1226 O 0.08361 0.59514 0.48101 0.0
O1227 O 0.09128 0.56534 0.52623 0.0
O1228 O 0.09081 0.52197 0.52309 0.0
O1229 O 0.08122 0.53665 0.48752 0.0
O1230 O 0.09496 0.59822 0.51655 0.0
O1231 O 0.0717 0.55661 0.46191 0.0
C1232 C 0.03834 0.53952 0.53148 0.0
C1233 C 0.05629 0.51331 0.60621 0.0
C1234 C 0.03368 0.50835 0.63998 0.0
C1235 C 0.03709 0.5158 0.61751 0.0
C1236 C 0.04891 0.4961 0.65007 0.0
C1237 C 0.07179 0.50163 0.6163 0.0
C1238 C 0.06778 0.49254 0.63804 0.0
C1239 C 0.05845 0.59375 0.55317 0.0
C1240 C 0.06014 0.52635 0.58595 0.0
C1241 C 0.15595 0.53036 0.6027 0.0
C1242 C 0.15953 0.55593 0.61208 0.0
C1243 C 0.10537 0.58547 0.5287 0.0
C1244 C 0.08214 0.58695 0.43722 0.0
C1245 C 0.09965 0.58365 0.42303 0.0
C1246 C 0.10129 0.59235 0.40093 0.0
C1247 C 0.08501 0.60425 0.39272 0.0
C1248 C 0.06574 0.59875 0.42918 0.0
C1249 C 0.0672 0.60733 0.40683 0.0
C1250 C 0.09003 0.52144 0.49888 0.0
C1251 C 0.08282 0.5788 0.46078 0.0
H1252 H 0.02528 0.52496 0.60937 0.0
H1253 H 0.04674 0.49022 0.66759 0.0
H1254 H 0.08698 0.50007 0.60781 0.0
H1255 H 0.07971 0.48357 0.64607 0.0
H1256 H 0.11234 0.57451 0.42938 0.0
H1257 H 0.08604 0.61099 0.3755 0.0
H1258 H 0.0521 0.60144 0.44014 0.0
H1259 H 0.05461 0.61648 0.40051 0.0
Tb1260 Tb 0.7937 0.80508 0.28057 0.0
C1261 C 0.86509 0.7669 0.3224 0.0
C1262 C 0.88105 0.79938 0.35804 0.0
C1263 C 0.87867 0.75599 0.36055 0.0
C1264 C 0.87069 0.79187 0.33342 0.0
C1265 C 0.86996 0.74877 0.33555 0.0
C1266 C 0.88419 0.78129 0.3718 0.0
C1267 C 0.86119 0.71843 0.29737 0.0
N1268 N 0.85712 0.76066 0.29808 0.0
C1269 C 0.85695 0.73711 0.28512 0.0
C1270 C 0.86716 0.72413 0.32285 0.0
Tb1271 Tb 0.84833 0.79273 0.28051 0.0
N1272 N 0.86756 0.80888 0.31949 0.0
C1273 C 0.87687 0.83371 0.32853 0.0
C1274 C 0.88863 0.82484 0.36788 0.0
C1275 C 0.887 0.84203 0.35284 0.0
H1276 H 0.85272 0.7324 0.26526 0.0
H1277 H 0.89357 0.86178 0.35993 0.0
H1278 H 0.89172 0.78672 0.39083 0.0
H1279 H 0.86002 0.69969 0.28708 0.0
H1280 H 0.87658 0.84765 0.31762 0.0
H1281 H 0.75425 0.73289 0.20212 0.0
H1282 H 0.89653 0.83134 0.38671 0.0
H1283 H 0.78704 0.86334 0.29549 0.0
H1284 H 0.77208 0.74946 0.24463 0.0
H1285 H 0.77563 0.89479 0.27393 0.0
H1286 H 0.88214 0.74228 0.37102 0.0
H1287 H 0.74722 0.76186 0.1749 0.0
H1288 H 0.74754 0.80607 0.17031 0.0
H1289 H 0.87072 0.7097 0.33228 0.0
H1290 H 0.75342 0.8505 0.19 0.0
N1291 N 0.77568 0.78763 0.24175 0.0
C1292 C 0.7691 0.76241 0.23318 0.0
C1293 C 0.75503 0.76926 0.19365 0.0
C1294 C 0.76041 0.795 0.20311 0.0
C1295 C 0.75889 0.75287 0.20899 0.0
C1296 C 0.77061 0.80361 0.22762 0.0
H1297 H 0.76338 0.88374 0.22894 0.0
N1298 N 0.7823 0.83525 0.26273 0.0
C1299 C 0.77531 0.87625 0.26369 0.0
C1300 C 0.77404 0.82842 0.23855 0.0
C1301 C 0.78173 0.85842 0.27584 0.0
C1302 C 0.76848 0.86996 0.23828 0.0
C1303 C 0.76722 0.84559 0.2255 0.0
O1304 O 0.77644 0.81572 0.31138 0.0
O1305 O 0.82268 0.80197 0.30381 0.0
O1306 O 0.82331 0.75566 0.27644 0.0
O1307 O 0.79003 0.76604 0.2872 0.0
O1308 O 0.80918 0.83303 0.31278 0.0
O1309 O 0.76047 0.78578 0.28232 0.0
O1310 O 0.86361 0.77363 0.25216 0.0
O1311 O 0.81619 0.78712 0.25873 0.0
O1312 O 0.81667 0.83897 0.27114 0.0
O1313 O 0.85235 0.83409 0.28308 0.0
O1314 O 0.84383 0.80313 0.2445 0.0
O1315 O 0.88198 0.80773 0.27572 0.0
C1316 C 0.82399 0.8218 0.32 0.0
C1317 C 0.73672 0.80703 0.30624 0.0
C1318 C 0.70188 0.80641 0.32633 0.0
C1319 C 0.72189 0.79781 0.32284 0.0
C1320 C 0.69712 0.82428 0.31298 0.0
C1321 C 0.73094 0.82418 0.29268 0.0
C1322 C 0.71143 0.83289 0.29622 0.0
C1323 C 0.80234 0.74906 0.28238 0.0
C1324 C 0.75822 0.799 0.30346 0.0
C1325 C 0.75844 0.83754 0.20051 0.0
C1326 C 0.75507 0.81224 0.18931 0.0
C1327 C 0.82287 0.79394 0.23922 0.0
C1328 C 0.90359 0.7817 0.25329 0.0
C1329 C 0.91861 0.7918 0.2373 0.0
C1330 C 0.93807 0.78252 0.23248 0.0
C1331 C 0.94215 0.76306 0.24393 0.0
C1332 C 0.90869 0.76294 0.265 0.0
C1333 C 0.92769 0.75355 0.26015 0.0
C1334 C 0.83881 0.84826 0.27647 0.0
C1335 C 0.88242 0.79031 0.25666 0.0
H1336 H 0.72598 0.78419 0.3331 0.0
H1337 H 0.68188 0.83108 0.31493 0.0
H1338 H 0.74142 0.83079 0.27925 0.0
H1339 H 0.70725 0.84626 0.28572 0.0
H1340 H 0.915 0.80657 0.2284 0.0
H1341 H 0.95695 0.75565 0.2409 0.0
H1342 H 0.89808 0.75549 0.27791 0.0
H1343 H 0.93133 0.7389 0.26916 0.0
Tb1344 Tb 0.83449 0.29494 0.75667 0.0
C1345 C 0.77877 0.35131 0.82761 0.0
C1346 C 0.80662 0.38113 0.85703 0.0
C1347 C 0.76948 0.38892 0.85024 0.0
C1348 C 0.80022 0.3587 0.83913 0.0
C1349 C 0.76293 0.366 0.83346 0.0
C1350 C 0.79132 0.39647 0.86203 0.0
C1351 C 0.73456 0.33272 0.80867 0.0
N1352 N 0.77288 0.32864 0.81232 0.0
C1353 C 0.75079 0.31868 0.80394 0.0
C1354 C 0.74071 0.35666 0.82325 0.0
Tb1355 Tb 0.80006 0.30587 0.80615 0.0
N1356 N 0.81424 0.34294 0.83432 0.0
C1357 C 0.83465 0.3483 0.84813 0.0
C1358 C 0.82776 0.38688 0.8703 0.0
C1359 C 0.84165 0.37013 0.86611 0.0
H1360 H 0.74571 0.29978 0.79357 0.0
H1361 H 0.85789 0.374 0.87664 0.0
H1362 H 0.79598 0.41376 0.87562 0.0
H1363 H 0.71726 0.32485 0.80147 0.0
H1364 H 0.84645 0.3367 0.84499 0.0
H1365 H 0.76949 0.23643 0.68586 0.0
H1366 H 0.83324 0.40378 0.88429 0.0
H1367 H 0.8868 0.29015 0.76864 0.0
H1368 H 0.78494 0.27158 0.71848 0.0
H1369 H 0.9099 0.25922 0.75862 0.0
H1370 H 0.75759 0.40049 0.8549 0.0
H1371 H 0.7895 0.20258 0.67529 0.0
H1372 H 0.82277 0.18486 0.68324 0.0
H1373 H 0.72805 0.36733 0.82733 0.0
H1374 H 0.8607 0.19053 0.70376 0.0
N1375 N 0.81548 0.26008 0.72742 0.0
C1376 C 0.79501 0.25811 0.71455 0.0
C1377 C 0.79684 0.21845 0.68995 0.0
C1378 C 0.8175 0.22011 0.70297 0.0
C1379 C 0.78562 0.23759 0.6957 0.0
C1380 C 0.82662 0.2415 0.72156 0.0
H1381 H 0.89336 0.21824 0.73164 0.0
N1382 N 0.85674 0.26636 0.7491 0.0
C1383 C 0.89241 0.25472 0.75147 0.0
C1384 C 0.84787 0.24465 0.733 0.0
C1385 C 0.87919 0.27217 0.75712 0.0
C1386 C 0.88301 0.23162 0.73632 0.0
C1387 C 0.86068 0.22659 0.72632 0.0
O1388 O 0.8645 0.3164 0.74842 0.0
O1389 O 0.82365 0.322 0.78341 0.0
O1390 O 0.78422 0.31949 0.7761 0.0
O1391 O 0.80362 0.30706 0.74254 0.0
O1392 O 0.85731 0.32618 0.78095 0.0
O1393 O 0.83415 0.30604 0.72228 0.0
O1394 O 0.77393 0.2799 0.81586 0.0
O1395 O 0.8117 0.27976 0.77973 0.0
O1396 O 0.8499 0.28114 0.78783 0.0
O1397 O 0.8325 0.29871 0.82068 0.0
O1398 O 0.77851 0.27291 0.78192 0.0
O1399 O 0.80415 0.29579 0.84077 0.0
C1400 C 0.84239 0.33601 0.79162 0.0
C1401 C 0.86735 0.33044 0.7096 0.0
C1402 C 0.866 0.34914 0.67347 0.0
C1403 C 0.85516 0.33582 0.68993 0.0
C1404 C 0.88941 0.35712 0.67658 0.0
C1405 C 0.89079 0.33818 0.71271 0.0
C1406 C 0.90177 0.35143 0.69612 0.0
C1407 C 0.78631 0.31548 0.75201 0.0
C1408 C 0.85521 0.31735 0.72695 0.0
C1409 C 0.8512 0.20467 0.70895 0.0
C1410 C 0.82964 0.20147 0.69724 0.0
C1411 C 0.79413 0.26376 0.77191 0.0
C1412 C 0.77109 0.282 0.85857 0.0
C1413 C 0.77866 0.27254 0.87836 0.0
C1414 C 0.76578 0.26971 0.89796 0.0
C1415 C 0.74518 0.27678 0.89812 0.0
C1416 C 0.75054 0.28939 0.85867 0.0
C1417 C 0.73772 0.28693 0.87854 0.0
C1418 C 0.84883 0.28806 0.81205 0.0
C1419 C 0.78427 0.28119 0.83746 0.0
H1420 H 0.83702 0.33025 0.68774 0.0
H1421 H 0.89801 0.36753 0.6639 0.0
H1422 H 0.90054 0.33407 0.72789 0.0
H1423 H 0.91983 0.35742 0.69849 0.0
H1424 H 0.79432 0.26633 0.87806 0.0
H1425 H 0.73497 0.27437 0.91317 0.0
H1426 H 0.74415 0.29646 0.84334 0.0
H1427 H 0.7218 0.29242 0.87852 0.0
Tb1428 Tb 0.82869 0.82034 0.79055 0.0
C1429 C 0.7462 0.75278 0.75762 0.0
C1430 C 0.7331 0.72266 0.78305 0.0
C1431 C 0.70632 0.73997 0.76137 0.0
C1432 C 0.75077 0.73732 0.77337 0.0
C1433 C 0.72378 0.75384 0.7511 0.0
C1434 C 0.71096 0.72435 0.77723 0.0
C1435 C 0.73698 0.78015 0.72272 0.0
N1436 N 0.76351 0.76593 0.74786 0.0
C1437 C 0.75884 0.77871 0.72977 0.0
C1438 C 0.71938 0.76801 0.7337 0.0
Tb1439 Tb 0.79864 0.75976 0.75934 0.0
N1440 N 0.77225 0.73518 0.77771 0.0
C1441 C 0.77663 0.71665 0.78943 0.0
C1442 C 0.73805 0.70588 0.79745 0.0
C1443 C 0.75988 0.70258 0.80032 0.0
H1444 H 0.77131 0.78761 0.71976 0.0
H1445 H 0.76374 0.68882 0.81048 0.0
H1446 H 0.69724 0.71322 0.78448 0.0
H1447 H 0.73373 0.79038 0.70845 0.0
H1448 H 0.79328 0.71302 0.79078 0.0
H1449 H 0.88724 0.8308 0.72143 0.0
H1450 H 0.72498 0.6946 0.80547 0.0
H1451 H 0.83842 0.83078 0.85193 0.0
H1452 H 0.85407 0.80964 0.73764 0.0
H1453 H 0.86823 0.8555 0.88399 0.0
H1454 H 0.68909 0.7407 0.75664 0.0
H1455 H 0.91623 0.86289 0.74952 0.0
H1456 H 0.93064 0.8854 0.79321 0.0
H1457 H 0.70242 0.76902 0.72802 0.0
H1458 H 0.92616 0.89078 0.83781 0.0
N1459 N 0.86246 0.83088 0.77451 0.0
C1460 C 0.8658 0.82425 0.75012 0.0
C1461 C 0.90134 0.85393 0.75672 0.0
C1462 C 0.89875 0.85919 0.78196 0.0
C1463 C 0.88501 0.83589 0.74083 0.0
C1464 C 0.87897 0.84707 0.79026 0.0
H1465 H 0.90343 0.87861 0.87194 0.0
N1466 N 0.85746 0.83705 0.82172 0.0
C1467 C 0.87094 0.85385 0.86463 0.0
C1468 C 0.87659 0.84984 0.81501 0.0
C1469 C 0.85425 0.83934 0.84632 0.0
C1470 C 0.89072 0.86698 0.85777 0.0
C1471 C 0.8937 0.86521 0.83266 0.0
O1472 O 0.81979 0.84948 0.81481 0.0
O1473 O 0.7961 0.79619 0.77651 0.0
O1474 O 0.80595 0.78291 0.73184 0.0
O1475 O 0.82041 0.82401 0.75213 0.0
O1476 O 0.80131 0.81378 0.81326 0.0
O1477 O 0.82277 0.85139 0.77658 0.0
O1478 O 0.80825 0.748 0.72398 0.0
O1479 O 0.83092 0.78493 0.76861 0.0
O1480 O 0.83214 0.79537 0.81712 0.0
O1481 O 0.80641 0.75808 0.79902 0.0
O1482 O 0.82913 0.74807 0.77019 0.0
O1483 O 0.78474 0.72323 0.73989 0.0
C1484 C 0.78688 0.79952 0.79617 0.0
C1485 C 0.82943 0.88957 0.8051 0.0
C1486 C 0.82532 0.93156 0.80383 0.0
C1487 C 0.8188 0.90582 0.79497 0.0
C1488 C 0.84357 0.94131 0.82196 0.0
C1489 C 0.84762 0.89929 0.8234 0.0
C1490 C 0.85497 0.92513 0.83137 0.0
C1491 C 0.8127 0.80698 0.73183 0.0
C1492 C 0.81914 0.8629 0.79801 0.0
C1493 C 0.91299 0.87847 0.8246 0.0
C1494 C 0.9155 0.87551 0.79922 0.0
C1495 C 0.84267 0.76966 0.77309 0.0
C1496 C 0.80849 0.70573 0.71416 0.0
C1497 C 0.81896 0.69639 0.73242 0.0
C1498 C 0.83143 0.67848 0.72596 0.0
C1499 C 0.83287 0.66906 0.7009 0.0
C1500 C 0.81006 0.6966 0.68911 0.0
C1501 C 0.82214 0.67814 0.68251 0.0
C1502 C 0.81999 0.77287 0.81807 0.0
C1503 C 0.79652 0.72546 0.72144 0.0
H1504 H 0.80407 0.89829 0.78168 0.0
H1505 H 0.84836 0.96118 0.82946 0.0
H1506 H 0.85557 0.88712 0.83218 0.0
H1507 H 0.86883 0.93254 0.84569 0.0
H1508 H 0.81729 0.70287 0.75178 0.0
H1509 H 0.84243 0.655 0.69563 0.0
H1510 H 0.80202 0.70374 0.67476 0.0
H1511 H 0.82333 0.671 0.66319 0.0
Tb1512 Tb 0.54807 0.53172 0.51122 0.0
C1513 C 0.61168 0.61905 0.58168 0.0
C1514 C 0.62102 0.64981 0.55603 0.0
C1515 C 0.62635 0.66275 0.6008 0.0
C1516 C 0.61289 0.62487 0.55854 0.0
C1517 C 0.61879 0.63784 0.60314 0.0
C1518 C 0.62741 0.66874 0.57727 0.0
C1519 C 0.61243 0.60574 0.62756 0.0
N1520 N 0.60481 0.59474 0.58316 0.0
C1521 C 0.6058 0.58779 0.60576 0.0
C1522 C 0.61882 0.63091 0.62627 0.0
Tb1523 Tb 0.59633 0.56608 0.54656 0.0
N1524 N 0.60719 0.60592 0.53854 0.0
C1525 C 0.61053 0.61087 0.51538 0.0
C1526 C 0.6232 0.6549 0.53232 0.0
C1527 C 0.61807 0.63529 0.51193 0.0
H1528 H 0.60125 0.56832 0.60699 0.0
H1529 H 0.62001 0.63892 0.49347 0.0
H1530 H 0.6337 0.68796 0.57569 0.0
H1531 H 0.61286 0.6001 0.64533 0.0
H1532 H 0.60675 0.59641 0.49904 0.0
H1533 H 0.52471 0.45545 0.55986 0.0
H1534 H 0.6293 0.67378 0.52961 0.0
H1535 H 0.54155 0.53256 0.45128 0.0
H1536 H 0.53768 0.49867 0.55603 0.0
H1537 H 0.52981 0.50256 0.41189 0.0
H1538 H 0.63187 0.67744 0.61705 0.0
H1539 H 0.51579 0.42197 0.52246 0.0
H1540 H 0.51126 0.41001 0.47615 0.0
H1541 H 0.62425 0.64477 0.64317 0.0
H1542 H 0.51247 0.42285 0.43577 0.0
N1543 N 0.53778 0.49092 0.51679 0.0
C1544 C 0.53418 0.48477 0.53939 0.0
C1545 C 0.52188 0.44116 0.52065 0.0
C1546 C 0.52407 0.44749 0.49742 0.0
C1547 C 0.52678 0.45997 0.54174 0.0
C1548 C 0.53214 0.4728 0.49612 0.0
H1549 H 0.51925 0.4573 0.41166 0.0
N1550 N 0.53909 0.50466 0.47347 0.0
C1551 C 0.5307 0.4959 0.4291 0.0
C1552 C 0.53279 0.47996 0.4736 0.0
C1553 C 0.53741 0.51286 0.45156 0.0
C1554 C 0.52481 0.47039 0.42904 0.0
C1555 C 0.52546 0.46213 0.45148 0.0
O1556 O 0.52263 0.54429 0.49339 0.0
O1557 O 0.56587 0.56989 0.52729 0.0
O1558 O 0.56974 0.57285 0.57254 0.0
O1559 O 0.54139 0.54006 0.55221 0.0
O1560 O 0.55384 0.56258 0.49096 0.0
O1561 O 0.51673 0.52707 0.52514 0.0
O1562 O 0.62058 0.55337 0.56614 0.0
O1563 O 0.57856 0.52779 0.53061 0.0
O1564 O 0.57411 0.52635 0.48412 0.0
O1565 O 0.60374 0.55655 0.5061 0.0
O1566 O 0.58948 0.53573 0.5674 0.0
O1567 O 0.62865 0.5706 0.53483 0.0
C1568 C 0.56343 0.58049 0.50877 0.0
C1569 C 0.48529 0.52772 0.49865 0.0
C1570 C 0.44739 0.5334 0.50005 0.0
C1571 C 0.46975 0.53969 0.50987 0.0
C1572 C 0.4405 0.5146 0.47874 0.0
C1573 C 0.47855 0.50871 0.47759 0.0
C1574 C 0.45607 0.50211 0.46772 0.0
C1575 C 0.54966 0.55776 0.57262 0.0
C1576 C 0.50847 0.53763 0.50866 0.0
C1577 C 0.51818 0.43681 0.45255 0.0
C1578 C 0.5175 0.42949 0.47551 0.0
C1579 C 0.58037 0.51758 0.54956 0.0
C1580 C 0.65857 0.56978 0.56372 0.0
C1581 C 0.675 0.55863 0.55333 0.0
C1582 C 0.69665 0.56423 0.5653 0.0
C1583 C 0.70199 0.5815 0.58782 0.0
C1584 C 0.66389 0.5874 0.58599 0.0
C1585 C 0.68566 0.59328 0.59795 0.0
C1586 C 0.59477 0.54046 0.48486 0.0
C1587 C 0.63581 0.56 0.55196 0.0
H1588 H 0.47531 0.55484 0.5258 0.0
H1589 H 0.42323 0.50965 0.47072 0.0
H1590 H 0.49057 0.4994 0.46862 0.0
H1591 H 0.45076 0.48761 0.45133 0.0
H1592 H 0.67067 0.54468 0.53631 0.0
H1593 H 0.71872 0.58595 0.59737 0.0
H1594 H 0.65128 0.59611 0.59432 0.0
H1595 H 0.68979 0.60668 0.61526 0.0
Tb1596 Tb 0.09259 0.54782 0.0202 0.0
C1597 C 0.01385 0.51041 0.07846 0.0
C1598 C 0.9951 0.47012 0.05418 0.0
C1599 C 0.99345 0.47874 0.09869 0.0
C1600 C 1.00858 0.49424 0.05597 0.0
C1601 C 1.00599 0.5031 0.10008 0.0
C1602 C 0.98801 0.46225 0.07575 0.0
C1603 C 0.02168 0.54508 0.12228 0.0
N1604 N 0.02574 0.53386 0.07886 0.0
C1605 C 0.02892 0.5515 0.10031 0.0
C1606 C 1.0104 0.52069 0.12226 0.0
Tb1607 Tb 0.03783 0.54229 0.04187 0.0
N1608 N 0.01543 0.50277 0.03561 0.0
C1609 C 1.00776 0.4886 0.01259 0.0
C1610 C 0.98849 0.455 0.03072 0.0
C1611 C 0.99457 0.46446 0.00979 0.0
H1612 H 0.03724 0.57058 0.10095 0.0
H1613 H 0.98911 0.45319 0.99148 0.0
H1614 H 0.9778 0.44372 0.07479 0.0
H1615 H 0.02469 0.55904 0.13922 0.0
H1616 H 1.01201 0.49557 0.9962 0.0
H1617 H 0.1448 0.62776 0.08308 0.0
H1618 H 0.97819 0.43633 0.02853 0.0
H1619 H 0.09314 0.53044 0.9596 0.0
H1620 H 0.12177 0.58528 0.07143 0.0
H1621 H 0.10472 0.55023 0.92444 0.0
H1622 H 0.98739 0.47269 0.11511 0.0
H1623 H 0.15288 0.65361 0.05133 0.0
H1624 H 0.15054 0.65633 1.00621 0.0
H1625 H 1.00465 0.51584 0.13928 0.0
H1626 H 0.13983 0.635 0.96268 0.0
N1627 N 0.11587 0.58667 0.03314 0.0
C1628 C 0.12501 0.59601 0.05713 0.0
C1629 C 0.14267 0.63483 0.04601 0.0
C1630 C 0.13479 0.6245 0.02123 0.0
C1631 C 0.13822 0.62027 0.06394 0.0
C1632 C 0.12149 0.60001 0.01537 0.0
H1633 H 0.12321 0.59511 0.93193 0.0
N1634 N 0.1044 0.56396 0.98662 0.0
C1635 C 0.10778 0.56117 0.9431 0.0
C1636 C 0.11558 0.58814 0.9911 0.0
C1637 C 0.10137 0.54999 0.96307 0.0
C1638 C 0.11812 0.58652 0.94739 0.0
C1639 C 0.12259 0.60023 0.9717 0.0
O1640 O 0.1098 0.52121 1.00376 0.0
O1641 O 0.06283 0.52196 0.02725 0.0
O1642 O 0.05762 0.53058 0.06957 0.0
O1643 O 0.09299 0.54888 0.06 0.0
O1644 O 0.0777 0.51149 0.99627 0.0
O1645 O 0.12078 0.54239 0.04057 0.0
O1646 O 0.02241 0.57295 0.04898 0.0
O1647 O 0.06814 0.56796 0.03509 0.0
O1648 O 0.0707 0.55856 0.99352 0.0
O1649 O 0.0369 0.53572 1.00184 0.0
O1650 O 0.0527 0.57882 0.06527 0.0
O1651 O 1.00709 0.54075 0.02147 0.0
C1652 C 0.06194 0.50373 0.0091 0.0
C1653 C 0.14802 0.52781 0.01724 0.0
C1654 C 0.18149 0.51063 0.01609 0.0
C1655 C 0.15908 0.50884 0.02094 0.0
C1656 C 0.19262 0.53139 1.00719 0.0
C1657 C 0.15927 0.54831 1.0081 0.0
C1658 C 0.18148 0.55001 1.00305 0.0
C1659 C 0.07948 0.53807 0.07454 0.0
C1660 C 0.12471 0.52565 0.02273 0.0
C1661 C 0.13454 0.62522 0.97731 0.0
C1662 C 0.14063 0.63736 1.00208 0.0
C1663 C 0.06926 0.58606 0.05339 0.0
C1664 C 0.98325 0.56395 0.04256 0.0
C1665 C 0.97305 0.58366 0.03878 0.0
C1666 C 0.95304 0.58617 0.04908 0.0
C1667 C 0.94334 0.56884 0.06302 0.0
C1668 C 0.97314 0.54672 0.05636 0.0
C1669 C 0.9533 0.54919 0.06652 0.0
C1670 C 0.04985 0.54636 0.98685 0.0
C1671 C 1.00501 0.56238 0.0333 0.0
H1672 H 0.15037 0.49286 0.02782 0.0
H1673 H 0.20983 0.53299 1.00313 0.0
H1674 H 0.15092 0.56292 1.00489 0.0
H1675 H 0.19011 0.56582 0.99594 0.0
H1676 H 0.98085 0.59721 0.02835 0.0
H1677 H 0.92802 0.57056 0.07122 0.0
H1678 H 0.98063 0.53148 0.05944 0.0
H1679 H 0.94568 0.53592 0.07729 0.0
H1680 H 0.02072 0.1841 0.93978 0.0
H1681 H 0.05486 0.23877 1.00389 0.0
H1682 H 0.06636 0.20537 0.022 0.0
H1683 H 1.00126 0.13574 0.97625 0.0
H1684 H 1.00384 0.10994 0.95265 0.0
H1685 H 0.99808 0.13792 0.94408 0.0
H1686 H 0.03283 0.14228 0.91975 0.0
H1687 H 0.03851 0.1142 0.92802 0.0
H1688 H 0.05978 0.14274 0.93516 0.0
H1689 H 0.07017 0.16418 0.03642 0.0
H1690 H 0.07179 0.12124 0.04122 0.0
H1691 H 0.04119 0.093 0.96596 0.0
C1692 C 0.03103 0.18914 0.95736 0.0
C1693 C 0.03705 0.2147 0.9701 0.0
C1694 C 0.05 0.21976 0.99349 0.0
C1695 C 0.05657 0.20071 1.00411 0.0
C1696 C 0.0501 0.17589 0.99152 0.0
C1697 C 0.0378 0.17003 0.96847 0.0
C1698 C 0.03278 0.14159 0.95926 0.0
C1699 C 1.0075 0.13065 0.95796 0.0
C1700 C 0.04152 0.13481 0.93404 0.0
C1701 C 0.04546 0.13278 0.97972 0.0
C1702 C 0.05438 0.15273 0.99876 0.0
C1703 C 0.06414 0.14872 0.021 0.0
C1704 C 0.06548 0.12409 0.0235 0.0
C1705 C 0.05876 0.10348 1.00337 0.0
C1706 C 0.04793 0.10822 0.98142 0.0
H1707 H 0.18891 0.79827 0.13694 0.0
H1708 H 0.16597 0.85813 0.18225 0.0
H1709 H 0.1972 0.86227 0.21455 0.0
H1710 H 0.20456 0.77108 0.1902 0.0
H1711 H 0.22802 0.76114 0.1768 0.0
H1712 H 0.20417 0.76314 0.15703 0.0
H1713 H 0.23015 0.79255 0.1345 0.0
H1714 H 0.25402 0.79066 0.15426 0.0
H1715 H 0.24824 0.8207 0.15224 0.0
H1716 H 0.23214 0.86061 0.24214 0.0
H1717 H 0.26515 0.85154 0.26342 0.0
H1718 H 0.26562 0.79139 0.20173 0.0
C1719 C 0.19052 0.81238 0.1536 0.0
C1720 C 0.17485 0.82818 0.15664 0.0
C1721 C 0.17752 0.84587 0.17916 0.0
C1722 C 0.19537 0.84838 0.19769 0.0
C1723 C 0.21051 0.83269 0.19405 0.0
C1724 C 0.20804 0.81471 0.1727 0.0
C1725 C 0.22597 0.79934 0.17407 0.0
C1726 C 0.21503 0.77205 0.17454 0.0
C1727 C 0.24046 0.80092 0.15248 0.0
C1728 C 0.23959 0.81221 0.1989 0.0
C1729 C 0.23016 0.83125 0.2102 0.0
C1730 C 0.23943 0.8456 0.23338 0.0
C1731 C 0.25834 0.8402 0.24547 0.0
C1732 C 0.26833 0.82051 0.23477 0.0
C1733 C 0.25877 0.80661 0.21077 0.0
H1734 H 0.53372 0.84907 0.49524 0.0
H1735 H 0.53493 0.85485 0.41787 0.0
H1736 H 0.53988 0.90029 0.42947 0.0
H1737 H 0.50363 0.90099 0.51189 0.0
H1738 H 0.51907 0.91253 0.54205 0.0
H1739 H 0.5142 0.8798 0.52821 0.0
H1740 H 0.55683 0.88204 0.53317 0.0
H1741 H 0.56171 0.9147 0.54708 0.0
H1742 H 0.57539 0.90484 0.5203 0.0
H1743 H 0.54625 0.94576 0.44868 0.0
H1744 H 0.55511 0.98788 0.47481 0.0
H1745 H 0.55048 0.95601 0.54058 0.0
C1746 C 0.53476 0.85986 0.48073 0.0
C1747 C 0.5338 0.84774 0.45539 0.0
C1748 C 0.53549 0.86306 0.43729 0.0
C1749 C 0.5383 0.88917 0.44371 0.0
C1750 C 0.53932 0.90047 0.46854 0.0
C1751 C 0.53757 0.88643 0.48689 0.0
C1752 C 0.53981 0.90394 0.51223 0.0
C1753 C 0.51788 0.89901 0.52432 0.0
C1754 C 0.55962 0.90121 0.5292 0.0
C1755 C 0.54401 0.92979 0.50522 0.0
C1756 C 0.54312 0.92711 0.47979 0.0
C1757 C 0.54664 0.94795 0.4686 0.0
C1758 C 0.55143 0.97203 0.4836 0.0
C1759 C 0.55278 0.97574 0.50974 0.0
C1760 C 0.54907 0.95405 0.52064 0.0
H1761 H 0.55374 0.33802 0.68022 0.0
H1762 H 0.53217 0.28153 0.61348 0.0
H1763 H 0.49504 0.26937 0.62849 0.0
H1764 H 0.52757 0.30714 0.72342 0.0
H1765 H 0.51858 0.3335 0.74041 0.0
H1766 H 0.54275 0.33853 0.72367 0.0
H1767 H 0.52477 0.3667 0.69967 0.0
H1768 H 0.50042 0.36159 0.7163 0.0
H1769 H 0.4974 0.3546 0.68293 0.0
H1770 H 0.46085 0.26135 0.65266 0.0
H1771 H 0.43335 0.25825 0.68367 0.0
H1772 H 0.47657 0.32091 0.73393 0.0
C1773 C 0.54111 0.32318 0.66875 0.0
C1774 C 0.54589 0.31054 0.64575 0.0
C1775 C 0.52885 0.29149 0.6311 0.0
C1776 C 0.50769 0.28449 0.63949 0.0
C1777 C 0.50349 0.29723 0.6623 0.0
C1778 C 0.51964 0.31649 0.67653 0.0
C1779 C 0.51078 0.32737 0.7002 0.0
C1780 C 0.52581 0.32656 0.72328 0.0
C1781 C 0.5082 0.35415 0.69975 0.0
C1782 C 0.48799 0.30979 0.69821 0.0
C1783 C 0.48376 0.29302 0.67584 0.0
C1784 C 0.46393 0.27464 0.67006 0.0
C1785 C 0.44832 0.27306 0.68771 0.0
C1786 C 0.45269 0.28949 0.71105 0.0
C1787 C 0.47268 0.30829 0.71611 0.0
H1788 H 0.02413 0.80381 0.60482 0.0
H1789 H 0.03151 0.85816 0.67346 0.0
H1790 H 0.04543 0.89205 0.65097 0.0
H1791 H 0.07344 0.83298 0.58065 0.0
H1792 H 0.06067 0.82487 0.5491 0.0
H1793 H 0.05156 0.80523 0.57075 0.0
H1794 H 1.01077 0.80953 0.56137 0.0
H1795 H 0.01971 0.82924 0.53975 0.0
H1796 H 1.00474 0.8402 0.565 0.0
H1797 H 0.05918 0.91951 0.62071 0.0
H1798 H 0.0708 0.93873 0.58542 0.0
H1799 H 0.05245 0.86579 0.53662 0.0
C1800 C 0.0287 0.82282 0.61525 0.0
C1801 C 0.02682 0.82844 0.64091 0.0
C1802 C 0.03292 0.85353 0.65379 0.0
C1803 C 0.04081 0.87282 0.64118 0.0
C1804 C 0.04246 0.86654 0.61581 0.0
C1805 C 0.03655 0.84213 0.60304 0.0
C1806 C 0.03974 0.84015 0.57587 0.0
C1807 C 0.0574 0.82491 0.56868 0.0
C1808 C 0.01741 0.82914 0.55955 0.0
C1809 C 0.04823 0.86736 0.57519 0.0
C1810 C 0.04984 0.88229 0.59841 0.0
C1811 C 0.05778 0.90802 0.60242 0.0
C1812 C 0.06417 0.91875 0.58215 0.0
C1813 C 0.06229 0.9038 0.55805 0.0
C1814 C 0.05426 0.87775 0.55472 0.0
H1815 H 0.56344 0.87573 0.87643 0.0
H1816 H 0.54951 0.79839 0.88443 0.0
H1817 H 0.51388 0.79023 0.85733 0.0
H1818 H 0.50763 0.88507 0.87593 0.0
H1819 H 0.51051 0.90387 0.85244 0.0
H1820 H 0.53467 0.90341 0.87249 0.0
H1821 H 0.55492 0.89003 0.8342 0.0
H1822 H 0.53078 0.89038 0.814 0.0
H1823 H 0.54174 0.86254 0.81149 0.0
H1824 H 0.47984 0.79091 0.82997 0.0
H1825 H 0.44948 0.80009 0.80408 0.0
H1826 H 0.48611 0.87704 0.81338 0.0
C1827 C 0.55263 0.85722 0.87266 0.0
C1828 C 0.55862 0.83774 0.88277 0.0
C1829 C 0.54472 0.81352 0.87705 0.0
C1830 C 0.52463 0.80874 0.86163 0.0
C1831 C 0.51909 0.82835 0.85185 0.0
C1832 C 0.53273 0.85206 0.85701 0.0
C1833 C 0.52316 0.86968 0.84372 0.0
C1834 C 0.51872 0.89181 0.86226 0.0
C1835 C 0.53857 0.87869 0.82473 0.0
C1836 C 0.50161 0.85241 0.83095 0.0
C1837 C 0.4997 0.8286 0.83568 0.0
C1838 C 0.48115 0.80948 0.82611 0.0
C1839 C 0.46396 0.81491 0.81155 0.0
C1840 C 0.4654 0.83931 0.80678 0.0
C1841 C 0.48464 0.85816 0.81643 0.0
H1842 H 0.49132 0.19702 0.08806 0.0
H1843 H 0.50817 0.19492 0.16496 0.0
H1844 H 0.51458 0.1525 0.15248 0.0
H1845 H 0.46925 0.12603 0.06306 0.0
H1846 H 0.48312 0.1291 0.03558 0.0
H1847 H 0.47148 0.15423 0.05084 0.0
H1848 H 0.51011 0.18425 0.0534 0.0
H1849 H 0.52219 0.15928 0.03949 0.0
H1850 H 0.53418 0.17768 0.06929 0.0
H1851 H 0.53095 0.11816 0.13162 0.0
H1852 H 0.55028 0.09145 0.10424 0.0
H1853 H 0.5225 0.11544 0.0407 0.0
C1854 C 0.49499 0.18697 0.10233 0.0
C1855 C 0.49928 0.19913 0.12737 0.0
C1856 C 0.50453 0.18578 0.14565 0.0
C1857 C 0.50834 0.16169 0.13869 0.0
C1858 C 0.50637 0.15122 0.11351 0.0
C1859 C 0.49912 0.16315 0.0956 0.0
C1860 C 0.50267 0.15074 0.06992 0.0
C1861 C 0.48028 0.13933 0.05391 0.0
C1862 C 0.51821 0.1691 0.05734 0.0
C1863 C 0.51399 0.13076 0.07622 0.0
C1864 C 0.51589 0.13115 0.10138 0.0
C1865 C 0.52883 0.11704 0.1118 0.0
C1866 C 0.53996 0.10211 0.09607 0.0
C1867 C 0.53805 0.10142 0.0702 0.0
C1868 C 0.52444 0.11553 0.06029 0.0
H1869 H 0.19973 0.3253 0.38233 0.0
H1870 H 0.1488 0.30879 0.31976 0.0
H1871 H 0.17766 0.30493 0.29102 0.0
H1872 H 0.24254 0.36225 0.35695 0.0
H1873 H 0.26469 0.35006 0.36991 0.0
H1874 H 0.23974 0.3505 0.38525 0.0
H1875 H 0.23574 0.30415 0.38448 0.0
H1876 H 0.25872 0.30105 0.36632 0.0
H1877 H 0.23108 0.28223 0.35565 0.0
H1878 H 0.21253 0.30797 0.26929 0.0
H1879 H 0.25093 0.31275 0.25618 0.0
H1880 H 0.27827 0.32471 0.33277 0.0
C1881 C 0.19464 0.32055 0.36258 0.0
C1882 C 0.17213 0.31731 0.35318 0.0
C1883 C 0.166 0.31109 0.32728 0.0
C1884 C 0.18225 0.30899 0.31083 0.0
C1885 C 0.20441 0.31279 0.32067 0.0
C1886 C 0.21058 0.31808 0.34594 0.0
C1887 C 0.2355 0.32136 0.35177 0.0
C1888 C 0.24623 0.34761 0.36685 0.0
C1889 C 0.2406 0.30099 0.36531 0.0
C1890 C 0.24247 0.31803 0.32582 0.0
C1891 C 0.22433 0.31318 0.3081 0.0
C1892 C 0.22685 0.31131 0.28291 0.0
C1893 C 0.24856 0.31417 0.27564 0.0
C1894 C 0.26708 0.31847 0.29354 0.0
C1895 C 0.26408 0.32076 0.31885 0.0
H1896 H 0.99003 0.10368 0.20263 0.0
H1897 H 0.98161 0.02698 0.21247 0.0
H1898 H 0.99985 0.01681 0.17509 0.0
H1899 H 0.97937 0.08444 0.13156 0.0
H1900 H 0.99912 0.1111 0.126 0.0
H1901 H 0.98494 0.11351 0.1537 0.0
H1902 H 0.02299 0.12843 0.18028 0.0
H1903 H 0.03727 0.12589 0.15267 0.0
H1904 H 0.04356 0.10951 0.17668 0.0
H1905 H 0.022 1.01368 0.1368 0.0
H1906 H 0.04127 0.01709 0.09949 0.0
H1907 H 0.03542 0.09412 0.10722 0.0
C1908 C 0.99131 0.08451 0.19668 0.0
C1909 C 0.98337 0.06622 0.21193 0.0
C1910 C 0.98673 0.04178 0.20235 0.0
C1911 C 0.99747 0.03563 0.18066 0.0
C1912 C 1.00527 0.05367 0.16673 0.0
C1913 C 1.0019 0.07761 0.17392 0.0
C1914 C 1.01159 0.09277 0.15422 0.0
C1915 C 0.99264 0.10097 0.14057 0.0
C1916 C 0.02995 0.11552 0.16671 0.0
C1917 C 0.02151 0.07402 0.13577 0.0
C1918 C 0.01743 0.05155 0.14371 0.0
C1919 C 0.02481 0.03123 0.13047 0.0
C1920 C 0.03593 0.03334 0.10872 0.0
C1921 C 0.04035 0.0556 0.0989 0.0
C1922 C 0.03288 0.0765 0.11339 0.0
H1923 H 0.3028 0.66034 0.45664 0.0
H1924 H 0.3171 0.72192 0.51996 0.0
H1925 H 0.3071 0.74997 0.49377 0.0
H1926 H 0.32228 0.70057 0.40972 0.0
H1927 H 0.30048 0.68216 0.38635 0.0
H1928 H 0.31258 0.66766 0.40897 0.0
H1929 H 0.27304 0.65129 0.42129 0.0
H1930 H 0.26085 0.66601 0.39906 0.0
H1931 H 0.25591 0.67316 0.43114 0.0
H1932 H 0.29001 0.76936 0.4638 0.0
H1933 H 0.2701 0.78083 0.42867 0.0
H1934 H 0.26735 0.70776 0.38403 0.0
C1935 C 0.30465 0.67994 0.46462 0.0
C1936 C 0.31065 0.68908 0.49014 0.0
C1937 C 0.31245 0.71465 0.50034 0.0
C1938 C 0.30689 0.73076 0.48566 0.0
C1939 C 0.29993 0.72103 0.4608 0.0
C1940 C 0.29921 0.69642 0.4501 0.0
C1941 C 0.28946 0.69053 0.42328 0.0
C1942 C 0.30726 0.6849 0.40605 0.0
C1943 C 0.26857 0.66898 0.41844 0.0
C1944 C 0.2835 0.71515 0.42128 0.0
C1945 C 0.29001 0.73254 0.44308 0.0
C1946 C 0.28516 0.75615 0.44644 0.0
C1947 C 0.27366 0.76238 0.42668 0.0
C1948 C 0.26712 0.74492 0.40426 0.0
C1949 C 0.2721 0.72112 0.40135 0.0
H1950 H 0.66464 0.02901 0.68085 0.0
H1951 H 0.66592 0.10608 0.71395 0.0
H1952 H 0.64005 0.10886 0.67933 0.0
H1953 H 0.65914 0.04068 0.6137 0.0
H1954 H 0.64196 1.00977 0.60301 0.0
H1955 H 0.66388 0.0153 0.62801 0.0
H1956 H 0.63447 0.99603 0.65482 0.0
H1957 H 0.6123 0.9917 0.63043 0.0
H1958 H 0.61059 1.00962 0.66059 0.0
H1959 H 0.60782 0.10045 0.64833 0.0
H1960 H 0.58005 0.08616 0.61159 0.0
H1961 H 0.60148 0.01598 0.59616 0.0
C1962 C 0.6602 0.04671 0.68014 0.0
C1963 C 0.66659 0.0671 0.70018 0.0
C1964 C 0.6606 0.09007 0.69889 0.0
C1965 C 0.64595 0.09187 0.6794 0.0
C1966 C 0.6381 0.07075 0.66111 0.0
C1967 C 0.64583 0.04901 0.66043 0.0
C1968 C 0.63419 0.02908 0.63854 0.0
C1969 C 0.65078 0.02339 0.61971 0.0
C1970 C 0.62218 1.00521 0.64661 0.0
C1971 C 0.61769 0.04252 0.62853 0.0
C1972 C 0.62021 0.06647 0.6419 0.0
C1973 C 0.60614 0.08206 0.63703 0.0
C1974 C 0.59024 0.07368 0.61642 0.0
C1975 C 0.58933 0.05041 0.60086 0.0
C1976 C 0.60219 0.03404 0.60778 0.0
H1977 H 0.33358 0.33835 0.97174 0.0
H1978 H 0.34138 0.41536 0.96283 0.0
H1979 H 0.34192 0.40232 0.91815 0.0
H1980 H 0.36996 0.32136 0.92171 0.0
H1981 H 0.35285 0.29036 0.91142 0.0
H1982 H 0.35498 0.30559 0.94347 0.0
H1983 H 0.31174 0.29894 0.94077 0.0
H1984 H 0.30966 0.28381 0.90876 0.0
H1985 H 0.29732 0.31039 0.91728 0.0
H1986 H 0.33903 0.38166 0.87416 0.0
H1987 H 0.33251 0.35389 0.83317 0.0
H1988 H 0.32674 0.28948 0.86807 0.0
C1989 C 0.33585 0.35245 0.96042 0.0
C1990 C 0.33749 0.37799 0.97112 0.0
C1991 C 0.34011 0.39573 0.9554 0.0
C1992 C 0.34049 0.38854 0.92983 0.0
C1993 C 0.33853 0.3634 0.91981 0.0
C1994 C 0.33642 0.34554 0.93448 0.0
C1995 C 0.33388 0.31967 0.91834 0.0
C1996 C 0.35412 0.30858 0.92409 0.0
C1997 C 0.31183 0.30218 0.92148 0.0
C1998 C 0.33375 0.32582 0.89248 0.0
C1999 C 0.33697 0.35128 0.89395 0.0
C2000 C 0.33692 0.3617 0.87279 0.0
C2001 C 0.33332 0.34575 0.84948 0.0
C2002 C 0.32987 0.31953 0.84728 0.0
C2003 C 0.33 0.30949 0.86917 0.0
H2004 H 0.99924 0.05522 0.34157 0.0
H2005 H 0.95552 0.10152 0.37339 0.0
H2006 H 0.97168 0.10062 0.41522 0.0
H2007 H 0.99499 0.01625 0.39104 0.0
H2008 H 0.02351 1.01266 0.39131 0.0
H2009 H 1.00915 0.0171 0.36347 0.0
H2010 H 0.04102 0.05492 0.36225 0.0
H2011 H 0.0551 0.05058 0.39033 0.0
H2012 H 0.04835 0.08026 0.38874 0.0
H2013 H 0.9932 0.09597 0.45542 0.0
H2014 H 0.01414 0.08546 0.48925 0.0
H2015 H 0.04598 0.03987 0.43643 0.0
C2016 C 0.99302 0.06532 0.35728 0.0
C2017 C 0.97556 0.07886 0.35289 0.0
C2018 C 0.96842 0.09108 0.37495 0.0
C2019 C 0.97776 0.0907 0.39929 0.0
C2020 C 0.99458 0.07749 0.40283 0.0
C2021 C 1.00203 0.06463 0.3824 0.0
C2022 C 0.01969 0.05096 0.39222 0.0
C2023 C 1.01135 0.02255 0.38401 0.0
C2024 C 0.0424 0.05969 0.38281 0.0
C2025 C 0.0214 0.05862 0.42112 0.0
C2026 C 1.00654 0.07399 0.42635 0.0
C2027 C 1.00458 0.08371 0.45109 0.0
C2028 C 0.01707 0.0774 0.47074 0.0
C2029 C 0.03239 0.06106 0.46733 0.0
C2030 C 0.03463 0.05199 0.44122 0.0
H2031 H 0.32809 0.69381 0.61186 0.0
H2032 H 0.25895 0.65533 0.60914 0.0
H2033 H 0.25512 0.68328 0.64787 0.0
H2034 H 0.3404 0.71368 0.68305 0.0
H2035 H 0.35712 0.74316 0.67945 0.0
H2036 H 0.3561 0.71536 0.65664 0.0
H2037 H 0.34432 0.73871 0.62307 0.0
H2038 H 0.34358 0.76581 0.64596 0.0
H2039 H 0.31901 0.75029 0.62497 0.0
H2040 H 0.25568 0.72121 0.67843 0.0
H2041 H 0.26442 0.75964 0.71041 0.0
H2042 H 0.33311 0.77424 0.69268 0.0
C2043 C 0.31278 0.6901 0.62064 0.0
C2044 C 0.2939 0.67238 0.60819 0.0
C2045 C 0.27363 0.66853 0.61907 0.0
C2046 C 0.27123 0.68461 0.64072 0.0
C2047 C 0.28937 0.70402 0.65093 0.0
C2048 C 0.31009 0.70629 0.64198 0.0
C2049 C 0.32598 0.73048 0.65457 0.0
C2050 C 0.34608 0.72535 0.66932 0.0
C2051 C 0.33366 0.74728 0.63602 0.0
C2052 C 0.31073 0.7416 0.67144 0.0
C2053 C 0.28965 0.72621 0.66873 0.0
C2054 C 0.27232 0.73306 0.68133 0.0
C2055 C 0.27734 0.75512 0.69906 0.0
C2056 C 0.29958 0.76949 0.70424 0.0
C2057 C 0.31606 0.76361 0.68914 0.0
H2058 H 0.66934 0.02121 0.82037 0.0
H2059 H 0.71997 0.08901 0.82639 0.0
H2060 H 0.7007 0.11068 0.85861 0.0
H2061 H 0.62545 0.04422 0.82195 0.0
H2062 H 0.60953 0.02599 0.84133 0.0
H2063 H 0.62998 1.0137 0.82414 0.0
H2064 H 0.65079 1.00766 0.86415 0.0
H2065 H 0.62977 0.01879 0.88157 0.0
H2066 H 0.65892 0.03343 0.89014 0.0
H2067 H 0.67071 0.12698 0.88093 0.0
H2068 H 0.63664 0.13448 0.90028 0.0
H2069 H 0.60704 0.05524 0.88121 0.0
C2070 C 0.67717 0.04006 0.82985 0.0
C2071 C 0.69596 0.05359 0.82122 0.0
C2072 C 0.70555 0.07848 0.83306 0.0
C2073 C 0.69466 0.09091 0.85125 0.0
C2074 C 0.67485 0.07766 0.85784 0.0
C2075 C 0.66678 0.05242 0.84838 0.0
C2076 C 0.64423 0.04294 0.85677 0.0
C2077 C 0.62627 0.03103 0.83472 0.0
C2078 C 0.64604 0.02463 0.8742 0.0
C2079 C 0.64 0.06715 0.87057 0.0
C2080 C 0.65787 0.08698 0.87124 0.0
C2081 C 0.65687 0.11152 0.88115 0.0
C2082 C 0.63741 0.1157 0.8916 0.0
C2083 C 0.61941 0.09542 0.89174 0.0
C2084 C 0.62067 0.07098 0.881 0.0
H2085 H 0.31477 0.32777 0.09577 0.0
H2086 H 0.33156 0.4084 0.11915 0.0
H2087 H 0.32531 0.40401 0.16206 0.0
H2088 H 0.27009 0.31903 0.13983 0.0
H2089 H 0.27587 0.28979 0.14478 0.0
H2090 H 0.2798 0.2991 0.1154 0.0
H2091 H 0.32084 0.2942 0.11956 0.0
H2092 H 0.31694 0.28491 0.14885 0.0
H2093 H 0.33924 0.31091 0.14682 0.0
H2094 H 0.3201 0.39114 0.20297 0.0
H2095 H 0.31659 0.37089 0.23904 0.0
H2096 H 0.30255 0.29811 0.19024 0.0
C2097 C 0.31688 0.34448 0.10991 0.0
C2098 C 0.32377 0.36851 0.10399 0.0
C2099 C 0.32616 0.38987 0.12305 0.0
C2100 C 0.32265 0.38754 0.14754 0.0
C2101 C 0.31611 0.3637 0.1528 0.0
C2102 C 0.31285 0.3425 0.13449 0.0
C2103 C 0.30583 0.31912 0.14538 0.0
C2104 C 0.28146 0.30597 0.13577 0.0
C2105 C 0.32168 0.30125 0.13983 0.0
C2106 C 0.30769 0.33043 0.17291 0.0
C2107 C 0.31295 0.35621 0.17658 0.0
C2108 C 0.3159 0.37097 0.20025 0.0
C2109 C 0.31398 0.3592 0.22072 0.0
C2110 C 0.30954 0.33279 0.21775 0.0
C2111 C 0.30579 0.31825 0.19333 0.0
H2112 H 0.27529 0.99037 0.99635 0.0
H2113 H 0.27911 0.94709 0.0537 0.0
H2114 H 0.25042 0.96571 0.07462 0.0
H2115 H 0.27011 0.04457 0.03109 0.0
H2116 H 0.2492 0.0517 0.01073 0.0
H2117 H 0.26752 0.0324 0.99822 0.0
H2118 H 0.2335 0.9971 0.97816 0.0
H2119 H 0.21491 0.01644 0.99018 0.0
H2120 H 0.21237 0.98565 0.99704 0.0
H2121 H 0.22726 0.9943 0.09286 0.0
H2122 H 0.20556 0.02683 0.10422 0.0
H2123 H 0.21411 0.04891 0.03343 0.0
C2124 C 0.26947 0.98441 0.01289 0.0
C2125 C 0.27904 0.9675 0.0236 0.0
C2126 C 0.27151 0.95995 0.04529 0.0
C2127 C 0.25534 0.9704 0.05726 0.0
C2128 C 0.24655 0.98768 0.04673 0.0
C2129 C 0.25276 0.99404 0.02462 0.0
C2130 C 0.24112 1.01359 0.0177 0.0
C2131 C 0.25801 0.03694 0.01426 0.0
C2132 C 0.22448 1.00254 0.9944 0.0
C2133 C 0.22909 0.01883 0.04047 0.0
C2134 C 0.23222 1.00347 0.05684 0.0
C2135 C 0.22423 1.00612 0.08003 0.0
C2136 C 0.21231 0.02477 0.08649 0.0
C2137 C 0.20865 0.04027 0.06976 0.0
C2138 C 0.21698 0.03722 0.04648 0.0
H2139 H 0.73409 0.65554 0.03557 0.0
H2140 H 0.72633 0.66472 0.95943 0.0
H2141 H 0.6887 0.63668 0.95338 0.0
H2142 H 0.70211 0.58934 0.02505 0.0
H2143 H 0.68958 0.59404 0.05368 0.0
H2144 H 0.71693 0.61228 0.05126 0.0
H2145 H 0.70298 0.65283 0.06505 0.0
H2146 H 0.67556 0.63473 0.06727 0.0
H2147 H 0.67881 0.65789 0.04801 0.0
H2148 H 0.65134 0.60844 0.95575 0.0
H2149 H 0.61629 0.58407 0.96702 0.0
H2150 H 0.64631 0.59554 0.04258 0.0
C2151 C 0.72463 0.65108 0.01749 0.0
C2152 C 0.73333 0.66187 0.99773 0.0
C2153 C 0.72015 0.65632 0.97461 0.0
C2154 C 0.69873 0.64043 0.97105 0.0
C2155 C 0.69042 0.6304 0.99091 0.0
C2156 C 0.70291 0.63551 0.01374 0.0
C2157 C 0.68932 0.62359 0.03241 0.0
C2158 C 0.70013 0.60363 0.04111 0.0
C2159 C 0.6865 0.64346 0.05449 0.0
C2160 C 0.66709 0.6117 0.01673 0.0
C2161 C 0.66832 0.61538 0.9927 0.0
C2162 C 0.65018 0.60562 0.97456 0.0
C2163 C 0.6303 0.59185 0.98112 0.0
C2164 C 0.62836 0.58842 1.00574 0.0
C2165 C 0.64709 0.59844 0.02375 0.0
H2166 H 0.72299 0.4461 0.30929 0.0
H2167 H 0.73219 0.45869 0.23517 0.0
H2168 H 0.75419 0.42588 0.22903 0.0
H2169 H 0.78049 0.43581 0.32185 0.0
H2170 H 0.7722 0.41257 0.34031 0.0
H2171 H 0.75638 0.43626 0.33878 0.0
H2172 H 0.72043 0.40208 0.32427 0.0
H2173 H 0.7362 0.37836 0.32584 0.0
H2174 H 0.71987 0.37809 0.29742 0.0
H2175 H 0.77643 0.38736 0.23045 0.0
H2176 H 0.79482 0.35393 0.24015 0.0
H2177 H 0.77509 0.36698 0.31434 0.0
C2178 C 0.72929 0.44191 0.29152 0.0
C2179 C 0.72454 0.45584 0.27248 0.0
C2180 C 0.73451 0.44909 0.25021 0.0
C2181 C 0.7474 0.43003 0.24652 0.0
C2182 C 0.75164 0.41688 0.26536 0.0
C2183 C 0.74296 0.42295 0.28769 0.0
C2184 C 0.7509 0.40685 0.30545 0.0
C2185 C 0.76586 0.42389 0.32795 0.0
C2186 C 0.73064 0.39037 0.31375 0.0
C2187 C 0.76471 0.39042 0.28976 0.0
C2188 C 0.76497 0.39649 0.26655 0.0
C2189 C 0.77628 0.38324 0.24887 0.0
C2190 C 0.7872 0.36397 0.25469 0.0
C2191 C 0.78798 0.35728 0.27851 0.0
C2192 C 0.77597 0.37122 0.296 0.0
H2193 H 0.90613 0.49338 0.51928 0.0
H2194 H 0.91912 0.42094 0.52562 0.0
H2195 H 0.95946 0.43776 0.52663 0.0
H2196 H 0.94833 0.50975 0.4801 0.0
H2197 H 0.95612 0.54226 0.49504 0.0
H2198 H 0.92813 0.52467 0.49541 0.0
H2199 H 0.93293 0.53727 0.54353 0.0
H2200 H 0.96095 0.55454 0.54252 0.0
H2201 H 0.95617 0.53054 0.56076 0.0
H2202 H 0.99697 0.45962 0.52122 0.0
H2203 H 0.03265 0.48975 0.52208 0.0
H2204 H 0.99712 0.54953 0.52349 0.0
C2205 C 0.91755 0.48131 0.52152 0.0
C2206 C 0.90955 0.45574 0.52196 0.0
C2207 C 0.92492 0.44044 0.5248 0.0
C2208 C 0.94783 0.44976 0.52527 0.0
C2209 C 0.95511 0.47448 0.52314 0.0
C2210 C 0.94067 0.4904 0.52225 0.0
C2211 C 0.95337 0.51639 0.52068 0.0
C2212 C 0.94604 0.52366 0.49634 0.0
C2213 C 0.9507 0.53582 0.54323 0.0
C2214 C 0.97707 0.51234 0.52093 0.0
C2215 C 0.97743 0.48779 0.52157 0.0
C2216 C 0.99705 0.47899 0.52101 0.0
C2217 C 0.01713 0.4961 0.5212 0.0
C2218 C 0.01735 0.52165 0.52249 0.0
C2219 C 0.99713 0.52989 0.52195 0.0
H2220 H 0.3959 0.12166 0.32753 0.0
H2221 H 0.41292 0.07557 0.26286 0.0
H2222 H 0.39014 0.09369 0.23561 0.0
H2223 H 0.34205 0.11384 0.30979 0.0
H2224 H 0.33875 0.14514 0.32114 0.0
H2225 H 0.36071 0.13382 0.33538 0.0
H2226 H 0.39055 0.17077 0.32723 0.0
H2227 H 0.36862 0.18284 0.31364 0.0
H2228 H 0.3916 0.17709 0.29637 0.0
H2229 H 0.36055 0.11071 0.21633 0.0
H2230 H 0.32934 0.13039 0.20577 0.0
H2231 H 0.33038 0.16274 0.28357 0.0
C2232 C 0.39556 0.11645 0.30761 0.0
C2233 C 0.40605 0.09777 0.29694 0.0
C2234 C 0.40499 0.09034 0.27097 0.0
C2235 C 0.39216 0.10045 0.25545 0.0
C2236 C 0.38081 0.11796 0.26643 0.0
C2237 C 0.38279 0.12637 0.29189 0.0
C2238 C 0.36705 0.14323 0.29912 0.0
C2239 C 0.35121 0.13338 0.31741 0.0
C2240 C 0.38024 0.17008 0.3097 0.0
C2241 C 0.35476 0.14129 0.27404 0.0
C2242 C 0.36324 0.1272 0.25533 0.0
C2243 C 0.35396 0.12222 0.23071 0.0
C2244 C 0.33605 0.13298 0.22492 0.0
C2245 C 0.32771 0.14807 0.24384 0.0
C2246 C 0.33673 0.1515 0.26871 0.0
H2247 H 0.3416 0.13393 0.52371 0.0
H2248 H 0.38125 0.2056 0.51616 0.0
H2249 H 0.41585 0.19012 0.522 0.0
H2250 H 0.37823 0.12364 0.57135 0.0
H2251 H 0.37346 0.09044 0.55996 0.0
H2252 H 0.35198 0.10691 0.55401 0.0
H2253 H 0.35074 0.0902 0.50682 0.0
H2254 H 0.37224 0.07367 0.51263 0.0
H2255 H 0.37614 0.09549 0.49199 0.0
H2256 H 0.44638 0.16678 0.53039 0.0
H2257 H 0.46971 0.13837 0.54157 0.0
H2258 H 0.40958 0.08189 0.54231 0.0
C2259 C 0.35753 0.14636 0.52317 0.0
C2260 C 0.3587 0.17099 0.51952 0.0
C2261 C 0.37993 0.18667 0.51902 0.0
C2262 C 0.39968 0.17801 0.52223 0.0
C2263 C 0.39792 0.15361 0.52589 0.0
C2264 C 0.37735 0.13805 0.52636 0.0
C2265 C 0.37994 0.11294 0.53139 0.0
C2266 C 0.37034 0.10822 0.55561 0.0
C2267 C 0.36913 0.09183 0.50939 0.0
C2268 C 0.40516 0.11681 0.53392 0.0
C2269 C 0.41531 0.14031 0.53059 0.0
C2270 C 0.43856 0.14827 0.53287 0.0
C2271 C 0.4517 0.1319 0.53909 0.0
C2272 C 0.44157 0.10782 0.54299 0.0
C2273 C 0.41796 0.10024 0.53991 0.0
H2274 H 0.70882 0.62823 0.30573 0.0
H2275 H 0.74611 0.57955 0.26468 0.0
H2276 H 0.77405 0.61681 0.2594 0.0
H2277 H 0.71748 0.67737 0.27139 0.0
H2278 H 0.72119 0.70254 0.29788 0.0
H2279 H 0.7046 0.67221 0.29903 0.0
H2280 H 0.72933 0.67084 0.33823 0.0
H2281 H 0.74591 0.70127 0.33727 0.0
H2282 H 0.75919 0.67534 0.33758 0.0
H2283 H 0.79825 0.66172 0.25711 0.0
H2284 H 0.81533 0.70631 0.25936 0.0
H2285 H 0.76346 0.72703 0.30294 0.0
C2286 C 0.72294 0.62521 0.29575 0.0
C2287 C 0.72479 0.60012 0.28571 0.0
C2288 C 0.74389 0.59791 0.27288 0.0
C2289 C 0.75998 0.61929 0.26967 0.0
C2290 C 0.75746 0.64353 0.27959 0.0
C2291 C 0.73944 0.6465 0.2927 0.0
C2292 C 0.74075 0.67455 0.30199 0.0
C2293 C 0.71975 0.68211 0.29197 0.0
C2294 C 0.74397 0.68088 0.33046 0.0
C2295 C 0.7617 0.68709 0.29129 0.0
C2296 C 0.77127 0.66881 0.27865 0.0
C2297 C 0.79076 0.67587 0.26726 0.0
C2298 C 0.80062 0.70165 0.26882 0.0
C2299 C 0.79143 0.72113 0.28167 0.0
C2300 C 0.77139 0.7132 0.29296 0.0
H2301 H 0.92652 0.46354 0.84035 0.0
H2302 H 0.89403 0.49126 0.78243 0.0
H2303 H 0.86371 0.4533 0.77435 0.0
H2304 H 0.91736 0.40183 0.81179 0.0
H2305 H 0.91154 0.38942 0.83929 0.0
H2306 H 0.92882 0.42008 0.84199 0.0
H2307 H 0.90192 0.43891 0.87123 0.0
H2308 H 0.88563 0.40768 0.86869 0.0
H2309 H 0.87239 0.4318 0.86117 0.0
H2310 H 0.83782 0.41167 0.77152 0.0
H2311 H 0.82232 0.36658 0.76918 0.0
H2312 H 0.87393 0.36556 0.82599 0.0
C2313 C 0.91299 0.46151 0.82602 0.0
C2314 C 0.9124 0.48012 0.81211 0.0
C2315 C 0.89448 0.47714 0.79351 0.0
C2316 C 0.87712 0.45582 0.78892 0.0
C2317 C 0.87783 0.43797 0.8034 0.0
C2318 C 0.89541 0.44049 0.82138 0.0
C2319 C 0.89303 0.41787 0.83314 0.0
C2320 C 0.91392 0.40663 0.83139 0.0
C2321 C 0.88792 0.42446 0.86014 0.0
C2322 C 0.8728 0.40121 0.81713 0.0
C2323 C 0.86339 0.41363 0.80116 0.0
C2324 C 0.84476 0.40183 0.78424 0.0
C2325 C 0.836 0.37636 0.78312 0.0
C2326 C 0.84656 0.36313 0.79811 0.0
C2327 C 0.86506 0.37569 0.81523 0.0
H2328 H 0.10794 0.87686 0.06113 0.0
H2329 H 0.10079 0.90482 0.13821 0.0
H2330 H 0.09215 0.94275 0.12735 0.0
H2331 H 0.13453 0.9378 0.04802 0.0
H2332 H 0.12048 0.9324 0.0172 0.0
H2333 H 0.12552 0.9064 0.03027 0.0
H2334 H 0.08329 0.88602 0.02212 0.0
H2335 H 0.07803 0.91214 0.00935 0.0
H2336 H 0.06338 0.90321 0.03473 0.0
H2337 H 0.08371 0.9791 0.10879 0.0
H2338 H 0.07899 1.01103 0.08416 0.0
H2339 H 0.09248 0.96313 0.01857 0.0
C2340 C 0.10461 0.89093 0.07577 0.0
C2341 C 0.10517 0.88698 0.10086 0.0
C2342 C 0.10062 0.90651 0.11896 0.0
C2343 C 0.09555 0.92849 0.11294 0.0
C2344 C 0.09504 0.93174 0.08843 0.0
C2345 C 0.09962 0.91361 0.07004 0.0
C2346 C 0.09842 0.92263 0.04523 0.0
C2347 C 0.12109 0.92494 0.03454 0.0
C2348 C 0.07967 0.90494 0.02675 0.0
C2349 C 0.09281 0.94849 0.0527 0.0
C2350 C 0.09063 0.9531 0.07775 0.0
C2351 C 0.08537 0.97549 0.08914 0.0
C2352 C 0.08255 0.99365 0.0749 0.0
C2353 C 0.08488 0.98989 0.04916 0.0
C2354 C 0.09024 0.96677 0.03808 0.0
H2355 H 0.96539 0.25848 0.87304 0.0
H2356 H 0.95116 0.3031 0.94084 0.0
H2357 H 0.91725 0.30866 0.91947 0.0
H2358 H 0.94452 0.29455 0.83044 0.0
H2359 H 0.93107 0.268 0.80675 0.0
H2360 H 0.95495 0.26629 0.82663 0.0
H2361 H 0.93196 0.22709 0.83924 0.0
H2362 H 0.90801 0.22875 0.81939 0.0
H2363 H 0.90572 0.22843 0.85173 0.0
H2364 H 0.88315 0.30743 0.89357 0.0
H2365 H 0.85269 0.30473 0.86211 0.0
H2366 H 0.88685 0.26517 0.80681 0.0
C2367 C 0.95517 0.26945 0.88335 0.0
C2368 C 0.96141 0.27993 0.90926 0.0
C2369 C 0.94717 0.29423 0.92149 0.0
C2370 C 0.92759 0.29767 0.9094 0.0
C2371 C 0.92171 0.28686 0.88451 0.0
C2372 C 0.935 0.27323 0.87128 0.0
C2373 C 0.92391 0.26405 0.84435 0.0
C2374 C 0.93956 0.27381 0.82595 0.0
C2375 C 0.917 0.23537 0.83831 0.0
C2376 C 0.90301 0.27545 0.84473 0.0
C2377 C 0.9021 0.28786 0.86848 0.0
C2378 C 0.88402 0.29838 0.87472 0.0
C2379 C 0.86665 0.2969 0.85632 0.0
C2380 C 0.86726 0.2859 0.83113 0.0
C2381 C 0.88581 0.27451 0.82548 0.0
H2382 H 0.59775 0.24068 0.54898 0.0
H2383 H 0.61065 0.24486 0.62787 0.0
H2384 H 0.60585 0.19879 0.62062 0.0
H2385 H 0.55357 0.18287 0.53985 0.0
H2386 H 0.56042 0.1711 0.50937 0.0
H2387 H 0.56549 0.2043 0.52087 0.0
H2388 H 0.60704 0.20842 0.51269 0.0
H2389 H 0.60215 0.17517 0.50153 0.0
H2390 H 0.62364 0.19023 0.52654 0.0
H2391 H 0.60107 0.1508 0.60383 0.0
H2392 H 0.59164 0.10708 0.58045 0.0
H2393 H 0.57892 0.13318 0.51287 0.0
C2394 C 0.5995 0.2319 0.56476 0.0
C2395 C 0.60478 0.2468 0.58912 0.0
C2396 C 0.60656 0.2342 0.60911 0.0
C2397 C 0.60399 0.20789 0.60509 0.0
C2398 C 0.59906 0.19383 0.5809 0.0
C2399 C 0.59627 0.20544 0.56112 0.0
C2400 C 0.58948 0.18591 0.53713 0.0
C2401 C 0.56584 0.18606 0.52615 0.0
C2402 C 0.6066 0.19021 0.51836 0.0
C2403 C 0.58969 0.16163 0.54622 0.0
C2404 C 0.59537 0.16656 0.57154 0.0
C2405 C 0.59658 0.14699 0.58401 0.0
C2406 C 0.59137 0.12201 0.57052 0.0
C2407 C 0.58498 0.11629 0.54463 0.0
C2408 C 0.58423 0.13669 0.53251 0.0
H2409 H 0.60318 0.8141 0.41401 0.0
H2410 H 0.58009 0.73418 0.38888 0.0
H2411 H 0.61431 0.73287 0.36755 0.0
H2412 H 0.623 0.82476 0.35693 0.0
H2413 H 0.64644 0.84972 0.37074 0.0
H2414 H 0.62181 0.84383 0.38667 0.0
H2415 H 0.64608 0.83929 0.42502 0.0
H2416 H 0.67079 0.84501 0.4091 0.0
H2417 H 0.66375 0.81702 0.4216 0.0
H2418 H 0.65101 0.74063 0.34783 0.0
H2419 H 0.68362 0.75729 0.32678 0.0
H2420 H 0.6812 0.8326 0.36169 0.0
C2421 C 0.60561 0.79627 0.40443 0.0
C2422 C 0.58921 0.7741 0.40352 0.0
C2423 C 0.59256 0.75129 0.39004 0.0
C2424 C 0.612 0.75039 0.37796 0.0
C2425 C 0.62782 0.77258 0.37903 0.0
C2426 C 0.62464 0.79518 0.39162 0.0
C2427 C 0.64292 0.81664 0.38767 0.0
C2428 C 0.63294 0.8348 0.37473 0.0
C2429 C 0.6567 0.83029 0.41232 0.0
C2430 C 0.65677 0.80266 0.3708 0.0
C2431 C 0.64809 0.7772 0.36646 0.0
C2432 C 0.65791 0.76054 0.35115 0.0
C2433 C 0.67656 0.77015 0.33938 0.0
C2434 C 0.68505 0.79623 0.34254 0.0
C2435 C 0.67517 0.81256 0.3589 0.0
H2436 H 0.10858 0.25678 0.41488 0.0
H2437 H 0.15233 0.30646 0.47603 0.0
H2438 H 0.14992 0.27222 0.49898 0.0
H2439 H 0.0714 0.23255 0.44684 0.0
H2440 H 0.06454 0.20055 0.43035 0.0
H2441 H 0.0762 0.22492 0.41472 0.0
H2442 H 0.10849 0.20306 0.40313 0.0
H2443 H 0.09674 0.17825 0.41859 0.0
H2444 H 0.12539 0.19498 0.42702 0.0
H2445 H 0.13511 0.2381 0.51943 0.0
H2446 H 0.10863 0.20667 0.53578 0.0
H2447 H 0.0728 0.17914 0.46272 0.0
C2448 C 0.11869 0.25982 0.43243 0.0
C2449 C 0.13092 0.28389 0.44364 0.0
C2450 C 0.14315 0.2879 0.46712 0.0
C2451 C 0.14196 0.26852 0.48021 0.0
C2452 C 0.12851 0.24526 0.46949 0.0
C2453 C 0.11729 0.24066 0.44592 0.0
C2454 C 0.10053 0.21585 0.4407 0.0
C2455 C 0.07679 0.21868 0.43273 0.0
C2456 C 0.10825 0.19691 0.42121 0.0
C2457 C 0.10213 0.20886 0.46591 0.0
C2458 C 0.11919 0.22537 0.48186 0.0
C2459 C 0.12221 0.22455 0.50696 0.0
C2460 C 0.1071 0.20682 0.51614 0.0
C2461 C 0.08903 0.19071 0.50031 0.0
C2462 C 0.08686 0.1912 0.47487 0.0
H2463 H 0.60005 0.30216 0.19478 0.0
H2464 H 0.56606 0.2262 0.16132 0.0
H2465 H 0.59538 0.21014 0.18182 0.0
H2466 H 0.65678 0.29262 0.1899 0.0
H2467 H 0.66804 0.31264 0.21931 0.0
H2468 H 0.64451 0.31847 0.20186 0.0
H2469 H 0.62167 0.31643 0.23956 0.0
H2470 H 0.64511 0.31059 0.25712 0.0
H2471 H 0.61827 0.28917 0.25343 0.0
H2472 H 0.62668 0.20201 0.2064 0.0
H2473 H 0.66049 0.20199 0.23303 0.0
H2474 H 0.67573 0.28305 0.25034 0.0
C2475 C 0.59909 0.28223 0.19171 0.0
C2476 C 0.58115 0.26525 0.17646 0.0
C2477 C 0.57996 0.2393 0.17286 0.0
C2478 C 0.59643 0.23005 0.18443 0.0
C2479 C 0.61394 0.2471 0.19945 0.0
C2480 C 0.61558 0.27262 0.20309 0.0
C2481 C 0.63629 0.2866 0.22032 0.0
C2482 C 0.65236 0.30358 0.20705 0.0
C2483 C 0.62994 0.30158 0.24401 0.0
C2484 C 0.64586 0.26486 0.22575 0.0
C2485 C 0.63253 0.24231 0.21359 0.0
C2486 C 0.63735 0.2195 0.21602 0.0
C2487 C 0.65645 0.21966 0.23127 0.0
C2488 C 0.67052 0.24246 0.24373 0.0
C2489 C 0.66521 0.26537 0.24088 0.0
H2490 H 0.63858 0.90291 0.95342 0.0
H2491 H 0.62168 0.91182 0.87841 0.0
H2492 H 0.61248 0.95223 0.89489 0.0
H2493 H 0.59538 0.92377 0.97897 0.0
H2494 H 0.61054 0.94026 1.00824 0.0
H2495 H 0.61969 0.91436 0.99089 0.0
H2496 H 0.65903 0.94245 0.99128 0.0
H2497 H 0.64999 0.96843 1.00895 0.0
H2498 H 0.66162 0.97129 0.98015 0.0
H2499 H 0.5998 0.98723 0.91882 0.0
H2500 H 0.5854 0.0163 0.9488 0.0
H2501 H 0.61162 0.98595 1.00889 0.0
C2502 C 0.63353 0.91373 0.94047 0.0
C2503 C 0.63089 0.90448 0.9147 0.0
C2504 C 0.62399 0.91883 0.89823 0.0
C2505 C 0.61878 0.94176 0.9074 0.0
C2506 C 0.62097 0.95007 0.93297 0.0
C2507 C 0.62846 0.93671 0.94932 0.0
C2508 C 0.62735 0.94871 0.97594 0.0
C2509 C 0.61233 0.93069 0.98927 0.0
C2510 C 0.6509 0.95829 0.9899 0.0
C2511 C 0.61687 0.97011 0.9719 0.0
C2512 C 0.61369 0.97071 0.94701 0.0
C2513 C 0.6026 0.98733 0.93841 0.0
C2514 C 0.59435 1.00369 0.9557 0.0
C2515 C 0.59719 1.00332 0.98135 0.0
C2516 C 0.60907 0.98666 0.98952 0.0
H2517 H 0.93965 0.74018 0.69218 0.0
H2518 H 0.98144 0.80946 0.73354 0.0
H2519 H 0.95184 0.81436 0.76139 0.0
H2520 H 0.88804 0.75571 0.69229 0.0
H2521 H 0.87252 0.72643 0.69797 0.0
H2522 H 0.89776 0.72734 0.68303 0.0
H2523 H 0.91425 0.70704 0.71688 0.0
H2524 H 0.88867 0.70601 0.73134 0.0
H2525 H 0.9151 0.72125 0.74903 0.0
H2526 H 0.91824 0.80983 0.78647 0.0
H2527 H 0.88004 0.80135 0.80018 0.0
H2528 H 0.85898 0.73954 0.73828 0.0
C2529 C 0.94251 0.75621 0.70726 0.0
C2530 C 0.96269 0.77439 0.71107 0.0
C2531 C 0.96609 0.79521 0.7308 0.0
C2532 C 0.94948 0.79805 0.74671 0.0
C2533 C 0.92982 0.7796 0.74284 0.0
C2534 C 0.92621 0.75912 0.72353 0.0
C2535 C 0.90328 0.74247 0.72294 0.0
C2536 C 0.8896 0.73776 0.69755 0.0
C2537 C 0.90546 0.71774 0.73049 0.0
C2538 C 0.89371 0.75827 0.74296 0.0
C2539 C 0.90973 0.77867 0.75537 0.0
C2540 C 0.90534 0.7945 0.7762 0.0
C2541 C 0.8836 0.79007 0.78354 0.0
C2542 C 0.86635 0.77161 0.76882 0.0
C2543 C 0.87173 0.75469 0.74911 0.0
H2544 H 0.15606 0.99068 0.8562 0.0
H2545 H 0.16093 0.06466 0.84017 0.0
H2546 H 0.14146 0.07608 0.87703 0.0
H2547 H 0.09897 0.98621 0.87771 0.0
H2548 H 0.10379 0.96886 0.90136 0.0
H2549 H 0.11862 0.96617 0.87416 0.0
H2550 H 0.1562 0.97893 0.90177 0.0
H2551 H 0.14147 0.9816 0.92903 0.0
H2552 H 0.1624 1.00772 0.92438 0.0
H2553 H 0.12064 0.08047 0.91804 0.0
H2554 H 0.10137 0.07703 0.95541 0.0
H2555 H 0.10695 0.99997 0.94758 0.0
C2556 C 0.15327 1.00944 0.86043 0.0
C2557 C 0.16104 0.0268 0.84432 0.0
C2558 C 0.15593 0.05074 0.85132 0.0
C2559 C 0.14461 0.05748 0.87265 0.0
C2560 C 0.13734 0.04021 0.88787 0.0
C2561 C 0.14131 0.01644 0.88185 0.0
C2562 C 0.13078 1.00123 0.90103 0.0
C2563 C 0.11193 0.97929 0.88778 0.0
C2564 C 0.14879 0.9918 0.91487 0.0
C2565 C 0.12102 0.02017 0.91919 0.0
C2566 C 0.12501 0.04254 0.91093 0.0
C2567 C 0.11774 0.06289 0.9243 0.0
C2568 C 0.10667 0.06077 0.94617 0.0
C2569 C 0.10214 0.03845 0.95599 0.0
C2570 C 0.10955 0.01762 0.94147 0.0
H2571 H 0.8355 0.43231 0.58368 0.0
H2572 H 0.79667 0.36365 0.53791 0.0
H2573 H 0.79599 0.34318 0.57382 0.0
H2574 H 0.87158 0.40962 0.60774 0.0
H2575 H 0.87604 0.42684 0.63922 0.0
H2576 H 0.86525 0.44014 0.61511 0.0
H2577 H 0.8304 0.44532 0.63778 0.0
H2578 H 0.84148 0.43284 0.6627 0.0
H2579 H 0.81371 0.41892 0.6476 0.0
H2580 H 0.81021 0.32674 0.60767 0.0
H2581 H 0.83468 0.31661 0.63979 0.0
H2582 H 0.86622 0.39505 0.6636 0.0
C2583 C 0.8256 0.4135 0.58174 0.0
C2584 C 0.81614 0.39946 0.55826 0.0
C2585 C 0.80395 0.37463 0.55591 0.0
C2586 C 0.80341 0.36292 0.57624 0.0
C2587 C 0.81503 0.37641 0.59867 0.0
C2588 C 0.82542 0.40146 0.60182 0.0
C2589 C 0.84075 0.41017 0.6258 0.0
C2590 C 0.8648 0.42237 0.62167 0.0
C2591 C 0.83099 0.42785 0.64458 0.0
C2592 C 0.83968 0.38549 0.63371 0.0
C2593 C 0.82399 0.3665 0.6185 0.0
C2594 C 0.82193 0.34156 0.62026 0.0
C2595 C 0.83608 0.33594 0.63822 0.0
C2596 C 0.85225 0.35516 0.65378 0.0
C2597 C 0.85396 0.38017 0.65168 0.0
H2598 H 0.47258 0.08747 0.39836 0.0
H2599 H 0.44971 1.00945 0.36376 0.0
H2600 H 0.48075 0.99902 0.38754 0.0
H2601 H 0.5287 0.09119 0.39777 0.0
H2602 H 0.53748 0.11092 0.42788 0.0
H2603 H 0.51195 0.11234 0.41077 0.0
H2604 H 0.48877 0.10218 0.44693 0.0
H2605 H 0.5145 0.10259 0.46472 0.0
H2606 H 0.49168 0.07561 0.46024 0.0
H2607 H 0.5168 0.99829 0.4107 0.0
H2608 H 0.54845 1.00486 0.44273 0.0
H2609 H 0.54727 0.08327 0.46198 0.0
C2610 C 0.47351 0.06808 0.39689 0.0
C2611 C 0.45895 0.04914 0.37971 0.0
C2612 C 0.46079 0.02401 0.3773 0.0
C2613 C 0.4785 0.01802 0.39034 0.0
C2614 C 0.49383 0.03749 0.40567 0.0
C2615 C 0.49098 0.06182 0.40986 0.0
C2616 C 0.50969 0.07919 0.42747 0.0
C2617 C 0.52271 0.09961 0.41522 0.0
C2618 C 0.50063 0.09054 0.45125 0.0
C2619 C 0.52368 0.06091 0.43216 0.0
C2620 C 0.51449 0.03703 0.41909 0.0
C2621 C 0.52405 0.01684 0.42128 0.0
C2622 C 0.5422 0.02077 0.43927 0.0
C2623 C 0.54963 0.0444 0.455 0.0
C2624 C 0.54173 0.06507 0.44992 0.0
H2625 H 0.80917 0.77231 0.09052 0.0
H2626 H 0.79911 0.69286 0.08939 0.0
H2627 H 0.80186 0.70122 0.13516 0.0
H2628 H 0.85062 0.79021 0.14531 0.0
H2629 H 0.84167 0.81856 0.15682 0.0
H2630 H 0.83868 0.8062 0.12399 0.0
H2631 H 0.79633 0.8059 0.12225 0.0
H2632 H 0.79909 0.81782 0.15514 0.0
H2633 H 0.77925 0.78913 0.14188 0.0
H2634 H 0.80527 0.71838 0.18165 0.0
H2635 H 0.81181 0.74304 0.2245 0.0
H2636 H 0.82059 0.81144 0.19596 0.0
C2637 C 0.80751 0.75668 0.09991 0.0
C2638 C 0.8037 0.73185 0.08619 0.0
C2639 C 0.80206 0.71201 0.09933 0.0
C2640 C 0.8035 0.71658 0.1254 0.0
C2641 C 0.80702 0.7412 0.13834 0.0
C2642 C 0.80941 0.76096 0.12603 0.0
C2643 C 0.81421 0.78572 0.14442 0.0
C2644 C 0.83768 0.80108 0.14251 0.0
C2645 C 0.79614 0.80051 0.14068 0.0
C2646 C 0.81325 0.77682 0.16889 0.0
C2647 C 0.8092 0.75105 0.16499 0.0
C2648 C 0.80825 0.73855 0.18481 0.0
C2649 C 0.81178 0.7527 0.20914 0.0
C2650 C 0.81578 0.77913 0.21361 0.0
C2651 C 0.81674 0.79124 0.19311 0.0
H2652 H 0.15258 0.05936 0.7064 0.0
H2653 H 0.15449 0.98101 0.69221 0.0
H2654 H 0.13541 0.97649 0.64985 0.0
H2655 H 0.09906 0.055 0.67327 0.0
H2656 H 0.1074 0.08289 0.66087 0.0
H2657 H 0.12151 0.07997 0.68951 0.0
H2658 H 0.15945 0.08818 0.67143 0.0
H2659 H 0.14539 0.0914 0.64287 0.0
H2660 H 0.16295 0.06914 0.64253 0.0
H2661 H 0.11273 0.981 0.6063 0.0
H2662 H 0.09583 0.99387 0.57042 0.0
H2663 H 0.10858 0.06954 0.61199 0.0
C2664 C 0.14941 0.04113 0.69441 0.0
C2665 C 0.15594 0.02059 0.70384 0.0
C2666 C 0.15068 0.99741 0.68651 0.0
C2667 C 0.13938 0.99465 0.66202 0.0
C2668 C 0.13308 0.01518 0.65376 0.0
C2669 C 0.13842 0.03818 0.66962 0.0
C2670 C 0.13053 0.0577 0.65634 0.0
C2671 C 0.11362 0.0696 0.67087 0.0
C2672 C 0.15078 0.07781 0.65311 0.0
C2673 C 0.11931 0.04231 0.63077 0.0
C2674 C 0.12097 0.01777 0.62959 0.0
C2675 C 0.11183 1.00036 0.60766 0.0
C2676 C 0.10182 1.00804 0.58685 0.0
C2677 C 0.10009 0.03326 0.58661 0.0
C2678 C 0.10906 0.05026 0.60988 0.0
H2679 H 0.87049 0.41021 0.45301 0.0
H2680 H 0.81952 0.44855 0.43275 0.0
H2681 H 0.80941 0.41839 0.39311 0.0
H2682 H 0.88624 0.39192 0.3868 0.0
H2683 H 0.8908 0.36261 0.39309 0.0
H2684 H 0.89673 0.38996 0.4175 0.0
H2685 H 0.87073 0.36521 0.44397 0.0
H2686 H 0.86374 0.33821 0.41924 0.0
H2687 H 0.84188 0.35194 0.43218 0.0
H2688 H 0.79637 0.37714 0.36621 0.0
H2689 H 0.79193 0.33684 0.33864 0.0
H2690 H 0.85677 0.32943 0.36843 0.0
C2691 C 0.85827 0.41313 0.43941 0.0
C2692 C 0.84582 0.43156 0.44542 0.0
C2693 C 0.82942 0.43473 0.42794 0.0
C2694 C 0.82338 0.4175 0.40567 0.0
C2695 C 0.8346 0.3981 0.40119 0.0
C2696 C 0.85262 0.39661 0.4167 0.0
C2697 C 0.86109 0.37321 0.40773 0.0
C2698 C 0.88514 0.37983 0.40084 0.0
C2699 C 0.85925 0.35616 0.42694 0.0
C2700 C 0.84453 0.36153 0.38518 0.0
C2701 C 0.82883 0.37572 0.38267 0.0
C2702 C 0.80937 0.36668 0.36671 0.0
C2703 C 0.80694 0.34354 0.35118 0.0
C2704 C 0.82457 0.33069 0.35042 0.0
C2705 C 0.84328 0.33925 0.3683 0.0
H2706 H 0.47722 0.07338 0.25018 0.0
H2707 H 0.43335 1.0014 0.24663 0.0
H2708 H 0.44385 0.9864 0.20523 0.0
H2709 H 0.46951 0.06871 0.17608 0.0
H2710 H 0.49806 0.08584 0.17803 0.0
H2711 H 0.48084 0.09343 0.20233 0.0
H2712 H 0.51102 0.0876 0.23429 0.0
H2713 H 0.52793 0.07914 0.21035 0.0
H2714 H 0.51935 0.05806 0.23094 0.0
H2715 H 0.46903 0.97524 0.17489 0.0
H2716 H 0.50155 0.97124 0.15132 0.0
H2717 H 0.5271 0.05119 0.17138 0.0
C2718 C 0.46882 0.05511 0.23976 0.0
C2719 C 0.45464 0.03838 0.25106 0.0
C2720 C 0.44417 1.01431 0.2378 0.0
C2721 C 0.44997 1.00574 0.21429 0.0
C2722 C 0.46555 0.02196 0.2042 0.0
C2723 C 0.47399 0.04663 0.21591 0.0
C2724 C 0.49272 0.05909 0.20283 0.0
C2725 C 0.48481 0.07787 0.18898 0.0
C2726 C 0.51399 0.07166 0.22068 0.0
C2727 C 0.49595 0.0366 0.18486 0.0
C2728 C 0.47964 0.01552 0.18529 0.0
C2729 C 0.48131 0.99175 0.17346 0.0
C2730 C 0.49994 0.98952 0.16062 0.0
C2731 C 0.51651 1.01093 0.15997 0.0
C2732 C 0.51433 0.03471 0.17173 0.0
H2733 H 0.79278 0.74443 0.9533 0.0
H2734 H 0.83141 0.6873 0.93899 0.0
H2735 H 0.84077 0.70011 0.89994 0.0
H2736 H 0.76973 0.73602 0.88934 0.0
H2737 H 0.7706 0.76869 0.89056 0.0
H2738 H 0.76771 0.75602 0.91827 0.0
H2739 H 0.80265 0.78935 0.93985 0.0
H2740 H 0.80555 0.8017 0.91191 0.0
H2741 H 0.8286 0.79171 0.92593 0.0
H2742 H 0.84491 0.7172 0.86117 0.0
H2743 H 0.84286 0.73755 0.82497 0.0
H2744 H 0.80171 0.78396 0.86227 0.0
C2745 C 0.80336 0.73482 0.94203 0.0
C2746 C 0.81128 0.71473 0.94949 0.0
C2747 C 0.82489 0.70254 0.93387 0.0
C2748 C 0.83045 0.70977 0.91156 0.0
C2749 C 0.82222 0.72925 0.90456 0.0
C2750 C 0.8089 0.74163 0.9192 0.0
C2751 C 0.80144 0.76112 0.90635 0.0
C2752 C 0.77584 0.75508 0.90081 0.0
C2753 C 0.81008 0.78754 0.92195 0.0
C2754 C 0.81272 0.75777 0.88244 0.0
C2755 C 0.82464 0.73924 0.88191 0.0
C2756 C 0.8358 0.73191 0.8615 0.0
C2757 C 0.83461 0.74358 0.84101 0.0
C2758 C 0.82255 0.76261 0.84099 0.0
C2759 C 0.81151 0.76985 0.86206 0.0
H2760 H 0.83738 0.08523 0.01802 0.0
H2761 H 0.87128 0.14861 0.07455 0.0
H2762 H 0.90702 0.13512 0.0698 0.0
H2763 H 0.8716 0.03965 0.02876 0.0
H2764 H 0.87128 0.02849 0.99595 0.0
H2765 H 0.8479 0.03994 1.00785 0.0
H2766 H 0.85199 0.07126 0.97809 0.0
H2767 H 0.87564 0.06038 0.96643 0.0
H2768 H 0.87833 0.09304 0.97924 0.0
H2769 H 0.93929 0.11838 0.05465 0.0
H2770 H 0.96611 0.09868 0.03122 0.0
H2771 H 0.91089 0.04761 0.98305 0.0
C2772 C 0.85212 0.09545 0.03029 0.0
C2773 C 0.85173 0.11739 0.0472 0.0
C2774 C 0.87143 0.13135 0.06196 0.0
C2775 C 0.8917 0.12389 0.0593 0.0
C2776 C 0.89179 0.10276 0.04152 0.0
C2777 C 0.8725 0.0887 0.0273 0.0
C2778 C 0.87749 0.06919 1.00698 0.0
C2779 C 0.86642 0.04275 0.01009 0.0
C2780 C 0.87044 0.07376 0.98118 0.0
C2781 C 0.9026 0.07438 0.01204 0.0
C2782 C 0.91053 0.09374 0.03204 0.0
C2783 C 0.9333 0.10291 0.03923 0.0
C2784 C 0.94835 0.09169 0.02579 0.0
C2785 C 0.94049 0.07164 1.0054 0.0
C2786 C 0.91734 0.06301 0.99845 0.0
H2787 H 0.40608 0.45737 0.07154 0.0
H2788 H 0.39998 0.40885 0.99932 0.0
H2789 H 0.43586 0.43245 0.99091 0.0
H2790 H 0.43468 0.51585 0.05062 0.0
H2791 H 0.45333 0.52779 0.07872 0.0
H2792 H 0.42599 0.50862 0.07957 0.0
H2793 H 0.44415 0.47836 0.10011 0.0
H2794 H 0.47153 0.49734 0.09921 0.0
H2795 H 0.46516 0.46461 0.08514 0.0
H2796 H 0.4729 0.45544 0.99132 0.0
H2797 H 0.50963 0.48214 0.99714 0.0
H2798 H 0.49534 0.52197 0.06763 0.0
C2799 C 0.4122 0.45221 0.05382 0.0
C2800 C 0.40015 0.43101 0.03605 0.0
C2801 C 0.40886 0.42471 0.01324 0.0
C2802 C 0.4293 0.43806 1.00825 0.0
C2803 C 0.44112 0.45809 0.02614 0.0
C2804 C 0.43301 0.46571 0.04832 0.0
C2805 C 0.45023 0.48798 0.06398 0.0
C2806 C 0.44047 0.51146 0.06849 0.0
C2807 C 0.45824 0.48169 0.08858 0.0
C2808 C 0.46919 0.49098 0.04716 0.0
C2809 C 0.46315 0.47316 0.02564 0.0
C2810 C 0.47761 0.47004 1.00771 0.0
C2811 C 0.49875 0.48573 0.01132 0.0
C2812 C 0.50574 0.50526 0.03247 0.0
C2813 C 0.49059 0.50779 0.05091 0.0
H2814 H 0.41918 0.65576 0.75096 0.0
H2815 H 0.40192 0.63712 0.82109 0.0
H2816 H 0.379 0.6691 0.82598 0.0
H2817 H 0.42178 0.72403 0.76863 0.0
H2818 H 0.4095 0.72668 0.73894 0.0
H2819 H 0.42486 0.70269 0.74104 0.0
H2820 H 0.39063 0.66918 0.71893 0.0
H2821 H 0.3752 0.69311 0.71686 0.0
H2822 H 0.36403 0.6674 0.73137 0.0
H2823 H 0.35568 0.70695 0.82327 0.0
H2824 H 0.33819 0.74097 0.81322 0.0
H2825 H 0.36846 0.7359 0.74438 0.0
C2826 C 0.41084 0.65837 0.76761 0.0
C2827 C 0.41354 0.64283 0.78587 0.0
C2828 C 0.40122 0.64789 0.80669 0.0
C2829 C 0.38775 0.66648 0.80964 0.0
C2830 C 0.38556 0.68122 0.79159 0.0
C2831 C 0.39693 0.67719 0.77082 0.0
C2832 C 0.39156 0.69534 0.75389 0.0
C2833 C 0.41322 0.71324 0.7504 0.0
C2834 C 0.37966 0.68037 0.72876 0.0
C2835 C 0.37568 0.71017 0.76806 0.0
C2836 C 0.37236 0.70176 0.78991 0.0
C2837 C 0.35846 0.71306 0.80596 0.0
C2838 C 0.34813 0.73276 0.79994 0.0
C2839 C 0.35078 0.74211 0.77754 0.0
C2840 C 0.36519 0.72993 0.76166 0.0
H2841 H 0.23666 0.62247 0.54935 0.0
H2842 H 0.23432 0.61128 0.46956 0.0
H2843 H 0.19511 0.58715 0.46577 0.0
H2844 H 0.19269 0.56241 0.55315 0.0
H2845 H 0.18258 0.5802 0.5788 0.0
H2846 H 0.21182 0.58721 0.57451 0.0
H2847 H 0.2091 0.6333 0.57546 0.0
H2848 H 0.17978 0.62565 0.57871 0.0
H2849 H 0.18933 0.63987 0.55329 0.0
H2850 H 0.15525 0.57143 0.47084 0.0
H2851 H 0.11754 0.56974 0.48343 0.0
H2852 H 0.14521 0.59868 0.55952 0.0
C2853 C 0.22811 0.61376 0.53114 0.0
C2854 C 0.23829 0.61781 0.50969 0.0
C2855 C 0.22667 0.60758 0.48605 0.0
C2856 C 0.20454 0.59382 0.48382 0.0
C2857 C 0.19447 0.59102 0.50546 0.0
C2858 C 0.2059 0.60084 0.52872 0.0
C2859 C 0.19033 0.60021 0.54885 0.0
C2860 C 0.19462 0.58136 0.56474 0.0
C2861 C 0.19225 0.62631 0.56498 0.0
C2862 C 0.16809 0.59094 0.53317 0.0
C2863 C 0.17094 0.58426 0.5084 0.0
C2864 C 0.15289 0.5764 0.49023 0.0
C2865 C 0.13148 0.57589 0.49753 0.0
C2866 C 0.12821 0.58416 0.52255 0.0
C2867 C 0.14681 0.5915 0.54055 0.0
H2868 H 0.74571 0.98535 0.71812 0.0
H2869 H 0.70314 0.98522 0.77812 0.0
H2870 H 0.72938 0.96856 0.80178 0.0
H2871 H 0.76024 0.92287 0.72871 0.0
H2872 H 0.78764 0.93163 0.71877 0.0
H2873 H 0.76429 0.94141 0.7051 0.0
H2874 H 0.78663 0.98731 0.71696 0.0
H2875 H 0.80968 0.97781 0.73145 0.0
H2876 H 0.79677 1.00061 0.74896 0.0
H2877 H 0.76358 0.96254 0.82277 0.0
H2878 H 0.79806 0.9494 0.8348 0.0
H2879 H 0.81587 0.9449 0.75958 0.0
C2880 C 0.74138 0.9805 0.73561 0.0
C2881 C 0.72253 0.98683 0.74631 0.0
C2882 C 0.7174 0.98043 0.76937 0.0
C2883 C 0.73236 0.97126 0.78323 0.0
C2884 C 0.75161 0.96705 0.77307 0.0
C2885 C 0.75549 0.96969 0.74919 0.0
C2886 C 0.77707 0.96212 0.74261 0.0
C2887 C 0.77201 0.93808 0.72262 0.0
C2888 C 0.79349 0.98325 0.73453 0.0
C2889 C 0.78552 0.95729 0.76732 0.0
C2890 C 0.7706 0.96062 0.78465 0.0
C2891 C 0.77516 0.95907 0.80927 0.0
C2892 C 0.79492 0.95215 0.81605 0.0
C2893 C 0.80949 0.94656 0.79814 0.0
C2894 C 0.80503 0.94957 0.77359 0.0
H2895 H 0.75667 0.91943 0.55394 0.0
H2896 H 0.80989 0.95917 0.51844 0.0
H2897 H 0.78498 0.98482 0.50546 0.0
H2898 H 0.71089 0.91731 0.51062 0.0
H2899 H 0.69167 0.92428 0.53286 0.0
H2900 H 0.71381 0.90945 0.54081 0.0
H2901 H 0.72752 0.94474 0.57929 0.0
H2902 H 0.70548 0.9598 0.57129 0.0
H2903 H 0.73421 0.97676 0.57551 0.0
H2904 H 0.75548 1.00512 0.49488 0.0
H2905 H 0.72076 0.018 0.48432 0.0
H2906 H 0.68468 0.96677 0.52625 0.0
C2907 C 0.76297 0.93373 0.54365 0.0
C2908 C 0.78531 0.9376 0.5374 0.0
C2909 C 0.79302 0.9563 0.52381 0.0
C2910 C 0.77899 0.97097 0.51634 0.0
C2911 C 0.75728 0.96715 0.523 0.0
C2912 C 0.74915 0.94918 0.53642 0.0
C2913 C 0.72484 0.94933 0.54067 0.0
C2914 C 0.7094 0.92355 0.53061 0.0
C2915 C 0.72289 0.95817 0.56833 0.0
C2916 C 0.72033 0.96876 0.52585 0.0
C2917 C 0.73965 0.97919 0.51658 0.0
C2918 C 0.74021 0.99722 0.50207 0.0
C2919 C 0.72037 1.00438 0.49613 0.0
C2920 C 0.69998 0.99329 0.50423 0.0
C2921 C 0.70006 0.9757 0.51993 0.0
H2922 H 0.43439 0.47172 0.76736 0.0
H2923 H 0.39023 0.51888 0.79598 0.0
H2924 H 0.36176 0.48101 0.79872 0.0
H2925 H 0.38925 0.42183 0.72967 0.0
H2926 H 0.40277 0.39712 0.73479 0.0
H2927 H 0.41932 0.42785 0.73495 0.0
H2928 H 0.43806 0.4291 0.7786 0.0
H2929 H 0.42146 0.39846 0.77859 0.0
H2930 H 0.42083 0.42419 0.8033 0.0
H2931 H 0.3377 0.43544 0.8003 0.0
H2932 H 0.32149 0.39062 0.79811 0.0
H2933 H 0.38 0.3721 0.76621 0.0
C2934 C 0.41868 0.47427 0.77409 0.0
C2935 C 0.41506 0.49913 0.78145 0.0
C2936 C 0.3939 0.5007 0.78998 0.0
C2937 C 0.37748 0.47898 0.79172 0.0
C2938 C 0.38174 0.45498 0.78451 0.0
C2939 C 0.40185 0.45262 0.77548 0.0
C2940 C 0.40221 0.42474 0.76827 0.0
C2941 C 0.40347 0.41745 0.74026 0.0
C2942 C 0.42181 0.41878 0.78308 0.0
C2943 C 0.37961 0.41165 0.77536 0.0
C2944 C 0.36795 0.42942 0.78463 0.0
C2945 C 0.34683 0.42169 0.79269 0.0
C2946 C 0.33749 0.39574 0.79118 0.0
C2947 C 0.34876 0.37677 0.78148 0.0
C2948 C 0.37038 0.38545 0.77358 0.0
H2949 H 0.23801 0.61916 0.24503 0.0
H2950 H 0.23636 0.6263 0.3243 0.0
H2951 H 0.2647 0.66625 0.33106 0.0
H2952 H 0.29799 0.65238 0.24455 0.0
H2953 H 0.29036 0.66757 0.22012 0.0
H2954 H 0.27487 0.63677 0.22155 0.0
H2955 H 0.23784 0.65255 0.22176 0.0
H2956 H 0.25333 0.68291 0.21966 0.0
H2957 H 0.23608 0.67942 0.2446 0.0
H2958 H 0.29023 0.70672 0.32883 0.0
H2959 H 0.30366 0.74795 0.31822 0.0
H2960 H 0.2832 0.71568 0.24089 0.0
C2961 C 0.24418 0.62888 0.2638 0.0
C2962 C 0.23558 0.61981 0.28423 0.0
C2963 C 0.2431 0.63316 0.30855 0.0
C2964 C 0.25935 0.65554 0.3125 0.0
C2965 C 0.26752 0.66417 0.29187 0.0
C2966 C 0.2598 0.65145 0.26795 0.0
C2967 C 0.26751 0.66683 0.24895 0.0
C2968 C 0.28364 0.65518 0.23285 0.0
C2969 C 0.2475 0.67067 0.23284 0.0
C2970 C 0.27967 0.69074 0.26597 0.0
C2971 C 0.28058 0.68844 0.29053 0.0
C2972 C 0.28979 0.70863 0.30964 0.0
C2973 C 0.29724 0.73198 0.30345 0.0
C2974 C 0.29441 0.73499 0.27859 0.0
C2975 C 0.28622 0.71401 0.25974 0.0
H2976 H 0.53394 0.69172 0.44175 0.0
H2977 H 0.53841 0.73738 0.51499 0.0
H2978 H 0.54888 0.70378 0.53358 0.0
H2979 H 0.50903 0.63325 0.4608 0.0
H2980 H 0.52319 0.61415 0.44029 0.0
H2981 H 0.51704 0.64215 0.43225 0.0
H2982 H 0.55887 0.6584 0.42783 0.0
H2983 H 0.56509 0.63041 0.43583 0.0
H2984 H 0.57955 0.66058 0.45334 0.0
H2985 H 0.55852 0.66336 0.54532 0.0
H2986 H 0.56484 0.6212 0.54781 0.0
H2987 H 0.55405 0.60057 0.46778 0.0
C2988 C 0.53733 0.69481 0.46168 0.0
C2989 C 0.53533 0.71793 0.47668 0.0
C2990 C 0.53963 0.72031 0.50277 0.0
C2991 C 0.54571 0.70112 0.51366 0.0
C2992 C 0.54731 0.67868 0.49858 0.0
C2993 C 0.54307 0.67534 0.47308 0.0
C2994 C 0.5449 0.64881 0.46127 0.0
C2995 C 0.5222 0.6337 0.44785 0.0
C2996 C 0.5632 0.64961 0.44351 0.0
C2997 C 0.55136 0.63814 0.48387 0.0
C2998 C 0.55257 0.65563 0.5053 0.0
C2999 C 0.55768 0.64971 0.52847 0.0
C3000 C 0.56143 0.62556 0.5298 0.0
C3001 C 0.5605 0.60716 0.50813 0.0
C3002 C 0.55529 0.61398 0.48489 0.0
H3003 H 0.70329 0.35171 0.64722 0.0
H3004 H 0.64876 0.30631 0.67606 0.0
H3005 H 0.67588 0.29704 0.70611 0.0
H3006 H 0.74492 0.31643 0.65334 0.0
H3007 H 0.76806 0.34259 0.66474 0.0
H3008 H 0.7447 0.34638 0.64543 0.0
H3009 H 0.73887 0.38256 0.67903 0.0
H3010 H 0.76242 0.37907 0.69831 0.0
H3011 H 0.73556 0.37757 0.71009 0.0
H3012 H 0.7091 0.28891 0.73049 0.0
H3013 H 0.74501 0.28785 0.75216 0.0
H3014 H 0.77984 0.34222 0.71288 0.0
C3015 C 0.69701 0.3401 0.66011 0.0
C3016 C 0.67347 0.32982 0.65898 0.0
C3017 C 0.66635 0.31475 0.6764 0.0
C3018 C 0.68178 0.30917 0.69354 0.0
C3019 C 0.70468 0.31921 0.69389 0.0
C3020 C 0.71232 0.33497 0.67813 0.0
C3021 C 0.7379 0.34415 0.68353 0.0
C3022 C 0.74958 0.33695 0.66037 0.0
C3023 C 0.74406 0.37253 0.69331 0.0
C3024 C 0.74353 0.33017 0.70388 0.0
C3025 C 0.72391 0.31589 0.70938 0.0
C3026 C 0.72438 0.3006 0.72674 0.0
C3027 C 0.74503 0.30034 0.73927 0.0
C3028 C 0.76551 0.31556 0.7353 0.0
C3029 C 0.76467 0.33045 0.71679 0.0
H3030 H 0.04001 0.36261 0.9324 0.0
H3031 H 0.02828 0.33561 1.00034 0.0
H3032 H 0.03249 0.37925 0.02296 0.0
H3033 H 0.08207 0.41746 0.95985 0.0
H3034 H 0.07315 0.43652 0.93973 0.0
H3035 H 0.06851 0.40323 0.92921 0.0
H3036 H 0.02618 0.40089 0.91966 0.0
H3037 H 0.03072 0.43418 0.9303 0.0
H3038 H 1.01077 0.41334 0.9438 0.0
H3039 H 0.04026 0.4284 0.03893 0.0
H3040 H 0.05021 0.47485 0.04512 0.0
H3041 H 0.05525 0.46889 0.96649 0.0
C3042 C 0.03811 0.36575 0.95201 0.0
C3043 C 0.03366 0.34522 0.96439 0.0
C3044 C 0.03157 0.35066 0.99019 0.0
C3045 C 0.03398 0.37558 1.00328 0.0
C3046 C 0.03848 0.39534 0.99052 0.0
C3047 C 0.04046 0.39053 0.96535 0.0
C3048 C 0.04584 0.41487 0.95584 0.0
C3049 C 0.06875 0.41821 0.94555 0.0
C3050 C 0.02727 0.41587 0.93624 0.0
C3051 C 0.04648 0.43418 0.97937 0.0
C3052 C 0.04232 0.42275 0.99935 0.0
C3053 C 0.0432 0.43728 0.02318 0.0
C3054 C 0.04867 0.46381 0.02659 0.0
C3055 C 0.05283 0.47588 1.00626 0.0
C3056 C 0.05159 0.46049 0.98243 0.0
H3057 H 0.03558 0.77805 0.14264 0.0
H3058 H 0.05889 0.85757 0.17018 0.0
H3059 H 0.02534 0.85808 0.1928 0.0
H3060 H 0.97487 0.77786 0.13643 0.0
H3061 H 0.96705 0.74855 0.14648 0.0
H3062 H 0.99164 0.75486 0.13044 0.0
H3063 H 0.01574 0.74625 0.16685 0.0
H3064 H 0.99125 0.7398 0.18289 0.0
H3065 H 0.01536 0.76333 0.19778 0.0
H3066 H 0.98979 0.84948 0.21411 0.0
H3067 H 0.95743 0.83195 0.23504 0.0
H3068 H 0.9577 0.75772 0.19502 0.0
C3069 C 0.03336 0.79557 0.15316 0.0
C3070 C 0.04967 0.81787 0.15453 0.0
C3071 C 0.04647 0.84037 0.16879 0.0
C3072 C 0.02742 0.84083 0.18163 0.0
C3073 C 1.01164 0.81855 0.1801 0.0
C3074 C 0.01444 0.7963 0.16628 0.0
C3075 C 0.99571 0.77474 0.16903 0.0
C3076 C 0.98148 0.76333 0.14411 0.0
C3077 C 1.00508 0.75487 0.17978 0.0
C3078 C 0.98248 0.78814 0.18726 0.0
C3079 C 0.99161 0.81351 0.19293 0.0
C3080 C 0.98247 0.82965 0.20967 0.0
C3081 C 0.96397 0.81955 0.22139 0.0
C3082 C 0.95496 0.79348 0.21673 0.0
C3083 C 0.96419 0.77774 0.19902 0.0
H3084 H 0.51917 0.30813 0.10591 0.0
H3085 H 0.54169 0.35815 0.17687 0.0
H3086 H 0.55596 0.39249 0.15493 0.0
H3087 H 0.56491 0.32909 0.07501 0.0
H3088 H 0.54859 0.32569 0.04576 0.0
H3089 H 0.53895 0.30605 0.06718 0.0
H3090 H 0.50141 0.32048 0.06669 0.0
H3091 H 0.5108 0.34011 0.04513 0.0
H3092 H 0.50167 0.35336 0.07392 0.0
H3093 H 0.56965 0.42011 0.12449 0.0
H3094 H 0.58056 0.4392 0.08873 0.0
H3095 H 0.54815 0.37002 0.03856 0.0
C3096 C 0.52699 0.32632 0.11697 0.0
C3097 C 0.52953 0.33058 0.14304 0.0
C3098 C 0.53968 0.35464 0.15682 0.0
C3099 C 0.54778 0.37414 0.14453 0.0
C3100 C 0.54534 0.36906 0.11865 0.0
C3101 C 0.53501 0.34574 0.10512 0.0
C3102 C 0.53484 0.34458 0.0776 0.0
C3103 C 0.54759 0.32521 0.06571 0.0
C3104 C 0.51075 0.33934 0.06511 0.0
C3105 C 0.54724 0.3708 0.07756 0.0
C3106 C 0.55304 0.38475 0.10135 0.0
C3107 C 0.56504 0.4094 0.10582 0.0
C3108 C 0.57116 0.42003 0.0854 0.0
C3109 C 0.56523 0.40597 0.06089 0.0
C3110 C 0.55317 0.38106 0.05706 0.0
H3111 H 0.05419 0.37142 0.39088 0.0
H3112 H 0.05911 0.29461 0.36628 0.0
H3113 H 0.0251 0.28726 0.337 0.0
H3114 H 0.99285 0.36092 0.38468 0.0
H3115 H 0.99281 0.38909 0.373 0.0
H3116 H 0.01597 0.38752 0.39401 0.0
H3117 H 0.04347 0.39974 0.36228 0.0
H3118 H 0.02044 0.40126 0.34113 0.0
H3119 H 0.03923 0.38136 0.33128 0.0
H3120 H 0.99124 0.28855 0.30993 0.0
H3121 H 0.96103 0.29914 0.28473 0.0
H3122 H 0.98006 0.37599 0.32428 0.0
C3123 C 0.04771 0.35293 0.37972 0.0
C3124 C 0.05885 0.3334 0.38103 0.0
C3125 C 0.05053 0.30967 0.36561 0.0
C3126 C 0.03127 0.30534 0.349 0.0
C3127 C 0.02082 0.32509 0.3478 0.0
C3128 C 0.02881 0.34847 0.36259 0.0
C3129 C 0.01556 0.36699 0.35617 0.0
C3130 C 1.00358 0.37669 0.37828 0.0
C3131 C 0.03058 0.38861 0.34718 0.0
C3132 C 0.99907 0.35046 0.33527 0.0
C3133 C 1.00215 0.32625 0.33106 0.0
C3134 C 0.98875 0.30746 0.31293 0.0
C3135 C 0.97177 0.31363 0.29868 0.0
C3136 C 0.96869 0.33842 0.30237 0.0
C3137 C 0.98248 0.35703 0.32087 0.0
H3138 H 0.9854 0.69116 0.59383 0.0
H3139 H 0.01629 0.69883 0.6684 0.0
H3140 H 0.02935 0.66019 0.65577 0.0
H3141 H 0.97382 0.61573 0.58024 0.0
H3142 H 0.97854 0.61614 0.54842 0.0
H3143 H 0.9645 0.6384 0.56502 0.0
H3144 H 0.99367 0.67411 0.55363 0.0
H3145 H 1.00829 0.65223 0.53799 0.0
H3146 H 0.02301 0.67703 0.56276 0.0
H3147 H 0.04987 0.63216 0.63295 0.0
H3148 H 0.06896 0.60802 0.60324 0.0
H3149 H 0.02342 0.61556 0.54281 0.0
C3150 C 0.99341 0.68355 0.60782 0.0
C3151 C 0.99981 0.69779 0.63204 0.0
C3152 C 1.01087 0.68793 0.6499 0.0
C3153 C 0.01853 0.66605 0.64281 0.0
C3154 C 0.01404 0.65378 0.61811 0.0
C3155 C 1.00067 0.6613 0.60109 0.0
C3156 C 1.00069 0.64652 0.57513 0.0
C3157 C 0.97804 0.62811 0.56671 0.0
C3158 C 1.00681 0.66352 0.55632 0.0
C3159 C 0.01873 0.63259 0.57977 0.0
C3160 C 0.02566 0.63645 0.60477 0.0
C3161 C 0.04391 0.62805 0.61345 0.0
C3162 C 0.05489 0.61466 0.59626 0.0
C3163 C 0.04771 0.60984 0.57054 0.0
C3164 C 0.02933 0.61891 0.56228 0.0
H3165 H 0.68189 0.79425 0.86971 0.0
H3166 H 0.66307 0.84734 0.82855 0.0
H3167 H 0.69257 0.84139 0.80086 0.0
H3168 H 0.73928 0.81179 0.86976 0.0
H3169 H 0.74394 0.7805 0.86538 0.0
H3170 H 0.7201 0.78748 0.88006 0.0
H3171 H 0.69478 0.75211 0.84805 0.0
H3172 H 0.71808 0.74538 0.83188 0.0
H3173 H 0.69457 0.75284 0.81564 0.0
H3174 H 0.72586 0.83276 0.78079 0.0
H3175 H 0.76282 0.82454 0.77152 0.0
H3176 H 0.75957 0.77662 0.82543 0.0
C3177 C 0.68383 0.80415 0.85452 0.0
C3178 C 0.6703 0.8208 0.85062 0.0
C3179 C 0.67321 0.83403 0.83111 0.0
C3180 C 0.68979 0.83074 0.81538 0.0
C3181 C 0.70282 0.81383 0.81939 0.0
C3182 C 0.70007 0.80083 0.83851 0.0
C3183 C 0.71708 0.78497 0.83979 0.0
C3184 C 0.73091 0.79164 0.86528 0.0
C3185 C 0.70548 0.75715 0.83343 0.0
C3186 C 0.73095 0.79254 0.81963 0.0
C3187 C 0.72199 0.80857 0.80753 0.0
C3188 C 0.73278 0.81976 0.78962 0.0
C3189 C 0.75364 0.81499 0.78445 0.0
C3190 C 0.76334 0.79947 0.79737 0.0
C3191 C 0.75188 0.78792 0.81491 0.0
H3192 H 0.49544 0.60709 0.70671 0.0
H3193 H 0.46816 0.52864 0.7046 0.0
H3194 H 0.48431 0.51785 0.66555 0.0
H3195 H 0.48511 0.59944 0.63532 0.0
H3196 H 0.50974 0.62272 0.63346 0.0
H3197 H 0.49524 0.62523 0.66093 0.0
H3198 H 0.53184 0.62717 0.68748 0.0
H3199 H 0.54638 0.62444 0.66009 0.0
H3200 H 0.54677 0.60252 0.68041 0.0
H3201 H 0.50554 0.51393 0.62601 0.0
H3202 H 0.5266 0.51752 0.59015 0.0
H3203 H 0.5419 0.59814 0.61251 0.0
C3204 C 0.49195 0.58764 0.69764 0.0
C3205 C 0.47899 0.5689 0.70965 0.0
C3206 C 0.47668 0.54383 0.69652 0.0
C3207 C 0.48627 0.53734 0.67398 0.0
C3208 C 0.49871 0.55583 0.66299 0.0
C3209 C 0.50123 0.58066 0.67408 0.0
C3210 C 0.51511 0.59655 0.65731 0.0
C3211 C 0.50045 0.61193 0.64611 0.0
C3212 C 0.5363 0.6137 0.67223 0.0
C3213 C 0.52117 0.57693 0.63626 0.0
C3214 C 0.51098 0.55355 0.63999 0.0
C3215 C 0.51328 0.53233 0.62317 0.0
C3216 C 0.52559 0.53461 0.60224 0.0
C3217 C 0.53667 0.55794 0.59696 0.0
C3218 C 0.53424 0.57961 0.61505 0.0
H3219 H 0.78137 0.15512 0.95832 0.0
H3220 H 0.8394 0.20511 1.00223 0.0
H3221 H 0.83509 0.23799 0.97906 0.0
H3222 H 0.79013 0.18105 0.89853 0.0
H3223 H 0.76035 0.17687 0.89155 0.0
H3224 H 0.77127 0.1555 0.9073 0.0
H3225 H 0.74632 0.16459 0.94242 0.0
H3226 H 0.73596 0.18668 0.92738 0.0
H3227 H 0.74911 0.19627 0.95877 0.0
H3228 H 0.8208 0.26724 0.95765 0.0
H3229 H 0.80047 0.29015 0.93292 0.0
H3230 H 0.75105 0.22192 0.90322 0.0
C3231 C 0.79391 0.17245 0.96178 0.0
C3232 C 0.8111 0.17763 0.98131 0.0
C3233 C 0.82659 0.20085 0.98667 0.0
C3234 C 0.82414 0.21963 0.97381 0.0
C3235 C 0.80615 0.21466 0.95568 0.0
C3236 C 0.79162 0.19148 0.94909 0.0
C3237 C 0.77246 0.19199 0.93063 0.0
C3238 C 0.77363 0.17538 0.90551 0.0
C3239 C 0.74963 0.18444 0.94041 0.0
C3240 C 0.77781 0.21937 0.92922 0.0
C3241 C 0.79744 0.23198 0.94362 0.0
C3242 C 0.80555 0.25759 0.94604 0.0
C3243 C 0.79375 0.27051 0.9324 0.0
C3244 C 0.77405 0.25776 0.91697 0.0
C3245 C 0.76576 0.23203 0.91558 0.0
H3246 H 0.16914 0.52327 0.17647 0.0
H3247 H 0.16756 0.59927 0.21033 0.0
H3248 H 0.14119 0.60121 0.17573 0.0
H3249 H 0.16192 0.53413 0.10882 0.0
H3250 H 0.14527 0.50287 0.09865 0.0
H3251 H 0.16771 0.5092 0.1232 0.0
H3252 H 0.13944 0.48948 0.15085 0.0
H3253 H 0.11668 0.48433 0.12694 0.0
H3254 H 0.11526 0.50234 0.15713 0.0
H3255 H 0.1074 0.5905 0.14715 0.0
H3256 H 0.07775 0.57443 0.11232 0.0
H3257 H 0.10432 0.50837 0.09176 0.0
C3258 C 0.16413 0.54068 0.17576 0.0
C3259 C 0.16983 0.56099 0.196 0.0
C3260 C 0.16292 0.58346 0.19497 0.0
C3261 C 0.14795 0.58472 0.17553 0.0
C3262 C 0.14071 0.56356 0.1571 0.0
C3263 C 0.14943 0.54244 0.15605 0.0
C3264 C 0.13782 0.52213 0.13433 0.0
C3265 C 0.15416 0.51679 0.11511 0.0
C3266 C 0.12665 0.49817 0.14285 0.0
C3267 C 0.12048 0.53475 0.1246 0.0
C3268 C 0.1222 0.55837 0.13849 0.0
C3269 C 0.10645 0.57254 0.1353 0.0
C3270 C 0.08953 0.56318 0.11587 0.0
C3271 C 0.08928 0.54062 0.09954 0.0
C3272 C 0.10433 0.5257 0.1043 0.0
H3273 H 0.8357 0.90214 0.45659 0.0
H3274 H 0.83463 0.8343 0.48492 0.0
H3275 H 0.83465 0.81097 0.44235 0.0
H3276 H 0.79898 0.87355 0.40193 0.0
H3277 H 0.81339 0.89334 0.38283 0.0
H3278 H 0.81438 0.90471 0.41563 0.0
H3279 H 0.85777 0.91455 0.4192 0.0
H3280 H 0.85685 0.90313 0.38638 0.0
H3281 H 0.87195 0.89011 0.40795 0.0
H3282 H 0.8311 0.79409 0.39524 0.0
H3283 H 0.82619 0.78647 0.34923 0.0
H3284 H 0.8325 0.86573 0.35242 0.0
C3285 C 0.83577 0.88245 0.45391 0.0
C3286 C 0.83524 0.87013 0.47424 0.0
C3287 C 0.83511 0.84425 0.46975 0.0
C3288 C 0.83511 0.83079 0.44556 0.0
C3289 C 0.83541 0.84343 0.42589 0.0
C3290 C 0.8359 0.86876 0.42989 0.0
C3291 C 0.83546 0.87787 0.4056 0.0
C3292 C 0.8143 0.88796 0.40125 0.0
C3293 C 0.85678 0.89758 0.40474 0.0
C3294 C 0.83469 0.85382 0.38733 0.0
C3295 C 0.83446 0.83402 0.39925 0.0
C3296 C 0.83187 0.80962 0.38582 0.0
C3297 C 0.82932 0.80544 0.35967 0.0
C3298 C 0.83003 0.82563 0.34721 0.0
C3299 C 0.83277 0.85004 0.36142 0.0
H3300 H 0.45534 0.56594 0.8732 0.0
H3301 H 0.51284 0.58677 0.83383 0.0
H3302 H 0.53768 0.58201 0.86884 0.0
H3303 H 0.48057 0.59493 0.93624 0.0
H3304 H 0.46779 0.56956 0.95042 0.0
H3305 H 0.45428 0.57464 0.92239 0.0
H3306 H 0.4534 0.52924 0.90125 0.0
H3307 H 0.46703 0.52415 0.92924 0.0
H3308 H 0.4791 0.5184 0.90044 0.0
H3309 H 0.55837 0.57412 0.91122 0.0
H3310 H 0.56993 0.56603 0.95256 0.0
H3311 H 0.50042 0.55018 0.96652 0.0
C3312 C 0.47316 0.5697 0.87178 0.0
C3313 C 0.48142 0.57718 0.84947 0.0
C3314 C 0.50522 0.58116 0.84968 0.0
C3315 C 0.51981 0.57843 0.86997 0.0
C3316 C 0.51126 0.57106 0.89125 0.0
C3317 C 0.48827 0.56659 0.89217 0.0
C3318 C 0.48339 0.55802 0.917 0.0
C3319 C 0.47075 0.57533 0.93243 0.0
C3320 C 0.46991 0.53085 0.91167 0.0
C3321 C 0.50692 0.5597 0.93041 0.0
C3322 C 0.52284 0.56672 0.91494 0.0
C3323 C 0.54565 0.56867 0.92309 0.0
C3324 C 0.55228 0.56383 0.94703 0.0
C3325 C 0.5366 0.55716 0.96399 0.0
C3326 C 0.51339 0.55514 0.95478 0.0
H3327 H 0.82226 0.18938 0.10897 0.0
H3328 H 0.74985 0.16895 0.10028 0.0
H3329 H 0.74903 0.1949 0.14128 0.0
H3330 H 0.83124 0.19785 0.17967 0.0
H3331 H 0.85375 0.22464 0.18105 0.0
H3332 H 0.84874 0.19921 0.15469 0.0
H3333 H 0.84623 0.231 0.12617 0.0
H3334 H 0.84996 0.25629 0.15243 0.0
H3335 H 0.82561 0.2498 0.13028 0.0
H3336 H 0.75543 0.23074 0.17544 0.0
H3337 H 0.76893 0.26695 0.20917 0.0
H3338 H 0.83766 0.26335 0.19752 0.0
C3339 C 0.8064 0.18916 0.11659 0.0
C3340 C 0.78612 0.17702 0.10217 0.0
C3341 C 0.76545 0.17791 0.11164 0.0
C3342 C 0.76487 0.1927 0.1347 0.0
C3343 C 0.78512 0.20628 0.14767 0.0
C3344 C 0.80558 0.20411 0.13945 0.0
C3345 C 0.82463 0.2232 0.15533 0.0
C3346 C 0.84052 0.21045 0.16847 0.0
C3347 C 0.83734 0.24111 0.14013 0.0
C3348 C 0.81158 0.2366 0.17337 0.0
C3349 C 0.78884 0.22681 0.1683 0.0
C3350 C 0.77322 0.23793 0.18037 0.0
C3351 C 0.78111 0.25868 0.19931 0.0
C3352 C 0.8044 0.2675 0.20644 0.0
C3353 C 0.8198 0.25682 0.19276 0.0
H3354 H 0.16567 0.51393 0.30933 0.0
H3355 H 0.22282 0.5763 0.32628 0.0
H3356 H 0.20375 0.59738 0.3592 0.0
H3357 H 0.12592 0.54496 0.31217 0.0
H3358 H 0.10624 0.52534 0.32713 0.0
H3359 H 0.12608 0.5123 0.30949 0.0
H3360 H 0.14133 0.49683 0.34735 0.0
H3361 H 0.12084 0.50885 0.36501 0.0
H3362 H 0.15009 0.51844 0.37643 0.0
H3363 H 0.17483 0.61516 0.38301 0.0
H3364 H 0.14118 0.62479 0.40192 0.0
H3365 H 0.1038 0.54992 0.37 0.0
C3366 C 0.17469 0.53126 0.32114 0.0
C3367 C 0.19568 0.54344 0.31571 0.0
C3368 C 0.2069 0.56651 0.33071 0.0
C3369 C 0.19606 0.57871 0.34921 0.0
C3370 C 0.17447 0.56701 0.35284 0.0
C3371 C 0.1643 0.54331 0.33988 0.0
C3372 C 0.14045 0.53554 0.34569 0.0
C3373 C 0.12372 0.52918 0.32222 0.0
C3374 C 0.13804 0.51362 0.35945 0.0
C3375 C 0.1382 0.55919 0.36251 0.0
C3376 C 0.15801 0.57711 0.36666 0.0
C3377 C 0.1594 0.60109 0.3803 0.0
C3378 C 0.14022 0.60655 0.39058 0.0
C3379 C 0.12006 0.58818 0.38683 0.0
C3380 C 0.11905 0.5643 0.37269 0.0
H3381 H 0.83233 0.89325 0.62795 0.0
H3382 H 0.80827 0.82352 0.57498 0.0
H3383 H 0.79947 0.80144 0.60876 0.0
H3384 H 0.85821 0.871 0.67366 0.0
H3385 H 0.84886 0.88814 0.70042 0.0
H3386 H 0.85074 0.90043 0.67241 0.0
H3387 H 0.80909 0.90304 0.67149 0.0
H3388 H 0.80721 0.89103 0.69973 0.0
H3389 H 0.78812 0.87557 0.67268 0.0
H3390 H 0.79919 0.78521 0.64606 0.0
H3391 H 0.80132 0.77546 0.68721 0.0
H3392 H 0.82294 0.85467 0.71971 0.0
C3393 C 0.82443 0.87356 0.62358 0.0
C3394 C 0.82111 0.86007 0.59871 0.0
C3395 C 0.81109 0.83422 0.59378 0.0
C3396 C 0.806 0.82143 0.61287 0.0
C3397 C 0.81044 0.83474 0.63707 0.0
C3398 C 0.81875 0.86028 0.64276 0.0
C3399 C 0.82214 0.86923 0.6709 0.0
C3400 C 0.84644 0.88301 0.67986 0.0
C3401 C 0.80567 0.8857 0.67919 0.0
C3402 C 0.81626 0.84443 0.67967 0.0
C3403 C 0.80926 0.82503 0.65958 0.0
C3404 C 0.80402 0.80024 0.66206 0.0
C3405 C 0.80543 0.79493 0.68575 0.0
C3406 C 0.81202 0.81424 0.70707 0.0
C3407 C 0.81761 0.83946 0.70391 0.0
H3408 H 0.78827 0.48145 0.55937 0.0
H3409 H 0.79414 0.49279 0.48419 0.0
H3410 H 0.76361 0.51567 0.48706 0.0
H3411 H 0.72588 0.47281 0.55329 0.0
H3412 H 0.72566 0.48753 0.58509 0.0
H3413 H 0.74689 0.47049 0.57657 0.0
H3414 H 0.77771 0.50958 0.59617 0.0
H3415 H 0.75666 0.52677 0.60468 0.0
H3416 H 0.77792 0.53866 0.58613 0.0
H3417 H 0.735 0.53942 0.49881 0.0
H3418 H 0.70871 0.5628 0.51883 0.0
H3419 H 0.72057 0.53563 0.58629 0.0
C3420 C 0.7831 0.489 0.54372 0.0
C3421 C 0.79364 0.48626 0.52182 0.0
C3422 C 0.78629 0.49539 0.50123 0.0
C3423 C 0.76894 0.50812 0.50262 0.0
C3424 C 0.75892 0.51088 0.52456 0.0
C3425 C 0.76545 0.50133 0.54464 0.0
C3426 C 0.75186 0.50713 0.566 0.0
C3427 C 0.73667 0.48307 0.5705 0.0
C3428 C 0.76695 0.5214 0.58963 0.0
C3429 C 0.73823 0.52336 0.55554 0.0
C3430 C 0.74207 0.52456 0.53132 0.0
C3431 C 0.73172 0.53859 0.51771 0.0
C3432 C 0.71702 0.55189 0.52923 0.0
C3433 C 0.71314 0.55126 0.55412 0.0
C3434 C 0.72374 0.53673 0.5674 0.0
H3435 H 0.22219 0.17433 0.53605 0.0
H3436 H 0.23871 0.14261 0.46389 0.0
H3437 H 0.20294 0.11079 0.45744 0.0
H3438 H 0.19555 0.11229 0.54983 0.0
H3439 H 0.17538 0.12511 0.56731 0.0
H3440 H 0.20275 0.14418 0.5665 0.0
H3441 H 0.1844 0.17723 0.55081 0.0
H3442 H 0.15705 0.15817 0.55139 0.0
H3443 H 0.16492 0.16799 0.52316 0.0
H3444 H 0.16418 0.08355 0.4585 0.0
H3445 H 0.12693 0.06238 0.4673 0.0
H3446 H 0.1357 0.11263 0.53872 0.0
C3447 C 0.21828 0.16052 0.51899 0.0
C3448 C 0.23305 0.16092 0.50035 0.0
C3449 C 0.22761 0.14248 0.47838 0.0
C3450 C 0.20733 0.12441 0.47459 0.0
C3451 C 0.19292 0.12472 0.49321 0.0
C3452 C 0.19838 0.14204 0.51518 0.0
C3453 C 0.18022 0.13813 0.53243 0.0
C3454 C 0.189 0.12942 0.55538 0.0
C3455 C 0.17111 0.16179 0.53986 0.0
C3456 C 0.16288 0.11722 0.51603 0.0
C3457 C 0.17077 0.10925 0.49376 0.0
C3458 C 0.15793 0.08967 0.47592 0.0
C3459 C 0.13669 0.07781 0.48107 0.0
C3460 C 0.12814 0.08574 0.50374 0.0
C3461 C 0.1415 0.10595 0.52125 0.0
H3462 H 0.24139 0.96106 0.80848 0.0
H3463 H 0.20528 0.93486 0.73545 0.0
H3464 H 0.2242 0.89929 0.72901 0.0
H3465 H 0.29413 0.94176 0.79373 0.0
H3466 H 0.29892 0.93173 0.8225 0.0
H3467 H 0.28342 0.95574 0.82119 0.0
H3468 H 0.25037 0.9299 0.83853 0.0
H3469 H 0.2659 0.90596 0.83996 0.0
H3470 H 0.23846 0.89813 0.82306 0.0
H3471 H 0.25058 0.86452 0.72972 0.0
H3472 H 0.27438 0.83573 0.73961 0.0
H3473 H 0.2913 0.88008 0.8137 0.0
C3474 C 0.23725 0.9479 0.79103 0.0
C3475 C 0.22109 0.95202 0.77246 0.0
C3476 C 0.21701 0.9333 0.75029 0.0
C3477 C 0.22803 0.9126 0.74639 0.0
C3478 C 0.24367 0.90925 0.7648 0.0
C3479 C 0.24794 0.92641 0.787 0.0
C3480 C 0.26474 0.91792 0.80431 0.0
C3481 C 0.28659 0.938 0.81084 0.0
C3482 C 0.25425 0.91268 0.82788 0.0
C3483 C 0.26923 0.89351 0.78877 0.0
C3484 C 0.25728 0.88912 0.7657 0.0
C3485 C 0.25963 0.86824 0.74795 0.0
C3486 C 0.27367 0.85168 0.75372 0.0
C3487 C 0.28575 0.85472 0.77747 0.0
C3488 C 0.28294 0.87645 0.79511 0.0
H3489 H 0.4131 0.94942 0.98306 0.0
H3490 H 0.39584 1.00334 0.04124 0.0
H3491 H 0.43389 0.02999 0.04418 0.0
H3492 H 0.46361 0.94946 1.00788 0.0
H3493 H 0.4775 0.94727 0.98001 0.0
H3494 H 0.44782 0.93567 0.97819 0.0
H3495 H 0.44054 0.96454 0.94773 0.0
H3496 H 0.4704 0.97456 0.94847 0.0
H3497 H 0.45348 0.99734 0.95564 0.0
H3498 H 0.47481 0.04499 0.0471 0.0
H3499 H 0.51532 0.04957 0.04795 0.0
H3500 H 0.50647 0.98627 0.98745 0.0
C3501 C 0.41719 0.96728 0.99579 0.0
C3502 C 0.40182 0.97458 0.01186 0.0
C3503 C 0.40747 0.99781 0.02854 0.0
C3504 C 0.42898 1.01297 0.0303 0.0
C3505 C 0.44416 1.00472 0.01481 0.0
C3506 C 0.43839 0.98263 0.99756 0.0
C3507 C 0.4583 0.97657 0.98501 0.0
C3508 C 0.46202 0.95073 0.98799 0.0
C3509 C 0.45554 0.9784 0.95759 0.0
C3510 C 0.47664 0.99747 0.99948 0.0
C3511 C 0.46799 1.01394 0.01602 0.0
C3512 C 0.4817 0.03311 0.03332 0.0
C3513 C 0.50479 0.0358 0.03347 0.0
C3514 C 0.51402 0.01959 0.01637 0.0
C3515 C 0.49977 0.99981 0.99961 0.0
H3516 H 0.87429 0.57803 0.78589 0.0
H3517 H 0.92258 0.63888 0.83309 0.0
H3518 H 0.90165 0.669 0.82063 0.0
H3519 H 0.87387 0.60577 0.73768 0.0
H3520 H 0.84479 0.59363 0.72631 0.0
H3521 H 0.85909 0.57655 0.74415 0.0
H3522 H 0.82963 0.57681 0.77569 0.0
H3523 H 0.8148 0.59359 0.75776 0.0
H3524 H 0.82358 0.60599 0.79018 0.0
H3525 H 0.87956 0.69217 0.79801 0.0
H3526 H 0.85945 0.70704 0.76551 0.0
H3527 H 0.82815 0.63058 0.73094 0.0
C3528 C 0.88 0.59762 0.79435 0.0
C3529 C 0.89979 0.60635 0.81049 0.0
C3530 C 0.90729 0.63206 0.82066 0.0
C3531 C 0.89542 0.64916 0.81389 0.0
C3532 C 0.87636 0.63998 0.79698 0.0
C3533 C 0.86875 0.61475 0.78734 0.0
C3534 C 0.85069 0.60977 0.76612 0.0
C3535 C 0.85754 0.59562 0.74218 0.0
C3536 C 0.82834 0.59572 0.77285 0.0
C3537 C 0.85007 0.63622 0.76441 0.0
C3538 C 0.86444 0.65337 0.78283 0.0
C3539 C 0.868 0.67896 0.78376 0.0
C3540 C 0.85673 0.68719 0.76517 0.0
C3541 C 0.84268 0.66976 0.74573 0.0
C3542 C 0.83903 0.64409 0.74558 0.0
H3543 H 0.85665 0.64245 0.99334 0.0
H3544 H 0.86642 0.69607 0.06249 0.0
H3545 H 0.90011 0.6816 0.07543 0.0
H3546 H 0.87183 0.59291 0.01497 0.0
H3547 H 0.88706 0.58329 0.98943 0.0
H3548 H 0.86503 0.59937 0.98484 0.0
H3549 H 0.89266 0.63283 0.96825 0.0
H3550 H 0.91485 0.61687 0.97299 0.0
H3551 H 0.91826 0.64934 0.98703 0.0
H3552 H 0.92988 0.65813 0.08273 0.0
H3553 H 0.95374 0.62746 0.08378 0.0
H3554 H 0.92651 0.5905 1.00898 0.0
C3555 C 0.86607 0.65118 0.0111 0.0
C3556 C 0.85897 0.67014 0.02714 0.0
C3557 C 0.87167 0.68145 0.05009 0.0
C3558 C 0.89085 0.67343 0.05749 0.0
C3559 C 0.89742 0.65455 0.04139 0.0
C3560 C 0.88561 0.64379 0.0185 0.0
C3561 C 0.89601 0.62343 1.005 0.0
C3562 C 0.87896 0.59826 0.99818 0.0
C3563 C 0.90603 0.63108 0.98195 0.0
C3564 C 0.91436 0.62306 0.02465 0.0
C3565 C 0.91521 0.6416 0.04527 0.0
C3566 C 0.92969 0.64391 0.06651 0.0
C3567 C 0.9432 0.62649 0.06696 0.0
C3568 C 0.9422 0.60705 0.04631 0.0
C3569 C 0.92795 0.60564 0.02472 0.0
H3570 H 0.21082 0.12643 0.80691 0.0
H3571 H 0.2463 0.07716 0.76375 0.0
H3572 H 0.27434 0.11418 0.75795 0.0
H3573 H 0.21873 0.17569 0.77312 0.0
H3574 H 0.22336 0.20071 0.79985 0.0
H3575 H 0.20675 0.17046 0.80123 0.0
H3576 H 0.23256 0.16848 0.83937 0.0
H3577 H 0.24916 0.19884 0.83818 0.0
H3578 H 0.26226 0.17267 0.83752 0.0
H3579 H 0.29905 0.15953 0.75563 0.0
H3580 H 0.31625 0.20433 0.75816 0.0
H3581 H 0.26528 0.22458 0.80343 0.0
C3582 C 0.2246 0.12321 0.79641 0.0
C3583 C 0.2259 0.09803 0.78597 0.0
C3584 C 0.24455 0.09559 0.77238 0.0
C3585 C 0.26067 0.11684 0.76884 0.0
C3586 C 0.25868 0.1412 0.77919 0.0
C3587 C 0.24112 0.14432 0.79304 0.0
C3588 C 0.24281 0.17236 0.80269 0.0
C3589 C 0.22165 0.18027 0.79368 0.0
C3590 C 0.24693 0.17845 0.83113 0.0
C3591 C 0.26337 0.18476 0.79133 0.0
C3592 C 0.27256 0.16649 0.77808 0.0
C3593 C 0.2918 0.17365 0.7662 0.0
C3594 C 0.3017 0.19951 0.76785 0.0
C3595 C 0.29269 0.2189 0.78118 0.0
C3596 C 0.27303 0.21083 0.79301 0.0
H3597 H 0.39332 0.97382 0.33693 0.0
H3598 H 0.42376 0.96944 0.26821 0.0
H3599 H 0.39374 0.93321 0.24873 0.0
H3600 H 0.38696 0.91223 0.33628 0.0
H3601 H 0.36151 0.90939 0.35113 0.0
H3602 H 0.38057 0.93893 0.3559 0.0
H3603 H 0.347 0.95676 0.34102 0.0
H3604 H 0.32881 0.92605 0.33481 0.0
H3605 H 0.33238 0.9439 0.31059 0.0
H3606 H 0.36402 0.89544 0.23817 0.0
H3607 H 0.34689 0.85244 0.24103 0.0
H3608 H 0.34097 0.87711 0.31865 0.0
C3609 C 0.39323 0.96533 0.31766 0.0
C3610 C 0.41038 0.97425 0.30379 0.0
C3611 C 0.41046 0.96272 0.27888 0.0
C3612 C 0.39326 0.94253 0.26759 0.0
C3613 C 0.37644 0.93387 0.28172 0.0
C3614 C 0.37672 0.94443 0.30649 0.0
C3615 C 0.3609 0.92768 0.31937 0.0
C3616 C 0.37329 0.92168 0.34194 0.0
C3617 C 0.3411 0.9393 0.32688 0.0
C3618 C 0.35335 0.90512 0.29858 0.0
C3619 C 0.36102 0.90995 0.27656 0.0
C3620 C 0.35789 0.89147 0.2553 0.0
C3621 C 0.3484 0.867 0.25718 0.0
C3622 C 0.3433 0.86114 0.28036 0.0
C3623 C 0.34449 0.88062 0.30079 0.0
H3624 H 0.5955 0.40654 0.62336 0.0
H3625 H 0.61594 0.36686 0.55687 0.0
H3626 H 0.6094 0.40013 0.53471 0.0
H3627 H 0.55127 0.42861 0.59111 0.0
H3628 H 0.55615 0.45816 0.61238 0.0
H3629 H 0.56205 0.43111 0.62285 0.0
H3630 H 0.60275 0.45514 0.63796 0.0
H3631 H 0.59685 0.48223 0.62766 0.0
H3632 H 0.61978 0.46923 0.61659 0.0
H3633 H 0.59941 0.43965 0.51882 0.0
H3634 H 0.59047 0.48008 0.51332 0.0
H3635 H 0.57765 0.49473 0.59017 0.0
C3636 C 0.59877 0.40478 0.60415 0.0
C3637 C 0.60652 0.38352 0.59219 0.0
C3638 C 0.61016 0.38252 0.56685 0.0
C3639 C 0.60637 0.40153 0.55396 0.0
C3640 C 0.59866 0.42201 0.56623 0.0
C3641 C 0.59495 0.42368 0.5909 0.0
C3642 C 0.58664 0.44754 0.59996 0.0
C3643 C 0.56261 0.44096 0.60701 0.0
C3644 C 0.60246 0.46454 0.62184 0.0
C3645 C 0.5871 0.45959 0.57704 0.0
C3646 C 0.59355 0.44436 0.55748 0.0
C3647 C 0.59448 0.45154 0.53426 0.0
C3648 C 0.58923 0.47468 0.53116 0.0
C3649 C 0.58329 0.4911 0.55116 0.0
C3650 C 0.58216 0.48295 0.57433 0.0
H3651 H 0.44735 0.79925 0.42232 0.0
H3652 H 0.47624 0.74679 0.37382 0.0
H3653 H 0.44523 0.74225 0.3412 0.0
H3654 H 0.38893 0.77044 0.40361 0.0
H3655 H 0.3801 0.79945 0.40448 0.0
H3656 H 0.40431 0.79846 0.42425 0.0
H3657 H 0.42826 0.83351 0.40615 0.0
H3658 H 0.40406 0.8346 0.38642 0.0
H3659 H 0.42918 0.82955 0.37312 0.0
H3660 H 0.40978 0.74207 0.31381 0.0
H3661 H 0.37551 0.74869 0.29302 0.0
H3662 H 0.36937 0.80321 0.35745 0.0
C3663 C 0.44714 0.78665 0.40489 0.0
C3664 C 0.46448 0.77308 0.40109 0.0
C3665 C 0.46343 0.75729 0.37761 0.0
C3666 C 0.44572 0.75457 0.35886 0.0
C3667 C 0.42895 0.768 0.36332 0.0
C3668 C 0.42966 0.78402 0.38568 0.0
C3669 C 0.40989 0.79699 0.38526 0.0
C3670 C 0.39492 0.79097 0.40562 0.0
C3671 C 0.41835 0.82535 0.3879 0.0
C3672 C 0.3976 0.7853 0.35946 0.0
C3673 C 0.40901 0.76864 0.34719 0.0
C3674 C 0.40102 0.75534 0.32328 0.0
C3675 C 0.38139 0.7594 0.31144 0.0
C3676 C 0.36949 0.77692 0.32294 0.0
C3677 C 0.37775 0.78972 0.34771 0.0
H3678 H 0.09486 0.73562 0.05124 0.0
H3679 H 0.10809 0.7462 0.13102 0.0
H3680 H 0.10405 0.7007 0.12738 0.0
H3681 H 0.05133 0.67775 0.04584 0.0
H3682 H 0.05836 0.66321 0.01638 0.0
H3683 H 0.06335 0.69677 0.02479 0.0
H3684 H 0.1049 0.69977 0.01726 0.0
H3685 H 0.10009 0.66618 0.00931 0.0
H3686 H 0.12147 0.68338 0.03368 0.0
H3687 H 0.10021 0.65432 0.11557 0.0
H3688 H 0.08972 0.60957 0.09795 0.0
H3689 H 0.07478 0.62522 0.02537 0.0
C3690 C 0.09683 0.72832 0.06795 0.0
C3691 C 0.10199 0.74497 0.09158 0.0
C3692 C 0.10409 0.73428 0.11282 0.0
C3693 C 0.102 0.7083 0.11087 0.0
C3694 C 0.09724 0.69258 0.0875 0.0
C3695 C 0.09403 0.70201 0.0664 0.0
C3696 C 0.08725 0.68033 0.04385 0.0
C3697 C 0.06367 0.67946 0.032 0.0
C3698 C 0.10445 0.68256 0.0249 0.0
C3699 C 0.08749 0.65737 0.05554 0.0
C3700 C 0.09374 0.66524 0.08073 0.0
C3701 C 0.09522 0.64809 0.0959 0.0
C3702 C 0.08931 0.62242 0.08556 0.0
C3703 C 0.08189 0.61319 0.06006 0.0
C3704 C 0.0812 0.63123 0.04472 0.0
H3705 H 0.1076 0.30547 0.92351 0.0
H3706 H 0.06927 0.24322 0.86843 0.0
H3707 H 0.10234 0.24313 0.84508 0.0
H3708 H 0.13516 0.338 0.88114 0.0
H3709 H 0.16141 0.34954 0.90039 0.0
H3710 H 0.13578 0.3426 0.9144 0.0
H3711 H 0.15216 0.31277 0.93762 0.0
H3712 H 0.17781 0.31951 0.92348 0.0
H3713 H 0.16257 0.28767 0.9203 0.0
H3714 H 0.13951 0.25101 0.82648 0.0
H3715 H 0.17546 0.2694 0.81199 0.0
H3716 H 0.18885 0.32822 0.87744 0.0
C3717 C 0.10631 0.2915 0.90679 0.0
C3718 C 0.08582 0.27409 0.89801 0.0
C3719 C 0.08474 0.25661 0.87566 0.0
C3720 C 0.10352 0.25635 0.86231 0.0
C3721 C 0.12339 0.27388 0.8713 0.0
C3722 C 0.12484 0.2913 0.89295 0.0
C3723 C 0.14749 0.30954 0.89738 0.0
C3724 C 0.14478 0.33651 0.89837 0.0
C3725 C 0.16079 0.30723 0.9211 0.0
C3726 C 0.15823 0.30017 0.8745 0.0
C3727 C 0.14433 0.27915 0.86003 0.0
C3728 C 0.15053 0.26742 0.83776 0.0
C3729 C 0.17107 0.27787 0.82971 0.0
C3730 C 0.18503 0.30014 0.84359 0.0
C3731 C 0.17861 0.31106 0.86651 0.0
H3732 H 0.59813 0.76267 0.91525 0.0
H3733 H 0.6559 0.80165 0.96665 0.0
H3734 H 0.6529 0.76524 0.98695 0.0
H3735 H 0.56736 0.74403 0.95737 0.0
H3736 H 0.55263 0.71386 0.94011 0.0
H3737 H 0.56372 0.73805 0.92397 0.0
H3738 H 0.58624 0.70927 0.89934 0.0
H3739 H 0.57503 0.68473 0.91536 0.0
H3740 H 0.60488 0.69506 0.9157 0.0
H3741 H 0.6391 0.73002 1.00712 0.0
H3742 H 0.61417 0.7006 0.02734 0.0
H3743 H 0.56348 0.68597 0.96509 0.0
C3744 C 0.61082 0.76276 0.92987 0.0
C3745 C 0.62761 0.78434 0.93909 0.0
C3746 C 0.64329 0.78484 0.95912 0.0
C3747 C 0.64173 0.76423 0.97063 0.0
C3748 C 0.62425 0.7435 0.96198 0.0
C3749 C 0.60903 0.74259 0.94196 0.0
C3750 C 0.58914 0.7209 0.93967 0.0
C3751 C 0.56693 0.72977 0.94035 0.0
C3752 C 0.58882 0.70133 0.91612 0.0
C3753 C 0.59461 0.71113 0.96265 0.0
C3754 C 0.6154 0.72364 0.97463 0.0
C3755 C 0.62306 0.71966 0.99763 0.0
C3756 C 0.60883 0.70306 1.00902 0.0
C3757 C 0.58711 0.69131 0.99761 0.0
C3758 C 0.58019 0.69475 0.9739 0.0
H3759 H 0.10376 0.79943 0.68261 0.0
H3760 H 0.05643 0.73073 0.68499 0.0
H3761 H 0.08553 0.71648 0.70784 0.0
H3762 H 0.15363 0.77322 0.67694 0.0
H3763 H 0.17188 0.79945 0.69744 0.0
H3764 H 0.1479 0.80396 0.67965 0.0
H3765 H 0.13369 0.82408 0.71986 0.0
H3766 H 0.1577 0.81981 0.73773 0.0
H3767 H 0.12991 0.80719 0.7448 0.0
H3768 H 0.11873 0.70926 0.7299 0.0
H3769 H 0.15394 0.71094 0.75456 0.0
H3770 H 0.18032 0.78553 0.74166 0.0
C3771 C 0.09974 0.78136 0.68787 0.0
C3772 C 0.07798 0.76602 0.68203 0.0
C3773 C 0.07304 0.74267 0.6894 0.0
C3774 C 0.08947 0.73437 0.70224 0.0
C3775 C 0.11073 0.7498 0.70786 0.0
C3776 C 0.11596 0.77294 0.7013 0.0
C3777 C 0.13986 0.78629 0.71132 0.0
C3778 C 0.15416 0.791 0.69007 0.0
C3779 C 0.14031 0.81079 0.72951 0.0
C3780 C 0.14705 0.76702 0.72458 0.0
C3781 C 0.12997 0.74604 0.7219 0.0
C3782 C 0.1322 0.72566 0.73236 0.0
C3783 C 0.15225 0.72689 0.74651 0.0
C3784 C 0.16983 0.74849 0.75049 0.0
C3785 C 0.16728 0.76868 0.73893 0.0
H3786 H 0.11984 0.39116 0.45233 0.0
H3787 H 0.14037 0.41702 0.38591 0.0
H3788 H 0.13428 0.45897 0.4038 0.0
H3789 H 0.0749 0.42187 0.45738 0.0
H3790 H 0.07785 0.42778 0.49076 0.0
H3791 H 0.08605 0.40102 0.47364 0.0
H3792 H 0.12578 0.4159 0.49749 0.0
H3793 H 0.11764 0.44271 0.51461 0.0
H3794 H 0.14173 0.4469 0.49752 0.0
H3795 H 0.12402 0.49702 0.42843 0.0
H3796 H 0.10895 0.52771 0.45653 0.0
H3797 H 0.09329 0.47475 0.50505 0.0
C3798 C 0.12322 0.40553 0.44145 0.0
C3799 C 0.13058 0.40092 0.41773 0.0
C3800 C 0.13468 0.4203 0.40414 0.0
C3801 C 0.13135 0.4441 0.41418 0.0
C3802 C 0.1237 0.4478 0.43756 0.0
C3803 C 0.11949 0.42892 0.45085 0.0
C3804 C 0.10948 0.4367 0.47449 0.0
C3805 C 0.08567 0.42092 0.47402 0.0
C3806 C 0.12458 0.43549 0.49737 0.0
C3807 C 0.10909 0.46324 0.47278 0.0
C3808 C 0.11737 0.46934 0.4514 0.0
C3809 C 0.11766 0.4925 0.44528 0.0
C3810 C 0.10901 0.50973 0.46134 0.0
C3811 C 0.10027 0.50365 0.4832 0.0
C3812 C 0.10049 0.4802 0.48899 0.0
H3813 H 0.44591 0.28579 0.18101 0.0
H3814 H 0.47985 0.26013 0.23957 0.0
H3815 H 0.44887 0.26544 0.26543 0.0
H3816 H 0.42766 0.33299 0.21951 0.0
H3817 H 0.40092 0.32875 0.20183 0.0
H3818 H 0.4245 0.32142 0.18659 0.0
H3819 H 0.40352 0.27615 0.16865 0.0
H3820 H 0.37903 0.28315 0.18201 0.0
H3821 H 0.38988 0.25716 0.18889 0.0
H3822 H 0.41293 0.2723 0.28377 0.0
H3823 H 0.37538 0.27965 0.29253 0.0
H3824 H 0.36815 0.30383 0.22272 0.0
C3825 C 0.44685 0.28103 0.19919 0.0
C3826 C 0.46516 0.27247 0.20834 0.0
C3827 C 0.46584 0.26669 0.23229 0.0
C3828 C 0.44842 0.26973 0.24707 0.0
C3829 C 0.43079 0.27878 0.23757 0.0
C3830 C 0.42995 0.28425 0.21412 0.0
C3831 C 0.40953 0.29394 0.20801 0.0
C3832 C 0.41603 0.32088 0.20375 0.0
C3833 C 0.39461 0.27655 0.18558 0.0
C3834 C 0.39873 0.29285 0.23162 0.0
C3835 C 0.41109 0.28402 0.24852 0.0
C3836 C 0.40335 0.2797 0.27091 0.0
C3837 C 0.38221 0.2841 0.27584 0.0
C3838 C 0.36962 0.29325 0.25865 0.0
C3839 C 0.37801 0.29772 0.23645 0.0
H3840 H 0.63464 0.49914 0.34069 0.0
H3841 H 0.69327 0.55917 0.36386 0.0
H3842 H 0.67929 0.5694 0.40466 0.0
H3843 H 0.59341 0.52761 0.37419 0.0
H3844 H 0.57961 0.49988 0.38425 0.0
H3845 H 0.59346 0.49719 0.35636 0.0
H3846 H 0.61719 0.46973 0.37356 0.0
H3847 H 0.60334 0.47229 0.40148 0.0
H3848 H 0.63341 0.48115 0.4033 0.0
H3849 H 0.6583 0.57406 0.44546 0.0
H3850 H 0.63481 0.57178 0.47976 0.0
H3851 H 0.58834 0.50795 0.43446 0.0
C3852 C 0.6446 0.51464 0.35419 0.0
C3853 C 0.66557 0.52847 0.34762 0.0
C3854 C 0.67749 0.54804 0.36712 0.0
C3855 C 0.66946 0.55409 0.39085 0.0
C3856 C 0.64914 0.5403 0.39659 0.0
C3857 C 0.63692 0.52063 0.37879 0.0
C3858 C 0.61615 0.50804 0.39063 0.0
C3859 C 0.59435 0.50819 0.37544 0.0
C3860 C 0.61759 0.4812 0.39232 0.0
C3861 C 0.61791 0.52426 0.41721 0.0
C3862 C 0.63739 0.5426 0.42012 0.0
C3863 C 0.64315 0.55959 0.4429 0.0
C3864 C 0.62932 0.55809 0.4628 0.0
C3865 C 0.60892 0.53981 0.46129 0.0
C3866 C 0.60344 0.52252 0.43738 0.0
H3867 H 0.35139 0.95082 0.10461 0.0
H3868 H 0.29181 0.90106 0.06462 0.0
H3869 H 0.28725 0.87852 0.09883 0.0
H3870 H 0.37614 0.91441 0.1168 0.0
H3871 H 0.38861 0.92579 0.14834 0.0
H3872 H 0.38083 0.94717 0.13072 0.0
H3873 H 0.35535 0.96167 0.16319 0.0
H3874 H 0.36394 0.94115 0.18191 0.0
H3875 H 0.33463 0.93893 0.17356 0.0
H3876 H 0.29926 0.85101 0.12291 0.0
H3877 H 0.32167 0.82624 0.14233 0.0
H3878 H 0.37437 0.89243 0.16797 0.0
C3879 C 0.33636 0.93667 0.10444 0.0
C3880 C 0.32191 0.9275 0.08255 0.0
C3881 C 0.30275 0.9084 0.08171 0.0
C3882 C 0.30016 0.89542 0.10106 0.0
C3883 C 0.31673 0.90224 0.12105 0.0
C3884 C 0.33395 0.92336 0.12363 0.0
C3885 C 0.35232 0.92333 0.14332 0.0
C3886 C 0.37581 0.92789 0.13419 0.0
C3887 C 0.3515 0.9424 0.1669 0.0
C3888 C 0.34494 0.89708 0.14756 0.0
C3889 C 0.32388 0.88565 0.1356 0.0
C3890 C 0.31522 0.86012 0.1334 0.0
C3891 C 0.32819 0.84611 0.14403 0.0
C3892 C 0.34968 0.85763 0.15637 0.0
C3893 C 0.35799 0.88338 0.15844 0.0
H3894 H 0.98899 0.5917 0.88202 0.0
H3895 H 0.94035 0.52181 0.87456 0.0
H3896 H 0.96635 0.5064 0.901 0.0
H3897 H 0.03908 0.56653 0.88378 0.0
H3898 H 0.05474 0.59226 0.90703 0.0
H3899 H 0.03338 0.59721 0.88566 0.0
H3900 H 1.01298 0.61529 0.92217 0.0
H3901 H 0.03481 0.61141 0.94342 0.0
H3902 H 1.00602 0.59746 0.94591 0.0
H3903 H 0.99772 0.49818 0.92577 0.0
H3904 H 0.02626 0.50238 0.96048 0.0
H3905 H 0.05246 0.57953 0.95597 0.0
C3906 C 0.98375 0.5734 0.88655 0.0
C3907 C 0.96288 0.55788 0.87686 0.0
C3908 C 0.95628 0.53395 0.88251 0.0
C3909 C 0.97109 0.5249 0.89686 0.0
C3910 C 0.9921 0.54026 0.90528 0.0
C3911 C 0.9981 0.56434 0.90121 0.0
C3912 C 0.02052 0.57806 0.91489 0.0
C3913 C 0.03795 0.58386 0.89675 0.0
C3914 C 0.01845 0.60195 0.93267 0.0
C3915 C 0.0256 0.55836 0.92849 0.0
C3916 C 1.00961 0.53624 0.9214 0.0
C3917 C 1.01015 0.51544 0.93172 0.0
C3918 C 0.02626 0.51807 0.95146 0.0
C3919 C 0.0406 0.5416 0.96119 0.0
C3920 C 0.0415 0.56146 0.94864 0.0
H3921 H 0.30931 0.26944 0.59092 0.0
H3922 H 0.29714 0.18984 0.58953 0.0
H3923 H 0.29842 0.19818 0.63538 0.0
H3924 H 0.34871 0.28713 0.64716 0.0
H3925 H 0.33958 0.31562 0.6575 0.0
H3926 H 0.33794 0.30292 0.62487 0.0
H3927 H 0.2958 0.30316 0.62081 0.0
H3928 H 0.29688 0.31497 0.65357 0.0
H3929 H 0.2774 0.28632 0.63926 0.0
H3930 H 0.29979 0.21588 0.6821 0.0
H3931 H 0.30549 0.2411 0.72473 0.0
H3932 H 0.31744 0.30891 0.69514 0.0
C3933 C 0.30704 0.25373 0.60026 0.0
C3934 C 0.30298 0.22894 0.58657 0.0
C3935 C 0.30038 0.20898 0.59957 0.0
C3936 C 0.30092 0.21356 0.62562 0.0
C3937 C 0.30443 0.23824 0.63849 0.0
C3938 C 0.30793 0.25799 0.62619 0.0
C3939 C 0.31224 0.28283 0.64422 0.0
C3940 C 0.33602 0.29802 0.64339 0.0
C3941 C 0.29452 0.29769 0.63916 0.0
C3942 C 0.30997 0.27408 0.66859 0.0
C3943 C 0.30545 0.24829 0.665 0.0
C3944 C 0.3032 0.23606 0.685 0.0
C3945 C 0.30619 0.25052 0.70918 0.0
C3946 C 0.31113 0.27697 0.71322 0.0
C3947 C 0.31299 0.28873 0.69256 0.0
H3948 H 0.67417 0.55278 0.19388 0.0
H3949 H 0.62715 0.48865 0.20735 0.0
H3950 H 0.60403 0.48766 0.16855 0.0
H3951 H 0.63443 0.5824 0.16632 0.0
H3952 H 0.65131 0.59251 0.14296 0.0
H3953 H 0.66451 0.58802 0.17145 0.0
H3954 H 0.68514 0.5574 0.14665 0.0
H3955 H 0.67211 0.56213 0.11818 0.0
H3956 H 0.66925 0.53101 0.12427 0.0
H3957 H 0.58234 0.49689 0.12703 0.0
H3958 H 0.5703 0.50976 0.08835 0.0
H3959 H 0.63289 0.56423 0.0968 0.0
C3960 C 0.65952 0.53774 0.18833 0.0
C3961 C 0.65376 0.51989 0.2045 0.0
C3962 C 0.6333 0.50191 0.19591 0.0
C3963 C 0.61957 0.5015 0.17358 0.0
C3964 C 0.62569 0.51923 0.15846 0.0
C3965 C 0.64572 0.53666 0.16532 0.0
C3966 C 0.64882 0.55331 0.14541 0.0
C3967 C 0.64985 0.58069 0.15725 0.0
C3968 C 0.6701 0.55082 0.13288 0.0
C3969 C 0.62764 0.54284 0.12644 0.0
C3970 C 0.61416 0.5235 0.13467 0.0
C3971 C 0.59323 0.51195 0.12084 0.0
C3972 C 0.5862 0.51968 0.09853 0.0
C3973 C 0.59977 0.53887 0.08864 0.0
C3974 C 0.62118 0.55012 0.10334 0.0
H3975 H 0.34697 0.92589 0.93499 0.0
H3976 H 0.33697 0.87135 0.98258 0.0
H3977 H 0.34247 0.83889 0.94853 0.0
H3978 H 0.31692 0.88978 0.88413 0.0
H3979 H 0.33469 0.90044 0.86169 0.0
H3980 H 0.33496 0.92056 0.89101 0.0
H3981 H 0.37783 0.92512 0.89938 0.0
H3982 H 0.37769 0.905 0.86987 0.0
H3983 H 0.38913 0.89755 0.89779 0.0
H3984 H 0.33954 0.81119 0.90808 0.0
H3985 H 0.3322 0.79068 0.86388 0.0
H3986 H 0.34739 0.86342 0.84336 0.0
C3987 C 0.34658 0.90726 0.93832 0.0
C3988 C 0.34142 0.90092 0.9611 0.0
C3989 C 0.34093 0.87646 0.96508 0.0
C3990 C 0.34418 0.85795 0.94596 0.0
C3991 C 0.34846 0.86448 0.92332 0.0
C3992 C 0.35017 0.88866 0.91953 0.0
C3993 C 0.35246 0.89016 0.89279 0.0
C3994 C 0.33363 0.90084 0.88178 0.0
C3995 C 0.37567 0.90535 0.88979 0.0
C3996 C 0.34999 0.86282 0.88195 0.0
C3997 C 0.348 0.8483 0.89985 0.0
C3998 C 0.34197 0.82229 0.89387 0.0
C3999 C 0.33765 0.81083 0.86883 0.0
C4000 C 0.33947 0.82555 0.85042 0.0
C4001 C 0.34638 0.85171 0.85709 0.0
H4002 H 0.95554 0.5034 0.74487 0.0
H4003 H 0.95761 0.58149 0.74566 0.0
H4004 H 0.97026 0.57674 0.7037 0.0
H4005 H 1.00321 0.5023 0.72606 0.0
H4006 H 0.99737 0.47192 0.70607 0.0
H4007 H 0.98035 0.47802 0.73061 0.0
H4008 H 0.94458 0.46551 0.69957 0.0
H4009 H 0.96141 0.45854 0.67473 0.0
H4010 H 0.94334 0.48002 0.67298 0.0
H4011 H 0.99334 0.56734 0.67025 0.0
H4012 H 0.02191 0.55346 0.64558 0.0
H4013 H 1.00514 0.48077 0.66586 0.0
C4014 C 0.95755 0.51907 0.73549 0.0
C4015 C 0.95569 0.54272 0.748 0.0
C4016 C 0.95874 0.56318 0.73592 0.0
C4017 C 0.96588 0.56057 0.71215 0.0
C4018 C 0.96937 0.53731 0.70095 0.0
C4019 C 0.96472 0.51668 0.71198 0.0
C4020 C 0.9738 0.49523 0.69876 0.0
C4021 C 0.98962 0.4864 0.71643 0.0
C4022 C 0.95464 0.47355 0.68573 0.0
C4023 C 0.98633 0.50782 0.68022 0.0
C4024 C 0.98295 0.53177 0.68119 0.0
C4025 C 0.99535 0.5483 0.66851 0.0
C4026 C 1.01164 0.54023 0.65462 0.0
C4027 C 0.01544 0.51583 0.65357 0.0
C4028 C 1.00236 0.49937 0.66619 0.0
H4029 H 0.31807 0.20073 0.42892 0.0
H4030 H 0.28745 0.25404 0.47413 0.0
H4031 H 0.28842 0.27843 0.44097 0.0
H4032 H 0.35525 0.24753 0.40319 0.0
H4033 H 0.35333 0.22794 0.37304 0.0
H4034 H 0.35015 0.21407 0.40007 0.0
H4035 H 0.31169 0.18692 0.37998 0.0
H4036 H 0.31485 0.20069 0.35292 0.0
H4037 H 0.29045 0.20176 0.36927 0.0
H4038 H 0.29379 0.29812 0.40435 0.0
H4039 H 0.3013 0.31108 0.36488 0.0
H4040 H 0.32739 0.24499 0.34112 0.0
C4041 C 0.31132 0.21737 0.43166 0.0
C4042 C 0.30248 0.22536 0.45417 0.0
C4043 C 0.29422 0.24749 0.45716 0.0
C4044 C 0.29474 0.26152 0.43841 0.0
C4045 C 0.30373 0.25336 0.41667 0.0
C4046 C 0.31187 0.23182 0.41306 0.0
C4047 C 0.32108 0.22779 0.38795 0.0
C4048 C 0.34645 0.22943 0.39127 0.0
C4049 C 0.30877 0.20281 0.37156 0.0
C4050 C 0.31601 0.24993 0.37775 0.0
C4051 C 0.30644 0.26463 0.39498 0.0
C4052 C 0.30112 0.28668 0.39065 0.0
C4053 C 0.3055 0.29391 0.36811 0.0
C4054 C 0.31471 0.27898 0.34973 0.0
C4055 C 0.32004 0.25662 0.35466 0.0
H4056 H 0.35832 0.61795 0.50355 0.0
H4057 H 0.36123 0.62187 0.58279 0.0
H4058 H 0.392 0.59896 0.58073 0.0
H4059 H 0.36401 0.55774 0.48738 0.0
H4060 H 0.38115 0.56238 0.46256 0.0
H4061 H 0.36225 0.5825 0.47083 0.0
H4062 H 0.39494 0.6214 0.47774 0.0
H4063 H 0.41403 0.60151 0.46911 0.0
H4064 H 0.41936 0.62307 0.49846 0.0
H4065 H 0.41884 0.57191 0.569 0.0
H4066 H 0.44145 0.54363 0.54898 0.0
H4067 H 0.42006 0.55706 0.4771 0.0
C4068 C 0.36594 0.61445 0.52047 0.0
C4069 C 0.35797 0.62149 0.54332 0.0
C4070 C 0.36761 0.61654 0.56523 0.0
C4071 C 0.38498 0.60367 0.56418 0.0
C4072 C 0.39217 0.59624 0.54109 0.0
C4073 C 0.38312 0.60168 0.51967 0.0
C4074 C 0.39245 0.58998 0.49697 0.0
C4075 C 0.37385 0.57209 0.47836 0.0
C4076 C 0.40601 0.61019 0.48486 0.0
C4077 C 0.40738 0.576 0.50878 0.0
C4078 C 0.40729 0.58021 0.53427 0.0
C4079 C 0.41922 0.56862 0.54912 0.0
C4080 C 0.4318 0.55249 0.5376 0.0
C4081 C 0.4321 0.54802 0.51154 0.0
C4082 C 0.4197 0.55986 0.497 0.0
H4083 H 0.90882 0.95208 0.57287 0.0
H4084 H 0.90022 0.90999 0.49728 0.0
H4085 H 0.9351 0.93564 0.48894 0.0
H4086 H 0.93617 1.01414 0.55656 0.0
H4087 H 0.95574 0.02363 0.58409 0.0
H4088 H 0.92854 1.00407 0.58473 0.0
H4089 H 0.94726 0.97149 0.60047 0.0
H4090 H 0.9745 0.99084 0.59974 0.0
H4091 H 0.96759 0.95897 0.58295 0.0
H4092 H 0.97184 0.95785 0.48981 0.0
H4093 H 1.00902 0.98273 0.49637 0.0
H4094 H 0.99746 0.01825 0.56995 0.0
C4095 C 0.91422 0.9488 0.5545 0.0
C4096 C 0.9019 0.92878 0.53567 0.0
C4097 C 0.90948 0.92487 0.51198 0.0
C4098 C 0.92927 0.93943 0.50703 0.0
C4099 C 0.94149 0.95818 0.52591 0.0
C4100 C 0.93439 0.96353 0.54907 0.0
C4101 C 0.95205 0.98465 0.56568 0.0
C4102 C 0.94255 1.00801 0.57321 0.0
C4103 C 0.96087 0.97596 0.58857 0.0
C4104 C 0.97028 0.98928 0.54825 0.0
C4105 C 0.96333 0.97341 0.52561 0.0
C4106 C 0.97717 0.97124 0.50699 0.0
C4107 C 0.99861 0.98598 0.51104 0.0
C4108 C 1.00646 1.00394 0.53323 0.0
C4109 C 0.99197 1.00548 0.55241 0.0
H4110 H 0.91955 0.16437 0.31728 0.0
H4111 H 0.90466 0.12807 0.24013 0.0
H4112 H 0.88282 0.15927 0.23294 0.0
H4113 H 0.86309 0.1787 0.3231 0.0
H4114 H 0.87304 0.20826 0.3441 0.0
H4115 H 0.88855 0.18399 0.34337 0.0
H4116 H 0.92383 0.21423 0.33519 0.0
H4117 H 0.90838 0.23854 0.33591 0.0
H4118 H 0.92264 0.22974 0.30929 0.0
H4119 H 0.86195 0.1987 0.23333 0.0
H4120 H 0.84457 0.23527 0.24215 0.0
H4121 H 0.86806 0.24585 0.31969 0.0
C4122 C 0.91203 0.16296 0.29866 0.0
C4123 C 0.91517 0.14275 0.27913 0.0
C4124 C 0.90365 0.14256 0.25567 0.0
C4125 C 0.89084 0.16068 0.25134 0.0
C4126 C 0.88819 0.17997 0.27062 0.0
C4127 C 0.89836 0.18096 0.29407 0.0
C4128 C 0.89181 0.20296 0.31186 0.0
C4129 C 0.87834 0.19288 0.33181 0.0
C4130 C 0.91292 0.22253 0.32379 0.0
C4131 C 0.87693 0.21443 0.29502 0.0
C4132 C 0.87518 0.20087 0.27114 0.0
C4133 C 0.86307 0.20859 0.25227 0.0
C4134 C 0.85266 0.22973 0.25759 0.0
C4135 C 0.85293 0.24389 0.28199 0.0
C4136 C 0.86607 0.23568 0.30076 0.0
H4137 H 0.73211 0.12762 0.04955 0.0
H4138 H 0.72841 0.10161 0.97035 0.0
H4139 H 0.68974 0.07736 0.97047 0.0
H4140 H 0.69096 0.07001 0.06394 0.0
H4141 H 0.68079 0.09094 0.08702 0.0
H4142 H 0.70967 0.09797 0.08119 0.0
H4143 H 0.70414 0.14138 0.07403 0.0
H4144 H 0.67508 0.13326 0.07851 0.0
H4145 H 0.68314 0.14261 0.05013 0.0
H4146 H 0.65092 0.06256 0.97782 0.0
H4147 H 0.61338 0.06165 0.98993 0.0
H4148 H 0.64069 0.10259 0.06338 0.0
C4149 C 0.72332 0.1159 0.03248 0.0
C4150 C 0.73295 0.11571 0.01001 0.0
C4151 C 0.72114 0.10132 0.98769 0.0
C4152 C 0.69936 0.08744 0.98772 0.0
C4153 C 0.68992 0.08855 0.01019 0.0
C4154 C 0.7015 0.10253 0.03218 0.0
C4155 C 0.68637 0.10466 0.05273 0.0
C4156 C 0.69229 0.09 0.07236 0.0
C4157 C 0.68723 0.13211 0.06449 0.0
C4158 C 0.66402 0.09199 0.03823 0.0
C4159 C 0.66673 0.08152 0.01419 0.0
C4160 C 0.64865 0.07018 0.99671 0.0
C4161 C 0.62728 0.06989 1.0038 0.0
C4162 C 0.62395 0.08134 0.02793 0.0
C4163 C 0.6426 0.09258 0.04534 0.0
H4164 H 0.26946 0.51889 0.24595 0.0
H4165 H 0.21126 0.46152 0.21286 0.0
H4166 H 0.23027 0.42927 0.22355 0.0
H4167 H 0.31506 0.48086 0.23985 0.0
H4168 H 0.32715 0.49605 0.27083 0.0
H4169 H 0.31391 0.51288 0.2514 0.0
H4170 H 0.28853 0.52315 0.28572 0.0
H4171 H 0.30097 0.50581 0.30492 0.0
H4172 H 0.27113 0.49794 0.29666 0.0
H4173 H 0.25066 0.40514 0.24704 0.0
H4174 H 0.27002 0.39158 0.28126 0.0
H4175 H 0.31179 0.46603 0.30391 0.0
C4176 C 0.26135 0.49942 0.23941 0.0
C4177 C 0.23917 0.49251 0.22814 0.0
C4178 C 0.2285 0.467 0.22102 0.0
C4179 C 0.23918 0.44862 0.22713 0.0
C4180 C 0.26026 0.45625 0.24066 0.0
C4181 C 0.27128 0.48117 0.24663 0.0
C4182 C 0.29057 0.48561 0.26656 0.0
C4183 C 0.31301 0.49435 0.25654 0.0
C4184 C 0.28759 0.5042 0.2898 0.0
C4185 C 0.28812 0.4596 0.27166 0.0
C4186 C 0.27106 0.44273 0.25604 0.0
C4187 C 0.26435 0.41806 0.25899 0.0
C4188 C 0.27523 0.41059 0.27851 0.0
C4189 C 0.29208 0.42798 0.2951 0.0
C4190 C 0.29885 0.45255 0.29137 0.0
H4191 H 0.28525 0.45964 0.06314 0.0
H4192 H 0.25748 0.39068 0.01042 0.0
H4193 H 0.2236 0.40596 1.00137 0.0
H4194 H 0.22932 0.46683 0.08484 0.0
H4195 H 0.23699 0.50037 0.089 0.0
H4196 H 0.2581 0.48294 0.09363 0.0
H4197 H 0.28083 0.50313 0.06159 0.0
H4198 H 0.25985 0.52055 0.05689 0.0
H4199 H 0.26754 0.50066 0.03084 0.0
H4200 H 0.19416 0.43019 0.9949 0.0
H4201 H 0.17177 0.46203 0.9918 0.0
H4202 H 0.2182 0.51508 0.0485 0.0
C4203 C 0.27183 0.44759 0.05009 0.0
C4204 C 0.27405 0.42392 0.0376 0.0
C4205 C 0.25615 0.40878 0.02048 0.0
C4206 C 0.23676 0.41728 0.01516 0.0
C4207 C 0.23522 0.44083 0.02747 0.0
C4208 C 0.25211 0.45566 0.04484 0.0
C4209 C 0.24652 0.48059 0.05472 0.0
C4210 C 0.2425 0.48282 0.08218 0.0
C4211 C 0.26477 0.50252 0.05075 0.0
C4212 C 0.22485 0.47822 0.03876 0.0
C4213 C 0.21824 0.45484 0.02369 0.0
C4214 C 0.19902 0.44846 1.00685 0.0
C4215 C 0.18642 0.46657 1.0052 0.0
C4216 C 0.19335 0.49084 0.01993 0.0
C4217 C 0.21262 0.49658 0.0371 0.0
H4218 H 0.93262 0.98133 0.30492 0.0
H4219 H 0.89203 1.00959 0.25445 0.0
H4220 H 0.86379 0.96942 0.24736 0.0
H4221 H 0.9226 0.91796 0.27395 0.0
H4222 H 0.92058 0.9049 0.30156 0.0
H4223 H 0.93693 0.93598 0.30313 0.0
H4224 H 0.91401 0.95331 0.33712 0.0
H4225 H 0.89765 0.92221 0.33569 0.0
H4226 H 0.88397 0.947 0.33134 0.0
H4227 H 0.83911 0.92289 0.24521 0.0
H4228 H 0.82261 0.87931 0.2487 0.0
H4229 H 0.87928 0.88115 0.30044 0.0
C4230 C 0.91775 0.97929 0.2924 0.0
C4231 C 0.91506 0.99943 0.28027 0.0
C4232 C 0.89493 0.99521 0.26427 0.0
C4233 C 0.87866 0.97209 0.26004 0.0
C4234 C 0.88203 0.95272 0.27213 0.0
C4235 C 0.90111 0.95639 0.2883 0.0
C4236 C 0.9007 0.93302 0.29957 0.0
C4237 C 0.92144 0.92233 0.29422 0.0
C4238 C 0.899 0.93926 0.32759 0.0
C4239 C 0.87921 0.91496 0.28628 0.0
C4240 C 0.86832 0.9268 0.27089 0.0
C4241 C 0.84778 0.91386 0.25734 0.0
C4242 C 0.83834 0.88877 0.25951 0.0
C4243 C 0.84918 0.87579 0.27487 0.0
C4244 C 0.87012 0.88964 0.28833 0.0
H4245 H 0.73366 0.12364 0.73914 0.0
H4246 H 0.75528 0.12225 0.81491 0.0
H4247 H 0.78405 0.16105 0.81713 0.0
H4248 H 0.79093 0.15897 0.72267 0.0
H4249 H 0.77566 0.17506 0.70445 0.0
H4250 H 0.7638 0.14338 0.70669 0.0
H4251 H 0.72836 0.15849 0.72141 0.0
H4252 H 0.74124 0.18999 0.72006 0.0
H4253 H 0.73156 0.18277 0.74866 0.0
H4254 H 0.80547 0.2022 0.81358 0.0
H4255 H 0.81297 0.24576 0.80806 0.0
H4256 H 0.77197 0.2232 0.7377 0.0
C4257 C 0.74524 0.13109 0.75572 0.0
C4258 C 0.74309 0.12005 0.77663 0.0
C4259 C 0.75739 0.13047 0.79862 0.0
C4260 C 0.77381 0.15226 0.79989 0.0
C4261 C 0.77532 0.16326 0.77906 0.0
C4262 C 0.76119 0.15317 0.75746 0.0
C4263 C 0.76269 0.17113 0.73983 0.0
C4264 C 0.77397 0.16157 0.71709 0.0
C4265 C 0.7396 0.17588 0.7321 0.0
C4266 C 0.77784 0.19389 0.75605 0.0
C4267 C 0.78628 0.18836 0.77775 0.0
C4268 C 0.79947 0.20663 0.7964 0.0
C4269 C 0.80362 0.23131 0.79311 0.0
C4270 C 0.79378 0.23752 0.77185 0.0
C4271 C 0.7808 0.21866 0.75318 0.0
loop_
_geom_bond_atom_site_label_1
_geom_bond_atom_site_label_2
_geom_bond_distance
_geom_bond_site_symmetry_2
_ccdc_geom_bond_type
Co0 O1 2.216 . S
Co0 O2 2.091 . S
Co0 O4 2.004 . S
Co0 O10 2.021 . S
Co0 O12 2.137 . S
Co0 O13 2.244 . S
O1 Co0 2.216 . S
O1 C8 1.247 . S
O2 Co0 2.091 . S
O2 C8 1.261 . S
C3 O12 1.247 . S
C3 O13 1.272 . S
O4 Co0 2.004 . S
O4 C9 1.259 . S
Co5 O6 2.061 . S
Co5 O11 2.052 . S
Co5 O13 2.135 . S
O6 Co5 2.061 . S
O6 C9 1.235 . S
C7 O10 1.238 . S
C7 O11 1.241 . S
C8 O1 1.247 . S
C8 O2 1.261 . S
C9 O4 1.259 . S
C9 O6 1.235 . S
O10 Co0 2.021 . S
O10 C7 1.238 . S
O11 Co5 2.052 . S
O11 C7 1.241 . S
O12 Co0 2.137 . S
O12 C3 1.247 . S
O13 Co0 2.244 . S
O13 C3 1.272 . S
O13 Co5 2.135 . S
Co14 O15 2.216 . S
Co14 O16 2.091 . S
Co14 O18 2.004 1_655 S
Co14 O24 2.021 . S
Co14 O26 2.137 . S
Co14 O27 2.244 1_655 S
O15 Co14 2.216 . S
O15 C22 1.247 . S
O16 Co14 2.091 . S
O16 C22 1.261 . S
C17 O26 1.247 1_455 S
C17 O27 1.272 . S
O18 Co14 2.004 1_455 S
O18 C23 1.259 . S
Co19 O20 2.061 . S
Co19 O25 2.052 . S
Co19 O27 2.135 . S
O20 Co19 2.061 . S
O20 C23 1.235 . S
C21 O24 1.238 . S
C21 O25 1.241 1_655 S
C22 O15 1.247 . S
C22 O16 1.261 . S
C23 O18 1.259 . S
C23 O20 1.235 . S
O24 Co14 2.021 . S
O24 C21 1.238 . S
O25 Co19 2.052 . S
O25 C21 1.241 1_455 S
O26 Co14 2.137 . S
O26 C17 1.247 1_655 S
O27 Co14 2.244 1_455 S
O27 C17 1.272 . S
O27 Co19 2.135 . S
Co28 O29 2.216 . S
Co28 O30 2.091 . S
Co28 O32 2.004 . S
Co28 O38 2.021 . S
Co28 O40 2.137 . S
Co28 O41 2.244 . S
O29 Co28 2.216 . S
O29 C36 1.247 . S
O30 Co28 2.091 . S
O30 C36 1.261 . S
C31 O40 1.247 . S
C31 O41 1.272 . S
O32 Co28 2.004 . S
O32 C37 1.259 . S
Co33 O34 2.061 . S
Co33 O39 2.052 . S
Co33 O41 2.135 . S
O34 Co33 2.061 . S
O34 C37 1.235 . S
C35 O38 1.238 . S
C35 O39 1.241 . S
C36 O29 1.247 . S
C36 O30 1.261 . S
C37 O32 1.259 . S
C37 O34 1.235 . S
O38 Co28 2.021 . S
O38 C35 1.238 . S
O39 Co33 2.052 . S
O39 C35 1.241 . S
O40 Co28 2.137 . S
O40 C31 1.247 . S
O41 Co28 2.244 . S
O41 C31 1.272 . S
O41 Co33 2.135 . S
Co42 O43 2.216 . S
Co42 O44 2.091 . S
Co42 O46 2.004 . S
Co42 O52 2.021 . S
Co42 O54 2.137 . S
Co42 O55 2.244 . S
O43 Co42 2.216 . S
O43 C50 1.247 . S
O44 Co42 2.091 . S
O44 C50 1.261 . S
C45 O54 1.247 . S
C45 O55 1.272 . S
O46 Co42 2.004 . S
O46 C51 1.259 . S
Co47 O48 2.061 . S
Co47 O53 2.052 . S
Co47 O55 2.135 . S
O48 Co47 2.061 . S
O48 C51 1.235 . S
C49 O52 1.238 . S
C49 O53 1.241 . S
C50 O43 1.247 . S
C50 O44 1.261 . S
C51 O46 1.259 . S
C51 O48 1.235 . S
O52 Co42 2.021 . S
O52 C49 1.238 . S
O53 Co47 2.052 . S
O53 C49 1.241 . S
O54 Co42 2.137 . S
O54 C45 1.247 . S
O55 Co42 2.244 . S
O55 C45 1.272 . S
O55 Co47 2.135 . S
Co56 O57 2.216 . S
Co56 O58 2.091 . S
Co56 O60 2.004 . S
Co56 O66 2.021 . S
Co56 O68 2.137 . S
Co56 O69 2.244 . S
O57 Co56 2.216 . S
O57 C64 1.247 . S
O58 Co56 2.091 . S
O58 C64 1.261 . S
C59 O68 1.247 . S
C59 O69 1.272 . S
O60 Co56 2.004 . S
O60 C65 1.259 . S
Co61 O62 2.061 . S
Co61 O67 2.052 . S
Co61 O69 2.135 . S
O62 Co61 2.061 . S
O62 C65 1.235 . S
C63 O66 1.238 . S
C63 O67 1.241 . S
C64 O57 1.247 . S
C64 O58 1.261 . S
C65 O60 1.259 . S
C65 O62 1.235 . S
O66 Co56 2.021 . S
O66 C63 1.238 . S
O67 Co61 2.052 . S
O67 C63 1.241 . S
O68 Co56 2.137 . S
O68 C59 1.247 . S
O69 Co56 2.244 . S
O69 C59 1.272 . S
O69 Co61 2.135 . S
Co70 O71 2.216 . S
Co70 O72 2.091 . S
Co70 O74 2.004 . S
Co70 O80 2.021 . S
Co70 O82 2.137 . S
Co70 O83 2.244 . S
O71 Co70 2.216 . S
O71 C78 1.247 . S
O72 Co70 2.091 . S
O72 C78 1.261 . S
C73 O82 1.247 . S
C73 O83 1.272 . S
O74 Co70 2.004 . S
O74 C79 1.259 . S
Co75 O76 2.061 . S
Co75 O81 2.052 . S
Co75 O83 2.135 . S
O76 Co75 2.061 . S
O76 C79 1.235 . S
C77 O80 1.238 . S
C77 O81 1.241 . S
C78 O71 1.247 . S
C78 O72 1.261 . S
C79 O74 1.259 . S
C79 O76 1.235 . S
O80 Co70 2.021 . S
O80 C77 1.238 . S
O81 Co75 2.052 . S
O81 C77 1.241 . S
O82 Co70 2.137 . S
O82 C73 1.247 . S
O83 Co70 2.244 . S
O83 C73 1.272 . S
O83 Co75 2.135 . S
Co84 O85 2.216 . S
Co84 O86 2.091 . S
Co84 O88 2.004 . S
Co84 O94 2.021 . S
Co84 O96 2.137 . S
Co84 O97 2.244 . S
O85 Co84 2.216 . S
O85 C92 1.247 . S
O86 Co84 2.091 . S
O86 C92 1.261 . S
C87 O96 1.247 . S
C87 O97 1.272 . S
O88 Co84 2.004 . S
O88 C93 1.259 . S
Co89 O90 2.061 . S
Co89 O95 2.052 . S
Co89 O97 2.135 . S
O90 Co89 2.061 . S
O90 C93 1.235 . S
C91 O94 1.238 . S
C91 O95 1.241 . S
C92 O85 1.247 . S
C92 O86 1.261 . S
C93 O88 1.259 . S
C93 O90 1.235 . S
O94 Co84 2.021 . S
O94 C91 1.238 . S
O95 Co89 2.052 . S
O95 C91 1.241 . S
O96 Co84 2.137 . S
O96 C87 1.247 . S
O97 Co84 2.244 . S
O97 C87 1.272 . S
O97 Co89 2.135 . S
Co98 O99 2.216 . S
Co98 O100 2.091 . S
Co98 O102 2.004 1_455 S
Co98 O108 2.021 . S
Co98 O110 2.137 . S
Co98 O111 2.244 . S
O99 Co98 2.216 . S
O99 C106 1.247 . S
O100 Co98 2.091 . S
O100 C106 1.261 . S
C101 O110 1.247 . S
C101 O111 1.272 . S
O102 Co98 2.004 1_655 S
O102 C107 1.259 . S
Co103 O104 2.061 . S
Co103 O109 2.052 1_655 S
Co103 O111 2.135 1_655 S
O104 Co103 2.061 . S
O104 C107 1.235 . S
C105 O108 1.238 . S
C105 O109 1.241 . S
C106 O99 1.247 . S
C106 O100 1.261 . S
C107 O102 1.259 . S
C107 O104 1.235 . S
O108 Co98 2.021 . S
O108 C105 1.238 . S
O109 Co103 2.052 1_455 S
O109 C105 1.241 . S
O110 Co98 2.137 . S
O110 C101 1.247 . S
O111 Co98 2.244 . S
O111 C101 1.272 . S
O111 Co103 2.135 1_455 S
Co112 O113 2.216 . S
Co112 O114 2.091 . S
Co112 O116 2.004 1_545 S
Co112 O122 2.021 . S
Co112 O124 2.137 . S
Co112 O125 2.244 . S
O113 Co112 2.216 . S
O113 C120 1.247 . S
O114 Co112 2.091 . S
O114 C120 1.261 . S
C115 O124 1.247 . S
C115 O125 1.272 . S
O116 Co112 2.004 1_565 S
O116 C121 1.259 . S
Co117 O118 2.061 . S
Co117 O123 2.052 1_565 S
Co117 O125 2.135 1_565 S
O118 Co117 2.061 . S
O118 C121 1.235 . S
C119 O122 1.238 . S
C119 O123 1.241 . S
C120 O113 1.247 . S
C120 O114 1.261 . S
C121 O116 1.259 . S
C121 O118 1.235 . S
O122 Co112 2.021 . S
O122 C119 1.238 . S
O123 Co117 2.052 1_545 S
O123 C119 1.241 . S
O124 Co112 2.137 . S
O124 C115 1.247 . S
O125 Co112 2.244 . S
O125 C115 1.272 . S
O125 Co117 2.135 1_545 S
Co126 O127 2.216 . S
Co126 O128 2.091 . S
Co126 O130 2.004 . S
Co126 O136 2.021 . S
Co126 O138 2.137 . S
Co126 O139 2.244 . S
O127 Co126 2.216 . S
O127 C134 1.247 . S
O128 Co126 2.091 . S
O128 C134 1.261 . S
C129 O138 1.247 . S
C129 O139 1.272 . S
O130 Co126 2.004 . S
O130 C135 1.259 . S
Co131 O132 2.061 . S
Co131 O137 2.052 . S
Co131 O139 2.135 . S
O132 Co131 2.061 . S
O132 C135 1.235 . S
C133 O136 1.238 . S
C133 O137 1.241 . S
C134 O127 1.247 . S
C134 O128 1.261 . S
C135 O130 1.259 . S
C135 O132 1.235 . S
O136 Co126 2.021 . S
O136 C133 1.238 . S
O137 Co131 2.052 . S
O137 C133 1.241 . S
O138 Co126 2.137 . S
O138 C129 1.247 . S
O139 Co126 2.244 . S
O139 C129 1.272 . S
O139 Co131 2.135 . S
Co140 O141 2.216 . S
Co140 O142 2.091 . S
Co140 O144 2.004 1_565 S
Co140 O150 2.021 . S
Co140 O152 2.137 . S
Co140 O153 2.244 1_565 S
O141 Co140 2.216 . S
O141 C148 1.247 . S
O142 Co140 2.091 . S
O142 C148 1.261 . S
C143 O152 1.247 1_545 S
C143 O153 1.272 . S
O144 Co140 2.004 1_545 S
O144 C149 1.259 . S
Co145 O146 2.061 . S
Co145 O151 2.052 . S
Co145 O153 2.135 . S
O146 Co145 2.061 . S
O146 C149 1.235 . S
C147 O150 1.238 . S
C147 O151 1.241 1_565 S
C148 O141 1.247 . S
C148 O142 1.261 . S
C149 O144 1.259 . S
C149 O146 1.235 . S
O150 Co140 2.021 . S
O150 C147 1.238 . S
O151 Co145 2.052 . S
O151 C147 1.241 1_545 S
O152 Co140 2.137 . S
O152 C143 1.247 1_565 S
O153 Co140 2.244 1_545 S
O153 C143 1.272 . S
O153 Co145 2.135 . S
Co154 O155 2.216 . S
Co154 O156 2.091 . S
Co154 O158 2.004 . S
Co154 O164 2.021 . S
Co154 O166 2.137 1_554 S
Co154 O167 2.244 1_554 S
O155 Co154 2.216 . S
O155 C162 1.247 . S
O156 Co154 2.091 . S
O156 C162 1.261 . S
C157 O166 1.247 . S
C157 O167 1.272 . S
O158 Co154 2.004 . S
O158 C163 1.259 . S
Co159 O160 2.061 . S
Co159 O165 2.052 . S
Co159 O167 2.135 1_554 S
O160 Co159 2.061 . S
O160 C163 1.235 . S
C161 O164 1.238 . S
C161 O165 1.241 . S
C162 O155 1.247 . S
C162 O156 1.261 . S
C163 O158 1.259 . S
C163 O160 1.235 . S
O164 Co154 2.021 . S
O164 C161 1.238 . S
O165 Co159 2.052 . S
O165 C161 1.241 . S
O166 Co154 2.137 1_556 S
O166 C157 1.247 . S
O167 Co154 2.244 1_556 S
O167 C157 1.272 . S
O167 Co159 2.135 1_556 S
Co168 O169 2.216 . S
Co168 O170 2.091 . S
Co168 O172 2.004 . S
Co168 O178 2.021 . S
Co168 O180 2.137 1_554 S
Co168 O181 2.244 . S
O169 Co168 2.216 . S
O169 C176 1.247 . S
O170 Co168 2.091 . S
O170 C176 1.261 . S
C171 O180 1.247 . S
C171 O181 1.272 1_556 S
O172 Co168 2.004 . S
O172 C177 1.259 . S
Co173 O174 2.061 . S
Co173 O179 2.052 . S
Co173 O181 2.135 . S
O174 Co173 2.061 . S
O174 C177 1.235 . S
C175 O178 1.238 . S
C175 O179 1.241 . S
C176 O169 1.247 . S
C176 O170 1.261 . S
C177 O172 1.259 . S
C177 O174 1.235 . S
O178 Co168 2.021 . S
O178 C175 1.238 . S
O179 Co173 2.052 . S
O179 C175 1.241 . S
O180 Co168 2.137 1_556 S
O180 C171 1.247 . S
O181 Co168 2.244 . S
O181 C171 1.272 1_554 S
O181 Co173 2.135 . S
Co182 O183 2.216 . S
Co182 O184 2.091 . S
Co182 O186 2.004 . S
Co182 O192 2.021 . S
Co182 O194 2.137 1_554 S
Co182 O195 2.244 . S
O183 Co182 2.216 . S
O183 C190 1.247 . S
O184 Co182 2.091 . S
O184 C190 1.261 . S
C185 O194 1.247 . S
C185 O195 1.272 1_556 S
O186 Co182 2.004 . S
O186 C191 1.259 . S
Co187 O188 2.061 . S
Co187 O193 2.052 . S
Co187 O195 2.135 . S
O188 Co187 2.061 . S
O188 C191 1.235 . S
C189 O192 1.238 . S
C189 O193 1.241 . S
C190 O183 1.247 . S
C190 O184 1.261 . S
C191 O186 1.259 . S
C191 O188 1.235 . S
O192 Co182 2.021 . S
O192 C189 1.238 . S
O193 Co187 2.052 . S
O193 C189 1.241 . S
O194 Co182 2.137 1_556 S
O194 C185 1.247 . S
O195 Co182 2.244 . S
O195 C185 1.272 1_554 S
O195 Co187 2.135 . S
Co196 O197 2.216 . S
Co196 O198 2.091 . S
Co196 O200 2.004 . S
Co196 O206 2.021 . S
Co196 O208 2.137 . S
Co196 O209 2.244 . S
O197 Co196 2.216 . S
O197 C204 1.247 . S
O198 Co196 2.091 . S
O198 C204 1.261 . S
C199 O208 1.247 . S
C199 O209 1.272 . S
O200 Co196 2.004 . S
O200 C205 1.259 . S
Co201 O202 2.061 . S
Co201 O207 2.052 . S
Co201 O209 2.135 . S
O202 Co201 2.061 . S
O202 C205 1.235 . S
C203 O206 1.238 . S
C203 O207 1.241 . S
C204 O197 1.247 . S
C204 O198 1.261 . S
C205 O200 1.259 . S
C205 O202 1.235 . S
O206 Co196 2.021 . S
O206 C203 1.238 . S
O207 Co201 2.052 . S
O207 C203 1.241 . S
O208 Co196 2.137 . S
O208 C199 1.247 . S
O209 Co196 2.244 . S
O209 C199 1.272 . S
O209 Co201 2.135 . S
Co210 O211 2.216 . S
Co210 O212 2.091 . S
Co210 O214 2.004 . S
Co210 O220 2.021 . S
Co210 O222 2.137 . S
Co210 O223 2.244 . S
O211 Co210 2.216 . S
O211 C218 1.247 . S
O212 Co210 2.091 . S
O212 C218 1.261 . S
C213 O222 1.247 . S
C213 O223 1.272 . S
O214 Co210 2.004 . S
O214 C219 1.259 . S
Co215 O216 2.061 . S
Co215 O221 2.052 . S
Co215 O223 2.135 . S
O216 Co215 2.061 . S
O216 C219 1.235 . S
C217 O220 1.238 . S
C217 O221 1.241 . S
C218 O211 1.247 . S
C218 O212 1.261 . S
C219 O214 1.259 . S
C219 O216 1.235 . S
O220 Co210 2.021 . S
O220 C217 1.238 . S
O221 Co215 2.052 . S
O221 C217 1.241 . S
O222 Co210 2.137 . S
O222 C213 1.247 . S
O223 Co210 2.244 . S
O223 C213 1.272 . S
O223 Co215 2.135 . S
Co224 O225 2.216 . S
Co224 O226 2.091 . S
Co224 O228 2.004 . S
Co224 O234 2.021 . S
Co224 O236 2.137 . S
Co224 O237 2.244 . S
O225 Co224 2.216 . S
O225 C232 1.247 . S
O226 Co224 2.091 . S
O226 C232 1.261 . S
C227 O236 1.247 . S
C227 O237 1.272 . S
O228 Co224 2.004 . S
O228 C233 1.259 . S
Co229 O230 2.061 . S
Co229 O235 2.052 . S
Co229 O237 2.135 . S
O230 Co229 2.061 . S
O230 C233 1.235 . S
C231 O234 1.238 . S
C231 O235 1.241 . S
C232 O225 1.247 . S
C232 O226 1.261 . S
C233 O228 1.259 . S
C233 O230 1.235 . S
O234 Co224 2.021 . S
O234 C231 1.238 . S
O235 Co229 2.052 . S
O235 C231 1.241 . S
O236 Co224 2.137 . S
O236 C227 1.247 . S
O237 Co224 2.244 . S
O237 C227 1.272 . S
O237 Co229 2.135 . S
Co238 O239 2.216 . S
Co238 O240 2.091 . S
Co238 O242 2.004 . S
Co238 O248 2.021 . S
Co238 O250 2.137 . S
Co238 O251 2.244 . S
O239 Co238 2.216 . S
O239 C246 1.247 . S
O240 Co238 2.091 . S
O240 C246 1.261 . S
C241 O250 1.247 . S
C241 O251 1.272 . S
O242 Co238 2.004 . S
O242 C247 1.259 . S
Co243 O244 2.061 . S
Co243 O249 2.052 . S
Co243 O251 2.135 . S
O244 Co243 2.061 . S
O244 C247 1.235 . S
C245 O248 1.238 . S
C245 O249 1.241 . S
C246 O239 1.247 . S
C246 O240 1.261 . S
C247 O242 1.259 . S
C247 O244 1.235 . S
O248 Co238 2.021 . S
O248 C245 1.238 . S
O249 Co243 2.052 . S
O249 C245 1.241 . S
O250 Co238 2.137 . S
O250 C241 1.247 . S
O251 Co238 2.244 . S
O251 C241 1.272 . S
O251 Co243 2.135 . S
Co252 O253 2.216 . S
Co252 O254 2.091 . S
Co252 O256 2.004 . S
Co252 O262 2.021 . S
Co252 O264 2.137 . S
Co252 O265 2.244 . S
O253 Co252 2.216 . S
O253 C260 1.247 . S
O254 Co252 2.091 . S
O254 C260 1.261 . S
C255 O264 1.247 . S
C255 O265 1.272 . S
O256 Co252 2.004 . S
O256 C261 1.259 . S
Co257 O258 2.061 . S
Co257 O263 2.052 . S
Co257 O265 2.135 . S
O258 Co257 2.061 . S
O258 C261 1.235 . S
C259 O262 1.238 . S
C259 O263 1.241 . S
C260 O253 1.247 . S
C260 O254 1.261 . S
C261 O256 1.259 . S
C261 O258 1.235 . S
O262 Co252 2.021 . S
O262 C259 1.238 . S
O263 Co257 2.052 . S
O263 C259 1.241 . S
O264 Co252 2.137 . S
O264 C255 1.247 . S
O265 Co252 2.244 . S
O265 C255 1.272 . S
O265 Co257 2.135 . S
Co266 O267 2.216 . S
Co266 O268 2.091 . S
Co266 O270 2.004 . S
Co266 O276 2.021 . S
Co266 O278 2.137 . S
Co266 O279 2.244 . S
O267 Co266 2.216 . S
O267 C274 1.247 . S
O268 Co266 2.091 . S
O268 C274 1.261 . S
C269 O278 1.247 . S
C269 O279 1.272 . S
O270 Co266 2.004 . S
O270 C275 1.259 . S
Co271 O272 2.061 . S
Co271 O277 2.052 . S
Co271 O279 2.135 . S
O272 Co271 2.061 . S
O272 C275 1.235 . S
C273 O276 1.238 . S
C273 O277 1.241 . S
C274 O267 1.247 . S
C274 O268 1.261 . S
C275 O270 1.259 . S
C275 O272 1.235 . S
O276 Co266 2.021 . S
O276 C273 1.238 . S
O277 Co271 2.052 . S
O277 C273 1.241 . S
O278 Co266 2.137 . S
O278 C269 1.247 . S
O279 Co266 2.244 . S
O279 C269 1.272 . S
O279 Co271 2.135 . S
Co280 O281 2.216 . S
Co280 O282 2.091 . S
Co280 O284 2.004 . S
Co280 O290 2.021 1_556 S
Co280 O292 2.137 . S
Co280 O293 2.244 . S
O281 Co280 2.216 . S
O281 C288 1.246 . S
O282 Co280 2.091 . S
O282 C288 1.261 . S
C283 O292 1.247 . S
C283 O293 1.272 . S
O284 Co280 2.004 . S
O284 C289 1.259 . S
Co285 O286 2.061 . S
Co285 O291 2.052 . S
Co285 O293 2.135 1_554 S
O286 Co285 2.061 . S
O286 C289 1.235 1_554 S
C287 O290 1.238 . S
C287 O291 1.241 . S
C288 O281 1.246 . S
C288 O282 1.261 . S
C289 O284 1.259 . S
C289 O286 1.235 1_556 S
O290 Co280 2.021 1_554 S
O290 C287 1.238 . S
O291 Co285 2.052 . S
O291 C287 1.241 . S
O292 Co280 2.137 . S
O292 C283 1.247 . S
O293 Co280 2.244 . S
O293 C283 1.272 . S
O293 Co285 2.135 1_556 S
Co294 O295 2.216 . S
Co294 O296 2.091 . S
Co294 O298 2.004 . S
Co294 O304 2.021 . S
Co294 O306 2.137 . S
Co294 O307 2.244 . S
O295 Co294 2.216 . S
O295 C302 1.247 . S
O296 Co294 2.091 . S
O296 C302 1.261 . S
C297 O306 1.247 . S
C297 O307 1.272 . S
O298 Co294 2.004 . S
O298 C303 1.259 . S
Co299 O300 2.061 . S
Co299 O305 2.052 . S
Co299 O307 2.135 . S
O300 Co299 2.061 . S
O300 C303 1.235 . S
C301 O304 1.238 . S
C301 O305 1.241 . S
C302 O295 1.247 . S
C302 O296 1.261 . S
C303 O298 1.259 . S
C303 O300 1.235 . S
O304 Co294 2.021 . S
O304 C301 1.238 . S
O305 Co299 2.052 . S
O305 C301 1.241 . S
O306 Co294 2.137 . S
O306 C297 1.247 . S
O307 Co294 2.244 . S
O307 C297 1.272 . S
O307 Co299 2.135 . S
Co308 O309 2.216 . S
Co308 O310 2.091 . S
Co308 O312 2.004 . S
Co308 O318 2.021 . S
Co308 O320 2.137 . S
Co308 O321 2.244 . S
O309 Co308 2.216 . S
O309 C316 1.247 . S
O310 Co308 2.091 . S
O310 C316 1.261 . S
C311 O320 1.247 . S
C311 O321 1.272 . S
O312 Co308 2.004 . S
O312 C317 1.259 . S
Co313 O314 2.061 . S
Co313 O319 2.052 . S
Co313 O321 2.135 . S
O314 Co313 2.061 . S
O314 C317 1.235 . S
C315 O318 1.238 . S
C315 O319 1.241 . S
C316 O309 1.247 . S
C316 O310 1.261 . S
C317 O312 1.259 . S
C317 O314 1.235 . S
O318 Co308 2.021 . S
O318 C315 1.238 . S
O319 Co313 2.052 . S
O319 C315 1.241 . S
O320 Co308 2.137 . S
O320 C311 1.247 . S
O321 Co308 2.244 . S
O321 C311 1.272 . S
O321 Co313 2.135 . S
Co322 O323 2.216 . S
Co322 O324 2.091 . S
Co322 O326 2.004 . S
Co322 O332 2.021 . S
Co322 O334 2.137 . S
Co322 O335 2.244 . S
O323 Co322 2.216 . S
O323 C330 1.247 . S
O324 Co322 2.091 . S
O324 C330 1.261 . S
C325 O334 1.247 . S
C325 O335 1.272 . S
O326 Co322 2.004 . S
O326 C331 1.259 . S
Co327 O328 2.061 . S
Co327 O333 2.052 . S
Co327 O335 2.135 . S
O328 Co327 2.061 . S
O328 C331 1.235 . S
C329 O332 1.238 . S
C329 O333 1.241 . S
C330 O323 1.247 . S
C330 O324 1.261 . S
C331 O326 1.259 . S
C331 O328 1.235 . S
O332 Co322 2.021 . S
O332 C329 1.238 . S
O333 Co327 2.052 . S
O333 C329 1.241 . S
O334 Co322 2.137 . S
O334 C325 1.247 . S
O335 Co322 2.244 . S
O335 C325 1.272 . S
O335 Co327 2.135 . S
Tb336 N367 2.660 1_545 S
Tb336 N374 2.600 1_544 S
Tb336 O380 2.546 1_454 S
Tb336 O381 2.610 . S
Tb336 O383 2.320 . S
Tb336 O384 2.552 . S
Tb336 O385 2.413 1_455 S
Tb336 O387 2.362 . S
Tb336 O388 2.421 1_554 S
Tb336 C400 2.833 1_454 S
C337 C340 1.432 . S
C337 C341 1.414 . S
C337 N344 1.359 . S
C338 C340 1.417 . S
C338 C342 1.432 . S
C338 C350 1.450 . S
C339 C341 1.444 . S
C339 C342 1.317 . S
C339 H362 0.929 . S
C340 C337 1.432 . S
C340 C338 1.417 . S
C340 N348 1.360 . S
C341 C337 1.414 . S
C341 C339 1.444 . S
C341 C346 1.385 . S
C342 C338 1.432 . S
C342 C339 1.317 . S
C342 H354 0.930 . S
C343 C345 1.392 . S
C343 C346 1.370 . S
C343 H355 0.931 . S
N344 C337 1.359 . S
N344 C345 1.327 . S
N344 Tb347 2.600 . S
C345 C343 1.392 . S
C345 N344 1.327 . S
C345 H352 0.930 . S
C346 C341 1.385 . S
C346 C343 1.370 . S
C346 H365 0.930 . S
Tb347 N344 2.600 . S
Tb347 N348 2.660 . S
Tb347 O381 2.362 . S
Tb347 O382 2.421 . S
Tb347 O386 2.546 . S
Tb347 O387 2.610 . S
Tb347 O389 2.320 1_554 S
Tb347 O390 2.552 . S
Tb347 O391 2.413 . S
Tb347 C411 2.833 . S
N348 C340 1.360 . S
N348 Tb347 2.660 . S
N348 C349 1.305 1_554 S
C349 N348 1.305 1_556 S
C349 C351 1.407 . S
C349 H356 0.930 . S
C350 C338 1.450 . S
C350 C351 1.329 1_554 S
C350 H358 0.908 1_554 S
C351 C349 1.407 . S
C351 C350 1.329 1_556 S
C351 H353 0.930 . S
H352 C345 0.930 . S
H353 C351 0.930 . S
H354 C342 0.930 . S
H355 C343 0.931 . S
H356 C349 0.930 . S
H357 C371 0.930 . S
H358 C350 0.908 1_556 S
H359 C377 0.930 . S
H360 C368 0.930 . S
H361 C375 0.931 . S
H362 C339 0.929 . S
H363 C369 0.930 . S
H364 C402 0.930 1_554 S
H365 C346 0.930 . S
H366 C401 0.929 . S
N367 Tb336 2.660 1_565 S
N367 C368 1.305 . S
N367 C372 1.367 . S
C368 H360 0.930 . S
C368 N367 1.305 . S
C368 C371 1.407 . S
C369 H363 0.930 . S
C369 C370 1.410 . S
C369 C371 1.345 1_655 S
C370 C369 1.410 . S
C370 C372 1.409 1_655 S
C370 C402 1.432 1_554 S
C371 H357 0.930 . S
C371 C368 1.407 . S
C371 C369 1.345 1_455 S
C372 N367 1.367 . S
C372 C370 1.409 1_455 S
C372 C376 1.433 1_554 S
H373 C378 0.930 . S
N374 Tb336 2.600 1_566 S
N374 C376 1.363 . S
N374 C377 1.327 . S
C375 H361 0.931 . S
C375 C377 1.383 1_655 S
C375 C378 1.381 . S
C376 C372 1.433 1_556 S
C376 N374 1.363 . S
C376 C379 1.411 1_455 S
C377 H359 0.930 . S
C377 N374 1.327 . S
C377 C375 1.383 1_455 S
C378 H373 0.930 . S
C378 C375 1.381 . S
C378 C379 1.385 . S
C379 C376 1.411 1_655 S
C379 C378 1.385 . S
C379 C401 1.444 . S
O380 Tb336 2.546 1_656 S
O380 C400 1.251 . S
O381 Tb336 2.610 . S
O381 Tb347 2.362 . S
O381 C392 1.283 . S
O382 Tb347 2.421 . S
O382 C399 1.262 . S
O383 Tb336 2.320 . S
O383 C399 1.260 . S
O384 Tb336 2.552 . S
O384 C392 1.243 . S
O385 Tb336 2.413 1_655 S
O385 C400 1.256 1_554 S
O386 Tb347 2.546 . S
O386 C411 1.251 . S
O387 Tb336 2.362 . S
O387 Tb347 2.610 . S
O387 C403 1.283 1_545 S
O388 Tb336 2.421 1_556 S
O388 C410 1.262 . S
O389 Tb347 2.320 1_556 S
O389 C410 1.260 . S
O390 Tb347 2.552 . S
O390 C403 1.243 1_545 S
O391 Tb347 2.413 . S
O391 C411 1.256 . S
C392 O381 1.283 . S
C392 O384 1.243 . S
C393 C395 1.382 1_556 S
C393 C397 1.393 . S
C393 C400 1.500 . S
C394 C395 1.394 1_556 S
C394 C396 1.411 . S
C395 C393 1.382 1_554 S
C395 C394 1.394 1_554 S
C395 H412 0.930 . S
C396 C394 1.411 . S
C396 C398 1.392 . S
C396 H413 0.931 . S
C397 C393 1.393 . S
C397 C398 1.401 . S
C397 H414 0.930 . S
C398 C396 1.392 . S
C398 C397 1.401 . S
C398 H415 0.930 . S
C399 O382 1.262 . S
C399 O383 1.260 . S
C400 Tb336 2.833 1_656 S
C400 O380 1.251 . S
C400 O385 1.256 1_556 S
C400 C393 1.500 . S
C401 H366 0.929 . S
C401 C379 1.444 . S
C401 C402 1.317 . S
C402 H364 0.930 1_556 S
C402 C370 1.432 1_556 S
C402 C401 1.317 . S
C403 O387 1.283 1_565 S
C403 O390 1.243 1_565 S
C404 C405 1.382 . S
C404 C408 1.393 . S
C404 C411 1.500 . S
C405 C404 1.382 . S
C405 C406 1.400 . S
C405 H416 0.930 . S
C406 C405 1.400 . S
C406 C407 1.384 . S
C407 C406 1.384 . S
C407 C409 1.392 . S
C407 H417 0.931 . S
C408 C404 1.393 . S
C408 C409 1.401 . S
C408 H418 0.930 . S
C409 C407 1.392 . S
C409 C408 1.401 . S
C409 H419 0.930 . S
C410 O388 1.262 . S
C410 O389 1.260 . S
C411 Tb347 2.833 . S
C411 O386 1.251 . S
C411 O391 1.256 . S
C411 C404 1.500 . S
H412 C395 0.930 . S
H413 C396 0.931 . S
H414 C397 0.930 . S
H415 C398 0.930 . S
H416 C405 0.930 . S
H417 C407 0.931 . S
H418 C408 0.930 . S
H419 C409 0.930 . S
Tb420 N451 2.660 . S
Tb420 N458 2.600 . S
Tb420 O464 2.546 . S
Tb420 O465 2.610 . S
Tb420 O467 2.320 . S
Tb420 O468 2.552 . S
Tb420 O469 2.413 . S
Tb420 O471 2.362 . S
Tb420 O472 2.421 . S
Tb420 C484 2.833 . S
C421 C424 1.432 . S
C421 C425 1.414 . S
C421 N428 1.359 . S
C422 C424 1.417 . S
C422 C426 1.432 . S
C422 C434 1.410 . S
C423 C425 1.444 . S
C423 C426 1.317 . S
C423 H446 0.929 . S
C424 C421 1.432 . S
C424 C422 1.417 . S
C424 N432 1.360 . S
C425 C421 1.414 . S
C425 C423 1.444 . S
C425 C430 1.385 . S
C426 C422 1.432 . S
C426 C423 1.317 . S
C426 H438 0.930 . S
C427 C429 1.392 . S
C427 C430 1.370 . S
C427 H439 0.931 . S
N428 C421 1.359 . S
N428 C429 1.327 . S
N428 Tb431 2.600 . S
C429 C427 1.392 . S
C429 N428 1.327 . S
C429 H436 0.930 . S
C430 C425 1.385 . S
C430 C427 1.370 . S
C430 H449 0.930 . S
Tb431 N428 2.600 . S
Tb431 N432 2.660 . S
Tb431 O465 2.362 . S
Tb431 O466 2.421 . S
Tb431 O470 2.546 . S
Tb431 O471 2.610 . S
Tb431 O473 2.320 . S
Tb431 O474 2.552 . S
Tb431 O475 2.413 . S
Tb431 C495 2.833 . S
N432 C424 1.360 . S
N432 Tb431 2.660 . S
N432 C433 1.305 . S
C433 N432 1.305 . S
C433 C435 1.407 . S
C433 H440 0.930 . S
C434 C422 1.410 . S
C434 C435 1.345 . S
C434 H442 0.930 . S
C435 C433 1.407 . S
C435 C434 1.345 . S
C435 H437 0.930 . S
H436 C429 0.930 . S
H437 C435 0.930 . S
H438 C426 0.930 . S
H439 C427 0.931 . S
H440 C433 0.930 . S
H441 C455 0.930 . S
H442 C434 0.930 . S
H443 C461 0.930 . S
H444 C452 0.930 . S
H445 C459 0.931 . S
H446 C423 0.929 . S
H447 C453 0.930 . S
H448 C486 0.930 . S
H449 C430 0.930 . S
H450 C485 0.929 . S
N451 Tb420 2.660 . S
N451 C452 1.305 . S
N451 C456 1.360 . S
C452 H444 0.930 . S
C452 N451 1.305 . S
C452 C455 1.407 . S
C453 H447 0.930 . S
C453 C454 1.410 . S
C453 C455 1.345 . S
C454 C453 1.410 . S
C454 C456 1.417 . S
C454 C486 1.432 . S
C455 H441 0.930 . S
C455 C452 1.407 . S
C455 C453 1.345 . S
C456 N451 1.360 . S
C456 C454 1.417 . S
C456 C460 1.432 . S
H457 C462 0.930 . S
N458 Tb420 2.600 . S
N458 C460 1.359 . S
N458 C461 1.327 . S
C459 H445 0.931 . S
C459 C461 1.392 . S
C459 C462 1.370 . S
C460 C456 1.432 . S
C460 N458 1.359 . S
C460 C463 1.414 . S
C461 H443 0.930 . S
C461 N458 1.327 . S
C461 C459 1.392 . S
C462 H457 0.930 . S
C462 C459 1.370 . S
C462 C463 1.385 . S
C463 C460 1.414 . S
C463 C462 1.385 . S
C463 C485 1.444 . S
O464 Tb420 2.546 . S
O464 C484 1.251 . S
O465 Tb420 2.610 . S
O465 Tb431 2.362 . S
O465 C476 1.283 . S
O466 Tb431 2.421 . S
O466 C483 1.262 . S
O467 Tb420 2.320 . S
O467 C483 1.260 . S
O468 Tb420 2.552 . S
O468 C476 1.243 . S
O469 Tb420 2.413 . S
O469 C484 1.256 . S
O470 Tb431 2.546 . S
O470 C495 1.251 . S
O471 Tb420 2.362 . S
O471 Tb431 2.610 . S
O471 C487 1.283 . S
O472 Tb420 2.421 . S
O472 C494 1.262 . S
O473 Tb431 2.320 . S
O473 C494 1.260 . S
O474 Tb431 2.552 . S
O474 C487 1.243 . S
O475 Tb431 2.413 . S
O475 C495 1.256 . S
C476 O465 1.283 . S
C476 O468 1.243 . S
C477 C479 1.382 . S
C477 C481 1.393 . S
C477 C484 1.500 . S
C478 C479 1.400 . S
C478 C480 1.384 . S
C479 C477 1.382 . S
C479 C478 1.400 . S
C479 H496 0.930 . S
C480 C478 1.384 . S
C480 C482 1.392 . S
C480 H497 0.931 . S
C481 C477 1.393 . S
C481 C482 1.401 . S
C481 H498 0.930 . S
C482 C480 1.392 . S
C482 C481 1.401 . S
C482 H499 0.930 . S
C483 O466 1.262 . S
C483 O467 1.260 . S
C484 Tb420 2.833 . S
C484 O464 1.251 . S
C484 O469 1.256 . S
C484 C477 1.500 . S
C485 H450 0.929 . S
C485 C463 1.444 . S
C485 C486 1.317 . S
C486 H448 0.930 . S
C486 C454 1.432 . S
C486 C485 1.317 . S
C487 O471 1.283 . S
C487 O474 1.243 . S
C488 C489 1.382 . S
C488 C492 1.393 . S
C488 C495 1.500 . S
C489 C488 1.382 . S
C489 C490 1.400 . S
C489 H500 0.930 . S
C490 C489 1.400 . S
C490 C491 1.384 . S
C491 C490 1.384 . S
C491 C493 1.392 . S
C491 H501 0.931 . S
C492 C488 1.393 . S
C492 C493 1.401 . S
C492 H502 0.930 . S
C493 C491 1.392 . S
C493 C492 1.401 . S
C493 H503 0.930 . S
C494 O472 1.262 . S
C494 O473 1.260 . S
C495 Tb431 2.833 . S
C495 O470 1.251 . S
C495 O475 1.256 . S
C495 C488 1.500 . S
H496 C479 0.930 . S
H497 C480 0.931 . S
H498 C481 0.930 . S
H499 C482 0.930 . S
H500 C489 0.930 . S
H501 C491 0.931 . S
H502 C492 0.930 . S
H503 C493 0.930 . S
Tb504 N535 2.660 . S
Tb504 N542 2.600 . S
Tb504 O548 2.546 . S
Tb504 O549 2.610 . S
Tb504 O551 2.320 . S
Tb504 O552 2.552 1_545 S
Tb504 O553 2.413 . S
Tb504 O555 2.362 . S
Tb504 O556 2.421 . S
Tb504 C568 2.833 . S
C505 C508 1.432 . S
C505 C509 1.414 . S
C505 N512 1.359 1_565 S
C506 C508 1.417 . S
C506 C510 1.432 . S
C506 C518 1.410 . S
C507 C509 1.444 . S
C507 C510 1.317 . S
C507 H530 0.929 . S
C508 C505 1.432 . S
C508 C506 1.417 . S
C508 N516 1.360 . S
C509 C505 1.414 . S
C509 C507 1.444 . S
C509 C514 1.385 . S
C510 C506 1.432 . S
C510 C507 1.317 . S
C510 H522 0.930 . S
C511 C513 1.385 1_565 S
C511 C514 1.379 . S
C511 H523 0.929 1_565 S
N512 C505 1.359 1_545 S
N512 C513 1.327 . S
N512 Tb515 2.600 . S
C513 C511 1.385 1_545 S
C513 N512 1.327 . S
C513 H520 0.930 . S
C514 C509 1.385 . S
C514 C511 1.379 . S
C514 H533 0.930 . S
Tb515 N512 2.600 . S
Tb515 N516 2.660 1_545 S
Tb515 O549 2.362 . S
Tb515 O550 2.421 . S
Tb515 O554 2.546 . S
Tb515 O555 2.610 . S
Tb515 O557 2.320 . S
Tb515 O558 2.552 . S
Tb515 O559 2.413 . S
Tb515 C579 2.833 . S
N516 C508 1.360 . S
N516 Tb515 2.660 1_565 S
N516 C517 1.305 . S
C517 N516 1.305 . S
C517 C519 1.407 . S
C517 H524 0.930 . S
C518 C506 1.410 . S
C518 C519 1.345 . S
C518 H526 0.930 . S
C519 C517 1.407 . S
C519 C518 1.345 . S
C519 H521 0.930 . S
H520 C513 0.930 . S
H521 C519 0.930 . S
H522 C510 0.930 . S
H523 C511 0.929 1_545 S
H524 C517 0.930 . S
H525 C539 0.930 . S
H526 C518 0.930 . S
H527 C545 0.930 . S
H528 C536 0.930 . S
H529 C543 0.931 . S
H530 C507 0.929 . S
H531 C537 0.930 . S
H532 C570 0.930 . S
H533 C514 0.930 . S
H534 C569 0.929 . S
N535 Tb504 2.660 . S
N535 C536 1.305 . S
N535 C540 1.360 . S
C536 H528 0.930 . S
C536 N535 1.305 . S
C536 C539 1.407 . S
C537 H531 0.930 . S
C537 C538 1.410 . S
C537 C539 1.345 . S
C538 C537 1.410 . S
C538 C540 1.417 . S
C538 C570 1.432 . S
C539 H525 0.930 . S
C539 C536 1.407 . S
C539 C537 1.345 . S
C540 N535 1.360 . S
C540 C538 1.417 . S
C540 C544 1.432 . S
H541 C546 0.930 . S
N542 Tb504 2.600 . S
N542 C544 1.359 . S
N542 C545 1.327 . S
C543 H529 0.931 . S
C543 C545 1.392 . S
C543 C546 1.370 . S
C544 C540 1.432 . S
C544 N542 1.359 . S
C544 C547 1.414 . S
C545 H527 0.930 . S
C545 N542 1.327 . S
C545 C543 1.392 . S
C546 H541 0.930 . S
C546 C543 1.370 . S
C546 C547 1.385 . S
C547 C544 1.414 . S
C547 C546 1.385 . S
C547 C569 1.444 . S
O548 Tb504 2.546 . S
O548 C568 1.251 . S
O549 Tb504 2.610 . S
O549 Tb515 2.362 . S
O549 C560 1.283 1_545 S
O550 Tb515 2.421 . S
O550 C567 1.262 . S
O551 Tb504 2.320 . S
O551 C567 1.260 . S
O552 Tb504 2.552 1_565 S
O552 C560 1.243 . S
O553 Tb504 2.413 . S
O553 C568 1.256 . S
O554 Tb515 2.546 . S
O554 C579 1.251 . S
O555 Tb504 2.362 . S
O555 Tb515 2.610 . S
O555 C571 1.283 . S
O556 Tb504 2.421 . S
O556 C578 1.262 . S
O557 Tb515 2.320 . S
O557 C578 1.260 . S
O558 Tb515 2.552 . S
O558 C571 1.243 . S
O559 Tb515 2.413 . S
O559 C579 1.256 . S
C560 O549 1.283 1_565 S
C560 O552 1.243 . S
C561 C563 1.382 1_545 S
C561 C565 1.393 . S
C561 C568 1.500 . S
C562 C563 1.400 . S
C562 C564 1.384 . S
C563 C561 1.382 1_565 S
C563 C562 1.400 . S
C563 H580 0.930 . S
C564 C562 1.384 . S
C564 C566 1.392 . S
C564 H581 0.931 . S
C565 C561 1.393 . S
C565 C566 1.401 1_545 S
C565 H582 0.930 . S
C566 C564 1.392 . S
C566 C565 1.401 1_565 S
C566 H583 0.930 . S
C567 O550 1.262 . S
C567 O551 1.260 . S
C568 Tb504 2.833 . S
C568 O548 1.251 . S
C568 O553 1.256 . S
C568 C561 1.500 . S
C569 H534 0.929 . S
C569 C547 1.444 . S
C569 C570 1.317 . S
C570 H532 0.930 . S
C570 C538 1.432 . S
C570 C569 1.317 . S
C571 O555 1.283 . S
C571 O558 1.243 . S
C572 C573 1.382 . S
C572 C576 1.393 . S
C572 C579 1.500 . S
C573 C572 1.382 . S
C573 C574 1.400 . S
C573 H584 0.930 . S
C574 C573 1.400 . S
C574 C575 1.384 . S
C575 C574 1.384 . S
C575 C577 1.392 . S
C575 H585 0.931 . S
C576 C572 1.393 . S
C576 C577 1.401 . S
C576 H586 0.930 . S
C577 C575 1.392 . S
C577 C576 1.401 . S
C577 H587 0.930 . S
C578 O556 1.262 . S
C578 O557 1.260 . S
C579 Tb515 2.833 . S
C579 O554 1.251 . S
C579 O559 1.256 . S
C579 C572 1.500 . S
H580 C563 0.930 . S
H581 C564 0.931 . S
H582 C565 0.930 . S
H583 C566 0.930 . S
H584 C573 0.930 . S
H585 C575 0.931 . S
H586 C576 0.930 . S
H587 C577 0.930 . S
Tb588 N619 2.660 . S
Tb588 N626 2.600 . S
Tb588 O632 2.546 . S
Tb588 O633 2.610 . S
Tb588 O635 2.320 . S
Tb588 O636 2.552 . S
Tb588 O637 2.413 . S
Tb588 O639 2.362 . S
Tb588 O640 2.421 . S
Tb588 C652 2.833 . S
C589 C592 1.432 . S
C589 C593 1.414 . S
C589 N596 1.359 . S
C590 C592 1.417 . S
C590 C594 1.432 . S
C590 C602 1.410 . S
C591 C593 1.444 . S
C591 C594 1.317 . S
C591 H614 0.929 . S
C592 C589 1.432 . S
C592 C590 1.417 . S
C592 N600 1.360 . S
C593 C589 1.414 . S
C593 C591 1.444 . S
C593 C598 1.385 . S
C594 C590 1.432 . S
C594 C591 1.317 . S
C594 H606 0.930 . S
C595 C597 1.392 . S
C595 C598 1.370 . S
C595 H607 0.931 . S
N596 C589 1.359 . S
N596 C597 1.327 . S
N596 Tb599 2.600 . S
C597 C595 1.392 . S
C597 N596 1.327 . S
C597 H604 0.930 . S
C598 C593 1.385 . S
C598 C595 1.370 . S
C598 H617 0.930 . S
Tb599 N596 2.600 . S
Tb599 N600 2.660 . S
Tb599 O633 2.362 . S
Tb599 O634 2.421 . S
Tb599 O638 2.546 . S
Tb599 O639 2.610 . S
Tb599 O641 2.320 . S
Tb599 O642 2.552 . S
Tb599 O643 2.413 . S
Tb599 C663 2.833 . S
N600 C592 1.360 . S
N600 Tb599 2.660 . S
N600 C601 1.305 . S
C601 N600 1.305 . S
C601 C603 1.407 . S
C601 H608 0.930 . S
C602 C590 1.410 . S
C602 C603 1.345 . S
C602 H610 0.930 . S
C603 C601 1.407 . S
C603 C602 1.345 . S
C603 H605 0.930 . S
H604 C597 0.930 . S
H605 C603 0.930 . S
H606 C594 0.930 . S
H607 C595 0.931 . S
H608 C601 0.930 . S
H609 C623 0.930 . S
H610 C602 0.930 . S
H611 C629 0.930 . S
H612 C620 0.930 . S
H613 C627 0.931 . S
H614 C591 0.929 . S
H615 C621 0.930 . S
H616 C654 0.930 . S
H617 C598 0.930 . S
H618 C653 0.929 . S
N619 Tb588 2.660 . S
N619 C620 1.305 . S
N619 C624 1.360 . S
C620 H612 0.930 . S
C620 N619 1.305 . S
C620 C623 1.407 . S
C621 H615 0.930 . S
C621 C622 1.410 . S
C621 C623 1.345 . S
C622 C621 1.410 . S
C622 C624 1.417 . S
C622 C654 1.432 . S
C623 H609 0.930 . S
C623 C620 1.407 . S
C623 C621 1.345 . S
C624 N619 1.360 . S
C624 C622 1.417 . S
C624 C628 1.432 . S
H625 C630 0.930 . S
N626 Tb588 2.600 . S
N626 C628 1.359 . S
N626 C629 1.327 . S
C627 H613 0.931 . S
C627 C629 1.392 . S
C627 C630 1.370 . S
C628 C624 1.432 . S
C628 N626 1.359 . S
C628 C631 1.414 . S
C629 H611 0.930 . S
C629 N626 1.327 . S
C629 C627 1.392 . S
C630 H625 0.930 . S
C630 C627 1.370 . S
C630 C631 1.385 . S
C631 C628 1.414 . S
C631 C630 1.385 . S
C631 C653 1.444 . S
O632 Tb588 2.546 . S
O632 C652 1.251 . S
O633 Tb588 2.610 . S
O633 Tb599 2.362 . S
O633 C644 1.283 . S
O634 Tb599 2.421 . S
O634 C651 1.262 . S
O635 Tb588 2.320 . S
O635 C651 1.260 . S
O636 Tb588 2.552 . S
O636 C644 1.243 . S
O637 Tb588 2.413 . S
O637 C652 1.256 . S
O638 Tb599 2.546 . S
O638 C663 1.251 . S
O639 Tb588 2.362 . S
O639 Tb599 2.610 . S
O639 C655 1.283 . S
O640 Tb588 2.421 . S
O640 C662 1.262 . S
O641 Tb599 2.320 . S
O641 C662 1.260 . S
O642 Tb599 2.552 . S
O642 C655 1.243 . S
O643 Tb599 2.413 . S
O643 C663 1.256 . S
C644 O633 1.283 . S
C644 O636 1.243 . S
C645 C647 1.382 . S
C645 C649 1.393 . S
C645 C652 1.500 . S
C646 C647 1.400 . S
C646 C648 1.384 . S
C647 C645 1.382 . S
C647 C646 1.400 . S
C647 H664 0.930 . S
C648 C646 1.384 . S
C648 C650 1.392 . S
C648 H665 0.931 . S
C649 C645 1.393 . S
C649 C650 1.401 . S
C649 H666 0.930 . S
C650 C648 1.392 . S
C650 C649 1.401 . S
C650 H667 0.930 . S
C651 O634 1.262 . S
C651 O635 1.260 . S
C652 Tb588 2.833 . S
C652 O632 1.251 . S
C652 O637 1.256 . S
C652 C645 1.500 . S
C653 H618 0.929 . S
C653 C631 1.444 . S
C653 C654 1.317 . S
C654 H616 0.930 . S
C654 C622 1.432 . S
C654 C653 1.317 . S
C655 O639 1.283 . S
C655 O642 1.243 . S
C656 C657 1.382 . S
C656 C660 1.393 . S
C656 C663 1.500 . S
C657 C656 1.382 . S
C657 C658 1.400 . S
C657 H668 0.930 . S
C658 C657 1.400 . S
C658 C659 1.384 . S
C659 C658 1.384 . S
C659 C661 1.392 . S
C659 H669 0.931 . S
C660 C656 1.393 . S
C660 C661 1.401 . S
C660 H670 0.930 . S
C661 C659 1.392 . S
C661 C660 1.401 . S
C661 H671 0.930 . S
C662 O640 1.262 . S
C662 O641 1.260 . S
C663 Tb599 2.833 . S
C663 O638 1.251 . S
C663 O643 1.256 . S
C663 C656 1.500 . S
H664 C647 0.930 . S
H665 C648 0.931 . S
H666 C649 0.930 . S
H667 C650 0.930 . S
H668 C657 0.930 . S
H669 C659 0.931 . S
H670 C660 0.930 . S
H671 C661 0.930 . S
Tb672 N703 2.660 . S
Tb672 N710 2.600 . S
Tb672 O716 2.546 . S
Tb672 O717 2.610 . S
Tb672 O719 2.320 . S
Tb672 O720 2.552 . S
Tb672 O721 2.413 . S
Tb672 O723 2.362 . S
Tb672 O724 2.421 . S
Tb672 C736 2.833 . S
C673 C676 1.432 . S
C673 C677 1.414 . S
C673 N680 1.359 . S
C674 C676 1.417 . S
C674 C678 1.432 . S
C674 C686 1.410 . S
C675 C677 1.444 . S
C675 C678 1.317 . S
C675 H698 0.929 . S
C676 C673 1.432 . S
C676 C674 1.417 . S
C676 N684 1.360 . S
C677 C673 1.414 . S
C677 C675 1.444 . S
C677 C682 1.385 . S
C678 C674 1.432 . S
C678 C675 1.317 . S
C678 H690 0.930 . S
C679 C681 1.392 . S
C679 C682 1.370 . S
C679 H691 0.931 . S
N680 C673 1.359 . S
N680 C681 1.327 . S
N680 Tb683 2.603 . S
C681 C679 1.392 . S
C681 N680 1.327 . S
C681 H688 0.930 . S
C682 C677 1.385 . S
C682 C679 1.370 . S
C682 H701 0.930 . S
Tb683 N680 2.603 . S
Tb683 N684 2.662 . S
Tb683 O717 2.351 1_565 S
Tb683 O718 2.414 1_565 S
Tb683 O722 2.556 . S
Tb683 O723 2.602 1_565 S
Tb683 O725 2.320 . S
Tb683 O726 2.554 1_565 S
Tb683 O727 2.425 . S
Tb683 C747 2.845 . S
N684 C676 1.360 . S
N684 Tb683 2.662 . S
N684 C685 1.305 . S
C685 N684 1.305 . S
C685 C687 1.407 . S
C685 H692 0.930 . S
C686 C674 1.410 . S
C686 C687 1.345 . S
C686 H694 0.930 1_455 S
C687 C685 1.407 . S
C687 C686 1.345 . S
C687 H689 0.931 1_455 S
H688 C681 0.930 . S
H689 C687 0.931 1_655 S
H690 C678 0.930 . S
H691 C679 0.931 . S
H692 C685 0.930 . S
H693 C707 0.930 . S
H694 C686 0.930 1_655 S
H695 C713 0.930 . S
H696 C704 0.930 . S
H697 C711 0.931 1_655 S
H698 C675 0.929 . S
H699 C705 0.930 . S
H700 C738 0.930 . S
H701 C682 0.930 . S
H702 C737 0.929 . S
N703 Tb672 2.660 . S
N703 C704 1.305 . S
N703 C708 1.360 . S
C704 H696 0.930 . S
C704 N703 1.305 . S
C704 C707 1.407 . S
C705 H699 0.930 . S
C705 C706 1.410 . S
C705 C707 1.345 . S
C706 C705 1.410 . S
C706 C708 1.417 . S
C706 C738 1.432 . S
C707 H693 0.930 . S
C707 C704 1.407 . S
C707 C705 1.345 . S
C708 N703 1.360 . S
C708 C706 1.417 . S
C708 C712 1.432 . S
H709 C714 0.930 . S
N710 Tb672 2.600 . S
N710 C712 1.359 . S
N710 C713 1.327 . S
C711 H697 0.931 1_455 S
C711 C713 1.392 . S
C711 C714 1.370 . S
C712 C708 1.432 . S
C712 N710 1.359 . S
C712 C715 1.414 . S
C713 H695 0.930 . S
C713 N710 1.327 . S
C713 C711 1.392 . S
C714 H709 0.930 . S
C714 C711 1.370 . S
C714 C715 1.385 . S
C715 C712 1.414 . S
C715 C714 1.385 . S
C715 C737 1.444 . S
O716 Tb672 2.546 . S
O716 C736 1.251 . S
O717 Tb672 2.610 . S
O717 Tb683 2.351 1_545 S
O717 C728 1.283 . S
O718 Tb683 2.414 1_545 S
O718 C735 1.262 . S
O719 Tb672 2.320 . S
O719 C735 1.260 . S
O720 Tb672 2.552 . S
O720 C728 1.243 . S
O721 Tb672 2.413 . S
O721 C736 1.256 . S
O722 Tb683 2.556 . S
O722 C747 1.251 . S
O723 Tb672 2.362 . S
O723 Tb683 2.602 1_545 S
O723 C739 1.283 . S
O724 Tb672 2.421 . S
O724 C746 1.262 . S
O725 Tb683 2.320 . S
O725 C746 1.250 1_565 S
O726 Tb683 2.554 1_545 S
O726 C739 1.243 . S
O727 Tb683 2.425 . S
O727 C747 1.256 . S
C728 O717 1.283 . S
C728 O720 1.243 . S
C729 C731 1.382 . S
C729 C733 1.393 . S
C729 C736 1.500 . S
C730 C731 1.400 . S
C730 C732 1.384 . S
C731 C729 1.382 . S
C731 C730 1.400 . S
C731 H748 0.930 . S
C732 C730 1.384 . S
C732 C734 1.392 . S
C732 H749 0.931 . S
C733 C729 1.393 . S
C733 C734 1.401 . S
C733 H750 0.930 . S
C734 C732 1.392 . S
C734 C733 1.401 . S
C734 H751 0.930 . S
C735 O718 1.262 . S
C735 O719 1.260 . S
C736 Tb672 2.833 . S
C736 O716 1.251 . S
C736 O721 1.256 . S
C736 C729 1.500 . S
C737 H702 0.929 . S
C737 C715 1.444 . S
C737 C738 1.317 . S
C738 H700 0.930 . S
C738 C706 1.432 . S
C738 C737 1.317 . S
C739 O723 1.283 . S
C739 O726 1.243 . S
C740 C741 1.382 . S
C740 C744 1.393 . S
C740 C747 1.500 . S
C741 C740 1.382 . S
C741 C742 1.400 . S
C741 H752 0.930 . S
C742 C741 1.400 . S
C742 C743 1.384 . S
C743 C742 1.384 . S
C743 C745 1.392 . S
C743 H753 0.931 . S
C744 C740 1.393 . S
C744 C745 1.401 . S
C744 H754 0.930 . S
C745 C743 1.392 . S
C745 C744 1.401 . S
C745 H755 0.930 . S
C746 O724 1.262 . S
C746 O725 1.250 1_545 S
C747 Tb683 2.845 . S
C747 O722 1.251 . S
C747 O727 1.256 . S
C747 C740 1.500 . S
H748 C731 0.930 . S
H749 C732 0.931 . S
H750 C733 0.930 . S
H751 C734 0.930 . S
H752 C741 0.930 . S
H753 C743 0.931 . S
H754 C744 0.930 . S
H755 C745 0.930 . S
Tb756 N787 2.660 . S
Tb756 N794 2.600 . S
Tb756 O800 2.546 . S
Tb756 O801 2.610 . S
Tb756 O803 2.320 . S
Tb756 O804 2.552 . S
Tb756 O805 2.413 . S
Tb756 O807 2.362 . S
Tb756 O808 2.421 . S
Tb756 C820 2.833 . S
C757 C760 1.432 . S
C757 C761 1.414 . S
C757 N764 1.359 . S
C758 C760 1.417 . S
C758 C762 1.432 . S
C758 C770 1.410 . S
C759 C761 1.444 . S
C759 C762 1.317 . S
C759 H782 0.929 . S
C760 C757 1.432 . S
C760 C758 1.417 . S
C760 N768 1.360 . S
C761 C757 1.414 . S
C761 C759 1.444 . S
C761 C766 1.385 . S
C762 C758 1.432 . S
C762 C759 1.317 . S
C762 H774 0.930 . S
C763 C765 1.392 . S
C763 C766 1.370 . S
C763 H775 0.931 . S
N764 C757 1.359 . S
N764 C765 1.327 . S
N764 Tb767 2.600 . S
C765 C763 1.392 . S
C765 N764 1.327 . S
C765 H772 0.930 . S
C766 C761 1.385 . S
C766 C763 1.370 . S
C766 H785 0.930 . S
Tb767 N764 2.600 . S
Tb767 N768 2.660 . S
Tb767 O801 2.362 . S
Tb767 O802 2.421 . S
Tb767 O806 2.546 . S
Tb767 O807 2.610 . S
Tb767 O809 2.320 . S
Tb767 O810 2.552 . S
Tb767 O811 2.413 . S
Tb767 C831 2.833 . S
N768 C760 1.360 . S
N768 Tb767 2.660 . S
N768 C769 1.305 . S
C769 N768 1.305 . S
C769 C771 1.407 . S
C769 H776 0.930 . S
C770 C758 1.410 . S
C770 C771 1.345 . S
C770 H778 0.930 . S
C771 C769 1.407 . S
C771 C770 1.345 . S
C771 H773 0.930 . S
H772 C765 0.930 . S
H773 C771 0.930 . S
H774 C762 0.930 . S
H775 C763 0.931 . S
H776 C769 0.930 . S
H777 C791 0.930 . S
H778 C770 0.930 . S
H779 C797 0.930 . S
H780 C788 0.930 . S
H781 C795 0.931 . S
H782 C759 0.929 . S
H783 C789 0.930 . S
H784 C822 0.930 . S
H785 C766 0.930 . S
H786 C821 0.929 . S
N787 Tb756 2.660 . S
N787 C788 1.305 . S
N787 C792 1.360 . S
C788 H780 0.930 . S
C788 N787 1.305 . S
C788 C791 1.407 . S
C789 H783 0.930 . S
C789 C790 1.410 . S
C789 C791 1.345 . S
C790 C789 1.410 . S
C790 C792 1.417 . S
C790 C822 1.432 . S
C791 H777 0.930 . S
C791 C788 1.407 . S
C791 C789 1.345 . S
C792 N787 1.360 . S
C792 C790 1.417 . S
C792 C796 1.432 . S
H793 C798 0.930 . S
N794 Tb756 2.600 . S
N794 C796 1.359 . S
N794 C797 1.327 . S
C795 H781 0.931 . S
C795 C797 1.392 . S
C795 C798 1.370 . S
C796 C792 1.432 . S
C796 N794 1.359 . S
C796 C799 1.414 . S
C797 H779 0.930 . S
C797 N794 1.327 . S
C797 C795 1.392 . S
C798 H793 0.930 . S
C798 C795 1.370 . S
C798 C799 1.385 . S
C799 C796 1.414 . S
C799 C798 1.385 . S
C799 C821 1.444 . S
O800 Tb756 2.546 . S
O800 C820 1.251 . S
O801 Tb756 2.610 . S
O801 Tb767 2.362 . S
O801 C812 1.283 . S
O802 Tb767 2.421 . S
O802 C819 1.262 . S
O803 Tb756 2.320 . S
O803 C819 1.260 . S
O804 Tb756 2.552 . S
O804 C812 1.243 . S
O805 Tb756 2.413 . S
O805 C820 1.256 . S
O806 Tb767 2.546 . S
O806 C831 1.251 . S
O807 Tb756 2.362 . S
O807 Tb767 2.610 . S
O807 C823 1.283 . S
O808 Tb756 2.421 . S
O808 C830 1.262 . S
O809 Tb767 2.320 . S
O809 C830 1.260 . S
O810 Tb767 2.552 . S
O810 C823 1.243 . S
O811 Tb767 2.413 . S
O811 C831 1.256 . S
C812 O801 1.283 . S
C812 O804 1.243 . S
C813 C815 1.382 . S
C813 C817 1.393 . S
C813 C820 1.500 . S
C814 C815 1.400 . S
C814 C816 1.384 . S
C815 C813 1.382 . S
C815 C814 1.400 . S
C815 H832 0.930 . S
C816 C814 1.384 . S
C816 C818 1.392 . S
C816 H833 0.931 . S
C817 C813 1.393 . S
C817 C818 1.401 . S
C817 H834 0.930 . S
C818 C816 1.392 . S
C818 C817 1.401 . S
C818 H835 0.930 . S
C819 O802 1.262 . S
C819 O803 1.260 . S
C820 Tb756 2.833 . S
C820 O800 1.251 . S
C820 O805 1.256 . S
C820 C813 1.500 . S
C821 H786 0.929 . S
C821 C799 1.444 . S
C821 C822 1.317 . S
C822 H784 0.930 . S
C822 C790 1.432 . S
C822 C821 1.317 . S
C823 O807 1.283 . S
C823 O810 1.243 . S
C824 C825 1.382 . S
C824 C828 1.393 . S
C824 C831 1.500 . S
C825 C824 1.382 . S
C825 C826 1.400 . S
C825 H836 0.930 . S
C826 C825 1.400 . S
C826 C827 1.384 . S
C827 C826 1.384 . S
C827 C829 1.392 . S
C827 H837 0.931 . S
C828 C824 1.393 . S
C828 C829 1.401 . S
C828 H838 0.930 . S
C829 C827 1.392 . S
C829 C828 1.401 . S
C829 H839 0.930 . S
C830 O808 1.262 . S
C830 O809 1.260 . S
C831 Tb767 2.833 . S
C831 O806 1.251 . S
C831 O811 1.256 . S
C831 C824 1.500 . S
H832 C815 0.930 . S
H833 C816 0.931 . S
H834 C817 0.930 . S
H835 C818 0.930 . S
H836 C825 0.930 . S
H837 C827 0.931 . S
H838 C828 0.930 . S
H839 C829 0.930 . S
Tb840 N871 2.660 . S
Tb840 N878 2.600 . S
Tb840 O884 2.546 1_545 S
Tb840 O885 2.610 . S
Tb840 O887 2.320 . S
Tb840 O888 2.552 . S
Tb840 O889 2.413 . S
Tb840 O891 2.362 . S
Tb840 O892 2.421 1_545 S
Tb840 C904 2.833 . S
C841 C844 1.432 . S
C841 C845 1.414 . S
C841 N848 1.359 . S
C842 C844 1.417 . S
C842 C846 1.432 . S
C842 C854 1.410 1_545 S
C843 C845 1.444 . S
C843 C846 1.317 . S
C843 H866 0.929 . S
C844 C841 1.432 . S
C844 C842 1.417 . S
C844 N852 1.360 . S
C845 C841 1.414 . S
C845 C843 1.444 . S
C845 C850 1.385 . S
C846 C842 1.432 . S
C846 C843 1.317 . S
C846 H858 0.930 . S
C847 C849 1.392 . S
C847 C850 1.370 . S
C847 H859 0.931 . S
N848 C841 1.359 . S
N848 C849 1.327 . S
N848 Tb851 2.600 . S
C849 C847 1.392 . S
C849 N848 1.327 . S
C849 H856 0.930 . S
C850 C845 1.385 . S
C850 C847 1.370 . S
C850 H869 0.930 . S
Tb851 N848 2.600 . S
Tb851 N852 2.660 . S
Tb851 O885 2.362 1_556 S
Tb851 O886 2.421 1_556 S
Tb851 O890 2.546 . S
Tb851 O891 2.610 1_556 S
Tb851 O893 2.320 . S
Tb851 O894 2.552 . S
Tb851 O895 2.413 . S
Tb851 C915 2.833 . S
N852 C844 1.360 . S
N852 Tb851 2.660 . S
N852 C853 1.305 1_545 S
C853 N852 1.305 1_565 S
C853 C855 1.407 . S
C853 H860 0.930 . S
C854 C842 1.410 1_565 S
C854 C855 1.345 . S
C854 H862 0.930 . S
C855 C853 1.407 . S
C855 C854 1.345 . S
C855 H857 0.930 . S
H856 C849 0.930 . S
H857 C855 0.930 . S
H858 C846 0.930 . S
H859 C847 0.931 . S
H860 C853 0.930 . S
H861 C875 0.930 . S
H862 C854 0.930 . S
H863 C881 0.930 . S
H864 C872 0.930 . S
H865 C879 0.931 . S
H866 C843 0.929 . S
H867 C873 0.930 . S
H868 C906 0.930 . S
H869 C850 0.930 . S
H870 C905 0.929 . S
N871 Tb840 2.660 . S
N871 C872 1.305 . S
N871 C876 1.360 . S
C872 H864 0.930 . S
C872 N871 1.305 . S
C872 C875 1.407 . S
C873 H867 0.930 . S
C873 C874 1.410 . S
C873 C875 1.345 . S
C874 C873 1.410 . S
C874 C876 1.417 . S
C874 C906 1.432 . S
C875 H861 0.930 . S
C875 C872 1.407 . S
C875 C873 1.345 . S
C876 N871 1.360 . S
C876 C874 1.417 . S
C876 C880 1.432 . S
H877 C882 0.930 . S
N878 Tb840 2.600 . S
N878 C880 1.359 . S
N878 C881 1.327 1_545 S
C879 H865 0.931 . S
C879 C881 1.392 . S
C879 C882 1.370 . S
C880 C876 1.432 . S
C880 N878 1.359 . S
C880 C883 1.414 . S
C881 H863 0.930 . S
C881 N878 1.327 1_565 S
C881 C879 1.392 . S
C882 H877 0.930 . S
C882 C879 1.370 . S
C882 C883 1.385 1_565 S
C883 C880 1.414 . S
C883 C882 1.385 1_545 S
C883 C905 1.444 . S
O884 Tb840 2.546 1_565 S
O884 C904 1.251 1_565 S
O885 Tb840 2.610 . S
O885 Tb851 2.362 1_554 S
O885 C896 1.283 . S
O886 Tb851 2.421 1_554 S
O886 C903 1.262 . S
O887 Tb840 2.320 . S
O887 C903 1.260 . S
O888 Tb840 2.552 . S
O888 C896 1.243 . S
O889 Tb840 2.413 . S
O889 C904 1.256 . S
O890 Tb851 2.546 . S
O890 C915 1.251 . S
O891 Tb840 2.362 . S
O891 Tb851 2.610 1_554 S
O891 C907 1.283 . S
O892 Tb840 2.421 1_565 S
O892 C914 1.262 1_554 S
O893 Tb851 2.320 . S
O893 C914 1.260 1_545 S
O894 Tb851 2.552 . S
O894 C907 1.243 1_556 S
O895 Tb851 2.413 . S
O895 C915 1.256 . S
C896 O885 1.283 . S
C896 O888 1.243 . S
C897 C899 1.382 . S
C897 C901 1.393 1_545 S
C897 C904 1.500 . S
C898 C899 1.400 . S
C898 C900 1.384 1_545 S
C899 C897 1.382 . S
C899 C898 1.400 . S
C899 H916 0.930 . S
C900 C898 1.384 1_565 S
C900 C902 1.392 . S
C900 H917 0.931 . S
C901 C897 1.393 1_565 S
C901 C902 1.401 . S
C901 H918 0.930 . S
C902 C900 1.392 . S
C902 C901 1.401 . S
C902 H919 0.930 . S
C903 O886 1.262 . S
C903 O887 1.260 . S
C904 Tb840 2.833 . S
C904 O884 1.251 1_545 S
C904 O889 1.256 . S
C904 C897 1.500 . S
C905 H870 0.929 . S
C905 C883 1.444 . S
C905 C906 1.317 . S
C906 H868 0.930 . S
C906 C874 1.432 . S
C906 C905 1.317 . S
C907 O891 1.283 . S
C907 O894 1.243 1_554 S
C908 C909 1.382 . S
C908 C912 1.393 . S
C908 C915 1.500 . S
C909 C908 1.382 . S
C909 C910 1.400 . S
C909 H920 0.930 . S
C910 C909 1.400 . S
C910 C911 1.384 . S
C911 C910 1.384 . S
C911 C913 1.392 . S
C911 H921 0.931 . S
C912 C908 1.393 . S
C912 C913 1.401 . S
C912 H922 0.930 . S
C913 C911 1.392 . S
C913 C912 1.401 . S
C913 H923 0.930 . S
C914 O892 1.262 1_556 S
C914 O893 1.260 1_565 S
C915 Tb851 2.833 . S
C915 O890 1.251 . S
C915 O895 1.256 . S
C915 C908 1.500 . S
H916 C899 0.930 . S
H917 C900 0.931 . S
H918 C901 0.930 . S
H919 C902 0.930 . S
H920 C909 0.930 . S
H921 C911 0.931 . S
H922 C912 0.930 . S
H923 C913 0.930 . S
Tb924 N955 2.660 . S
Tb924 N962 2.600 . S
Tb924 O968 2.546 . S
Tb924 O969 2.610 . S
Tb924 O971 2.320 . S
Tb924 O972 2.552 . S
Tb924 O973 2.413 . S
Tb924 O975 2.362 . S
Tb924 O976 2.421 . S
Tb924 C988 2.833 . S
C925 C928 1.432 . S
C925 C929 1.414 . S
C925 N932 1.359 . S
C926 C928 1.417 . S
C926 C930 1.432 . S
C926 C938 1.410 . S
C927 C929 1.444 . S
C927 C930 1.317 . S
C927 H950 0.929 . S
C928 C925 1.432 . S
C928 C926 1.417 . S
C928 N936 1.360 . S
C929 C925 1.414 . S
C929 C927 1.444 . S
C929 C934 1.385 . S
C930 C926 1.432 . S
C930 C927 1.317 . S
C930 H942 0.930 . S
C931 C933 1.392 . S
C931 C934 1.370 . S
C931 H943 0.931 . S
N932 C925 1.359 . S
N932 C933 1.327 . S
N932 Tb935 2.600 . S
C933 C931 1.392 . S
C933 N932 1.327 . S
C933 H940 0.930 . S
C934 C929 1.385 . S
C934 C931 1.370 . S
C934 H953 0.930 . S
Tb935 N932 2.600 . S
Tb935 N936 2.660 . S
Tb935 O969 2.362 . S
Tb935 O970 2.421 . S
Tb935 O974 2.546 . S
Tb935 O975 2.610 . S
Tb935 O977 2.320 . S
Tb935 O978 2.552 . S
Tb935 O979 2.413 . S
Tb935 C999 2.833 . S
N936 C928 1.360 . S
N936 Tb935 2.660 . S
N936 C937 1.305 . S
C937 N936 1.305 . S
C937 C939 1.407 . S
C937 H944 0.930 . S
C938 C926 1.410 . S
C938 C939 1.345 . S
C938 H946 0.930 . S
C939 C937 1.407 . S
C939 C938 1.345 . S
C939 H941 0.930 . S
H940 C933 0.930 . S
H941 C939 0.930 . S
H942 C930 0.930 . S
H943 C931 0.931 . S
H944 C937 0.930 . S
H945 C959 0.930 . S
H946 C938 0.930 . S
H947 C965 0.930 . S
H948 C956 0.930 . S
H949 C963 0.931 . S
H950 C927 0.929 . S
H951 C957 0.930 . S
H952 C990 0.930 . S
H953 C934 0.930 . S
H954 C989 0.929 . S
N955 Tb924 2.660 . S
N955 C956 1.305 . S
N955 C960 1.360 . S
C956 H948 0.930 . S
C956 N955 1.305 . S
C956 C959 1.407 . S
C957 H951 0.930 . S
C957 C958 1.410 . S
C957 C959 1.345 . S
C958 C957 1.410 . S
C958 C960 1.417 . S
C958 C990 1.432 . S
C959 H945 0.930 . S
C959 C956 1.407 . S
C959 C957 1.345 . S
C960 N955 1.360 . S
C960 C958 1.417 . S
C960 C964 1.432 . S
H961 C966 0.930 . S
N962 Tb924 2.600 . S
N962 C964 1.359 . S
N962 C965 1.327 . S
C963 H949 0.931 . S
C963 C965 1.392 . S
C963 C966 1.370 . S
C964 C960 1.432 . S
C964 N962 1.359 . S
C964 C967 1.414 . S
C965 H947 0.930 . S
C965 N962 1.327 . S
C965 C963 1.392 . S
C966 H961 0.930 . S
C966 C963 1.370 . S
C966 C967 1.385 . S
C967 C964 1.414 . S
C967 C966 1.385 . S
C967 C989 1.444 . S
O968 Tb924 2.546 . S
O968 C988 1.251 . S
O969 Tb924 2.610 . S
O969 Tb935 2.362 . S
O969 C980 1.283 . S
O970 Tb935 2.421 . S
O970 C987 1.262 . S
O971 Tb924 2.320 . S
O971 C987 1.260 . S
O972 Tb924 2.552 . S
O972 C980 1.243 . S
O973 Tb924 2.413 . S
O973 C988 1.256 . S
O974 Tb935 2.546 . S
O974 C999 1.251 . S
O975 Tb924 2.362 . S
O975 Tb935 2.610 . S
O975 C991 1.283 . S
O976 Tb924 2.421 . S
O976 C998 1.262 . S
O977 Tb935 2.320 . S
O977 C998 1.260 . S
O978 Tb935 2.552 . S
O978 C991 1.243 . S
O979 Tb935 2.413 . S
O979 C999 1.256 . S
C980 O969 1.283 . S
C980 O972 1.243 . S
C981 C983 1.382 . S
C981 C985 1.393 . S
C981 C988 1.500 . S
C982 C983 1.400 . S
C982 C984 1.384 . S
C983 C981 1.382 . S
C983 C982 1.400 . S
C983 H1000 0.930 . S
C984 C982 1.384 . S
C984 C986 1.392 . S
C984 H1001 0.931 . S
C985 C981 1.393 . S
C985 C986 1.401 . S
C985 H1002 0.930 . S
C986 C984 1.392 . S
C986 C985 1.401 . S
C986 H1003 0.930 . S
C987 O970 1.262 . S
C987 O971 1.260 . S
C988 Tb924 2.833 . S
C988 O968 1.251 . S
C988 O973 1.256 . S
C988 C981 1.500 . S
C989 H954 0.929 . S
C989 C967 1.444 . S
C989 C990 1.317 . S
C990 H952 0.930 . S
C990 C958 1.432 . S
C990 C989 1.317 . S
C991 O975 1.283 . S
C991 O978 1.243 . S
C992 C993 1.382 . S
C992 C996 1.393 . S
C992 C999 1.500 . S
C993 C992 1.382 . S
C993 C994 1.400 . S
C993 H1004 0.930 . S
C994 C993 1.400 . S
C994 C995 1.384 . S
C995 C994 1.384 . S
C995 C997 1.392 . S
C995 H1005 0.931 . S
C996 C992 1.393 . S
C996 C997 1.401 . S
C996 H1006 0.930 . S
C997 C995 1.392 . S
C997 C996 1.401 . S
C997 H1007 0.930 . S
C998 O976 1.262 . S
C998 O977 1.260 . S
C999 Tb935 2.833 . S
C999 O974 1.251 . S
C999 O979 1.256 . S
C999 C992 1.500 . S
H1000 C983 0.930 . S
H1001 C984 0.931 . S
H1002 C985 0.930 . S
H1003 C986 0.930 . S
H1004 C993 0.930 . S
H1005 C995 0.931 . S
H1006 C996 0.930 . S
H1007 C997 0.930 . S
Tb1008 N1039 2.660 . S
Tb1008 N1046 2.600 . S
Tb1008 O1052 2.546 . S
Tb1008 O1053 2.610 1_554 S
Tb1008 O1055 2.320 . S
Tb1008 O1056 2.552 1_554 S
Tb1008 O1057 2.413 . S
Tb1008 O1059 2.362 . S
Tb1008 O1060 2.421 . S
Tb1008 C1072 2.833 . S
C1009 C1012 1.432 . S
C1009 C1013 1.414 . S
C1009 N1016 1.359 . S
C1010 C1012 1.417 . S
C1010 C1014 1.432 . S
C1010 C1022 1.410 . S
C1011 C1013 1.444 . S
C1011 C1014 1.317 . S
C1011 H1034 0.929 . S
C1012 C1009 1.432 . S
C1012 C1010 1.417 . S
C1012 N1020 1.360 . S
C1013 C1009 1.414 . S
C1013 C1011 1.444 . S
C1013 C1018 1.385 . S
C1014 C1010 1.432 . S
C1014 C1011 1.317 . S
C1014 H1026 0.930 . S
C1015 C1017 1.392 . S
C1015 C1018 1.370 . S
C1015 H1027 0.931 . S
N1016 C1009 1.359 . S
N1016 C1017 1.327 . S
N1016 Tb1019 2.600 1_556 S
C1017 C1015 1.392 . S
C1017 N1016 1.327 . S
C1017 H1024 0.930 . S
C1018 C1013 1.385 . S
C1018 C1015 1.370 . S
C1018 H1037 0.930 . S
Tb1019 N1016 2.600 1_554 S
Tb1019 N1020 2.660 1_554 S
Tb1019 O1053 2.362 1_554 S
Tb1019 O1054 2.421 . S
Tb1019 O1058 2.546 . S
Tb1019 O1059 2.610 . S
Tb1019 O1061 2.320 . S
Tb1019 O1062 2.552 . S
Tb1019 O1063 2.413 . S
Tb1019 C1083 2.833 . S
N1020 C1012 1.360 . S
N1020 Tb1019 2.660 1_556 S
N1020 C1021 1.305 . S
C1021 N1020 1.305 . S
C1021 C1023 1.407 . S
C1021 H1028 0.930 . S
C1022 C1010 1.410 . S
C1022 C1023 1.345 . S
C1022 H1030 0.930 . S
C1023 C1021 1.407 . S
C1023 C1022 1.345 . S
C1023 H1025 0.930 . S
H1024 C1017 0.930 . S
H1025 C1023 0.930 . S
H1026 C1014 0.930 . S
H1027 C1015 0.931 . S
H1028 C1021 0.930 . S
H1029 C1043 0.930 . S
H1030 C1022 0.930 . S
H1031 C1049 0.930 . S
H1032 C1040 0.930 . S
H1033 C1047 0.931 . S
H1034 C1011 0.929 . S
H1035 C1041 0.930 . S
H1036 C1074 0.930 . S
H1037 C1018 0.930 . S
H1038 C1073 0.929 . S
N1039 Tb1008 2.660 . S
N1039 C1040 1.305 . S
N1039 C1044 1.360 . S
C1040 H1032 0.930 . S
C1040 N1039 1.305 . S
C1040 C1043 1.407 . S
C1041 H1035 0.930 . S
C1041 C1042 1.410 . S
C1041 C1043 1.345 . S
C1042 C1041 1.410 . S
C1042 C1044 1.417 . S
C1042 C1074 1.432 . S
C1043 H1029 0.930 . S
C1043 C1040 1.407 . S
C1043 C1041 1.345 . S
C1044 N1039 1.360 . S
C1044 C1042 1.417 . S
C1044 C1048 1.432 . S
H1045 C1050 0.930 . S
N1046 Tb1008 2.600 . S
N1046 C1048 1.359 . S
N1046 C1049 1.327 . S
C1047 H1033 0.931 . S
C1047 C1049 1.392 . S
C1047 C1050 1.370 . S
C1048 C1044 1.432 . S
C1048 N1046 1.359 . S
C1048 C1051 1.414 . S
C1049 H1031 0.930 . S
C1049 N1046 1.327 . S
C1049 C1047 1.392 . S
C1050 H1045 0.930 . S
C1050 C1047 1.370 . S
C1050 C1051 1.385 . S
C1051 C1048 1.414 . S
C1051 C1050 1.385 . S
C1051 C1073 1.444 . S
O1052 Tb1008 2.546 . S
O1052 C1072 1.251 . S
O1053 Tb1008 2.610 1_556 S
O1053 Tb1019 2.362 1_556 S
O1053 C1064 1.283 . S
O1054 Tb1019 2.421 . S
O1054 C1071 1.262 . S
O1055 Tb1008 2.320 . S
O1055 C1071 1.260 . S
O1056 Tb1008 2.552 1_556 S
O1056 C1064 1.243 . S
O1057 Tb1008 2.413 . S
O1057 C1072 1.256 . S
O1058 Tb1019 2.546 . S
O1058 C1083 1.251 . S
O1059 Tb1008 2.362 . S
O1059 Tb1019 2.610 . S
O1059 C1075 1.283 . S
O1060 Tb1008 2.421 . S
O1060 C1082 1.262 . S
O1061 Tb1019 2.320 . S
O1061 C1082 1.260 . S
O1062 Tb1019 2.552 . S
O1062 C1075 1.243 . S
O1063 Tb1019 2.413 . S
O1063 C1083 1.256 . S
C1064 O1053 1.283 . S
C1064 O1056 1.243 . S
C1065 C1067 1.382 . S
C1065 C1069 1.393 . S
C1065 C1072 1.500 . S
C1066 C1067 1.400 1_556 S
C1066 C1068 1.384 1_556 S
C1067 C1065 1.382 . S
C1067 C1066 1.400 1_554 S
C1067 H1084 0.930 1_554 S
C1068 C1066 1.384 1_554 S
C1068 C1070 1.392 . S
C1068 H1085 0.931 1_554 S
C1069 C1065 1.393 . S
C1069 C1070 1.401 . S
C1069 H1086 0.930 . S
C1070 C1068 1.392 . S
C1070 C1069 1.401 . S
C1070 H1087 0.930 . S
C1071 O1054 1.262 . S
C1071 O1055 1.260 . S
C1072 Tb1008 2.833 . S
C1072 O1052 1.251 . S
C1072 O1057 1.256 . S
C1072 C1065 1.500 . S
C1073 H1038 0.929 . S
C1073 C1051 1.444 . S
C1073 C1074 1.317 . S
C1074 H1036 0.930 . S
C1074 C1042 1.432 . S
C1074 C1073 1.317 . S
C1075 O1059 1.283 . S
C1075 O1062 1.243 . S
C1076 C1077 1.382 . S
C1076 C1080 1.393 . S
C1076 C1083 1.500 . S
C1077 C1076 1.382 . S
C1077 C1078 1.400 . S
C1077 H1088 0.930 . S
C1078 C1077 1.400 . S
C1078 C1079 1.384 . S
C1079 C1078 1.384 . S
C1079 C1081 1.392 . S
C1079 H1089 0.931 . S
C1080 C1076 1.393 . S
C1080 C1081 1.401 . S
C1080 H1090 0.930 . S
C1081 C1079 1.392 . S
C1081 C1080 1.401 . S
C1081 H1091 0.930 . S
C1082 O1060 1.262 . S
C1082 O1061 1.260 . S
C1083 Tb1019 2.833 . S
C1083 O1058 1.251 . S
C1083 O1063 1.256 . S
C1083 C1076 1.500 . S
H1084 C1067 0.930 1_556 S
H1085 C1068 0.931 1_556 S
H1086 C1069 0.930 . S
H1087 C1070 0.930 . S
H1088 C1077 0.930 . S
H1089 C1079 0.931 . S
H1090 C1080 0.930 . S
H1091 C1081 0.930 . S
Tb1092 N1123 2.660 . S
Tb1092 N1130 2.600 . S
Tb1092 O1136 2.546 . S
Tb1092 O1137 2.610 . S
Tb1092 O1139 2.320 . S
Tb1092 O1140 2.552 . S
Tb1092 O1141 2.413 . S
Tb1092 O1143 2.362 . S
Tb1092 O1144 2.421 . S
Tb1092 C1156 2.833 . S
C1093 C1096 1.432 . S
C1093 C1097 1.414 . S
C1093 N1100 1.359 . S
C1094 C1096 1.417 . S
C1094 C1098 1.432 . S
C1094 C1106 1.410 . S
C1095 C1097 1.444 . S
C1095 C1098 1.317 . S
C1095 H1118 0.929 . S
C1096 C1093 1.432 . S
C1096 C1094 1.417 . S
C1096 N1104 1.360 . S
C1097 C1093 1.414 . S
C1097 C1095 1.444 . S
C1097 C1102 1.385 . S
C1098 C1094 1.432 . S
C1098 C1095 1.317 . S
C1098 H1110 0.930 . S
C1099 C1101 1.392 . S
C1099 C1102 1.370 . S
C1099 H1111 0.931 . S
N1100 C1093 1.359 . S
N1100 C1101 1.327 . S
N1100 Tb1103 2.600 . S
C1101 C1099 1.392 . S
C1101 N1100 1.327 . S
C1101 H1108 0.930 . S
C1102 C1097 1.385 . S
C1102 C1099 1.370 . S
C1102 H1121 0.930 . S
Tb1103 N1100 2.600 . S
Tb1103 N1104 2.660 . S
Tb1103 O1137 2.362 . S
Tb1103 O1138 2.421 . S
Tb1103 O1142 2.546 . S
Tb1103 O1143 2.610 . S
Tb1103 O1145 2.320 . S
Tb1103 O1146 2.552 . S
Tb1103 O1147 2.413 . S
Tb1103 C1167 2.833 . S
N1104 C1096 1.360 . S
N1104 Tb1103 2.660 . S
N1104 C1105 1.305 . S
C1105 N1104 1.305 . S
C1105 C1107 1.407 . S
C1105 H1112 0.930 . S
C1106 C1094 1.410 . S
C1106 C1107 1.345 . S
C1106 H1114 0.930 . S
C1107 C1105 1.407 . S
C1107 C1106 1.345 . S
C1107 H1109 0.930 . S
H1108 C1101 0.930 . S
H1109 C1107 0.930 . S
H1110 C1098 0.930 . S
H1111 C1099 0.931 . S
H1112 C1105 0.930 . S
H1113 C1127 0.930 . S
H1114 C1106 0.930 . S
H1115 C1133 0.930 . S
H1116 C1124 0.930 . S
H1117 C1131 0.931 . S
H1118 C1095 0.929 . S
H1119 C1125 0.930 . S
H1120 C1158 0.930 . S
H1121 C1102 0.930 . S
H1122 C1157 0.929 . S
N1123 Tb1092 2.660 . S
N1123 C1124 1.305 . S
N1123 C1128 1.360 . S
C1124 H1116 0.930 . S
C1124 N1123 1.305 . S
C1124 C1127 1.407 . S
C1125 H1119 0.930 . S
C1125 C1126 1.410 . S
C1125 C1127 1.345 . S
C1126 C1125 1.410 . S
C1126 C1128 1.417 . S
C1126 C1158 1.432 . S
C1127 H1113 0.930 . S
C1127 C1124 1.407 . S
C1127 C1125 1.345 . S
C1128 N1123 1.360 . S
C1128 C1126 1.417 . S
C1128 C1132 1.432 . S
H1129 C1134 0.930 . S
N1130 Tb1092 2.600 . S
N1130 C1132 1.359 . S
N1130 C1133 1.327 . S
C1131 H1117 0.931 . S
C1131 C1133 1.392 . S
C1131 C1134 1.370 . S
C1132 C1128 1.432 . S
C1132 N1130 1.359 . S
C1132 C1135 1.414 . S
C1133 H1115 0.930 . S
C1133 N1130 1.327 . S
C1133 C1131 1.392 . S
C1134 H1129 0.930 . S
C1134 C1131 1.370 . S
C1134 C1135 1.385 . S
C1135 C1132 1.414 . S
C1135 C1134 1.385 . S
C1135 C1157 1.444 . S
O1136 Tb1092 2.546 . S
O1136 C1156 1.251 . S
O1137 Tb1092 2.610 . S
O1137 Tb1103 2.362 . S
O1137 C1148 1.283 . S
O1138 Tb1103 2.421 . S
O1138 C1155 1.262 . S
O1139 Tb1092 2.320 . S
O1139 C1155 1.260 . S
O1140 Tb1092 2.552 . S
O1140 C1148 1.243 . S
O1141 Tb1092 2.413 . S
O1141 C1156 1.256 . S
O1142 Tb1103 2.546 . S
O1142 C1167 1.251 . S
O1143 Tb1092 2.362 . S
O1143 Tb1103 2.610 . S
O1143 C1159 1.283 . S
O1144 Tb1092 2.421 . S
O1144 C1166 1.262 . S
O1145 Tb1103 2.320 . S
O1145 C1166 1.260 . S
O1146 Tb1103 2.552 . S
O1146 C1159 1.243 . S
O1147 Tb1103 2.413 . S
O1147 C1167 1.256 . S
C1148 O1137 1.283 . S
C1148 O1140 1.243 . S
C1149 C1151 1.382 . S
C1149 C1153 1.393 . S
C1149 C1156 1.500 . S
C1150 C1151 1.400 . S
C1150 C1152 1.384 . S
C1151 C1149 1.382 . S
C1151 C1150 1.400 . S
C1151 H1168 0.930 . S
C1152 C1150 1.384 . S
C1152 C1154 1.392 . S
C1152 H1169 0.931 . S
C1153 C1149 1.393 . S
C1153 C1154 1.401 . S
C1153 H1170 0.930 . S
C1154 C1152 1.392 . S
C1154 C1153 1.401 . S
C1154 H1171 0.930 . S
C1155 O1138 1.262 . S
C1155 O1139 1.260 . S
C1156 Tb1092 2.833 . S
C1156 O1136 1.251 . S
C1156 O1141 1.256 . S
C1156 C1149 1.500 . S
C1157 H1122 0.929 . S
C1157 C1135 1.444 . S
C1157 C1158 1.317 . S
C1158 H1120 0.930 . S
C1158 C1126 1.432 . S
C1158 C1157 1.317 . S
C1159 O1143 1.283 . S
C1159 O1146 1.243 . S
C1160 C1161 1.382 . S
C1160 C1164 1.393 . S
C1160 C1167 1.500 . S
C1161 C1160 1.382 . S
C1161 C1162 1.400 . S
C1161 H1172 0.930 . S
C1162 C1161 1.400 . S
C1162 C1163 1.384 . S
C1163 C1162 1.384 . S
C1163 C1165 1.392 . S
C1163 H1173 0.931 . S
C1164 C1160 1.393 . S
C1164 C1165 1.401 . S
C1164 H1174 0.930 . S
C1165 C1163 1.392 . S
C1165 C1164 1.401 . S
C1165 H1175 0.930 . S
C1166 O1144 1.262 . S
C1166 O1145 1.260 . S
C1167 Tb1103 2.833 . S
C1167 O1142 1.251 . S
C1167 O1147 1.256 . S
C1167 C1160 1.500 . S
H1168 C1151 0.930 . S
H1169 C1152 0.931 . S
H1170 C1153 0.930 . S
H1171 C1154 0.930 . S
H1172 C1161 0.930 . S
H1173 C1163 0.931 . S
H1174 C1164 0.930 . S
H1175 C1165 0.930 . S
Tb1176 N1207 2.660 . S
Tb1176 N1214 2.600 . S
Tb1176 O1220 2.546 . S
Tb1176 O1221 2.610 . S
Tb1176 O1223 2.320 . S
Tb1176 O1224 2.552 . S
Tb1176 O1225 2.413 . S
Tb1176 O1227 2.362 . S
Tb1176 O1228 2.421 . S
Tb1176 C1240 2.833 . S
C1177 C1180 1.429 . S
C1177 C1181 1.414 1_455 S
C1177 N1184 1.359 . S
C1178 C1180 1.400 1_655 S
C1178 C1182 1.432 . S
C1178 C1190 1.410 . S
C1179 C1181 1.444 . S
C1179 C1182 1.317 . S
C1179 H1202 0.929 . S
C1180 C1177 1.429 . S
C1180 C1178 1.400 1_455 S
C1180 N1188 1.380 . S
C1181 C1177 1.414 1_655 S
C1181 C1179 1.444 . S
C1181 C1186 1.385 . S
C1182 C1178 1.432 . S
C1182 C1179 1.317 . S
C1182 H1194 0.930 . S
C1183 C1185 1.392 . S
C1183 C1186 1.370 1_455 S
C1183 H1195 0.931 . S
N1184 C1177 1.359 . S
N1184 C1185 1.327 . S
N1184 Tb1187 2.600 . S
C1185 C1183 1.392 . S
C1185 N1184 1.327 . S
C1185 H1192 0.930 . S
C1186 C1181 1.385 . S
C1186 C1183 1.370 1_655 S
C1186 H1205 0.930 . S
Tb1187 N1184 2.600 . S
Tb1187 N1188 2.660 . S
Tb1187 O1221 2.362 . S
Tb1187 O1222 2.421 . S
Tb1187 O1226 2.546 . S
Tb1187 O1227 2.610 . S
Tb1187 O1229 2.320 . S
Tb1187 O1230 2.552 . S
Tb1187 O1231 2.413 . S
Tb1187 C1251 2.833 . S
N1188 C1180 1.380 . S
N1188 Tb1187 2.660 . S
N1188 C1189 1.305 . S
C1189 N1188 1.305 . S
C1189 C1191 1.407 1_455 S
C1189 H1196 0.930 . S
C1190 C1178 1.410 . S
C1190 C1191 1.345 . S
C1190 H1198 0.930 . S
C1191 C1189 1.407 1_655 S
C1191 C1190 1.345 . S
C1191 H1193 0.930 . S
H1192 C1185 0.930 . S
H1193 C1191 0.930 . S
H1194 C1182 0.930 . S
H1195 C1183 0.931 . S
H1196 C1189 0.930 . S
H1197 C1211 0.930 . S
H1198 C1190 0.930 . S
H1199 C1217 0.930 . S
H1200 C1208 0.930 . S
H1201 C1215 0.931 . S
H1202 C1179 0.929 . S
H1203 C1209 0.930 . S
H1204 C1242 0.930 . S
H1205 C1186 0.930 . S
H1206 C1241 0.929 . S
N1207 Tb1176 2.660 . S
N1207 C1208 1.305 . S
N1207 C1212 1.360 . S
C1208 H1200 0.930 . S
C1208 N1207 1.305 . S
C1208 C1211 1.407 . S
C1209 H1203 0.930 . S
C1209 C1210 1.410 . S
C1209 C1211 1.345 . S
C1210 C1209 1.410 . S
C1210 C1212 1.417 . S
C1210 C1242 1.432 . S
C1211 H1197 0.930 . S
C1211 C1208 1.407 . S
C1211 C1209 1.345 . S
C1212 N1207 1.360 . S
C1212 C1210 1.417 . S
C1212 C1216 1.432 . S
H1213 C1218 0.930 . S
N1214 Tb1176 2.600 . S
N1214 C1216 1.359 . S
N1214 C1217 1.327 . S
C1215 H1201 0.931 . S
C1215 C1217 1.392 . S
C1215 C1218 1.370 . S
C1216 C1212 1.432 . S
C1216 N1214 1.359 . S
C1216 C1219 1.414 . S
C1217 H1199 0.930 . S
C1217 N1214 1.327 . S
C1217 C1215 1.392 . S
C1218 H1213 0.930 . S
C1218 C1215 1.370 . S
C1218 C1219 1.385 . S
C1219 C1216 1.414 . S
C1219 C1218 1.385 . S
C1219 C1241 1.444 . S
O1220 Tb1176 2.546 . S
O1220 C1240 1.251 . S
O1221 Tb1176 2.610 . S
O1221 Tb1187 2.362 . S
O1221 C1232 1.283 . S
O1222 Tb1187 2.421 . S
O1222 C1239 1.262 . S
O1223 Tb1176 2.320 . S
O1223 C1239 1.260 . S
O1224 Tb1176 2.552 . S
O1224 C1232 1.243 . S
O1225 Tb1176 2.413 . S
O1225 C1240 1.256 . S
O1226 Tb1187 2.546 . S
O1226 C1251 1.251 . S
O1227 Tb1176 2.362 . S
O1227 Tb1187 2.610 . S
O1227 C1243 1.283 . S
O1228 Tb1176 2.421 . S
O1228 C1250 1.262 . S
O1229 Tb1187 2.320 . S
O1229 C1250 1.260 . S
O1230 Tb1187 2.552 . S
O1230 C1243 1.243 . S
O1231 Tb1187 2.413 . S
O1231 C1251 1.256 . S
C1232 O1221 1.283 . S
C1232 O1224 1.243 . S
C1233 C1235 1.382 . S
C1233 C1237 1.393 . S
C1233 C1240 1.500 . S
C1234 C1235 1.400 . S
C1234 C1236 1.384 . S
C1235 C1233 1.382 . S
C1235 C1234 1.400 . S
C1235 H1252 0.930 . S
C1236 C1234 1.384 . S
C1236 C1238 1.392 . S
C1236 H1253 0.931 . S
C1237 C1233 1.393 . S
C1237 C1238 1.401 . S
C1237 H1254 0.930 . S
C1238 C1236 1.392 . S
C1238 C1237 1.401 . S
C1238 H1255 0.930 . S
C1239 O1222 1.262 . S
C1239 O1223 1.260 . S
C1240 Tb1176 2.833 . S
C1240 O1220 1.251 . S
C1240 O1225 1.256 . S
C1240 C1233 1.500 . S
C1241 H1206 0.929 . S
C1241 C1219 1.444 . S
C1241 C1242 1.317 . S
C1242 H1204 0.930 . S
C1242 C1210 1.432 . S
C1242 C1241 1.317 . S
C1243 O1227 1.283 . S
C1243 O1230 1.243 . S
C1244 C1245 1.382 . S
C1244 C1248 1.393 . S
C1244 C1251 1.500 . S
C1245 C1244 1.382 . S
C1245 C1246 1.400 . S
C1245 H1256 0.930 . S
C1246 C1245 1.400 . S
C1246 C1247 1.384 . S
C1247 C1246 1.384 . S
C1247 C1249 1.392 . S
C1247 H1257 0.931 . S
C1248 C1244 1.393 . S
C1248 C1249 1.401 . S
C1248 H1258 0.930 . S
C1249 C1247 1.392 . S
C1249 C1248 1.401 . S
C1249 H1259 0.930 . S
C1250 O1228 1.262 . S
C1250 O1229 1.260 . S
C1251 Tb1187 2.833 . S
C1251 O1226 1.251 . S
C1251 O1231 1.256 . S
C1251 C1244 1.500 . S
H1252 C1235 0.930 . S
H1253 C1236 0.931 . S
H1254 C1237 0.930 . S
H1255 C1238 0.930 . S
H1256 C1245 0.930 . S
H1257 C1247 0.931 . S
H1258 C1248 0.930 . S
H1259 C1249 0.930 . S
Tb1260 N1291 2.660 . S
Tb1260 N1298 2.600 . S
Tb1260 O1304 2.546 . S
Tb1260 O1305 2.610 . S
Tb1260 O1307 2.320 . S
Tb1260 O1308 2.552 . S
Tb1260 O1309 2.413 . S
Tb1260 O1311 2.362 . S
Tb1260 O1312 2.421 . S
Tb1260 C1324 2.833 . S
C1261 C1264 1.432 . S
C1261 C1265 1.414 . S
C1261 N1268 1.359 . S
C1262 C1264 1.417 . S
C1262 C1266 1.432 . S
C1262 C1274 1.410 . S
C1263 C1265 1.444 . S
C1263 C1266 1.317 . S
C1263 H1286 0.929 . S
C1264 C1261 1.432 . S
C1264 C1262 1.417 . S
C1264 N1272 1.360 . S
C1265 C1261 1.414 . S
C1265 C1263 1.444 . S
C1265 C1270 1.385 . S
C1266 C1262 1.432 . S
C1266 C1263 1.317 . S
C1266 H1278 0.930 . S
C1267 C1269 1.392 . S
C1267 C1270 1.370 . S
C1267 H1279 0.931 . S
N1268 C1261 1.359 . S
N1268 C1269 1.327 . S
N1268 Tb1271 2.600 . S
C1269 C1267 1.392 . S
C1269 N1268 1.327 . S
C1269 H1276 0.930 . S
C1270 C1265 1.385 . S
C1270 C1267 1.370 . S
C1270 H1289 0.930 . S
Tb1271 N1268 2.600 . S
Tb1271 N1272 2.660 . S
Tb1271 O1305 2.362 . S
Tb1271 O1306 2.421 . S
Tb1271 O1310 2.546 . S
Tb1271 O1311 2.610 . S
Tb1271 O1313 2.320 . S
Tb1271 O1314 2.552 . S
Tb1271 O1315 2.413 . S
Tb1271 C1335 2.833 . S
N1272 C1264 1.360 . S
N1272 Tb1271 2.660 . S
N1272 C1273 1.305 . S
C1273 N1272 1.305 . S
C1273 C1275 1.407 . S
C1273 H1280 0.930 . S
C1274 C1262 1.410 . S
C1274 C1275 1.345 . S
C1274 H1282 0.930 . S
C1275 C1273 1.407 . S
C1275 C1274 1.345 . S
C1275 H1277 0.930 . S
H1276 C1269 0.930 . S
H1277 C1275 0.930 . S
H1278 C1266 0.930 . S
H1279 C1267 0.931 . S
H1280 C1273 0.930 . S
H1281 C1295 0.930 . S
H1282 C1274 0.930 . S
H1283 C1301 0.930 . S
H1284 C1292 0.930 . S
H1285 C1299 0.931 . S
H1286 C1263 0.929 . S
H1287 C1293 0.930 . S
H1288 C1326 0.930 . S
H1289 C1270 0.930 . S
H1290 C1325 0.929 . S
N1291 Tb1260 2.660 . S
N1291 C1292 1.305 . S
N1291 C1296 1.360 . S
C1292 H1284 0.930 . S
C1292 N1291 1.305 . S
C1292 C1295 1.407 . S
C1293 H1287 0.930 . S
C1293 C1294 1.410 . S
C1293 C1295 1.345 . S
C1294 C1293 1.410 . S
C1294 C1296 1.417 . S
C1294 C1326 1.432 . S
C1295 H1281 0.930 . S
C1295 C1292 1.407 . S
C1295 C1293 1.345 . S
C1296 N1291 1.360 . S
C1296 C1294 1.417 . S
C1296 C1300 1.432 . S
H1297 C1302 0.930 . S
N1298 Tb1260 2.600 . S
N1298 C1300 1.359 . S
N1298 C1301 1.327 . S
C1299 H1285 0.931 . S
C1299 C1301 1.392 . S
C1299 C1302 1.370 . S
C1300 C1296 1.432 . S
C1300 N1298 1.359 . S
C1300 C1303 1.414 . S
C1301 H1283 0.930 . S
C1301 N1298 1.327 . S
C1301 C1299 1.392 . S
C1302 H1297 0.930 . S
C1302 C1299 1.370 . S
C1302 C1303 1.385 . S
C1303 C1300 1.414 . S
C1303 C1302 1.385 . S
C1303 C1325 1.444 . S
O1304 Tb1260 2.546 . S
O1304 C1324 1.251 . S
O1305 Tb1260 2.610 . S
O1305 Tb1271 2.362 . S
O1305 C1316 1.283 . S
O1306 Tb1271 2.421 . S
O1306 C1323 1.262 . S
O1307 Tb1260 2.320 . S
O1307 C1323 1.260 . S
O1308 Tb1260 2.552 . S
O1308 C1316 1.243 . S
O1309 Tb1260 2.413 . S
O1309 C1324 1.256 . S
O1310 Tb1271 2.546 . S
O1310 C1335 1.251 . S
O1311 Tb1260 2.362 . S
O1311 Tb1271 2.610 . S
O1311 C1327 1.283 . S
O1312 Tb1260 2.421 . S
O1312 C1334 1.262 . S
O1313 Tb1271 2.320 . S
O1313 C1334 1.260 . S
O1314 Tb1271 2.552 . S
O1314 C1327 1.243 . S
O1315 Tb1271 2.413 . S
O1315 C1335 1.256 . S
C1316 O1305 1.283 . S
C1316 O1308 1.243 . S
C1317 C1319 1.382 . S
C1317 C1321 1.393 . S
C1317 C1324 1.500 . S
C1318 C1319 1.400 . S
C1318 C1320 1.384 . S
C1319 C1317 1.382 . S
C1319 C1318 1.400 . S
C1319 H1336 0.930 . S
C1320 C1318 1.384 . S
C1320 C1322 1.392 . S
C1320 H1337 0.931 . S
C1321 C1317 1.393 . S
C1321 C1322 1.401 . S
C1321 H1338 0.930 . S
C1322 C1320 1.392 . S
C1322 C1321 1.401 . S
C1322 H1339 0.930 . S
C1323 O1306 1.262 . S
C1323 O1307 1.260 . S
C1324 Tb1260 2.833 . S
C1324 O1304 1.251 . S
C1324 O1309 1.256 . S
C1324 C1317 1.500 . S
C1325 H1290 0.929 . S
C1325 C1303 1.444 . S
C1325 C1326 1.317 . S
C1326 H1288 0.930 . S
C1326 C1294 1.432 . S
C1326 C1325 1.317 . S
C1327 O1311 1.283 . S
C1327 O1314 1.243 . S
C1328 C1329 1.382 . S
C1328 C1332 1.393 . S
C1328 C1335 1.500 . S
C1329 C1328 1.382 . S
C1329 C1330 1.400 . S
C1329 H1340 0.930 . S
C1330 C1329 1.400 . S
C1330 C1331 1.384 . S
C1331 C1330 1.384 . S
C1331 C1333 1.392 . S
C1331 H1341 0.931 . S
C1332 C1328 1.393 . S
C1332 C1333 1.401 . S
C1332 H1342 0.930 . S
C1333 C1331 1.392 . S
C1333 C1332 1.401 . S
C1333 H1343 0.930 . S
C1334 O1312 1.262 . S
C1334 O1313 1.260 . S
C1335 Tb1271 2.833 . S
C1335 O1310 1.251 . S
C1335 O1315 1.256 . S
C1335 C1328 1.500 . S
H1336 C1319 0.930 . S
H1337 C1320 0.931 . S
H1338 C1321 0.930 . S
H1339 C1322 0.930 . S
H1340 C1329 0.930 . S
H1341 C1331 0.931 . S
H1342 C1332 0.930 . S
H1343 C1333 0.930 . S
Tb1344 N1375 2.660 . S
Tb1344 N1382 2.600 . S
Tb1344 O1388 2.546 . S
Tb1344 O1389 2.610 . S
Tb1344 O1391 2.320 . S
Tb1344 O1392 2.552 . S
Tb1344 O1393 2.413 . S
Tb1344 O1395 2.362 . S
Tb1344 O1396 2.421 . S
Tb1344 C1408 2.833 . S
C1345 C1348 1.432 . S
C1345 C1349 1.414 . S
C1345 N1352 1.359 . S
C1346 C1348 1.417 . S
C1346 C1350 1.432 . S
C1346 C1358 1.410 . S
C1347 C1349 1.444 . S
C1347 C1350 1.317 . S
C1347 H1370 0.929 . S
C1348 C1345 1.432 . S
C1348 C1346 1.417 . S
C1348 N1356 1.360 . S
C1349 C1345 1.414 . S
C1349 C1347 1.444 . S
C1349 C1354 1.385 . S
C1350 C1346 1.432 . S
C1350 C1347 1.317 . S
C1350 H1362 0.930 . S
C1351 C1353 1.392 . S
C1351 C1354 1.370 . S
C1351 H1363 0.931 . S
N1352 C1345 1.359 . S
N1352 C1353 1.327 . S
N1352 Tb1355 2.600 . S
C1353 C1351 1.392 . S
C1353 N1352 1.327 . S
C1353 H1360 0.930 . S
C1354 C1349 1.385 . S
C1354 C1351 1.370 . S
C1354 H1373 0.930 . S
Tb1355 N1352 2.600 . S
Tb1355 N1356 2.660 . S
Tb1355 O1389 2.362 . S
Tb1355 O1390 2.421 . S
Tb1355 O1394 2.546 . S
Tb1355 O1395 2.610 . S
Tb1355 O1397 2.320 . S
Tb1355 O1398 2.552 . S
Tb1355 O1399 2.413 . S
Tb1355 C1419 2.833 . S
N1356 C1348 1.360 . S
N1356 Tb1355 2.660 . S
N1356 C1357 1.305 . S
C1357 N1356 1.305 . S
C1357 C1359 1.407 . S
C1357 H1364 0.930 . S
C1358 C1346 1.410 . S
C1358 C1359 1.345 . S
C1358 H1366 0.930 . S
C1359 C1357 1.407 . S
C1359 C1358 1.345 . S
C1359 H1361 0.930 . S
H1360 C1353 0.930 . S
H1361 C1359 0.930 . S
H1362 C1350 0.930 . S
H1363 C1351 0.931 . S
H1364 C1357 0.930 . S
H1365 C1379 0.930 . S
H1366 C1358 0.930 . S
H1367 C1385 0.930 . S
H1368 C1376 0.930 . S
H1369 C1383 0.931 . S
H1370 C1347 0.929 . S
H1371 C1377 0.930 . S
H1372 C1410 0.930 . S
H1373 C1354 0.930 . S
H1374 C1409 0.929 . S
N1375 Tb1344 2.660 . S
N1375 C1376 1.305 . S
N1375 C1380 1.360 . S
C1376 H1368 0.930 . S
C1376 N1375 1.305 . S
C1376 C1379 1.407 . S
C1377 H1371 0.930 . S
C1377 C1378 1.410 . S
C1377 C1379 1.345 . S
C1378 C1377 1.410 . S
C1378 C1380 1.417 . S
C1378 C1410 1.432 . S
C1379 H1365 0.930 . S
C1379 C1376 1.407 . S
C1379 C1377 1.345 . S
C1380 N1375 1.360 . S
C1380 C1378 1.417 . S
C1380 C1384 1.432 . S
H1381 C1386 0.930 . S
N1382 Tb1344 2.600 . S
N1382 C1384 1.359 . S
N1382 C1385 1.327 . S
C1383 H1369 0.931 . S
C1383 C1385 1.392 . S
C1383 C1386 1.370 . S
C1384 C1380 1.432 . S
C1384 N1382 1.359 . S
C1384 C1387 1.414 . S
C1385 H1367 0.930 . S
C1385 N1382 1.327 . S
C1385 C1383 1.392 . S
C1386 H1381 0.930 . S
C1386 C1383 1.370 . S
C1386 C1387 1.385 . S
C1387 C1384 1.414 . S
C1387 C1386 1.385 . S
C1387 C1409 1.444 . S
O1388 Tb1344 2.546 . S
O1388 C1408 1.251 . S
O1389 Tb1344 2.610 . S
O1389 Tb1355 2.362 . S
O1389 C1400 1.283 . S
O1390 Tb1355 2.421 . S
O1390 C1407 1.262 . S
O1391 Tb1344 2.320 . S
O1391 C1407 1.260 . S
O1392 Tb1344 2.552 . S
O1392 C1400 1.243 . S
O1393 Tb1344 2.413 . S
O1393 C1408 1.256 . S
O1394 Tb1355 2.546 . S
O1394 C1419 1.251 . S
O1395 Tb1344 2.362 . S
O1395 Tb1355 2.610 . S
O1395 C1411 1.283 . S
O1396 Tb1344 2.421 . S
O1396 C1418 1.262 . S
O1397 Tb1355 2.320 . S
O1397 C1418 1.260 . S
O1398 Tb1355 2.552 . S
O1398 C1411 1.243 . S
O1399 Tb1355 2.413 . S
O1399 C1419 1.256 . S
C1400 O1389 1.283 . S
C1400 O1392 1.243 . S
C1401 C1403 1.382 . S
C1401 C1405 1.393 . S
C1401 C1408 1.500 . S
C1402 C1403 1.400 . S
C1402 C1404 1.384 . S
C1403 C1401 1.382 . S
C1403 C1402 1.400 . S
C1403 H1420 0.930 . S
C1404 C1402 1.384 . S
C1404 C1406 1.392 . S
C1404 H1421 0.931 . S
C1405 C1401 1.393 . S
C1405 C1406 1.401 . S
C1405 H1422 0.930 . S
C1406 C1404 1.392 . S
C1406 C1405 1.401 . S
C1406 H1423 0.930 . S
C1407 O1390 1.262 . S
C1407 O1391 1.260 . S
C1408 Tb1344 2.833 . S
C1408 O1388 1.251 . S
C1408 O1393 1.256 . S
C1408 C1401 1.500 . S
C1409 H1374 0.929 . S
C1409 C1387 1.444 . S
C1409 C1410 1.317 . S
C1410 H1372 0.930 . S
C1410 C1378 1.432 . S
C1410 C1409 1.317 . S
C1411 O1395 1.283 . S
C1411 O1398 1.243 . S
C1412 C1413 1.382 . S
C1412 C1416 1.393 . S
C1412 C1419 1.500 . S
C1413 C1412 1.382 . S
C1413 C1414 1.400 . S
C1413 H1424 0.930 . S
C1414 C1413 1.400 . S
C1414 C1415 1.384 . S
C1415 C1414 1.384 . S
C1415 C1417 1.392 . S
C1415 H1425 0.931 . S
C1416 C1412 1.393 . S
C1416 C1417 1.401 . S
C1416 H1426 0.930 . S
C1417 C1415 1.392 . S
C1417 C1416 1.401 . S
C1417 H1427 0.930 . S
C1418 O1396 1.262 . S
C1418 O1397 1.260 . S
C1419 Tb1355 2.833 . S
C1419 O1394 1.251 . S
C1419 O1399 1.256 . S
C1419 C1412 1.500 . S
H1420 C1403 0.930 . S
H1421 C1404 0.931 . S
H1422 C1405 0.930 . S
H1423 C1406 0.930 . S
H1424 C1413 0.930 . S
H1425 C1415 0.931 . S
H1426 C1416 0.930 . S
H1427 C1417 0.930 . S
Tb1428 N1459 2.660 . S
Tb1428 N1466 2.600 . S
Tb1428 O1472 2.546 . S
Tb1428 O1473 2.610 . S
Tb1428 O1475 2.320 . S
Tb1428 O1476 2.552 . S
Tb1428 O1477 2.413 . S
Tb1428 O1479 2.362 . S
Tb1428 O1480 2.421 . S
Tb1428 C1492 2.833 . S
C1429 C1432 1.432 . S
C1429 C1433 1.414 . S
C1429 N1436 1.359 . S
C1430 C1432 1.417 . S
C1430 C1434 1.432 . S
C1430 C1442 1.410 . S
C1431 C1433 1.444 . S
C1431 C1434 1.317 . S
C1431 H1454 0.929 . S
C1432 C1429 1.432 . S
C1432 C1430 1.417 . S
C1432 N1440 1.360 . S
C1433 C1429 1.414 . S
C1433 C1431 1.444 . S
C1433 C1438 1.385 . S
C1434 C1430 1.432 . S
C1434 C1431 1.317 . S
C1434 H1446 0.930 . S
C1435 C1437 1.392 . S
C1435 C1438 1.370 . S
C1435 H1447 0.931 . S
N1436 C1429 1.359 . S
N1436 C1437 1.327 . S
N1436 Tb1439 2.600 . S
C1437 C1435 1.392 . S
C1437 N1436 1.327 . S
C1437 H1444 0.930 . S
C1438 C1433 1.385 . S
C1438 C1435 1.370 . S
C1438 H1457 0.930 . S
Tb1439 N1436 2.600 . S
Tb1439 N1440 2.660 . S
Tb1439 O1473 2.362 . S
Tb1439 O1474 2.421 . S
Tb1439 O1478 2.546 . S
Tb1439 O1479 2.610 . S
Tb1439 O1481 2.320 . S
Tb1439 O1482 2.552 . S
Tb1439 O1483 2.413 . S
Tb1439 C1503 2.833 . S
N1440 C1432 1.360 . S
N1440 Tb1439 2.660 . S
N1440 C1441 1.305 . S
C1441 N1440 1.305 . S
C1441 C1443 1.407 . S
C1441 H1448 0.930 . S
C1442 C1430 1.410 . S
C1442 C1443 1.345 . S
C1442 H1450 0.930 . S
C1443 C1441 1.407 . S
C1443 C1442 1.345 . S
C1443 H1445 0.930 . S
H1444 C1437 0.930 . S
H1445 C1443 0.930 . S
H1446 C1434 0.930 . S
H1447 C1435 0.931 . S
H1448 C1441 0.930 . S
H1449 C1463 0.930 . S
H1450 C1442 0.930 . S
H1451 C1469 0.930 . S
H1452 C1460 0.930 . S
H1453 C1467 0.931 . S
H1454 C1431 0.929 . S
H1455 C1461 0.930 . S
H1456 C1494 0.930 . S
H1457 C1438 0.930 . S
H1458 C1493 0.929 . S
N1459 Tb1428 2.660 . S
N1459 C1460 1.305 . S
N1459 C1464 1.360 . S
C1460 H1452 0.930 . S
C1460 N1459 1.305 . S
C1460 C1463 1.407 . S
C1461 H1455 0.930 . S
C1461 C1462 1.410 . S
C1461 C1463 1.345 . S
C1462 C1461 1.410 . S
C1462 C1464 1.417 . S
C1462 C1494 1.432 . S
C1463 H1449 0.930 . S
C1463 C1460 1.407 . S
C1463 C1461 1.345 . S
C1464 N1459 1.360 . S
C1464 C1462 1.417 . S
C1464 C1468 1.432 . S
H1465 C1470 0.930 . S
N1466 Tb1428 2.600 . S
N1466 C1468 1.359 . S
N1466 C1469 1.327 . S
C1467 H1453 0.931 . S
C1467 C1469 1.392 . S
C1467 C1470 1.370 . S
C1468 C1464 1.432 . S
C1468 N1466 1.359 . S
C1468 C1471 1.414 . S
C1469 H1451 0.930 . S
C1469 N1466 1.327 . S
C1469 C1467 1.392 . S
C1470 H1465 0.930 . S
C1470 C1467 1.370 . S
C1470 C1471 1.385 . S
C1471 C1468 1.414 . S
C1471 C1470 1.385 . S
C1471 C1493 1.444 . S
O1472 Tb1428 2.546 . S
O1472 C1492 1.251 . S
O1473 Tb1428 2.610 . S
O1473 Tb1439 2.362 . S
O1473 C1484 1.283 . S
O1474 Tb1439 2.421 . S
O1474 C1491 1.262 . S
O1475 Tb1428 2.320 . S
O1475 C1491 1.260 . S
O1476 Tb1428 2.552 . S
O1476 C1484 1.243 . S
O1477 Tb1428 2.413 . S
O1477 C1492 1.256 . S
O1478 Tb1439 2.546 . S
O1478 C1503 1.251 . S
O1479 Tb1428 2.362 . S
O1479 Tb1439 2.610 . S
O1479 C1495 1.283 . S
O1480 Tb1428 2.421 . S
O1480 C1502 1.262 . S
O1481 Tb1439 2.320 . S
O1481 C1502 1.260 . S
O1482 Tb1439 2.552 . S
O1482 C1495 1.243 . S
O1483 Tb1439 2.413 . S
O1483 C1503 1.256 . S
C1484 O1473 1.283 . S
C1484 O1476 1.243 . S
C1485 C1487 1.382 . S
C1485 C1489 1.393 . S
C1485 C1492 1.500 . S
C1486 C1487 1.400 . S
C1486 C1488 1.384 . S
C1487 C1485 1.382 . S
C1487 C1486 1.400 . S
C1487 H1504 0.930 . S
C1488 C1486 1.384 . S
C1488 C1490 1.392 . S
C1488 H1505 0.931 . S
C1489 C1485 1.393 . S
C1489 C1490 1.401 . S
C1489 H1506 0.930 . S
C1490 C1488 1.392 . S
C1490 C1489 1.401 . S
C1490 H1507 0.930 . S
C1491 O1474 1.262 . S
C1491 O1475 1.260 . S
C1492 Tb1428 2.833 . S
C1492 O1472 1.251 . S
C1492 O1477 1.256 . S
C1492 C1485 1.500 . S
C1493 H1458 0.929 . S
C1493 C1471 1.444 . S
C1493 C1494 1.317 . S
C1494 H1456 0.930 . S
C1494 C1462 1.432 . S
C1494 C1493 1.317 . S
C1495 O1479 1.283 . S
C1495 O1482 1.243 . S
C1496 C1497 1.382 . S
C1496 C1500 1.393 . S
C1496 C1503 1.500 . S
C1497 C1496 1.382 . S
C1497 C1498 1.400 . S
C1497 H1508 0.930 . S
C1498 C1497 1.400 . S
C1498 C1499 1.384 . S
C1499 C1498 1.384 . S
C1499 C1501 1.392 . S
C1499 H1509 0.931 . S
C1500 C1496 1.393 . S
C1500 C1501 1.401 . S
C1500 H1510 0.930 . S
C1501 C1499 1.392 . S
C1501 C1500 1.401 . S
C1501 H1511 0.930 . S
C1502 O1480 1.262 . S
C1502 O1481 1.260 . S
C1503 Tb1439 2.833 . S
C1503 O1478 1.251 . S
C1503 O1483 1.256 . S
C1503 C1496 1.500 . S
H1504 C1487 0.930 . S
H1505 C1488 0.931 . S
H1506 C1489 0.930 . S
H1507 C1490 0.930 . S
H1508 C1497 0.930 . S
H1509 C1499 0.931 . S
H1510 C1500 0.930 . S
H1511 C1501 0.930 . S
Tb1512 N1543 2.660 . S
Tb1512 N1550 2.600 . S
Tb1512 O1556 2.546 . S
Tb1512 O1557 2.610 . S
Tb1512 O1559 2.320 . S
Tb1512 O1560 2.552 . S
Tb1512 O1561 2.413 . S
Tb1512 O1563 2.362 . S
Tb1512 O1564 2.421 . S
Tb1512 C1576 2.833 . S
C1513 C1516 1.432 . S
C1513 C1517 1.414 . S
C1513 N1520 1.359 . S
C1514 C1516 1.417 . S
C1514 C1518 1.432 . S
C1514 C1526 1.410 . S
C1515 C1517 1.444 . S
C1515 C1518 1.317 . S
C1515 H1538 0.929 . S
C1516 C1513 1.432 . S
C1516 C1514 1.417 . S
C1516 N1524 1.360 . S
C1517 C1513 1.414 . S
C1517 C1515 1.444 . S
C1517 C1522 1.385 . S
C1518 C1514 1.432 . S
C1518 C1515 1.317 . S
C1518 H1530 0.930 . S
C1519 C1521 1.392 . S
C1519 C1522 1.370 . S
C1519 H1531 0.931 . S
N1520 C1513 1.359 . S
N1520 C1521 1.327 . S
N1520 Tb1523 2.600 . S
C1521 C1519 1.392 . S
C1521 N1520 1.327 . S
C1521 H1528 0.930 . S
C1522 C1517 1.385 . S
C1522 C1519 1.370 . S
C1522 H1541 0.930 . S
Tb1523 N1520 2.600 . S
Tb1523 N1524 2.660 . S
Tb1523 O1557 2.362 . S
Tb1523 O1558 2.421 . S
Tb1523 O1562 2.546 . S
Tb1523 O1563 2.610 . S
Tb1523 O1565 2.320 . S
Tb1523 O1566 2.552 . S
Tb1523 O1567 2.413 . S
Tb1523 C1587 2.833 . S
N1524 C1516 1.360 . S
N1524 Tb1523 2.660 . S
N1524 C1525 1.305 . S
C1525 N1524 1.305 . S
C1525 C1527 1.407 . S
C1525 H1532 0.930 . S
C1526 C1514 1.410 . S
C1526 C1527 1.345 . S
C1526 H1534 0.930 . S
C1527 C1525 1.407 . S
C1527 C1526 1.345 . S
C1527 H1529 0.930 . S
H1528 C1521 0.930 . S
H1529 C1527 0.930 . S
H1530 C1518 0.930 . S
H1531 C1519 0.931 . S
H1532 C1525 0.930 . S
H1533 C1547 0.930 . S
H1534 C1526 0.930 . S
H1535 C1553 0.930 . S
H1536 C1544 0.930 . S
H1537 C1551 0.931 . S
H1538 C1515 0.929 . S
H1539 C1545 0.930 . S
H1540 C1578 0.930 . S
H1541 C1522 0.930 . S
H1542 C1577 0.929 . S
N1543 Tb1512 2.660 . S
N1543 C1544 1.305 . S
N1543 C1548 1.360 . S
C1544 H1536 0.930 . S
C1544 N1543 1.305 . S
C1544 C1547 1.407 . S
C1545 H1539 0.930 . S
C1545 C1546 1.410 . S
C1545 C1547 1.345 . S
C1546 C1545 1.410 . S
C1546 C1548 1.417 . S
C1546 C1578 1.432 . S
C1547 H1533 0.930 . S
C1547 C1544 1.407 . S
C1547 C1545 1.345 . S
C1548 N1543 1.360 . S
C1548 C1546 1.417 . S
C1548 C1552 1.432 . S
H1549 C1554 0.930 . S
N1550 Tb1512 2.600 . S
N1550 C1552 1.359 . S
N1550 C1553 1.327 . S
C1551 H1537 0.931 . S
C1551 C1553 1.392 . S
C1551 C1554 1.370 . S
C1552 C1548 1.432 . S
C1552 N1550 1.359 . S
C1552 C1555 1.414 . S
C1553 H1535 0.930 . S
C1553 N1550 1.327 . S
C1553 C1551 1.392 . S
C1554 H1549 0.930 . S
C1554 C1551 1.370 . S
C1554 C1555 1.385 . S
C1555 C1552 1.414 . S
C1555 C1554 1.385 . S
C1555 C1577 1.444 . S
O1556 Tb1512 2.546 . S
O1556 C1576 1.251 . S
O1557 Tb1512 2.610 . S
O1557 Tb1523 2.362 . S
O1557 C1568 1.283 . S
O1558 Tb1523 2.421 . S
O1558 C1575 1.262 . S
O1559 Tb1512 2.320 . S
O1559 C1575 1.260 . S
O1560 Tb1512 2.552 . S
O1560 C1568 1.243 . S
O1561 Tb1512 2.413 . S
O1561 C1576 1.256 . S
O1562 Tb1523 2.546 . S
O1562 C1587 1.251 . S
O1563 Tb1512 2.362 . S
O1563 Tb1523 2.610 . S
O1563 C1579 1.283 . S
O1564 Tb1512 2.421 . S
O1564 C1586 1.262 . S
O1565 Tb1523 2.320 . S
O1565 C1586 1.260 . S
O1566 Tb1523 2.552 . S
O1566 C1579 1.243 . S
O1567 Tb1523 2.413 . S
O1567 C1587 1.256 . S
C1568 O1557 1.283 . S
C1568 O1560 1.243 . S
C1569 C1571 1.382 . S
C1569 C1573 1.393 . S
C1569 C1576 1.500 . S
C1570 C1571 1.400 . S
C1570 C1572 1.384 . S
C1571 C1569 1.382 . S
C1571 C1570 1.400 . S
C1571 H1588 0.930 . S
C1572 C1570 1.384 . S
C1572 C1574 1.392 . S
C1572 H1589 0.931 . S
C1573 C1569 1.393 . S
C1573 C1574 1.401 . S
C1573 H1590 0.930 . S
C1574 C1572 1.392 . S
C1574 C1573 1.401 . S
C1574 H1591 0.930 . S
C1575 O1558 1.262 . S
C1575 O1559 1.260 . S
C1576 Tb1512 2.833 . S
C1576 O1556 1.251 . S
C1576 O1561 1.256 . S
C1576 C1569 1.500 . S
C1577 H1542 0.929 . S
C1577 C1555 1.444 . S
C1577 C1578 1.317 . S
C1578 H1540 0.930 . S
C1578 C1546 1.432 . S
C1578 C1577 1.317 . S
C1579 O1563 1.283 . S
C1579 O1566 1.243 . S
C1580 C1581 1.382 . S
C1580 C1584 1.393 . S
C1580 C1587 1.500 . S
C1581 C1580 1.382 . S
C1581 C1582 1.400 . S
C1581 H1592 0.930 . S
C1582 C1581 1.400 . S
C1582 C1583 1.384 . S
C1583 C1582 1.384 . S
C1583 C1585 1.392 . S
C1583 H1593 0.931 . S
C1584 C1580 1.393 . S
C1584 C1585 1.401 . S
C1584 H1594 0.930 . S
C1585 C1583 1.392 . S
C1585 C1584 1.401 . S
C1585 H1595 0.930 . S
C1586 O1564 1.262 . S
C1586 O1565 1.260 . S
C1587 Tb1523 2.833 . S
C1587 O1562 1.251 . S
C1587 O1567 1.256 . S
C1587 C1580 1.500 . S
H1588 C1571 0.930 . S
H1589 C1572 0.931 . S
H1590 C1573 0.930 . S
H1591 C1574 0.930 . S
H1592 C1581 0.930 . S
H1593 C1583 0.931 . S
H1594 C1584 0.930 . S
H1595 C1585 0.930 . S
Tb1596 N1627 2.660 . S
Tb1596 N1634 2.600 1_554 S
Tb1596 O1640 2.546 1_554 S
Tb1596 O1641 2.610 . S
Tb1596 O1643 2.320 . S
Tb1596 O1644 2.552 . S
Tb1596 O1645 2.413 . S
Tb1596 O1647 2.362 . S
Tb1596 O1648 2.421 1_554 S
Tb1596 C1660 2.833 1_554 S
C1597 C1600 1.432 . S
C1597 C1601 1.414 . S
C1597 N1604 1.359 1_655 S
C1598 C1600 1.417 . S
C1598 C1602 1.432 . S
C1598 C1610 1.410 1_554 S
C1599 C1601 1.444 . S
C1599 C1602 1.317 . S
C1599 H1622 0.929 . S
C1600 C1597 1.432 . S
C1600 C1598 1.417 . S
C1600 N1608 1.368 . S
C1601 C1597 1.414 . S
C1601 C1599 1.444 . S
C1601 C1606 1.385 . S
C1602 C1598 1.432 . S
C1602 C1599 1.317 . S
C1602 H1614 0.930 . S
C1603 C1605 1.392 . S
C1603 C1606 1.370 1_455 S
C1603 H1615 0.931 . S
N1604 C1597 1.359 1_455 S
N1604 C1605 1.327 . S
N1604 Tb1607 2.600 . S
C1605 C1603 1.392 . S
C1605 N1604 1.327 . S
C1605 H1612 0.930 . S
C1606 C1601 1.385 . S
C1606 C1603 1.370 1_655 S
C1606 H1625 0.930 . S
Tb1607 N1604 2.600 . S
Tb1607 N1608 2.650 1_455 S
Tb1607 O1641 2.362 . S
Tb1607 O1642 2.421 . S
Tb1607 O1646 2.546 . S
Tb1607 O1647 2.610 . S
Tb1607 O1649 2.320 1_554 S
Tb1607 O1650 2.552 . S
Tb1607 O1651 2.413 1_455 S
Tb1607 C1671 2.833 1_455 S
N1608 C1600 1.368 . S
N1608 Tb1607 2.650 1_655 S
N1608 C1609 1.306 1_554 S
C1609 N1608 1.306 1_556 S
C1609 C1611 1.407 . S
C1609 H1616 0.930 1_655 S
C1610 C1598 1.410 1_556 S
C1610 C1611 1.345 . S
C1610 H1618 0.930 . S
C1611 C1609 1.407 . S
C1611 C1610 1.345 . S
C1611 H1613 0.930 . S
H1612 C1605 0.930 . S
H1613 C1611 0.930 . S
H1614 C1602 0.930 . S
H1615 C1603 0.931 . S
H1616 C1609 0.930 1_455 S
H1617 C1631 0.930 . S
H1618 C1610 0.930 . S
H1619 C1637 0.930 . S
H1620 C1628 0.930 . S
H1621 C1635 0.931 . S
H1622 C1599 0.929 . S
H1623 C1629 0.930 . S
H1624 C1662 0.930 . S
H1625 C1606 0.930 . S
H1626 C1661 0.929 . S
N1627 Tb1596 2.660 . S
N1627 C1628 1.305 . S
N1627 C1632 1.360 . S
C1628 H1620 0.930 . S
C1628 N1627 1.305 . S
C1628 C1631 1.407 . S
C1629 H1623 0.930 . S
C1629 C1630 1.410 . S
C1629 C1631 1.345 . S
C1630 C1629 1.410 . S
C1630 C1632 1.417 . S
C1630 C1662 1.432 . S
C1631 H1617 0.930 . S
C1631 C1628 1.407 . S
C1631 C1629 1.345 . S
C1632 N1627 1.360 . S
C1632 C1630 1.417 . S
C1632 C1636 1.432 1_554 S
H1633 C1638 0.930 . S
N1634 Tb1596 2.600 1_556 S
N1634 C1636 1.359 . S
N1634 C1637 1.327 . S
C1635 H1621 0.931 . S
C1635 C1637 1.392 . S
C1635 C1638 1.370 . S
C1636 C1632 1.432 1_556 S
C1636 N1634 1.359 . S
C1636 C1639 1.414 . S
C1637 H1619 0.930 . S
C1637 N1634 1.327 . S
C1637 C1635 1.392 . S
C1638 H1633 0.930 . S
C1638 C1635 1.370 . S
C1638 C1639 1.385 . S
C1639 C1636 1.414 . S
C1639 C1638 1.385 . S
C1639 C1661 1.444 . S
O1640 Tb1596 2.546 1_556 S
O1640 C1660 1.251 . S
O1641 Tb1596 2.610 . S
O1641 Tb1607 2.362 . S
O1641 C1652 1.283 . S
O1642 Tb1607 2.421 . S
O1642 C1659 1.262 . S
O1643 Tb1596 2.320 . S
O1643 C1659 1.260 . S
O1644 Tb1596 2.552 . S
O1644 C1652 1.243 . S
O1645 Tb1596 2.413 . S
O1645 C1660 1.256 1_554 S
O1646 Tb1607 2.546 . S
O1646 C1671 1.251 1_455 S
O1647 Tb1596 2.362 . S
O1647 Tb1607 2.610 . S
O1647 C1663 1.283 . S
O1648 Tb1596 2.421 1_556 S
O1648 C1670 1.262 . S
O1649 Tb1607 2.320 1_556 S
O1649 C1670 1.260 . S
O1650 Tb1607 2.552 . S
O1650 C1663 1.243 . S
O1651 Tb1607 2.413 1_655 S
O1651 C1671 1.256 . S
C1652 O1641 1.283 . S
C1652 O1644 1.243 . S
C1653 C1655 1.382 1_556 S
C1653 C1657 1.393 . S
C1653 C1660 1.500 . S
C1654 C1655 1.400 1_556 S
C1654 C1656 1.384 . S
C1655 C1653 1.382 1_554 S
C1655 C1654 1.400 1_554 S
C1655 H1672 0.930 . S
C1656 C1654 1.384 . S
C1656 C1658 1.392 . S
C1656 H1673 0.931 . S
C1657 C1653 1.393 . S
C1657 C1658 1.401 . S
C1657 H1674 0.930 . S
C1658 C1656 1.392 . S
C1658 C1657 1.401 . S
C1658 H1675 0.930 . S
C1659 O1642 1.262 . S
C1659 O1643 1.260 . S
C1660 Tb1596 2.833 1_556 S
C1660 O1640 1.251 . S
C1660 O1645 1.256 1_556 S
C1660 C1653 1.500 . S
C1661 H1626 0.929 . S
C1661 C1639 1.444 . S
C1661 C1662 1.317 1_556 S
C1662 H1624 0.930 . S
C1662 C1630 1.432 . S
C1662 C1661 1.317 1_554 S
C1663 O1647 1.283 . S
C1663 O1650 1.243 . S
C1664 C1665 1.382 . S
C1664 C1668 1.393 . S
C1664 C1671 1.500 . S
C1665 C1664 1.382 . S
C1665 C1666 1.400 . S
C1665 H1676 0.930 . S
C1666 C1665 1.400 . S
C1666 C1667 1.384 . S
C1667 C1666 1.384 . S
C1667 C1669 1.392 . S
C1667 H1677 0.931 . S
C1668 C1664 1.393 . S
C1668 C1669 1.401 . S
C1668 H1678 0.930 . S
C1669 C1667 1.392 . S
C1669 C1668 1.401 . S
C1669 H1679 0.930 . S
C1670 O1648 1.262 . S
C1670 O1649 1.260 . S
C1671 Tb1607 2.833 1_655 S
C1671 O1646 1.251 1_655 S
C1671 O1651 1.256 . S
C1671 C1664 1.500 . S
H1672 C1655 0.930 . S
H1673 C1656 0.931 . S
H1674 C1657 0.930 . S
H1675 C1658 0.930 . S
H1676 C1665 0.930 . S
H1677 C1667 0.931 . S
H1678 C1668 0.930 . S
H1679 C1669 0.930 . S
H1680 C1692 0.889 1_655 S
H1681 C1694 0.930 . S
H1682 C1695 0.930 1_554 S
H1683 C1699 0.959 . S
H1684 C1699 0.959 . S
H1685 C1699 0.961 . S
H1686 C1700 0.960 . S
H1687 C1700 0.961 . S
H1688 C1700 0.959 . S
H1689 C1703 0.929 . S
H1690 C1704 0.931 . S
H1691 C1706 0.930 . S
C1692 H1680 0.889 1_455 S
C1692 C1693 1.399 . S
C1692 C1697 1.399 . S
C1693 C1692 1.399 . S
C1693 C1694 1.376 . S
C1694 H1681 0.930 . S
C1694 C1693 1.376 . S
C1694 C1695 1.388 . S
C1695 H1682 0.930 1_556 S
C1695 C1694 1.388 . S
C1695 C1696 1.390 . S
C1696 C1695 1.390 . S
C1696 C1697 1.394 . S
C1696 C1702 1.488 . S
C1697 C1692 1.399 . S
C1697 C1696 1.394 . S
C1697 C1698 1.516 . S
C1698 C1697 1.516 . S
C1698 C1699 1.502 1_455 S
C1698 C1700 1.561 . S
C1698 C1701 1.526 . S
C1699 H1683 0.959 . S
C1699 H1684 0.959 . S
C1699 H1685 0.961 . S
C1699 C1698 1.502 1_655 S
C1700 H1686 0.960 . S
C1700 H1687 0.961 . S
C1700 H1688 0.959 . S
C1700 C1698 1.561 . S
C1701 C1698 1.526 . S
C1701 C1702 1.404 . S
C1701 C1706 1.390 . S
C1702 C1696 1.488 . S
C1702 C1701 1.404 . S
C1702 C1703 1.373 1_556 S
C1703 H1689 0.929 . S
C1703 C1702 1.373 1_554 S
C1703 C1704 1.385 . S
C1704 H1690 0.931 . S
C1704 C1703 1.385 . S
C1704 C1705 1.389 . S
C1705 C1704 1.389 . S
C1705 C1706 1.387 1_554 S
C1706 H1691 0.930 . S
C1706 C1701 1.390 . S
C1706 C1705 1.387 1_556 S
H1707 C1719 0.930 . S
H1708 C1721 0.930 . S
H1709 C1722 0.930 . S
H1710 C1726 0.959 . S
H1711 C1726 0.959 . S
H1712 C1726 0.961 . S
H1713 C1727 0.960 . S
H1714 C1727 0.961 . S
H1715 C1727 0.959 . S
H1716 C1730 0.929 . S
H1717 C1731 0.931 . S
H1718 C1733 0.930 . S
C1719 H1707 0.930 . S
C1719 C1720 1.399 . S
C1719 C1724 1.399 . S
C1720 C1719 1.399 . S
C1720 C1721 1.376 . S
C1721 H1708 0.930 . S
C1721 C1720 1.376 . S
C1721 C1722 1.388 . S
C1722 H1709 0.930 . S
C1722 C1721 1.388 . S
C1722 C1723 1.390 . S
C1723 C1722 1.390 . S
C1723 C1724 1.394 . S
C1723 C1729 1.465 . S
C1724 C1719 1.399 . S
C1724 C1723 1.394 . S
C1724 C1725 1.516 . S
C1725 C1724 1.516 . S
C1725 C1726 1.502 . S
C1725 C1727 1.561 . S
C1725 C1728 1.526 . S
C1726 H1710 0.959 . S
C1726 H1711 0.959 . S
C1726 H1712 0.961 . S
C1726 C1725 1.502 . S
C1727 H1713 0.960 . S
C1727 H1714 0.961 . S
C1727 H1715 0.959 . S
C1727 C1725 1.561 . S
C1728 C1725 1.526 . S
C1728 C1729 1.396 . S
C1728 C1733 1.390 . S
C1729 C1723 1.465 . S
C1729 C1728 1.396 . S
C1729 C1730 1.399 . S
C1730 H1716 0.929 . S
C1730 C1729 1.399 . S
C1730 C1731 1.385 . S
C1731 H1717 0.931 . S
C1731 C1730 1.385 . S
C1731 C1732 1.389 . S
C1732 C1731 1.389 . S
C1732 C1733 1.387 . S
C1733 H1718 0.930 . S
C1733 C1728 1.390 . S
C1733 C1732 1.387 . S
H1734 C1746 0.930 . S
H1735 C1748 0.930 . S
H1736 C1749 0.930 . S
H1737 C1753 0.959 . S
H1738 C1753 0.959 . S
H1739 C1753 0.961 . S
H1740 C1754 0.960 . S
H1741 C1754 0.961 . S
H1742 C1754 0.959 . S
H1743 C1757 0.929 . S
H1744 C1758 0.931 . S
H1745 C1760 0.930 . S
C1746 H1734 0.930 . S
C1746 C1747 1.399 . S
C1746 C1751 1.399 . S
C1747 C1746 1.399 . S
C1747 C1748 1.376 . S
C1748 H1735 0.930 . S
C1748 C1747 1.376 . S
C1748 C1749 1.388 . S
C1749 H1736 0.930 . S
C1749 C1748 1.388 . S
C1749 C1750 1.390 . S
C1750 C1749 1.390 . S
C1750 C1751 1.394 . S
C1750 C1756 1.465 . S
C1751 C1746 1.399 . S
C1751 C1750 1.394 . S
C1751 C1752 1.516 . S
C1752 C1751 1.516 . S
C1752 C1753 1.502 . S
C1752 C1754 1.561 . S
C1752 C1755 1.526 . S
C1753 H1737 0.959 . S
C1753 H1738 0.959 . S
C1753 H1739 0.961 . S
C1753 C1752 1.502 . S
C1754 H1740 0.960 . S
C1754 H1741 0.961 . S
C1754 H1742 0.959 . S
C1754 C1752 1.561 . S
C1755 C1752 1.526 . S
C1755 C1756 1.396 . S
C1755 C1760 1.390 . S
C1756 C1750 1.465 . S
C1756 C1755 1.396 . S
C1756 C1757 1.399 . S
C1757 H1743 0.929 . S
C1757 C1756 1.399 . S
C1757 C1758 1.385 . S
C1758 H1744 0.931 . S
C1758 C1757 1.385 . S
C1758 C1759 1.389 . S
C1759 C1758 1.389 . S
C1759 C1760 1.387 . S
C1760 H1745 0.930 . S
C1760 C1755 1.390 . S
C1760 C1759 1.387 . S
H1761 C1773 0.930 . S
H1762 C1775 0.930 . S
H1763 C1776 0.930 . S
H1764 C1780 0.959 . S
H1765 C1780 0.959 . S
H1766 C1780 0.961 . S
H1767 C1781 0.960 . S
H1768 C1781 0.961 . S
H1769 C1781 0.959 . S
H1770 C1784 0.929 . S
H1771 C1785 0.931 . S
H1772 C1787 0.930 . S
C1773 H1761 0.930 . S
C1773 C1774 1.399 . S
C1773 C1778 1.399 . S
C1774 C1773 1.399 . S
C1774 C1775 1.376 . S
C1775 H1762 0.930 . S
C1775 C1774 1.376 . S
C1775 C1776 1.388 . S
C1776 H1763 0.930 . S
C1776 C1775 1.388 . S
C1776 C1777 1.390 . S
C1777 C1776 1.390 . S
C1777 C1778 1.394 . S
C1777 C1783 1.465 . S
C1778 C1773 1.399 . S
C1778 C1777 1.394 . S
C1778 C1779 1.516 . S
C1779 C1778 1.516 . S
C1779 C1780 1.502 . S
C1779 C1781 1.561 . S
C1779 C1782 1.526 . S
C1780 H1764 0.959 . S
C1780 H1765 0.959 . S
C1780 H1766 0.961 . S
C1780 C1779 1.502 . S
C1781 H1767 0.960 . S
C1781 H1768 0.961 . S
C1781 H1769 0.959 . S
C1781 C1779 1.561 . S
C1782 C1779 1.526 . S
C1782 C1783 1.396 . S
C1782 C1787 1.390 . S
C1783 C1777 1.465 . S
C1783 C1782 1.396 . S
C1783 C1784 1.399 . S
C1784 H1770 0.929 . S
C1784 C1783 1.399 . S
C1784 C1785 1.385 . S
C1785 H1771 0.931 . S
C1785 C1784 1.385 . S
C1785 C1786 1.389 . S
C1786 C1785 1.389 . S
C1786 C1787 1.387 . S
C1787 H1772 0.930 . S
C1787 C1782 1.390 . S
C1787 C1786 1.387 . S
H1788 C1800 0.930 . S
H1789 C1802 0.930 . S
H1790 C1803 0.930 . S
H1791 C1807 0.959 . S
H1792 C1807 0.959 . S
H1793 C1807 0.961 . S
H1794 C1808 0.960 1_655 S
H1795 C1808 0.961 . S
H1796 C1808 0.959 1_655 S
H1797 C1811 0.929 . S
H1798 C1812 0.931 . S
H1799 C1814 0.930 . S
C1800 H1788 0.930 . S
C1800 C1801 1.399 . S
C1800 C1805 1.399 . S
C1801 C1800 1.399 . S
C1801 C1802 1.376 . S
C1802 H1789 0.930 . S
C1802 C1801 1.376 . S
C1802 C1803 1.388 . S
C1803 H1790 0.930 . S
C1803 C1802 1.388 . S
C1803 C1804 1.390 . S
C1804 C1803 1.390 . S
C1804 C1805 1.394 . S
C1804 C1810 1.465 . S
C1805 C1800 1.399 . S
C1805 C1804 1.394 . S
C1805 C1806 1.516 . S
C1806 C1805 1.516 . S
C1806 C1807 1.502 . S
C1806 C1808 1.561 . S
C1806 C1809 1.526 . S
C1807 H1791 0.959 . S
C1807 H1792 0.959 . S
C1807 H1793 0.961 . S
C1807 C1806 1.502 . S
C1808 H1794 0.960 1_455 S
C1808 H1795 0.961 . S
C1808 H1796 0.959 1_455 S
C1808 C1806 1.561 . S
C1809 C1806 1.526 . S
C1809 C1810 1.396 . S
C1809 C1814 1.390 . S
C1810 C1804 1.465 . S
C1810 C1809 1.396 . S
C1810 C1811 1.399 . S
C1811 H1797 0.929 . S
C1811 C1810 1.399 . S
C1811 C1812 1.385 . S
C1812 H1798 0.931 . S
C1812 C1811 1.385 . S
C1812 C1813 1.389 . S
C1813 C1812 1.389 . S
C1813 C1814 1.387 . S
C1814 H1799 0.930 . S
C1814 C1809 1.390 . S
C1814 C1813 1.387 . S
H1815 C1827 0.930 . S
H1816 C1829 0.930 . S
H1817 C1830 0.930 . S
H1818 C1834 0.959 . S
H1819 C1834 0.959 . S
H1820 C1834 0.961 . S
H1821 C1835 0.960 . S
H1822 C1835 0.961 . S
H1823 C1835 0.959 . S
H1824 C1838 0.929 . S
H1825 C1839 0.931 . S
H1826 C1841 0.930 . S
C1827 H1815 0.930 . S
C1827 C1828 1.399 . S
C1827 C1832 1.399 . S
C1828 C1827 1.399 . S
C1828 C1829 1.376 . S
C1829 H1816 0.930 . S
C1829 C1828 1.376 . S
C1829 C1830 1.388 . S
C1830 H1817 0.930 . S
C1830 C1829 1.388 . S
C1830 C1831 1.390 . S
C1831 C1830 1.390 . S
C1831 C1832 1.394 . S
C1831 C1837 1.465 . S
C1832 C1827 1.399 . S
C1832 C1831 1.394 . S
C1832 C1833 1.516 . S
C1833 C1832 1.516 . S
C1833 C1834 1.502 . S
C1833 C1835 1.561 . S
C1833 C1836 1.526 . S
C1834 H1818 0.959 . S
C1834 H1819 0.959 . S
C1834 H1820 0.961 . S
C1834 C1833 1.502 . S
C1835 H1821 0.960 . S
C1835 H1822 0.961 . S
C1835 H1823 0.959 . S
C1835 C1833 1.561 . S
C1836 C1833 1.526 . S
C1836 C1837 1.396 . S
C1836 C1841 1.390 . S
C1837 C1831 1.465 . S
C1837 C1836 1.396 . S
C1837 C1838 1.399 . S
C1838 H1824 0.929 . S
C1838 C1837 1.399 . S
C1838 C1839 1.385 . S
C1839 H1825 0.931 . S
C1839 C1838 1.385 . S
C1839 C1840 1.389 . S
C1840 C1839 1.389 . S
C1840 C1841 1.387 . S
C1841 H1826 0.930 . S
C1841 C1836 1.390 . S
C1841 C1840 1.387 . S
H1842 C1854 0.930 . S
H1843 C1856 0.930 . S
H1844 C1857 0.930 . S
H1845 C1861 0.959 . S
H1846 C1861 0.959 . S
H1847 C1861 0.961 . S
H1848 C1862 0.960 . S
H1849 C1862 0.961 . S
H1850 C1862 0.959 . S
H1851 C1865 0.929 . S
H1852 C1866 0.931 . S
H1853 C1868 0.930 . S
C1854 H1842 0.930 . S
C1854 C1855 1.399 . S
C1854 C1859 1.399 . S
C1855 C1854 1.399 . S
C1855 C1856 1.376 . S
C1856 H1843 0.930 . S
C1856 C1855 1.376 . S
C1856 C1857 1.388 . S
C1857 H1844 0.930 . S
C1857 C1856 1.388 . S
C1857 C1858 1.390 . S
C1858 C1857 1.390 . S
C1858 C1859 1.394 . S
C1858 C1864 1.465 . S
C1859 C1854 1.399 . S
C1859 C1858 1.394 . S
C1859 C1860 1.516 . S
C1860 C1859 1.516 . S
C1860 C1861 1.502 . S
C1860 C1862 1.561 . S
C1860 C1863 1.526 . S
C1861 H1845 0.959 . S
C1861 H1846 0.959 . S
C1861 H1847 0.961 . S
C1861 C1860 1.502 . S
C1862 H1848 0.960 . S
C1862 H1849 0.961 . S
C1862 H1850 0.959 . S
C1862 C1860 1.561 . S
C1863 C1860 1.526 . S
C1863 C1864 1.396 . S
C1863 C1868 1.390 . S
C1864 C1858 1.465 . S
C1864 C1863 1.396 . S
C1864 C1865 1.399 . S
C1865 H1851 0.929 . S
C1865 C1864 1.399 . S
C1865 C1866 1.385 . S
C1866 H1852 0.931 . S
C1866 C1865 1.385 . S
C1866 C1867 1.389 . S
C1867 C1866 1.389 . S
C1867 C1868 1.387 . S
C1868 H1853 0.930 . S
C1868 C1863 1.390 . S
C1868 C1867 1.387 . S
H1869 C1881 0.930 . S
H1870 C1883 0.930 . S
H1871 C1884 0.930 . S
H1872 C1888 0.959 . S
H1873 C1888 0.959 . S
H1874 C1888 0.961 . S
H1875 C1889 0.960 . S
H1876 C1889 0.961 . S
H1877 C1889 0.959 . S
H1878 C1892 0.929 . S
H1879 C1893 0.931 . S
H1880 C1895 0.930 . S
C1881 H1869 0.930 . S
C1881 C1882 1.399 . S
C1881 C1886 1.399 . S
C1882 C1881 1.399 . S
C1882 C1883 1.376 . S
C1883 H1870 0.930 . S
C1883 C1882 1.376 . S
C1883 C1884 1.388 . S
C1884 H1871 0.930 . S
C1884 C1883 1.388 . S
C1884 C1885 1.390 . S
C1885 C1884 1.390 . S
C1885 C1886 1.394 . S
C1885 C1891 1.465 . S
C1886 C1881 1.399 . S
C1886 C1885 1.394 . S
C1886 C1887 1.516 . S
C1887 C1886 1.516 . S
C1887 C1888 1.502 . S
C1887 C1889 1.561 . S
C1887 C1890 1.526 . S
C1888 H1872 0.959 . S
C1888 H1873 0.959 . S
C1888 H1874 0.961 . S
C1888 C1887 1.502 . S
C1889 H1875 0.960 . S
C1889 H1876 0.961 . S
C1889 H1877 0.959 . S
C1889 C1887 1.561 . S
C1890 C1887 1.526 . S
C1890 C1891 1.396 . S
C1890 C1895 1.390 . S
C1891 C1885 1.465 . S
C1891 C1890 1.396 . S
C1891 C1892 1.399 . S
C1892 H1878 0.929 . S
C1892 C1891 1.399 . S
C1892 C1893 1.385 . S
C1893 H1879 0.931 . S
C1893 C1892 1.385 . S
C1893 C1894 1.389 . S
C1894 C1893 1.389 . S
C1894 C1895 1.387 . S
C1895 H1880 0.930 . S
C1895 C1890 1.390 . S
C1895 C1894 1.387 . S
H1896 C1908 0.930 . S
H1897 C1910 0.930 . S
H1898 C1911 0.930 1_455 S
H1899 C1915 0.959 . S
H1900 C1915 0.959 . S
H1901 C1915 0.961 . S
H1902 C1916 0.960 . S
H1903 C1916 0.961 . S
H1904 C1916 0.959 . S
H1905 C1919 0.929 . S
H1906 C1920 0.931 . S
H1907 C1922 0.930 . S
C1908 H1896 0.930 . S
C1908 C1909 1.399 . S
C1908 C1913 1.399 . S
C1909 C1908 1.399 . S
C1909 C1910 1.376 . S
C1910 H1897 0.930 . S
C1910 C1909 1.376 . S
C1910 C1911 1.388 . S
C1911 H1898 0.930 1_655 S
C1911 C1910 1.388 . S
C1911 C1912 1.387 1_655 S
C1912 C1911 1.387 1_455 S
C1912 C1913 1.373 1_455 S
C1912 C1918 1.486 . S
C1913 C1908 1.399 . S
C1913 C1912 1.373 1_655 S
C1913 C1914 1.516 1_655 S
C1914 C1913 1.516 1_455 S
C1914 C1915 1.502 1_455 S
C1914 C1916 1.561 . S
C1914 C1917 1.526 . S
C1915 H1899 0.959 . S
C1915 H1900 0.959 . S
C1915 H1901 0.961 . S
C1915 C1914 1.502 1_655 S
C1916 H1902 0.960 . S
C1916 H1903 0.961 . S
C1916 H1904 0.959 . S
C1916 C1914 1.561 . S
C1917 C1914 1.526 . S
C1917 C1918 1.396 . S
C1917 C1922 1.390 . S
C1918 C1912 1.486 . S
C1918 C1917 1.396 . S
C1918 C1919 1.399 . S
C1919 H1905 0.929 . S
C1919 C1918 1.399 . S
C1919 C1920 1.385 . S
C1920 H1906 0.931 . S
C1920 C1919 1.385 . S
C1920 C1921 1.389 . S
C1921 C1920 1.389 . S
C1921 C1922 1.387 . S
C1922 H1907 0.930 . S
C1922 C1917 1.390 . S
C1922 C1921 1.387 . S
H1923 C1935 0.930 . S
H1924 C1937 0.930 . S
H1925 C1938 0.930 . S
H1926 C1942 0.959 . S
H1927 C1942 0.959 . S
H1928 C1942 0.961 . S
H1929 C1943 0.960 . S
H1930 C1943 0.961 . S
H1931 C1943 0.959 . S
H1932 C1946 0.929 . S
H1933 C1947 0.931 . S
H1934 C1949 0.930 . S
C1935 H1923 0.930 . S
C1935 C1936 1.399 . S
C1935 C1940 1.399 . S
C1936 C1935 1.399 . S
C1936 C1937 1.376 . S
C1937 H1924 0.930 . S
C1937 C1936 1.376 . S
C1937 C1938 1.388 . S
C1938 H1925 0.930 . S
C1938 C1937 1.388 . S
C1938 C1939 1.390 . S
C1939 C1938 1.390 . S
C1939 C1940 1.394 . S
C1939 C1945 1.465 . S
C1940 C1935 1.399 . S
C1940 C1939 1.394 . S
C1940 C1941 1.516 . S
C1941 C1940 1.516 . S
C1941 C1942 1.502 . S
C1941 C1943 1.561 . S
C1941 C1944 1.526 . S
C1942 H1926 0.959 . S
C1942 H1927 0.959 . S
C1942 H1928 0.961 . S
C1942 C1941 1.502 . S
C1943 H1929 0.960 . S
C1943 H1930 0.961 . S
C1943 H1931 0.959 . S
C1943 C1941 1.561 . S
C1944 C1941 1.526 . S
C1944 C1945 1.396 . S
C1944 C1949 1.390 . S
C1945 C1939 1.465 . S
C1945 C1944 1.396 . S
C1945 C1946 1.399 . S
C1946 H1932 0.929 . S
C1946 C1945 1.399 . S
C1946 C1947 1.385 . S
C1947 H1933 0.931 . S
C1947 C1946 1.385 . S
C1947 C1948 1.389 . S
C1948 C1947 1.389 . S
C1948 C1949 1.387 . S
C1949 H1934 0.930 . S
C1949 C1944 1.390 . S
C1949 C1948 1.387 . S
H1950 C1962 0.930 . S
H1951 C1964 0.930 . S
H1952 C1965 0.930 . S
H1953 C1969 0.959 . S
H1954 C1969 0.959 1_565 S
H1955 C1969 0.961 . S
H1956 C1970 0.960 . S
H1957 C1970 0.961 . S
H1958 C1970 0.959 . S
H1959 C1973 0.929 . S
H1960 C1974 0.931 . S
H1961 C1976 0.930 . S
C1962 H1950 0.930 . S
C1962 C1963 1.399 . S
C1962 C1967 1.399 . S
C1963 C1962 1.399 . S
C1963 C1964 1.376 . S
C1964 H1951 0.930 . S
C1964 C1963 1.376 . S
C1964 C1965 1.388 . S
C1965 H1952 0.930 . S
C1965 C1964 1.388 . S
C1965 C1966 1.390 . S
C1966 C1965 1.390 . S
C1966 C1967 1.394 . S
C1966 C1972 1.465 . S
C1967 C1962 1.399 . S
C1967 C1966 1.394 . S
C1967 C1968 1.516 . S
C1968 C1967 1.516 . S
C1968 C1969 1.502 . S
C1968 C1970 1.561 1_545 S
C1968 C1971 1.526 . S
C1969 H1953 0.959 . S
C1969 H1954 0.959 1_545 S
C1969 H1955 0.961 . S
C1969 C1968 1.502 . S
C1970 H1956 0.960 . S
C1970 H1957 0.961 . S
C1970 H1958 0.959 . S
C1970 C1968 1.561 1_565 S
C1971 C1968 1.526 . S
C1971 C1972 1.396 . S
C1971 C1976 1.390 . S
C1972 C1966 1.465 . S
C1972 C1971 1.396 . S
C1972 C1973 1.399 . S
C1973 H1959 0.929 . S
C1973 C1972 1.399 . S
C1973 C1974 1.385 . S
C1974 H1960 0.931 . S
C1974 C1973 1.385 . S
C1974 C1975 1.389 . S
C1975 C1974 1.389 . S
C1975 C1976 1.387 . S
C1976 H1961 0.930 . S
C1976 C1971 1.390 . S
C1976 C1975 1.387 . S
H1977 C1989 0.930 . S
H1978 C1991 0.930 . S
H1979 C1992 0.930 . S
H1980 C1996 0.959 . S
H1981 C1996 0.959 . S
H1982 C1996 0.961 . S
H1983 C1997 0.960 . S
H1984 C1997 0.961 . S
H1985 C1997 0.959 . S
H1986 C2000 0.929 . S
H1987 C2001 0.931 . S
H1988 C2003 0.930 . S
C1989 H1977 0.930 . S
C1989 C1990 1.399 . S
C1989 C1994 1.399 . S
C1990 C1989 1.399 . S
C1990 C1991 1.376 . S
C1991 H1978 0.930 . S
C1991 C1990 1.376 . S
C1991 C1992 1.388 . S
C1992 H1979 0.930 . S
C1992 C1991 1.388 . S
C1992 C1993 1.390 . S
C1993 C1992 1.390 . S
C1993 C1994 1.394 . S
C1993 C1999 1.465 . S
C1994 C1989 1.399 . S
C1994 C1993 1.394 . S
C1994 C1995 1.516 . S
C1995 C1994 1.516 . S
C1995 C1996 1.502 . S
C1995 C1997 1.561 . S
C1995 C1998 1.526 . S
C1996 H1980 0.959 . S
C1996 H1981 0.959 . S
C1996 H1982 0.961 . S
C1996 C1995 1.502 . S
C1997 H1983 0.960 . S
C1997 H1984 0.961 . S
C1997 H1985 0.959 . S
C1997 C1995 1.561 . S
C1998 C1995 1.526 . S
C1998 C1999 1.396 . S
C1998 C2003 1.390 . S
C1999 C1993 1.465 . S
C1999 C1998 1.396 . S
C1999 C2000 1.399 . S
C2000 H1986 0.929 . S
C2000 C1999 1.399 . S
C2000 C2001 1.385 . S
C2001 H1987 0.931 . S
C2001 C2000 1.385 . S
C2001 C2002 1.389 . S
C2002 C2001 1.389 . S
C2002 C2003 1.387 . S
C2003 H1988 0.930 . S
C2003 C1998 1.390 . S
C2003 C2002 1.387 . S
H2004 C2016 0.930 . S
H2005 C2018 0.930 . S
H2006 C2019 0.930 . S
H2007 C2023 0.959 1_655 S
H2008 C2023 0.959 . S
H2009 C2023 0.961 . S
H2010 C2024 0.960 . S
H2011 C2024 0.961 . S
H2012 C2024 0.959 . S
H2013 C2027 0.929 . S
H2014 C2028 0.931 . S
H2015 C2030 0.930 . S
C2016 H2004 0.930 . S
C2016 C2017 1.399 . S
C2016 C2021 1.399 1_655 S
C2017 C2016 1.399 . S
C2017 C2018 1.376 . S
C2018 H2005 0.930 . S
C2018 C2017 1.376 . S
C2018 C2019 1.388 . S
C2019 H2006 0.930 . S
C2019 C2018 1.388 . S
C2019 C2020 1.390 1_655 S
C2020 C2019 1.390 1_455 S
C2020 C2021 1.394 . S
C2020 C2026 1.465 . S
C2021 C2016 1.399 1_455 S
C2021 C2020 1.394 . S
C2021 C2022 1.516 . S
C2022 C2021 1.516 . S
C2022 C2023 1.502 . S
C2022 C2024 1.561 . S
C2022 C2025 1.526 . S
C2023 H2007 0.959 1_455 S
C2023 H2008 0.959 . S
C2023 H2009 0.961 . S
C2023 C2022 1.502 . S
C2024 H2010 0.960 . S
C2024 H2011 0.961 . S
C2024 H2012 0.959 . S
C2024 C2022 1.561 . S
C2025 C2022 1.526 . S
C2025 C2026 1.396 . S
C2025 C2030 1.390 . S
C2026 C2020 1.465 . S
C2026 C2025 1.396 . S
C2026 C2027 1.399 . S
C2027 H2013 0.929 . S
C2027 C2026 1.399 . S
C2027 C2028 1.385 . S
C2028 H2014 0.931 . S
C2028 C2027 1.385 . S
C2028 C2029 1.389 . S
C2029 C2028 1.389 . S
C2029 C2030 1.387 . S
C2030 H2015 0.930 . S
C2030 C2025 1.390 . S
C2030 C2029 1.387 . S
H2031 C2043 0.930 . S
H2032 C2045 0.930 . S
H2033 C2046 0.930 . S
H2034 C2050 0.959 . S
H2035 C2050 0.959 . S
H2036 C2050 0.961 . S
H2037 C2051 0.960 . S
H2038 C2051 0.961 . S
H2039 C2051 0.959 . S
H2040 C2054 0.929 . S
H2041 C2055 0.931 . S
H2042 C2057 0.930 . S
C2043 H2031 0.930 . S
C2043 C2044 1.399 . S
C2043 C2048 1.399 . S
C2044 C2043 1.399 . S
C2044 C2045 1.376 . S
C2045 H2032 0.930 . S
C2045 C2044 1.376 . S
C2045 C2046 1.388 . S
C2046 H2033 0.930 . S
C2046 C2045 1.388 . S
C2046 C2047 1.390 . S
C2047 C2046 1.390 . S
C2047 C2048 1.394 . S
C2047 C2053 1.465 . S
C2048 C2043 1.399 . S
C2048 C2047 1.394 . S
C2048 C2049 1.516 . S
C2049 C2048 1.516 . S
C2049 C2050 1.502 . S
C2049 C2051 1.561 . S
C2049 C2052 1.526 . S
C2050 H2034 0.959 . S
C2050 H2035 0.959 . S
C2050 H2036 0.961 . S
C2050 C2049 1.502 . S
C2051 H2037 0.960 . S
C2051 H2038 0.961 . S
C2051 H2039 0.959 . S
C2051 C2049 1.561 . S
C2052 C2049 1.526 . S
C2052 C2053 1.396 . S
C2052 C2057 1.390 . S
C2053 C2047 1.465 . S
C2053 C2052 1.396 . S
C2053 C2054 1.399 . S
C2054 H2040 0.929 . S
C2054 C2053 1.399 . S
C2054 C2055 1.385 . S
C2055 H2041 0.931 . S
C2055 C2054 1.385 . S
C2055 C2056 1.389 . S
C2056 C2055 1.389 . S
C2056 C2057 1.387 . S
C2057 H2042 0.930 . S
C2057 C2052 1.390 . S
C2057 C2056 1.387 . S
H2058 C2070 0.930 . S
H2059 C2072 0.930 . S
H2060 C2073 0.930 . S
H2061 C2077 0.959 . S
H2062 C2077 0.959 1_565 S
H2063 C2077 0.961 1_565 S
H2064 C2078 0.960 . S
H2065 C2078 0.940 1_565 S
H2066 C2078 0.959 . S
H2067 C2081 0.929 . S
H2068 C2082 0.931 . S
H2069 C2084 0.930 . S
C2070 H2058 0.930 . S
C2070 C2071 1.399 . S
C2070 C2075 1.399 . S
C2071 C2070 1.399 . S
C2071 C2072 1.376 . S
C2072 H2059 0.930 . S
C2072 C2071 1.376 . S
C2072 C2073 1.388 . S
C2073 H2060 0.930 . S
C2073 C2072 1.388 . S
C2073 C2074 1.390 . S
C2074 C2073 1.390 . S
C2074 C2075 1.394 . S
C2074 C2080 1.465 . S
C2075 C2070 1.399 . S
C2075 C2074 1.394 . S
C2075 C2076 1.516 . S
C2076 C2075 1.516 . S
C2076 C2077 1.502 . S
C2076 C2078 1.561 . S
C2076 C2079 1.526 . S
C2077 H2061 0.959 . S
C2077 H2062 0.959 1_545 S
C2077 H2063 0.961 1_545 S
C2077 C2076 1.502 . S
C2078 H2064 0.960 . S
C2078 H2065 0.940 1_545 S
C2078 H2066 0.959 . S
C2078 C2076 1.561 . S
C2079 C2076 1.526 . S
C2079 C2080 1.396 . S
C2079 C2084 1.390 . S
C2080 C2074 1.465 . S
C2080 C2079 1.396 . S
C2080 C2081 1.399 . S
C2081 H2067 0.929 . S
C2081 C2080 1.399 . S
C2081 C2082 1.385 . S
C2082 H2068 0.931 . S
C2082 C2081 1.385 . S
C2082 C2083 1.389 . S
C2083 C2082 1.389 . S
C2083 C2084 1.387 . S
C2084 H2069 0.930 . S
C2084 C2079 1.390 . S
C2084 C2083 1.387 . S
H2085 C2097 0.930 . S
H2086 C2099 0.930 . S
H2087 C2100 0.930 . S
H2088 C2104 0.959 . S
H2089 C2104 0.959 . S
H2090 C2104 0.961 . S
H2091 C2105 0.960 . S
H2092 C2105 0.961 . S
H2093 C2105 0.959 . S
H2094 C2108 0.929 . S
H2095 C2109 0.931 . S
H2096 C2111 0.930 . S
C2097 H2085 0.930 . S
C2097 C2098 1.399 . S
C2097 C2102 1.399 . S
C2098 C2097 1.399 . S
C2098 C2099 1.376 . S
C2099 H2086 0.930 . S
C2099 C2098 1.376 . S
C2099 C2100 1.388 . S
C2100 H2087 0.930 . S
C2100 C2099 1.388 . S
C2100 C2101 1.390 . S
C2101 C2100 1.390 . S
C2101 C2102 1.394 . S
C2101 C2107 1.465 . S
C2102 C2097 1.399 . S
C2102 C2101 1.394 . S
C2102 C2103 1.516 . S
C2103 C2102 1.516 . S
C2103 C2104 1.502 . S
C2103 C2105 1.561 . S
C2103 C2106 1.526 . S
C2104 H2088 0.959 . S
C2104 H2089 0.959 . S
C2104 H2090 0.961 . S
C2104 C2103 1.502 . S
C2105 H2091 0.960 . S
C2105 H2092 0.961 . S
C2105 H2093 0.959 . S
C2105 C2103 1.561 . S
C2106 C2103 1.526 . S
C2106 C2107 1.396 . S
C2106 C2111 1.390 . S
C2107 C2101 1.465 . S
C2107 C2106 1.396 . S
C2107 C2108 1.399 . S
C2108 H2094 0.929 . S
C2108 C2107 1.399 . S
C2108 C2109 1.385 . S
C2109 H2095 0.931 . S
C2109 C2108 1.385 . S
C2109 C2110 1.389 . S
C2110 C2109 1.389 . S
C2110 C2111 1.387 . S
C2111 H2096 0.930 . S
C2111 C2106 1.390 . S
C2111 C2110 1.387 . S
H2112 C2124 0.968 . S
H2113 C2126 0.930 . S
H2114 C2127 0.930 . S
H2115 C2131 0.959 . S
H2116 C2131 0.959 . S
H2117 C2131 0.961 . S
H2118 C2132 0.960 . S
H2119 C2132 0.961 . S
H2120 C2132 0.959 . S
H2121 C2135 0.929 . S
H2122 C2136 0.930 . S
H2123 C2138 0.905 1_556 S
C2124 H2112 0.968 . S
C2124 C2125 1.373 1_556 S
C2124 C2129 1.387 1_556 S
C2125 C2124 1.373 1_554 S
C2125 C2126 1.376 . S
C2126 H2113 0.930 . S
C2126 C2125 1.376 . S
C2126 C2127 1.388 . S
C2127 H2114 0.930 . S
C2127 C2126 1.388 . S
C2127 C2128 1.390 . S
C2128 C2127 1.390 . S
C2128 C2129 1.394 . S
C2128 C2134 1.465 . S
C2129 C2124 1.387 1_554 S
C2129 C2128 1.394 . S
C2129 C2130 1.516 1_554 S
C2130 C2129 1.516 1_556 S
C2130 C2131 1.502 1_565 S
C2130 C2132 1.561 . S
C2130 C2133 1.526 1_556 S
C2131 H2115 0.959 . S
C2131 H2116 0.959 . S
C2131 H2117 0.961 . S
C2131 C2130 1.502 1_545 S
C2132 H2118 0.960 . S
C2132 H2119 0.961 . S
C2132 H2120 0.959 . S
C2132 C2130 1.561 . S
C2133 C2130 1.526 1_554 S
C2133 C2134 1.396 . S
C2133 C2138 1.390 1_565 S
C2134 C2128 1.465 . S
C2134 C2133 1.396 . S
C2134 C2135 1.399 . S
C2135 H2121 0.929 . S
C2135 C2134 1.399 . S
C2135 C2136 1.389 1_565 S
C2136 H2122 0.930 . S
C2136 C2135 1.389 1_545 S
C2136 C2137 1.386 . S
C2137 C2136 1.386 . S
C2137 C2138 1.387 . S
C2138 H2123 0.905 1_554 S
C2138 C2133 1.390 1_545 S
C2138 C2137 1.387 . S
H2139 C2151 0.930 . S
H2140 C2153 0.930 . S
H2141 C2154 0.930 . S
H2142 C2158 0.959 . S
H2143 C2158 0.959 . S
H2144 C2158 0.961 . S
H2145 C2159 0.960 . S
H2146 C2159 0.961 . S
H2147 C2159 0.959 . S
H2148 C2162 0.929 . S
H2149 C2163 0.931 . S
H2150 C2165 0.930 . S
C2151 H2139 0.930 . S
C2151 C2152 1.399 1_554 S
C2151 C2156 1.399 . S
C2152 C2151 1.399 1_556 S
C2152 C2153 1.376 . S
C2153 H2140 0.930 . S
C2153 C2152 1.376 . S
C2153 C2154 1.388 . S
C2154 H2141 0.930 . S
C2154 C2153 1.388 . S
C2154 C2155 1.390 . S
C2155 C2154 1.390 . S
C2155 C2156 1.394 1_556 S
C2155 C2161 1.465 . S
C2156 C2151 1.399 . S
C2156 C2155 1.394 1_554 S
C2156 C2157 1.516 . S
C2157 C2156 1.516 . S
C2157 C2158 1.502 . S
C2157 C2159 1.561 . S
C2157 C2160 1.526 . S
C2158 H2142 0.959 . S
C2158 H2143 0.959 . S
C2158 H2144 0.961 . S
C2158 C2157 1.502 . S
C2159 H2145 0.960 . S
C2159 H2146 0.961 . S
C2159 H2147 0.959 . S
C2159 C2157 1.561 . S
C2160 C2157 1.526 . S
C2160 C2161 1.396 1_554 S
C2160 C2165 1.390 . S
C2161 C2155 1.465 . S
C2161 C2160 1.396 1_556 S
C2161 C2162 1.399 . S
C2162 H2148 0.929 . S
C2162 C2161 1.399 . S
C2162 C2163 1.385 . S
C2163 H2149 0.931 . S
C2163 C2162 1.385 . S
C2163 C2164 1.389 . S
C2164 C2163 1.389 . S
C2164 C2165 1.387 1_556 S
C2165 H2150 0.930 . S
C2165 C2160 1.390 . S
C2165 C2164 1.387 1_554 S
H2166 C2178 0.930 . S
H2167 C2180 0.930 . S
H2168 C2181 0.930 . S
H2169 C2185 0.959 . S
H2170 C2185 0.959 . S
H2171 C2185 0.961 . S
H2172 C2186 0.960 . S
H2173 C2186 0.961 . S
H2174 C2186 0.959 . S
H2175 C2189 0.929 . S
H2176 C2190 0.931 . S
H2177 C2192 0.930 . S
C2178 H2166 0.930 . S
C2178 C2179 1.399 . S
C2178 C2183 1.399 . S
C2179 C2178 1.399 . S
C2179 C2180 1.376 . S
C2180 H2167 0.930 . S
C2180 C2179 1.376 . S
C2180 C2181 1.388 . S
C2181 H2168 0.930 . S
C2181 C2180 1.388 . S
C2181 C2182 1.390 . S
C2182 C2181 1.390 . S
C2182 C2183 1.394 . S
C2182 C2188 1.465 . S
C2183 C2178 1.399 . S
C2183 C2182 1.394 . S
C2183 C2184 1.516 . S
C2184 C2183 1.516 . S
C2184 C2185 1.502 . S
C2184 C2186 1.561 . S
C2184 C2187 1.526 . S
C2185 H2169 0.959 . S
C2185 H2170 0.959 . S
C2185 H2171 0.961 . S
C2185 C2184 1.502 . S
C2186 H2172 0.960 . S
C2186 H2173 0.961 . S
C2186 H2174 0.959 . S
C2186 C2184 1.561 . S
C2187 C2184 1.526 . S
C2187 C2188 1.396 . S
C2187 C2192 1.390 . S
C2188 C2182 1.465 . S
C2188 C2187 1.396 . S
C2188 C2189 1.399 . S
C2189 H2175 0.929 . S
C2189 C2188 1.399 . S
C2189 C2190 1.385 . S
C2190 H2176 0.931 . S
C2190 C2189 1.385 . S
C2190 C2191 1.389 . S
C2191 C2190 1.389 . S
C2191 C2192 1.387 . S
C2192 H2177 0.930 . S
C2192 C2187 1.390 . S
C2192 C2191 1.387 . S
H2193 C2205 0.930 . S
H2194 C2207 0.930 . S
H2195 C2208 0.930 . S
H2196 C2212 0.959 . S
H2197 C2212 0.959 . S
H2198 C2212 0.961 . S
H2199 C2213 0.960 . S
H2200 C2213 0.961 . S
H2201 C2213 0.959 . S
H2202 C2216 0.929 . S
H2203 C2217 0.931 . S
H2204 C2219 0.930 . S
C2205 H2193 0.930 . S
C2205 C2206 1.399 . S
C2205 C2210 1.399 . S
C2206 C2205 1.399 . S
C2206 C2207 1.376 . S
C2207 H2194 0.930 . S
C2207 C2206 1.376 . S
C2207 C2208 1.388 . S
C2208 H2195 0.930 . S
C2208 C2207 1.388 . S
C2208 C2209 1.390 . S
C2209 C2208 1.390 . S
C2209 C2210 1.394 . S
C2209 C2215 1.465 . S
C2210 C2205 1.399 . S
C2210 C2209 1.394 . S
C2210 C2211 1.516 . S
C2211 C2210 1.516 . S
C2211 C2212 1.502 . S
C2211 C2213 1.561 . S
C2211 C2214 1.526 . S
C2212 H2196 0.959 . S
C2212 H2197 0.959 . S
C2212 H2198 0.961 . S
C2212 C2211 1.502 . S
C2213 H2199 0.960 . S
C2213 H2200 0.961 . S
C2213 H2201 0.959 . S
C2213 C2211 1.561 . S
C2214 C2211 1.526 . S
C2214 C2215 1.396 . S
C2214 C2219 1.390 . S
C2215 C2209 1.465 . S
C2215 C2214 1.396 . S
C2215 C2216 1.399 . S
C2216 H2202 0.929 . S
C2216 C2215 1.399 . S
C2216 C2217 1.385 1_655 S
C2217 H2203 0.931 . S
C2217 C2216 1.385 1_455 S
C2217 C2218 1.389 . S
C2218 C2217 1.389 . S
C2218 C2219 1.387 1_455 S
C2219 H2204 0.930 . S
C2219 C2214 1.390 . S
C2219 C2218 1.387 1_655 S
H2220 C2232 0.930 . S
H2221 C2234 0.930 . S
H2222 C2235 0.930 . S
H2223 C2239 0.959 . S
H2224 C2239 0.959 . S
H2225 C2239 0.961 . S
H2226 C2240 0.960 . S
H2227 C2240 0.961 . S
H2228 C2240 0.959 . S
H2229 C2243 0.929 . S
H2230 C2244 0.931 . S
H2231 C2246 0.930 . S
C2232 H2220 0.930 . S
C2232 C2233 1.399 . S
C2232 C2237 1.399 . S
C2233 C2232 1.399 . S
C2233 C2234 1.376 . S
C2234 H2221 0.930 . S
C2234 C2233 1.376 . S
C2234 C2235 1.388 . S
C2235 H2222 0.930 . S
C2235 C2234 1.388 . S
C2235 C2236 1.390 . S
C2236 C2235 1.390 . S
C2236 C2237 1.394 . S
C2236 C2242 1.465 . S
C2237 C2232 1.399 . S
C2237 C2236 1.394 . S
C2237 C2238 1.516 . S
C2238 C2237 1.516 . S
C2238 C2239 1.502 . S
C2238 C2240 1.561 . S
C2238 C2241 1.526 . S
C2239 H2223 0.959 . S
C2239 H2224 0.959 . S
C2239 H2225 0.961 . S
C2239 C2238 1.502 . S
C2240 H2226 0.960 . S
C2240 H2227 0.961 . S
C2240 H2228 0.959 . S
C2240 C2238 1.561 . S
C2241 C2238 1.526 . S
C2241 C2242 1.396 . S
C2241 C2246 1.390 . S
C2242 C2236 1.465 . S
C2242 C2241 1.396 . S
C2242 C2243 1.399 . S
C2243 H2229 0.929 . S
C2243 C2242 1.399 . S
C2243 C2244 1.385 . S
C2244 H2230 0.931 . S
C2244 C2243 1.385 . S
C2244 C2245 1.389 . S
C2245 C2244 1.389 . S
C2245 C2246 1.387 . S
C2246 H2231 0.930 . S
C2246 C2241 1.390 . S
C2246 C2245 1.387 . S
H2247 C2259 0.930 . S
H2248 C2261 0.930 . S
H2249 C2262 0.930 . S
H2250 C2266 0.959 . S
H2251 C2266 0.959 . S
H2252 C2266 0.961 . S
H2253 C2267 0.960 . S
H2254 C2267 0.961 . S
H2255 C2267 0.959 . S
H2256 C2270 0.929 . S
H2257 C2271 0.931 . S
H2258 C2273 0.930 . S
C2259 H2247 0.930 . S
C2259 C2260 1.399 . S
C2259 C2264 1.399 . S
C2260 C2259 1.399 . S
C2260 C2261 1.376 . S
C2261 H2248 0.930 . S
C2261 C2260 1.376 . S
C2261 C2262 1.388 . S
C2262 H2249 0.930 . S
C2262 C2261 1.388 . S
C2262 C2263 1.390 . S
C2263 C2262 1.390 . S
C2263 C2264 1.394 . S
C2263 C2269 1.465 . S
C2264 C2259 1.399 . S
C2264 C2263 1.394 . S
C2264 C2265 1.516 . S
C2265 C2264 1.516 . S
C2265 C2266 1.502 . S
C2265 C2267 1.561 . S
C2265 C2268 1.526 . S
C2266 H2250 0.959 . S
C2266 H2251 0.959 . S
C2266 H2252 0.961 . S
C2266 C2265 1.502 . S
C2267 H2253 0.960 . S
C2267 H2254 0.961 . S
C2267 H2255 0.959 . S
C2267 C2265 1.561 . S
C2268 C2265 1.526 . S
C2268 C2269 1.396 . S
C2268 C2273 1.390 . S
C2269 C2263 1.465 . S
C2269 C2268 1.396 . S
C2269 C2270 1.399 . S
C2270 H2256 0.929 . S
C2270 C2269 1.399 . S
C2270 C2271 1.385 . S
C2271 H2257 0.931 . S
C2271 C2270 1.385 . S
C2271 C2272 1.389 . S
C2272 C2271 1.389 . S
C2272 C2273 1.387 . S
C2273 H2258 0.930 . S
C2273 C2268 1.390 . S
C2273 C2272 1.387 . S
H2274 C2286 0.930 . S
H2275 C2288 0.930 . S
H2276 C2289 0.930 . S
H2277 C2293 0.959 . S
H2278 C2293 0.959 . S
H2279 C2293 0.961 . S
H2280 C2294 0.960 . S
H2281 C2294 0.961 . S
H2282 C2294 0.959 . S
H2283 C2297 0.929 . S
H2284 C2298 0.931 . S
H2285 C2300 0.930 . S
C2286 H2274 0.930 . S
C2286 C2287 1.399 . S
C2286 C2291 1.399 . S
C2287 C2286 1.399 . S
C2287 C2288 1.376 . S
C2288 H2275 0.930 . S
C2288 C2287 1.376 . S
C2288 C2289 1.388 . S
C2289 H2276 0.930 . S
C2289 C2288 1.388 . S
C2289 C2290 1.390 . S
C2290 C2289 1.390 . S
C2290 C2291 1.394 . S
C2290 C2296 1.465 . S
C2291 C2286 1.399 . S
C2291 C2290 1.394 . S
C2291 C2292 1.516 . S
C2292 C2291 1.516 . S
C2292 C2293 1.502 . S
C2292 C2294 1.561 . S
C2292 C2295 1.526 . S
C2293 H2277 0.959 . S
C2293 H2278 0.959 . S
C2293 H2279 0.961 . S
C2293 C2292 1.502 . S
C2294 H2280 0.960 . S
C2294 H2281 0.961 . S
C2294 H2282 0.959 . S
C2294 C2292 1.561 . S
C2295 C2292 1.526 . S
C2295 C2296 1.396 . S
C2295 C2300 1.390 . S
C2296 C2290 1.465 . S
C2296 C2295 1.396 . S
C2296 C2297 1.399 . S
C2297 H2283 0.929 . S
C2297 C2296 1.399 . S
C2297 C2298 1.385 . S
C2298 H2284 0.931 . S
C2298 C2297 1.385 . S
C2298 C2299 1.389 . S
C2299 C2298 1.389 . S
C2299 C2300 1.387 . S
C2300 H2285 0.930 . S
C2300 C2295 1.390 . S
C2300 C2299 1.387 . S
H2301 C2313 0.930 . S
H2302 C2315 0.930 . S
H2303 C2316 0.930 . S
H2304 C2320 0.959 . S
H2305 C2320 0.959 . S
H2306 C2320 0.961 . S
H2307 C2321 0.960 . S
H2308 C2321 0.961 . S
H2309 C2321 0.959 . S
H2310 C2324 0.929 . S
H2311 C2325 0.931 . S
H2312 C2327 0.930 . S
C2313 H2301 0.930 . S
C2313 C2314 1.399 . S
C2313 C2318 1.399 . S
C2314 C2313 1.399 . S
C2314 C2315 1.376 . S
C2315 H2302 0.930 . S
C2315 C2314 1.376 . S
C2315 C2316 1.388 . S
C2316 H2303 0.930 . S
C2316 C2315 1.388 . S
C2316 C2317 1.390 . S
C2317 C2316 1.390 . S
C2317 C2318 1.394 . S
C2317 C2323 1.465 . S
C2318 C2313 1.399 . S
C2318 C2317 1.394 . S
C2318 C2319 1.516 . S
C2319 C2318 1.516 . S
C2319 C2320 1.502 . S
C2319 C2321 1.561 . S
C2319 C2322 1.526 . S
C2320 H2304 0.959 . S
C2320 H2305 0.959 . S
C2320 H2306 0.961 . S
C2320 C2319 1.502 . S
C2321 H2307 0.960 . S
C2321 H2308 0.961 . S
C2321 H2309 0.959 . S
C2321 C2319 1.561 . S
C2322 C2319 1.526 . S
C2322 C2323 1.396 . S
C2322 C2327 1.390 . S
C2323 C2317 1.465 . S
C2323 C2322 1.396 . S
C2323 C2324 1.399 . S
C2324 H2310 0.929 . S
C2324 C2323 1.399 . S
C2324 C2325 1.385 . S
C2325 H2311 0.931 . S
C2325 C2324 1.385 . S
C2325 C2326 1.389 . S
C2326 C2325 1.389 . S
C2326 C2327 1.387 . S
C2327 H2312 0.930 . S
C2327 C2322 1.390 . S
C2327 C2326 1.387 . S
H2328 C2340 0.930 . S
H2329 C2342 0.930 . S
H2330 C2343 0.930 . S
H2331 C2347 0.959 . S
H2332 C2347 0.959 1_556 S
H2333 C2347 0.961 . S
H2334 C2348 0.960 . S
H2335 C2348 0.961 1_556 S
H2336 C2348 0.959 . S
H2337 C2351 0.929 . S
H2338 C2352 0.931 . S
H2339 C2354 0.930 . S
C2340 H2328 0.930 . S
C2340 C2341 1.399 . S
C2340 C2345 1.399 . S
C2341 C2340 1.399 . S
C2341 C2342 1.376 . S
C2342 H2329 0.930 . S
C2342 C2341 1.376 . S
C2342 C2343 1.388 . S
C2343 H2330 0.930 . S
C2343 C2342 1.388 . S
C2343 C2344 1.390 . S
C2344 C2343 1.390 . S
C2344 C2345 1.394 . S
C2344 C2350 1.465 . S
C2345 C2340 1.399 . S
C2345 C2344 1.394 . S
C2345 C2346 1.516 . S
C2346 C2345 1.516 . S
C2346 C2347 1.502 . S
C2346 C2348 1.561 . S
C2346 C2349 1.526 . S
C2347 H2331 0.959 . S
C2347 H2332 0.959 1_554 S
C2347 H2333 0.961 . S
C2347 C2346 1.502 . S
C2348 H2334 0.960 . S
C2348 H2335 0.961 1_554 S
C2348 H2336 0.959 . S
C2348 C2346 1.561 . S
C2349 C2346 1.526 . S
C2349 C2350 1.396 . S
C2349 C2354 1.390 . S
C2350 C2344 1.465 . S
C2350 C2349 1.396 . S
C2350 C2351 1.399 . S
C2351 H2337 0.929 . S
C2351 C2350 1.399 . S
C2351 C2352 1.385 . S
C2352 H2338 0.931 . S
C2352 C2351 1.385 . S
C2352 C2353 1.389 . S
C2353 C2352 1.389 . S
C2353 C2354 1.387 . S
C2354 H2339 0.930 . S
C2354 C2349 1.390 . S
C2354 C2353 1.387 . S
H2355 C2367 0.930 . S
H2356 C2369 0.930 . S
H2357 C2370 0.930 . S
H2358 C2374 0.959 . S
H2359 C2374 0.959 . S
H2360 C2374 0.961 . S
H2361 C2375 0.960 . S
H2362 C2375 0.961 . S
H2363 C2375 0.959 . S
H2364 C2378 0.929 . S
H2365 C2379 0.931 . S
H2366 C2381 0.930 . S
C2367 H2355 0.930 . S
C2367 C2368 1.399 . S
C2367 C2372 1.399 . S
C2368 C2367 1.399 . S
C2368 C2369 1.376 . S
C2369 H2356 0.930 . S
C2369 C2368 1.376 . S
C2369 C2370 1.388 . S
C2370 H2357 0.930 . S
C2370 C2369 1.388 . S
C2370 C2371 1.390 . S
C2371 C2370 1.390 . S
C2371 C2372 1.394 . S
C2371 C2377 1.465 . S
C2372 C2367 1.399 . S
C2372 C2371 1.394 . S
C2372 C2373 1.516 . S
C2373 C2372 1.516 . S
C2373 C2374 1.502 . S
C2373 C2375 1.561 . S
C2373 C2376 1.526 . S
C2374 H2358 0.959 . S
C2374 H2359 0.959 . S
C2374 H2360 0.961 . S
C2374 C2373 1.502 . S
C2375 H2361 0.960 . S
C2375 H2362 0.961 . S
C2375 H2363 0.959 . S
C2375 C2373 1.561 . S
C2376 C2373 1.526 . S
C2376 C2377 1.396 . S
C2376 C2381 1.390 . S
C2377 C2371 1.465 . S
C2377 C2376 1.396 . S
C2377 C2378 1.399 . S
C2378 H2364 0.929 . S
C2378 C2377 1.399 . S
C2378 C2379 1.385 . S
C2379 H2365 0.931 . S
C2379 C2378 1.385 . S
C2379 C2380 1.389 . S
C2380 C2379 1.389 . S
C2380 C2381 1.387 . S
C2381 H2366 0.930 . S
C2381 C2376 1.390 . S
C2381 C2380 1.387 . S
H2382 C2394 0.930 . S
H2383 C2396 0.930 . S
H2384 C2397 0.930 . S
H2385 C2401 0.959 . S
H2386 C2401 0.959 . S
H2387 C2401 0.961 . S
H2388 C2402 0.960 . S
H2389 C2402 0.961 . S
H2390 C2402 0.959 . S
H2391 C2405 0.929 . S
H2392 C2406 0.931 . S
H2393 C2408 0.930 . S
C2394 H2382 0.930 . S
C2394 C2395 1.399 . S
C2394 C2399 1.399 . S
C2395 C2394 1.399 . S
C2395 C2396 1.376 . S
C2396 H2383 0.930 . S
C2396 C2395 1.376 . S
C2396 C2397 1.388 . S
C2397 H2384 0.930 . S
C2397 C2396 1.388 . S
C2397 C2398 1.390 . S
C2398 C2397 1.390 . S
C2398 C2399 1.394 . S
C2398 C2404 1.465 . S
C2399 C2394 1.399 . S
C2399 C2398 1.394 . S
C2399 C2400 1.516 . S
C2400 C2399 1.516 . S
C2400 C2401 1.502 . S
C2400 C2402 1.561 . S
C2400 C2403 1.526 . S
C2401 H2385 0.959 . S
C2401 H2386 0.959 . S
C2401 H2387 0.961 . S
C2401 C2400 1.502 . S
C2402 H2388 0.960 . S
C2402 H2389 0.961 . S
C2402 H2390 0.959 . S
C2402 C2400 1.561 . S
C2403 C2400 1.526 . S
C2403 C2404 1.396 . S
C2403 C2408 1.390 . S
C2404 C2398 1.465 . S
C2404 C2403 1.396 . S
C2404 C2405 1.399 . S
C2405 H2391 0.929 . S
C2405 C2404 1.399 . S
C2405 C2406 1.385 . S
C2406 H2392 0.931 . S
C2406 C2405 1.385 . S
C2406 C2407 1.389 . S
C2407 C2406 1.389 . S
C2407 C2408 1.387 . S
C2408 H2393 0.930 . S
C2408 C2403 1.390 . S
C2408 C2407 1.387 . S
H2409 C2421 0.930 . S
H2410 C2423 0.930 . S
H2411 C2424 0.930 . S
H2412 C2428 0.959 . S
H2413 C2428 0.959 . S
H2414 C2428 0.961 . S
H2415 C2429 0.960 . S
H2416 C2429 0.961 . S
H2417 C2429 0.959 . S
H2418 C2432 0.929 . S
H2419 C2433 0.931 . S
H2420 C2435 0.930 . S
C2421 H2409 0.930 . S
C2421 C2422 1.399 . S
C2421 C2426 1.399 . S
C2422 C2421 1.399 . S
C2422 C2423 1.376 . S
C2423 H2410 0.930 . S
C2423 C2422 1.376 . S
C2423 C2424 1.388 . S
C2424 H2411 0.930 . S
C2424 C2423 1.388 . S
C2424 C2425 1.390 . S
C2425 C2424 1.390 . S
C2425 C2426 1.394 . S
C2425 C2431 1.465 . S
C2426 C2421 1.399 . S
C2426 C2425 1.394 . S
C2426 C2427 1.516 . S
C2427 C2426 1.516 . S
C2427 C2428 1.502 . S
C2427 C2429 1.561 . S
C2427 C2430 1.526 . S
C2428 H2412 0.959 . S
C2428 H2413 0.959 . S
C2428 H2414 0.961 . S
C2428 C2427 1.502 . S
C2429 H2415 0.960 . S
C2429 H2416 0.961 . S
C2429 H2417 0.959 . S
C2429 C2427 1.561 . S
C2430 C2427 1.526 . S
C2430 C2431 1.396 . S
C2430 C2435 1.390 . S
C2431 C2425 1.465 . S
C2431 C2430 1.396 . S
C2431 C2432 1.399 . S
C2432 H2418 0.929 . S
C2432 C2431 1.399 . S
C2432 C2433 1.385 . S
C2433 H2419 0.931 . S
C2433 C2432 1.385 . S
C2433 C2434 1.389 . S
C2434 C2433 1.389 . S
C2434 C2435 1.387 . S
C2435 H2420 0.930 . S
C2435 C2430 1.390 . S
C2435 C2434 1.387 . S
H2436 C2448 0.930 . S
H2437 C2450 0.930 . S
H2438 C2451 0.930 . S
H2439 C2455 0.959 . S
H2440 C2455 0.959 . S
H2441 C2455 0.961 . S
H2442 C2456 0.960 . S
H2443 C2456 0.961 . S
H2444 C2456 0.959 . S
H2445 C2459 0.929 . S
H2446 C2460 0.931 . S
H2447 C2462 0.930 . S
C2448 H2436 0.930 . S
C2448 C2449 1.399 . S
C2448 C2453 1.399 . S
C2449 C2448 1.399 . S
C2449 C2450 1.376 . S
C2450 H2437 0.930 . S
C2450 C2449 1.376 . S
C2450 C2451 1.388 . S
C2451 H2438 0.930 . S
C2451 C2450 1.388 . S
C2451 C2452 1.390 . S
C2452 C2451 1.390 . S
C2452 C2453 1.394 . S
C2452 C2458 1.465 . S
C2453 C2448 1.399 . S
C2453 C2452 1.394 . S
C2453 C2454 1.516 . S
C2454 C2453 1.516 . S
C2454 C2455 1.502 . S
C2454 C2456 1.561 . S
C2454 C2457 1.526 . S
C2455 H2439 0.959 . S
C2455 H2440 0.959 . S
C2455 H2441 0.961 . S
C2455 C2454 1.502 . S
C2456 H2442 0.960 . S
C2456 H2443 0.961 . S
C2456 H2444 0.959 . S
C2456 C2454 1.561 . S
C2457 C2454 1.526 . S
C2457 C2458 1.396 . S
C2457 C2462 1.390 . S
C2458 C2452 1.465 . S
C2458 C2457 1.396 . S
C2458 C2459 1.399 . S
C2459 H2445 0.929 . S
C2459 C2458 1.399 . S
C2459 C2460 1.385 . S
C2460 H2446 0.931 . S
C2460 C2459 1.385 . S
C2460 C2461 1.389 . S
C2461 C2460 1.389 . S
C2461 C2462 1.387 . S
C2462 H2447 0.930 . S
C2462 C2457 1.390 . S
C2462 C2461 1.387 . S
H2463 C2475 0.930 . S
H2464 C2477 0.930 . S
H2465 C2478 0.930 . S
H2466 C2482 0.959 . S
H2467 C2482 0.959 . S
H2468 C2482 0.961 . S
H2469 C2483 0.960 . S
H2470 C2483 0.961 . S
H2471 C2483 0.959 . S
H2472 C2486 0.929 . S
H2473 C2487 0.931 . S
H2474 C2489 0.930 . S
C2475 H2463 0.930 . S
C2475 C2476 1.399 . S
C2475 C2480 1.399 . S
C2476 C2475 1.399 . S
C2476 C2477 1.376 . S
C2477 H2464 0.930 . S
C2477 C2476 1.376 . S
C2477 C2478 1.388 . S
C2478 H2465 0.930 . S
C2478 C2477 1.388 . S
C2478 C2479 1.390 . S
C2479 C2478 1.390 . S
C2479 C2480 1.394 . S
C2479 C2485 1.465 . S
C2480 C2475 1.399 . S
C2480 C2479 1.394 . S
C2480 C2481 1.516 . S
C2481 C2480 1.516 . S
C2481 C2482 1.502 . S
C2481 C2483 1.561 . S
C2481 C2484 1.526 . S
C2482 H2466 0.959 . S
C2482 H2467 0.959 . S
C2482 H2468 0.961 . S
C2482 C2481 1.502 . S
C2483 H2469 0.960 . S
C2483 H2470 0.961 . S
C2483 H2471 0.959 . S
C2483 C2481 1.561 . S
C2484 C2481 1.526 . S
C2484 C2485 1.396 . S
C2484 C2489 1.390 . S
C2485 C2479 1.465 . S
C2485 C2484 1.396 . S
C2485 C2486 1.399 . S
C2486 H2472 0.929 . S
C2486 C2485 1.399 . S
C2486 C2487 1.385 . S
C2487 H2473 0.931 . S
C2487 C2486 1.385 . S
C2487 C2488 1.389 . S
C2488 C2487 1.389 . S
C2488 C2489 1.387 . S
C2489 H2474 0.930 . S
C2489 C2484 1.390 . S
C2489 C2488 1.387 . S
H2490 C2502 0.930 . S
H2491 C2504 0.930 . S
H2492 C2505 0.930 . S
H2493 C2509 0.959 . S
H2494 C2509 0.959 1_554 S
H2495 C2509 0.961 . S
H2496 C2510 0.960 . S
H2497 C2510 0.961 . S
H2498 C2510 0.959 . S
H2499 C2513 0.929 . S
H2500 C2514 0.931 . S
H2501 C2516 0.930 1_554 S
C2502 H2490 0.930 . S
C2502 C2503 1.399 . S
C2502 C2507 1.399 . S
C2503 C2502 1.399 . S
C2503 C2504 1.376 . S
C2504 H2491 0.930 . S
C2504 C2503 1.376 . S
C2504 C2505 1.388 . S
C2505 H2492 0.930 . S
C2505 C2504 1.388 . S
C2505 C2506 1.390 . S
C2506 C2505 1.390 . S
C2506 C2507 1.394 . S
C2506 C2512 1.465 . S
C2507 C2502 1.399 . S
C2507 C2506 1.394 . S
C2507 C2508 1.516 . S
C2508 C2507 1.516 . S
C2508 C2509 1.502 . S
C2508 C2510 1.561 . S
C2508 C2511 1.526 . S
C2509 H2493 0.959 . S
C2509 H2494 0.959 1_556 S
C2509 H2495 0.961 . S
C2509 C2508 1.502 . S
C2510 H2496 0.960 . S
C2510 H2497 0.961 . S
C2510 H2498 0.959 . S
C2510 C2508 1.561 . S
C2511 C2508 1.526 . S
C2511 C2512 1.396 . S
C2511 C2516 1.390 . S
C2512 C2506 1.465 . S
C2512 C2511 1.396 . S
C2512 C2513 1.399 . S
C2513 H2499 0.929 . S
C2513 C2512 1.399 . S
C2513 C2514 1.385 . S
C2514 H2500 0.931 . S
C2514 C2513 1.385 . S
C2514 C2515 1.389 . S
C2515 C2514 1.389 . S
C2515 C2516 1.387 . S
C2516 H2501 0.930 1_556 S
C2516 C2511 1.390 . S
C2516 C2515 1.387 . S
H2517 C2529 0.930 . S
H2518 C2531 0.930 . S
H2519 C2532 0.930 . S
H2520 C2536 0.959 . S
H2521 C2536 0.959 . S
H2522 C2536 0.961 . S
H2523 C2537 0.960 . S
H2524 C2537 0.961 . S
H2525 C2537 0.959 . S
H2526 C2540 0.929 . S
H2527 C2541 0.931 . S
H2528 C2543 0.930 . S
C2529 H2517 0.930 . S
C2529 C2530 1.399 . S
C2529 C2534 1.399 . S
C2530 C2529 1.399 . S
C2530 C2531 1.376 . S
C2531 H2518 0.930 . S
C2531 C2530 1.376 . S
C2531 C2532 1.388 . S
C2532 H2519 0.930 . S
C2532 C2531 1.388 . S
C2532 C2533 1.390 . S
C2533 C2532 1.390 . S
C2533 C2534 1.394 . S
C2533 C2539 1.465 . S
C2534 C2529 1.399 . S
C2534 C2533 1.394 . S
C2534 C2535 1.516 . S
C2535 C2534 1.516 . S
C2535 C2536 1.502 . S
C2535 C2537 1.561 . S
C2535 C2538 1.526 . S
C2536 H2520 0.959 . S
C2536 H2521 0.959 . S
C2536 H2522 0.961 . S
C2536 C2535 1.502 . S
C2537 H2523 0.960 . S
C2537 H2524 0.961 . S
C2537 H2525 0.959 . S
C2537 C2535 1.561 . S
C2538 C2535 1.526 . S
C2538 C2539 1.396 . S
C2538 C2543 1.390 . S
C2539 C2533 1.465 . S
C2539 C2538 1.396 . S
C2539 C2540 1.399 . S
C2540 H2526 0.929 . S
C2540 C2539 1.399 . S
C2540 C2541 1.385 . S
C2541 H2527 0.931 . S
C2541 C2540 1.385 . S
C2541 C2542 1.389 . S
C2542 C2541 1.389 . S
C2542 C2543 1.387 . S
C2543 H2528 0.930 . S
C2543 C2538 1.390 . S
C2543 C2542 1.387 . S
H2544 C2556 0.930 . S
H2545 C2558 0.930 . S
H2546 C2559 0.930 . S
H2547 C2563 0.959 . S
H2548 C2563 0.959 . S
H2549 C2563 0.961 . S
H2550 C2564 0.960 . S
H2551 C2564 0.961 . S
H2552 C2564 0.959 . S
H2553 C2567 0.929 . S
H2554 C2568 0.931 . S
H2555 C2570 0.930 . S
C2556 H2544 0.930 . S
C2556 C2557 1.399 1_565 S
C2556 C2561 1.399 . S
C2557 C2556 1.399 1_545 S
C2557 C2558 1.376 . S
C2558 H2545 0.930 . S
C2558 C2557 1.376 . S
C2558 C2559 1.388 . S
C2559 H2546 0.930 . S
C2559 C2558 1.388 . S
C2559 C2560 1.390 . S
C2560 C2559 1.390 . S
C2560 C2561 1.394 1_545 S
C2560 C2566 1.465 . S
C2561 C2556 1.399 . S
C2561 C2560 1.394 1_565 S
C2561 C2562 1.516 . S
C2562 C2561 1.516 . S
C2562 C2563 1.502 . S
C2562 C2564 1.561 . S
C2562 C2565 1.526 . S
C2563 H2547 0.959 . S
C2563 H2548 0.959 . S
C2563 H2549 0.961 . S
C2563 C2562 1.502 . S
C2564 H2550 0.960 . S
C2564 H2551 0.961 . S
C2564 H2552 0.959 . S
C2564 C2562 1.561 . S
C2565 C2562 1.526 . S
C2565 C2566 1.396 1_565 S
C2565 C2570 1.390 . S
C2566 C2560 1.465 . S
C2566 C2565 1.396 1_545 S
C2566 C2567 1.399 . S
C2567 H2553 0.929 . S
C2567 C2566 1.399 . S
C2567 C2568 1.385 . S
C2568 H2554 0.931 . S
C2568 C2567 1.385 . S
C2568 C2569 1.389 . S
C2569 C2568 1.389 . S
C2569 C2570 1.387 1_545 S
C2570 H2555 0.930 . S
C2570 C2565 1.390 . S
C2570 C2569 1.387 1_565 S
H2571 C2583 0.930 . S
H2572 C2585 0.930 . S
H2573 C2586 0.930 . S
H2574 C2590 0.959 . S
H2575 C2590 0.959 . S
H2576 C2590 0.961 . S
H2577 C2591 0.960 . S
H2578 C2591 0.961 . S
H2579 C2591 0.959 . S
H2580 C2594 0.929 . S
H2581 C2595 0.931 . S
H2582 C2597 0.930 . S
C2583 H2571 0.930 . S
C2583 C2584 1.399 . S
C2583 C2588 1.399 . S
C2584 C2583 1.399 . S
C2584 C2585 1.376 . S
C2585 H2572 0.930 . S
C2585 C2584 1.376 . S
C2585 C2586 1.388 . S
C2586 H2573 0.930 . S
C2586 C2585 1.388 . S
C2586 C2587 1.390 . S
C2587 C2586 1.390 . S
C2587 C2588 1.394 . S
C2587 C2593 1.465 . S
C2588 C2583 1.399 . S
C2588 C2587 1.394 . S
C2588 C2589 1.516 . S
C2589 C2588 1.516 . S
C2589 C2590 1.502 . S
C2589 C2591 1.561 . S
C2589 C2592 1.526 . S
C2590 H2574 0.959 . S
C2590 H2575 0.959 . S
C2590 H2576 0.961 . S
C2590 C2589 1.502 . S
C2591 H2577 0.960 . S
C2591 H2578 0.961 . S
C2591 H2579 0.959 . S
C2591 C2589 1.561 . S
C2592 C2589 1.526 . S
C2592 C2593 1.396 . S
C2592 C2597 1.390 . S
C2593 C2587 1.465 . S
C2593 C2592 1.396 . S
C2593 C2594 1.399 . S
C2594 H2580 0.929 . S
C2594 C2593 1.399 . S
C2594 C2595 1.385 . S
C2595 H2581 0.931 . S
C2595 C2594 1.385 . S
C2595 C2596 1.389 . S
C2596 C2595 1.389 . S
C2596 C2597 1.387 . S
C2597 H2582 0.930 . S
C2597 C2592 1.390 . S
C2597 C2596 1.387 . S
H2598 C2610 0.930 . S
H2599 C2612 0.904 1_565 S
H2600 C2613 0.930 . S
H2601 C2617 0.959 . S
H2602 C2617 0.959 . S
H2603 C2617 0.961 . S
H2604 C2618 0.960 . S
H2605 C2618 0.961 . S
H2606 C2618 0.959 . S
H2607 C2621 0.929 1_565 S
H2608 C2622 0.933 . S
H2609 C2624 0.930 . S
C2610 H2598 0.930 . S
C2610 C2611 1.399 . S
C2610 C2615 1.399 . S
C2611 C2610 1.399 . S
C2611 C2612 1.421 . S
C2612 H2599 0.904 1_545 S
C2612 C2611 1.421 . S
C2612 C2613 1.371 1_545 S
C2613 H2600 0.930 . S
C2613 C2612 1.371 1_565 S
C2613 C2614 1.390 1_565 S
C2614 C2613 1.390 1_545 S
C2614 C2615 1.394 . S
C2614 C2620 1.465 . S
C2615 C2610 1.399 . S
C2615 C2614 1.394 . S
C2615 C2616 1.516 . S
C2616 C2615 1.516 . S
C2616 C2617 1.502 . S
C2616 C2618 1.561 . S
C2616 C2619 1.526 . S
C2617 H2601 0.959 . S
C2617 H2602 0.959 . S
C2617 H2603 0.961 . S
C2617 C2616 1.502 . S
C2618 H2604 0.960 . S
C2618 H2605 0.961 . S
C2618 H2606 0.959 . S
C2618 C2616 1.561 . S
C2619 C2616 1.526 . S
C2619 C2620 1.396 . S
C2619 C2624 1.390 . S
C2620 C2614 1.465 . S
C2620 C2619 1.396 . S
C2620 C2621 1.399 . S
C2621 H2607 0.929 1_545 S
C2621 C2620 1.399 . S
C2621 C2622 1.385 . S
C2622 H2608 0.933 . S
C2622 C2621 1.385 . S
C2622 C2623 1.389 . S
C2623 C2622 1.389 . S
C2623 C2624 1.387 . S
C2624 H2609 0.930 . S
C2624 C2619 1.390 . S
C2624 C2623 1.387 . S
H2625 C2637 0.930 . S
H2626 C2639 0.930 . S
H2627 C2640 0.930 . S
H2628 C2644 0.959 . S
H2629 C2644 0.959 . S
H2630 C2644 0.961 . S
H2631 C2645 0.960 . S
H2632 C2645 0.961 . S
H2633 C2645 0.959 . S
H2634 C2648 0.929 . S
H2635 C2649 0.931 . S
H2636 C2651 0.930 . S
C2637 H2625 0.930 . S
C2637 C2638 1.399 . S
C2637 C2642 1.399 . S
C2638 C2637 1.399 . S
C2638 C2639 1.376 . S
C2639 H2626 0.930 . S
C2639 C2638 1.376 . S
C2639 C2640 1.388 . S
C2640 H2627 0.930 . S
C2640 C2639 1.388 . S
C2640 C2641 1.390 . S
C2641 C2640 1.390 . S
C2641 C2642 1.394 . S
C2641 C2647 1.465 . S
C2642 C2637 1.399 . S
C2642 C2641 1.394 . S
C2642 C2643 1.516 . S
C2643 C2642 1.516 . S
C2643 C2644 1.502 . S
C2643 C2645 1.561 . S
C2643 C2646 1.526 . S
C2644 H2628 0.959 . S
C2644 H2629 0.959 . S
C2644 H2630 0.961 . S
C2644 C2643 1.502 . S
C2645 H2631 0.960 . S
C2645 H2632 0.961 . S
C2645 H2633 0.959 . S
C2645 C2643 1.561 . S
C2646 C2643 1.526 . S
C2646 C2647 1.396 . S
C2646 C2651 1.390 . S
C2647 C2641 1.465 . S
C2647 C2646 1.396 . S
C2647 C2648 1.399 . S
C2648 H2634 0.929 . S
C2648 C2647 1.399 . S
C2648 C2649 1.385 . S
C2649 H2635 0.931 . S
C2649 C2648 1.385 . S
C2649 C2650 1.389 . S
C2650 C2649 1.389 . S
C2650 C2651 1.387 . S
C2651 H2636 0.930 . S
C2651 C2646 1.390 . S
C2651 C2650 1.387 . S
H2652 C2664 0.930 . S
H2653 C2666 0.930 . S
H2654 C2667 0.930 . S
H2655 C2671 0.959 . S
H2656 C2671 0.959 . S
H2657 C2671 0.961 . S
H2658 C2672 0.960 . S
H2659 C2672 0.961 . S
H2660 C2672 0.959 . S
H2661 C2675 0.929 . S
H2662 C2676 0.931 . S
H2663 C2678 0.930 . S
C2664 H2652 0.930 . S
C2664 C2665 1.399 1_545 S
C2664 C2669 1.399 . S
C2665 C2664 1.399 1_565 S
C2665 C2666 1.376 . S
C2666 H2653 0.930 . S
C2666 C2665 1.376 . S
C2666 C2667 1.388 . S
C2667 H2654 0.930 . S
C2667 C2666 1.388 . S
C2667 C2668 1.390 . S
C2668 C2667 1.390 . S
C2668 C2669 1.394 1_565 S
C2668 C2674 1.464 . S
C2669 C2664 1.399 . S
C2669 C2668 1.394 1_545 S
C2669 C2670 1.516 . S
C2670 C2669 1.516 . S
C2670 C2671 1.502 . S
C2670 C2672 1.561 . S
C2670 C2673 1.526 . S
C2671 H2655 0.959 . S
C2671 H2656 0.959 . S
C2671 H2657 0.961 . S
C2671 C2670 1.502 . S
C2672 H2658 0.960 . S
C2672 H2659 0.961 . S
C2672 H2660 0.959 . S
C2672 C2670 1.561 . S
C2673 C2670 1.526 . S
C2673 C2674 1.397 1_545 S
C2673 C2678 1.390 . S
C2674 C2668 1.464 . S
C2674 C2673 1.397 1_565 S
C2674 C2675 1.398 . S
C2675 H2661 0.929 . S
C2675 C2674 1.398 . S
C2675 C2676 1.385 . S
C2676 H2662 0.931 . S
C2676 C2675 1.385 . S
C2676 C2677 1.389 1_565 S
C2677 C2676 1.389 1_545 S
C2677 C2678 1.387 . S
C2678 H2663 0.930 . S
C2678 C2673 1.390 . S
C2678 C2677 1.387 . S
H2679 C2691 0.930 . S
H2680 C2693 0.930 . S
H2681 C2694 0.930 . S
H2682 C2698 0.959 . S
H2683 C2698 0.959 . S
H2684 C2698 0.961 . S
H2685 C2699 0.960 . S
H2686 C2699 0.961 . S
H2687 C2699 0.959 . S
H2688 C2702 0.929 . S
H2689 C2703 0.931 . S
H2690 C2705 0.930 . S
C2691 H2679 0.930 . S
C2691 C2692 1.399 . S
C2691 C2696 1.399 . S
C2692 C2691 1.399 . S
C2692 C2693 1.376 . S
C2693 H2680 0.930 . S
C2693 C2692 1.376 . S
C2693 C2694 1.388 . S
C2694 H2681 0.930 . S
C2694 C2693 1.388 . S
C2694 C2695 1.390 . S
C2695 C2694 1.390 . S
C2695 C2696 1.394 . S
C2695 C2701 1.465 . S
C2696 C2691 1.399 . S
C2696 C2695 1.394 . S
C2696 C2697 1.516 . S
C2697 C2696 1.516 . S
C2697 C2698 1.502 . S
C2697 C2699 1.561 . S
C2697 C2700 1.526 . S
C2698 H2682 0.959 . S
C2698 H2683 0.959 . S
C2698 H2684 0.961 . S
C2698 C2697 1.502 . S
C2699 H2685 0.960 . S
C2699 H2686 0.961 . S
C2699 H2687 0.959 . S
C2699 C2697 1.561 . S
C2700 C2697 1.526 . S
C2700 C2701 1.396 . S
C2700 C2705 1.390 . S
C2701 C2695 1.465 . S
C2701 C2700 1.396 . S
C2701 C2702 1.399 . S
C2702 H2688 0.929 . S
C2702 C2701 1.399 . S
C2702 C2703 1.385 . S
C2703 H2689 0.931 . S
C2703 C2702 1.385 . S
C2703 C2704 1.389 . S
C2704 C2703 1.389 . S
C2704 C2705 1.387 . S
C2705 H2690 0.930 . S
C2705 C2700 1.390 . S
C2705 C2704 1.387 . S
H2706 C2718 0.930 . S
H2707 C2720 0.930 . S
H2708 C2721 0.930 . S
H2709 C2725 0.959 . S
H2710 C2725 0.959 . S
H2711 C2725 0.961 . S
H2712 C2726 0.960 . S
H2713 C2726 0.961 . S
H2714 C2726 0.959 . S
H2715 C2729 0.929 . S
H2716 C2730 0.931 . S
H2717 C2732 0.930 . S
C2718 H2706 0.930 . S
C2718 C2719 1.399 . S
C2718 C2723 1.399 . S
C2719 C2718 1.399 . S
C2719 C2720 1.376 1_545 S
C2720 H2707 0.930 . S
C2720 C2719 1.376 1_565 S
C2720 C2721 1.388 . S
C2721 H2708 0.930 . S
C2721 C2720 1.388 . S
C2721 C2722 1.390 1_565 S
C2722 C2721 1.390 1_545 S
C2722 C2723 1.394 . S
C2722 C2728 1.465 . S
C2723 C2718 1.399 . S
C2723 C2722 1.394 . S
C2723 C2724 1.516 . S
C2724 C2723 1.516 . S
C2724 C2725 1.502 . S
C2724 C2726 1.561 . S
C2724 C2727 1.526 . S
C2725 H2709 0.959 . S
C2725 H2710 0.959 . S
C2725 H2711 0.961 . S
C2725 C2724 1.502 . S
C2726 H2712 0.960 . S
C2726 H2713 0.961 . S
C2726 H2714 0.959 . S
C2726 C2724 1.561 . S
C2727 C2724 1.526 . S
C2727 C2728 1.396 . S
C2727 C2732 1.390 . S
C2728 C2722 1.465 . S
C2728 C2727 1.396 . S
C2728 C2729 1.399 1_545 S
C2729 H2715 0.929 . S
C2729 C2728 1.399 1_565 S
C2729 C2730 1.385 . S
C2730 H2716 0.931 . S
C2730 C2729 1.385 . S
C2730 C2731 1.389 1_565 S
C2731 C2730 1.389 1_545 S
C2731 C2732 1.387 . S
C2732 H2717 0.930 . S
C2732 C2727 1.390 . S
C2732 C2731 1.387 . S
H2733 C2745 0.930 . S
H2734 C2747 0.930 . S
H2735 C2748 0.930 . S
H2736 C2752 0.959 . S
H2737 C2752 0.959 . S
H2738 C2752 0.961 . S
H2739 C2753 0.960 . S
H2740 C2753 0.961 . S
H2741 C2753 0.959 . S
H2742 C2756 0.929 . S
H2743 C2757 0.931 . S
H2744 C2759 0.930 . S
C2745 H2733 0.930 . S
C2745 C2746 1.399 . S
C2745 C2750 1.399 . S
C2746 C2745 1.399 . S
C2746 C2747 1.376 . S
C2747 H2734 0.930 . S
C2747 C2746 1.376 . S
C2747 C2748 1.388 . S
C2748 H2735 0.930 . S
C2748 C2747 1.388 . S
C2748 C2749 1.390 . S
C2749 C2748 1.390 . S
C2749 C2750 1.394 . S
C2749 C2755 1.465 . S
C2750 C2745 1.399 . S
C2750 C2749 1.394 . S
C2750 C2751 1.516 . S
C2751 C2750 1.516 . S
C2751 C2752 1.502 . S
C2751 C2753 1.561 . S
C2751 C2754 1.526 . S
C2752 H2736 0.959 . S
C2752 H2737 0.959 . S
C2752 H2738 0.961 . S
C2752 C2751 1.502 . S
C2753 H2739 0.960 . S
C2753 H2740 0.961 . S
C2753 H2741 0.959 . S
C2753 C2751 1.561 . S
C2754 C2751 1.526 . S
C2754 C2755 1.396 . S
C2754 C2759 1.390 . S
C2755 C2749 1.465 . S
C2755 C2754 1.396 . S
C2755 C2756 1.399 . S
C2756 H2742 0.929 . S
C2756 C2755 1.399 . S
C2756 C2757 1.385 . S
C2757 H2743 0.931 . S
C2757 C2756 1.385 . S
C2757 C2758 1.389 . S
C2758 C2757 1.389 . S
C2758 C2759 1.387 . S
C2759 H2744 0.930 . S
C2759 C2754 1.390 . S
C2759 C2758 1.387 . S
H2760 C2772 0.930 1_556 S
H2761 C2774 0.930 . S
H2762 C2775 0.930 . S
H2763 C2779 0.959 . S
H2764 C2779 0.959 . S
H2765 C2779 0.961 . S
H2766 C2780 0.960 . S
H2767 C2780 0.961 . S
H2768 C2780 0.959 . S
H2769 C2783 0.929 . S
H2770 C2784 0.931 . S
H2771 C2786 0.930 . S
C2772 H2760 0.930 1_554 S
C2772 C2773 1.399 . S
C2772 C2777 1.399 . S
C2773 C2772 1.399 . S
C2773 C2774 1.376 . S
C2774 H2761 0.930 . S
C2774 C2773 1.376 . S
C2774 C2775 1.388 . S
C2775 H2762 0.930 . S
C2775 C2774 1.388 . S
C2775 C2776 1.390 . S
C2776 C2775 1.390 . S
C2776 C2777 1.394 . S
C2776 C2782 1.465 . S
C2777 C2772 1.399 . S
C2777 C2776 1.394 . S
C2777 C2778 1.516 1_554 S
C2778 C2777 1.516 1_556 S
C2778 C2779 1.502 . S
C2778 C2780 1.561 . S
C2778 C2781 1.526 1_556 S
C2779 H2763 0.959 . S
C2779 H2764 0.959 . S
C2779 H2765 0.961 . S
C2779 C2778 1.502 . S
C2780 H2766 0.960 . S
C2780 H2767 0.961 . S
C2780 H2768 0.959 . S
C2780 C2778 1.561 . S
C2781 C2778 1.526 1_554 S
C2781 C2782 1.396 . S
C2781 C2786 1.390 1_554 S
C2782 C2776 1.465 . S
C2782 C2781 1.396 . S
C2782 C2783 1.399 . S
C2783 H2769 0.929 . S
C2783 C2782 1.399 . S
C2783 C2784 1.385 . S
C2784 H2770 0.931 . S
C2784 C2783 1.385 . S
C2784 C2785 1.389 . S
C2785 C2784 1.389 . S
C2785 C2786 1.387 1_554 S
C2786 H2771 0.930 . S
C2786 C2781 1.390 1_556 S
C2786 C2785 1.387 1_556 S
H2787 C2799 0.930 . S
H2788 C2801 0.930 . S
H2789 C2802 0.930 1_556 S
H2790 C2806 0.959 . S
H2791 C2806 0.959 . S
H2792 C2806 0.961 . S
H2793 C2807 0.960 . S
H2794 C2807 0.961 . S
H2795 C2807 0.959 . S
H2796 C2810 0.929 1_556 S
H2797 C2811 0.961 . S
H2798 C2813 0.930 . S
C2799 H2787 0.930 . S
C2799 C2800 1.399 . S
C2799 C2804 1.399 . S
C2800 C2799 1.399 . S
C2800 C2801 1.376 . S
C2801 H2788 0.930 . S
C2801 C2800 1.376 . S
C2801 C2802 1.388 . S
C2802 H2789 0.930 1_554 S
C2802 C2801 1.388 . S
C2802 C2803 1.390 . S
C2803 C2802 1.390 . S
C2803 C2804 1.394 . S
C2803 C2809 1.465 . S
C2804 C2799 1.399 . S
C2804 C2803 1.394 . S
C2804 C2805 1.516 . S
C2805 C2804 1.516 . S
C2805 C2806 1.502 . S
C2805 C2807 1.561 . S
C2805 C2808 1.526 . S
C2806 H2790 0.959 . S
C2806 H2791 0.959 . S
C2806 H2792 0.961 . S
C2806 C2805 1.502 . S
C2807 H2793 0.960 . S
C2807 H2794 0.961 . S
C2807 H2795 0.959 . S
C2807 C2805 1.561 . S
C2808 C2805 1.526 . S
C2808 C2809 1.396 . S
C2808 C2813 1.390 . S
C2809 C2803 1.465 . S
C2809 C2808 1.396 . S
C2809 C2810 1.399 . S
C2810 H2796 0.929 1_554 S
C2810 C2809 1.399 . S
C2810 C2811 1.385 . S
C2811 H2797 0.961 . S
C2811 C2810 1.385 . S
C2811 C2812 1.389 . S
C2812 C2811 1.389 . S
C2812 C2813 1.387 . S
C2813 H2798 0.930 . S
C2813 C2808 1.390 . S
C2813 C2812 1.387 . S
H2814 C2826 0.930 . S
H2815 C2828 0.930 . S
H2816 C2829 0.930 . S
H2817 C2833 0.959 . S
H2818 C2833 0.959 . S
H2819 C2833 0.961 . S
H2820 C2834 0.960 . S
H2821 C2834 0.961 . S
H2822 C2834 0.959 . S
H2823 C2837 0.929 . S
H2824 C2838 0.931 . S
H2825 C2840 0.930 . S
C2826 H2814 0.930 . S
C2826 C2827 1.399 . S
C2826 C2831 1.399 . S
C2827 C2826 1.399 . S
C2827 C2828 1.376 . S
C2828 H2815 0.930 . S
C2828 C2827 1.376 . S
C2828 C2829 1.388 . S
C2829 H2816 0.930 . S
C2829 C2828 1.388 . S
C2829 C2830 1.390 . S
C2830 C2829 1.390 . S
C2830 C2831 1.394 . S
C2830 C2836 1.465 . S
C2831 C2826 1.399 . S
C2831 C2830 1.394 . S
C2831 C2832 1.516 . S
C2832 C2831 1.516 . S
C2832 C2833 1.502 . S
C2832 C2834 1.561 . S
C2832 C2835 1.526 . S
C2833 H2817 0.959 . S
C2833 H2818 0.959 . S
C2833 H2819 0.961 . S
C2833 C2832 1.502 . S
C2834 H2820 0.960 . S
C2834 H2821 0.961 . S
C2834 H2822 0.959 . S
C2834 C2832 1.561 . S
C2835 C2832 1.526 . S
C2835 C2836 1.396 . S
C2835 C2840 1.390 . S
C2836 C2830 1.465 . S
C2836 C2835 1.396 . S
C2836 C2837 1.399 . S
C2837 H2823 0.929 . S
C2837 C2836 1.399 . S
C2837 C2838 1.385 . S
C2838 H2824 0.931 . S
C2838 C2837 1.385 . S
C2838 C2839 1.389 . S
C2839 C2838 1.389 . S
C2839 C2840 1.387 . S
C2840 H2825 0.930 . S
C2840 C2835 1.390 . S
C2840 C2839 1.387 . S
H2841 C2853 0.930 . S
H2842 C2855 0.930 . S
H2843 C2856 0.930 . S
H2844 C2860 0.959 . S
H2845 C2860 0.959 . S
H2846 C2860 0.961 . S
H2847 C2861 0.960 . S
H2848 C2861 0.961 . S
H2849 C2861 0.959 . S
H2850 C2864 0.929 . S
H2851 C2865 0.931 . S
H2852 C2867 0.930 . S
C2853 H2841 0.930 . S
C2853 C2854 1.399 . S
C2853 C2858 1.399 . S
C2854 C2853 1.399 . S
C2854 C2855 1.376 . S
C2855 H2842 0.930 . S
C2855 C2854 1.376 . S
C2855 C2856 1.388 . S
C2856 H2843 0.930 . S
C2856 C2855 1.388 . S
C2856 C2857 1.390 . S
C2857 C2856 1.390 . S
C2857 C2858 1.394 . S
C2857 C2863 1.465 . S
C2858 C2853 1.399 . S
C2858 C2857 1.394 . S
C2858 C2859 1.516 . S
C2859 C2858 1.516 . S
C2859 C2860 1.502 . S
C2859 C2861 1.561 . S
C2859 C2862 1.526 . S
C2860 H2844 0.959 . S
C2860 H2845 0.959 . S
C2860 H2846 0.961 . S
C2860 C2859 1.502 . S
C2861 H2847 0.960 . S
C2861 H2848 0.961 . S
C2861 H2849 0.959 . S
C2861 C2859 1.561 . S
C2862 C2859 1.526 . S
C2862 C2863 1.396 . S
C2862 C2867 1.390 . S
C2863 C2857 1.465 . S
C2863 C2862 1.396 . S
C2863 C2864 1.399 . S
C2864 H2850 0.929 . S
C2864 C2863 1.399 . S
C2864 C2865 1.385 . S
C2865 H2851 0.931 . S
C2865 C2864 1.385 . S
C2865 C2866 1.389 . S
C2866 C2865 1.389 . S
C2866 C2867 1.387 . S
C2867 H2852 0.930 . S
C2867 C2862 1.390 . S
C2867 C2866 1.387 . S
H2868 C2880 0.930 . S
H2869 C2882 0.930 . S
H2870 C2883 0.933 . S
H2871 C2887 0.959 . S
H2872 C2887 0.959 . S
H2873 C2887 0.961 . S
H2874 C2888 0.960 . S
H2875 C2888 0.961 . S
H2876 C2888 0.959 . S
H2877 C2891 0.929 . S
H2878 C2892 0.931 . S
H2879 C2894 0.930 . S
C2880 H2868 0.930 . S
C2880 C2881 1.399 . S
C2880 C2885 1.399 . S
C2881 C2880 1.399 . S
C2881 C2882 1.376 1_565 S
C2882 H2869 0.930 . S
C2882 C2881 1.376 1_545 S
C2882 C2883 1.388 1_545 S
C2883 H2870 0.933 . S
C2883 C2882 1.388 1_565 S
C2883 C2884 1.390 . S
C2884 C2883 1.390 . S
C2884 C2885 1.394 . S
C2884 C2890 1.465 . S
C2885 C2880 1.399 . S
C2885 C2884 1.394 . S
C2885 C2886 1.516 . S
C2886 C2885 1.516 . S
C2886 C2887 1.502 . S
C2886 C2888 1.561 . S
C2886 C2889 1.526 . S
C2887 H2871 0.959 . S
C2887 H2872 0.959 . S
C2887 H2873 0.961 . S
C2887 C2886 1.502 . S
C2888 H2874 0.960 . S
C2888 H2875 0.961 . S
C2888 H2876 0.959 . S
C2888 C2886 1.561 . S
C2889 C2886 1.526 . S
C2889 C2890 1.396 . S
C2889 C2894 1.390 . S
C2890 C2884 1.465 . S
C2890 C2889 1.396 . S
C2890 C2891 1.399 . S
C2891 H2877 0.929 . S
C2891 C2890 1.399 . S
C2891 C2892 1.385 . S
C2892 H2878 0.931 . S
C2892 C2891 1.385 . S
C2892 C2893 1.389 . S
C2893 C2892 1.389 . S
C2893 C2894 1.387 . S
C2894 H2879 0.930 . S
C2894 C2889 1.390 . S
C2894 C2893 1.387 . S
H2895 C2907 0.930 . S
H2896 C2909 0.930 . S
H2897 C2910 0.930 . S
H2898 C2914 0.959 . S
H2899 C2914 0.959 . S
H2900 C2914 0.961 . S
H2901 C2915 0.960 . S
H2902 C2915 0.961 . S
H2903 C2915 0.959 . S
H2904 C2918 0.929 . S
H2905 C2919 0.931 . S
H2906 C2921 0.930 . S
C2907 H2895 0.930 . S
C2907 C2908 1.399 . S
C2907 C2912 1.399 . S
C2908 C2907 1.399 . S
C2908 C2909 1.376 . S
C2909 H2896 0.930 . S
C2909 C2908 1.376 . S
C2909 C2910 1.388 . S
C2910 H2897 0.930 . S
C2910 C2909 1.388 . S
C2910 C2911 1.390 . S
C2911 C2910 1.390 . S
C2911 C2912 1.394 . S
C2911 C2917 1.465 . S
C2912 C2907 1.399 . S
C2912 C2911 1.394 . S
C2912 C2913 1.516 . S
C2913 C2912 1.516 . S
C2913 C2914 1.502 . S
C2913 C2915 1.561 . S
C2913 C2916 1.526 . S
C2914 H2898 0.959 . S
C2914 H2899 0.959 . S
C2914 H2900 0.961 . S
C2914 C2913 1.502 . S
C2915 H2901 0.960 . S
C2915 H2902 0.961 . S
C2915 H2903 0.959 . S
C2915 C2913 1.561 . S
C2916 C2913 1.526 . S
C2916 C2917 1.396 . S
C2916 C2921 1.390 . S
C2917 C2911 1.465 . S
C2917 C2916 1.396 . S
C2917 C2918 1.399 . S
C2918 H2904 0.929 . S
C2918 C2917 1.399 . S
C2918 C2919 1.385 . S
C2919 H2905 0.931 . S
C2919 C2918 1.385 . S
C2919 C2920 1.389 . S
C2920 C2919 1.389 . S
C2920 C2921 1.387 . S
C2921 H2906 0.930 . S
C2921 C2916 1.390 . S
C2921 C2920 1.387 . S
H2922 C2934 0.930 . S
H2923 C2936 0.930 . S
H2924 C2937 0.930 . S
H2925 C2941 0.959 . S
H2926 C2941 0.959 . S
H2927 C2941 0.961 . S
H2928 C2942 0.960 . S
H2929 C2942 0.961 . S
H2930 C2942 0.959 . S
H2931 C2945 0.929 . S
H2932 C2946 0.931 . S
H2933 C2948 0.930 . S
C2934 H2922 0.930 . S
C2934 C2935 1.399 . S
C2934 C2939 1.399 . S
C2935 C2934 1.399 . S
C2935 C2936 1.376 . S
C2936 H2923 0.930 . S
C2936 C2935 1.376 . S
C2936 C2937 1.388 . S
C2937 H2924 0.930 . S
C2937 C2936 1.388 . S
C2937 C2938 1.390 . S
C2938 C2937 1.390 . S
C2938 C2939 1.394 . S
C2938 C2944 1.465 . S
C2939 C2934 1.399 . S
C2939 C2938 1.394 . S
C2939 C2940 1.516 . S
C2940 C2939 1.516 . S
C2940 C2941 1.502 . S
C2940 C2942 1.561 . S
C2940 C2943 1.526 . S
C2941 H2925 0.959 . S
C2941 H2926 0.959 . S
C2941 H2927 0.961 . S
C2941 C2940 1.502 . S
C2942 H2928 0.960 . S
C2942 H2929 0.961 . S
C2942 H2930 0.959 . S
C2942 C2940 1.561 . S
C2943 C2940 1.526 . S
C2943 C2944 1.396 . S
C2943 C2948 1.390 . S
C2944 C2938 1.465 . S
C2944 C2943 1.396 . S
C2944 C2945 1.399 . S
C2945 H2931 0.929 . S
C2945 C2944 1.399 . S
C2945 C2946 1.385 . S
C2946 H2932 0.931 . S
C2946 C2945 1.385 . S
C2946 C2947 1.389 . S
C2947 C2946 1.389 . S
C2947 C2948 1.387 . S
C2948 H2933 0.930 . S
C2948 C2943 1.390 . S
C2948 C2947 1.387 . S
H2949 C2961 0.930 . S
H2950 C2963 0.930 . S
H2951 C2964 0.930 . S
H2952 C2968 0.959 . S
H2953 C2968 0.959 . S
H2954 C2968 0.961 . S
H2955 C2969 0.960 . S
H2956 C2969 0.961 . S
H2957 C2969 0.959 . S
H2958 C2972 0.929 . S
H2959 C2973 0.931 . S
H2960 C2975 0.930 . S
C2961 H2949 0.930 . S
C2961 C2962 1.399 . S
C2961 C2966 1.399 . S
C2962 C2961 1.399 . S
C2962 C2963 1.376 . S
C2963 H2950 0.930 . S
C2963 C2962 1.376 . S
C2963 C2964 1.388 . S
C2964 H2951 0.930 . S
C2964 C2963 1.388 . S
C2964 C2965 1.390 . S
C2965 C2964 1.390 . S
C2965 C2966 1.394 . S
C2965 C2971 1.465 . S
C2966 C2961 1.399 . S
C2966 C2965 1.394 . S
C2966 C2967 1.516 . S
C2967 C2966 1.516 . S
C2967 C2968 1.502 . S
C2967 C2969 1.561 . S
C2967 C2970 1.526 . S
C2968 H2952 0.959 . S
C2968 H2953 0.959 . S
C2968 H2954 0.961 . S
C2968 C2967 1.502 . S
C2969 H2955 0.960 . S
C2969 H2956 0.961 . S
C2969 H2957 0.959 . S
C2969 C2967 1.561 . S
C2970 C2967 1.526 . S
C2970 C2971 1.396 . S
C2970 C2975 1.390 . S
C2971 C2965 1.465 . S
C2971 C2970 1.396 . S
C2971 C2972 1.399 . S
C2972 H2958 0.929 . S
C2972 C2971 1.399 . S
C2972 C2973 1.385 . S
C2973 H2959 0.931 . S
C2973 C2972 1.385 . S
C2973 C2974 1.389 . S
C2974 C2973 1.389 . S
C2974 C2975 1.387 . S
C2975 H2960 0.930 . S
C2975 C2970 1.390 . S
C2975 C2974 1.387 . S
H2976 C2988 0.930 . S
H2977 C2990 0.930 . S
H2978 C2991 0.930 . S
H2979 C2995 0.959 . S
H2980 C2995 0.959 . S
H2981 C2995 0.961 . S
H2982 C2996 0.960 . S
H2983 C2996 0.961 . S
H2984 C2996 0.959 . S
H2985 C2999 0.929 . S
H2986 C3000 0.931 . S
H2987 C3002 0.930 . S
C2988 H2976 0.930 . S
C2988 C2989 1.399 . S
C2988 C2993 1.399 . S
C2989 C2988 1.399 . S
C2989 C2990 1.376 . S
C2990 H2977 0.930 . S
C2990 C2989 1.376 . S
C2990 C2991 1.388 . S
C2991 H2978 0.930 . S
C2991 C2990 1.388 . S
C2991 C2992 1.390 . S
C2992 C2991 1.390 . S
C2992 C2993 1.394 . S
C2992 C2998 1.465 . S
C2993 C2988 1.399 . S
C2993 C2992 1.394 . S
C2993 C2994 1.516 . S
C2994 C2993 1.516 . S
C2994 C2995 1.502 . S
C2994 C2996 1.561 . S
C2994 C2997 1.526 . S
C2995 H2979 0.959 . S
C2995 H2980 0.959 . S
C2995 H2981 0.961 . S
C2995 C2994 1.502 . S
C2996 H2982 0.960 . S
C2996 H2983 0.961 . S
C2996 H2984 0.959 . S
C2996 C2994 1.561 . S
C2997 C2994 1.526 . S
C2997 C2998 1.396 . S
C2997 C3002 1.390 . S
C2998 C2992 1.465 . S
C2998 C2997 1.396 . S
C2998 C2999 1.399 . S
C2999 H2985 0.929 . S
C2999 C2998 1.399 . S
C2999 C3000 1.385 . S
C3000 H2986 0.931 . S
C3000 C2999 1.385 . S
C3000 C3001 1.389 . S
C3001 C3000 1.389 . S
C3001 C3002 1.387 . S
C3002 H2987 0.930 . S
C3002 C2997 1.390 . S
C3002 C3001 1.387 . S
H3003 C3015 0.930 . S
H3004 C3017 0.930 . S
H3005 C3018 0.930 . S
H3006 C3022 0.959 . S
H3007 C3022 0.959 . S
H3008 C3022 0.961 . S
H3009 C3023 0.960 . S
H3010 C3023 0.961 . S
H3011 C3023 0.959 . S
H3012 C3026 0.929 . S
H3013 C3027 0.931 . S
H3014 C3029 0.930 . S
C3015 H3003 0.930 . S
C3015 C3016 1.399 . S
C3015 C3020 1.399 . S
C3016 C3015 1.399 . S
C3016 C3017 1.376 . S
C3017 H3004 0.930 . S
C3017 C3016 1.376 . S
C3017 C3018 1.388 . S
C3018 H3005 0.930 . S
C3018 C3017 1.388 . S
C3018 C3019 1.390 . S
C3019 C3018 1.390 . S
C3019 C3020 1.394 . S
C3019 C3025 1.465 . S
C3020 C3015 1.399 . S
C3020 C3019 1.394 . S
C3020 C3021 1.516 . S
C3021 C3020 1.516 . S
C3021 C3022 1.502 . S
C3021 C3023 1.561 . S
C3021 C3024 1.526 . S
C3022 H3006 0.959 . S
C3022 H3007 0.959 . S
C3022 H3008 0.961 . S
C3022 C3021 1.502 . S
C3023 H3009 0.960 . S
C3023 H3010 0.961 . S
C3023 H3011 0.959 . S
C3023 C3021 1.561 . S
C3024 C3021 1.526 . S
C3024 C3025 1.396 . S
C3024 C3029 1.390 . S
C3025 C3019 1.465 . S
C3025 C3024 1.396 . S
C3025 C3026 1.399 . S
C3026 H3012 0.929 . S
C3026 C3025 1.399 . S
C3026 C3027 1.385 . S
C3027 H3013 0.931 . S
C3027 C3026 1.385 . S
C3027 C3028 1.389 . S
C3028 C3027 1.389 . S
C3028 C3029 1.387 . S
C3029 H3014 0.930 . S
C3029 C3024 1.390 . S
C3029 C3028 1.387 . S
H3030 C3042 0.930 . S
H3031 C3044 0.930 1_554 S
H3032 C3045 0.930 . S
H3033 C3049 0.959 . S
H3034 C3049 0.959 . S
H3035 C3049 0.961 . S
H3036 C3050 0.960 . S
H3037 C3050 0.961 . S
H3038 C3050 0.959 . S
H3039 C3053 0.929 . S
H3040 C3054 0.931 . S
H3041 C3056 0.930 . S
C3042 H3030 0.930 . S
C3042 C3043 1.399 . S
C3042 C3047 1.399 . S
C3043 C3042 1.399 . S
C3043 C3044 1.376 . S
C3044 H3031 0.930 1_556 S
C3044 C3043 1.376 . S
C3044 C3045 1.388 1_556 S
C3045 H3032 0.930 . S
C3045 C3044 1.388 1_554 S
C3045 C3046 1.390 1_554 S
C3046 C3045 1.390 1_556 S
C3046 C3047 1.394 . S
C3046 C3052 1.465 1_556 S
C3047 C3042 1.399 . S
C3047 C3046 1.394 . S
C3047 C3048 1.516 . S
C3048 C3047 1.516 . S
C3048 C3049 1.502 . S
C3048 C3050 1.561 . S
C3048 C3051 1.526 . S
C3049 H3033 0.959 . S
C3049 H3034 0.959 . S
C3049 H3035 0.961 . S
C3049 C3048 1.502 . S
C3050 H3036 0.960 . S
C3050 H3037 0.961 . S
C3050 H3038 0.959 . S
C3050 C3048 1.561 . S
C3051 C3048 1.526 . S
C3051 C3052 1.396 1_556 S
C3051 C3056 1.390 . S
C3052 C3046 1.465 1_554 S
C3052 C3051 1.396 1_554 S
C3052 C3053 1.399 . S
C3053 H3039 0.929 . S
C3053 C3052 1.399 . S
C3053 C3054 1.385 . S
C3054 H3040 0.931 . S
C3054 C3053 1.385 . S
C3054 C3055 1.389 . S
C3055 C3054 1.389 . S
C3055 C3056 1.387 1_554 S
C3056 H3041 0.930 . S
C3056 C3051 1.390 . S
C3056 C3055 1.387 1_556 S
H3057 C3069 0.930 . S
H3058 C3071 0.930 . S
H3059 C3072 0.930 . S
H3060 C3076 0.959 . S
H3061 C3076 0.959 . S
H3062 C3076 0.961 . S
H3063 C3077 0.960 . S
H3064 C3077 0.961 . S
H3065 C3077 0.959 . S
H3066 C3080 0.929 . S
H3067 C3081 0.931 . S
H3068 C3083 0.930 . S
C3069 H3057 0.930 . S
C3069 C3070 1.399 . S
C3069 C3074 1.399 1_455 S
C3070 C3069 1.399 . S
C3070 C3071 1.376 . S
C3071 H3058 0.930 . S
C3071 C3070 1.376 . S
C3071 C3072 1.388 . S
C3072 H3059 0.930 . S
C3072 C3071 1.388 . S
C3072 C3073 1.390 1_455 S
C3073 C3072 1.390 1_655 S
C3073 C3074 1.394 . S
C3073 C3079 1.465 . S
C3074 C3069 1.399 1_655 S
C3074 C3073 1.394 . S
C3074 C3075 1.516 . S
C3075 C3074 1.516 . S
C3075 C3076 1.502 . S
C3075 C3077 1.561 . S
C3075 C3078 1.526 . S
C3076 H3060 0.959 . S
C3076 H3061 0.959 . S
C3076 H3062 0.961 . S
C3076 C3075 1.502 . S
C3077 H3063 0.960 . S
C3077 H3064 0.961 . S
C3077 H3065 0.959 . S
C3077 C3075 1.561 . S
C3078 C3075 1.526 . S
C3078 C3079 1.396 . S
C3078 C3083 1.390 . S
C3079 C3073 1.465 . S
C3079 C3078 1.396 . S
C3079 C3080 1.399 . S
C3080 H3066 0.929 . S
C3080 C3079 1.399 . S
C3080 C3081 1.385 . S
C3081 H3067 0.931 . S
C3081 C3080 1.385 . S
C3081 C3082 1.389 . S
C3082 C3081 1.389 . S
C3082 C3083 1.387 . S
C3083 H3068 0.930 . S
C3083 C3078 1.390 . S
C3083 C3082 1.387 . S
H3084 C3096 0.930 . S
H3085 C3098 0.930 . S
H3086 C3099 0.930 . S
H3087 C3103 0.959 . S
H3088 C3103 0.959 . S
H3089 C3103 0.961 . S
H3090 C3104 0.960 . S
H3091 C3104 0.961 . S
H3092 C3104 0.959 . S
H3093 C3107 0.929 . S
H3094 C3108 0.931 . S
H3095 C3110 0.930 . S
C3096 H3084 0.930 . S
C3096 C3097 1.399 . S
C3096 C3101 1.399 . S
C3097 C3096 1.399 . S
C3097 C3098 1.376 . S
C3098 H3085 0.930 . S
C3098 C3097 1.376 . S
C3098 C3099 1.388 . S
C3099 H3086 0.930 . S
C3099 C3098 1.388 . S
C3099 C3100 1.390 . S
C3100 C3099 1.390 . S
C3100 C3101 1.394 . S
C3100 C3106 1.465 . S
C3101 C3096 1.399 . S
C3101 C3100 1.394 . S
C3101 C3102 1.516 . S
C3102 C3101 1.516 . S
C3102 C3103 1.502 . S
C3102 C3104 1.561 . S
C3102 C3105 1.526 . S
C3103 H3087 0.959 . S
C3103 H3088 0.959 . S
C3103 H3089 0.961 . S
C3103 C3102 1.502 . S
C3104 H3090 0.960 . S
C3104 H3091 0.961 . S
C3104 H3092 0.959 . S
C3104 C3102 1.561 . S
C3105 C3102 1.526 . S
C3105 C3106 1.396 . S
C3105 C3110 1.390 . S
C3106 C3100 1.465 . S
C3106 C3105 1.396 . S
C3106 C3107 1.399 . S
C3107 H3093 0.929 . S
C3107 C3106 1.399 . S
C3107 C3108 1.385 . S
C3108 H3094 0.931 . S
C3108 C3107 1.385 . S
C3108 C3109 1.389 . S
C3109 C3108 1.389 . S
C3109 C3110 1.387 . S
C3110 H3095 0.930 . S
C3110 C3105 1.390 . S
C3110 C3109 1.387 . S
H3111 C3123 0.930 . S
H3112 C3125 0.930 . S
H3113 C3126 0.930 . S
H3114 C3130 0.948 1_655 S
H3115 C3130 0.930 1_655 S
H3116 C3130 0.989 . S
H3117 C3131 0.960 . S
H3118 C3131 0.961 . S
H3119 C3131 0.959 . S
H3120 C3134 0.929 . S
H3121 C3135 0.931 . S
H3122 C3137 0.930 . S
C3123 H3111 0.930 . S
C3123 C3124 1.399 . S
C3123 C3128 1.399 . S
C3124 C3123 1.399 . S
C3124 C3125 1.376 . S
C3125 H3112 0.930 . S
C3125 C3124 1.376 . S
C3125 C3126 1.388 . S
C3126 H3113 0.930 . S
C3126 C3125 1.388 . S
C3126 C3127 1.390 . S
C3127 C3126 1.390 . S
C3127 C3128 1.394 . S
C3127 C3133 1.465 1_455 S
C3128 C3123 1.399 . S
C3128 C3127 1.394 . S
C3128 C3129 1.516 . S
C3129 C3128 1.516 . S
C3129 C3130 1.516 . S
C3129 C3131 1.561 . S
C3129 C3132 1.526 1_455 S
C3130 H3114 0.948 1_455 S
C3130 H3115 0.930 1_455 S
C3130 H3116 0.989 . S
C3130 C3129 1.516 . S
C3131 H3117 0.960 . S
C3131 H3118 0.961 . S
C3131 H3119 0.959 . S
C3131 C3129 1.561 . S
C3132 C3129 1.526 1_655 S
C3132 C3133 1.396 . S
C3132 C3137 1.390 . S
C3133 C3127 1.465 1_655 S
C3133 C3132 1.396 . S
C3133 C3134 1.399 . S
C3134 H3120 0.929 . S
C3134 C3133 1.399 . S
C3134 C3135 1.385 . S
C3135 H3121 0.931 . S
C3135 C3134 1.385 . S
C3135 C3136 1.389 . S
C3136 C3135 1.389 . S
C3136 C3137 1.387 . S
C3137 H3122 0.930 . S
C3137 C3132 1.390 . S
C3137 C3136 1.387 . S
H3138 C3150 0.930 . S
H3139 C3152 0.930 . S
H3140 C3153 0.930 . S
H3141 C3157 0.959 . S
H3142 C3157 0.959 . S
H3143 C3157 0.961 . S
H3144 C3158 0.960 . S
H3145 C3158 0.961 . S
H3146 C3158 0.959 1_455 S
H3147 C3161 0.929 . S
H3148 C3162 0.931 . S
H3149 C3164 0.930 . S
C3150 H3138 0.930 . S
C3150 C3151 1.399 . S
C3150 C3155 1.399 . S
C3151 C3150 1.399 . S
C3151 C3152 1.376 1_655 S
C3152 H3139 0.930 . S
C3152 C3151 1.376 1_455 S
C3152 C3153 1.388 . S
C3153 H3140 0.930 . S
C3153 C3152 1.388 . S
C3153 C3154 1.390 . S
C3154 C3153 1.390 . S
C3154 C3155 1.394 1_455 S
C3154 C3160 1.465 . S
C3155 C3150 1.399 . S
C3155 C3154 1.394 1_655 S
C3155 C3156 1.516 . S
C3156 C3155 1.516 . S
C3156 C3157 1.502 . S
C3156 C3158 1.561 . S
C3156 C3159 1.526 1_655 S
C3157 H3141 0.959 . S
C3157 H3142 0.959 . S
C3157 H3143 0.961 . S
C3157 C3156 1.502 . S
C3158 H3144 0.960 . S
C3158 H3145 0.961 . S
C3158 H3146 0.959 1_655 S
C3158 C3156 1.561 . S
C3159 C3156 1.526 1_455 S
C3159 C3160 1.396 . S
C3159 C3164 1.390 . S
C3160 C3154 1.465 . S
C3160 C3159 1.396 . S
C3160 C3161 1.399 . S
C3161 H3147 0.929 . S
C3161 C3160 1.399 . S
C3161 C3162 1.385 . S
C3162 H3148 0.931 . S
C3162 C3161 1.385 . S
C3162 C3163 1.389 . S
C3163 C3162 1.389 . S
C3163 C3164 1.387 . S
C3164 H3149 0.930 . S
C3164 C3159 1.390 . S
C3164 C3163 1.387 . S
H3165 C3177 0.930 . S
H3166 C3179 0.930 . S
H3167 C3180 0.930 . S
H3168 C3184 0.959 . S
H3169 C3184 0.959 . S
H3170 C3184 0.961 . S
H3171 C3185 0.960 . S
H3172 C3185 0.961 . S
H3173 C3185 0.959 . S
H3174 C3188 0.929 . S
H3175 C3189 0.931 . S
H3176 C3191 0.930 . S
C3177 H3165 0.930 . S
C3177 C3178 1.399 . S
C3177 C3182 1.399 . S
C3178 C3177 1.399 . S
C3178 C3179 1.376 . S
C3179 H3166 0.930 . S
C3179 C3178 1.376 . S
C3179 C3180 1.388 . S
C3180 H3167 0.930 . S
C3180 C3179 1.388 . S
C3180 C3181 1.390 . S
C3181 C3180 1.390 . S
C3181 C3182 1.394 . S
C3181 C3187 1.465 . S
C3182 C3177 1.399 . S
C3182 C3181 1.394 . S
C3182 C3183 1.516 . S
C3183 C3182 1.516 . S
C3183 C3184 1.502 . S
C3183 C3185 1.561 . S
C3183 C3186 1.526 . S
C3184 H3168 0.959 . S
C3184 H3169 0.959 . S
C3184 H3170 0.961 . S
C3184 C3183 1.502 . S
C3185 H3171 0.960 . S
C3185 H3172 0.961 . S
C3185 H3173 0.959 . S
C3185 C3183 1.561 . S
C3186 C3183 1.526 . S
C3186 C3187 1.396 . S
C3186 C3191 1.390 . S
C3187 C3181 1.465 . S
C3187 C3186 1.396 . S
C3187 C3188 1.399 . S
C3188 H3174 0.929 . S
C3188 C3187 1.399 . S
C3188 C3189 1.385 . S
C3189 H3175 0.931 . S
C3189 C3188 1.385 . S
C3189 C3190 1.389 . S
C3190 C3189 1.389 . S
C3190 C3191 1.387 . S
C3191 H3176 0.930 . S
C3191 C3186 1.390 . S
C3191 C3190 1.387 . S
H3192 C3204 0.930 . S
H3193 C3206 0.930 . S
H3194 C3207 0.930 . S
H3195 C3211 0.959 . S
H3196 C3211 0.959 . S
H3197 C3211 0.961 . S
H3198 C3212 0.960 . S
H3199 C3212 0.961 . S
H3200 C3212 0.959 . S
H3201 C3215 0.929 . S
H3202 C3216 0.931 . S
H3203 C3218 0.930 . S
C3204 H3192 0.930 . S
C3204 C3205 1.399 . S
C3204 C3209 1.399 . S
C3205 C3204 1.399 . S
C3205 C3206 1.376 . S
C3206 H3193 0.930 . S
C3206 C3205 1.376 . S
C3206 C3207 1.388 . S
C3207 H3194 0.930 . S
C3207 C3206 1.388 . S
C3207 C3208 1.390 . S
C3208 C3207 1.390 . S
C3208 C3209 1.394 . S
C3208 C3214 1.465 . S
C3209 C3204 1.399 . S
C3209 C3208 1.394 . S
C3209 C3210 1.516 . S
C3210 C3209 1.516 . S
C3210 C3211 1.502 . S
C3210 C3212 1.561 . S
C3210 C3213 1.526 . S
C3211 H3195 0.959 . S
C3211 H3196 0.959 . S
C3211 H3197 0.961 . S
C3211 C3210 1.502 . S
C3212 H3198 0.960 . S
C3212 H3199 0.961 . S
C3212 H3200 0.959 . S
C3212 C3210 1.561 . S
C3213 C3210 1.526 . S
C3213 C3214 1.396 . S
C3213 C3218 1.390 . S
C3214 C3208 1.465 . S
C3214 C3213 1.396 . S
C3214 C3215 1.399 . S
C3215 H3201 0.929 . S
C3215 C3214 1.399 . S
C3215 C3216 1.385 . S
C3216 H3202 0.931 . S
C3216 C3215 1.385 . S
C3216 C3217 1.389 . S
C3217 C3216 1.389 . S
C3217 C3218 1.387 . S
C3218 H3203 0.930 . S
C3218 C3213 1.390 . S
C3218 C3217 1.387 . S
H3219 C3231 0.930 . S
H3220 C3233 0.930 1_554 S
H3221 C3234 0.930 . S
H3222 C3238 0.959 . S
H3223 C3238 0.959 . S
H3224 C3238 0.961 . S
H3225 C3239 0.960 . S
H3226 C3239 0.961 . S
H3227 C3239 0.959 . S
H3228 C3242 0.929 . S
H3229 C3243 0.931 . S
H3230 C3245 0.930 . S
C3231 H3219 0.930 . S
C3231 C3232 1.399 . S
C3231 C3236 1.399 . S
C3232 C3231 1.399 . S
C3232 C3233 1.376 . S
C3233 H3220 0.930 1_556 S
C3233 C3232 1.376 . S
C3233 C3234 1.388 . S
C3234 H3221 0.930 . S
C3234 C3233 1.388 . S
C3234 C3235 1.390 . S
C3235 C3234 1.390 . S
C3235 C3236 1.394 . S
C3235 C3241 1.465 . S
C3236 C3231 1.399 . S
C3236 C3235 1.394 . S
C3236 C3237 1.516 . S
C3237 C3236 1.516 . S
C3237 C3238 1.502 . S
C3237 C3239 1.561 . S
C3237 C3240 1.526 . S
C3238 H3222 0.959 . S
C3238 H3223 0.959 . S
C3238 H3224 0.961 . S
C3238 C3237 1.502 . S
C3239 H3225 0.960 . S
C3239 H3226 0.961 . S
C3239 H3227 0.959 . S
C3239 C3237 1.561 . S
C3240 C3237 1.526 . S
C3240 C3241 1.396 . S
C3240 C3245 1.390 . S
C3241 C3235 1.465 . S
C3241 C3240 1.396 . S
C3241 C3242 1.399 . S
C3242 H3228 0.929 . S
C3242 C3241 1.399 . S
C3242 C3243 1.385 . S
C3243 H3229 0.931 . S
C3243 C3242 1.385 . S
C3243 C3244 1.389 . S
C3244 C3243 1.389 . S
C3244 C3245 1.387 . S
C3245 H3230 0.930 . S
C3245 C3240 1.390 . S
C3245 C3244 1.387 . S
H3246 C3258 0.930 . S
H3247 C3260 0.930 . S
H3248 C3261 0.930 . S
H3249 C3265 0.959 . S
H3250 C3265 0.959 . S
H3251 C3265 0.961 . S
H3252 C3266 0.960 . S
H3253 C3266 0.961 . S
H3254 C3266 0.959 . S
H3255 C3269 0.929 . S
H3256 C3270 0.931 . S
H3257 C3272 0.930 . S
C3258 H3246 0.930 . S
C3258 C3259 1.399 . S
C3258 C3263 1.399 . S
C3259 C3258 1.399 . S
C3259 C3260 1.376 . S
C3260 H3247 0.930 . S
C3260 C3259 1.376 . S
C3260 C3261 1.388 . S
C3261 H3248 0.930 . S
C3261 C3260 1.388 . S
C3261 C3262 1.390 . S
C3262 C3261 1.390 . S
C3262 C3263 1.394 . S
C3262 C3268 1.465 . S
C3263 C3258 1.399 . S
C3263 C3262 1.394 . S
C3263 C3264 1.516 . S
C3264 C3263 1.516 . S
C3264 C3265 1.502 . S
C3264 C3266 1.561 . S
C3264 C3267 1.526 . S
C3265 H3249 0.959 . S
C3265 H3250 0.959 . S
C3265 H3251 0.961 . S
C3265 C3264 1.502 . S
C3266 H3252 0.960 . S
C3266 H3253 0.961 . S
C3266 H3254 0.959 . S
C3266 C3264 1.561 . S
C3267 C3264 1.526 . S
C3267 C3268 1.396 . S
C3267 C3272 1.390 . S
C3268 C3262 1.465 . S
C3268 C3267 1.396 . S
C3268 C3269 1.399 . S
C3269 H3255 0.929 . S
C3269 C3268 1.399 . S
C3269 C3270 1.385 . S
C3270 H3256 0.931 . S
C3270 C3269 1.385 . S
C3270 C3271 1.389 . S
C3271 C3270 1.389 . S
C3271 C3272 1.387 . S
C3272 H3257 0.930 . S
C3272 C3267 1.390 . S
C3272 C3271 1.387 . S
H3273 C3285 0.930 . S
H3274 C3287 0.930 . S
H3275 C3288 0.930 . S
H3276 C3292 0.959 . S
H3277 C3292 0.959 . S
H3278 C3292 0.961 . S
H3279 C3293 0.960 . S
H3280 C3293 0.961 . S
H3281 C3293 0.959 . S
H3282 C3296 0.929 . S
H3283 C3297 0.931 . S
H3284 C3299 0.930 . S
C3285 H3273 0.930 . S
C3285 C3286 1.399 . S
C3285 C3290 1.399 . S
C3286 C3285 1.399 . S
C3286 C3287 1.376 . S
C3287 H3274 0.930 . S
C3287 C3286 1.376 . S
C3287 C3288 1.388 . S
C3288 H3275 0.930 . S
C3288 C3287 1.388 . S
C3288 C3289 1.390 . S
C3289 C3288 1.390 . S
C3289 C3290 1.394 . S
C3289 C3295 1.465 . S
C3290 C3285 1.399 . S
C3290 C3289 1.394 . S
C3290 C3291 1.516 . S
C3291 C3290 1.516 . S
C3291 C3292 1.502 . S
C3291 C3293 1.561 . S
C3291 C3294 1.526 . S
C3292 H3276 0.959 . S
C3292 H3277 0.959 . S
C3292 H3278 0.961 . S
C3292 C3291 1.502 . S
C3293 H3279 0.960 . S
C3293 H3280 0.961 . S
C3293 H3281 0.959 . S
C3293 C3291 1.561 . S
C3294 C3291 1.526 . S
C3294 C3295 1.396 . S
C3294 C3299 1.390 . S
C3295 C3289 1.465 . S
C3295 C3294 1.396 . S
C3295 C3296 1.399 . S
C3296 H3282 0.929 . S
C3296 C3295 1.399 . S
C3296 C3297 1.385 . S
C3297 H3283 0.931 . S
C3297 C3296 1.385 . S
C3297 C3298 1.389 . S
C3298 C3297 1.389 . S
C3298 C3299 1.387 . S
C3299 H3284 0.930 . S
C3299 C3294 1.390 . S
C3299 C3298 1.387 . S
H3300 C3312 0.930 . S
H3301 C3314 0.930 . S
H3302 C3315 0.930 . S
H3303 C3319 0.959 . S
H3304 C3319 0.959 . S
H3305 C3319 0.961 . S
H3306 C3320 0.960 . S
H3307 C3320 0.961 . S
H3308 C3320 0.959 . S
H3309 C3323 0.929 . S
H3310 C3324 0.931 . S
H3311 C3326 0.930 . S
C3312 H3300 0.930 . S
C3312 C3313 1.399 . S
C3312 C3317 1.399 . S
C3313 C3312 1.399 . S
C3313 C3314 1.376 . S
C3314 H3301 0.930 . S
C3314 C3313 1.376 . S
C3314 C3315 1.388 . S
C3315 H3302 0.930 . S
C3315 C3314 1.388 . S
C3315 C3316 1.390 . S
C3316 C3315 1.390 . S
C3316 C3317 1.394 . S
C3316 C3322 1.465 . S
C3317 C3312 1.399 . S
C3317 C3316 1.394 . S
C3317 C3318 1.516 . S
C3318 C3317 1.516 . S
C3318 C3319 1.502 . S
C3318 C3320 1.561 . S
C3318 C3321 1.526 . S
C3319 H3303 0.959 . S
C3319 H3304 0.959 . S
C3319 H3305 0.961 . S
C3319 C3318 1.502 . S
C3320 H3306 0.960 . S
C3320 H3307 0.961 . S
C3320 H3308 0.959 . S
C3320 C3318 1.561 . S
C3321 C3318 1.526 . S
C3321 C3322 1.396 . S
C3321 C3326 1.390 . S
C3322 C3316 1.465 . S
C3322 C3321 1.396 . S
C3322 C3323 1.399 . S
C3323 H3309 0.929 . S
C3323 C3322 1.399 . S
C3323 C3324 1.385 . S
C3324 H3310 0.931 . S
C3324 C3323 1.385 . S
C3324 C3325 1.389 . S
C3325 C3324 1.389 . S
C3325 C3326 1.387 . S
C3326 H3311 0.930 . S
C3326 C3321 1.390 . S
C3326 C3325 1.387 . S
H3327 C3339 0.930 . S
H3328 C3341 0.930 . S
H3329 C3342 0.930 . S
H3330 C3346 0.959 . S
H3331 C3346 0.959 . S
H3332 C3346 0.961 . S
H3333 C3347 0.960 . S
H3334 C3347 0.961 . S
H3335 C3347 0.959 . S
H3336 C3350 0.929 . S
H3337 C3351 0.931 . S
H3338 C3353 0.930 . S
C3339 H3327 0.930 . S
C3339 C3340 1.399 . S
C3339 C3344 1.399 . S
C3340 C3339 1.399 . S
C3340 C3341 1.376 . S
C3341 H3328 0.930 . S
C3341 C3340 1.376 . S
C3341 C3342 1.388 . S
C3342 H3329 0.930 . S
C3342 C3341 1.388 . S
C3342 C3343 1.390 . S
C3343 C3342 1.390 . S
C3343 C3344 1.394 . S
C3343 C3349 1.465 . S
C3344 C3339 1.399 . S
C3344 C3343 1.394 . S
C3344 C3345 1.516 . S
C3345 C3344 1.516 . S
C3345 C3346 1.502 . S
C3345 C3347 1.561 . S
C3345 C3348 1.526 . S
C3346 H3330 0.959 . S
C3346 H3331 0.959 . S
C3346 H3332 0.961 . S
C3346 C3345 1.502 . S
C3347 H3333 0.960 . S
C3347 H3334 0.961 . S
C3347 H3335 0.959 . S
C3347 C3345 1.561 . S
C3348 C3345 1.526 . S
C3348 C3349 1.396 . S
C3348 C3353 1.390 . S
C3349 C3343 1.465 . S
C3349 C3348 1.396 . S
C3349 C3350 1.399 . S
C3350 H3336 0.929 . S
C3350 C3349 1.399 . S
C3350 C3351 1.385 . S
C3351 H3337 0.931 . S
C3351 C3350 1.385 . S
C3351 C3352 1.389 . S
C3352 C3351 1.389 . S
C3352 C3353 1.387 . S
C3353 H3338 0.930 . S
C3353 C3348 1.390 . S
C3353 C3352 1.387 . S
H3354 C3366 0.930 . S
H3355 C3368 0.930 . S
H3356 C3369 0.930 . S
H3357 C3373 0.959 . S
H3358 C3373 0.959 . S
H3359 C3373 0.961 . S
H3360 C3374 0.960 . S
H3361 C3374 0.961 . S
H3362 C3374 0.959 . S
H3363 C3377 0.929 . S
H3364 C3378 0.931 . S
H3365 C3380 0.930 . S
C3366 H3354 0.930 . S
C3366 C3367 1.399 . S
C3366 C3371 1.399 . S
C3367 C3366 1.399 . S
C3367 C3368 1.376 . S
C3368 H3355 0.930 . S
C3368 C3367 1.376 . S
C3368 C3369 1.388 . S
C3369 H3356 0.930 . S
C3369 C3368 1.388 . S
C3369 C3370 1.390 . S
C3370 C3369 1.390 . S
C3370 C3371 1.394 . S
C3370 C3376 1.465 . S
C3371 C3366 1.399 . S
C3371 C3370 1.394 . S
C3371 C3372 1.516 . S
C3372 C3371 1.516 . S
C3372 C3373 1.502 . S
C3372 C3374 1.561 . S
C3372 C3375 1.526 . S
C3373 H3357 0.959 . S
C3373 H3358 0.959 . S
C3373 H3359 0.961 . S
C3373 C3372 1.502 . S
C3374 H3360 0.960 . S
C3374 H3361 0.961 . S
C3374 H3362 0.959 . S
C3374 C3372 1.561 . S
C3375 C3372 1.526 . S
C3375 C3376 1.396 . S
C3375 C3380 1.390 . S
C3376 C3370 1.465 . S
C3376 C3375 1.396 . S
C3376 C3377 1.399 . S
C3377 H3363 0.929 . S
C3377 C3376 1.399 . S
C3377 C3378 1.385 . S
C3378 H3364 0.931 . S
C3378 C3377 1.385 . S
C3378 C3379 1.389 . S
C3379 C3378 1.389 . S
C3379 C3380 1.387 . S
C3380 H3365 0.930 . S
C3380 C3375 1.390 . S
C3380 C3379 1.387 . S
H3381 C3393 0.930 . S
H3382 C3395 0.930 . S
H3383 C3396 0.930 . S
H3384 C3400 0.959 . S
H3385 C3400 0.959 . S
H3386 C3400 0.961 . S
H3387 C3401 0.960 . S
H3388 C3401 0.961 . S
H3389 C3401 0.959 . S
H3390 C3404 0.929 . S
H3391 C3405 0.931 . S
H3392 C3407 0.930 . S
C3393 H3381 0.930 . S
C3393 C3394 1.399 . S
C3393 C3398 1.399 . S
C3394 C3393 1.399 . S
C3394 C3395 1.376 . S
C3395 H3382 0.930 . S
C3395 C3394 1.376 . S
C3395 C3396 1.388 . S
C3396 H3383 0.930 . S
C3396 C3395 1.388 . S
C3396 C3397 1.390 . S
C3397 C3396 1.390 . S
C3397 C3398 1.394 . S
C3397 C3403 1.465 . S
C3398 C3393 1.399 . S
C3398 C3397 1.394 . S
C3398 C3399 1.516 . S
C3399 C3398 1.516 . S
C3399 C3400 1.502 . S
C3399 C3401 1.561 . S
C3399 C3402 1.526 . S
C3400 H3384 0.959 . S
C3400 H3385 0.959 . S
C3400 H3386 0.961 . S
C3400 C3399 1.502 . S
C3401 H3387 0.960 . S
C3401 H3388 0.961 . S
C3401 H3389 0.959 . S
C3401 C3399 1.561 . S
C3402 C3399 1.526 . S
C3402 C3403 1.396 . S
C3402 C3407 1.390 . S
C3403 C3397 1.465 . S
C3403 C3402 1.396 . S
C3403 C3404 1.399 . S
C3404 H3390 0.929 . S
C3404 C3403 1.399 . S
C3404 C3405 1.385 . S
C3405 H3391 0.931 . S
C3405 C3404 1.385 . S
C3405 C3406 1.389 . S
C3406 C3405 1.389 . S
C3406 C3407 1.387 . S
C3407 H3392 0.930 . S
C3407 C3402 1.390 . S
C3407 C3406 1.387 . S
H3408 C3420 0.930 . S
H3409 C3422 0.930 . S
H3410 C3423 0.930 . S
H3411 C3427 0.959 . S
H3412 C3427 0.959 . S
H3413 C3427 0.961 . S
H3414 C3428 0.960 . S
H3415 C3428 0.961 . S
H3416 C3428 0.959 . S
H3417 C3431 0.929 . S
H3418 C3432 0.931 . S
H3419 C3434 0.930 . S
C3420 H3408 0.930 . S
C3420 C3421 1.399 . S
C3420 C3425 1.399 . S
C3421 C3420 1.399 . S
C3421 C3422 1.376 . S
C3422 H3409 0.930 . S
C3422 C3421 1.376 . S
C3422 C3423 1.388 . S
C3423 H3410 0.930 . S
C3423 C3422 1.388 . S
C3423 C3424 1.390 . S
C3424 C3423 1.390 . S
C3424 C3425 1.394 . S
C3424 C3430 1.465 . S
C3425 C3420 1.399 . S
C3425 C3424 1.394 . S
C3425 C3426 1.516 . S
C3426 C3425 1.516 . S
C3426 C3427 1.502 . S
C3426 C3428 1.561 . S
C3426 C3429 1.526 . S
C3427 H3411 0.959 . S
C3427 H3412 0.959 . S
C3427 H3413 0.961 . S
C3427 C3426 1.502 . S
C3428 H3414 0.960 . S
C3428 H3415 0.961 . S
C3428 H3416 0.959 . S
C3428 C3426 1.561 . S
C3429 C3426 1.526 . S
C3429 C3430 1.396 . S
C3429 C3434 1.390 . S
C3430 C3424 1.465 . S
C3430 C3429 1.396 . S
C3430 C3431 1.399 . S
C3431 H3417 0.929 . S
C3431 C3430 1.399 . S
C3431 C3432 1.385 . S
C3432 H3418 0.931 . S
C3432 C3431 1.385 . S
C3432 C3433 1.389 . S
C3433 C3432 1.389 . S
C3433 C3434 1.387 . S
C3434 H3419 0.930 . S
C3434 C3429 1.390 . S
C3434 C3433 1.387 . S
H3435 C3447 0.930 . S
H3436 C3449 0.930 . S
H3437 C3450 0.930 . S
H3438 C3454 0.959 . S
H3439 C3454 0.959 . S
H3440 C3454 0.961 . S
H3441 C3455 0.960 . S
H3442 C3455 0.961 . S
H3443 C3455 0.959 . S
H3444 C3458 0.929 . S
H3445 C3459 0.931 . S
H3446 C3461 0.930 . S
C3447 H3435 0.930 . S
C3447 C3448 1.399 . S
C3447 C3452 1.399 . S
C3448 C3447 1.399 . S
C3448 C3449 1.376 . S
C3449 H3436 0.930 . S
C3449 C3448 1.376 . S
C3449 C3450 1.388 . S
C3450 H3437 0.930 . S
C3450 C3449 1.388 . S
C3450 C3451 1.390 . S
C3451 C3450 1.390 . S
C3451 C3452 1.394 . S
C3451 C3457 1.465 . S
C3452 C3447 1.399 . S
C3452 C3451 1.394 . S
C3452 C3453 1.516 . S
C3453 C3452 1.516 . S
C3453 C3454 1.502 . S
C3453 C3455 1.561 . S
C3453 C3456 1.526 . S
C3454 H3438 0.959 . S
C3454 H3439 0.959 . S
C3454 H3440 0.961 . S
C3454 C3453 1.502 . S
C3455 H3441 0.960 . S
C3455 H3442 0.961 . S
C3455 H3443 0.959 . S
C3455 C3453 1.561 . S
C3456 C3453 1.526 . S
C3456 C3457 1.396 . S
C3456 C3461 1.390 . S
C3457 C3451 1.465 . S
C3457 C3456 1.396 . S
C3457 C3458 1.399 . S
C3458 H3444 0.929 . S
C3458 C3457 1.399 . S
C3458 C3459 1.385 . S
C3459 H3445 0.931 . S
C3459 C3458 1.385 . S
C3459 C3460 1.389 . S
C3460 C3459 1.389 . S
C3460 C3461 1.387 . S
C3461 H3446 0.930 . S
C3461 C3456 1.390 . S
C3461 C3460 1.387 . S
H3462 C3474 0.930 . S
H3463 C3476 0.930 . S
H3464 C3477 0.930 . S
H3465 C3481 0.959 . S
H3466 C3481 0.959 . S
H3467 C3481 0.961 . S
H3468 C3482 0.960 . S
H3469 C3482 0.961 . S
H3470 C3482 0.959 . S
H3471 C3485 0.929 . S
H3472 C3486 0.931 . S
H3473 C3488 0.930 . S
C3474 H3462 0.930 . S
C3474 C3475 1.399 . S
C3474 C3479 1.399 . S
C3475 C3474 1.399 . S
C3475 C3476 1.376 . S
C3476 H3463 0.930 . S
C3476 C3475 1.376 . S
C3476 C3477 1.388 . S
C3477 H3464 0.930 . S
C3477 C3476 1.388 . S
C3477 C3478 1.390 . S
C3478 C3477 1.390 . S
C3478 C3479 1.394 . S
C3478 C3484 1.465 . S
C3479 C3474 1.399 . S
C3479 C3478 1.394 . S
C3479 C3480 1.516 . S
C3480 C3479 1.516 . S
C3480 C3481 1.502 . S
C3480 C3482 1.561 . S
C3480 C3483 1.526 . S
C3481 H3465 0.959 . S
C3481 H3466 0.959 . S
C3481 H3467 0.961 . S
C3481 C3480 1.502 . S
C3482 H3468 0.960 . S
C3482 H3469 0.961 . S
C3482 H3470 0.959 . S
C3482 C3480 1.561 . S
C3483 C3480 1.526 . S
C3483 C3484 1.396 . S
C3483 C3488 1.390 . S
C3484 C3478 1.465 . S
C3484 C3483 1.396 . S
C3484 C3485 1.399 . S
C3485 H3471 0.929 . S
C3485 C3484 1.399 . S
C3485 C3486 1.385 . S
C3486 H3472 0.931 . S
C3486 C3485 1.385 . S
C3486 C3487 1.389 . S
C3487 C3486 1.389 . S
C3487 C3488 1.387 . S
C3488 H3473 0.930 . S
C3488 C3483 1.390 . S
C3488 C3487 1.387 . S
H3489 C3501 0.930 . S
H3490 C3503 0.930 . S
H3491 C3504 0.930 1_545 S
H3492 C3508 0.959 . S
H3493 C3508 0.959 . S
H3494 C3508 0.961 . S
H3495 C3509 0.960 . S
H3496 C3509 0.961 . S
H3497 C3509 0.959 1_545 S
H3498 C3512 0.929 . S
H3499 C3513 0.931 . S
H3500 C3515 0.930 1_566 S
C3501 H3489 0.930 . S
C3501 C3502 1.399 1_556 S
C3501 C3506 1.399 1_556 S
C3502 C3501 1.399 1_554 S
C3502 C3503 1.376 . S
C3503 H3490 0.930 . S
C3503 C3502 1.376 . S
C3503 C3504 1.388 . S
C3504 H3491 0.930 1_565 S
C3504 C3503 1.388 . S
C3504 C3505 1.390 . S
C3505 C3504 1.390 . S
C3505 C3506 1.394 . S
C3505 C3511 1.465 1_565 S
C3506 C3501 1.399 1_554 S
C3506 C3505 1.394 . S
C3506 C3507 1.516 1_554 S
C3507 C3506 1.516 1_556 S
C3507 C3508 1.502 . S
C3507 C3509 1.561 . S
C3507 C3510 1.526 1_556 S
C3508 H3492 0.959 . S
C3508 H3493 0.959 . S
C3508 H3494 0.961 . S
C3508 C3507 1.502 . S
C3509 H3495 0.960 . S
C3509 H3496 0.961 . S
C3509 H3497 0.959 1_565 S
C3509 C3507 1.561 . S
C3510 C3507 1.526 1_554 S
C3510 C3511 1.396 1_565 S
C3510 C3515 1.390 1_565 S
C3511 C3505 1.465 1_545 S
C3511 C3510 1.396 1_545 S
C3511 C3512 1.399 . S
C3512 H3498 0.929 . S
C3512 C3511 1.399 . S
C3512 C3513 1.385 . S
C3513 H3499 0.931 . S
C3513 C3512 1.385 . S
C3513 C3514 1.389 . S
C3514 C3513 1.389 . S
C3514 C3515 1.387 . S
C3515 H3500 0.930 1_544 S
C3515 C3510 1.390 1_545 S
C3515 C3514 1.387 . S
H3516 C3528 0.930 . S
H3517 C3530 0.930 . S
H3518 C3531 0.930 . S
H3519 C3535 0.959 . S
H3520 C3535 0.959 . S
H3521 C3535 0.961 . S
H3522 C3536 0.960 . S
H3523 C3536 0.961 . S
H3524 C3536 0.959 . S
H3525 C3539 0.929 . S
H3526 C3540 0.931 . S
H3527 C3542 0.930 . S
C3528 H3516 0.930 . S
C3528 C3529 1.399 . S
C3528 C3533 1.399 . S
C3529 C3528 1.399 . S
C3529 C3530 1.376 . S
C3530 H3517 0.930 . S
C3530 C3529 1.376 . S
C3530 C3531 1.388 . S
C3531 H3518 0.930 . S
C3531 C3530 1.388 . S
C3531 C3532 1.390 . S
C3532 C3531 1.390 . S
C3532 C3533 1.394 . S
C3532 C3538 1.465 . S
C3533 C3528 1.399 . S
C3533 C3532 1.394 . S
C3533 C3534 1.516 . S
C3534 C3533 1.516 . S
C3534 C3535 1.502 . S
C3534 C3536 1.561 . S
C3534 C3537 1.526 . S
C3535 H3519 0.959 . S
C3535 H3520 0.959 . S
C3535 H3521 0.961 . S
C3535 C3534 1.502 . S
C3536 H3522 0.960 . S
C3536 H3523 0.961 . S
C3536 H3524 0.959 . S
C3536 C3534 1.561 . S
C3537 C3534 1.526 . S
C3537 C3538 1.396 . S
C3537 C3542 1.390 . S
C3538 C3532 1.465 . S
C3538 C3537 1.396 . S
C3538 C3539 1.399 . S
C3539 H3525 0.929 . S
C3539 C3538 1.399 . S
C3539 C3540 1.385 . S
C3540 H3526 0.931 . S
C3540 C3539 1.385 . S
C3540 C3541 1.389 . S
C3541 C3540 1.389 . S
C3541 C3542 1.387 . S
C3542 H3527 0.930 . S
C3542 C3537 1.390 . S
C3542 C3541 1.387 . S
H3543 C3555 0.930 . S
H3544 C3557 0.930 . S
H3545 C3558 0.930 . S
H3546 C3562 0.959 . S
H3547 C3562 0.959 . S
H3548 C3562 0.961 . S
H3549 C3563 0.960 . S
H3550 C3563 0.961 . S
H3551 C3563 0.959 . S
H3552 C3566 0.929 . S
H3553 C3567 0.931 . S
H3554 C3569 0.930 1_556 S
C3555 H3543 0.930 . S
C3555 C3556 1.399 1_556 S
C3555 C3560 1.399 1_556 S
C3556 C3555 1.399 1_554 S
C3556 C3557 1.376 . S
C3557 H3544 0.930 . S
C3557 C3556 1.376 . S
C3557 C3558 1.388 . S
C3558 H3545 0.930 . S
C3558 C3557 1.388 . S
C3558 C3559 1.390 . S
C3559 C3558 1.390 . S
C3559 C3560 1.394 . S
C3559 C3565 1.465 . S
C3560 C3555 1.399 1_554 S
C3560 C3559 1.394 . S
C3560 C3561 1.516 1_554 S
C3561 C3560 1.516 1_556 S
C3561 C3562 1.502 . S
C3561 C3563 1.561 . S
C3561 C3564 1.526 1_556 S
C3562 H3546 0.959 . S
C3562 H3547 0.959 . S
C3562 H3548 0.961 . S
C3562 C3561 1.502 . S
C3563 H3549 0.960 . S
C3563 H3550 0.961 . S
C3563 H3551 0.959 . S
C3563 C3561 1.561 . S
C3564 C3561 1.526 1_554 S
C3564 C3565 1.396 . S
C3564 C3569 1.390 . S
C3565 C3559 1.465 . S
C3565 C3564 1.396 . S
C3565 C3566 1.399 . S
C3566 H3552 0.929 . S
C3566 C3565 1.399 . S
C3566 C3567 1.385 . S
C3567 H3553 0.931 . S
C3567 C3566 1.385 . S
C3567 C3568 1.389 . S
C3568 C3567 1.389 . S
C3568 C3569 1.387 . S
C3569 H3554 0.930 1_554 S
C3569 C3564 1.390 . S
C3569 C3568 1.387 . S
H3570 C3582 0.930 . S
H3571 C3584 0.930 . S
H3572 C3585 0.930 . S
H3573 C3589 0.959 . S
H3574 C3589 0.959 . S
H3575 C3589 0.961 . S
H3576 C3590 0.960 . S
H3577 C3590 0.961 . S
H3578 C3590 0.959 . S
H3579 C3593 0.929 . S
H3580 C3594 0.931 . S
H3581 C3596 0.930 . S
C3582 H3570 0.930 . S
C3582 C3583 1.399 . S
C3582 C3587 1.399 . S
C3583 C3582 1.399 . S
C3583 C3584 1.376 . S
C3584 H3571 0.930 . S
C3584 C3583 1.376 . S
C3584 C3585 1.388 . S
C3585 H3572 0.930 . S
C3585 C3584 1.388 . S
C3585 C3586 1.390 . S
C3586 C3585 1.390 . S
C3586 C3587 1.394 . S
C3586 C3592 1.465 . S
C3587 C3582 1.399 . S
C3587 C3586 1.394 . S
C3587 C3588 1.516 . S
C3588 C3587 1.516 . S
C3588 C3589 1.502 . S
C3588 C3590 1.561 . S
C3588 C3591 1.526 . S
C3589 H3573 0.959 . S
C3589 H3574 0.959 . S
C3589 H3575 0.961 . S
C3589 C3588 1.502 . S
C3590 H3576 0.960 . S
C3590 H3577 0.961 . S
C3590 H3578 0.959 . S
C3590 C3588 1.561 . S
C3591 C3588 1.526 . S
C3591 C3592 1.396 . S
C3591 C3596 1.390 . S
C3592 C3586 1.465 . S
C3592 C3591 1.396 . S
C3592 C3593 1.399 . S
C3593 H3579 0.929 . S
C3593 C3592 1.399 . S
C3593 C3594 1.385 . S
C3594 H3580 0.931 . S
C3594 C3593 1.385 . S
C3594 C3595 1.389 . S
C3595 C3594 1.389 . S
C3595 C3596 1.387 . S
C3596 H3581 0.930 . S
C3596 C3591 1.390 . S
C3596 C3595 1.387 . S
H3597 C3609 0.930 . S
H3598 C3611 0.930 . S
H3599 C3612 0.930 . S
H3600 C3616 0.959 . S
H3601 C3616 0.959 . S
H3602 C3616 0.961 . S
H3603 C3617 0.960 . S
H3604 C3617 0.961 . S
H3605 C3617 0.959 . S
H3606 C3620 0.929 . S
H3607 C3621 0.931 . S
H3608 C3623 0.930 . S
C3609 H3597 0.930 . S
C3609 C3610 1.399 . S
C3609 C3614 1.399 . S
C3610 C3609 1.399 . S
C3610 C3611 1.376 . S
C3611 H3598 0.930 . S
C3611 C3610 1.376 . S
C3611 C3612 1.388 . S
C3612 H3599 0.930 . S
C3612 C3611 1.388 . S
C3612 C3613 1.390 . S
C3613 C3612 1.390 . S
C3613 C3614 1.394 . S
C3613 C3619 1.465 . S
C3614 C3609 1.399 . S
C3614 C3613 1.394 . S
C3614 C3615 1.516 . S
C3615 C3614 1.516 . S
C3615 C3616 1.502 . S
C3615 C3617 1.561 . S
C3615 C3618 1.526 . S
C3616 H3600 0.959 . S
C3616 H3601 0.959 . S
C3616 H3602 0.961 . S
C3616 C3615 1.502 . S
C3617 H3603 0.960 . S
C3617 H3604 0.961 . S
C3617 H3605 0.959 . S
C3617 C3615 1.561 . S
C3618 C3615 1.526 . S
C3618 C3619 1.396 . S
C3618 C3623 1.390 . S
C3619 C3613 1.465 . S
C3619 C3618 1.396 . S
C3619 C3620 1.399 . S
C3620 H3606 0.929 . S
C3620 C3619 1.399 . S
C3620 C3621 1.385 . S
C3621 H3607 0.931 . S
C3621 C3620 1.385 . S
C3621 C3622 1.389 . S
C3622 C3621 1.389 . S
C3622 C3623 1.387 . S
C3623 H3608 0.930 . S
C3623 C3618 1.390 . S
C3623 C3622 1.387 . S
H3624 C3636 0.930 . S
H3625 C3638 0.930 . S
H3626 C3639 0.930 . S
H3627 C3643 0.959 . S
H3628 C3643 0.959 . S
H3629 C3643 0.961 . S
H3630 C3644 0.960 . S
H3631 C3644 0.961 . S
H3632 C3644 0.959 . S
H3633 C3647 0.929 . S
H3634 C3648 0.931 . S
H3635 C3650 0.930 . S
C3636 H3624 0.930 . S
C3636 C3637 1.399 . S
C3636 C3641 1.399 . S
C3637 C3636 1.399 . S
C3637 C3638 1.376 . S
C3638 H3625 0.930 . S
C3638 C3637 1.376 . S
C3638 C3639 1.388 . S
C3639 H3626 0.930 . S
C3639 C3638 1.388 . S
C3639 C3640 1.390 . S
C3640 C3639 1.390 . S
C3640 C3641 1.394 . S
C3640 C3646 1.465 . S
C3641 C3636 1.399 . S
C3641 C3640 1.394 . S
C3641 C3642 1.516 . S
C3642 C3641 1.516 . S
C3642 C3643 1.502 . S
C3642 C3644 1.561 . S
C3642 C3645 1.526 . S
C3643 H3627 0.959 . S
C3643 H3628 0.959 . S
C3643 H3629 0.961 . S
C3643 C3642 1.502 . S
C3644 H3630 0.960 . S
C3644 H3631 0.961 . S
C3644 H3632 0.959 . S
C3644 C3642 1.561 . S
C3645 C3642 1.526 . S
C3645 C3646 1.396 . S
C3645 C3650 1.390 . S
C3646 C3640 1.465 . S
C3646 C3645 1.396 . S
C3646 C3647 1.399 . S
C3647 H3633 0.929 . S
C3647 C3646 1.399 . S
C3647 C3648 1.385 . S
C3648 H3634 0.931 . S
C3648 C3647 1.385 . S
C3648 C3649 1.389 . S
C3649 C3648 1.389 . S
C3649 C3650 1.387 . S
C3650 H3635 0.930 . S
C3650 C3645 1.390 . S
C3650 C3649 1.387 . S
H3651 C3663 0.930 . S
H3652 C3665 0.930 . S
H3653 C3666 0.930 . S
H3654 C3670 0.959 . S
H3655 C3670 0.959 . S
H3656 C3670 0.961 . S
H3657 C3671 0.960 . S
H3658 C3671 0.961 . S
H3659 C3671 0.959 . S
H3660 C3674 0.929 . S
H3661 C3675 0.931 . S
H3662 C3677 0.930 . S
C3663 H3651 0.930 . S
C3663 C3664 1.399 . S
C3663 C3668 1.399 . S
C3664 C3663 1.399 . S
C3664 C3665 1.376 . S
C3665 H3652 0.930 . S
C3665 C3664 1.376 . S
C3665 C3666 1.388 . S
C3666 H3653 0.930 . S
C3666 C3665 1.388 . S
C3666 C3667 1.390 . S
C3667 C3666 1.390 . S
C3667 C3668 1.394 . S
C3667 C3673 1.465 . S
C3668 C3663 1.399 . S
C3668 C3667 1.394 . S
C3668 C3669 1.516 . S
C3669 C3668 1.516 . S
C3669 C3670 1.502 . S
C3669 C3671 1.561 . S
C3669 C3672 1.526 . S
C3670 H3654 0.959 . S
C3670 H3655 0.959 . S
C3670 H3656 0.961 . S
C3670 C3669 1.502 . S
C3671 H3657 0.960 . S
C3671 H3658 0.961 . S
C3671 H3659 0.959 . S
C3671 C3669 1.561 . S
C3672 C3669 1.526 . S
C3672 C3673 1.396 . S
C3672 C3677 1.390 . S
C3673 C3667 1.465 . S
C3673 C3672 1.396 . S
C3673 C3674 1.399 . S
C3674 H3660 0.929 . S
C3674 C3673 1.399 . S
C3674 C3675 1.385 . S
C3675 H3661 0.931 . S
C3675 C3674 1.385 . S
C3675 C3676 1.389 . S
C3676 C3675 1.389 . S
C3676 C3677 1.387 . S
C3677 H3662 0.930 . S
C3677 C3672 1.390 . S
C3677 C3676 1.387 . S
H3678 C3690 0.930 . S
H3679 C3692 0.930 . S
H3680 C3693 0.930 . S
H3681 C3697 0.959 . S
H3682 C3697 0.959 1_556 S
H3683 C3697 0.961 . S
H3684 C3698 0.960 1_556 S
H3685 C3698 0.961 1_556 S
H3686 C3698 0.959 . S
H3687 C3701 0.929 . S
H3688 C3702 0.931 . S
H3689 C3704 0.930 . S
C3690 H3678 0.930 . S
C3690 C3691 1.399 . S
C3690 C3695 1.399 . S
C3691 C3690 1.399 . S
C3691 C3692 1.376 . S
C3692 H3679 0.930 . S
C3692 C3691 1.376 . S
C3692 C3693 1.388 . S
C3693 H3680 0.930 . S
C3693 C3692 1.388 . S
C3693 C3694 1.390 . S
C3694 C3693 1.390 . S
C3694 C3695 1.394 . S
C3694 C3700 1.465 . S
C3695 C3690 1.399 . S
C3695 C3694 1.394 . S
C3695 C3696 1.516 . S
C3696 C3695 1.516 . S
C3696 C3697 1.502 . S
C3696 C3698 1.561 . S
C3696 C3699 1.526 . S
C3697 H3681 0.959 . S
C3697 H3682 0.959 1_554 S
C3697 H3683 0.961 . S
C3697 C3696 1.502 . S
C3698 H3684 0.960 1_554 S
C3698 H3685 0.961 1_554 S
C3698 H3686 0.959 . S
C3698 C3696 1.561 . S
C3699 C3696 1.526 . S
C3699 C3700 1.396 . S
C3699 C3704 1.390 . S
C3700 C3694 1.465 . S
C3700 C3699 1.396 . S
C3700 C3701 1.399 . S
C3701 H3687 0.929 . S
C3701 C3700 1.399 . S
C3701 C3702 1.385 . S
C3702 H3688 0.931 . S
C3702 C3701 1.385 . S
C3702 C3703 1.389 . S
C3703 C3702 1.389 . S
C3703 C3704 1.387 . S
C3704 H3689 0.930 . S
C3704 C3699 1.390 . S
C3704 C3703 1.387 . S
H3705 C3717 0.930 . S
H3706 C3719 0.930 . S
H3707 C3720 0.930 . S
H3708 C3724 0.959 . S
H3709 C3724 0.959 . S
H3710 C3724 0.961 . S
H3711 C3725 0.960 . S
H3712 C3725 0.961 . S
H3713 C3725 0.959 . S
H3714 C3728 0.929 . S
H3715 C3729 0.931 . S
H3716 C3731 0.930 . S
C3717 H3705 0.930 . S
C3717 C3718 1.399 . S
C3717 C3722 1.399 . S
C3718 C3717 1.399 . S
C3718 C3719 1.376 . S
C3719 H3706 0.930 . S
C3719 C3718 1.376 . S
C3719 C3720 1.388 . S
C3720 H3707 0.930 . S
C3720 C3719 1.388 . S
C3720 C3721 1.390 . S
C3721 C3720 1.390 . S
C3721 C3722 1.394 . S
C3721 C3727 1.465 . S
C3722 C3717 1.399 . S
C3722 C3721 1.394 . S
C3722 C3723 1.516 . S
C3723 C3722 1.516 . S
C3723 C3724 1.502 . S
C3723 C3725 1.561 . S
C3723 C3726 1.526 . S
C3724 H3708 0.959 . S
C3724 H3709 0.959 . S
C3724 H3710 0.961 . S
C3724 C3723 1.502 . S
C3725 H3711 0.960 . S
C3725 H3712 0.961 . S
C3725 H3713 0.959 . S
C3725 C3723 1.561 . S
C3726 C3723 1.526 . S
C3726 C3727 1.396 . S
C3726 C3731 1.390 . S
C3727 C3721 1.465 . S
C3727 C3726 1.396 . S
C3727 C3728 1.399 . S
C3728 H3714 0.929 . S
C3728 C3727 1.399 . S
C3728 C3729 1.385 . S
C3729 H3715 0.931 . S
C3729 C3728 1.385 . S
C3729 C3730 1.389 . S
C3730 C3729 1.389 . S
C3730 C3731 1.387 . S
C3731 H3716 0.930 . S
C3731 C3726 1.390 . S
C3731 C3730 1.387 . S
H3732 C3744 0.930 . S
H3733 C3746 0.930 . S
H3734 C3747 0.930 . S
H3735 C3751 0.959 . S
H3736 C3751 0.959 . S
H3737 C3751 0.961 . S
H3738 C3752 0.960 . S
H3739 C3752 0.961 . S
H3740 C3752 0.959 . S
H3741 C3755 0.929 . S
H3742 C3756 0.931 1_554 S
H3743 C3758 0.930 . S
C3744 H3732 0.930 . S
C3744 C3745 1.399 . S
C3744 C3749 1.399 . S
C3745 C3744 1.399 . S
C3745 C3746 1.376 . S
C3746 H3733 0.930 . S
C3746 C3745 1.376 . S
C3746 C3747 1.388 . S
C3747 H3734 0.930 . S
C3747 C3746 1.388 . S
C3747 C3748 1.390 . S
C3748 C3747 1.390 . S
C3748 C3749 1.394 . S
C3748 C3754 1.465 . S
C3749 C3744 1.399 . S
C3749 C3748 1.394 . S
C3749 C3750 1.516 . S
C3750 C3749 1.516 . S
C3750 C3751 1.502 . S
C3750 C3752 1.561 . S
C3750 C3753 1.526 . S
C3751 H3735 0.959 . S
C3751 H3736 0.959 . S
C3751 H3737 0.961 . S
C3751 C3750 1.502 . S
C3752 H3738 0.960 . S
C3752 H3739 0.961 . S
C3752 H3740 0.959 . S
C3752 C3750 1.561 . S
C3753 C3750 1.526 . S
C3753 C3754 1.396 . S
C3753 C3758 1.390 . S
C3754 C3748 1.465 . S
C3754 C3753 1.396 . S
C3754 C3755 1.399 . S
C3755 H3741 0.929 . S
C3755 C3754 1.399 . S
C3755 C3756 1.385 . S
C3756 H3742 0.931 1_556 S
C3756 C3755 1.385 . S
C3756 C3757 1.389 . S
C3757 C3756 1.389 . S
C3757 C3758 1.387 . S
C3758 H3743 0.930 . S
C3758 C3753 1.390 . S
C3758 C3757 1.387 . S
H3759 C3771 0.930 . S
H3760 C3773 0.930 . S
H3761 C3774 0.930 . S
H3762 C3778 0.959 . S
H3763 C3778 0.959 . S
H3764 C3778 0.961 . S
H3765 C3779 0.960 . S
H3766 C3779 0.961 . S
H3767 C3779 0.959 . S
H3768 C3782 0.929 . S
H3769 C3783 0.931 . S
H3770 C3785 0.930 . S
C3771 H3759 0.930 . S
C3771 C3772 1.399 . S
C3771 C3776 1.399 . S
C3772 C3771 1.399 . S
C3772 C3773 1.376 . S
C3773 H3760 0.930 . S
C3773 C3772 1.376 . S
C3773 C3774 1.388 . S
C3774 H3761 0.930 . S
C3774 C3773 1.388 . S
C3774 C3775 1.390 . S
C3775 C3774 1.390 . S
C3775 C3776 1.394 . S
C3775 C3781 1.465 . S
C3776 C3771 1.399 . S
C3776 C3775 1.394 . S
C3776 C3777 1.516 . S
C3777 C3776 1.516 . S
C3777 C3778 1.502 . S
C3777 C3779 1.561 . S
C3777 C3780 1.526 . S
C3778 H3762 0.959 . S
C3778 H3763 0.959 . S
C3778 H3764 0.961 . S
C3778 C3777 1.502 . S
C3779 H3765 0.960 . S
C3779 H3766 0.961 . S
C3779 H3767 0.959 . S
C3779 C3777 1.561 . S
C3780 C3777 1.526 . S
C3780 C3781 1.396 . S
C3780 C3785 1.390 . S
C3781 C3775 1.465 . S
C3781 C3780 1.396 . S
C3781 C3782 1.399 . S
C3782 H3768 0.929 . S
C3782 C3781 1.399 . S
C3782 C3783 1.385 . S
C3783 H3769 0.931 . S
C3783 C3782 1.385 . S
C3783 C3784 1.389 . S
C3784 C3783 1.389 . S
C3784 C3785 1.387 . S
C3785 H3770 0.930 . S
C3785 C3780 1.390 . S
C3785 C3784 1.387 . S
H3786 C3798 0.930 . S
H3787 C3800 0.930 . S
H3788 C3801 0.930 . S
H3789 C3805 0.959 . S
H3790 C3805 0.959 . S
H3791 C3805 0.961 . S
H3792 C3806 0.960 . S
H3793 C3806 0.961 . S
H3794 C3806 0.959 . S
H3795 C3809 0.929 . S
H3796 C3810 0.931 . S
H3797 C3812 0.930 . S
C3798 H3786 0.930 . S
C3798 C3799 1.399 . S
C3798 C3803 1.399 . S
C3799 C3798 1.399 . S
C3799 C3800 1.376 . S
C3800 H3787 0.930 . S
C3800 C3799 1.376 . S
C3800 C3801 1.388 . S
C3801 H3788 0.930 . S
C3801 C3800 1.388 . S
C3801 C3802 1.390 . S
C3802 C3801 1.390 . S
C3802 C3803 1.394 . S
C3802 C3808 1.465 . S
C3803 C3798 1.399 . S
C3803 C3802 1.394 . S
C3803 C3804 1.516 . S
C3804 C3803 1.516 . S
C3804 C3805 1.502 . S
C3804 C3806 1.561 . S
C3804 C3807 1.526 . S
C3805 H3789 0.959 . S
C3805 H3790 0.959 . S
C3805 H3791 0.961 . S
C3805 C3804 1.502 . S
C3806 H3792 0.960 . S
C3806 H3793 0.961 . S
C3806 H3794 0.959 . S
C3806 C3804 1.561 . S
C3807 C3804 1.526 . S
C3807 C3808 1.396 . S
C3807 C3812 1.390 . S
C3808 C3802 1.465 . S
C3808 C3807 1.396 . S
C3808 C3809 1.399 . S
C3809 H3795 0.929 . S
C3809 C3808 1.399 . S
C3809 C3810 1.385 . S
C3810 H3796 0.931 . S
C3810 C3809 1.385 . S
C3810 C3811 1.389 . S
C3811 C3810 1.389 . S
C3811 C3812 1.387 . S
C3812 H3797 0.930 . S
C3812 C3807 1.390 . S
C3812 C3811 1.387 . S
H3813 C3825 0.930 . S
H3814 C3827 0.930 . S
H3815 C3828 0.930 . S
H3816 C3832 0.959 . S
H3817 C3832 0.959 . S
H3818 C3832 0.961 . S
H3819 C3833 0.960 . S
H3820 C3833 0.961 . S
H3821 C3833 0.959 . S
H3822 C3836 0.929 . S
H3823 C3837 0.931 . S
H3824 C3839 0.930 . S
C3825 H3813 0.930 . S
C3825 C3826 1.399 . S
C3825 C3830 1.399 . S
C3826 C3825 1.399 . S
C3826 C3827 1.376 . S
C3827 H3814 0.930 . S
C3827 C3826 1.376 . S
C3827 C3828 1.388 . S
C3828 H3815 0.930 . S
C3828 C3827 1.388 . S
C3828 C3829 1.390 . S
C3829 C3828 1.390 . S
C3829 C3830 1.394 . S
C3829 C3835 1.465 . S
C3830 C3825 1.399 . S
C3830 C3829 1.394 . S
C3830 C3831 1.516 . S
C3831 C3830 1.516 . S
C3831 C3832 1.502 . S
C3831 C3833 1.561 . S
C3831 C3834 1.526 . S
C3832 H3816 0.959 . S
C3832 H3817 0.959 . S
C3832 H3818 0.961 . S
C3832 C3831 1.502 . S
C3833 H3819 0.960 . S
C3833 H3820 0.961 . S
C3833 H3821 0.959 . S
C3833 C3831 1.561 . S
C3834 C3831 1.526 . S
C3834 C3835 1.396 . S
C3834 C3839 1.390 . S
C3835 C3829 1.465 . S
C3835 C3834 1.396 . S
C3835 C3836 1.399 . S
C3836 H3822 0.929 . S
C3836 C3835 1.399 . S
C3836 C3837 1.385 . S
C3837 H3823 0.931 . S
C3837 C3836 1.385 . S
C3837 C3838 1.389 . S
C3838 C3837 1.389 . S
C3838 C3839 1.387 . S
C3839 H3824 0.930 . S
C3839 C3834 1.390 . S
C3839 C3838 1.387 . S
H3840 C3852 0.930 . S
H3841 C3854 0.930 . S
H3842 C3855 0.930 . S
H3843 C3859 0.959 . S
H3844 C3859 0.959 . S
H3845 C3859 0.961 . S
H3846 C3860 0.960 . S
H3847 C3860 0.961 . S
H3848 C3860 0.959 . S
H3849 C3863 0.929 . S
H3850 C3864 0.931 . S
H3851 C3866 0.930 . S
C3852 H3840 0.930 . S
C3852 C3853 1.399 . S
C3852 C3857 1.399 . S
C3853 C3852 1.399 . S
C3853 C3854 1.376 . S
C3854 H3841 0.930 . S
C3854 C3853 1.376 . S
C3854 C3855 1.388 . S
C3855 H3842 0.930 . S
C3855 C3854 1.388 . S
C3855 C3856 1.390 . S
C3856 C3855 1.390 . S
C3856 C3857 1.394 . S
C3856 C3862 1.465 . S
C3857 C3852 1.399 . S
C3857 C3856 1.394 . S
C3857 C3858 1.516 . S
C3858 C3857 1.516 . S
C3858 C3859 1.502 . S
C3858 C3860 1.561 . S
C3858 C3861 1.526 . S
C3859 H3843 0.959 . S
C3859 H3844 0.959 . S
C3859 H3845 0.961 . S
C3859 C3858 1.502 . S
C3860 H3846 0.960 . S
C3860 H3847 0.961 . S
C3860 H3848 0.959 . S
C3860 C3858 1.561 . S
C3861 C3858 1.526 . S
C3861 C3862 1.396 . S
C3861 C3866 1.390 . S
C3862 C3856 1.465 . S
C3862 C3861 1.396 . S
C3862 C3863 1.399 . S
C3863 H3849 0.929 . S
C3863 C3862 1.399 . S
C3863 C3864 1.385 . S
C3864 H3850 0.931 . S
C3864 C3863 1.385 . S
C3864 C3865 1.389 . S
C3865 C3864 1.389 . S
C3865 C3866 1.387 . S
C3866 H3851 0.930 . S
C3866 C3861 1.390 . S
C3866 C3865 1.387 . S
H3867 C3879 0.930 . S
H3868 C3881 0.930 . S
H3869 C3882 0.930 . S
H3870 C3886 0.959 . S
H3871 C3886 0.959 . S
H3872 C3886 0.961 . S
H3873 C3887 0.960 . S
H3874 C3887 0.961 . S
H3875 C3887 0.959 . S
H3876 C3890 0.929 . S
H3877 C3891 0.931 . S
H3878 C3893 0.930 . S
C3879 H3867 0.930 . S
C3879 C3880 1.399 . S
C3879 C3884 1.399 . S
C3880 C3879 1.399 . S
C3880 C3881 1.376 . S
C3881 H3868 0.930 . S
C3881 C3880 1.376 . S
C3881 C3882 1.388 . S
C3882 H3869 0.930 . S
C3882 C3881 1.388 . S
C3882 C3883 1.390 . S
C3883 C3882 1.390 . S
C3883 C3884 1.394 . S
C3883 C3889 1.465 . S
C3884 C3879 1.399 . S
C3884 C3883 1.394 . S
C3884 C3885 1.516 . S
C3885 C3884 1.516 . S
C3885 C3886 1.502 . S
C3885 C3887 1.561 . S
C3885 C3888 1.526 . S
C3886 H3870 0.959 . S
C3886 H3871 0.959 . S
C3886 H3872 0.961 . S
C3886 C3885 1.502 . S
C3887 H3873 0.960 . S
C3887 H3874 0.961 . S
C3887 H3875 0.959 . S
C3887 C3885 1.561 . S
C3888 C3885 1.526 . S
C3888 C3889 1.396 . S
C3888 C3893 1.390 . S
C3889 C3883 1.465 . S
C3889 C3888 1.396 . S
C3889 C3890 1.399 . S
C3890 H3876 0.929 . S
C3890 C3889 1.399 . S
C3890 C3891 1.385 . S
C3891 H3877 0.931 . S
C3891 C3890 1.385 . S
C3891 C3892 1.389 . S
C3892 C3891 1.389 . S
C3892 C3893 1.387 . S
C3893 H3878 0.930 . S
C3893 C3888 1.390 . S
C3893 C3892 1.387 . S
H3894 C3906 0.930 . S
H3895 C3908 0.930 . S
H3896 C3909 0.930 . S
H3897 C3913 0.959 . S
H3898 C3913 0.959 . S
H3899 C3913 0.961 . S
H3900 C3914 0.960 . S
H3901 C3914 0.961 1_455 S
H3902 C3914 0.959 . S
H3903 C3917 0.929 . S
H3904 C3918 0.931 . S
H3905 C3920 0.930 . S
C3906 H3894 0.930 . S
C3906 C3907 1.399 . S
C3906 C3911 1.399 . S
C3907 C3906 1.399 . S
C3907 C3908 1.376 . S
C3908 H3895 0.930 . S
C3908 C3907 1.376 . S
C3908 C3909 1.388 . S
C3909 H3896 0.930 . S
C3909 C3908 1.388 . S
C3909 C3910 1.390 . S
C3910 C3909 1.390 . S
C3910 C3911 1.394 . S
C3910 C3916 1.465 . S
C3911 C3906 1.399 . S
C3911 C3910 1.394 . S
C3911 C3912 1.516 . S
C3912 C3911 1.516 . S
C3912 C3913 1.502 1_655 S
C3912 C3914 1.561 . S
C3912 C3915 1.526 1_655 S
C3913 H3897 0.959 . S
C3913 H3898 0.959 . S
C3913 H3899 0.961 . S
C3913 C3912 1.502 1_455 S
C3914 H3900 0.960 . S
C3914 H3901 0.961 1_655 S
C3914 H3902 0.959 . S
C3914 C3912 1.561 . S
C3915 C3912 1.526 1_455 S
C3915 C3916 1.396 1_455 S
C3915 C3920 1.390 . S
C3916 C3910 1.465 . S
C3916 C3915 1.396 1_655 S
C3916 C3917 1.399 . S
C3917 H3903 0.929 . S
C3917 C3916 1.399 . S
C3917 C3918 1.385 1_655 S
C3918 H3904 0.931 . S
C3918 C3917 1.385 1_455 S
C3918 C3919 1.389 . S
C3919 C3918 1.389 . S
C3919 C3920 1.387 . S
C3920 H3905 0.930 . S
C3920 C3915 1.390 . S
C3920 C3919 1.387 . S
H3921 C3933 0.930 . S
H3922 C3935 0.930 . S
H3923 C3936 0.930 . S
H3924 C3940 0.959 . S
H3925 C3940 0.959 . S
H3926 C3940 0.961 . S
H3927 C3941 0.960 . S
H3928 C3941 0.961 . S
H3929 C3941 0.959 . S
H3930 C3944 0.929 . S
H3931 C3945 0.931 . S
H3932 C3947 0.930 . S
C3933 H3921 0.930 . S
C3933 C3934 1.399 . S
C3933 C3938 1.399 . S
C3934 C3933 1.399 . S
C3934 C3935 1.376 . S
C3935 H3922 0.930 . S
C3935 C3934 1.376 . S
C3935 C3936 1.388 . S
C3936 H3923 0.930 . S
C3936 C3935 1.388 . S
C3936 C3937 1.390 . S
C3937 C3936 1.390 . S
C3937 C3938 1.394 . S
C3937 C3943 1.465 . S
C3938 C3933 1.399 . S
C3938 C3937 1.394 . S
C3938 C3939 1.516 . S
C3939 C3938 1.516 . S
C3939 C3940 1.502 . S
C3939 C3941 1.561 . S
C3939 C3942 1.526 . S
C3940 H3924 0.959 . S
C3940 H3925 0.959 . S
C3940 H3926 0.961 . S
C3940 C3939 1.502 . S
C3941 H3927 0.960 . S
C3941 H3928 0.961 . S
C3941 H3929 0.959 . S
C3941 C3939 1.561 . S
C3942 C3939 1.526 . S
C3942 C3943 1.396 . S
C3942 C3947 1.390 . S
C3943 C3937 1.465 . S
C3943 C3942 1.396 . S
C3943 C3944 1.399 . S
C3944 H3930 0.929 . S
C3944 C3943 1.399 . S
C3944 C3945 1.385 . S
C3945 H3931 0.931 . S
C3945 C3944 1.385 . S
C3945 C3946 1.389 . S
C3946 C3945 1.389 . S
C3946 C3947 1.387 . S
C3947 H3932 0.930 . S
C3947 C3942 1.390 . S
C3947 C3946 1.387 . S
H3948 C3960 0.930 . S
H3949 C3962 0.930 . S
H3950 C3963 0.930 . S
H3951 C3967 0.959 . S
H3952 C3967 0.959 . S
H3953 C3967 0.961 . S
H3954 C3968 0.960 . S
H3955 C3968 0.961 . S
H3956 C3968 0.959 . S
H3957 C3971 0.929 . S
H3958 C3972 0.931 . S
H3959 C3974 0.930 . S
C3960 H3948 0.930 . S
C3960 C3961 1.399 . S
C3960 C3965 1.399 . S
C3961 C3960 1.399 . S
C3961 C3962 1.376 . S
C3962 H3949 0.930 . S
C3962 C3961 1.376 . S
C3962 C3963 1.388 . S
C3963 H3950 0.930 . S
C3963 C3962 1.388 . S
C3963 C3964 1.390 . S
C3964 C3963 1.390 . S
C3964 C3965 1.394 . S
C3964 C3970 1.465 . S
C3965 C3960 1.399 . S
C3965 C3964 1.394 . S
C3965 C3966 1.516 . S
C3966 C3965 1.516 . S
C3966 C3967 1.502 . S
C3966 C3968 1.561 . S
C3966 C3969 1.526 . S
C3967 H3951 0.959 . S
C3967 H3952 0.959 . S
C3967 H3953 0.961 . S
C3967 C3966 1.502 . S
C3968 H3954 0.960 . S
C3968 H3955 0.961 . S
C3968 H3956 0.959 . S
C3968 C3966 1.561 . S
C3969 C3966 1.526 . S
C3969 C3970 1.396 . S
C3969 C3974 1.390 . S
C3970 C3964 1.465 . S
C3970 C3969 1.396 . S
C3970 C3971 1.399 . S
C3971 H3957 0.929 . S
C3971 C3970 1.399 . S
C3971 C3972 1.385 . S
C3972 H3958 0.931 . S
C3972 C3971 1.385 . S
C3972 C3973 1.389 . S
C3973 C3972 1.389 . S
C3973 C3974 1.387 . S
C3974 H3959 0.930 . S
C3974 C3969 1.390 . S
C3974 C3973 1.387 . S
H3975 C3987 0.930 . S
H3976 C3989 0.930 . S
H3977 C3990 0.930 . S
H3978 C3994 0.959 . S
H3979 C3994 0.959 . S
H3980 C3994 0.961 . S
H3981 C3995 0.960 . S
H3982 C3995 0.961 . S
H3983 C3995 0.959 . S
H3984 C3998 0.929 . S
H3985 C3999 0.931 . S
H3986 C4001 0.930 . S
C3987 H3975 0.930 . S
C3987 C3988 1.399 . S
C3987 C3992 1.399 . S
C3988 C3987 1.399 . S
C3988 C3989 1.376 . S
C3989 H3976 0.930 . S
C3989 C3988 1.376 . S
C3989 C3990 1.388 . S
C3990 H3977 0.930 . S
C3990 C3989 1.388 . S
C3990 C3991 1.390 . S
C3991 C3990 1.390 . S
C3991 C3992 1.394 . S
C3991 C3997 1.465 . S
C3992 C3987 1.399 . S
C3992 C3991 1.394 . S
C3992 C3993 1.516 . S
C3993 C3992 1.516 . S
C3993 C3994 1.502 . S
C3993 C3995 1.561 . S
C3993 C3996 1.526 . S
C3994 H3978 0.959 . S
C3994 H3979 0.959 . S
C3994 H3980 0.961 . S
C3994 C3993 1.502 . S
C3995 H3981 0.960 . S
C3995 H3982 0.961 . S
C3995 H3983 0.959 . S
C3995 C3993 1.561 . S
C3996 C3993 1.526 . S
C3996 C3997 1.396 . S
C3996 C4001 1.390 . S
C3997 C3991 1.465 . S
C3997 C3996 1.396 . S
C3997 C3998 1.399 . S
C3998 H3984 0.929 . S
C3998 C3997 1.399 . S
C3998 C3999 1.385 . S
C3999 H3985 0.931 . S
C3999 C3998 1.385 . S
C3999 C4000 1.389 . S
C4000 C3999 1.389 . S
C4000 C4001 1.387 . S
C4001 H3986 0.930 . S
C4001 C3996 1.390 . S
C4001 C4000 1.387 . S
H4002 C4014 0.930 . S
H4003 C4016 0.930 . S
H4004 C4017 0.930 . S
H4005 C4021 0.958 1_455 S
H4006 C4021 0.959 . S
H4007 C4021 0.961 . S
H4008 C4022 0.960 . S
H4009 C4022 0.961 . S
H4010 C4022 0.959 . S
H4011 C4025 0.929 . S
H4012 C4026 0.931 . S
H4013 C4028 0.930 . S
C4014 H4002 0.930 . S
C4014 C4015 1.399 . S
C4014 C4019 1.399 . S
C4015 C4014 1.399 . S
C4015 C4016 1.376 . S
C4016 H4003 0.930 . S
C4016 C4015 1.376 . S
C4016 C4017 1.388 . S
C4017 H4004 0.930 . S
C4017 C4016 1.388 . S
C4017 C4018 1.390 . S
C4018 C4017 1.390 . S
C4018 C4019 1.394 . S
C4018 C4024 1.465 . S
C4019 C4014 1.399 . S
C4019 C4018 1.394 . S
C4019 C4020 1.516 . S
C4020 C4019 1.516 . S
C4020 C4021 1.502 . S
C4020 C4022 1.561 . S
C4020 C4023 1.526 . S
C4021 H4005 0.958 1_655 S
C4021 H4006 0.959 . S
C4021 H4007 0.961 . S
C4021 C4020 1.502 . S
C4022 H4008 0.960 . S
C4022 H4009 0.961 . S
C4022 H4010 0.959 . S
C4022 C4020 1.561 . S
C4023 C4020 1.526 . S
C4023 C4024 1.396 . S
C4023 C4028 1.390 . S
C4024 C4018 1.465 . S
C4024 C4023 1.396 . S
C4024 C4025 1.399 . S
C4025 H4011 0.929 . S
C4025 C4024 1.399 . S
C4025 C4026 1.385 . S
C4026 H4012 0.931 . S
C4026 C4025 1.385 . S
C4026 C4027 1.389 . S
C4027 C4026 1.389 . S
C4027 C4028 1.387 . S
C4028 H4013 0.930 . S
C4028 C4023 1.390 . S
C4028 C4027 1.387 . S
H4029 C4041 0.930 . S
H4030 C4043 0.930 . S
H4031 C4044 0.930 . S
H4032 C4048 0.959 . S
H4033 C4048 0.959 . S
H4034 C4048 0.961 . S
H4035 C4049 0.960 . S
H4036 C4049 0.961 . S
H4037 C4049 0.959 . S
H4038 C4052 0.929 . S
H4039 C4053 0.931 . S
H4040 C4055 0.930 . S
C4041 H4029 0.930 . S
C4041 C4042 1.399 . S
C4041 C4046 1.399 . S
C4042 C4041 1.399 . S
C4042 C4043 1.376 . S
C4043 H4030 0.930 . S
C4043 C4042 1.376 . S
C4043 C4044 1.388 . S
C4044 H4031 0.930 . S
C4044 C4043 1.388 . S
C4044 C4045 1.390 . S
C4045 C4044 1.390 . S
C4045 C4046 1.394 . S
C4045 C4051 1.465 . S
C4046 C4041 1.399 . S
C4046 C4045 1.394 . S
C4046 C4047 1.516 . S
C4047 C4046 1.516 . S
C4047 C4048 1.502 . S
C4047 C4049 1.561 . S
C4047 C4050 1.526 . S
C4048 H4032 0.959 . S
C4048 H4033 0.959 . S
C4048 H4034 0.961 . S
C4048 C4047 1.502 . S
C4049 H4035 0.960 . S
C4049 H4036 0.961 . S
C4049 H4037 0.959 . S
C4049 C4047 1.561 . S
C4050 C4047 1.526 . S
C4050 C4051 1.396 . S
C4050 C4055 1.390 . S
C4051 C4045 1.465 . S
C4051 C4050 1.396 . S
C4051 C4052 1.399 . S
C4052 H4038 0.929 . S
C4052 C4051 1.399 . S
C4052 C4053 1.385 . S
C4053 H4039 0.931 . S
C4053 C4052 1.385 . S
C4053 C4054 1.389 . S
C4054 C4053 1.389 . S
C4054 C4055 1.387 . S
C4055 H4040 0.930 . S
C4055 C4050 1.390 . S
C4055 C4054 1.387 . S
H4056 C4068 0.930 . S
H4057 C4070 0.930 . S
H4058 C4071 0.930 . S
H4059 C4075 0.959 . S
H4060 C4075 0.959 . S
H4061 C4075 0.961 . S
H4062 C4076 0.960 . S
H4063 C4076 0.961 . S
H4064 C4076 0.959 . S
H4065 C4079 0.929 . S
H4066 C4080 0.931 . S
H4067 C4082 0.930 . S
C4068 H4056 0.930 . S
C4068 C4069 1.399 . S
C4068 C4073 1.399 . S
C4069 C4068 1.399 . S
C4069 C4070 1.376 . S
C4070 H4057 0.930 . S
C4070 C4069 1.376 . S
C4070 C4071 1.388 . S
C4071 H4058 0.930 . S
C4071 C4070 1.388 . S
C4071 C4072 1.390 . S
C4072 C4071 1.390 . S
C4072 C4073 1.394 . S
C4072 C4078 1.465 . S
C4073 C4068 1.399 . S
C4073 C4072 1.394 . S
C4073 C4074 1.516 . S
C4074 C4073 1.516 . S
C4074 C4075 1.502 . S
C4074 C4076 1.561 . S
C4074 C4077 1.526 . S
C4075 H4059 0.959 . S
C4075 H4060 0.959 . S
C4075 H4061 0.961 . S
C4075 C4074 1.502 . S
C4076 H4062 0.960 . S
C4076 H4063 0.961 . S
C4076 H4064 0.959 . S
C4076 C4074 1.561 . S
C4077 C4074 1.526 . S
C4077 C4078 1.396 . S
C4077 C4082 1.390 . S
C4078 C4072 1.465 . S
C4078 C4077 1.396 . S
C4078 C4079 1.399 . S
C4079 H4065 0.929 . S
C4079 C4078 1.399 . S
C4079 C4080 1.385 . S
C4080 H4066 0.931 . S
C4080 C4079 1.385 . S
C4080 C4081 1.389 . S
C4081 C4080 1.389 . S
C4081 C4082 1.387 . S
C4082 H4067 0.930 . S
C4082 C4077 1.390 . S
C4082 C4081 1.387 . S
H4083 C4095 0.930 . S
H4084 C4097 0.930 . S
H4085 C4098 0.930 . S
H4086 C4102 0.959 . S
H4087 C4102 0.959 1_545 S
H4088 C4102 0.961 . S
H4089 C4103 0.960 . S
H4090 C4103 0.961 . S
H4091 C4103 0.959 . S
H4092 C4106 0.929 . S
H4093 C4107 0.931 . S
H4094 C4109 0.930 1_545 S
C4095 H4083 0.930 . S
C4095 C4096 1.399 . S
C4095 C4100 1.399 . S
C4096 C4095 1.399 . S
C4096 C4097 1.376 . S
C4097 H4084 0.930 . S
C4097 C4096 1.376 . S
C4097 C4098 1.388 . S
C4098 H4085 0.930 . S
C4098 C4097 1.388 . S
C4098 C4099 1.390 . S
C4099 C4098 1.390 . S
C4099 C4100 1.394 . S
C4099 C4105 1.465 . S
C4100 C4095 1.399 . S
C4100 C4099 1.394 . S
C4100 C4101 1.516 . S
C4101 C4100 1.516 . S
C4101 C4102 1.502 . S
C4101 C4103 1.561 . S
C4101 C4104 1.526 . S
C4102 H4086 0.959 . S
C4102 H4087 0.959 1_565 S
C4102 H4088 0.961 . S
C4102 C4101 1.502 . S
C4103 H4089 0.960 . S
C4103 H4090 0.961 . S
C4103 H4091 0.959 . S
C4103 C4101 1.561 . S
C4104 C4101 1.526 . S
C4104 C4105 1.396 . S
C4104 C4109 1.390 . S
C4105 C4099 1.465 . S
C4105 C4104 1.396 . S
C4105 C4106 1.399 . S
C4106 H4092 0.929 . S
C4106 C4105 1.399 . S
C4106 C4107 1.385 . S
C4107 H4093 0.931 . S
C4107 C4106 1.385 . S
C4107 C4108 1.389 . S
C4108 C4107 1.389 . S
C4108 C4109 1.387 . S
C4109 H4094 0.930 1_565 S
C4109 C4104 1.390 . S
C4109 C4108 1.387 . S
H4110 C4122 0.930 . S
H4111 C4124 0.930 . S
H4112 C4125 0.930 . S
H4113 C4129 0.959 . S
H4114 C4129 0.959 . S
H4115 C4129 0.961 . S
H4116 C4130 0.960 . S
H4117 C4130 0.961 . S
H4118 C4130 0.959 . S
H4119 C4133 0.929 . S
H4120 C4134 0.931 . S
H4121 C4136 0.930 . S
C4122 H4110 0.930 . S
C4122 C4123 1.399 . S
C4122 C4127 1.399 . S
C4123 C4122 1.399 . S
C4123 C4124 1.376 . S
C4124 H4111 0.930 . S
C4124 C4123 1.376 . S
C4124 C4125 1.388 . S
C4125 H4112 0.930 . S
C4125 C4124 1.388 . S
C4125 C4126 1.390 . S
C4126 C4125 1.390 . S
C4126 C4127 1.394 . S
C4126 C4132 1.465 . S
C4127 C4122 1.399 . S
C4127 C4126 1.394 . S
C4127 C4128 1.516 . S
C4128 C4127 1.516 . S
C4128 C4129 1.502 . S
C4128 C4130 1.561 . S
C4128 C4131 1.526 . S
C4129 H4113 0.959 . S
C4129 H4114 0.959 . S
C4129 H4115 0.961 . S
C4129 C4128 1.502 . S
C4130 H4116 0.960 . S
C4130 H4117 0.961 . S
C4130 H4118 0.959 . S
C4130 C4128 1.561 . S
C4131 C4128 1.526 . S
C4131 C4132 1.396 . S
C4131 C4136 1.390 . S
C4132 C4126 1.465 . S
C4132 C4131 1.396 . S
C4132 C4133 1.399 . S
C4133 H4119 0.929 . S
C4133 C4132 1.399 . S
C4133 C4134 1.385 . S
C4134 H4120 0.931 . S
C4134 C4133 1.385 . S
C4134 C4135 1.389 . S
C4135 C4134 1.389 . S
C4135 C4136 1.387 . S
C4136 H4121 0.930 . S
C4136 C4131 1.390 . S
C4136 C4135 1.387 . S
H4137 C4149 0.930 . S
H4138 C4151 0.940 . S
H4139 C4152 0.930 . S
H4140 C4156 0.959 . S
H4141 C4156 0.959 . S
H4142 C4156 0.961 . S
H4143 C4157 0.960 . S
H4144 C4157 0.961 . S
H4145 C4157 0.959 . S
H4146 C4160 0.929 . S
H4147 C4161 0.931 . S
H4148 C4163 0.930 . S
C4149 H4137 0.930 . S
C4149 C4150 1.399 . S
C4149 C4154 1.399 . S
C4150 C4149 1.399 . S
C4150 C4151 1.366 1_554 S
C4151 H4138 0.940 . S
C4151 C4150 1.366 1_556 S
C4151 C4152 1.390 . S
C4152 H4139 0.930 . S
C4152 C4151 1.390 . S
C4152 C4153 1.390 1_556 S
C4153 C4152 1.390 1_554 S
C4153 C4154 1.394 . S
C4153 C4159 1.465 . S
C4154 C4149 1.399 . S
C4154 C4153 1.394 . S
C4154 C4155 1.516 . S
C4155 C4154 1.516 . S
C4155 C4156 1.502 . S
C4155 C4157 1.561 . S
C4155 C4158 1.526 . S
C4156 H4140 0.959 . S
C4156 H4141 0.959 . S
C4156 H4142 0.961 . S
C4156 C4155 1.502 . S
C4157 H4143 0.960 . S
C4157 H4144 0.961 . S
C4157 H4145 0.959 . S
C4157 C4155 1.561 . S
C4158 C4155 1.526 . S
C4158 C4159 1.396 . S
C4158 C4163 1.390 . S
C4159 C4153 1.465 . S
C4159 C4158 1.396 . S
C4159 C4160 1.399 1_554 S
C4160 H4146 0.929 . S
C4160 C4159 1.399 1_556 S
C4160 C4161 1.385 . S
C4161 H4147 0.931 . S
C4161 C4160 1.385 . S
C4161 C4162 1.389 1_556 S
C4162 C4161 1.389 1_554 S
C4162 C4163 1.387 . S
C4163 H4148 0.930 . S
C4163 C4158 1.390 . S
C4163 C4162 1.387 . S
H4164 C4176 0.930 . S
H4165 C4178 0.930 . S
H4166 C4179 0.930 . S
H4167 C4183 0.959 . S
H4168 C4183 0.959 . S
H4169 C4183 0.961 . S
H4170 C4184 0.960 . S
H4171 C4184 0.961 . S
H4172 C4184 0.959 . S
H4173 C4187 0.929 . S
H4174 C4188 0.931 . S
H4175 C4190 0.930 . S
C4176 H4164 0.930 . S
C4176 C4177 1.399 . S
C4176 C4181 1.399 . S
C4177 C4176 1.399 . S
C4177 C4178 1.376 . S
C4178 H4165 0.930 . S
C4178 C4177 1.376 . S
C4178 C4179 1.388 . S
C4179 H4166 0.930 . S
C4179 C4178 1.388 . S
C4179 C4180 1.390 . S
C4180 C4179 1.390 . S
C4180 C4181 1.394 . S
C4180 C4186 1.465 . S
C4181 C4176 1.399 . S
C4181 C4180 1.394 . S
C4181 C4182 1.516 . S
C4182 C4181 1.516 . S
C4182 C4183 1.502 . S
C4182 C4184 1.561 . S
C4182 C4185 1.526 . S
C4183 H4167 0.959 . S
C4183 H4168 0.959 . S
C4183 H4169 0.961 . S
C4183 C4182 1.502 . S
C4184 H4170 0.960 . S
C4184 H4171 0.961 . S
C4184 H4172 0.959 . S
C4184 C4182 1.561 . S
C4185 C4182 1.526 . S
C4185 C4186 1.396 . S
C4185 C4190 1.390 . S
C4186 C4180 1.465 . S
C4186 C4185 1.396 . S
C4186 C4187 1.399 . S
C4187 H4173 0.929 . S
C4187 C4186 1.399 . S
C4187 C4188 1.385 . S
C4188 H4174 0.931 . S
C4188 C4187 1.385 . S
C4188 C4189 1.389 . S
C4189 C4188 1.389 . S
C4189 C4190 1.387 . S
C4190 H4175 0.930 . S
C4190 C4185 1.390 . S
C4190 C4189 1.387 . S
H4191 C4203 0.930 . S
H4192 C4205 0.930 . S
H4193 C4206 0.928 . S
H4194 C4210 0.959 . S
H4195 C4210 0.959 . S
H4196 C4210 0.961 . S
H4197 C4211 0.960 . S
H4198 C4211 0.961 . S
H4199 C4211 0.959 . S
H4200 C4214 0.929 . S
H4201 C4215 0.931 . S
H4202 C4217 0.930 . S
C4203 H4191 0.930 . S
C4203 C4204 1.399 . S
C4203 C4208 1.399 . S
C4204 C4203 1.399 . S
C4204 C4205 1.376 . S
C4205 H4192 0.930 . S
C4205 C4204 1.376 . S
C4205 C4206 1.389 1_554 S
C4206 H4193 0.928 . S
C4206 C4205 1.389 1_556 S
C4206 C4207 1.391 1_556 S
C4207 C4206 1.391 1_554 S
C4207 C4208 1.394 . S
C4207 C4213 1.465 . S
C4208 C4203 1.399 . S
C4208 C4207 1.394 . S
C4208 C4209 1.516 . S
C4209 C4208 1.516 . S
C4209 C4210 1.502 . S
C4209 C4211 1.561 . S
C4209 C4212 1.526 . S
C4210 H4194 0.959 . S
C4210 H4195 0.959 . S
C4210 H4196 0.961 . S
C4210 C4209 1.502 . S
C4211 H4197 0.960 . S
C4211 H4198 0.961 . S
C4211 H4199 0.959 . S
C4211 C4209 1.561 . S
C4212 C4209 1.526 . S
C4212 C4213 1.396 . S
C4212 C4217 1.390 . S
C4213 C4207 1.465 . S
C4213 C4212 1.396 . S
C4213 C4214 1.399 1_554 S
C4214 H4200 0.929 . S
C4214 C4213 1.399 1_556 S
C4214 C4215 1.385 . S
C4215 H4201 0.931 . S
C4215 C4214 1.385 . S
C4215 C4216 1.389 1_556 S
C4216 C4215 1.389 1_554 S
C4216 C4217 1.387 . S
C4217 H4202 0.930 . S
C4217 C4212 1.390 . S
C4217 C4216 1.387 . S
H4218 C4230 0.930 . S
H4219 C4232 0.930 . S
H4220 C4233 0.930 . S
H4221 C4237 0.959 . S
H4222 C4237 0.959 . S
H4223 C4237 0.961 . S
H4224 C4238 0.960 . S
H4225 C4238 0.961 . S
H4226 C4238 0.959 . S
H4227 C4241 0.929 . S
H4228 C4242 0.931 . S
H4229 C4244 0.930 . S
C4230 H4218 0.930 . S
C4230 C4231 1.399 . S
C4230 C4235 1.399 . S
C4231 C4230 1.399 . S
C4231 C4232 1.376 . S
C4232 H4219 0.930 . S
C4232 C4231 1.376 . S
C4232 C4233 1.388 . S
C4233 H4220 0.930 . S
C4233 C4232 1.388 . S
C4233 C4234 1.390 . S
C4234 C4233 1.390 . S
C4234 C4235 1.394 . S
C4234 C4240 1.465 . S
C4235 C4230 1.399 . S
C4235 C4234 1.394 . S
C4235 C4236 1.516 . S
C4236 C4235 1.516 . S
C4236 C4237 1.502 . S
C4236 C4238 1.561 . S
C4236 C4239 1.526 . S
C4237 H4221 0.959 . S
C4237 H4222 0.959 . S
C4237 H4223 0.961 . S
C4237 C4236 1.502 . S
C4238 H4224 0.960 . S
C4238 H4225 0.961 . S
C4238 H4226 0.959 . S
C4238 C4236 1.561 . S
C4239 C4236 1.526 . S
C4239 C4240 1.396 . S
C4239 C4244 1.390 . S
C4240 C4234 1.465 . S
C4240 C4239 1.396 . S
C4240 C4241 1.399 . S
C4241 H4227 0.929 . S
C4241 C4240 1.399 . S
C4241 C4242 1.385 . S
C4242 H4228 0.931 . S
C4242 C4241 1.385 . S
C4242 C4243 1.389 . S
C4243 C4242 1.389 . S
C4243 C4244 1.387 . S
C4244 H4229 0.930 . S
C4244 C4239 1.390 . S
C4244 C4243 1.387 . S
H4245 C4257 0.930 . S
H4246 C4259 0.930 . S
H4247 C4260 0.930 . S
H4248 C4264 0.959 . S
H4249 C4264 0.959 . S
H4250 C4264 0.961 . S
H4251 C4265 0.960 . S
H4252 C4265 0.961 . S
H4253 C4265 0.959 . S
H4254 C4268 0.929 . S
H4255 C4269 0.931 . S
H4256 C4271 0.930 . S
C4257 H4245 0.930 . S
C4257 C4258 1.399 . S
C4257 C4262 1.399 . S
C4258 C4257 1.399 . S
C4258 C4259 1.376 . S
C4259 H4246 0.930 . S
C4259 C4258 1.376 . S
C4259 C4260 1.388 . S
C4260 H4247 0.930 . S
C4260 C4259 1.388 . S
C4260 C4261 1.390 . S
C4261 C4260 1.390 . S
C4261 C4262 1.394 . S
C4261 C4267 1.465 . S
C4262 C4257 1.399 . S
C4262 C4261 1.394 . S
C4262 C4263 1.516 . S
C4263 C4262 1.516 . S
C4263 C4264 1.502 . S
C4263 C4265 1.561 . S
C4263 C4266 1.526 . S
C4264 H4248 0.959 . S
C4264 H4249 0.959 . S
C4264 H4250 0.961 . S
C4264 C4263 1.502 . S
C4265 H4251 0.960 . S
C4265 H4252 0.961 . S
C4265 H4253 0.959 . S
C4265 C4263 1.561 . S
C4266 C4263 1.526 . S
C4266 C4267 1.396 . S
C4266 C4271 1.390 . S
C4267 C4261 1.465 . S
C4267 C4266 1.396 . S
C4267 C4268 1.399 . S
C4268 H4254 0.929 . S
C4268 C4267 1.399 . S
C4268 C4269 1.385 . S
C4269 H4255 0.931 . S
C4269 C4268 1.385 . S
C4269 C4270 1.389 . S
C4270 C4269 1.389 . S
C4270 C4271 1.387 . S
C4271 H4256 0.930 . S
C4271 C4266 1.390 . S
C4271 C4270 1.387 . S
C1693 C105 1.854 . S
C1705 C392 1.752 . S
C1720 C65 2.253 . S
C1732 C483 2.200 . S
C1747 C73 1.566 . S
C1759 C560 1.456 . S
C1786 C658 1.433 . S
C1774 C92 1.592 . S
C1801 C17 1.608 . S
C1813 C742 1.571 . S
C1840 C814 0.964 . S
C1828 C37 1.026 . S
C1867 C903 0.916 . S
C1855 C49 0.865 . S
C1882 C8 1.498 . S
C1894 C980 1.391 . S
C1921 C399 1.994 . S
C1909 C231 2.057 . S
C1936 C241 0.728 . S
C1948 C490 0.661 . S
C1975 C567 1.190 . S
C1963 C273 1.152 . S
C2002 C644 1.486 . S
C1990 C171 1.623 . S
C2017 C227 2.140 . S
C2029 C728 1.904 . S
C2056 C830 1.164 . S
C2044 C245 1.165 . S
C2083 C910 0.735 . S
C2071 C269 0.818 . S
C2110 C987 1.463 . S
C2098 C175 1.621 . S
C2137 C406 1.363 . S
C2125 C162 1.478 . S
C2152 C289 1.983 . S
C2164 C1071 1.932 1_556 S
C2191 C1159 2.232 . S
C2179 C330 2.405 . S
C2218 C1232 0.464 . S
C2206 C317 0.522 . S
C2233 C120 0.918 . S
C2245 C994 0.928 . S
C2260 C134 1.508 . S
C2272 C574 1.474 . S
C2287 C331 2.229 . S
C2299 C1323 2.118 . S
C2326 C1400 0.719 . S
C2314 C303 0.707 . S
C2353 C403 1.714 . S
C2341 C59 1.832 . S
C2380 C1418 2.185 . S
C2368 C107 2.254 . S
C2395 C91 1.625 . S
C2407 C571 1.548 . S
C2422 C78 1.623 . S
C2434 C1318 1.539 . S
C2461 C730 1.533 . S
C2449 C7 1.514 . S
C2476 C51 1.030 . S
C2488 C1162 0.959 . S
C2515 C914 0.982 . S
C2503 C31 0.989 . S
C2542 C1495 1.401 . S
C2530 C22 1.476 . S
C2569 C410 2.032 . S
C2557 C143 2.159 . S
C2596 C1402 0.711 . S
C2584 C315 0.712 . S
C2611 C115 1.289 . S
C2623 C578 1.182 . S
C2638 C287 1.641 . S
C2650 C1327 1.565 . S
C2665 C147 2.085 . S
C2677 C739 1.950 . S
C2704 C1155 1.091 . S
C2692 C311 1.256 . S
C2719 C119 0.775 . S
C2731 C898 0.720 . S
C2746 C283 1.654 . S
C2758 C1502 1.596 . S
C2773 C190 1.493 . S
C2785 C394 1.433 1_554 S
C2800 C177 1.997 . S
C2812 C1082 1.912 . S
C2827 C260 2.408 . S
C2839 C812 2.281 . S
C2854 C247 0.560 . S
C2866 C1243 0.523 . S
C2893 C1486 0.881 . S
C2881 C274 0.845 1_565 S
C2908 C218 1.447 . S
C2920 C562 1.404 . S
C2947 C662 2.152 . S
C2935 C261 2.253 . S
C2974 C487 0.658 . S
C2962 C205 0.710 . S
C2989 C77 1.846 . S
C3001 C1568 1.752 . S
C3028 C1407 2.152 . S
C3016 C93 2.235 . S
C3043 C101 1.603 . S
C3055 C1652 1.547 . S
C3070 C64 1.565 . S
C3082 C1330 1.492 . S
C3097 C45 1.604 . S
C3109 C1078 1.559 . S
C3136 C1150 0.908 . S
C3124 C9 1.038 . S
C3163 C1239 0.895 . S
C3151 C21 0.789 . S
C3190 C1484 1.324 . S
C3178 C36 1.523 . S
C3217 C1575 1.994 . S
C3205 C259 2.057 . S
C3232 C185 0.716 . S
C3244 C1414 0.732 . S
C3271 C1659 1.173 . S
C3259 C203 1.153 . S
C3298 C1316 1.574 . S
C3286 C213 1.643 . S
C3325 C1064 1.964 . S
C3313 C255 2.127 . S
C3340 C189 1.163 . S
C3352 C1166 1.167 . S
C3379 C1246 0.758 . S
C3367 C199 0.818 . S
C3394 C217 1.618 . S
C3406 C1491 1.512 . S
C3433 C1582 1.413 . S
C3421 C316 1.473 . S
C3448 C135 1.986 . S
C3460 C735 1.937 . S
C3487 C823 2.215 . S
C3475 C148 2.415 . S
C3514 C896 0.578 . S
C3502 C163 0.582 . S
C3541 C1498 1.004 . S
C3529 C302 0.999 . S
C3556 C288 1.483 1_554 S
C3568 C1666 1.412 . S
C3595 C651 2.116 . S
C3583 C149 2.223 . S
C3622 C476 0.657 . S
C3610 C121 0.700 . S
C3637 C87 1.875 . S
C3649 C1579 1.736 . S
C3676 C494 2.224 . S
C3664 C79 2.267 . S
C3691 C63 1.627 . S
C3703 C1663 1.540 . S
C3718 C106 1.609 . S
C3730 C646 1.508 . S
C3745 C35 1.547 . S
C3757 C1066 1.560 . S
C3784 C826 0.924 . S
C3772 C23 1.046 . S
C3799 C3 1.033 . S
C3811 C1250 1.021 . S
C3826 C50 1.536 . S
C3838 C991 1.341 . S
C3865 C1586 2.035 . S
C3853 C325 2.158 . S
C3880 C161 0.737 . S
C3892 C478 0.747 . S
C3919 C1670 1.189 . S
C3907 C297 1.295 . S
C3934 C133 1.644 . S
C3946 C655 1.567 . S
C3961 C329 2.076 . S
C3973 C1075 1.976 . S
C4000 C819 1.221 . S
C3988 C157 1.250 . S
C4015 C301 0.887 . S
C4027 C1234 0.907 1_655 S
C4054 C998 1.497 . S
C4042 C129 1.679 . S
C4081 C1570 1.444 . S
C4069 C246 1.497 . S
C4108 C746 1.911 1_665 S
C4096 C219 1.997 . S
C4123 C232 2.431 . S
C4135 C1148 2.214 . S
C4162 C907 0.518 . S
C4150 C191 0.555 . S
C4177 C204 0.948 . S
C4189 C982 0.959 . S
C4204 C176 1.453 . S
C4216 C1654 1.414 1_554 S
C4243 C1334 2.199 . S
C4231 C233 2.266 1_565 S
C4270 C1411 0.672 . S
C4258 C275 0.712 . S
