# Generated by pormake.
# Topology myd, (4,6)-cn, num edge types: 1
# Building blocks:
#     Node 0, Type 0, BuildingBlock: NAWXER_clean_sbu_0, # of connection points: 4
#     Node 1, Type 0, BuildingBlock: NAWXER_clean_sbu_0, # of connection points: 4
#     Node 2, Type 0, BuildingBlock: NAWXER_clean_sbu_0, # of connection points: 4
#     Node 3, Type 0, BuildingBlock: NAWXER_clean_sbu_0, # of connection points: 4
#     Node 4, Type 0, BuildingBlock: NAWXER_clean_sbu_0, # of connection points: 4
#     Node 5, Type 0, BuildingBlock: NAWXER_clean_sbu_0, # of connection points: 4
#     Node 6, Type 0, BuildingBlock: NAWXER_clean_sbu_0, # of connection points: 4
#     Node 7, Type 0, BuildingBlock: NAWXER_clean_sbu_0, # of connection points: 4
#     Node 8, Type 0, BuildingBlock: NAWXER_clean_sbu_0, # of connection points: 4
#     Node 9, Type 0, BuildingBlock: NAWXER_clean_sbu_0, # of connection points: 4
#     Node 10, Type 0, BuildingBlock: NAWXER_clean_sbu_0, # of connection points: 4
#     Node 11, Type 0, BuildingBlock: NAWXER_clean_sbu_0, # of connection points: 4
#     Node 12, Type 1, BuildingBlock: MIDCAF_clean_sbu_0, # of connection points: 6
#     Node 13, Type 1, BuildingBlock: MIDCAF_clean_sbu_0, # of connection points: 6
#     Node 14, Type 1, BuildingBlock: MIDCAF_clean_sbu_0, # of connection points: 6
#     Node 15, Type 1, BuildingBlock: MIDCAF_clean_sbu_0, # of connection points: 6
#     Node 16, Type 1, BuildingBlock: MIDCAF_clean_sbu_0, # of connection points: 6
#     Node 17, Type 1, BuildingBlock: MIDCAF_clean_sbu_0, # of connection points: 6
#     Node 18, Type 1, BuildingBlock: MIDCAF_clean_sbu_0, # of connection points: 6
#     Node 19, Type 1, BuildingBlock: MIDCAF_clean_sbu_0, # of connection points: 6
#     Edge 20, Type (0, 1), BuildingBlock: EZIPEK_clean_linker_0, # of connection points: 2
#     Edge 21, Type (0, 1), BuildingBlock: EZIPEK_clean_linker_0, # of connection points: 2
#     Edge 22, Type (0, 1), BuildingBlock: EZIPEK_clean_linker_0, # of connection points: 2
#     Edge 23, Type (0, 1), BuildingBlock: EZIPEK_clean_linker_0, # of connection points: 2
#     Edge 24, Type (0, 1), BuildingBlock: EZIPEK_clean_linker_0, # of connection points: 2
#     Edge 25, Type (0, 1), BuildingBlock: EZIPEK_clean_linker_0, # of connection points: 2
#     Edge 26, Type (0, 1), BuildingBlock: EZIPEK_clean_linker_0, # of connection points: 2
#     Edge 27, Type (0, 1), BuildingBlock: EZIPEK_clean_linker_0, # of connection points: 2
#     Edge 28, Type (0, 1), BuildingBlock: EZIPEK_clean_linker_0, # of connection points: 2
#     Edge 29, Type (0, 1), BuildingBlock: EZIPEK_clean_linker_0, # of connection points: 2
#     Edge 30, Type (0, 1), BuildingBlock: EZIPEK_clean_linker_0, # of connection points: 2
#     Edge 31, Type (0, 1), BuildingBlock: EZIPEK_clean_linker_0, # of connection points: 2
#     Edge 32, Type (0, 1), BuildingBlock: EZIPEK_clean_linker_0, # of connection points: 2
#     Edge 33, Type (0, 1), BuildingBlock: EZIPEK_clean_linker_0, # of connection points: 2
#     Edge 34, Type (0, 1), BuildingBlock: EZIPEK_clean_linker_0, # of connection points: 2
#     Edge 35, Type (0, 1), BuildingBlock: EZIPEK_clean_linker_0, # of connection points: 2
#     Edge 36, Type (0, 1), BuildingBlock: EZIPEK_clean_linker_0, # of connection points: 2
#     Edge 37, Type (0, 1), BuildingBlock: EZIPEK_clean_linker_0, # of connection points: 2
#     Edge 38, Type (0, 1), BuildingBlock: EZIPEK_clean_linker_0, # of connection points: 2
#     Edge 39, Type (0, 1), BuildingBlock: EZIPEK_clean_linker_0, # of connection points: 2
#     Edge 40, Type (0, 1), BuildingBlock: EZIPEK_clean_linker_0, # of connection points: 2
#     Edge 41, Type (0, 1), BuildingBlock: EZIPEK_clean_linker_0, # of connection points: 2
#     Edge 42, Type (0, 1), BuildingBlock: EZIPEK_clean_linker_0, # of connection points: 2
#     Edge 43, Type (0, 1), BuildingBlock: EZIPEK_clean_linker_0, # of connection points: 2
#     Edge 44, Type (0, 1), BuildingBlock: EZIPEK_clean_linker_0, # of connection points: 2
#     Edge 45, Type (0, 1), BuildingBlock: EZIPEK_clean_linker_0, # of connection points: 2
#     Edge 46, Type (0, 1), BuildingBlock: EZIPEK_clean_linker_0, # of connection points: 2
#     Edge 47, Type (0, 1), BuildingBlock: EZIPEK_clean_linker_0, # of connection points: 2
#     Edge 48, Type (0, 1), BuildingBlock: EZIPEK_clean_linker_0, # of connection points: 2
#     Edge 49, Type (0, 1), BuildingBlock: EZIPEK_clean_linker_0, # of connection points: 2
#     Edge 50, Type (0, 1), BuildingBlock: EZIPEK_clean_linker_0, # of connection points: 2
#     Edge 51, Type (0, 1), BuildingBlock: EZIPEK_clean_linker_0, # of connection points: 2
#     Edge 52, Type (0, 1), BuildingBlock: EZIPEK_clean_linker_0, # of connection points: 2
#     Edge 53, Type (0, 1), BuildingBlock: EZIPEK_clean_linker_0, # of connection points: 2
#     Edge 54, Type (0, 1), BuildingBlock: EZIPEK_clean_linker_0, # of connection points: 2
#     Edge 55, Type (0, 1), BuildingBlock: EZIPEK_clean_linker_0, # of connection points: 2
#     Edge 56, Type (0, 1), BuildingBlock: EZIPEK_clean_linker_0, # of connection points: 2
#     Edge 57, Type (0, 1), BuildingBlock: EZIPEK_clean_linker_0, # of connection points: 2
#     Edge 58, Type (0, 1), BuildingBlock: EZIPEK_clean_linker_0, # of connection points: 2
#     Edge 59, Type (0, 1), BuildingBlock: EZIPEK_clean_linker_0, # of connection points: 2
#     Edge 60, Type (0, 1), BuildingBlock: EZIPEK_clean_linker_0, # of connection points: 2
#     Edge 61, Type (0, 1), BuildingBlock: EZIPEK_clean_linker_0, # of connection points: 2
#     Edge 62, Type (0, 1), BuildingBlock: EZIPEK_clean_linker_0, # of connection points: 2
#     Edge 63, Type (0, 1), BuildingBlock: EZIPEK_clean_linker_0, # of connection points: 2
#     Edge 64, Type (0, 1), BuildingBlock: EZIPEK_clean_linker_0, # of connection points: 2
#     Edge 65, Type (0, 1), BuildingBlock: EZIPEK_clean_linker_0, # of connection points: 2
#     Edge 66, Type (0, 1), BuildingBlock: EZIPEK_clean_linker_0, # of connection points: 2
#     Edge 67, Type (0, 1), BuildingBlock: EZIPEK_clean_linker_0, # of connection points: 2
# Relax obj value: 0.163
# Max RMSD: 0.104
# Mean RMSD: 0.094
data_MOF--net-myd--node1-NAWXER_clean_sbu_0--node2-MIDCAF_clean_sbu_0--edge1-EZIPEK_clean_linker_0
_symmetry_space_group_name_H-M    P1
_symmetry_Int_Tables_number       1
_symmetry_cell_setting            triclinic
loop_
_symmetry_equiv_pos_as_xyz
'x, y, z'
_cell_length_a     32.954454
_cell_length_b     33.02313
_cell_length_c     32.830304
_cell_angle_alpha  90.066308
_cell_angle_beta   90.019623
_cell_angle_gamma 90.391125
loop_
_atom_site_label
_atom_site_type_symbol
_atom_site_fract_x
_atom_site_fract_y
_atom_site_fract_z
_atom_type_partial_charge
C0 C 0.96558 0.20697 0.23946 0.0
C1 C 0.97004 0.31169 0.34334 0.0
O2 O 1.00204 0.21486 0.251 0.0
Zn3 Zn 0.03196 0.25435 0.29491 0.0
O4 O 0.93583 0.22472 0.25614 0.0
Zn5 Zn 0.96796 0.25729 0.29303 0.0
O6 O 1.0006 0.29627 0.25088 0.0
O7 O 0.06644 0.28664 0.26005 0.0
O8 O 0.93918 0.2949 0.32737 0.0
O9 O 0.00576 0.29974 0.33386 0.0
O10 O 0.05849 0.21787 0.33204 0.0
O11 O 0.99168 0.21305 0.33483 0.0
C12 C 0.03765 0.30429 0.24166 0.0
C13 C 0.02682 0.20161 0.34684 0.0
C14 C 0.04028 0.81247 0.26793 0.0
C15 C 0.0436 0.70276 0.16431 0.0
O16 O 0.07369 0.79883 0.25375 0.0
Zn17 Zn 0.04994 0.75863 0.21517 0.0
O18 O 0.00675 0.79813 0.25517 0.0
Zn19 Zn 0.98216 0.7551 0.21678 0.0
O20 O 0.96063 0.71733 0.25832 0.0
O21 O 0.02755 0.71734 0.25722 0.0
O22 O 0.009 0.71429 0.17692 0.0
O23 O 0.07597 0.71997 0.17734 0.0
O24 O 0.02071 0.79819 0.17527 0.0
O25 O 0.95386 0.79244 0.17955 0.0
C26 C 0.99439 0.70434 0.27222 0.0
C27 C 0.9854 0.80937 0.16436 0.0
C28 C 0.34394 0.03526 0.20089 0.0
C29 C 0.24375 0.03802 0.31197 0.0
O30 O 0.33032 1.00011 0.21061 0.0
Zn31 Zn 0.28949 0.97406 0.25437 0.0
O32 O 0.33172 0.06638 0.22005 0.0
Zn33 Zn 0.29414 0.03881 0.25669 0.0
O34 O 0.3335 0.00753 0.29776 0.0
O35 O 0.32526 0.94162 0.28895 0.0
O36 O 0.26036 0.06873 0.29526 0.0
O37 O 0.25292 1.00245 0.29976 0.0
O38 O 0.24655 0.94978 0.22047 0.0
O39 O 0.24844 0.01624 0.21588 0.0
C40 C 0.34256 0.97108 0.30721 0.0
C41 C 0.2322 0.98236 0.20575 0.0
C42 C 0.77468 0.53963 0.20451 0.0
C43 C 0.66136 0.54096 0.30564 0.0
O44 O 0.76071 0.50471 0.21423 0.0
Zn45 Zn 0.71601 0.47857 0.25352 0.0
O46 O 0.75725 0.57107 0.21859 0.0
Zn47 Zn 0.71482 0.54363 0.25165 0.0
O48 O 0.75301 0.51802 0.29743 0.0
O49 O 0.75244 0.45142 0.29164 0.0
O50 O 0.67443 0.5717 0.28606 0.0
O51 O 0.67494 0.506 0.29581 0.0
O52 O 0.68075 0.44891 0.21537 0.0
O53 O 0.67761 0.51503 0.20662 0.0
C54 C 0.7658 0.48341 0.30902 0.0
C55 C 0.66675 0.47918 0.19612 0.0
C56 C 0.20277 0.33792 0.04204 0.0
C57 C 0.30913 0.23514 0.03191 0.0
O58 O 0.21094 0.32718 0.00547 0.0
Zn59 Zn 0.25263 0.28896 0.97422 0.0
O60 O 0.2233 0.32399 0.07167 0.0
Zn61 Zn 0.25793 0.28861 0.03968 0.0
O62 O 0.29846 0.32916 0.00936 0.0
O63 O 0.28643 0.32654 0.94312 0.0
O64 O 0.29505 0.24996 0.06481 0.0
O65 O 0.29665 0.24856 0.99768 0.0
O66 O 0.21649 0.24917 0.94838 0.0
O67 O 0.21445 0.24729 0.01543 0.0
C68 C 0.30636 0.34099 0.97307 0.0
C69 C 0.20232 0.23372 0.98103 0.0
C70 C 0.20157 0.76952 0.53515 0.0
C71 C 0.30506 0.66378 0.54475 0.0
O72 O 0.21195 0.75449 0.5008 0.0
Zn73 Zn 0.25377 0.71129 0.47696 0.0
O74 O 0.21605 0.7548 0.5679 0.0
Zn75 Zn 0.25019 0.71401 0.54235 0.0
O76 O 0.29396 0.75345 0.51562 0.0
O77 O 0.29036 0.74935 0.44878 0.0
O78 O 0.28496 0.67837 0.57434 0.0
O79 O 0.2962 0.67377 0.50815 0.0
O80 O 0.21815 0.67274 0.44826 0.0
O81 O 0.20653 0.67514 0.5142 0.0
C82 C 0.30566 0.76559 0.48061 0.0
C83 C 0.1972 0.66146 0.47882 0.0
C84 C 0.71043 0.85268 0.53959 0.0
C85 C 0.81328 0.74473 0.54039 0.0
O86 O 0.71987 0.83948 0.50418 0.0
Zn87 Zn 0.76221 0.79874 0.47735 0.0
O88 O 0.73012 0.84071 0.57065 0.0
Zn89 Zn 0.76562 0.80209 0.54273 0.0
O90 O 0.81015 0.83803 0.51166 0.0
O91 O 0.79917 0.83251 0.44546 0.0
O92 O 0.79931 0.76263 0.57179 0.0
O93 O 0.80292 0.75706 0.50503 0.0
O94 O 0.7252 0.75929 0.45212 0.0
O95 O 0.72193 0.76036 0.51922 0.0
C96 C 0.81972 0.84702 0.47492 0.0
C97 C 0.71004 0.74572 0.48518 0.0
C98 C 0.54422 0.80781 0.73737 0.0
C99 C 0.53297 0.69788 0.83545 0.0
O100 O 0.50757 0.80165 0.74906 0.0
Zn101 Zn 0.4755 0.7627 0.79084 0.0
O102 O 0.57304 0.78782 0.75309 0.0
Zn103 Zn 0.53934 0.75445 0.78813 0.0
O104 O 0.50381 0.72091 0.74417 0.0
O105 O 0.43879 0.73447 0.75391 0.0
O106 O 0.56505 0.7121 0.8193 0.0
O107 O 0.49843 0.71358 0.82722 0.0
O108 O 0.45352 0.79967 0.83108 0.0
O109 O 0.51944 0.79534 0.8347 0.0
C110 C 0.46641 0.71602 0.73439 0.0
C111 C 0.48622 0.8092 0.84923 0.0
C112 C 0.52596 0.20178 0.76482 0.0
C113 C 0.53737 0.31002 0.6619 0.0
O114 O 0.49228 0.21359 0.74987 0.0
Zn115 Zn 0.46945 0.2571 0.70809 0.0
O116 O 0.55906 0.21654 0.75098 0.0
Zn117 Zn 0.53456 0.25284 0.71062 0.0
O118 O 0.50851 0.29485 0.75223 0.0
O119 O 0.44183 0.29203 0.74783 0.0
O120 O 0.56658 0.28921 0.67593 0.0
O121 O 0.50078 0.30082 0.67151 0.0
O122 O 0.44034 0.22188 0.66967 0.0
O123 O 0.50628 0.21031 0.67013 0.0
C124 C 0.47371 0.30619 0.76485 0.0
C125 C 0.47057 0.20146 0.65733 0.0
C126 C 0.73281 0.47634 0.71811 0.0
C127 C 0.83701 0.48184 0.8242 0.0
O128 O 0.7455 0.5124 0.72564 0.0
Zn129 Zn 0.78949 0.54221 0.76461 0.0
O130 O 0.74832 0.44631 0.73651 0.0
Zn131 Zn 0.78611 0.47795 0.76939 0.0
O132 O 0.74422 0.51158 0.80657 0.0
O133 O 0.75419 0.57715 0.79592 0.0
O134 O 0.82035 0.45061 0.80879 0.0
O135 O 0.82804 0.51706 0.81073 0.0
O136 O 0.827 0.56668 0.72637 0.0
O137 O 0.82773 0.49981 0.72421 0.0
C138 C 0.73495 0.54862 0.81348 0.0
C139 C 0.84056 0.53412 0.71116 0.0
C140 C 0.27497 0.02038 0.71033 0.0
C141 C 0.17042 0.03285 0.81775 0.0
O142 O 0.2594 0.9871 0.72273 0.0
Zn143 Zn 0.21767 0.96492 0.76688 0.0
O144 O 0.26233 0.05366 0.72531 0.0
Zn145 Zn 0.22186 0.03021 0.76283 0.0
O146 O 0.26224 0.00372 0.80539 0.0
O147 O 0.25583 0.93722 0.80328 0.0
O148 O 0.18669 0.06226 0.79854 0.0
O149 O 0.17982 0.99641 0.80862 0.0
O150 O 0.17901 0.93643 0.73163 0.0
O151 O 0.18048 1.00258 0.7211 0.0
C152 C 0.27354 0.96873 0.81731 0.0
C153 C 0.16679 0.96732 0.71206 0.0
C154 C 0.69885 0.17796 0.96526 0.0
C155 C 0.80617 0.28095 0.98574 0.0
O156 O 0.70684 0.18619 1.00249 0.0
Zn157 Zn 0.74794 0.22176 0.0374 0.0
O158 O 0.7194 0.19459 0.93692 0.0
Zn159 Zn 0.75429 0.22822 0.97204 0.0
O160 O 0.79402 0.18602 0.9998 0.0
O161 O 0.77972 0.18012 0.06503 0.0
O162 O 0.79188 0.26951 0.95146 0.0
O163 O 0.7934 0.26396 0.01832 0.0
O164 O 0.71102 0.25892 0.06559 0.0
O165 O 0.71119 0.26686 0.99886 0.0
C166 C 0.80091 0.16956 0.03444 0.0
C167 C 0.69808 0.27709 0.03394 0.0
Zn168 Zn 0.07225 0.08259 0.08355 0.0
Zn169 Zn 0.98829 0.99855 0.99372 0.0
Zn170 Zn 0.03205 0.04195 0.04605 0.0
C171 C 0.05539 0.0277 0.95028 0.0
C172 C 0.00914 0.94929 0.06198 0.0
O173 O 0.9947 0.0859 0.08151 0.0
O174 O 0.03854 0.09254 0.13177 0.0
C175 C 0.08724 0.11372 0.01368 0.0
O176 O 0.06045 0.04526 0.98502 0.0
O177 O 0.02577 0.00374 0.94487 0.0
O178 O 0.98846 0.94961 0.02954 0.0
O179 O 0.03103 0.98027 0.07203 0.0
O180 O 0.07992 0.13002 0.04752 0.0
O181 O 0.07651 0.07653 0.00791 0.0
O182 O 0.06537 1.0022 0.08908 0.0
O183 O 0.11773 0.04368 0.08876 0.0
C184 C 0.10294 0.00948 0.09752 0.0
O185 O 0.9714 0.06882 0.04931 0.0
O186 O 0.93994 0.03449 1.00064 0.0
C187 C 0.00362 0.0988 0.11758 0.0
C188 C 0.93969 0.06223 0.02728 0.0
Zn189 Zn 0.02526 0.50994 0.99698 0.0
Zn190 Zn 0.93606 0.43759 0.09234 0.0
Zn191 Zn 0.97617 0.47463 0.05162 0.0
C192 C 0.90663 0.51219 0.10169 0.0
C193 C 0.91958 0.40381 0.02277 0.0
O194 O 0.03494 0.44462 0.05626 0.0
O195 O 0.06919 0.46799 1.003 0.0
C196 C 0.0076 0.56348 0.06497 0.0
O197 O 0.9443 0.51831 0.09264 0.0
O198 O 0.8915 0.47756 0.09566 0.0
O199 O 0.9271 0.38934 0.05739 0.0
O200 O 0.93045 0.44054 0.01497 0.0
O201 O 0.02983 0.55845 0.03396 0.0
O202 O 0.98092 0.53657 0.07503 0.0
O203 O 0.94763 0.47049 0.99093 0.0
O204 O 0.98523 0.50844 0.95001 0.0
C205 C 0.95371 0.48717 0.95599 0.0
O206 O 0.01132 0.42991 0.08831 0.0
O207 O 0.97007 0.42836 0.14103 0.0
C208 C 0.06669 0.44467 0.03346 0.0
C209 C 1.00354 0.41893 0.12519 0.0
Zn210 Zn 1.00123 0.01548 0.52223 0.0
Zn211 Zn 0.10373 0.94718 0.44053 0.0
Zn212 Zn 0.05299 0.9748 0.47336 0.0
C213 C 0.10374 0.90205 0.50408 0.0
C214 C 0.04289 0.93376 0.39029 0.0
O215 O 0.05443 0.03732 0.45297 0.0
O216 O 0.00525 0.06655 0.48813 0.0
C217 C 0.06348 0.9832 0.57129 0.0
O218 O 0.09097 0.93727 0.51459 0.0
O219 O 0.1046 0.8932 0.46681 0.0
O220 O 0.07788 0.94893 0.38658 0.0
O221 O 0.02655 0.93377 0.42608 0.0
O222 O 0.03484 0.00842 0.57377 0.0
O223 O 0.07196 0.96637 0.53693 0.0
O224 O 0.99581 0.94575 0.45836 0.0
O225 O 0.95838 0.97362 0.50698 0.0
C226 C 0.96225 0.94838 0.47815 0.0
O227 O 0.09112 0.01934 0.43893 0.0
O228 O 0.14824 0.98766 0.44999 0.0
C229 C 0.03175 0.06798 0.46028 0.0
C230 C 0.13019 0.01845 0.43642 0.0
Zn231 Zn 0.91103 0.57553 0.44662 0.0
Zn232 Zn 0.00728 0.49051 0.51935 0.0
Zn233 Zn 0.95929 0.54061 0.4771 0.0
C234 C 0.97256 0.44595 0.45542 0.0
C235 C 0.05266 0.55859 0.48289 0.0
O236 O 0.922 0.5764 0.52165 0.0
O237 O 0.9123 0.6261 0.47893 0.0
C238 C 0.88106 0.50578 0.43386 0.0
O239 O 0.95387 0.4797 0.4506 0.0
O240 O 0.99846 0.44194 0.48348 0.0
O241 O 0.05434 0.52787 0.50599 0.0
O242 O 0.0189 0.56809 0.46578 0.0
O243 O 0.86406 0.53675 0.44843 0.0
O244 O 0.91976 0.5022 0.43809 0.0
O245 O 0.98983 0.58353 0.43542 0.0
O246 O 0.9375 0.58133 0.39389 0.0
C247 C 0.97377 0.59166 0.40055 0.0
O248 O 0.93987 0.54376 0.54038 0.0
O249 O 0.97513 0.49628 0.57197 0.0
C250 C 0.91148 0.6133 0.51495 0.0
C251 C 0.94769 0.5229 0.57249 0.0
Zn252 Zn 0.43184 0.91884 0.57738 0.0
Zn253 Zn 0.51681 0.01292 0.49119 0.0
Zn254 Zn 0.47011 0.96258 0.53976 0.0
C255 C 0.45261 0.97588 0.44411 0.0
C256 C 0.47901 0.05813 0.55656 0.0
O257 O 0.51038 0.9228 0.57691 0.0
O258 O 0.46614 0.91102 0.62582 0.0
C259 C 0.42115 0.8871 0.50589 0.0
O260 O 0.44618 0.95707 0.47783 0.0
O261 O 0.48076 1.00207 0.44147 0.0
O262 O 0.50461 0.06136 0.52792 0.0
O263 O 0.46166 0.02388 0.56393 0.0
O264 O 0.42862 0.87165 0.54009 0.0
O265 O 0.42993 0.92474 0.50008 0.0
O266 O 0.43217 0.99839 0.58204 0.0
O267 O 0.38289 0.95336 0.58429 0.0
C268 C 0.39561 0.98864 0.59205 0.0
O269 O 0.53269 0.94181 0.54595 0.0
O270 O 0.56749 0.97901 0.5017 0.0
C271 C 0.50197 0.90905 0.61271 0.0
C272 C 0.56615 0.95067 0.52768 0.0
Zn273 Zn 0.49473 0.50218 0.50222 0.0
Zn274 Zn 0.58061 0.59315 0.59311 0.0
Zn275 Zn 0.54431 0.55106 0.54806 0.0
C276 C 0.61394 0.5228 0.61005 0.0
C277 C 0.59574 0.62362 0.51773 0.0
O278 O 0.48153 0.57251 0.5529 0.0
O279 O 0.44348 0.53392 0.51271 0.0
C280 C 0.53332 0.45538 0.56493 0.0
O281 O 0.58046 0.5135 0.59181 0.0
O282 O 0.62648 0.55891 0.6098 0.0
O283 O 0.59066 0.63689 0.55333 0.0
O284 O 0.58502 0.58703 0.5091 0.0
O285 O 0.50728 0.45269 0.53666 0.0
O286 O 0.55121 0.48942 0.57246 0.0
O287 O 0.5686 0.55498 0.48437 0.0
O288 O 0.52743 0.51327 0.45111 0.0
C289 C 0.55823 0.53647 0.45121 0.0
O290 O 0.50369 0.59394 0.58219 0.0
O291 O 0.54166 0.60688 0.63603 0.0
C292 C 0.4469 0.56358 0.5369 0.0
C293 C 0.50816 0.60978 0.6179 0.0
Zn294 Zn 0.48863 0.51735 0.01406 0.0
Zn295 Zn 0.57772 0.42977 0.92122 0.0
Zn296 Zn 0.53672 0.46918 0.96331 0.0
C297 C 0.58823 0.39704 0.99504 0.0
C298 C 0.50511 0.41683 0.8893 0.0
O299 O 0.54132 0.53005 0.93969 0.0
O300 O 0.49707 0.56559 0.97579 0.0
C301 C 0.55543 0.48365 0.05939 0.0
O302 O 0.57631 0.43325 1.00264 0.0
O303 O 0.58555 0.3834 0.95924 0.0
O304 O 0.54008 0.4223 0.87477 0.0
O305 O 0.49793 0.42763 0.92631 0.0
O306 O 0.52686 0.50894 0.0626 0.0
O307 O 0.5615 0.46492 0.02552 0.0
O308 O 0.47558 0.44519 0.95802 0.0
O309 O 0.44055 0.47885 0.00465 0.0
C310 C 0.44257 0.45123 0.9779 0.0
O311 O 0.57355 0.50909 0.92289 0.0
O312 O 0.62401 0.46706 0.91192 0.0
C313 C 0.52226 0.56312 0.94675 0.0
C314 C 0.60955 0.5022 0.90944 0.0
Zn315 Zn 0.52564 1.00146 0.02061 0.0
Zn316 Zn 0.42946 0.0747 0.92924 0.0
Zn317 Zn 0.47273 0.04022 0.96958 0.0
C318 C 0.49702 0.08872 0.89096 0.0
C319 C 0.39838 1.00148 0.92533 0.0
O320 O 0.44916 0.04692 0.03149 0.0
O321 O 0.48852 0.00871 0.0701 0.0
C322 C 0.56575 0.06695 0.97844 0.0
O323 O 0.50642 0.08185 0.92839 0.0
O324 O 0.46234 0.07829 0.87837 0.0
O325 O 0.38295 0.03587 0.93078 0.0
O326 O 0.43648 0.99683 0.93263 0.0
O327 O 0.57091 0.04218 0.00741 0.0
O328 O 0.53161 0.06857 0.95964 0.0
O329 O 0.47093 0.97785 0.94892 0.0
O330 O 0.5199 0.95048 0.98586 0.0
C331 C 0.49375 0.94768 0.95762 0.0
O332 O 0.43167 0.07669 0.00779 0.0
O333 O 0.42481 0.12491 0.96244 0.0
C334 C 0.45746 0.03076 0.06612 0.0
C335 C 0.42063 0.11284 0.9986 0.0
C336 C 0.0188 0.12812 0.3628 0.0
C337 C 0.03022 0.16749 0.37582 0.0
C338 C 0.04747 0.14076 0.4434 0.0
C339 C 0.03191 0.10241 0.43147 0.0
N340 N 0.99604 0.06111 0.38225 0.0
N341 N 0.05125 0.21293 0.42944 0.0
C342 C 0.0156 0.09654 0.39186 0.0
C343 C 0.04361 0.1743 0.41639 0.0
N344 N 0.01259 0.12051 0.32232 0.0
N345 N 0.06672 0.14482 0.48006 0.0
H346 H 0.04902 0.23808 0.41038 0.0
H347 H 0.0569 0.22043 0.45974 0.0
H348 H 0.06963 0.12087 0.50055 0.0
H349 H 0.08243 0.17085 0.48885 0.0
H350 H 0.00871 0.09145 0.31049 0.0
H351 H 0.01534 0.14279 0.29998 0.0
H352 H 0.97976 0.05692 0.35535 0.0
H353 H 0.99319 0.03691 0.40247 0.0
C354 C 0.97651 0.38579 0.35673 0.0
C355 C 0.96537 0.34678 0.37093 0.0
C356 C 0.95022 0.37517 0.43826 0.0
C357 C 0.96692 0.41278 0.42555 0.0
N358 N 1.00148 0.45257 0.37426 0.0
N359 N 0.94416 0.30291 0.42565 0.0
C360 C 0.98123 0.41793 0.38508 0.0
C361 C 0.95254 0.34107 0.41178 0.0
N362 N 0.98177 0.39229 0.31595 0.0
N363 N 0.93148 0.37237 0.47529 0.0
H364 H 0.94491 0.2774 0.40689 0.0
H365 H 0.93912 0.29613 0.4562 0.0
H366 H 0.92916 0.39694 0.49516 0.0
H367 H 0.91525 0.34693 0.48479 0.0
H368 H 0.98557 0.42101 0.30336 0.0
H369 H 0.97839 0.36939 0.29426 0.0
H370 H 0.01662 0.45597 0.34661 0.0
H371 H 0.00594 0.47694 0.39403 0.0
C372 C 0.99588 0.84005 0.09603 0.0
C373 C 0.98361 0.84499 0.13704 0.0
C374 C 0.98756 0.91892 0.12917 0.0
C375 C 0.00419 0.9138 0.08951 0.0
N376 N 0.03037 0.8693 0.0377 0.0
N377 N 0.97367 0.88873 0.19502 0.0
C378 C 0.00992 0.87423 0.07357 0.0
C379 C 0.98098 0.88434 0.15427 0.0
N380 N 0.99383 0.8025 0.07859 0.0
N381 N 0.97611 0.95646 0.14229 0.0
H382 H 0.9668 0.86435 0.21405 0.0
H383 H 0.97698 0.91619 0.21037 0.0
H384 H 0.97957 0.98261 0.1249 0.0
H385 H 0.95986 0.96122 0.16906 0.0
H386 H 0.9989 0.79717 0.04775 0.0
H387 H 0.98319 0.77716 0.09441 0.0
H388 H 0.03896 0.8412 0.02632 0.0
H389 H 0.04231 0.89361 0.02122 0.0
C390 C 0.03279 0.67176 0.09615 0.0
C391 C 0.04365 0.66666 0.13752 0.0
C392 C 0.03196 0.59331 0.13137 0.0
C393 C 0.01647 0.59912 0.09136 0.0
N394 N 0.99728 0.64447 0.03733 0.0
N395 N 0.04968 0.62361 0.19638 0.0
C396 C 0.01579 0.63856 0.0741 0.0
C397 C 0.04234 0.62765 0.1556 0.0
N398 N 0.0389 0.70855 0.07808 0.0
N399 N 0.03856 0.55503 0.14567 0.0
H400 H 0.05963 0.64762 0.21458 0.0
H401 H 0.04375 0.5971 0.21256 0.0
H402 H 0.03175 0.52895 0.12905 0.0
H403 H 0.05393 0.54904 0.17269 0.0
H404 H 0.03496 0.71376 0.04707 0.0
H405 H 0.05165 0.73307 0.09372 0.0
H406 H 0.99226 0.67292 0.02476 0.0
H407 H 0.9835 0.62101 0.02096 0.0
C408 C 0.35888 0.02601 0.12677 0.0
C409 C 0.37225 0.0389 0.16579 0.0
C410 C 0.44011 0.05274 0.1377 0.0
C411 C 0.42805 0.03481 0.10025 0.0
N412 N 0.37748 0.99818 0.06126 0.0
N413 N 0.42671 0.06052 0.21 0.0
C414 C 0.38774 0.02001 0.09522 0.0
C415 C 0.41314 0.0515 0.17169 0.0
N416 N 0.31836 0.02033 0.1196 0.0
N417 N 0.47688 0.07194 0.14045 0.0
H418 H 0.40788 0.06021 0.23552 0.0
H419 H 0.45719 0.06537 0.21698 0.0
H420 H 0.49716 0.07361 0.11611 0.0
H421 H 0.48574 0.08919 0.16554 0.0
H422 H 0.30635 0.01513 0.09069 0.0
H423 H 0.29625 0.02489 0.14185 0.0
H424 H 0.34989 0.98293 0.05804 0.0
H425 H 0.39777 0.992 0.03774 0.0
C426 C 0.60002 0.45774 0.16374 0.0
C427 C 0.63983 0.47416 0.15985 0.0
C428 C 0.6242 0.49617 0.09014 0.0
C429 C 0.58486 0.47869 0.09346 0.0
N430 N 0.53795 0.43588 0.12983 0.0
N431 N 0.69301 0.49938 0.11615 0.0
C432 C 0.57358 0.45728 0.12921 0.0
C433 C 0.65286 0.49041 0.12199 0.0
N434 N 0.58677 0.44437 0.20082 0.0
N435 N 0.63366 0.51989 0.05732 0.0
H436 H 0.71498 0.49475 0.13853 0.0
H437 H 0.70519 0.5074 0.088 0.0
H438 H 0.61361 0.52489 0.03329 0.0
H439 H 0.66014 0.53717 0.05535 0.0
H440 H 0.5567 0.43662 0.20687 0.0
H441 H 0.60538 0.44344 0.22647 0.0
H442 H 0.52979 0.41622 0.15325 0.0
H443 H 0.51795 0.43522 0.10518 0.0
C444 C 0.35482 0.9749 0.38203 0.0
C445 C 0.36959 0.96462 0.34283 0.0
C446 C 0.43753 0.95422 0.37179 0.0
C447 C 0.42386 0.97008 0.40958 0.0
N448 N 0.37061 1.00144 0.44892 0.0
N449 N 0.42529 0.94681 0.29909 0.0
C450 C 0.38268 0.98166 0.4144 0.0
C451 C 0.41101 0.95453 0.33737 0.0
N452 N 0.31394 0.97781 0.38838 0.0
N453 N 0.47552 0.93812 0.36911 0.0
H454 H 0.4064 0.94563 0.27359 0.0
H455 H 0.45598 0.94391 0.29225 0.0
H456 H 0.49549 0.93739 0.39377 0.0
H457 H 0.48599 0.92255 0.34365 0.0
H458 H 0.30102 0.98133 0.41711 0.0
H459 H 0.2927 0.97249 0.3654 0.0
H460 H 0.34219 0.01468 0.45212 0.0
H461 H 0.39002 0.00781 0.47323 0.0
C462 C 0.62815 0.57784 0.36685 0.0
C463 C 0.63125 0.54367 0.34029 0.0
C464 C 0.59061 0.50445 0.38917 0.0
C465 C 0.58334 0.53956 0.41304 0.0
N466 N 0.58333 0.61249 0.41338 0.0
N467 N 0.5988 0.48055 0.32042 0.0
C468 C 0.59862 0.5772 0.39868 0.0
C469 C 0.6073 0.50883 0.34961 0.0
N470 N 0.654 0.61013 0.36374 0.0
N471 N 0.58331 0.46661 0.40436 0.0
H472 H 0.6062 0.48484 0.28984 0.0
H473 H 0.57939 0.45602 0.3257 0.0
H474 H 0.57456 0.46137 0.43442 0.0
H475 H 0.59106 0.44042 0.38845 0.0
H476 H 0.6541 0.63367 0.38498 0.0
H477 H 0.67806 0.61156 0.34334 0.0
H478 H 0.591 0.64058 0.40096 0.0
H479 H 0.55938 0.613 0.43411 0.0
C480 C 0.17193 0.40551 0.0582 0.0
C481 C 0.16696 0.36387 0.04878 0.0
C482 C 0.09533 0.37464 0.03224 0.0
C483 C 0.10011 0.41624 0.04196 0.0
N484 N 0.13951 0.46976 0.07284 0.0
N485 N 0.12247 0.30679 0.03745 0.0
C486 C 0.13739 0.43119 0.05779 0.0
C487 C 0.12806 0.34781 0.03929 0.0
N488 N 0.20987 0.42081 0.06556 0.0
N489 N 0.06033 0.36117 0.01421 0.0
H490 H 0.14585 0.28639 0.04305 0.0
H491 H 0.0941 0.29301 0.03449 0.0
H492 H 0.0355 0.37984 0.00876 0.0
H493 H 0.05682 0.33219 1.00214 0.0
H494 H 0.21625 0.45165 0.06781 0.0
H495 H 0.23559 0.40263 0.06711 0.0
H496 H 0.16463 0.48127 0.08835 0.0
H497 H 0.1147 0.48924 0.07287 0.0
C498 C 0.13432 0.632 0.44225 0.0
C499 C 0.16231 0.6322 0.47546 0.0
C500 C 0.11489 0.59023 0.51421 0.0
C501 C 0.08973 0.58488 0.47945 0.0
N502 N 0.08391 0.59186 0.40639 0.0
N503 N 0.18423 0.59674 0.53606 0.0
C504 C 0.10181 0.60315 0.44214 0.0
C505 C 0.15424 0.60657 0.50919 0.0
N506 N 0.13703 0.66005 0.41187 0.0
N507 N 0.10093 0.58187 0.55249 0.0
H508 H 0.21452 0.60483 0.53136 0.0
H509 H 0.17969 0.57608 0.55967 0.0
H510 H 0.07079 0.57422 0.55859 0.0
H511 H 0.11804 0.58807 0.57854 0.0
H512 H 0.11492 0.6627 0.3893 0.0
H513 H 0.15852 0.68325 0.41146 0.0
H514 H 0.0939 0.60236 0.37816 0.0
H515 H 0.06257 0.56849 0.40467 0.0
C516 C 0.89528 0.85381 0.47726 0.0
C517 C 0.85719 0.87124 0.46769 0.0
C518 C 0.89093 0.93632 0.45402 0.0
C519 C 0.9277 0.92049 0.46968 0.0
N520 N 0.96498 0.8648 0.49854 0.0
N521 N 0.81771 0.92918 0.44824 0.0
C522 C 0.93007 0.87923 0.48151 0.0
C523 C 0.85476 0.91244 0.45585 0.0
N524 N 0.89819 0.81276 0.48165 0.0
N525 N 0.89089 0.97403 0.43689 0.0
H526 H 0.79082 0.91232 0.4484 0.0
H527 H 0.81324 0.96008 0.44415 0.0
H528 H 0.91702 0.99198 0.43491 0.0
H529 H 0.86614 0.98604 0.42148 0.0
H530 H 0.92563 0.79763 0.48474 0.0
H531 H 0.87334 0.79331 0.47825 0.0
H532 H 0.9671 0.83651 0.51231 0.0
H533 H 0.99141 0.88211 0.50138 0.0
C534 C 0.33978 0.59829 0.56287 0.0
C535 C 0.34225 0.63963 0.55152 0.0
C536 C 0.41355 0.6315 0.53241 0.0
C537 C 0.41157 0.59024 0.5444 0.0
N538 N 0.37613 0.53676 0.57975 0.0
N539 N 0.38391 0.69817 0.53757 0.0
C540 C 0.37564 0.57432 0.56237 0.0
C541 C 0.38002 0.65703 0.54027 0.0
N542 N 0.303 0.58162 0.57259 0.0
N543 N 0.44631 0.64581 0.51113 0.0
H544 H 0.36007 0.71772 0.54418 0.0
H545 H 0.41163 0.71291 0.53329 0.0
H546 H 0.47125 0.62807 0.50359 0.0
H547 H 0.44725 0.6744 0.49776 0.0
H548 H 0.29824 0.55065 0.57638 0.0
H549 H 0.27663 0.59877 0.5748 0.0
H550 H 0.35214 0.52494 0.59671 0.0
H551 H 0.40203 0.51876 0.58027 0.0
C552 C 0.51691 0.6253 0.84965 0.0
C553 C 0.53463 0.66229 0.86279 0.0
C554 C 0.54968 0.6321 0.92938 0.0
C555 C 0.52719 0.59717 0.91792 0.0
N556 N 0.48584 0.5614 0.86875 0.0
N557 N 0.56576 0.70259 0.91568 0.0
C558 C 0.51001 0.59389 0.87838 0.0
C559 C 0.55079 0.66609 0.90273 0.0
N560 N 0.50785 0.61981 0.80936 0.0
N561 N 0.57082 0.63229 0.96522 0.0
H562 H 0.56804 0.72777 0.89669 0.0
H563 H 0.57358 0.7087 0.94581 0.0
H564 H 0.57034 0.60797 0.98548 0.0
H565 H 0.59131 0.65503 0.97337 0.0
H566 H 0.49901 0.59206 0.79703 0.0
H567 H 0.51298 0.6421 0.78742 0.0
H568 H 0.4688 0.55953 0.84209 0.0
H569 H 0.48023 0.53751 0.88877 0.0
C570 C 0.52493 0.85438 0.89831 0.0
C571 C 0.48702 0.8386 0.88465 0.0
C572 C 0.45341 0.88885 0.92892 0.0
C573 C 0.49093 0.90984 0.93319 0.0
N574 N 0.56189 0.91525 0.91504 0.0
N575 N 0.41414 0.83655 0.89512 0.0
C576 C 0.52654 0.89341 0.9159 0.0
C577 C 0.4508 0.8547 0.90219 0.0
N578 N 0.55907 0.83121 0.89774 0.0
N579 N 0.42107 0.89982 0.95247 0.0
H580 H 0.4113 0.80657 0.88565 0.0
H581 H 0.38654 0.85089 0.90019 0.0
H582 H 0.42261 0.92323 0.97376 0.0
H583 H 0.3939 0.88362 0.95377 0.0
H584 H 0.58671 0.84122 0.90967 0.0
H585 H 0.55813 0.80013 0.8924 0.0
H586 H 0.58754 0.90531 0.89943 0.0
H587 H 0.5643 0.94487 0.92585 0.0
C588 C 0.55486 0.34651 0.59653 0.0
C589 C 0.5447 0.3479 0.63847 0.0
C590 C 0.53008 0.42048 0.63301 0.0
C591 C 0.54094 0.41946 0.59116 0.0
N592 N 0.57236 0.38416 0.53534 0.0
N593 N 0.53368 0.38772 0.69893 0.0
C594 C 0.5561 0.38322 0.57362 0.0
C595 C 0.53596 0.38547 0.65742 0.0
N596 N 0.56162 0.30998 0.57826 0.0
N597 N 0.51158 0.45389 0.64895 0.0
H598 H 0.53844 0.36271 0.71767 0.0
H599 H 0.53135 0.41492 0.71483 0.0
H600 H 0.50591 0.48003 0.63218 0.0
H601 H 0.49878 0.45456 0.67794 0.0
H602 H 0.56446 0.3063 0.54689 0.0
H603 H 0.56204 0.28281 0.59444 0.0
H604 H 0.58735 0.35978 0.52218 0.0
H605 H 0.57407 0.41064 0.51808 0.0
C606 C 0.45719 0.16667 0.58994 0.0
C607 C 0.46508 0.1642 0.63231 0.0
C608 C 0.47994 0.09172 0.62557 0.0
C609 C 0.47105 0.09377 0.58326 0.0
N610 N 0.44211 0.13062 0.52711 0.0
N611 N 0.47298 0.12277 0.6921 0.0
C612 C 0.45685 0.13053 0.56602 0.0
C613 C 0.47287 0.12612 0.65061 0.0
N614 N 0.45163 0.20367 0.5723 0.0
N615 N 0.49762 0.0579 0.64152 0.0
H616 H 0.46713 0.14723 0.71128 0.0
H617 H 0.47454 0.09517 0.70733 0.0
H618 H 0.50449 0.03232 0.62431 0.0
H619 H 0.50891 0.05646 0.67112 0.0
H620 H 0.4505 0.20808 0.54092 0.0
H621 H 0.45065 0.23048 0.58911 0.0
H622 H 0.42778 0.15542 0.51404 0.0
H623 H 0.44079 0.10457 0.50912 0.0
C624 C 0.91067 0.53998 0.68136 0.0
C625 C 0.86823 0.53514 0.67576 0.0
C626 C 0.87868 0.51906 0.60384 0.0
C627 C 0.92084 0.52705 0.60844 0.0
N628 N 0.97633 0.55157 0.6497 0.0
N629 N 0.81103 0.5293 0.63032 0.0
C630 C 0.93675 0.53933 0.64673 0.0
C631 C 0.852 0.52759 0.63653 0.0
N632 N 0.92607 0.54408 0.71981 0.0
N633 N 0.86431 0.50113 0.56907 0.0
H634 H 0.79046 0.53541 0.65364 0.0
H635 H 0.79788 0.52853 0.60146 0.0
H636 H 0.88287 0.49309 0.54468 0.0
H637 H 0.83454 0.49075 0.56593 0.0
H638 H 0.95697 0.54317 0.72636 0.0
H639 H 0.9077 0.54571 0.74565 0.0
H640 H 0.98865 0.56473 0.67579 0.0
H641 H 0.99612 0.55162 0.6249 0.0
C642 C 0.0983 0.95689 0.67913 0.0
C643 C 0.14069 0.96346 0.67544 0.0
C644 C 0.13217 0.98359 0.60419 0.0
C645 C 0.08991 0.97529 0.60706 0.0
N646 N 0.03407 0.94583 0.64439 0.0
N647 N 0.1991 0.97224 0.63217 0.0
C648 C 0.07331 0.95944 0.64373 0.0
C649 C 0.15793 0.97324 0.63713 0.0
N650 N 0.08176 0.9498 0.71661 0.0
N651 N 0.14748 0.00371 0.57112 0.0
H652 H 0.21876 0.96394 0.65558 0.0
H653 H 0.2133 0.9753 0.60398 0.0
H654 H 0.12965 0.01339 0.54682 0.0
H655 H 0.17728 0.01431 0.56952 0.0
H656 H 0.05063 0.94948 0.72211 0.0
H657 H 0.09936 0.94663 0.74282 0.0
H658 H 0.02141 0.93037 0.66897 0.0
H659 H 0.01516 0.94684 0.61892 0.0
C660 C 0.85285 0.48774 0.89851 0.0
C661 C 0.866 0.47827 0.85856 0.0
C662 C 0.93494 0.46706 0.88429 0.0
C663 C 0.92306 0.48226 0.92297 0.0
N664 N 0.87148 0.51267 0.96533 0.0
N665 N 0.92013 0.46245 0.81199 0.0
C666 C 0.88209 0.49374 0.92986 0.0
C667 C 0.90721 0.46871 0.85104 0.0
N668 N 0.81228 0.49047 0.90661 0.0
N669 N 0.97219 0.44968 0.8797 0.0
H670 H 0.90049 0.46243 0.78705 0.0
H671 H 0.95061 0.4601 0.80403 0.0
H672 H 0.99282 0.44692 0.90362 0.0
H673 H 0.98105 0.43449 0.85338 0.0
H674 H 0.80059 0.4929 0.93598 0.0
H675 H 0.79008 0.48642 0.88426 0.0
H676 H 0.84311 0.52551 0.97017 0.0
H677 H 0.89202 0.51905 0.98865 0.0
C678 C 0.15556 0.02662 0.89201 0.0
C679 C 0.14271 0.03938 0.85287 0.0
C680 C 0.07457 0.05236 0.88013 0.0
C681 C 0.08592 0.03382 0.91741 0.0
N682 N 0.13621 0.99888 0.95748 0.0
N683 N 0.08946 0.06213 0.80832 0.0
C684 C 0.1263 0.02016 0.9232 0.0
C685 C 0.10214 0.05211 0.84661 0.0
N686 N 0.19598 0.02112 0.89943 0.0
N687 N 0.03779 0.07099 0.87712 0.0
H688 H 0.10902 0.06316 0.78336 0.0
H689 H 0.05919 0.06698 0.80078 0.0
H690 H 0.01708 0.07186 0.90114 0.0
H691 H 0.02928 0.08853 0.85224 0.0
H692 H 0.20781 0.01574 0.92834 0.0
H693 H 0.2182 0.02601 0.8773 0.0
H694 H 0.16382 0.98421 0.96128 0.0
H695 H 0.11572 0.993 0.98097 0.0
C696 C 0.6353 0.8589 0.53327 0.0
C697 C 0.67296 0.87724 0.54365 0.0
C698 C 0.63875 0.94274 0.55102 0.0
C699 C 0.60265 0.92533 0.53475 0.0
N700 N 0.56879 0.86794 0.50374 0.0
N701 N 0.71176 0.93712 0.55995 0.0
C702 C 0.60139 0.88361 0.52435 0.0
C703 C 0.67502 0.91931 0.55222 0.0
N704 N 0.63174 0.81765 0.53273 0.0
N705 N 0.6381 0.98128 0.56616 0.0
H706 H 0.73858 0.92063 0.56204 0.0
H707 H 0.71605 0.96833 0.56181 0.0
H708 H 0.61204 0.99905 0.56593 0.0
H709 H 0.66223 0.99436 0.58201 0.0
H710 H 0.60411 0.80251 0.52918 0.0
H711 H 0.65568 0.79865 0.54037 0.0
H712 H 0.56833 0.83885 0.49143 0.0
H713 H 0.5435 0.88501 0.49577 0.0
C714 C 0.6678 0.11088 0.94529 0.0
C715 C 0.6629 0.15191 0.95696 0.0
C716 C 0.59292 0.13807 0.97843 0.0
C717 C 0.59814 0.09665 0.96813 0.0
N718 N 0.63609 0.04521 0.93314 0.0
N719 N 0.61844 0.20702 0.97314 0.0
C720 C 0.63426 0.08354 0.94877 0.0
C721 C 0.6245 0.16624 0.96966 0.0
N722 N 0.70491 0.09786 0.93248 0.0
N723 N 0.55879 0.1501 0.99872 0.0
H724 H 0.64108 0.22821 0.9663 0.0
H725 H 0.59027 0.21997 0.97875 0.0
H726 H 0.53486 0.1305 0.00576 0.0
H727 H 0.55522 0.17885 0.01118 0.0
H728 H 0.71226 0.06752 0.92846 0.0
H729 H 0.72898 0.11777 0.92701 0.0
H730 H 0.66 0.03475 0.91539 0.0
H731 H 0.61199 0.02465 0.93526 0.0
C732 C 0.3362 0.40969 0.95709 0.0
C733 C 0.34172 0.36828 0.96693 0.0
C734 C 0.41299 0.38146 0.98386 0.0
C735 C 0.4081 0.42261 0.97249 0.0
N736 N 0.36783 0.47436 0.94073 0.0
N737 N 0.38714 0.31279 0.97942 0.0
C738 C 0.37048 0.43629 0.95675 0.0
C739 C 0.38077 0.35358 0.97698 0.0
N740 N 0.29804 0.4239 0.94981 0.0
N741 N 0.4475 0.36941 1.00346 0.0
H742 H 0.36425 0.2915 0.97392 0.0
H743 H 0.41579 0.30005 0.98268 0.0
H744 H 0.4717 0.3889 0.00985 0.0
H745 H 0.4508 0.34088 0.0165 0.0
H746 H 0.29131 0.45455 0.94715 0.0
H747 H 0.27251 0.40506 0.94889 0.0
H748 H 0.34245 0.4848 0.92516 0.0
H749 H 0.3924 0.49445 0.94005 0.0
C750 C 0.85798 0.13128 0.07153 0.0
C751 C 0.83315 0.13787 0.0366 0.0
C752 C 0.88081 0.09879 0.99578 0.0
C753 C 0.90294 0.08804 0.03116 0.0
N754 N 0.90104 0.08226 0.10452 0.0
N755 N 0.81339 0.1105 0.97094 0.0
C756 C 0.8882 0.1007 0.06975 0.0
C757 C 0.8421 0.11607 1.00042 0.0
N758 N 0.85469 0.15472 0.1056 0.0
N759 N 0.89692 0.09446 0.95771 0.0
H760 H 0.78319 0.11868 0.97525 0.0
H761 H 0.8185 0.09274 0.94516 0.0
H762 H 0.9269 0.08599 0.95257 0.0
H763 H 0.88195 0.10457 0.93167 0.0
H764 H 0.87482 0.15224 0.13 0.0
H765 H 0.8352 0.17922 0.10799 0.0
H766 H 0.8884 0.08855 0.13294 0.0
H767 H 0.92061 0.05758 0.10421 0.0
C768 C 0.96211 0.19238 0.16474 0.0
C769 C 0.95908 0.1783 0.20542 0.0
C770 C 0.96654 0.10834 0.18265 0.0
C771 C 0.97555 0.12284 0.14301 0.0
N772 N 0.96963 0.1755 0.09289 0.0
N773 N 0.94462 0.12386 0.25168 0.0
C774 C 0.96864 0.1639 0.1328 0.0
C775 C 0.9564 0.1364 0.21383 0.0
N776 N 0.96049 0.23305 0.15726 0.0
N777 N 0.9699 0.06788 0.19054 0.0
H778 H 0.93694 0.14428 0.27468 0.0
H779 H 0.93953 0.09375 0.25953 0.0
H780 H 0.97511 0.04681 0.16742 0.0
H781 H 0.96836 0.05524 0.21952 0.0
H782 H 0.96587 0.24622 0.12901 0.0
H783 H 0.9543 0.25415 0.18009 0.0
H784 H 0.96297 0.20451 0.08272 0.0
H785 H 0.97405 0.15496 0.06923 0.0
C786 C 0.05099 0.375 0.21762 0.0
C787 C 0.04585 0.33337 0.20852 0.0
C788 C 0.0292 0.34904 0.13782 0.0
C789 C 0.02979 0.39084 0.14802 0.0
N790 N 0.05295 0.44419 0.192 0.0
N791 N 0.04497 0.28028 0.15854 0.0
C792 C 0.04513 0.40394 0.18613 0.0
C793 C 0.04032 0.32029 0.16788 0.0
N794 N 0.05935 0.38666 0.25668 0.0
N795 N 0.01457 0.33668 0.10087 0.0
H796 H 0.05273 0.25883 0.1805 0.0
H797 H 0.04484 0.26907 0.12888 0.0
H798 H 0.00631 0.35686 0.07803 0.0
H799 H 0.00873 0.30655 0.09345 0.0
H800 H 0.05947 0.4166 0.26657 0.0
H801 H 0.06511 0.36577 0.27978 0.0
H802 H 0.0663 0.45609 0.21816 0.0
H803 H 0.049 0.46532 0.16872 0.0
C804 C 0.0517 0.88525 0.28812 0.0
C805 C 0.03767 0.84574 0.2983 0.0
C806 C 0.00697 0.87275 0.36105 0.0
C807 C 0.02799 0.90936 0.35483 0.0
N808 N 0.05205 0.95699 0.30544 0.0
N809 N 0.99882 0.80229 0.3438 0.0
C810 C 0.04486 0.9176 0.31596 0.0
C811 C 0.01404 0.83971 0.3344 0.0
N812 N 0.0714 0.89184 0.25205 0.0
N813 N 0.97736 0.87102 0.3899 0.0
H814 H 0.99976 0.77776 0.32408 0.0
H815 H 0.9869 0.79493 0.37224 0.0
H816 H 0.96747 0.8973 0.40402 0.0
H817 H 0.9584 0.84613 0.39467 0.0
H818 H 0.08611 0.91883 0.24468 0.0
H819 H 0.07449 0.86966 0.22967 0.0
H820 H 0.06172 0.96642 0.27681 0.0
H821 H 0.04395 0.98073 0.32479 0.0
C822 C 0.98284 0.633 0.29635 0.0
C823 C 0.99673 0.67291 0.30444 0.0
C824 C 0.00938 0.65503 0.37579 0.0
C825 C 0.9938 0.61568 0.36809 0.0
N826 N 0.9823 0.56302 0.31885 0.0
N827 N 0.04166 0.71389 0.34672 0.0
C828 C 0.98616 0.60332 0.3274 0.0
C829 C 0.01606 0.68148 0.34241 0.0
N830 N 0.96673 0.62332 0.2592 0.0
N831 N 0.01581 0.66835 0.41467 0.0
H832 H 0.04978 0.73296 0.32289 0.0
H833 H 0.05882 0.71892 0.37295 0.0
H834 H 0.01304 0.65004 0.44025 0.0
H835 H 0.02189 0.69862 0.42159 0.0
H836 H 0.95217 0.59584 0.25322 0.0
H837 H 0.96621 0.6435 0.23479 0.0
H838 H 0.97958 0.55152 0.28941 0.0
H839 H 0.98636 0.54102 0.34129 0.0
C840 C 0.15992 0.00347 0.19028 0.0
C841 C 0.19556 0.982 0.17862 0.0
C842 C 0.1622 0.96543 0.11337 0.0
C843 C 0.12666 0.98521 0.12684 0.0
N844 N 0.087 0.00831 0.18326 0.0
N845 N 0.22827 0.93768 0.13008 0.0
C846 C 0.12387 0.99815 0.16749 0.0
C847 C 0.19566 0.96065 0.14078 0.0
N848 N 0.16069 0.03183 0.22055 0.0
N849 N 0.16458 0.95342 0.07365 0.0
H850 H 0.25472 0.93631 0.14742 0.0
H851 H 0.22835 0.9185 0.10489 0.0
H852 H 0.13968 0.95531 0.05405 0.0
H853 H 0.19112 0.94321 0.05999 0.0
H854 H 0.13604 0.05041 0.22698 0.0
H855 H 0.18667 0.04037 0.23631 0.0
H856 H 0.08292 0.01556 0.21392 0.0
H857 H 0.06024 0.00501 0.16652 0.0
C858 C 0.81233 0.56133 0.14008 0.0
C859 C 0.81255 0.54222 0.17904 0.0
C860 C 0.88538 0.52935 0.17027 0.0
C861 C 0.88271 0.53896 0.12874 0.0
N862 N 0.84431 0.56558 0.07314 0.0
N863 N 0.84927 0.4973 0.22473 0.0
C864 C 0.84653 0.55634 0.11357 0.0
C865 C 0.84915 0.52364 0.19274 0.0
N866 N 0.77899 0.58223 0.12753 0.0
N867 N 0.92242 0.52215 0.18724 0.0
H868 H 0.82339 0.48839 0.2404 0.0
H869 H 0.87477 0.48063 0.23289 0.0
H870 H 0.94922 0.52553 0.17057 0.0
H871 H 0.92636 0.51735 0.21839 0.0
H872 H 0.77849 0.59963 0.10111 0.0
H873 H 0.75244 0.58399 0.14467 0.0
H874 H 0.81759 0.57374 0.05844 0.0
H875 H 0.86964 0.56344 0.05414 0.0
C876 C 0.22232 0.05879 0.38321 0.0
C877 C 0.21239 0.04242 0.34426 0.0
C878 C 0.14162 0.03773 0.36525 0.0
C879 C 0.15278 0.04339 0.40624 0.0
N880 N 0.20356 0.06254 0.455 0.0
N881 N 0.1629 0.00418 0.30459 0.0
C882 C 0.19308 0.05582 0.41534 0.0
C883 C 0.17211 0.02875 0.33676 0.0
N884 N 0.25992 0.07502 0.39007 0.0
N885 N 0.10199 0.03882 0.35363 0.0
H886 H 0.18453 0.99238 0.28498 0.0
H887 H 0.13414 0.9914 0.30057 0.0
H888 H 0.079 0.04666 0.37372 0.0
H889 H 0.09326 0.03738 0.3231 0.0
H890 H 0.2677 0.09029 0.41675 0.0
H891 H 0.28279 0.0751 0.36814 0.0
H892 H 0.23329 0.06705 0.46484 0.0
H893 H 0.18189 0.06214 0.47823 0.0
C894 C 0.83559 0.50215 0.33441 0.0
C895 C 0.79791 0.48183 0.34091 0.0
C896 C 0.82066 0.46548 0.41034 0.0
C897 C 0.85882 0.48346 0.40162 0.0
N898 N 0.90694 0.50105 0.34919 0.0
N899 N 0.75663 0.43906 0.38436 0.0
C900 C 0.86785 0.49496 0.36139 0.0
C901 C 0.79135 0.46107 0.37843 0.0
N902 N 0.84049 0.53086 0.3049 0.0
N903 N 0.81208 0.45436 0.44943 0.0
H904 H 0.7332 0.43774 0.36306 0.0
H905 H 0.75203 0.42047 0.40957 0.0
H906 H 0.834 0.45575 0.47241 0.0
H907 H 0.78336 0.44533 0.4592 0.0
H908 H 0.86683 0.54842 0.30249 0.0
H909 H 0.81761 0.5405 0.28555 0.0
H910 H 0.91447 0.50703 0.3189 0.0
H911 H 0.93159 0.49487 0.36789 0.0
C912 C 0.13523 0.20146 0.96049 0.0
C913 C 0.17359 0.19863 0.98045 0.0
C914 C 0.15766 0.12833 0.99823 0.0
C915 C 0.11702 0.13444 0.98742 0.0
N916 N 0.06601 0.17509 0.9561 0.0
N917 N 0.21527 0.16054 0.02851 0.0
C918 C 0.10566 0.17026 0.96699 0.0
C919 C 0.18354 0.16229 1.00178 0.0
N920 N 0.12618 0.2346 0.93744 0.0
N921 N 0.17064 0.09048 0.00828 0.0
H922 H 0.23429 0.18468 0.03554 0.0
H923 H 0.22031 0.13565 0.04731 0.0
H924 H 0.15149 0.06525 0.00679 0.0
H925 H 0.20109 0.0839 0.0136 0.0
H926 H 0.10038 0.23643 0.91924 0.0
H927 H 0.14531 0.2597 0.93492 0.0
H928 H 0.05403 0.20217 0.94546 0.0
H929 H 0.04483 0.1516 0.95922 0.0
C930 C 0.191 0.8424 0.51562 0.0
C931 C 0.17651 0.80681 0.53561 0.0
C932 C 0.11247 0.84204 0.5493 0.0
C933 C 0.12898 0.87718 0.53101 0.0
N934 N 0.18858 0.91536 0.51414 0.0
N935 N 0.12482 0.77517 0.57746 0.0
C936 C 0.17035 0.87894 0.52165 0.0
C937 C 0.13792 0.80762 0.55525 0.0
N938 N 0.22153 0.84137 0.48757 0.0
N939 N 0.07216 0.84107 0.55866 0.0
H940 H 0.14142 0.74854 0.58006 0.0
H941 H 0.09849 0.77556 0.595 0.0
H942 H 0.05403 0.86673 0.55564 0.0
H943 H 0.0568 0.81499 0.5679 0.0
H944 H 0.22953 0.86649 0.47 0.0
H945 H 0.23651 0.8153 0.47871 0.0
H946 H 0.21971 0.91821 0.50892 0.0
H947 H 0.17291 0.94254 0.51744 0.0
C948 C 0.82441 0.6706 0.52475 0.0
C949 C 0.83814 0.70721 0.54364 0.0
C950 C 0.90178 0.67251 0.56067 0.0
C951 C 0.88595 0.63654 0.54326 0.0
N952 N 0.82675 0.59763 0.52681 0.0
N953 N 0.88892 0.7407 0.58534 0.0
C954 C 0.84473 0.63434 0.53343 0.0
C955 C 0.8762 0.70721 0.56442 0.0
N956 N 0.79536 0.67015 0.4951 0.0
N957 N 0.94186 0.67396 0.5709 0.0
H958 H 0.87258 0.76761 0.586 0.0
H959 H 0.91473 0.74105 0.60365 0.0
H960 H 0.96002 0.64818 0.56921 0.0
H961 H 0.95701 0.7004 0.57949 0.0
H962 H 0.78832 0.64412 0.47842 0.0
H963 H 0.78055 0.69555 0.48428 0.0
H964 H 0.79575 0.59456 0.52091 0.0
H965 H 0.8425 0.57068 0.53121 0.0
C966 C 0.37242 0.79699 0.45724 0.0
C967 C 0.33474 0.80042 0.47837 0.0
C968 C 0.35076 0.87151 0.49235 0.0
C969 C 0.39112 0.86534 0.4806 0.0
N970 N 0.44153 0.82312 0.45034 0.0
N971 N 0.29621 0.83997 0.52806 0.0
C972 C 0.40212 0.82851 0.4617 0.0
C973 C 0.32577 0.83744 0.49903 0.0
N974 N 0.38082 0.76303 0.43511 0.0
N975 N 0.33738 0.9096 0.5008 0.0
H976 H 0.27771 0.81616 0.5372 0.0
H977 H 0.29243 0.86562 0.54621 0.0
H978 H 0.35581 0.93509 0.49692 0.0
H979 H 0.30704 0.91575 0.50725 0.0
H980 H 0.40607 0.76061 0.41622 0.0
H981 H 0.36163 0.73786 0.43408 0.0
H982 H 0.45324 0.79551 0.44073 0.0
H983 H 0.4628 0.84668 0.45212 0.0
C984 C 0.46666 0.70534 0.65964 0.0
C985 C 0.45699 0.69017 0.69877 0.0
C986 C 0.45767 0.62092 0.6723 0.0
C987 C 0.47708 0.63566 0.63688 0.0
N988 N 0.49465 0.69097 0.59268 0.0
N989 N 0.43567 0.63514 0.74164 0.0
C990 C 0.47857 0.67774 0.62867 0.0
C991 C 0.44901 0.64838 0.70458 0.0
N992 N 0.4657 0.74615 0.65303 0.0
N993 N 0.44936 0.58047 0.67514 0.0
H994 H 0.42823 0.65518 0.76505 0.0
H995 H 0.43248 0.60479 0.74953 0.0
H996 H 0.45571 0.56065 0.65118 0.0
H997 H 0.43385 0.56714 0.6993 0.0
H998 H 0.47018 0.7596 0.62473 0.0
H999 H 0.45716 0.76649 0.6758 0.0
H1000 H 0.5008 0.72117 0.58601 0.0
H1001 H 0.50276 0.67101 0.56946 0.0
C1002 C 0.54856 0.87832 0.7102 0.0
C1003 C 0.55136 0.83611 0.70321 0.0
C1004 C 0.53903 0.8459 0.63037 0.0
C1005 C 0.53172 0.88745 0.63822 0.0
N1006 N 0.54136 0.94562 0.68089 0.0
N1007 N 0.56186 0.78102 0.65645 0.0
C1008 C 0.54107 0.90447 0.67667 0.0
C1009 C 0.55146 0.82048 0.66298 0.0
N1010 N 0.55089 0.89281 0.74914 0.0
N1011 N 0.53056 0.83025 0.59275 0.0
H1012 H 0.57026 0.76175 0.6801 0.0
H1013 H 0.56541 0.76828 0.62767 0.0
H1014 H 0.52164 0.84831 0.56837 0.0
H1015 H 0.53071 0.79948 0.58592 0.0
H1016 H 0.54479 0.92263 0.75723 0.0
H1017 H 0.55804 0.87423 0.7738 0.0
H1018 H 0.55004 0.96068 0.70738 0.0
H1019 H 0.53596 0.96477 0.65619 0.0
C1020 C 0.491 0.3223 0.8382 0.0
C1021 C 0.47188 0.33375 0.8009 0.0
C1022 C 0.46032 0.40143 0.82998 0.0
C1023 C 0.47846 0.38859 0.86678 0.0
N1024 N 0.49519 0.33343 0.91085 0.0
N1025 N 0.43249 0.38318 0.76384 0.0
C1026 C 0.48714 0.34751 0.87265 0.0
C1027 C 0.45379 0.37276 0.7979 0.0
N1028 N 0.51622 0.28974 0.84046 0.0
N1029 N 0.45172 0.4415 0.82515 0.0
H1030 H 0.42968 0.36431 0.73853 0.0
H1031 H 0.41578 0.40972 0.76155 0.0
H1032 H 0.45492 0.46213 0.84911 0.0
H1033 H 0.44295 0.45432 0.79759 0.0
H1034 H 0.53358 0.28334 0.86619 0.0
H1035 H 0.52355 0.27139 0.81596 0.0
H1036 H 0.49891 0.30273 0.91718 0.0
H1037 H 0.49379 0.35211 0.93643 0.0
C1038 C 0.54572 0.13535 0.79821 0.0
C1039 C 0.52514 0.1732 0.80003 0.0
C1040 C 0.50678 0.15894 0.87079 0.0
C1041 C 0.51938 0.11869 0.8662 0.0
N1042 N 0.5512 0.06719 0.82622 0.0
N1043 N 0.4743 0.21324 0.83617 0.0
C1044 C 0.53961 0.10659 0.83024 0.0
C1045 C 0.50254 0.18313 0.83578 0.0
N1046 N 0.56923 0.12604 0.76531 0.0
N1047 N 0.49651 0.17343 0.90833 0.0
H1048 H 0.46708 0.23128 0.81143 0.0
H1049 H 0.45475 0.21785 0.8607 0.0
H1050 H 0.49931 0.15607 0.93467 0.0
H1051 H 0.48984 0.20385 0.9135 0.0
H1052 H 0.58791 0.10076 0.76418 0.0
H1053 H 0.57152 0.14451 0.73969 0.0
H1054 H 0.56188 0.05475 0.79914 0.0
H1055 H 0.54856 0.04658 0.85021 0.0
C1056 C 0.6585 0.47792 0.70475 0.0
C1057 C 0.69819 0.47123 0.68975 0.0
C1058 C 0.67356 0.47822 0.61968 0.0
C1059 C 0.63666 0.49351 0.6352 0.0
N1060 N 0.59125 0.50462 0.69134 0.0
N1061 N 0.74336 0.4588 0.63379 0.0
C1062 C 0.62785 0.4912 0.6774 0.0
C1063 C 0.70546 0.46859 0.64729 0.0
N1064 N 0.65076 0.47245 0.74527 0.0
N1065 N 0.678 0.47419 0.57851 0.0
H1066 H 0.7665 0.45028 0.65367 0.0
H1067 H 0.75227 0.45974 0.60342 0.0
H1068 H 0.65447 0.48096 0.55836 0.0
H1069 H 0.70326 0.4616 0.56451 0.0
H1070 H 0.62198 0.47408 0.75816 0.0
H1071 H 0.67308 0.463 0.76566 0.0
H1072 H 0.58408 0.50813 0.72199 0.0
H1073 H 0.56811 0.51362 0.67169 0.0
C1074 C 0.34422 0.9953 0.68886 0.0
C1075 C 0.30902 0.01885 0.68026 0.0
C1076 C 0.33706 0.0326 0.61199 0.0
C1077 C 0.37272 0.01162 0.62291 0.0
N1078 N 0.41587 0.98732 0.6763 0.0
N1079 N 0.27405 0.06367 0.63385 0.0
C1080 C 0.37834 0.99882 0.66324 0.0
C1081 C 0.30645 0.03946 0.64213 0.0
N1082 N 0.34467 0.96666 0.71886 0.0
N1083 N 0.33182 0.04409 0.57242 0.0
H1084 H 0.2493 0.06652 0.65334 0.0
H1085 H 0.27257 0.08233 0.60836 0.0
H1086 H 0.35477 0.04076 0.55075 0.0
H1087 H 0.30468 0.0553 0.56091 0.0
H1088 H 0.36868 0.94658 0.72259 0.0
H1089 H 0.32025 0.95949 0.73747 0.0
H1090 H 0.42194 0.98031 0.70667 0.0
H1091 H 0.44147 0.98927 0.65769 0.0
C1092 C 0.66052 0.5549 0.82276 0.0
C1093 C 0.69984 0.55665 0.84012 0.0
C1094 C 0.67139 0.54492 0.9078 0.0
C1095 C 0.63433 0.53362 0.8891 0.0
N1096 N 0.59 0.53399 0.83096 0.0
N1097 N 0.743 0.56129 0.89882 0.0
C1098 C 0.62738 0.54177 0.84733 0.0
C1099 C 0.70518 0.55513 0.88283 0.0
N1100 N 0.65564 0.56434 0.78255 0.0
N1101 N 0.67404 0.54435 0.9493 0.0
H1102 H 0.76757 0.57015 0.88075 0.0
H1103 H 0.7503 0.55739 0.92937 0.0
H1104 H 0.64897 0.53723 0.96743 0.0
H1105 H 0.6995 0.55344 0.96574 0.0
H1106 H 0.62774 0.56554 0.76782 0.0
H1107 H 0.67991 0.57378 0.76439 0.0
H1108 H 0.58331 0.5356 0.80006 0.0
H1109 H 0.56528 0.5253 0.84881 0.0
C1110 C 0.34769 0.98094 0.83238 0.0
C1111 C 0.30903 0.96613 0.84527 0.0
C1112 C 0.33642 0.95916 0.91444 0.0
C1113 C 0.37472 0.97275 0.90014 0.0
N1114 N 0.4201 0.97811 0.84328 0.0
N1115 N 0.2688 0.93417 0.89791 0.0
C1116 C 0.3815 0.97597 0.85812 0.0
C1117 C 0.30432 0.95204 0.88596 0.0
N1118 N 0.35198 0.00359 0.79793 0.0
N1119 N 0.33031 0.95573 0.95539 0.0
H1120 H 0.24396 0.93074 0.8785 0.0
H1121 H 0.26493 0.92056 0.92625 0.0
H1122 H 0.35402 0.95972 0.97617 0.0
H1123 H 0.30199 0.9506 0.96855 0.0
H1124 H 0.37932 0.01751 0.78984 0.0
H1125 H 0.32773 0.0128 0.78011 0.0
H1126 H 0.42635 0.97866 0.81213 0.0
H1127 H 0.44538 0.97446 0.86202 0.0
C1128 C 0.69033 0.67466 0.50558 0.0
C1129 C 0.6804 0.71154 0.48555 0.0
C1130 C 0.61122 0.68528 0.47633 0.0
C1131 C 0.6237 0.64734 0.49207 0.0
N1132 N 0.67883 0.60254 0.50699 0.0
N1133 N 0.63131 0.74977 0.44687 0.0
C1134 C 0.6649 0.64074 0.50015 0.0
C1135 C 0.64102 0.71584 0.46836 0.0
N1136 N 0.72083 0.67251 0.53356 0.0
N1137 N 0.57083 0.69291 0.4717 0.0
H1138 H 0.65138 0.774 0.44296 0.0
H1139 H 0.6041 0.75268 0.43098 0.0
H1140 H 0.54868 0.67079 0.47702 0.0
H1141 H 0.55945 0.72146 0.46483 0.0
H1142 H 0.72588 0.64667 0.55107 0.0
H1143 H 0.73837 0.69712 0.54268 0.0
H1144 H 0.70956 0.59653 0.51151 0.0
H1145 H 0.66022 0.57703 0.50373 0.0
C1146 C 0.6288 0.30601 0.04834 0.0
C1147 C 0.66987 0.3119 0.0362 0.0
C1148 C 0.65529 0.38304 0.02208 0.0
C1149 C 0.61361 0.37443 0.02391 0.0
N1150 N 0.55911 0.32932 0.04123 0.0
N1151 N 0.71865 0.35536 1.00117 0.0
C1152 C 0.59986 0.33654 0.03873 0.0
C1153 C 0.68253 0.35042 0.02092 0.0
N1154 N 0.61713 0.27077 0.06678 0.0
N1155 N 0.66858 0.42203 0.01778 0.0
H1156 H 0.73828 0.33179 0.9949 0.0
H1157 H 0.72692 0.38213 0.98645 0.0
H1158 H 0.6487 0.44643 0.01724 0.0
H1159 H 0.69921 0.43007 0.01923 0.0
H1160 H 0.58833 0.2661 0.07899 0.0
H1161 H 0.63708 0.24703 0.07223 0.0
H1162 H 0.54645 0.30096 0.04716 0.0
H1163 H 0.53798 0.35215 0.03588 0.0
C1164 C 0.37731 0.2045 0.04904 0.0
C1165 C 0.33769 0.20046 0.03203 0.0
C1166 C 0.35162 0.12947 0.0169 0.0
C1167 C 0.39296 0.13612 0.02464 0.0
N1168 N 0.44658 0.17893 0.04921 0.0
N1169 N 0.29314 0.16045 0.98799 0.0
C1170 C 0.40618 0.17319 0.04188 0.0
C1171 C 0.32611 0.16324 0.01306 0.0
N1172 N 0.38796 0.23874 0.06993 0.0
N1173 N 0.33743 0.09116 0.00991 0.0
H1174 H 0.27484 0.1847 0.98031 0.0
H1175 H 0.28652 0.13458 0.97093 0.0
H1176 H 0.35616 0.0659 0.01194 0.0
H1177 H 0.3066 0.08454 0.00665 0.0
H1178 H 0.41515 0.24179 0.08584 0.0
H1179 H 0.36869 0.26343 0.07317 0.0
H1180 H 0.45935 0.20673 0.0573 0.0
H1181 H 0.46745 0.15552 0.04564 0.0
C1182 C 0.87241 0.31627 0.96699 0.0
C1183 C 0.83504 0.31589 0.98905 0.0
C1184 C 0.84935 0.38506 0.01191 0.0
C1185 C 0.88936 0.38192 0.99796 0.0
N1186 N 0.94038 0.34557 0.96151 0.0
N1187 N 0.79591 0.34777 0.04372 0.0
C1188 C 0.90115 0.34806 0.97455 0.0
C1189 C 0.82538 0.34968 0.01449 0.0
N1190 N 0.8814 0.28556 0.94067 0.0
N1191 N 0.8352 0.42144 0.02538 0.0
H1192 H 0.77809 0.32253 0.04993 0.0
H1193 H 0.79162 0.37082 0.06501 0.0
H1194 H 0.85283 0.44778 0.02398 0.0
H1195 H 0.80492 0.42589 0.03341 0.0
H1196 H 0.90611 0.28644 0.92093 0.0
H1197 H 0.86329 0.25979 0.93729 0.0
H1198 H 0.95275 0.31973 0.94838 0.0
H1199 H 0.96091 0.36952 0.96542 0.0
loop_
_geom_bond_atom_site_label_1
_geom_bond_atom_site_label_2
_geom_bond_distance
_geom_bond_site_symmetry_2
_ccdc_geom_bond_type
C0 O2 1.247 . S
C0 O4 1.258 1_455 S
C1 O8 1.247 . S
C1 O9 1.258 1_655 S
O2 C0 1.247 . S
O2 Zn3 2.028 . S
Zn3 O2 2.028 . S
Zn3 O7 2.035 . S
Zn3 O9 2.035 . S
Zn3 O10 2.028 . S
O4 C0 1.258 1_655 S
O4 Zn5 2.035 . S
Zn5 O4 2.035 . S
Zn5 O6 2.028 . S
Zn5 O8 2.028 . S
Zn5 O11 2.035 . S
O6 Zn5 2.028 . S
O6 C12 1.247 . S
O7 Zn3 2.035 . S
O7 C12 1.258 1_455 S
O8 C1 1.247 . S
O8 Zn5 2.028 . S
O9 C1 1.258 1_455 S
O9 Zn3 2.035 . S
O10 Zn3 2.028 . S
O10 C13 1.247 . S
O11 Zn5 2.035 . S
O11 C13 1.258 1_655 S
C12 O6 1.247 . S
C12 O7 1.258 1_655 S
C13 O10 1.247 . S
C13 O11 1.258 1_455 S
C14 O16 1.247 . S
C14 O18 1.258 1_455 S
C15 O22 1.247 . S
C15 O23 1.258 1_655 S
O16 C14 1.247 . S
O16 Zn17 2.028 . S
Zn17 O16 2.028 . S
Zn17 O21 2.035 . S
Zn17 O23 2.035 . S
Zn17 O24 2.028 . S
O18 C14 1.258 1_655 S
O18 Zn19 2.035 . S
Zn19 O18 2.035 . S
Zn19 O20 2.028 . S
Zn19 O22 2.028 . S
Zn19 O25 2.035 . S
O20 Zn19 2.028 . S
O20 C26 1.247 . S
O21 Zn17 2.035 . S
O21 C26 1.258 1_455 S
O22 C15 1.247 . S
O22 Zn19 2.028 . S
O23 C15 1.258 1_455 S
O23 Zn17 2.035 . S
O24 Zn17 2.028 . S
O24 C27 1.247 . S
O25 Zn19 2.035 . S
O25 C27 1.258 1_655 S
C26 O20 1.247 . S
C26 O21 1.258 1_655 S
C27 O24 1.247 . S
C27 O25 1.258 1_455 S
C28 O30 1.247 1_545 S
C28 O32 1.258 . S
C29 O36 1.247 1_565 S
C29 O37 1.258 . S
O30 C28 1.247 1_565 S
O30 Zn31 2.028 . S
Zn31 O30 2.028 . S
Zn31 O35 2.035 . S
Zn31 O37 2.035 . S
Zn31 O38 2.028 . S
O32 C28 1.258 . S
O32 Zn33 2.035 . S
Zn33 O32 2.035 . S
Zn33 O34 2.028 . S
Zn33 O36 2.028 . S
Zn33 O39 2.035 . S
O34 Zn33 2.028 . S
O34 C40 1.247 1_545 S
O35 Zn31 2.035 . S
O35 C40 1.258 . S
O36 C29 1.247 1_545 S
O36 Zn33 2.028 . S
O37 C29 1.258 . S
O37 Zn31 2.035 . S
O38 Zn31 2.028 . S
O38 C41 1.247 1_565 S
O39 Zn33 2.035 . S
O39 C41 1.258 . S
C40 O34 1.247 1_565 S
C40 O35 1.258 . S
C41 O38 1.247 1_545 S
C41 O39 1.258 . S
C42 O44 1.247 . S
C42 O46 1.258 . S
C43 O50 1.247 . S
C43 O51 1.258 . S
O44 C42 1.247 . S
O44 Zn45 2.028 . S
Zn45 O44 2.028 . S
Zn45 O49 2.035 . S
Zn45 O51 2.035 . S
Zn45 O52 2.028 . S
O46 C42 1.258 . S
O46 Zn47 2.035 . S
Zn47 O46 2.035 . S
Zn47 O48 2.028 . S
Zn47 O50 2.028 . S
Zn47 O53 2.035 . S
O48 Zn47 2.028 . S
O48 C54 1.247 . S
O49 Zn45 2.035 . S
O49 C54 1.258 . S
O50 C43 1.247 . S
O50 Zn47 2.028 . S
O51 C43 1.258 . S
O51 Zn45 2.035 . S
O52 Zn45 2.028 . S
O52 C55 1.247 . S
O53 Zn47 2.035 . S
O53 C55 1.258 . S
C54 O48 1.247 . S
C54 O49 1.258 . S
C55 O52 1.247 . S
C55 O53 1.258 . S
C56 O58 1.247 1_554 S
C56 O60 1.258 . S
C57 O64 1.247 1_556 S
C57 O65 1.258 . S
O58 C56 1.247 1_556 S
O58 Zn59 2.028 . S
Zn59 O58 2.028 . S
Zn59 O63 2.035 . S
Zn59 O65 2.035 . S
Zn59 O66 2.028 . S
O60 C56 1.258 . S
O60 Zn61 2.035 . S
Zn61 O60 2.035 . S
Zn61 O62 2.028 . S
Zn61 O64 2.028 . S
Zn61 O67 2.035 . S
O62 Zn61 2.028 . S
O62 C68 1.247 1_554 S
O63 Zn59 2.035 . S
O63 C68 1.258 . S
O64 C57 1.247 1_554 S
O64 Zn61 2.028 . S
O65 C57 1.258 . S
O65 Zn59 2.035 . S
O66 Zn59 2.028 . S
O66 C69 1.247 1_556 S
O67 Zn61 2.035 . S
O67 C69 1.258 . S
C68 O62 1.247 1_556 S
C68 O63 1.258 . S
C69 O66 1.247 1_554 S
C69 O67 1.258 . S
C70 O72 1.247 . S
C70 O74 1.258 . S
C71 O78 1.247 . S
C71 O79 1.258 . S
O72 C70 1.247 . S
O72 Zn73 2.028 . S
Zn73 O72 2.028 . S
Zn73 O77 2.035 . S
Zn73 O79 2.035 . S
Zn73 O80 2.028 . S
O74 C70 1.258 . S
O74 Zn75 2.035 . S
Zn75 O74 2.035 . S
Zn75 O76 2.028 . S
Zn75 O78 2.028 . S
Zn75 O81 2.035 . S
O76 Zn75 2.028 . S
O76 C82 1.247 . S
O77 Zn73 2.035 . S
O77 C82 1.258 . S
O78 C71 1.247 . S
O78 Zn75 2.028 . S
O79 C71 1.258 . S
O79 Zn73 2.035 . S
O80 Zn73 2.028 . S
O80 C83 1.247 . S
O81 Zn75 2.035 . S
O81 C83 1.258 . S
C82 O76 1.247 . S
C82 O77 1.258 . S
C83 O80 1.247 . S
C83 O81 1.258 . S
C84 O86 1.247 . S
C84 O88 1.258 . S
C85 O92 1.247 . S
C85 O93 1.258 . S
O86 C84 1.247 . S
O86 Zn87 2.028 . S
Zn87 O86 2.028 . S
Zn87 O91 2.035 . S
Zn87 O93 2.035 . S
Zn87 O94 2.028 . S
O88 C84 1.258 . S
O88 Zn89 2.035 . S
Zn89 O88 2.035 . S
Zn89 O90 2.028 . S
Zn89 O92 2.028 . S
Zn89 O95 2.035 . S
O90 Zn89 2.028 . S
O90 C96 1.247 . S
O91 Zn87 2.035 . S
O91 C96 1.258 . S
O92 C85 1.247 . S
O92 Zn89 2.028 . S
O93 C85 1.258 . S
O93 Zn87 2.035 . S
O94 Zn87 2.028 . S
O94 C97 1.247 . S
O95 Zn89 2.035 . S
O95 C97 1.258 . S
C96 O90 1.247 . S
C96 O91 1.258 . S
C97 O94 1.247 . S
C97 O95 1.258 . S
C98 O100 1.247 . S
C98 O102 1.258 . S
C99 O106 1.247 . S
C99 O107 1.258 . S
O100 C98 1.247 . S
O100 Zn101 2.028 . S
Zn101 O100 2.028 . S
Zn101 O105 2.035 . S
Zn101 O107 2.035 . S
Zn101 O108 2.028 . S
O102 C98 1.258 . S
O102 Zn103 2.035 . S
Zn103 O102 2.035 . S
Zn103 O104 2.028 . S
Zn103 O106 2.028 . S
Zn103 O109 2.035 . S
O104 Zn103 2.028 . S
O104 C110 1.247 . S
O105 Zn101 2.035 . S
O105 C110 1.258 . S
O106 C99 1.247 . S
O106 Zn103 2.028 . S
O107 C99 1.258 . S
O107 Zn101 2.035 . S
O108 Zn101 2.028 . S
O108 C111 1.247 . S
O109 Zn103 2.035 . S
O109 C111 1.258 . S
C110 O104 1.247 . S
C110 O105 1.258 . S
C111 O108 1.247 . S
C111 O109 1.258 . S
C112 O114 1.247 . S
C112 O116 1.258 . S
C113 O120 1.247 . S
C113 O121 1.258 . S
O114 C112 1.247 . S
O114 Zn115 2.028 . S
Zn115 O114 2.028 . S
Zn115 O119 2.035 . S
Zn115 O121 2.035 . S
Zn115 O122 2.028 . S
O116 C112 1.258 . S
O116 Zn117 2.035 . S
Zn117 O116 2.035 . S
Zn117 O118 2.028 . S
Zn117 O120 2.028 . S
Zn117 O123 2.035 . S
O118 Zn117 2.028 . S
O118 C124 1.247 . S
O119 Zn115 2.035 . S
O119 C124 1.258 . S
O120 C113 1.247 . S
O120 Zn117 2.028 . S
O121 C113 1.258 . S
O121 Zn115 2.035 . S
O122 Zn115 2.028 . S
O122 C125 1.247 . S
O123 Zn117 2.035 . S
O123 C125 1.258 . S
C124 O118 1.247 . S
C124 O119 1.258 . S
C125 O122 1.247 . S
C125 O123 1.258 . S
C126 O128 1.247 . S
C126 O130 1.258 . S
C127 O134 1.247 . S
C127 O135 1.258 . S
O128 C126 1.247 . S
O128 Zn129 2.028 . S
Zn129 O128 2.028 . S
Zn129 O133 2.035 . S
Zn129 O135 2.035 . S
Zn129 O136 2.028 . S
O130 C126 1.258 . S
O130 Zn131 2.035 . S
Zn131 O130 2.035 . S
Zn131 O132 2.028 . S
Zn131 O134 2.028 . S
Zn131 O137 2.035 . S
O132 Zn131 2.028 . S
O132 C138 1.247 . S
O133 Zn129 2.035 . S
O133 C138 1.258 . S
O134 C127 1.247 . S
O134 Zn131 2.028 . S
O135 C127 1.258 . S
O135 Zn129 2.035 . S
O136 Zn129 2.028 . S
O136 C139 1.247 . S
O137 Zn131 2.035 . S
O137 C139 1.258 . S
C138 O132 1.247 . S
C138 O133 1.258 . S
C139 O136 1.247 . S
C139 O137 1.258 . S
C140 O142 1.247 . S
C140 O144 1.258 1_565 S
C141 O148 1.247 . S
C141 O149 1.258 1_545 S
O142 C140 1.247 . S
O142 Zn143 2.028 . S
Zn143 O142 2.028 . S
Zn143 O147 2.035 . S
Zn143 O149 2.035 . S
Zn143 O150 2.028 . S
O144 C140 1.258 1_545 S
O144 Zn145 2.035 . S
Zn145 O144 2.035 . S
Zn145 O146 2.028 . S
Zn145 O148 2.028 . S
Zn145 O151 2.035 . S
O146 Zn145 2.028 . S
O146 C152 1.247 . S
O147 Zn143 2.035 . S
O147 C152 1.258 1_565 S
O148 C141 1.247 . S
O148 Zn145 2.028 . S
O149 C141 1.258 1_565 S
O149 Zn143 2.035 . S
O150 Zn143 2.028 . S
O150 C153 1.247 . S
O151 Zn145 2.035 . S
O151 C153 1.258 1_545 S
C152 O146 1.247 . S
C152 O147 1.258 1_545 S
C153 O150 1.247 . S
C153 O151 1.258 1_565 S
C154 O156 1.247 1_556 S
C154 O158 1.258 . S
C155 O162 1.247 1_554 S
C155 O163 1.258 . S
O156 C154 1.247 1_554 S
O156 Zn157 2.028 . S
Zn157 O156 2.028 . S
Zn157 O161 2.035 . S
Zn157 O163 2.035 . S
Zn157 O164 2.028 . S
O158 C154 1.258 . S
O158 Zn159 2.035 . S
Zn159 O158 2.035 . S
Zn159 O160 2.028 . S
Zn159 O162 2.028 . S
Zn159 O165 2.035 . S
O160 Zn159 2.028 . S
O160 C166 1.247 1_556 S
O161 Zn157 2.035 . S
O161 C166 1.258 . S
O162 C155 1.247 1_556 S
O162 Zn159 2.028 . S
O163 C155 1.258 . S
O163 Zn157 2.035 . S
O164 Zn157 2.028 . S
O164 C167 1.247 1_554 S
O165 Zn159 2.035 . S
O165 C167 1.258 . S
C166 O160 1.247 1_554 S
C166 O161 1.258 . S
C167 O164 1.247 1_556 S
C167 O165 1.258 . S
Zn168 O174 1.920 . S
Zn168 O180 1.898 . S
Zn168 O183 1.905 . S
Zn169 O177 1.905 1_665 S
Zn169 O178 1.898 1_656 S
Zn169 O186 1.920 1_566 S
Zn170 O173 2.080 . S
Zn170 O176 2.114 1_554 S
Zn170 O179 2.120 . S
Zn170 O181 2.120 . S
Zn170 O182 2.114 . S
Zn170 O185 2.080 1_455 S
C171 O176 1.166 . S
C171 O177 1.182 . S
C172 O178 1.167 . S
C172 O179 1.299 1_565 S
O173 Zn170 2.080 . S
O173 C187 1.305 . S
O174 Zn168 1.920 . S
O174 C187 1.234 . S
C175 O180 1.167 . S
C175 O181 1.299 . S
O176 Zn170 2.114 1_556 S
O176 C171 1.166 . S
O177 Zn169 1.905 1_445 S
O177 C171 1.182 . S
O178 Zn169 1.898 1_454 S
O178 C172 1.167 . S
O179 Zn170 2.120 . S
O179 C172 1.299 1_545 S
O180 Zn168 1.898 . S
O180 C175 1.167 . S
O181 Zn170 2.120 . S
O181 C175 1.299 . S
O182 Zn170 2.114 . S
O182 C184 1.166 . S
O183 Zn168 1.905 . S
O183 C184 1.182 . S
C184 O182 1.166 . S
C184 O183 1.182 . S
O185 Zn170 2.080 1_655 S
O185 C188 1.305 . S
O186 Zn169 1.920 1_544 S
O186 C188 1.234 . S
C187 O173 1.305 . S
C187 O174 1.234 . S
C188 O185 1.305 . S
C188 O186 1.234 . S
Zn189 O195 1.920 1_556 S
Zn189 O201 1.898 1_456 S
Zn189 O204 1.905 1_455 S
Zn190 O198 1.905 . S
Zn190 O199 1.898 . S
Zn190 O207 1.920 . S
Zn191 O194 2.080 1_655 S
Zn191 O197 2.114 . S
Zn191 O200 2.120 . S
Zn191 O202 2.120 . S
Zn191 O203 2.114 1_554 S
Zn191 O206 2.080 . S
C192 O197 1.166 . S
C192 O198 1.182 . S
C193 O199 1.167 . S
C193 O200 1.299 . S
O194 Zn191 2.080 1_455 S
O194 C208 1.305 . S
O195 Zn189 1.920 1_554 S
O195 C208 1.234 . S
C196 O201 1.167 . S
C196 O202 1.299 . S
O197 Zn191 2.114 . S
O197 C192 1.166 . S
O198 Zn190 1.905 . S
O198 C192 1.182 . S
O199 Zn190 1.898 . S
O199 C193 1.167 . S
O200 Zn191 2.120 . S
O200 C193 1.299 . S
O201 Zn189 1.898 1_654 S
O201 C196 1.167 . S
O202 Zn191 2.120 . S
O202 C196 1.299 . S
O203 Zn191 2.114 1_556 S
O203 C205 1.166 . S
O204 Zn189 1.905 1_655 S
O204 C205 1.182 . S
C205 O203 1.166 . S
C205 O204 1.182 . S
O206 Zn191 2.080 . S
O206 C209 1.305 . S
O207 Zn190 1.920 . S
O207 C209 1.234 . S
C208 O194 1.305 . S
C208 O195 1.234 . S
C209 O206 1.305 . S
C209 O207 1.234 . S
Zn210 O216 1.920 1_655 S
Zn210 O222 1.898 1_655 S
Zn210 O225 1.905 1_545 S
Zn211 O219 1.905 . S
Zn211 O220 1.898 . S
Zn211 O228 1.920 . S
Zn212 O215 2.080 1_565 S
Zn212 O218 2.114 . S
Zn212 O221 2.120 . S
Zn212 O223 2.120 . S
Zn212 O224 2.114 1_455 S
Zn212 O227 2.080 . S
C213 O218 1.166 . S
C213 O219 1.182 . S
C214 O220 1.167 . S
C214 O221 1.299 . S
O215 Zn212 2.080 1_545 S
O215 C229 1.305 . S
O216 Zn210 1.920 1_455 S
O216 C229 1.234 . S
C217 O222 1.167 1_565 S
C217 O223 1.299 . S
O218 Zn212 2.114 . S
O218 C213 1.166 . S
O219 Zn211 1.905 . S
O219 C213 1.182 . S
O220 Zn211 1.898 . S
O220 C214 1.167 . S
O221 Zn212 2.120 . S
O221 C214 1.299 . S
O222 Zn210 1.898 1_455 S
O222 C217 1.167 1_545 S
O223 Zn212 2.120 . S
O223 C217 1.299 . S
O224 Zn212 2.114 1_655 S
O224 C226 1.166 . S
O225 Zn210 1.905 1_565 S
O225 C226 1.182 . S
C226 O224 1.166 . S
C226 O225 1.182 . S
O227 Zn212 2.080 . S
O227 C230 1.305 . S
O228 Zn211 1.920 . S
O228 C230 1.234 . S
C229 O215 1.305 . S
C229 O216 1.234 . S
C230 O227 1.305 . S
C230 O228 1.234 . S
Zn231 O237 1.920 . S
Zn231 O243 1.898 . S
Zn231 O246 1.905 . S
Zn232 O240 1.905 . S
Zn232 O241 1.898 . S
Zn232 O249 1.920 1_455 S
Zn233 O236 2.080 . S
Zn233 O239 2.114 . S
Zn233 O242 2.120 1_655 S
Zn233 O244 2.120 . S
Zn233 O245 2.114 . S
Zn233 O248 2.080 . S
C234 O239 1.166 . S
C234 O240 1.182 1_655 S
C235 O241 1.167 . S
C235 O242 1.299 . S
O236 Zn233 2.080 . S
O236 C250 1.305 . S
O237 Zn231 1.920 . S
O237 C250 1.234 . S
C238 O243 1.167 . S
C238 O244 1.299 . S
O239 Zn233 2.114 . S
O239 C234 1.166 . S
O240 Zn232 1.905 . S
O240 C234 1.182 1_455 S
O241 Zn232 1.898 . S
O241 C235 1.167 . S
O242 Zn233 2.120 1_455 S
O242 C235 1.299 . S
O243 Zn231 1.898 . S
O243 C238 1.167 . S
O244 Zn233 2.120 . S
O244 C238 1.299 . S
O245 Zn233 2.114 . S
O245 C247 1.166 . S
O246 Zn231 1.905 . S
O246 C247 1.182 . S
C247 O245 1.166 . S
C247 O246 1.182 . S
O248 Zn233 2.080 . S
O248 C251 1.305 . S
O249 Zn232 1.920 1_655 S
O249 C251 1.234 . S
C250 O236 1.305 . S
C250 O237 1.234 . S
C251 O248 1.305 . S
C251 O249 1.234 . S
Zn252 O258 1.920 . S
Zn252 O264 1.898 . S
Zn252 O267 1.905 . S
Zn253 O261 1.905 . S
Zn253 O262 1.898 . S
Zn253 O270 1.920 1_545 S
Zn254 O257 2.080 . S
Zn254 O260 2.114 . S
Zn254 O263 2.120 1_565 S
Zn254 O265 2.120 . S
Zn254 O266 2.114 . S
Zn254 O269 2.080 . S
C255 O260 1.166 . S
C255 O261 1.182 1_565 S
C256 O262 1.167 . S
C256 O263 1.299 . S
O257 Zn254 2.080 . S
O257 C271 1.305 . S
O258 Zn252 1.920 . S
O258 C271 1.234 . S
C259 O264 1.167 . S
C259 O265 1.299 . S
O260 Zn254 2.114 . S
O260 C255 1.166 . S
O261 Zn253 1.905 . S
O261 C255 1.182 1_545 S
O262 Zn253 1.898 . S
O262 C256 1.167 . S
O263 Zn254 2.120 1_545 S
O263 C256 1.299 . S
O264 Zn252 1.898 . S
O264 C259 1.167 . S
O265 Zn254 2.120 . S
O265 C259 1.299 . S
O266 Zn254 2.114 . S
O266 C268 1.166 . S
O267 Zn252 1.905 . S
O267 C268 1.182 . S
C268 O266 1.166 . S
C268 O267 1.182 . S
O269 Zn254 2.080 . S
O269 C272 1.305 . S
O270 Zn253 1.920 1_565 S
O270 C272 1.234 . S
C271 O257 1.305 . S
C271 O258 1.234 . S
C272 O269 1.305 . S
C272 O270 1.234 . S
Zn273 O279 1.920 . S
Zn273 O285 1.898 . S
Zn273 O288 1.905 . S
Zn274 O282 1.905 . S
Zn274 O283 1.898 . S
Zn274 O291 1.920 . S
Zn275 O278 2.080 . S
Zn275 O281 2.114 . S
Zn275 O284 2.120 . S
Zn275 O286 2.120 . S
Zn275 O287 2.114 . S
Zn275 O290 2.080 . S
C276 O281 1.166 . S
C276 O282 1.182 . S
C277 O283 1.167 . S
C277 O284 1.299 . S
O278 Zn275 2.080 . S
O278 C292 1.305 . S
O279 Zn273 1.920 . S
O279 C292 1.234 . S
C280 O285 1.167 . S
C280 O286 1.299 . S
O281 Zn275 2.114 . S
O281 C276 1.166 . S
O282 Zn274 1.905 . S
O282 C276 1.182 . S
O283 Zn274 1.898 . S
O283 C277 1.167 . S
O284 Zn275 2.120 . S
O284 C277 1.299 . S
O285 Zn273 1.898 . S
O285 C280 1.167 . S
O286 Zn275 2.120 . S
O286 C280 1.299 . S
O287 Zn275 2.114 . S
O287 C289 1.166 . S
O288 Zn273 1.905 . S
O288 C289 1.182 . S
C289 O287 1.166 . S
C289 O288 1.182 . S
O290 Zn275 2.080 . S
O290 C293 1.305 . S
O291 Zn274 1.920 . S
O291 C293 1.234 . S
C292 O278 1.305 . S
C292 O279 1.234 . S
C293 O290 1.305 . S
C293 O291 1.234 . S
Zn294 O300 1.920 1_554 S
Zn294 O306 1.898 . S
Zn294 O309 1.905 . S
Zn295 O303 1.905 . S
Zn295 O304 1.898 . S
Zn295 O312 1.920 . S
Zn296 O299 2.080 . S
Zn296 O302 2.114 . S
Zn296 O305 2.120 . S
Zn296 O307 2.120 1_556 S
Zn296 O308 2.114 . S
Zn296 O311 2.080 . S
C297 O302 1.166 . S
C297 O303 1.182 . S
C298 O304 1.167 . S
C298 O305 1.299 . S
O299 Zn296 2.080 . S
O299 C313 1.305 . S
O300 Zn294 1.920 1_556 S
O300 C313 1.234 . S
C301 O306 1.167 . S
C301 O307 1.299 . S
O302 Zn296 2.114 . S
O302 C297 1.166 . S
O303 Zn295 1.905 . S
O303 C297 1.182 . S
O304 Zn295 1.898 . S
O304 C298 1.167 . S
O305 Zn296 2.120 . S
O305 C298 1.299 . S
O306 Zn294 1.898 . S
O306 C301 1.167 . S
O307 Zn296 2.120 1_554 S
O307 C301 1.299 . S
O308 Zn296 2.114 . S
O308 C310 1.166 . S
O309 Zn294 1.905 . S
O309 C310 1.182 1_554 S
C310 O308 1.166 . S
C310 O309 1.182 1_556 S
O311 Zn296 2.080 . S
O311 C314 1.305 . S
O312 Zn295 1.920 . S
O312 C314 1.234 . S
C313 O299 1.305 . S
C313 O300 1.234 . S
C314 O311 1.305 . S
C314 O312 1.234 . S
Zn315 O321 1.920 1_565 S
Zn315 O327 1.898 1_565 S
Zn315 O330 1.905 1_554 S
Zn316 O324 1.905 . S
Zn316 O325 1.898 . S
Zn316 O333 1.920 . S
Zn317 O320 2.080 1_556 S
Zn317 O323 2.114 . S
Zn317 O326 2.120 . S
Zn317 O328 2.120 . S
Zn317 O329 2.114 1_545 S
Zn317 O332 2.080 . S
C318 O323 1.166 . S
C318 O324 1.182 . S
C319 O325 1.167 . S
C319 O326 1.299 . S
O320 Zn317 2.080 1_554 S
O320 C334 1.305 . S
O321 Zn315 1.920 1_545 S
O321 C334 1.234 . S
C322 O327 1.167 1_556 S
C322 O328 1.299 . S
O323 Zn317 2.114 . S
O323 C318 1.166 . S
O324 Zn316 1.905 . S
O324 C318 1.182 . S
O325 Zn316 1.898 . S
O325 C319 1.167 . S
O326 Zn317 2.120 . S
O326 C319 1.299 . S
O327 Zn315 1.898 1_545 S
O327 C322 1.167 1_554 S
O328 Zn317 2.120 . S
O328 C322 1.299 . S
O329 Zn317 2.114 1_565 S
O329 C331 1.166 . S
O330 Zn315 1.905 1_556 S
O330 C331 1.182 . S
C331 O329 1.166 . S
C331 O330 1.182 . S
O332 Zn317 2.080 . S
O332 C335 1.305 . S
O333 Zn316 1.920 . S
O333 C335 1.234 . S
C334 O320 1.305 . S
C334 O321 1.234 . S
C335 O332 1.305 . S
C335 O333 1.234 . S
C336 C337 1.363 . S
C336 C342 1.379 . S
C336 N344 1.356 . S
C337 C336 1.363 . S
C337 C343 1.363 1_455 S
C338 C339 1.364 . S
C338 C343 1.379 1_455 S
C338 N345 1.355 1_455 S
C339 C338 1.364 . S
C339 C342 1.363 . S
N340 C342 1.356 . S
N340 H352 0.984 . S
N340 H353 0.985 . S
N341 C343 1.356 . S
N341 H346 0.984 . S
N341 H347 0.985 . S
C342 C336 1.379 . S
C342 C339 1.363 . S
C342 N340 1.356 . S
C343 C337 1.363 1_655 S
C343 C338 1.379 1_655 S
C343 N341 1.356 . S
N344 C336 1.356 . S
N344 H350 0.984 . S
N344 H351 0.984 . S
N345 C338 1.355 1_655 S
N345 H348 0.984 . S
N345 H349 0.985 . S
H346 N341 0.984 . S
H347 N341 0.985 . S
H348 N345 0.984 . S
H349 N345 0.985 . S
H350 N344 0.984 . S
H351 N344 0.984 . S
H352 N340 0.984 . S
H353 N340 0.985 . S
C354 C355 1.363 . S
C354 C360 1.379 . S
C354 N362 1.356 . S
C355 C354 1.363 . S
C355 C361 1.363 1_655 S
C356 C357 1.363 1_455 S
C356 C361 1.379 . S
C356 N363 1.356 . S
C357 C356 1.363 1_655 S
C357 C360 1.363 . S
N358 C360 1.356 . S
N358 H370 0.984 . S
N358 H371 0.985 . S
N359 C361 1.356 . S
N359 H364 0.984 . S
N359 H365 0.985 . S
C360 C354 1.379 . S
C360 C357 1.363 . S
C360 N358 1.356 . S
C361 C355 1.363 1_455 S
C361 C356 1.379 . S
C361 N359 1.356 . S
N362 C354 1.356 . S
N362 H368 0.984 . S
N362 H369 0.984 . S
N363 C356 1.356 . S
N363 H366 0.984 . S
N363 H367 0.985 . S
H364 N359 0.984 . S
H365 N359 0.985 . S
H366 N363 0.984 . S
H367 N363 0.985 . S
H368 N362 0.984 . S
H369 N362 0.984 . S
H370 N358 0.984 . S
H371 N358 0.985 . S
C372 C373 1.363 . S
C372 C378 1.379 . S
C372 N380 1.356 . S
C373 C372 1.363 . S
C373 C379 1.363 1_455 S
C374 C375 1.363 1_655 S
C374 C379 1.379 . S
C374 N381 1.356 . S
C375 C374 1.363 1_455 S
C375 C378 1.363 . S
N376 C378 1.356 . S
N376 H388 0.984 . S
N376 H389 0.985 . S
N377 C379 1.356 . S
N377 H382 0.984 . S
N377 H383 0.985 . S
C378 C372 1.379 . S
C378 C375 1.363 . S
C378 N376 1.356 . S
C379 C373 1.363 1_655 S
C379 C374 1.379 . S
C379 N377 1.356 . S
N380 C372 1.356 . S
N380 H386 0.984 . S
N380 H387 0.984 . S
N381 C374 1.356 . S
N381 H384 0.984 . S
N381 H385 0.985 . S
H382 N377 0.984 . S
H383 N377 0.985 . S
H384 N381 0.984 . S
H385 N381 0.985 . S
H386 N380 0.984 . S
H387 N380 0.984 . S
H388 N376 0.984 . S
H389 N376 0.985 . S
C390 C391 1.363 . S
C390 C396 1.379 . S
C390 N398 1.356 . S
C391 C390 1.363 . S
C391 C397 1.363 1_655 S
C392 C393 1.363 1_455 S
C392 C397 1.379 . S
C392 N399 1.356 . S
C393 C392 1.363 1_655 S
C393 C396 1.363 . S
N394 C396 1.356 . S
N394 H406 0.984 . S
N394 H407 0.985 . S
N395 C397 1.356 . S
N395 H400 0.984 . S
N395 H401 0.985 . S
C396 C390 1.379 . S
C396 C393 1.363 . S
C396 N394 1.356 . S
C397 C391 1.363 1_455 S
C397 C392 1.379 . S
C397 N395 1.356 . S
N398 C390 1.356 . S
N398 H404 0.984 . S
N398 H405 0.984 . S
N399 C392 1.356 . S
N399 H402 0.984 . S
N399 H403 0.985 . S
H400 N395 0.984 . S
H401 N395 0.985 . S
H402 N399 0.984 . S
H403 N399 0.985 . S
H404 N398 0.984 . S
H405 N398 0.984 . S
H406 N394 0.984 . S
H407 N394 0.985 . S
C408 C409 1.363 . S
C408 C414 1.379 . S
C408 N416 1.356 . S
C409 C408 1.363 . S
C409 C415 1.363 1_545 S
C410 C411 1.363 1_565 S
C410 C415 1.379 . S
C410 N417 1.356 . S
C411 C410 1.363 1_545 S
C411 C414 1.363 . S
N412 C414 1.356 . S
N412 H424 0.984 . S
N412 H425 0.985 . S
N413 C415 1.356 . S
N413 H418 0.984 . S
N413 H419 0.985 . S
C414 C408 1.379 . S
C414 C411 1.363 . S
C414 N412 1.356 . S
C415 C409 1.363 1_565 S
C415 C410 1.379 . S
C415 N413 1.356 . S
N416 C408 1.356 . S
N416 H422 0.984 . S
N416 H423 0.984 . S
N417 C410 1.356 . S
N417 H420 0.984 . S
N417 H421 0.985 . S
H418 N413 0.984 . S
H419 N413 0.985 . S
H420 N417 0.984 . S
H421 N417 0.985 . S
H422 N416 0.984 . S
H423 N416 0.984 . S
H424 N412 0.984 . S
H425 N412 0.985 . S
C426 C427 1.363 . S
C426 C432 1.379 . S
C426 N434 1.356 . S
C427 C426 1.363 . S
C427 C433 1.363 . S
C428 C429 1.363 . S
C428 C433 1.379 . S
C428 N435 1.356 . S
C429 C428 1.363 . S
C429 C432 1.363 . S
N430 C432 1.356 . S
N430 H442 0.984 . S
N430 H443 0.985 . S
N431 C433 1.356 . S
N431 H436 0.984 . S
N431 H437 0.985 . S
C432 C426 1.379 . S
C432 C429 1.363 . S
C432 N430 1.356 . S
C433 C427 1.363 . S
C433 C428 1.379 . S
C433 N431 1.356 . S
N434 C426 1.356 . S
N434 H440 0.984 . S
N434 H441 0.984 . S
N435 C428 1.356 . S
N435 H438 0.984 . S
N435 H439 0.985 . S
H436 N431 0.984 . S
H437 N431 0.985 . S
H438 N435 0.984 . S
H439 N435 0.985 . S
H440 N434 0.984 . S
H441 N434 0.984 . S
H442 N430 0.984 . S
H443 N430 0.985 . S
C444 C445 1.363 . S
C444 C450 1.379 . S
C444 N452 1.356 . S
C445 C444 1.363 . S
C445 C451 1.363 1_565 S
C446 C447 1.363 1_545 S
C446 C451 1.379 . S
C446 N453 1.356 . S
C447 C446 1.363 1_565 S
C447 C450 1.363 . S
N448 C450 1.356 . S
N448 H460 0.984 . S
N448 H461 0.985 . S
N449 C451 1.356 . S
N449 H454 0.984 . S
N449 H455 0.985 . S
C450 C444 1.379 . S
C450 C447 1.363 . S
C450 N448 1.356 . S
C451 C445 1.363 1_545 S
C451 C446 1.379 . S
C451 N449 1.356 . S
N452 C444 1.356 . S
N452 H458 0.984 . S
N452 H459 0.984 . S
N453 C446 1.356 . S
N453 H456 0.984 . S
N453 H457 0.985 . S
H454 N449 0.984 . S
H455 N449 0.985 . S
H456 N453 0.984 . S
H457 N453 0.985 . S
H458 N452 0.984 . S
H459 N452 0.984 . S
H460 N448 0.984 . S
H461 N448 0.985 . S
C462 C463 1.363 . S
C462 C468 1.379 . S
C462 N470 1.356 . S
C463 C462 1.363 . S
C463 C469 1.363 . S
C464 C465 1.363 . S
C464 C469 1.379 . S
C464 N471 1.356 . S
C465 C464 1.363 . S
C465 C468 1.363 . S
N466 C468 1.356 . S
N466 H478 0.984 . S
N466 H479 0.985 . S
N467 C469 1.356 . S
N467 H472 0.984 . S
N467 H473 0.985 . S
C468 C462 1.379 . S
C468 C465 1.363 . S
C468 N466 1.356 . S
C469 C463 1.363 . S
C469 C464 1.379 . S
C469 N467 1.356 . S
N470 C462 1.356 . S
N470 H476 0.984 . S
N470 H477 0.984 . S
N471 C464 1.356 . S
N471 H474 0.984 . S
N471 H475 0.985 . S
H472 N467 0.984 . S
H473 N467 0.985 . S
H474 N471 0.984 . S
H475 N471 0.985 . S
H476 N470 0.984 . S
H477 N470 0.984 . S
H478 N466 0.984 . S
H479 N466 0.985 . S
C480 C481 1.363 . S
C480 C486 1.379 . S
C480 N488 1.356 . S
C481 C480 1.363 . S
C481 C487 1.363 1_554 S
C482 C483 1.363 1_556 S
C482 C487 1.379 . S
C482 N489 1.356 . S
C483 C482 1.363 1_554 S
C483 C486 1.363 . S
N484 C486 1.356 . S
N484 H496 0.984 . S
N484 H497 0.985 . S
N485 C487 1.356 . S
N485 H490 0.984 . S
N485 H491 0.985 . S
C486 C480 1.379 . S
C486 C483 1.363 . S
C486 N484 1.356 . S
C487 C481 1.363 1_556 S
C487 C482 1.379 . S
C487 N485 1.356 . S
N488 C480 1.356 . S
N488 H494 0.984 . S
N488 H495 0.984 . S
N489 C482 1.356 . S
N489 H492 0.984 . S
N489 H493 0.985 . S
H490 N485 0.984 . S
H491 N485 0.985 . S
H492 N489 0.984 . S
H493 N489 0.985 . S
H494 N488 0.984 . S
H495 N488 0.984 . S
H496 N484 0.984 . S
H497 N484 0.985 . S
C498 C499 1.363 . S
C498 C504 1.379 . S
C498 N506 1.356 . S
C499 C498 1.363 . S
C499 C505 1.363 . S
C500 C501 1.363 . S
C500 C505 1.379 . S
C500 N507 1.356 . S
C501 C500 1.363 . S
C501 C504 1.363 . S
N502 C504 1.356 . S
N502 H514 0.984 . S
N502 H515 0.985 . S
N503 C505 1.356 . S
N503 H508 0.984 . S
N503 H509 0.985 . S
C504 C498 1.379 . S
C504 C501 1.363 . S
C504 N502 1.356 . S
C505 C499 1.363 . S
C505 C500 1.379 . S
C505 N503 1.356 . S
N506 C498 1.356 . S
N506 H512 0.984 . S
N506 H513 0.984 . S
N507 C500 1.356 . S
N507 H510 0.984 . S
N507 H511 0.985 . S
H508 N503 0.984 . S
H509 N503 0.985 . S
H510 N507 0.984 . S
H511 N507 0.985 . S
H512 N506 0.984 . S
H513 N506 0.984 . S
H514 N502 0.984 . S
H515 N502 0.985 . S
C516 C517 1.363 . S
C516 C522 1.379 . S
C516 N524 1.356 . S
C517 C516 1.363 . S
C517 C523 1.363 . S
C518 C519 1.363 . S
C518 C523 1.379 . S
C518 N525 1.356 . S
C519 C518 1.363 . S
C519 C522 1.363 . S
N520 C522 1.356 . S
N520 H532 0.984 . S
N520 H533 0.985 . S
N521 C523 1.356 . S
N521 H526 0.984 . S
N521 H527 0.985 . S
C522 C516 1.379 . S
C522 C519 1.363 . S
C522 N520 1.356 . S
C523 C517 1.363 . S
C523 C518 1.379 . S
C523 N521 1.356 . S
N524 C516 1.356 . S
N524 H530 0.984 . S
N524 H531 0.984 . S
N525 C518 1.356 . S
N525 H528 0.984 . S
N525 H529 0.985 . S
H526 N521 0.984 . S
H527 N521 0.985 . S
H528 N525 0.984 . S
H529 N525 0.985 . S
H530 N524 0.984 . S
H531 N524 0.984 . S
H532 N520 0.984 . S
H533 N520 0.985 . S
C534 C535 1.363 . S
C534 C540 1.379 . S
C534 N542 1.356 . S
C535 C534 1.363 . S
C535 C541 1.363 . S
C536 C537 1.363 . S
C536 C541 1.379 . S
C536 N543 1.356 . S
C537 C536 1.363 . S
C537 C540 1.363 . S
N538 C540 1.356 . S
N538 H550 0.984 . S
N538 H551 0.985 . S
N539 C541 1.356 . S
N539 H544 0.984 . S
N539 H545 0.985 . S
C540 C534 1.379 . S
C540 C537 1.363 . S
C540 N538 1.356 . S
C541 C535 1.363 . S
C541 C536 1.379 . S
C541 N539 1.356 . S
N542 C534 1.356 . S
N542 H548 0.984 . S
N542 H549 0.984 . S
N543 C536 1.356 . S
N543 H546 0.984 . S
N543 H547 0.985 . S
H544 N539 0.984 . S
H545 N539 0.985 . S
H546 N543 0.984 . S
H547 N543 0.985 . S
H548 N542 0.984 . S
H549 N542 0.984 . S
H550 N538 0.984 . S
H551 N538 0.985 . S
C552 C553 1.363 . S
C552 C558 1.379 . S
C552 N560 1.356 . S
C553 C552 1.363 . S
C553 C559 1.363 . S
C554 C555 1.363 . S
C554 C559 1.379 . S
C554 N561 1.356 . S
C555 C554 1.363 . S
C555 C558 1.363 . S
N556 C558 1.356 . S
N556 H568 0.984 . S
N556 H569 0.985 . S
N557 C559 1.356 . S
N557 H562 0.984 . S
N557 H563 0.985 . S
C558 C552 1.379 . S
C558 C555 1.363 . S
C558 N556 1.356 . S
C559 C553 1.363 . S
C559 C554 1.379 . S
C559 N557 1.356 . S
N560 C552 1.356 . S
N560 H566 0.984 . S
N560 H567 0.984 . S
N561 C554 1.356 . S
N561 H564 0.984 . S
N561 H565 0.985 . S
H562 N557 0.984 . S
H563 N557 0.985 . S
H564 N561 0.984 . S
H565 N561 0.985 . S
H566 N560 0.984 . S
H567 N560 0.984 . S
H568 N556 0.984 . S
H569 N556 0.985 . S
C570 C571 1.363 . S
C570 C576 1.379 . S
C570 N578 1.356 . S
C571 C570 1.363 . S
C571 C577 1.363 . S
C572 C573 1.363 . S
C572 C577 1.379 . S
C572 N579 1.356 . S
C573 C572 1.363 . S
C573 C576 1.363 . S
N574 C576 1.356 . S
N574 H586 0.984 . S
N574 H587 0.985 . S
N575 C577 1.356 . S
N575 H580 0.984 . S
N575 H581 0.985 . S
C576 C570 1.379 . S
C576 C573 1.363 . S
C576 N574 1.356 . S
C577 C571 1.363 . S
C577 C572 1.379 . S
C577 N575 1.356 . S
N578 C570 1.356 . S
N578 H584 0.984 . S
N578 H585 0.984 . S
N579 C572 1.356 . S
N579 H582 0.984 . S
N579 H583 0.985 . S
H580 N575 0.984 . S
H581 N575 0.985 . S
H582 N579 0.984 . S
H583 N579 0.985 . S
H584 N578 0.984 . S
H585 N578 0.984 . S
H586 N574 0.984 . S
H587 N574 0.985 . S
C588 C589 1.363 . S
C588 C594 1.379 . S
C588 N596 1.356 . S
C589 C588 1.363 . S
C589 C595 1.363 . S
C590 C591 1.363 . S
C590 C595 1.379 . S
C590 N597 1.356 . S
C591 C590 1.363 . S
C591 C594 1.363 . S
N592 C594 1.356 . S
N592 H604 0.984 . S
N592 H605 0.985 . S
N593 C595 1.356 . S
N593 H598 0.984 . S
N593 H599 0.985 . S
C594 C588 1.379 . S
C594 C591 1.363 . S
C594 N592 1.356 . S
C595 C589 1.363 . S
C595 C590 1.379 . S
C595 N593 1.356 . S
N596 C588 1.356 . S
N596 H602 0.984 . S
N596 H603 0.984 . S
N597 C590 1.356 . S
N597 H600 0.984 . S
N597 H601 0.985 . S
H598 N593 0.984 . S
H599 N593 0.985 . S
H600 N597 0.984 . S
H601 N597 0.985 . S
H602 N596 0.984 . S
H603 N596 0.984 . S
H604 N592 0.984 . S
H605 N592 0.985 . S
C606 C607 1.363 . S
C606 C612 1.379 . S
C606 N614 1.356 . S
C607 C606 1.363 . S
C607 C613 1.363 . S
C608 C609 1.363 . S
C608 C613 1.379 . S
C608 N615 1.356 . S
C609 C608 1.363 . S
C609 C612 1.363 . S
N610 C612 1.356 . S
N610 H622 0.984 . S
N610 H623 0.985 . S
N611 C613 1.356 . S
N611 H616 0.984 . S
N611 H617 0.985 . S
C612 C606 1.379 . S
C612 C609 1.363 . S
C612 N610 1.356 . S
C613 C607 1.363 . S
C613 C608 1.379 . S
C613 N611 1.356 . S
N614 C606 1.356 . S
N614 H620 0.984 . S
N614 H621 0.984 . S
N615 C608 1.356 . S
N615 H618 0.984 . S
N615 H619 0.985 . S
H616 N611 0.984 . S
H617 N611 0.985 . S
H618 N615 0.984 . S
H619 N615 0.985 . S
H620 N614 0.984 . S
H621 N614 0.984 . S
H622 N610 0.984 . S
H623 N610 0.985 . S
C624 C625 1.363 . S
C624 C630 1.379 . S
C624 N632 1.356 . S
C625 C624 1.363 . S
C625 C631 1.363 . S
C626 C627 1.363 . S
C626 C631 1.379 . S
C626 N633 1.356 . S
C627 C626 1.363 . S
C627 C630 1.363 . S
N628 C630 1.356 . S
N628 H640 0.984 . S
N628 H641 0.985 . S
N629 C631 1.356 . S
N629 H634 0.984 . S
N629 H635 0.985 . S
C630 C624 1.379 . S
C630 C627 1.363 . S
C630 N628 1.356 . S
C631 C625 1.363 . S
C631 C626 1.379 . S
C631 N629 1.356 . S
N632 C624 1.356 . S
N632 H638 0.984 . S
N632 H639 0.984 . S
N633 C626 1.356 . S
N633 H636 0.984 . S
N633 H637 0.985 . S
H634 N629 0.984 . S
H635 N629 0.985 . S
H636 N633 0.984 . S
H637 N633 0.985 . S
H638 N632 0.984 . S
H639 N632 0.984 . S
H640 N628 0.984 . S
H641 N628 0.985 . S
C642 C643 1.363 1_545 S
C642 C648 1.379 . S
C642 N650 1.356 . S
C643 C642 1.363 1_565 S
C643 C649 1.363 . S
C644 C645 1.363 . S
C644 C649 1.379 . S
C644 N651 1.356 . S
C645 C644 1.363 . S
C645 C648 1.363 1_565 S
N646 C648 1.356 . S
N646 H658 0.984 . S
N646 H659 0.985 . S
N647 C649 1.356 . S
N647 H652 0.984 . S
N647 H653 0.985 . S
C648 C642 1.379 . S
C648 C645 1.363 1_545 S
C648 N646 1.356 . S
C649 C643 1.363 . S
C649 C644 1.379 . S
C649 N647 1.356 . S
N650 C642 1.356 . S
N650 H656 0.984 . S
N650 H657 0.984 . S
N651 C644 1.356 . S
N651 H654 0.984 . S
N651 H655 0.985 . S
H652 N647 0.984 . S
H653 N647 0.985 . S
H654 N651 0.984 . S
H655 N651 0.985 . S
H656 N650 0.984 . S
H657 N650 0.984 . S
H658 N646 0.984 . S
H659 N646 0.985 . S
C660 C661 1.363 . S
C660 C666 1.379 . S
C660 N668 1.356 . S
C661 C660 1.363 . S
C661 C667 1.363 . S
C662 C663 1.363 . S
C662 C667 1.379 . S
C662 N669 1.356 . S
C663 C662 1.363 . S
C663 C666 1.363 . S
N664 C666 1.356 . S
N664 H676 0.984 . S
N664 H677 0.985 . S
N665 C667 1.356 . S
N665 H670 0.984 . S
N665 H671 0.985 . S
C666 C660 1.379 . S
C666 C663 1.363 . S
C666 N664 1.356 . S
C667 C661 1.363 . S
C667 C662 1.379 . S
C667 N665 1.356 . S
N668 C660 1.356 . S
N668 H674 0.984 . S
N668 H675 0.984 . S
N669 C662 1.356 . S
N669 H672 0.984 . S
N669 H673 0.985 . S
H670 N665 0.984 . S
H671 N665 0.985 . S
H672 N669 0.984 . S
H673 N669 0.985 . S
H674 N668 0.984 . S
H675 N668 0.984 . S
H676 N664 0.984 . S
H677 N664 0.985 . S
C678 C679 1.363 . S
C678 C684 1.379 . S
C678 N686 1.356 . S
C679 C678 1.363 . S
C679 C685 1.363 1_545 S
C680 C681 1.363 1_565 S
C680 C685 1.379 . S
C680 N687 1.356 . S
C681 C680 1.363 1_545 S
C681 C684 1.363 . S
N682 C684 1.356 . S
N682 H694 0.984 . S
N682 H695 0.985 . S
N683 C685 1.356 . S
N683 H688 0.984 . S
N683 H689 0.985 . S
C684 C678 1.379 . S
C684 C681 1.363 . S
C684 N682 1.356 . S
C685 C679 1.363 1_565 S
C685 C680 1.379 . S
C685 N683 1.356 . S
N686 C678 1.356 . S
N686 H692 0.984 . S
N686 H693 0.984 . S
N687 C680 1.356 . S
N687 H690 0.984 . S
N687 H691 0.985 . S
H688 N683 0.984 . S
H689 N683 0.985 . S
H690 N687 0.984 . S
H691 N687 0.985 . S
H692 N686 0.984 . S
H693 N686 0.984 . S
H694 N682 0.984 . S
H695 N682 0.985 . S
C696 C697 1.363 . S
C696 C702 1.379 . S
C696 N704 1.356 . S
C697 C696 1.363 . S
C697 C703 1.363 . S
C698 C699 1.363 . S
C698 C703 1.379 . S
C698 N705 1.356 . S
C699 C698 1.363 . S
C699 C702 1.363 . S
N700 C702 1.356 . S
N700 H712 0.984 . S
N700 H713 0.985 . S
N701 C703 1.356 . S
N701 H706 0.984 . S
N701 H707 0.985 . S
C702 C696 1.379 . S
C702 C699 1.363 . S
C702 N700 1.356 . S
C703 C697 1.363 . S
C703 C698 1.379 . S
C703 N701 1.356 . S
N704 C696 1.356 . S
N704 H710 0.984 . S
N704 H711 0.984 . S
N705 C698 1.356 . S
N705 H708 0.984 . S
N705 H709 0.985 . S
H706 N701 0.984 . S
H707 N701 0.985 . S
H708 N705 0.984 . S
H709 N705 0.985 . S
H710 N704 0.984 . S
H711 N704 0.984 . S
H712 N700 0.984 . S
H713 N700 0.985 . S
C714 C715 1.363 1_554 S
C714 C720 1.379 . S
C714 N722 1.356 . S
C715 C714 1.363 1_556 S
C715 C721 1.363 . S
C716 C717 1.363 . S
C716 C721 1.379 . S
C716 N723 1.356 . S
C717 C716 1.363 . S
C717 C720 1.363 1_556 S
N718 C720 1.356 . S
N718 H730 0.984 . S
N718 H731 0.985 . S
N719 C721 1.356 . S
N719 H724 0.984 . S
N719 H725 0.985 . S
C720 C714 1.379 . S
C720 C717 1.363 1_554 S
C720 N718 1.356 . S
C721 C715 1.363 . S
C721 C716 1.379 . S
C721 N719 1.356 . S
N722 C714 1.356 . S
N722 H728 0.984 . S
N722 H729 0.984 . S
N723 C716 1.356 . S
N723 H726 0.984 . S
N723 H727 0.985 . S
H724 N719 0.984 . S
H725 N719 0.985 . S
H726 N723 0.984 . S
H727 N723 0.985 . S
H728 N722 0.984 . S
H729 N722 0.984 . S
H730 N718 0.984 . S
H731 N718 0.985 . S
C732 C733 1.363 1_554 S
C732 C738 1.379 . S
C732 N740 1.356 . S
C733 C732 1.363 1_556 S
C733 C739 1.363 . S
C734 C735 1.363 . S
C734 C739 1.379 . S
C734 N741 1.356 . S
C735 C734 1.363 . S
C735 C738 1.363 1_556 S
N736 C738 1.356 . S
N736 H748 0.984 . S
N736 H749 0.985 . S
N737 C739 1.356 . S
N737 H742 0.984 . S
N737 H743 0.985 . S
C738 C732 1.379 . S
C738 C735 1.363 1_554 S
C738 N736 1.356 . S
C739 C733 1.363 . S
C739 C734 1.379 . S
C739 N737 1.356 . S
N740 C732 1.356 . S
N740 H746 0.984 . S
N740 H747 0.984 . S
N741 C734 1.356 . S
N741 H744 0.984 . S
N741 H745 0.985 . S
H742 N737 0.984 . S
H743 N737 0.985 . S
H744 N741 0.984 . S
H745 N741 0.985 . S
H746 N740 0.984 . S
H747 N740 0.984 . S
H748 N736 0.984 . S
H749 N736 0.985 . S
C750 C751 1.363 . S
C750 C756 1.379 . S
C750 N758 1.356 . S
C751 C750 1.363 . S
C751 C757 1.363 1_554 S
C752 C753 1.363 1_556 S
C752 C757 1.379 . S
C752 N759 1.356 . S
C753 C752 1.363 1_554 S
C753 C756 1.363 . S
N754 C756 1.356 . S
N754 H766 0.984 . S
N754 H767 0.985 . S
N755 C757 1.356 . S
N755 H760 0.984 . S
N755 H761 0.985 . S
C756 C750 1.379 . S
C756 C753 1.363 . S
C756 N754 1.356 . S
C757 C751 1.363 1_556 S
C757 C752 1.379 . S
C757 N755 1.356 . S
N758 C750 1.356 . S
N758 H764 0.984 . S
N758 H765 0.984 . S
N759 C752 1.356 . S
N759 H762 0.984 . S
N759 H763 0.985 . S
H760 N755 0.984 . S
H761 N755 0.985 . S
H762 N759 0.984 . S
H763 N759 0.985 . S
H764 N758 0.984 . S
H765 N758 0.984 . S
H766 N754 0.984 . S
H767 N754 0.985 . S
C768 C769 1.363 1_655 S
C768 C774 1.379 . S
C768 N776 1.356 . S
C769 C768 1.363 1_455 S
C769 C775 1.363 . S
C770 C771 1.363 . S
C770 C775 1.379 . S
C770 N777 1.356 . S
C771 C770 1.363 . S
C771 C774 1.363 1_455 S
N772 C774 1.356 . S
N772 H784 0.984 . S
N772 H785 0.985 . S
N773 C775 1.356 . S
N773 H778 0.984 . S
N773 H779 0.985 . S
C774 C768 1.379 . S
C774 C771 1.363 1_655 S
C774 N772 1.356 . S
C775 C769 1.363 . S
C775 C770 1.379 . S
C775 N773 1.356 . S
N776 C768 1.356 . S
N776 H782 0.984 . S
N776 H783 0.984 . S
N777 C770 1.356 . S
N777 H780 0.984 . S
N777 H781 0.985 . S
H778 N773 0.984 . S
H779 N773 0.985 . S
H780 N777 0.984 . S
H781 N777 0.985 . S
H782 N776 0.984 . S
H783 N776 0.984 . S
H784 N772 0.984 . S
H785 N772 0.985 . S
C786 C787 1.363 . S
C786 C792 1.379 . S
C786 N794 1.356 . S
C787 C786 1.363 . S
C787 C793 1.363 1_655 S
C788 C789 1.363 1_455 S
C788 C793 1.379 . S
C788 N795 1.356 . S
C789 C788 1.363 1_655 S
C789 C792 1.363 . S
N790 C792 1.356 . S
N790 H802 0.984 . S
N790 H803 0.985 . S
N791 C793 1.356 . S
N791 H796 0.984 . S
N791 H797 0.985 . S
C792 C786 1.379 . S
C792 C789 1.363 . S
C792 N790 1.356 . S
C793 C787 1.363 1_455 S
C793 C788 1.379 . S
C793 N791 1.356 . S
N794 C786 1.356 . S
N794 H800 0.984 . S
N794 H801 0.984 . S
N795 C788 1.356 . S
N795 H798 0.984 . S
N795 H799 0.985 . S
H796 N791 0.984 . S
H797 N791 0.985 . S
H798 N795 0.984 . S
H799 N795 0.985 . S
H800 N794 0.984 . S
H801 N794 0.984 . S
H802 N790 0.984 . S
H803 N790 0.985 . S
C804 C805 1.363 . S
C804 C810 1.379 . S
C804 N812 1.356 . S
C805 C804 1.363 . S
C805 C811 1.363 1_455 S
C806 C807 1.363 1_655 S
C806 C811 1.379 . S
C806 N813 1.356 . S
C807 C806 1.363 1_455 S
C807 C810 1.363 . S
N808 C810 1.356 . S
N808 H820 0.984 . S
N808 H821 0.985 . S
N809 C811 1.356 . S
N809 H814 0.984 . S
N809 H815 0.985 . S
C810 C804 1.379 . S
C810 C807 1.363 . S
C810 N808 1.356 . S
C811 C805 1.363 1_655 S
C811 C806 1.379 . S
C811 N809 1.356 . S
N812 C804 1.356 . S
N812 H818 0.984 . S
N812 H819 0.984 . S
N813 C806 1.356 . S
N813 H816 0.984 . S
N813 H817 0.985 . S
H814 N809 0.984 . S
H815 N809 0.985 . S
H816 N813 0.984 . S
H817 N813 0.985 . S
H818 N812 0.984 . S
H819 N812 0.984 . S
H820 N808 0.984 . S
H821 N808 0.985 . S
C822 C823 1.363 . S
C822 C828 1.379 . S
C822 N830 1.356 . S
C823 C822 1.363 . S
C823 C829 1.363 1_655 S
C824 C825 1.363 1_455 S
C824 C829 1.379 . S
C824 N831 1.356 . S
C825 C824 1.363 1_655 S
C825 C828 1.363 . S
N826 C828 1.356 . S
N826 H838 0.984 . S
N826 H839 0.985 . S
N827 C829 1.356 . S
N827 H832 0.984 . S
N827 H833 0.985 . S
C828 C822 1.379 . S
C828 C825 1.363 . S
C828 N826 1.356 . S
C829 C823 1.363 1_455 S
C829 C824 1.379 . S
C829 N827 1.356 . S
N830 C822 1.356 . S
N830 H836 0.984 . S
N830 H837 0.984 . S
N831 C824 1.356 . S
N831 H834 0.984 . S
N831 H835 0.985 . S
H832 N827 0.984 . S
H833 N827 0.985 . S
H834 N831 0.984 . S
H835 N831 0.985 . S
H836 N830 0.984 . S
H837 N830 0.984 . S
H838 N826 0.984 . S
H839 N826 0.985 . S
C840 C841 1.363 . S
C840 C846 1.379 . S
C840 N848 1.356 . S
C841 C840 1.363 . S
C841 C847 1.363 1_545 S
C842 C843 1.363 1_565 S
C842 C847 1.379 . S
C842 N849 1.356 . S
C843 C842 1.363 1_545 S
C843 C846 1.363 . S
N844 C846 1.356 . S
N844 H856 0.984 . S
N844 H857 0.985 . S
N845 C847 1.356 . S
N845 H850 0.984 . S
N845 H851 0.985 . S
C846 C840 1.379 . S
C846 C843 1.363 . S
C846 N844 1.356 . S
C847 C841 1.363 1_565 S
C847 C842 1.379 . S
C847 N845 1.356 . S
N848 C840 1.356 . S
N848 H854 0.984 . S
N848 H855 0.984 . S
N849 C842 1.356 . S
N849 H852 0.984 . S
N849 H853 0.985 . S
H850 N845 0.984 . S
H851 N845 0.985 . S
H852 N849 0.984 . S
H853 N849 0.985 . S
H854 N848 0.984 . S
H855 N848 0.984 . S
H856 N844 0.984 . S
H857 N844 0.985 . S
C858 C859 1.363 . S
C858 C864 1.379 . S
C858 N866 1.356 . S
C859 C858 1.363 . S
C859 C865 1.363 . S
C860 C861 1.363 . S
C860 C865 1.379 . S
C860 N867 1.356 . S
C861 C860 1.363 . S
C861 C864 1.363 . S
N862 C864 1.356 . S
N862 H874 0.984 . S
N862 H875 0.985 . S
N863 C865 1.356 . S
N863 H868 0.984 . S
N863 H869 0.985 . S
C864 C858 1.379 . S
C864 C861 1.363 . S
C864 N862 1.356 . S
C865 C859 1.363 . S
C865 C860 1.379 . S
C865 N863 1.356 . S
N866 C858 1.356 . S
N866 H872 0.984 . S
N866 H873 0.984 . S
N867 C860 1.356 . S
N867 H870 0.984 . S
N867 H871 0.985 . S
H868 N863 0.984 . S
H869 N863 0.985 . S
H870 N867 0.984 . S
H871 N867 0.985 . S
H872 N866 0.984 . S
H873 N866 0.984 . S
H874 N862 0.984 . S
H875 N862 0.985 . S
C876 C877 1.363 1_545 S
C876 C882 1.379 . S
C876 N884 1.356 . S
C877 C876 1.363 1_565 S
C877 C883 1.363 . S
C878 C879 1.363 . S
C878 C883 1.379 . S
C878 N885 1.356 . S
C879 C878 1.363 . S
C879 C882 1.363 1_565 S
N880 C882 1.356 . S
N880 H892 0.984 . S
N880 H893 0.985 . S
N881 C883 1.356 . S
N881 H886 0.984 . S
N881 H887 0.985 . S
C882 C876 1.379 . S
C882 C879 1.363 1_545 S
C882 N880 1.356 . S
C883 C877 1.363 . S
C883 C878 1.379 . S
C883 N881 1.356 . S
N884 C876 1.356 . S
N884 H890 0.984 . S
N884 H891 0.984 . S
N885 C878 1.356 . S
N885 H888 0.984 . S
N885 H889 0.985 . S
H886 N881 0.984 . S
H887 N881 0.985 . S
H888 N885 0.984 . S
H889 N885 0.985 . S
H890 N884 0.984 . S
H891 N884 0.984 . S
H892 N880 0.984 . S
H893 N880 0.985 . S
C894 C895 1.363 . S
C894 C900 1.379 . S
C894 N902 1.356 . S
C895 C894 1.363 . S
C895 C901 1.363 . S
C896 C897 1.363 . S
C896 C901 1.379 . S
C896 N903 1.356 . S
C897 C896 1.363 . S
C897 C900 1.363 . S
N898 C900 1.356 . S
N898 H910 0.984 . S
N898 H911 0.985 . S
N899 C901 1.356 . S
N899 H904 0.984 . S
N899 H905 0.985 . S
C900 C894 1.379 . S
C900 C897 1.363 . S
C900 N898 1.356 . S
C901 C895 1.363 . S
C901 C896 1.379 . S
C901 N899 1.356 . S
N902 C894 1.356 . S
N902 H908 0.984 . S
N902 H909 0.984 . S
N903 C896 1.356 . S
N903 H906 0.984 . S
N903 H907 0.985 . S
H904 N899 0.984 . S
H905 N899 0.985 . S
H906 N903 0.984 . S
H907 N903 0.985 . S
H908 N902 0.984 . S
H909 N902 0.984 . S
H910 N898 0.984 . S
H911 N898 0.985 . S
C912 C913 1.363 1_556 S
C912 C918 1.379 . S
C912 N920 1.356 . S
C913 C912 1.363 1_554 S
C913 C919 1.363 . S
C914 C915 1.363 . S
C914 C919 1.379 . S
C914 N921 1.356 . S
C915 C914 1.363 . S
C915 C918 1.363 1_554 S
N916 C918 1.356 . S
N916 H928 0.984 . S
N916 H929 0.985 . S
N917 C919 1.356 . S
N917 H922 0.984 . S
N917 H923 0.985 . S
C918 C912 1.379 . S
C918 C915 1.363 1_556 S
C918 N916 1.356 . S
C919 C913 1.363 . S
C919 C914 1.379 . S
C919 N917 1.356 . S
N920 C912 1.356 . S
N920 H926 0.984 . S
N920 H927 0.984 . S
N921 C914 1.356 . S
N921 H924 0.984 . S
N921 H925 0.985 . S
H922 N917 0.984 . S
H923 N917 0.985 . S
H924 N921 0.984 . S
H925 N921 0.985 . S
H926 N920 0.984 . S
H927 N920 0.984 . S
H928 N916 0.984 . S
H929 N916 0.985 . S
C930 C931 1.363 . S
C930 C936 1.379 . S
C930 N938 1.356 . S
C931 C930 1.363 . S
C931 C937 1.363 . S
C932 C933 1.363 . S
C932 C937 1.379 . S
C932 N939 1.356 . S
C933 C932 1.363 . S
C933 C936 1.363 . S
N934 C936 1.356 . S
N934 H946 0.984 . S
N934 H947 0.985 . S
N935 C937 1.356 . S
N935 H940 0.984 . S
N935 H941 0.985 . S
C936 C930 1.379 . S
C936 C933 1.363 . S
C936 N934 1.356 . S
C937 C931 1.363 . S
C937 C932 1.379 . S
C937 N935 1.356 . S
N938 C930 1.356 . S
N938 H944 0.984 . S
N938 H945 0.984 . S
N939 C932 1.356 . S
N939 H942 0.984 . S
N939 H943 0.985 . S
H940 N935 0.984 . S
H941 N935 0.985 . S
H942 N939 0.984 . S
H943 N939 0.985 . S
H944 N938 0.984 . S
H945 N938 0.984 . S
H946 N934 0.984 . S
H947 N934 0.985 . S
C948 C949 1.363 . S
C948 C954 1.379 . S
C948 N956 1.356 . S
C949 C948 1.363 . S
C949 C955 1.363 . S
C950 C951 1.363 . S
C950 C955 1.379 . S
C950 N957 1.356 . S
C951 C950 1.363 . S
C951 C954 1.363 . S
N952 C954 1.356 . S
N952 H964 0.984 . S
N952 H965 0.985 . S
N953 C955 1.356 . S
N953 H958 0.984 . S
N953 H959 0.985 . S
C954 C948 1.379 . S
C954 C951 1.363 . S
C954 N952 1.356 . S
C955 C949 1.363 . S
C955 C950 1.379 . S
C955 N953 1.356 . S
N956 C948 1.356 . S
N956 H962 0.984 . S
N956 H963 0.984 . S
N957 C950 1.356 . S
N957 H960 0.984 . S
N957 H961 0.985 . S
H958 N953 0.984 . S
H959 N953 0.985 . S
H960 N957 0.984 . S
H961 N957 0.985 . S
H962 N956 0.984 . S
H963 N956 0.984 . S
H964 N952 0.984 . S
H965 N952 0.985 . S
C966 C967 1.363 . S
C966 C972 1.379 . S
C966 N974 1.356 . S
C967 C966 1.363 . S
C967 C973 1.363 . S
C968 C969 1.363 . S
C968 C973 1.379 . S
C968 N975 1.356 . S
C969 C968 1.363 . S
C969 C972 1.363 . S
N970 C972 1.356 . S
N970 H982 0.984 . S
N970 H983 0.985 . S
N971 C973 1.356 . S
N971 H976 0.984 . S
N971 H977 0.985 . S
C972 C966 1.379 . S
C972 C969 1.363 . S
C972 N970 1.356 . S
C973 C967 1.363 . S
C973 C968 1.379 . S
C973 N971 1.356 . S
N974 C966 1.356 . S
N974 H980 0.984 . S
N974 H981 0.984 . S
N975 C968 1.356 . S
N975 H978 0.984 . S
N975 H979 0.985 . S
H976 N971 0.984 . S
H977 N971 0.985 . S
H978 N975 0.984 . S
H979 N975 0.985 . S
H980 N974 0.984 . S
H981 N974 0.984 . S
H982 N970 0.984 . S
H983 N970 0.985 . S
C984 C985 1.363 . S
C984 C990 1.379 . S
C984 N992 1.356 . S
C985 C984 1.363 . S
C985 C991 1.363 . S
C986 C987 1.363 . S
C986 C991 1.379 . S
C986 N993 1.356 . S
C987 C986 1.363 . S
C987 C990 1.363 . S
N988 C990 1.356 . S
N988 H1000 0.984 . S
N988 H1001 0.985 . S
N989 C991 1.356 . S
N989 H994 0.984 . S
N989 H995 0.985 . S
C990 C984 1.379 . S
C990 C987 1.363 . S
C990 N988 1.356 . S
C991 C985 1.363 . S
C991 C986 1.379 . S
C991 N989 1.356 . S
N992 C984 1.356 . S
N992 H998 0.984 . S
N992 H999 0.984 . S
N993 C986 1.356 . S
N993 H996 0.984 . S
N993 H997 0.985 . S
H994 N989 0.984 . S
H995 N989 0.985 . S
H996 N993 0.984 . S
H997 N993 0.985 . S
H998 N992 0.984 . S
H999 N992 0.984 . S
H1000 N988 0.984 . S
H1001 N988 0.985 . S
C1002 C1003 1.363 . S
C1002 C1008 1.379 . S
C1002 N1010 1.356 . S
C1003 C1002 1.363 . S
C1003 C1009 1.363 . S
C1004 C1005 1.363 . S
C1004 C1009 1.379 . S
C1004 N1011 1.356 . S
C1005 C1004 1.363 . S
C1005 C1008 1.363 . S
N1006 C1008 1.356 . S
N1006 H1018 0.984 . S
N1006 H1019 0.985 . S
N1007 C1009 1.356 . S
N1007 H1012 0.984 . S
N1007 H1013 0.985 . S
C1008 C1002 1.379 . S
C1008 C1005 1.363 . S
C1008 N1006 1.356 . S
C1009 C1003 1.363 . S
C1009 C1004 1.379 . S
C1009 N1007 1.356 . S
N1010 C1002 1.356 . S
N1010 H1016 0.984 . S
N1010 H1017 0.984 . S
N1011 C1004 1.356 . S
N1011 H1014 0.984 . S
N1011 H1015 0.985 . S
H1012 N1007 0.984 . S
H1013 N1007 0.985 . S
H1014 N1011 0.984 . S
H1015 N1011 0.985 . S
H1016 N1010 0.984 . S
H1017 N1010 0.984 . S
H1018 N1006 0.984 . S
H1019 N1006 0.985 . S
C1020 C1021 1.363 . S
C1020 C1026 1.379 . S
C1020 N1028 1.356 . S
C1021 C1020 1.363 . S
C1021 C1027 1.363 . S
C1022 C1023 1.363 . S
C1022 C1027 1.379 . S
C1022 N1029 1.356 . S
C1023 C1022 1.363 . S
C1023 C1026 1.363 . S
N1024 C1026 1.356 . S
N1024 H1036 0.984 . S
N1024 H1037 0.985 . S
N1025 C1027 1.356 . S
N1025 H1030 0.984 . S
N1025 H1031 0.985 . S
C1026 C1020 1.379 . S
C1026 C1023 1.363 . S
C1026 N1024 1.356 . S
C1027 C1021 1.363 . S
C1027 C1022 1.379 . S
C1027 N1025 1.356 . S
N1028 C1020 1.356 . S
N1028 H1034 0.984 . S
N1028 H1035 0.984 . S
N1029 C1022 1.356 . S
N1029 H1032 0.984 . S
N1029 H1033 0.985 . S
H1030 N1025 0.984 . S
H1031 N1025 0.985 . S
H1032 N1029 0.984 . S
H1033 N1029 0.985 . S
H1034 N1028 0.984 . S
H1035 N1028 0.984 . S
H1036 N1024 0.984 . S
H1037 N1024 0.985 . S
C1038 C1039 1.363 . S
C1038 C1044 1.379 . S
C1038 N1046 1.356 . S
C1039 C1038 1.363 . S
C1039 C1045 1.363 . S
C1040 C1041 1.363 . S
C1040 C1045 1.379 . S
C1040 N1047 1.356 . S
C1041 C1040 1.363 . S
C1041 C1044 1.363 . S
N1042 C1044 1.356 . S
N1042 H1054 0.984 . S
N1042 H1055 0.985 . S
N1043 C1045 1.356 . S
N1043 H1048 0.984 . S
N1043 H1049 0.985 . S
C1044 C1038 1.379 . S
C1044 C1041 1.363 . S
C1044 N1042 1.356 . S
C1045 C1039 1.363 . S
C1045 C1040 1.379 . S
C1045 N1043 1.356 . S
N1046 C1038 1.356 . S
N1046 H1052 0.984 . S
N1046 H1053 0.984 . S
N1047 C1040 1.356 . S
N1047 H1050 0.984 . S
N1047 H1051 0.985 . S
H1048 N1043 0.984 . S
H1049 N1043 0.985 . S
H1050 N1047 0.984 . S
H1051 N1047 0.985 . S
H1052 N1046 0.984 . S
H1053 N1046 0.984 . S
H1054 N1042 0.984 . S
H1055 N1042 0.985 . S
C1056 C1057 1.363 . S
C1056 C1062 1.379 . S
C1056 N1064 1.356 . S
C1057 C1056 1.363 . S
C1057 C1063 1.363 . S
C1058 C1059 1.363 . S
C1058 C1063 1.379 . S
C1058 N1065 1.356 . S
C1059 C1058 1.363 . S
C1059 C1062 1.363 . S
N1060 C1062 1.356 . S
N1060 H1072 0.984 . S
N1060 H1073 0.985 . S
N1061 C1063 1.356 . S
N1061 H1066 0.984 . S
N1061 H1067 0.985 . S
C1062 C1056 1.379 . S
C1062 C1059 1.363 . S
C1062 N1060 1.356 . S
C1063 C1057 1.363 . S
C1063 C1058 1.379 . S
C1063 N1061 1.356 . S
N1064 C1056 1.356 . S
N1064 H1070 0.984 . S
N1064 H1071 0.984 . S
N1065 C1058 1.356 . S
N1065 H1068 0.984 . S
N1065 H1069 0.985 . S
H1066 N1061 0.984 . S
H1067 N1061 0.985 . S
H1068 N1065 0.984 . S
H1069 N1065 0.985 . S
H1070 N1064 0.984 . S
H1071 N1064 0.984 . S
H1072 N1060 0.984 . S
H1073 N1060 0.985 . S
C1074 C1075 1.363 . S
C1074 C1080 1.379 . S
C1074 N1082 1.356 . S
C1075 C1074 1.363 . S
C1075 C1081 1.363 1_565 S
C1076 C1077 1.363 1_545 S
C1076 C1081 1.379 . S
C1076 N1083 1.356 . S
C1077 C1076 1.363 1_565 S
C1077 C1080 1.363 . S
N1078 C1080 1.356 . S
N1078 H1090 0.984 . S
N1078 H1091 0.985 . S
N1079 C1081 1.356 . S
N1079 H1084 0.984 . S
N1079 H1085 0.985 . S
C1080 C1074 1.379 . S
C1080 C1077 1.363 . S
C1080 N1078 1.356 . S
C1081 C1075 1.363 1_545 S
C1081 C1076 1.379 . S
C1081 N1079 1.356 . S
N1082 C1074 1.356 . S
N1082 H1088 0.984 . S
N1082 H1089 0.984 . S
N1083 C1076 1.356 . S
N1083 H1086 0.984 . S
N1083 H1087 0.985 . S
H1084 N1079 0.984 . S
H1085 N1079 0.985 . S
H1086 N1083 0.984 . S
H1087 N1083 0.985 . S
H1088 N1082 0.984 . S
H1089 N1082 0.984 . S
H1090 N1078 0.984 . S
H1091 N1078 0.985 . S
C1092 C1093 1.363 . S
C1092 C1098 1.379 . S
C1092 N1100 1.356 . S
C1093 C1092 1.363 . S
C1093 C1099 1.363 . S
C1094 C1095 1.363 . S
C1094 C1099 1.379 . S
C1094 N1101 1.356 . S
C1095 C1094 1.363 . S
C1095 C1098 1.363 . S
N1096 C1098 1.356 . S
N1096 H1108 0.984 . S
N1096 H1109 0.985 . S
N1097 C1099 1.356 . S
N1097 H1102 0.984 . S
N1097 H1103 0.985 . S
C1098 C1092 1.379 . S
C1098 C1095 1.363 . S
C1098 N1096 1.356 . S
C1099 C1093 1.363 . S
C1099 C1094 1.379 . S
C1099 N1097 1.356 . S
N1100 C1092 1.356 . S
N1100 H1106 0.984 . S
N1100 H1107 0.984 . S
N1101 C1094 1.356 . S
N1101 H1104 0.984 . S
N1101 H1105 0.985 . S
H1102 N1097 0.984 . S
H1103 N1097 0.985 . S
H1104 N1101 0.984 . S
H1105 N1101 0.985 . S
H1106 N1100 0.984 . S
H1107 N1100 0.984 . S
H1108 N1096 0.984 . S
H1109 N1096 0.985 . S
C1110 C1111 1.363 . S
C1110 C1116 1.379 . S
C1110 N1118 1.356 . S
C1111 C1110 1.363 . S
C1111 C1117 1.363 1_545 S
C1112 C1113 1.363 1_565 S
C1112 C1117 1.379 . S
C1112 N1119 1.356 . S
C1113 C1112 1.363 1_545 S
C1113 C1116 1.363 . S
N1114 C1116 1.356 . S
N1114 H1126 0.984 . S
N1114 H1127 0.985 . S
N1115 C1117 1.356 . S
N1115 H1120 0.984 . S
N1115 H1121 0.985 . S
C1116 C1110 1.379 . S
C1116 C1113 1.363 . S
C1116 N1114 1.356 . S
C1117 C1111 1.363 1_565 S
C1117 C1112 1.379 . S
C1117 N1115 1.356 . S
N1118 C1110 1.356 . S
N1118 H1124 0.984 . S
N1118 H1125 0.984 . S
N1119 C1112 1.356 . S
N1119 H1122 0.984 . S
N1119 H1123 0.985 . S
H1120 N1115 0.984 . S
H1121 N1115 0.985 . S
H1122 N1119 0.984 . S
H1123 N1119 0.985 . S
H1124 N1118 0.984 . S
H1125 N1118 0.984 . S
H1126 N1114 0.984 . S
H1127 N1114 0.985 . S
C1128 C1129 1.363 . S
C1128 C1134 1.379 . S
C1128 N1136 1.356 . S
C1129 C1128 1.363 . S
C1129 C1135 1.363 . S
C1130 C1131 1.363 . S
C1130 C1135 1.379 . S
C1130 N1137 1.356 . S
C1131 C1130 1.363 . S
C1131 C1134 1.363 . S
N1132 C1134 1.356 . S
N1132 H1144 0.984 . S
N1132 H1145 0.985 . S
N1133 C1135 1.356 . S
N1133 H1138 0.984 . S
N1133 H1139 0.985 . S
C1134 C1128 1.379 . S
C1134 C1131 1.363 . S
C1134 N1132 1.356 . S
C1135 C1129 1.363 . S
C1135 C1130 1.379 . S
C1135 N1133 1.356 . S
N1136 C1128 1.356 . S
N1136 H1142 0.984 . S
N1136 H1143 0.984 . S
N1137 C1130 1.356 . S
N1137 H1140 0.984 . S
N1137 H1141 0.985 . S
H1138 N1133 0.984 . S
H1139 N1133 0.985 . S
H1140 N1137 0.984 . S
H1141 N1137 0.985 . S
H1142 N1136 0.984 . S
H1143 N1136 0.984 . S
H1144 N1132 0.984 . S
H1145 N1132 0.985 . S
C1146 C1147 1.363 1_554 S
C1146 C1152 1.379 . S
C1146 N1154 1.356 . S
C1147 C1146 1.363 1_556 S
C1147 C1153 1.363 . S
C1148 C1149 1.363 . S
C1148 C1153 1.379 . S
C1148 N1155 1.356 . S
C1149 C1148 1.363 . S
C1149 C1152 1.363 1_556 S
N1150 C1152 1.356 . S
N1150 H1162 0.984 . S
N1150 H1163 0.985 . S
N1151 C1153 1.356 . S
N1151 H1156 0.984 . S
N1151 H1157 0.985 . S
C1152 C1146 1.379 . S
C1152 C1149 1.363 1_554 S
C1152 N1150 1.356 . S
C1153 C1147 1.363 . S
C1153 C1148 1.379 . S
C1153 N1151 1.356 . S
N1154 C1146 1.356 . S
N1154 H1160 0.984 . S
N1154 H1161 0.984 . S
N1155 C1148 1.356 . S
N1155 H1158 0.984 . S
N1155 H1159 0.985 . S
H1156 N1151 0.984 . S
H1157 N1151 0.985 . S
H1158 N1155 0.984 . S
H1159 N1155 0.985 . S
H1160 N1154 0.984 . S
H1161 N1154 0.984 . S
H1162 N1150 0.984 . S
H1163 N1150 0.985 . S
C1164 C1165 1.363 1_554 S
C1164 C1170 1.379 . S
C1164 N1172 1.356 . S
C1165 C1164 1.363 1_556 S
C1165 C1171 1.363 . S
C1166 C1167 1.363 . S
C1166 C1171 1.379 . S
C1166 N1173 1.356 . S
C1167 C1166 1.363 . S
C1167 C1170 1.363 1_556 S
N1168 C1170 1.356 . S
N1168 H1180 0.984 . S
N1168 H1181 0.985 . S
N1169 C1171 1.356 . S
N1169 H1174 0.984 . S
N1169 H1175 0.985 . S
C1170 C1164 1.379 . S
C1170 C1167 1.363 1_554 S
C1170 N1168 1.356 . S
C1171 C1165 1.363 . S
C1171 C1166 1.379 . S
C1171 N1169 1.356 . S
N1172 C1164 1.356 . S
N1172 H1178 0.984 . S
N1172 H1179 0.984 . S
N1173 C1166 1.356 . S
N1173 H1176 0.984 . S
N1173 H1177 0.985 . S
H1174 N1169 0.984 . S
H1175 N1169 0.985 . S
H1176 N1173 0.984 . S
H1177 N1173 0.985 . S
H1178 N1172 0.984 . S
H1179 N1172 0.984 . S
H1180 N1168 0.984 . S
H1181 N1168 0.985 . S
C1182 C1183 1.363 1_556 S
C1182 C1188 1.379 . S
C1182 N1190 1.356 . S
C1183 C1182 1.363 1_554 S
C1183 C1189 1.363 . S
C1184 C1185 1.363 . S
C1184 C1189 1.379 . S
C1184 N1191 1.356 . S
C1185 C1184 1.363 . S
C1185 C1188 1.363 1_554 S
N1186 C1188 1.356 . S
N1186 H1198 0.984 . S
N1186 H1199 0.985 . S
N1187 C1189 1.356 . S
N1187 H1192 0.984 . S
N1187 H1193 0.985 . S
C1188 C1182 1.379 . S
C1188 C1185 1.363 1_556 S
C1188 N1186 1.356 . S
C1189 C1183 1.363 . S
C1189 C1184 1.379 . S
C1189 N1187 1.356 . S
N1190 C1182 1.356 . S
N1190 H1196 0.984 . S
N1190 H1197 0.984 . S
N1191 C1184 1.356 . S
N1191 H1194 0.984 . S
N1191 H1195 0.985 . S
H1192 N1187 0.984 . S
H1193 N1187 0.985 . S
H1194 N1191 0.984 . S
H1195 N1191 0.985 . S
H1196 N1190 0.984 . S
H1197 N1190 0.984 . S
H1198 N1186 0.984 . S
H1199 N1186 0.985 . S
C337 C13 1.609 . S
C339 C229 1.561 . S
C357 C234 1.574 . S
C355 C1 1.620 . S
C375 C172 1.558 . S
C373 C27 1.615 . S
C391 C15 1.582 . S
C393 C196 1.529 . S
C409 C28 1.597 . S
C411 C334 1.552 . S
C427 C55 1.592 . S
C429 C301 1.541 . S
C447 C255 1.573 . S
C445 C40 1.621 . S
C463 C43 1.635 . S
C465 C289 1.583 . S
C483 C208 1.575 . S
C481 C56 1.623 . S
C501 C235 1.534 . S
C499 C83 1.585 . S
C517 C96 1.614 . S
C519 C226 1.567 . S
C535 C71 1.616 . S
C537 C292 1.563 . S
C555 C313 1.561 . S
C553 C99 1.609 . S
C573 C331 1.574 . S
C571 C111 1.620 . S
C589 C113 1.615 . S
C591 C280 1.558 . S
C609 C256 1.529 . S
C607 C125 1.582 . S
C625 C139 1.598 . S
C627 C251 1.552 . S
C643 C153 1.592 . S
C645 C217 1.541 . S
C663 C205 1.573 . S
C661 C127 1.622 . S
C679 C141 1.635 . S
C681 C171 1.583 . S
C699 C272 1.575 . S
C697 C84 1.623 . S
C717 C322 1.534 . S
C715 C154 1.584 . S
C733 C68 1.614 . S
C735 C310 1.567 . S
C751 C166 1.616 . S
C753 C188 1.564 . S
C771 C187 1.142 . S
C769 C0 1.373 . S
C787 C12 1.363 . S
C789 C209 1.138 . S
C807 C214 1.137 . S
C805 C14 1.371 . S
C825 C247 1.173 . S
C823 C26 1.398 . S
C841 C41 1.396 . S
C843 C184 1.168 . S
C859 C42 1.406 . S
C861 C192 1.174 . S
C879 C230 1.140 . S
C877 C29 1.362 . S
C895 C54 1.362 . S
C897 C238 1.134 . S
C913 C69 1.370 . S
C915 C175 1.132 . S
C933 C213 1.169 . S
C931 C70 1.397 . S
C949 C85 1.362 . S
C951 C250 1.140 . S
C967 C82 1.363 . S
C969 C259 1.133 . S
C987 C293 1.142 . S
C985 C110 1.373 . S
C1003 C98 1.363 . S
C1005 C271 1.138 . S
C1021 C124 1.372 . S
C1023 C298 1.137 . S
C1039 C112 1.398 . S
C1041 C318 1.173 . S
C1057 C126 1.397 . S
C1059 C276 1.168 . S
C1077 C268 1.174 . S
C1075 C140 1.406 . S
C1093 C138 1.363 . S
C1095 C314 1.140 . S
C1113 C319 1.134 . S
C1111 C152 1.362 . S
C1131 C277 1.132 . S
C1129 C97 1.370 . S
C1149 C297 1.169 . S
C1147 C167 1.397 . S
C1167 C335 1.140 . S
C1165 C57 1.362 . S
C1183 C155 1.362 . S
C1185 C193 1.133 . S
