# Generated by pormake.
# Topology wbl, (4,4)-cn, num edge types: 1
# Building blocks:
#     Node 0, Type 0, BuildingBlock: MUDLON_clean_sbu_0, # of connection points: 4
#     Node 1, Type 0, BuildingBlock: MUDLON_clean_sbu_0, # of connection points: 4
#     Node 2, Type 0, BuildingBlock: MUDLON_clean_sbu_0, # of connection points: 4
#     Node 3, Type 0, BuildingBlock: MUDLON_clean_sbu_0, # of connection points: 4
#     Node 4, Type 0, BuildingBlock: MUDLON_clean_sbu_0, # of connection points: 4
#     Node 5, Type 0, BuildingBlock: MUDLON_clean_sbu_0, # of connection points: 4
#     Node 6, Type 0, BuildingBlock: MUDLON_clean_sbu_0, # of connection points: 4
#     Node 7, Type 0, BuildingBlock: MUDLON_clean_sbu_0, # of connection points: 4
#     Node 8, Type 1, BuildingBlock: TATPOV_clean_sbu_0, # of connection points: 4
#     Node 9, Type 1, BuildingBlock: TATPOV_clean_sbu_0, # of connection points: 4
#     Node 10, Type 1, BuildingBlock: TATPOV_clean_sbu_0, # of connection points: 4
#     Node 11, Type 1, BuildingBlock: TATPOV_clean_sbu_0, # of connection points: 4
#     Node 12, Type 1, BuildingBlock: TATPOV_clean_sbu_0, # of connection points: 4
#     Node 13, Type 1, BuildingBlock: TATPOV_clean_sbu_0, # of connection points: 4
#     Node 14, Type 1, BuildingBlock: TATPOV_clean_sbu_0, # of connection points: 4
#     Node 15, Type 1, BuildingBlock: TATPOV_clean_sbu_0, # of connection points: 4
#     Edge 16, Type (0, 1), BuildingBlock: EYOCIG_clean_linker_4, # of connection points: 2
#     Edge 17, Type (0, 1), BuildingBlock: EYOCIG_clean_linker_4, # of connection points: 2
#     Edge 18, Type (0, 1), BuildingBlock: EYOCIG_clean_linker_4, # of connection points: 2
#     Edge 19, Type (0, 1), BuildingBlock: EYOCIG_clean_linker_4, # of connection points: 2
#     Edge 20, Type (0, 1), BuildingBlock: EYOCIG_clean_linker_4, # of connection points: 2
#     Edge 21, Type (0, 1), BuildingBlock: EYOCIG_clean_linker_4, # of connection points: 2
#     Edge 22, Type (0, 1), BuildingBlock: EYOCIG_clean_linker_4, # of connection points: 2
#     Edge 23, Type (0, 1), BuildingBlock: EYOCIG_clean_linker_4, # of connection points: 2
#     Edge 24, Type (0, 1), BuildingBlock: EYOCIG_clean_linker_4, # of connection points: 2
#     Edge 25, Type (0, 1), BuildingBlock: EYOCIG_clean_linker_4, # of connection points: 2
#     Edge 26, Type (0, 1), BuildingBlock: EYOCIG_clean_linker_4, # of connection points: 2
#     Edge 27, Type (0, 1), BuildingBlock: EYOCIG_clean_linker_4, # of connection points: 2
#     Edge 28, Type (0, 1), BuildingBlock: EYOCIG_clean_linker_4, # of connection points: 2
#     Edge 29, Type (0, 1), BuildingBlock: EYOCIG_clean_linker_4, # of connection points: 2
#     Edge 30, Type (0, 1), BuildingBlock: EYOCIG_clean_linker_4, # of connection points: 2
#     Edge 31, Type (0, 1), BuildingBlock: EYOCIG_clean_linker_4, # of connection points: 2
#     Edge 32, Type (0, 1), BuildingBlock: EYOCIG_clean_linker_4, # of connection points: 2
#     Edge 33, Type (0, 1), BuildingBlock: EYOCIG_clean_linker_4, # of connection points: 2
#     Edge 34, Type (0, 1), BuildingBlock: EYOCIG_clean_linker_4, # of connection points: 2
#     Edge 35, Type (0, 1), BuildingBlock: EYOCIG_clean_linker_4, # of connection points: 2
#     Edge 36, Type (0, 1), BuildingBlock: EYOCIG_clean_linker_4, # of connection points: 2
#     Edge 37, Type (0, 1), BuildingBlock: EYOCIG_clean_linker_4, # of connection points: 2
#     Edge 38, Type (0, 1), BuildingBlock: EYOCIG_clean_linker_4, # of connection points: 2
#     Edge 39, Type (0, 1), BuildingBlock: EYOCIG_clean_linker_4, # of connection points: 2
#     Edge 40, Type (0, 1), BuildingBlock: EYOCIG_clean_linker_4, # of connection points: 2
#     Edge 41, Type (0, 1), BuildingBlock: EYOCIG_clean_linker_4, # of connection points: 2
#     Edge 42, Type (0, 1), BuildingBlock: EYOCIG_clean_linker_4, # of connection points: 2
#     Edge 43, Type (0, 1), BuildingBlock: EYOCIG_clean_linker_4, # of connection points: 2
#     Edge 44, Type (0, 1), BuildingBlock: EYOCIG_clean_linker_4, # of connection points: 2
#     Edge 45, Type (0, 1), BuildingBlock: EYOCIG_clean_linker_4, # of connection points: 2
#     Edge 46, Type (0, 1), BuildingBlock: EYOCIG_clean_linker_4, # of connection points: 2
#     Edge 47, Type (0, 1), BuildingBlock: EYOCIG_clean_linker_4, # of connection points: 2
# Relax obj value: 0.244
# Max RMSD: 0.234
# Mean RMSD: 0.173
data_MOF--net-wbl--node1-MUDLON_clean_sbu_0--node2-TATPOV_clean_sbu_0--edge1-EYOCIG_clean_linker_4
_symmetry_space_group_name_H-M    P1
_symmetry_Int_Tables_number       1
_symmetry_cell_setting            triclinic
loop_
_symmetry_equiv_pos_as_xyz
'x, y, z'
_cell_length_a     28.109664
_cell_length_b     28.155919
_cell_length_c     59.078522
_cell_angle_alpha  91.463866
_cell_angle_beta   91.462041
_cell_angle_gamma 89.8476
loop_
_atom_site_label
_atom_site_type_symbol
_atom_site_fract_x
_atom_site_fract_y
_atom_site_fract_z
_atom_type_partial_charge
Mg0 Mg 0.20741 0.13071 0.35052 0.0
C1 C 0.2306 0.07279 0.39089 0.0
O2 O 0.19222 0.05113 0.38302 0.0
C3 C 0.12288 0.13986 0.31859 0.0
O4 O 0.11046 0.10087 0.32857 0.0
C5 C 0.2444 0.0537 0.32232 0.0
O6 O 0.205 0.03668 0.33032 0.0
O7 O 0.25667 0.09607 0.32761 0.0
O8 O 0.24691 0.1077 0.38045 0.0
O9 O 0.17169 0.1802 0.37319 0.0
C10 C 0.13411 0.1659 0.38243 0.0
O11 O 0.1184 0.12265 0.37817 0.0
O12 O 0.16238 0.15933 0.3238 0.0
Mg13 Mg 0.0065 0.677 0.5947 0.0
C14 C 0.06546 0.70236 0.63734 0.0
O15 O 0.08656 0.66243 0.6317 0.0
C16 C 0.0028 0.58704 0.56417 0.0
O17 O 0.04075 0.57631 0.57636 0.0
C18 C 0.08811 0.71044 0.57064 0.0
O19 O 0.10304 0.67209 0.58078 0.0
O20 O 0.04505 0.72353 0.57268 0.0
O21 O 0.03175 0.71791 0.62489 0.0
O22 O 0.95691 0.64517 0.61745 0.0
C23 C 0.97094 0.60889 0.6282 0.0
O24 O 0.01376 0.59159 0.62509 0.0
O25 O 0.98207 0.62659 0.56773 0.0
Mg26 Mg 0.48311 0.49069 0.84323 0.0
C27 C 0.45978 0.54562 0.88551 0.0
O28 O 0.49766 0.5683 0.87921 0.0
C29 C 0.56529 0.4837 0.81161 0.0
O30 O 0.57823 0.52124 0.82382 0.0
C31 C 0.44462 0.5721 0.81966 0.0
O32 O 0.48523 0.58707 0.82858 0.0
O33 O 0.43233 0.52917 0.82213 0.0
O34 O 0.44387 0.51103 0.87344 0.0
O35 O 0.51893 0.4403 0.86506 0.0
C36 C 0.55621 0.45382 0.87602 0.0
O37 O 0.57216 0.49723 0.87395 0.0
O38 O 0.52609 0.46353 0.81545 0.0
Mg39 Mg 0.6581 -0.00955 0.09637 0.0
C40 C 0.7209 0.03564 0.12936 0.0
O41 O 0.74546 -0.00086 0.12185 0.0
C42 C 0.60307 0.92485 0.0665 0.0
O43 O 0.64471 0.90359 0.06659 0.0
C44 C 0.70219 0.04712 0.06165 0.0
O45 O 0.73502 0.01498 0.06562 0.0
O46 O 0.66362 0.04628 0.0723 0.0
O47 O 0.67992 0.04372 0.12097 0.0
O48 O 0.61786 0.96731 0.1248 0.0
C49 C 0.63335 0.93461 0.13743 0.0
O50 O 0.67429 0.91401 0.13335 0.0
O51 O 0.59793 0.964 0.07718 0.0
Mg52 Mg -0.00128 0.63273 0.92342 0.0
C53 C 0.04278 0.69683 0.89284 0.0
O54 O 0.00519 0.72038 0.89957 0.0
C55 C 0.93654 0.57609 0.95166 0.0
O56 O 0.91383 0.61688 0.95259 0.0
C57 C 0.06137 0.67494 0.9602 0.0
O58 O 0.02844 0.70791 0.95873 0.0
O59 O 0.05811 0.63776 0.94763 0.0
O60 O 0.05096 0.65572 0.9002 0.0
O61 O 0.97368 0.59335 0.89331 0.0
C62 C 0.93932 0.60817 0.881 0.0
O63 O 0.9169 0.64748 0.88667 0.0
O64 O 0.9748 0.57222 0.94092 0.0
Mg65 Mg 0.54583 0.46725 0.16908 0.0
C66 C 0.48013 0.51472 0.13775 0.0
O67 O 0.45648 0.47642 0.14265 0.0
C68 C 0.59695 0.40271 0.19998 0.0
O69 O 0.55488 0.38254 0.19882 0.0
C70 C 0.50071 0.52671 0.20349 0.0
O71 O 0.46909 0.49312 0.19959 0.0
O72 O 0.53992 0.52507 0.19337 0.0
O73 O 0.52121 0.52165 0.14647 0.0
O74 O 0.58581 0.44621 0.13987 0.0
C75 C 0.56979 0.41389 0.12642 0.0
O76 O 0.53003 0.39195 0.13075 0.0
O77 O 0.60417 0.44026 0.18921 0.0
Mg78 Mg 0.68261 0.98368 0.42512 0.0
C79 C 0.70845 0.03995 0.38495 0.0
O80 O 0.66794 0.0598 0.39032 0.0
C81 C 0.60202 0.97213 0.45687 0.0
O82 O 0.58664 0.00874 0.44549 0.0
C83 C 0.72327 0.06159 0.451 0.0
O84 O 0.68262 0.07734 0.44273 0.0
O85 O 0.73496 0.01854 0.44723 0.0
O86 O 0.72472 0.00614 0.39665 0.0
O87 O 0.65254 0.9334 0.40078 0.0
C88 C 0.61556 0.94681 0.38989 0.0
O89 O 0.59575 0.98795 0.39482 0.0
O90 O 0.64194 0.95365 0.45224 0.0
Mg91 Mg 0.14969 0.15754 0.67565 0.0
C92 C 0.21503 0.11194 0.64418 0.0
O93 O 0.23868 0.14981 0.65121 0.0
C94 C 0.09262 0.22452 0.7035 0.0
O95 O 0.13358 0.24687 0.70473 0.0
C96 C 0.19009 0.09992 0.7123 0.0
O97 O 0.22298 0.13244 0.71034 0.0
O98 O 0.1529 0.10108 0.6997 0.0
O99 O 0.17417 0.10418 0.65181 0.0
O100 O 0.10927 0.1784 0.646 0.0
C101 C 0.12412 0.21134 0.63375 0.0
O102 O 0.16351 0.23411 0.63942 0.0
O103 O 0.08901 0.18502 0.69288 0.0
Zn104 Zn 0.36135 0.764 0.98561 0.0
Zn105 Zn 0.37315 0.70816 0.0212 0.0
O106 O 0.30014 0.70917 0.01966 0.0
O107 O 0.29051 0.7503 0.98855 0.0
O108 O 0.39141 0.6737 0.04914 0.0
O109 O 0.39719 0.81966 0.00077 0.0
O110 O 0.41147 0.76893 0.02778 0.0
C111 C 0.27334 0.72584 0.00408 0.0
C112 C 0.4034 0.67361 0.97445 0.0
O113 O 0.3961 0.6653 0.99514 0.0
O114 O 0.396 0.71448 0.96661 0.0
C115 C 0.37806 0.63214 0.05347 0.0
O116 O 0.3494 0.60876 0.03934 0.0
C117 C 0.4178 0.80927 0.01925 0.0
Zn118 Zn 0.41611 0.78759 0.29701 0.0
Zn119 Zn 0.45519 0.82958 0.25889 0.0
O120 O 0.39709 0.87221 0.26349 0.0
O121 O 0.36745 0.84187 0.2943 0.0
O122 O 0.48642 0.84976 0.23044 0.0
O123 O 0.41597 0.72321 0.28035 0.0
O124 O 0.44921 0.75884 0.25201 0.0
C125 C 0.36757 0.87371 0.27948 0.0
C126 C 0.507 0.83396 0.30475 0.0
O127 O 0.5035 0.84554 0.2841 0.0
O128 O 0.47636 0.80785 0.31358 0.0
C129 C 0.49884 0.89179 0.22626 0.0
O130 O 0.48923 0.92681 0.24049 0.0
C131 C 0.43472 0.72142 0.26111 0.0
Zn132 Zn 0.32815 0.85537 0.48976 0.0
Zn133 Zn 0.32 0.9158 0.52583 0.0
O134 O 0.39294 0.91328 0.52515 0.0
O135 O 0.39933 0.86925 0.4939 0.0
O136 O 0.30283 0.95303 0.55367 0.0
O137 O 0.28992 0.80295 0.50431 0.0
O138 O 0.27929 0.85732 0.53105 0.0
C139 C 0.41815 0.89509 0.50955 0.0
C140 C 0.28836 0.94622 0.47871 0.0
O141 O 0.29718 0.95629 0.4995 0.0
O142 O 0.29406 0.90447 0.47075 0.0
C143 C 0.3173 -0.0057 0.55921 0.0
O144 O 0.34754 0.01622 0.54656 0.0
C145 C 0.2701 0.81665 0.52232 0.0
Zn146 Zn 0.28312 0.80853 0.73972 0.0
Zn147 Zn 0.22503 0.7997 0.77479 0.0
O148 O 0.22637 0.87223 0.77438 0.0
O149 O 0.26916 0.87952 0.74384 0.0
O150 O 0.19062 0.78296 0.80241 0.0
O151 O 0.33703 0.77097 0.755 0.0
O152 O 0.28454 0.76029 0.78126 0.0
C153 C 0.24376 0.89779 0.75922 0.0
C154 C 0.19186 0.76788 0.72729 0.0
O155 O 0.18277 0.77611 0.74803 0.0
O156 O 0.2332 0.7744 0.71992 0.0
C157 C 0.15054 0.79873 0.80826 0.0
O158 O 0.12746 0.82946 0.79577 0.0
C159 C 0.32496 0.75162 0.77305 0.0
Zn160 Zn 0.89119 0.29755 0.5338 0.0
Zn161 Zn 0.95013 0.2853 0.4988 0.0
O162 O 0.94981 0.3588 0.50112 0.0
O163 O 0.90505 0.36869 0.53104 0.0
O164 O 0.98595 0.26757 0.47098 0.0
O165 O 0.83739 0.25985 0.51782 0.0
O166 O 0.89009 0.24625 0.49158 0.0
C167 C 0.93148 0.38579 0.51622 0.0
C168 C 0.98055 0.25282 0.54568 0.0
O169 O 0.9905 0.26003 0.52515 0.0
O170 O 0.93971 0.26242 0.55313 0.0
C171 C 0.02765 0.28114 0.46689 0.0
O172 O 0.05058 0.30963 0.48126 0.0
C173 C 0.84947 0.23886 0.49968 0.0
Zn174 Zn 0.84829 0.37462 0.78022 0.0
Zn175 Zn 0.85616 0.43262 0.74492 0.0
O176 O 0.78305 0.43052 0.7464 0.0
O177 O 0.77712 0.38765 0.77699 0.0
O178 O 0.87194 0.46835 0.71712 0.0
O179 O 0.88365 0.3201 0.76483 0.0
O180 O 0.89479 0.37225 0.73842 0.0
C181 C 0.758 0.41258 0.76169 0.0
C182 C 0.8912 0.46479 0.79223 0.0
O183 O 0.88161 0.47418 0.77163 0.0
O184 O 0.8844 0.42363 0.79964 0.0
C185 C 0.8572 0.50959 0.71249 0.0
O186 O 0.82826 0.53217 0.72613 0.0
C187 C 0.90264 0.33166 0.74662 0.0
Zn188 Zn 0.80244 0.33111 0.03062 0.0
Zn189 Zn 0.74137 0.33886 0.9935 0.0
O190 O 0.74248 0.26668 0.99542 0.0
O191 O 0.7874 0.2606 0.02649 0.0
O192 O 0.70409 0.35418 0.96525 0.0
O193 O 0.85434 0.36776 0.01524 0.0
O194 O 0.80121 0.37634 0.98766 0.0
C195 C 0.76083 0.24189 0.01109 0.0
C196 C 0.71199 0.37391 0.04048 0.0
O197 O 0.70212 0.36486 0.01967 0.0
O198 O 0.75319 0.36653 0.04883 0.0
C199 C 0.66332 0.33808 0.9597 0.0
O200 O 0.64193 0.30841 0.97283 0.0
C201 C 0.8418 0.38534 -0.00345 0.0
Zn202 Zn 0.87269 0.24115 0.22407 0.0
Zn203 Zn 0.83037 0.203 0.2615 0.0
O204 O 0.78929 0.26257 0.25737 0.0
O205 O 0.81878 0.28986 0.22585 0.0
O206 O 0.81039 0.171 0.29006 0.0
O207 O 0.9376 0.24413 0.24 0.0
O208 O 0.90246 0.20721 0.26741 0.0
C209 C 0.78759 0.29115 0.24099 0.0
C210 C 0.82344 0.15301 0.21546 0.0
O211 O 0.8107 0.15717 0.23591 0.0
O212 O 0.85305 0.18117 0.20726 0.0
C213 C 0.76867 0.15821 0.29483 0.0
O214 O 0.73256 0.16798 0.28121 0.0
C215 C 0.93984 0.22326 0.25869 0.0
C216 C 0.29552 -0.00827 0.29906 0.0
C217 C 0.27462 0.02252 0.30942 0.0
C218 C 0.3191 0.95186 0.28941 0.0
C219 C 0.34187 0.91713 0.28396 0.0
C220 C 0.15511 0.7549 0.54915 0.0
C221 C 0.12177 0.73751 0.5584 0.0
C222 C 0.1965 0.77293 0.53928 0.0
C223 C 0.23039 0.79089 0.53072 0.0
C224 C 0.3935 0.63887 0.80015 0.0
C225 C 0.41396 0.60574 0.80862 0.0
C226 C 0.37234 0.67974 0.79071 0.0
C227 C 0.35223 0.7128 0.78201 0.0
C228 C 0.52708 0.88423 0.04767 0.0
C229 C 0.56231 0.90209 0.05614 0.0
C230 C 0.48637 0.862 0.03787 0.0
C231 C 0.45473 0.83931 0.02875 0.0
C232 C 0.13929 0.69082 0.98534 0.0
C233 C 0.10369 0.68366 0.97388 0.0
C234 C 0.18397 0.70127 0.99592 0.0
C235 C 0.22467 0.71044 0.00143 0.0
C236 C 0.47555 0.60114 0.22834 0.0
C237 C 0.48826 0.56771 0.2169 0.0
C238 C 0.45888 0.64103 0.24069 0.0
C239 C 0.44679 0.67651 0.25082 0.0
C240 C 0.54355 0.93774 0.48677 0.0
C241 C 0.57203 0.95157 0.47343 0.0
C242 C 0.50427 0.923 0.49943 0.0
C243 C 0.46551 0.91256 0.50617 0.0
C244 C 0.2058 0.02736 0.73897 0.0
C245 C 0.19866 0.06051 0.7268 0.0
C246 C 0.21686 0.98507 0.75038 0.0
C247 C 0.22689 0.94553 0.75634 0.0
C248 C 0.6284 0.45028 0.78276 0.0
C249 C 0.59776 0.46338 0.79552 0.0
C250 C 0.66985 0.43701 0.77093 0.0
C251 C 0.70964 0.42804 0.76476 0.0
C252 C 0.72041 0.11629 0.03386 0.0
C253 C 0.71157 0.08493 0.0466 0.0
C254 C 0.7327 0.15652 0.0215 0.0
C255 C 0.74314 0.19503 0.01472 0.0
C256 C 0.05948 0.18103 0.29175 0.0
C257 C 0.08939 0.16334 0.3039 0.0
C258 C 0.0209 0.19977 0.27901 0.0
C259 C 0.98525 0.21181 0.26887 0.0
C260 C 0.96973 0.51875 0.53627 0.0
C261 C 0.98251 0.55175 0.54854 0.0
C262 C 0.95658 0.47511 0.52514 0.0
C263 C 0.94723 0.43446 0.5194 0.0
C264 C 0.77683 0.12714 0.47139 0.0
C265 C 0.75503 0.09466 0.4624 0.0
C266 C 0.79992 0.16741 0.48131 0.0
C267 C 0.82131 0.20029 0.49023 0.0
C268 C 0.01463 0.26225 0.72003 0.0
C269 C 0.05089 0.24596 0.71267 0.0
C270 C 0.97279 0.28228 0.72885 0.0
C271 C 0.94048 0.3034 0.73758 0.0
C272 C 0.9033 0.49869 0.96945 0.0
C273 C 0.91717 0.53493 0.96159 0.0
C274 C 0.88673 0.45652 0.97876 0.0
C275 C 0.86824 0.42372 0.98773 0.0
C276 C 0.66936 0.36293 0.2217 0.0
C277 C 0.63576 0.38045 0.21189 0.0
C278 C 0.71008 0.34051 0.2311 0.0
C279 C 0.74454 0.31741 0.23656 0.0
C280 C 0.26385 0.03921 0.42917 0.0
C281 C 0.2521 0.05768 0.41174 0.0
C282 C 0.27221 0.01153 0.4484 0.0
C283 C 0.27953 0.98367 0.46321 0.0
C284 C 0.09829 0.74013 0.67581 0.0
C285 C 0.08007 0.72666 0.65808 0.0
C286 C 0.12586 0.75001 0.69572 0.0
C287 C 0.1538 0.75804 0.71118 0.0
C288 C 0.42686 0.57814 0.92408 0.0
C289 C 0.43816 0.55978 0.90637 0.0
C290 C 0.41909 0.60636 0.94373 0.0
C291 C 0.41214 0.63495 0.95882 0.0
C292 C 0.58187 0.91278 0.17237 0.0
C293 C 0.60653 0.92158 0.15663 0.0
C294 C 0.55234 0.90536 0.19092 0.0
C295 C 0.52795 0.89973 0.20712 0.0
C296 C 0.09366 0.73665 0.86193 0.0
C297 C 0.07199 0.71647 0.87605 0.0
C298 C 0.1139 0.76068 0.844 0.0
C299 C 0.12922 0.77907 0.82758 0.0
C300 C 0.44062 0.56984 0.10733 0.0
C301 C 0.46067 0.54625 0.12132 0.0
C302 C 0.41678 0.59241 0.08934 0.0
C303 C 0.39847 0.60955 0.07283 0.0
C304 C 0.58448 0.89848 0.35388 0.0
C305 C 0.59916 0.9201 0.37038 0.0
C306 C 0.56428 0.87538 0.33464 0.0
C307 C 0.54003 0.85816 0.31959 0.0
C308 C 0.25404 0.05886 0.61239 0.0
C309 C 0.23437 0.08165 0.62691 0.0
C310 C 0.27787 0.0362 0.59442 0.0
C311 C 0.29665 0.01821 0.57825 0.0
C312 C 0.5991 0.39866 0.9057 0.0
C313 C 0.57889 0.42314 0.89204 0.0
C314 C 0.62107 0.37369 0.92354 0.0
C315 C 0.63907 0.35651 0.94016 0.0
C316 C 0.75528 0.0808 0.16543 0.0
C317 C 0.73773 0.06154 0.14895 0.0
C318 C 0.77749 0.10158 0.18471 0.0
C319 C 0.79663 0.12355 0.19999 0.0
C320 C 0.09033 0.21908 0.41287 0.0
C321 C 0.11083 0.19536 0.39893 0.0
C322 C 0.06848 0.24378 0.43089 0.0
C323 C 0.05088 0.2615 0.44746 0.0
C324 C 0.91815 0.57037 0.65915 0.0
C325 C 0.94155 0.58859 0.64493 0.0
C326 C 0.89372 0.55006 0.67709 0.0
C327 C 0.8762 0.53286 0.69339 0.0
C328 C 0.74754 0.07752 0.34962 0.0
C329 C 0.73342 0.05733 0.36592 0.0
C330 C 0.75702 0.10506 0.33057 0.0
C331 C 0.76204 0.1293 0.31423 0.0
C332 C 0.07585 0.2269 0.59589 0.0
C333 C 0.09918 0.2212 0.61297 0.0
C334 C 0.04582 0.23293 0.57672 0.0
C335 C 0.01782 0.24174 0.56165 0.0
C336 C 0.9193 0.5602 0.84295 0.0
C337 C 0.92718 0.58322 0.86014 0.0
C338 C 0.91141 0.53057 0.82355 0.0
C339 C 0.9023 0.50252 0.80829 0.0
C340 C 0.61648 0.39822 0.08893 0.0
C341 C 0.59377 0.40392 0.10577 0.0
C342 C 0.64617 0.39245 0.07024 0.0
C343 C 0.67436 0.38414 0.05568 0.0
loop_
_geom_bond_atom_site_label_1
_geom_bond_atom_site_label_2
_geom_bond_distance
_geom_bond_site_symmetry_2
_ccdc_geom_bond_type
Mg0 O7 2.141 . S
Mg0 O8 2.048 . S
Mg0 O9 2.048 . S
Mg0 O12 2.141 . S
C1 O2 1.313 . S
C1 O8 1.195 . S
O2 C1 1.313 . S
C3 O4 1.245 . S
C3 O12 1.289 . S
O4 C3 1.245 . S
C5 O6 1.245 . S
C5 O7 1.289 . S
O6 C5 1.245 . S
O7 Mg0 2.141 . S
O7 C5 1.289 . S
O8 Mg0 2.048 . S
O8 C1 1.195 . S
O9 Mg0 2.048 . S
O9 C10 1.195 . S
C10 O9 1.195 . S
C10 O11 1.313 . S
O11 C10 1.313 . S
O12 Mg0 2.141 . S
O12 C3 1.289 . S
Mg13 O20 2.141 . S
Mg13 O21 2.048 . S
Mg13 O22 2.048 1_455 S
Mg13 O25 2.141 1_455 S
C14 O15 1.313 . S
C14 O21 1.195 . S
O15 C14 1.313 . S
C16 O17 1.264 . S
C16 O25 1.281 1_455 S
O17 C16 1.264 . S
C18 O19 1.245 . S
C18 O20 1.289 . S
O19 C18 1.245 . S
O20 Mg13 2.141 . S
O20 C18 1.289 . S
O21 Mg13 2.048 . S
O21 C14 1.195 . S
O22 Mg13 2.048 1_655 S
O22 C23 1.195 . S
C23 O22 1.195 . S
C23 O24 1.313 1_655 S
O24 C23 1.313 1_455 S
O25 Mg13 2.141 1_655 S
O25 C16 1.281 1_655 S
Mg26 O33 2.141 . S
Mg26 O34 2.048 . S
Mg26 O35 2.048 . S
Mg26 O38 2.141 . S
C27 O28 1.313 . S
C27 O34 1.195 . S
O28 C27 1.313 . S
C29 O30 1.245 . S
C29 O38 1.289 . S
O30 C29 1.245 . S
C31 O32 1.245 . S
C31 O33 1.289 . S
O32 C31 1.245 . S
O33 Mg26 2.141 . S
O33 C31 1.289 . S
O34 Mg26 2.048 . S
O34 C27 1.195 . S
O35 Mg26 2.048 . S
O35 C36 1.195 . S
C36 O35 1.195 . S
C36 O37 1.313 . S
O37 C36 1.313 . S
O38 Mg26 2.141 . S
O38 C29 1.289 . S
Mg39 O46 2.141 . S
Mg39 O47 2.048 . S
Mg39 O48 2.048 1_545 S
Mg39 O51 2.141 1_545 S
C40 O41 1.313 . S
C40 O47 1.195 . S
O41 C40 1.313 . S
C42 O43 1.245 . S
C42 O51 1.289 . S
O43 C42 1.245 . S
C44 O45 1.245 . S
C44 O46 1.289 . S
O45 C44 1.245 . S
O46 Mg39 2.141 . S
O46 C44 1.289 . S
O47 Mg39 2.048 . S
O47 C40 1.195 . S
O48 Mg39 2.048 1_565 S
O48 C49 1.195 . S
C49 O48 1.195 . S
C49 O50 1.313 . S
O50 C49 1.313 . S
O51 Mg39 2.141 1_565 S
O51 C42 1.289 . S
Mg52 O59 2.141 . S
Mg52 O60 2.048 . S
Mg52 O61 2.048 1_455 S
Mg52 O64 2.141 1_455 S
C53 O54 1.313 . S
C53 O60 1.195 . S
O54 C53 1.313 . S
C55 O56 1.245 . S
C55 O64 1.289 . S
O56 C55 1.245 . S
C57 O58 1.245 . S
C57 O59 1.289 . S
O58 C57 1.245 . S
O59 Mg52 2.141 . S
O59 C57 1.289 . S
O60 Mg52 2.048 . S
O60 C53 1.195 . S
O61 Mg52 2.048 1_655 S
O61 C62 1.195 . S
C62 O61 1.195 . S
C62 O63 1.313 . S
O63 C62 1.313 . S
O64 Mg52 2.141 1_655 S
O64 C55 1.289 . S
Mg65 O72 2.141 . S
Mg65 O73 2.048 . S
Mg65 O74 2.048 . S
Mg65 O77 2.141 . S
C66 O67 1.313 . S
C66 O73 1.195 . S
O67 C66 1.313 . S
C68 O69 1.245 . S
C68 O77 1.289 . S
O69 C68 1.245 . S
C70 O71 1.245 . S
C70 O72 1.289 . S
O71 C70 1.245 . S
O72 Mg65 2.141 . S
O72 C70 1.289 . S
O73 Mg65 2.048 . S
O73 C66 1.195 . S
O74 Mg65 2.048 . S
O74 C75 1.195 . S
C75 O74 1.195 . S
C75 O76 1.313 . S
O76 C75 1.313 . S
O77 Mg65 2.141 . S
O77 C68 1.289 . S
Mg78 O85 2.141 1_565 S
Mg78 O86 2.048 1_565 S
Mg78 O87 2.048 . S
Mg78 O90 2.141 . S
C79 O80 1.313 . S
C79 O86 1.195 . S
O80 C79 1.313 . S
C81 O82 1.245 1_565 S
C81 O90 1.289 . S
O82 C81 1.245 1_545 S
C83 O84 1.245 . S
C83 O85 1.289 . S
O84 C83 1.245 . S
O85 Mg78 2.141 1_545 S
O85 C83 1.289 . S
O86 Mg78 2.048 1_545 S
O86 C79 1.195 . S
O87 Mg78 2.048 . S
O87 C88 1.195 . S
C88 O87 1.195 . S
C88 O89 1.313 . S
O89 C88 1.313 . S
O90 Mg78 2.141 . S
O90 C81 1.289 . S
Mg91 O98 2.141 . S
Mg91 O99 2.048 . S
Mg91 O100 2.048 . S
Mg91 O103 2.141 . S
C92 O93 1.313 . S
C92 O99 1.195 . S
O93 C92 1.313 . S
C94 O95 1.245 . S
C94 O103 1.289 . S
O95 C94 1.245 . S
C96 O97 1.245 . S
C96 O98 1.289 . S
O97 C96 1.245 . S
O98 Mg91 2.141 . S
O98 C96 1.289 . S
O99 Mg91 2.048 . S
O99 C92 1.195 . S
O100 Mg91 2.048 . S
O100 C101 1.195 . S
C101 O100 1.195 . S
C101 O102 1.313 . S
O102 C101 1.313 . S
O103 Mg91 2.141 . S
O103 C94 1.289 . S
Zn104 O107 2.031 . S
Zn104 O109 2.049 1_556 S
Zn104 O114 2.067 . S
Zn105 O106 1.962 . S
Zn105 O108 1.986 . S
Zn105 O110 1.996 . S
Zn105 O113 1.943 . S
O106 Zn105 1.962 . S
O106 C111 1.254 . S
O107 Zn104 2.031 . S
O107 C111 1.269 1_556 S
O108 Zn105 1.986 . S
O108 C115 1.262 . S
O109 Zn104 2.049 1_554 S
O109 C117 1.260 . S
O110 Zn105 1.996 . S
O110 C117 1.257 . S
C111 O106 1.254 . S
C111 O107 1.269 1_554 S
C112 O113 1.249 1_556 S
C112 O114 1.270 . S
O113 Zn105 1.943 . S
O113 C112 1.249 1_554 S
O114 Zn104 2.067 . S
O114 C112 1.270 . S
C115 O108 1.262 . S
C115 O116 1.232 . S
O116 C115 1.232 . S
C117 O109 1.260 . S
C117 O110 1.257 . S
Zn118 O121 2.031 . S
Zn118 O123 2.049 . S
Zn118 O128 2.067 . S
Zn119 O120 1.962 . S
Zn119 O122 1.986 . S
Zn119 O124 1.996 . S
Zn119 O127 1.943 . S
O120 Zn119 1.962 . S
O120 C125 1.254 . S
O121 Zn118 2.031 . S
O121 C125 1.269 . S
O122 Zn119 1.986 . S
O122 C129 1.262 . S
O123 Zn118 2.049 . S
O123 C131 1.260 . S
O124 Zn119 1.996 . S
O124 C131 1.257 . S
C125 O120 1.254 . S
C125 O121 1.269 . S
C126 O127 1.249 . S
C126 O128 1.270 . S
O127 Zn119 1.943 . S
O127 C126 1.249 . S
O128 Zn118 2.067 . S
O128 C126 1.270 . S
C129 O122 1.262 . S
C129 O130 1.232 . S
O130 C129 1.232 . S
C131 O123 1.260 . S
C131 O124 1.257 . S
Zn132 O135 2.031 . S
Zn132 O137 2.049 . S
Zn132 O142 2.067 . S
Zn133 O134 1.962 . S
Zn133 O136 1.986 . S
Zn133 O138 1.996 . S
Zn133 O141 1.943 . S
O134 Zn133 1.962 . S
O134 C139 1.254 . S
O135 Zn132 2.031 . S
O135 C139 1.269 . S
O136 Zn133 1.986 . S
O136 C143 1.262 . S
O137 Zn132 2.049 . S
O137 C145 1.260 . S
O138 Zn133 1.996 . S
O138 C145 1.257 . S
C139 O134 1.254 . S
C139 O135 1.269 . S
C140 O141 1.249 . S
C140 O142 1.270 . S
O141 Zn133 1.943 . S
O141 C140 1.249 . S
O142 Zn132 2.067 . S
O142 C140 1.270 . S
C143 O136 1.262 . S
C143 O144 1.232 1_565 S
O144 C143 1.232 1_545 S
C145 O137 1.260 . S
C145 O138 1.257 . S
Zn146 O149 2.031 . S
Zn146 O151 2.049 . S
Zn146 O156 2.067 . S
Zn147 O148 1.962 . S
Zn147 O150 1.986 . S
Zn147 O152 1.996 . S
Zn147 O155 1.943 . S
O148 Zn147 1.962 . S
O148 C153 1.254 . S
O149 Zn146 2.031 . S
O149 C153 1.269 . S
O150 Zn147 1.986 . S
O150 C157 1.262 . S
O151 Zn146 2.049 . S
O151 C159 1.260 . S
O152 Zn147 1.996 . S
O152 C159 1.257 . S
C153 O148 1.254 . S
C153 O149 1.269 . S
C154 O155 1.249 . S
C154 O156 1.270 . S
O155 Zn147 1.943 . S
O155 C154 1.249 . S
O156 Zn146 2.067 . S
O156 C154 1.270 . S
C157 O150 1.262 . S
C157 O158 1.232 . S
O158 C157 1.232 . S
C159 O151 1.260 . S
C159 O152 1.257 . S
Zn160 O163 2.031 . S
Zn160 O165 2.049 . S
Zn160 O170 2.067 . S
Zn161 O162 1.962 . S
Zn161 O164 1.986 . S
Zn161 O166 1.996 . S
Zn161 O169 1.949 . S
O162 Zn161 1.962 . S
O162 C167 1.254 . S
O163 Zn160 2.031 . S
O163 C167 1.269 . S
O164 Zn161 1.986 . S
O164 C171 1.262 1_655 S
O165 Zn160 2.049 . S
O165 C173 1.260 . S
O166 Zn161 1.996 . S
O166 C173 1.257 . S
C167 O162 1.254 . S
C167 O163 1.269 . S
C168 O169 1.254 . S
C168 O170 1.270 . S
O169 Zn161 1.949 . S
O169 C168 1.254 . S
O170 Zn160 2.067 . S
O170 C168 1.270 . S
C171 O164 1.262 1_455 S
C171 O172 1.232 . S
O172 C171 1.232 . S
C173 O165 1.260 . S
C173 O166 1.257 . S
Zn174 O177 2.031 . S
Zn174 O179 2.049 . S
Zn174 O184 2.067 . S
Zn175 O176 1.962 . S
Zn175 O178 1.986 . S
Zn175 O180 1.996 . S
Zn175 O183 1.943 . S
O176 Zn175 1.962 . S
O176 C181 1.254 . S
O177 Zn174 2.031 . S
O177 C181 1.269 . S
O178 Zn175 1.986 . S
O178 C185 1.262 . S
O179 Zn174 2.049 . S
O179 C187 1.260 . S
O180 Zn175 1.996 . S
O180 C187 1.257 . S
C181 O176 1.254 . S
C181 O177 1.269 . S
C182 O183 1.249 . S
C182 O184 1.270 . S
O183 Zn175 1.943 . S
O183 C182 1.249 . S
O184 Zn174 2.067 . S
O184 C182 1.270 . S
C185 O178 1.262 . S
C185 O186 1.232 . S
O186 C185 1.232 . S
C187 O179 1.260 . S
C187 O180 1.257 . S
Zn188 O191 2.031 . S
Zn188 O193 2.049 . S
Zn188 O198 2.067 . S
Zn189 O190 1.962 . S
Zn189 O192 1.986 . S
Zn189 O194 1.996 . S
Zn189 O197 1.943 1_556 S
O190 Zn189 1.962 . S
O190 C195 1.254 1_556 S
O191 Zn188 2.031 . S
O191 C195 1.269 . S
O192 Zn189 1.986 . S
O192 C199 1.262 . S
O193 Zn188 2.049 . S
O193 C201 1.284 . S
O194 Zn189 1.996 . S
O194 C201 1.251 1_556 S
C195 O190 1.254 1_554 S
C195 O191 1.269 . S
C196 O197 1.249 . S
C196 O198 1.270 . S
O197 Zn189 1.943 1_554 S
O197 C196 1.249 . S
O198 Zn188 2.067 . S
O198 C196 1.270 . S
C199 O192 1.262 . S
C199 O200 1.232 . S
O200 C199 1.232 . S
C201 O193 1.284 . S
C201 O194 1.251 1_554 S
Zn202 O205 2.031 . S
Zn202 O207 2.049 . S
Zn202 O212 2.067 . S
Zn203 O204 1.962 . S
Zn203 O206 1.986 . S
Zn203 O208 1.996 . S
Zn203 O211 1.943 . S
O204 Zn203 1.962 . S
O204 C209 1.254 . S
O205 Zn202 2.031 . S
O205 C209 1.269 . S
O206 Zn203 1.986 . S
O206 C213 1.262 . S
O207 Zn202 2.049 . S
O207 C215 1.260 . S
O208 Zn203 1.996 . S
O208 C215 1.257 . S
C209 O204 1.254 . S
C209 O205 1.269 . S
C210 O211 1.249 . S
C210 O212 1.270 . S
O211 Zn203 1.943 . S
O211 C210 1.249 . S
O212 Zn202 2.067 . S
O212 C210 1.270 . S
C213 O206 1.262 . S
C213 O214 1.232 . S
O214 C213 1.232 . S
C215 O207 1.260 . S
C215 O208 1.257 . S
C216 C217 1.168 1_565 S
C216 C218 1.382 . S
C217 C216 1.168 1_545 S
C218 C216 1.382 . S
C218 C219 1.170 . S
C219 C218 1.170 . S
C220 C221 1.170 . S
C220 C222 1.380 . S
C221 C220 1.170 . S
C222 C220 1.380 . S
C222 C223 1.170 . S
C223 C222 1.170 . S
C224 C225 1.170 . S
C224 C226 1.380 . S
C225 C224 1.170 . S
C226 C224 1.380 . S
C226 C227 1.170 . S
C227 C226 1.170 . S
C228 C229 1.170 . S
C228 C230 1.380 . S
C229 C228 1.170 . S
C230 C228 1.380 . S
C230 C231 1.170 . S
C231 C230 1.170 . S
C232 C233 1.170 . S
C232 C234 1.380 . S
C233 C232 1.170 . S
C234 C232 1.380 . S
C234 C235 1.170 1_556 S
C235 C234 1.170 1_554 S
C236 C237 1.170 . S
C236 C238 1.380 . S
C237 C236 1.170 . S
C238 C236 1.380 . S
C238 C239 1.170 . S
C239 C238 1.170 . S
C240 C241 1.170 . S
C240 C242 1.380 . S
C241 C240 1.170 . S
C242 C240 1.380 . S
C242 C243 1.170 . S
C243 C242 1.170 . S
C244 C245 1.170 . S
C244 C246 1.380 1_545 S
C245 C244 1.170 . S
C246 C244 1.380 1_565 S
C246 C247 1.170 . S
C247 C246 1.170 . S
C248 C249 1.170 . S
C248 C250 1.380 . S
C249 C248 1.170 . S
C250 C248 1.380 . S
C250 C251 1.170 . S
C251 C250 1.170 . S
C252 C253 1.170 . S
C252 C254 1.380 . S
C253 C252 1.170 . S
C254 C252 1.380 . S
C254 C255 1.170 . S
C255 C254 1.170 . S
C256 C257 1.170 . S
C256 C258 1.380 . S
C257 C256 1.170 . S
C258 C256 1.380 . S
C258 C259 1.170 1_455 S
C259 C258 1.170 1_655 S
C260 C261 1.170 . S
C260 C262 1.380 . S
C261 C260 1.170 . S
C262 C260 1.380 . S
C262 C263 1.170 . S
C263 C262 1.170 . S
C264 C265 1.170 . S
C264 C266 1.380 . S
C265 C264 1.170 . S
C266 C264 1.380 . S
C266 C267 1.170 . S
C267 C266 1.170 . S
C268 C269 1.170 . S
C268 C270 1.380 1_455 S
C269 C268 1.170 . S
C270 C268 1.380 1_655 S
C270 C271 1.170 . S
C271 C270 1.170 . S
C272 C273 1.170 . S
C272 C274 1.380 . S
C273 C272 1.170 . S
C274 C272 1.380 . S
C274 C275 1.170 . S
C275 C274 1.170 . S
C276 C277 1.170 . S
C276 C278 1.380 . S
C277 C276 1.170 . S
C278 C276 1.380 . S
C278 C279 1.170 . S
C279 C278 1.170 . S
C280 C281 1.170 . S
C280 C282 1.380 . S
C281 C280 1.170 . S
C282 C280 1.380 . S
C282 C283 1.170 1_545 S
C283 C282 1.170 1_565 S
C284 C285 1.170 . S
C284 C286 1.380 . S
C285 C284 1.170 . S
C286 C284 1.380 . S
C286 C287 1.170 . S
C287 C286 1.170 . S
C288 C289 1.170 . S
C288 C290 1.380 . S
C289 C288 1.170 . S
C290 C288 1.380 . S
C290 C291 1.170 . S
C291 C290 1.170 . S
C292 C293 1.170 . S
C292 C294 1.380 . S
C293 C292 1.170 . S
C294 C292 1.380 . S
C294 C295 1.170 . S
C295 C294 1.170 . S
C296 C297 1.170 . S
C296 C298 1.380 . S
C297 C296 1.170 . S
C298 C296 1.380 . S
C298 C299 1.170 . S
C299 C298 1.170 . S
C300 C301 1.170 . S
C300 C302 1.380 . S
C301 C300 1.170 . S
C302 C300 1.380 . S
C302 C303 1.170 . S
C303 C302 1.170 . S
C304 C305 1.170 . S
C304 C306 1.380 . S
C305 C304 1.170 . S
C306 C304 1.380 . S
C306 C307 1.170 . S
C307 C306 1.170 . S
C308 C309 1.170 . S
C308 C310 1.380 . S
C309 C308 1.170 . S
C310 C308 1.380 . S
C310 C311 1.170 . S
C311 C310 1.170 . S
C312 C313 1.170 . S
C312 C314 1.380 . S
C313 C312 1.170 . S
C314 C312 1.380 . S
C314 C315 1.170 . S
C315 C314 1.170 . S
C316 C317 1.170 . S
C316 C318 1.380 . S
C317 C316 1.170 . S
C318 C316 1.380 . S
C318 C319 1.170 . S
C319 C318 1.170 . S
C320 C321 1.170 . S
C320 C322 1.380 . S
C321 C320 1.170 . S
C322 C320 1.380 . S
C322 C323 1.170 . S
C323 C322 1.170 . S
C324 C325 1.170 . S
C324 C326 1.380 . S
C325 C324 1.170 . S
C326 C324 1.380 . S
C326 C327 1.170 . S
C327 C326 1.170 . S
C328 C329 1.170 . S
C328 C330 1.380 . S
C329 C328 1.170 . S
C330 C328 1.380 . S
C330 C331 1.170 . S
C331 C330 1.170 . S
C332 C333 1.170 . S
C332 C334 1.380 . S
C333 C332 1.170 . S
C334 C332 1.380 . S
C334 C335 1.170 . S
C335 C334 1.170 . S
C336 C337 1.170 . S
C336 C338 1.380 . S
C337 C336 1.170 . S
C338 C336 1.380 . S
C338 C339 1.170 . S
C339 C338 1.170 . S
C340 C341 1.170 . S
C340 C342 1.380 . S
C341 C340 1.170 . S
C342 C340 1.380 . S
C342 C343 1.170 . S
C343 C342 1.170 . S
C219 C125 1.525 . S
C217 C5 1.491 . S
C223 C145 1.590 . S
C221 C18 1.573 . S
C227 C159 1.604 . S
C225 C31 1.543 . S
C229 C42 1.596 . S
C231 C117 1.576 . S
C233 C57 1.415 . S
C235 C111 1.420 . S
C237 C70 1.400 . S
C239 C131 1.414 . S
C243 C139 1.332 . S
C241 C81 1.286 . S
C247 C153 1.366 . S
C245 C96 1.361 . S
C249 C29 1.295 . S
C251 C181 1.357 . S
C255 C195 1.307 . S
C253 C44 1.329 . S
C257 C3 1.350 . S
C259 C215 1.398 . S
C263 C167 1.420 . S
C261 C16 1.319 1_655 S
C265 C83 1.522 . S
C267 C173 1.586 . S
C269 C94 1.610 . S
C271 C187 1.609 . S
C275 C201 1.598 1_556 S
C273 C55 1.616 . S
C277 C68 1.544 . S
C279 C209 1.527 . S
C283 C140 1.735 . S
C281 C1 1.638 . S
C287 C154 1.732 . S
C285 C14 1.635 . S
C289 C27 1.592 . S
C291 C112 1.687 . S
C293 C49 1.532 . S
C295 C129 1.564 . S
C297 C53 1.268 . S
C299 C157 1.260 . S
C303 C115 1.239 . S
C301 C66 1.242 . S
C307 C126 1.360 . S
C305 C88 1.329 . S
C311 C143 1.302 1_545 S
C309 C92 1.282 . S
C315 C199 1.310 . S
C313 C36 1.307 . S
C319 C210 1.340 . S
C317 C40 1.353 . S
C321 C10 1.227 . S
C323 C171 1.235 . S
C327 C185 1.262 . S
C325 C23 1.245 . S
C331 C213 1.571 . S
C329 C79 1.456 . S
C333 C101 1.655 . S
C335 C168 1.685 1_455 S
C339 C182 1.733 . S
C337 C62 1.721 . S
C343 C196 1.746 . S
C341 C75 1.699 . S
