# Generated by pormake.
# Topology soc, (4,6)-cn, num edge types: 1
# Building blocks:
#     Node 0, Type 0, BuildingBlock: ESEHIV_clean_sbu_0, # of connection points: 4
#     Node 1, Type 0, BuildingBlock: ESEHIV_clean_sbu_0, # of connection points: 4
#     Node 2, Type 0, BuildingBlock: ESEHIV_clean_sbu_0, # of connection points: 4
#     Node 3, Type 0, BuildingBlock: ESEHIV_clean_sbu_0, # of connection points: 4
#     Node 4, Type 0, BuildingBlock: ESEHIV_clean_sbu_0, # of connection points: 4
#     Node 5, Type 0, BuildingBlock: ESEHIV_clean_sbu_0, # of connection points: 4
#     Node 6, Type 0, BuildingBlock: ESEHIV_clean_sbu_0, # of connection points: 4
#     Node 7, Type 0, BuildingBlock: ESEHIV_clean_sbu_0, # of connection points: 4
#     Node 8, Type 0, BuildingBlock: ESEHIV_clean_sbu_0, # of connection points: 4
#     Node 9, Type 0, BuildingBlock: ESEHIV_clean_sbu_0, # of connection points: 4
#     Node 10, Type 0, BuildingBlock: ESEHIV_clean_sbu_0, # of connection points: 4
#     Node 11, Type 0, BuildingBlock: ESEHIV_clean_sbu_0, # of connection points: 4
#     Node 12, Type 1, BuildingBlock: CUKXOW_clean_sbu_0, # of connection points: 6
#     Node 13, Type 1, BuildingBlock: CUKXOW_clean_sbu_0, # of connection points: 6
#     Node 14, Type 1, BuildingBlock: CUKXOW_clean_sbu_0, # of connection points: 6
#     Node 15, Type 1, BuildingBlock: CUKXOW_clean_sbu_0, # of connection points: 6
#     Node 16, Type 1, BuildingBlock: CUKXOW_clean_sbu_0, # of connection points: 6
#     Node 17, Type 1, BuildingBlock: CUKXOW_clean_sbu_0, # of connection points: 6
#     Node 18, Type 1, BuildingBlock: CUKXOW_clean_sbu_0, # of connection points: 6
#     Node 19, Type 1, BuildingBlock: CUKXOW_clean_sbu_0, # of connection points: 6
#     Edge 20, Type (0, 1), BuildingBlock: ZUJKAS_clean_linker_0, # of connection points: 2
#     Edge 21, Type (0, 1), BuildingBlock: ZUJKAS_clean_linker_0, # of connection points: 2
#     Edge 22, Type (0, 1), BuildingBlock: ZUJKAS_clean_linker_0, # of connection points: 2
#     Edge 23, Type (0, 1), BuildingBlock: ZUJKAS_clean_linker_0, # of connection points: 2
#     Edge 24, Type (0, 1), BuildingBlock: ZUJKAS_clean_linker_0, # of connection points: 2
#     Edge 25, Type (0, 1), BuildingBlock: ZUJKAS_clean_linker_0, # of connection points: 2
#     Edge 26, Type (0, 1), BuildingBlock: ZUJKAS_clean_linker_0, # of connection points: 2
#     Edge 27, Type (0, 1), BuildingBlock: ZUJKAS_clean_linker_0, # of connection points: 2
#     Edge 28, Type (0, 1), BuildingBlock: ZUJKAS_clean_linker_0, # of connection points: 2
#     Edge 29, Type (0, 1), BuildingBlock: ZUJKAS_clean_linker_0, # of connection points: 2
#     Edge 30, Type (0, 1), BuildingBlock: ZUJKAS_clean_linker_0, # of connection points: 2
#     Edge 31, Type (0, 1), BuildingBlock: ZUJKAS_clean_linker_0, # of connection points: 2
#     Edge 32, Type (0, 1), BuildingBlock: ZUJKAS_clean_linker_0, # of connection points: 2
#     Edge 33, Type (0, 1), BuildingBlock: ZUJKAS_clean_linker_0, # of connection points: 2
#     Edge 34, Type (0, 1), BuildingBlock: ZUJKAS_clean_linker_0, # of connection points: 2
#     Edge 35, Type (0, 1), BuildingBlock: ZUJKAS_clean_linker_0, # of connection points: 2
#     Edge 36, Type (0, 1), BuildingBlock: ZUJKAS_clean_linker_0, # of connection points: 2
#     Edge 37, Type (0, 1), BuildingBlock: ZUJKAS_clean_linker_0, # of connection points: 2
#     Edge 38, Type (0, 1), BuildingBlock: ZUJKAS_clean_linker_0, # of connection points: 2
#     Edge 39, Type (0, 1), BuildingBlock: ZUJKAS_clean_linker_0, # of connection points: 2
#     Edge 40, Type (0, 1), BuildingBlock: ZUJKAS_clean_linker_0, # of connection points: 2
#     Edge 41, Type (0, 1), BuildingBlock: ZUJKAS_clean_linker_0, # of connection points: 2
#     Edge 42, Type (0, 1), BuildingBlock: ZUJKAS_clean_linker_0, # of connection points: 2
#     Edge 43, Type (0, 1), BuildingBlock: ZUJKAS_clean_linker_0, # of connection points: 2
#     Edge 44, Type (0, 1), BuildingBlock: ZUJKAS_clean_linker_0, # of connection points: 2
#     Edge 45, Type (0, 1), BuildingBlock: ZUJKAS_clean_linker_0, # of connection points: 2
#     Edge 46, Type (0, 1), BuildingBlock: ZUJKAS_clean_linker_0, # of connection points: 2
#     Edge 47, Type (0, 1), BuildingBlock: ZUJKAS_clean_linker_0, # of connection points: 2
#     Edge 48, Type (0, 1), BuildingBlock: ZUJKAS_clean_linker_0, # of connection points: 2
#     Edge 49, Type (0, 1), BuildingBlock: ZUJKAS_clean_linker_0, # of connection points: 2
#     Edge 50, Type (0, 1), BuildingBlock: ZUJKAS_clean_linker_0, # of connection points: 2
#     Edge 51, Type (0, 1), BuildingBlock: ZUJKAS_clean_linker_0, # of connection points: 2
#     Edge 52, Type (0, 1), BuildingBlock: ZUJKAS_clean_linker_0, # of connection points: 2
#     Edge 53, Type (0, 1), BuildingBlock: ZUJKAS_clean_linker_0, # of connection points: 2
#     Edge 54, Type (0, 1), BuildingBlock: ZUJKAS_clean_linker_0, # of connection points: 2
#     Edge 55, Type (0, 1), BuildingBlock: ZUJKAS_clean_linker_0, # of connection points: 2
#     Edge 56, Type (0, 1), BuildingBlock: ZUJKAS_clean_linker_0, # of connection points: 2
#     Edge 57, Type (0, 1), BuildingBlock: ZUJKAS_clean_linker_0, # of connection points: 2
#     Edge 58, Type (0, 1), BuildingBlock: ZUJKAS_clean_linker_0, # of connection points: 2
#     Edge 59, Type (0, 1), BuildingBlock: ZUJKAS_clean_linker_0, # of connection points: 2
#     Edge 60, Type (0, 1), BuildingBlock: ZUJKAS_clean_linker_0, # of connection points: 2
#     Edge 61, Type (0, 1), BuildingBlock: ZUJKAS_clean_linker_0, # of connection points: 2
#     Edge 62, Type (0, 1), BuildingBlock: ZUJKAS_clean_linker_0, # of connection points: 2
#     Edge 63, Type (0, 1), BuildingBlock: ZUJKAS_clean_linker_0, # of connection points: 2
#     Edge 64, Type (0, 1), BuildingBlock: ZUJKAS_clean_linker_0, # of connection points: 2
#     Edge 65, Type (0, 1), BuildingBlock: ZUJKAS_clean_linker_0, # of connection points: 2
#     Edge 66, Type (0, 1), BuildingBlock: ZUJKAS_clean_linker_0, # of connection points: 2
#     Edge 67, Type (0, 1), BuildingBlock: ZUJKAS_clean_linker_0, # of connection points: 2
# Relax obj value: 0.083
# Max RMSD: 0.169
# Mean RMSD: 0.141
data_MOF--net-soc--node1-ESEHIV_clean_sbu_0--node2-CUKXOW_clean_sbu_0--edge1-ZUJKAS_clean_linker_0
_symmetry_space_group_name_H-M    P1
_symmetry_Int_Tables_number       1
_symmetry_cell_setting            triclinic
loop_
_symmetry_equiv_pos_as_xyz
'x, y, z'
_cell_length_a     55.558615
_cell_length_b     56.564267
_cell_length_c     58.0364
_cell_angle_alpha  94.901671
_cell_angle_beta   93.217722
_cell_angle_gamma 88.388076
loop_
_atom_site_label
_atom_site_type_symbol
_atom_site_fract_x
_atom_site_fract_y
_atom_site_fract_z
_atom_type_partial_charge
Cu0 Cu 0.0759 0.02996 0.2453 0.0
N1 N 0.09086 0.05135 0.22765 0.0
N2 N 0.11341 0.08202 0.22039 0.0
C3 C 0.10711 0.06754 0.23637 0.0
C4 C 0.10053 0.0745 0.20081 0.0
C5 C 0.08665 0.0557 0.20534 0.0
O6 O 0.10139 0.0127 0.26198 0.0
C7 C 1.03587 0.05743 0.2508 0.0
O8 O 1.03553 0.05143 0.22841 0.0
H9 H 0.11352 0.06912 0.25438 0.0
H10 H 0.07393 0.04634 0.19334 0.0
N11 N 0.05727 1.00649 0.22813 0.0
N12 N 1.0295 0.97817 0.22117 0.0
C13 C 1.03994 0.99426 0.237 0.0
C14 C 0.05804 0.99781 0.20588 0.0
C15 C 1.04095 0.98046 0.20153 0.0
C16 C 0.11741 1.00334 0.24889 0.0
O17 O 0.11548 1.00683 0.22676 0.0
H18 H 1.03545 0.997 0.25494 0.0
H19 H 0.07025 1.0035 0.19371 0.0
O20 O 0.05324 0.04958 0.26357 0.0
H21 H 0.10095 0.08205 0.18433 0.0
H22 H 1.0373 0.97045 0.18504 0.0
Cu23 Cu 1.04441 0.02879 0.70921 0.0
N24 N 1.02517 1.00623 0.69169 0.0
N25 N 0.99835 0.97715 0.68491 0.0
C26 C 1.00913 0.99279 0.7009 0.0
C27 C 1.00813 0.98097 0.66478 0.0
C28 C 1.02464 0.99889 0.669 0.0
O29 O 1.0227 0.05122 0.72603 0.0
C30 C 0.08272 0.99876 0.71305 0.0
O31 O 0.07974 1.00093 0.6907 0.0
H32 H 1.00595 0.99414 0.7192 0.0
H33 H 1.03568 1.00582 0.65649 0.0
N34 N 0.0629 0.04766 0.6922 0.0
N35 N 0.09286 0.07184 0.68624 0.0
C36 C 0.08334 0.05801 0.70108 0.0
C37 C 0.05915 0.05526 0.67093 0.0
C38 C 0.07762 0.07018 0.6672 0.0
C39 C 1.00477 0.05852 0.71354 0.0
O40 O 1.0022 0.04995 0.69181 0.0
H41 H 0.09063 0.05591 0.71849 0.0
H42 H 1.0439 0.05065 0.65916 0.0
O43 O 0.06811 1.00998 0.72657 0.0
H44 H 1.00368 0.97156 0.64813 0.0
H45 H 0.07957 0.07914 0.65169 0.0
Cu46 Cu 0.30536 0.01596 0.00383 0.0
N47 N 0.28045 1.00194 -0.01482 0.0
N48 N 0.26266 0.97637 0.95866 0.0
C49 C 0.28289 0.98156 0.97179 0.0
C50 C 0.24684 0.99431 0.96389 0.0
C51 C 0.25788 1.01008 -0.0196 0.0
O52 O 0.32479 0.99062 0.01687 0.0
C53 C 0.31113 0.05389 0.97806 0.0
O54 O 0.29016 0.05945 -0.01328 0.0
H55 H 0.29962 0.97132 0.97094 0.0
H56 H 0.25028 0.02661 -0.01214 0.0
N57 N 0.29318 0.03501 0.02847 0.0
N58 N 0.29118 0.06278 0.05801 0.0
C59 C 0.304 0.05375 0.04011 0.0
C60 C 0.27283 0.03207 0.03931 0.0
C61 C 0.27156 0.04918 0.05761 0.0
C62 C 0.3128 0.97511 0.02572 0.0
O63 O 0.2892 0.97749 0.02537 0.0
H64 H 0.32121 0.06024 0.03585 0.0
H65 H 0.26 0.01826 0.03443 0.0
O66 O 0.32234 0.03523 -0.01597 0.0
H67 H 0.22883 0.99614 0.95602 0.0
H68 H 0.25728 0.05152 0.0696 0.0
Cu69 Cu 0.04734 0.32807 -0.01886 0.0
N70 N 0.06635 0.32922 0.95569 0.0
N71 N 0.09573 0.32688 0.93075 0.0
C72 C 0.08818 0.31961 0.95074 0.0
C73 C 0.07783 0.34116 0.92283 0.0
C74 C 0.05993 0.34261 0.9382 0.0
O75 O 0.06085 0.34614 0.00875 0.0
C76 C 1.00524 0.32414 0.95492 0.0
O77 O 1.0169 0.30437 0.9484 0.0
H78 H 0.09862 0.30834 0.96192 0.0
H79 H 1.04339 0.35308 0.93692 0.0
N80 N 1.0443 0.29762 -0.00954 0.0
N81 N 1.0271 0.27142 0.0107 0.0
C82 C 1.02365 0.29038 -0.00172 0.0
C83 C 0.0616 0.28266 -0.00181 0.0
C84 C 0.05101 0.26645 0.01078 0.0
C85 C 0.08184 0.35482 0.01021 0.0
O86 O 0.09337 0.35613 -0.00876 0.0
H87 H 1.00688 0.30056 -0.00272 0.0
H88 H 0.08073 0.28485 -0.00322 0.0
O89 O 1.01523 0.33858 0.9704 0.0
H90 H 0.07764 0.35 0.907 0.0
H91 H 0.06034 0.25326 0.02066 0.0
Cu92 Cu 0.83484 0.04876 -0.00998 0.0
N93 N 0.85665 0.06763 0.97734 0.0
N94 N 0.86948 0.1002 0.96317 0.0
C95 C 0.85151 0.09025 0.9733 0.0
C96 C 0.88666 0.08296 0.9605 0.0
C97 C 0.87868 0.06282 0.96934 0.0
O98 O 0.81373 0.0704 0.00802 0.0
C99 C 0.83143 0.0117 0.95617 0.0
O100 O 0.85371 1.00871 0.96443 0.0
H101 H 0.83429 0.09883 0.97677 0.0
H102 H 0.88797 0.04576 0.96926 0.0
N103 N 0.84989 0.02938 0.01103 0.0
N104 N 0.85266 1.00601 0.04017 0.0
C105 C 0.83779 0.01831 0.02614 0.0
C106 C 0.87335 0.02413 0.01558 0.0
C107 C 0.87511 1.00961 0.03356 0.0
C108 C 0.82525 0.08299 0.02403 0.0
O109 O 0.84874 0.07973 0.02655 0.0
H110 H 0.81843 0.01991 0.02711 0.0
H111 H 0.88811 0.03053 0.00669 0.0
O112 O 0.81875 0.02888 0.96504 0.0
H113 H 0.90349 0.08457 0.95231 0.0
H114 H 0.89165 1.00227 0.04105 0.0
Cu115 Cu 0.05495 0.73506 0.00258 0.0
N116 N 1.03272 0.71712 -0.01652 0.0
N117 N 1.00405 0.70976 0.95535 0.0
C118 C 1.02127 0.72475 0.96433 0.0
C119 C 1.0048 0.69184 0.96934 0.0
C120 C 1.02238 0.69654 -0.0132 0.0
O121 O 1.03728 0.75167 0.02742 0.0
C122 C 0.08149 0.74261 0.96598 0.0
O123 O 0.07787 0.71967 0.96297 0.0
H124 H 1.02507 0.74142 0.95758 0.0
H125 H 1.02645 0.68627 0.00146 0.0
N126 N 0.07877 0.71677 0.01708 0.0
N127 N 0.11225 0.71004 0.03897 0.0
C128 C 0.09809 0.72642 0.02891 0.0
C129 C 0.08074 0.69334 0.01956 0.0
C130 C 0.10138 0.68914 0.0332 0.0
C131 C 1.01578 0.75972 0.02456 0.0
O132 O 1.00628 0.76081 0.00343 0.0
H133 H 0.1012 0.74531 0.03074 0.0
H134 H 0.06802 0.68027 0.01228 0.0
O135 O 0.07231 0.75452 -0.01687 0.0
H136 H 0.99268 0.67707 0.96778 0.0
H137 H 0.10782 0.6721 0.03851 0.0
Cu138 Cu 0.54462 0.52786 0.7435 0.0
N139 N 0.56117 0.54639 0.72442 0.0
N140 N 0.58861 0.57187 0.71493 0.0
C141 C 0.58159 0.55803 0.73115 0.0
C142 C 0.57174 0.56869 0.69727 0.0
C143 C 0.55484 0.55312 0.70321 0.0
O144 O 0.56957 0.51162 0.76162 0.0
C145 C 0.50156 0.55297 0.75243 0.0
O146 O 0.49435 0.54004 0.73358 0.0
H147 H 0.59051 0.55704 0.7481 0.0
H148 H 0.53869 0.54777 0.69308 0.0
N149 N 0.52636 0.50333 0.72749 0.0
N150 N 0.50309 0.47124 0.72205 0.0
C151 C 0.51374 0.48739 0.73766 0.0
C152 C 0.52372 0.49702 0.70463 0.0
C153 C 0.50939 0.47734 0.70123 0.0
C154 C 0.58238 0.49759 0.74868 0.0
O155 O 0.5777 0.4966 0.72617 0.0
H156 H 0.51287 0.48745 0.75624 0.0
H157 H 0.53188 0.50584 0.69135 0.0
O158 O 0.52305 0.54996 0.76086 0.0
H159 H 0.57132 0.57721 0.68126 0.0
H160 H 0.50399 0.46833 0.68462 0.0
Cu161 Cu 0.57509 0.52611 0.20584 0.0
N162 N 0.55487 0.50321 0.19002 0.0
N163 N 0.52599 0.47587 0.18613 0.0
C164 C 0.53765 0.49242 0.2005 0.0
C165 C 0.5365 0.47632 0.1657 0.0
C166 C 0.5543 0.49312 0.16816 0.0
O167 O 0.55313 0.54837 0.22249 0.0
C168 C 0.61415 0.49665 0.20906 0.0
O169 O 0.61126 0.49941 0.18682 0.0
H170 H 0.53423 0.49638 0.2186 0.0
H171 H 0.56616 0.49737 0.15504 0.0
N172 N 0.59214 0.54522 0.18757 0.0
N173 N 0.61768 0.57341 0.18017 0.0
C174 C 0.60863 0.56102 0.19652 0.0
C175 C 0.59058 0.54763 0.16467 0.0
C176 C 0.6063 0.56495 0.16006 0.0
C177 C 0.53786 0.5573 0.20816 0.0
O178 O 0.53931 0.55055 0.18604 0.0
H179 H 0.61336 0.56374 0.21487 0.0
H180 H 0.57864 0.53781 0.15224 0.0
O181 O 0.59953 0.50762 0.22274 0.0
H182 H 0.53173 0.46537 0.15 0.0
H183 H 0.60905 0.57081 0.14316 0.0
Cu184 Cu 0.77915 0.50726 0.46818 0.0
N185 N 0.76402 0.52375 0.44488 0.0
N186 N 0.7598 0.54864 0.41702 0.0
C187 C 0.77318 0.54237 0.43575 0.0
C188 C 0.74133 0.53345 0.41444 0.0
C189 C 0.74398 0.5181 0.43171 0.0
O190 O 0.79663 0.52916 0.48996 0.0
C191 C 0.81318 0.48483 0.43787 0.0
O192 O 0.81499 0.50579 0.43006 0.0
H193 H 0.79017 0.55016 0.4419 0.0
H194 H 0.73269 0.50328 0.43397 0.0
N195 N 0.757 0.49203 0.48416 0.0
N196 N 0.74628 0.46464 0.5069 0.0
C197 C 0.76061 0.46974 0.49007 0.0
C198 C 0.73928 0.50139 0.49718 0.0
C199 C 0.73252 0.48445 0.51119 0.0
C200 C 0.80445 0.52296 0.50962 0.0
O201 O 0.80229 0.50084 0.51434 0.0
H202 H 0.77498 0.45826 0.48345 0.0
H203 H 0.73331 0.5198 0.49796 0.0
O204 O 0.79991 0.48255 0.45462 0.0
H205 H 0.72726 0.53306 0.40074 0.0
H206 H 0.72013 0.48731 0.52496 0.0
Cu207 Cu 0.56015 0.82309 0.48389 0.0
N208 N 0.58147 0.84104 0.46904 0.0
N209 N 0.60963 0.84845 0.44459 0.0
C210 C 0.59382 0.83265 0.45062 0.0
C211 C 0.60678 0.86778 0.45965 0.0
C212 C 0.58946 0.86311 0.47477 0.0
O213 O 0.57841 0.80554 0.50657 0.0
C214 C 0.52227 0.79523 0.46188 0.0
O215 O 0.51445 0.79475 0.48276 0.0
H216 H 0.59157 0.815 0.44214 0.0
H217 H 0.58364 0.87469 0.48932 0.0
N218 N 0.53739 0.84168 0.50032 0.0
N219 N 0.50737 0.84918 0.52437 0.0
C220 C 0.52603 0.83452 0.51833 0.0
C221 C 0.52582 0.86181 0.49486 0.0
C222 C 0.50733 0.86652 0.50969 0.0
C223 C 0.5996 0.79704 0.50389 0.0
O224 O 0.6087 0.7966 0.48346 0.0
H225 H 0.53032 0.81786 0.52565 0.0
H226 H 0.52975 0.87166 0.4804 0.0
O227 O 0.54269 0.80405 0.45947 0.0
H228 H 0.61716 0.88375 0.46031 0.0
H229 H 0.49442 0.88116 0.50914 0.0
Cu230 Cu 0.30759 0.53167 0.50423 0.0
N231 N 0.3294 0.54822 0.48901 0.0
N232 N 0.34225 0.57702 0.46918 0.0
C233 C 0.32388 0.56905 0.48034 0.0
C234 C 0.36012 0.56049 0.47088 0.0
C235 C 0.35216 0.54273 0.4833 0.0
O236 O 0.29332 0.55487 0.52641 0.0
C237 C 0.2754 0.49763 0.48204 0.0
O238 O 0.27721 0.48809 0.50194 0.0
H239 H 0.30633 0.57774 0.4815 0.0
H240 H 0.36215 0.52687 0.48752 0.0
N241 N 0.32313 0.50762 0.5198 0.0
N242 N 0.33063 0.48174 0.54645 0.0
C243 C 0.3187 0.50185 0.54115 0.0
C244 C 0.33832 0.4906 0.5112 0.0
C245 C 0.3431 0.47467 0.52765 0.0
C246 C 0.30847 0.56479 0.5412 0.0
O247 O 0.33119 0.55771 0.5408 0.0
H248 H 0.30633 0.51187 0.5522 0.0
H249 H 0.34448 0.4892 0.49379 0.0
O250 O 0.28524 0.51743 0.48041 0.0
H251 H 0.37755 0.56111 0.46354 0.0
H252 H 0.35386 0.45848 0.52539 0.0
Cu253 Cu 0.56664 0.21554 0.50558 0.0
N254 N 0.58497 0.19788 0.48408 0.0
N255 N 0.6136 0.1902 0.45881 0.0
C256 C 0.60572 0.20502 0.47642 0.0
C257 C 0.59712 0.17298 0.45538 0.0
C258 C 0.57938 0.17786 0.47091 0.0
O259 O 0.58892 0.23162 0.52861 0.0
C260 C 0.52758 0.22629 0.47638 0.0
O261 O 0.52419 0.20366 0.47827 0.0
H262 H 0.61443 0.2212 0.48327 0.0
H263 H 0.56302 0.16813 0.47176 0.0
N264 N 0.54799 0.19596 0.52139 0.0
N265 N 0.52087 0.18546 0.54537 0.0
C266 C 0.53068 0.20357 0.53572 0.0
C267 C 0.54932 0.17222 0.52202 0.0
C268 C 0.53251 0.16568 0.53673 0.0
C269 C 0.603 0.21768 0.53949 0.0
O270 O 0.60146 0.19473 0.534 0.0
H271 H 0.52543 0.22207 0.53896 0.0
H272 H 0.56198 0.16054 0.51289 0.0
O273 O 0.54535 0.23624 0.48784 0.0
H274 H 0.59714 0.15861 0.44181 0.0
H275 H 0.5296 0.14784 0.54123 0.0
Tb276 Tb 0.32541 0.29296 0.26465 0.0
C277 C 0.31668 0.26961 0.21422 0.0
Tb278 Tb 0.28446 0.31415 0.23227 0.0
O279 O 0.30427 0.26406 0.27649 0.0
O280 O 0.28887 0.28841 0.25596 0.0
O281 O 0.33303 0.27369 0.23165 0.0
C282 C 0.24847 0.32306 0.20144 0.0
O283 O 0.29579 0.28159 0.21256 0.0
C284 C 0.32501 0.33788 0.23839 0.0
C285 C 0.28815 0.33287 0.28472 0.0
O286 O 0.2713 0.32459 0.19832 0.0
O287 O 0.24578 0.31637 0.22203 0.0
O288 O 0.30379 0.34741 0.23456 0.0
O289 O 0.32302 0.3156 0.23695 0.0
O290 O 0.27381 0.33055 0.26557 0.0
O291 O 0.30942 0.32163 0.28693 0.0
C292 C 0.36629 0.28925 0.29095 0.0
O293 O 0.35499 0.30897 0.28676 0.0
O294 O 0.35482 0.27166 0.27989 0.0
C295 C 0.28448 0.26966 0.26494 0.0
Tb296 Tb 0.80109 0.25761 0.25842 0.0
C297 C 0.85333 0.23518 0.25217 0.0
Tb298 Tb 0.83151 0.27553 0.22125 0.0
O299 O 0.7744 0.24419 0.23119 0.0
O300 O 0.81041 0.24585 0.22442 0.0
O301 O 0.83462 0.2379 0.26552 0.0
C302 C 0.8575 0.27797 0.18432 0.0
O303 O 0.85502 0.24689 0.23342 0.0
C304 C 0.83212 0.30242 0.26011 0.0
C305 C 0.78134 0.30056 0.23179 0.0
O306 O 0.86525 0.28233 0.20574 0.0
O307 O 0.83478 0.27281 0.1836 0.0
O308 O 0.83574 0.31021 0.24021 0.0
O309 O 0.83096 0.2801 0.25784 0.0
O310 O 0.79676 0.29447 0.21535 0.0
O311 O 0.78218 0.2905 0.25163 0.0
C312 C 0.78148 0.24447 0.29602 0.0
O313 O 0.7863 0.26616 0.29241 0.0
O314 O 0.78781 0.23026 0.27852 0.0
C315 C 0.7899 0.24147 0.21525 0.0
Tb316 Tb 0.80662 0.80771 0.22498 0.0
C317 C 0.78646 0.8002 0.27322 0.0
Tb318 Tb 0.82697 0.76429 0.25178 0.0
O319 O 0.77638 0.78865 0.20529 0.0
O320 O 0.7996 0.77229 0.22767 0.0
O321 O 0.79007 0.81582 0.25794 0.0
C322 C 0.82954 0.72449 0.27319 0.0
O323 O 0.79723 0.7788 0.27256 0.0
C324 C 0.85481 0.80128 0.25365 0.0
C325 C 0.84482 0.77076 0.20201 0.0
O326 O 0.8351 0.74542 0.2827 0.0
O327 O 0.82318 0.72592 0.25146 0.0
O328 O 0.86269 0.77976 0.25642 0.0
O329 O 0.83197 0.80153 0.25284 0.0
O330 O 0.84286 0.75576 0.2183 0.0
O331 O 0.83363 0.79186 0.20225 0.0
C332 C 0.80625 0.84967 0.20777 0.0
O333 O 0.78708 0.83888 0.21277 0.0
O334 O 0.8253 0.83682 0.21239 0.0
C335 C 0.78118 0.76875 0.21452 0.0
Tb336 Tb 0.33281 0.79095 0.22587 0.0
C337 C 0.35283 0.73934 0.23546 0.0
Tb338 Tb 0.31036 0.76529 0.26378 0.0
O339 O 0.35077 0.81576 0.25255 0.0
O340 O 0.34283 0.78178 0.25939 0.0
O341 O 0.35275 0.75689 0.22145 0.0
C342 C 0.30392 0.74324 0.30151 0.0
O343 O 0.33841 0.73951 0.25304 0.0
C344 C 0.28396 0.76631 0.22498 0.0
C345 C 0.29323 0.81735 0.25624 0.0
O346 O 0.2994 0.73437 0.28035 0.0
O347 O 0.31156 0.76472 0.3014 0.0
O348 O 0.27519 0.76509 0.2451 0.0
O349 O 0.30664 0.76446 0.22707 0.0
O350 O 0.29725 0.80164 0.27184 0.0
O351 O 0.30278 0.81477 0.23569 0.0
C352 C 0.34353 0.80748 0.18603 0.0
O353 O 0.35888 0.80404 0.20322 0.0
O354 O 0.32231 0.8012 0.19118 0.0
C355 C 0.3507 0.80103 0.26856 0.0
Tb356 Tb 0.28231 0.77032 0.76432 0.0
C357 C 0.33348 0.74834 0.75663 0.0
Tb358 Tb 0.31111 0.78957 0.72635 0.0
O359 O 0.2798 0.73564 0.74528 0.0
O360 O 0.28202 0.76616 0.72739 0.0
O361 O 0.31652 0.75225 0.77187 0.0
C362 C 0.3391 0.7972 0.69166 0.0
O363 O 0.33318 0.75905 0.73702 0.0
C364 C 0.31047 0.81596 0.76562 0.0
C365 C 0.25998 0.812 0.73492 0.0
O366 O 0.34429 0.80218 0.71356 0.0
O367 O 0.31792 0.78774 0.68911 0.0
O368 O 0.31265 0.82435 0.74575 0.0
O369 O 0.31097 0.79363 0.76286 0.0
O370 O 0.27687 0.80844 0.71951 0.0
O371 O 0.26015 0.80049 0.75393 0.0
C372 C 0.2555 0.76684 0.80077 0.0
O373 O 0.24995 0.75869 0.77962 0.0
O374 O 0.27648 0.77649 0.80152 0.0
C375 C 0.28218 0.74372 0.72524 0.0
Tb376 Tb 0.31112 0.27568 0.73507 0.0
C377 C 0.29039 0.27133 0.78362 0.0
Tb378 Tb 0.33104 0.235 0.76494 0.0
O379 O 0.28029 0.25744 0.71681 0.0
O380 O 0.30271 0.24074 0.74021 0.0
O381 O 0.29464 0.28617 0.76777 0.0
C382 C 0.33804 0.20102 0.79404 0.0
O383 O 0.30052 0.24979 0.78378 0.0
C384 C 0.35855 0.27215 0.76314 0.0
C385 C 0.34632 0.23423 0.71416 0.0
O386 O 0.3423 0.22338 0.79892 0.0
O387 O 0.32993 0.19765 0.77257 0.0
O388 O 0.36693 0.25081 0.76572 0.0
O389 O 0.33594 0.27199 0.76345 0.0
O390 O 0.34328 0.22106 0.7316 0.0
O391 O 0.33752 0.25632 0.71347 0.0
C392 C 0.31256 0.31546 0.71384 0.0
O393 O 0.33028 0.3003 0.71625 0.0
O394 O 0.29383 0.30835 0.72358 0.0
C395 C 0.2841 0.23789 0.7269 0.0
Tb396 Tb 0.81176 0.30554 0.72842 0.0
C397 C 0.83464 0.25452 0.73919 0.0
Tb398 Tb 0.79729 0.28235 0.77125 0.0
O399 O 0.83421 0.33114 0.74974 0.0
O400 O 0.82853 0.29734 0.7602 0.0
O401 O 0.83133 0.27088 0.72392 0.0
C402 C 0.79596 0.27239 0.81519 0.0
O403 O 0.82466 0.25657 0.75955 0.0
C404 C 0.7709 0.27192 0.73296 0.0
C405 C 0.77568 0.33359 0.76209 0.0
O406 O 0.78292 0.26241 0.79796 0.0
O407 O 0.80923 0.28819 0.80763 0.0
O408 O 0.77393 0.25767 0.7494 0.0
O409 O 0.78038 0.29134 0.73971 0.0
O410 O 0.77995 0.31746 0.77729 0.0
O411 O 0.78409 0.33105 0.74095 0.0
C412 C 0.81203 0.31591 0.68452 0.0
O413 O 0.82426 0.32675 0.70184 0.0
O414 O 0.8003 0.29881 0.6919 0.0
C415 C 0.83729 0.31728 0.7665 0.0
Tb416 Tb 0.81381 0.74995 0.71761 0.0
C417 C 0.83432 0.75774 0.76814 0.0
Tb418 Tb 0.79316 0.79149 0.74676 0.0
O419 O 0.84893 0.76662 0.71921 0.0
O420 O 0.81752 0.78759 0.7198 0.0
O421 O 0.83044 0.74152 0.75058 0.0
C422 C 0.78707 0.83139 0.77433 0.0
O423 O 0.82391 0.77922 0.76861 0.0
C424 C 0.76594 0.75402 0.74257 0.0
C425 C 0.77076 0.78116 0.69671 0.0
O426 O 0.78237 0.81015 0.77933 0.0
O427 O 0.79506 0.83023 0.75366 0.0
O428 O 0.75776 0.77568 0.74618 0.0
O429 O 0.78876 0.75401 0.74405 0.0
O430 O 0.77436 0.79806 0.71381 0.0
O431 O 0.7823 0.76032 0.69643 0.0
C432 C 0.82197 0.71176 0.68848 0.0
O433 O 0.82575 0.73352 0.68462 0.0
O434 O 0.81365 0.71138 0.7089 0.0
C435 C 0.84026 0.78816 0.72157 0.0
H436 H 0.11442 0.12034 0.19493 0.0
H437 H 0.14225 0.15335 0.20045 0.0
H438 H 0.1769 0.12252 0.25946 0.0
H439 H 0.14966 0.08912 0.25369 0.0
H440 H 0.15054 0.18675 0.23794 0.0
H441 H 0.23384 0.13356 0.2208 0.0
H442 H 0.20412 0.12202 0.21376 0.0
H443 H 0.2169 0.12275 0.24299 0.0
C444 C 0.12812 0.12034 0.20893 0.0
C445 C 0.12976 0.10178 0.22374 0.0
C446 C 0.14395 0.13941 0.21217 0.0
C447 C 0.16198 0.14035 0.23016 0.0
C448 C 0.16348 0.12205 0.24517 0.0
H449 H 0.27498 0.23164 0.28765 0.0
H450 H 0.24418 0.20197 0.27803 0.0
C451 C 0.14764 0.10301 0.24198 0.0
C452 C 0.17908 0.16049 0.23343 0.0
H453 H 0.23908 0.17316 0.23741 0.0
C454 C 0.1699 0.18381 0.23762 0.0
C455 C 0.20436 0.15678 0.23285 0.0
C456 C 0.21542 0.13246 0.22713 0.0
C457 C 0.18531 0.20328 0.24221 0.0
C458 C 0.21062 0.19943 0.24229 0.0
C459 C 0.21972 0.17619 0.23749 0.0
C460 C 0.22814 0.21884 0.24863 0.0
C461 C 0.17441 0.22767 0.2478 0.0
C462 C 0.22939 0.23856 0.23547 0.0
C463 C 0.24708 0.25578 0.24108 0.0
C464 C 0.26388 0.25349 0.25985 0.0
C465 C 0.26227 0.23399 0.27312 0.0
C466 C 0.24468 0.21692 0.26759 0.0
H467 H 0.15515 0.22693 0.25183 0.0
H468 H 0.18447 0.23709 0.26275 0.0
H469 H 0.17551 0.23823 0.23265 0.0
H470 H 0.21717 0.24027 0.22048 0.0
H471 H 0.24813 0.27036 0.2303 0.0
H472 H 0.99189 0.06476 0.23026 0.0
H473 H 0.96204 0.09542 0.24057 0.0
H474 H 1.00577 0.11818 0.30179 0.0
H475 H 1.03638 0.08731 0.29119 0.0
H476 H 0.93502 0.10593 0.27858 0.0
H477 H 0.99794 0.17845 0.26695 0.0
H478 H 1.0048 0.14784 0.25777 0.0
H479 H 1.00703 0.1579 0.28798 0.0
C480 C 0.99518 0.0761 0.24607 0.0
C481 C 1.01666 0.0738 0.25976 0.0
C482 C 0.97798 0.0936 0.25199 0.0
C483 C 0.98179 0.10936 0.27174 0.0
C484 C 1.00265 0.10643 0.28625 0.0
H485 H 0.86009 0.21205 0.29184 0.0
H486 H 0.89194 0.18308 0.30111 0.0
C487 C 1.02 0.08869 0.28031 0.0
C488 C 0.96427 0.12944 0.27575 0.0
H489 H 0.9573 0.18908 0.27107 0.0
C490 C 0.9399 0.12421 0.27741 0.0
C491 C 0.97069 0.15322 0.27393 0.0
C492 C 0.99648 0.15984 0.27141 0.0
C493 C 0.92165 0.14182 0.27603 0.0
C494 C 0.92801 0.16549 0.27347 0.0
C495 C 0.95248 0.17095 0.27304 0.0
C496 C 0.90952 0.18428 0.2689 0.0
C497 C 0.89568 0.1346 0.27581 0.0
C498 C 0.90925 0.19525 0.24807 0.0
C499 C 0.89124 0.21201 0.24282 0.0
C500 C 0.87303 0.21815 0.25827 0.0
C501 C 0.87366 0.20756 0.2794 0.0
C502 C 0.89182 0.1909 0.28472 0.0
H503 H 0.89379 0.11505 0.27294 0.0
H504 H 0.88823 0.14053 0.29274 0.0
H505 H 0.88463 0.14304 0.26208 0.0
H506 H 0.92273 0.19046 0.2356 0.0
H507 H 0.89139 0.21981 0.22642 0.0
H508 H 0.99949 0.9797 0.25714 0.0
H509 H 0.96847 0.95156 0.2633 0.0
H510 H 0.98424 0.91134 0.19932 0.0
H511 H 1.01569 0.93898 0.19312 0.0
H512 H 0.93307 0.92071 0.20632 0.0
H513 H 0.9816 0.88226 0.28132 0.0
H514 H 0.97851 0.91409 0.28308 0.0
H515 H 0.99667 0.89903 0.26152 0.0
C516 C 0.9967 0.96481 0.2444 0.0
C517 C 1.01054 0.96177 0.22465 0.0
C518 C 0.97878 0.9487 0.24798 0.0
C519 C 0.97412 0.92917 0.2319 0.0
C520 C 0.98748 0.92626 0.21199 0.0
H521 H 0.90221 0.79833 0.24497 0.0
H522 H 0.92951 0.83032 0.23984 0.0
C523 C 1.00551 0.94225 0.20845 0.0
C524 C 0.95547 0.91165 0.23587 0.0
H525 H 0.94245 0.86859 0.27091 0.0
C526 C 0.93507 0.90935 0.22048 0.0
C527 C 0.9581 0.89675 0.25428 0.0
C528 C 0.97995 0.89791 0.27096 0.0
C529 C 0.91731 0.89257 0.22298 0.0
C530 C 0.91989 0.87768 0.24144 0.0
C531 C 0.9403 0.88006 0.25685 0.0
C532 C 0.90258 0.85846 0.24428 0.0
C533 C 0.89615 0.89065 0.20556 0.0
C534 C 0.8782 0.86349 0.24867 0.0
C535 C 0.86246 0.84507 0.25179 0.0
C536 C 0.87078 0.8213 0.2504 0.0
C537 C 0.89517 0.81642 0.24612 0.0
C538 C 0.91084 0.83473 0.24315 0.0
H539 H 0.89971 0.89902 0.18949 0.0
H540 H 0.89151 0.87182 0.20088 0.0
H541 H 0.88034 0.89997 0.21332 0.0
H542 H 0.87142 0.88166 0.25001 0.0
H543 H 0.8439 0.84944 0.2555 0.0
H544 H 0.12064 0.97876 0.28821 0.0
H545 H 0.15196 0.94908 0.29835 0.0
H546 H 0.18958 0.96233 0.23792 0.0
H547 H 0.15887 0.99171 0.22789 0.0
H548 H 0.16415 0.90766 0.27038 0.0
H549 H 0.24394 0.96379 0.28801 0.0
H550 H 0.2135 0.9759 0.28795 0.0
H551 H 0.22817 0.96947 0.26116 0.0
C552 C 0.13588 0.97565 0.27742 0.0
C553 C 0.13727 0.9876 0.25726 0.0
C554 C 0.15369 0.95864 0.28315 0.0
C555 C 0.17333 0.95369 0.26906 0.0
C556 C 0.17495 0.96614 0.24934 0.0
H557 H 0.28317 0.85481 0.23011 0.0
H558 H 0.25429 0.88757 0.23721 0.0
C559 C 0.15721 0.98286 0.24355 0.0
C560 C 0.19128 0.93433 0.27345 0.0
H561 H 0.25197 0.92239 0.27624 0.0
C562 C 0.18334 0.91087 0.27224 0.0
C563 C 0.21633 0.93851 0.27584 0.0
C564 C 0.22598 0.96332 0.27856 0.0
C565 C 0.19981 0.89147 0.27177 0.0
C566 C 0.22487 0.89568 0.27283 0.0
C567 C 0.23277 0.91916 0.27526 0.0
C568 C 0.24306 0.87605 0.26945 0.0
C569 C 0.1903 0.86661 0.26879 0.0
C570 C 0.24669 0.85882 0.28543 0.0
C571 C 0.26332 0.83998 0.28145 0.0
C572 C 0.27662 0.83801 0.26138 0.0
C573 C 0.27324 0.85563 0.2457 0.0
C574 C 0.25673 0.87444 0.24975 0.0
H575 H 0.17055 0.86643 0.26451 0.0
H576 H 0.19957 0.85586 0.25487 0.0
H577 H 0.19393 0.85796 0.28512 0.0
H578 H 0.23659 0.85988 0.30092 0.0
H579 H 0.26546 0.82679 0.29392 0.0
H580 H 0.08525 0.971 0.7501 0.0
H581 H 0.11648 0.94041 0.75802 0.0
H582 H 0.15592 0.96061 0.70115 0.0
H583 H 0.12525 0.99084 0.69335 0.0
H584 H 0.12838 0.90237 0.72521 0.0
H585 H 0.20913 0.95519 0.75192 0.0
H586 H 0.17889 0.96776 0.75249 0.0
H587 H 0.19403 0.96402 0.72576 0.0
C588 C 0.10095 0.96927 0.73978 0.0
C589 C 0.10283 0.98327 0.72112 0.0
C590 C 0.11868 0.95174 0.74419 0.0
C591 C 0.13869 0.94837 0.7303 0.0
C592 C 0.14096 0.9631 0.71237 0.0
H593 H 0.25611 0.84638 0.70377 0.0
H594 H 0.22602 0.87903 0.70258 0.0
C595 C 0.12328 0.98031 0.70785 0.0
C596 C 0.1561 0.92815 0.73273 0.0
H597 H 0.21633 0.91441 0.73867 0.0
C598 C 0.14757 0.90497 0.72851 0.0
C599 C 0.18118 0.93157 0.7367 0.0
C600 C 0.19136 0.95598 0.74219 0.0
C601 C 0.16349 0.88518 0.72742 0.0
C602 C 0.18862 0.88862 0.73104 0.0
C603 C 0.19711 0.91179 0.73564 0.0
C604 C 0.20629 0.86836 0.73094 0.0
C605 C 0.15331 0.8608 0.72166 0.0
C606 C 0.2052 0.85158 0.74724 0.0
C607 C 0.22218 0.83296 0.74788 0.0
C608 C 0.24087 0.83069 0.73232 0.0
C609 C 0.24186 0.84742 0.71583 0.0
C610 C 0.22476 0.86616 0.71523 0.0
H611 H 0.13493 0.86169 0.71314 0.0
H612 H 0.16512 0.84962 0.71011 0.0
H613 H 0.15204 0.85197 0.73789 0.0
H614 H 0.19146 0.85314 0.75983 0.0
H615 H 0.22083 0.82057 0.76095 0.0
H616 H 0.1029 0.11207 0.66639 0.0
H617 H 0.13799 0.13711 0.67508 0.0
H618 H 0.1659 0.08997 0.72523 0.0
H619 H 0.13126 0.06448 0.7162 0.0
H620 H 0.15179 0.16052 0.71786 0.0
H621 H 0.22471 0.09817 0.68757 0.0
H622 H 0.19327 0.09323 0.67956 0.0
H623 H 0.20544 0.08703 0.7078 0.0
C624 C 0.11666 0.10676 0.67898 0.0
C625 C 0.11412 0.08618 0.69058 0.0
C626 C 0.13669 0.12121 0.68405 0.0
C627 C 0.15478 0.11534 0.70065 0.0
C628 C 0.15244 0.09471 0.71209 0.0
H629 H 0.28342 0.19823 0.75183 0.0
H630 H 0.25293 0.16693 0.74747 0.0
C631 C 0.1324 0.08027 0.70708 0.0
C632 C 0.17539 0.13147 0.7067 0.0
H633 H 0.23677 0.13522 0.70603 0.0
C634 C 0.17035 0.15493 0.71531 0.0
C635 C 0.1997 0.12414 0.70366 0.0
C636 C 0.20621 0.09933 0.69397 0.0
C637 C 0.18882 0.17131 0.72063 0.0
C638 C 0.21303 0.16423 0.71689 0.0
C639 C 0.21822 0.1406 0.70895 0.0
C640 C 0.23263 0.18184 0.719 0.0
C641 C 0.18222 0.19619 0.73008 0.0
C642 C 0.23172 0.20011 0.70409 0.0
C643 C 0.24895 0.21773 0.70652 0.0
C644 C 0.26768 0.21752 0.72382 0.0
C645 C 0.26923 0.19878 0.73831 0.0
C646 C 0.25181 0.18098 0.73586 0.0
H647 H 0.16447 0.19693 0.73806 0.0
H648 H 0.1961 0.20321 0.74321 0.0
H649 H 0.18103 0.20798 0.71571 0.0
H650 H 0.21738 0.20094 0.69072 0.0
H651 H 0.24733 0.23183 0.69497 0.0
H652 H 1.01398 0.09929 0.74175 0.0
H653 H 0.98651 0.1339 0.74761 0.0
H654 H 0.92952 0.09494 0.70916 0.0
H655 H 0.95704 0.06099 0.70259 0.0
H656 H 0.93333 0.13638 0.69289 0.0
H657 H 0.93172 0.15051 0.78855 0.0
H658 H 0.96143 0.15061 0.77792 0.0
H659 H 0.94435 0.12387 0.77412 0.0
C660 C 0.99539 0.09798 0.73516 0.0
C661 C 0.98759 0.07744 0.72182 0.0
C662 C 0.97967 0.11778 0.73847 0.0
C663 C 0.95579 0.11712 0.72889 0.0
C664 C 0.94781 0.09606 0.71662 0.0
H665 H 0.83561 0.21235 0.75848 0.0
H666 H 0.86565 0.18021 0.75486 0.0
C667 C 0.96353 0.07657 0.71301 0.0
C668 C 0.9394 0.13856 0.73 0.0
H669 H 0.91209 0.17988 0.76701 0.0
C670 C 0.92869 0.14587 0.70914 0.0
C671 C 0.9332 0.15098 0.75114 0.0
C672 C 0.94308 0.14351 0.77422 0.0
C673 C 0.9117 0.16477 0.70881 0.0
C674 C 0.90569 0.17737 0.72993 0.0
C675 C 0.91673 0.17036 0.75078 0.0
C676 C 0.88698 0.19691 0.73101 0.0
C677 C 0.89967 0.17036 0.68588 0.0
C678 C 0.88861 0.21708 0.71858 0.0
C679 C 0.87106 0.23545 0.7203 0.0
C680 C 0.85183 0.23421 0.73487 0.0
C681 C 0.85019 0.21394 0.74712 0.0
C682 C 0.86747 0.19553 0.74515 0.0
H683 H 0.90123 0.15519 0.67252 0.0
H684 H 0.88027 0.17498 0.6876 0.0
H685 H 0.90856 0.18572 0.67958 0.0
H686 H 0.90373 0.21891 0.70794 0.0
H687 H 0.87305 0.25096 0.71092 0.0
H688 H 0.98903 0.93567 0.65898 0.0
H689 H 0.96004 0.90581 0.66624 0.0
H690 H 0.93869 0.9486 0.72707 0.0
H691 H 0.96758 0.97858 0.71992 0.0
H692 H 0.94641 0.90226 0.7356 0.0
H693 H 0.88712 0.90737 0.65613 0.0
H694 H 0.91824 0.90194 0.65024 0.0
H695 H 0.90916 0.92953 0.66543 0.0
C696 C 0.97796 0.93895 0.67373 0.0
C697 C 0.98073 0.95968 0.68881 0.0
C698 C 0.96132 0.92182 0.67785 0.0
C699 C 0.94685 0.92504 0.69703 0.0
C700 C 0.94957 0.94568 0.71213 0.0
H701 H 0.82465 0.83403 0.71614 0.0
H702 H 0.84959 0.86847 0.71187 0.0
C703 C 0.96623 0.9628 0.70805 0.0
C704 C 0.92956 0.90654 0.70184 0.0
H705 H 0.88177 0.87428 0.67812 0.0
C706 C 0.93218 0.89628 0.72308 0.0
C707 C 0.91068 0.89892 0.68571 0.0
C708 C 0.90592 0.91016 0.6632 0.0
C709 C 0.91701 0.87817 0.7283 0.0
C710 C 0.8989 0.86974 0.71171 0.0
C711 C 0.89576 0.88053 0.69078 0.0
C712 C 0.88365 0.84921 0.71537 0.0
C713 C 0.92044 0.86834 0.75166 0.0
C714 C 0.8944 0.8269 0.7187 0.0
C715 C 0.88022 0.80732 0.72121 0.0
C716 C 0.85492 0.8095 0.72029 0.0
C717 C 0.8441 0.83184 0.71711 0.0
C718 C 0.85834 0.85149 0.71456 0.0
H719 H 0.92959 0.88115 0.76462 0.0
H720 H 0.90291 0.86377 0.75823 0.0
H721 H 0.93191 0.85196 0.75004 0.0
H722 H 0.91382 0.8245 0.7189 0.0
H723 H 0.88911 0.79032 0.72353 0.0
H724 H 0.31478 0.10204 0.04962 0.0
H725 H 0.32379 0.13639 0.07699 0.0
H726 H 0.29083 0.10249 0.13073 0.0
H727 H 0.28131 0.06838 0.10324 0.0
H728 H 0.27476 0.14644 0.12934 0.0
H729 H 0.37434 0.14643 0.12881 0.0
H730 H 0.36033 0.14714 0.10027 0.0
H731 H 0.35683 0.12168 0.1163 0.0
C732 C 0.30977 0.10181 0.06736 0.0
C733 C 0.29733 0.08257 0.07432 0.0
C734 C 0.31506 0.12138 0.08302 0.0
C735 C 0.30841 0.12185 0.10605 0.0
C736 C 0.29623 0.10249 0.11308 0.0
H737 H 0.34533 0.22982 0.21848 0.0
H738 H 0.34521 0.19363 0.19195 0.0
C739 C 0.29068 0.08307 0.09736 0.0
C740 C 0.31245 0.14322 0.12235 0.0
H741 H 0.35523 0.18205 0.14529 0.0
C742 C 0.29241 0.15407 0.13296 0.0
C743 C 0.33553 0.15302 0.12734 0.0
C744 C 0.35801 0.14132 0.11777 0.0
C745 C 0.29467 0.17474 0.14794 0.0
C746 C 0.31749 0.1853 0.15189 0.0
C747 C 0.3377 0.17413 0.14188 0.0
C748 C 0.32042 0.20801 0.16633 0.0
C749 C 0.27259 0.18494 0.15959 0.0
C750 C 0.30745 0.22834 0.16016 0.0
C751 C 0.30733 0.24886 0.17527 0.0
C752 C 0.32052 0.24956 0.19669 0.0
C753 C 0.33502 0.2298 0.20208 0.0
C754 C 0.33492 0.20911 0.18699 0.0
H755 H 0.25858 0.17138 0.16006 0.0
H756 H 0.27722 0.19229 0.1776 0.0
H757 H 0.26466 0.19951 0.14974 0.0
H758 H 0.29664 0.22803 0.14401 0.0
H759 H 0.29623 0.26392 0.1705 0.0
H760 H 1.03473 0.26173 0.0554 0.0
H761 H 1.00356 0.25722 0.08274 0.0
H762 H 0.94879 0.25935 0.02717 0.0
H763 H 0.97999 0.26452 -5e-05 0.0
H764 H 0.93927 0.29124 0.06158 0.0
H765 H 0.96081 0.20578 0.09858 0.0
H766 H 0.9864 0.22461 0.10075 0.0
H767 H 0.9739 0.21378 0.07264 0.0
C768 C 1.01612 0.26039 0.04892 0.0
C769 C 1.00972 0.26341 0.02559 0.0
C770 C 0.99828 0.2578 0.06455 0.0
C771 C 0.97378 0.25774 0.05701 0.0
C772 C 0.96753 0.25933 0.03341 0.0
H773 H 0.84441 0.26655 0.13866 0.0
H774 H 0.87124 0.26083 0.10624 0.0
C775 C 0.98533 0.26219 0.01787 0.0
C776 C 0.95466 0.25899 0.07403 0.0
H777 H 0.93542 0.23336 0.12073 0.0
C778 C 0.93819 0.27833 0.07424 0.0
C779 C 0.95324 0.2422 0.09061 0.0
C780 C 0.96939 0.2203 0.09051 0.0
C781 C 0.92097 0.2818 0.09108 0.0
C782 C 0.92018 0.26551 0.10811 0.0
C783 C 0.9362 0.24587 0.10764 0.0
C784 C 0.90372 0.26932 0.12732 0.0
C785 C 0.9043 0.30333 0.09113 0.0
C786 C 0.91315 0.27606 0.14974 0.0
C787 C 0.89792 0.27953 0.16813 0.0
C788 C 0.87302 0.27611 0.16442 0.0
C789 C 0.86352 0.26949 0.14192 0.0
C790 C 0.8788 0.26616 0.12345 0.0
H791 H 0.90907 0.31572 0.07833 0.0
H792 H 0.88552 0.29758 0.08689 0.0
H793 H 0.9048 0.31302 0.10861 0.0
H794 H 0.93234 0.2786 0.15301 0.0
H795 H 0.90573 0.28449 0.18533 0.0
H796 H 0.88078 0.99288 0.07705 0.0
H797 H 0.86868 0.96969 0.10791 0.0
H798 H 0.79641 0.96635 0.07679 0.0
H799 H 0.80852 0.98823 0.04529 0.0
H800 H 0.83398 0.97907 0.13981 0.0
H801 H 0.81309 0.89719 0.08322 0.0
H802 H 0.8291 0.9214 0.07337 0.0
H803 H 0.79681 0.92312 0.07461 0.0
C804 C 0.86241 0.98694 0.07653 0.0
C805 C 0.8457 0.99241 0.05853 0.0
C806 C 0.85547 0.97389 0.09432 0.0
C807 C 0.83174 0.96608 0.09444 0.0
C808 C 0.81492 0.97185 0.07679 0.0
H809 H 0.76864 0.87222 0.18564 0.0
H810 H 0.77166 0.9046 0.16031 0.0
C811 C 0.82187 0.98466 0.05891 0.0
C812 C 0.82462 0.9517 0.11291 0.0
H813 H 0.80351 0.89752 0.12236 0.0
C814 C 0.82724 0.96126 0.13602 0.0
C815 C 0.81579 0.92851 0.10785 0.0
C816 C 0.81372 0.91683 0.08345 0.0
C817 C 0.82149 0.94808 0.15428 0.0
C818 C 0.81298 0.92484 0.14918 0.0
C819 C 0.80975 0.91552 0.12609 0.0
C820 C 0.81005 0.90873 0.16742 0.0
C821 C 0.8248 0.95894 0.17886 0.0
C822 C 0.83055 0.90074 0.17992 0.0
C823 C 0.82888 0.88225 0.19407 0.0
C824 C 0.80671 0.87153 0.19596 0.0
C825 C 0.7859 0.88036 0.18449 0.0
C826 C 0.78761 0.89877 0.17008 0.0
H827 H 0.82516 0.97863 0.17964 0.0
H828 H 0.81016 0.9537 0.18952 0.0
H829 H 0.84221 0.95247 0.18662 0.0
H830 H 0.84808 0.9079 0.17772 0.0
H831 H 0.84511 0.8756 0.20275 0.0
H832 H 0.14432 0.74477 0.03674 0.0
H833 H 0.17812 0.75491 0.0643 0.0
H834 H 0.16166 0.69636 0.10329 0.0
H835 H 0.12802 0.68599 0.07558 0.0
H836 H 0.17572 0.76894 0.10902 0.0
H837 H 0.23371 0.68793 0.10052 0.0
H838 H 0.20926 0.69369 0.07977 0.0
H839 H 0.20339 0.68135 0.10644 0.0
C840 C 0.14804 0.73394 0.05109 0.0
C841 C 0.13345 0.71461 0.05402 0.0
C842 C 0.16742 0.7397 0.06677 0.0
C843 C 0.17267 0.72625 0.08575 0.0
C844 C 0.15841 0.70665 0.08848 0.0
H845 H 0.23531 0.76872 0.21959 0.0
H846 H 0.21022 0.76083 0.18405 0.0
C847 C 0.13911 0.70076 0.07267 0.0
C848 C 0.19173 0.73389 0.10363 0.0
H849 H 0.24098 0.71409 0.135 0.0
C850 C 0.19017 0.75702 0.11447 0.0
C851 C 0.21087 0.71854 0.11052 0.0
C852 C 0.21459 0.69409 0.09853 0.0
C853 C 0.20652 0.76483 0.13266 0.0
C854 C 0.22463 0.74893 0.1406 0.0
C855 C 0.22693 0.72619 0.12908 0.0
C856 C 0.24019 0.75498 0.16181 0.0
C857 C 0.20412 0.79003 0.14328 0.0
C858 C 0.26547 0.754 0.16124 0.0
C859 C 0.27992 0.75837 0.18167 0.0
C860 C 0.26926 0.76358 0.20296 0.0
C861 C 0.24401 0.76484 0.20341 0.0
C862 C 0.22964 0.76048 0.18307 0.0
H863 H 0.19521 0.80179 0.13082 0.0
H864 H 0.1928 0.79037 0.15847 0.0
H865 H 0.22198 0.79733 0.14919 0.0
H866 H 0.27398 0.74963 0.14503 0.0
H867 H 0.29935 0.75711 0.18089 0.0
H868 H 0.28295 0.93253 0.9592 0.0
H869 H 0.2848 0.90248 0.92634 0.0
H870 H 0.23895 0.94679 0.88473 0.0
H871 H 0.23721 0.97706 0.91751 0.0
H872 H 0.24575 0.87859 0.89321 0.0
H873 H 0.30796 0.93857 0.85537 0.0
H874 H 0.30187 0.94142 0.88572 0.0
H875 H 0.27969 0.95122 0.86473 0.0
C876 C 0.27298 0.93569 0.94314 0.0
C877 C 0.26022 0.95724 0.94077 0.0
C878 C 0.27391 0.91847 0.92449 0.0
C879 C 0.26217 0.92259 0.90317 0.0
C880 C 0.24814 0.94339 0.90112 0.0
H881 H 0.28638 0.85814 0.76586 0.0
H882 H 0.27186 0.8825 0.79924 0.0
C883 C 0.24709 0.96059 0.91985 0.0
C884 C 0.26704 0.9065 0.88251 0.0
H885 H 0.29953 0.90233 0.8342 0.0
C886 C 0.25736 0.88373 0.88017 0.0
C887 C 0.28235 0.91333 0.86575 0.0
C888 C 0.29376 0.93739 0.86794 0.0
C889 C 0.26242 0.8676 0.86116 0.0
C890 C 0.27798 0.87437 0.84451 0.0
C891 C 0.28755 0.89721 0.84694 0.0
C892 C 0.28482 0.85826 0.82434 0.0
C893 C 0.25084 0.84366 0.85899 0.0
C894 C 0.29691 0.83649 0.82735 0.0
C895 C 0.30515 0.82247 0.80822 0.0
C896 C 0.30164 0.8302 0.78592 0.0
C897 C 0.28948 0.85189 0.78294 0.0
C898 C 0.28106 0.86574 0.80196 0.0
H899 H 0.23417 0.84396 0.86874 0.0
H900 H 0.24629 0.83759 0.8406 0.0
H901 H 0.26365 0.83052 0.86633 0.0
H902 H 0.30055 0.83065 0.84452 0.0
H903 H 0.31475 0.8059 0.81088 0.0
H904 H 0.11857 0.35464 0.90364 0.0
H905 H 0.1543 0.34437 0.8822 0.0
H906 H 0.16095 0.27744 0.91271 0.0
H907 H 0.12432 0.28728 0.93369 0.0
H908 H 0.20104 0.33358 0.89573 0.0
H909 H 0.15871 0.25714 0.84353 0.0
H910 H 0.14151 0.27843 0.86124 0.0
H911 H 0.15928 0.25561 0.87434 0.0
C912 C 0.12744 0.33762 0.90569 0.0
C913 C 0.11825 0.32154 0.92 0.0
C914 C 0.14805 0.33189 0.89357 0.0
C915 C 0.16003 0.30997 0.89549 0.0
C916 C 0.15166 0.29426 0.9106 0.0
H917 H 0.27831 0.24585 0.81896 0.0
H918 H 0.24829 0.25593 0.84737 0.0
C919 C 0.13089 0.29999 0.92275 0.0
C920 C 0.18073 0.30357 0.88096 0.0
H921 H 0.19894 0.26494 0.83651 0.0
C922 C 0.20065 0.31851 0.88285 0.0
C923 C 0.18008 0.28399 0.86405 0.0
C924 C 0.15869 0.26795 0.86044 0.0
C925 C 0.21994 0.3144 0.86828 0.0
C926 C 0.21913 0.295 0.85124 0.0
C927 C 0.19944 0.27983 0.84961 0.0
C928 C 0.23849 0.28999 0.83485 0.0
C929 C 0.24111 0.33071 0.8713 0.0
C930 C 0.24299 0.30589 0.81836 0.0
C931 C 0.26022 0.30018 0.80192 0.0
C932 C 0.27312 0.27842 0.80168 0.0
C933 C 0.26874 0.26277 0.81852 0.0
C934 C 0.25156 0.26847 0.83484 0.0
H935 H 0.24161 0.34122 0.88838 0.0
H936 H 0.25837 0.32049 0.8696 0.0
H937 H 0.23967 0.34329 0.85759 0.0
H938 H 0.23278 0.32245 0.81786 0.0
H939 H 0.26306 0.3126 0.78918 0.0
H940 H 0.84343 0.13866 0.97921 0.0
H941 H 0.83329 0.17363 0.95857 0.0
H942 H 0.88362 0.15007 0.90699 0.0
H943 H 0.89274 0.11416 0.92679 0.0
H944 H 0.85454 0.21087 0.94258 0.0
H945 H 0.82002 0.14883 0.86965 0.0
H946 H 0.82996 0.13897 0.89739 0.0
H947 H 0.85162 0.14478 0.87676 0.0
C948 C 0.85242 0.14091 0.96351 0.0
C949 C 0.86819 0.12317 0.95415 0.0
C950 C 0.84681 0.16108 0.95188 0.0
C951 C 0.85711 0.16401 0.93087 0.0
C952 C 0.87494 0.14772 0.92286 0.0
H953 H 0.83389 0.28121 0.84584 0.0
H954 H 0.84721 0.25732 0.87734 0.0
C955 C 0.88032 0.12731 0.93432 0.0
C956 C 0.84708 0.18246 0.91622 0.0
H957 H 0.81838 0.18948 0.86375 0.0
C958 C 0.84661 0.20628 0.92533 0.0
C959 C 0.83611 0.17627 0.89401 0.0
C960 C 0.83418 0.15082 0.88393 0.0
C961 C 0.83573 0.22416 0.91263 0.0
C962 C 0.82562 0.21803 0.89006 0.0
C963 C 0.82603 0.19419 0.88109 0.0
C964 C 0.81534 0.23583 0.87473 0.0
C965 C 0.83474 0.24924 0.92376 0.0
C966 C 0.79276 0.23206 0.86296 0.0
C967 C 0.78544 0.24526 0.84445 0.0
C968 C 0.80042 0.26266 0.83773 0.0
C969 C 0.82194 0.26793 0.8508 0.0
C970 C 0.82952 0.25438 0.86896 0.0
H971 H 0.83514 0.24952 0.94294 0.0
H972 H 0.85075 0.25878 0.91918 0.0
H973 H 0.81826 0.259 0.91774 0.0
H974 H 0.78149 0.21788 0.86717 0.0
H975 H 0.76876 0.24095 0.83462 0.0
H976 H 0.98681 0.7519 0.94167 0.0
H977 H 0.95766 0.75832 0.90965 0.0
H978 H 0.95322 0.68265 0.89351 0.0
H979 H 0.9823 0.67612 0.92585 0.0
H980 H 0.96027 0.74642 0.86382 0.0
H981 H 0.88279 0.70183 0.89641 0.0
H982 H 0.90967 0.70886 0.91431 0.0
H983 H 0.90935 0.68321 0.89372 0.0
C984 C 0.97976 0.7366 0.93126 0.0
C985 C 0.98691 0.71347 0.93631 0.0
C986 C 0.96299 0.7403 0.913 0.0
C987 C 0.95295 0.72099 0.89935 0.0
C988 C 0.96024 0.69784 0.90415 0.0
H989 H 0.85495 0.71446 0.77633 0.0
H990 H 0.88385 0.70525 0.80791 0.0
C991 C 0.97692 0.69411 0.92257 0.0
C992 C 0.93532 0.72528 0.87983 0.0
H993 H 0.87774 0.7144 0.85842 0.0
C994 C 0.94221 0.73945 0.86269 0.0
C995 C 0.91173 0.7162 0.87835 0.0
C996 C 0.90281 0.70186 0.89678 0.0
C997 C 0.92624 0.74468 0.8441 0.0
C998 C 0.9027 0.73563 0.84267 0.0
C999 C 0.89584 0.72126 0.8596 0.0
C1000 C 0.88486 0.74121 0.82384 0.0
C1001 C 0.93469 0.75966 0.82596 0.0
C1002 C 0.87563 0.76443 0.82256 0.0
C1003 C 0.85901 0.76976 0.80462 0.0
C1004 C 0.85138 0.75196 0.78757 0.0
C1005 C 0.86051 0.72864 0.78909 0.0
C1006 C 0.87699 0.72331 0.80714 0.0
H1007 H 0.95463 0.76116 0.82695 0.0
H1008 H 0.92878 0.75211 0.80832 0.0
H1009 H 0.92661 0.77779 0.82859 0.0
H1010 H 0.88129 0.77844 0.83546 0.0
H1011 H 0.85237 0.7879 0.80402 0.0
H1012 H 0.12833 0.36892 0.01926 0.0
H1013 H 0.15266 0.36695 0.05543 0.0
H1014 H 0.09039 0.34626 0.0893 0.0
H1015 H 0.06592 0.34771 0.05301 0.0
H1016 H 0.15022 0.38826 0.10024 0.0
H1017 H 0.13776 0.29084 0.09791 0.0
H1018 H 0.12914 0.30765 0.07359 0.0
H1019 H 0.11043 0.30857 0.09794 0.0
C1020 C 0.11965 0.3643 0.03446 0.0
C1021 C 0.09521 0.35818 0.0331 0.0
C1022 C 0.13363 0.36317 0.05515 0.0
C1023 C 0.12349 0.3559 0.07493 0.0
C1024 C 0.09872 0.35136 0.0741 0.0
H1025 H 0.19977 0.31883 0.20459 0.0
H1026 H 0.16768 0.32819 0.1756 0.0
C1027 C 0.08471 0.35241 0.05336 0.0
C1028 C 0.13926 0.35187 0.09585 0.0
H1029 H 0.16184 0.3084 0.12903 0.0
C1030 C 0.15263 0.37084 0.10664 0.0
C1031 C 0.14244 0.3291 0.10419 0.0
C1032 C 0.12937 0.30779 0.09275 0.0
C1033 C 0.16925 0.3676 0.12533 0.0
C1034 C 0.17285 0.34472 0.13325 0.0
C1035 C 0.15899 0.32592 0.12295 0.0
C1036 C 0.19203 0.3396 0.15114 0.0
C1037 C 0.18288 0.38869 0.13641 0.0
C1038 C 0.21633 0.34255 0.14684 0.0
C1039 C 0.23458 0.33712 0.16323 0.0
C1040 C 0.22891 0.32858 0.18426 0.0
C1041 C 0.20461 0.32547 0.18855 0.0
C1042 C 0.18631 0.33082 0.17204 0.0
H1043 H 0.17334 0.40568 0.13303 0.0
H1044 H 0.18559 0.38778 0.15542 0.0
H1045 H 0.20087 0.38882 0.12903 0.0
H1046 H 0.2212 0.34879 0.13063 0.0
H1047 H 0.25316 0.33958 0.15941 0.0
H1048 H 0.11278 0.77955 0.97538 0.0
H1049 H 0.14327 0.79177 0.94973 0.0
H1050 H 0.11614 0.7411 0.89541 0.0
H1051 H 0.08617 0.72875 0.92078 0.0
H1052 H 0.17858 0.75696 0.92826 0.0
H1053 H 0.12303 0.80398 0.86341 0.0
H1054 H 0.11344 0.80076 0.89221 0.0
H1055 H 0.1107 0.77652 0.87015 0.0
C1056 C 0.11301 0.77151 0.95778 0.0
C1057 C 0.09711 0.75325 0.95003 0.0
C1058 C 0.13049 0.77837 0.94322 0.0
C1059 C 0.13183 0.76744 0.92062 0.0
C1060 C 0.11524 0.74997 0.91265 0.0
H1061 H 0.21186 0.74633 0.80061 0.0
H1062 H 0.1836 0.74912 0.8316 0.0
C1063 C 0.09816 0.74289 0.92721 0.0
C1064 C 0.15161 0.77241 0.90569 0.0
H1065 H 0.16155 0.78871 0.85181 0.0
C1066 C 0.17507 0.76439 0.91175 0.0
C1067 C 0.14688 0.78195 0.88413 0.0
C1068 C 0.12219 0.7915 0.87711 0.0
C1069 C 0.1936 0.76425 0.89615 0.0
C1070 C 0.18858 0.77282 0.87412 0.0
C1071 C 0.16539 0.78198 0.86862 0.0
C1072 C 0.20644 0.77083 0.85582 0.0
C1073 C 0.21793 0.7536 0.90288 0.0
C1074 C 0.22881 0.782 0.8591 0.0
C1075 C 0.24515 0.78016 0.84144 0.0
C1076 C 0.23924 0.76739 0.82012 0.0
C1077 C 0.21692 0.75621 0.8169 0.0
C1078 C 0.20072 0.75789 0.83456 0.0
H1079 H 0.21722 0.7431 0.91815 0.0
H1080 H 0.22494 0.74192 0.88828 0.0
H1081 H 0.23088 0.76807 0.90736 0.0
H1082 H 0.23347 0.79247 0.87515 0.0
H1083 H 0.26217 0.78911 0.84427 0.0
H1084 H 0.34554 0.04158 0.94651 0.0
H1085 H 0.35504 0.06338 0.91342 0.0
H1086 H 0.30541 0.11965 0.93561 0.0
H1087 H 0.29561 0.098 0.96824 0.0
H1088 H 0.29712 0.103 0.88989 0.0
H1089 H 0.39388 0.12351 0.90899 0.0
H1090 H 0.38612 0.09289 0.90922 0.0
H1091 H 0.37484 0.11446 0.93071 0.0
C1092 C 0.33702 0.0588 0.94454 0.0
C1093 C 0.31974 0.06801 0.95994 0.0
C1094 C 0.34249 0.07125 0.92565 0.0
C1095 C 0.33096 0.09318 0.92207 0.0
C1096 C 0.31445 0.10273 0.93797 0.0
H1097 H 0.35205 0.20774 0.83964 0.0
H1098 H 0.35211 0.17898 0.86877 0.0
C1099 C 0.3089 0.09031 0.95665 0.0
C1100 C 0.3346 0.10572 0.90111 0.0
H1101 H 0.37579 0.13582 0.87409 0.0
C1102 C 0.31437 0.11002 0.88631 0.0
C1103 C 0.35709 0.11493 0.89656 0.0
C1104 C 0.37924 0.11143 0.91225 0.0
C1105 C 0.3158 0.12385 0.86749 0.0
C1106 C 0.33825 0.13323 0.86299 0.0
C1107 C 0.35865 0.12845 0.87745 0.0
C1108 C 0.34035 0.14974 0.84466 0.0
C1109 C 0.29299 0.1292 0.85329 0.0
C1110 C 0.33427 0.14275 0.82128 0.0
C1111 C 0.33403 0.15926 0.80458 0.0
C1112 C 0.34012 0.18294 0.811 0.0
C1113 C 0.3472 0.18962 0.83421 0.0
C1114 C 0.34732 0.17318 0.85087 0.0
H1115 H 0.27656 0.12504 0.8621 0.0
H1116 H 0.29191 0.14818 0.8497 0.0
H1117 H 0.29298 0.11828 0.83648 0.0
H1118 H 0.32926 0.12464 0.81602 0.0
H1119 H 0.32866 0.15362 0.78677 0.0
H1120 H 0.98535 0.36767 0.94581 0.0
H1121 H 0.95042 0.37481 0.91903 0.0
H1122 H 0.93866 0.29947 0.90933 0.0
H1123 H 0.97311 0.29235 0.9358 0.0
H1124 H 0.94925 0.35642 0.87294 0.0
H1125 H 0.87028 0.32584 0.91475 0.0
H1126 H 0.89825 0.33328 0.93081 0.0
H1127 H 0.89468 0.30445 0.91541 0.0
C1128 C 0.97478 0.35278 0.93849 0.0
C1129 C 0.98191 0.32947 0.9428 0.0
C1130 C 0.95494 0.35685 0.92316 0.0
C1131 C 0.94175 0.33769 0.91239 0.0
C1132 C 0.94818 0.31457 0.91777 0.0
H1133 H 0.85647 0.28625 0.79617 0.0
H1134 H 0.87984 0.29539 0.83264 0.0
C1135 C 0.96802 0.31051 0.93278 0.0
C1136 C 0.92348 0.34101 0.89323 0.0
H1137 H 0.86748 0.32336 0.87268 0.0
C1138 C 0.93112 0.34982 0.87303 0.0
C1139 C 0.89989 0.33226 0.89337 0.0
C1140 C 0.89023 0.32365 0.91486 0.0
C1141 C 0.91648 0.34844 0.85244 0.0
C1142 C 0.89342 0.3384 0.85224 0.0
C1143 C 0.88523 0.33092 0.87282 0.0
C1144 C 0.87849 0.33342 0.83045 0.0
C1145 C 0.92646 0.35626 0.83073 0.0
C1146 C 0.86982 0.35179 0.81717 0.0
C1147 C 0.85647 0.34657 0.79624 0.0
C1148 C 0.85139 0.32295 0.78847 0.0
C1149 C 0.85992 0.30464 0.80188 0.0
C1150 C 0.87327 0.30984 0.82271 0.0
H1151 H 0.94616 0.35935 0.83286 0.0
H1152 H 0.9231 0.34278 0.81591 0.0
H1153 H 0.91731 0.3731 0.82634 0.0
H1154 H 0.87334 0.37013 0.82299 0.0
H1155 H 0.84998 0.36099 0.78624 0.0
H1156 H 0.85138 0.96956 0.94025 0.0
H1157 H 0.83829 0.94346 0.9067 0.0
H1158 H 0.77763 0.99054 0.89342 0.0
H1159 H 0.79048 0.01683 0.92765 0.0
H1160 H 0.76545 0.94313 0.88764 0.0
H1161 H 0.84662 0.95691 0.84019 0.0
H1162 H 0.85457 0.94767 0.86847 0.0
H1163 H 0.83887 0.97566 0.86557 0.0
C1164 C 0.83523 0.97447 0.93027 0.0
C1165 C 0.82213 0.99546 0.93649 0.0
C1166 C 0.82784 0.95954 0.91097 0.0
C1167 C 0.80738 0.96536 0.89716 0.0
C1168 C 0.79367 0.98587 0.9037 0.0
H1169 H 0.7938 0.87727 0.76525 0.0
H1170 H 0.79438 0.91253 0.79299 0.0
C1171 C 0.80099 1.00084 0.92325 0.0
C1172 C 0.80061 0.94972 0.87605 0.0
H1173 H 0.82461 0.92151 0.82799 0.0
C1174 C 0.7782 0.93867 0.87437 0.0
C1175 C 0.81695 0.94432 0.85839 0.0
C1176 C 0.84048 0.95698 0.85809 0.0
C1177 C 0.77236 0.92126 0.85628 0.0
C1178 C 0.78967 0.91431 0.83981 0.0
C1179 C 0.81143 0.92648 0.84074 0.0
C1180 C 0.78644 0.89354 0.82244 0.0
C1181 C 0.74777 0.91045 0.85515 0.0
C1182 C 0.78169 0.87112 0.82964 0.0
C1183 C 0.78107 0.85108 0.81378 0.0
C1184 C 0.78566 0.85296 0.79047 0.0
C1185 C 0.79015 0.87536 0.78313 0.0
C1186 C 0.79048 0.89549 0.79897 0.0
H1187 H 0.73422 0.9232 0.86277 0.0
H1188 H 0.74156 0.90478 0.83705 0.0
H1189 H 0.74856 0.89472 0.86538 0.0
H1190 H 0.7793 0.86892 0.84771 0.0
H1191 H 0.77779 0.83398 0.81995 0.0
H1192 H 0.96975 0.77824 0.0251 0.0
H1193 H 0.94217 0.77913 0.05655 0.0
H1194 H 0.99817 0.749 0.10034 0.0
H1195 H 1.02604 0.74864 0.06922 0.0
H1196 H 0.92644 0.74143 0.07606 0.0
H1197 H 0.97255 0.80132 0.14424 0.0
H1198 H 0.98101 0.79889 0.11455 0.0
H1199 H 0.99129 0.77687 0.13369 0.0
C1200 C 0.97638 0.77226 0.04158 0.0
C1201 C 1.00017 0.76345 0.04461 0.0
C1202 C 0.96053 0.77268 0.05954 0.0
C1203 C 0.96807 0.7643 0.08094 0.0
C1204 C 0.99201 0.75605 0.08422 0.0
H1205 H 0.88585 0.74245 0.20258 0.0
H1206 H 0.91621 0.73821 0.17311 0.0
C1207 C 1.00794 0.7558 0.06632 0.0
C1208 C 0.95042 0.76278 0.09916 0.0
H1209 H 0.93924 0.78038 0.1555 0.0
C1210 C 0.92927 0.75 0.0934 0.0
C1211 C 0.95411 0.77381 0.12189 0.0
C1212 C 0.97585 0.78868 0.12895 0.0
C1213 C 0.91173 0.74808 0.10963 0.0
C1214 C 0.91535 0.75925 0.13224 0.0
C1215 C 0.93664 0.77164 0.1382 0.0
C1216 C 0.89634 0.75994 0.1493 0.0
C1217 C 0.88939 0.73414 0.10252 0.0
C1218 C 0.87508 0.77331 0.14554 0.0
C1219 C 0.85789 0.77584 0.16229 0.0
C1220 C 0.86148 0.76493 0.18315 0.0
C1221 C 0.88242 0.75081 0.18657 0.0
C1222 C 0.89984 0.74853 0.16985 0.0
H1223 H 0.89174 0.72225 0.08651 0.0
H1224 H 0.88453 0.7233 0.11657 0.0
H1225 H 0.8741 0.74665 0.09914 0.0
H1226 H 0.87212 0.78244 0.12993 0.0
H1227 H 0.84199 0.78687 0.15912 0.0
H1228 H 0.35958 0.97068 0.04365 0.0
H1229 H 0.37638 0.93864 0.06638 0.0
H1230 H 0.30877 0.90257 0.05602 0.0
H1231 H 0.29211 0.93407 0.03353 0.0
H1232 H 0.35709 0.92664 0.10731 0.0
H1233 H 0.35745 0.84844 0.04359 0.0
H1234 H 0.35619 0.87848 0.03512 0.0
H1235 H 0.32915 0.86443 0.04213 0.0
C1236 C 0.34856 0.95563 0.04585 0.0
C1237 C 0.32451 0.95492 0.03691 0.0
C1238 C 0.35814 0.93739 0.05883 0.0
C1239 C 0.34394 0.91803 0.06259 0.0
C1240 C 0.32026 0.91701 0.05293 0.0
H1241 H 0.31225 0.81594 0.14987 0.0
H1242 H 0.31822 0.84138 0.11875 0.0
C1243 C 0.31067 0.9352 0.04024 0.0
C1244 C 0.35235 0.90012 0.07867 0.0
H1245 H 0.35303 0.84039 0.08367 0.0
C1246 C 0.35695 0.90776 0.10211 0.0
C1247 C 0.35213 0.87552 0.07182 0.0
C1248 C 0.34871 0.86625 0.04673 0.0
C1249 C 0.35927 0.89148 0.11912 0.0
C1250 C 0.35729 0.86692 0.1124 0.0
C1251 C 0.35438 0.85923 0.0888 0.0
C1252 C 0.35518 0.84938 0.12972 0.0
C1253 C 0.36204 0.90075 0.14427 0.0
C1254 C 0.37423 0.84487 0.1458 0.0
C1255 C 0.37085 0.83029 0.16363 0.0
C1256 C 0.34837 0.82004 0.16558 0.0
C1257 C 0.32974 0.82366 0.14881 0.0
C1258 C 0.33314 0.83816 0.13101 0.0
H1259 H 0.35979 0.92037 0.14669 0.0
H1260 H 0.34863 0.89266 0.15451 0.0
H1261 H 0.38029 0.89586 0.15137 0.0
H1262 H 0.39148 0.8531 0.14492 0.0
H1263 H 0.38552 0.82772 0.17634 0.0
H1264 H 0.84729 0.11657 0.05315 0.0
H1265 H 0.82924 0.14591 0.0803 0.0
H1266 H 0.75837 0.12121 0.05769 0.0
H1267 H 0.77655 0.09121 0.03008 0.0
H1268 H 0.79354 0.18279 0.07125 0.0
H1269 H 0.76354 0.11744 0.12986 0.0
H1270 H 0.78577 0.10939 0.10887 0.0
H1271 H 0.7548 0.11371 0.09942 0.0
C1272 C 0.82784 0.11725 0.05379 0.0
C1273 C 0.81336 0.10137 0.03953 0.0
C1274 C 0.81754 0.13418 0.06931 0.0
C1275 C 0.79251 0.13567 0.07112 0.0
C1276 C 0.77778 0.1202 0.05667 0.0
H1277 H 0.74716 0.22556 0.19432 0.0
H1278 H 0.74148 0.20208 0.15675 0.0
C1279 C 0.78815 0.10316 0.04088 0.0
C1280 C 0.78267 0.15316 0.08887 0.0
H1281 H 0.76507 0.15732 0.14454 0.0
C1282 C 0.78666 0.17731 0.08705 0.0
C1283 C 0.77363 0.14599 0.10942 0.0
C1284 C 0.76917 0.12024 0.11225 0.0
C1285 C 0.78355 0.19423 0.10583 0.0
C1286 C 0.77656 0.18675 0.12705 0.0
C1287 C 0.77054 0.16296 0.12826 0.0
C1288 C 0.77907 0.20237 0.14887 0.0
C1289 C 0.78894 0.21982 0.10318 0.0
C1290 C 0.80205 0.21007 0.15691 0.0
C1291 C 0.80534 0.22314 0.17827 0.0
C1292 C 0.78569 0.22894 0.19204 0.0
C1293 C 0.76258 0.22148 0.18394 0.0
C1294 C 0.75931 0.20811 0.16254 0.0
H1295 H 0.78621 0.22399 0.08483 0.0
H1296 H 0.7774 0.23206 0.11404 0.0
H1297 H 0.80809 0.22312 0.10872 0.0
H1298 H 0.81765 0.20532 0.14694 0.0
H1299 H 0.82344 0.22812 0.18427 0.0
H1300 H 0.62841 0.57098 0.74471 0.0
H1301 H 0.66117 0.5992 0.74925 0.0
H1302 H 0.62831 0.6372 0.69395 0.0
H1303 H 0.59521 0.60943 0.6895 0.0
H1304 H 0.68021 0.62911 0.69209 0.0
H1305 H 0.65294 0.66879 0.77801 0.0
H1306 H 0.65683 0.63703 0.77508 0.0
H1307 H 0.63295 0.6509 0.75855 0.0
C1308 C 0.62792 0.58539 0.73357 0.0
C1309 C 0.60878 0.58787 0.71686 0.0
C1310 C 0.64681 0.60151 0.73617 0.0
C1311 C 0.64711 0.62049 0.72212 0.0
C1312 C 0.62849 0.62269 0.70501 0.0
H1313 H 0.7172 0.75436 0.73863 0.0
H1314 H 0.69036 0.72067 0.73354 0.0
C1315 C 0.60953 0.60666 0.70245 0.0
C1316 C 0.66639 0.63849 0.72564 0.0
H1317 H 0.68805 0.68333 0.7638 0.0
C1318 C 0.68206 0.64086 0.70783 0.0
C1319 C 0.66868 0.65395 0.74611 0.0
C1320 C 0.65189 0.65278 0.76552 0.0
C1321 C 0.69984 0.65834 0.70992 0.0
C1322 C 0.70206 0.67382 0.73037 0.0
C1323 C 0.68649 0.67132 0.74822 0.0
C1324 C 0.71901 0.69398 0.73291 0.0
C1325 C 0.71563 0.66067 0.68996 0.0
C1326 C 0.74419 0.69027 0.73432 0.0
C1327 C 0.75971 0.70967 0.73739 0.0
C1328 C 0.75026 0.73304 0.73904 0.0
C1329 C 0.72509 0.73659 0.73749 0.0
C1330 C 0.70968 0.71733 0.73457 0.0
H1331 H 0.70922 0.6498 0.67406 0.0
H1332 H 0.71626 0.67951 0.68601 0.0
H1333 H 0.7343 0.65471 0.69479 0.0
H1334 H 0.75182 0.67241 0.73339 0.0
H1335 H 0.779 0.70637 0.73875 0.0
H1336 H 0.45277 0.55431 0.74955 0.0
H1337 H 0.42612 0.58902 0.75584 0.0
H1338 H 0.48717 0.63149 0.77997 0.0
H1339 H 0.51408 0.59641 0.77416 0.0
H1340 H 0.44412 0.64374 0.80402 0.0
H1341 H 0.42742 0.639 0.7087 0.0
H1342 H 0.42068 0.61202 0.72094 0.0
H1343 H 0.45123 0.62203 0.72251 0.0
C1344 C 0.4605 0.57091 0.75669 0.0
C1345 C 0.48554 0.57271 0.76116 0.0
C1346 C 0.44524 0.59077 0.76017 0.0
C1347 C 0.45471 0.61298 0.76778 0.0
C1348 C 0.47951 0.61454 0.77391 0.0
H1349 H 0.376 0.74204 0.73514 0.0
H1350 H 0.40698 0.71118 0.7401 0.0
C1351 C 0.49484 0.59449 0.77068 0.0
C1352 C 0.43892 0.63464 0.76735 0.0
H1353 H 0.40204 0.66542 0.73086 0.0
C1354 C 0.43501 0.64862 0.78804 0.0
C1355 C 0.42741 0.64127 0.7464 0.0
C1356 C 0.43205 0.62796 0.72334 0.0
C1357 C 0.4193 0.66864 0.78841 0.0
C1358 C 0.40686 0.67455 0.76759 0.0
C1359 C 0.41134 0.66086 0.74687 0.0
C1360 C 0.38909 0.69475 0.76661 0.0
C1361 C 0.41647 0.68342 0.81102 0.0
C1362 C 0.36869 0.69604 0.77998 0.0
C1363 C 0.35098 0.7139 0.77734 0.0
C1364 C 0.35309 0.73059 0.76096 0.0
C1365 C 0.37369 0.72945 0.74784 0.0
C1366 C 0.39148 0.71179 0.75068 0.0
H1367 H 0.43232 0.68117 0.82325 0.0
H1368 H 0.41404 0.70255 0.80829 0.0
H1369 H 0.40033 0.67764 0.81927 0.0
H1370 H 0.36603 0.68279 0.79194 0.0
H1371 H 0.33525 0.71412 0.78757 0.0
H1372 H 0.47805 0.46644 0.76041 0.0
H1373 H 0.45353 0.43303 0.76802 0.0
H1374 H 0.4698 0.39763 0.7018 0.0
H1375 H 0.49448 0.43082 0.69409 0.0
H1376 H 0.4213 0.39648 0.71017 0.0
H1377 H 0.47715 0.3675 0.78539 0.0
H1378 H 0.46763 0.39817 0.78828 0.0
H1379 H 0.48781 0.38793 0.76621 0.0
C1380 C 0.47671 0.45147 0.74754 0.0
C1381 C 0.48847 0.45146 0.72664 0.0
C1382 C 0.46263 0.43231 0.75194 0.0
C1383 C 0.46005 0.41258 0.73564 0.0
C1384 C 0.47152 0.4126 0.71469 0.0
H1385 H 0.4067 0.27283 0.75614 0.0
H1386 H 0.43077 0.30702 0.74938 0.0
C1387 C 0.4856 0.43172 0.71026 0.0
C1388 C 0.44508 0.3921 0.74016 0.0
H1389 H 0.4397 0.34865 0.777 0.0
C1390 C 0.42535 0.38603 0.72479 0.0
C1391 C 0.45045 0.37823 0.75907 0.0
C1392 C 0.47203 0.38308 0.77559 0.0
C1393 C 0.41079 0.36669 0.72791 0.0
C1394 C 0.41579 0.35317 0.74714 0.0
C1395 C 0.43567 0.35909 0.76238 0.0
C1396 C 0.40099 0.33247 0.75142 0.0
C1397 C 0.39052 0.36058 0.71024 0.0
C1398 C 0.37625 0.33533 0.75516 0.0
C1399 C 0.36249 0.3158 0.75913 0.0
C1400 C 0.37314 0.29296 0.75937 0.0
C1401 C 0.39795 0.29017 0.75597 0.0
C1402 C 0.41173 0.30972 0.75211 0.0
H1403 H 0.39308 0.3683 0.6936 0.0
H1404 H 0.38903 0.34106 0.70678 0.0
H1405 H 0.37329 0.36784 0.71699 0.0
H1406 H 0.36758 0.35273 0.75518 0.0
H1407 H 0.34348 0.31857 0.76202 0.0
H1408 H 0.60651 0.50086 0.79189 0.0
H1409 H 0.64081 0.47556 0.80472 0.0
H1410 H 0.63626 0.43434 0.73868 0.0
H1411 H 0.60257 0.4591 0.72589 0.0
H1412 H 0.64045 0.40764 0.78064 0.0
H1413 H 0.71018 0.47581 0.77589 0.0
H1414 H 0.68337 0.48336 0.79134 0.0
H1415 H 0.68118 0.47795 0.76043 0.0
C1416 C 0.61278 0.48627 0.78026 0.0
C1417 C 0.60194 0.48209 0.75783 0.0
C1418 C 0.63238 0.47194 0.78755 0.0
C1419 C 0.6411 0.45319 0.77254 0.0
C1420 C 0.62983 0.44872 0.75049 0.0
H1421 H 0.76003 0.36869 0.73479 0.0
H1422 H 0.72884 0.39909 0.74269 0.0
C1423 C 0.61058 0.463 0.7432 0.0
C1424 C 0.66229 0.43816 0.77894 0.0
H1425 H 0.72376 0.43639 0.7786 0.0
C1426 C 0.65872 0.41396 0.78085 0.0
C1427 C 0.68601 0.44651 0.77886 0.0
C1428 C 0.69066 0.4723 0.77648 0.0
C1429 C 0.67821 0.39763 0.78138 0.0
C1430 C 0.70193 0.40581 0.78024 0.0
C1431 C 0.70557 0.43021 0.77955 0.0
C1432 C 0.7227 0.389 0.77697 0.0
C1433 C 0.67314 0.37156 0.78153 0.0
C1434 C 0.73007 0.37361 0.79387 0.0
C1435 C 0.74788 0.35608 0.78938 0.0
C1436 C 0.7587 0.35367 0.7679 0.0
C1437 C 0.75203 0.36989 0.75146 0.0
C1438 C 0.73424 0.38737 0.75597 0.0
H1439 H 0.65361 0.36789 0.7786 0.0
H1440 H 0.68311 0.36099 0.76798 0.0
H1441 H 0.67931 0.36541 0.79857 0.0
H1442 H 0.72165 0.37481 0.81033 0.0
H1443 H 0.7527 0.34405 0.80253 0.0
H1444 H 0.61608 0.46942 0.24658 0.0
H1445 H 0.64553 0.43714 0.25406 0.0
H1446 H 0.68428 0.45335 0.19526 0.0
H1447 H 0.65543 0.4853 0.18792 0.0
H1448 H 0.65442 0.39758 0.2225 0.0
H1449 H 0.73873 0.44638 0.24414 0.0
H1450 H 0.70931 0.46073 0.24512 0.0
H1451 H 0.7234 0.45486 0.21797 0.0
C1452 C 0.63127 0.46645 0.2357 0.0
C1453 C 0.63345 0.47992 0.21669 0.0
C1454 C 0.64798 0.44792 0.23986 0.0
C1455 C 0.66731 0.44295 0.22535 0.0
C1456 C 0.66989 0.45705 0.20698 0.0
H1457 H 0.77799 0.33319 0.19885 0.0
H1458 H 0.74962 0.36725 0.19711 0.0
C1459 C 0.65323 0.47528 0.20273 0.0
C1460 C 0.6837 0.4219 0.22783 0.0
H1461 H 0.74326 0.40494 0.23216 0.0
C1462 C 0.67382 0.39919 0.22495 0.0
C1463 C 0.70906 0.42396 0.23074 0.0
C1464 C 0.72075 0.44781 0.23489 0.0
C1465 C 0.6886 0.37855 0.22419 0.0
C1466 C 0.71398 0.38062 0.22673 0.0
C1467 C 0.72385 0.40333 0.22995 0.0
C1468 C 0.73054 0.35945 0.22697 0.0
C1469 C 0.67693 0.35468 0.21998 0.0
C1470 C 0.72928 0.34378 0.24429 0.0
C1471 C 0.74534 0.3244 0.24529 0.0
C1472 C 0.76324 0.32019 0.22905 0.0
C1473 C 0.76435 0.33576 0.2115 0.0
C1474 C 0.74822 0.3553 0.21057 0.0
H1475 H 0.6583 0.35623 0.21214 0.0
H1476 H 0.68764 0.34234 0.20842 0.0
H1477 H 0.6759 0.34679 0.23674 0.0
H1478 H 0.71613 0.34681 0.25738 0.0
H1479 H 0.74388 0.31291 0.25911 0.0
H1480 H 0.65075 0.58129 0.21634 0.0
H1481 H 0.67898 0.61386 0.22292 0.0
H1482 H 0.65346 0.64052 0.15837 0.0
H1483 H 0.62462 0.60852 0.152 0.0
H1484 H 0.71633 0.6266 0.19734 0.0
H1485 H 0.64722 0.6991 0.2035 0.0
H1486 H 0.63993 0.66834 0.20456 0.0
H1487 H 0.644 0.68004 0.17721 0.0
C1488 C 0.65086 0.59419 0.20363 0.0
C1489 C 0.63507 0.59224 0.18371 0.0
C1490 C 0.66722 0.61276 0.20736 0.0
C1491 C 0.66813 0.62996 0.19137 0.0
C1492 C 0.6528 0.6278 0.17124 0.0
H1493 H 0.74917 0.75661 0.17872 0.0
H1494 H 0.72294 0.72226 0.17362 0.0
C1495 C 0.63644 0.60925 0.16748 0.0
C1496 C 0.68519 0.65003 0.19565 0.0
H1497 H 0.68772 0.71061 0.20103 0.0
C1498 C 0.71007 0.64498 0.19828 0.0
C1499 C 0.67709 0.67405 0.19701 0.0
C1500 C 0.6506 0.68078 0.19566 0.0
C1501 C 0.72703 0.66321 0.2015 0.0
C1502 C 0.71892 0.68724 0.20247 0.0
C1503 C 0.69402 0.69225 0.20015 0.0
C1504 C 0.73584 0.7075 0.20537 0.0
C1505 C 0.75353 0.65655 0.20313 0.0
C1506 C 0.75183 0.71087 0.22498 0.0
C1507 C 0.76695 0.73052 0.22785 0.0
C1508 C 0.76633 0.7472 0.21121 0.0
C1509 C 0.75023 0.74392 0.19173 0.0
C1510 C 0.73519 0.72429 0.18882 0.0
H1511 H 0.75697 0.63794 0.19613 0.0
H1512 H 0.76413 0.66851 0.1936 0.0
H1513 H 0.76015 0.65823 0.22158 0.0
H1514 H 0.75221 0.69865 0.23839 0.0
H1515 H 0.77841 0.73312 0.24348 0.0
H1516 H 0.50004 0.57149 0.18096 0.0
H1517 H 0.46957 0.60188 0.18965 0.0
H1518 H 0.50066 0.614 0.25928 0.0
H1519 H 0.53204 0.58328 0.25049 0.0
H1520 H 0.43543 0.60437 0.22234 0.0
H1521 H 0.49677 0.68104 0.2356 0.0
H1522 H 0.5063 0.65248 0.22245 0.0
H1523 H 0.50343 0.65673 0.25318 0.0
C1524 C 0.5006 0.58051 0.19821 0.0
C1525 C 0.5187 0.57499 0.215 0.0
C1526 C 0.483 0.59793 0.20314 0.0
C1527 C 0.48291 0.61047 0.225 0.0
C1528 C 0.5006 0.60479 0.24214 0.0
H1529 H 0.35863 0.70138 0.26156 0.0
H1530 H 0.39011 0.67062 0.26013 0.0
C1531 C 0.5184 0.58713 0.23718 0.0
C1532 C 0.46403 0.62932 0.22918 0.0
H1533 H 0.45512 0.68945 0.23748 0.0
C1534 C 0.43973 0.62296 0.22591 0.0
C1535 C 0.46966 0.6536 0.2334 0.0
C1536 C 0.49542 0.66155 0.23622 0.0
C1537 C 0.42098 0.64016 0.22632 0.0
C1538 C 0.42658 0.66445 0.23059 0.0
C1539 C 0.45085 0.67084 0.2342 0.0
C1540 C 0.40744 0.68344 0.23133 0.0
C1541 C 0.39538 0.63216 0.22133 0.0
C1542 C 0.40683 0.70126 0.21582 0.0
C1543 C 0.38877 0.71914 0.21662 0.0
C1544 C 0.37104 0.71958 0.23305 0.0
C1545 C 0.37177 0.70161 0.24849 0.0
C1546 C 0.38979 0.68387 0.2477 0.0
H1547 H 0.3947 0.61402 0.21234 0.0
H1548 H 0.38642 0.63182 0.23791 0.0
H1549 H 0.38494 0.64452 0.21048 0.0
H1550 H 0.42032 0.70132 0.20305 0.0
H1551 H 0.38893 0.73275 0.20459 0.0
H1552 H 0.51127 0.43433 0.16276 0.0
H1553 H 0.47886 0.40912 0.17233 0.0
H1554 H 0.46469 0.45708 0.232 0.0
H1555 H 0.49667 0.48265 0.22244 0.0
H1556 H 0.46662 0.4077 0.24082 0.0
H1557 H 0.40577 0.42536 0.16455 0.0
H1558 H 0.43592 0.41553 0.15821 0.0
H1559 H 0.43104 0.44382 0.17398 0.0
C1560 C 0.50119 0.43975 0.1778 0.0
C1561 C 0.50679 0.46074 0.19172 0.0
C1562 C 0.48264 0.4252 0.18329 0.0
C1563 C 0.46919 0.43125 0.20281 0.0
C1564 C 0.47485 0.45198 0.21689 0.0
H1565 H 0.32959 0.38517 0.23576 0.0
H1566 H 0.36557 0.40646 0.22815 0.0
C1567 C 0.49329 0.46659 0.21138 0.0
C1568 C 0.44902 0.41622 0.20848 0.0
H1569 H 0.39299 0.39741 0.18893 0.0
C1570 C 0.45056 0.40535 0.22943 0.0
C1571 C 0.42795 0.41332 0.19373 0.0
C1572 C 0.42484 0.42524 0.17144 0.0
C1573 C 0.43164 0.39169 0.236 0.0
C1574 C 0.41063 0.38869 0.22118 0.0
C1575 C 0.40914 0.39954 0.20022 0.0
C1576 C 0.38938 0.37553 0.22753 0.0
C1577 C 0.43395 0.3811 0.25903 0.0
C1578 C 0.39074 0.35099 0.23004 0.0
C1579 C 0.37005 0.33868 0.23442 0.0
C1580 C 0.34764 0.35072 0.23628 0.0
C1581 C 0.34655 0.37535 0.23439 0.0
C1582 C 0.36711 0.38757 0.22997 0.0
H1583 H 0.449 0.38886 0.27036 0.0
H1584 H 0.41696 0.38386 0.26821 0.0
H1585 H 0.43746 0.3617 0.2561 0.0
H1586 H 0.40763 0.34123 0.22796 0.0
H1587 H 0.37144 0.31969 0.23571 0.0
H1588 H 0.81096 0.51819 0.55602 0.0
H1589 H 0.81817 0.54973 0.58693 0.0
H1590 H 0.82366 0.60029 0.536 0.0
H1591 H 0.81574 0.56899 0.50497 0.0
H1592 H 0.85403 0.58152 0.59911 0.0
H1593 H 0.76896 0.62854 0.57348 0.0
H1594 H 0.77647 0.59889 0.56169 0.0
H1595 H 0.78947 0.62413 0.55062 0.0
C1596 C 0.81398 0.53596 0.55136 0.0
C1597 C 0.81242 0.54118 0.52805 0.0
C1598 C 0.8181 0.55397 0.56907 0.0
C1599 C 0.82084 0.57744 0.56377 0.0
C1600 C 0.82091 0.5824 0.54048 0.0
H1601 H 0.83581 0.71215 0.64446 0.0
H1602 H 0.83754 0.67863 0.61494 0.0
C1603 C 0.81653 0.56447 0.52277 0.0
C1604 C 0.82234 0.59688 0.58257 0.0
H1605 H 0.79431 0.64845 0.60266 0.0
C1606 C 0.84095 0.59612 0.59993 0.0
C1607 C 0.80507 0.61578 0.58375 0.0
C1608 C 0.78373 0.61683 0.56653 0.0
C1609 C 0.84301 0.61407 0.61818 0.0
C1610 C 0.82601 0.63311 0.61902 0.0
C1611 C 0.80738 0.63383 0.60178 0.0
C1612 C 0.82715 0.65268 0.63758 0.0
C1613 C 0.86346 0.61285 0.63628 0.0
C1614 C 0.82079 0.64905 0.66005 0.0
C1615 C 0.81962 0.66821 0.67692 0.0
C1616 C 0.82483 0.69117 0.67147 0.0
C1617 C 0.83174 0.69461 0.64911 0.0
C1618 C 0.83276 0.67552 0.63226 0.0
H1619 H 0.87703 0.59877 0.6314 0.0
H1620 H 0.87256 0.63017 0.63907 0.0
H1621 H 0.85618 0.60906 0.65296 0.0
H1622 H 0.81609 0.63155 0.66433 0.0
H1623 H 0.81416 0.66515 0.69403 0.0
H1624 H 0.51295 0.82252 0.56123 0.0
H1625 H 0.48227 0.81365 0.58755 0.0
H1626 H 0.43064 0.85788 0.55196 0.0
H1627 H 0.4611 0.86661 0.52527 0.0
H1628 H 0.4307 0.86555 0.60042 0.0
H1629 H 0.42477 0.7697 0.57189 0.0
H1630 H 0.4549 0.77917 0.57993 0.0
H1631 H 0.43889 0.79051 0.55527 0.0
C1632 C 0.49505 0.83024 0.55879 0.0
C1633 C 0.48958 0.84516 0.54087 0.0
C1634 C 0.47748 0.82511 0.57389 0.0
C1635 C 0.454 0.83472 0.57147 0.0
C1636 C 0.4486 0.85012 0.55407 0.0
H1637 H 0.33106 0.78838 0.64456 0.0
H1638 H 0.35757 0.79793 0.6142 0.0
C1639 C 0.46615 0.85523 0.53889 0.0
C1640 C 0.43527 0.82902 0.58738 0.0
H1641 H 0.40558 0.78293 0.60658 0.0
C1642 C 0.42509 0.84751 0.60165 0.0
C1643 C 0.42763 0.80552 0.58874 0.0
C1644 C 0.43691 0.78508 0.573 0.0
C1645 C 0.40816 0.84304 0.61778 0.0
C1646 C 0.4014 0.8194 0.61994 0.0
C1647 C 0.41091 0.80101 0.60509 0.0
C1648 C 0.38526 0.81338 0.63812 0.0
C1649 C 0.39761 0.86373 0.63237 0.0
C1650 C 0.39219 0.81847 0.66161 0.0
C1651 C 0.37716 0.81304 0.67885 0.0
C1652 C 0.35489 0.80227 0.67303 0.0
C1653 C 0.34807 0.79677 0.64953 0.0
C1654 C 0.3632 0.8022 0.63221 0.0
H1655 H 0.3991 0.88066 0.62422 0.0
H1656 H 0.37834 0.86096 0.63526 0.0
H1657 H 0.40765 0.86553 0.64948 0.0
H1658 H 0.40933 0.82659 0.66664 0.0
H1659 H 0.383 0.81735 0.69681 0.0
H1660 H 0.36302 0.45047 0.56418 0.0
H1661 H 0.35785 0.42656 0.59662 0.0
H1662 H 0.28856 0.46059 0.60769 0.0
H1663 H 0.29314 0.48393 0.57482 0.0
H1664 H 0.34965 0.43992 0.64371 0.0
H1665 H 0.27319 0.38975 0.59917 0.0
H1666 H 0.29237 0.40768 0.58402 0.0
H1667 H 0.26939 0.42149 0.60153 0.0
C1668 C 0.34663 0.4528 0.57342 0.0
C1669 C 0.32842 0.46898 0.56668 0.0
C1670 C 0.34378 0.43926 0.59207 0.0
C1671 C 0.32267 0.44158 0.60431 0.0
C1672 C 0.30482 0.45828 0.59822 0.0
H1673 H 0.27772 0.35001 0.70825 0.0
H1674 H 0.27929 0.38371 0.68429 0.0
C1675 C 0.30762 0.4718 0.57954 0.0
C1676 C 0.31912 0.42593 0.62295 0.0
H1677 H 0.28521 0.38034 0.63685 0.0
C1678 C 0.33547 0.427 0.64232 0.0
C1679 C 0.30053 0.40918 0.62109 0.0
C1680 C 0.28294 0.40672 0.60028 0.0
C1681 C 0.33396 0.41145 0.65974 0.0
C1682 C 0.31585 0.39419 0.6575 0.0
C1683 C 0.29901 0.39367 0.63854 0.0
C1684 C 0.31536 0.37513 0.67341 0.0
C1685 C 0.35192 0.41351 0.68026 0.0
C1686 C 0.335 0.35913 0.67501 0.0
C1687 C 0.33409 0.34 0.68854 0.0
C1688 C 0.31351 0.33645 0.70064 0.0
C1689 C 0.29384 0.35249 0.69916 0.0
C1690 C 0.29474 0.37169 0.68555 0.0
H1691 H 0.35871 0.43185 0.6835 0.0
H1692 H 0.34395 0.40846 0.69621 0.0
H1693 H 0.36761 0.40148 0.6766 0.0
H1694 H 0.35082 0.36107 0.6653 0.0
H1695 H 0.34934 0.32766 0.6891 0.0
H1696 H 0.63202 0.19095 0.56677 0.0
H1697 H 0.6608 0.20412 0.59797 0.0
H1698 H 0.64365 0.27709 0.58618 0.0
H1699 H 0.6141 0.26393 0.55488 0.0
H1700 H 0.70122 0.23 0.59688 0.0
H1701 H 0.63639 0.277 0.65559 0.0
H1702 H 0.62668 0.25757 0.63073 0.0
H1703 H 0.63629 0.28701 0.62703 0.0
C1704 C 0.63421 0.20985 0.57074 0.0
C1705 C 0.62061 0.22639 0.55831 0.0
C1706 C 0.65078 0.21734 0.58864 0.0
C1707 C 0.65427 0.24158 0.59466 0.0
C1708 C 0.64095 0.25827 0.58216 0.0
H1709 H 0.75264 0.30518 0.705 0.0
H1710 H 0.72532 0.2991 0.67049 0.0
C1711 C 0.62417 0.25074 0.5642 0.0
C1712 C 0.67208 0.24889 0.6139 0.0
H1713 H 0.67741 0.27689 0.6685 0.0
C1714 C 0.69601 0.24036 0.61248 0.0
C1715 C 0.66532 0.26244 0.63429 0.0
C1716 C 0.63975 0.27142 0.63721 0.0
C1717 C 0.7132 0.24464 0.63096 0.0
C1718 C 0.70627 0.25762 0.65151 0.0
C1719 C 0.6826 0.26684 0.65273 0.0
C1720 C 0.72317 0.26118 0.67217 0.0
C1721 C 0.73867 0.23522 0.62844 0.0
C1722 C 0.73093 0.24188 0.68463 0.0
C1723 C 0.74651 0.2453 0.70441 0.0
C1724 C 0.75467 0.26807 0.71196 0.0
C1725 C 0.74684 0.28737 0.69946 0.0
C1726 C 0.73116 0.28397 0.6798 0.0
H1727 H 0.7424 0.23002 0.61007 0.0
H1728 H 0.75186 0.2487 0.63561 0.0
H1729 H 0.74151 0.21933 0.63832 0.0
H1730 H 0.72474 0.22418 0.67917 0.0
H1731 H 0.75218 0.23015 0.71376 0.0
H1732 H 0.81291 0.43913 0.44979 0.0
H1733 H 0.82247 0.40308 0.42544 0.0
H1734 H 0.84371 0.44558 0.37207 0.0
H1735 H 0.83462 0.48169 0.39641 0.0
H1736 H 0.7988 0.39145 0.38434 0.0
H1737 H 0.8963 0.39476 0.37112 0.0
H1738 H 0.88212 0.41269 0.39405 0.0
H1739 H 0.88107 0.42211 0.36512 0.0
C1740 C 0.82018 0.44082 0.43309 0.0
C1741 C 0.82288 0.4633 0.42496 0.0
C1742 C 0.82562 0.42018 0.41921 0.0
C1743 C 0.83399 0.42162 0.39703 0.0
C1744 C 0.83779 0.44402 0.38933 0.0
H1745 H 0.83568 0.35006 0.26549 0.0
H1746 H 0.8374 0.37567 0.30154 0.0
C1747 C 0.83244 0.46469 0.40323 0.0
C1748 C 0.83589 0.40003 0.38084 0.0
H1749 H 0.87249 0.37143 0.34161 0.0
C1750 C 0.81508 0.38668 0.37538 0.0
C1751 C 0.85717 0.3938 0.36925 0.0
C1752 C 0.88049 0.40646 0.37537 0.0
C1753 C 0.8145 0.36832 0.35752 0.0
C1754 C 0.83533 0.36314 0.34498 0.0
C1755 C 0.85653 0.37558 0.35126 0.0
C1756 C 0.8346 0.34702 0.32358 0.0
C1757 C 0.79126 0.35556 0.35119 0.0
C1758 C 0.83241 0.32241 0.32413 0.0
C1759 C 0.83146 0.30765 0.30345 0.0
C1760 C 0.83264 0.31744 0.2821 0.0
C1761 C 0.83477 0.34206 0.28171 0.0
C1762 C 0.83582 0.3567 0.30227 0.0
H1763 H 0.77608 0.36326 0.36126 0.0
H1764 H 0.78634 0.35627 0.33244 0.0
H1765 H 0.79372 0.3366 0.35455 0.0
H1766 H 0.83158 0.31465 0.34048 0.0
H1767 H 0.82999 0.28868 0.30417 0.0
H1768 H 0.62907 0.88155 0.42032 0.0
H1769 H 0.6588 0.87468 0.39061 0.0
H1770 H 0.66033 0.79985 0.40003 0.0
H1771 H 0.6306 0.80654 0.42939 0.0
H1772 H 0.7046 0.85676 0.39283 0.0
H1773 H 0.64907 0.79842 0.33085 0.0
H1774 H 0.63653 0.8155 0.3552 0.0
H1775 H 0.65212 0.78766 0.35907 0.0
C1776 C 0.63573 0.86364 0.41602 0.0
C1777 C 0.62717 0.84457 0.42706 0.0
C1778 C 0.65269 0.85972 0.399 0.0
C1779 C 0.66147 0.83666 0.39265 0.0
C1780 C 0.65332 0.81769 0.40402 0.0
H1781 H 0.7695 0.7715 0.30416 0.0
H1782 H 0.73972 0.78146 0.33311 0.0
C1783 C 0.63627 0.82157 0.42087 0.0
C1784 C 0.67959 0.83241 0.37463 0.0
H1785 H 0.69103 0.79932 0.32412 0.0
C1786 C 0.70153 0.84437 0.3777 0.0
C1787 C 0.67562 0.81628 0.3548 0.0
C1788 C 0.65197 0.80392 0.34962 0.0
C1789 C 0.7198 0.84011 0.3619 0.0
C1790 C 0.716 0.82359 0.3424 0.0
C1791 C 0.69399 0.81186 0.33916 0.0
C1792 C 0.7347 0.81801 0.32524 0.0
C1793 C 0.74331 0.85282 0.36648 0.0
C1794 C 0.74175 0.83524 0.31109 0.0
C1795 C 0.75876 0.82959 0.2944 0.0
C1796 C 0.76911 0.80658 0.29153 0.0
C1797 C 0.76208 0.78943 0.3059 0.0
C1798 C 0.74498 0.79506 0.32246 0.0
H1799 H 0.74527 0.86121 0.38449 0.0
H1800 H 0.75883 0.84037 0.3634 0.0
H1801 H 0.74409 0.86696 0.35444 0.0
H1802 H 0.73381 0.85297 0.3127 0.0
H1803 H 0.76363 0.84324 0.28364 0.0
H1804 H 0.36452 0.58253 0.42975 0.0
H1805 H 0.35865 0.61567 0.40537 0.0
H1806 H 0.31215 0.65132 0.45508 0.0
H1807 H 0.31786 0.61817 0.47941 0.0
H1808 H 0.2912 0.64746 0.41162 0.0
H1809 H 0.38288 0.68311 0.41017 0.0
H1810 H 0.38209 0.65169 0.40268 0.0
H1811 H 0.37484 0.66346 0.43131 0.0
C1812 C 0.35355 0.5977 0.43573 0.0
C1813 C 0.34152 0.59772 0.45638 0.0
C1814 C 0.35023 0.61664 0.42182 0.0
C1815 C 0.33511 0.63603 0.42852 0.0
C1816 C 0.32388 0.63651 0.4496 0.0
H1817 H 0.31858 0.75827 0.34574 0.0
H1818 H 0.32411 0.7341 0.37883 0.0
C1819 C 0.32708 0.61755 0.46342 0.0
C1820 C 0.32916 0.65465 0.41256 0.0
H1821 H 0.35414 0.69432 0.38038 0.0
C1822 C 0.30493 0.65793 0.40501 0.0
C1823 C 0.34703 0.66849 0.40419 0.0
C1824 C 0.37314 0.66671 0.41268 0.0
C1825 C 0.2982 0.67403 0.3886 0.0
C1826 C 0.31626 0.68684 0.37923 0.0
C1827 C 0.34036 0.68429 0.38746 0.0
C1828 C 0.31074 0.70202 0.36002 0.0
C1829 C 0.27186 0.67707 0.38138 0.0
C1830 C 0.30119 0.692 0.3386 0.0
C1831 C 0.29794 0.70575 0.31977 0.0
C1832 C 0.30435 0.72968 0.32204 0.0
C1833 C 0.31334 0.73988 0.34362 0.0
C1834 C 0.31659 0.7261 0.36247 0.0
H1835 H 0.26009 0.67185 0.39485 0.0
H1836 H 0.26736 0.69573 0.37787 0.0
H1837 H 0.26772 0.66553 0.36529 0.0
H1838 H 0.29703 0.67332 0.33623 0.0
H1839 H 0.29119 0.69744 0.30325 0.0
H1840 H 0.48328 0.21327 0.45856 0.0
H1841 H 0.45891 0.23041 0.42764 0.0
H1842 H 0.51162 0.28437 0.42457 0.0
H1843 H 0.53634 0.26722 0.45585 0.0
H1844 H 0.43965 0.27883 0.42449 0.0
H1845 H 0.50436 0.24926 0.3573 0.0
H1846 H 0.50497 0.23673 0.38493 0.0
H1847 H 0.51585 0.26603 0.38317 0.0
C1848 C 0.48966 0.22894 0.45152 0.0
C1849 C 0.51184 0.23881 0.4596 0.0
C1850 C 0.47565 0.23873 0.43385 0.0
C1851 C 0.48356 0.25848 0.42362 0.0
C1852 C 0.50531 0.26896 0.4321 0.0
H1853 H 0.38754 0.3244 0.31963 0.0
H1854 H 0.41795 0.31975 0.35139 0.0
C1855 C 0.51932 0.25926 0.45005 0.0
C1856 C 0.46918 0.2672 0.40357 0.0
H1857 H 0.4675 0.2664 0.34452 0.0
C1858 C 0.44586 0.27651 0.40704 0.0
C1859 C 0.47724 0.26382 0.3808 0.0
C1860 C 0.50191 0.25331 0.37611 0.0
C1861 C 0.43016 0.28203 0.3883 0.0
C1862 C 0.43805 0.27824 0.36547 0.0
C1863 C 0.46157 0.26942 0.36204 0.0
C1864 C 0.42145 0.2816 0.34496 0.0
C1865 C 0.40487 0.29086 0.39295 0.0
C1866 C 0.41394 0.26181 0.33034 0.0
C1867 C 0.3966 0.26442 0.31222 0.0
C1868 C 0.38661 0.2869 0.30828 0.0
C1869 C 0.39492 0.30685 0.32229 0.0
C1870 C 0.41218 0.30421 0.3405 0.0
H1871 H 0.40035 0.2891 0.41112 0.0
H1872 H 0.40306 0.30989 0.38967 0.0
H1873 H 0.39153 0.28095 0.38115 0.0
H1874 H 0.42089 0.24421 0.33344 0.0
H1875 H 0.39054 0.24874 0.3017 0.0
H1876 H 0.58761 0.79981 0.54921 0.0
H1877 H 0.61508 0.79813 0.5835 0.0
H1878 H 0.67465 0.7821 0.53981 0.0
H1879 H 0.64743 0.78397 0.50539 0.0
H1880 H 0.6468 0.76251 0.59892 0.0
H1881 H 0.69578 0.84223 0.58018 0.0
H1882 H 0.66717 0.83415 0.56577 0.0
H1883 H 0.69455 0.81935 0.55673 0.0
C1884 C 0.60651 0.79563 0.54685 0.0
C1885 C 0.61536 0.79225 0.52451 0.0
C1886 C 0.62218 0.79475 0.56649 0.0
C1887 C 0.64696 0.79057 0.56417 0.0
C1888 C 0.65566 0.78592 0.54195 0.0
H1889 H 0.75925 0.74991 0.65966 0.0
H1890 H 0.72797 0.75392 0.62922 0.0
C1891 C 0.64002 0.78678 0.5223 0.0
C1892 C 0.66379 0.79148 0.58495 0.0
H1893 H 0.71326 0.81991 0.61017 0.0
C1894 C 0.66122 0.77516 0.60148 0.0
C1895 C 0.68229 0.80833 0.58848 0.0
C1896 C 0.68504 0.82718 0.57199 0.0
C1897 C 0.6773 0.77459 0.62097 0.0
C1898 C 0.69657 0.7906 0.62384 0.0
C1899 C 0.69856 0.80756 0.60783 0.0
C1900 C 0.71576 0.78884 0.64243 0.0
C1901 C 0.67363 0.75675 0.63829 0.0
C1902 C 0.71981 0.80754 0.65963 0.0
C1903 C 0.7379 0.80538 0.67724 0.0
C1904 C 0.75232 0.78455 0.67772 0.0
C1905 C 0.74847 0.76618 0.66004 0.0
C1906 C 0.73045 0.76833 0.64262 0.0
H1907 H 0.65473 0.75066 0.63726 0.0
H1908 H 0.68559 0.741 0.63456 0.0
H1909 H 0.67823 0.76432 0.65623 0.0
H1910 H 0.70876 0.82362 0.65962 0.0
H1911 H 0.74041 0.81986 0.69054 0.0
H1912 H 0.63391 0.23197 0.452 0.0
H1913 H 0.66632 0.23803 0.42669 0.0
H1914 H 0.67128 0.16268 0.40811 0.0
H1915 H 0.63885 0.15636 0.43367 0.0
H1916 H 0.71437 0.21917 0.42586 0.0
H1917 H 0.65897 0.1919 0.34563 0.0
H1918 H 0.64594 0.19867 0.37329 0.0
H1919 H 0.66141 0.17073 0.36709 0.0
C1920 C 0.64208 0.21659 0.44288 0.0
C1921 C 0.63366 0.19364 0.44483 0.0
C1922 C 0.66057 0.22013 0.42832 0.0
C1923 C 0.67095 0.20085 0.41534 0.0
C1924 C 0.66317 0.17784 0.4177 0.0
H1925 H 0.77029 0.19969 0.30446 0.0
H1926 H 0.74595 0.18781 0.33522 0.0
C1927 C 0.64463 0.17427 0.43227 0.0
C1928 C 0.68935 0.2051 0.3988 0.0
H1929 H 0.69899 0.20242 0.34109 0.0
C1930 C 0.71111 0.21541 0.40733 0.0
C1931 C 0.68495 0.2002 0.37465 0.0
C1932 C 0.6615 0.18994 0.36451 0.0
C1933 C 0.72865 0.22099 0.39228 0.0
C1934 C 0.72406 0.21649 0.36812 0.0
C1935 C 0.70247 0.20579 0.35965 0.0
C1936 C 0.74088 0.22349 0.35114 0.0
C1937 C 0.75198 0.23151 0.40239 0.0
C1938 C 0.74623 0.24747 0.35001 0.0
C1939 C 0.76018 0.25428 0.3325 0.0
C1940 C 0.76877 0.23721 0.31575 0.0
C1941 C 0.76387 0.21318 0.3172 0.0
C1942 C 0.74999 0.20638 0.33472 0.0
H1943 H 0.75561 0.22745 0.42067 0.0
H1944 H 0.76744 0.22479 0.39218 0.0
H1945 H 0.75078 0.25109 0.40206 0.0
H1946 H 0.73894 0.26101 0.3622 0.0
H1947 H 0.76362 0.27293 0.33166 0.0
H1948 H 0.74861 0.54802 0.37082 0.0
H1949 H 0.76181 0.57597 0.3444 0.0
H1950 H 0.79814 0.61638 0.40179 0.0
H1951 H 0.78499 0.58859 0.42827 0.0
H1952 H 0.754 0.62481 0.34403 0.0
H1953 H 0.85153 0.60291 0.35645 0.0
H1954 H 0.82842 0.58461 0.36575 0.0
H1955 H 0.83725 0.61119 0.38303 0.0
C1956 C 0.75917 0.56299 0.37786 0.0
C1957 C 0.76593 0.56597 0.40163 0.0
C1958 C 0.76683 0.57885 0.36272 0.0
C1959 C 0.78142 0.5979 0.37108 0.0
C1960 C 0.78747 0.6014 0.39489 0.0
H1961 H 0.84038 0.72 0.31893 0.0
H1962 H 0.82954 0.68744 0.34132 0.0
C1963 C 0.77989 0.58554 0.41001 0.0
C1964 C 0.7901 0.61435 0.35499 0.0
H1965 H 0.8412 0.6374 0.33671 0.0
C1966 C 0.77305 0.6274 0.34222 0.0
C1967 C 0.81499 0.61761 0.35265 0.0
C1968 C 0.83413 0.60318 0.36502 0.0
C1969 C 0.78022 0.64429 0.32778 0.0
C1970 C 0.8051 0.64791 0.32584 0.0
C1971 C 0.82215 0.63456 0.33828 0.0
C1972 C 0.81367 0.6663 0.3118 0.0
C1973 C 0.76113 0.65872 0.31532 0.0
C1974 C 0.80905 0.66475 0.28771 0.0
C1975 C 0.8153 0.68327 0.27489 0.0
C1976 C 0.82631 0.70354 0.28601 0.0
C1977 C 0.83193 0.70454 0.30996 0.0
C1978 C 0.82573 0.68601 0.32275 0.0
H1979 H 0.74308 0.65718 0.32231 0.0
H1980 H 0.76587 0.67775 0.31666 0.0
H1981 H 0.75991 0.65229 0.29669 0.0
H1982 H 0.80009 0.64949 0.27892 0.0
H1983 H 0.81073 0.68209 0.25644 0.0
H1984 H 0.53121 0.79886 0.41643 0.0
H1985 H 0.50153 0.79976 0.3838 0.0
H1986 H 0.44537 0.78364 0.42795 0.0
H1987 H 0.47484 0.78302 0.46083 0.0
H1988 H 0.46903 0.76709 0.36263 0.0
H1989 H 0.42168 0.84654 0.40297 0.0
H1990 H 0.45096 0.83637 0.4137 0.0
H1991 H 0.4242 0.82189 0.4206 0.0
C1992 C 0.51261 0.79514 0.41917 0.0
C1993 C 0.50536 0.79115 0.44134 0.0
C1994 C 0.49566 0.79574 0.40049 0.0
C1995 C 0.47118 0.7924 0.40362 0.0
C1996 C 0.46411 0.78687 0.42533 0.0
H1997 H 0.35815 0.7667 0.29804 0.0
H1998 H 0.38684 0.76618 0.33125 0.0
C1999 C 0.48103 0.78629 0.44405 0.0
C2000 C 0.45303 0.79536 0.38431 0.0
H2001 H 0.40327 0.82824 0.36825 0.0
C2002 C 0.45469 0.78048 0.36383 0.0
C2003 C 0.43463 0.81319 0.38576 0.0
C2004 C 0.43281 0.83058 0.40684 0.0
C2005 C 0.43804 0.78252 0.34497 0.0
C2006 C 0.41904 0.79968 0.34679 0.0
C2007 C 0.41774 0.81499 0.36702 0.0
C2008 C 0.39996 0.80133 0.32809 0.0
C2009 C 0.44104 0.76638 0.32318 0.0
C2010 C 0.39695 0.8218 0.31598 0.0
C2011 C 0.38012 0.82233 0.29707 0.0
C2012 C 0.3661 0.80241 0.29018 0.0
C2013 C 0.36849 0.78243 0.30304 0.0
C2014 C 0.38512 0.78196 0.32187 0.0
H2015 H 0.45975 0.75904 0.32221 0.0
H2016 H 0.42871 0.75126 0.32301 0.0
H2017 H 0.43647 0.77592 0.3075 0.0
H2018 H 0.40815 0.83701 0.32068 0.0
H2019 H 0.37866 0.83792 0.28743 0.0
H2020 H 0.26197 0.45122 0.47784 0.0
H2021 H 0.25694 0.42534 0.44208 0.0
H2022 H 0.26489 0.48514 0.40202 0.0
H2023 H 0.27043 0.51114 0.43772 0.0
H2024 H 0.22701 0.42354 0.4008 0.0
H2025 H 0.32249 0.44125 0.38533 0.0
H2026 H 0.30924 0.45009 0.41248 0.0
H2027 H 0.30298 0.46708 0.38795 0.0
C2028 C 0.26215 0.45902 0.46145 0.0
C2029 C 0.26705 0.4832 0.46068 0.0
C2030 C 0.25924 0.44416 0.441 0.0
C2031 C 0.26109 0.45322 0.41942 0.0
C2032 C 0.2639 0.47771 0.41853 0.0
H2033 H 0.25075 0.3659 0.2859 0.0
H2034 H 0.24164 0.39545 0.31786 0.0
C2035 C 0.26696 0.49256 0.43897 0.0
C2036 C 0.26266 0.43668 0.39824 0.0
H2037 H 0.30186 0.41536 0.35776 0.0
C2038 C 0.24327 0.42184 0.39124 0.0
C2039 C 0.28407 0.43428 0.38601 0.0
C2040 C 0.30599 0.44884 0.39337 0.0
C2041 C 0.24482 0.40452 0.37243 0.0
C2042 C 0.26623 0.40218 0.36025 0.0
C2043 C 0.28542 0.41727 0.36706 0.0
C2044 C 0.27 0.38323 0.34139 0.0
C2045 C 0.22393 0.38829 0.36625 0.0
C2046 C 0.28894 0.36659 0.34398 0.0
C2047 C 0.2943 0.34988 0.32579 0.0
C2048 C 0.28085 0.34941 0.30449 0.0
C2049 C 0.2614 0.36568 0.30209 0.0
C2050 C 0.2561 0.38253 0.32038 0.0
H2051 H 0.21078 0.38929 0.38005 0.0
H2052 H 0.21437 0.39349 0.35008 0.0
H2053 H 0.23042 0.36961 0.3631 0.0
H2054 H 0.2999 0.36679 0.36004 0.0
H2055 H 0.30931 0.33758 0.32838 0.0
H2056 H 0.51172 0.22256 0.57656 0.0
H2057 H 0.48053 0.22552 0.60473 0.0
H2058 H 0.45746 0.15507 0.58085 0.0
H2059 H 0.48842 0.15213 0.55217 0.0
H2060 H 0.41933 0.19007 0.58576 0.0
H2061 H 0.48097 0.19019 0.66433 0.0
H2062 H 0.4883 0.21148 0.64471 0.0
H2063 H 0.49047 0.1803 0.63576 0.0
C2064 C 0.49994 0.20774 0.57715 0.0
C2065 C 0.50256 0.1871 0.5621 0.0
C2066 C 0.48229 0.20937 0.59344 0.0
C2067 C 0.46696 0.19038 0.59506 0.0
C2068 C 0.46929 0.16983 0.57996 0.0
H2069 H 0.37242 0.19227 0.711 0.0
H2070 H 0.39998 0.17826 0.68105 0.0
C2071 C 0.48705 0.16814 0.5637 0.0
C2072 C 0.44813 0.19241 0.61222 0.0
H2073 H 0.44017 0.20275 0.6701 0.0
C2074 C 0.42383 0.19255 0.60423 0.0
C2075 C 0.45409 0.19529 0.63628 0.0
C2076 C 0.47987 0.19409 0.64585 0.0
C2077 C 0.4053 0.19665 0.61968 0.0
C2078 C 0.41135 0.20091 0.64364 0.0
C2079 C 0.4356 0.19965 0.65169 0.0
C2080 C 0.39299 0.20816 0.66056 0.0
C2081 C 0.37946 0.1966 0.61021 0.0
C2082 C 0.37991 0.22956 0.6589 0.0
C2083 C 0.36421 0.23766 0.67596 0.0
C2084 C 0.36136 0.22453 0.69512 0.0
C2085 C 0.37411 0.2028 0.69647 0.0
C2086 C 0.38989 0.19476 0.67939 0.0
H2087 H 0.37755 0.18636 0.59302 0.0
H2088 H 0.36752 0.18896 0.62223 0.0
H2089 H 0.37323 0.21513 0.60803 0.0
H2090 H 0.38242 0.24042 0.64476 0.0
H2091 H 0.35476 0.25449 0.67435 0.0
H2092 H 0.71335 0.44722 0.53358 0.0
H2093 H 0.72065 0.4166 0.56085 0.0
H2094 H 0.7937 0.407 0.53978 0.0
H2095 H 0.78685 0.43732 0.513 0.0
H2096 H 0.77124 0.36406 0.54586 0.0
H2097 H 0.76275 0.43151 0.62088 0.0
H2098 H 0.73722 0.42899 0.60045 0.0
H2099 H 0.76518 0.43964 0.59173 0.0
C2100 C 0.7309 0.43846 0.53467 0.0
C2101 C 0.74946 0.4449 0.52108 0.0
C2102 C 0.73502 0.42097 0.5502 0.0
C2103 C 0.7578 0.40975 0.55244 0.0
C2104 C 0.77597 0.41537 0.53822 0.0
H2105 H 0.83355 0.35295 0.6678 0.0
H2106 H 0.82008 0.37332 0.63365 0.0
C2107 C 0.7719 0.43276 0.52277 0.0
C2108 C 0.76369 0.39347 0.57068 0.0
H2109 H 0.77365 0.39266 0.62913 0.0
C2110 C 0.77153 0.37016 0.5641 0.0
C2111 C 0.76438 0.40169 0.5944 0.0
C2112 C 0.75712 0.42685 0.60242 0.0
C2113 C 0.7805 0.35497 0.58065 0.0
C2114 C 0.78138 0.36331 0.60433 0.0
C2115 C 0.773 0.3864 0.61092 0.0
C2116 C 0.7916 0.34882 0.62271 0.0
C2117 C 0.78981 0.3305 0.57264 0.0
C2118 C 0.78049 0.32793 0.62743 0.0
C2119 C 0.78832 0.31616 0.64681 0.0
C2120 C 0.80718 0.3253 0.66182 0.0
C2121 C 0.81903 0.34553 0.65644 0.0
C2122 C 0.81128 0.35721 0.63703 0.0
H2123 H 0.7928 0.32876 0.5538 0.0
H2124 H 0.80699 0.32621 0.58228 0.0
H2125 H 0.77641 0.31721 0.57604 0.0
H2126 H 0.76504 0.32138 0.61682 0.0
H2127 H 0.77873 0.30069 0.65072 0.0
H2128 H 0.26548 0.59035 0.54255 0.0
H2129 H 0.25606 0.62538 0.56891 0.0
H2130 H 0.32641 0.61924 0.60354 0.0
H2131 H 0.33602 0.58483 0.57736 0.0
H2132 H 0.25434 0.6307 0.61617 0.0
H2133 H 0.32454 0.68813 0.58932 0.0
H2134 H 0.31569 0.66111 0.57252 0.0
H2135 H 0.33728 0.66016 0.5968 0.0
C2136 C 0.27888 0.5965 0.55582 0.0
C2137 C 0.30157 0.58493 0.55773 0.0
C2138 C 0.27353 0.61654 0.57078 0.0
C2139 C 0.2908 0.62532 0.58777 0.0
C2140 C 0.3131 0.61329 0.5901 0.0
H2141 H 0.28547 0.69589 0.72044 0.0
H2142 H 0.28435 0.6698 0.68478 0.0
C2143 C 0.31847 0.59344 0.5752 0.0
C2144 C 0.28556 0.64641 0.6039 0.0
H2145 H 0.31031 0.69806 0.62778 0.0
C2146 C 0.26628 0.64566 0.61841 0.0
C2147 C 0.30076 0.66626 0.6065 0.0
C2148 C 0.32055 0.66911 0.59025 0.0
C2149 C 0.26295 0.66331 0.63656 0.0
C2150 C 0.27965 0.68188 0.64059 0.0
C2151 C 0.29777 0.68361 0.62498 0.0
C2152 C 0.28001 0.6982 0.66204 0.0
C2153 C 0.24186 0.66158 0.65156 0.0
C2154 C 0.27895 0.72299 0.66117 0.0
C2155 C 0.27987 0.73806 0.68168 0.0
C2156 C 0.28201 0.7285 0.70329 0.0
C2157 C 0.28354 0.70376 0.70403 0.0
C2158 C 0.28269 0.68879 0.68365 0.0
H2159 H 0.22667 0.65222 0.64177 0.0
H2160 H 0.24751 0.65121 0.66641 0.0
H2161 H 0.23531 0.6794 0.6584 0.0
H2162 H 0.2772 0.73063 0.64465 0.0
H2163 H 0.27863 0.75708 0.68066 0.0
loop_
_geom_bond_atom_site_label_1
_geom_bond_atom_site_label_2
_geom_bond_distance
_geom_bond_site_symmetry_2
_ccdc_geom_bond_type
Cu0 N1 1.999 . S
Cu0 O6 1.974 . S
Cu0 N11 1.985 1_445 S
Cu0 O20 1.959 1_455 S
N1 Cu0 1.999 . S
N1 C3 1.263 . S
N1 C5 1.389 . S
N2 C3 1.358 . S
N2 C4 1.400 . S
C3 N1 1.263 . S
C3 N2 1.358 . S
C3 H9 0.930 . S
C4 N2 1.400 . S
C4 C5 1.351 . S
C4 H21 0.930 . S
C5 N1 1.389 . S
C5 C4 1.351 . S
C5 H10 0.930 . S
O6 Cu0 1.974 . S
O6 C16 1.282 1_545 S
C7 O8 1.261 . S
C7 O20 1.251 . S
O8 C7 1.261 . S
H9 C3 0.930 . S
H10 C5 0.930 . S
N11 Cu0 1.985 1_665 S
N11 C13 1.335 . S
N11 C14 1.390 . S
N12 C13 1.345 . S
N12 C15 1.336 . S
C13 N11 1.335 . S
C13 N12 1.345 . S
C13 H18 0.930 1_565 S
C14 N11 1.390 . S
C14 C15 1.346 . S
C14 H19 0.930 1_655 S
C15 N12 1.336 . S
C15 C14 1.346 . S
C15 H22 0.929 . S
C16 O6 1.282 1_565 S
C16 O17 1.228 . S
O17 C16 1.228 . S
H18 C13 0.930 1_545 S
H19 C14 0.930 1_455 S
O20 Cu0 1.959 1_655 S
O20 C7 1.251 . S
H21 C4 0.930 . S
H22 C15 0.929 . S
Cu23 N24 1.999 1_445 S
Cu23 O29 1.974 1_455 S
Cu23 N34 1.985 . S
Cu23 O43 1.959 1_545 S
N24 Cu23 1.999 1_665 S
N24 C26 1.263 . S
N24 C28 1.389 . S
N25 C26 1.358 . S
N25 C27 1.400 . S
C26 N24 1.263 . S
C26 N25 1.358 . S
C26 H32 0.930 . S
C27 N25 1.400 . S
C27 C28 1.351 . S
C27 H44 0.930 . S
C28 N24 1.389 . S
C28 C27 1.351 . S
C28 H33 0.930 1_655 S
O29 Cu23 1.974 1_655 S
O29 C39 1.282 . S
C30 O31 1.261 . S
C30 O43 1.251 . S
O31 C30 1.261 . S
H32 C26 0.930 . S
H33 C28 0.930 1_455 S
N34 Cu23 1.985 . S
N34 C36 1.335 . S
N34 C37 1.390 . S
N35 C36 1.345 . S
N35 C38 1.336 . S
C36 N34 1.335 . S
C36 N35 1.345 . S
C36 H41 0.930 . S
C37 N34 1.390 . S
C37 C38 1.346 . S
C37 H42 0.930 . S
C38 N35 1.336 . S
C38 C37 1.346 . S
C38 H45 0.929 . S
C39 O29 1.282 . S
C39 O40 1.216 . S
O40 C39 1.216 . S
H41 C36 0.930 . S
H42 C37 0.930 . S
O43 Cu23 1.959 1_565 S
O43 C30 1.251 . S
H44 C27 0.930 . S
H45 C38 0.929 . S
Cu46 N47 1.991 1_544 S
Cu46 O52 1.963 1_545 S
Cu46 N57 1.993 . S
Cu46 O66 1.970 1_554 S
N47 Cu46 1.991 1_566 S
N47 C49 1.263 . S
N47 C51 1.389 . S
N48 C49 1.358 . S
N48 C50 1.400 . S
C49 N47 1.263 . S
C49 N48 1.358 . S
C49 H55 0.930 . S
C50 N48 1.400 . S
C50 C51 1.351 . S
C50 H67 0.930 . S
C51 N47 1.389 . S
C51 C50 1.351 . S
C51 H56 0.930 . S
O52 Cu46 1.963 1_565 S
O52 C62 1.282 . S
C53 O54 1.261 . S
C53 O66 1.251 . S
O54 C53 1.261 . S
H55 C49 0.930 . S
H56 C51 0.930 . S
N57 Cu46 1.993 . S
N57 C59 1.335 . S
N57 C60 1.390 . S
N58 C59 1.345 . S
N58 C61 1.336 . S
C59 N57 1.335 . S
C59 N58 1.345 . S
C59 H64 0.930 . S
C60 N57 1.390 . S
C60 C61 1.346 . S
C60 H65 0.930 . S
C61 N58 1.336 . S
C61 C60 1.346 . S
C61 H68 0.929 . S
C62 O52 1.282 . S
C62 O63 1.216 . S
O63 C62 1.216 . S
H64 C59 0.930 . S
H65 C60 0.930 . S
O66 Cu46 1.970 1_556 S
O66 C53 1.251 . S
H67 C50 0.930 . S
H68 C61 0.929 . S
Cu69 N70 1.999 1_554 S
Cu69 O75 1.974 . S
Cu69 N80 1.985 1_455 S
Cu69 O89 1.959 1_454 S
N70 Cu69 1.999 1_556 S
N70 C72 1.263 . S
N70 C74 1.389 . S
N71 C72 1.358 . S
N71 C73 1.400 . S
C72 N70 1.263 . S
C72 N71 1.358 . S
C72 H78 0.930 . S
C73 N71 1.400 . S
C73 C74 1.351 . S
C73 H90 0.930 . S
C74 N70 1.389 . S
C74 C73 1.351 . S
C74 H79 0.930 . S
O75 Cu69 1.974 . S
O75 C85 1.282 . S
C76 O77 1.261 . S
C76 O89 1.251 . S
O77 C76 1.261 . S
H78 C72 0.930 . S
H79 C74 0.930 . S
N80 Cu69 1.985 1_655 S
N80 C82 1.335 . S
N80 C83 1.390 . S
N81 C82 1.345 . S
N81 C84 1.336 . S
C82 N80 1.335 . S
C82 N81 1.345 . S
C82 H87 0.930 . S
C83 N80 1.390 . S
C83 C84 1.346 . S
C83 H88 0.930 1_655 S
C84 N81 1.336 . S
C84 C83 1.346 . S
C84 H91 0.929 . S
C85 O75 1.282 . S
C85 O86 1.216 . S
O86 C85 1.216 . S
H87 C82 0.930 . S
H88 C83 0.930 1_455 S
O89 Cu69 1.959 1_656 S
O89 C76 1.251 . S
H90 C73 0.930 . S
H91 C84 0.929 . S
Cu92 N93 1.999 1_554 S
Cu92 O98 1.974 . S
Cu92 N103 1.985 . S
Cu92 O112 1.959 1_554 S
N93 Cu92 1.999 1_556 S
N93 C95 1.263 . S
N93 C97 1.389 . S
N94 C95 1.358 . S
N94 C96 1.400 . S
C95 N93 1.263 . S
C95 N94 1.358 . S
C95 H101 0.930 1_556 S
C96 N94 1.400 . S
C96 C97 1.351 . S
C96 H113 0.930 . S
C97 N93 1.389 . S
C97 C96 1.351 . S
C97 H102 0.930 . S
O98 Cu92 1.974 . S
O98 C108 1.282 . S
C99 O100 1.261 . S
C99 O112 1.251 . S
O100 C99 1.261 . S
H101 C95 0.930 1_554 S
H102 C97 0.930 . S
N103 Cu92 1.985 . S
N103 C105 1.335 . S
N103 C106 1.390 . S
N104 C105 1.345 1_565 S
N104 C107 1.336 1_565 S
C105 N103 1.335 . S
C105 N104 1.345 1_545 S
C105 H110 0.930 1_545 S
C106 N103 1.390 . S
C106 C107 1.346 . S
C106 H111 0.930 . S
C107 N104 1.336 1_545 S
C107 C106 1.346 . S
C107 H114 0.929 . S
C108 O98 1.282 . S
C108 O109 1.216 . S
O109 C108 1.216 . S
H110 C105 0.930 1_565 S
H111 C106 0.930 . S
O112 Cu92 1.959 1_556 S
O112 C99 1.251 . S
H113 C96 0.930 . S
H114 C107 0.929 . S
Cu115 N116 1.999 1_454 S
Cu115 O121 1.974 1_455 S
Cu115 N126 1.985 . S
Cu115 O135 1.959 1_554 S
N116 Cu115 1.999 1_656 S
N116 C118 1.263 . S
N116 C120 1.389 . S
N117 C118 1.358 . S
N117 C119 1.400 . S
C118 N116 1.263 . S
C118 N117 1.358 . S
C118 H124 0.930 . S
C119 N117 1.400 . S
C119 C120 1.351 . S
C119 H136 0.930 . S
C120 N116 1.389 . S
C120 C119 1.351 . S
C120 H125 0.930 1_655 S
O121 Cu115 1.974 1_655 S
O121 C131 1.282 . S
C122 O123 1.261 . S
C122 O135 1.251 . S
O123 C122 1.261 . S
H124 C118 0.930 . S
H125 C120 0.930 1_455 S
N126 Cu115 1.985 . S
N126 C128 1.335 . S
N126 C129 1.390 . S
N127 C128 1.345 . S
N127 C130 1.336 . S
C128 N126 1.335 . S
C128 N127 1.345 . S
C128 H133 0.930 . S
C129 N126 1.390 . S
C129 C130 1.346 . S
C129 H134 0.930 . S
C130 N127 1.336 . S
C130 C129 1.346 . S
C130 H137 0.929 . S
C131 O121 1.282 . S
C131 O132 1.216 . S
O132 C131 1.216 . S
H133 C128 0.930 . S
H134 C129 0.930 . S
O135 Cu115 1.959 1_556 S
O135 C122 1.251 . S
H136 C119 0.930 . S
H137 C130 0.929 . S
Cu138 N139 1.999 . S
Cu138 O144 1.974 . S
Cu138 N149 1.985 . S
Cu138 O158 1.959 . S
N139 Cu138 1.999 . S
N139 C141 1.263 . S
N139 C143 1.389 . S
N140 C141 1.358 . S
N140 C142 1.400 . S
C141 N139 1.263 . S
C141 N140 1.358 . S
C141 H147 0.930 . S
C142 N140 1.400 . S
C142 C143 1.351 . S
C142 H159 0.930 . S
C143 N139 1.389 . S
C143 C142 1.351 . S
C143 H148 0.930 . S
O144 Cu138 1.974 . S
O144 C154 1.282 . S
C145 O146 1.261 . S
C145 O158 1.251 . S
O146 C145 1.261 . S
H147 C141 0.930 . S
H148 C143 0.930 . S
N149 Cu138 1.985 . S
N149 C151 1.335 . S
N149 C152 1.390 . S
N150 C151 1.345 . S
N150 C153 1.336 . S
C151 N149 1.335 . S
C151 N150 1.345 . S
C151 H156 0.930 . S
C152 N149 1.390 . S
C152 C153 1.346 . S
C152 H157 0.930 . S
C153 N150 1.336 . S
C153 C152 1.346 . S
C153 H160 0.929 . S
C154 O144 1.282 . S
C154 O155 1.216 . S
O155 C154 1.216 . S
H156 C151 0.930 . S
H157 C152 0.930 . S
O158 Cu138 1.959 . S
O158 C145 1.251 . S
H159 C142 0.930 . S
H160 C153 0.929 . S
Cu161 N162 1.999 . S
Cu161 O167 1.974 . S
Cu161 N172 1.985 . S
Cu161 O181 1.959 . S
N162 Cu161 1.999 . S
N162 C164 1.263 . S
N162 C166 1.389 . S
N163 C164 1.358 . S
N163 C165 1.400 . S
C164 N162 1.263 . S
C164 N163 1.358 . S
C164 H170 0.930 . S
C165 N163 1.400 . S
C165 C166 1.351 . S
C165 H182 0.930 . S
C166 N162 1.389 . S
C166 C165 1.351 . S
C166 H171 0.930 . S
O167 Cu161 1.974 . S
O167 C177 1.282 . S
C168 O169 1.261 . S
C168 O181 1.251 . S
O169 C168 1.261 . S
H170 C164 0.930 . S
H171 C166 0.930 . S
N172 Cu161 1.985 . S
N172 C174 1.335 . S
N172 C175 1.390 . S
N173 C174 1.345 . S
N173 C176 1.336 . S
C174 N172 1.335 . S
C174 N173 1.345 . S
C174 H179 0.930 . S
C175 N172 1.390 . S
C175 C176 1.346 . S
C175 H180 0.930 . S
C176 N173 1.336 . S
C176 C175 1.346 . S
C176 H183 0.929 . S
C177 O167 1.282 . S
C177 O178 1.216 . S
O178 C177 1.216 . S
H179 C174 0.930 . S
H180 C175 0.930 . S
O181 Cu161 1.959 . S
O181 C168 1.251 . S
H182 C165 0.930 . S
H183 C176 0.929 . S
Cu184 N185 1.999 . S
Cu184 O190 1.974 . S
Cu184 N195 1.985 . S
Cu184 O204 1.959 . S
N185 Cu184 1.999 . S
N185 C187 1.263 . S
N185 C189 1.389 . S
N186 C187 1.358 . S
N186 C188 1.400 . S
C187 N185 1.263 . S
C187 N186 1.358 . S
C187 H193 0.930 . S
C188 N186 1.400 . S
C188 C189 1.351 . S
C188 H205 0.930 . S
C189 N185 1.389 . S
C189 C188 1.351 . S
C189 H194 0.930 . S
O190 Cu184 1.974 . S
O190 C200 1.282 . S
C191 O192 1.261 . S
C191 O204 1.251 . S
O192 C191 1.261 . S
H193 C187 0.930 . S
H194 C189 0.930 . S
N195 Cu184 1.985 . S
N195 C197 1.335 . S
N195 C198 1.390 . S
N196 C197 1.345 . S
N196 C199 1.336 . S
C197 N195 1.335 . S
C197 N196 1.345 . S
C197 H202 0.930 . S
C198 N195 1.390 . S
C198 C199 1.346 . S
C198 H203 0.930 . S
C199 N196 1.336 . S
C199 C198 1.346 . S
C199 H206 0.929 . S
C200 O190 1.282 . S
C200 O201 1.216 . S
O201 C200 1.216 . S
H202 C197 0.930 . S
H203 C198 0.930 . S
O204 Cu184 1.959 . S
O204 C191 1.251 . S
H205 C188 0.930 . S
H206 C199 0.929 . S
Cu207 N208 1.999 . S
Cu207 O213 1.974 . S
Cu207 N218 1.985 . S
Cu207 O227 1.959 . S
N208 Cu207 1.999 . S
N208 C210 1.263 . S
N208 C212 1.389 . S
N209 C210 1.358 . S
N209 C211 1.400 . S
C210 N208 1.263 . S
C210 N209 1.358 . S
C210 H216 0.930 . S
C211 N209 1.400 . S
C211 C212 1.351 . S
C211 H228 0.930 . S
C212 N208 1.389 . S
C212 C211 1.351 . S
C212 H217 0.930 . S
O213 Cu207 1.974 . S
O213 C223 1.282 . S
C214 O215 1.261 . S
C214 O227 1.251 . S
O215 C214 1.261 . S
H216 C210 0.930 . S
H217 C212 0.930 . S
N218 Cu207 1.985 . S
N218 C220 1.335 . S
N218 C221 1.390 . S
N219 C220 1.345 . S
N219 C222 1.336 . S
C220 N218 1.335 . S
C220 N219 1.345 . S
C220 H225 0.930 . S
C221 N218 1.390 . S
C221 C222 1.346 . S
C221 H226 0.930 . S
C222 N219 1.336 . S
C222 C221 1.346 . S
C222 H229 0.929 . S
C223 O213 1.282 . S
C223 O224 1.216 . S
O224 C223 1.216 . S
H225 C220 0.930 . S
H226 C221 0.930 . S
O227 Cu207 1.959 . S
O227 C214 1.251 . S
H228 C211 0.930 . S
H229 C222 0.929 . S
Cu230 N231 1.999 . S
Cu230 O236 1.974 . S
Cu230 N241 1.985 . S
Cu230 O250 1.959 . S
N231 Cu230 1.999 . S
N231 C233 1.263 . S
N231 C235 1.389 . S
N232 C233 1.358 . S
N232 C234 1.400 . S
C233 N231 1.263 . S
C233 N232 1.358 . S
C233 H239 0.930 . S
C234 N232 1.400 . S
C234 C235 1.351 . S
C234 H251 0.930 . S
C235 N231 1.389 . S
C235 C234 1.351 . S
C235 H240 0.930 . S
O236 Cu230 1.974 . S
O236 C246 1.282 . S
C237 O238 1.261 . S
C237 O250 1.251 . S
O238 C237 1.261 . S
H239 C233 0.930 . S
H240 C235 0.930 . S
N241 Cu230 1.985 . S
N241 C243 1.335 . S
N241 C244 1.390 . S
N242 C243 1.345 . S
N242 C245 1.336 . S
C243 N241 1.335 . S
C243 N242 1.345 . S
C243 H248 0.930 . S
C244 N241 1.390 . S
C244 C245 1.346 . S
C244 H249 0.930 . S
C245 N242 1.336 . S
C245 C244 1.346 . S
C245 H252 0.929 . S
C246 O236 1.282 . S
C246 O247 1.216 . S
O247 C246 1.216 . S
H248 C243 0.930 . S
H249 C244 0.930 . S
O250 Cu230 1.959 . S
O250 C237 1.251 . S
H251 C234 0.930 . S
H252 C245 0.929 . S
Cu253 N254 1.999 . S
Cu253 O259 1.974 . S
Cu253 N264 1.985 . S
Cu253 O273 1.959 . S
N254 Cu253 1.999 . S
N254 C256 1.263 . S
N254 C258 1.389 . S
N255 C256 1.358 . S
N255 C257 1.400 . S
C256 N254 1.263 . S
C256 N255 1.358 . S
C256 H262 0.930 . S
C257 N255 1.400 . S
C257 C258 1.351 . S
C257 H274 0.930 . S
C258 N254 1.389 . S
C258 C257 1.351 . S
C258 H263 0.930 . S
O259 Cu253 1.974 . S
O259 C269 1.282 . S
C260 O261 1.261 . S
C260 O273 1.251 . S
O261 C260 1.261 . S
H262 C256 0.930 . S
H263 C258 0.930 . S
N264 Cu253 1.985 . S
N264 C266 1.335 . S
N264 C267 1.390 . S
N265 C266 1.345 . S
N265 C268 1.336 . S
C266 N264 1.335 . S
C266 N265 1.345 . S
C266 H271 0.930 . S
C267 N264 1.390 . S
C267 C268 1.346 . S
C267 H272 0.930 . S
C268 N265 1.336 . S
C268 C267 1.346 . S
C268 H275 0.929 . S
C269 O259 1.282 . S
C269 O270 1.216 . S
O270 C269 1.216 . S
H271 C266 0.930 . S
H272 C267 0.930 . S
O273 Cu253 1.959 . S
O273 C260 1.251 . S
H274 C257 0.930 . S
H275 C268 0.929 . S
Tb276 O279 2.453 . S
Tb276 O280 2.596 . S
Tb276 O281 2.374 . S
Tb276 O289 2.343 . S
Tb276 O291 2.353 . S
Tb276 O293 2.427 . S
Tb276 O294 2.513 . S
C277 O281 1.251 . S
C277 O283 1.263 . S
Tb278 O280 2.343 . S
Tb278 O283 2.353 . S
Tb278 O286 2.427 . S
Tb278 O287 2.513 . S
Tb278 O288 2.453 . S
Tb278 O289 2.596 . S
Tb278 O290 2.374 . S
O279 Tb276 2.453 . S
O279 C295 1.245 . S
O280 Tb276 2.596 . S
O280 Tb278 2.343 . S
O280 C295 1.259 . S
O281 Tb276 2.374 . S
O281 C277 1.251 . S
C282 O286 1.275 . S
C282 O287 1.246 . S
O283 C277 1.263 . S
O283 Tb278 2.353 . S
C284 O288 1.245 . S
C284 O289 1.259 . S
C285 O290 1.250 . S
C285 O291 1.263 . S
O286 Tb278 2.427 . S
O286 C282 1.275 . S
O287 Tb278 2.513 . S
O287 C282 1.246 . S
O288 Tb278 2.453 . S
O288 C284 1.245 . S
O289 Tb276 2.343 . S
O289 Tb278 2.596 . S
O289 C284 1.259 . S
O290 Tb278 2.374 . S
O290 C285 1.250 . S
O291 Tb276 2.353 . S
O291 C285 1.263 . S
C292 O293 1.275 . S
C292 O294 1.246 . S
O293 Tb276 2.427 . S
O293 C292 1.275 . S
O294 Tb276 2.513 . S
O294 C292 1.246 . S
C295 O279 1.245 . S
C295 O280 1.259 . S
Tb296 O299 2.453 . S
Tb296 O300 2.596 . S
Tb296 O301 2.374 . S
Tb296 O309 2.343 . S
Tb296 O311 2.353 . S
Tb296 O313 2.427 . S
Tb296 O314 2.513 . S
C297 O301 1.251 . S
C297 O303 1.263 . S
Tb298 O300 2.343 . S
Tb298 O303 2.353 . S
Tb298 O306 2.427 . S
Tb298 O307 2.513 . S
Tb298 O308 2.453 . S
Tb298 O309 2.596 . S
Tb298 O310 2.374 . S
O299 Tb296 2.453 . S
O299 C315 1.245 . S
O300 Tb296 2.596 . S
O300 Tb298 2.343 . S
O300 C315 1.259 . S
O301 Tb296 2.374 . S
O301 C297 1.251 . S
C302 O306 1.275 . S
C302 O307 1.246 . S
O303 C297 1.263 . S
O303 Tb298 2.353 . S
C304 O308 1.245 . S
C304 O309 1.259 . S
C305 O310 1.250 . S
C305 O311 1.263 . S
O306 Tb298 2.427 . S
O306 C302 1.275 . S
O307 Tb298 2.513 . S
O307 C302 1.246 . S
O308 Tb298 2.453 . S
O308 C304 1.245 . S
O309 Tb296 2.343 . S
O309 Tb298 2.596 . S
O309 C304 1.259 . S
O310 Tb298 2.374 . S
O310 C305 1.250 . S
O311 Tb296 2.353 . S
O311 C305 1.263 . S
C312 O313 1.275 . S
C312 O314 1.246 . S
O313 Tb296 2.427 . S
O313 C312 1.275 . S
O314 Tb296 2.513 . S
O314 C312 1.246 . S
C315 O299 1.245 . S
C315 O300 1.259 . S
Tb316 O319 2.453 . S
Tb316 O320 2.596 . S
Tb316 O321 2.374 . S
Tb316 O329 2.343 . S
Tb316 O331 2.353 . S
Tb316 O333 2.427 . S
Tb316 O334 2.513 . S
C317 O321 1.251 . S
C317 O323 1.263 . S
Tb318 O320 2.343 . S
Tb318 O323 2.353 . S
Tb318 O326 2.427 . S
Tb318 O327 2.513 . S
Tb318 O328 2.453 . S
Tb318 O329 2.596 . S
Tb318 O330 2.374 . S
O319 Tb316 2.453 . S
O319 C335 1.245 . S
O320 Tb316 2.596 . S
O320 Tb318 2.343 . S
O320 C335 1.259 . S
O321 Tb316 2.374 . S
O321 C317 1.251 . S
C322 O326 1.275 . S
C322 O327 1.246 . S
O323 C317 1.263 . S
O323 Tb318 2.353 . S
C324 O328 1.245 . S
C324 O329 1.259 . S
C325 O330 1.250 . S
C325 O331 1.263 . S
O326 Tb318 2.427 . S
O326 C322 1.275 . S
O327 Tb318 2.513 . S
O327 C322 1.246 . S
O328 Tb318 2.453 . S
O328 C324 1.245 . S
O329 Tb316 2.343 . S
O329 Tb318 2.596 . S
O329 C324 1.259 . S
O330 Tb318 2.374 . S
O330 C325 1.250 . S
O331 Tb316 2.353 . S
O331 C325 1.263 . S
C332 O333 1.275 . S
C332 O334 1.246 . S
O333 Tb316 2.427 . S
O333 C332 1.275 . S
O334 Tb316 2.513 . S
O334 C332 1.246 . S
C335 O319 1.245 . S
C335 O320 1.259 . S
Tb336 O339 2.453 . S
Tb336 O340 2.596 . S
Tb336 O341 2.374 . S
Tb336 O349 2.343 . S
Tb336 O351 2.353 . S
Tb336 O353 2.427 . S
Tb336 O354 2.513 . S
C337 O341 1.251 . S
C337 O343 1.263 . S
Tb338 O340 2.343 . S
Tb338 O343 2.353 . S
Tb338 O346 2.427 . S
Tb338 O347 2.513 . S
Tb338 O348 2.453 . S
Tb338 O349 2.596 . S
Tb338 O350 2.374 . S
O339 Tb336 2.453 . S
O339 C355 1.245 . S
O340 Tb336 2.596 . S
O340 Tb338 2.343 . S
O340 C355 1.259 . S
O341 Tb336 2.374 . S
O341 C337 1.251 . S
C342 O346 1.275 . S
C342 O347 1.246 . S
O343 C337 1.263 . S
O343 Tb338 2.353 . S
C344 O348 1.245 . S
C344 O349 1.259 . S
C345 O350 1.250 . S
C345 O351 1.263 . S
O346 Tb338 2.427 . S
O346 C342 1.275 . S
O347 Tb338 2.513 . S
O347 C342 1.246 . S
O348 Tb338 2.453 . S
O348 C344 1.245 . S
O349 Tb336 2.343 . S
O349 Tb338 2.596 . S
O349 C344 1.259 . S
O350 Tb338 2.374 . S
O350 C345 1.250 . S
O351 Tb336 2.353 . S
O351 C345 1.263 . S
C352 O353 1.275 . S
C352 O354 1.246 . S
O353 Tb336 2.427 . S
O353 C352 1.275 . S
O354 Tb336 2.513 . S
O354 C352 1.246 . S
C355 O339 1.245 . S
C355 O340 1.259 . S
Tb356 O359 2.453 . S
Tb356 O360 2.596 . S
Tb356 O361 2.374 . S
Tb356 O369 2.343 . S
Tb356 O371 2.353 . S
Tb356 O373 2.427 . S
Tb356 O374 2.513 . S
C357 O361 1.251 . S
C357 O363 1.263 . S
Tb358 O360 2.343 . S
Tb358 O363 2.353 . S
Tb358 O366 2.427 . S
Tb358 O367 2.513 . S
Tb358 O368 2.453 . S
Tb358 O369 2.596 . S
Tb358 O370 2.374 . S
O359 Tb356 2.453 . S
O359 C375 1.245 . S
O360 Tb356 2.596 . S
O360 Tb358 2.343 . S
O360 C375 1.259 . S
O361 Tb356 2.374 . S
O361 C357 1.251 . S
C362 O366 1.275 . S
C362 O367 1.246 . S
O363 C357 1.263 . S
O363 Tb358 2.353 . S
C364 O368 1.245 . S
C364 O369 1.259 . S
C365 O370 1.250 . S
C365 O371 1.263 . S
O366 Tb358 2.427 . S
O366 C362 1.275 . S
O367 Tb358 2.513 . S
O367 C362 1.246 . S
O368 Tb358 2.453 . S
O368 C364 1.245 . S
O369 Tb356 2.343 . S
O369 Tb358 2.596 . S
O369 C364 1.259 . S
O370 Tb358 2.374 . S
O370 C365 1.250 . S
O371 Tb356 2.353 . S
O371 C365 1.263 . S
C372 O373 1.275 . S
C372 O374 1.246 . S
O373 Tb356 2.427 . S
O373 C372 1.275 . S
O374 Tb356 2.513 . S
O374 C372 1.246 . S
C375 O359 1.245 . S
C375 O360 1.259 . S
Tb376 O379 2.453 . S
Tb376 O380 2.596 . S
Tb376 O381 2.374 . S
Tb376 O389 2.343 . S
Tb376 O391 2.353 . S
Tb376 O393 2.427 . S
Tb376 O394 2.513 . S
C377 O381 1.251 . S
C377 O383 1.263 . S
Tb378 O380 2.343 . S
Tb378 O383 2.353 . S
Tb378 O386 2.427 . S
Tb378 O387 2.513 . S
Tb378 O388 2.453 . S
Tb378 O389 2.596 . S
Tb378 O390 2.374 . S
O379 Tb376 2.453 . S
O379 C395 1.245 . S
O380 Tb376 2.596 . S
O380 Tb378 2.343 . S
O380 C395 1.259 . S
O381 Tb376 2.374 . S
O381 C377 1.251 . S
C382 O386 1.275 . S
C382 O387 1.246 . S
O383 C377 1.263 . S
O383 Tb378 2.353 . S
C384 O388 1.245 . S
C384 O389 1.259 . S
C385 O390 1.250 . S
C385 O391 1.263 . S
O386 Tb378 2.427 . S
O386 C382 1.275 . S
O387 Tb378 2.513 . S
O387 C382 1.246 . S
O388 Tb378 2.453 . S
O388 C384 1.245 . S
O389 Tb376 2.343 . S
O389 Tb378 2.596 . S
O389 C384 1.259 . S
O390 Tb378 2.374 . S
O390 C385 1.250 . S
O391 Tb376 2.353 . S
O391 C385 1.263 . S
C392 O393 1.275 . S
C392 O394 1.246 . S
O393 Tb376 2.427 . S
O393 C392 1.275 . S
O394 Tb376 2.513 . S
O394 C392 1.246 . S
C395 O379 1.245 . S
C395 O380 1.259 . S
Tb396 O399 2.453 . S
Tb396 O400 2.596 . S
Tb396 O401 2.374 . S
Tb396 O409 2.343 . S
Tb396 O411 2.353 . S
Tb396 O413 2.427 . S
Tb396 O414 2.513 . S
C397 O401 1.251 . S
C397 O403 1.263 . S
Tb398 O400 2.343 . S
Tb398 O403 2.353 . S
Tb398 O406 2.427 . S
Tb398 O407 2.513 . S
Tb398 O408 2.453 . S
Tb398 O409 2.596 . S
Tb398 O410 2.374 . S
O399 Tb396 2.453 . S
O399 C415 1.245 . S
O400 Tb396 2.596 . S
O400 Tb398 2.343 . S
O400 C415 1.259 . S
O401 Tb396 2.374 . S
O401 C397 1.251 . S
C402 O406 1.275 . S
C402 O407 1.246 . S
O403 C397 1.263 . S
O403 Tb398 2.353 . S
C404 O408 1.245 . S
C404 O409 1.259 . S
C405 O410 1.250 . S
C405 O411 1.263 . S
O406 Tb398 2.427 . S
O406 C402 1.275 . S
O407 Tb398 2.513 . S
O407 C402 1.246 . S
O408 Tb398 2.453 . S
O408 C404 1.245 . S
O409 Tb396 2.343 . S
O409 Tb398 2.596 . S
O409 C404 1.259 . S
O410 Tb398 2.374 . S
O410 C405 1.250 . S
O411 Tb396 2.353 . S
O411 C405 1.263 . S
C412 O413 1.275 . S
C412 O414 1.246 . S
O413 Tb396 2.427 . S
O413 C412 1.275 . S
O414 Tb396 2.513 . S
O414 C412 1.246 . S
C415 O399 1.245 . S
C415 O400 1.259 . S
Tb416 O419 2.453 . S
Tb416 O420 2.596 . S
Tb416 O421 2.374 . S
Tb416 O429 2.343 . S
Tb416 O431 2.353 . S
Tb416 O433 2.427 . S
Tb416 O434 2.513 . S
C417 O421 1.251 . S
C417 O423 1.263 . S
Tb418 O420 2.343 . S
Tb418 O423 2.353 . S
Tb418 O426 2.427 . S
Tb418 O427 2.513 . S
Tb418 O428 2.453 . S
Tb418 O429 2.596 . S
Tb418 O430 2.374 . S
O419 Tb416 2.453 . S
O419 C435 1.245 . S
O420 Tb416 2.596 . S
O420 Tb418 2.343 . S
O420 C435 1.259 . S
O421 Tb416 2.374 . S
O421 C417 1.251 . S
C422 O426 1.275 . S
C422 O427 1.246 . S
O423 C417 1.263 . S
O423 Tb418 2.353 . S
C424 O428 1.245 . S
C424 O429 1.259 . S
C425 O430 1.250 . S
C425 O431 1.263 . S
O426 Tb418 2.427 . S
O426 C422 1.275 . S
O427 Tb418 2.513 . S
O427 C422 1.246 . S
O428 Tb418 2.453 . S
O428 C424 1.245 . S
O429 Tb416 2.343 . S
O429 Tb418 2.596 . S
O429 C424 1.259 . S
O430 Tb418 2.374 . S
O430 C425 1.250 . S
O431 Tb416 2.353 . S
O431 C425 1.263 . S
C432 O433 1.275 . S
C432 O434 1.246 . S
O433 Tb416 2.427 . S
O433 C432 1.275 . S
O434 Tb416 2.513 . S
O434 C432 1.246 . S
C435 O419 1.245 . S
C435 O420 1.259 . S
H436 C444 0.929 . S
H437 C446 0.930 . S
H438 C448 0.930 . S
H439 C451 0.929 . S
H440 C454 0.930 . S
H441 C456 0.960 . S
H442 C456 0.960 . S
H443 C456 0.960 . S
C444 H436 0.929 . S
C444 C445 1.377 . S
C444 C446 1.384 . S
C445 C444 1.377 . S
C445 C451 1.390 . S
C446 H437 0.930 . S
C446 C444 1.384 . S
C446 C447 1.372 . S
C447 C446 1.372 . S
C447 C448 1.400 . S
C447 C452 1.490 . S
C448 H438 0.930 . S
C448 C447 1.400 . S
C448 C451 1.386 . S
H449 C465 0.930 . S
H450 C466 0.931 . S
C451 H439 0.929 . S
C451 C445 1.390 . S
C451 C448 1.386 . S
C452 C447 1.490 . S
C452 C454 1.395 . S
C452 C455 1.403 . S
H453 C459 0.930 . S
C454 H440 0.930 . S
C454 C452 1.395 . S
C454 C457 1.403 . S
C455 C452 1.403 . S
C455 C456 1.524 . S
C455 C459 1.400 . S
C456 H441 0.960 . S
C456 H442 0.960 . S
C456 H443 0.960 . S
C456 C455 1.524 . S
C457 C454 1.403 . S
C457 C458 1.392 . S
C457 C461 1.495 . S
C458 C457 1.392 . S
C458 C459 1.385 . S
C458 C460 1.478 . S
C459 H453 0.930 . S
C459 C455 1.400 . S
C459 C458 1.385 . S
C460 C458 1.478 . S
C460 C462 1.381 . S
C460 C466 1.383 . S
C461 C457 1.495 . S
C461 H467 0.959 . S
C461 H468 0.961 . S
C461 H469 0.960 . S
C462 C460 1.381 . S
C462 C463 1.394 . S
C462 H470 0.930 . S
C463 C462 1.394 . S
C463 C464 1.383 . S
C463 H471 0.929 . S
C464 C463 1.383 . S
C464 C465 1.377 . S
C465 H449 0.930 . S
C465 C464 1.377 . S
C465 C466 1.379 . S
C466 H450 0.931 . S
C466 C460 1.383 . S
C466 C465 1.379 . S
H467 C461 0.959 . S
H468 C461 0.961 . S
H469 C461 0.960 . S
H470 C462 0.930 . S
H471 C463 0.929 . S
H472 C480 0.929 . S
H473 C482 0.930 . S
H474 C484 0.930 . S
H475 C487 0.929 . S
H476 C490 0.930 . S
H477 C492 0.960 . S
H478 C492 0.960 . S
H479 C492 0.960 . S
C480 H472 0.929 . S
C480 C481 1.377 . S
C480 C482 1.384 . S
C481 C480 1.377 . S
C481 C487 1.390 . S
C482 H473 0.930 . S
C482 C480 1.384 . S
C482 C483 1.372 . S
C483 C482 1.372 . S
C483 C484 1.400 . S
C483 C488 1.490 . S
C484 H474 0.930 . S
C484 C483 1.400 . S
C484 C487 1.386 . S
H485 C501 0.930 . S
H486 C502 0.931 . S
C487 H475 0.929 . S
C487 C481 1.390 . S
C487 C484 1.386 . S
C488 C483 1.490 . S
C488 C490 1.395 . S
C488 C491 1.403 . S
H489 C495 0.930 . S
C490 H476 0.930 . S
C490 C488 1.395 . S
C490 C493 1.403 . S
C491 C488 1.403 . S
C491 C492 1.524 . S
C491 C495 1.400 . S
C492 H477 0.960 . S
C492 H478 0.960 . S
C492 H479 0.960 . S
C492 C491 1.524 . S
C493 C490 1.403 . S
C493 C494 1.392 . S
C493 C497 1.495 . S
C494 C493 1.392 . S
C494 C495 1.385 . S
C494 C496 1.478 . S
C495 H489 0.930 . S
C495 C491 1.400 . S
C495 C494 1.385 . S
C496 C494 1.478 . S
C496 C498 1.381 . S
C496 C502 1.383 . S
C497 C493 1.495 . S
C497 H503 0.959 . S
C497 H504 0.961 . S
C497 H505 0.960 . S
C498 C496 1.381 . S
C498 C499 1.394 . S
C498 H506 0.930 . S
C499 C498 1.394 . S
C499 C500 1.383 . S
C499 H507 0.929 . S
C500 C499 1.383 . S
C500 C501 1.377 . S
C501 H485 0.930 . S
C501 C500 1.377 . S
C501 C502 1.379 . S
C502 H486 0.931 . S
C502 C496 1.383 . S
C502 C501 1.379 . S
H503 C497 0.959 . S
H504 C497 0.961 . S
H505 C497 0.960 . S
H506 C498 0.930 . S
H507 C499 0.929 . S
H508 C516 0.929 . S
H509 C518 0.930 . S
H510 C520 0.930 . S
H511 C523 0.929 . S
H512 C526 0.930 . S
H513 C528 0.960 . S
H514 C528 0.960 . S
H515 C528 0.960 . S
C516 H508 0.929 . S
C516 C517 1.377 . S
C516 C518 1.384 . S
C517 C516 1.377 . S
C517 C523 1.390 . S
C518 H509 0.930 . S
C518 C516 1.384 . S
C518 C519 1.372 . S
C519 C518 1.372 . S
C519 C520 1.400 . S
C519 C524 1.490 . S
C520 H510 0.930 . S
C520 C519 1.400 . S
C520 C523 1.386 . S
H521 C537 0.930 . S
H522 C538 0.931 . S
C523 H511 0.929 . S
C523 C517 1.390 . S
C523 C520 1.386 . S
C524 C519 1.490 . S
C524 C526 1.395 . S
C524 C527 1.403 . S
H525 C531 0.930 . S
C526 H512 0.930 . S
C526 C524 1.395 . S
C526 C529 1.403 . S
C527 C524 1.403 . S
C527 C528 1.524 . S
C527 C531 1.400 . S
C528 H513 0.960 . S
C528 H514 0.960 . S
C528 H515 0.960 . S
C528 C527 1.524 . S
C529 C526 1.403 . S
C529 C530 1.392 . S
C529 C533 1.495 . S
C530 C529 1.392 . S
C530 C531 1.385 . S
C530 C532 1.478 . S
C531 H525 0.930 . S
C531 C527 1.400 . S
C531 C530 1.385 . S
C532 C530 1.478 . S
C532 C534 1.381 . S
C532 C538 1.383 . S
C533 C529 1.495 . S
C533 H539 0.959 . S
C533 H540 0.961 . S
C533 H541 0.960 . S
C534 C532 1.381 . S
C534 C535 1.394 . S
C534 H542 0.930 . S
C535 C534 1.394 . S
C535 C536 1.383 . S
C535 H543 0.929 . S
C536 C535 1.383 . S
C536 C537 1.377 . S
C537 H521 0.930 . S
C537 C536 1.377 . S
C537 C538 1.379 . S
C538 H522 0.931 . S
C538 C532 1.383 . S
C538 C537 1.379 . S
H539 C533 0.959 . S
H540 C533 0.961 . S
H541 C533 0.960 . S
H542 C534 0.930 . S
H543 C535 0.929 . S
H544 C552 0.929 . S
H545 C554 0.930 . S
H546 C556 0.930 . S
H547 C559 0.929 . S
H548 C562 0.930 . S
H549 C564 0.960 . S
H550 C564 0.960 . S
H551 C564 0.960 . S
C552 H544 0.929 . S
C552 C553 1.377 . S
C552 C554 1.384 . S
C553 C552 1.377 . S
C553 C559 1.390 . S
C554 H545 0.930 . S
C554 C552 1.384 . S
C554 C555 1.372 . S
C555 C554 1.372 . S
C555 C556 1.400 . S
C555 C560 1.490 . S
C556 H546 0.930 . S
C556 C555 1.400 . S
C556 C559 1.386 . S
H557 C573 0.930 . S
H558 C574 0.931 . S
C559 H547 0.929 . S
C559 C553 1.390 . S
C559 C556 1.386 . S
C560 C555 1.490 . S
C560 C562 1.395 . S
C560 C563 1.403 . S
H561 C567 0.930 . S
C562 H548 0.930 . S
C562 C560 1.395 . S
C562 C565 1.403 . S
C563 C560 1.403 . S
C563 C564 1.524 . S
C563 C567 1.400 . S
C564 H549 0.960 . S
C564 H550 0.960 . S
C564 H551 0.960 . S
C564 C563 1.524 . S
C565 C562 1.403 . S
C565 C566 1.392 . S
C565 C569 1.495 . S
C566 C565 1.392 . S
C566 C567 1.385 . S
C566 C568 1.478 . S
C567 H561 0.930 . S
C567 C563 1.400 . S
C567 C566 1.385 . S
C568 C566 1.478 . S
C568 C570 1.381 . S
C568 C574 1.383 . S
C569 C565 1.495 . S
C569 H575 0.959 . S
C569 H576 0.961 . S
C569 H577 0.960 . S
C570 C568 1.381 . S
C570 C571 1.394 . S
C570 H578 0.930 . S
C571 C570 1.394 . S
C571 C572 1.383 . S
C571 H579 0.929 . S
C572 C571 1.383 . S
C572 C573 1.377 . S
C573 H557 0.930 . S
C573 C572 1.377 . S
C573 C574 1.379 . S
C574 H558 0.931 . S
C574 C568 1.383 . S
C574 C573 1.379 . S
H575 C569 0.959 . S
H576 C569 0.961 . S
H577 C569 0.960 . S
H578 C570 0.930 . S
H579 C571 0.929 . S
H580 C588 0.929 . S
H581 C590 0.930 . S
H582 C592 0.930 . S
H583 C595 0.929 . S
H584 C598 0.930 . S
H585 C600 0.960 . S
H586 C600 0.960 . S
H587 C600 0.960 . S
C588 H580 0.929 . S
C588 C589 1.377 . S
C588 C590 1.384 . S
C589 C588 1.377 . S
C589 C595 1.390 . S
C590 H581 0.930 . S
C590 C588 1.384 . S
C590 C591 1.372 . S
C591 C590 1.372 . S
C591 C592 1.400 . S
C591 C596 1.490 . S
C592 H582 0.930 . S
C592 C591 1.400 . S
C592 C595 1.386 . S
H593 C609 0.930 . S
H594 C610 0.931 . S
C595 H583 0.929 . S
C595 C589 1.390 . S
C595 C592 1.386 . S
C596 C591 1.490 . S
C596 C598 1.395 . S
C596 C599 1.403 . S
H597 C603 0.930 . S
C598 H584 0.930 . S
C598 C596 1.395 . S
C598 C601 1.403 . S
C599 C596 1.403 . S
C599 C600 1.524 . S
C599 C603 1.400 . S
C600 H585 0.960 . S
C600 H586 0.960 . S
C600 H587 0.960 . S
C600 C599 1.524 . S
C601 C598 1.403 . S
C601 C602 1.392 . S
C601 C605 1.495 . S
C602 C601 1.392 . S
C602 C603 1.385 . S
C602 C604 1.478 . S
C603 H597 0.930 . S
C603 C599 1.400 . S
C603 C602 1.385 . S
C604 C602 1.478 . S
C604 C606 1.381 . S
C604 C610 1.383 . S
C605 C601 1.495 . S
C605 H611 0.959 . S
C605 H612 0.961 . S
C605 H613 0.960 . S
C606 C604 1.381 . S
C606 C607 1.394 . S
C606 H614 0.930 . S
C607 C606 1.394 . S
C607 C608 1.383 . S
C607 H615 0.929 . S
C608 C607 1.383 . S
C608 C609 1.377 . S
C609 H593 0.930 . S
C609 C608 1.377 . S
C609 C610 1.379 . S
C610 H594 0.931 . S
C610 C604 1.383 . S
C610 C609 1.379 . S
H611 C605 0.959 . S
H612 C605 0.961 . S
H613 C605 0.960 . S
H614 C606 0.930 . S
H615 C607 0.929 . S
H616 C624 0.929 . S
H617 C626 0.930 . S
H618 C628 0.930 . S
H619 C631 0.929 . S
H620 C634 0.930 . S
H621 C636 0.960 . S
H622 C636 0.960 . S
H623 C636 0.960 . S
C624 H616 0.929 . S
C624 C625 1.377 . S
C624 C626 1.384 . S
C625 C624 1.377 . S
C625 C631 1.390 . S
C626 H617 0.930 . S
C626 C624 1.384 . S
C626 C627 1.372 . S
C627 C626 1.372 . S
C627 C628 1.400 . S
C627 C632 1.490 . S
C628 H618 0.930 . S
C628 C627 1.400 . S
C628 C631 1.386 . S
H629 C645 0.930 . S
H630 C646 0.931 . S
C631 H619 0.929 . S
C631 C625 1.390 . S
C631 C628 1.386 . S
C632 C627 1.490 . S
C632 C634 1.395 . S
C632 C635 1.403 . S
H633 C639 0.930 . S
C634 H620 0.930 . S
C634 C632 1.395 . S
C634 C637 1.403 . S
C635 C632 1.403 . S
C635 C636 1.524 . S
C635 C639 1.400 . S
C636 H621 0.960 . S
C636 H622 0.960 . S
C636 H623 0.960 . S
C636 C635 1.524 . S
C637 C634 1.403 . S
C637 C638 1.392 . S
C637 C641 1.495 . S
C638 C637 1.392 . S
C638 C639 1.385 . S
C638 C640 1.478 . S
C639 H633 0.930 . S
C639 C635 1.400 . S
C639 C638 1.385 . S
C640 C638 1.478 . S
C640 C642 1.381 . S
C640 C646 1.383 . S
C641 C637 1.495 . S
C641 H647 0.959 . S
C641 H648 0.961 . S
C641 H649 0.960 . S
C642 C640 1.381 . S
C642 C643 1.394 . S
C642 H650 0.930 . S
C643 C642 1.394 . S
C643 C644 1.383 . S
C643 H651 0.929 . S
C644 C643 1.383 . S
C644 C645 1.377 . S
C645 H629 0.930 . S
C645 C644 1.377 . S
C645 C646 1.379 . S
C646 H630 0.931 . S
C646 C640 1.383 . S
C646 C645 1.379 . S
H647 C641 0.959 . S
H648 C641 0.961 . S
H649 C641 0.960 . S
H650 C642 0.930 . S
H651 C643 0.929 . S
H652 C660 0.929 . S
H653 C662 0.930 . S
H654 C664 0.930 . S
H655 C667 0.929 . S
H656 C670 0.930 . S
H657 C672 0.960 . S
H658 C672 0.960 . S
H659 C672 0.960 . S
C660 H652 0.929 . S
C660 C661 1.377 . S
C660 C662 1.384 . S
C661 C660 1.377 . S
C661 C667 1.390 . S
C662 H653 0.930 . S
C662 C660 1.384 . S
C662 C663 1.372 . S
C663 C662 1.372 . S
C663 C664 1.400 . S
C663 C668 1.490 . S
C664 H654 0.930 . S
C664 C663 1.400 . S
C664 C667 1.386 . S
H665 C681 0.930 . S
H666 C682 0.931 . S
C667 H655 0.929 . S
C667 C661 1.390 . S
C667 C664 1.386 . S
C668 C663 1.490 . S
C668 C670 1.395 . S
C668 C671 1.403 . S
H669 C675 0.930 . S
C670 H656 0.930 . S
C670 C668 1.395 . S
C670 C673 1.403 . S
C671 C668 1.403 . S
C671 C672 1.524 . S
C671 C675 1.400 . S
C672 H657 0.960 . S
C672 H658 0.960 . S
C672 H659 0.960 . S
C672 C671 1.524 . S
C673 C670 1.403 . S
C673 C674 1.392 . S
C673 C677 1.495 . S
C674 C673 1.392 . S
C674 C675 1.385 . S
C674 C676 1.478 . S
C675 H669 0.930 . S
C675 C671 1.400 . S
C675 C674 1.385 . S
C676 C674 1.478 . S
C676 C678 1.381 . S
C676 C682 1.383 . S
C677 C673 1.495 . S
C677 H683 0.959 . S
C677 H684 0.961 . S
C677 H685 0.960 . S
C678 C676 1.381 . S
C678 C679 1.394 . S
C678 H686 0.930 . S
C679 C678 1.394 . S
C679 C680 1.383 . S
C679 H687 0.929 . S
C680 C679 1.383 . S
C680 C681 1.377 . S
C681 H665 0.930 . S
C681 C680 1.377 . S
C681 C682 1.379 . S
C682 H666 0.931 . S
C682 C676 1.383 . S
C682 C681 1.379 . S
H683 C677 0.959 . S
H684 C677 0.961 . S
H685 C677 0.960 . S
H686 C678 0.930 . S
H687 C679 0.929 . S
H688 C696 0.929 . S
H689 C698 0.930 . S
H690 C700 0.930 . S
H691 C703 0.929 . S
H692 C706 0.930 . S
H693 C708 0.960 . S
H694 C708 0.960 . S
H695 C708 0.960 . S
C696 H688 0.929 . S
C696 C697 1.377 . S
C696 C698 1.384 . S
C697 C696 1.377 . S
C697 C703 1.390 . S
C698 H689 0.930 . S
C698 C696 1.384 . S
C698 C699 1.372 . S
C699 C698 1.372 . S
C699 C700 1.400 . S
C699 C704 1.490 . S
C700 H690 0.930 . S
C700 C699 1.400 . S
C700 C703 1.386 . S
H701 C717 0.930 . S
H702 C718 0.931 . S
C703 H691 0.929 . S
C703 C697 1.390 . S
C703 C700 1.386 . S
C704 C699 1.490 . S
C704 C706 1.395 . S
C704 C707 1.403 . S
H705 C711 0.930 . S
C706 H692 0.930 . S
C706 C704 1.395 . S
C706 C709 1.403 . S
C707 C704 1.403 . S
C707 C708 1.524 . S
C707 C711 1.400 . S
C708 H693 0.960 . S
C708 H694 0.960 . S
C708 H695 0.960 . S
C708 C707 1.524 . S
C709 C706 1.403 . S
C709 C710 1.392 . S
C709 C713 1.495 . S
C710 C709 1.392 . S
C710 C711 1.385 . S
C710 C712 1.478 . S
C711 H705 0.930 . S
C711 C707 1.400 . S
C711 C710 1.385 . S
C712 C710 1.478 . S
C712 C714 1.381 . S
C712 C718 1.383 . S
C713 C709 1.495 . S
C713 H719 0.959 . S
C713 H720 0.961 . S
C713 H721 0.960 . S
C714 C712 1.381 . S
C714 C715 1.394 . S
C714 H722 0.930 . S
C715 C714 1.394 . S
C715 C716 1.383 . S
C715 H723 0.929 . S
C716 C715 1.383 . S
C716 C717 1.377 . S
C717 H701 0.930 . S
C717 C716 1.377 . S
C717 C718 1.379 . S
C718 H702 0.931 . S
C718 C712 1.383 . S
C718 C717 1.379 . S
H719 C713 0.959 . S
H720 C713 0.961 . S
H721 C713 0.960 . S
H722 C714 0.930 . S
H723 C715 0.929 . S
H724 C732 0.929 . S
H725 C734 0.930 . S
H726 C736 0.930 . S
H727 C739 0.929 . S
H728 C742 0.930 . S
H729 C744 0.960 . S
H730 C744 0.960 . S
H731 C744 0.960 . S
C732 H724 0.929 . S
C732 C733 1.377 . S
C732 C734 1.384 . S
C733 C732 1.377 . S
C733 C739 1.390 . S
C734 H725 0.930 . S
C734 C732 1.384 . S
C734 C735 1.372 . S
C735 C734 1.372 . S
C735 C736 1.400 . S
C735 C740 1.490 . S
C736 H726 0.930 . S
C736 C735 1.400 . S
C736 C739 1.386 . S
H737 C753 0.930 . S
H738 C754 0.931 . S
C739 H727 0.929 . S
C739 C733 1.390 . S
C739 C736 1.386 . S
C740 C735 1.490 . S
C740 C742 1.395 . S
C740 C743 1.403 . S
H741 C747 0.930 . S
C742 H728 0.930 . S
C742 C740 1.395 . S
C742 C745 1.403 . S
C743 C740 1.403 . S
C743 C744 1.524 . S
C743 C747 1.400 . S
C744 H729 0.960 . S
C744 H730 0.960 . S
C744 H731 0.960 . S
C744 C743 1.524 . S
C745 C742 1.403 . S
C745 C746 1.392 . S
C745 C749 1.495 . S
C746 C745 1.392 . S
C746 C747 1.385 . S
C746 C748 1.478 . S
C747 H741 0.930 . S
C747 C743 1.400 . S
C747 C746 1.385 . S
C748 C746 1.478 . S
C748 C750 1.381 . S
C748 C754 1.383 . S
C749 C745 1.495 . S
C749 H755 0.959 . S
C749 H756 0.961 . S
C749 H757 0.960 . S
C750 C748 1.381 . S
C750 C751 1.394 . S
C750 H758 0.930 . S
C751 C750 1.394 . S
C751 C752 1.383 . S
C751 H759 0.929 . S
C752 C751 1.383 . S
C752 C753 1.377 . S
C753 H737 0.930 . S
C753 C752 1.377 . S
C753 C754 1.379 . S
C754 H738 0.931 . S
C754 C748 1.383 . S
C754 C753 1.379 . S
H755 C749 0.959 . S
H756 C749 0.961 . S
H757 C749 0.960 . S
H758 C750 0.930 . S
H759 C751 0.929 . S
H760 C768 0.929 . S
H761 C770 0.930 . S
H762 C772 0.930 . S
H763 C775 0.929 . S
H764 C778 0.930 . S
H765 C780 0.960 . S
H766 C780 0.960 . S
H767 C780 0.960 . S
C768 H760 0.929 . S
C768 C769 1.377 . S
C768 C770 1.384 . S
C769 C768 1.377 . S
C769 C775 1.390 . S
C770 H761 0.930 . S
C770 C768 1.384 . S
C770 C771 1.372 . S
C771 C770 1.372 . S
C771 C772 1.400 . S
C771 C776 1.490 . S
C772 H762 0.930 . S
C772 C771 1.400 . S
C772 C775 1.386 . S
H773 C789 0.930 . S
H774 C790 0.931 . S
C775 H763 0.929 . S
C775 C769 1.390 . S
C775 C772 1.386 . S
C776 C771 1.490 . S
C776 C778 1.395 . S
C776 C779 1.403 . S
H777 C783 0.930 . S
C778 H764 0.930 . S
C778 C776 1.395 . S
C778 C781 1.403 . S
C779 C776 1.403 . S
C779 C780 1.524 . S
C779 C783 1.400 . S
C780 H765 0.960 . S
C780 H766 0.960 . S
C780 H767 0.960 . S
C780 C779 1.524 . S
C781 C778 1.403 . S
C781 C782 1.392 . S
C781 C785 1.495 . S
C782 C781 1.392 . S
C782 C783 1.385 . S
C782 C784 1.478 . S
C783 H777 0.930 . S
C783 C779 1.400 . S
C783 C782 1.385 . S
C784 C782 1.478 . S
C784 C786 1.381 . S
C784 C790 1.383 . S
C785 C781 1.495 . S
C785 H791 0.959 . S
C785 H792 0.961 . S
C785 H793 0.960 . S
C786 C784 1.381 . S
C786 C787 1.394 . S
C786 H794 0.930 . S
C787 C786 1.394 . S
C787 C788 1.383 . S
C787 H795 0.929 . S
C788 C787 1.383 . S
C788 C789 1.377 . S
C789 H773 0.930 . S
C789 C788 1.377 . S
C789 C790 1.379 . S
C790 H774 0.931 . S
C790 C784 1.383 . S
C790 C789 1.379 . S
H791 C785 0.959 . S
H792 C785 0.961 . S
H793 C785 0.960 . S
H794 C786 0.930 . S
H795 C787 0.929 . S
H796 C804 0.929 . S
H797 C806 0.930 . S
H798 C808 0.930 . S
H799 C811 0.929 . S
H800 C814 0.930 . S
H801 C816 0.960 . S
H802 C816 0.960 . S
H803 C816 0.960 . S
C804 H796 0.929 . S
C804 C805 1.377 . S
C804 C806 1.384 . S
C805 C804 1.377 . S
C805 C811 1.390 . S
C806 H797 0.930 . S
C806 C804 1.384 . S
C806 C807 1.372 . S
C807 C806 1.372 . S
C807 C808 1.400 . S
C807 C812 1.490 . S
C808 H798 0.930 . S
C808 C807 1.400 . S
C808 C811 1.386 . S
H809 C825 0.930 . S
H810 C826 0.931 . S
C811 H799 0.929 . S
C811 C805 1.390 . S
C811 C808 1.386 . S
C812 C807 1.490 . S
C812 C814 1.395 . S
C812 C815 1.403 . S
H813 C819 0.930 . S
C814 H800 0.930 . S
C814 C812 1.395 . S
C814 C817 1.403 . S
C815 C812 1.403 . S
C815 C816 1.524 . S
C815 C819 1.400 . S
C816 H801 0.960 . S
C816 H802 0.960 . S
C816 H803 0.960 . S
C816 C815 1.524 . S
C817 C814 1.403 . S
C817 C818 1.392 . S
C817 C821 1.495 . S
C818 C817 1.392 . S
C818 C819 1.385 . S
C818 C820 1.478 . S
C819 H813 0.930 . S
C819 C815 1.400 . S
C819 C818 1.385 . S
C820 C818 1.478 . S
C820 C822 1.381 . S
C820 C826 1.383 . S
C821 C817 1.495 . S
C821 H827 0.959 . S
C821 H828 0.961 . S
C821 H829 0.960 . S
C822 C820 1.381 . S
C822 C823 1.394 . S
C822 H830 0.930 . S
C823 C822 1.394 . S
C823 C824 1.383 . S
C823 H831 0.929 . S
C824 C823 1.383 . S
C824 C825 1.377 . S
C825 H809 0.930 . S
C825 C824 1.377 . S
C825 C826 1.379 . S
C826 H810 0.931 . S
C826 C820 1.383 . S
C826 C825 1.379 . S
H827 C821 0.959 . S
H828 C821 0.961 . S
H829 C821 0.960 . S
H830 C822 0.930 . S
H831 C823 0.929 . S
H832 C840 0.929 . S
H833 C842 0.930 . S
H834 C844 0.930 . S
H835 C847 0.929 . S
H836 C850 0.930 . S
H837 C852 0.960 . S
H838 C852 0.960 . S
H839 C852 0.960 . S
C840 H832 0.929 . S
C840 C841 1.377 . S
C840 C842 1.384 . S
C841 C840 1.377 . S
C841 C847 1.390 . S
C842 H833 0.930 . S
C842 C840 1.384 . S
C842 C843 1.372 . S
C843 C842 1.372 . S
C843 C844 1.400 . S
C843 C848 1.490 . S
C844 H834 0.930 . S
C844 C843 1.400 . S
C844 C847 1.386 . S
H845 C861 0.930 . S
H846 C862 0.931 . S
C847 H835 0.929 . S
C847 C841 1.390 . S
C847 C844 1.386 . S
C848 C843 1.490 . S
C848 C850 1.395 . S
C848 C851 1.403 . S
H849 C855 0.930 . S
C850 H836 0.930 . S
C850 C848 1.395 . S
C850 C853 1.403 . S
C851 C848 1.403 . S
C851 C852 1.524 . S
C851 C855 1.400 . S
C852 H837 0.960 . S
C852 H838 0.960 . S
C852 H839 0.960 . S
C852 C851 1.524 . S
C853 C850 1.403 . S
C853 C854 1.392 . S
C853 C857 1.495 . S
C854 C853 1.392 . S
C854 C855 1.385 . S
C854 C856 1.478 . S
C855 H849 0.930 . S
C855 C851 1.400 . S
C855 C854 1.385 . S
C856 C854 1.478 . S
C856 C858 1.381 . S
C856 C862 1.383 . S
C857 C853 1.495 . S
C857 H863 0.959 . S
C857 H864 0.961 . S
C857 H865 0.960 . S
C858 C856 1.381 . S
C858 C859 1.394 . S
C858 H866 0.930 . S
C859 C858 1.394 . S
C859 C860 1.383 . S
C859 H867 0.929 . S
C860 C859 1.383 . S
C860 C861 1.377 . S
C861 H845 0.930 . S
C861 C860 1.377 . S
C861 C862 1.379 . S
C862 H846 0.931 . S
C862 C856 1.383 . S
C862 C861 1.379 . S
H863 C857 0.959 . S
H864 C857 0.961 . S
H865 C857 0.960 . S
H866 C858 0.930 . S
H867 C859 0.929 . S
H868 C876 0.929 . S
H869 C878 0.930 . S
H870 C880 0.930 . S
H871 C883 0.929 . S
H872 C886 0.930 . S
H873 C888 0.960 . S
H874 C888 0.960 . S
H875 C888 0.960 . S
C876 H868 0.929 . S
C876 C877 1.377 . S
C876 C878 1.384 . S
C877 C876 1.377 . S
C877 C883 1.390 . S
C878 H869 0.930 . S
C878 C876 1.384 . S
C878 C879 1.372 . S
C879 C878 1.372 . S
C879 C880 1.400 . S
C879 C884 1.490 . S
C880 H870 0.930 . S
C880 C879 1.400 . S
C880 C883 1.386 . S
H881 C897 0.930 . S
H882 C898 0.931 . S
C883 H871 0.929 . S
C883 C877 1.390 . S
C883 C880 1.386 . S
C884 C879 1.490 . S
C884 C886 1.395 . S
C884 C887 1.403 . S
H885 C891 0.930 . S
C886 H872 0.930 . S
C886 C884 1.395 . S
C886 C889 1.403 . S
C887 C884 1.403 . S
C887 C888 1.524 . S
C887 C891 1.400 . S
C888 H873 0.960 . S
C888 H874 0.960 . S
C888 H875 0.960 . S
C888 C887 1.524 . S
C889 C886 1.403 . S
C889 C890 1.392 . S
C889 C893 1.495 . S
C890 C889 1.392 . S
C890 C891 1.385 . S
C890 C892 1.478 . S
C891 H885 0.930 . S
C891 C887 1.400 . S
C891 C890 1.385 . S
C892 C890 1.478 . S
C892 C894 1.381 . S
C892 C898 1.383 . S
C893 C889 1.495 . S
C893 H899 0.959 . S
C893 H900 0.961 . S
C893 H901 0.960 . S
C894 C892 1.381 . S
C894 C895 1.394 . S
C894 H902 0.930 . S
C895 C894 1.394 . S
C895 C896 1.383 . S
C895 H903 0.929 . S
C896 C895 1.383 . S
C896 C897 1.377 . S
C897 H881 0.930 . S
C897 C896 1.377 . S
C897 C898 1.379 . S
C898 H882 0.931 . S
C898 C892 1.383 . S
C898 C897 1.379 . S
H899 C893 0.959 . S
H900 C893 0.961 . S
H901 C893 0.960 . S
H902 C894 0.930 . S
H903 C895 0.929 . S
H904 C912 0.929 . S
H905 C914 0.930 . S
H906 C916 0.930 . S
H907 C919 0.929 . S
H908 C922 0.930 . S
H909 C924 0.960 . S
H910 C924 0.960 . S
H911 C924 0.960 . S
C912 H904 0.929 . S
C912 C913 1.377 . S
C912 C914 1.384 . S
C913 C912 1.377 . S
C913 C919 1.390 . S
C914 H905 0.930 . S
C914 C912 1.384 . S
C914 C915 1.372 . S
C915 C914 1.372 . S
C915 C916 1.400 . S
C915 C920 1.490 . S
C916 H906 0.930 . S
C916 C915 1.400 . S
C916 C919 1.386 . S
H917 C933 0.930 . S
H918 C934 0.931 . S
C919 H907 0.929 . S
C919 C913 1.390 . S
C919 C916 1.386 . S
C920 C915 1.490 . S
C920 C922 1.395 . S
C920 C923 1.403 . S
H921 C927 0.930 . S
C922 H908 0.930 . S
C922 C920 1.395 . S
C922 C925 1.403 . S
C923 C920 1.403 . S
C923 C924 1.524 . S
C923 C927 1.400 . S
C924 H909 0.960 . S
C924 H910 0.960 . S
C924 H911 0.960 . S
C924 C923 1.524 . S
C925 C922 1.403 . S
C925 C926 1.392 . S
C925 C929 1.495 . S
C926 C925 1.392 . S
C926 C927 1.385 . S
C926 C928 1.478 . S
C927 H921 0.930 . S
C927 C923 1.400 . S
C927 C926 1.385 . S
C928 C926 1.478 . S
C928 C930 1.381 . S
C928 C934 1.383 . S
C929 C925 1.495 . S
C929 H935 0.959 . S
C929 H936 0.961 . S
C929 H937 0.960 . S
C930 C928 1.381 . S
C930 C931 1.394 . S
C930 H938 0.930 . S
C931 C930 1.394 . S
C931 C932 1.383 . S
C931 H939 0.929 . S
C932 C931 1.383 . S
C932 C933 1.377 . S
C933 H917 0.930 . S
C933 C932 1.377 . S
C933 C934 1.379 . S
C934 H918 0.931 . S
C934 C928 1.383 . S
C934 C933 1.379 . S
H935 C929 0.959 . S
H936 C929 0.961 . S
H937 C929 0.960 . S
H938 C930 0.930 . S
H939 C931 0.929 . S
H940 C948 0.929 . S
H941 C950 0.930 . S
H942 C952 0.930 . S
H943 C955 0.929 . S
H944 C958 0.930 . S
H945 C960 0.960 . S
H946 C960 0.960 . S
H947 C960 0.960 . S
C948 H940 0.929 . S
C948 C949 1.377 . S
C948 C950 1.384 . S
C949 C948 1.377 . S
C949 C955 1.390 . S
C950 H941 0.930 . S
C950 C948 1.384 . S
C950 C951 1.372 . S
C951 C950 1.372 . S
C951 C952 1.400 . S
C951 C956 1.490 . S
C952 H942 0.930 . S
C952 C951 1.400 . S
C952 C955 1.386 . S
H953 C969 0.930 . S
H954 C970 0.931 . S
C955 H943 0.929 . S
C955 C949 1.390 . S
C955 C952 1.386 . S
C956 C951 1.490 . S
C956 C958 1.395 . S
C956 C959 1.403 . S
H957 C963 0.930 . S
C958 H944 0.930 . S
C958 C956 1.395 . S
C958 C961 1.403 . S
C959 C956 1.403 . S
C959 C960 1.524 . S
C959 C963 1.400 . S
C960 H945 0.960 . S
C960 H946 0.960 . S
C960 H947 0.960 . S
C960 C959 1.524 . S
C961 C958 1.403 . S
C961 C962 1.392 . S
C961 C965 1.495 . S
C962 C961 1.392 . S
C962 C963 1.385 . S
C962 C964 1.478 . S
C963 H957 0.930 . S
C963 C959 1.400 . S
C963 C962 1.385 . S
C964 C962 1.478 . S
C964 C966 1.381 . S
C964 C970 1.383 . S
C965 C961 1.495 . S
C965 H971 0.959 . S
C965 H972 0.961 . S
C965 H973 0.960 . S
C966 C964 1.381 . S
C966 C967 1.394 . S
C966 H974 0.930 . S
C967 C966 1.394 . S
C967 C968 1.383 . S
C967 H975 0.929 . S
C968 C967 1.383 . S
C968 C969 1.377 . S
C969 H953 0.930 . S
C969 C968 1.377 . S
C969 C970 1.379 . S
C970 H954 0.931 . S
C970 C964 1.383 . S
C970 C969 1.379 . S
H971 C965 0.959 . S
H972 C965 0.961 . S
H973 C965 0.960 . S
H974 C966 0.930 . S
H975 C967 0.929 . S
H976 C984 0.929 . S
H977 C986 0.930 . S
H978 C988 0.930 . S
H979 C991 0.929 . S
H980 C994 0.930 . S
H981 C996 0.960 . S
H982 C996 0.960 . S
H983 C996 0.960 . S
C984 H976 0.929 . S
C984 C985 1.377 . S
C984 C986 1.384 . S
C985 C984 1.377 . S
C985 C991 1.390 . S
C986 H977 0.930 . S
C986 C984 1.384 . S
C986 C987 1.372 . S
C987 C986 1.372 . S
C987 C988 1.400 . S
C987 C992 1.490 . S
C988 H978 0.930 . S
C988 C987 1.400 . S
C988 C991 1.386 . S
H989 C1005 0.930 . S
H990 C1006 0.931 . S
C991 H979 0.929 . S
C991 C985 1.390 . S
C991 C988 1.386 . S
C992 C987 1.490 . S
C992 C994 1.395 . S
C992 C995 1.403 . S
H993 C999 0.930 . S
C994 H980 0.930 . S
C994 C992 1.395 . S
C994 C997 1.403 . S
C995 C992 1.403 . S
C995 C996 1.524 . S
C995 C999 1.400 . S
C996 H981 0.960 . S
C996 H982 0.960 . S
C996 H983 0.960 . S
C996 C995 1.524 . S
C997 C994 1.403 . S
C997 C998 1.392 . S
C997 C1001 1.495 . S
C998 C997 1.392 . S
C998 C999 1.385 . S
C998 C1000 1.478 . S
C999 H993 0.930 . S
C999 C995 1.400 . S
C999 C998 1.385 . S
C1000 C998 1.478 . S
C1000 C1002 1.381 . S
C1000 C1006 1.383 . S
C1001 C997 1.495 . S
C1001 H1007 0.959 . S
C1001 H1008 0.961 . S
C1001 H1009 0.960 . S
C1002 C1000 1.381 . S
C1002 C1003 1.394 . S
C1002 H1010 0.930 . S
C1003 C1002 1.394 . S
C1003 C1004 1.383 . S
C1003 H1011 0.929 . S
C1004 C1003 1.383 . S
C1004 C1005 1.377 . S
C1005 H989 0.930 . S
C1005 C1004 1.377 . S
C1005 C1006 1.379 . S
C1006 H990 0.931 . S
C1006 C1000 1.383 . S
C1006 C1005 1.379 . S
H1007 C1001 0.959 . S
H1008 C1001 0.961 . S
H1009 C1001 0.960 . S
H1010 C1002 0.930 . S
H1011 C1003 0.929 . S
H1012 C1020 0.929 . S
H1013 C1022 0.930 . S
H1014 C1024 0.930 . S
H1015 C1027 0.929 . S
H1016 C1030 0.930 . S
H1017 C1032 0.960 . S
H1018 C1032 0.960 . S
H1019 C1032 0.960 . S
C1020 H1012 0.929 . S
C1020 C1021 1.377 . S
C1020 C1022 1.384 . S
C1021 C1020 1.377 . S
C1021 C1027 1.390 . S
C1022 H1013 0.930 . S
C1022 C1020 1.384 . S
C1022 C1023 1.372 . S
C1023 C1022 1.372 . S
C1023 C1024 1.400 . S
C1023 C1028 1.490 . S
C1024 H1014 0.930 . S
C1024 C1023 1.400 . S
C1024 C1027 1.386 . S
H1025 C1041 0.930 . S
H1026 C1042 0.931 . S
C1027 H1015 0.929 . S
C1027 C1021 1.390 . S
C1027 C1024 1.386 . S
C1028 C1023 1.490 . S
C1028 C1030 1.395 . S
C1028 C1031 1.403 . S
H1029 C1035 0.930 . S
C1030 H1016 0.930 . S
C1030 C1028 1.395 . S
C1030 C1033 1.403 . S
C1031 C1028 1.403 . S
C1031 C1032 1.524 . S
C1031 C1035 1.400 . S
C1032 H1017 0.960 . S
C1032 H1018 0.960 . S
C1032 H1019 0.960 . S
C1032 C1031 1.524 . S
C1033 C1030 1.403 . S
C1033 C1034 1.392 . S
C1033 C1037 1.495 . S
C1034 C1033 1.392 . S
C1034 C1035 1.385 . S
C1034 C1036 1.478 . S
C1035 H1029 0.930 . S
C1035 C1031 1.400 . S
C1035 C1034 1.385 . S
C1036 C1034 1.478 . S
C1036 C1038 1.381 . S
C1036 C1042 1.383 . S
C1037 C1033 1.495 . S
C1037 H1043 0.959 . S
C1037 H1044 0.961 . S
C1037 H1045 0.960 . S
C1038 C1036 1.381 . S
C1038 C1039 1.394 . S
C1038 H1046 0.930 . S
C1039 C1038 1.394 . S
C1039 C1040 1.383 . S
C1039 H1047 0.929 . S
C1040 C1039 1.383 . S
C1040 C1041 1.377 . S
C1041 H1025 0.930 . S
C1041 C1040 1.377 . S
C1041 C1042 1.379 . S
C1042 H1026 0.931 . S
C1042 C1036 1.383 . S
C1042 C1041 1.379 . S
H1043 C1037 0.959 . S
H1044 C1037 0.961 . S
H1045 C1037 0.960 . S
H1046 C1038 0.930 . S
H1047 C1039 0.929 . S
H1048 C1056 0.929 . S
H1049 C1058 0.930 . S
H1050 C1060 0.930 . S
H1051 C1063 0.929 . S
H1052 C1066 0.930 . S
H1053 C1068 0.960 . S
H1054 C1068 0.960 . S
H1055 C1068 0.960 . S
C1056 H1048 0.929 . S
C1056 C1057 1.377 . S
C1056 C1058 1.384 . S
C1057 C1056 1.377 . S
C1057 C1063 1.390 . S
C1058 H1049 0.930 . S
C1058 C1056 1.384 . S
C1058 C1059 1.372 . S
C1059 C1058 1.372 . S
C1059 C1060 1.400 . S
C1059 C1064 1.490 . S
C1060 H1050 0.930 . S
C1060 C1059 1.400 . S
C1060 C1063 1.386 . S
H1061 C1077 0.930 . S
H1062 C1078 0.931 . S
C1063 H1051 0.929 . S
C1063 C1057 1.390 . S
C1063 C1060 1.386 . S
C1064 C1059 1.490 . S
C1064 C1066 1.395 . S
C1064 C1067 1.403 . S
H1065 C1071 0.930 . S
C1066 H1052 0.930 . S
C1066 C1064 1.395 . S
C1066 C1069 1.403 . S
C1067 C1064 1.403 . S
C1067 C1068 1.524 . S
C1067 C1071 1.400 . S
C1068 H1053 0.960 . S
C1068 H1054 0.960 . S
C1068 H1055 0.960 . S
C1068 C1067 1.524 . S
C1069 C1066 1.403 . S
C1069 C1070 1.392 . S
C1069 C1073 1.495 . S
C1070 C1069 1.392 . S
C1070 C1071 1.385 . S
C1070 C1072 1.478 . S
C1071 H1065 0.930 . S
C1071 C1067 1.400 . S
C1071 C1070 1.385 . S
C1072 C1070 1.478 . S
C1072 C1074 1.381 . S
C1072 C1078 1.383 . S
C1073 C1069 1.495 . S
C1073 H1079 0.959 . S
C1073 H1080 0.961 . S
C1073 H1081 0.960 . S
C1074 C1072 1.381 . S
C1074 C1075 1.394 . S
C1074 H1082 0.930 . S
C1075 C1074 1.394 . S
C1075 C1076 1.383 . S
C1075 H1083 0.929 . S
C1076 C1075 1.383 . S
C1076 C1077 1.377 . S
C1077 H1061 0.930 . S
C1077 C1076 1.377 . S
C1077 C1078 1.379 . S
C1078 H1062 0.931 . S
C1078 C1072 1.383 . S
C1078 C1077 1.379 . S
H1079 C1073 0.959 . S
H1080 C1073 0.961 . S
H1081 C1073 0.960 . S
H1082 C1074 0.930 . S
H1083 C1075 0.929 . S
H1084 C1092 0.929 . S
H1085 C1094 0.930 . S
H1086 C1096 0.930 . S
H1087 C1099 0.929 . S
H1088 C1102 0.930 . S
H1089 C1104 0.960 . S
H1090 C1104 0.960 . S
H1091 C1104 0.960 . S
C1092 H1084 0.929 . S
C1092 C1093 1.377 . S
C1092 C1094 1.384 . S
C1093 C1092 1.377 . S
C1093 C1099 1.390 . S
C1094 H1085 0.930 . S
C1094 C1092 1.384 . S
C1094 C1095 1.372 . S
C1095 C1094 1.372 . S
C1095 C1096 1.400 . S
C1095 C1100 1.490 . S
C1096 H1086 0.930 . S
C1096 C1095 1.400 . S
C1096 C1099 1.386 . S
H1097 C1113 0.930 . S
H1098 C1114 0.931 . S
C1099 H1087 0.929 . S
C1099 C1093 1.390 . S
C1099 C1096 1.386 . S
C1100 C1095 1.490 . S
C1100 C1102 1.395 . S
C1100 C1103 1.403 . S
H1101 C1107 0.930 . S
C1102 H1088 0.930 . S
C1102 C1100 1.395 . S
C1102 C1105 1.403 . S
C1103 C1100 1.403 . S
C1103 C1104 1.524 . S
C1103 C1107 1.400 . S
C1104 H1089 0.960 . S
C1104 H1090 0.960 . S
C1104 H1091 0.960 . S
C1104 C1103 1.524 . S
C1105 C1102 1.403 . S
C1105 C1106 1.392 . S
C1105 C1109 1.495 . S
C1106 C1105 1.392 . S
C1106 C1107 1.385 . S
C1106 C1108 1.478 . S
C1107 H1101 0.930 . S
C1107 C1103 1.400 . S
C1107 C1106 1.385 . S
C1108 C1106 1.478 . S
C1108 C1110 1.381 . S
C1108 C1114 1.383 . S
C1109 C1105 1.495 . S
C1109 H1115 0.959 . S
C1109 H1116 0.961 . S
C1109 H1117 0.960 . S
C1110 C1108 1.381 . S
C1110 C1111 1.394 . S
C1110 H1118 0.930 . S
C1111 C1110 1.394 . S
C1111 C1112 1.383 . S
C1111 H1119 0.929 . S
C1112 C1111 1.383 . S
C1112 C1113 1.377 . S
C1113 H1097 0.930 . S
C1113 C1112 1.377 . S
C1113 C1114 1.379 . S
C1114 H1098 0.931 . S
C1114 C1108 1.383 . S
C1114 C1113 1.379 . S
H1115 C1109 0.959 . S
H1116 C1109 0.961 . S
H1117 C1109 0.960 . S
H1118 C1110 0.930 . S
H1119 C1111 0.929 . S
H1120 C1128 0.929 . S
H1121 C1130 0.930 . S
H1122 C1132 0.930 . S
H1123 C1135 0.929 . S
H1124 C1138 0.930 . S
H1125 C1140 0.960 . S
H1126 C1140 0.960 . S
H1127 C1140 0.960 . S
C1128 H1120 0.929 . S
C1128 C1129 1.377 . S
C1128 C1130 1.384 . S
C1129 C1128 1.377 . S
C1129 C1135 1.390 . S
C1130 H1121 0.930 . S
C1130 C1128 1.384 . S
C1130 C1131 1.372 . S
C1131 C1130 1.372 . S
C1131 C1132 1.400 . S
C1131 C1136 1.490 . S
C1132 H1122 0.930 . S
C1132 C1131 1.400 . S
C1132 C1135 1.386 . S
H1133 C1149 0.930 . S
H1134 C1150 0.931 . S
C1135 H1123 0.929 . S
C1135 C1129 1.390 . S
C1135 C1132 1.386 . S
C1136 C1131 1.490 . S
C1136 C1138 1.395 . S
C1136 C1139 1.403 . S
H1137 C1143 0.930 . S
C1138 H1124 0.930 . S
C1138 C1136 1.395 . S
C1138 C1141 1.403 . S
C1139 C1136 1.403 . S
C1139 C1140 1.524 . S
C1139 C1143 1.400 . S
C1140 H1125 0.960 . S
C1140 H1126 0.960 . S
C1140 H1127 0.960 . S
C1140 C1139 1.524 . S
C1141 C1138 1.403 . S
C1141 C1142 1.392 . S
C1141 C1145 1.495 . S
C1142 C1141 1.392 . S
C1142 C1143 1.385 . S
C1142 C1144 1.478 . S
C1143 H1137 0.930 . S
C1143 C1139 1.400 . S
C1143 C1142 1.385 . S
C1144 C1142 1.478 . S
C1144 C1146 1.381 . S
C1144 C1150 1.383 . S
C1145 C1141 1.495 . S
C1145 H1151 0.959 . S
C1145 H1152 0.961 . S
C1145 H1153 0.960 . S
C1146 C1144 1.381 . S
C1146 C1147 1.394 . S
C1146 H1154 0.930 . S
C1147 C1146 1.394 . S
C1147 C1148 1.383 . S
C1147 H1155 0.929 . S
C1148 C1147 1.383 . S
C1148 C1149 1.377 . S
C1149 H1133 0.930 . S
C1149 C1148 1.377 . S
C1149 C1150 1.379 . S
C1150 H1134 0.931 . S
C1150 C1144 1.383 . S
C1150 C1149 1.379 . S
H1151 C1145 0.959 . S
H1152 C1145 0.961 . S
H1153 C1145 0.960 . S
H1154 C1146 0.930 . S
H1155 C1147 0.929 . S
H1156 C1164 0.929 . S
H1157 C1166 0.930 . S
H1158 C1168 0.930 . S
H1159 C1171 0.929 1_545 S
H1160 C1174 0.930 . S
H1161 C1176 0.960 . S
H1162 C1176 0.960 . S
H1163 C1176 0.960 . S
C1164 H1156 0.929 . S
C1164 C1165 1.377 . S
C1164 C1166 1.384 . S
C1165 C1164 1.377 . S
C1165 C1171 1.390 . S
C1166 H1157 0.930 . S
C1166 C1164 1.384 . S
C1166 C1167 1.372 . S
C1167 C1166 1.372 . S
C1167 C1168 1.400 . S
C1167 C1172 1.490 . S
C1168 H1158 0.930 . S
C1168 C1167 1.400 . S
C1168 C1171 1.386 . S
H1169 C1185 0.930 . S
H1170 C1186 0.931 . S
C1171 H1159 0.929 1_565 S
C1171 C1165 1.390 . S
C1171 C1168 1.386 . S
C1172 C1167 1.490 . S
C1172 C1174 1.395 . S
C1172 C1175 1.403 . S
H1173 C1179 0.930 . S
C1174 H1160 0.930 . S
C1174 C1172 1.395 . S
C1174 C1177 1.403 . S
C1175 C1172 1.403 . S
C1175 C1176 1.524 . S
C1175 C1179 1.400 . S
C1176 H1161 0.960 . S
C1176 H1162 0.960 . S
C1176 H1163 0.960 . S
C1176 C1175 1.524 . S
C1177 C1174 1.403 . S
C1177 C1178 1.392 . S
C1177 C1181 1.495 . S
C1178 C1177 1.392 . S
C1178 C1179 1.385 . S
C1178 C1180 1.478 . S
C1179 H1173 0.930 . S
C1179 C1175 1.400 . S
C1179 C1178 1.385 . S
C1180 C1178 1.478 . S
C1180 C1182 1.381 . S
C1180 C1186 1.383 . S
C1181 C1177 1.495 . S
C1181 H1187 0.959 . S
C1181 H1188 0.961 . S
C1181 H1189 0.960 . S
C1182 C1180 1.381 . S
C1182 C1183 1.394 . S
C1182 H1190 0.930 . S
C1183 C1182 1.394 . S
C1183 C1184 1.383 . S
C1183 H1191 0.929 . S
C1184 C1183 1.383 . S
C1184 C1185 1.377 . S
C1185 H1169 0.930 . S
C1185 C1184 1.377 . S
C1185 C1186 1.379 . S
C1186 H1170 0.931 . S
C1186 C1180 1.383 . S
C1186 C1185 1.379 . S
H1187 C1181 0.959 . S
H1188 C1181 0.961 . S
H1189 C1181 0.960 . S
H1190 C1182 0.930 . S
H1191 C1183 0.929 . S
H1192 C1200 0.929 . S
H1193 C1202 0.930 . S
H1194 C1204 0.930 . S
H1195 C1207 0.929 . S
H1196 C1210 0.930 . S
H1197 C1212 0.960 . S
H1198 C1212 0.960 . S
H1199 C1212 0.960 . S
C1200 H1192 0.929 . S
C1200 C1201 1.377 . S
C1200 C1202 1.384 . S
C1201 C1200 1.377 . S
C1201 C1207 1.390 . S
C1202 H1193 0.930 . S
C1202 C1200 1.384 . S
C1202 C1203 1.372 . S
C1203 C1202 1.372 . S
C1203 C1204 1.400 . S
C1203 C1208 1.490 . S
C1204 H1194 0.930 . S
C1204 C1203 1.400 . S
C1204 C1207 1.386 . S
H1205 C1221 0.930 . S
H1206 C1222 0.931 . S
C1207 H1195 0.929 . S
C1207 C1201 1.390 . S
C1207 C1204 1.386 . S
C1208 C1203 1.490 . S
C1208 C1210 1.395 . S
C1208 C1211 1.403 . S
H1209 C1215 0.930 . S
C1210 H1196 0.930 . S
C1210 C1208 1.395 . S
C1210 C1213 1.403 . S
C1211 C1208 1.403 . S
C1211 C1212 1.524 . S
C1211 C1215 1.400 . S
C1212 H1197 0.960 . S
C1212 H1198 0.960 . S
C1212 H1199 0.960 . S
C1212 C1211 1.524 . S
C1213 C1210 1.403 . S
C1213 C1214 1.392 . S
C1213 C1217 1.495 . S
C1214 C1213 1.392 . S
C1214 C1215 1.385 . S
C1214 C1216 1.478 . S
C1215 H1209 0.930 . S
C1215 C1211 1.400 . S
C1215 C1214 1.385 . S
C1216 C1214 1.478 . S
C1216 C1218 1.381 . S
C1216 C1222 1.383 . S
C1217 C1213 1.495 . S
C1217 H1223 0.959 . S
C1217 H1224 0.961 . S
C1217 H1225 0.960 . S
C1218 C1216 1.381 . S
C1218 C1219 1.394 . S
C1218 H1226 0.930 . S
C1219 C1218 1.394 . S
C1219 C1220 1.383 . S
C1219 H1227 0.929 . S
C1220 C1219 1.383 . S
C1220 C1221 1.377 . S
C1221 H1205 0.930 . S
C1221 C1220 1.377 . S
C1221 C1222 1.379 . S
C1222 H1206 0.931 . S
C1222 C1216 1.383 . S
C1222 C1221 1.379 . S
H1223 C1217 0.959 . S
H1224 C1217 0.961 . S
H1225 C1217 0.960 . S
H1226 C1218 0.930 . S
H1227 C1219 0.929 . S
H1228 C1236 0.929 . S
H1229 C1238 0.930 . S
H1230 C1240 0.930 . S
H1231 C1243 0.929 . S
H1232 C1246 0.930 . S
H1233 C1248 0.960 . S
H1234 C1248 0.960 . S
H1235 C1248 0.960 . S
C1236 H1228 0.929 . S
C1236 C1237 1.377 . S
C1236 C1238 1.384 . S
C1237 C1236 1.377 . S
C1237 C1243 1.390 . S
C1238 H1229 0.930 . S
C1238 C1236 1.384 . S
C1238 C1239 1.372 . S
C1239 C1238 1.372 . S
C1239 C1240 1.400 . S
C1239 C1244 1.490 . S
C1240 H1230 0.930 . S
C1240 C1239 1.400 . S
C1240 C1243 1.386 . S
H1241 C1257 0.930 . S
H1242 C1258 0.931 . S
C1243 H1231 0.929 . S
C1243 C1237 1.390 . S
C1243 C1240 1.386 . S
C1244 C1239 1.490 . S
C1244 C1246 1.395 . S
C1244 C1247 1.403 . S
H1245 C1251 0.930 . S
C1246 H1232 0.930 . S
C1246 C1244 1.395 . S
C1246 C1249 1.403 . S
C1247 C1244 1.403 . S
C1247 C1248 1.524 . S
C1247 C1251 1.400 . S
C1248 H1233 0.960 . S
C1248 H1234 0.960 . S
C1248 H1235 0.960 . S
C1248 C1247 1.524 . S
C1249 C1246 1.403 . S
C1249 C1250 1.392 . S
C1249 C1253 1.495 . S
C1250 C1249 1.392 . S
C1250 C1251 1.385 . S
C1250 C1252 1.478 . S
C1251 H1245 0.930 . S
C1251 C1247 1.400 . S
C1251 C1250 1.385 . S
C1252 C1250 1.478 . S
C1252 C1254 1.381 . S
C1252 C1258 1.383 . S
C1253 C1249 1.495 . S
C1253 H1259 0.959 . S
C1253 H1260 0.961 . S
C1253 H1261 0.960 . S
C1254 C1252 1.381 . S
C1254 C1255 1.394 . S
C1254 H1262 0.930 . S
C1255 C1254 1.394 . S
C1255 C1256 1.383 . S
C1255 H1263 0.929 . S
C1256 C1255 1.383 . S
C1256 C1257 1.377 . S
C1257 H1241 0.930 . S
C1257 C1256 1.377 . S
C1257 C1258 1.379 . S
C1258 H1242 0.931 . S
C1258 C1252 1.383 . S
C1258 C1257 1.379 . S
H1259 C1253 0.959 . S
H1260 C1253 0.961 . S
H1261 C1253 0.960 . S
H1262 C1254 0.930 . S
H1263 C1255 0.929 . S
H1264 C1272 0.929 . S
H1265 C1274 0.930 . S
H1266 C1276 0.930 . S
H1267 C1279 0.929 . S
H1268 C1282 0.930 . S
H1269 C1284 0.960 . S
H1270 C1284 0.960 . S
H1271 C1284 0.960 . S
C1272 H1264 0.929 . S
C1272 C1273 1.377 . S
C1272 C1274 1.384 . S
C1273 C1272 1.377 . S
C1273 C1279 1.390 . S
C1274 H1265 0.930 . S
C1274 C1272 1.384 . S
C1274 C1275 1.372 . S
C1275 C1274 1.372 . S
C1275 C1276 1.400 . S
C1275 C1280 1.490 . S
C1276 H1266 0.930 . S
C1276 C1275 1.400 . S
C1276 C1279 1.386 . S
H1277 C1293 0.930 . S
H1278 C1294 0.931 . S
C1279 H1267 0.929 . S
C1279 C1273 1.390 . S
C1279 C1276 1.386 . S
C1280 C1275 1.490 . S
C1280 C1282 1.395 . S
C1280 C1283 1.403 . S
H1281 C1287 0.930 . S
C1282 H1268 0.930 . S
C1282 C1280 1.395 . S
C1282 C1285 1.403 . S
C1283 C1280 1.403 . S
C1283 C1284 1.524 . S
C1283 C1287 1.400 . S
C1284 H1269 0.960 . S
C1284 H1270 0.960 . S
C1284 H1271 0.960 . S
C1284 C1283 1.524 . S
C1285 C1282 1.403 . S
C1285 C1286 1.392 . S
C1285 C1289 1.495 . S
C1286 C1285 1.392 . S
C1286 C1287 1.385 . S
C1286 C1288 1.478 . S
C1287 H1281 0.930 . S
C1287 C1283 1.400 . S
C1287 C1286 1.385 . S
C1288 C1286 1.478 . S
C1288 C1290 1.381 . S
C1288 C1294 1.383 . S
C1289 C1285 1.495 . S
C1289 H1295 0.959 . S
C1289 H1296 0.961 . S
C1289 H1297 0.960 . S
C1290 C1288 1.381 . S
C1290 C1291 1.394 . S
C1290 H1298 0.930 . S
C1291 C1290 1.394 . S
C1291 C1292 1.383 . S
C1291 H1299 0.929 . S
C1292 C1291 1.383 . S
C1292 C1293 1.377 . S
C1293 H1277 0.930 . S
C1293 C1292 1.377 . S
C1293 C1294 1.379 . S
C1294 H1278 0.931 . S
C1294 C1288 1.383 . S
C1294 C1293 1.379 . S
H1295 C1289 0.959 . S
H1296 C1289 0.961 . S
H1297 C1289 0.960 . S
H1298 C1290 0.930 . S
H1299 C1291 0.929 . S
H1300 C1308 0.929 . S
H1301 C1310 0.930 . S
H1302 C1312 0.930 . S
H1303 C1315 0.929 . S
H1304 C1318 0.930 . S
H1305 C1320 0.960 . S
H1306 C1320 0.960 . S
H1307 C1320 0.960 . S
C1308 H1300 0.929 . S
C1308 C1309 1.377 . S
C1308 C1310 1.384 . S
C1309 C1308 1.377 . S
C1309 C1315 1.390 . S
C1310 H1301 0.930 . S
C1310 C1308 1.384 . S
C1310 C1311 1.372 . S
C1311 C1310 1.372 . S
C1311 C1312 1.400 . S
C1311 C1316 1.490 . S
C1312 H1302 0.930 . S
C1312 C1311 1.400 . S
C1312 C1315 1.386 . S
H1313 C1329 0.930 . S
H1314 C1330 0.931 . S
C1315 H1303 0.929 . S
C1315 C1309 1.390 . S
C1315 C1312 1.386 . S
C1316 C1311 1.490 . S
C1316 C1318 1.395 . S
C1316 C1319 1.403 . S
H1317 C1323 0.930 . S
C1318 H1304 0.930 . S
C1318 C1316 1.395 . S
C1318 C1321 1.403 . S
C1319 C1316 1.403 . S
C1319 C1320 1.524 . S
C1319 C1323 1.400 . S
C1320 H1305 0.960 . S
C1320 H1306 0.960 . S
C1320 H1307 0.960 . S
C1320 C1319 1.524 . S
C1321 C1318 1.403 . S
C1321 C1322 1.392 . S
C1321 C1325 1.495 . S
C1322 C1321 1.392 . S
C1322 C1323 1.385 . S
C1322 C1324 1.478 . S
C1323 H1317 0.930 . S
C1323 C1319 1.400 . S
C1323 C1322 1.385 . S
C1324 C1322 1.478 . S
C1324 C1326 1.381 . S
C1324 C1330 1.383 . S
C1325 C1321 1.495 . S
C1325 H1331 0.959 . S
C1325 H1332 0.961 . S
C1325 H1333 0.960 . S
C1326 C1324 1.381 . S
C1326 C1327 1.394 . S
C1326 H1334 0.930 . S
C1327 C1326 1.394 . S
C1327 C1328 1.383 . S
C1327 H1335 0.929 . S
C1328 C1327 1.383 . S
C1328 C1329 1.377 . S
C1329 H1313 0.930 . S
C1329 C1328 1.377 . S
C1329 C1330 1.379 . S
C1330 H1314 0.931 . S
C1330 C1324 1.383 . S
C1330 C1329 1.379 . S
H1331 C1325 0.959 . S
H1332 C1325 0.961 . S
H1333 C1325 0.960 . S
H1334 C1326 0.930 . S
H1335 C1327 0.929 . S
H1336 C1344 0.929 . S
H1337 C1346 0.930 . S
H1338 C1348 0.930 . S
H1339 C1351 0.929 . S
H1340 C1354 0.930 . S
H1341 C1356 0.960 . S
H1342 C1356 0.960 . S
H1343 C1356 0.960 . S
C1344 H1336 0.929 . S
C1344 C1345 1.377 . S
C1344 C1346 1.384 . S
C1345 C1344 1.377 . S
C1345 C1351 1.390 . S
C1346 H1337 0.930 . S
C1346 C1344 1.384 . S
C1346 C1347 1.372 . S
C1347 C1346 1.372 . S
C1347 C1348 1.400 . S
C1347 C1352 1.490 . S
C1348 H1338 0.930 . S
C1348 C1347 1.400 . S
C1348 C1351 1.386 . S
H1349 C1365 0.930 . S
H1350 C1366 0.931 . S
C1351 H1339 0.929 . S
C1351 C1345 1.390 . S
C1351 C1348 1.386 . S
C1352 C1347 1.490 . S
C1352 C1354 1.395 . S
C1352 C1355 1.403 . S
H1353 C1359 0.930 . S
C1354 H1340 0.930 . S
C1354 C1352 1.395 . S
C1354 C1357 1.403 . S
C1355 C1352 1.403 . S
C1355 C1356 1.524 . S
C1355 C1359 1.400 . S
C1356 H1341 0.960 . S
C1356 H1342 0.960 . S
C1356 H1343 0.960 . S
C1356 C1355 1.524 . S
C1357 C1354 1.403 . S
C1357 C1358 1.392 . S
C1357 C1361 1.495 . S
C1358 C1357 1.392 . S
C1358 C1359 1.385 . S
C1358 C1360 1.478 . S
C1359 H1353 0.930 . S
C1359 C1355 1.400 . S
C1359 C1358 1.385 . S
C1360 C1358 1.478 . S
C1360 C1362 1.381 . S
C1360 C1366 1.383 . S
C1361 C1357 1.495 . S
C1361 H1367 0.959 . S
C1361 H1368 0.961 . S
C1361 H1369 0.960 . S
C1362 C1360 1.381 . S
C1362 C1363 1.394 . S
C1362 H1370 0.930 . S
C1363 C1362 1.394 . S
C1363 C1364 1.383 . S
C1363 H1371 0.929 . S
C1364 C1363 1.383 . S
C1364 C1365 1.377 . S
C1365 H1349 0.930 . S
C1365 C1364 1.377 . S
C1365 C1366 1.379 . S
C1366 H1350 0.931 . S
C1366 C1360 1.383 . S
C1366 C1365 1.379 . S
H1367 C1361 0.959 . S
H1368 C1361 0.961 . S
H1369 C1361 0.960 . S
H1370 C1362 0.930 . S
H1371 C1363 0.929 . S
H1372 C1380 0.929 . S
H1373 C1382 0.930 . S
H1374 C1384 0.930 . S
H1375 C1387 0.929 . S
H1376 C1390 0.930 . S
H1377 C1392 0.960 . S
H1378 C1392 0.960 . S
H1379 C1392 0.960 . S
C1380 H1372 0.929 . S
C1380 C1381 1.377 . S
C1380 C1382 1.384 . S
C1381 C1380 1.377 . S
C1381 C1387 1.390 . S
C1382 H1373 0.930 . S
C1382 C1380 1.384 . S
C1382 C1383 1.372 . S
C1383 C1382 1.372 . S
C1383 C1384 1.400 . S
C1383 C1388 1.490 . S
C1384 H1374 0.930 . S
C1384 C1383 1.400 . S
C1384 C1387 1.386 . S
H1385 C1401 0.930 . S
H1386 C1402 0.931 . S
C1387 H1375 0.929 . S
C1387 C1381 1.390 . S
C1387 C1384 1.386 . S
C1388 C1383 1.490 . S
C1388 C1390 1.395 . S
C1388 C1391 1.403 . S
H1389 C1395 0.930 . S
C1390 H1376 0.930 . S
C1390 C1388 1.395 . S
C1390 C1393 1.403 . S
C1391 C1388 1.403 . S
C1391 C1392 1.524 . S
C1391 C1395 1.400 . S
C1392 H1377 0.960 . S
C1392 H1378 0.960 . S
C1392 H1379 0.960 . S
C1392 C1391 1.524 . S
C1393 C1390 1.403 . S
C1393 C1394 1.392 . S
C1393 C1397 1.495 . S
C1394 C1393 1.392 . S
C1394 C1395 1.385 . S
C1394 C1396 1.478 . S
C1395 H1389 0.930 . S
C1395 C1391 1.400 . S
C1395 C1394 1.385 . S
C1396 C1394 1.478 . S
C1396 C1398 1.381 . S
C1396 C1402 1.383 . S
C1397 C1393 1.495 . S
C1397 H1403 0.959 . S
C1397 H1404 0.961 . S
C1397 H1405 0.960 . S
C1398 C1396 1.381 . S
C1398 C1399 1.394 . S
C1398 H1406 0.930 . S
C1399 C1398 1.394 . S
C1399 C1400 1.383 . S
C1399 H1407 0.929 . S
C1400 C1399 1.383 . S
C1400 C1401 1.377 . S
C1401 H1385 0.930 . S
C1401 C1400 1.377 . S
C1401 C1402 1.379 . S
C1402 H1386 0.931 . S
C1402 C1396 1.383 . S
C1402 C1401 1.379 . S
H1403 C1397 0.959 . S
H1404 C1397 0.961 . S
H1405 C1397 0.960 . S
H1406 C1398 0.930 . S
H1407 C1399 0.929 . S
H1408 C1416 0.929 . S
H1409 C1418 0.930 . S
H1410 C1420 0.930 . S
H1411 C1423 0.929 . S
H1412 C1426 0.930 . S
H1413 C1428 0.960 . S
H1414 C1428 0.960 . S
H1415 C1428 0.960 . S
C1416 H1408 0.929 . S
C1416 C1417 1.377 . S
C1416 C1418 1.384 . S
C1417 C1416 1.377 . S
C1417 C1423 1.390 . S
C1418 H1409 0.930 . S
C1418 C1416 1.384 . S
C1418 C1419 1.372 . S
C1419 C1418 1.372 . S
C1419 C1420 1.400 . S
C1419 C1424 1.490 . S
C1420 H1410 0.930 . S
C1420 C1419 1.400 . S
C1420 C1423 1.386 . S
H1421 C1437 0.930 . S
H1422 C1438 0.931 . S
C1423 H1411 0.929 . S
C1423 C1417 1.390 . S
C1423 C1420 1.386 . S
C1424 C1419 1.490 . S
C1424 C1426 1.395 . S
C1424 C1427 1.403 . S
H1425 C1431 0.930 . S
C1426 H1412 0.930 . S
C1426 C1424 1.395 . S
C1426 C1429 1.403 . S
C1427 C1424 1.403 . S
C1427 C1428 1.524 . S
C1427 C1431 1.400 . S
C1428 H1413 0.960 . S
C1428 H1414 0.960 . S
C1428 H1415 0.960 . S
C1428 C1427 1.524 . S
C1429 C1426 1.403 . S
C1429 C1430 1.392 . S
C1429 C1433 1.495 . S
C1430 C1429 1.392 . S
C1430 C1431 1.385 . S
C1430 C1432 1.478 . S
C1431 H1425 0.930 . S
C1431 C1427 1.400 . S
C1431 C1430 1.385 . S
C1432 C1430 1.478 . S
C1432 C1434 1.381 . S
C1432 C1438 1.383 . S
C1433 C1429 1.495 . S
C1433 H1439 0.959 . S
C1433 H1440 0.961 . S
C1433 H1441 0.960 . S
C1434 C1432 1.381 . S
C1434 C1435 1.394 . S
C1434 H1442 0.930 . S
C1435 C1434 1.394 . S
C1435 C1436 1.383 . S
C1435 H1443 0.929 . S
C1436 C1435 1.383 . S
C1436 C1437 1.377 . S
C1437 H1421 0.930 . S
C1437 C1436 1.377 . S
C1437 C1438 1.379 . S
C1438 H1422 0.931 . S
C1438 C1432 1.383 . S
C1438 C1437 1.379 . S
H1439 C1433 0.959 . S
H1440 C1433 0.961 . S
H1441 C1433 0.960 . S
H1442 C1434 0.930 . S
H1443 C1435 0.929 . S
H1444 C1452 0.929 . S
H1445 C1454 0.930 . S
H1446 C1456 0.930 . S
H1447 C1459 0.929 . S
H1448 C1462 0.930 . S
H1449 C1464 0.960 . S
H1450 C1464 0.960 . S
H1451 C1464 0.960 . S
C1452 H1444 0.929 . S
C1452 C1453 1.377 . S
C1452 C1454 1.384 . S
C1453 C1452 1.377 . S
C1453 C1459 1.390 . S
C1454 H1445 0.930 . S
C1454 C1452 1.384 . S
C1454 C1455 1.372 . S
C1455 C1454 1.372 . S
C1455 C1456 1.400 . S
C1455 C1460 1.490 . S
C1456 H1446 0.930 . S
C1456 C1455 1.400 . S
C1456 C1459 1.386 . S
H1457 C1473 0.930 . S
H1458 C1474 0.931 . S
C1459 H1447 0.929 . S
C1459 C1453 1.390 . S
C1459 C1456 1.386 . S
C1460 C1455 1.490 . S
C1460 C1462 1.395 . S
C1460 C1463 1.403 . S
H1461 C1467 0.930 . S
C1462 H1448 0.930 . S
C1462 C1460 1.395 . S
C1462 C1465 1.403 . S
C1463 C1460 1.403 . S
C1463 C1464 1.524 . S
C1463 C1467 1.400 . S
C1464 H1449 0.960 . S
C1464 H1450 0.960 . S
C1464 H1451 0.960 . S
C1464 C1463 1.524 . S
C1465 C1462 1.403 . S
C1465 C1466 1.392 . S
C1465 C1469 1.495 . S
C1466 C1465 1.392 . S
C1466 C1467 1.385 . S
C1466 C1468 1.478 . S
C1467 H1461 0.930 . S
C1467 C1463 1.400 . S
C1467 C1466 1.385 . S
C1468 C1466 1.478 . S
C1468 C1470 1.381 . S
C1468 C1474 1.383 . S
C1469 C1465 1.495 . S
C1469 H1475 0.959 . S
C1469 H1476 0.961 . S
C1469 H1477 0.960 . S
C1470 C1468 1.381 . S
C1470 C1471 1.394 . S
C1470 H1478 0.930 . S
C1471 C1470 1.394 . S
C1471 C1472 1.383 . S
C1471 H1479 0.929 . S
C1472 C1471 1.383 . S
C1472 C1473 1.377 . S
C1473 H1457 0.930 . S
C1473 C1472 1.377 . S
C1473 C1474 1.379 . S
C1474 H1458 0.931 . S
C1474 C1468 1.383 . S
C1474 C1473 1.379 . S
H1475 C1469 0.959 . S
H1476 C1469 0.961 . S
H1477 C1469 0.960 . S
H1478 C1470 0.930 . S
H1479 C1471 0.929 . S
H1480 C1488 0.929 . S
H1481 C1490 0.930 . S
H1482 C1492 0.930 . S
H1483 C1495 0.929 . S
H1484 C1498 0.930 . S
H1485 C1500 0.960 . S
H1486 C1500 0.960 . S
H1487 C1500 0.960 . S
C1488 H1480 0.929 . S
C1488 C1489 1.377 . S
C1488 C1490 1.384 . S
C1489 C1488 1.377 . S
C1489 C1495 1.390 . S
C1490 H1481 0.930 . S
C1490 C1488 1.384 . S
C1490 C1491 1.372 . S
C1491 C1490 1.372 . S
C1491 C1492 1.400 . S
C1491 C1496 1.490 . S
C1492 H1482 0.930 . S
C1492 C1491 1.400 . S
C1492 C1495 1.386 . S
H1493 C1509 0.930 . S
H1494 C1510 0.931 . S
C1495 H1483 0.929 . S
C1495 C1489 1.390 . S
C1495 C1492 1.386 . S
C1496 C1491 1.490 . S
C1496 C1498 1.395 . S
C1496 C1499 1.403 . S
H1497 C1503 0.930 . S
C1498 H1484 0.930 . S
C1498 C1496 1.395 . S
C1498 C1501 1.403 . S
C1499 C1496 1.403 . S
C1499 C1500 1.524 . S
C1499 C1503 1.400 . S
C1500 H1485 0.960 . S
C1500 H1486 0.960 . S
C1500 H1487 0.960 . S
C1500 C1499 1.524 . S
C1501 C1498 1.403 . S
C1501 C1502 1.392 . S
C1501 C1505 1.495 . S
C1502 C1501 1.392 . S
C1502 C1503 1.385 . S
C1502 C1504 1.478 . S
C1503 H1497 0.930 . S
C1503 C1499 1.400 . S
C1503 C1502 1.385 . S
C1504 C1502 1.478 . S
C1504 C1506 1.381 . S
C1504 C1510 1.383 . S
C1505 C1501 1.495 . S
C1505 H1511 0.959 . S
C1505 H1512 0.961 . S
C1505 H1513 0.960 . S
C1506 C1504 1.381 . S
C1506 C1507 1.394 . S
C1506 H1514 0.930 . S
C1507 C1506 1.394 . S
C1507 C1508 1.383 . S
C1507 H1515 0.929 . S
C1508 C1507 1.383 . S
C1508 C1509 1.377 . S
C1509 H1493 0.930 . S
C1509 C1508 1.377 . S
C1509 C1510 1.379 . S
C1510 H1494 0.931 . S
C1510 C1504 1.383 . S
C1510 C1509 1.379 . S
H1511 C1505 0.959 . S
H1512 C1505 0.961 . S
H1513 C1505 0.960 . S
H1514 C1506 0.930 . S
H1515 C1507 0.929 . S
H1516 C1524 0.929 . S
H1517 C1526 0.930 . S
H1518 C1528 0.930 . S
H1519 C1531 0.929 . S
H1520 C1534 0.930 . S
H1521 C1536 0.960 . S
H1522 C1536 0.960 . S
H1523 C1536 0.960 . S
C1524 H1516 0.929 . S
C1524 C1525 1.377 . S
C1524 C1526 1.384 . S
C1525 C1524 1.377 . S
C1525 C1531 1.390 . S
C1526 H1517 0.930 . S
C1526 C1524 1.384 . S
C1526 C1527 1.372 . S
C1527 C1526 1.372 . S
C1527 C1528 1.400 . S
C1527 C1532 1.490 . S
C1528 H1518 0.930 . S
C1528 C1527 1.400 . S
C1528 C1531 1.386 . S
H1529 C1545 0.930 . S
H1530 C1546 0.931 . S
C1531 H1519 0.929 . S
C1531 C1525 1.390 . S
C1531 C1528 1.386 . S
C1532 C1527 1.490 . S
C1532 C1534 1.395 . S
C1532 C1535 1.403 . S
H1533 C1539 0.930 . S
C1534 H1520 0.930 . S
C1534 C1532 1.395 . S
C1534 C1537 1.403 . S
C1535 C1532 1.403 . S
C1535 C1536 1.524 . S
C1535 C1539 1.400 . S
C1536 H1521 0.960 . S
C1536 H1522 0.960 . S
C1536 H1523 0.960 . S
C1536 C1535 1.524 . S
C1537 C1534 1.403 . S
C1537 C1538 1.392 . S
C1537 C1541 1.495 . S
C1538 C1537 1.392 . S
C1538 C1539 1.385 . S
C1538 C1540 1.478 . S
C1539 H1533 0.930 . S
C1539 C1535 1.400 . S
C1539 C1538 1.385 . S
C1540 C1538 1.478 . S
C1540 C1542 1.381 . S
C1540 C1546 1.383 . S
C1541 C1537 1.495 . S
C1541 H1547 0.959 . S
C1541 H1548 0.961 . S
C1541 H1549 0.960 . S
C1542 C1540 1.381 . S
C1542 C1543 1.394 . S
C1542 H1550 0.930 . S
C1543 C1542 1.394 . S
C1543 C1544 1.383 . S
C1543 H1551 0.929 . S
C1544 C1543 1.383 . S
C1544 C1545 1.377 . S
C1545 H1529 0.930 . S
C1545 C1544 1.377 . S
C1545 C1546 1.379 . S
C1546 H1530 0.931 . S
C1546 C1540 1.383 . S
C1546 C1545 1.379 . S
H1547 C1541 0.959 . S
H1548 C1541 0.961 . S
H1549 C1541 0.960 . S
H1550 C1542 0.930 . S
H1551 C1543 0.929 . S
H1552 C1560 0.929 . S
H1553 C1562 0.930 . S
H1554 C1564 0.930 . S
H1555 C1567 0.929 . S
H1556 C1570 0.930 . S
H1557 C1572 0.960 . S
H1558 C1572 0.960 . S
H1559 C1572 0.960 . S
C1560 H1552 0.929 . S
C1560 C1561 1.377 . S
C1560 C1562 1.384 . S
C1561 C1560 1.377 . S
C1561 C1567 1.390 . S
C1562 H1553 0.930 . S
C1562 C1560 1.384 . S
C1562 C1563 1.372 . S
C1563 C1562 1.372 . S
C1563 C1564 1.400 . S
C1563 C1568 1.490 . S
C1564 H1554 0.930 . S
C1564 C1563 1.400 . S
C1564 C1567 1.386 . S
H1565 C1581 0.930 . S
H1566 C1582 0.931 . S
C1567 H1555 0.929 . S
C1567 C1561 1.390 . S
C1567 C1564 1.386 . S
C1568 C1563 1.490 . S
C1568 C1570 1.395 . S
C1568 C1571 1.403 . S
H1569 C1575 0.930 . S
C1570 H1556 0.930 . S
C1570 C1568 1.395 . S
C1570 C1573 1.403 . S
C1571 C1568 1.403 . S
C1571 C1572 1.524 . S
C1571 C1575 1.400 . S
C1572 H1557 0.960 . S
C1572 H1558 0.960 . S
C1572 H1559 0.960 . S
C1572 C1571 1.524 . S
C1573 C1570 1.403 . S
C1573 C1574 1.392 . S
C1573 C1577 1.495 . S
C1574 C1573 1.392 . S
C1574 C1575 1.385 . S
C1574 C1576 1.478 . S
C1575 H1569 0.930 . S
C1575 C1571 1.400 . S
C1575 C1574 1.385 . S
C1576 C1574 1.478 . S
C1576 C1578 1.381 . S
C1576 C1582 1.383 . S
C1577 C1573 1.495 . S
C1577 H1583 0.959 . S
C1577 H1584 0.961 . S
C1577 H1585 0.960 . S
C1578 C1576 1.381 . S
C1578 C1579 1.394 . S
C1578 H1586 0.930 . S
C1579 C1578 1.394 . S
C1579 C1580 1.383 . S
C1579 H1587 0.929 . S
C1580 C1579 1.383 . S
C1580 C1581 1.377 . S
C1581 H1565 0.930 . S
C1581 C1580 1.377 . S
C1581 C1582 1.379 . S
C1582 H1566 0.931 . S
C1582 C1576 1.383 . S
C1582 C1581 1.379 . S
H1583 C1577 0.959 . S
H1584 C1577 0.961 . S
H1585 C1577 0.960 . S
H1586 C1578 0.930 . S
H1587 C1579 0.929 . S
H1588 C1596 0.929 . S
H1589 C1598 0.930 . S
H1590 C1600 0.930 . S
H1591 C1603 0.929 . S
H1592 C1606 0.930 . S
H1593 C1608 0.960 . S
H1594 C1608 0.960 . S
H1595 C1608 0.960 . S
C1596 H1588 0.929 . S
C1596 C1597 1.377 . S
C1596 C1598 1.384 . S
C1597 C1596 1.377 . S
C1597 C1603 1.390 . S
C1598 H1589 0.930 . S
C1598 C1596 1.384 . S
C1598 C1599 1.372 . S
C1599 C1598 1.372 . S
C1599 C1600 1.400 . S
C1599 C1604 1.490 . S
C1600 H1590 0.930 . S
C1600 C1599 1.400 . S
C1600 C1603 1.386 . S
H1601 C1617 0.930 . S
H1602 C1618 0.931 . S
C1603 H1591 0.929 . S
C1603 C1597 1.390 . S
C1603 C1600 1.386 . S
C1604 C1599 1.490 . S
C1604 C1606 1.395 . S
C1604 C1607 1.403 . S
H1605 C1611 0.930 . S
C1606 H1592 0.930 . S
C1606 C1604 1.395 . S
C1606 C1609 1.403 . S
C1607 C1604 1.403 . S
C1607 C1608 1.524 . S
C1607 C1611 1.400 . S
C1608 H1593 0.960 . S
C1608 H1594 0.960 . S
C1608 H1595 0.960 . S
C1608 C1607 1.524 . S
C1609 C1606 1.403 . S
C1609 C1610 1.392 . S
C1609 C1613 1.495 . S
C1610 C1609 1.392 . S
C1610 C1611 1.385 . S
C1610 C1612 1.478 . S
C1611 H1605 0.930 . S
C1611 C1607 1.400 . S
C1611 C1610 1.385 . S
C1612 C1610 1.478 . S
C1612 C1614 1.381 . S
C1612 C1618 1.383 . S
C1613 C1609 1.495 . S
C1613 H1619 0.959 . S
C1613 H1620 0.961 . S
C1613 H1621 0.960 . S
C1614 C1612 1.381 . S
C1614 C1615 1.394 . S
C1614 H1622 0.930 . S
C1615 C1614 1.394 . S
C1615 C1616 1.383 . S
C1615 H1623 0.929 . S
C1616 C1615 1.383 . S
C1616 C1617 1.377 . S
C1617 H1601 0.930 . S
C1617 C1616 1.377 . S
C1617 C1618 1.379 . S
C1618 H1602 0.931 . S
C1618 C1612 1.383 . S
C1618 C1617 1.379 . S
H1619 C1613 0.959 . S
H1620 C1613 0.961 . S
H1621 C1613 0.960 . S
H1622 C1614 0.930 . S
H1623 C1615 0.929 . S
H1624 C1632 0.929 . S
H1625 C1634 0.930 . S
H1626 C1636 0.930 . S
H1627 C1639 0.929 . S
H1628 C1642 0.930 . S
H1629 C1644 0.960 . S
H1630 C1644 0.960 . S
H1631 C1644 0.960 . S
C1632 H1624 0.929 . S
C1632 C1633 1.377 . S
C1632 C1634 1.384 . S
C1633 C1632 1.377 . S
C1633 C1639 1.390 . S
C1634 H1625 0.930 . S
C1634 C1632 1.384 . S
C1634 C1635 1.372 . S
C1635 C1634 1.372 . S
C1635 C1636 1.400 . S
C1635 C1640 1.490 . S
C1636 H1626 0.930 . S
C1636 C1635 1.400 . S
C1636 C1639 1.386 . S
H1637 C1653 0.930 . S
H1638 C1654 0.931 . S
C1639 H1627 0.929 . S
C1639 C1633 1.390 . S
C1639 C1636 1.386 . S
C1640 C1635 1.490 . S
C1640 C1642 1.395 . S
C1640 C1643 1.403 . S
H1641 C1647 0.930 . S
C1642 H1628 0.930 . S
C1642 C1640 1.395 . S
C1642 C1645 1.403 . S
C1643 C1640 1.403 . S
C1643 C1644 1.524 . S
C1643 C1647 1.400 . S
C1644 H1629 0.960 . S
C1644 H1630 0.960 . S
C1644 H1631 0.960 . S
C1644 C1643 1.524 . S
C1645 C1642 1.403 . S
C1645 C1646 1.392 . S
C1645 C1649 1.495 . S
C1646 C1645 1.392 . S
C1646 C1647 1.385 . S
C1646 C1648 1.478 . S
C1647 H1641 0.930 . S
C1647 C1643 1.400 . S
C1647 C1646 1.385 . S
C1648 C1646 1.478 . S
C1648 C1650 1.381 . S
C1648 C1654 1.383 . S
C1649 C1645 1.495 . S
C1649 H1655 0.959 . S
C1649 H1656 0.961 . S
C1649 H1657 0.960 . S
C1650 C1648 1.381 . S
C1650 C1651 1.394 . S
C1650 H1658 0.930 . S
C1651 C1650 1.394 . S
C1651 C1652 1.383 . S
C1651 H1659 0.929 . S
C1652 C1651 1.383 . S
C1652 C1653 1.377 . S
C1653 H1637 0.930 . S
C1653 C1652 1.377 . S
C1653 C1654 1.379 . S
C1654 H1638 0.931 . S
C1654 C1648 1.383 . S
C1654 C1653 1.379 . S
H1655 C1649 0.959 . S
H1656 C1649 0.961 . S
H1657 C1649 0.960 . S
H1658 C1650 0.930 . S
H1659 C1651 0.929 . S
H1660 C1668 0.929 . S
H1661 C1670 0.930 . S
H1662 C1672 0.930 . S
H1663 C1675 0.929 . S
H1664 C1678 0.930 . S
H1665 C1680 0.960 . S
H1666 C1680 0.960 . S
H1667 C1680 0.960 . S
C1668 H1660 0.929 . S
C1668 C1669 1.377 . S
C1668 C1670 1.384 . S
C1669 C1668 1.377 . S
C1669 C1675 1.390 . S
C1670 H1661 0.930 . S
C1670 C1668 1.384 . S
C1670 C1671 1.372 . S
C1671 C1670 1.372 . S
C1671 C1672 1.400 . S
C1671 C1676 1.490 . S
C1672 H1662 0.930 . S
C1672 C1671 1.400 . S
C1672 C1675 1.386 . S
H1673 C1689 0.930 . S
H1674 C1690 0.931 . S
C1675 H1663 0.929 . S
C1675 C1669 1.390 . S
C1675 C1672 1.386 . S
C1676 C1671 1.490 . S
C1676 C1678 1.395 . S
C1676 C1679 1.403 . S
H1677 C1683 0.930 . S
C1678 H1664 0.930 . S
C1678 C1676 1.395 . S
C1678 C1681 1.403 . S
C1679 C1676 1.403 . S
C1679 C1680 1.524 . S
C1679 C1683 1.400 . S
C1680 H1665 0.960 . S
C1680 H1666 0.960 . S
C1680 H1667 0.960 . S
C1680 C1679 1.524 . S
C1681 C1678 1.403 . S
C1681 C1682 1.392 . S
C1681 C1685 1.495 . S
C1682 C1681 1.392 . S
C1682 C1683 1.385 . S
C1682 C1684 1.478 . S
C1683 H1677 0.930 . S
C1683 C1679 1.400 . S
C1683 C1682 1.385 . S
C1684 C1682 1.478 . S
C1684 C1686 1.381 . S
C1684 C1690 1.383 . S
C1685 C1681 1.495 . S
C1685 H1691 0.959 . S
C1685 H1692 0.961 . S
C1685 H1693 0.960 . S
C1686 C1684 1.381 . S
C1686 C1687 1.394 . S
C1686 H1694 0.930 . S
C1687 C1686 1.394 . S
C1687 C1688 1.383 . S
C1687 H1695 0.929 . S
C1688 C1687 1.383 . S
C1688 C1689 1.377 . S
C1689 H1673 0.930 . S
C1689 C1688 1.377 . S
C1689 C1690 1.379 . S
C1690 H1674 0.931 . S
C1690 C1684 1.383 . S
C1690 C1689 1.379 . S
H1691 C1685 0.959 . S
H1692 C1685 0.961 . S
H1693 C1685 0.960 . S
H1694 C1686 0.930 . S
H1695 C1687 0.929 . S
H1696 C1704 0.929 . S
H1697 C1706 0.930 . S
H1698 C1708 0.930 . S
H1699 C1711 0.929 . S
H1700 C1714 0.930 . S
H1701 C1716 0.960 . S
H1702 C1716 0.960 . S
H1703 C1716 0.960 . S
C1704 H1696 0.929 . S
C1704 C1705 1.377 . S
C1704 C1706 1.384 . S
C1705 C1704 1.377 . S
C1705 C1711 1.390 . S
C1706 H1697 0.930 . S
C1706 C1704 1.384 . S
C1706 C1707 1.372 . S
C1707 C1706 1.372 . S
C1707 C1708 1.400 . S
C1707 C1712 1.490 . S
C1708 H1698 0.930 . S
C1708 C1707 1.400 . S
C1708 C1711 1.386 . S
H1709 C1725 0.930 . S
H1710 C1726 0.931 . S
C1711 H1699 0.929 . S
C1711 C1705 1.390 . S
C1711 C1708 1.386 . S
C1712 C1707 1.490 . S
C1712 C1714 1.395 . S
C1712 C1715 1.403 . S
H1713 C1719 0.930 . S
C1714 H1700 0.930 . S
C1714 C1712 1.395 . S
C1714 C1717 1.403 . S
C1715 C1712 1.403 . S
C1715 C1716 1.524 . S
C1715 C1719 1.400 . S
C1716 H1701 0.960 . S
C1716 H1702 0.960 . S
C1716 H1703 0.960 . S
C1716 C1715 1.524 . S
C1717 C1714 1.403 . S
C1717 C1718 1.392 . S
C1717 C1721 1.495 . S
C1718 C1717 1.392 . S
C1718 C1719 1.385 . S
C1718 C1720 1.478 . S
C1719 H1713 0.930 . S
C1719 C1715 1.400 . S
C1719 C1718 1.385 . S
C1720 C1718 1.478 . S
C1720 C1722 1.381 . S
C1720 C1726 1.383 . S
C1721 C1717 1.495 . S
C1721 H1727 0.959 . S
C1721 H1728 0.961 . S
C1721 H1729 0.960 . S
C1722 C1720 1.381 . S
C1722 C1723 1.394 . S
C1722 H1730 0.930 . S
C1723 C1722 1.394 . S
C1723 C1724 1.383 . S
C1723 H1731 0.929 . S
C1724 C1723 1.383 . S
C1724 C1725 1.377 . S
C1725 H1709 0.930 . S
C1725 C1724 1.377 . S
C1725 C1726 1.379 . S
C1726 H1710 0.931 . S
C1726 C1720 1.383 . S
C1726 C1725 1.379 . S
H1727 C1721 0.959 . S
H1728 C1721 0.961 . S
H1729 C1721 0.960 . S
H1730 C1722 0.930 . S
H1731 C1723 0.929 . S
H1732 C1740 0.929 . S
H1733 C1742 0.930 . S
H1734 C1744 0.930 . S
H1735 C1747 0.929 . S
H1736 C1750 0.930 . S
H1737 C1752 0.960 . S
H1738 C1752 0.960 . S
H1739 C1752 0.960 . S
C1740 H1732 0.929 . S
C1740 C1741 1.377 . S
C1740 C1742 1.384 . S
C1741 C1740 1.377 . S
C1741 C1747 1.390 . S
C1742 H1733 0.930 . S
C1742 C1740 1.384 . S
C1742 C1743 1.372 . S
C1743 C1742 1.372 . S
C1743 C1744 1.400 . S
C1743 C1748 1.490 . S
C1744 H1734 0.930 . S
C1744 C1743 1.400 . S
C1744 C1747 1.386 . S
H1745 C1761 0.930 . S
H1746 C1762 0.931 . S
C1747 H1735 0.929 . S
C1747 C1741 1.390 . S
C1747 C1744 1.386 . S
C1748 C1743 1.490 . S
C1748 C1750 1.395 . S
C1748 C1751 1.403 . S
H1749 C1755 0.930 . S
C1750 H1736 0.930 . S
C1750 C1748 1.395 . S
C1750 C1753 1.403 . S
C1751 C1748 1.403 . S
C1751 C1752 1.524 . S
C1751 C1755 1.400 . S
C1752 H1737 0.960 . S
C1752 H1738 0.960 . S
C1752 H1739 0.960 . S
C1752 C1751 1.524 . S
C1753 C1750 1.403 . S
C1753 C1754 1.392 . S
C1753 C1757 1.495 . S
C1754 C1753 1.392 . S
C1754 C1755 1.385 . S
C1754 C1756 1.478 . S
C1755 H1749 0.930 . S
C1755 C1751 1.400 . S
C1755 C1754 1.385 . S
C1756 C1754 1.478 . S
C1756 C1758 1.381 . S
C1756 C1762 1.383 . S
C1757 C1753 1.495 . S
C1757 H1763 0.959 . S
C1757 H1764 0.961 . S
C1757 H1765 0.960 . S
C1758 C1756 1.381 . S
C1758 C1759 1.394 . S
C1758 H1766 0.930 . S
C1759 C1758 1.394 . S
C1759 C1760 1.383 . S
C1759 H1767 0.929 . S
C1760 C1759 1.383 . S
C1760 C1761 1.377 . S
C1761 H1745 0.930 . S
C1761 C1760 1.377 . S
C1761 C1762 1.379 . S
C1762 H1746 0.931 . S
C1762 C1756 1.383 . S
C1762 C1761 1.379 . S
H1763 C1757 0.959 . S
H1764 C1757 0.961 . S
H1765 C1757 0.960 . S
H1766 C1758 0.930 . S
H1767 C1759 0.929 . S
H1768 C1776 0.929 . S
H1769 C1778 0.930 . S
H1770 C1780 0.930 . S
H1771 C1783 0.929 . S
H1772 C1786 0.930 . S
H1773 C1788 0.960 . S
H1774 C1788 0.960 . S
H1775 C1788 0.960 . S
C1776 H1768 0.929 . S
C1776 C1777 1.377 . S
C1776 C1778 1.384 . S
C1777 C1776 1.377 . S
C1777 C1783 1.390 . S
C1778 H1769 0.930 . S
C1778 C1776 1.384 . S
C1778 C1779 1.372 . S
C1779 C1778 1.372 . S
C1779 C1780 1.400 . S
C1779 C1784 1.490 . S
C1780 H1770 0.930 . S
C1780 C1779 1.400 . S
C1780 C1783 1.386 . S
H1781 C1797 0.930 . S
H1782 C1798 0.931 . S
C1783 H1771 0.929 . S
C1783 C1777 1.390 . S
C1783 C1780 1.386 . S
C1784 C1779 1.490 . S
C1784 C1786 1.395 . S
C1784 C1787 1.403 . S
H1785 C1791 0.930 . S
C1786 H1772 0.930 . S
C1786 C1784 1.395 . S
C1786 C1789 1.403 . S
C1787 C1784 1.403 . S
C1787 C1788 1.524 . S
C1787 C1791 1.400 . S
C1788 H1773 0.960 . S
C1788 H1774 0.960 . S
C1788 H1775 0.960 . S
C1788 C1787 1.524 . S
C1789 C1786 1.403 . S
C1789 C1790 1.392 . S
C1789 C1793 1.495 . S
C1790 C1789 1.392 . S
C1790 C1791 1.385 . S
C1790 C1792 1.478 . S
C1791 H1785 0.930 . S
C1791 C1787 1.400 . S
C1791 C1790 1.385 . S
C1792 C1790 1.478 . S
C1792 C1794 1.381 . S
C1792 C1798 1.383 . S
C1793 C1789 1.495 . S
C1793 H1799 0.959 . S
C1793 H1800 0.961 . S
C1793 H1801 0.960 . S
C1794 C1792 1.381 . S
C1794 C1795 1.394 . S
C1794 H1802 0.930 . S
C1795 C1794 1.394 . S
C1795 C1796 1.383 . S
C1795 H1803 0.929 . S
C1796 C1795 1.383 . S
C1796 C1797 1.377 . S
C1797 H1781 0.930 . S
C1797 C1796 1.377 . S
C1797 C1798 1.379 . S
C1798 H1782 0.931 . S
C1798 C1792 1.383 . S
C1798 C1797 1.379 . S
H1799 C1793 0.959 . S
H1800 C1793 0.961 . S
H1801 C1793 0.960 . S
H1802 C1794 0.930 . S
H1803 C1795 0.929 . S
H1804 C1812 0.929 . S
H1805 C1814 0.930 . S
H1806 C1816 0.930 . S
H1807 C1819 0.929 . S
H1808 C1822 0.930 . S
H1809 C1824 0.960 . S
H1810 C1824 0.960 . S
H1811 C1824 0.960 . S
C1812 H1804 0.929 . S
C1812 C1813 1.377 . S
C1812 C1814 1.384 . S
C1813 C1812 1.377 . S
C1813 C1819 1.390 . S
C1814 H1805 0.930 . S
C1814 C1812 1.384 . S
C1814 C1815 1.372 . S
C1815 C1814 1.372 . S
C1815 C1816 1.400 . S
C1815 C1820 1.490 . S
C1816 H1806 0.930 . S
C1816 C1815 1.400 . S
C1816 C1819 1.386 . S
H1817 C1833 0.930 . S
H1818 C1834 0.931 . S
C1819 H1807 0.929 . S
C1819 C1813 1.390 . S
C1819 C1816 1.386 . S
C1820 C1815 1.490 . S
C1820 C1822 1.395 . S
C1820 C1823 1.403 . S
H1821 C1827 0.930 . S
C1822 H1808 0.930 . S
C1822 C1820 1.395 . S
C1822 C1825 1.403 . S
C1823 C1820 1.403 . S
C1823 C1824 1.524 . S
C1823 C1827 1.400 . S
C1824 H1809 0.960 . S
C1824 H1810 0.960 . S
C1824 H1811 0.960 . S
C1824 C1823 1.524 . S
C1825 C1822 1.403 . S
C1825 C1826 1.392 . S
C1825 C1829 1.495 . S
C1826 C1825 1.392 . S
C1826 C1827 1.385 . S
C1826 C1828 1.478 . S
C1827 H1821 0.930 . S
C1827 C1823 1.400 . S
C1827 C1826 1.385 . S
C1828 C1826 1.478 . S
C1828 C1830 1.381 . S
C1828 C1834 1.383 . S
C1829 C1825 1.495 . S
C1829 H1835 0.959 . S
C1829 H1836 0.961 . S
C1829 H1837 0.960 . S
C1830 C1828 1.381 . S
C1830 C1831 1.394 . S
C1830 H1838 0.930 . S
C1831 C1830 1.394 . S
C1831 C1832 1.383 . S
C1831 H1839 0.929 . S
C1832 C1831 1.383 . S
C1832 C1833 1.377 . S
C1833 H1817 0.930 . S
C1833 C1832 1.377 . S
C1833 C1834 1.379 . S
C1834 H1818 0.931 . S
C1834 C1828 1.383 . S
C1834 C1833 1.379 . S
H1835 C1829 0.959 . S
H1836 C1829 0.961 . S
H1837 C1829 0.960 . S
H1838 C1830 0.930 . S
H1839 C1831 0.929 . S
H1840 C1848 0.929 . S
H1841 C1850 0.930 . S
H1842 C1852 0.930 . S
H1843 C1855 0.929 . S
H1844 C1858 0.930 . S
H1845 C1860 0.960 . S
H1846 C1860 0.960 . S
H1847 C1860 0.960 . S
C1848 H1840 0.929 . S
C1848 C1849 1.377 . S
C1848 C1850 1.384 . S
C1849 C1848 1.377 . S
C1849 C1855 1.390 . S
C1850 H1841 0.930 . S
C1850 C1848 1.384 . S
C1850 C1851 1.372 . S
C1851 C1850 1.372 . S
C1851 C1852 1.400 . S
C1851 C1856 1.490 . S
C1852 H1842 0.930 . S
C1852 C1851 1.400 . S
C1852 C1855 1.386 . S
H1853 C1869 0.930 . S
H1854 C1870 0.931 . S
C1855 H1843 0.929 . S
C1855 C1849 1.390 . S
C1855 C1852 1.386 . S
C1856 C1851 1.490 . S
C1856 C1858 1.395 . S
C1856 C1859 1.403 . S
H1857 C1863 0.930 . S
C1858 H1844 0.930 . S
C1858 C1856 1.395 . S
C1858 C1861 1.403 . S
C1859 C1856 1.403 . S
C1859 C1860 1.524 . S
C1859 C1863 1.400 . S
C1860 H1845 0.960 . S
C1860 H1846 0.960 . S
C1860 H1847 0.960 . S
C1860 C1859 1.524 . S
C1861 C1858 1.403 . S
C1861 C1862 1.392 . S
C1861 C1865 1.495 . S
C1862 C1861 1.392 . S
C1862 C1863 1.385 . S
C1862 C1864 1.478 . S
C1863 H1857 0.930 . S
C1863 C1859 1.400 . S
C1863 C1862 1.385 . S
C1864 C1862 1.478 . S
C1864 C1866 1.381 . S
C1864 C1870 1.383 . S
C1865 C1861 1.495 . S
C1865 H1871 0.959 . S
C1865 H1872 0.961 . S
C1865 H1873 0.960 . S
C1866 C1864 1.381 . S
C1866 C1867 1.394 . S
C1866 H1874 0.930 . S
C1867 C1866 1.394 . S
C1867 C1868 1.383 . S
C1867 H1875 0.929 . S
C1868 C1867 1.383 . S
C1868 C1869 1.377 . S
C1869 H1853 0.930 . S
C1869 C1868 1.377 . S
C1869 C1870 1.379 . S
C1870 H1854 0.931 . S
C1870 C1864 1.383 . S
C1870 C1869 1.379 . S
H1871 C1865 0.959 . S
H1872 C1865 0.961 . S
H1873 C1865 0.960 . S
H1874 C1866 0.930 . S
H1875 C1867 0.929 . S
H1876 C1884 0.929 . S
H1877 C1886 0.930 . S
H1878 C1888 0.930 . S
H1879 C1891 0.929 . S
H1880 C1894 0.930 . S
H1881 C1896 0.960 . S
H1882 C1896 0.960 . S
H1883 C1896 0.960 . S
C1884 H1876 0.929 . S
C1884 C1885 1.377 . S
C1884 C1886 1.384 . S
C1885 C1884 1.377 . S
C1885 C1891 1.390 . S
C1886 H1877 0.930 . S
C1886 C1884 1.384 . S
C1886 C1887 1.372 . S
C1887 C1886 1.372 . S
C1887 C1888 1.400 . S
C1887 C1892 1.490 . S
C1888 H1878 0.930 . S
C1888 C1887 1.400 . S
C1888 C1891 1.386 . S
H1889 C1905 0.930 . S
H1890 C1906 0.931 . S
C1891 H1879 0.929 . S
C1891 C1885 1.390 . S
C1891 C1888 1.386 . S
C1892 C1887 1.490 . S
C1892 C1894 1.395 . S
C1892 C1895 1.403 . S
H1893 C1899 0.930 . S
C1894 H1880 0.930 . S
C1894 C1892 1.395 . S
C1894 C1897 1.403 . S
C1895 C1892 1.403 . S
C1895 C1896 1.524 . S
C1895 C1899 1.400 . S
C1896 H1881 0.960 . S
C1896 H1882 0.960 . S
C1896 H1883 0.960 . S
C1896 C1895 1.524 . S
C1897 C1894 1.403 . S
C1897 C1898 1.392 . S
C1897 C1901 1.495 . S
C1898 C1897 1.392 . S
C1898 C1899 1.385 . S
C1898 C1900 1.478 . S
C1899 H1893 0.930 . S
C1899 C1895 1.400 . S
C1899 C1898 1.385 . S
C1900 C1898 1.478 . S
C1900 C1902 1.381 . S
C1900 C1906 1.383 . S
C1901 C1897 1.495 . S
C1901 H1907 0.959 . S
C1901 H1908 0.961 . S
C1901 H1909 0.960 . S
C1902 C1900 1.381 . S
C1902 C1903 1.394 . S
C1902 H1910 0.930 . S
C1903 C1902 1.394 . S
C1903 C1904 1.383 . S
C1903 H1911 0.929 . S
C1904 C1903 1.383 . S
C1904 C1905 1.377 . S
C1905 H1889 0.930 . S
C1905 C1904 1.377 . S
C1905 C1906 1.379 . S
C1906 H1890 0.931 . S
C1906 C1900 1.383 . S
C1906 C1905 1.379 . S
H1907 C1901 0.959 . S
H1908 C1901 0.961 . S
H1909 C1901 0.960 . S
H1910 C1902 0.930 . S
H1911 C1903 0.929 . S
H1912 C1920 0.929 . S
H1913 C1922 0.930 . S
H1914 C1924 0.930 . S
H1915 C1927 0.929 . S
H1916 C1930 0.930 . S
H1917 C1932 0.960 . S
H1918 C1932 0.960 . S
H1919 C1932 0.960 . S
C1920 H1912 0.929 . S
C1920 C1921 1.377 . S
C1920 C1922 1.384 . S
C1921 C1920 1.377 . S
C1921 C1927 1.390 . S
C1922 H1913 0.930 . S
C1922 C1920 1.384 . S
C1922 C1923 1.372 . S
C1923 C1922 1.372 . S
C1923 C1924 1.400 . S
C1923 C1928 1.490 . S
C1924 H1914 0.930 . S
C1924 C1923 1.400 . S
C1924 C1927 1.386 . S
H1925 C1941 0.930 . S
H1926 C1942 0.931 . S
C1927 H1915 0.929 . S
C1927 C1921 1.390 . S
C1927 C1924 1.386 . S
C1928 C1923 1.490 . S
C1928 C1930 1.395 . S
C1928 C1931 1.403 . S
H1929 C1935 0.930 . S
C1930 H1916 0.930 . S
C1930 C1928 1.395 . S
C1930 C1933 1.403 . S
C1931 C1928 1.403 . S
C1931 C1932 1.524 . S
C1931 C1935 1.400 . S
C1932 H1917 0.960 . S
C1932 H1918 0.960 . S
C1932 H1919 0.960 . S
C1932 C1931 1.524 . S
C1933 C1930 1.403 . S
C1933 C1934 1.392 . S
C1933 C1937 1.495 . S
C1934 C1933 1.392 . S
C1934 C1935 1.385 . S
C1934 C1936 1.478 . S
C1935 H1929 0.930 . S
C1935 C1931 1.400 . S
C1935 C1934 1.385 . S
C1936 C1934 1.478 . S
C1936 C1938 1.381 . S
C1936 C1942 1.383 . S
C1937 C1933 1.495 . S
C1937 H1943 0.959 . S
C1937 H1944 0.961 . S
C1937 H1945 0.960 . S
C1938 C1936 1.381 . S
C1938 C1939 1.394 . S
C1938 H1946 0.930 . S
C1939 C1938 1.394 . S
C1939 C1940 1.383 . S
C1939 H1947 0.929 . S
C1940 C1939 1.383 . S
C1940 C1941 1.377 . S
C1941 H1925 0.930 . S
C1941 C1940 1.377 . S
C1941 C1942 1.379 . S
C1942 H1926 0.931 . S
C1942 C1936 1.383 . S
C1942 C1941 1.379 . S
H1943 C1937 0.959 . S
H1944 C1937 0.961 . S
H1945 C1937 0.960 . S
H1946 C1938 0.930 . S
H1947 C1939 0.929 . S
H1948 C1956 0.929 . S
H1949 C1958 0.930 . S
H1950 C1960 0.930 . S
H1951 C1963 0.929 . S
H1952 C1966 0.930 . S
H1953 C1968 0.960 . S
H1954 C1968 0.960 . S
H1955 C1968 0.960 . S
C1956 H1948 0.929 . S
C1956 C1957 1.377 . S
C1956 C1958 1.384 . S
C1957 C1956 1.377 . S
C1957 C1963 1.390 . S
C1958 H1949 0.930 . S
C1958 C1956 1.384 . S
C1958 C1959 1.372 . S
C1959 C1958 1.372 . S
C1959 C1960 1.400 . S
C1959 C1964 1.490 . S
C1960 H1950 0.930 . S
C1960 C1959 1.400 . S
C1960 C1963 1.386 . S
H1961 C1977 0.930 . S
H1962 C1978 0.931 . S
C1963 H1951 0.929 . S
C1963 C1957 1.390 . S
C1963 C1960 1.386 . S
C1964 C1959 1.490 . S
C1964 C1966 1.395 . S
C1964 C1967 1.403 . S
H1965 C1971 0.930 . S
C1966 H1952 0.930 . S
C1966 C1964 1.395 . S
C1966 C1969 1.403 . S
C1967 C1964 1.403 . S
C1967 C1968 1.524 . S
C1967 C1971 1.400 . S
C1968 H1953 0.960 . S
C1968 H1954 0.960 . S
C1968 H1955 0.960 . S
C1968 C1967 1.524 . S
C1969 C1966 1.403 . S
C1969 C1970 1.392 . S
C1969 C1973 1.495 . S
C1970 C1969 1.392 . S
C1970 C1971 1.385 . S
C1970 C1972 1.478 . S
C1971 H1965 0.930 . S
C1971 C1967 1.400 . S
C1971 C1970 1.385 . S
C1972 C1970 1.478 . S
C1972 C1974 1.381 . S
C1972 C1978 1.383 . S
C1973 C1969 1.495 . S
C1973 H1979 0.959 . S
C1973 H1980 0.961 . S
C1973 H1981 0.960 . S
C1974 C1972 1.381 . S
C1974 C1975 1.394 . S
C1974 H1982 0.930 . S
C1975 C1974 1.394 . S
C1975 C1976 1.383 . S
C1975 H1983 0.929 . S
C1976 C1975 1.383 . S
C1976 C1977 1.377 . S
C1977 H1961 0.930 . S
C1977 C1976 1.377 . S
C1977 C1978 1.379 . S
C1978 H1962 0.931 . S
C1978 C1972 1.383 . S
C1978 C1977 1.379 . S
H1979 C1973 0.959 . S
H1980 C1973 0.961 . S
H1981 C1973 0.960 . S
H1982 C1974 0.930 . S
H1983 C1975 0.929 . S
H1984 C1992 0.929 . S
H1985 C1994 0.930 . S
H1986 C1996 0.930 . S
H1987 C1999 0.929 . S
H1988 C2002 0.930 . S
H1989 C2004 0.960 . S
H1990 C2004 0.960 . S
H1991 C2004 0.960 . S
C1992 H1984 0.929 . S
C1992 C1993 1.377 . S
C1992 C1994 1.384 . S
C1993 C1992 1.377 . S
C1993 C1999 1.390 . S
C1994 H1985 0.930 . S
C1994 C1992 1.384 . S
C1994 C1995 1.372 . S
C1995 C1994 1.372 . S
C1995 C1996 1.400 . S
C1995 C2000 1.490 . S
C1996 H1986 0.930 . S
C1996 C1995 1.400 . S
C1996 C1999 1.386 . S
H1997 C2013 0.930 . S
H1998 C2014 0.931 . S
C1999 H1987 0.929 . S
C1999 C1993 1.390 . S
C1999 C1996 1.386 . S
C2000 C1995 1.490 . S
C2000 C2002 1.395 . S
C2000 C2003 1.403 . S
H2001 C2007 0.930 . S
C2002 H1988 0.930 . S
C2002 C2000 1.395 . S
C2002 C2005 1.403 . S
C2003 C2000 1.403 . S
C2003 C2004 1.524 . S
C2003 C2007 1.400 . S
C2004 H1989 0.960 . S
C2004 H1990 0.960 . S
C2004 H1991 0.960 . S
C2004 C2003 1.524 . S
C2005 C2002 1.403 . S
C2005 C2006 1.392 . S
C2005 C2009 1.495 . S
C2006 C2005 1.392 . S
C2006 C2007 1.385 . S
C2006 C2008 1.478 . S
C2007 H2001 0.930 . S
C2007 C2003 1.400 . S
C2007 C2006 1.385 . S
C2008 C2006 1.478 . S
C2008 C2010 1.381 . S
C2008 C2014 1.383 . S
C2009 C2005 1.495 . S
C2009 H2015 0.959 . S
C2009 H2016 0.961 . S
C2009 H2017 0.960 . S
C2010 C2008 1.381 . S
C2010 C2011 1.394 . S
C2010 H2018 0.930 . S
C2011 C2010 1.394 . S
C2011 C2012 1.383 . S
C2011 H2019 0.929 . S
C2012 C2011 1.383 . S
C2012 C2013 1.377 . S
C2013 H1997 0.930 . S
C2013 C2012 1.377 . S
C2013 C2014 1.379 . S
C2014 H1998 0.931 . S
C2014 C2008 1.383 . S
C2014 C2013 1.379 . S
H2015 C2009 0.959 . S
H2016 C2009 0.961 . S
H2017 C2009 0.960 . S
H2018 C2010 0.930 . S
H2019 C2011 0.929 . S
H2020 C2028 0.929 . S
H2021 C2030 0.930 . S
H2022 C2032 0.930 . S
H2023 C2035 0.929 . S
H2024 C2038 0.930 . S
H2025 C2040 0.960 . S
H2026 C2040 0.960 . S
H2027 C2040 0.960 . S
C2028 H2020 0.929 . S
C2028 C2029 1.377 . S
C2028 C2030 1.384 . S
C2029 C2028 1.377 . S
C2029 C2035 1.390 . S
C2030 H2021 0.930 . S
C2030 C2028 1.384 . S
C2030 C2031 1.372 . S
C2031 C2030 1.372 . S
C2031 C2032 1.400 . S
C2031 C2036 1.490 . S
C2032 H2022 0.930 . S
C2032 C2031 1.400 . S
C2032 C2035 1.386 . S
H2033 C2049 0.930 . S
H2034 C2050 0.931 . S
C2035 H2023 0.929 . S
C2035 C2029 1.390 . S
C2035 C2032 1.386 . S
C2036 C2031 1.490 . S
C2036 C2038 1.395 . S
C2036 C2039 1.403 . S
H2037 C2043 0.930 . S
C2038 H2024 0.930 . S
C2038 C2036 1.395 . S
C2038 C2041 1.403 . S
C2039 C2036 1.403 . S
C2039 C2040 1.524 . S
C2039 C2043 1.400 . S
C2040 H2025 0.960 . S
C2040 H2026 0.960 . S
C2040 H2027 0.960 . S
C2040 C2039 1.524 . S
C2041 C2038 1.403 . S
C2041 C2042 1.392 . S
C2041 C2045 1.495 . S
C2042 C2041 1.392 . S
C2042 C2043 1.385 . S
C2042 C2044 1.478 . S
C2043 H2037 0.930 . S
C2043 C2039 1.400 . S
C2043 C2042 1.385 . S
C2044 C2042 1.478 . S
C2044 C2046 1.381 . S
C2044 C2050 1.383 . S
C2045 C2041 1.495 . S
C2045 H2051 0.959 . S
C2045 H2052 0.961 . S
C2045 H2053 0.960 . S
C2046 C2044 1.381 . S
C2046 C2047 1.394 . S
C2046 H2054 0.930 . S
C2047 C2046 1.394 . S
C2047 C2048 1.383 . S
C2047 H2055 0.929 . S
C2048 C2047 1.383 . S
C2048 C2049 1.377 . S
C2049 H2033 0.930 . S
C2049 C2048 1.377 . S
C2049 C2050 1.379 . S
C2050 H2034 0.931 . S
C2050 C2044 1.383 . S
C2050 C2049 1.379 . S
H2051 C2045 0.959 . S
H2052 C2045 0.961 . S
H2053 C2045 0.960 . S
H2054 C2046 0.930 . S
H2055 C2047 0.929 . S
H2056 C2064 0.929 . S
H2057 C2066 0.930 . S
H2058 C2068 0.930 . S
H2059 C2071 0.929 . S
H2060 C2074 0.930 . S
H2061 C2076 0.960 . S
H2062 C2076 0.960 . S
H2063 C2076 0.960 . S
C2064 H2056 0.929 . S
C2064 C2065 1.377 . S
C2064 C2066 1.384 . S
C2065 C2064 1.377 . S
C2065 C2071 1.390 . S
C2066 H2057 0.930 . S
C2066 C2064 1.384 . S
C2066 C2067 1.372 . S
C2067 C2066 1.372 . S
C2067 C2068 1.400 . S
C2067 C2072 1.490 . S
C2068 H2058 0.930 . S
C2068 C2067 1.400 . S
C2068 C2071 1.386 . S
H2069 C2085 0.930 . S
H2070 C2086 0.931 . S
C2071 H2059 0.929 . S
C2071 C2065 1.390 . S
C2071 C2068 1.386 . S
C2072 C2067 1.490 . S
C2072 C2074 1.395 . S
C2072 C2075 1.403 . S
H2073 C2079 0.930 . S
C2074 H2060 0.930 . S
C2074 C2072 1.395 . S
C2074 C2077 1.403 . S
C2075 C2072 1.403 . S
C2075 C2076 1.524 . S
C2075 C2079 1.400 . S
C2076 H2061 0.960 . S
C2076 H2062 0.960 . S
C2076 H2063 0.960 . S
C2076 C2075 1.524 . S
C2077 C2074 1.403 . S
C2077 C2078 1.392 . S
C2077 C2081 1.495 . S
C2078 C2077 1.392 . S
C2078 C2079 1.385 . S
C2078 C2080 1.478 . S
C2079 H2073 0.930 . S
C2079 C2075 1.400 . S
C2079 C2078 1.385 . S
C2080 C2078 1.478 . S
C2080 C2082 1.381 . S
C2080 C2086 1.383 . S
C2081 C2077 1.495 . S
C2081 H2087 0.959 . S
C2081 H2088 0.961 . S
C2081 H2089 0.960 . S
C2082 C2080 1.381 . S
C2082 C2083 1.394 . S
C2082 H2090 0.930 . S
C2083 C2082 1.394 . S
C2083 C2084 1.383 . S
C2083 H2091 0.929 . S
C2084 C2083 1.383 . S
C2084 C2085 1.377 . S
C2085 H2069 0.930 . S
C2085 C2084 1.377 . S
C2085 C2086 1.379 . S
C2086 H2070 0.931 . S
C2086 C2080 1.383 . S
C2086 C2085 1.379 . S
H2087 C2081 0.959 . S
H2088 C2081 0.961 . S
H2089 C2081 0.960 . S
H2090 C2082 0.930 . S
H2091 C2083 0.929 . S
H2092 C2100 0.929 . S
H2093 C2102 0.930 . S
H2094 C2104 0.930 . S
H2095 C2107 0.929 . S
H2096 C2110 0.930 . S
H2097 C2112 0.960 . S
H2098 C2112 0.960 . S
H2099 C2112 0.960 . S
C2100 H2092 0.929 . S
C2100 C2101 1.377 . S
C2100 C2102 1.384 . S
C2101 C2100 1.377 . S
C2101 C2107 1.390 . S
C2102 H2093 0.930 . S
C2102 C2100 1.384 . S
C2102 C2103 1.372 . S
C2103 C2102 1.372 . S
C2103 C2104 1.400 . S
C2103 C2108 1.490 . S
C2104 H2094 0.930 . S
C2104 C2103 1.400 . S
C2104 C2107 1.386 . S
H2105 C2121 0.930 . S
H2106 C2122 0.931 . S
C2107 H2095 0.929 . S
C2107 C2101 1.390 . S
C2107 C2104 1.386 . S
C2108 C2103 1.490 . S
C2108 C2110 1.395 . S
C2108 C2111 1.403 . S
H2109 C2115 0.930 . S
C2110 H2096 0.930 . S
C2110 C2108 1.395 . S
C2110 C2113 1.403 . S
C2111 C2108 1.403 . S
C2111 C2112 1.524 . S
C2111 C2115 1.400 . S
C2112 H2097 0.960 . S
C2112 H2098 0.960 . S
C2112 H2099 0.960 . S
C2112 C2111 1.524 . S
C2113 C2110 1.403 . S
C2113 C2114 1.392 . S
C2113 C2117 1.495 . S
C2114 C2113 1.392 . S
C2114 C2115 1.385 . S
C2114 C2116 1.478 . S
C2115 H2109 0.930 . S
C2115 C2111 1.400 . S
C2115 C2114 1.385 . S
C2116 C2114 1.478 . S
C2116 C2118 1.381 . S
C2116 C2122 1.383 . S
C2117 C2113 1.495 . S
C2117 H2123 0.959 . S
C2117 H2124 0.961 . S
C2117 H2125 0.960 . S
C2118 C2116 1.381 . S
C2118 C2119 1.394 . S
C2118 H2126 0.930 . S
C2119 C2118 1.394 . S
C2119 C2120 1.383 . S
C2119 H2127 0.929 . S
C2120 C2119 1.383 . S
C2120 C2121 1.377 . S
C2121 H2105 0.930 . S
C2121 C2120 1.377 . S
C2121 C2122 1.379 . S
C2122 H2106 0.931 . S
C2122 C2116 1.383 . S
C2122 C2121 1.379 . S
H2123 C2117 0.959 . S
H2124 C2117 0.961 . S
H2125 C2117 0.960 . S
H2126 C2118 0.930 . S
H2127 C2119 0.929 . S
H2128 C2136 0.929 . S
H2129 C2138 0.930 . S
H2130 C2140 0.930 . S
H2131 C2143 0.929 . S
H2132 C2146 0.930 . S
H2133 C2148 0.960 . S
H2134 C2148 0.960 . S
H2135 C2148 0.960 . S
C2136 H2128 0.929 . S
C2136 C2137 1.377 . S
C2136 C2138 1.384 . S
C2137 C2136 1.377 . S
C2137 C2143 1.390 . S
C2138 H2129 0.930 . S
C2138 C2136 1.384 . S
C2138 C2139 1.372 . S
C2139 C2138 1.372 . S
C2139 C2140 1.400 . S
C2139 C2144 1.490 . S
C2140 H2130 0.930 . S
C2140 C2139 1.400 . S
C2140 C2143 1.386 . S
H2141 C2157 0.930 . S
H2142 C2158 0.931 . S
C2143 H2131 0.929 . S
C2143 C2137 1.390 . S
C2143 C2140 1.386 . S
C2144 C2139 1.490 . S
C2144 C2146 1.395 . S
C2144 C2147 1.403 . S
H2145 C2151 0.930 . S
C2146 H2132 0.930 . S
C2146 C2144 1.395 . S
C2146 C2149 1.403 . S
C2147 C2144 1.403 . S
C2147 C2148 1.524 . S
C2147 C2151 1.400 . S
C2148 H2133 0.960 . S
C2148 H2134 0.960 . S
C2148 H2135 0.960 . S
C2148 C2147 1.524 . S
C2149 C2146 1.403 . S
C2149 C2150 1.392 . S
C2149 C2153 1.495 . S
C2150 C2149 1.392 . S
C2150 C2151 1.385 . S
C2150 C2152 1.478 . S
C2151 H2145 0.930 . S
C2151 C2147 1.400 . S
C2151 C2150 1.385 . S
C2152 C2150 1.478 . S
C2152 C2154 1.381 . S
C2152 C2158 1.383 . S
C2153 C2149 1.495 . S
C2153 H2159 0.959 . S
C2153 H2160 0.961 . S
C2153 H2161 0.960 . S
C2154 C2152 1.381 . S
C2154 C2155 1.394 . S
C2154 H2162 0.930 . S
C2155 C2154 1.394 . S
C2155 C2156 1.383 . S
C2155 H2163 0.929 . S
C2156 C2155 1.383 . S
C2156 C2157 1.377 . S
C2157 H2141 0.930 . S
C2157 C2156 1.377 . S
C2157 C2158 1.379 . S
C2158 H2142 0.931 . S
C2158 C2152 1.383 . S
C2158 C2157 1.379 . S
H2159 C2153 0.959 . S
H2160 C2153 0.961 . S
H2161 C2153 0.960 . S
H2162 C2154 0.930 . S
H2163 C2155 0.929 . S
C464 C295 2.041 . S
C445 N2 2.149 . S
C500 C297 1.974 . S
C481 C7 1.966 . S
C536 C324 1.840 . S
C517 N12 1.823 . S
C553 C16 2.350 . S
C572 C345 2.381 . S
C608 C365 2.188 . S
C589 C30 2.184 . S
C644 C395 1.636 . S
C625 N35 1.709 . S
C661 C39 2.209 . S
C680 C397 2.202 . S
C716 C435 1.945 . S
C697 N25 1.960 . S
C752 C277 1.310 . S
C733 N58 1.265 . S
C769 N81 1.082 . S
C788 C302 1.099 . S
C824 C332 1.068 . S
C805 N104 1.044 . S
C841 N127 1.621 . S
C860 C344 1.588 . S
C896 C364 0.810 . S
C877 N48 0.757 . S
C932 C377 1.646 . S
C913 N71 1.639 . S
C949 N94 0.457 . S
C968 C402 0.513 . S
C1004 C417 1.731 . S
C985 N117 1.704 . S
C1021 C85 1.666 . S
C1040 C282 1.610 . S
C1057 C122 1.681 . S
C1076 C372 1.620 . S
C1093 C53 1.457 . S
C1112 C382 1.438 . S
C1148 C415 1.512 . S
C1129 C76 1.619 . S
C1184 C422 1.487 . S
C1165 C99 1.549 1_565 S
C1220 C325 1.945 . S
C1201 C131 1.925 . S
C1256 C352 0.854 . S
C1237 C62 0.900 . S
C1273 C108 0.724 . S
C1292 C315 0.709 . S
C1328 C424 2.143 . S
C1309 N140 2.231 . S
C1345 C145 2.156 . S
C1364 C357 2.151 . S
C1400 C384 1.750 . S
C1381 N150 1.735 . S
C1417 C154 2.155 . S
C1436 C405 2.182 . S
C1472 C305 1.984 . S
C1453 C168 1.974 . S
C1489 N173 1.644 . S
C1508 C335 1.637 . S
C1544 C337 2.381 . S
C1525 C177 2.395 . S
C1580 C284 2.010 . S
C1561 N163 2.025 . S
C1616 C432 1.406 . S
C1597 C200 1.448 . S
C1652 C362 1.570 . S
C1633 N219 1.583 . S
C1669 N242 1.172 . S
C1688 C392 1.206 . S
C1724 C404 1.480 . S
C1705 C269 1.596 . S
C1760 C304 0.683 . S
C1741 C191 0.653 . S
C1777 N209 1.832 . S
C1796 C317 1.841 . S
C1813 N232 0.835 . S
C1832 C342 0.849 . S
C1849 C260 1.779 . S
C1868 C292 1.698 . S
C1885 C223 1.796 . S
C1904 C425 1.828 . S
C1921 N255 1.079 . S
C1940 C312 1.142 . S
C1957 N186 1.151 . S
C1976 C322 1.171 . S
C2012 C355 1.591 . S
C1993 C214 1.702 . S
C2048 C285 1.575 . S
C2029 C237 1.587 . S
C2084 C385 1.578 . S
C2065 N265 1.543 . S
C2120 C412 0.544 . S
C2101 N196 0.541 . S
C2156 C375 0.681 . S
C2137 C246 0.745 . S
