# Generated by pormake.
# Topology eea, (3,6)-cn, num edge types: 1
# Building blocks:
#     Node 0, Type 0, BuildingBlock: OLANEW_clean_sbu_2, # of connection points: 3
#     Node 1, Type 0, BuildingBlock: OLANEW_clean_sbu_2, # of connection points: 3
#     Node 2, Type 0, BuildingBlock: OLANEW_clean_sbu_2, # of connection points: 3
#     Node 3, Type 0, BuildingBlock: OLANEW_clean_sbu_2, # of connection points: 3
#     Node 4, Type 0, BuildingBlock: OLANEW_clean_sbu_2, # of connection points: 3
#     Node 5, Type 0, BuildingBlock: OLANEW_clean_sbu_2, # of connection points: 3
#     Node 6, Type 0, BuildingBlock: OLANEW_clean_sbu_2, # of connection points: 3
#     Node 7, Type 0, BuildingBlock: OLANEW_clean_sbu_2, # of connection points: 3
#     Node 8, Type 0, BuildingBlock: OLANEW_clean_sbu_2, # of connection points: 3
#     Node 9, Type 0, BuildingBlock: OLANEW_clean_sbu_2, # of connection points: 3
#     Node 10, Type 0, BuildingBlock: OLANEW_clean_sbu_2, # of connection points: 3
#     Node 11, Type 0, BuildingBlock: OLANEW_clean_sbu_2, # of connection points: 3
#     Node 12, Type 0, BuildingBlock: OLANEW_clean_sbu_2, # of connection points: 3
#     Node 13, Type 0, BuildingBlock: OLANEW_clean_sbu_2, # of connection points: 3
#     Node 14, Type 0, BuildingBlock: OLANEW_clean_sbu_2, # of connection points: 3
#     Node 15, Type 0, BuildingBlock: OLANEW_clean_sbu_2, # of connection points: 3
#     Node 16, Type 0, BuildingBlock: OLANEW_clean_sbu_2, # of connection points: 3
#     Node 17, Type 0, BuildingBlock: OLANEW_clean_sbu_2, # of connection points: 3
#     Node 18, Type 1, BuildingBlock: CUKXOW_clean_sbu_0, # of connection points: 6
#     Node 19, Type 1, BuildingBlock: CUKXOW_clean_sbu_0, # of connection points: 6
#     Node 20, Type 1, BuildingBlock: CUKXOW_clean_sbu_0, # of connection points: 6
#     Node 21, Type 1, BuildingBlock: CUKXOW_clean_sbu_0, # of connection points: 6
#     Node 22, Type 1, BuildingBlock: CUKXOW_clean_sbu_0, # of connection points: 6
#     Node 23, Type 1, BuildingBlock: CUKXOW_clean_sbu_0, # of connection points: 6
#     Node 24, Type 1, BuildingBlock: CUKXOW_clean_sbu_0, # of connection points: 6
#     Node 25, Type 1, BuildingBlock: CUKXOW_clean_sbu_0, # of connection points: 6
#     Node 26, Type 1, BuildingBlock: CUKXOW_clean_sbu_0, # of connection points: 6
#     Edge 27, Type (0, 1), BuildingBlock: XIVTED_clean_linker_0, # of connection points: 2
#     Edge 28, Type (0, 1), BuildingBlock: XIVTED_clean_linker_0, # of connection points: 2
#     Edge 29, Type (0, 1), BuildingBlock: XIVTED_clean_linker_0, # of connection points: 2
#     Edge 30, Type (0, 1), BuildingBlock: XIVTED_clean_linker_0, # of connection points: 2
#     Edge 31, Type (0, 1), BuildingBlock: XIVTED_clean_linker_0, # of connection points: 2
#     Edge 32, Type (0, 1), BuildingBlock: XIVTED_clean_linker_0, # of connection points: 2
#     Edge 33, Type (0, 1), BuildingBlock: XIVTED_clean_linker_0, # of connection points: 2
#     Edge 34, Type (0, 1), BuildingBlock: XIVTED_clean_linker_0, # of connection points: 2
#     Edge 35, Type (0, 1), BuildingBlock: XIVTED_clean_linker_0, # of connection points: 2
#     Edge 36, Type (0, 1), BuildingBlock: XIVTED_clean_linker_0, # of connection points: 2
#     Edge 37, Type (0, 1), BuildingBlock: XIVTED_clean_linker_0, # of connection points: 2
#     Edge 38, Type (0, 1), BuildingBlock: XIVTED_clean_linker_0, # of connection points: 2
#     Edge 39, Type (0, 1), BuildingBlock: XIVTED_clean_linker_0, # of connection points: 2
#     Edge 40, Type (0, 1), BuildingBlock: XIVTED_clean_linker_0, # of connection points: 2
#     Edge 41, Type (0, 1), BuildingBlock: XIVTED_clean_linker_0, # of connection points: 2
#     Edge 42, Type (0, 1), BuildingBlock: XIVTED_clean_linker_0, # of connection points: 2
#     Edge 43, Type (0, 1), BuildingBlock: XIVTED_clean_linker_0, # of connection points: 2
#     Edge 44, Type (0, 1), BuildingBlock: XIVTED_clean_linker_0, # of connection points: 2
#     Edge 45, Type (0, 1), BuildingBlock: XIVTED_clean_linker_0, # of connection points: 2
#     Edge 46, Type (0, 1), BuildingBlock: XIVTED_clean_linker_0, # of connection points: 2
#     Edge 47, Type (0, 1), BuildingBlock: XIVTED_clean_linker_0, # of connection points: 2
#     Edge 48, Type (0, 1), BuildingBlock: XIVTED_clean_linker_0, # of connection points: 2
#     Edge 49, Type (0, 1), BuildingBlock: XIVTED_clean_linker_0, # of connection points: 2
#     Edge 50, Type (0, 1), BuildingBlock: XIVTED_clean_linker_0, # of connection points: 2
#     Edge 51, Type (0, 1), BuildingBlock: XIVTED_clean_linker_0, # of connection points: 2
#     Edge 52, Type (0, 1), BuildingBlock: XIVTED_clean_linker_0, # of connection points: 2
#     Edge 53, Type (0, 1), BuildingBlock: XIVTED_clean_linker_0, # of connection points: 2
#     Edge 54, Type (0, 1), BuildingBlock: XIVTED_clean_linker_0, # of connection points: 2
#     Edge 55, Type (0, 1), BuildingBlock: XIVTED_clean_linker_0, # of connection points: 2
#     Edge 56, Type (0, 1), BuildingBlock: XIVTED_clean_linker_0, # of connection points: 2
#     Edge 57, Type (0, 1), BuildingBlock: XIVTED_clean_linker_0, # of connection points: 2
#     Edge 58, Type (0, 1), BuildingBlock: XIVTED_clean_linker_0, # of connection points: 2
#     Edge 59, Type (0, 1), BuildingBlock: XIVTED_clean_linker_0, # of connection points: 2
#     Edge 60, Type (0, 1), BuildingBlock: XIVTED_clean_linker_0, # of connection points: 2
#     Edge 61, Type (0, 1), BuildingBlock: XIVTED_clean_linker_0, # of connection points: 2
#     Edge 62, Type (0, 1), BuildingBlock: XIVTED_clean_linker_0, # of connection points: 2
#     Edge 63, Type (0, 1), BuildingBlock: XIVTED_clean_linker_0, # of connection points: 2
#     Edge 64, Type (0, 1), BuildingBlock: XIVTED_clean_linker_0, # of connection points: 2
#     Edge 65, Type (0, 1), BuildingBlock: XIVTED_clean_linker_0, # of connection points: 2
#     Edge 66, Type (0, 1), BuildingBlock: XIVTED_clean_linker_0, # of connection points: 2
#     Edge 67, Type (0, 1), BuildingBlock: XIVTED_clean_linker_0, # of connection points: 2
#     Edge 68, Type (0, 1), BuildingBlock: XIVTED_clean_linker_0, # of connection points: 2
#     Edge 69, Type (0, 1), BuildingBlock: XIVTED_clean_linker_0, # of connection points: 2
#     Edge 70, Type (0, 1), BuildingBlock: XIVTED_clean_linker_0, # of connection points: 2
#     Edge 71, Type (0, 1), BuildingBlock: XIVTED_clean_linker_0, # of connection points: 2
#     Edge 72, Type (0, 1), BuildingBlock: XIVTED_clean_linker_0, # of connection points: 2
#     Edge 73, Type (0, 1), BuildingBlock: XIVTED_clean_linker_0, # of connection points: 2
#     Edge 74, Type (0, 1), BuildingBlock: XIVTED_clean_linker_0, # of connection points: 2
#     Edge 75, Type (0, 1), BuildingBlock: XIVTED_clean_linker_0, # of connection points: 2
#     Edge 76, Type (0, 1), BuildingBlock: XIVTED_clean_linker_0, # of connection points: 2
#     Edge 77, Type (0, 1), BuildingBlock: XIVTED_clean_linker_0, # of connection points: 2
#     Edge 78, Type (0, 1), BuildingBlock: XIVTED_clean_linker_0, # of connection points: 2
#     Edge 79, Type (0, 1), BuildingBlock: XIVTED_clean_linker_0, # of connection points: 2
#     Edge 80, Type (0, 1), BuildingBlock: XIVTED_clean_linker_0, # of connection points: 2
# Relax obj value: 0.013
# Max RMSD: 0.116
# Mean RMSD: 0.058
data_MOF--net-eea--node1-OLANEW_clean_sbu_2--node2-CUKXOW_clean_sbu_0--edge1-XIVTED_clean_linker_0
_symmetry_space_group_name_H-M    P1
_symmetry_Int_Tables_number       1
_symmetry_cell_setting            triclinic
loop_
_symmetry_equiv_pos_as_xyz
'x, y, z'
_cell_length_a     66.451623
_cell_length_b     62.204958
_cell_length_c     51.77545
_cell_angle_alpha  96.907309
_cell_angle_beta   93.526534
_cell_angle_gamma 120.33324
loop_
_atom_site_label
_atom_site_type_symbol
_atom_site_fract_x
_atom_site_fract_y
_atom_site_fract_z
_atom_type_partial_charge
O0 O 0.25944 0.13796 0.44424 0.0
Cd1 Cd 0.24191 0.12926 0.39842 0.0
O2 O 0.27866 0.11867 0.43375 0.0
Cd3 Cd 0.26274 0.10377 0.3927 0.0
O4 O 0.24582 0.06739 0.36626 0.0
C5 C 0.22504 0.05089 0.3692 0.0
O6 O 0.2141 0.05743 0.38583 0.0
C7 C 0.27375 0.13105 0.45094 0.0
C8 C 0.22858 0.16353 0.38754 0.0
O9 O 0.21438 0.14328 0.39588 0.0
O10 O 0.24914 0.16762 0.38442 0.0
O11 O 0.88347 0.19236 0.44956 0.0
Cd12 Cd 0.89567 0.20249 0.407 0.0
O13 O 0.86577 0.15203 0.43313 0.0
Cd14 Cd 0.84594 0.11127 0.43267 0.0
O15 O 0.82268 0.07033 0.42254 0.0
C16 C 0.80669 0.06205 0.40293 0.0
O17 O 0.80509 0.07836 0.39032 0.0
C18 C 0.87111 0.16947 0.45254 0.0
C19 C 0.942 0.21488 0.4048 0.0
O20 O 0.93721 0.2315 0.41436 0.0
O21 O 0.92483 0.19225 0.39633 0.0
O22 O 0.88615 0.72631 0.44907 0.0
Cd23 Cd 0.89732 0.74942 0.41239 0.0
O24 O 0.84941 0.717 0.44139 0.0
Cd25 Cd 0.85218 0.73899 0.41059 0.0
O26 O 0.83336 0.75667 0.39647 0.0
C27 C 0.82127 0.75992 0.41292 0.0
O28 O 0.82196 0.75338 0.43602 0.0
C29 C 0.86522 0.71531 0.45452 0.0
C30 C 0.94069 0.75816 0.39934 0.0
O31 O 0.93945 0.77383 0.41668 0.0
O32 O 0.92139 0.73832 0.3881 0.0
O33 O 0.14177 0.25617 0.56346 0.0
Cd34 Cd 0.12633 0.23117 0.59806 0.0
O35 O 0.11703 0.26986 0.56312 0.0
Cd36 Cd 0.09755 0.24947 0.59303 0.0
O37 O 0.06564 0.23245 0.61144 0.0
C38 C 0.04646 0.218 0.59602 0.0
O39 O 0.04727 0.21325 0.5708 0.0
C40 C 0.13416 0.26919 0.55428 0.0
C41 C 0.15729 0.21629 0.61534 0.0
O42 O 0.14099 0.20291 0.59579 0.0
O43 O 0.15871 0.2365 0.62697 0.0
O44 O 0.74186 0.84665 0.57547 0.0
Cd45 Cd 0.76327 0.85646 0.61952 0.0
O46 O 0.77245 0.87745 0.56209 0.0
Cd47 Cd 0.7935 0.89251 0.60078 0.0
O48 O 0.8039 0.92632 0.6291 0.0
C49 C 0.78721 0.92901 0.63617 0.0
O50 O 0.7654 0.91031 0.62849 0.0
C51 C 0.75126 0.85904 0.5574 0.0
C52 C 0.77856 0.82326 0.62782 0.0
O53 O 0.75848 0.81905 0.63334 0.0
O54 O 0.79139 0.84313 0.61814 0.0
O55 O 0.12738 0.85246 0.56795 0.0
Cd56 Cd 0.11901 0.85773 0.61276 0.0
O57 O 0.16198 0.85811 0.58183 0.0
Cd58 Cd 0.16058 0.86938 0.62279 0.0
O59 O 0.17451 0.9044 0.65056 0.0
C60 C 0.16814 0.91963 0.64503 0.0
O61 O 0.15171 0.91222 0.6249 0.0
C62 C 0.14627 0.85331 0.56304 0.0
C63 C 0.07169 0.82627 0.61678 0.0
O64 O 0.07972 0.84924 0.61382 0.0
O65 O 0.08604 0.81824 0.61778 0.0
O66 O 0.91859 0.4752 0.78087 0.0
Cd67 Cd 0.899 0.46385 0.73557 0.0
O68 O 0.93638 0.45437 0.77015 0.0
Cd69 Cd 0.91782 0.43698 0.7303 0.0
O70 O 0.89959 0.39964 0.70559 0.0
C71 C 0.88051 0.3828 0.71213 0.0
O72 O 0.87173 0.38936 0.73149 0.0
C73 C 0.93291 0.4682 0.78722 0.0
C74 C 0.88801 0.49894 0.72132 0.0
O75 O 0.87339 0.48016 0.7314 0.0
O76 O 0.90794 0.50123 0.71815 0.0
O77 O 0.55233 0.51384 0.7822 0.0
Cd78 Cd 0.56146 0.5133 0.73739 0.0
O79 O 0.53719 0.47319 0.77093 0.0
Cd80 Cd 0.51942 0.43334 0.77438 0.0
O81 O 0.4968 0.39252 0.76315 0.0
C82 C 0.48147 0.38489 0.743 0.0
O83 O 0.48027 0.40172 0.73097 0.0
C84 C 0.54116 0.49187 0.788 0.0
C85 C 0.60937 0.53901 0.734 0.0
O86 O 0.59742 0.5499 0.73257 0.0
O87 O 0.59871 0.51597 0.73753 0.0
O88 O 0.55289 0.06408 0.7991 0.0
Cd89 Cd 0.56035 0.0861 0.76147 0.0
O90 O 0.51889 0.03146 0.77962 0.0
Cd91 Cd 0.51699 0.0505 0.74765 0.0
O92 O 0.4995 0.06904 0.73237 0.0
C93 C 0.49111 0.07742 0.74955 0.0
O94 O 0.49445 0.0751 0.7741 0.0
C95 C 0.53511 0.0423 0.79925 0.0
C96 C 0.60273 0.09578 0.74433 0.0
O97 O 0.60215 0.11144 0.76233 0.0
O98 O 0.58324 0.07555 0.73435 0.0
O99 O 0.80816 0.59601 0.88504 0.0
Cd100 Cd 0.79376 0.57279 0.92116 0.0
O101 O 0.7815 0.60703 0.88295 0.0
Cd102 Cd 0.76363 0.58812 0.91445 0.0
O103 O 0.73344 0.57133 0.93562 0.0
C104 C 0.71377 0.55523 0.92181 0.0
O105 O 0.71317 0.54886 0.89651 0.0
C106 C 0.79916 0.60726 0.87456 0.0
C107 C 0.82509 0.55902 0.94017 0.0
O108 O 0.80868 0.54482 0.92094 0.0
O109 O 0.82654 0.57961 0.95058 0.0
O110 O 0.41612 0.17958 0.91688 0.0
Cd111 Cd 0.43553 0.19196 0.96239 0.0
O112 O 0.44835 0.20655 0.90232 0.0
Cd113 Cd 0.46809 0.22388 0.94153 0.0
O114 O 0.47675 0.25832 0.9677 0.0
C115 C 0.45943 0.26095 0.97198 0.0
O116 O 0.43799 0.24205 0.96285 0.0
C117 C 0.42669 0.18929 0.89795 0.0
C118 C 0.45144 0.16058 0.97615 0.0
O119 O 0.43072 0.15586 0.97943 0.0
O120 O 0.46464 0.18013 0.96619 0.0
O121 O 0.77708 0.19017 0.89414 0.0
Cd122 Cd 0.76854 0.21008 0.93191 0.0
O123 O 0.80592 0.18912 0.91605 0.0
Cd124 Cd 0.80542 0.21044 0.95235 0.0
O125 O 0.82502 0.24752 0.97745 0.0
C126 C 0.82178 0.26498 0.97187 0.0
O127 O 0.80512 0.25948 0.95273 0.0
C128 C 0.79278 0.18422 0.89464 0.0
C129 C 0.72737 0.17545 0.94899 0.0
O130 O 0.72676 0.18623 0.92962 0.0
O131 O 0.74751 0.18116 0.96047 0.0
O132 O 0.57803 0.79997 0.10829 0.0
Cd133 Cd 0.55727 0.78733 0.06348 0.0
O134 O 0.60272 0.78824 0.09633 0.0
Cd135 Cd 0.58303 0.76845 0.05742 0.0
O136 O 0.56376 0.72952 0.0365 0.0
C137 C 0.54752 0.71344 0.04755 0.0
O138 O 0.54206 0.72153 0.06909 0.0
C139 C 0.59601 0.79827 0.11395 0.0
C140 C 0.54695 0.8232 0.05046 0.0
O141 O 0.53231 0.80449 0.06061 0.0
O142 O 0.56646 0.82485 0.0463 0.0
O143 O 0.21028 0.85327 0.1013 0.0
Cd144 Cd 0.21872 0.85175 0.0562 0.0
O145 O 0.20321 0.8146 0.09609 0.0
Cd146 Cd 0.18876 0.77626 0.10426 0.0
O147 O 0.16596 0.7352 0.09544 0.0
C148 C 0.15044 0.72694 0.07534 0.0
O149 O 0.14948 0.7433 0.06222 0.0
C150 C 0.204 0.83314 0.11053 0.0
C151 C 0.26674 0.87474 0.05368 0.0
O152 O 0.25616 0.88716 0.05301 0.0
O153 O 0.25457 0.85133 0.05569 0.0
O154 O 0.21703 0.38798 0.12954 0.0
Cd155 Cd 0.22525 0.40704 0.08981 0.0
O156 O 0.17904 0.37159 0.11787 0.0
Cd157 Cd 0.18099 0.39174 0.08558 0.0
O158 O 0.16391 0.41066 0.07029 0.0
C159 C 0.15355 0.41666 0.087 0.0
O160 O 0.15489 0.41188 0.11088 0.0
C161 C 0.19588 0.37407 0.13353 0.0
C162 C 0.2693 0.4196 0.07583 0.0
O163 O 0.26629 0.4363 0.08905 0.0
O164 O 0.25158 0.39698 0.06944 0.0
O165 O 0.43953 0.89277 0.20812 0.0
Cd166 Cd 0.42742 0.866 0.24191 0.0
O167 O 0.46241 0.9276 0.23688 0.0
Cd168 Cd 0.44277 0.90918 0.26776 0.0
O169 O 0.40885 0.89269 0.28245 0.0
C170 C 0.3917 0.88788 0.26564 0.0
O171 O 0.39576 0.89247 0.24179 0.0
C172 C 0.4551 0.91623 0.21314 0.0
C173 C 0.46433 0.86 0.26099 0.0
O174 O 0.44947 0.84502 0.24083 0.0
O175 O 0.46161 0.87766 0.27234 0.0
O176 O 0.07692 0.5095 0.24992 0.0
Cd177 Cd 0.0964 0.51863 0.29492 0.0
O178 O 0.10767 0.54211 0.23901 0.0
Cd179 Cd 0.12735 0.55676 0.27848 0.0
O180 O 0.13905 0.59164 0.30571 0.0
C181 C 0.12293 0.59588 0.31154 0.0
O182 O 0.10085 0.57807 0.3034 0.0
C183 C 0.08692 0.523 0.23283 0.0
C184 C 0.11104 0.48521 0.30484 0.0
O185 O 0.09049 0.48072 0.30865 0.0
O186 O 0.12464 0.50544 0.29611 0.0
O187 O 0.44222 0.52437 0.22547 0.0
Cd188 Cd 0.43212 0.54205 0.26348 0.0
O189 O 0.47027 0.52252 0.24819 0.0
Cd190 Cd 0.46871 0.54267 0.2847 0.0
O191 O 0.48838 0.57976 0.30972 0.0
C192 C 0.48439 0.5969 0.30486 0.0
O193 O 0.46688 0.591 0.28667 0.0
C194 C 0.45795 0.51846 0.2264 0.0
C195 C 0.38943 0.50576 0.27628 0.0
O196 O 0.39013 0.51979 0.25971 0.0
O197 O 0.40896 0.50911 0.28692 0.0
Tb198 Tb 0.53543 0.0185 0.01911 0.0
C199 C 0.51546 0.96026 0.01915 0.0
Tb200 Tb 0.48007 0.98006 0.01643 0.0
O201 O 0.54221 0.01429 0.05946 0.0
O202 O 0.50932 0.00785 0.04455 0.0
O203 O 0.53256 0.98161 0.01296 0.0
C204 C 0.43579 0.95528 0.02623 0.0
O205 O 0.49473 0.95679 0.0243 0.0
C206 C 0.49453 0.98449 0.96958 0.0
C207 C 0.49984 0.03821 0.01679 0.0
O208 O 0.45202 0.95079 0.03439 0.0
O209 O 0.44453 0.97335 0.01262 0.0
O210 O 0.47292 0.9689 0.97265 0.0
O211 O 0.50541 -0.00506 0.99213 0.0
O212 O 0.48339 0.017 0.02368 0.0
O213 O 0.52061 0.04192 0.01154 0.0
C214 C 0.57776 0.04998 0.00734 0.0
O215 O 0.56925 0.05424 0.028 0.0
O216 O 0.56256 0.02796 0.99351 0.0
C217 C 0.52062 0.00599 0.06376 0.0
Tb218 Tb 0.97538 0.50328 0.0176 0.0
C219 C 0.02897 0.54231 0.02582 0.0
Tb220 Tb 0.00893 0.48343 0.02207 0.0
O221 O 0.98624 0.52076 0.0594 0.0
O222 O 0.98624 0.48793 0.04567 0.0
O223 O 0.00822 0.53693 0.01416 0.0
C224 C 0.04188 0.47319 0.03716 0.0
O225 O 0.03244 0.5246 0.03336 0.0
C226 C 0.99188 0.48089 0.9742 0.0
C227 C 0.95467 0.44399 0.0154 0.0
O228 O 0.03817 0.47791 0.0142 0.0
O229 O 0.02704 0.47423 0.05164 0.0
O230 O -0.00235 0.46509 0.98103 0.0
O231 O -0.00222 0.49844 0.99336 0.0
O232 O 0.97613 0.44833 0.02264 0.0
O233 O 0.95066 0.46226 0.01108 0.0
C234 C 0.94274 0.51354 0.00115 0.0
O235 O 0.955 0.5217 0.02437 0.0
O236 O 0.9488 0.49954 0.98718 0.0
C237 C 0.99179 0.50458 0.06545 0.0
Tb238 Tb 0.46768 0.4733 0.00827 0.0
C239 C 0.4859 0.4352 0.00362 0.0
Tb240 Tb 0.52065 0.49464 0.00687 0.0
O241 O 0.45967 0.45759 0.96596 0.0
O242 O 0.49186 0.48969 0.98187 0.0
O243 O 0.46822 0.4386 0.00857 0.0
C244 C 0.56122 0.50526 0.9899 0.0
O245 O 0.50708 0.45401 0.00102 0.0
C246 C 0.5088 0.49538 0.05402 0.0
C247 C 0.50308 0.5323 0.01492 0.0
O248 O 0.5592 0.5144 0.01283 0.0
O249 O 0.54044 0.49022 0.97657 0.0
O250 O 0.52984 0.51048 0.04887 0.0
O251 O 0.4967 0.47905 0.03387 0.0
O252 O 0.51819 0.52768 0.0035 0.0
O253 O 0.48398 0.51411 0.02265 0.0
C254 C 0.42525 0.46127 0.02106 0.0
O255 O 0.43721 0.47834 0.00714 0.0
O256 O 0.43708 0.45094 0.02761 0.0
C257 C 0.48066 0.47364 0.96144 0.0
Tb258 Tb 0.19737 0.34424 0.34401 0.0
C259 C 0.18318 0.28969 0.35181 0.0
Tb260 Tb 0.14626 0.30753 0.35131 0.0
O261 O 0.20973 0.34761 0.38532 0.0
O262 O 0.17593 0.34001 0.3738 0.0
O263 O 0.1966 0.30853 0.33949 0.0
C264 C 0.10626 0.27842 0.36981 0.0
O265 O 0.16406 0.28742 0.36097 0.0
C266 C 0.154 0.31119 0.30261 0.0
C267 C 0.16 0.36226 0.34273 0.0
O268 O 0.11155 0.27287 0.34723 0.0
O269 O 0.1236 0.30008 0.38197 0.0
O270 O 0.13397 0.30545 0.31049 0.0
O271 O 0.1677 0.31208 0.32119 0.0
O272 O 0.14439 0.34134 0.35078 0.0
O273 O 0.18115 0.3668 0.33803 0.0
C274 C 0.2375 0.3757 0.32717 0.0
O275 O 0.23581 0.3668 0.34881 0.0
O276 O 0.21654 0.36687 0.31484 0.0
C277 C 0.18959 0.34163 0.39282 0.0
Tb278 Tb 0.63431 0.83584 0.34536 0.0
C279 C 0.68747 0.87657 0.35435 0.0
Tb280 Tb 0.66953 0.81804 0.3504 0.0
O281 O 0.64436 0.85311 0.38725 0.0
O282 O 0.64595 0.82125 0.3735 0.0
O283 O 0.66652 0.87045 0.3425 0.0
C284 C 0.7038 0.8097 0.36549 0.0
O285 O 0.69169 0.85936 0.36194 0.0
C286 C 0.65255 0.81517 0.30237 0.0
C287 C 0.61572 0.7769 0.34342 0.0
O288 O 0.68836 0.80944 0.37983 0.0
O289 O 0.69995 0.81467 0.34273 0.0
O290 O 0.65905 0.79994 0.30926 0.0
O291 O 0.65767 0.83237 0.32162 0.0
O292 O 0.63747 0.7821 0.3507 0.0
O293 O 0.6109 0.7946 0.33904 0.0
C294 C 0.59985 0.84298 0.32758 0.0
O295 O 0.61187 0.852 0.35097 0.0
O296 O 0.60728 0.83002 0.31422 0.0
C297 C 0.65075 0.83756 0.39333 0.0
Tb298 Tb 0.1401 0.8121 0.33564 0.0
C299 C 0.15677 0.7724 0.33633 0.0
Tb300 Tb 0.19252 0.82994 0.33272 0.0
O301 O 0.13585 0.81953 0.29584 0.0
O302 O 0.16046 0.80983 0.30682 0.0
O303 O 0.13967 0.7773 0.33972 0.0
C304 C 0.23333 0.83838 0.31823 0.0
O305 O 0.17807 0.78959 0.33182 0.0
C306 C 0.18245 0.8399 0.37924 0.0
C307 C 0.17606 0.86905 0.33326 0.0
O308 O 0.21756 0.84036 0.30437 0.0
O309 O 0.22611 0.83161 0.34026 0.0
O310 O 0.20292 0.85347 0.37192 0.0
O311 O 0.16989 0.82084 0.36172 0.0
O312 O 0.19077 0.86245 0.32415 0.0
O313 O 0.15693 0.85316 0.34278 0.0
C314 C 0.09827 0.79781 0.35103 0.0
O315 O 0.10175 0.78663 0.33039 0.0
O316 O 0.1183 0.81686 0.36292 0.0
C317 C 0.1531 0.81707 0.28886 0.0
Tb318 Tb 0.86547 0.68253 0.66447 0.0
C319 C 0.84956 0.62699 0.67304 0.0
Tb320 Tb 0.8139 0.64683 0.67063 0.0
O321 O 0.87695 0.6839 0.70542 0.0
O322 O 0.84374 0.6783 0.69412 0.0
O323 O 0.86591 0.64774 0.66521 0.0
C324 C 0.77183 0.61918 0.68577 0.0
O325 O 0.82854 0.62317 0.67727 0.0
C326 C 0.82221 0.64971 0.62182 0.0
C327 C 0.82951 0.70127 0.6626 0.0
O328 O 0.79173 0.62475 0.69867 0.0
O329 O 0.77574 0.62875 0.6645 0.0
O330 O 0.80198 0.64337 0.62922 0.0
O331 O 0.83568 0.65104 0.64089 0.0
O332 O 0.81672 0.68342 0.67618 0.0
O333 O 0.84781 0.70227 0.65252 0.0
C334 C 0.90649 0.7141 0.64943 0.0
O335 O 0.89688 0.72017 0.66775 0.0
O336 O 0.89301 0.69027 0.63956 0.0
C337 C 0.85689 0.67856 0.71286 0.0
Tb338 Tb 0.30969 0.16036 0.68318 0.0
C339 C 0.3631 0.20015 0.6892 0.0
Tb340 Tb 0.34413 0.14158 0.68656 0.0
O341 O 0.32225 0.17931 0.72442 0.0
O342 O 0.32216 0.1463 0.7112 0.0
O343 O 0.34186 0.19436 0.6787 0.0
C344 C 0.37797 0.13236 0.70084 0.0
O345 O 0.36735 0.18281 0.69628 0.0
C346 C 0.32529 0.13773 0.63907 0.0
C347 C 0.29033 0.10161 0.683 0.0
O348 O 0.36446 0.13508 0.71626 0.0
O349 O 0.37244 0.13484 0.67738 0.0
O350 O 0.33157 0.12229 0.64584 0.0
O351 O 0.33155 0.15555 0.65802 0.0
O352 O 0.31214 0.10673 0.68964 0.0
O353 O 0.28555 0.11919 0.67795 0.0
C354 C 0.27621 0.16998 0.66847 0.0
O355 O 0.28817 0.17705 0.69175 0.0
O356 O 0.28302 0.15738 0.65339 0.0
C357 C 0.32828 0.16353 0.73057 0.0
Tb358 Tb 0.79816 0.14189 0.67256 0.0
C359 C 0.81611 0.10376 0.67012 0.0
Tb360 Tb 0.85104 0.1629 0.67218 0.0
O361 O 0.79054 0.12695 0.63007 0.0
O362 O 0.82283 0.15848 0.64666 0.0
O363 O 0.79938 0.10809 0.67716 0.0
C364 C 0.89226 0.17279 0.65755 0.0
O365 O 0.8367 0.12201 0.66524 0.0
C366 C 0.83793 0.163 0.71877 0.0
C367 C 0.83361 0.20139 0.6755 0.0
O368 O 0.88932 0.1804 0.68069 0.0
O369 O 0.87202 0.15968 0.64266 0.0
O370 O 0.85898 0.1787 0.71411 0.0
O371 O 0.82644 0.14664 0.69849 0.0
O372 O 0.85032 0.197 0.66854 0.0
O373 O 0.81273 0.18304 0.67977 0.0
C374 C 0.75699 0.13227 0.68738 0.0
O375 O 0.7595 0.12123 0.66596 0.0
O376 O 0.77761 0.1487 0.70034 0.0
C377 C 0.81176 0.14273 0.62599 0.0
H378 H 0.29579 0.92222 0.04381 0.0
H379 H 0.41229 0.91393 0.05042 0.0
H380 H 0.29554 0.85529 0.05878 0.0
H381 H 0.40389 0.9687 0.01489 0.0
H382 H 0.37107 0.8941 0.0588 0.0
H383 H 0.33729 0.94184 0.03874 0.0
C384 C 0.30448 0.91166 0.04613 0.0
C385 C 0.29214 0.88702 0.05158 0.0
C386 C 0.37834 0.91046 0.04917 0.0
C387 C 0.33977 0.90943 0.0458 0.0
C388 C 0.40178 0.92174 0.04444 0.0
C389 C 0.41135 0.94286 0.03188 0.0
C390 C 0.3647 0.92066 0.04153 0.0
C391 C 0.39713 0.95237 0.02454 0.0
C392 C 0.32819 0.92286 0.04316 0.0
C393 C 0.30438 0.87429 0.05443 0.0
N394 N 0.37457 0.94125 0.02952 0.0
N395 N 0.32757 0.88565 0.05149 0.0
H396 H 0.14529 0.42764 0.039 0.0
H397 H 0.05209 0.46454 0.08521 0.0
H398 H 0.12845 0.42985 0.11813 0.0
H399 H 0.07181 0.46738 0.00732 0.0
H400 H 0.08073 0.45262 0.0978 0.0
H401 H 0.11927 0.44314 0.02707 0.0
C402 C 0.13624 0.43151 0.05389 0.0
C403 C 0.13899 0.42734 0.07957 0.0
C404 C 0.07888 0.45593 0.07797 0.0
C405 C 0.10913 0.44495 0.06605 0.0
C406 C 0.06253 0.46271 0.0708 0.0
C407 C 0.0596 0.46684 0.0452 0.0
C408 C 0.09231 0.45316 0.05934 0.0
C409 C 0.07356 0.4643 0.02727 0.0
C410 C 0.12137 0.44034 0.04707 0.0
C411 C 0.12683 0.4327 0.09807 0.0
N412 N 0.08926 0.45751 0.03464 0.0
N413 N 0.11238 0.4411 0.09091 0.0
H414 H 0.55933 0.69025 0.00805 0.0
H415 H 0.48015 0.55176 0.04263 0.0
H416 H 0.51327 0.67413 0.06748 0.0
H417 H 0.53561 0.57206 0.99423 0.0
H418 H 0.48821 0.59518 0.04782 0.0
H419 H 0.54639 0.64542 0.99801 0.0
C420 C 0.54629 0.67726 0.01878 0.0
C421 C 0.53755 0.68602 0.03883 0.0
C422 C 0.49854 0.59006 0.03601 0.0
C423 C 0.52281 0.63467 0.02758 0.0
C424 C 0.49396 0.56529 0.03304 0.0
C425 C 0.50734 0.55828 0.01813 0.0
C426 C 0.5165 0.60787 0.02382 0.0
C427 C 0.52498 0.57661 0.0061 0.0
C428 C 0.53899 0.65166 0.01313 0.0
C429 C 0.52062 0.66826 0.05201 0.0
N430 N 0.52904 0.60052 0.00924 0.0
N431 N 0.51392 0.64345 0.04628 0.0
H432 H 0.82018 0.30697 0.96464 0.0
H433 H 0.95415 0.40214 0.02805 0.0
H434 H 0.86291 0.28388 0.00517 0.0
H435 H 0.90862 0.42632 0.99652 0.0
H436 H 0.92043 0.35897 0.02172 0.0
H437 H 0.85155 0.35109 0.97861 0.0
C438 C 0.83603 0.31118 0.97676 0.0
C439 C 0.83902 0.29168 0.98349 0.0
C440 C 0.91779 0.37376 0.01636 0.0
C441 C 0.87515 0.34215 0.99929 0.0
C442 C 0.93707 0.39843 0.01987 0.0
C443 C 0.93428 0.4179 0.01264 0.0
C444 C 0.89557 0.36846 0.00534 0.0
C445 C 0.91166 0.41193 0.00231 0.0
C446 C 0.85398 0.33639 0.9847 0.0
C447 C 0.8599 0.29829 0.99937 0.0
N448 N 0.89323 0.38772 0.9988 0.0
N449 N 0.87728 0.32296 0.00646 0.0
H450 H 0.70807 0.56728 0.97251 0.0
H451 H 0.56714 0.48807 0.9418 0.0
H452 H 0.66892 0.52154 0.89729 0.0
H453 H 0.60583 0.53557 0.01635 0.0
H454 H 0.60436 0.49831 0.92595 0.0
H455 H 0.6709 0.55377 0.98992 0.0
C456 C 0.69168 0.55426 0.95971 0.0
C457 C 0.69161 0.54565 0.93334 0.0
C458 C 0.60475 0.50646 0.94581 0.0
C459 C 0.64902 0.53024 0.95311 0.0
C460 C 0.58352 0.50062 0.95483 0.0
C461 C 0.58352 0.51106 0.98036 0.0
C462 C 0.62612 0.52288 0.96245 0.0
C463 C 0.60515 0.5272 0.99649 0.0
C464 C 0.67046 0.5466 0.96965 0.0
C465 C 0.66984 0.52876 0.91769 0.0
N466 N 0.62562 0.53267 0.98725 0.0
N467 N 0.64944 0.52172 0.92777 0.0
H468 H 0.49398 0.16466 0.97069 0.0
H469 H 0.46062 0.03893 0.0287 0.0
H470 H 0.42802 0.11855 0.99876 0.0
H471 H 0.52585 0.0826 0.99812 0.0
H472 H 0.44977 0.06969 0.02047 0.0
H473 H 0.5071 0.13639 0.98278 0.0
C474 C 0.48227 0.14863 0.97943 0.0
C475 C 0.45982 0.14391 0.98363 0.0
C476 C 0.46652 0.07266 0.01567 0.0
C477 C 0.47475 0.11155 0.99756 0.0
C478 C 0.47278 0.05508 0.02041 0.0
C479 C 0.49418 0.05807 0.01399 0.0
C480 C 0.48168 0.09343 0.00431 0.0
C481 C 0.50918 0.07949 0.00338 0.0
C482 C 0.48978 0.13251 0.98634 0.0
C483 C 0.44543 0.12289 0.99508 0.0
N484 N 0.50258 0.09628 0.99873 0.0
N485 N 0.45313 0.10749 0.00158 0.0
H486 H 0.68357 0.14738 0.92036 0.0
H487 H 0.61558 0.09098 0.03841 0.0
H488 H 0.72125 0.16115 0.99722 0.0
H489 H 0.59102 0.05009 0.95874 0.0
H490 H 0.65275 0.12159 0.02448 0.0
H491 H 0.64725 0.11618 0.93489 0.0
C492 C 0.68416 0.14389 0.94032 0.0
C493 C 0.70539 0.15678 0.95764 0.0
C494 C 0.63923 0.10582 0.01014 0.0
C495 C 0.66401 0.12149 0.97436 0.0
C496 C 0.61809 0.08847 0.01803 0.0
C497 C 0.6004 0.06805 0.99966 0.0
C498 C 0.64231 0.10297 0.98363 0.0
C499 C 0.60436 0.06554 0.97349 0.0
C500 C 0.66351 0.12603 0.94851 0.0
C501 C 0.70523 0.15149 0.98324 0.0
N502 N 0.62484 0.08297 0.96617 0.0
N503 N 0.68477 0.13436 0.99095 0.0
H504 H 0.85862 0.58214 0.9838 0.0
H505 H 0.91383 0.49496 0.95417 0.0
H506 H 0.83035 0.52008 0.91844 0.0
H507 H 0.93151 0.54581 0.02747 0.0
H508 H 0.88466 0.50556 0.93938 0.0
H509 H 0.88702 0.57076 0.99888 0.0
C510 C 0.85836 0.5661 0.97263 0.0
C511 C 0.84207 0.55204 0.94982 0.0
C512 C 0.89487 0.51434 0.95873 0.0
C513 C 0.87463 0.53899 0.9669 0.0
C514 C 0.91152 0.50833 0.96713 0.0
C515 C 0.925 0.51953 0.99205 0.0
C516 C 0.89188 0.53184 0.97531 0.0
C517 C 0.9214 0.53675 0.00811 0.0
C518 C 0.87456 0.55959 0.98128 0.0
C519 C 0.84255 0.53142 0.93616 0.0
N520 N 0.90523 0.54245 0.99943 0.0
N521 N 0.85863 0.52558 0.94485 0.0
H522 H 0.42635 0.27351 0.98207 0.0
H523 H 0.519 0.4216 -4e-05 0.0
H524 H 0.50146 0.30585 0.98574 0.0
H525 H 0.44486 0.3904 0.00411 0.0
H526 H 0.51296 0.37934 0.99688 0.0
H527 H 0.43288 0.31605 0.99312 0.0
C528 C 0.44425 0.28953 0.98554 0.0
C529 C 0.46338 0.28612 0.98267 0.0
C530 C 0.49802 0.38172 0.9986 0.0
C531 C 0.47094 0.33488 0.99503 0.0
C532 C 0.50142 0.40588 0.00025 0.0
C533 C 0.48237 0.40959 0.00213 0.0
C534 C 0.47536 0.36099 0.99865 0.0
C535 C 0.46005 0.38845 0.0026 0.0
C536 C 0.44795 0.31383 0.99179 0.0
C537 C 0.48617 0.30757 0.98755 0.0
N538 N 0.45713 0.36503 0.0007 0.0
N539 N 0.48929 0.33104 0.9932 0.0
H540 H 0.11368 0.70409 0.03532 0.0
H541 H 0.07118 0.56311 0.05782 0.0
H542 H 0.14865 0.68733 0.09584 0.0
H543 H 0.03113 0.58241 0.00672 0.0
H544 H 0.10189 0.60794 0.069 0.0
H545 H 0.08538 0.659 0.0218 0.0
C546 C 0.11545 0.69092 0.04576 0.0
C547 C 0.13352 0.69953 0.06684 0.0
C548 C 0.08642 0.60231 0.05526 0.0
C549 C 0.10109 0.64772 0.05137 0.0
C550 C 0.06893 0.57672 0.04875 0.0
C551 C 0.04851 0.56899 0.03134 0.0
C552 C 0.08351 0.62026 0.04415 0.0
C553 C 0.0465 0.58748 0.02033 0.0
C554 C 0.09924 0.66514 0.03802 0.0
C555 C 0.13493 0.68153 0.07956 0.0
N556 N 0.06374 0.61222 0.02695 0.0
N557 N 0.1189 0.65645 0.07164 0.0
H558 H 0.30641 0.46663 0.07337 0.0
H559 H 0.39521 0.42009 0.04142 0.0
H560 H 0.28493 0.38766 0.06039 0.0
H561 H 0.4031 0.48807 0.01857 0.0
H562 H 0.35704 0.40988 0.05479 0.0
H563 H 0.34452 0.47697 0.05962 0.0
C564 C 0.30975 0.45149 0.06773 0.0
C565 C 0.2925 0.42624 0.06799 0.0
C566 C 0.36711 0.42698 0.04678 0.0
C567 C 0.33599 0.43797 0.05255 0.0
C568 C 0.38886 0.43284 0.03922 0.0
C569 C 0.40217 0.45488 0.02881 0.0
C570 C 0.35887 0.44355 0.04437 0.0
C571 C 0.39324 0.47082 0.0264 0.0
C572 C 0.33141 0.4574 0.05978 0.0
C573 C 0.2977 0.40736 0.06038 0.0
N574 N 0.37217 0.46494 0.03431 0.0
N575 N 0.31906 0.41362 0.05314 0.0
H576 H 0.50669 0.82415 0.05566 0.0
H577 H 0.55519 0.95862 0.0108 0.0
H578 H 0.57505 0.86629 0.03095 0.0
H579 H 0.48596 0.91443 0.03294 0.0
H580 H 0.56257 0.92471 0.01688 0.0
H581 H 0.49859 0.85678 0.04634 0.0
C582 C 0.51999 0.84024 0.04821 0.0
C583 C 0.54161 0.84251 0.04415 0.0
C584 C 0.54574 0.92242 0.02029 0.0
C585 C 0.53246 0.88005 0.03347 0.0
C586 C 0.54149 0.94178 0.01681 0.0
C587 C 0.51993 0.93947 0.02142 0.0
C588 C 0.52834 0.90061 0.0285 0.0
C589 C 0.50287 0.91715 0.02917 0.0
C590 C 0.51534 0.85888 0.04287 0.0
C591 C 0.55815 0.86378 0.03441 0.0
N592 N 0.50748 0.89868 0.03254 0.0
N593 N 0.55327 0.88177 0.02948 0.0
H594 H 0.98219 0.25787 0.42937 0.0
H595 H 0.0671 0.2343 0.34491 0.0
H596 H 0.95785 0.18793 0.376 0.0
H597 H 0.09223 0.29243 0.41363 0.0
H598 H 0.02704 0.21611 0.35621 0.0
H599 H 0.02271 0.2705 0.424 0.0
C600 C 0.98538 0.24511 0.41661 0.0
C601 C 0.96662 0.2219 0.40297 0.0
C602 C 0.04138 0.23263 0.36901 0.0
C603 C 0.01299 0.23631 0.39657 0.0
C604 C 0.06421 0.24297 0.36258 0.0
C605 C 0.08286 0.26497 0.37826 0.0
C606 C 0.03726 0.24464 0.39106 0.0
C607 C 0.07825 0.27552 0.40094 0.0
C608 C 0.00854 0.25228 0.41363 0.0
C609 C 0.97181 0.20603 0.38685 0.0
N610 N 0.05586 0.26545 0.40648 0.0
N611 N -0.00548 0.21365 0.38384 0.0
H612 H 0.81364 0.77344 0.36627 0.0
H613 H 0.71394 0.79969 0.41286 0.0
H614 H 0.79312 0.76808 0.44385 0.0
H615 H 0.73544 0.80736 0.33594 0.0
H616 H 0.74381 0.78929 0.42497 0.0
H617 H 0.78609 0.78722 0.35508 0.0
C618 C 0.80344 0.77528 0.38099 0.0
C619 C 0.80565 0.7695 0.40601 0.0
C620 C 0.74208 0.79332 0.40546 0.0
C621 C 0.77403 0.78516 0.39332 0.0
C622 C 0.72503 0.79924 0.39857 0.0
C623 C 0.72224 0.80428 0.37337 0.0
C624 C 0.75638 0.79237 0.38696 0.0
C625 C 0.73705 0.80353 0.35558 0.0
C626 C 0.7877 0.78312 0.37458 0.0
C627 C 0.79198 0.77224 0.42429 0.0
N628 N 0.75344 0.79759 0.36268 0.0
N629 N 0.77673 0.77977 0.41755 0.0
H630 H 0.18173 0.01069 0.3728 0.0
H631 H 0.21398 0.90807 0.31683 0.0
H632 H 0.24567 0.02951 0.34005 0.0
H633 H 0.15074 0.8901 0.35086 0.0
H634 H 0.2239 0.95198 0.32065 0.0
H635 H 0.16793 0.96589 0.35986 0.0
C636 C 0.19276 0.00542 0.36258 0.0
C637 C 0.21503 0.02392 0.35781 0.0
C638 C 0.20777 0.93838 0.3271 0.0
C639 C 0.19942 0.97256 0.34316 0.0
C640 C 0.20209 0.91327 0.32496 0.0
C641 C 0.1816 0.89535 0.33379 0.0
C642 C 0.19288 0.94565 0.33819 0.0
C643 C 0.16682 0.90324 0.34399 0.0
C644 C 0.18488 0.9798 0.35526 0.0
C645 C 0.22846 0.01592 0.34432 0.0
N646 N 0.17283 0.9278 0.34606 0.0
N647 N 0.22056 0.99083 0.33774 0.0
H648 H 0.48147 0.63835 0.29868 0.0
H649 H 0.61681 0.73571 0.35558 0.0
H650 H 0.52688 0.61664 0.33578 0.0
H651 H 0.56918 0.75807 0.326 0.0
H652 H 0.58368 0.69227 0.3505 0.0
H653 H 0.5127 0.68266 0.31129 0.0
C654 C 0.4979 0.6429 0.30978 0.0
C655 C 0.50165 0.62373 0.31592 0.0
C656 C 0.58047 0.70672 0.34528 0.0
C657 C 0.53762 0.67444 0.33013 0.0
C658 C 0.59941 0.73153 0.34807 0.0
C659 C 0.59583 0.75059 0.34105 0.0
C660 C 0.55782 0.70087 0.33524 0.0
C661 C 0.57284 0.74404 0.33159 0.0
C662 C 0.51576 0.66823 0.31692 0.0
C663 C 0.52326 0.63079 0.33047 0.0
N664 N 0.55475 0.71972 0.32882 0.0
N665 N 0.54053 0.65556 0.33681 0.0
H666 H 0.35235 0.87819 0.23454 0.0
H667 H 0.26936 0.83881 0.34717 0.0
H668 H 0.37653 0.87639 0.31313 0.0
H669 H 0.24913 0.8503 0.27166 0.0
H670 H 0.30774 0.8493 0.33422 0.0
H671 H 0.31345 0.86463 0.24692 0.0
C672 C 0.34948 0.87485 0.25441 0.0
C673 C 0.3678 0.87855 0.27286 0.0
C674 C 0.29489 0.84947 0.32047 0.0
C675 C 0.32314 0.863 0.2872 0.0
C676 C 0.27301 0.84346 0.32783 0.0
C677 C 0.25618 0.8438 0.31046 0.0
C678 C 0.29987 0.85575 0.29552 0.0
C679 C 0.2617 0.84992 0.28566 0.0
C680 C 0.32722 0.86714 0.26147 0.0
C681 C 0.36295 0.87386 0.29829 0.0
N682 N 0.28308 0.85567 0.27893 0.0
N683 N 0.34109 0.86637 0.30473 0.0
H684 H 0.15339 0.48907 0.29867 0.0
H685 H 0.1191 0.36068 0.3516 0.0
H686 H 0.08662 0.44136 0.32435 0.0
H687 H 0.18549 0.40681 0.32425 0.0
H688 H 0.10756 0.39084 0.34287 0.0
H689 H 0.16596 0.45984 0.30876 0.0
C690 C 0.14136 0.47245 0.30641 0.0
C691 C 0.1189 0.46765 0.31064 0.0
C692 C 0.12468 0.39443 0.33883 0.0
C693 C 0.1332 0.43415 0.32229 0.0
C694 C 0.13134 0.3772 0.34385 0.0
C695 C 0.15334 0.38115 0.33865 0.0
C696 C 0.14008 0.41584 0.32847 0.0
C697 C 0.16838 0.40297 0.32861 0.0
C698 C 0.14856 0.45578 0.31219 0.0
C699 C 0.10408 0.44582 0.32074 0.0
N700 N 0.16145 0.41945 0.32379 0.0
N701 N 0.11149 0.42991 0.32621 0.0
H702 H 0.34488 0.49121 0.25426 0.0
H703 H 0.2818 0.39311 0.35089 0.0
H704 H 0.38228 0.47569 0.31326 0.0
H705 H 0.24371 0.39935 0.28454 0.0
H706 H 0.3188 0.42429 0.33793 0.0
H707 H 0.30759 0.4587 0.26567 0.0
C708 C 0.34526 0.48098 0.26962 0.0
C709 C 0.36673 0.4862 0.28288 0.0
C710 C 0.30239 0.41882 0.3261 0.0
C711 C 0.32416 0.44903 0.296 0.0
C712 C 0.28128 0.40103 0.33351 0.0
C713 C 0.25977 0.39377 0.31875 0.0
C714 C 0.30198 0.42954 0.30385 0.0
C715 C 0.26 0.40453 0.29642 0.0
C716 C 0.32396 0.46238 0.27606 0.0
C717 C 0.36616 0.47231 0.30254 0.0
N718 N 0.28082 0.42202 0.28968 0.0
N719 N 0.34523 0.45443 0.30855 0.0
H720 H 0.47727 0.82742 0.23864 0.0
H721 H 0.58395 0.87131 0.35305 0.0
H722 H 0.49672 0.88626 0.30536 0.0
H723 H 0.57144 0.82183 0.28029 0.0
H724 H 0.55094 0.87564 0.33694 0.0
H725 H 0.51046 0.82351 0.25467 0.0
C726 C 0.48849 0.83949 0.25669 0.0
C727 C 0.48418 0.8572 0.27068 0.0
C728 C 0.55544 0.86387 0.32446 0.0
C729 C 0.52224 0.8528 0.28916 0.0
C730 C 0.57425 0.8614 0.33366 0.0
C731 C 0.58035 0.84619 0.31795 0.0
C732 C 0.54256 0.8509 0.29944 0.0
C733 C 0.56726 0.83375 0.293 0.0
C734 C 0.50748 0.83729 0.2658 0.0
C735 C 0.49936 0.87236 0.29393 0.0
N736 N 0.54893 0.83631 0.28454 0.0
N737 N 0.51767 0.86978 0.30246 0.0
H738 H 0.16669 0.63876 0.32467 0.0
H739 H 0.1149 0.73028 0.34116 0.0
H740 H 0.09265 0.61215 0.32306 0.0
H741 H 0.18774 0.75564 0.3344 0.0
H742 H 0.10722 0.68747 0.34097 0.0
H743 H 0.1755 0.68222 0.33547 0.0
C744 C 0.1523 0.64201 0.32697 0.0
C745 C 0.12886 0.62178 0.32257 0.0
C746 C 0.12491 0.70246 0.33969 0.0
C747 C 0.13882 0.67152 0.33464 0.0
C748 C 0.12932 0.72692 0.33977 0.0
C749 C 0.15195 0.74659 0.33749 0.0
C750 C 0.14327 0.69762 0.33737 0.0
C751 C 0.16994 0.74107 0.33591 0.0
C752 C 0.15734 0.66686 0.33302 0.0
C753 C 0.11096 0.62717 0.326 0.0
N754 N 0.16518 0.7171 0.33574 0.0
N755 N 0.11629 0.65153 0.33154 0.0
H756 H 0.769 0.03874 0.36391 0.0
H757 H 0.7301 0.89839 0.38572 0.0
H758 H 0.80625 0.02277 0.42265 0.0
H759 H 0.68802 0.91622 0.33586 0.0
H760 H 0.76013 0.94344 0.39661 0.0
H761 H 0.74105 -0.00653 0.35067 0.0
C762 C 0.77134 0.02571 0.37401 0.0
C763 C 0.78995 0.03459 0.39451 0.0
C764 C 0.74435 0.93745 0.38321 0.0
C765 C 0.75795 0.98262 0.37938 0.0
C766 C 0.72725 0.91173 0.37688 0.0
C767 C 0.70647 0.9035 0.35988 0.0
C768 C 0.74071 0.95506 0.37235 0.0
C769 C 0.70369 0.92167 0.34915 0.0
C770 C 0.75534 -0.00016 0.36644 0.0
C771 C 0.7921 0.01678 0.40682 0.0
N772 N 0.72058 0.94657 0.35559 0.0
N773 N 0.77627 -0.00837 0.39908 0.0
H774 H 0.94925 0.73008 0.36152 0.0
H775 H 0.08955 0.82115 0.39293 0.0
H776 H 0.98466 0.79707 0.42152 0.0
H777 H 0.05465 0.759 0.3276 0.0
H778 H 0.05119 0.81084 0.40535 0.0
H779 H 0.98757 0.7387 0.3503 0.0
C780 C 0.96507 0.74658 0.37237 0.0
C781 C 0.96372 0.76291 0.39246 0.0
C782 C 0.05187 0.7994 0.38832 0.0
C783 C 0.00764 0.77285 0.37975 0.0
C784 C 0.07376 0.80526 0.38126 0.0
C785 C 0.07519 0.79093 0.35917 0.0
C786 C 0.03122 0.77902 0.3732 0.0
C787 C 0.05425 0.77052 0.34475 0.0
C788 C 0.98694 0.75149 0.36593 0.0
C789 C 0.98482 0.78399 0.40585 0.0
N790 N 0.03309 0.76518 0.35199 0.0
N791 N 0.00588 0.78834 0.39925 0.0
H792 H 0.1871 0.16134 0.39437 0.0
H793 H 0.22225 0.28883 0.33889 0.0
H794 H 0.25369 0.2069 0.36726 0.0
H795 H 0.15898 0.2471 0.37352 0.0
H796 H 0.23315 0.25784 0.34684 0.0
H797 H 0.17566 0.19149 0.38471 0.0
C798 C 0.19932 0.17768 0.38637 0.0
C799 C 0.22141 0.18162 0.38167 0.0
C800 C 0.21687 0.25545 0.35264 0.0
C801 C 0.20839 0.21623 0.37049 0.0
C802 C 0.21059 0.27311 0.34805 0.0
C803 C 0.18966 0.27061 0.35555 0.0
C804 C 0.20209 0.23509 0.36477 0.0
C805 C 0.17529 0.24986 0.36741 0.0
C806 C 0.19278 0.19491 0.38086 0.0
C807 C 0.23651 0.20313 0.37125 0.0
N808 N 0.18179 0.23294 0.37166 0.0
N809 N 0.22972 0.21962 0.36601 0.0
H810 H 0.63358 0.58264 0.71456 0.0
H811 H 0.75816 0.59278 0.72678 0.0
H812 H 0.64206 0.52544 0.74457 0.0
H813 H 0.73286 0.61776 0.66508 0.0
H814 H 0.71885 0.5736 0.74115 0.0
H815 H 0.67396 0.60251 0.70476 0.0
C816 C 0.64401 0.5744 0.71934 0.0
C817 C 0.6344 0.55224 0.73019 0.0
C818 C 0.72206 0.58327 0.72445 0.0
C819 C 0.68063 0.57496 0.71911 0.0
C820 C 0.74435 0.59415 0.71629 0.0
C821 C 0.74859 0.60671 0.69469 0.0
C822 C 0.70434 0.58562 0.71122 0.0
C823 C 0.73026 0.60813 0.68176 0.0
C824 C 0.667 0.58568 0.71363 0.0
C825 C 0.64878 0.5424 0.73599 0.0
N826 N 0.70901 0.59789 0.69034 0.0
N827 N 0.67126 0.55385 0.73037 0.0
H828 H 0.47923 0.08387 0.70047 0.0
H829 H 0.39189 0.12834 0.74973 0.0
H830 H 0.46945 0.09492 0.78162 0.0
H831 H 0.40508 0.1229 0.66938 0.0
H832 H 0.42103 0.11698 0.76186 0.0
H833 H 0.45298 0.09911 0.68865 0.0
C834 C 0.47169 0.08962 0.71582 0.0
C835 C 0.47647 0.088 0.74206 0.0
C836 C 0.41765 0.11835 0.74158 0.0
C837 C 0.44635 0.10532 0.72867 0.0
C838 C 0.40101 0.12482 0.73467 0.0
C839 C 0.39609 0.12645 0.70853 0.0
C840 C 0.42936 0.11337 0.72216 0.0
C841 C 0.40839 0.12178 0.68976 0.0
C842 C 0.45669 0.09831 0.70906 0.0
C843 C 0.46622 0.09575 0.76112 0.0
N844 N 0.4244 0.11533 0.69692 0.0
N845 N 0.45157 0.10394 0.75403 0.0
H846 H 0.89801 0.36191 0.67724 0.0
H847 H 0.80666 0.21989 0.69457 0.0
H848 H 0.84062 0.34192 0.72269 0.0
H849 H 0.87077 0.24227 0.6608 0.0
H850 H 0.8155 0.26351 0.69935 0.0
H851 H 0.88452 0.31707 0.66485 0.0
C852 C 0.88239 0.34809 0.68434 0.0
C853 C 0.87059 0.35573 0.7013 0.0
C854 C 0.82756 0.25882 0.69076 0.0
C855 C 0.85517 0.30436 0.68734 0.0
C856 C 0.82252 0.23391 0.68801 0.0
C857 C 0.83809 0.22741 0.67746 0.0
C858 C 0.84826 0.27736 0.68281 0.0
C859 C 0.85835 0.24641 0.66927 0.0
C860 C 0.87476 0.32249 0.67735 0.0
C861 C 0.85039 0.33693 0.70978 0.0
N862 N 0.86287 0.27051 0.67219 0.0
N863 N 0.84344 0.31214 0.70289 0.0
H864 H 0.16168 0.95819 0.63519 0.0
H865 H 0.29185 0.0631 0.70162 0.0
H866 H 0.20736 0.94281 0.68222 0.0
H867 H 0.24391 0.08059 0.66261 0.0
H868 H 0.25976 0.01949 0.69797 0.0
H869 H 0.18969 0.00347 0.64892 0.0
C870 C 0.1774 0.96431 0.64876 0.0
C871 C 0.18238 0.94666 0.6572 0.0
C872 C 0.25617 0.03288 0.69038 0.0
C873 C 0.21463 -0.00155 0.67271 0.0
C874 C 0.27455 0.0578 0.69233 0.0
C875 C 0.27064 0.07549 0.68212 0.0
C876 C 0.23372 0.02543 0.67786 0.0
C877 C 0.24775 0.06756 0.67063 0.0
C878 C 0.19342 0.99019 0.65654 0.0
C879 C 0.20293 0.95571 0.67495 0.0
N880 N 0.2302 0.04303 0.66855 0.0
N881 N 0.21845 0.98097 0.6818 0.0
H882 H 0.00247 0.18728 0.56798 0.0
H883 H 0.9356 0.19923 0.68735 0.0
H884 H 0.03809 0.22764 0.6461 0.0
H885 H 0.90035 0.15857 0.60932 0.0
H886 H 0.97322 0.20845 0.67319 0.0
H887 H 0.96477 0.17482 0.58341 0.0
C888 C 0.00238 0.19339 0.58844 0.0
C889 C 0.0235 0.20866 0.60574 0.0
C890 C 0.95727 0.19745 0.65918 0.0
C891 C 0.98032 0.19456 0.62352 0.0
C892 C 0.93583 0.19222 0.66725 0.0
C893 C 0.91495 0.17819 0.64943 0.0
C894 C 0.95778 0.18859 0.63309 0.0
C895 C 0.91611 0.16949 0.62364 0.0
C896 C 0.98081 0.18629 0.59723 0.0
C897 C 0.02225 0.21593 0.63205 0.0
N898 N 0.9372 0.17488 0.61621 0.0
N899 N 0.00103 0.20893 0.64011 0.0
H900 H 0.81917 0.82536 0.61607 0.0
H901 H 0.79242 0.70383 0.67915 0.0
H902 H 0.75666 0.78141 0.65098 0.0
H903 H 0.85109 0.74147 0.63646 0.0
H904 H 0.78048 0.73374 0.67092 0.0
H905 H 0.83236 0.79632 0.62499 0.0
C906 C 0.80821 0.80961 0.62559 0.0
C907 C 0.78675 0.8058 0.63277 0.0
C908 C 0.79599 0.73553 0.66336 0.0
C909 C 0.80179 0.77259 0.64311 0.0
C910 C 0.80289 0.71845 0.66812 0.0
C911 C 0.82282 0.7201 0.65848 0.0
C912 C 0.80909 0.75451 0.64888 0.0
C913 C 0.83561 0.73948 0.64427 0.0
C914 C 0.81576 0.79304 0.63066 0.0
C915 C 0.77329 0.78508 0.64506 0.0
N916 N 0.82852 0.75594 0.63988 0.0
N917 N 0.78105 0.76931 0.64986 0.0
H918 H 0.04712 0.77477 0.61173 0.0
H919 H 0.93359 0.76534 0.66394 0.0
H920 H 0.03936 0.83972 0.62778 0.0
H921 H 0.9322 0.70147 0.61894 0.0
H922 H 0.97338 0.79308 0.65394 0.0
H923 H 0.00598 0.74747 0.61749 0.0
C924 C 0.03674 0.78327 0.61642 0.0
C925 C 0.04666 0.80954 0.61935 0.0
C926 C 0.96429 0.77302 0.6461 0.0
C927 C -0.0003 0.77847 0.62616 0.0
C928 C 0.94166 0.75722 0.65184 0.0
C929 C 0.92976 0.73116 0.64228 0.0
C930 C 0.97515 0.76254 0.63109 0.0
C931 C 0.94087 0.72151 0.62667 0.0
C932 C 0.01325 0.76768 0.61959 0.0
C933 C 0.03238 0.81955 0.62532 0.0
N934 N 0.96308 0.73718 0.62176 0.0
N935 N 0.00965 0.80401 0.62878 0.0
H936 H 0.19046 0.23741 0.65925 0.0
H937 H 0.24767 0.15355 0.62134 0.0
H938 H 0.16294 0.17852 0.5908 0.0
H939 H 0.26388 0.19994 0.69739 0.0
H940 H 0.21805 0.1642 0.60846 0.0
H941 H 0.21907 0.22567 0.67236 0.0
C942 C 0.1904 0.22197 0.64699 0.0
C943 C 0.17427 0.20892 0.62389 0.0
C944 C 0.22804 0.17198 0.62799 0.0
C945 C 0.20709 0.19549 0.63871 0.0
C946 C 0.24494 0.16594 0.6353 0.0
C947 C 0.25814 0.17589 0.66044 0.0
C948 C 0.22454 0.18825 0.6459 0.0
C949 C 0.254 0.19186 0.67782 0.0
C950 C 0.20672 0.21526 0.65452 0.0
C951 C 0.17501 0.18906 0.6088 0.0
N952 N 0.23762 0.19763 0.6702 0.0
N953 N 0.19122 0.18303 0.61641 0.0
H954 H 0.75543 0.94216 0.65086 0.0
H955 H 0.84857 0.08954 0.66428 0.0
H956 H 0.82977 0.97346 0.64828 0.0
H957 H 0.77562 0.05971 0.67418 0.0
H958 H 0.84232 0.04723 0.66148 0.0
H959 H 0.76286 0.98495 0.66333 0.0
C960 C 0.77337 0.95799 0.65329 0.0
C961 C 0.79197 0.95423 0.64815 0.0
C962 C 0.82769 0.04991 0.66443 0.0
C963 C 0.80054 0.00326 0.66213 0.0
C964 C 0.83121 0.0741 0.66592 0.0
C965 C 0.81253 0.07819 0.66925 0.0
C966 C 0.80526 0.0295 0.66606 0.0
C967 C 0.7905 0.05743 0.67149 0.0
C968 C 0.77758 0.98244 0.66035 0.0
C969 C 0.81486 0.97546 0.65179 0.0
N970 N 0.78742 0.03393 0.66964 0.0
N971 N 0.81844 -0.00093 0.65824 0.0
H972 H 0.44456 0.36274 0.7031 0.0
H973 H 0.40634 0.22122 0.71886 0.0
H974 H 0.48108 0.34483 0.76064 0.0
H975 H 0.36352 0.24022 0.67186 0.0
H976 H 0.43641 0.26614 0.73045 0.0
H977 H 0.41709 0.31761 0.6878 0.0
C978 C 0.44685 0.34932 0.71249 0.0
C979 C 0.46507 0.35758 0.73329 0.0
C980 C 0.42049 0.26044 0.71748 0.0
C981 C 0.43369 0.30585 0.71579 0.0
C982 C 0.40335 0.23479 0.71073 0.0
C983 C 0.38232 0.22694 0.69442 0.0
C984 C 0.41661 0.27837 0.70777 0.0
C985 C 0.37939 0.2454 0.68461 0.0
C986 C 0.43113 0.32354 0.70375 0.0
C987 C 0.46721 0.33931 0.74465 0.0
N988 N 0.39631 0.27025 0.69149 0.0
N989 N 0.45167 0.31428 0.73577 0.0
H990 H 0.60953 0.06836 0.70397 0.0
H991 H 0.75025 0.1558 0.73092 0.0
H992 H 0.64729 0.13478 0.76449 0.0
H993 H 0.71249 0.0968 0.66315 0.0
H994 H 0.71267 0.14698 0.74479 0.0
H995 H 0.64702 0.07709 0.68989 0.0
C996 C 0.6257 0.08478 0.7143 0.0
C997 C 0.62526 0.10087 0.73545 0.0
C998 C 0.71256 0.13597 0.72685 0.0
C999 C 0.66825 0.11092 0.71948 0.0
C1000 C 0.73401 0.14099 0.71896 0.0
C1001 C 0.7344 0.12703 0.69584 0.0
C1002 C 0.69135 0.11675 0.71159 0.0
C1003 C 0.7129 0.10801 0.68108 0.0
C1004 C 0.6471 0.08977 0.70623 0.0
C1005 C 0.64677 0.12188 0.74808 0.0
N1006 N 0.69221 0.10339 0.68923 0.0
N1007 N 0.66737 0.12625 0.73994 0.0
H1008 H 0.84687 0.49853 0.72444 0.0
H1009 H 0.89043 0.62691 0.66758 0.0
H1010 H 0.91534 0.54118 0.70015 0.0
H1011 H 0.82141 0.58253 0.69013 0.0
H1012 H 0.89972 0.59542 0.67843 0.0
H1013 H 0.83718 0.52898 0.71132 0.0
C1014 C 0.85988 0.51431 0.71635 0.0
C1015 C 0.88197 0.51732 0.71344 0.0
C1016 C 0.88251 0.59255 0.68089 0.0
C1017 C 0.87097 0.55232 0.69831 0.0
C1018 C 0.87716 0.61051 0.67465 0.0
C1019 C 0.85509 0.60743 0.67795 0.0
C1020 C 0.86571 0.57138 0.69056 0.0
C1021 C 0.83866 0.58577 0.68724 0.0
C1022 C 0.85432 0.53169 0.70881 0.0
C1023 C 0.89811 0.53813 0.70278 0.0
N1024 N 0.84433 0.56866 0.69328 0.0
N1025 N 0.89229 0.55485 0.69563 0.0
H1026 H 0.43291 0.90562 0.16312 0.0
H1027 H 0.54437 0.0016 0.10535 0.0
H1028 H 0.49805 0.95871 0.21386 0.0
H1029 H 0.47531 0.98521 0.07489 0.0
H1030 H 0.52821 0.98094 0.14265 0.0
H1031 H 0.44849 0.92919 0.12726 0.0
C1032 C 0.45051 0.92218 0.16667 0.0
C1033 C 0.46428 0.93024 0.19143 0.0
C1034 C 0.51662 0.98187 0.12777 0.0
C1035 C 0.48215 0.95691 0.15059 0.0
C1036 C 0.52577 -0.00642 0.10649 0.0
C1037 C 0.51099 -0.00538 0.08679 0.0
C1038 C 0.49244 0.9707 0.12905 0.0
C1039 C 0.48709 0.98412 0.08931 0.0
C1040 C 0.45927 0.93567 0.14631 0.0
C1041 C 0.48687 0.95192 0.19507 0.0
N1042 N 0.47842 0.97223 0.10991 0.0
N1043 N 0.49525 0.96436 0.17475 0.0
H1044 H 0.04624 0.47994 0.20806 0.0
H1045 H 0.02222 0.54774 0.10002 0.0
H1046 H 0.09719 0.55588 0.19847 0.0
H1047 H -0.00766 0.46696 0.08674 0.0
H1048 H 0.04626 0.55148 0.14016 0.0
H1049 H 0.02288 0.4748 0.16665 0.0
C1050 C 0.0526 0.49542 0.19717 0.0
C1051 C 0.0737 0.51835 0.20672 0.0
C1052 C 0.03442 0.53294 0.12844 0.0
C1053 C 0.04688 0.51281 0.15991 0.0
C1054 C 0.02061 0.53081 0.10574 0.0
C1055 C 0.00539 0.50703 0.09024 0.0
C1056 C 0.03256 0.51108 0.13587 0.0
C1057 C 0.00401 0.48564 0.09826 0.0
C1058 C 0.03929 0.49247 0.1736 0.0
C1059 C 0.08111 0.53782 0.19181 0.0
N1060 N 0.01735 0.48812 0.12067 0.0
N1061 N 0.06758 0.53472 0.16933 0.0
H1062 H 0.42981 0.49574 0.17876 0.0
H1063 H 0.53519 0.52721 0.09943 0.0
H1064 H 0.49945 0.52181 0.21795 0.0
H1065 H 0.46563 0.46448 0.06806 0.0
H1066 H 0.52219 0.52897 0.14246 0.0
H1067 H 0.44188 0.48682 0.13692 0.0
C1068 C 0.44752 0.49927 0.1786 0.0
C1069 C 0.4637 0.50961 0.2018 0.0
C1070 C 0.5098 0.51476 0.12613 0.0
C1071 C 0.47765 0.50005 0.15418 0.0
C1072 C 0.51716 0.51382 0.1016 0.0
C1073 C 0.50127 0.49592 0.08011 0.0
C1074 C 0.4863 0.49801 0.12898 0.0
C1075 C 0.47818 0.47891 0.08399 0.0
C1076 C 0.45435 0.49415 0.15479 0.0
C1077 C 0.48642 0.5138 0.20053 0.0
N1078 N 0.47123 0.48056 0.10792 0.0
N1079 N 0.49286 0.50942 0.17702 0.0
H1080 H 0.93063 0.49756 0.83008 0.0
H1081 H 0.98343 0.44632 0.93147 0.0
H1082 H 0.96029 0.45148 0.80741 0.0
H1083 H 0.98204 0.51446 0.95487 0.0
H1084 H 0.97071 0.44554 0.88605 0.0
H1085 H 0.94598 0.50246 0.87621 0.0
C1086 C 0.94053 0.4887 0.83472 0.0
C1087 C 0.94403 0.47394 0.81482 0.0
C1088 C 0.9732 0.46071 0.90107 0.0
C1089 C 0.96121 0.47916 0.86733 0.0
C1090 C 0.98037 0.46111 0.92703 0.0
C1091 C 0.98368 0.48042 0.94692 0.0
C1092 C 0.96903 0.47961 0.8949 0.0
C1093 C 0.97946 0.4991 0.94007 0.0
C1094 C 0.94926 0.49151 0.861 0.0
C1095 C 0.95702 0.46293 0.82199 0.0
N1096 N 0.97219 0.49818 0.91455 0.0
N1097 N 0.96489 0.46555 0.84762 0.0
H1098 H 0.56121 0.5251 0.83417 0.0
H1099 H 0.46023 0.43882 0.91591 0.0
H1100 H 0.50171 0.45148 0.80039 0.0
H1101 H 0.52057 0.51215 0.94877 0.0
H1102 H 0.47525 0.4424 0.87349 0.0
H1103 H 0.54675 0.52014 0.8766 0.0
C1104 C 0.5452 0.50778 0.83576 0.0
C1105 C 0.53292 0.48844 0.81387 0.0
C1106 C 0.48523 0.45766 0.89003 0.0
C1107 C 0.51608 0.48268 0.86229 0.0
C1108 C 0.47664 0.45563 0.91416 0.0
C1109 C 0.48925 0.47516 0.93579 0.0
C1110 C 0.50651 0.47945 0.88761 0.0
C1111 C 0.5104 0.49656 0.9326 0.0
C1112 C 0.53695 0.50493 0.85998 0.0
C1113 C 0.51218 0.46647 0.81695 0.0
N1114 N 0.51835 0.49813 0.90898 0.0
N1115 N 0.50437 0.4642 0.84071 0.0
H1116 H 0.50013 -0.00454 0.80598 0.0
H1117 H 0.53286 0.02796 0.96174 0.0
H1118 H 0.56287 0.06292 0.8473 0.0
H1119 H 0.47529 0.95631 0.92052 0.0
H1120 H 0.54591 0.03966 0.91988 0.0
H1121 H 0.49243 0.97924 0.84719 0.0
C1122 C 0.51246 0.00675 0.82364 0.0
C1123 C 0.53206 0.03073 0.8232 0.0
C1124 C 0.53067 0.02117 0.91992 0.0
C1125 C 0.52318 0.01235 0.87054 0.0
C1126 C 0.52345 0.01436 0.94389 0.0
C1127 C 0.50342 0.99089 0.94457 0.0
C1128 C 0.51745 0.00454 0.89639 0.0
C1129 C 0.49096 0.97453 0.92076 0.0
C1130 C 0.50803 -0.00254 0.84719 0.0
C1131 C 0.54747 0.04441 0.8467 0.0
N1132 N 0.4981 0.98172 0.89758 0.0
N1133 N 0.54256 0.03515 0.86946 0.0
H1134 H 0.17211 0.27386 0.53167 0.0
H1135 H 0.15367 0.34029 0.4169 0.0
H1136 H 0.11948 0.29503 0.52693 0.0
H1137 H 0.21057 0.32607 0.42641 0.0
H1138 H 0.14122 0.32453 0.45772 0.0
H1139 H 0.18708 0.29386 0.49378 0.0
C1140 C 0.16378 0.28283 0.52277 0.0
C1141 C 0.14443 0.28264 0.53244 0.0
C1142 C 0.15649 0.32494 0.45096 0.0
C1143 C 0.1614 0.30547 0.48894 0.0
C1144 C 0.16345 0.33374 0.4276 0.0
C1145 C 0.18285 0.33398 0.41818 0.0
C1146 C 0.16909 0.31636 0.46492 0.0
C1147 C 0.19542 0.32605 0.43304 0.0
C1148 C 0.17234 0.29426 0.50113 0.0
C1149 C 0.1344 0.29465 0.52013 0.0
N1150 N 0.18822 0.31736 0.4556 0.0
N1151 N 0.1429 0.30542 0.49893 0.0
H1152 H 0.70968 0.81598 0.53488 0.0
H1153 H 0.68101 0.88122 0.42744 0.0
H1154 H 0.76001 0.8911 0.52243 0.0
H1155 H 0.65241 0.80066 0.41477 0.0
H1156 H 0.70618 0.88579 0.46703 0.0
H1157 H 0.68469 0.81019 0.49456 0.0
C1158 C 0.71554 0.83114 0.52358 0.0
C1159 C 0.73696 0.85402 0.53196 0.0
C1160 C 0.69433 0.86713 0.45558 0.0
C1161 C 0.70831 0.84777 0.48647 0.0
C1162 C 0.67988 0.86451 0.43322 0.0
C1163 C 0.66473 0.84055 0.41804 0.0
C1164 C 0.69315 0.84555 0.46298 0.0
C1165 C 0.66399 0.81946 0.42607 0.0
C1166 C 0.7013 0.82784 0.50065 0.0
C1167 C 0.74371 0.87309 0.51661 0.0
N1168 N 0.67794 0.82241 0.44814 0.0
N1169 N 0.7293 0.86965 0.49478 0.0
H1170 H 0.1141 0.8307 0.51813 0.0
H1171 H 0.21019 0.87721 0.421 0.0
H1172 H 0.18871 0.86988 0.54563 0.0
H1173 H 0.14212 0.80899 0.39833 0.0
H1174 H 0.20104 0.88052 0.46599 0.0
H1175 H 0.12252 0.82792 0.47274 0.0
C1176 C 0.13221 0.83865 0.51462 0.0
C1177 C 0.15073 0.85041 0.53564 0.0
C1178 C 0.18808 0.86495 0.45105 0.0
C1179 C 0.16042 0.84776 0.48403 0.0
C1180 C 0.19324 0.86311 0.42545 0.0
C1181 C 0.17677 0.84295 0.40596 0.0
C1182 C 0.16619 0.8467 0.457 0.0
C1183 C 0.15511 0.82509 0.4127 0.0
C1184 C 0.13698 0.83703 0.48879 0.0
C1185 C 0.17389 0.86045 0.53001 0.0
N1186 N 0.15036 0.82743 0.43768 0.0
N1187 N 0.1781 0.85908 0.50472 0.0
H1188 H 0.62923 0.7889 0.13383 0.0
H1189 H 0.64064 0.84728 0.28334 0.0
H1190 H 0.58912 0.82334 0.15686 0.0
H1191 H 0.64836 0.78332 0.25903 0.0
H1192 H 0.6285 0.84615 0.23706 0.0
H1193 H 0.64447 0.7954 0.17989 0.0
C1194 C 0.62384 0.79814 0.14851 0.0
C1195 C 0.60765 0.80534 0.14145 0.0
C1196 C 0.63285 0.8324 0.242 0.0
C1197 C 0.62509 0.81278 0.19429 0.0
C1198 C 0.63964 0.83295 0.26831 0.0
C1199 C 0.64518 0.81514 0.27495 0.0
C1200 C 0.63224 0.81434 0.22236 0.0
C1201 C 0.64411 0.7973 0.25475 0.0
C1202 C 0.63246 0.80169 0.17482 0.0
C1203 C 0.60141 0.81731 0.16145 0.0
N1204 N 0.63788 0.79744 0.22937 0.0
N1205 N 0.61009 0.82059 0.18705 0.0
H1206 H 0.18398 0.85699 0.13574 0.0
H1207 H 0.18132 0.80159 0.26801 0.0
H1208 H 0.20827 0.8056 0.1457 0.0
H1209 H 0.14336 0.83879 0.25109 0.0
H1210 H 0.19442 0.80604 0.22477 0.0
H1211 H 0.17201 0.85372 0.17955 0.0
C1212 C 0.18671 0.84495 0.14714 0.0
C1213 C 0.1967 0.83115 0.13691 0.0
C1214 C 0.18323 0.81323 0.2305 0.0
C1215 C 0.18328 0.8275 0.18708 0.0
C1216 C 0.17587 0.81083 0.2552 0.0
C1217 C 0.16133 0.81993 0.26305 0.0
C1218 C 0.17605 0.82492 0.2136 0.0
C1219 C 0.15454 0.83149 0.24568 0.0
C1220 C 0.17982 0.84303 0.17209 0.0
C1221 C 0.19999 0.81595 0.15253 0.0
N1222 N 0.162 0.83372 0.22175 0.0
N1223 N 0.19334 0.81456 0.17687 0.0
H1224 H 0.22662 0.3757 0.17321 0.0
H1225 H 0.1266 0.31409 0.26395 0.0
H1226 H 0.15261 0.34474 0.14778 0.0
H1227 H 0.19482 0.32283 0.2821 0.0
H1228 H 0.13687 0.32699 0.22177 0.0
H1229 H 0.21657 0.35807 0.21374 0.0
C1230 C 0.20829 0.36504 0.176 0.0
C1231 C 0.19046 0.36188 0.15711 0.0
C1232 C 0.14964 0.32604 0.23488 0.0
C1233 C 0.17893 0.34191 0.20336 0.0
C1234 C 0.14377 0.31869 0.25899 0.0
C1235 C 0.16003 0.31776 0.27662 0.0
C1236 C 0.17204 0.33274 0.22837 0.0
C1237 C 0.18198 0.3238 0.26917 0.0
C1238 C 0.20258 0.35498 0.1991 0.0
C1239 C 0.16701 0.34785 0.16178 0.0
N1240 N 0.18749 0.33131 0.24564 0.0
N1241 N 0.16198 0.33862 0.18446 0.0
H1242 H 0.78147 0.62893 0.84452 0.0
H1243 H 0.87985 0.66708 0.74886 0.0
H1244 H 0.83829 0.61427 0.85299 0.0
H1245 H 0.81745 0.67117 0.73356 0.0
H1246 H 0.86677 0.65132 0.78937 0.0
H1247 H 0.79624 0.64796 0.80609 0.0
C1248 C 0.79713 0.62981 0.8384 0.0
C1249 C 0.80862 0.61988 0.85198 0.0
C1250 C 0.85594 0.65569 0.77721 0.0
C1251 C 0.82561 0.64169 0.80794 0.0
C1252 C 0.86344 0.66477 0.75416 0.0
C1253 C 0.8496 0.67025 0.73787 0.0
C1254 C 0.8345 0.65222 0.78409 0.0
C1255 C 0.82849 0.66693 0.74554 0.0
C1256 C 0.80552 0.64064 0.8164 0.0
C1257 C 0.82882 0.62159 0.84309 0.0
N1258 N 0.82154 0.65806 0.76812 0.0
N1259 N 0.83665 0.63224 0.82162 0.0
H1260 H 0.38422 0.14674 0.87689 0.0
H1261 H 0.36043 0.20774 0.76254 0.0
H1262 H 0.43829 0.21792 0.85935 0.0
H1263 H 0.32924 0.1269 0.75349 0.0
H1264 H 0.38566 0.21289 0.80233 0.0
H1265 H 0.36038 0.13953 0.835 0.0
C1266 C 0.39117 0.16069 0.86412 0.0
C1267 C 0.41326 0.18294 0.87157 0.0
C1268 C 0.37328 0.19405 0.79159 0.0
C1269 C 0.38594 0.17515 0.8243 0.0
C1270 C 0.35881 0.19111 0.76912 0.0
C1271 C 0.34282 0.16689 0.75496 0.0
C1272 C 0.37125 0.17255 0.8002 0.0
C1273 C 0.34145 0.14589 0.76401 0.0
C1274 C 0.37759 0.15657 0.84031 0.0
C1275 C 0.42142 0.20044 0.85433 0.0
N1276 N 0.35537 0.14916 0.78627 0.0
N1277 N 0.40761 0.19635 0.83167 0.0
H1278 H 0.83334 0.18567 0.88517 0.0
H1279 H 0.79467 0.13058 0.73201 0.0
H1280 H 0.76378 0.16174 0.84741 0.0
H1281 H 0.86408 0.19296 0.76502 0.0
H1282 H 0.78217 0.13146 0.77566 0.0
H1283 H 0.84374 0.17677 0.84234 0.0
C1284 C 0.82009 0.17804 0.86797 0.0
C1285 C 0.79773 0.17469 0.86979 0.0
C1286 C 0.80013 0.14484 0.77322 0.0
C1287 C 0.80954 0.16444 0.82094 0.0
C1288 C 0.80721 0.14449 0.7484 0.0
C1289 C 0.83025 0.16216 0.74488 0.0
C1290 C 0.81648 0.16241 0.79467 0.0
C1291 C 0.84607 0.17923 0.76687 0.0
C1292 C 0.82611 0.17315 0.84357 0.0
C1293 C 0.78129 0.16483 0.84681 0.0
N1294 N 0.83891 0.1789 0.79088 0.0
N1295 N 0.78755 0.16011 0.82323 0.0
H1296 H 0.26976 0.15895 0.49381 0.0
H1297 H 0.31718 0.10337 0.59616 0.0
H1298 H 0.29896 0.11224 0.472 0.0
H1299 H 0.31569 0.17142 0.61979 0.0
H1300 H 0.30571 0.10349 0.55055 0.0
H1301 H 0.28262 0.16174 0.54028 0.0
C1302 C 0.27902 0.14948 0.49873 0.0
C1303 C 0.2832 0.13525 0.47894 0.0
C1304 C 0.30787 0.11841 0.56568 0.0
C1305 C 0.29751 0.13805 0.53184 0.0
C1306 C 0.31431 0.11829 0.59173 0.0
C1307 C 0.31733 0.13739 0.61173 0.0
C1308 C 0.30415 0.13763 0.55953 0.0
C1309 C 0.31338 0.15626 0.60491 0.0
C1310 C 0.28632 0.15108 0.52521 0.0
C1311 C 0.29528 0.12338 0.48648 0.0
N1312 N 0.30688 0.15587 0.5793 0.0
N1313 N 0.30178 0.12486 0.51228 0.0
H1314 H 0.89353 0.19782 0.50066 0.0
H1315 H 0.79058 0.10978 0.57925 0.0
H1316 H 0.83032 0.12901 0.46291 0.0
H1317 H 0.85259 0.18089 0.61449 0.0
H1318 H 0.8055 0.11473 0.53677 0.0
H1319 H 0.87961 0.1902 0.54302 0.0
C1320 C 0.8768 0.18094 0.50133 0.0
C1321 C 0.86327 0.16379 0.47827 0.0
C1322 C 0.81587 0.12917 0.55385 0.0
C1323 C 0.84701 0.15503 0.52673 0.0
C1324 C 0.80736 0.12635 0.57803 0.0
C1325 C 0.82044 0.1449 0.60035 0.0
C1326 C 0.83759 0.15071 0.5521 0.0
C1327 C 0.84204 0.16602 0.5978 0.0
C1328 C 0.86884 0.17658 0.52553 0.0
C1329 C 0.84168 0.14229 0.48026 0.0
N1330 N 0.84991 0.16836 0.57414 0.0
N1331 N 0.83416 0.13855 0.50408 0.0
H1332 H 0.89468 0.7116 0.49131 0.0
H1333 H 0.79524 0.65361 0.5837 0.0
H1334 H 0.82188 0.68854 0.46963 0.0
H1335 H 0.8626 0.66012 0.60067 0.0
H1336 H 0.80539 0.66647 0.54157 0.0
H1337 H 0.88416 0.69284 0.53113 0.0
C1338 C 0.87648 0.70238 0.49474 0.0
C1339 C 0.85919 0.70188 0.4772 0.0
C1340 C 0.81804 0.6651 0.5544 0.0
C1341 C 0.84714 0.68063 0.52266 0.0
C1342 C 0.81223 0.65776 0.57851 0.0
C1343 C 0.82833 0.65632 0.59588 0.0
C1344 C 0.84021 0.67122 0.54756 0.0
C1345 C 0.85003 0.66176 0.58811 0.0
C1346 C 0.87051 0.69171 0.51746 0.0
C1347 C 0.83589 0.68964 0.48264 0.0
N1348 N 0.85547 0.66921 0.56453 0.0
N1349 N 0.83063 0.67973 0.50492 0.0
loop_
_geom_bond_atom_site_label_1
_geom_bond_atom_site_label_2
_geom_bond_distance
_geom_bond_site_symmetry_2
_ccdc_geom_bond_type
O0 Cd1 2.300 . S
O0 C7 1.275 . S
Cd1 O0 2.300 . S
Cd1 O9 2.381 . S
Cd1 O10 2.378 . S
O2 Cd3 2.385 . S
O2 C7 1.255 . S
Cd3 O2 2.385 . S
Cd3 O4 2.317 . S
O4 Cd3 2.317 . S
O4 C5 1.232 . S
C5 O4 1.232 . S
C5 O6 1.218 . S
O6 C5 1.218 . S
C7 O0 1.275 . S
C7 O2 1.255 . S
C8 O9 1.258 . S
C8 O10 1.256 . S
O9 Cd1 2.381 . S
O9 C8 1.258 . S
O10 Cd1 2.378 . S
O10 C8 1.256 . S
O11 Cd12 2.300 . S
O11 C18 1.275 . S
Cd12 O11 2.300 . S
Cd12 O20 2.381 . S
Cd12 O21 2.378 . S
O13 Cd14 2.385 . S
O13 C18 1.255 . S
Cd14 O13 2.385 . S
Cd14 O15 2.317 . S
O15 Cd14 2.317 . S
O15 C16 1.232 . S
C16 O15 1.232 . S
C16 O17 1.218 . S
O17 C16 1.218 . S
C18 O11 1.275 . S
C18 O13 1.255 . S
C19 O20 1.258 . S
C19 O21 1.256 . S
O20 Cd12 2.381 . S
O20 C19 1.258 . S
O21 Cd12 2.378 . S
O21 C19 1.256 . S
O22 Cd23 2.300 . S
O22 C29 1.275 . S
Cd23 O22 2.300 . S
Cd23 O31 2.381 . S
Cd23 O32 2.378 . S
O24 Cd25 2.385 . S
O24 C29 1.255 . S
Cd25 O24 2.385 . S
Cd25 O26 2.317 . S
O26 Cd25 2.317 . S
O26 C27 1.232 . S
C27 O26 1.232 . S
C27 O28 1.218 . S
O28 C27 1.218 . S
C29 O22 1.275 . S
C29 O24 1.255 . S
C30 O31 1.258 . S
C30 O32 1.256 . S
O31 Cd23 2.381 . S
O31 C30 1.258 . S
O32 Cd23 2.378 . S
O32 C30 1.256 . S
O33 Cd34 2.300 . S
O33 C40 1.275 . S
Cd34 O33 2.300 . S
Cd34 O42 2.381 . S
Cd34 O43 2.378 . S
O35 Cd36 2.385 . S
O35 C40 1.255 . S
Cd36 O35 2.385 . S
Cd36 O37 2.317 . S
O37 Cd36 2.317 . S
O37 C38 1.232 . S
C38 O37 1.232 . S
C38 O39 1.218 . S
O39 C38 1.218 . S
C40 O33 1.275 . S
C40 O35 1.255 . S
C41 O42 1.258 . S
C41 O43 1.256 . S
O42 Cd34 2.381 . S
O42 C41 1.258 . S
O43 Cd34 2.378 . S
O43 C41 1.256 . S
O44 Cd45 2.300 . S
O44 C51 1.275 . S
Cd45 O44 2.300 . S
Cd45 O53 2.381 . S
Cd45 O54 2.378 . S
O46 Cd47 2.385 . S
O46 C51 1.255 . S
Cd47 O46 2.385 . S
Cd47 O48 2.317 . S
O48 Cd47 2.317 . S
O48 C49 1.232 . S
C49 O48 1.232 . S
C49 O50 1.218 . S
O50 C49 1.218 . S
C51 O44 1.275 . S
C51 O46 1.255 . S
C52 O53 1.258 . S
C52 O54 1.256 . S
O53 Cd45 2.381 . S
O53 C52 1.258 . S
O54 Cd45 2.378 . S
O54 C52 1.256 . S
O55 Cd56 2.300 . S
O55 C62 1.275 . S
Cd56 O55 2.300 . S
Cd56 O64 2.381 . S
Cd56 O65 2.378 . S
O57 Cd58 2.385 . S
O57 C62 1.255 . S
Cd58 O57 2.385 . S
Cd58 O59 2.317 . S
O59 Cd58 2.317 . S
O59 C60 1.232 . S
C60 O59 1.232 . S
C60 O61 1.218 . S
O61 C60 1.218 . S
C62 O55 1.275 . S
C62 O57 1.255 . S
C63 O64 1.258 . S
C63 O65 1.256 . S
O64 Cd56 2.381 . S
O64 C63 1.258 . S
O65 Cd56 2.378 . S
O65 C63 1.256 . S
O66 Cd67 2.300 . S
O66 C73 1.275 . S
Cd67 O66 2.300 . S
Cd67 O75 2.381 . S
Cd67 O76 2.378 . S
O68 Cd69 2.385 . S
O68 C73 1.255 . S
Cd69 O68 2.385 . S
Cd69 O70 2.317 . S
O70 Cd69 2.317 . S
O70 C71 1.232 . S
C71 O70 1.232 . S
C71 O72 1.218 . S
O72 C71 1.218 . S
C73 O66 1.275 . S
C73 O68 1.255 . S
C74 O75 1.258 . S
C74 O76 1.256 . S
O75 Cd67 2.381 . S
O75 C74 1.258 . S
O76 Cd67 2.378 . S
O76 C74 1.256 . S
O77 Cd78 2.300 . S
O77 C84 1.275 . S
Cd78 O77 2.300 . S
Cd78 O86 2.381 . S
Cd78 O87 2.378 . S
O79 Cd80 2.385 . S
O79 C84 1.255 . S
Cd80 O79 2.385 . S
Cd80 O81 2.317 . S
O81 Cd80 2.317 . S
O81 C82 1.232 . S
C82 O81 1.232 . S
C82 O83 1.218 . S
O83 C82 1.218 . S
C84 O77 1.275 . S
C84 O79 1.255 . S
C85 O86 1.258 . S
C85 O87 1.256 . S
O86 Cd78 2.381 . S
O86 C85 1.258 . S
O87 Cd78 2.378 . S
O87 C85 1.256 . S
O88 Cd89 2.300 . S
O88 C95 1.275 . S
Cd89 O88 2.300 . S
Cd89 O97 2.381 . S
Cd89 O98 2.378 . S
O90 Cd91 2.385 . S
O90 C95 1.255 . S
Cd91 O90 2.385 . S
Cd91 O92 2.317 . S
O92 Cd91 2.317 . S
O92 C93 1.232 . S
C93 O92 1.232 . S
C93 O94 1.218 . S
O94 C93 1.218 . S
C95 O88 1.275 . S
C95 O90 1.255 . S
C96 O97 1.258 . S
C96 O98 1.256 . S
O97 Cd89 2.381 . S
O97 C96 1.258 . S
O98 Cd89 2.378 . S
O98 C96 1.256 . S
O99 Cd100 2.300 . S
O99 C106 1.275 . S
Cd100 O99 2.300 . S
Cd100 O108 2.381 . S
Cd100 O109 2.378 . S
O101 Cd102 2.385 . S
O101 C106 1.255 . S
Cd102 O101 2.385 . S
Cd102 O103 2.317 . S
O103 Cd102 2.317 . S
O103 C104 1.232 . S
C104 O103 1.232 . S
C104 O105 1.218 . S
O105 C104 1.218 . S
C106 O99 1.275 . S
C106 O101 1.255 . S
C107 O108 1.258 . S
C107 O109 1.256 . S
O108 Cd100 2.381 . S
O108 C107 1.258 . S
O109 Cd100 2.378 . S
O109 C107 1.256 . S
O110 Cd111 2.300 . S
O110 C117 1.275 . S
Cd111 O110 2.300 . S
Cd111 O119 2.381 . S
Cd111 O120 2.378 . S
O112 Cd113 2.385 . S
O112 C117 1.255 . S
Cd113 O112 2.385 . S
Cd113 O114 2.317 . S
O114 Cd113 2.317 . S
O114 C115 1.232 . S
C115 O114 1.232 . S
C115 O116 1.218 . S
O116 C115 1.218 . S
C117 O110 1.275 . S
C117 O112 1.255 . S
C118 O119 1.258 . S
C118 O120 1.256 . S
O119 Cd111 2.381 . S
O119 C118 1.258 . S
O120 Cd111 2.378 . S
O120 C118 1.256 . S
O121 Cd122 2.300 . S
O121 C128 1.275 . S
Cd122 O121 2.300 . S
Cd122 O130 2.381 . S
Cd122 O131 2.378 . S
O123 Cd124 2.385 . S
O123 C128 1.255 . S
Cd124 O123 2.385 . S
Cd124 O125 2.317 . S
O125 Cd124 2.317 . S
O125 C126 1.232 . S
C126 O125 1.232 . S
C126 O127 1.218 . S
O127 C126 1.218 . S
C128 O121 1.275 . S
C128 O123 1.255 . S
C129 O130 1.258 . S
C129 O131 1.256 . S
O130 Cd122 2.381 . S
O130 C129 1.258 . S
O131 Cd122 2.378 . S
O131 C129 1.256 . S
O132 Cd133 2.300 . S
O132 C139 1.275 . S
Cd133 O132 2.300 . S
Cd133 O141 2.381 . S
Cd133 O142 2.378 . S
O134 Cd135 2.385 . S
O134 C139 1.255 . S
Cd135 O134 2.385 . S
Cd135 O136 2.317 . S
O136 Cd135 2.317 . S
O136 C137 1.232 . S
C137 O136 1.232 . S
C137 O138 1.218 . S
O138 C137 1.218 . S
C139 O132 1.275 . S
C139 O134 1.255 . S
C140 O141 1.258 . S
C140 O142 1.256 . S
O141 Cd133 2.381 . S
O141 C140 1.258 . S
O142 Cd133 2.378 . S
O142 C140 1.256 . S
O143 Cd144 2.300 . S
O143 C150 1.275 . S
Cd144 O143 2.300 . S
Cd144 O152 2.381 . S
Cd144 O153 2.378 . S
O145 Cd146 2.385 . S
O145 C150 1.255 . S
Cd146 O145 2.385 . S
Cd146 O147 2.317 . S
O147 Cd146 2.317 . S
O147 C148 1.232 . S
C148 O147 1.232 . S
C148 O149 1.218 . S
O149 C148 1.218 . S
C150 O143 1.275 . S
C150 O145 1.255 . S
C151 O152 1.258 . S
C151 O153 1.256 . S
O152 Cd144 2.381 . S
O152 C151 1.258 . S
O153 Cd144 2.378 . S
O153 C151 1.256 . S
O154 Cd155 2.300 . S
O154 C161 1.275 . S
Cd155 O154 2.300 . S
Cd155 O163 2.381 . S
Cd155 O164 2.378 . S
O156 Cd157 2.385 . S
O156 C161 1.255 . S
Cd157 O156 2.385 . S
Cd157 O158 2.317 . S
O158 Cd157 2.317 . S
O158 C159 1.232 . S
C159 O158 1.232 . S
C159 O160 1.218 . S
O160 C159 1.218 . S
C161 O154 1.275 . S
C161 O156 1.255 . S
C162 O163 1.258 . S
C162 O164 1.256 . S
O163 Cd155 2.381 . S
O163 C162 1.258 . S
O164 Cd155 2.378 . S
O164 C162 1.256 . S
O165 Cd166 2.300 . S
O165 C172 1.275 . S
Cd166 O165 2.300 . S
Cd166 O174 2.381 . S
Cd166 O175 2.378 . S
O167 Cd168 2.385 . S
O167 C172 1.255 . S
Cd168 O167 2.385 . S
Cd168 O169 2.317 . S
O169 Cd168 2.317 . S
O169 C170 1.232 . S
C170 O169 1.232 . S
C170 O171 1.218 . S
O171 C170 1.218 . S
C172 O165 1.275 . S
C172 O167 1.255 . S
C173 O174 1.258 . S
C173 O175 1.256 . S
O174 Cd166 2.381 . S
O174 C173 1.258 . S
O175 Cd166 2.378 . S
O175 C173 1.256 . S
O176 Cd177 2.300 . S
O176 C183 1.275 . S
Cd177 O176 2.300 . S
Cd177 O185 2.381 . S
Cd177 O186 2.378 . S
O178 Cd179 2.385 . S
O178 C183 1.255 . S
Cd179 O178 2.385 . S
Cd179 O180 2.317 . S
O180 Cd179 2.317 . S
O180 C181 1.232 . S
C181 O180 1.232 . S
C181 O182 1.218 . S
O182 C181 1.218 . S
C183 O176 1.275 . S
C183 O178 1.255 . S
C184 O185 1.258 . S
C184 O186 1.256 . S
O185 Cd177 2.381 . S
O185 C184 1.258 . S
O186 Cd177 2.378 . S
O186 C184 1.256 . S
O187 Cd188 2.300 . S
O187 C194 1.275 . S
Cd188 O187 2.300 . S
Cd188 O196 2.381 . S
Cd188 O197 2.378 . S
O189 Cd190 2.385 . S
O189 C194 1.255 . S
Cd190 O189 2.385 . S
Cd190 O191 2.317 . S
O191 Cd190 2.317 . S
O191 C192 1.232 . S
C192 O191 1.232 . S
C192 O193 1.218 . S
O193 C192 1.218 . S
C194 O187 1.275 . S
C194 O189 1.255 . S
C195 O196 1.258 . S
C195 O197 1.256 . S
O196 Cd188 2.381 . S
O196 C195 1.258 . S
O197 Cd188 2.378 . S
O197 C195 1.256 . S
Tb198 O201 2.453 . S
Tb198 O202 2.596 1_545 S
Tb198 O203 2.374 1_545 S
Tb198 O211 2.343 1_554 S
Tb198 O213 2.353 . S
Tb198 O215 2.427 . S
Tb198 O216 2.528 . S
C199 O203 1.251 . S
C199 O205 1.263 1_554 S
Tb200 O202 2.343 1_556 S
Tb200 O205 2.353 . S
Tb200 O208 2.427 1_556 S
Tb200 O209 2.513 1_556 S
Tb200 O210 2.453 . S
Tb200 O211 2.596 1_565 S
Tb200 O212 2.374 1_565 S
O201 Tb198 2.453 . S
O201 C217 1.245 1_545 S
O202 Tb198 2.596 1_565 S
O202 Tb200 2.343 1_554 S
O202 C217 1.259 . S
O203 Tb198 2.374 1_565 S
O203 C199 1.251 . S
C204 O208 1.275 . S
C204 O209 1.246 . S
O205 C199 1.263 1_556 S
O205 Tb200 2.353 . S
C206 O210 1.245 1_545 S
C206 O211 1.259 . S
C207 O212 1.249 1_554 S
C207 O213 1.263 . S
O208 Tb200 2.427 1_554 S
O208 C204 1.275 . S
O209 Tb200 2.513 1_554 S
O209 C204 1.246 . S
O210 Tb200 2.453 . S
O210 C206 1.245 1_565 S
O211 Tb198 2.343 1_556 S
O211 Tb200 2.596 1_545 S
O211 C206 1.259 . S
O212 Tb200 2.374 1_545 S
O212 C207 1.249 1_556 S
O213 Tb198 2.353 . S
O213 C207 1.263 . S
C214 O215 1.275 1_556 S
C214 O216 1.240 1_556 S
O215 Tb198 2.427 . S
O215 C214 1.275 1_554 S
O216 Tb198 2.528 . S
O216 C214 1.240 1_554 S
C217 O201 1.245 1_565 S
C217 O202 1.259 . S
Tb218 O221 2.452 1_655 S
Tb218 O222 2.596 1_655 S
Tb218 O223 2.374 1_655 S
Tb218 O231 2.343 1_554 S
Tb218 O233 2.353 . S
Tb218 O235 2.427 . S
Tb218 O236 2.513 . S
C219 O223 1.251 . S
C219 O225 1.263 . S
Tb220 O222 2.368 . S
Tb220 O225 2.355 . S
Tb220 O228 2.439 . S
Tb220 O229 2.530 . S
Tb220 O230 2.429 1_554 S
Tb220 O231 2.591 1_454 S
Tb220 O232 2.380 1_455 S
O221 Tb218 2.452 1_455 S
O221 C237 1.246 . S
O222 Tb218 2.596 1_455 S
O222 Tb220 2.368 . S
O222 C237 1.259 . S
O223 Tb218 2.374 1_455 S
O223 C219 1.251 . S
C224 O228 1.275 . S
C224 O229 1.246 . S
O225 C219 1.263 . S
O225 Tb220 2.355 . S
C226 O230 1.245 1_655 S
C226 O231 1.259 . S
C227 O232 1.250 . S
C227 O233 1.263 . S
O228 Tb220 2.439 . S
O228 C224 1.275 . S
O229 Tb220 2.530 . S
O229 C224 1.246 . S
O230 Tb220 2.429 1_556 S
O230 C226 1.245 1_455 S
O231 Tb218 2.343 1_556 S
O231 Tb220 2.591 1_656 S
O231 C226 1.259 . S
O232 Tb220 2.380 1_655 S
O232 C227 1.250 . S
O233 Tb218 2.353 . S
O233 C227 1.263 . S
C234 O235 1.275 1_556 S
C234 O236 1.246 1_556 S
O235 Tb218 2.427 . S
O235 C234 1.275 1_554 S
O236 Tb218 2.513 . S
O236 C234 1.246 1_554 S
C237 O221 1.246 . S
C237 O222 1.259 . S
Tb238 O241 2.453 . S
Tb238 O242 2.596 . S
Tb238 O243 2.374 . S
Tb238 O251 2.343 1_556 S
Tb238 O253 2.353 . S
Tb238 O255 2.427 1_556 S
Tb238 O256 2.513 1_556 S
C239 O243 1.251 . S
C239 O245 1.263 1_556 S
Tb240 O242 2.343 1_554 S
Tb240 O245 2.353 . S
Tb240 O248 2.427 1_554 S
Tb240 O249 2.513 1_554 S
Tb240 O250 2.453 . S
Tb240 O251 2.596 . S
Tb240 O252 2.374 . S
O241 Tb238 2.453 . S
O241 C257 1.245 . S
O242 Tb238 2.596 . S
O242 Tb240 2.343 1_556 S
O242 C257 1.259 . S
O243 Tb238 2.374 . S
O243 C239 1.251 . S
C244 O248 1.275 . S
C244 O249 1.246 . S
O245 C239 1.263 1_554 S
O245 Tb240 2.353 . S
C246 O250 1.245 . S
C246 O251 1.259 . S
C247 O252 1.250 . S
C247 O253 1.263 1_554 S
O248 Tb240 2.427 1_556 S
O248 C244 1.275 . S
O249 Tb240 2.513 1_556 S
O249 C244 1.246 . S
O250 Tb240 2.453 . S
O250 C246 1.245 . S
O251 Tb238 2.343 1_554 S
O251 Tb240 2.596 . S
O251 C246 1.259 . S
O252 Tb240 2.374 . S
O252 C247 1.250 . S
O253 Tb238 2.353 . S
O253 C247 1.263 1_556 S
C254 O255 1.275 . S
C254 O256 1.246 . S
O255 Tb238 2.427 1_554 S
O255 C254 1.275 . S
O256 Tb238 2.513 1_554 S
O256 C254 1.246 . S
C257 O241 1.245 . S
C257 O242 1.259 . S
Tb258 O261 2.453 . S
Tb258 O262 2.596 . S
Tb258 O263 2.374 . S
Tb258 O271 2.343 . S
Tb258 O273 2.353 . S
Tb258 O275 2.427 . S
Tb258 O276 2.513 . S
C259 O263 1.251 . S
C259 O265 1.263 . S
Tb260 O262 2.343 . S
Tb260 O265 2.353 . S
Tb260 O268 2.427 . S
Tb260 O269 2.513 . S
Tb260 O270 2.453 . S
Tb260 O271 2.596 . S
Tb260 O272 2.374 . S
O261 Tb258 2.453 . S
O261 C277 1.245 . S
O262 Tb258 2.596 . S
O262 Tb260 2.343 . S
O262 C277 1.259 . S
O263 Tb258 2.374 . S
O263 C259 1.251 . S
C264 O268 1.275 . S
C264 O269 1.246 . S
O265 C259 1.263 . S
O265 Tb260 2.353 . S
C266 O270 1.245 . S
C266 O271 1.259 . S
C267 O272 1.250 . S
C267 O273 1.263 . S
O268 Tb260 2.427 . S
O268 C264 1.275 . S
O269 Tb260 2.513 . S
O269 C264 1.246 . S
O270 Tb260 2.453 . S
O270 C266 1.245 . S
O271 Tb258 2.343 . S
O271 Tb260 2.596 . S
O271 C266 1.259 . S
O272 Tb260 2.374 . S
O272 C267 1.250 . S
O273 Tb258 2.353 . S
O273 C267 1.263 . S
C274 O275 1.275 . S
C274 O276 1.246 . S
O275 Tb258 2.427 . S
O275 C274 1.275 . S
O276 Tb258 2.513 . S
O276 C274 1.246 . S
C277 O261 1.245 . S
C277 O262 1.259 . S
Tb278 O281 2.453 . S
Tb278 O282 2.596 . S
Tb278 O283 2.374 . S
Tb278 O291 2.343 . S
Tb278 O293 2.353 . S
Tb278 O295 2.427 . S
Tb278 O296 2.513 . S
C279 O283 1.251 . S
C279 O285 1.263 . S
Tb280 O282 2.343 . S
Tb280 O285 2.353 . S
Tb280 O288 2.427 . S
Tb280 O289 2.513 . S
Tb280 O290 2.453 . S
Tb280 O291 2.596 . S
Tb280 O292 2.374 . S
O281 Tb278 2.453 . S
O281 C297 1.245 . S
O282 Tb278 2.596 . S
O282 Tb280 2.343 . S
O282 C297 1.259 . S
O283 Tb278 2.374 . S
O283 C279 1.251 . S
C284 O288 1.275 . S
C284 O289 1.246 . S
O285 C279 1.263 . S
O285 Tb280 2.353 . S
C286 O290 1.245 . S
C286 O291 1.259 . S
C287 O292 1.250 . S
C287 O293 1.263 . S
O288 Tb280 2.427 . S
O288 C284 1.275 . S
O289 Tb280 2.513 . S
O289 C284 1.246 . S
O290 Tb280 2.453 . S
O290 C286 1.245 . S
O291 Tb278 2.343 . S
O291 Tb280 2.596 . S
O291 C286 1.259 . S
O292 Tb280 2.374 . S
O292 C287 1.250 . S
O293 Tb278 2.353 . S
O293 C287 1.263 . S
C294 O295 1.275 . S
C294 O296 1.246 . S
O295 Tb278 2.427 . S
O295 C294 1.275 . S
O296 Tb278 2.513 . S
O296 C294 1.246 . S
C297 O281 1.245 . S
C297 O282 1.259 . S
Tb298 O301 2.453 . S
Tb298 O302 2.596 . S
Tb298 O303 2.374 . S
Tb298 O311 2.343 . S
Tb298 O313 2.353 . S
Tb298 O315 2.427 . S
Tb298 O316 2.513 . S
C299 O303 1.251 . S
C299 O305 1.263 . S
Tb300 O302 2.343 . S
Tb300 O305 2.353 . S
Tb300 O308 2.427 . S
Tb300 O309 2.513 . S
Tb300 O310 2.453 . S
Tb300 O311 2.596 . S
Tb300 O312 2.374 . S
O301 Tb298 2.453 . S
O301 C317 1.245 . S
O302 Tb298 2.596 . S
O302 Tb300 2.343 . S
O302 C317 1.259 . S
O303 Tb298 2.374 . S
O303 C299 1.251 . S
C304 O308 1.275 . S
C304 O309 1.246 . S
O305 C299 1.263 . S
O305 Tb300 2.353 . S
C306 O310 1.245 . S
C306 O311 1.259 . S
C307 O312 1.250 . S
C307 O313 1.263 . S
O308 Tb300 2.427 . S
O308 C304 1.275 . S
O309 Tb300 2.513 . S
O309 C304 1.246 . S
O310 Tb300 2.453 . S
O310 C306 1.245 . S
O311 Tb298 2.343 . S
O311 Tb300 2.596 . S
O311 C306 1.259 . S
O312 Tb300 2.374 . S
O312 C307 1.250 . S
O313 Tb298 2.353 . S
O313 C307 1.263 . S
C314 O315 1.275 . S
C314 O316 1.246 . S
O315 Tb298 2.427 . S
O315 C314 1.275 . S
O316 Tb298 2.513 . S
O316 C314 1.246 . S
C317 O301 1.245 . S
C317 O302 1.259 . S
Tb318 O321 2.453 . S
Tb318 O322 2.596 . S
Tb318 O323 2.374 . S
Tb318 O331 2.343 . S
Tb318 O333 2.353 . S
Tb318 O335 2.427 . S
Tb318 O336 2.513 . S
C319 O323 1.251 . S
C319 O325 1.263 . S
Tb320 O322 2.343 . S
Tb320 O325 2.353 . S
Tb320 O328 2.427 . S
Tb320 O329 2.513 . S
Tb320 O330 2.453 . S
Tb320 O331 2.596 . S
Tb320 O332 2.374 . S
O321 Tb318 2.453 . S
O321 C337 1.245 . S
O322 Tb318 2.596 . S
O322 Tb320 2.343 . S
O322 C337 1.259 . S
O323 Tb318 2.374 . S
O323 C319 1.251 . S
C324 O328 1.275 . S
C324 O329 1.246 . S
O325 C319 1.263 . S
O325 Tb320 2.353 . S
C326 O330 1.245 . S
C326 O331 1.259 . S
C327 O332 1.250 . S
C327 O333 1.263 . S
O328 Tb320 2.427 . S
O328 C324 1.275 . S
O329 Tb320 2.513 . S
O329 C324 1.246 . S
O330 Tb320 2.453 . S
O330 C326 1.245 . S
O331 Tb318 2.343 . S
O331 Tb320 2.596 . S
O331 C326 1.259 . S
O332 Tb320 2.374 . S
O332 C327 1.250 . S
O333 Tb318 2.353 . S
O333 C327 1.263 . S
C334 O335 1.275 . S
C334 O336 1.246 . S
O335 Tb318 2.427 . S
O335 C334 1.275 . S
O336 Tb318 2.513 . S
O336 C334 1.246 . S
C337 O321 1.245 . S
C337 O322 1.259 . S
Tb338 O341 2.453 . S
Tb338 O342 2.596 . S
Tb338 O343 2.374 . S
Tb338 O351 2.343 . S
Tb338 O353 2.353 . S
Tb338 O355 2.427 . S
Tb338 O356 2.513 . S
C339 O343 1.251 . S
C339 O345 1.263 . S
Tb340 O342 2.343 . S
Tb340 O345 2.353 . S
Tb340 O348 2.427 . S
Tb340 O349 2.513 . S
Tb340 O350 2.453 . S
Tb340 O351 2.596 . S
Tb340 O352 2.374 . S
O341 Tb338 2.453 . S
O341 C357 1.245 . S
O342 Tb338 2.596 . S
O342 Tb340 2.343 . S
O342 C357 1.259 . S
O343 Tb338 2.374 . S
O343 C339 1.251 . S
C344 O348 1.275 . S
C344 O349 1.246 . S
O345 C339 1.263 . S
O345 Tb340 2.353 . S
C346 O350 1.245 . S
C346 O351 1.259 . S
C347 O352 1.250 . S
C347 O353 1.263 . S
O348 Tb340 2.427 . S
O348 C344 1.275 . S
O349 Tb340 2.513 . S
O349 C344 1.246 . S
O350 Tb340 2.453 . S
O350 C346 1.245 . S
O351 Tb338 2.343 . S
O351 Tb340 2.596 . S
O351 C346 1.259 . S
O352 Tb340 2.374 . S
O352 C347 1.250 . S
O353 Tb338 2.353 . S
O353 C347 1.263 . S
C354 O355 1.275 . S
C354 O356 1.246 . S
O355 Tb338 2.427 . S
O355 C354 1.275 . S
O356 Tb338 2.513 . S
O356 C354 1.246 . S
C357 O341 1.245 . S
C357 O342 1.259 . S
Tb358 O361 2.453 . S
Tb358 O362 2.596 . S
Tb358 O363 2.374 . S
Tb358 O371 2.343 . S
Tb358 O373 2.353 . S
Tb358 O375 2.427 . S
Tb358 O376 2.513 . S
C359 O363 1.251 . S
C359 O365 1.263 . S
Tb360 O362 2.343 . S
Tb360 O365 2.353 . S
Tb360 O368 2.427 . S
Tb360 O369 2.513 . S
Tb360 O370 2.453 . S
Tb360 O371 2.596 . S
Tb360 O372 2.374 . S
O361 Tb358 2.453 . S
O361 C377 1.245 . S
O362 Tb358 2.596 . S
O362 Tb360 2.343 . S
O362 C377 1.259 . S
O363 Tb358 2.374 . S
O363 C359 1.251 . S
C364 O368 1.275 . S
C364 O369 1.246 . S
O365 C359 1.263 . S
O365 Tb360 2.353 . S
C366 O370 1.245 . S
C366 O371 1.259 . S
C367 O372 1.250 . S
C367 O373 1.263 . S
O368 Tb360 2.427 . S
O368 C364 1.275 . S
O369 Tb360 2.513 . S
O369 C364 1.246 . S
O370 Tb360 2.453 . S
O370 C366 1.245 . S
O371 Tb358 2.343 . S
O371 Tb360 2.596 . S
O371 C366 1.259 . S
O372 Tb360 2.374 . S
O372 C367 1.250 . S
O373 Tb358 2.353 . S
O373 C367 1.263 . S
C374 O375 1.275 . S
C374 O376 1.246 . S
O375 Tb358 2.427 . S
O375 C374 1.275 . S
O376 Tb358 2.513 . S
O376 C374 1.246 . S
C377 O361 1.245 . S
C377 O362 1.259 . S
H378 C384 0.930 . S
H379 C388 0.930 . S
H380 C393 0.929 . S
H381 C391 0.929 . S
H382 C386 0.929 . S
H383 C392 0.929 . S
C384 H378 0.930 . S
C384 C385 1.367 . S
C384 C392 1.378 . S
C385 C384 1.367 . S
C385 C393 1.433 . S
C386 H382 0.929 . S
C386 C388 1.378 . S
C386 C390 1.350 . S
C387 C390 1.463 . S
C387 C392 1.350 . S
C387 N395 1.427 . S
C388 H379 0.930 . S
C388 C386 1.378 . S
C388 C389 1.367 . S
C389 C388 1.367 . S
C389 C391 1.433 . S
C390 C386 1.350 . S
C390 C387 1.463 . S
C390 N394 1.427 . S
C391 H381 0.929 . S
C391 C389 1.433 . S
C391 N394 1.384 . S
C392 H383 0.929 . S
C392 C384 1.378 . S
C392 C387 1.350 . S
C393 H380 0.929 . S
C393 C385 1.433 . S
C393 N395 1.384 . S
N394 C390 1.427 . S
N394 C391 1.384 . S
N395 C387 1.427 . S
N395 C393 1.384 . S
H396 C402 0.930 . S
H397 C406 0.930 . S
H398 C411 0.929 . S
H399 C409 0.929 . S
H400 C404 0.929 . S
H401 C410 0.929 . S
C402 H396 0.930 . S
C402 C403 1.367 . S
C402 C410 1.378 . S
C403 C402 1.367 . S
C403 C411 1.433 . S
C404 H400 0.929 . S
C404 C406 1.378 . S
C404 C408 1.350 . S
C405 C408 1.463 . S
C405 C410 1.350 . S
C405 N413 1.427 . S
C406 H397 0.930 . S
C406 C404 1.378 . S
C406 C407 1.367 . S
C407 C406 1.367 . S
C407 C409 1.433 . S
C408 C404 1.350 . S
C408 C405 1.463 . S
C408 N412 1.427 . S
C409 H399 0.929 . S
C409 C407 1.433 . S
C409 N412 1.384 . S
C410 H401 0.929 . S
C410 C402 1.378 . S
C410 C405 1.350 . S
C411 H398 0.929 . S
C411 C403 1.433 . S
C411 N413 1.384 . S
N412 C408 1.427 . S
N412 C409 1.384 . S
N413 C405 1.427 . S
N413 C411 1.384 . S
H414 C420 0.930 . S
H415 C424 0.930 . S
H416 C429 0.929 . S
H417 C427 0.929 1_556 S
H418 C422 0.929 . S
H419 C428 0.929 . S
C420 H414 0.930 . S
C420 C421 1.367 . S
C420 C428 1.378 . S
C421 C420 1.367 . S
C421 C429 1.433 . S
C422 H418 0.929 . S
C422 C424 1.378 . S
C422 C426 1.350 . S
C423 C426 1.463 . S
C423 C428 1.350 . S
C423 N431 1.427 . S
C424 H415 0.930 . S
C424 C422 1.378 . S
C424 C425 1.367 . S
C425 C424 1.367 . S
C425 C427 1.433 . S
C426 C422 1.350 . S
C426 C423 1.463 . S
C426 N430 1.427 . S
C427 H417 0.929 1_554 S
C427 C425 1.433 . S
C427 N430 1.384 . S
C428 H419 0.929 . S
C428 C420 1.378 . S
C428 C423 1.350 . S
C429 H416 0.929 . S
C429 C421 1.433 . S
C429 N431 1.384 . S
N430 C426 1.427 . S
N430 C427 1.384 . S
N431 C423 1.427 . S
N431 C429 1.384 . S
H432 C438 0.930 . S
H433 C442 0.930 . S
H434 C447 0.929 1_554 S
H435 C445 0.929 . S
H436 C440 0.929 . S
H437 C446 0.929 . S
C438 H432 0.930 . S
C438 C439 1.367 . S
C438 C446 1.378 . S
C439 C438 1.367 . S
C439 C447 1.433 . S
C440 H436 0.929 . S
C440 C442 1.378 . S
C440 C444 1.350 1_554 S
C441 C444 1.463 . S
C441 C446 1.350 . S
C441 N449 1.427 . S
C442 H433 0.930 . S
C442 C440 1.378 . S
C442 C443 1.367 1_554 S
C443 C442 1.367 1_556 S
C443 C445 1.433 . S
C444 C440 1.350 1_556 S
C444 C441 1.463 . S
C444 N448 1.427 . S
C445 H435 0.929 . S
C445 C443 1.433 . S
C445 N448 1.384 . S
C446 H437 0.929 . S
C446 C438 1.378 . S
C446 C441 1.350 . S
C447 H434 0.929 1_556 S
C447 C439 1.433 . S
C447 N449 1.384 . S
N448 C444 1.427 . S
N448 C445 1.384 . S
N449 C441 1.427 . S
N449 C447 1.384 . S
H450 C456 0.930 . S
H451 C460 0.930 . S
H452 C465 0.929 . S
H453 C463 0.929 1_554 S
H454 C458 0.929 . S
H455 C464 0.929 . S
C456 H450 0.930 . S
C456 C457 1.367 . S
C456 C464 1.378 . S
C457 C456 1.367 . S
C457 C465 1.433 . S
C458 H454 0.929 . S
C458 C460 1.378 . S
C458 C462 1.350 . S
C459 C462 1.463 . S
C459 C464 1.350 . S
C459 N467 1.427 . S
C460 H451 0.930 . S
C460 C458 1.378 . S
C460 C461 1.367 . S
C461 C460 1.367 . S
C461 C463 1.433 . S
C462 C458 1.350 . S
C462 C459 1.463 . S
C462 N466 1.427 . S
C463 H453 0.929 1_556 S
C463 C461 1.433 . S
C463 N466 1.384 . S
C464 H455 0.929 . S
C464 C456 1.378 . S
C464 C459 1.350 . S
C465 H452 0.929 . S
C465 C457 1.433 . S
C465 N467 1.384 . S
N466 C462 1.427 . S
N466 C463 1.384 . S
N467 C459 1.427 . S
N467 C465 1.384 . S
H468 C474 0.930 . S
H469 C478 0.930 . S
H470 C483 0.929 . S
H471 C481 0.929 . S
H472 C476 0.929 . S
H473 C482 0.929 . S
C474 H468 0.930 . S
C474 C475 1.367 1_554 S
C474 C482 1.378 . S
C475 C474 1.367 1_556 S
C475 C483 1.433 . S
C476 H472 0.929 . S
C476 C478 1.378 . S
C476 C480 1.350 . S
C477 C480 1.463 . S
C477 C482 1.350 1_556 S
C477 N485 1.427 . S
C478 H469 0.930 . S
C478 C476 1.378 . S
C478 C479 1.367 1_556 S
C479 C478 1.367 1_554 S
C479 C481 1.433 . S
C480 C476 1.350 . S
C480 C477 1.463 . S
C480 N484 1.427 1_556 S
C481 H471 0.929 . S
C481 C479 1.433 . S
C481 N484 1.384 . S
C482 H473 0.929 . S
C482 C474 1.378 . S
C482 C477 1.350 1_554 S
C483 H470 0.929 . S
C483 C475 1.433 . S
C483 N485 1.384 . S
N484 C480 1.427 1_554 S
N484 C481 1.384 . S
N485 C477 1.427 . S
N485 C483 1.384 . S
H486 C492 0.930 . S
H487 C496 0.930 . S
H488 C501 0.929 1_554 S
H489 C499 0.929 . S
H490 C494 0.929 . S
H491 C500 0.929 . S
C492 H486 0.930 . S
C492 C493 1.367 . S
C492 C500 1.378 . S
C493 C492 1.367 . S
C493 C501 1.433 . S
C494 H490 0.929 . S
C494 C496 1.378 . S
C494 C498 1.350 1_554 S
C495 C498 1.463 . S
C495 C500 1.350 . S
C495 N503 1.427 . S
C496 H487 0.930 . S
C496 C494 1.378 . S
C496 C497 1.367 1_554 S
C497 C496 1.367 1_556 S
C497 C499 1.433 . S
C498 C494 1.350 1_556 S
C498 C495 1.463 . S
C498 N502 1.427 . S
C499 H489 0.929 . S
C499 C497 1.433 . S
C499 N502 1.384 . S
C500 H491 0.929 . S
C500 C492 1.378 . S
C500 C495 1.350 . S
C501 H488 0.929 1_556 S
C501 C493 1.433 . S
C501 N503 1.384 . S
N502 C498 1.427 . S
N502 C499 1.384 . S
N503 C495 1.427 . S
N503 C501 1.384 . S
H504 C510 0.919 1_554 S
H505 C514 0.930 . S
H506 C519 0.929 . S
H507 C517 0.929 . S
H508 C512 0.929 . S
H509 C518 0.929 1_554 S
C510 H504 0.919 1_556 S
C510 C511 1.367 . S
C510 C518 1.378 . S
C511 C510 1.367 . S
C511 C519 1.433 . S
C512 H508 0.929 . S
C512 C514 1.378 . S
C512 C516 1.350 . S
C513 C516 1.463 . S
C513 C518 1.350 . S
C513 N521 1.427 . S
C514 H505 0.930 . S
C514 C512 1.378 . S
C514 C515 1.367 . S
C515 C514 1.367 . S
C515 C517 1.433 1_556 S
C516 C512 1.350 . S
C516 C513 1.463 . S
C516 N520 1.427 1_556 S
C517 H507 0.929 . S
C517 C515 1.433 1_554 S
C517 N520 1.384 . S
C518 H509 0.929 1_556 S
C518 C510 1.378 . S
C518 C513 1.350 . S
C519 H506 0.929 . S
C519 C511 1.433 . S
C519 N521 1.384 . S
N520 C516 1.427 1_554 S
N520 C517 1.384 . S
N521 C513 1.427 . S
N521 C519 1.384 . S
H522 C528 0.930 . S
H523 C532 0.930 . S
H524 C537 0.923 1_554 S
H525 C535 0.929 . S
H526 C530 0.943 . S
H527 C536 0.929 . S
C528 H522 0.930 . S
C528 C529 1.367 . S
C528 C536 1.378 . S
C529 C528 1.367 . S
C529 C537 1.433 . S
C530 H526 0.943 . S
C530 C532 1.376 . S
C530 C534 1.337 1_554 S
C531 C534 1.463 . S
C531 C536 1.350 . S
C531 N539 1.427 . S
C532 H523 0.930 . S
C532 C530 1.376 . S
C532 C533 1.367 1_554 S
C533 C532 1.367 1_556 S
C533 C535 1.433 . S
C534 C530 1.337 1_556 S
C534 C531 1.463 . S
C534 N538 1.427 . S
C535 H525 0.929 . S
C535 C533 1.433 . S
C535 N538 1.384 . S
C536 H527 0.929 . S
C536 C528 1.378 . S
C536 C531 1.350 . S
C537 H524 0.923 1_556 S
C537 C529 1.433 . S
C537 N539 1.384 . S
N538 C534 1.427 . S
N538 C535 1.384 . S
N539 C531 1.427 . S
N539 C537 1.384 . S
H540 C546 0.930 . S
H541 C550 0.930 . S
H542 C555 0.929 . S
H543 C553 0.929 . S
H544 C548 0.929 . S
H545 C554 0.929 . S
C546 H540 0.930 . S
C546 C547 1.367 . S
C546 C554 1.378 . S
C547 C546 1.367 . S
C547 C555 1.433 . S
C548 H544 0.929 . S
C548 C550 1.378 . S
C548 C552 1.350 . S
C549 C552 1.463 . S
C549 C554 1.350 . S
C549 N557 1.427 . S
C550 H541 0.930 . S
C550 C548 1.378 . S
C550 C551 1.367 . S
C551 C550 1.367 . S
C551 C553 1.433 . S
C552 C548 1.350 . S
C552 C549 1.463 . S
C552 N556 1.427 . S
C553 H543 0.929 . S
C553 C551 1.433 . S
C553 N556 1.384 . S
C554 H545 0.929 . S
C554 C546 1.378 . S
C554 C549 1.350 . S
C555 H542 0.929 . S
C555 C547 1.433 . S
C555 N557 1.384 . S
N556 C552 1.427 . S
N556 C553 1.384 . S
N557 C549 1.427 . S
N557 C555 1.384 . S
H558 C564 0.930 . S
H559 C568 0.930 . S
H560 C573 0.929 . S
H561 C571 0.929 . S
H562 C566 0.929 . S
H563 C572 0.929 . S
C564 H558 0.930 . S
C564 C565 1.367 . S
C564 C572 1.378 . S
C565 C564 1.367 . S
C565 C573 1.433 . S
C566 H562 0.929 . S
C566 C568 1.378 . S
C566 C570 1.350 . S
C567 C570 1.463 . S
C567 C572 1.350 . S
C567 N575 1.427 . S
C568 H559 0.930 . S
C568 C566 1.378 . S
C568 C569 1.367 . S
C569 C568 1.367 . S
C569 C571 1.433 . S
C570 C566 1.350 . S
C570 C567 1.463 . S
C570 N574 1.427 . S
C571 H561 0.929 . S
C571 C569 1.433 . S
C571 N574 1.384 . S
C572 H563 0.929 . S
C572 C564 1.378 . S
C572 C567 1.350 . S
C573 H560 0.929 . S
C573 C565 1.433 . S
C573 N575 1.384 . S
N574 C570 1.427 . S
N574 C571 1.384 . S
N575 C567 1.427 . S
N575 C573 1.384 . S
H576 C582 0.930 . S
H577 C586 0.930 . S
H578 C591 0.929 . S
H579 C589 0.929 . S
H580 C584 0.929 1_556 S
H581 C590 0.929 . S
C582 H576 0.930 . S
C582 C583 1.367 . S
C582 C590 1.378 . S
C583 C582 1.367 . S
C583 C591 1.433 . S
C584 H580 0.929 1_554 S
C584 C586 1.378 1_554 S
C584 C588 1.350 . S
C585 C588 1.463 . S
C585 C590 1.350 . S
C585 N593 1.427 . S
C586 H577 0.930 . S
C586 C584 1.378 1_556 S
C586 C587 1.367 1_556 S
C587 C586 1.367 1_554 S
C587 C589 1.433 . S
C588 C584 1.350 . S
C588 C585 1.463 . S
C588 N592 1.427 . S
C589 H579 0.929 . S
C589 C587 1.433 . S
C589 N592 1.384 . S
C590 H581 0.929 . S
C590 C582 1.378 . S
C590 C585 1.350 . S
C591 H578 0.929 . S
C591 C583 1.433 . S
C591 N593 1.384 . S
N592 C588 1.427 . S
N592 C589 1.384 . S
N593 C585 1.427 . S
N593 C591 1.384 . S
H594 C600 0.930 . S
H595 C604 0.930 . S
H596 C609 0.929 . S
H597 C607 0.929 . S
H598 C602 0.929 . S
H599 C608 0.931 . S
C600 H594 0.930 . S
C600 C601 1.367 . S
C600 C608 1.359 1_655 S
C601 C600 1.367 . S
C601 C609 1.433 . S
C602 H598 0.929 . S
C602 C604 1.378 . S
C602 C606 1.350 . S
C603 C606 1.463 . S
C603 C608 1.367 . S
C603 N611 1.427 1_455 S
C604 H595 0.930 . S
C604 C602 1.378 . S
C604 C605 1.367 . S
C605 C604 1.367 . S
C605 C607 1.433 . S
C606 C602 1.350 . S
C606 C603 1.463 . S
C606 N610 1.427 . S
C607 H597 0.929 . S
C607 C605 1.433 . S
C607 N610 1.384 . S
C608 H599 0.931 . S
C608 C600 1.359 1_455 S
C608 C603 1.367 . S
C609 H596 0.929 . S
C609 C601 1.433 . S
C609 N611 1.384 . S
N610 C606 1.427 . S
N610 C607 1.384 . S
N611 C603 1.427 1_655 S
N611 C609 1.384 . S
H612 C618 0.930 . S
H613 C622 0.930 . S
H614 C627 0.929 . S
H615 C625 0.929 . S
H616 C620 0.929 . S
H617 C626 0.929 . S
C618 H612 0.930 . S
C618 C619 1.367 . S
C618 C626 1.378 . S
C619 C618 1.367 . S
C619 C627 1.433 . S
C620 H616 0.929 . S
C620 C622 1.378 . S
C620 C624 1.350 . S
C621 C624 1.463 . S
C621 C626 1.350 . S
C621 N629 1.427 . S
C622 H613 0.930 . S
C622 C620 1.378 . S
C622 C623 1.367 . S
C623 C622 1.367 . S
C623 C625 1.433 . S
C624 C620 1.350 . S
C624 C621 1.463 . S
C624 N628 1.427 . S
C625 H615 0.929 . S
C625 C623 1.433 . S
C625 N628 1.384 . S
C626 H617 0.929 . S
C626 C618 1.378 . S
C626 C621 1.350 . S
C627 H614 0.929 . S
C627 C619 1.433 . S
C627 N629 1.384 . S
N628 C624 1.427 . S
N628 C625 1.384 . S
N629 C621 1.427 . S
N629 C627 1.384 . S
H630 C636 0.930 . S
H631 C640 0.930 . S
H632 C645 0.929 . S
H633 C643 0.929 . S
H634 C638 0.929 . S
H635 C644 0.929 1_565 S
C636 H630 0.930 . S
C636 C637 1.367 . S
C636 C644 1.378 . S
C637 C636 1.367 . S
C637 C645 1.433 . S
C638 H634 0.929 . S
C638 C640 1.378 . S
C638 C642 1.350 . S
C639 C642 1.463 . S
C639 C644 1.350 1_565 S
C639 N647 1.427 1_565 S
C640 H631 0.930 . S
C640 C638 1.378 . S
C640 C641 1.367 . S
C641 C640 1.367 . S
C641 C643 1.433 . S
C642 C638 1.350 . S
C642 C639 1.463 . S
C642 N646 1.427 . S
C643 H633 0.929 . S
C643 C641 1.433 . S
C643 N646 1.384 . S
C644 H635 0.929 1_545 S
C644 C636 1.378 . S
C644 C639 1.350 1_545 S
C645 H632 0.929 . S
C645 C637 1.433 . S
C645 N647 1.384 . S
N646 C642 1.427 . S
N646 C643 1.384 . S
N647 C639 1.427 1_545 S
N647 C645 1.384 . S
H648 C654 0.930 . S
H649 C658 0.930 . S
H650 C663 0.929 . S
H651 C661 0.929 . S
H652 C656 0.929 . S
H653 C662 0.929 . S
C654 H648 0.930 . S
C654 C655 1.367 . S
C654 C662 1.378 . S
C655 C654 1.367 . S
C655 C663 1.433 . S
C656 H652 0.929 . S
C656 C658 1.378 . S
C656 C660 1.350 . S
C657 C660 1.463 . S
C657 C662 1.350 . S
C657 N665 1.427 . S
C658 H649 0.930 . S
C658 C656 1.378 . S
C658 C659 1.367 . S
C659 C658 1.367 . S
C659 C661 1.433 . S
C660 C656 1.350 . S
C660 C657 1.463 . S
C660 N664 1.427 . S
C661 H651 0.929 . S
C661 C659 1.433 . S
C661 N664 1.384 . S
C662 H653 0.929 . S
C662 C654 1.378 . S
C662 C657 1.350 . S
C663 H650 0.929 . S
C663 C655 1.433 . S
C663 N665 1.384 . S
N664 C660 1.427 . S
N664 C661 1.384 . S
N665 C657 1.427 . S
N665 C663 1.384 . S
H666 C672 0.930 . S
H667 C676 0.930 . S
H668 C681 0.929 . S
H669 C679 0.929 . S
H670 C674 0.929 . S
H671 C680 0.929 . S
C672 H666 0.930 . S
C672 C673 1.367 . S
C672 C680 1.378 . S
C673 C672 1.367 . S
C673 C681 1.433 . S
C674 H670 0.929 . S
C674 C676 1.378 . S
C674 C678 1.350 . S
C675 C678 1.463 . S
C675 C680 1.350 . S
C675 N683 1.427 . S
C676 H667 0.930 . S
C676 C674 1.378 . S
C676 C677 1.367 . S
C677 C676 1.367 . S
C677 C679 1.433 . S
C678 C674 1.350 . S
C678 C675 1.463 . S
C678 N682 1.427 . S
C679 H669 0.929 . S
C679 C677 1.433 . S
C679 N682 1.384 . S
C680 H671 0.929 . S
C680 C672 1.378 . S
C680 C675 1.350 . S
C681 H668 0.929 . S
C681 C673 1.433 . S
C681 N683 1.384 . S
N682 C678 1.427 . S
N682 C679 1.384 . S
N683 C675 1.427 . S
N683 C681 1.384 . S
H684 C690 0.930 . S
H685 C694 0.930 . S
H686 C699 0.929 . S
H687 C697 0.929 . S
H688 C692 0.929 . S
H689 C698 0.929 . S
C690 H684 0.930 . S
C690 C691 1.367 . S
C690 C698 1.378 . S
C691 C690 1.367 . S
C691 C699 1.433 . S
C692 H688 0.929 . S
C692 C694 1.378 . S
C692 C696 1.350 . S
C693 C696 1.463 . S
C693 C698 1.350 . S
C693 N701 1.427 . S
C694 H685 0.930 . S
C694 C692 1.378 . S
C694 C695 1.367 . S
C695 C694 1.367 . S
C695 C697 1.433 . S
C696 C692 1.350 . S
C696 C693 1.463 . S
C696 N700 1.427 . S
C697 H687 0.929 . S
C697 C695 1.433 . S
C697 N700 1.384 . S
C698 H689 0.929 . S
C698 C690 1.378 . S
C698 C693 1.350 . S
C699 H686 0.929 . S
C699 C691 1.433 . S
C699 N701 1.384 . S
N700 C696 1.427 . S
N700 C697 1.384 . S
N701 C693 1.427 . S
N701 C699 1.384 . S
H702 C708 0.930 . S
H703 C712 0.930 . S
H704 C717 0.929 . S
H705 C715 0.929 . S
H706 C710 0.929 . S
H707 C716 0.929 . S
C708 H702 0.930 . S
C708 C709 1.367 . S
C708 C716 1.378 . S
C709 C708 1.367 . S
C709 C717 1.433 . S
C710 H706 0.929 . S
C710 C712 1.378 . S
C710 C714 1.350 . S
C711 C714 1.463 . S
C711 C716 1.350 . S
C711 N719 1.427 . S
C712 H703 0.930 . S
C712 C710 1.378 . S
C712 C713 1.367 . S
C713 C712 1.367 . S
C713 C715 1.433 . S
C714 C710 1.350 . S
C714 C711 1.463 . S
C714 N718 1.427 . S
C715 H705 0.929 . S
C715 C713 1.433 . S
C715 N718 1.384 . S
C716 H707 0.929 . S
C716 C708 1.378 . S
C716 C711 1.350 . S
C717 H704 0.929 . S
C717 C709 1.433 . S
C717 N719 1.384 . S
N718 C714 1.427 . S
N718 C715 1.384 . S
N719 C711 1.427 . S
N719 C717 1.384 . S
H720 C726 0.930 . S
H721 C730 0.930 . S
H722 C735 0.929 . S
H723 C733 0.929 . S
H724 C728 0.929 . S
H725 C734 0.929 . S
C726 H720 0.930 . S
C726 C727 1.367 . S
C726 C734 1.378 . S
C727 C726 1.367 . S
C727 C735 1.433 . S
C728 H724 0.929 . S
C728 C730 1.378 . S
C728 C732 1.350 . S
C729 C732 1.463 . S
C729 C734 1.350 . S
C729 N737 1.427 . S
C730 H721 0.930 . S
C730 C728 1.378 . S
C730 C731 1.367 . S
C731 C730 1.367 . S
C731 C733 1.433 . S
C732 C728 1.350 . S
C732 C729 1.463 . S
C732 N736 1.427 . S
C733 H723 0.929 . S
C733 C731 1.433 . S
C733 N736 1.384 . S
C734 H725 0.929 . S
C734 C726 1.378 . S
C734 C729 1.350 . S
C735 H722 0.929 . S
C735 C727 1.433 . S
C735 N737 1.384 . S
N736 C732 1.427 . S
N736 C733 1.384 . S
N737 C729 1.427 . S
N737 C735 1.384 . S
H738 C744 0.930 . S
H739 C748 0.930 . S
H740 C753 0.929 . S
H741 C751 0.929 . S
H742 C746 0.929 . S
H743 C752 0.929 . S
C744 H738 0.930 . S
C744 C745 1.367 . S
C744 C752 1.378 . S
C745 C744 1.367 . S
C745 C753 1.433 . S
C746 H742 0.929 . S
C746 C748 1.378 . S
C746 C750 1.350 . S
C747 C750 1.463 . S
C747 C752 1.350 . S
C747 N755 1.427 . S
C748 H739 0.930 . S
C748 C746 1.378 . S
C748 C749 1.367 . S
C749 C748 1.367 . S
C749 C751 1.433 . S
C750 C746 1.350 . S
C750 C747 1.463 . S
C750 N754 1.427 . S
C751 H741 0.929 . S
C751 C749 1.433 . S
C751 N754 1.384 . S
C752 H743 0.929 . S
C752 C744 1.378 . S
C752 C747 1.350 . S
C753 H740 0.929 . S
C753 C745 1.433 . S
C753 N755 1.384 . S
N754 C750 1.427 . S
N754 C751 1.384 . S
N755 C747 1.427 . S
N755 C753 1.384 . S
H756 C762 0.930 . S
H757 C766 0.930 . S
H758 C771 0.929 . S
H759 C769 0.929 . S
H760 C764 0.929 . S
H761 C770 0.929 1_565 S
C762 H756 0.930 . S
C762 C763 1.367 . S
C762 C770 1.378 . S
C763 C762 1.367 . S
C763 C771 1.433 . S
C764 H760 0.929 . S
C764 C766 1.378 . S
C764 C768 1.350 . S
C765 C768 1.463 . S
C765 C770 1.350 1_565 S
C765 N773 1.427 . S
C766 H757 0.930 . S
C766 C764 1.378 . S
C766 C767 1.367 . S
C767 C766 1.367 . S
C767 C769 1.433 . S
C768 C764 1.350 . S
C768 C765 1.463 . S
C768 N772 1.427 . S
C769 H759 0.929 . S
C769 C767 1.433 . S
C769 N772 1.384 . S
C770 H761 0.929 1_545 S
C770 C762 1.378 . S
C770 C765 1.350 1_545 S
C771 H758 0.929 . S
C771 C763 1.433 . S
C771 N773 1.384 1_545 S
N772 C768 1.427 . S
N772 C769 1.384 . S
N773 C765 1.427 . S
N773 C771 1.384 1_565 S
H774 C780 0.930 . S
H775 C784 0.930 . S
H776 C789 0.929 . S
H777 C787 0.929 . S
H778 C782 0.929 . S
H779 C788 0.940 . S
C780 H774 0.930 . S
C780 C781 1.367 . S
C780 C788 1.378 . S
C781 C780 1.367 . S
C781 C789 1.433 . S
C782 H778 0.929 . S
C782 C784 1.378 . S
C782 C786 1.350 . S
C783 C786 1.463 . S
C783 C788 1.350 1_455 S
C783 N791 1.427 . S
C784 H775 0.930 . S
C784 C782 1.378 . S
C784 C785 1.367 . S
C785 C784 1.367 . S
C785 C787 1.433 . S
C786 C782 1.350 . S
C786 C783 1.463 . S
C786 N790 1.427 . S
C787 H777 0.929 . S
C787 C785 1.433 . S
C787 N790 1.384 . S
C788 H779 0.940 . S
C788 C780 1.378 . S
C788 C783 1.350 1_655 S
C789 H776 0.929 . S
C789 C781 1.433 . S
C789 N791 1.384 1_655 S
N790 C786 1.427 . S
N790 C787 1.384 . S
N791 C783 1.427 . S
N791 C789 1.384 1_455 S
H792 C798 0.930 . S
H793 C802 0.930 . S
H794 C807 0.929 . S
H795 C805 0.929 . S
H796 C800 0.929 . S
H797 C806 0.929 . S
C798 H792 0.930 . S
C798 C799 1.367 . S
C798 C806 1.378 . S
C799 C798 1.367 . S
C799 C807 1.433 . S
C800 H796 0.929 . S
C800 C802 1.378 . S
C800 C804 1.350 . S
C801 C804 1.463 . S
C801 C806 1.350 . S
C801 N809 1.427 . S
C802 H793 0.930 . S
C802 C800 1.378 . S
C802 C803 1.367 . S
C803 C802 1.367 . S
C803 C805 1.433 . S
C804 C800 1.350 . S
C804 C801 1.463 . S
C804 N808 1.427 . S
C805 H795 0.929 . S
C805 C803 1.433 . S
C805 N808 1.384 . S
C806 H797 0.929 . S
C806 C798 1.378 . S
C806 C801 1.350 . S
C807 H794 0.929 . S
C807 C799 1.433 . S
C807 N809 1.384 . S
N808 C804 1.427 . S
N808 C805 1.384 . S
N809 C801 1.427 . S
N809 C807 1.384 . S
H810 C816 0.930 . S
H811 C820 0.930 . S
H812 C825 0.929 . S
H813 C823 0.929 . S
H814 C818 0.929 . S
H815 C824 0.929 . S
C816 H810 0.930 . S
C816 C817 1.367 . S
C816 C824 1.378 . S
C817 C816 1.367 . S
C817 C825 1.433 . S
C818 H814 0.929 . S
C818 C820 1.378 . S
C818 C822 1.350 . S
C819 C822 1.463 . S
C819 C824 1.350 . S
C819 N827 1.427 . S
C820 H811 0.930 . S
C820 C818 1.378 . S
C820 C821 1.367 . S
C821 C820 1.367 . S
C821 C823 1.433 . S
C822 C818 1.350 . S
C822 C819 1.463 . S
C822 N826 1.427 . S
C823 H813 0.929 . S
C823 C821 1.433 . S
C823 N826 1.384 . S
C824 H815 0.929 . S
C824 C816 1.378 . S
C824 C819 1.350 . S
C825 H812 0.929 . S
C825 C817 1.433 . S
C825 N827 1.384 . S
N826 C822 1.427 . S
N826 C823 1.384 . S
N827 C819 1.427 . S
N827 C825 1.384 . S
H828 C834 0.930 . S
H829 C838 0.930 . S
H830 C843 0.929 . S
H831 C841 0.929 . S
H832 C836 0.929 . S
H833 C842 0.929 . S
C834 H828 0.930 . S
C834 C835 1.367 . S
C834 C842 1.378 . S
C835 C834 1.367 . S
C835 C843 1.433 . S
C836 H832 0.929 . S
C836 C838 1.378 . S
C836 C840 1.350 . S
C837 C840 1.463 . S
C837 C842 1.350 . S
C837 N845 1.427 . S
C838 H829 0.930 . S
C838 C836 1.378 . S
C838 C839 1.367 . S
C839 C838 1.367 . S
C839 C841 1.433 . S
C840 C836 1.350 . S
C840 C837 1.463 . S
C840 N844 1.427 . S
C841 H831 0.929 . S
C841 C839 1.433 . S
C841 N844 1.384 . S
C842 H833 0.929 . S
C842 C834 1.378 . S
C842 C837 1.350 . S
C843 H830 0.929 . S
C843 C835 1.433 . S
C843 N845 1.384 . S
N844 C840 1.427 . S
N844 C841 1.384 . S
N845 C837 1.427 . S
N845 C843 1.384 . S
H846 C852 0.930 . S
H847 C856 0.930 . S
H848 C861 0.929 . S
H849 C859 0.929 . S
H850 C854 0.929 . S
H851 C860 0.929 . S
C852 H846 0.930 . S
C852 C853 1.367 . S
C852 C860 1.378 . S
C853 C852 1.367 . S
C853 C861 1.433 . S
C854 H850 0.929 . S
C854 C856 1.378 . S
C854 C858 1.350 . S
C855 C858 1.463 . S
C855 C860 1.350 . S
C855 N863 1.427 . S
C856 H847 0.930 . S
C856 C854 1.378 . S
C856 C857 1.367 . S
C857 C856 1.367 . S
C857 C859 1.433 . S
C858 C854 1.350 . S
C858 C855 1.463 . S
C858 N862 1.427 . S
C859 H849 0.929 . S
C859 C857 1.433 . S
C859 N862 1.384 . S
C860 H851 0.929 . S
C860 C852 1.378 . S
C860 C855 1.350 . S
C861 H848 0.929 . S
C861 C853 1.433 . S
C861 N863 1.384 . S
N862 C858 1.427 . S
N862 C859 1.384 . S
N863 C855 1.427 . S
N863 C861 1.384 . S
H864 C870 0.930 . S
H865 C874 0.930 . S
H866 C879 0.929 . S
H867 C877 0.929 . S
H868 C872 0.929 . S
H869 C878 0.929 . S
C870 H864 0.930 . S
C870 C871 1.367 . S
C870 C878 1.378 1_565 S
C871 C870 1.367 . S
C871 C879 1.433 . S
C872 H868 0.929 . S
C872 C874 1.378 . S
C872 C876 1.350 . S
C873 C876 1.463 . S
C873 C878 1.350 . S
C873 N881 1.427 1_545 S
C874 H865 0.930 . S
C874 C872 1.378 . S
C874 C875 1.367 . S
C875 C874 1.367 . S
C875 C877 1.433 . S
C876 C872 1.350 . S
C876 C873 1.463 . S
C876 N880 1.427 . S
C877 H867 0.929 . S
C877 C875 1.433 . S
C877 N880 1.384 . S
C878 H869 0.929 . S
C878 C870 1.378 1_545 S
C878 C873 1.350 . S
C879 H866 0.929 . S
C879 C871 1.433 . S
C879 N881 1.384 . S
N880 C876 1.427 . S
N880 C877 1.384 . S
N881 C873 1.427 1_565 S
N881 C879 1.384 . S
H882 C888 0.930 . S
H883 C892 0.930 . S
H884 C897 0.929 . S
H885 C895 0.929 . S
H886 C890 0.929 . S
H887 C896 0.929 . S
C888 H882 0.930 . S
C888 C889 1.367 . S
C888 C896 1.378 . S
C889 C888 1.367 . S
C889 C897 1.433 . S
C890 H886 0.929 . S
C890 C892 1.378 . S
C890 C894 1.350 . S
C891 C894 1.463 1_455 S
C891 C896 1.350 . S
C891 N899 1.427 . S
C892 H883 0.930 . S
C892 C890 1.378 . S
C892 C893 1.367 . S
C893 C892 1.367 . S
C893 C895 1.433 . S
C894 C890 1.350 . S
C894 C891 1.463 1_655 S
C894 N898 1.427 . S
C895 H885 0.929 . S
C895 C893 1.433 . S
C895 N898 1.384 . S
C896 H887 0.929 . S
C896 C888 1.378 . S
C896 C891 1.350 . S
C897 H884 0.929 . S
C897 C889 1.433 . S
C897 N899 1.384 . S
N898 C894 1.427 . S
N898 C895 1.384 . S
N899 C891 1.427 . S
N899 C897 1.384 . S
H900 C906 0.930 . S
H901 C910 0.930 . S
H902 C915 0.929 . S
H903 C913 0.929 . S
H904 C908 0.929 . S
H905 C914 0.929 . S
C906 H900 0.930 . S
C906 C907 1.367 . S
C906 C914 1.378 . S
C907 C906 1.367 . S
C907 C915 1.433 . S
C908 H904 0.929 . S
C908 C910 1.378 . S
C908 C912 1.350 . S
C909 C912 1.463 . S
C909 C914 1.350 . S
C909 N917 1.427 . S
C910 H901 0.930 . S
C910 C908 1.378 . S
C910 C911 1.367 . S
C911 C910 1.367 . S
C911 C913 1.433 . S
C912 C908 1.350 . S
C912 C909 1.463 . S
C912 N916 1.427 . S
C913 H903 0.929 . S
C913 C911 1.433 . S
C913 N916 1.384 . S
C914 H905 0.929 . S
C914 C906 1.378 . S
C914 C909 1.350 . S
C915 H902 0.929 . S
C915 C907 1.433 . S
C915 N917 1.384 . S
N916 C912 1.427 . S
N916 C913 1.384 . S
N917 C909 1.427 . S
N917 C915 1.384 . S
H918 C924 0.930 . S
H919 C928 0.930 . S
H920 C933 0.929 . S
H921 C931 0.929 . S
H922 C926 0.929 . S
H923 C932 0.929 1_655 S
C924 H918 0.930 . S
C924 C925 1.367 . S
C924 C932 1.378 . S
C925 C924 1.367 . S
C925 C933 1.433 . S
C926 H922 0.929 . S
C926 C928 1.378 . S
C926 C930 1.350 . S
C927 C930 1.463 . S
C927 C932 1.350 1_655 S
C927 N935 1.427 1_655 S
C928 H919 0.930 . S
C928 C926 1.378 . S
C928 C929 1.367 . S
C929 C928 1.367 . S
C929 C931 1.433 . S
C930 C926 1.350 . S
C930 C927 1.463 . S
C930 N934 1.427 . S
C931 H921 0.929 . S
C931 C929 1.433 . S
C931 N934 1.384 . S
C932 H923 0.929 1_455 S
C932 C924 1.378 . S
C932 C927 1.350 1_455 S
C933 H920 0.929 . S
C933 C925 1.433 . S
C933 N935 1.384 . S
N934 C930 1.427 . S
N934 C931 1.384 . S
N935 C927 1.427 1_455 S
N935 C933 1.384 . S
H936 C942 0.930 . S
H937 C946 0.930 . S
H938 C951 0.929 . S
H939 C949 0.929 . S
H940 C944 0.929 . S
H941 C950 0.929 . S
C942 H936 0.930 . S
C942 C943 1.367 . S
C942 C950 1.378 . S
C943 C942 1.367 . S
C943 C951 1.433 . S
C944 H940 0.929 . S
C944 C946 1.378 . S
C944 C948 1.350 . S
C945 C948 1.463 . S
C945 C950 1.350 . S
C945 N953 1.427 . S
C946 H937 0.930 . S
C946 C944 1.378 . S
C946 C947 1.367 . S
C947 C946 1.367 . S
C947 C949 1.433 . S
C948 C944 1.350 . S
C948 C945 1.463 . S
C948 N952 1.427 . S
C949 H939 0.929 . S
C949 C947 1.433 . S
C949 N952 1.384 . S
C950 H941 0.929 . S
C950 C942 1.378 . S
C950 C945 1.350 . S
C951 H938 0.929 . S
C951 C943 1.433 . S
C951 N953 1.384 . S
N952 C948 1.427 . S
N952 C949 1.384 . S
N953 C945 1.427 . S
N953 C951 1.384 . S
H954 C960 0.930 . S
H955 C964 0.930 . S
H956 C969 0.929 . S
H957 C967 0.929 . S
H958 C962 0.929 . S
H959 C968 0.929 1_545 S
C960 H954 0.930 . S
C960 C961 1.367 . S
C960 C968 1.378 . S
C961 C960 1.367 . S
C961 C969 1.433 . S
C962 H958 0.929 . S
C962 C964 1.378 . S
C962 C966 1.350 . S
C963 C966 1.463 . S
C963 C968 1.350 1_545 S
C963 N971 1.427 . S
C964 H955 0.930 . S
C964 C962 1.378 . S
C964 C965 1.367 . S
C965 C964 1.367 . S
C965 C967 1.433 . S
C966 C962 1.350 . S
C966 C963 1.463 . S
C966 N970 1.427 . S
C967 H957 0.929 . S
C967 C965 1.433 . S
C967 N970 1.384 . S
C968 H959 0.929 1_565 S
C968 C960 1.378 . S
C968 C963 1.350 1_565 S
C969 H956 0.929 . S
C969 C961 1.433 . S
C969 N971 1.384 1_565 S
N970 C966 1.427 . S
N970 C967 1.384 . S
N971 C963 1.427 . S
N971 C969 1.384 1_545 S
H972 C978 0.930 . S
H973 C982 0.930 . S
H974 C987 0.929 . S
H975 C985 0.929 . S
H976 C980 0.929 . S
H977 C986 0.929 . S
C978 H972 0.930 . S
C978 C979 1.367 . S
C978 C986 1.378 . S
C979 C978 1.367 . S
C979 C987 1.433 . S
C980 H976 0.929 . S
C980 C982 1.378 . S
C980 C984 1.350 . S
C981 C984 1.463 . S
C981 C986 1.350 . S
C981 N989 1.427 . S
C982 H973 0.930 . S
C982 C980 1.378 . S
C982 C983 1.367 . S
C983 C982 1.367 . S
C983 C985 1.433 . S
C984 C980 1.350 . S
C984 C981 1.463 . S
C984 N988 1.427 . S
C985 H975 0.929 . S
C985 C983 1.433 . S
C985 N988 1.384 . S
C986 H977 0.929 . S
C986 C978 1.378 . S
C986 C981 1.350 . S
C987 H974 0.929 . S
C987 C979 1.433 . S
C987 N989 1.384 . S
N988 C984 1.427 . S
N988 C985 1.384 . S
N989 C981 1.427 . S
N989 C987 1.384 . S
H990 C996 0.930 . S
H991 C1000 0.930 . S
H992 C1005 0.929 . S
H993 C1003 0.929 . S
H994 C998 0.929 . S
H995 C1004 0.929 . S
C996 H990 0.930 . S
C996 C997 1.367 . S
C996 C1004 1.378 . S
C997 C996 1.367 . S
C997 C1005 1.433 . S
C998 H994 0.929 . S
C998 C1000 1.378 . S
C998 C1002 1.350 . S
C999 C1002 1.463 . S
C999 C1004 1.350 . S
C999 N1007 1.427 . S
C1000 H991 0.930 . S
C1000 C998 1.378 . S
C1000 C1001 1.367 . S
C1001 C1000 1.367 . S
C1001 C1003 1.433 . S
C1002 C998 1.350 . S
C1002 C999 1.463 . S
C1002 N1006 1.427 . S
C1003 H993 0.929 . S
C1003 C1001 1.433 . S
C1003 N1006 1.384 . S
C1004 H995 0.929 . S
C1004 C996 1.378 . S
C1004 C999 1.350 . S
C1005 H992 0.929 . S
C1005 C997 1.433 . S
C1005 N1007 1.384 . S
N1006 C1002 1.427 . S
N1006 C1003 1.384 . S
N1007 C999 1.427 . S
N1007 C1005 1.384 . S
H1008 C1014 0.930 . S
H1009 C1018 0.930 . S
H1010 C1023 0.929 . S
H1011 C1021 0.929 . S
H1012 C1016 0.929 . S
H1013 C1022 0.929 . S
C1014 H1008 0.930 . S
C1014 C1015 1.367 . S
C1014 C1022 1.378 . S
C1015 C1014 1.367 . S
C1015 C1023 1.433 . S
C1016 H1012 0.929 . S
C1016 C1018 1.378 . S
C1016 C1020 1.350 . S
C1017 C1020 1.463 . S
C1017 C1022 1.350 . S
C1017 N1025 1.427 . S
C1018 H1009 0.930 . S
C1018 C1016 1.378 . S
C1018 C1019 1.367 . S
C1019 C1018 1.367 . S
C1019 C1021 1.433 . S
C1020 C1016 1.350 . S
C1020 C1017 1.463 . S
C1020 N1024 1.427 . S
C1021 H1011 0.929 . S
C1021 C1019 1.433 . S
C1021 N1024 1.384 . S
C1022 H1013 0.929 . S
C1022 C1014 1.378 . S
C1022 C1017 1.350 . S
C1023 H1010 0.929 . S
C1023 C1015 1.433 . S
C1023 N1025 1.384 . S
N1024 C1020 1.427 . S
N1024 C1021 1.384 . S
N1025 C1017 1.427 . S
N1025 C1023 1.384 . S
H1026 C1032 0.930 . S
H1027 C1036 0.930 1_545 S
H1028 C1041 0.929 . S
H1029 C1039 0.929 . S
H1030 C1034 0.923 1_545 S
H1031 C1040 0.929 . S
C1032 H1026 0.930 . S
C1032 C1033 1.367 . S
C1032 C1040 1.378 . S
C1033 C1032 1.367 . S
C1033 C1041 1.433 . S
C1034 H1030 0.923 1_565 S
C1034 C1036 1.378 . S
C1034 C1038 1.350 . S
C1035 C1038 1.463 . S
C1035 C1040 1.350 . S
C1035 N1043 1.427 . S
C1036 H1027 0.930 1_565 S
C1036 C1034 1.378 . S
C1036 C1037 1.367 . S
C1037 C1036 1.367 . S
C1037 C1039 1.433 . S
C1038 C1034 1.350 . S
C1038 C1035 1.463 . S
C1038 N1042 1.427 . S
C1039 H1029 0.929 . S
C1039 C1037 1.433 . S
C1039 N1042 1.384 . S
C1040 H1031 0.929 . S
C1040 C1032 1.378 . S
C1040 C1035 1.350 . S
C1041 H1028 0.929 . S
C1041 C1033 1.433 . S
C1041 N1043 1.384 . S
N1042 C1038 1.427 . S
N1042 C1039 1.384 . S
N1043 C1035 1.427 . S
N1043 C1041 1.384 . S
H1044 C1050 0.930 . S
H1045 C1054 0.930 . S
H1046 C1059 0.929 . S
H1047 C1057 0.929 . S
H1048 C1052 0.929 . S
H1049 C1058 0.929 . S
C1050 H1044 0.930 . S
C1050 C1051 1.367 . S
C1050 C1058 1.378 . S
C1051 C1050 1.367 . S
C1051 C1059 1.433 . S
C1052 H1048 0.929 . S
C1052 C1054 1.378 . S
C1052 C1056 1.350 . S
C1053 C1056 1.463 . S
C1053 C1058 1.350 . S
C1053 N1061 1.427 . S
C1054 H1045 0.930 . S
C1054 C1052 1.378 . S
C1054 C1055 1.367 . S
C1055 C1054 1.367 . S
C1055 C1057 1.433 . S
C1056 C1052 1.350 . S
C1056 C1053 1.463 . S
C1056 N1060 1.427 . S
C1057 H1047 0.929 . S
C1057 C1055 1.433 . S
C1057 N1060 1.384 . S
C1058 H1049 0.929 . S
C1058 C1050 1.378 . S
C1058 C1053 1.350 . S
C1059 H1046 0.929 . S
C1059 C1051 1.433 . S
C1059 N1061 1.384 . S
N1060 C1056 1.427 . S
N1060 C1057 1.384 . S
N1061 C1053 1.427 . S
N1061 C1059 1.384 . S
H1062 C1068 0.930 . S
H1063 C1072 0.930 . S
H1064 C1077 0.929 . S
H1065 C1075 0.929 . S
H1066 C1070 0.929 . S
H1067 C1076 0.929 . S
C1068 H1062 0.930 . S
C1068 C1069 1.367 . S
C1068 C1076 1.378 . S
C1069 C1068 1.367 . S
C1069 C1077 1.433 . S
C1070 H1066 0.929 . S
C1070 C1072 1.378 . S
C1070 C1074 1.350 . S
C1071 C1074 1.463 . S
C1071 C1076 1.350 . S
C1071 N1079 1.427 . S
C1072 H1063 0.930 . S
C1072 C1070 1.378 . S
C1072 C1073 1.367 . S
C1073 C1072 1.367 . S
C1073 C1075 1.433 . S
C1074 C1070 1.350 . S
C1074 C1071 1.463 . S
C1074 N1078 1.427 . S
C1075 H1065 0.929 . S
C1075 C1073 1.433 . S
C1075 N1078 1.384 . S
C1076 H1067 0.929 . S
C1076 C1068 1.378 . S
C1076 C1071 1.350 . S
C1077 H1064 0.929 . S
C1077 C1069 1.433 . S
C1077 N1079 1.384 . S
N1078 C1074 1.427 . S
N1078 C1075 1.384 . S
N1079 C1071 1.427 . S
N1079 C1077 1.384 . S
H1080 C1086 0.930 . S
H1081 C1090 0.930 . S
H1082 C1095 0.929 . S
H1083 C1093 0.929 . S
H1084 C1088 0.929 . S
H1085 C1094 0.929 . S
C1086 H1080 0.930 . S
C1086 C1087 1.367 . S
C1086 C1094 1.378 . S
C1087 C1086 1.367 . S
C1087 C1095 1.433 . S
C1088 H1084 0.929 . S
C1088 C1090 1.378 . S
C1088 C1092 1.350 . S
C1089 C1092 1.463 . S
C1089 C1094 1.350 . S
C1089 N1097 1.427 . S
C1090 H1081 0.930 . S
C1090 C1088 1.378 . S
C1090 C1091 1.367 . S
C1091 C1090 1.367 . S
C1091 C1093 1.433 . S
C1092 C1088 1.350 . S
C1092 C1089 1.463 . S
C1092 N1096 1.427 . S
C1093 H1083 0.929 . S
C1093 C1091 1.433 . S
C1093 N1096 1.384 . S
C1094 H1085 0.929 . S
C1094 C1086 1.378 . S
C1094 C1089 1.350 . S
C1095 H1082 0.929 . S
C1095 C1087 1.433 . S
C1095 N1097 1.384 . S
N1096 C1092 1.427 . S
N1096 C1093 1.384 . S
N1097 C1089 1.427 . S
N1097 C1095 1.384 . S
H1098 C1104 0.930 . S
H1099 C1108 0.930 . S
H1100 C1113 0.929 . S
H1101 C1111 0.929 . S
H1102 C1106 0.929 . S
H1103 C1112 0.929 . S
C1104 H1098 0.930 . S
C1104 C1105 1.367 . S
C1104 C1112 1.378 . S
C1105 C1104 1.367 . S
C1105 C1113 1.433 . S
C1106 H1102 0.929 . S
C1106 C1108 1.378 . S
C1106 C1110 1.350 . S
C1107 C1110 1.463 . S
C1107 C1112 1.350 . S
C1107 N1115 1.427 . S
C1108 H1099 0.930 . S
C1108 C1106 1.378 . S
C1108 C1109 1.367 . S
C1109 C1108 1.367 . S
C1109 C1111 1.433 . S
C1110 C1106 1.350 . S
C1110 C1107 1.463 . S
C1110 N1114 1.427 . S
C1111 H1101 0.929 . S
C1111 C1109 1.433 . S
C1111 N1114 1.384 . S
C1112 H1103 0.929 . S
C1112 C1104 1.378 . S
C1112 C1107 1.350 . S
C1113 H1100 0.929 . S
C1113 C1105 1.433 . S
C1113 N1115 1.384 . S
N1114 C1110 1.427 . S
N1114 C1111 1.384 . S
N1115 C1107 1.427 . S
N1115 C1113 1.384 . S
H1116 C1122 0.930 . S
H1117 C1126 0.930 . S
H1118 C1131 0.929 . S
H1119 C1129 0.929 1_565 S
H1120 C1124 0.929 . S
H1121 C1130 0.929 . S
C1122 H1116 0.930 . S
C1122 C1123 1.367 . S
C1122 C1130 1.378 . S
C1123 C1122 1.367 . S
C1123 C1131 1.433 . S
C1124 H1120 0.929 . S
C1124 C1126 1.378 . S
C1124 C1128 1.350 . S
C1125 C1128 1.463 . S
C1125 C1130 1.350 . S
C1125 N1133 1.427 . S
C1126 H1117 0.930 . S
C1126 C1124 1.378 . S
C1126 C1127 1.367 . S
C1127 C1126 1.367 . S
C1127 C1129 1.433 . S
C1128 C1124 1.350 . S
C1128 C1125 1.463 . S
C1128 N1132 1.427 . S
C1129 H1119 0.929 1_545 S
C1129 C1127 1.433 . S
C1129 N1132 1.384 . S
C1130 H1121 0.929 . S
C1130 C1122 1.378 . S
C1130 C1125 1.350 . S
C1131 H1118 0.929 . S
C1131 C1123 1.433 . S
C1131 N1133 1.384 . S
N1132 C1128 1.427 . S
N1132 C1129 1.384 . S
N1133 C1125 1.427 . S
N1133 C1131 1.384 . S
H1134 C1140 0.930 . S
H1135 C1144 0.930 . S
H1136 C1149 0.929 . S
H1137 C1147 0.929 . S
H1138 C1142 0.929 . S
H1139 C1148 0.929 . S
C1140 H1134 0.930 . S
C1140 C1141 1.367 . S
C1140 C1148 1.378 . S
C1141 C1140 1.367 . S
C1141 C1149 1.433 . S
C1142 H1138 0.929 . S
C1142 C1144 1.378 . S
C1142 C1146 1.350 . S
C1143 C1146 1.463 . S
C1143 C1148 1.350 . S
C1143 N1151 1.427 . S
C1144 H1135 0.930 . S
C1144 C1142 1.378 . S
C1144 C1145 1.367 . S
C1145 C1144 1.367 . S
C1145 C1147 1.433 . S
C1146 C1142 1.350 . S
C1146 C1143 1.463 . S
C1146 N1150 1.427 . S
C1147 H1137 0.929 . S
C1147 C1145 1.433 . S
C1147 N1150 1.384 . S
C1148 H1139 0.929 . S
C1148 C1140 1.378 . S
C1148 C1143 1.350 . S
C1149 H1136 0.929 . S
C1149 C1141 1.433 . S
C1149 N1151 1.384 . S
N1150 C1146 1.427 . S
N1150 C1147 1.384 . S
N1151 C1143 1.427 . S
N1151 C1149 1.384 . S
H1152 C1158 0.930 . S
H1153 C1162 0.930 . S
H1154 C1167 0.929 . S
H1155 C1165 0.929 . S
H1156 C1160 0.929 . S
H1157 C1166 0.929 . S
C1158 H1152 0.930 . S
C1158 C1159 1.367 . S
C1158 C1166 1.378 . S
C1159 C1158 1.367 . S
C1159 C1167 1.433 . S
C1160 H1156 0.929 . S
C1160 C1162 1.378 . S
C1160 C1164 1.350 . S
C1161 C1164 1.463 . S
C1161 C1166 1.350 . S
C1161 N1169 1.427 . S
C1162 H1153 0.930 . S
C1162 C1160 1.378 . S
C1162 C1163 1.367 . S
C1163 C1162 1.367 . S
C1163 C1165 1.433 . S
C1164 C1160 1.350 . S
C1164 C1161 1.463 . S
C1164 N1168 1.427 . S
C1165 H1155 0.929 . S
C1165 C1163 1.433 . S
C1165 N1168 1.384 . S
C1166 H1157 0.929 . S
C1166 C1158 1.378 . S
C1166 C1161 1.350 . S
C1167 H1154 0.929 . S
C1167 C1159 1.433 . S
C1167 N1169 1.384 . S
N1168 C1164 1.427 . S
N1168 C1165 1.384 . S
N1169 C1161 1.427 . S
N1169 C1167 1.384 . S
H1170 C1176 0.930 . S
H1171 C1180 0.930 . S
H1172 C1185 0.929 . S
H1173 C1183 0.929 . S
H1174 C1178 0.929 . S
H1175 C1184 0.929 . S
C1176 H1170 0.930 . S
C1176 C1177 1.367 . S
C1176 C1184 1.378 . S
C1177 C1176 1.367 . S
C1177 C1185 1.433 . S
C1178 H1174 0.929 . S
C1178 C1180 1.378 . S
C1178 C1182 1.350 . S
C1179 C1182 1.463 . S
C1179 C1184 1.350 . S
C1179 N1187 1.427 . S
C1180 H1171 0.930 . S
C1180 C1178 1.378 . S
C1180 C1181 1.367 . S
C1181 C1180 1.367 . S
C1181 C1183 1.433 . S
C1182 C1178 1.350 . S
C1182 C1179 1.463 . S
C1182 N1186 1.427 . S
C1183 H1173 0.929 . S
C1183 C1181 1.433 . S
C1183 N1186 1.384 . S
C1184 H1175 0.929 . S
C1184 C1176 1.378 . S
C1184 C1179 1.350 . S
C1185 H1172 0.929 . S
C1185 C1177 1.433 . S
C1185 N1187 1.384 . S
N1186 C1182 1.427 . S
N1186 C1183 1.384 . S
N1187 C1179 1.427 . S
N1187 C1185 1.384 . S
H1188 C1194 0.930 . S
H1189 C1198 0.930 . S
H1190 C1203 0.929 . S
H1191 C1201 0.929 . S
H1192 C1196 0.929 . S
H1193 C1202 0.929 . S
C1194 H1188 0.930 . S
C1194 C1195 1.367 . S
C1194 C1202 1.378 . S
C1195 C1194 1.367 . S
C1195 C1203 1.433 . S
C1196 H1192 0.929 . S
C1196 C1198 1.378 . S
C1196 C1200 1.350 . S
C1197 C1200 1.463 . S
C1197 C1202 1.350 . S
C1197 N1205 1.427 . S
C1198 H1189 0.930 . S
C1198 C1196 1.378 . S
C1198 C1199 1.367 . S
C1199 C1198 1.367 . S
C1199 C1201 1.433 . S
C1200 C1196 1.350 . S
C1200 C1197 1.463 . S
C1200 N1204 1.427 . S
C1201 H1191 0.929 . S
C1201 C1199 1.433 . S
C1201 N1204 1.384 . S
C1202 H1193 0.929 . S
C1202 C1194 1.378 . S
C1202 C1197 1.350 . S
C1203 H1190 0.929 . S
C1203 C1195 1.433 . S
C1203 N1205 1.384 . S
N1204 C1200 1.427 . S
N1204 C1201 1.384 . S
N1205 C1197 1.427 . S
N1205 C1203 1.384 . S
H1206 C1212 0.930 . S
H1207 C1216 0.930 . S
H1208 C1221 0.929 . S
H1209 C1219 0.929 . S
H1210 C1214 0.929 . S
H1211 C1220 0.929 . S
C1212 H1206 0.930 . S
C1212 C1213 1.367 . S
C1212 C1220 1.378 . S
C1213 C1212 1.367 . S
C1213 C1221 1.433 . S
C1214 H1210 0.929 . S
C1214 C1216 1.378 . S
C1214 C1218 1.350 . S
C1215 C1218 1.463 . S
C1215 C1220 1.350 . S
C1215 N1223 1.427 . S
C1216 H1207 0.930 . S
C1216 C1214 1.378 . S
C1216 C1217 1.367 . S
C1217 C1216 1.367 . S
C1217 C1219 1.433 . S
C1218 C1214 1.350 . S
C1218 C1215 1.463 . S
C1218 N1222 1.427 . S
C1219 H1209 0.929 . S
C1219 C1217 1.433 . S
C1219 N1222 1.384 . S
C1220 H1211 0.929 . S
C1220 C1212 1.378 . S
C1220 C1215 1.350 . S
C1221 H1208 0.929 . S
C1221 C1213 1.433 . S
C1221 N1223 1.384 . S
N1222 C1218 1.427 . S
N1222 C1219 1.384 . S
N1223 C1215 1.427 . S
N1223 C1221 1.384 . S
H1224 C1230 0.930 . S
H1225 C1234 0.930 . S
H1226 C1239 0.929 . S
H1227 C1237 0.929 . S
H1228 C1232 0.929 . S
H1229 C1238 0.929 . S
C1230 H1224 0.930 . S
C1230 C1231 1.367 . S
C1230 C1238 1.378 . S
C1231 C1230 1.367 . S
C1231 C1239 1.433 . S
C1232 H1228 0.929 . S
C1232 C1234 1.378 . S
C1232 C1236 1.350 . S
C1233 C1236 1.463 . S
C1233 C1238 1.350 . S
C1233 N1241 1.427 . S
C1234 H1225 0.930 . S
C1234 C1232 1.378 . S
C1234 C1235 1.367 . S
C1235 C1234 1.367 . S
C1235 C1237 1.433 . S
C1236 C1232 1.350 . S
C1236 C1233 1.463 . S
C1236 N1240 1.427 . S
C1237 H1227 0.929 . S
C1237 C1235 1.433 . S
C1237 N1240 1.384 . S
C1238 H1229 0.929 . S
C1238 C1230 1.378 . S
C1238 C1233 1.350 . S
C1239 H1226 0.929 . S
C1239 C1231 1.433 . S
C1239 N1241 1.384 . S
N1240 C1236 1.427 . S
N1240 C1237 1.384 . S
N1241 C1233 1.427 . S
N1241 C1239 1.384 . S
H1242 C1248 0.930 . S
H1243 C1252 0.930 . S
H1244 C1257 0.929 . S
H1245 C1255 0.929 . S
H1246 C1250 0.929 . S
H1247 C1256 0.929 . S
C1248 H1242 0.930 . S
C1248 C1249 1.367 . S
C1248 C1256 1.378 . S
C1249 C1248 1.367 . S
C1249 C1257 1.433 . S
C1250 H1246 0.929 . S
C1250 C1252 1.378 . S
C1250 C1254 1.350 . S
C1251 C1254 1.463 . S
C1251 C1256 1.350 . S
C1251 N1259 1.427 . S
C1252 H1243 0.930 . S
C1252 C1250 1.378 . S
C1252 C1253 1.367 . S
C1253 C1252 1.367 . S
C1253 C1255 1.433 . S
C1254 C1250 1.350 . S
C1254 C1251 1.463 . S
C1254 N1258 1.427 . S
C1255 H1245 0.929 . S
C1255 C1253 1.433 . S
C1255 N1258 1.384 . S
C1256 H1247 0.929 . S
C1256 C1248 1.378 . S
C1256 C1251 1.350 . S
C1257 H1244 0.929 . S
C1257 C1249 1.433 . S
C1257 N1259 1.384 . S
N1258 C1254 1.427 . S
N1258 C1255 1.384 . S
N1259 C1251 1.427 . S
N1259 C1257 1.384 . S
H1260 C1266 0.930 . S
H1261 C1270 0.930 . S
H1262 C1275 0.929 . S
H1263 C1273 0.929 . S
H1264 C1268 0.929 . S
H1265 C1274 0.929 . S
C1266 H1260 0.930 . S
C1266 C1267 1.367 . S
C1266 C1274 1.378 . S
C1267 C1266 1.367 . S
C1267 C1275 1.433 . S
C1268 H1264 0.929 . S
C1268 C1270 1.378 . S
C1268 C1272 1.350 . S
C1269 C1272 1.463 . S
C1269 C1274 1.350 . S
C1269 N1277 1.427 . S
C1270 H1261 0.930 . S
C1270 C1268 1.378 . S
C1270 C1271 1.367 . S
C1271 C1270 1.367 . S
C1271 C1273 1.433 . S
C1272 C1268 1.350 . S
C1272 C1269 1.463 . S
C1272 N1276 1.427 . S
C1273 H1263 0.929 . S
C1273 C1271 1.433 . S
C1273 N1276 1.384 . S
C1274 H1265 0.929 . S
C1274 C1266 1.378 . S
C1274 C1269 1.350 . S
C1275 H1262 0.929 . S
C1275 C1267 1.433 . S
C1275 N1277 1.384 . S
N1276 C1272 1.427 . S
N1276 C1273 1.384 . S
N1277 C1269 1.427 . S
N1277 C1275 1.384 . S
H1278 C1284 0.930 . S
H1279 C1288 0.930 . S
H1280 C1293 0.929 . S
H1281 C1291 0.929 . S
H1282 C1286 0.929 . S
H1283 C1292 0.929 . S
C1284 H1278 0.930 . S
C1284 C1285 1.367 . S
C1284 C1292 1.378 . S
C1285 C1284 1.367 . S
C1285 C1293 1.433 . S
C1286 H1282 0.929 . S
C1286 C1288 1.378 . S
C1286 C1290 1.350 . S
C1287 C1290 1.463 . S
C1287 C1292 1.350 . S
C1287 N1295 1.427 . S
C1288 H1279 0.930 . S
C1288 C1286 1.378 . S
C1288 C1289 1.367 . S
C1289 C1288 1.367 . S
C1289 C1291 1.433 . S
C1290 C1286 1.350 . S
C1290 C1287 1.463 . S
C1290 N1294 1.427 . S
C1291 H1281 0.929 . S
C1291 C1289 1.433 . S
C1291 N1294 1.384 . S
C1292 H1283 0.929 . S
C1292 C1284 1.378 . S
C1292 C1287 1.350 . S
C1293 H1280 0.929 . S
C1293 C1285 1.433 . S
C1293 N1295 1.384 . S
N1294 C1290 1.427 . S
N1294 C1291 1.384 . S
N1295 C1287 1.427 . S
N1295 C1293 1.384 . S
H1296 C1302 0.930 . S
H1297 C1306 0.930 . S
H1298 C1311 0.929 . S
H1299 C1309 0.929 . S
H1300 C1304 0.929 . S
H1301 C1310 0.929 . S
C1302 H1296 0.930 . S
C1302 C1303 1.367 . S
C1302 C1310 1.378 . S
C1303 C1302 1.367 . S
C1303 C1311 1.433 . S
C1304 H1300 0.929 . S
C1304 C1306 1.378 . S
C1304 C1308 1.350 . S
C1305 C1308 1.463 . S
C1305 C1310 1.350 . S
C1305 N1313 1.427 . S
C1306 H1297 0.930 . S
C1306 C1304 1.378 . S
C1306 C1307 1.367 . S
C1307 C1306 1.367 . S
C1307 C1309 1.433 . S
C1308 C1304 1.350 . S
C1308 C1305 1.463 . S
C1308 N1312 1.427 . S
C1309 H1299 0.929 . S
C1309 C1307 1.433 . S
C1309 N1312 1.384 . S
C1310 H1301 0.929 . S
C1310 C1302 1.378 . S
C1310 C1305 1.350 . S
C1311 H1298 0.929 . S
C1311 C1303 1.433 . S
C1311 N1313 1.384 . S
N1312 C1308 1.427 . S
N1312 C1309 1.384 . S
N1313 C1305 1.427 . S
N1313 C1311 1.384 . S
H1314 C1320 0.930 . S
H1315 C1324 0.930 . S
H1316 C1329 0.929 . S
H1317 C1327 0.929 . S
H1318 C1322 0.929 . S
H1319 C1328 0.929 . S
C1320 H1314 0.930 . S
C1320 C1321 1.367 . S
C1320 C1328 1.378 . S
C1321 C1320 1.367 . S
C1321 C1329 1.433 . S
C1322 H1318 0.929 . S
C1322 C1324 1.378 . S
C1322 C1326 1.350 . S
C1323 C1326 1.463 . S
C1323 C1328 1.350 . S
C1323 N1331 1.427 . S
C1324 H1315 0.930 . S
C1324 C1322 1.378 . S
C1324 C1325 1.367 . S
C1325 C1324 1.367 . S
C1325 C1327 1.433 . S
C1326 C1322 1.350 . S
C1326 C1323 1.463 . S
C1326 N1330 1.427 . S
C1327 H1317 0.929 . S
C1327 C1325 1.433 . S
C1327 N1330 1.384 . S
C1328 H1319 0.929 . S
C1328 C1320 1.378 . S
C1328 C1323 1.350 . S
C1329 H1316 0.929 . S
C1329 C1321 1.433 . S
C1329 N1331 1.384 . S
N1330 C1326 1.427 . S
N1330 C1327 1.384 . S
N1331 C1323 1.427 . S
N1331 C1329 1.384 . S
H1332 C1338 0.930 . S
H1333 C1342 0.930 . S
H1334 C1347 0.929 . S
H1335 C1345 0.929 . S
H1336 C1340 0.929 . S
H1337 C1346 0.929 . S
C1338 H1332 0.930 . S
C1338 C1339 1.367 . S
C1338 C1346 1.378 . S
C1339 C1338 1.367 . S
C1339 C1347 1.433 . S
C1340 H1336 0.929 . S
C1340 C1342 1.378 . S
C1340 C1344 1.350 . S
C1341 C1344 1.463 . S
C1341 C1346 1.350 . S
C1341 N1349 1.427 . S
C1342 H1333 0.930 . S
C1342 C1340 1.378 . S
C1342 C1343 1.367 . S
C1343 C1342 1.367 . S
C1343 C1345 1.433 . S
C1344 C1340 1.350 . S
C1344 C1341 1.463 . S
C1344 N1348 1.427 . S
C1345 H1335 0.929 . S
C1345 C1343 1.433 . S
C1345 N1348 1.384 . S
C1346 H1337 0.929 . S
C1346 C1338 1.378 . S
C1346 C1341 1.350 . S
C1347 H1334 0.929 . S
C1347 C1339 1.433 . S
C1347 N1349 1.384 . S
N1348 C1344 1.427 . S
N1348 C1345 1.384 . S
N1349 C1341 1.427 . S
N1349 C1347 1.384 . S
C385 C151 1.299 . S
C389 C204 1.298 . S
C403 C159 1.582 . S
C407 C224 1.720 . S
C421 C137 1.383 . S
C425 C247 1.536 . S
C439 C126 1.296 . S
C443 C227 1.427 1_556 S
C461 C244 1.709 . S
C457 C104 1.576 . S
C475 C118 1.243 . S
C479 C207 1.262 . S
C497 C214 1.492 . S
C493 C129 1.526 . S
C515 C234 1.520 . S
C511 C107 1.548 . S
C529 C115 1.261 . S
C533 C239 1.537 . S
C547 C148 1.188 . S
C551 C219 1.421 . S
C565 C162 1.521 . S
C569 C254 1.491 . S
C587 C199 1.477 . S
C583 C140 1.487 . S
C605 C264 1.289 . S
C601 C19 1.291 . S
C619 C27 1.578 . S
C623 C284 1.718 . S
C637 C5 1.393 . S
C641 C307 1.530 . S
C655 C192 1.301 . S
C659 C287 1.427 . S
C673 C170 1.589 . S
C677 C304 1.700 . S
C691 C184 1.241 . S
C695 C267 1.262 . S
C709 C195 1.527 . S
C713 C274 1.491 . S
C727 C173 1.545 . S
C731 C294 1.509 . S
C749 C299 1.540 . S
C745 C181 1.268 . S
C763 C16 1.186 . S
C767 C279 1.421 . S
C785 C314 1.500 . S
C781 C30 1.521 . S
C799 C8 1.489 . S
C803 C259 1.475 . S
C821 C324 1.296 . S
C817 C85 1.298 . S
C835 C93 1.578 . S
C839 C344 1.719 . S
C857 C367 1.536 . S
C853 C71 1.380 . S
C875 C347 1.427 . S
C871 C60 1.297 . S
C893 C364 1.702 . S
C889 C38 1.575 . S
C907 C52 1.233 . S
C911 C327 1.257 . S
C925 C63 1.526 . S
C929 C334 1.497 . S
C943 C41 1.547 . S
C947 C354 1.521 . S
C965 C359 1.535 . S
C961 C49 1.256 . S
C979 C82 1.187 . S
C983 C339 1.421 . S
C997 C96 1.522 . S
C1001 C374 1.500 . S
C1015 C74 1.488 . S
C1019 C319 1.476 . S
C1033 C172 1.494 . S
C1037 C217 1.488 . S
C1055 C237 1.431 . S
C1051 C183 1.423 . S
C1069 C194 1.501 . S
C1073 C246 1.463 . S
C1087 C73 1.676 . S
C1091 C226 1.632 . S
C1105 C84 1.246 . S
C1109 C257 1.257 . S
C1127 C206 1.464 . S
C1123 C95 1.466 . S
C1141 C40 1.481 . S
C1145 C277 1.501 . S
C1159 C51 1.425 . S
C1163 C297 1.433 . S
C1177 C62 1.498 . S
C1181 C306 1.468 . S
C1195 C139 1.685 . S
C1199 C286 1.634 . S
C1217 C317 1.261 . S
C1213 C150 1.253 . S
C1231 C161 1.461 . S
C1235 C266 1.460 . S
C1249 C106 1.495 . S
C1253 C337 1.489 . S
C1267 C117 1.429 . S
C1271 C357 1.436 . S
C1289 C366 1.476 . S
C1285 C128 1.506 . S
C1303 C7 1.676 . S
C1307 C346 1.629 . S
C1321 C18 1.246 . S
C1325 C377 1.257 . S
C1339 C29 1.472 . S
C1343 C326 1.452 . S
