# Generated by pormake.
# Topology zzz, (3,6)-cn, num edge types: 1
# Building blocks:
#     Node 0, Type 0, BuildingBlock: WUSLED_clean_sbu_0, # of connection points: 3
#     Node 1, Type 0, BuildingBlock: WUSLED_clean_sbu_0, # of connection points: 3
#     Node 2, Type 0, BuildingBlock: WUSLED_clean_sbu_0, # of connection points: 3
#     Node 3, Type 0, BuildingBlock: WUSLED_clean_sbu_0, # of connection points: 3
#     Node 4, Type 0, BuildingBlock: WUSLED_clean_sbu_0, # of connection points: 3
#     Node 5, Type 0, BuildingBlock: WUSLED_clean_sbu_0, # of connection points: 3
#     Node 6, Type 0, BuildingBlock: WUSLED_clean_sbu_0, # of connection points: 3
#     Node 7, Type 0, BuildingBlock: WUSLED_clean_sbu_0, # of connection points: 3
#     Node 8, Type 1, BuildingBlock: FUNLAD_clean_sbu_0, # of connection points: 6
#     Node 9, Type 1, BuildingBlock: FUNLAD_clean_sbu_0, # of connection points: 6
#     Node 10, Type 1, BuildingBlock: FUNLAD_clean_sbu_0, # of connection points: 6
#     Node 11, Type 1, BuildingBlock: FUNLAD_clean_sbu_0, # of connection points: 6
#     Edge 12, Type (0, 1), None
#     Edge 13, Type (0, 1), None
#     Edge 14, Type (0, 1), None
#     Edge 15, Type (0, 1), None
#     Edge 16, Type (0, 1), None
#     Edge 17, Type (0, 1), None
#     Edge 18, Type (0, 1), None
#     Edge 19, Type (0, 1), None
#     Edge 20, Type (0, 1), None
#     Edge 21, Type (0, 1), None
#     Edge 22, Type (0, 1), None
#     Edge 23, Type (0, 1), None
#     Edge 24, Type (0, 1), None
#     Edge 25, Type (0, 1), None
#     Edge 26, Type (0, 1), None
#     Edge 27, Type (0, 1), None
#     Edge 28, Type (0, 1), None
#     Edge 29, Type (0, 1), None
#     Edge 30, Type (0, 1), None
#     Edge 31, Type (0, 1), None
#     Edge 32, Type (0, 1), None
#     Edge 33, Type (0, 1), None
#     Edge 34, Type (0, 1), None
#     Edge 35, Type (0, 1), None
# Relax obj value: 0.239
# Max RMSD: 0.240
# Mean RMSD: 0.189
data_MOF--net-zzz--node1-WUSLED_clean_sbu_0--node2-FUNLAD_clean_sbu_0--edge1-none
_symmetry_space_group_name_H-M    P1
_symmetry_Int_Tables_number       1
_symmetry_cell_setting            triclinic
loop_
_symmetry_equiv_pos_as_xyz
'x, y, z'
_cell_length_a     36.881796
_cell_length_b     42.150518
_cell_length_c     14.098384
_cell_angle_alpha  84.912491
_cell_angle_beta   83.827603
_cell_angle_gamma 92.109274
loop_
_atom_site_label
_atom_site_type_symbol
_atom_site_fract_x
_atom_site_fract_y
_atom_site_fract_z
_atom_type_partial_charge
C0 C 0.86356 0.48601 0.51865 0.0
C1 C 0.88861 0.46171 0.51802 0.0
C2 C 0.92703 0.49162 0.61272 0.0
C3 C 0.92002 0.46447 0.56486 0.0
C4 C 0.90233 0.5162 0.61105 0.0
C5 C 0.87087 0.51334 0.56473 0.0
U6 U 0.80316 0.46764 0.31941 0.0
O7 O 0.75673 0.49578 0.28602 0.0
O8 O 0.74803 0.44438 0.32811 0.0
C9 C 0.73443 0.47053 0.29128 0.0
C10 C 0.82875 0.483 0.47676 0.0
C11 C 0.71481 0.46767 0.20642 0.0
C12 C 0.65903 0.45331 0.14113 0.0
C13 C 0.68027 0.45212 0.21742 0.0
C14 C 0.70748 0.48395 0.03947 0.0
C15 C 0.67171 0.47056 0.05279 0.0
C16 C 0.72895 0.48243 0.11568 0.0
C17 C 0.88631 0.45127 0.13771 0.0
C18 C 0.92846 0.43286 0.01213 0.0
C19 C 0.94376 0.48058 0.08636 0.0
C20 C 0.91152 0.4761 0.14834 0.0
C21 C 0.95133 0.46008 0.01409 0.0
C22 C 0.89591 0.42863 0.07337 0.0
C23 C 0.8477 0.45285 0.17419 0.0
O24 O 0.82445 0.50397 0.40461 0.0
O25 O 0.8164 0.45401 0.46546 0.0
O26 O 0.83605 0.48165 0.1832 0.0
O27 O 0.83378 0.4315 0.24342 0.0
H28 H 0.88371 0.44042 0.48269 0.0
H29 H 0.9386 0.44516 0.56435 0.0
H30 H 0.90689 0.53741 0.64706 0.0
H31 H 0.85185 0.53233 0.56626 0.0
H32 H 0.63181 0.44209 0.15283 0.0
H33 H 0.66907 0.44023 0.28619 0.0
H34 H 0.71801 0.49733 0.97239 0.0
H35 H 0.7559 0.49416 0.10484 0.0
H36 H 0.93374 0.41671 0.9571 0.0
H37 H 0.96129 0.50154 0.08997 0.0
H38 H 0.90482 0.49369 0.1982 0.0
H39 H 0.87673 0.40932 0.06426 0.0
C40 C 0.93328 0.84773 0.31947 0.0
C41 C 0.96392 0.86755 0.28376 0.0
C42 C 0.94909 0.9033 0.40735 0.0
C43 C 0.97182 0.89512 0.32734 0.0
C44 C 0.91673 0.88486 0.43762 0.0
C45 C 0.90898 0.85716 0.39416 0.0
U46 U 0.95795 0.78116 0.15607 0.0
O47 O 0.96846 0.73137 0.20165 0.0
O48 O 0.92164 0.74215 0.12253 0.0
C49 C 0.94172 0.71993 0.15819 0.0
C50 C 0.92936 0.81526 0.29017 0.0
C51 C 0.95136 0.69482 0.09534 0.0
C52 C 0.94492 0.63962 0.06143 0.0
C53 C 0.93621 0.66389 0.12006 0.0
C54 C 0.98409 0.67702 0.95204 0.0
C55 C 0.96895 0.64584 0.97663 0.0
C56 C 0.9753 0.70135 0.0109 0.0
C57 C 0.01618 0.84147 0.97345 0.0
C58 C 0.0218 0.88076 0.83582 0.0
C59 C 0.03468 0.89656 0.99033 0.0
C60 C 0.02759 0.86493 0.03019 0.0
C61 C 0.03059 0.90489 0.89333 0.0
C62 C 0.01468 0.84945 0.8755 0.0
C63 C 1.00284 0.80916 0.01346 0.0
O64 O 0.91468 0.81201 0.21042 0.0
O65 O 0.95803 0.79803 0.29856 0.0
O66 O 0.01384 0.79762 0.09482 0.0
O67 O 0.96795 0.80311 1.00843 0.0
H68 H 0.98289 0.86059 0.22634 0.0
H69 H 0.99684 0.90902 0.30215 0.0
H70 H 0.8989 0.89043 0.49955 0.0
H71 H 0.88522 0.84206 0.42289 0.0
H72 H 0.93331 0.6158 0.08364 0.0
H73 H 0.91776 0.65845 0.18513 0.0
H74 H 1.00249 0.68266 0.88702 0.0
H75 H 0.98715 0.72521 0.99067 0.0
H76 H 0.01892 0.88624 0.76051 0.0
H77 H 0.04162 0.91463 0.03624 0.0
H78 H 0.02993 0.8591 0.10545 0.0
H79 H 1.00644 0.83163 0.83016 0.0
C80 C 0.67466 0.988 0.4106 0.0
C81 C 0.65585 0.01628 0.41934 0.0
C82 C 0.61064 0.98959 0.54487 0.0
C83 C 0.62438 0.01703 0.48517 0.0
C84 C 0.62879 0.96108 0.53389 0.0
C85 C 0.66032 0.96036 0.46803 0.0
U86 U 0.74787 -0.00094 0.17993 0.0
O87 O 0.79527 0.96972 0.14715 0.0
O88 O 0.80439 0.0198 0.17161 0.0
C89 C 0.81941 0.99346 0.14721 0.0
C90 C 0.71146 0.98773 0.35324 0.0
C91 C 0.85144 0.99649 0.07107 0.0
C92 C 0.91647 0.01076 0.02814 0.0
C93 C 0.88455 0.0102 0.09247 0.0
C94 C 0.88312 0.98456 0.91663 0.0
C95 C 0.91654 0.99768 0.93945 0.0
C96 C 0.85102 0.98382 0.9818 0.0
C97 C 0.67293 0.0198 0.01398 0.0
C98 C 0.6316 0.04503 0.90969 0.0
C99 C 0.61191 0.99651 0.00992 0.0
C100 C 0.64533 0.99646 0.04819 0.0
C101 C 0.60523 0.0201 0.93765 0.0
C102 C 0.66531 0.04472 0.94714 0.0
C103 C 0.71095 0.01597 0.03568 0.0
O104 O 0.71714 0.96561 0.2938 0.0
O105 O 0.72775 0.01535 0.31961 0.0
O106 O 0.71996 0.98658 0.05803 0.0
O107 O 0.72486 0.03674 0.0877 0.0
H108 H 0.66603 0.03817 0.37736 0.0
H109 H 0.6113 0.03948 0.49083 0.0
H110 H 0.61925 0.93945 0.57815 0.0
H111 H 0.6743 0.93827 0.46438 0.0
H112 H 0.94137 0.02124 0.04882 0.0
H113 H 0.886 0.01992 0.16066 0.0
H114 H 0.88193 0.97424 0.84931 0.0
H115 H 0.82608 0.97286 0.96299 0.0
H116 H 0.62729 0.06344 0.85394 0.0
H117 H 0.59196 0.97713 0.0335 0.0
H118 H 0.6503 0.9771 0.10034 0.0
H119 H 0.68621 0.06295 0.91967 0.0
C120 C 0.56693 0.62458 0.40865 0.0
C121 C 0.53787 0.60222 0.40834 0.0
C122 C 0.55909 0.56986 0.54243 0.0
C123 C 0.53398 0.57522 0.47455 0.0
C124 C 0.58967 0.59101 0.53789 0.0
C125 C 0.59341 0.61825 0.47181 0.0
U126 U 0.54425 0.68923 0.20722 0.0
O127 O 0.57747 0.73304 0.15514 0.0
O128 O 0.52363 0.73622 0.23562 0.0
C129 C 0.5517 0.75182 0.18449 0.0
C130 C 0.56687 0.65664 0.35645 0.0
C131 C 0.54329 0.77877 0.11616 0.0
C132 C 0.50967 0.82663 0.08628 0.0
C133 C 0.51541 0.79896 0.14394 0.0
C134 C 0.55886 0.81425 0.96957 0.0
C135 C 0.53188 0.83508 0.99951 0.0
C136 C 0.56462 0.78644 0.02744 0.0
C137 C 0.50506 0.62896 0.04499 0.0
C138 C 0.47535 0.59816 0.9343 0.0
C139 C 0.52543 0.57654 0.01329 0.0
C140 C 0.52779 0.60369 0.06267 0.0
C141 C 0.50013 0.57401 0.9459 0.0
C142 C 0.478 0.62557 0.98315 0.0
C143 C 0.51315 0.6606 0.07642 0.0
O144 O 0.58716 0.66235 0.27362 0.0
O145 O 0.53493 0.66952 0.35733 0.0
O146 O 0.54797 0.66949 0.06839 0.0
O147 O 0.49477 0.66849 0.15539 0.0
H148 H 0.51709 0.60649 0.36053 0.0
H149 H 0.51027 0.55921 0.47522 0.0
H150 H 0.60941 0.58762 0.58905 0.0
H151 H 0.61595 0.63532 0.47372 0.0
H152 H 0.48828 0.84187 0.1109 0.0
H153 H 0.49863 0.79387 0.21193 0.0
H154 H 0.57664 0.82016 0.90359 0.0
H155 H 0.58652 0.77156 1.00394 0.0
H156 H 0.45558 0.59683 0.88308 0.0
H157 H 0.5446 0.55809 0.02487 0.0
H158 H 0.5488 0.60575 0.1102 0.0
H159 H 0.4603 0.64493 0.9683 0.0
C160 C 0.17497 0.50883 0.01747 0.0
C161 C 0.14982 0.53305 0.01831 0.0
C162 C 0.11147 0.5031 0.92359 0.0
C163 C 0.11841 0.53024 0.97155 0.0
C164 C 0.13625 0.47857 0.92513 0.0
C165 C 0.16772 0.4815 0.97135 0.0
U166 U 0.23536 0.52755 0.21625 0.0
O167 O 0.29029 0.55121 0.20698 0.0
O168 O 0.28209 0.49981 0.24971 0.0
C169 C 0.30415 0.52523 0.24411 0.0
C170 C 0.20981 0.51197 0.0591 0.0
C171 C 0.32375 0.52844 0.32885 0.0
C172 C 0.37912 0.54407 0.39403 0.0
C173 C 0.35787 0.54472 0.31779 0.0
C174 C 0.33146 0.51247 0.49575 0.0
C175 C 0.36687 0.52664 0.48238 0.0
C176 C 0.30998 0.51345 0.4196 0.0
C177 C 0.15213 0.54358 0.39818 0.0
C178 C 0.10988 0.56194 0.52362 0.0
C179 C 0.09489 0.51401 0.45002 0.0
C180 C 0.12709 0.51858 0.38794 0.0
C181 C 0.08718 0.53459 0.52203 0.0
C182 C 0.14239 0.56627 0.46226 0.0
C183 C 0.19075 0.5422 0.36152 0.0
O184 O 0.22204 0.54101 0.07022 0.0
O185 O 0.21426 0.49106 0.13129 0.0
O186 O 0.20448 0.56357 0.29212 0.0
O187 O 0.20262 0.51347 0.35263 0.0
H188 H 0.15467 0.55434 0.0537 0.0
H189 H 0.09976 0.5495 0.9722 0.0
H190 H 0.13174 0.45737 0.88904 0.0
H191 H 0.18681 0.46256 0.96967 0.0
H192 H 0.40604 0.55586 0.38228 0.0
H193 H 0.36877 0.55681 0.24903 0.0
H194 H 0.32129 0.49893 0.56283 0.0
H195 H 0.28334 0.50116 0.43052 0.0
H196 H 0.10449 0.57815 0.57843 0.0
H197 H 0.07749 0.49294 0.44669 0.0
H198 H 0.1339 0.50094 0.33829 0.0
H199 H 0.16144 0.58571 0.47108 0.0
C200 C 0.10964 0.14886 0.212 0.0
C201 C 0.07922 0.12886 0.24839 0.0
C202 C 0.09391 0.09321 0.12444 0.0
C203 C 0.07136 0.10126 0.20494 0.0
C204 C 0.12609 0.11183 0.09348 0.0
C205 C 0.13379 0.13957 0.13678 0.0
U206 U 0.08444 0.21534 0.3751 0.0
O207 O 0.12036 0.25459 0.40886 0.0
O208 O 0.07353 0.26502 0.32944 0.0
C209 C 0.10003 0.27664 0.3734 0.0
C210 C 0.11339 0.18137 0.24114 0.0
C211 C 0.08985 0.30144 0.43688 0.0
C212 C 0.09555 0.35645 0.47314 0.0
C213 C 0.10482 0.3325 0.41377 0.0
C214 C 0.05616 0.31847 0.58001 0.0
C215 C 0.07113 0.34977 0.55707 0.0
C216 C 0.06552 0.29447 0.52042 0.0
C217 C 0.02644 0.15488 0.55787 0.0
C218 C 0.02092 0.11573 0.69582 0.0
C219 C 0.00802 0.09974 0.54151 0.0
C220 C 0.01507 0.13134 0.50136 0.0
C221 C 0.01214 0.09152 0.63856 0.0
C222 C 0.02798 0.147 0.65586 0.0
C223 C 0.03963 0.18719 0.51763 0.0
O224 O 0.08462 0.19846 0.23257 0.0
O225 O 0.12798 0.18473 0.32096 0.0
O226 O 0.02861 0.19859 0.43616 0.0
O227 O 0.07449 0.1934 0.52274 0.0
H228 H 0.06038 0.13571 0.30625 0.0
H229 H 0.04648 0.08722 0.23062 0.0
H230 H 0.14377 0.10637 0.03117 0.0
H231 H 0.15738 0.15482 0.10753 0.0
H232 H 0.10705 0.38038 0.4522 0.0
H233 H 0.12357 0.33828 0.34941 0.0
H234 H 0.03748 0.31249 0.64432 0.0
H235 H 0.0538 0.2705 0.53941 0.0
H236 H 0.02381 0.11032 0.77115 0.0
H237 H 1.0011 0.08161 0.49578 0.0
H238 H 0.01273 0.13708 0.42606 0.0
H239 H 0.03619 0.16489 0.70102 0.0
C240 C 0.36812 0.01051 0.12133 0.0
C241 C 0.38224 0.03819 0.06373 0.0
C242 C 0.43223 0.00923 0.98725 0.0
C243 C 0.41383 0.03762 0.99796 0.0
C244 C 0.41871 0.98177 0.04713 0.0
C245 C 0.38719 0.98237 0.11288 0.0
U246 U 0.29489 -0.00096 0.35185 0.0
O247 O 0.23859 0.97783 0.36018 0.0
O248 O 0.24715 0.02798 0.38458 0.0
C249 C 0.22326 0.00404 0.38456 0.0
C250 C 0.33126 0.01056 0.17855 0.0
C251 C 0.19126 0.00077 0.46077 0.0
C252 C 0.12632 0.98611 0.50379 0.0
C253 C 0.15823 0.98692 0.43932 0.0
C254 C 0.15953 0.01234 0.61551 0.0
C255 C 0.12619 -0.00092 0.59265 0.0
C256 C 0.19162 0.01332 0.55022 0.0
C257 C 0.37002 0.97894 0.51783 0.0
C258 C 0.41164 0.95365 0.62117 0.0
C259 C 0.43072 0.00272 0.52305 0.0
C260 C 0.39732 0.00266 0.48473 0.0
C261 C 0.4377 0.9789 0.59434 0.0
C262 C 0.37795 0.95382 0.58363 0.0
C263 C 0.33196 0.98247 0.49609 0.0
O264 O 0.3152 0.98286 0.21218 0.0
O265 O 0.32534 0.03267 0.23797 0.0
O266 O 0.31826 0.96158 0.44411 0.0
O267 O 0.32265 0.01178 0.47374 0.0
H268 H 0.36806 0.06019 0.06717 0.0
H269 H 0.4232 0.05926 0.95354 0.0
H270 H 0.43199 0.9594 0.04168 0.0
H271 H 0.37719 0.96045 0.155 0.0
H272 H 0.10148 0.97555 0.48307 0.0
H273 H 0.15683 0.97727 0.371 0.0
H274 H 0.16067 0.02259 0.68296 0.0
H275 H 0.2165 0.02438 0.56907 0.0
H276 H 0.41618 0.93504 0.67611 0.0
H277 H 0.45042 0.02236 0.50031 0.0
H278 H 0.39212 0.02218 0.4334 0.0
H279 H 0.35729 0.93529 0.61023 0.0
C280 C 0.47245 0.37407 0.12584 0.0
C281 C 0.44603 0.38025 0.06241 0.0
C282 C 0.48002 0.42887 0.99241 0.0
C283 C 0.44963 0.40753 0.99651 0.0
C284 C 0.50504 0.42366 0.06061 0.0
C285 C 0.50127 0.39662 0.12666 0.0
U286 U 0.4957 0.30946 0.3266 0.0
O287 O 0.51681 0.26269 0.29762 0.0
O288 O 0.46293 0.26537 0.37837 0.0
C289 C 0.48892 0.24684 0.34876 0.0
C290 C 0.47276 0.34198 0.17769 0.0
C291 C 0.49768 0.21996 0.41687 0.0
C292 C 0.53204 0.17252 0.4465 0.0
C293 C 0.5259 0.20011 0.389 0.0
C294 C 0.48254 0.18427 0.5632 0.0
C295 C 0.50988 0.16379 0.53318 0.0
C296 C 0.47638 0.212 0.5055 0.0
C297 C 0.53435 0.36984 0.48935 0.0
C298 C 0.56398 0.40074 0.59994 0.0
C299 C 0.51355 0.42207 0.52181 0.0
C300 C 0.51134 0.39494 0.47224 0.0
C301 C 0.53897 0.42473 0.58885 0.0
C302 C 0.56149 0.37336 0.55088 0.0
C303 C 0.52653 0.33819 0.45761 0.0
O304 O 0.50482 0.32931 0.17661 0.0
O305 O 0.45251 0.33607 0.26052 0.0
O306 O 0.54499 0.3305 0.3785 0.0
O307 O 0.49179 0.32906 0.46563 0.0
H308 H 0.42367 0.36303 0.06011 0.0
H309 H 0.42997 0.4108 0.94508 0.0
H310 H 0.52859 0.43982 0.06028 0.0
H311 H 0.52201 0.39246 0.17469 0.0
H312 H 0.55369 0.15755 0.42181 0.0
H313 H 0.54266 0.20542 0.32107 0.0
H314 H 0.46479 0.17814 0.62912 0.0
H315 H 0.45422 0.22661 0.52907 0.0
H316 H 0.58385 0.40217 0.65086 0.0
H317 H 0.4942 0.44039 0.51062 0.0
H318 H 0.49026 0.39278 0.42495 0.0
H319 H 0.5794 0.35412 0.5653 0.0
C320 C 0.0311 0.93853 0.85301 0.0
N321 N 0.98664 0.96606 0.60067 0.0
C322 C 0.00886 0.94401 0.56393 0.0
C323 C 0.99744 0.92459 0.49716 0.0
C324 C 0.96236 0.92708 0.46871 0.0
C325 C 0.93973 0.95003 0.50704 0.0
C326 C 0.95266 0.96964 0.57286 0.0
Zn327 Zn 1.00684 0.98977 0.70687 0.0
C328 C 0.95171 0.99732 0.87424 0.0
N329 N 0.05613 0.03042 0.93154 0.0
C330 C 0.09018 0.02688 0.95901 0.0
C331 C 0.03392 0.05243 0.96857 0.0
C332 C 0.04542 0.07185 0.03526 0.0
C333 C 0.08057 0.0694 0.06329 0.0
C334 C 0.10318 0.0465 0.02469 0.0
Zn335 Zn 0.0359 0.00672 0.82537 0.0
O336 O 0.01568 0.94492 0.77765 0.0
C337 C 0.09102 -0.00075 0.65796 0.0
O338 O 0.0441 0.96119 0.8949 0.0
H339 H 0.00754 0.05597 0.94381 0.0
H340 H 0.0352 0.94045 0.58894 0.0
H341 H 0.10763 0.00955 0.92798 0.0
O342 O 0.06099 0.99122 0.62768 0.0
O343 O 0.09001 0.00751 0.7431 0.0
H344 H 0.9352 0.987 0.60367 0.0
O345 O 0.02704 0.05158 0.75454 0.0
O346 O 0.99864 0.03523 0.63735 0.0
O347 O 0.98176 0.0053 0.90451 0.0
O348 O 0.95271 0.98902 0.78914 0.0
C349 C 0.01163 0.05793 0.67914 0.0
H350 H 0.01537 0.90662 0.47165 0.0
H351 H 0.9123 0.95241 0.48742 0.0
H352 H 0.0275 0.08979 0.06101 0.0
H353 H 0.13066 0.04417 0.04398 0.0
C354 C 0.46912 0.98335 0.64976 0.0
N355 N 0.51867 0.07196 0.6834 0.0
C356 C 0.52086 0.07534 0.58598 0.0
C357 C 0.51843 0.10514 0.53648 0.0
C358 C 0.51346 0.13215 0.58695 0.0
C359 C 0.51099 0.12816 0.68771 0.0
C360 C 0.51384 0.09767 0.7348 0.0
Zn361 Zn 0.52124 0.02566 0.74374 0.0
C362 C 0.46409 0.00749 0.91162 0.0
N363 N 0.52415 0.927 0.84881 0.0
C364 C 0.52862 0.90122 0.79756 0.0
C365 C 0.52208 0.92367 0.94621 0.0
C366 C 0.52422 0.89386 0.99586 0.0
C367 C 0.52876 0.86676 0.94556 0.0
C368 C 0.53116 0.8707 0.8448 0.0
Zn369 Zn 0.52166 0.9733 0.78839 0.0
O370 O 0.48158 0.01154 0.65554 0.0
C371 C 0.57881 0.99142 0.62051 0.0
O372 O 0.48136 0.9602 0.69925 0.0
H373 H 0.51917 0.94433 0.98614 0.0
H374 H 0.52401 0.05473 0.54594 0.0
H375 H 0.53044 0.90432 0.72017 0.0
O376 O 0.56505 0.01819 0.63346 0.0
O377 O 0.56581 0.96694 0.6753 0.0
H378 H 0.51191 0.09452 0.81219 0.0
O379 O 0.56134 0.98744 0.8766 0.0
O380 O 0.56154 0.03878 0.83282 0.0
O381 O 0.47789 0.98074 0.89861 0.0
O382 O 0.47706 0.03199 0.85689 0.0
C383 C 0.57379 0.01564 0.88233 0.0
H384 H 0.51961 0.10681 0.45909 0.0
H385 H 0.50715 0.14836 0.72952 0.0
H386 H 0.52311 0.89222 0.07324 0.0
H387 H 0.53467 0.85044 0.80312 0.0
C388 C 0.53611 0.45075 0.65281 0.0
N389 N 0.44502 0.50598 0.67908 0.0
C390 C 0.45344 0.5044 0.58314 0.0
C391 C 0.42803 0.51079 0.51961 0.0
C392 C 0.3931 0.51943 0.5533 0.0
C393 C 0.38417 0.52012 0.65283 0.0
C394 C 0.41093 0.51347 0.71509 0.0
Zn395 Zn 0.49054 0.501 0.75171 0.0
C396 C 0.48882 0.45425 0.91205 0.0
N397 N 0.59404 0.49262 0.85579 0.0
C398 C 0.62793 0.48459 0.81991 0.0
C399 C 0.58572 0.4944 0.95166 0.0
C400 C 0.61102 0.48765 0.01527 0.0
C401 C 0.64569 0.47837 0.98174 0.0
C402 C 0.65456 0.47753 0.88224 0.0
Zn403 Zn 0.54853 0.49771 0.78313 0.0
O404 O 0.5056 0.46345 0.66713 0.0
C405 C 0.55026 0.54449 0.62282 0.0
O406 O 0.56263 0.46001 0.69593 0.0
H407 H 0.55867 0.49984 0.98087 0.0
H408 H 0.4806 0.49928 0.5539 0.0
H409 H 0.63399 0.48276 0.74385 0.0
O410 O 0.51703 0.53527 0.64435 0.0
O411 O 0.57417 0.53263 0.67285 0.0
H412 H 0.40478 0.51511 0.79122 0.0
O413 O 0.53347 0.5353 0.86757 0.0
O414 O 0.47641 0.53869 0.83899 0.0
O415 O 0.52205 0.4635 0.8906 0.0
O416 O 0.46493 0.46605 0.86191 0.0
C417 C 0.50295 0.54798 0.88199 0.0
H418 H 0.43593 0.5091 0.44401 0.0
H419 H 0.3573 0.52651 0.68167 0.0
H420 H 0.60318 0.48946 0.09083 0.0
H421 H 0.68123 0.47065 0.85351 0.0
C422 C 0.0606 0.52392 0.60505 0.0
N423 N 0.04012 0.42886 0.71145 0.0
C424 C 0.07591 0.4258 0.68004 0.0
C425 C 0.08685 0.39934 0.6334 0.0
C426 C 0.06073 0.37578 0.6181 0.0
C427 C 0.02428 0.37863 0.65607 0.0
C428 C 0.01451 0.40553 0.70269 0.0
Zn429 Zn 0.02508 0.47229 0.75363 0.0
C430 C 0.0791 0.50082 0.87033 0.0
N431 N 0.99863 0.5659 0.82453 0.0
C432 C 0.02446 0.58924 0.83154 0.0
C433 C 0.963 0.56916 0.85707 0.0
C434 C 0.95247 0.59587 0.90309 0.0
C435 C 0.97884 0.61948 0.91648 0.0
C436 C 0.01511 0.61638 0.87741 0.0
Zn437 Zn 0.01346 0.52239 0.78257 0.0
O438 O 0.05616 0.4942 0.62973 0.0
C439 C 0.95942 0.49388 0.66595 0.0
O440 O 0.04555 0.5436 0.65832 0.0
H441 H 0.94288 0.55031 0.85135 0.0
H442 H 0.09586 0.44466 0.687 0.0
H443 H 0.05268 0.58612 0.80569 0.0
O444 O 0.97934 0.47013 0.67587 0.0
O445 O 0.96727 0.51926 0.70363 0.0
H446 H 0.98617 0.40849 0.72762 0.0
O447 O 0.98243 0.50048 0.90659 0.0
O448 O 0.99294 0.45107 0.87774 0.0
O449 O 0.05923 0.52458 0.86017 0.0
O450 O 0.07122 0.47542 0.83284 0.0
C451 C 0.97794 0.47075 0.93113 0.0
H452 H 0.11536 0.39785 0.607 0.0
H453 H 1.00318 0.36115 0.64551 0.0
H454 H 0.92408 0.59753 0.93039 0.0
H455 H 0.0364 0.63387 0.88651 0.0
loop_
_geom_bond_atom_site_label_1
_geom_bond_atom_site_label_2
_geom_bond_distance
_geom_bond_site_symmetry_2
_ccdc_geom_bond_type
C0 C1 1.264 . S
C0 C5 1.479 . S
C0 C10 1.465 . S
C1 C0 1.264 . S
C1 C3 1.339 . S
C1 H28 0.931 . S
C2 C3 1.395 . S
C2 C4 1.320 . S
C3 C1 1.339 . S
C3 C2 1.395 . S
C3 H29 0.929 . S
C4 C2 1.320 . S
C4 C5 1.405 . S
C4 H30 0.930 . S
C5 C0 1.479 . S
C5 C4 1.405 . S
C5 H31 0.931 . S
U6 O7 2.454 . S
U6 O8 2.458 . S
U6 C9 2.984 . S
U6 C10 2.847 . S
U6 C23 2.882 . S
U6 O24 2.441 . S
U6 O25 2.420 . S
U6 O26 2.455 . S
U6 O27 2.449 . S
O7 U6 2.454 . S
O7 C9 1.353 . S
O8 U6 2.458 . S
O8 C9 1.286 . S
C9 U6 2.984 . S
C9 O7 1.353 . S
C9 O8 1.286 . S
C9 C11 1.363 . S
C10 C0 1.465 . S
C10 U6 2.847 . S
C10 O24 1.249 . S
C10 O25 1.202 . S
C11 C9 1.363 . S
C11 C13 1.408 . S
C11 C16 1.342 . S
C12 C13 1.310 . S
C12 C15 1.461 . S
C12 H32 0.932 . S
C13 C11 1.408 . S
C13 C12 1.310 . S
C13 H33 0.930 . S
C14 C15 1.474 . S
C14 C16 1.285 . S
C14 H34 0.929 1_554 S
C15 C12 1.461 . S
C15 C14 1.474 . S
C16 C11 1.342 . S
C16 C14 1.285 . S
C16 H35 0.930 . S
C17 C20 1.424 1_556 S
C17 C22 1.245 . S
C17 C23 1.428 1_556 S
C18 C21 1.260 . S
C18 C22 1.477 . S
C18 H36 0.932 . S
C19 C20 1.384 1_556 S
C19 C21 1.479 . S
C19 H37 0.929 1_655 S
C20 C17 1.424 1_554 S
C20 C19 1.384 1_554 S
C20 H38 0.928 . S
C21 C18 1.260 . S
C21 C19 1.479 . S
C22 C17 1.245 . S
C22 C18 1.477 . S
C22 H39 0.932 . S
C23 U6 2.882 . S
C23 C17 1.428 1_554 S
C23 O26 1.301 . S
C23 O27 1.282 . S
O24 U6 2.441 . S
O24 C10 1.249 . S
O25 U6 2.420 . S
O25 C10 1.202 . S
O26 U6 2.455 . S
O26 C23 1.301 . S
O27 U6 2.449 . S
O27 C23 1.282 . S
H28 C1 0.931 . S
H29 C3 0.929 . S
H30 C4 0.930 . S
H31 C5 0.931 . S
H32 C12 0.932 . S
H33 C13 0.930 . S
H34 C14 0.929 1_556 S
H35 C16 0.930 . S
H36 C18 0.932 . S
H37 C19 0.929 1_455 S
H38 C20 0.928 . S
H39 C22 0.932 . S
C40 C41 1.264 . S
C40 C45 1.479 . S
C40 C50 1.465 . S
C41 C40 1.264 . S
C41 C43 1.339 . S
C41 H68 0.931 . S
C42 C43 1.395 . S
C42 C44 1.320 . S
C43 C41 1.339 . S
C43 C42 1.395 . S
C43 H69 0.929 . S
C44 C42 1.320 . S
C44 C45 1.405 . S
C44 H70 0.930 . S
C45 C40 1.479 . S
C45 C44 1.405 . S
C45 H71 0.931 . S
U46 O47 2.454 . S
U46 O48 2.458 1_554 S
U46 C49 2.984 1_554 S
U46 C50 2.847 . S
U46 C63 2.882 1_554 S
U46 O64 2.441 . S
U46 O65 2.420 . S
U46 O66 2.455 1_554 S
U46 O67 2.449 1_554 S
O47 U46 2.454 . S
O47 C49 1.353 1_554 S
O48 U46 2.458 1_556 S
O48 C49 1.286 . S
C49 U46 2.984 1_556 S
C49 O47 1.353 1_556 S
C49 O48 1.286 . S
C49 C51 1.363 . S
C50 C40 1.465 . S
C50 U46 2.847 . S
C50 O64 1.249 . S
C50 O65 1.202 . S
C51 C49 1.363 . S
C51 C53 1.408 1_556 S
C51 C56 1.342 . S
C52 C53 1.310 1_556 S
C52 C55 1.461 . S
C52 H72 0.932 1_556 S
C53 C51 1.408 1_554 S
C53 C52 1.310 1_554 S
C53 H73 0.930 . S
C54 C55 1.474 . S
C54 C56 1.285 . S
C54 H74 0.929 . S
C55 C52 1.461 . S
C55 C54 1.474 . S
C56 C51 1.342 . S
C56 C54 1.285 . S
C56 H75 0.930 . S
C57 C60 1.424 . S
C57 C62 1.245 . S
C57 C63 1.428 . S
C58 C61 1.260 . S
C58 C62 1.477 . S
C58 H76 0.932 . S
C59 C60 1.384 . S
C59 C61 1.479 . S
C59 H77 0.929 . S
C60 C57 1.424 . S
C60 C59 1.384 . S
C60 H78 0.928 . S
C61 C58 1.260 . S
C61 C59 1.479 . S
C62 C57 1.245 . S
C62 C58 1.477 . S
C62 H79 0.932 . S
C63 U46 2.882 1_556 S
C63 C57 1.428 . S
C63 O66 1.301 . S
C63 O67 1.282 . S
O64 U46 2.441 . S
O64 C50 1.249 . S
O65 U46 2.420 . S
O65 C50 1.202 . S
O66 U46 2.455 1_556 S
O66 C63 1.301 . S
O67 U46 2.449 1_556 S
O67 C63 1.282 . S
H68 C41 0.931 . S
H69 C43 0.929 . S
H70 C44 0.930 . S
H71 C45 0.931 . S
H72 C52 0.932 1_554 S
H73 C53 0.930 . S
H74 C54 0.929 . S
H75 C56 0.930 . S
H76 C58 0.932 . S
H77 C59 0.929 . S
H78 C60 0.928 . S
H79 C62 0.932 . S
C80 C81 1.264 . S
C80 C85 1.479 . S
C80 C90 1.465 . S
C81 C80 1.264 . S
C81 C83 1.339 . S
C81 H108 0.931 . S
C82 C83 1.395 . S
C82 C84 1.320 . S
C83 C81 1.339 . S
C83 C82 1.395 . S
C83 H109 0.929 . S
C84 C82 1.320 . S
C84 C85 1.405 . S
C84 H110 0.930 1_545 S
C85 C80 1.479 . S
C85 C84 1.405 . S
C85 H111 0.931 . S
U86 O87 2.454 . S
U86 O88 2.458 . S
U86 C89 2.984 . S
U86 C90 2.847 . S
U86 C103 2.882 1_554 S
U86 O104 2.441 . S
U86 O105 2.420 . S
U86 O106 2.455 1_554 S
U86 O107 2.449 . S
O87 U86 2.454 . S
O87 C89 1.353 . S
O88 U86 2.458 . S
O88 C89 1.286 . S
C89 U86 2.984 . S
C89 O87 1.353 . S
C89 O88 1.286 . S
C89 C91 1.363 . S
C90 C80 1.465 . S
C90 U86 2.847 . S
C90 O104 1.249 . S
C90 O105 1.202 . S
C91 C89 1.363 . S
C91 C93 1.408 . S
C91 C96 1.342 1_554 S
C92 C93 1.310 . S
C92 C95 1.462 1_554 S
C92 H112 0.932 . S
C93 C91 1.408 . S
C93 C92 1.310 . S
C93 H113 0.930 . S
C94 C95 1.473 1_565 S
C94 C96 1.284 1_565 S
C94 H114 0.931 . S
C95 C92 1.462 1_556 S
C95 C94 1.473 1_545 S
C96 C91 1.342 1_556 S
C96 C94 1.284 1_545 S
C96 H115 0.930 . S
C97 C100 1.424 . S
C97 C102 1.245 . S
C97 C103 1.428 . S
C98 C101 1.260 . S
C98 C102 1.477 . S
C98 H116 0.932 . S
C99 C100 1.384 . S
C99 C101 1.479 . S
C99 H117 0.929 . S
C100 C97 1.424 . S
C100 C99 1.384 . S
C100 H118 0.928 1_556 S
C101 C98 1.260 . S
C101 C99 1.479 . S
C102 C97 1.245 . S
C102 C98 1.477 . S
C102 H119 0.932 . S
C103 U86 2.882 1_556 S
C103 C97 1.428 . S
C103 O106 1.301 . S
C103 O107 1.282 1_556 S
O104 U86 2.441 . S
O104 C90 1.249 . S
O105 U86 2.420 . S
O105 C90 1.202 . S
O106 U86 2.455 1_556 S
O106 C103 1.301 . S
O107 U86 2.449 . S
O107 C103 1.282 1_554 S
H108 C81 0.931 . S
H109 C83 0.929 . S
H110 C84 0.930 1_565 S
H111 C85 0.931 . S
H112 C92 0.932 . S
H113 C93 0.930 . S
H114 C94 0.931 . S
H115 C96 0.930 . S
H116 C98 0.932 . S
H117 C99 0.929 . S
H118 C100 0.928 1_554 S
H119 C102 0.932 . S
C120 C121 1.264 . S
C120 C125 1.479 . S
C120 C130 1.465 . S
C121 C120 1.264 . S
C121 C123 1.339 . S
C121 H148 0.931 . S
C122 C123 1.395 . S
C122 C124 1.320 . S
C123 C121 1.339 . S
C123 C122 1.395 . S
C123 H149 0.929 . S
C124 C122 1.320 . S
C124 C125 1.405 . S
C124 H150 0.930 . S
C125 C120 1.479 . S
C125 C124 1.405 . S
C125 H151 0.931 . S
U126 O127 2.454 . S
U126 O128 2.458 . S
U126 C129 2.984 . S
U126 C130 2.847 . S
U126 C143 2.882 . S
U126 O144 2.441 . S
U126 O145 2.420 . S
U126 O146 2.455 1_554 S
U126 O147 2.449 . S
O127 U126 2.454 . S
O127 C129 1.353 . S
O128 U126 2.458 . S
O128 C129 1.286 . S
C129 U126 2.984 . S
C129 O127 1.353 . S
C129 O128 1.286 . S
C129 C131 1.363 . S
C130 C120 1.465 . S
C130 U126 2.847 . S
C130 O144 1.249 . S
C130 O145 1.202 . S
C131 C129 1.363 . S
C131 C133 1.408 . S
C131 C136 1.342 1_554 S
C132 C133 1.310 . S
C132 C135 1.461 . S
C132 H152 0.932 . S
C133 C131 1.408 . S
C133 C132 1.310 . S
C133 H153 0.930 . S
C134 C135 1.474 1_556 S
C134 C136 1.285 . S
C134 H154 0.929 . S
C135 C132 1.461 . S
C135 C134 1.474 1_554 S
C136 C131 1.342 1_556 S
C136 C134 1.285 . S
C136 H155 0.930 . S
C137 C140 1.424 . S
C137 C142 1.245 . S
C137 C143 1.428 1_556 S
C138 C141 1.260 . S
C138 C142 1.477 . S
C138 H156 0.932 . S
C139 C140 1.384 . S
C139 C141 1.479 . S
C139 H157 0.929 . S
C140 C137 1.424 . S
C140 C139 1.384 . S
C140 H158 0.928 1_556 S
C141 C138 1.260 . S
C141 C139 1.479 . S
C142 C137 1.245 . S
C142 C138 1.477 . S
C142 H159 0.932 . S
C143 U126 2.882 . S
C143 C137 1.428 1_554 S
C143 O146 1.301 1_554 S
C143 O147 1.282 . S
O144 U126 2.441 . S
O144 C130 1.249 . S
O145 U126 2.420 . S
O145 C130 1.202 . S
O146 U126 2.455 1_556 S
O146 C143 1.301 1_556 S
O147 U126 2.449 . S
O147 C143 1.282 . S
H148 C121 0.931 . S
H149 C123 0.929 . S
H150 C124 0.930 . S
H151 C125 0.931 . S
H152 C132 0.932 . S
H153 C133 0.930 . S
H154 C134 0.929 . S
H155 C136 0.930 . S
H156 C138 0.932 . S
H157 C139 0.929 . S
H158 C140 0.928 1_554 S
H159 C142 0.932 . S
C160 C161 1.264 . S
C160 C165 1.479 1_554 S
C160 C170 1.465 . S
C161 C160 1.264 . S
C161 C163 1.339 1_554 S
C161 H188 0.931 . S
C162 C163 1.395 . S
C162 C164 1.320 . S
C163 C161 1.339 1_556 S
C163 C162 1.395 . S
C163 H189 0.929 . S
C164 C162 1.320 . S
C164 C165 1.405 . S
C164 H190 0.930 . S
C165 C160 1.479 1_556 S
C165 C164 1.405 . S
C165 H191 0.931 . S
U166 O167 2.454 . S
U166 O168 2.458 . S
U166 C169 2.984 . S
U166 C170 2.847 . S
U166 C183 2.882 . S
U166 O184 2.441 . S
U166 O185 2.420 . S
U166 O186 2.455 . S
U166 O187 2.449 . S
O167 U166 2.454 . S
O167 C169 1.353 . S
O168 U166 2.458 . S
O168 C169 1.286 . S
C169 U166 2.984 . S
C169 O167 1.353 . S
C169 O168 1.286 . S
C169 C171 1.363 . S
C170 C160 1.465 . S
C170 U166 2.847 . S
C170 O184 1.249 . S
C170 O185 1.202 . S
C171 C169 1.363 . S
C171 C173 1.408 . S
C171 C176 1.342 . S
C172 C173 1.310 . S
C172 C175 1.461 . S
C172 H192 0.932 . S
C173 C171 1.408 . S
C173 C172 1.310 . S
C173 H193 0.930 . S
C174 C175 1.474 . S
C174 C176 1.285 . S
C174 H194 0.929 . S
C175 C172 1.461 . S
C175 C174 1.474 . S
C176 C171 1.342 . S
C176 C174 1.285 . S
C176 H195 0.930 . S
C177 C180 1.424 . S
C177 C182 1.245 . S
C177 C183 1.428 . S
C178 C181 1.260 . S
C178 C182 1.477 . S
C178 H196 0.932 . S
C179 C180 1.384 . S
C179 C181 1.479 . S
C179 H197 0.929 . S
C180 C177 1.424 . S
C180 C179 1.384 . S
C180 H198 0.928 . S
C181 C178 1.260 . S
C181 C179 1.479 . S
C182 C177 1.245 . S
C182 C178 1.477 . S
C182 H199 0.932 . S
C183 U166 2.882 . S
C183 C177 1.428 . S
C183 O186 1.301 . S
C183 O187 1.282 . S
O184 U166 2.441 . S
O184 C170 1.249 . S
O185 U166 2.420 . S
O185 C170 1.202 . S
O186 U166 2.455 . S
O186 C183 1.301 . S
O187 U166 2.449 . S
O187 C183 1.282 . S
H188 C161 0.931 . S
H189 C163 0.929 . S
H190 C164 0.930 . S
H191 C165 0.931 . S
H192 C172 0.932 . S
H193 C173 0.930 . S
H194 C174 0.929 . S
H195 C176 0.930 . S
H196 C178 0.932 . S
H197 C179 0.929 . S
H198 C180 0.928 . S
H199 C182 0.932 . S
C200 C201 1.264 . S
C200 C205 1.479 . S
C200 C210 1.465 . S
C201 C200 1.264 . S
C201 C203 1.339 . S
C201 H228 0.931 . S
C202 C203 1.395 . S
C202 C204 1.320 . S
C203 C201 1.339 . S
C203 C202 1.395 . S
C203 H229 0.929 . S
C204 C202 1.320 . S
C204 C205 1.405 . S
C204 H230 0.930 . S
C205 C200 1.479 . S
C205 C204 1.405 . S
C205 H231 0.931 . S
U206 O207 2.454 . S
U206 O208 2.458 . S
U206 C209 2.984 . S
U206 C210 2.847 . S
U206 C223 2.882 . S
U206 O224 2.441 . S
U206 O225 2.420 . S
U206 O226 2.455 . S
U206 O227 2.449 . S
O207 U206 2.454 . S
O207 C209 1.353 . S
O208 U206 2.458 . S
O208 C209 1.286 . S
C209 U206 2.984 . S
C209 O207 1.353 . S
C209 O208 1.286 . S
C209 C211 1.363 . S
C210 C200 1.465 . S
C210 U206 2.847 . S
C210 O224 1.249 . S
C210 O225 1.202 . S
C211 C209 1.363 . S
C211 C213 1.408 . S
C211 C216 1.342 . S
C212 C213 1.310 . S
C212 C215 1.461 . S
C212 H232 0.932 . S
C213 C211 1.408 . S
C213 C212 1.310 . S
C213 H233 0.930 . S
C214 C215 1.474 . S
C214 C216 1.285 . S
C214 H234 0.929 . S
C215 C212 1.461 . S
C215 C214 1.474 . S
C216 C211 1.342 . S
C216 C214 1.285 . S
C216 H235 0.930 . S
C217 C220 1.424 . S
C217 C222 1.245 . S
C217 C223 1.428 . S
C218 C221 1.260 . S
C218 C222 1.477 . S
C218 H236 0.932 . S
C219 C220 1.384 . S
C219 C221 1.479 . S
C219 H237 0.929 . S
C220 C217 1.424 . S
C220 C219 1.384 . S
C220 H238 0.928 . S
C221 C218 1.260 . S
C221 C219 1.479 . S
C222 C217 1.245 . S
C222 C218 1.477 . S
C222 H239 0.932 . S
C223 U206 2.882 . S
C223 C217 1.428 . S
C223 O226 1.301 . S
C223 O227 1.282 . S
O224 U206 2.441 . S
O224 C210 1.249 . S
O225 U206 2.420 . S
O225 C210 1.202 . S
O226 U206 2.455 . S
O226 C223 1.301 . S
O227 U206 2.449 . S
O227 C223 1.282 . S
H228 C201 0.931 . S
H229 C203 0.929 . S
H230 C204 0.930 . S
H231 C205 0.931 . S
H232 C212 0.932 . S
H233 C213 0.930 . S
H234 C214 0.929 . S
H235 C216 0.930 . S
H236 C218 0.932 . S
H237 C219 0.929 . S
H238 C220 0.928 . S
H239 C222 0.932 . S
C240 C241 1.264 . S
C240 C245 1.479 . S
C240 C250 1.465 . S
C241 C240 1.264 . S
C241 C243 1.339 1_554 S
C241 H268 0.931 . S
C242 C243 1.395 . S
C242 C244 1.320 . S
C243 C241 1.339 1_556 S
C243 C242 1.395 . S
C243 H269 0.929 . S
C244 C242 1.320 . S
C244 C245 1.405 1_556 S
C244 H270 0.930 1_545 S
C245 C240 1.479 . S
C245 C244 1.405 1_554 S
C245 H271 0.931 . S
U246 O247 2.454 . S
U246 O248 2.458 . S
U246 C249 2.984 . S
U246 C250 2.847 . S
U246 C263 2.882 . S
U246 O264 2.441 . S
U246 O265 2.420 . S
U246 O266 2.455 . S
U246 O267 2.449 . S
O247 U246 2.454 . S
O247 C249 1.353 . S
O248 U246 2.458 . S
O248 C249 1.286 . S
C249 U246 2.984 . S
C249 O247 1.353 . S
C249 O248 1.286 . S
C249 C251 1.363 . S
C250 C240 1.465 . S
C250 U246 2.847 . S
C250 O264 1.249 . S
C250 O265 1.202 . S
C251 C249 1.363 . S
C251 C253 1.408 . S
C251 C256 1.342 . S
C252 C253 1.310 . S
C252 C255 1.460 . S
C252 H272 0.932 . S
C253 C251 1.408 . S
C253 C252 1.310 . S
C253 H273 0.930 . S
C254 C255 1.474 1_565 S
C254 C256 1.285 1_565 S
C254 H274 0.929 . S
C255 C252 1.460 . S
C255 C254 1.474 1_545 S
C256 C251 1.342 . S
C256 C254 1.285 1_545 S
C256 H275 0.930 . S
C257 C260 1.424 . S
C257 C262 1.245 . S
C257 C263 1.428 . S
C258 C261 1.260 . S
C258 C262 1.477 . S
C258 H276 0.932 . S
C259 C260 1.384 . S
C259 C261 1.479 . S
C259 H277 0.929 . S
C260 C257 1.424 . S
C260 C259 1.384 . S
C260 H278 0.928 . S
C261 C258 1.260 . S
C261 C259 1.479 . S
C262 C257 1.245 . S
C262 C258 1.477 . S
C262 H279 0.932 . S
C263 U246 2.882 . S
C263 C257 1.428 . S
C263 O266 1.301 . S
C263 O267 1.282 . S
O264 U246 2.441 . S
O264 C250 1.249 . S
O265 U246 2.420 . S
O265 C250 1.202 . S
O266 U246 2.455 . S
O266 C263 1.301 . S
O267 U246 2.449 . S
O267 C263 1.282 . S
H268 C241 0.931 . S
H269 C243 0.929 . S
H270 C244 0.930 1_565 S
H271 C245 0.931 . S
H272 C252 0.932 . S
H273 C253 0.930 . S
H274 C254 0.929 . S
H275 C256 0.930 . S
H276 C258 0.932 . S
H277 C259 0.929 . S
H278 C260 0.928 . S
H279 C262 0.932 . S
C280 C281 1.264 . S
C280 C285 1.479 . S
C280 C290 1.465 . S
C281 C280 1.264 . S
C281 C283 1.339 1_554 S
C281 H308 0.931 . S
C282 C283 1.395 . S
C282 C284 1.320 . S
C283 C281 1.339 1_556 S
C283 C282 1.395 . S
C283 H309 0.929 . S
C284 C282 1.320 . S
C284 C285 1.405 1_556 S
C284 H310 0.930 . S
C285 C280 1.479 . S
C285 C284 1.405 1_554 S
C285 H311 0.931 . S
U286 O287 2.454 . S
U286 O288 2.458 . S
U286 C289 2.984 . S
U286 C290 2.847 . S
U286 C303 2.882 . S
U286 O304 2.441 . S
U286 O305 2.420 . S
U286 O306 2.455 . S
U286 O307 2.449 . S
O287 U286 2.454 . S
O287 C289 1.353 . S
O288 U286 2.458 . S
O288 C289 1.286 . S
C289 U286 2.984 . S
C289 O287 1.353 . S
C289 O288 1.286 . S
C289 C291 1.363 . S
C290 C280 1.465 . S
C290 U286 2.847 . S
C290 O304 1.249 . S
C290 O305 1.202 . S
C291 C289 1.363 . S
C291 C293 1.408 . S
C291 C296 1.342 . S
C292 C293 1.310 . S
C292 C295 1.461 . S
C292 H312 0.932 . S
C293 C291 1.408 . S
C293 C292 1.310 . S
C293 H313 0.930 . S
C294 C295 1.474 . S
C294 C296 1.285 . S
C294 H314 0.929 . S
C295 C292 1.461 . S
C295 C294 1.474 . S
C296 C291 1.342 . S
C296 C294 1.285 . S
C296 H315 0.930 . S
C297 C300 1.424 . S
C297 C302 1.245 . S
C297 C303 1.428 . S
C298 C301 1.260 . S
C298 C302 1.477 . S
C298 H316 0.932 . S
C299 C300 1.384 . S
C299 C301 1.479 . S
C299 H317 0.929 . S
C300 C297 1.424 . S
C300 C299 1.384 . S
C300 H318 0.928 . S
C301 C298 1.260 . S
C301 C299 1.479 . S
C302 C297 1.245 . S
C302 C298 1.477 . S
C302 H319 0.932 . S
C303 U286 2.882 . S
C303 C297 1.428 . S
C303 O306 1.301 . S
C303 O307 1.282 . S
O304 U286 2.441 . S
O304 C290 1.249 . S
O305 U286 2.420 . S
O305 C290 1.202 . S
O306 U286 2.455 . S
O306 C303 1.301 . S
O307 U286 2.449 . S
O307 C303 1.282 . S
H308 C281 0.931 . S
H309 C283 0.929 . S
H310 C284 0.930 . S
H311 C285 0.931 . S
H312 C292 0.932 . S
H313 C293 0.930 . S
H314 C294 0.929 . S
H315 C296 0.930 . S
H316 C298 0.932 . S
H317 C299 0.929 . S
H318 C300 0.928 . S
H319 C302 0.932 . S
C320 O336 1.247 1_455 S
C320 O338 1.260 . S
N321 C322 1.333 . S
N321 C326 1.307 . S
N321 Zn327 2.015 1_655 S
C322 N321 1.333 . S
C322 C323 1.379 . S
C322 H340 0.952 . S
C323 C322 1.379 . S
C323 C324 1.390 . S
C323 H350 0.949 . S
C324 C323 1.390 . S
C324 C325 1.357 . S
C325 C324 1.357 . S
C325 C326 1.370 . S
C325 H351 0.950 . S
C326 N321 1.307 . S
C326 C325 1.370 . S
C326 H344 0.948 1_565 S
Zn327 N321 2.015 1_455 S
Zn327 O336 2.039 1_455 S
Zn327 O342 2.048 . S
Zn327 O346 2.028 1_565 S
Zn327 O348 2.012 1_465 S
C328 O347 1.246 . S
C328 O348 1.249 . S
N329 C330 1.307 1_556 S
N329 C331 1.333 . S
N329 Zn335 2.020 . S
C330 N329 1.307 1_554 S
C330 C334 1.370 . S
C330 H341 0.948 1_545 S
C331 N329 1.333 . S
C331 C332 1.379 1_556 S
C331 H339 0.952 . S
C332 C331 1.379 1_554 S
C332 C333 1.390 . S
C332 H352 0.949 . S
C333 C332 1.390 . S
C333 C334 1.357 . S
C334 C330 1.370 . S
C334 C333 1.357 . S
C334 H353 0.950 . S
Zn335 N329 2.020 . S
Zn335 O338 2.025 1_545 S
Zn335 O343 2.024 1_545 S
Zn335 O345 2.039 . S
Zn335 O347 2.034 1_455 S
O336 C320 1.247 1_655 S
O336 Zn327 2.039 1_655 S
C337 O342 1.246 . S
C337 O343 1.249 . S
O338 C320 1.260 . S
O338 Zn335 2.025 1_565 S
H339 C331 0.952 . S
H340 C322 0.952 . S
H341 C330 0.948 1_565 S
O342 Zn327 2.048 . S
O342 C337 1.246 . S
O343 Zn335 2.024 1_565 S
O343 C337 1.249 . S
H344 C326 0.948 1_545 S
O345 Zn335 2.039 . S
O345 C349 1.251 . S
O346 Zn327 2.028 1_545 S
O346 C349 1.254 . S
O347 C328 1.246 . S
O347 Zn335 2.034 1_655 S
O348 Zn327 2.012 1_645 S
O348 C328 1.249 . S
C349 O345 1.251 . S
C349 O346 1.254 . S
H350 C323 0.949 . S
H351 C325 0.950 . S
H352 C332 0.949 . S
H353 C334 0.950 . S
C354 O370 1.251 1_565 S
C354 O372 1.254 . S
N355 C356 1.333 . S
N355 C360 1.307 . S
N355 Zn361 2.020 . S
C356 N355 1.333 . S
C356 C357 1.379 . S
C356 H374 0.952 . S
C357 C356 1.379 . S
C357 C358 1.390 . S
C357 H384 0.949 . S
C358 C357 1.390 . S
C358 C359 1.357 . S
C359 C358 1.357 . S
C359 C360 1.370 . S
C359 H385 0.950 . S
C360 N355 1.307 . S
C360 C359 1.370 . S
C360 H378 0.948 . S
Zn361 N355 2.020 . S
Zn361 O370 2.039 . S
Zn361 O376 2.034 . S
Zn361 O380 2.025 . S
Zn361 O382 2.024 . S
C362 O381 1.246 1_545 S
C362 O382 1.249 . S
N363 C364 1.307 . S
N363 C365 1.333 . S
N363 Zn369 2.020 . S
C364 N363 1.307 . S
C364 C368 1.370 . S
C364 H375 0.948 . S
C365 N363 1.333 . S
C365 C366 1.379 . S
C365 H373 0.952 . S
C366 C365 1.379 . S
C366 C367 1.390 . S
C366 H386 0.949 . S
C367 C366 1.390 . S
C367 C368 1.357 . S
C368 C364 1.370 . S
C368 C367 1.357 . S
C368 H387 0.950 . S
Zn369 N363 2.020 . S
Zn369 O372 2.025 . S
Zn369 O377 2.024 . S
Zn369 O379 2.039 . S
Zn369 O381 2.034 . S
O370 C354 1.251 1_545 S
O370 Zn361 2.039 . S
C371 O376 1.246 1_565 S
C371 O377 1.249 . S
O372 C354 1.254 . S
O372 Zn369 2.025 . S
H373 C365 0.952 . S
H374 C356 0.952 . S
H375 C364 0.948 . S
O376 Zn361 2.034 . S
O376 C371 1.246 1_545 S
O377 Zn369 2.024 . S
O377 C371 1.249 . S
H378 C360 0.948 . S
O379 Zn369 2.039 . S
O379 C383 1.251 1_565 S
O380 Zn361 2.025 . S
O380 C383 1.254 . S
O381 C362 1.246 1_565 S
O381 Zn369 2.034 . S
O382 Zn361 2.024 . S
O382 C362 1.249 . S
C383 O379 1.251 1_545 S
C383 O380 1.254 . S
H384 C357 0.949 . S
H385 C359 0.950 . S
H386 C366 0.949 . S
H387 C368 0.950 . S
C388 O404 1.251 . S
C388 O406 1.254 . S
N389 C390 1.333 . S
N389 C394 1.307 . S
N389 Zn395 2.020 . S
C390 N389 1.333 . S
C390 C391 1.379 . S
C390 H408 0.952 . S
C391 C390 1.379 . S
C391 C392 1.390 . S
C391 H418 0.949 . S
C392 C391 1.390 . S
C392 C393 1.357 . S
C393 C392 1.357 . S
C393 C394 1.370 . S
C393 H419 0.950 . S
C394 N389 1.307 . S
C394 C393 1.370 . S
C394 H412 0.948 . S
Zn395 N389 2.020 . S
Zn395 O404 2.039 . S
Zn395 O410 2.034 . S
Zn395 O414 2.025 . S
Zn395 O416 2.024 . S
C396 O415 1.246 . S
C396 O416 1.249 . S
N397 C398 1.307 . S
N397 C399 1.333 . S
N397 Zn403 2.020 . S
C398 N397 1.307 . S
C398 C402 1.370 . S
C398 H409 0.948 . S
C399 N397 1.333 . S
C399 C400 1.379 . S
C399 H407 0.952 . S
C400 C399 1.379 . S
C400 C401 1.390 . S
C400 H420 0.949 . S
C401 C400 1.390 . S
C401 C402 1.357 . S
C402 C398 1.370 . S
C402 C401 1.357 . S
C402 H421 0.950 . S
Zn403 N397 2.020 . S
Zn403 O406 2.025 . S
Zn403 O411 2.024 . S
Zn403 O413 2.039 . S
Zn403 O415 2.034 . S
O404 C388 1.251 . S
O404 Zn395 2.039 . S
C405 O410 1.246 . S
C405 O411 1.249 . S
O406 C388 1.254 . S
O406 Zn403 2.025 . S
H407 C399 0.952 . S
H408 C390 0.952 . S
H409 C398 0.948 . S
O410 Zn395 2.034 . S
O410 C405 1.246 . S
O411 Zn403 2.024 . S
O411 C405 1.249 . S
H412 C394 0.948 . S
O413 Zn403 2.039 . S
O413 C417 1.251 . S
O414 Zn395 2.025 . S
O414 C417 1.254 . S
O415 C396 1.246 . S
O415 Zn403 2.034 . S
O416 Zn395 2.024 . S
O416 C396 1.249 . S
C417 O413 1.251 . S
C417 O414 1.254 . S
H418 C391 0.949 . S
H419 C393 0.950 . S
H420 C400 0.949 . S
H421 C402 0.950 . S
C422 O438 1.251 . S
C422 O440 1.254 . S
N423 C424 1.333 . S
N423 C428 1.307 . S
N423 Zn429 2.020 . S
C424 N423 1.333 . S
C424 C425 1.379 . S
C424 H442 0.952 . S
C425 C424 1.379 . S
C425 C426 1.390 . S
C425 H452 0.949 . S
C426 C425 1.390 . S
C426 C427 1.357 . S
C427 C426 1.357 . S
C427 C428 1.370 . S
C427 H453 0.950 . S
C428 N423 1.307 . S
C428 C427 1.370 . S
C428 H446 0.948 . S
Zn429 N423 2.020 . S
Zn429 O438 2.039 . S
Zn429 O444 2.034 1_455 S
Zn429 O448 2.025 1_455 S
Zn429 O450 2.024 . S
C430 O449 1.246 . S
C430 O450 1.249 . S
N431 C432 1.307 . S
N431 C433 1.333 . S
N431 Zn437 2.020 1_655 S
C432 N431 1.307 . S
C432 C436 1.370 . S
C432 H443 0.948 1_655 S
C433 N431 1.333 . S
C433 C434 1.379 . S
C433 H441 0.952 . S
C434 C433 1.379 . S
C434 C435 1.390 . S
C434 H454 0.949 . S
C435 C434 1.390 . S
C435 C436 1.357 . S
C436 C432 1.370 . S
C436 C435 1.357 . S
C436 H455 0.950 . S
Zn437 N431 2.020 1_455 S
Zn437 O440 2.025 . S
Zn437 O445 2.024 1_455 S
Zn437 O447 2.039 1_455 S
Zn437 O449 2.034 . S
O438 C422 1.251 . S
O438 Zn429 2.039 . S
C439 O444 1.246 . S
C439 O445 1.249 . S
O440 C422 1.254 . S
O440 Zn437 2.025 . S
H441 C433 0.952 . S
H442 C424 0.952 . S
H443 C432 0.948 1_455 S
O444 Zn429 2.034 1_655 S
O444 C439 1.246 . S
O445 Zn437 2.024 1_655 S
O445 C439 1.249 . S
H446 C428 0.948 . S
O447 Zn437 2.039 1_655 S
O447 C451 1.251 . S
O448 Zn429 2.025 1_655 S
O448 C451 1.254 . S
O449 C430 1.246 . S
O449 Zn437 2.034 . S
O450 Zn429 2.024 . S
O450 C430 1.249 . S
C451 O447 1.251 . S
C451 O448 1.254 . S
H452 C425 0.949 . S
H453 C427 0.950 . S
H454 C434 0.949 . S
H455 C436 0.950 . S
C255 C337 2.852 1_545 S
C358 C295 2.789 . S
C392 C175 3.416 . S
C426 C215 2.518 . S
C328 C95 2.849 . S
C135 C367 2.771 1_554 S
C15 C401 3.421 1_554 S
C55 C435 2.493 . S
C349 C221 4.464 . S
C354 C261 1.542 1_565 S
C388 C301 2.300 . S
C181 C422 1.161 . S
C61 C320 4.202 1_655 S
C383 C101 1.455 . S
C417 C141 1.960 . S
C21 C451 1.475 . S
C202 C333 3.626 . S
C242 C362 3.740 . S
C396 C282 3.290 . S
C430 C162 3.478 . S
C42 C324 3.475 . S
C371 C82 3.753 1_565 S
C405 C122 3.165 . S
C2 C439 3.639 . S
