# Generated by pormake.
# Topology ctn, (3,4)-cn, num edge types: 1
# Building blocks:
#     Node 0, Type 0, BuildingBlock: WUSLED_clean_sbu_0, # of connection points: 3
#     Node 1, Type 0, BuildingBlock: WUSLED_clean_sbu_0, # of connection points: 3
#     Node 2, Type 0, BuildingBlock: WUSLED_clean_sbu_0, # of connection points: 3
#     Node 3, Type 0, BuildingBlock: WUSLED_clean_sbu_0, # of connection points: 3
#     Node 4, Type 0, BuildingBlock: WUSLED_clean_sbu_0, # of connection points: 3
#     Node 5, Type 0, BuildingBlock: WUSLED_clean_sbu_0, # of connection points: 3
#     Node 6, Type 0, BuildingBlock: WUSLED_clean_sbu_0, # of connection points: 3
#     Node 7, Type 0, BuildingBlock: WUSLED_clean_sbu_0, # of connection points: 3
#     Node 8, Type 0, BuildingBlock: WUSLED_clean_sbu_0, # of connection points: 3
#     Node 9, Type 0, BuildingBlock: WUSLED_clean_sbu_0, # of connection points: 3
#     Node 10, Type 0, BuildingBlock: WUSLED_clean_sbu_0, # of connection points: 3
#     Node 11, Type 0, BuildingBlock: WUSLED_clean_sbu_0, # of connection points: 3
#     Node 12, Type 0, BuildingBlock: WUSLED_clean_sbu_0, # of connection points: 3
#     Node 13, Type 0, BuildingBlock: WUSLED_clean_sbu_0, # of connection points: 3
#     Node 14, Type 0, BuildingBlock: WUSLED_clean_sbu_0, # of connection points: 3
#     Node 15, Type 0, BuildingBlock: WUSLED_clean_sbu_0, # of connection points: 3
#     Node 16, Type 1, BuildingBlock: QUQFOY_clean_sbu_1, # of connection points: 4
#     Node 17, Type 1, BuildingBlock: QUQFOY_clean_sbu_1, # of connection points: 4
#     Node 18, Type 1, BuildingBlock: QUQFOY_clean_sbu_1, # of connection points: 4
#     Node 19, Type 1, BuildingBlock: QUQFOY_clean_sbu_1, # of connection points: 4
#     Node 20, Type 1, BuildingBlock: QUQFOY_clean_sbu_1, # of connection points: 4
#     Node 21, Type 1, BuildingBlock: QUQFOY_clean_sbu_1, # of connection points: 4
#     Node 22, Type 1, BuildingBlock: QUQFOY_clean_sbu_1, # of connection points: 4
#     Node 23, Type 1, BuildingBlock: QUQFOY_clean_sbu_1, # of connection points: 4
#     Node 24, Type 1, BuildingBlock: QUQFOY_clean_sbu_1, # of connection points: 4
#     Node 25, Type 1, BuildingBlock: QUQFOY_clean_sbu_1, # of connection points: 4
#     Node 26, Type 1, BuildingBlock: QUQFOY_clean_sbu_1, # of connection points: 4
#     Node 27, Type 1, BuildingBlock: QUQFOY_clean_sbu_1, # of connection points: 4
#     Edge 28, Type (0, 1), BuildingBlock: ZUJKAS_clean_linker_0, # of connection points: 2
#     Edge 29, Type (0, 1), BuildingBlock: ZUJKAS_clean_linker_0, # of connection points: 2
#     Edge 30, Type (0, 1), BuildingBlock: ZUJKAS_clean_linker_0, # of connection points: 2
#     Edge 31, Type (0, 1), BuildingBlock: ZUJKAS_clean_linker_0, # of connection points: 2
#     Edge 32, Type (0, 1), BuildingBlock: ZUJKAS_clean_linker_0, # of connection points: 2
#     Edge 33, Type (0, 1), BuildingBlock: ZUJKAS_clean_linker_0, # of connection points: 2
#     Edge 34, Type (0, 1), BuildingBlock: ZUJKAS_clean_linker_0, # of connection points: 2
#     Edge 35, Type (0, 1), BuildingBlock: ZUJKAS_clean_linker_0, # of connection points: 2
#     Edge 36, Type (0, 1), BuildingBlock: ZUJKAS_clean_linker_0, # of connection points: 2
#     Edge 37, Type (0, 1), BuildingBlock: ZUJKAS_clean_linker_0, # of connection points: 2
#     Edge 38, Type (0, 1), BuildingBlock: ZUJKAS_clean_linker_0, # of connection points: 2
#     Edge 39, Type (0, 1), BuildingBlock: ZUJKAS_clean_linker_0, # of connection points: 2
#     Edge 40, Type (0, 1), BuildingBlock: ZUJKAS_clean_linker_0, # of connection points: 2
#     Edge 41, Type (0, 1), BuildingBlock: ZUJKAS_clean_linker_0, # of connection points: 2
#     Edge 42, Type (0, 1), BuildingBlock: ZUJKAS_clean_linker_0, # of connection points: 2
#     Edge 43, Type (0, 1), BuildingBlock: ZUJKAS_clean_linker_0, # of connection points: 2
#     Edge 44, Type (0, 1), BuildingBlock: ZUJKAS_clean_linker_0, # of connection points: 2
#     Edge 45, Type (0, 1), BuildingBlock: ZUJKAS_clean_linker_0, # of connection points: 2
#     Edge 46, Type (0, 1), BuildingBlock: ZUJKAS_clean_linker_0, # of connection points: 2
#     Edge 47, Type (0, 1), BuildingBlock: ZUJKAS_clean_linker_0, # of connection points: 2
#     Edge 48, Type (0, 1), BuildingBlock: ZUJKAS_clean_linker_0, # of connection points: 2
#     Edge 49, Type (0, 1), BuildingBlock: ZUJKAS_clean_linker_0, # of connection points: 2
#     Edge 50, Type (0, 1), BuildingBlock: ZUJKAS_clean_linker_0, # of connection points: 2
#     Edge 51, Type (0, 1), BuildingBlock: ZUJKAS_clean_linker_0, # of connection points: 2
#     Edge 52, Type (0, 1), BuildingBlock: ZUJKAS_clean_linker_0, # of connection points: 2
#     Edge 53, Type (0, 1), BuildingBlock: ZUJKAS_clean_linker_0, # of connection points: 2
#     Edge 54, Type (0, 1), BuildingBlock: ZUJKAS_clean_linker_0, # of connection points: 2
#     Edge 55, Type (0, 1), BuildingBlock: ZUJKAS_clean_linker_0, # of connection points: 2
#     Edge 56, Type (0, 1), BuildingBlock: ZUJKAS_clean_linker_0, # of connection points: 2
#     Edge 57, Type (0, 1), BuildingBlock: ZUJKAS_clean_linker_0, # of connection points: 2
#     Edge 58, Type (0, 1), BuildingBlock: ZUJKAS_clean_linker_0, # of connection points: 2
#     Edge 59, Type (0, 1), BuildingBlock: ZUJKAS_clean_linker_0, # of connection points: 2
#     Edge 60, Type (0, 1), BuildingBlock: ZUJKAS_clean_linker_0, # of connection points: 2
#     Edge 61, Type (0, 1), BuildingBlock: ZUJKAS_clean_linker_0, # of connection points: 2
#     Edge 62, Type (0, 1), BuildingBlock: ZUJKAS_clean_linker_0, # of connection points: 2
#     Edge 63, Type (0, 1), BuildingBlock: ZUJKAS_clean_linker_0, # of connection points: 2
#     Edge 64, Type (0, 1), BuildingBlock: ZUJKAS_clean_linker_0, # of connection points: 2
#     Edge 65, Type (0, 1), BuildingBlock: ZUJKAS_clean_linker_0, # of connection points: 2
#     Edge 66, Type (0, 1), BuildingBlock: ZUJKAS_clean_linker_0, # of connection points: 2
#     Edge 67, Type (0, 1), BuildingBlock: ZUJKAS_clean_linker_0, # of connection points: 2
#     Edge 68, Type (0, 1), BuildingBlock: ZUJKAS_clean_linker_0, # of connection points: 2
#     Edge 69, Type (0, 1), BuildingBlock: ZUJKAS_clean_linker_0, # of connection points: 2
#     Edge 70, Type (0, 1), BuildingBlock: ZUJKAS_clean_linker_0, # of connection points: 2
#     Edge 71, Type (0, 1), BuildingBlock: ZUJKAS_clean_linker_0, # of connection points: 2
#     Edge 72, Type (0, 1), BuildingBlock: ZUJKAS_clean_linker_0, # of connection points: 2
#     Edge 73, Type (0, 1), BuildingBlock: ZUJKAS_clean_linker_0, # of connection points: 2
#     Edge 74, Type (0, 1), BuildingBlock: ZUJKAS_clean_linker_0, # of connection points: 2
#     Edge 75, Type (0, 1), BuildingBlock: ZUJKAS_clean_linker_0, # of connection points: 2
# Relax obj value: 0.035
# Max RMSD: 0.139
# Mean RMSD: 0.064
data_MOF--net-ctn--node1-WUSLED_clean_sbu_0--node2-QUQFOY_clean_sbu_1--edge1-ZUJKAS_clean_linker_0
_symmetry_space_group_name_H-M    P1
_symmetry_Int_Tables_number       1
_symmetry_cell_setting            triclinic
loop_
_symmetry_equiv_pos_as_xyz
'x, y, z'
_cell_length_a     87.561014
_cell_length_b     88.047663
_cell_length_c     88.100514
_cell_angle_alpha  93.164331
_cell_angle_beta   90.029243
_cell_angle_gamma 94.109991
loop_
_atom_site_label
_atom_site_type_symbol
_atom_site_fract_x
_atom_site_fract_y
_atom_site_fract_z
_atom_type_partial_charge
C0 C 0.0239 0.10215 0.10087 0.0
C1 C 0.02563 0.08945 0.10949 0.0
C2 C 0.00433 0.09637 0.12568 0.0
C3 C 0.01593 0.08659 0.1218 0.0
C4 C 1.00283 0.10919 0.11708 0.0
C5 C 0.01252 0.11203 0.10479 0.0
U6 U 0.05727 0.09271 0.07492 0.0
O7 O 0.05866 0.09195 0.04996 0.0
O8 O 0.07412 0.10799 0.06362 0.0
C9 C 0.06899 0.10354 0.04994 0.0
C10 C 0.03362 0.10503 0.08759 0.0
C11 C 0.06538 0.11581 0.04014 0.0
C12 C 0.0509 0.13751 0.03498 0.0
C13 C 0.05456 0.12616 0.0446 0.0
C14 C 0.06887 0.12829 0.01634 0.0
C15 C 0.05796 0.13868 0.02068 0.0
C16 C 0.07254 0.11697 0.02599 0.0
C17 C 0.08112 0.05934 0.08375 0.0
C18 C 0.10419 0.05324 0.07006 0.0
C19 C 0.09314 0.03596 0.08822 0.0
C20 C 0.08151 0.04577 0.09127 0.0
C21 C 0.10465 0.03956 0.07759 0.0
C22 C 0.09251 0.06303 0.0731 0.0
C23 C 0.06869 0.06939 0.0871 0.0
O24 O 0.04787 0.10999 0.0906 0.0
O25 O 0.03239 0.09439 0.07651 0.0
O26 O 0.05717 0.06797 0.07744 0.0
O27 O 0.07296 0.08367 0.09112 0.0
H28 H 0.03436 0.08167 0.10659 0.0
H29 H 0.01731 0.07652 0.12805 0.0
H30 H 0.99418 0.11708 0.11987 0.0
H31 H 0.01107 0.12192 0.09827 0.0
H32 H 0.04261 0.14543 0.03879 0.0
H33 H 0.0489 0.12542 0.0555 0.0
H34 H 0.07438 0.1287 0.00535 0.0
H35 H 0.08085 0.10901 0.02233 0.0
H36 H 0.11294 0.05647 0.06194 0.0
H37 H 0.09295 0.02544 0.09404 0.0
H38 H 0.07275 0.04271 0.09946 0.0
H39 H 0.09237 0.07348 0.06717 0.0
C40 C 0.27115 0.75902 0.20338 0.0
C41 C 0.28406 0.76869 0.20022 0.0
C42 C 0.26901 0.78219 0.18274 0.0
C43 C 0.28301 0.78015 0.18995 0.0
C44 C 0.25607 0.77259 0.18615 0.0
C45 C 0.25715 0.7611 0.19637 0.0
U46 U 0.29186 0.73944 0.23421 0.0
O47 O 0.28267 0.7282 0.25431 0.0
O48 O 0.29474 0.71512 0.23676 0.0
C49 C 0.28667 0.71472 0.24932 0.0
C50 C 0.27213 0.74664 0.21381 0.0
C51 C 0.27466 0.70222 0.24978 0.0
C52 C 0.25186 0.68809 0.23927 0.0
C53 C 0.26308 0.70021 0.23869 0.0
C54 C 0.26366 0.68003 0.26209 0.0
C55 C 0.25203 0.67786 0.251 0.0
C56 C 0.27486 0.6921 0.26147 0.0
C57 C 0.33011 0.7564 0.25011 0.0
C58 C 0.34475 0.74296 0.26786 0.0
C59 C 0.35292 0.76891 0.2622 0.0
C60 C 0.34048 0.76919 0.25229 0.0
C61 C 0.35524 0.75579 0.2701 0.0
C62 C 0.33228 0.74328 0.25797 0.0
C63 C 0.317 0.75693 0.23977 0.0
O64 O 0.28295 0.73733 0.2108 0.0
O65 O 0.27112 0.75065 0.22835 0.0
O66 O 0.30389 0.75927 0.24643 0.0
O67 O 0.31582 0.74617 0.22879 0.0
H68 H 0.29496 0.76731 0.20563 0.0
H69 H 0.29314 0.78747 0.18771 0.0
H70 H 0.24517 0.77372 0.18067 0.0
H71 H 0.24707 0.75372 0.19868 0.0
H72 H 0.24297 0.68683 0.23065 0.0
H73 H 0.26273 0.70798 0.22961 0.0
H74 H 0.26425 0.67225 0.27115 0.0
H75 H 0.28376 0.69348 0.2701 0.0
H76 H 0.34626 0.73262 0.27362 0.0
H77 H 0.36059 0.77908 0.26384 0.0
H78 H 0.3389 0.77944 0.24638 0.0
H79 H 0.32434 0.73329 0.25643 0.0
C80 C 0.9443 0.4568 0.02834 0.0
C81 C 0.95322 0.44616 0.03476 0.0
C82 C 0.95314 0.43124 0.01064 0.0
C83 C 0.95756 0.43346 0.02601 0.0
C84 C 0.94419 0.44195 0.00428 0.0
C85 C 0.9398 0.45461 0.01308 0.0
U86 U 0.95023 0.48357 0.06323 0.0
O87 O 0.95109 0.50862 0.06585 0.0
O88 O 0.93386 0.49485 0.07819 0.0
C89 C 0.93882 0.50858 0.07443 0.0
C90 C 0.9401 0.4704 0.03737 0.0
C91 C 0.92698 0.5184 0.0697 0.0
C92 C 0.90576 0.52323 0.05327 0.0
C93 C 0.91687 0.51368 0.05772 0.0
C94 C 0.91482 0.54232 0.07268 0.0
C95 C 0.90461 0.53769 0.06068 0.0
C96 C 0.92588 0.53275 0.07714 0.0
C97 C 0.98154 0.47457 0.09133 0.0
C98 C 0.9862 0.48773 0.11604 0.0
C99 C 1.00412 0.47005 0.10594 0.0
C100 C 0.99505 0.46719 0.09291 0.0
C101 C 0.99982 0.48035 0.11769 0.0
C102 C 0.97715 0.48488 0.10294 0.0
C103 C 0.97234 0.4714 0.07741 0.0
O104 O 0.93363 0.46778 0.05053 0.0
O105 O 0.95072 0.48175 0.03823 0.0
O106 O 0.97479 0.48116 0.06678 0.0
O107 O 0.95774 0.4674 0.07937 0.0
H108 H 0.95694 0.44776 0.04651 0.0
H109 H 0.96461 0.42554 0.03119 0.0
H110 H 0.94049 0.44048 0.99253 0.0
H111 H 0.93295 0.46274 0.00794 0.0
H112 H 0.89799 0.51921 0.04412 0.0
H113 H 0.91757 0.50262 0.05183 0.0
H114 H 0.91443 0.55345 0.07849 0.0
H115 H 0.93366 0.5366 0.08636 0.0
H116 H 0.98247 0.4956 0.12492 0.0
H117 H 0.01464 0.46437 0.10668 0.0
H118 H 0.99864 0.45926 0.084 0.0
H119 H 0.96674 0.4907 0.10188 0.0
C120 C 0.71423 0.78814 0.20069 0.0
C121 C 0.71337 0.77217 0.20045 0.0
C122 C 0.72372 0.77103 0.17478 0.0
C123 C 0.71811 0.76368 0.18764 0.0
C124 C 0.72463 0.78707 0.17509 0.0
C125 C 0.72001 0.79555 0.18797 0.0
U126 U 0.71742 0.82333 0.22812 0.0
O127 O 0.69969 0.83637 0.23926 0.0
O128 O 0.71586 0.82506 0.25313 0.0
C129 C 0.70336 0.83249 0.25293 0.0
C130 C 0.70918 0.79683 0.21433 0.0
C131 C 0.69062 0.82662 0.26243 0.0
C132 C 0.66492 0.81466 0.26519 0.0
C133 C 0.67713 0.81943 0.25593 0.0
C134 C 0.67967 0.82371 0.28756 0.0
C135 C 0.66602 0.81683 0.2811 0.0
C136 C 0.69182 0.8286 0.2783 0.0
C137 C 0.74787 0.8555 0.22101 0.0
C138 C 0.75213 0.87796 0.23818 0.0
C139 C 0.76713 0.87553 0.21518 0.0
C140 C 0.75928 0.86143 0.21142 0.0
C141 C 0.76368 0.88396 0.22863 0.0
C142 C 0.74427 0.86385 0.23439 0.0
C143 C 0.73995 0.84054 0.21694 0.0
O144 O 0.71906 0.79847 0.22564 0.0
O145 O 0.70248 0.80939 0.21192 0.0
O146 O 0.72564 0.84079 0.21253 0.0
O147 O 0.74205 0.82982 0.22637 0.0
H148 H 0.70898 0.76625 0.21017 0.0
H149 H 0.71713 0.75135 0.18769 0.0
H150 H 0.72908 0.79305 0.16544 0.0
H151 H 0.72094 0.80789 0.18797 0.0
H152 H 0.65462 0.80922 0.25989 0.0
H153 H 0.67595 0.81763 0.24371 0.0
H154 H 0.68082 0.82568 0.29977 0.0
H155 H 0.70212 0.83413 0.28354 0.0
H156 H 0.74908 0.88423 0.24853 0.0
H157 H 0.77609 0.87968 0.20768 0.0
H158 H 0.76222 0.85509 0.20106 0.0
H159 H 0.73543 0.85943 0.2419 0.0
C160 C 0.01052 0.98231 0.44486 0.0
C161 C 0.01521 0.99571 0.43772 0.0
C162 C 0.99257 0.99264 0.42144 0.0
C163 C 0.00631 1.00084 0.42613 0.0
C164 C 0.98796 0.97919 0.42864 0.0
C165 C 0.99687 0.97409 0.44027 0.0
U166 U 0.04682 0.9861 0.46851 0.0
O167 O 0.05068 0.98425 0.49295 0.0
O168 O 0.0614 0.96873 0.47647 0.0
C169 C 0.0587 0.97225 0.49086 0.0
C170 C 0.01986 0.97687 0.45703 0.0
C171 C 0.05452 0.95934 0.50035 0.0
C172 C 0.03574 0.94371 0.51404 0.0
C173 C 0.03926 0.95557 0.50439 0.0
C174 C 0.06262 0.93901 0.51537 0.0
C175 C 0.0474 0.93534 0.51975 0.0
C176 C 0.06612 0.9509 0.5058 0.0
C177 C 0.07685 0.01819 0.46072 0.0
C178 C 0.09998 0.02282 0.476 0.0
C179 C 0.09553 0.03879 0.45512 0.0
C180 C 0.08165 0.03037 0.45191 0.0
C181 C 0.10484 0.03515 0.46723 0.0
C182 C 0.08609 0.0144 0.47275 0.0
C183 C 0.06207 0.0097 0.4574 0.0
O184 O 0.03262 0.97105 0.45252 0.0
O185 O 0.02172 0.98621 0.46916 0.0
O186 O 0.05171 0.01091 0.4681 0.0
O187 O 0.06285 0.99567 0.45171 0.0
H188 H 0.02579 1.00216 0.44109 0.0
H189 H 0.01029 0.01112 0.42069 0.0
H190 H 0.97736 0.97271 0.42543 0.0
H191 H 0.99308 0.96373 0.44568 0.0
H192 H 0.02392 0.94132 0.51727 0.0
H193 H 0.03011 0.96192 0.50027 0.0
H194 H 0.07185 0.93264 0.51929 0.0
H195 H 0.07796 0.95359 0.50274 0.0
H196 H 0.10696 0.01962 0.48529 0.0
H197 H 0.09882 0.04833 0.44828 0.0
H198 H 0.07461 0.03347 0.44261 0.0
H199 H 0.08253 0.00497 0.47966 0.0
C200 C 0.20687 0.77834 0.84563 0.0
C201 C 0.20109 0.77263 0.85926 0.0
C202 C 0.21202 0.79524 0.87367 0.0
C203 C 0.20365 0.78098 0.87311 0.0
C204 C 0.21779 0.80094 0.86005 0.0
C205 C 0.21518 0.79262 0.84619 0.0
U206 U 0.21458 0.74709 0.81484 0.0
O207 O 0.19827 0.73177 0.8012 0.0
O208 O 0.2143 0.74778 0.78994 0.0
C209 C 0.20231 0.73793 0.78842 0.0
C210 C 0.20363 0.76992 0.83078 0.0
C211 C 0.18961 0.74259 0.7792 0.0
C212 C 0.17218 0.76144 0.77238 0.0
C213 C 0.18443 0.7573 0.78111 0.0
C214 C 0.17005 0.73616 0.75988 0.0
C215 C 0.1648 0.75088 0.76172 0.0
C216 C 0.18236 0.73207 0.76853 0.0
C217 C 0.24692 0.72077 0.82119 0.0
C218 C 0.25635 0.70289 0.80199 0.0
C219 C 0.26459 0.70229 0.82819 0.0
C220 C 0.25561 0.71436 0.8322 0.0
C221 C 0.26508 0.69639 0.81304 0.0
C222 C 0.24729 0.71496 0.80604 0.0
C223 C 0.23761 0.73349 0.8258 0.0
O224 O 0.21406 0.77177 0.82017 0.0
O225 O 0.19788 0.75573 0.83119 0.0
O226 O 0.22323 0.7297 0.82899 0.0
O227 O 0.23937 0.74561 0.81771 0.0
H228 H 0.19449 0.76175 0.85926 0.0
H229 H 0.19915 0.77622 0.88341 0.0
H230 H 0.22407 0.812 0.86005 0.0
H231 H 0.21956 0.79747 0.83588 0.0
H232 H 0.16829 0.7728 0.77419 0.0
H233 H 0.1898 0.76554 0.7894 0.0
H234 H 0.16473 0.72782 0.75166 0.0
H235 H 0.18618 0.72066 0.76692 0.0
H236 H 0.25635 0.69851 0.79026 0.0
H237 H 0.27132 0.69769 0.83694 0.0
H238 H 0.25548 0.71873 0.84394 0.0
H239 H 0.24058 0.71974 0.79739 0.0
C240 C 0.95866 0.59869 0.51373 0.0
C241 C 0.96853 0.60984 0.50733 0.0
C242 C 0.96819 0.62569 0.53086 0.0
C243 C 0.97321 0.62327 0.51581 0.0
C244 C 0.95842 0.61438 0.53724 0.0
C245 C 0.95369 0.60101 0.52873 0.0
U246 U 0.9626 0.56957 0.48048 0.0
O247 O 0.9593 0.54457 0.4796 0.0
O248 O 0.94476 0.55766 0.46567 0.0
C249 C 0.94715 0.54428 0.47078 0.0
C250 C 0.95341 0.58461 0.50494 0.0
C251 C 0.93343 0.5355 0.47607 0.0
C252 C 0.91677 0.52696 0.49645 0.0
C253 C 0.92981 0.53542 0.4916 0.0
C254 C 0.9106 0.51885 0.4703 0.0
C255 C 0.90703 0.51859 0.48585 0.0
C256 C 0.92373 0.52721 0.46547 0.0
C257 C 0.99569 0.57459 0.45263 0.0
C258 C 0.99736 0.55905 0.4291 0.0
C259 C 0.01934 0.57529 0.43825 0.0
C260 C 0.01091 0.58022 0.45081 0.0
C261 C 0.01267 0.56465 0.42724 0.0
C262 C 0.98896 0.56393 0.44173 0.0
C263 C 0.98714 0.57974 0.46607 0.0
O264 O 0.94813 0.58644 0.49124 0.0
O265 O 0.96247 0.57337 0.50539 0.0
O266 O 0.98762 0.57109 0.47773 0.0
O267 O 0.97339 0.58414 0.46343 0.0
H268 H 0.97257 0.60817 0.49577 0.0
H269 H 0.98087 0.6317 0.51064 0.0
H270 H 0.95422 0.61598 0.54874 0.0
H271 H 0.94607 0.5925 0.53383 0.0
H272 H 0.9142 0.52712 0.50848 0.0
H273 H 0.93706 0.54191 0.49998 0.0
H274 H 0.90338 0.51241 0.46188 0.0
H275 H 0.92631 0.52717 0.45344 0.0
H276 H 0.99196 0.55074 0.4209 0.0
H277 H 0.03104 0.57995 0.43705 0.0
H278 H 0.01628 0.58843 0.45913 0.0
H279 H 0.97724 0.55936 0.44303 0.0
C280 C 0.77784 0.80204 0.84125 0.0
C281 C 0.79092 0.79397 0.84307 0.0
C282 C 0.77916 0.78152 0.86465 0.0
C283 C 0.79158 0.78381 0.85469 0.0
C284 C 0.76606 0.78959 0.86265 0.0
C285 C 0.76543 0.79976 0.85106 0.0
U286 U 0.7937 0.81934 0.80533 0.0
O287 O 0.78169 0.82592 0.785 0.0
O288 O 0.79574 0.84313 0.79881 0.0
C289 C 0.78593 0.84047 0.78751 0.0
C290 C 0.77698 0.81278 0.82913 0.0
C291 C 0.77356 0.85091 0.7872 0.0
C292 C 0.75292 0.86376 0.79964 0.0
C293 C 0.76429 0.85339 0.79995 0.0
C294 C 0.75975 0.869 0.7737 0.0
C295 C 0.75057 0.87176 0.78653 0.0
C296 C 0.77116 0.85869 0.77406 0.0
C297 C 0.83041 0.80479 0.78807 0.0
C298 C 0.84292 0.81556 0.7661 0.0
C299 C 0.8532 0.7941 0.77766 0.0
C300 C 0.84146 0.79409 0.7884 0.0
C301 C 0.85408 0.80483 0.76637 0.0
C302 C 0.83116 0.81552 0.77686 0.0
C303 C 0.81828 0.80462 0.79959 0.0
O304 O 0.78786 0.82388 0.82935 0.0
O305 O 0.77414 0.80649 0.81545 0.0
O306 O 0.80455 0.79965 0.79469 0.0
O307 O 0.81825 0.81689 0.80879 0.0
H308 H 0.80061 0.79559 0.83555 0.0
H309 H 0.8019 0.77791 0.85598 0.0
H310 H 0.75618 0.78793 0.86993 0.0
H311 H 0.75521 0.80583 0.84975 0.0
H312 H 0.74593 0.86548 0.80964 0.0
H313 H 0.76593 0.84739 0.81018 0.0
H314 H 0.75838 0.8751 0.76349 0.0
H315 H 0.77822 0.85691 0.76411 0.0
H316 H 0.84319 0.82387 0.75747 0.0
H317 H 0.86172 0.78583 0.77835 0.0
H318 H 0.84107 0.78577 0.79703 0.0
H319 H 0.82266 0.82385 0.77644 0.0
C320 C 0.27735 0.30157 0.34228 0.0
C321 C 0.28941 0.2919 0.34226 0.0
C322 C 0.27879 0.27996 0.36464 0.0
C323 C 0.29013 0.28119 0.35336 0.0
C324 C 0.26673 0.2897 0.36453 0.0
C325 C 0.26603 0.30041 0.35345 0.0
U326 U 0.29333 0.3203 0.30724 0.0
O327 O 0.28172 0.32822 0.28732 0.0
O328 O 0.29594 0.34451 0.302 0.0
C329 C 0.28607 0.34263 0.29068 0.0
C330 C 0.27655 0.31296 0.33077 0.0
C331 C 0.2741 0.35368 0.29063 0.0
C332 C 0.26745 0.38009 0.29194 0.0
C333 C 0.27842 0.36935 0.29232 0.0
C334 C 0.24753 0.35973 0.28798 0.0
C335 C 0.25187 0.37542 0.28971 0.0
C336 C 0.25851 0.34896 0.28847 0.0
C337 C 0.32969 0.30548 0.28929 0.0
C338 C 0.34284 0.31691 0.26798 0.0
C339 C 0.35194 0.29423 0.27829 0.0
C340 C 0.34018 0.2942 0.289 0.0
C341 C 0.35343 0.30558 0.26764 0.0
C342 C 0.33104 0.31684 0.27871 0.0
C343 C 0.31751 0.30521 0.30075 0.0
O344 O 0.28764 0.32386 0.33142 0.0
O345 O 0.27352 0.30741 0.31685 0.0
O346 O 0.3037 0.3008 0.29567 0.0
O347 O 0.31778 0.31712 0.31044 0.0
H348 H 0.29824 0.29264 0.33367 0.0
H349 H 0.29948 0.27376 0.353 0.0
H350 H 0.25793 0.28922 0.37316 0.0
H351 H 0.25667 0.30784 0.35364 0.0
H352 H 0.2712 0.39209 0.29309 0.0
H353 H 0.29036 0.37331 0.29384 0.0
H354 H 0.23561 0.35577 0.28637 0.0
H355 H 0.25477 0.33697 0.28711 0.0
H356 H 0.34358 0.32572 0.25985 0.0
H357 H 0.36001 0.28548 0.27851 0.0
H358 H 0.33932 0.28538 0.29713 0.0
H359 H 0.32298 0.32563 0.27877 0.0
C360 C 0.44607 0.95723 0.52822 0.0
C361 C 0.4613 0.95321 0.52822 0.0
C362 C 0.45467 0.93175 0.51023 0.0
C363 C 0.46558 0.94064 0.51923 0.0
C364 C 0.43938 0.93571 0.51043 0.0
C365 C 0.43514 0.94837 0.51931 0.0
U366 U 0.45171 0.98402 0.56325 0.0
O367 O 0.45147 0.00895 0.56618 0.0
O368 O 0.43502 0.99437 0.57861 0.0
C369 C 0.43936 0.00831 0.575 0.0
C370 C 0.44144 0.97046 0.53763 0.0
C371 C 0.42705 0.01775 0.57067 0.0
C372 C 0.40815 0.02452 0.55248 0.0
C373 C 0.41937 0.01499 0.55671 0.0
C374 C 0.41205 0.03952 0.57623 0.0
C375 C 0.40444 0.03699 0.56215 0.0
C376 C 0.42325 0.02999 0.58044 0.0
C377 C 0.48455 0.97672 0.59047 0.0
C378 C 0.4876 0.98329 0.61755 0.0
C379 C 0.50988 0.97899 0.60203 0.0
C380 C 0.50045 0.97604 0.58925 0.0
C381 C 0.50356 0.98258 0.61634 0.0
C382 C 0.47817 0.98045 0.60471 0.0
C383 C 0.47496 0.97313 0.57679 0.0
O384 O 0.4356 0.96731 0.55093 0.0
O385 O 0.45131 0.98246 0.53828 0.0
O386 O 0.47659 0.9829 0.56606 0.0
O387 O 0.46062 0.96825 0.579 0.0
H388 H 0.46989 0.95978 0.53517 0.0
H389 H 0.4774 0.93776 0.51948 0.0
H390 H 0.43075 0.92913 0.50353 0.0
H391 H 0.42332 0.95126 0.51923 0.0
H392 H 0.40265 0.02233 0.54149 0.0
H393 H 0.42221 0.00559 0.54901 0.0
H394 H 0.40932 0.04886 0.58405 0.0
H395 H 0.42906 0.03227 0.59128 0.0
H396 H 0.48242 0.98619 0.62839 0.0
H397 H 0.5221 0.9782 0.60076 0.0
H398 H 0.50559 0.97312 0.57839 0.0
H399 H 0.46593 0.98113 0.60595 0.0
C400 C 0.21212 0.28807 0.69901 0.0
C401 C 0.22696 0.29038 0.69314 0.0
C402 C 0.22085 0.27106 0.67273 0.0
C403 C 0.23131 0.28189 0.68015 0.0
C404 C 0.20596 0.2689 0.67862 0.0
C405 C 0.20166 0.27731 0.69166 0.0
U406 U 0.21681 0.32273 0.72697 0.0
O407 O 0.19963 0.33641 0.73823 0.0
O408 O 0.21517 0.32421 0.75197 0.0
C409 C 0.20304 0.33217 0.75184 0.0
C410 C 0.20737 0.29678 0.71272 0.0
C411 C 0.19006 0.32669 0.76126 0.0
C412 C 0.17925 0.32326 0.78637 0.0
C413 C 0.19152 0.32788 0.77714 0.0
C414 C 0.16382 0.31609 0.76394 0.0
C415 C 0.16521 0.31744 0.77988 0.0
C416 C 0.17615 0.3206 0.75471 0.0
C417 C 0.24849 0.35382 0.72043 0.0
C418 C 0.25314 0.37613 0.73774 0.0
C419 C 0.26823 0.37347 0.71482 0.0
C420 C 0.26012 0.35954 0.71096 0.0
C421 C 0.26485 0.38195 0.72826 0.0
C422 C 0.24501 0.36219 0.73384 0.0
C423 C 0.24009 0.33918 0.71612 0.0
O424 O 0.21712 0.2978 0.72415 0.0
O425 O 0.20146 0.30975 0.71033 0.0
O426 O 0.22588 0.34007 0.71165 0.0
O427 O 0.24165 0.3282 0.7254 0.0
H428 H 0.23517 0.29873 0.6986 0.0
H429 H 0.24279 0.28396 0.67578 0.0
H430 H 0.19769 0.26054 0.67327 0.0
H431 H 0.19016 0.27539 0.69603 0.0
H432 H 0.18064 0.32458 0.7986 0.0
H433 H 0.20214 0.33256 0.78243 0.0
H434 H 0.15321 0.31149 0.75861 0.0
H435 H 0.17474 0.31942 0.74248 0.0
H436 H 0.25014 0.38244 0.74808 0.0
H437 H 0.27731 0.37749 0.70738 0.0
H438 H 0.26296 0.3532 0.70057 0.0
H439 H 0.236 0.35794 0.74126 0.0
C440 C 0.77503 0.25891 0.70153 0.0
C441 C 0.7739 0.25487 0.68592 0.0
C442 C 0.77267 0.28151 0.68021 0.0
C443 C 0.77279 0.26603 0.67537 0.0
C444 C 0.77383 0.28558 0.69586 0.0
C445 C 0.77505 0.2744 0.70642 0.0
U446 U 0.7938 0.23947 0.73418 0.0
O447 O 0.78335 0.22797 0.75354 0.0
O448 O 0.79647 0.21506 0.7367 0.0
C449 C 0.7874 0.21449 0.74857 0.0
C450 C 0.77569 0.24672 0.71236 0.0
C451 C 0.77541 0.20171 0.74825 0.0
C452 C 0.74943 0.1915 0.75328 0.0
C453 C 0.7603 0.20391 0.75281 0.0
C454 C 0.76847 0.1745 0.74438 0.0
C455 C 0.75342 0.17664 0.74915 0.0
C456 C 0.77935 0.18689 0.74402 0.0
C457 C 0.83089 0.25618 0.75274 0.0
C458 C 0.84283 0.24336 0.77289 0.0
C459 C 0.85443 0.2673 0.76458 0.0
C460 C 0.84264 0.26784 0.75395 0.0
C461 C 0.85466 0.25506 0.7742 0.0
C462 C 0.83103 0.24393 0.76225 0.0
C463 C 0.81856 0.2569 0.74153 0.0
O464 O 0.78673 0.23749 0.71012 0.0
O465 O 0.77351 0.25052 0.72682 0.0
O466 O 0.80501 0.25919 0.74726 0.0
O467 O 0.81812 0.24623 0.73047 0.0
H468 H 0.77373 0.24301 0.68187 0.0
H469 H 0.77171 0.26249 0.66342 0.0
H470 H 0.7739 0.29742 0.69992 0.0
H471 H 0.77594 0.27789 0.71839 0.0
H472 H 0.73789 0.19352 0.75686 0.0
H473 H 0.75686 0.21517 0.75618 0.0
H474 H 0.77195 0.16318 0.74132 0.0
H475 H 0.79095 0.18484 0.74062 0.0
H476 H 0.84256 0.23388 0.78022 0.0
H477 H 0.86347 0.27638 0.76513 0.0
H478 H 0.84272 0.27735 0.74665 0.0
H479 H 0.822 0.23484 0.76147 0.0
C480 C 0.52384 0.60202 0.59995 0.0
C481 C 0.52569 0.58931 0.60851 0.0
C482 C 0.50454 0.59617 0.62494 0.0
C483 C 0.51612 0.5864 0.6209 0.0
C484 C 0.50295 0.60903 0.61642 0.0
C485 C 0.51251 0.61191 0.60404 0.0
U486 U 0.557 0.59286 0.57356 0.0
O487 O 0.5579 0.59178 0.54857 0.0
O488 O 0.57331 0.60827 0.56176 0.0
C489 C 0.56801 0.60353 0.54822 0.0
C490 C 0.53332 0.60488 0.58649 0.0
C491 C 0.56401 0.61557 0.53831 0.0
C492 C 0.54897 0.63684 0.53303 0.0
C493 C 0.55286 0.62561 0.54268 0.0
C494 C 0.56733 0.62812 0.51454 0.0
C495 C 0.55611 0.63821 0.51879 0.0
C496 C 0.57122 0.61691 0.52421 0.0
C497 C 0.58194 0.56023 0.58238 0.0
C498 C 0.59731 0.54596 0.56442 0.0
C499 C 0.60173 0.54494 0.59147 0.0
C500 C 0.5901 0.55478 0.59438 0.0
C501 C 0.60541 0.54027 0.57646 0.0
C502 C 0.58573 0.55588 0.56735 0.0
C503 C 0.56933 0.57009 0.58582 0.0
O504 O 0.54754 0.61013 0.58922 0.0
O505 O 0.5321 0.59409 0.57555 0.0
O506 O 0.55747 0.5683 0.57656 0.0
O507 O 0.57339 0.58447 0.58958 0.0
H508 H 0.53438 0.58153 0.60548 0.0
H509 H 0.51756 0.5763 0.62709 0.0
H510 H 0.49433 0.61691 0.61933 0.0
H511 H 0.51097 0.62181 0.59757 0.0
H512 H 0.54044 0.64453 0.53677 0.0
H513 H 0.54717 0.62473 0.55355 0.0
H514 H 0.57291 0.62868 0.5036 0.0
H515 H 0.5798 0.6092 0.52063 0.0
H516 H 0.59968 0.5425 0.55273 0.0
H517 H 0.60789 0.54105 0.60102 0.0
H518 H 0.5874 0.55807 0.60605 0.0
H519 H 0.57961 0.55998 0.55789 0.0
C520 C 0.51189 0.48173 0.94429 0.0
C521 C 0.51654 0.49509 0.93708 0.0
C522 C 0.49408 0.49169 0.92057 0.0
C523 C 0.50771 0.50004 0.92533 0.0
C524 C 0.48953 0.47825 0.92782 0.0
C525 C 0.49836 0.47333 0.93959 0.0
U526 U 0.54737 0.48688 0.96903 0.0
O527 O 0.55043 0.48529 0.99366 0.0
O528 O 0.5624 0.47031 0.97766 0.0
C529 C 0.55914 0.47377 0.99195 0.0
C530 C 0.52107 0.4766 0.95675 0.0
C531 C 0.55508 0.46083 1.00137 0.0
C532 C 0.53982 0.43747 0.00625 0.0
C533 C 0.54347 0.44964 0.997 0.0
C534 C 0.5593 0.44766 0.02433 0.0
C535 C 0.5477 0.43633 0.02005 0.0
C536 C 0.56295 0.45976 0.01507 0.0
C537 C 0.57639 0.52014 0.96213 0.0
C538 C 0.60145 0.52311 0.97423 0.0
C539 C 0.59198 0.54398 0.96101 0.0
C540 C 0.5785 0.53505 0.95735 0.0
C541 C 0.6036 0.53811 0.9695 0.0
C542 C 0.58791 0.51421 0.97063 0.0
C543 C 0.56202 0.51106 0.95838 0.0
O544 O 0.5342 0.4713 0.95265 0.0
O545 O 0.52221 0.48596 0.96891 0.0
O546 O 0.55128 0.51183 0.96874 0.0
O547 O 0.56348 0.49711 0.9527 0.0
H548 H 0.527 0.50169 0.94054 0.0
H549 H 0.51165 0.51032 0.91987 0.0
H550 H 0.47901 0.47165 0.92454 0.0
H551 H 0.4946 0.463 0.94507 0.0
H552 H 0.53094 0.42888 1.00252 0.0
H553 H 0.53725 0.45031 0.98645 0.0
H554 H 0.56542 0.44731 0.03498 0.0
H555 H 0.57189 0.46836 0.01865 0.0
H556 H 0.61012 0.51834 0.98092 0.0
H557 H 0.59337 0.55543 0.95706 0.0
H558 H 0.56971 0.5398 0.95079 0.0
H559 H 0.58641 0.50275 0.97453 0.0
C560 C 0.70436 0.27945 0.34376 0.0
C561 C 0.7169 0.2765 0.35278 0.0
C562 C 0.70969 0.29563 0.37204 0.0
C563 C 0.71956 0.28455 0.3668 0.0
C564 C 0.69714 0.29849 0.36289 0.0
C565 C 0.69452 0.29047 0.34889 0.0
U566 U 0.71297 0.24872 0.31309 0.0
O567 O 0.69687 0.23294 0.29967 0.0
O568 O 0.7122 0.24943 0.2882 0.0
C569 C 0.70049 0.23923 0.28685 0.0
C570 C 0.70125 0.27109 0.32906 0.0
C571 C 0.68748 0.24353 0.27782 0.0
C572 C 0.66942 0.26189 0.27127 0.0
C573 C 0.6818 0.258 0.27997 0.0
C574 C 0.66815 0.23682 0.25834 0.0
C575 C 0.66243 0.25132 0.26038 0.0
C576 C 0.68058 0.23298 0.26697 0.0
C577 C 0.74642 0.22343 0.31827 0.0
C578 C 0.74929 0.19732 0.3087 0.0
C579 C 0.77175 0.21393 0.31559 0.0
C580 C 0.76239 0.22572 0.31961 0.0
C581 C 0.7653 0.19954 0.31025 0.0
C582 C 0.73994 0.20916 0.3126 0.0
C583 C 0.73681 0.23587 0.3233 0.0
O584 O 0.71168 0.27329 0.31852 0.0
O585 O 0.69628 0.25672 0.32981 0.0
O586 O 0.72262 0.23184 0.32709 0.0
O587 O 0.738 0.24809 0.31534 0.0
H588 H 0.72458 0.26796 0.34899 0.0
H589 H 0.72923 0.28195 0.37363 0.0
H590 H 0.68945 0.30709 0.36645 0.0
H591 H 0.68479 0.2929 0.34205 0.0
H592 H 0.66517 0.27308 0.27324 0.0
H593 H 0.68691 0.26627 0.2884 0.0
H594 H 0.66313 0.22848 0.24994 0.0
H595 H 0.68481 0.22176 0.26517 0.0
H596 H 0.74399 0.18642 0.30444 0.0
H597 H 0.78403 0.21596 0.31705 0.0
H598 H 0.76763 0.23661 0.32398 0.0
H599 H 0.72765 0.2071 0.31133 0.0
C600 C 0.45461 0.10199 0.00905 0.0
C601 C 0.47013 0.10699 0.01089 0.0
C602 C 0.46309 0.12952 0.02581 0.0
C603 C 0.47434 0.12061 0.01927 0.0
C604 C 0.44757 0.1246 0.02367 0.0
C605 C 0.44338 0.11093 0.0154 0.0
U606 U 0.46024 0.07124 0.97759 0.0
O607 O 0.45735 0.04625 0.97826 0.0
O608 O 0.44326 0.05811 0.96277 0.0
C609 C 0.44563 0.04517 0.96885 0.0
C610 C 0.44991 0.08743 1.00075 0.0
C611 C 0.43187 0.03663 0.97429 0.0
C612 C 0.40887 0.03538 0.98972 0.0
C613 C 0.42183 0.04365 0.98442 0.0
C614 C 0.41595 0.01295 0.97494 0.0
C615 C 0.4058 0.01992 0.98506 0.0
C616 C 0.42887 0.02125 0.96959 0.0
C617 C 0.49407 0.07573 0.9505 0.0
C618 C 0.49855 0.05688 0.9301 0.0
C619 C 0.51564 0.07971 0.93355 0.0
C620 C 0.50699 0.08462 0.94597 0.0
C621 C 0.51151 0.06581 0.92543 0.0
C622 C 0.48989 0.06181 0.94254 0.0
C623 C 0.48505 0.0812 0.96346 0.0
O624 O 0.44513 0.08848 0.98673 0.0
O625 O 0.45896 0.07631 1.00222 0.0
O626 O 0.48533 0.07314 0.97557 0.0
O627 O 0.47128 0.08506 0.96009 0.0
H628 H 0.479 0.10033 0.00594 0.0
H629 H 0.48638 0.1242 0.02058 0.0
H630 H 0.43866 0.13114 0.02869 0.0
H631 H 0.43135 0.10725 0.01409 0.0
H632 H 0.40138 0.04103 0.99764 0.0
H633 H 0.42406 0.05551 0.98827 0.0
H634 H 0.41382 1.00111 0.97102 0.0
H635 H 0.43653 0.01566 0.9618 0.0
H636 H 0.49497 0.04619 0.92401 0.0
H637 H 0.52567 0.08675 0.93041 0.0
H638 H 0.51039 0.09537 0.95203 0.0
H639 H 0.4799 0.05483 0.9459 0.0
O640 O 0.24954 0.88599 0.02061 0.0
Cd641 Cd 0.25809 0.89823 0.03981 0.0
Cd642 Cd 0.23888 0.92012 0.02861 0.0
O643 O 0.23361 0.90228 0.01274 0.0
O644 O 0.26894 0.883 0.05088 0.0
O645 O 0.24899 0.89413 0.06042 0.0
C646 C 0.25935 0.88457 0.06184 0.0
C647 C 0.21888 0.93479 0.03712 0.0
C648 C 0.23954 0.88952 0.0112 0.0
C649 C 0.27313 0.92842 0.03115 0.0
O650 O 0.25999 0.93207 0.02716 0.0
O651 O 0.27472 0.91564 0.03679 0.0
O652 O 0.22431 0.93555 0.02359 0.0
O653 O 0.22465 0.92542 0.04593 0.0
O654 O 0.15004 0.53813 0.27844 0.0
Cd655 Cd 0.13752 0.51903 0.2855 0.0
Cd656 Cd 0.11537 0.52985 0.26597 0.0
O657 O 0.13317 0.54603 0.26259 0.0
O658 O 0.15287 0.5075 0.2959 0.0
O659 O 0.14047 0.49839 0.27514 0.0
C660 C 0.1505 0.49666 0.28555 0.0
C661 C 0.10071 0.52095 0.24462 0.0
C662 C 0.14627 0.54756 0.26893 0.0
C663 C 0.10746 0.52719 0.29932 0.0
O664 O 0.10354 0.53094 0.28622 0.0
O665 O 0.12045 0.52201 0.30138 0.0
O666 O 0.09977 0.53447 0.25075 0.0
O667 O 0.1102 0.51236 0.25054 0.0
O668 O 0.76089 0.68105 0.99607 0.0
Cd669 Cd 0.7531 0.66842 0.01392 0.0
Cd670 Cd 0.77182 0.6475 0.99937 0.0
O671 O 0.7759 0.6649 0.98466 0.0
O672 O 0.74212 0.68346 0.02676 0.0
O673 O 0.76218 0.67246 0.03501 0.0
C674 C 0.75169 0.68187 0.03755 0.0
C675 C 0.79237 0.63527 0.00886 0.0
C676 C 0.77001 0.67771 0.98537 0.0
C677 C 0.73825 0.63786 1.00242 0.0
O678 O 0.75126 0.6345 0.99741 0.0
O679 O 0.73669 0.65066 0.00943 0.0
O680 O 0.78781 0.63287 0.99496 0.0
O681 O 0.78545 0.645 0.01739 0.0
O682 O 0.90283 0.03538 0.2865 0.0
Cd683 Cd 0.89102 0.03755 0.26651 0.0
Cd684 Cd 0.86942 0.04819 0.28709 0.0
O685 O 0.88622 0.0446 0.30278 0.0
O686 O 0.90653 0.0342 0.25033 0.0
O687 O 0.89559 0.05592 0.25403 0.0
C688 C 0.90516 0.04795 0.2465 0.0
C689 C 0.85709 0.07097 0.28924 0.0
C690 C 0.89898 0.03895 0.30008 0.0
C691 C 0.86018 0.01994 0.26717 0.0
O692 O 0.85657 0.02931 0.27785 0.0
O693 O 0.87324 0.02146 0.26091 0.0
O694 O 0.85417 0.06021 0.29838 0.0
O695 O 0.86732 0.06894 0.2789 0.0
O696 O 0.26038 0.17955 0.49524 0.0
Cd697 Cd 0.25254 0.16694 0.51312 0.0
Cd698 Cd 0.27196 0.14628 0.49922 0.0
O699 O 0.27647 0.16386 0.48484 0.0
O700 O 0.24086 0.18162 0.52568 0.0
O701 O 0.26136 0.1716 0.53425 0.0
C702 C 0.25044 0.18055 0.53659 0.0
C703 C 0.29226 0.13394 0.5091 0.0
C704 C 0.27015 0.17644 0.48506 0.0
C705 C 0.23841 0.13619 0.50131 0.0
O706 O 0.25155 0.13315 0.49639 0.0
O707 O 0.23657 0.14882 0.50855 0.0
O708 O 0.28807 0.13172 0.49508 0.0
O709 O 0.28511 0.14356 0.51755 0.0
O710 O 0.40395 0.5337 0.78552 0.0
Cd711 Cd 0.39193 0.53586 0.76566 0.0
Cd712 Cd 0.37045 0.54642 0.78639 0.0
O713 O 0.38753 0.54309 0.80188 0.0
O714 O 0.40731 0.53266 0.74932 0.0
O715 O 0.39629 0.55431 0.75324 0.0
C716 C 0.40585 0.54642 0.74559 0.0
C717 C 0.35779 0.56899 0.78873 0.0
C718 C 0.40025 0.53739 0.79911 0.0
C719 C 0.36122 0.51806 0.76667 0.0
O720 O 0.35767 0.52737 0.77743 0.0
O721 O 0.37417 0.51972 0.76022 0.0
O722 O 0.35535 0.5583 0.79803 0.0
O723 O 0.36773 0.56701 0.7781 0.0
O724 O 0.74824 0.38559 0.51925 0.0
Cd725 Cd 0.75719 0.39784 0.53834 0.0
Cd726 Cd 0.7385 0.41994 0.52672 0.0
O727 O 0.73284 0.40216 0.51096 0.0
O728 O 0.7679 0.38233 0.54918 0.0
O729 O 0.74848 0.39398 0.55918 0.0
C730 C 0.75864 0.38416 0.56037 0.0
C731 C 0.71892 0.43497 0.53557 0.0
C732 C 0.73843 0.38921 0.50968 0.0
C733 C 0.77282 0.42762 0.5292 0.0
O734 O 0.7598 0.43136 0.52496 0.0
O735 O 0.77413 0.41498 0.53523 0.0
O736 O 0.72432 0.43582 0.52203 0.0
O737 O 0.72448 0.42528 0.54417 0.0
O738 O 0.65176 0.03694 0.78025 0.0
Cd739 Cd 0.63889 0.01777 0.78666 0.0
Cd740 Cd 0.61741 0.02879 0.76674 0.0
O741 O 0.63567 0.04444 0.76337 0.0
O742 O 0.65374 0.00568 0.79707 0.0
O743 O 0.64182 0.99741 0.77576 0.0
C744 C 0.6515 0.9952 0.78635 0.0
C745 C 0.60285 0.0202 0.74523 0.0
C746 C 0.64848 0.04612 0.77029 0.0
C747 C 0.60879 0.02635 0.79994 0.0
O748 O 0.60533 0.03047 0.78685 0.0
O749 O 0.62148 0.02062 0.80216 0.0
O750 O 0.60227 0.0338 0.75124 0.0
O751 O 0.61188 0.01131 0.75139 0.0
O752 O 0.99457 0.28981 0.92065 0.0
Cd753 Cd 0.99703 0.26939 0.90847 0.0
Cd754 Cd 0.00995 0.28923 0.88746 0.0
O755 O 0.00559 0.30543 0.9045 0.0
O756 O 0.99312 0.25354 0.9236 0.0
O757 O 0.01546 0.25755 0.91232 0.0
C758 C 0.00712 0.25015 0.92195 0.0
C759 C 0.03331 0.29184 0.87453 0.0
C760 C 0.99891 0.30324 0.91709 0.0
C761 C 0.98148 0.26928 0.87799 0.0
O762 O 0.99158 0.27966 0.8747 0.0
O763 O 0.98178 0.26332 0.8908 0.0
O764 O 0.02248 0.30064 0.87235 0.0
O765 O 0.03102 0.28157 0.88436 0.0
O766 O 0.49232 0.78947 0.41928 0.0
Cd767 Cd 0.49515 0.76924 0.40697 0.0
Cd768 Cd 0.50989 0.78899 0.38714 0.0
O769 O 0.50567 0.80492 0.40454 0.0
O770 O 0.49094 0.75299 0.42162 0.0
O771 O 0.51357 0.7575 0.41101 0.0
C772 C 0.50504 0.7498 0.42026 0.0
C773 C 0.53357 0.79137 0.37473 0.0
C774 C 0.4978 0.80278 0.41646 0.0
C775 C 0.48109 0.77019 0.37609 0.0
O776 O 0.49165 0.78041 0.37356 0.0
O777 O 0.4806 0.76379 0.38869 0.0
O778 O 0.52309 0.80059 0.37268 0.0
O779 O 0.53077 0.7808 0.38416 0.0
O780 O 0.99185 0.78409 0.66886 0.0
Cd781 Cd 0.01071 0.77689 0.65716 0.0
Cd782 Cd 0.9981 0.79506 0.63468 0.0
O783 O 0.98231 0.79833 0.65181 0.0
O784 O 0.02194 0.76624 0.67264 0.0
O785 O 0.03192 0.78672 0.66192 0.0
C786 C 0.03332 0.77617 0.67135 0.0
C787 C 0.00621 0.81609 0.62079 0.0
C788 C 0.98172 0.79272 0.66482 0.0
C789 C 1.00156 0.76155 0.62654 0.0
O790 O 0.99729 0.77425 0.62258 0.0
O791 O 0.00724 0.76037 0.63967 0.0
O792 O 0.99274 0.80933 0.61903 0.0
O793 O 0.01515 0.81106 0.63074 0.0
O794 O 0.48975 0.2842 0.16784 0.0
Cd795 Cd 0.5084 0.27734 0.15549 0.0
Cd796 Cd 0.4954 0.29622 0.13412 0.0
O797 O 0.4805 0.2998 0.15192 0.0
O798 O 0.51985 0.26612 0.17034 0.0
O799 O 0.52965 0.28705 0.1603 0.0
C800 C 0.53118 0.27616 0.16931 0.0
C801 C 0.50407 0.31718 0.12041 0.0
C802 C 0.47992 0.29349 0.16457 0.0
C803 C 0.49792 0.26289 0.12487 0.0
O804 O 0.4931 0.27562 0.12169 0.0
O805 O 0.50466 0.26145 0.13744 0.0
O806 O 0.4902 0.31128 0.11919 0.0
O807 O 0.5131 0.31133 0.12972 0.0
H808 H 0.23832 0.8112 0.88398 0.0
H809 H 0.24227 0.82642 0.90793 0.0
H810 H 0.19538 0.81511 0.9204 0.0
H811 H 0.19135 0.79983 0.8965 0.0
H812 H 0.22787 0.85141 0.91838 0.0
H813 H 0.21852 0.80494 0.9581 0.0
H814 H 0.22136 0.8013 0.93798 0.0
H815 H 0.20296 0.80612 0.94505 0.0
C816 C 0.22884 0.81197 0.89181 0.0
C817 C 0.21453 0.80425 0.88835 0.0
C818 C 0.23113 0.82062 0.90552 0.0
C819 C 0.21919 0.82172 0.91606 0.0
C820 C 0.20487 0.81412 0.91261 0.0
H821 H 0.2177 0.89242 0.98942 0.0
H822 H 0.21211 0.8758 0.96663 0.0
C823 C 0.20258 0.8054 0.89893 0.0
C824 C 0.22162 0.83127 0.9304 0.0
H825 H 0.22035 0.83027 0.9691 0.0
C826 C 0.22625 0.84679 0.92947 0.0
C827 C 0.21967 0.82518 0.94487 0.0
C828 C 0.2155 0.80844 0.94662 0.0
C829 C 0.22887 0.85641 0.94259 0.0
C830 C 0.22648 0.85043 0.95706 0.0
C831 C 0.22199 0.83488 0.958 0.0
C832 C 0.22913 0.86002 0.97134 0.0
C833 C 0.23454 0.87282 0.94083 0.0
C834 C 0.24011 0.85633 0.98188 0.0
C835 C 0.24322 0.8657 0.995 0.0
C836 C 0.23539 0.87897 0.99787 0.0
C837 C 0.22404 0.88237 0.98752 0.0
C838 C 0.22089 0.87294 0.97443 0.0
H839 H 0.23956 0.87452 0.92941 0.0
H840 H 0.22479 0.88015 0.94222 0.0
H841 H 0.24331 0.87668 0.94959 0.0
H842 H 0.24654 0.84637 0.97977 0.0
H843 H 0.252 0.8627 1.00273 0.0
H844 H 0.04226 0.5566 0.4268 0.0
H845 H 0.05742 0.54905 0.40464 0.0
H846 H 0.01863 0.55323 0.3754 0.0
H847 H 1.00343 0.56101 0.39748 0.0
H848 H 0.05054 0.52381 0.38194 0.0
H849 H 0.05435 0.581 0.35774 0.0
H850 H 0.04927 0.57823 0.37731 0.0
H851 H 0.03547 0.57332 0.36245 0.0
C852 C 0.03698 0.55599 0.41564 0.0
C853 C 0.02168 0.5595 0.41387 0.0
C854 C 0.04562 0.55159 0.40302 0.0
C855 C 0.03918 0.55075 0.3884 0.0
C856 C 0.02384 0.55397 0.3866 0.0
H857 H 0.0779 0.53531 0.29859 0.0
H858 H 0.06091 0.53985 0.32009 0.0
C859 C 0.01515 0.5583 0.39922 0.0
C860 C 0.04859 0.54666 0.37504 0.0
H861 H 0.06515 0.56112 0.34336 0.0
C862 C 0.05375 0.53194 0.37348 0.0
C863 C 0.0527 0.5573 0.36405 0.0
C864 C 0.04779 0.5734 0.36544 0.0
C865 C 0.06281 0.5275 0.36107 0.0
C866 C 0.06711 0.53821 0.35017 0.0
C867 C 0.06184 0.55292 0.35172 0.0
C868 C 0.0772 0.53455 0.33714 0.0
C869 C 0.06743 0.5113 0.35962 0.0
C870 C 0.09204 0.53007 0.33957 0.0
C871 C 0.10178 0.52736 0.32728 0.0
C872 C 0.09693 0.52929 0.31232 0.0
C873 C 0.08203 0.53372 0.30994 0.0
C874 C 0.07228 0.53633 0.32223 0.0
H875 H 0.05964 0.50353 0.3661 0.0
H876 H 0.06745 0.50697 0.34754 0.0
H877 H 0.07915 0.51091 0.36429 0.0
H878 H 0.09623 0.52897 0.351 0.0
H879 H 0.11321 0.52407 0.32954 0.0
H880 H 0.76864 0.78517 0.89381 0.0
H881 H 0.76877 0.76712 0.9139 0.0
H882 H 0.79134 0.73556 0.88395 0.0
H883 H 0.79105 0.75344 0.86365 0.0
H884 H 0.755 0.7367 0.9121 0.0
H885 H 0.81764 0.73841 0.92332 0.0
H886 H 0.80896 0.75302 0.91338 0.0
H887 H 0.8118 0.73493 0.90379 0.0
C888 C 0.77358 0.77437 0.89144 0.0
C889 C 0.7798 0.77076 0.87708 0.0
C890 C 0.77373 0.76411 0.90298 0.0
C891 C 0.78021 0.75009 0.90047 0.0
C892 C 0.78655 0.74645 0.88621 0.0
H893 H 0.78581 0.67335 0.95871 0.0
H894 H 0.78869 0.69065 0.93787 0.0
C895 C 0.78637 0.7567 0.87463 0.0
C896 C 0.77964 0.73902 0.91258 0.0
H897 H 0.80186 0.72071 0.93658 0.0
C898 C 0.76524 0.73321 0.91747 0.0
C899 C 0.79302 0.73439 0.91945 0.0
C900 C 0.80876 0.74056 0.91484 0.0
C901 C 0.76385 0.72289 0.92905 0.0
C902 C 0.77722 0.71853 0.93619 0.0
C903 C 0.79164 0.72412 0.93113 0.0
C904 C 0.77635 0.70844 0.94916 0.0
C905 C 0.74806 0.7166 0.93339 0.0
C906 C 0.76887 0.71289 0.96257 0.0
C907 C 0.76716 0.70305 0.97446 0.0
C908 C 0.77303 0.68857 0.97324 0.0
C909 C 0.7811 0.68439 0.96002 0.0
C910 C 0.78276 0.69425 0.94809 0.0
H911 H 0.73959 0.71759 0.92417 0.0
H912 H 0.7481 0.70443 0.93608 0.0
H913 H 0.74421 0.72315 0.94363 0.0
H914 H 0.76415 0.72394 0.96378 0.0
H915 H 0.76102 0.70674 0.98451 0.0
H916 H 0.97797 0.97565 0.39804 0.0
H917 H 0.96245 0.98462 0.37772 0.0
H918 H 0.97016 0.03081 0.39649 0.0
H919 H 0.98568 0.02193 0.41687 0.0
H920 H 0.93597 0.99986 0.3797 0.0
H921 H 0.98218 0.03475 0.35202 0.0
H922 H 0.98603 0.02109 0.36582 0.0
H923 H 0.97999 0.03952 0.37194 0.0
C924 C 0.97631 0.98771 0.3979 0.0
C925 C 0.98312 0.99808 0.40906 0.0
C926 C 0.96749 0.99282 0.38623 0.0
C927 C 0.96534 0.00841 0.38545 0.0
C928 C 0.97197 0.01878 0.39666 0.0
H929 H 0.89458 0.04474 0.33065 0.0
H930 H 0.91071 0.03805 0.35161 0.0
C931 C 0.98083 0.01368 0.40831 0.0
C932 C 0.95586 0.01371 0.37309 0.0
H933 H 0.95688 0.03672 0.34306 0.0
C934 C 0.94053 0.00792 0.37169 0.0
C935 C 0.96189 0.0241 0.36254 0.0
C936 C 0.97846 0.03014 0.36302 0.0
C937 C 0.93104 0.01229 0.36009 0.0
C938 C 0.93696 0.02296 0.34976 0.0
C939 C 0.95231 0.02868 0.3511 0.0
C940 C 0.92757 0.02783 0.33712 0.0
C941 C 0.91487 0.00515 0.35876 0.0
C942 C 0.93197 0.02481 0.32201 0.0
C943 C 0.92286 0.02872 0.31 0.0
C944 C 0.90915 0.03579 0.31285 0.0
C945 C 0.905 0.03922 0.32802 0.0
C946 C 0.91416 0.03532 0.34004 0.0
H947 H 0.91333 0.99458 0.36509 0.0
H948 H 0.90686 0.01334 0.36358 0.0
H949 H 0.91167 1.00235 0.34668 0.0
H950 H 0.94232 0.01912 0.3195 0.0
H951 H 0.92645 0.02595 0.29848 0.0
H952 H 0.24755 0.25717 0.66766 0.0
H953 H 0.2548 0.24214 0.64485 0.0
H954 H 0.21159 0.24934 0.62392 0.0
H955 H 0.20435 0.26453 0.64653 0.0
H956 H 0.23821 0.21503 0.6312 0.0
H957 H 0.2443 0.26236 0.59206 0.0
H958 H 0.24448 0.26554 0.6125 0.0
H959 H 0.22666 0.26128 0.60249 0.0
C960 C 0.23967 0.25569 0.65813 0.0
C961 C 0.22539 0.26207 0.65888 0.0
C962 C 0.24379 0.24703 0.64516 0.0
C963 C 0.2338 0.24478 0.63266 0.0
C964 C 0.21955 0.25112 0.63338 0.0
H965 H 0.22741 0.19845 0.54487 0.0
H966 H 0.22465 0.21355 0.56861 0.0
C967 C 0.21538 0.25968 0.64635 0.0
C968 C 0.23803 0.2355 0.61895 0.0
H969 H 0.24377 0.23717 0.58075 0.0
C970 C 0.2396 0.21986 0.62018 0.0
C971 C 0.23985 0.24187 0.60463 0.0
C972 C 0.23888 0.25871 0.60279 0.0
C973 C 0.24229 0.21028 0.6073 0.0
C974 C 0.24375 0.2166 0.5929 0.0
C975 C 0.2426 0.23233 0.59179 0.0
C976 C 0.24559 0.20704 0.57868 0.0
C977 C 0.24289 0.19339 0.60913 0.0
C978 C 0.25833 0.19835 0.57639 0.0
C979 C 0.25991 0.18958 0.56279 0.0
C980 C 0.24884 0.18948 0.5512 0.0
C981 C 0.23615 0.19825 0.55354 0.0
C982 C 0.23456 0.20692 0.56711 0.0
H983 H 0.23809 0.18994 0.6202 0.0
H984 H 0.23648 0.18668 0.59984 0.0
H985 H 0.25499 0.19041 0.60863 0.0
H986 H 0.26713 0.1985 0.58504 0.0
H987 H 0.26985 0.18302 0.56129 0.0
H988 H 0.47359 0.59894 0.62609 0.0
H989 H 0.45606 0.59288 0.64683 0.0
H990 H 0.49363 0.57895 0.67314 0.0
H991 H 0.51136 0.58546 0.65266 0.0
H992 H 0.4498 0.56499 0.65873 0.0
H993 H 0.47266 0.60714 0.70362 0.0
H994 H 0.47763 0.60848 0.68382 0.0
H995 H 0.48694 0.59562 0.69535 0.0
C996 C 0.4782 0.59486 0.6364 0.0
C997 C 0.49392 0.59276 0.63772 0.0
C998 C 0.46813 0.59131 0.64821 0.0
C999 C 0.47355 0.58567 0.66163 0.0
C1000 C 0.48923 0.58357 0.66302 0.0
H1001 H 0.42565 0.53176 0.72708 0.0
H1002 H 0.44116 0.54209 0.70656 0.0
C1003 C 0.49932 0.58712 0.6512 0.0
C1004 C 0.46269 0.58121 0.67382 0.0
H1005 H 0.4551 0.58714 0.71164 0.0
C1006 C 0.45089 0.56993 0.67027 0.0
C1007 C 0.46397 0.5878 0.68883 0.0
C1008 C 0.47589 0.60054 0.69313 0.0
C1009 C 0.44066 0.5647 0.68142 0.0
C1010 C 0.44241 0.57076 0.69658 0.0
C1011 C 0.45387 0.58241 0.70004 0.0
C1012 C 0.43287 0.56465 0.70908 0.0
C1013 C 0.42807 0.55271 0.67687 0.0
C1014 C 0.42327 0.574 0.71755 0.0
C1015 C 0.41436 0.56812 0.72937 0.0
C1016 C 0.41502 0.55281 0.73299 0.0
C1017 C 0.42478 0.54357 0.72456 0.0
C1018 C 0.43362 0.54943 0.71276 0.0
H1019 H 0.42564 0.55239 0.66448 0.0
H1020 H 0.43165 0.54134 0.67964 0.0
H1021 H 0.41734 0.55476 0.68314 0.0
H1022 H 0.42261 0.58582 0.71494 0.0
H1023 H 0.40701 0.57555 0.73569 0.0
H1024 H 0.7546 0.30573 0.68191 0.0
H1025 H 0.75111 0.32419 0.66257 0.0
H1026 H 0.78389 0.30242 0.63379 0.0
H1027 H 0.78734 0.28392 0.65298 0.0
H1028 H 0.77142 0.34494 0.64915 0.0
H1029 H 0.74684 0.30193 0.60596 0.0
H1030 H 0.74911 0.2978 0.62564 0.0
H1031 H 0.76515 0.29742 0.61289 0.0
C1032 C 0.76114 0.30496 0.67151 0.0
C1033 C 0.77113 0.29326 0.66891 0.0
C1034 C 0.7591 0.31547 0.66045 0.0
C1035 C 0.76698 0.31448 0.6466 0.0
C1036 C 0.77735 0.30315 0.64421 0.0
H1037 H 0.77822 0.36216 0.56497 0.0
H1038 H 0.77943 0.34621 0.58665 0.0
C1039 C 0.77934 0.2926 0.6552 0.0
C1040 C 0.76441 0.32523 0.63459 0.0
H1041 H 0.75447 0.32649 0.5972 0.0
C1042 C 0.76756 0.34094 0.63784 0.0
C1043 C 0.75924 0.32 0.61986 0.0
C1044 C 0.75474 0.30338 0.61589 0.0
C1045 C 0.76631 0.35149 0.62655 0.0
C1046 C 0.76166 0.34617 0.61171 0.0
C1047 C 0.75813 0.33052 0.60858 0.0
C1048 C 0.76112 0.35649 0.599 0.0
C1049 C 0.77049 0.36817 0.6304 0.0
C1050 C 0.75039 0.36759 0.59875 0.0
C1051 C 0.74962 0.37677 0.58629 0.0
C1052 C 0.75958 0.37495 0.57389 0.0
C1053 C 0.77038 0.36389 0.57431 0.0
C1054 C 0.77109 0.35474 0.58669 0.0
H1055 H 0.77633 0.3701 0.64161 0.0
H1056 H 0.77807 0.37308 0.62154 0.0
H1057 H 0.75992 0.37443 0.63077 0.0
H1058 H 0.74244 0.36898 0.60805 0.0
H1059 H 0.74115 0.38514 0.5863 0.0
H1060 H 0.49926 0.97179 0.64469 0.0
H1061 H 0.51612 0.97646 0.66691 0.0
H1062 H 0.54738 0.00471 0.64087 0.0
H1063 H 0.5307 0.99993 0.61859 0.0
H1064 H 0.56232 0.98519 0.65749 0.0
H1065 H 0.52097 0.01523 0.69385 0.0
H1066 H 0.514 0.99645 0.68693 0.0
H1067 H 0.51788 0.01113 0.67376 0.0
C1068 C 0.50967 0.9791 0.64376 0.0
C1069 C 0.51362 0.98555 0.62991 0.0
C1070 C 0.51928 0.98177 0.65646 0.0
C1071 C 0.53291 0.99112 0.65562 0.0
C1072 C 0.53692 0.99747 0.64179 0.0
H1073 H 0.58599 0.0377 0.72813 0.0
H1074 H 0.56951 0.02957 0.70645 0.0
C1075 C 0.52739 0.99471 0.62906 0.0
C1076 C 0.54306 0.99429 0.6691 0.0
H1077 H 0.54428 0.01008 0.7054 0.0
C1078 C 0.55839 0.99061 0.66799 0.0
C1079 C 0.53794 1.00149 0.68273 0.0
C1080 C 0.52184 0.00645 0.6844 0.0
C1081 C 0.56876 0.99405 0.68007 0.0
C1082 C 0.56358 1.00106 0.69377 0.0
C1083 C 0.54822 0.00459 0.69493 0.0
C1084 C 0.57405 0.00574 0.70673 0.0
C1085 C 0.58528 0.99061 0.67786 0.0
C1086 C 0.58213 0.99505 0.71413 0.0
C1087 C 0.59173 0.99971 0.72652 0.0
C1088 C 0.59323 0.01511 0.73181 0.0
C1089 C 0.58509 0.02574 0.72437 0.0
C1090 C 0.57563 0.02111 0.71198 0.0
H1091 H 0.58813 0.98877 0.66564 0.0
H1092 H 0.59311 1.00002 0.68291 0.0
H1093 H 0.5874 0.98005 0.6836 0.0
H1094 H 0.58085 0.98308 0.71049 0.0
H1095 H 0.59776 0.99123 0.73208 0.0
H1096 H 0.86993 0.23035 0.78167 0.0
H1097 H 0.89074 0.22971 0.80016 0.0
H1098 H 0.88895 0.278 0.81042 0.0
H1099 H 0.86787 0.27866 0.79234 0.0
H1100 H 0.91929 0.24532 0.80019 0.0
H1101 H 0.8877 0.26091 0.85254 0.0
H1102 H 0.87814 0.25479 0.83486 0.0
H1103 H 0.88599 0.27416 0.83798 0.0
C1104 C 0.87381 0.24079 0.78803 0.0
C1105 C 0.8672 0.25455 0.78554 0.0
C1106 C 0.88576 0.24042 0.79853 0.0
C1107 C 0.89124 0.25376 0.80683 0.0
C1108 C 0.8847 0.26751 0.80436 0.0
H1109 H 0.97744 0.27973 0.84972 0.0
H1110 H 0.95572 0.27394 0.83255 0.0
C1111 C 0.87278 0.2679 0.79387 0.0
C1112 C 0.90422 0.2535 0.81764 0.0
H1113 H 0.91507 0.26306 0.85436 0.0
C1114 C 0.91834 0.24904 0.81207 0.0
C1115 C 0.9029 0.25809 0.8332 0.0
C1116 C 0.88783 0.26211 0.84005 0.0
C1117 C 0.93133 0.24969 0.8215 0.0
C1118 C 0.93023 0.25519 0.83684 0.0
C1119 C 0.91596 0.259 0.84256 0.0
C1120 C 0.94386 0.25783 0.84692 0.0
C1121 C 0.94613 0.24454 0.81494 0.0
C1122 C 0.94435 0.25085 0.86085 0.0
C1123 C 0.95676 0.25422 0.8708 0.0
C1124 C 0.96886 0.26473 0.86704 0.0
C1125 C 0.96839 0.27153 0.85298 0.0
C1126 C 0.956 0.26816 0.84307 0.0
H1127 H 0.94403 0.23638 0.80495 0.0
H1128 H 0.95315 0.25458 0.81109 0.0
H1129 H 0.95282 0.23903 0.82354 0.0
H1130 H 0.93505 0.24292 0.86409 0.0
H1131 H 0.95672 0.24881 0.88155 0.0
H1132 H 0.47969 0.93017 0.49181 0.0
H1133 H 0.48718 0.90825 0.47596 0.0
H1134 H 0.4478 0.88125 0.49151 0.0
H1135 H 0.44011 0.90321 0.50717 0.0
H1136 H 0.49469 0.88049 0.48351 0.0
H1137 H 0.4434 0.87401 0.44617 0.0
H1138 H 0.44757 0.8906 0.45883 0.0
H1139 H 0.43876 0.87332 0.46595 0.0
C1140 C 0.47263 0.91955 0.49185 0.0
C1141 C 0.45925 0.91843 0.50066 0.0
C1142 C 0.47691 0.90705 0.48276 0.0
C1143 C 0.46791 0.89317 0.48232 0.0
C1144 C 0.45469 0.89195 0.49132 0.0
H1145 H 0.47783 0.8031 0.44034 0.0
H1146 H 0.47122 0.82509 0.45658 0.0
C1147 C 0.45033 0.90449 0.5003 0.0
C1148 C 0.47257 0.87991 0.47269 0.0
H1149 H 0.46018 0.85387 0.44433 0.0
C1150 C 0.48718 0.87473 0.47488 0.0
C1151 C 0.46277 0.87243 0.46138 0.0
C1152 C 0.44732 0.87795 0.45782 0.0
C1153 C 0.49214 0.86213 0.46627 0.0
C1154 C 0.48225 0.85454 0.45518 0.0
C1155 C 0.46768 0.8597 0.45293 0.0
C1156 C 0.48683 0.84122 0.44573 0.0
C1157 C 0.50781 0.8568 0.4692 0.0
C1158 C 0.4978 0.84306 0.43426 0.0
C1159 C 0.50155 0.83055 0.42487 0.0
C1160 C 0.49443 0.81595 0.42685 0.0
C1161 C 0.48359 0.81415 0.43853 0.0
C1162 C 0.47976 0.8267 0.44781 0.0
H1163 H 0.51312 0.86239 0.47973 0.0
H1164 H 0.50713 0.84425 0.47016 0.0
H1165 H 0.5154 0.85951 0.45948 0.0
H1166 H 0.50327 0.85424 0.43241 0.0
H1167 H 0.50993 0.83235 0.41599 0.0
H1168 H 0.16505 0.30118 0.80553 0.0
H1169 H 0.14324 0.29466 0.82195 0.0
H1170 H 0.11384 0.31797 0.79315 0.0
H1171 H 0.13549 0.3243 0.77661 0.0
H1172 H 0.1254 0.31294 0.83844 0.0
H1173 H 0.08929 0.27791 0.7963 0.0
H1174 H 0.10918 0.28344 0.79287 0.0
H1175 H 0.09468 0.29649 0.78985 0.0
C1176 C 0.15391 0.30486 0.80268 0.0
C1177 C 0.15197 0.31315 0.78971 0.0
C1178 C 0.14146 0.3011 0.81205 0.0
C1179 C 0.12682 0.30556 0.80864 0.0
C1180 C 0.1249 0.31399 0.79578 0.0
H1181 H 0.03962 0.31043 0.85129 0.0
H1182 H 0.06289 0.31272 0.83609 0.0
C1183 C 0.13731 0.31764 0.78635 0.0
C1184 C 0.11368 0.30197 0.81883 0.0
H1185 H 0.07673 0.28658 0.81902 0.0
C1186 C 0.11483 0.30698 0.83424 0.0
C1187 C 0.0999 0.29412 0.81338 0.0
C1188 C 0.09822 0.28754 0.79723 0.0
C1189 C 0.10238 0.30491 0.84417 0.0
C1190 C 0.08847 0.29761 0.83854 0.0
C1191 C 0.08742 0.29225 0.82326 0.0
C1192 C 0.07459 0.29618 0.84811 0.0
C1193 C 0.10396 0.31102 0.86047 0.0
C1194 C 0.07346 0.28607 0.85989 0.0
C1195 C 0.06009 0.28465 0.86861 0.0
C1196 C 0.04768 0.29339 0.86568 0.0
C1197 C 0.04896 0.30356 0.8539 0.0
C1198 C 0.06224 0.30488 0.84516 0.0
H1199 H 0.1149 0.31801 0.86259 0.0
H1200 H 0.09429 0.31807 0.86357 0.0
H1201 H 0.10353 0.30134 0.86806 0.0
H1202 H 0.08285 0.27917 0.86224 0.0
H1203 H 0.05945 0.2767 0.87757 0.0
H1204 H 0.52743 0.64724 0.5131 0.0
H1205 H 0.52031 0.66646 0.49592 0.0
H1206 H 0.56764 0.67495 0.48351 0.0
H1207 H 0.57493 0.65589 0.50084 0.0
H1208 H 0.5307 0.69781 0.49638 0.0
H1209 H 0.54541 0.66692 0.44219 0.0
H1210 H 0.54318 0.65756 0.45986 0.0
H1211 H 0.56034 0.66923 0.45632 0.0
C1212 C 0.53637 0.65327 0.50683 0.0
C1213 C 0.55177 0.64997 0.50836 0.0
C1214 C 0.53225 0.66419 0.49694 0.0
C1215 C 0.54341 0.67198 0.48828 0.0
C1216 C 0.5588 0.66884 0.48984 0.0
H1217 H 0.5347 0.7417 0.42202 0.0
H1218 H 0.54476 0.72317 0.43855 0.0
C1219 C 0.56294 0.65793 0.49976 0.0
C1220 C 0.5389 0.68362 0.4779 0.0
H1221 H 0.53724 0.69178 0.44048 0.0
C1222 C 0.53213 0.6965 0.48416 0.0
C1223 C 0.54089 0.68194 0.46197 0.0
C1224 C 0.54774 0.66813 0.45461 0.0
C1225 C 0.52727 0.70774 0.47492 0.0
C1226 C 0.52891 0.70589 0.45896 0.0
C1227 C 0.53596 0.69316 0.45271 0.0
C1228 C 0.52284 0.71676 0.44856 0.0
C1229 C 0.52056 0.72158 0.48238 0.0
C1230 C 0.50715 0.71902 0.44844 0.0
C1231 C 0.50139 0.72957 0.43906 0.0
C1232 C 0.51119 0.73802 0.42949 0.0
C1233 C 0.52686 0.73542 0.42928 0.0
C1234 C 0.53262 0.72484 0.43872 0.0
H1235 H 0.52419 0.72347 0.49447 0.0
H1236 H 0.52398 0.732 0.47631 0.0
H1237 H 0.50788 0.71986 0.48211 0.0
H1238 H 0.49933 0.71265 0.45566 0.0
H1239 H 0.48925 0.73119 0.43943 0.0
H1240 H 0.86575 0.78018 0.75144 0.0
H1241 H 0.88732 0.78004 0.73384 0.0
H1242 H 0.89222 0.82918 0.73759 0.0
H1243 H 0.87091 0.82942 0.7556 0.0
H1244 H 0.8912 0.79332 0.70583 0.0
H1245 H 0.93527 0.81686 0.74788 0.0
H1246 H 0.91642 0.80958 0.75341 0.0
H1247 H 0.91916 0.82816 0.74596 0.0
C1248 C 0.87149 0.79096 0.74863 0.0
C1249 C 0.86669 0.80481 0.75505 0.0
C1250 C 0.88374 0.79086 0.73848 0.0
C1251 C 0.8915 0.80458 0.73458 0.0
C1252 C 0.88654 0.81845 0.74065 0.0
H1253 H 0.95764 0.81023 0.66004 0.0
H1254 H 0.93576 0.81415 0.67672 0.0
C1255 C 0.87426 0.81857 0.75081 0.0
C1256 C 0.90483 0.80425 0.7242 0.0
H1257 H 0.94346 0.8127 0.72254 0.0
C1258 C 0.90262 0.79762 0.70944 0.0
C1259 C 0.91973 0.80972 0.72902 0.0
C1260 C 0.92289 0.81637 0.74497 0.0
C1261 C 0.91493 0.79623 0.69937 0.0
C1262 C 0.92982 0.80184 0.70413 0.0
C1263 C 0.93202 0.80853 0.71888 0.0
C1264 C 0.94338 0.80014 0.69426 0.0
C1265 C 0.91198 0.78834 0.68389 0.0
C1266 C 0.95515 0.79137 0.6988 0.0
C1267 C 0.96771 0.78917 0.68936 0.0
C1268 C 0.96879 0.79577 0.67517 0.0
C1269 C 0.95715 0.8049 0.67083 0.0
C1270 C 0.94458 0.80709 0.68031 0.0
H1271 H 0.9007 0.7817 0.6833 0.0
H1272 H 0.91204 0.79703 0.67523 0.0
H1273 H 0.92106 0.78053 0.68091 0.0
H1274 H 0.95448 0.78596 0.70956 0.0
H1275 H 0.97647 0.78212 0.69311 0.0
H1276 H 0.06377 0.92857 0.54474 0.0
H1277 H 0.05804 0.9081 0.56195 0.0
H1278 H 0.01672 0.89423 0.53669 0.0
H1279 H 0.02271 0.91422 0.519 0.0
H1280 H 0.0336 0.90314 0.58055 0.0
H1281 H 0.03651 0.85425 0.53853 0.0
H1282 H 0.04348 0.87338 0.53449 0.0
H1283 H 0.02335 0.8677 0.53309 0.0
C1284 C 0.05359 0.92101 0.54266 0.0
C1285 C 0.04378 0.92299 0.53037 0.0
C1286 C 0.05027 0.90939 0.5526 0.0
C1287 C 0.03709 0.89946 0.55046 0.0
C1288 C 0.02714 0.90153 0.53837 0.0
H1289 H 0.99026 0.82744 0.59794 0.0
H1290 H 0.99857 0.84791 0.58158 0.0
C1291 C 0.03048 0.91311 0.52838 0.0
C1292 C 0.03356 0.88719 0.56111 0.0
H1293 H 0.02568 0.84874 0.56263 0.0
C1294 C 0.03201 0.89123 0.57666 0.0
C1295 C 0.03157 0.87164 0.55603 0.0
C1296 C 0.03396 0.86644 0.53965 0.0
C1297 C 0.02803 0.8802 0.58718 0.0
C1298 C 0.02566 0.86472 0.58201 0.0
C1299 C 0.02745 0.86064 0.56653 0.0
C1300 C 0.02071 0.85262 0.59237 0.0
C1301 C 0.02592 0.88519 0.60365 0.0
C1302 C 0.03045 0.84846 0.60387 0.0
C1303 C 0.02575 0.83668 0.61327 0.0
C1304 C 0.01122 0.8289 0.6113 0.0
C1305 C 1.0015 0.83321 0.59981 0.0
C1306 C 0.00623 0.84489 0.59041 0.0
H1307 H 0.02552 0.89775 0.60532 0.0
H1308 H 0.01521 0.87962 0.60816 0.0
H1309 H 0.03563 0.88167 0.61042 0.0
H1310 H 0.04176 0.85417 0.60543 0.0
H1311 H 0.03351 0.8336 0.62197 0.0
H1312 H 0.16177 0.77734 0.74731 0.0
H1313 H 0.13989 0.78409 0.73228 0.0
H1314 H 0.11623 0.74068 0.74044 0.0
H1315 H 0.13791 0.73394 0.75559 0.0
H1316 H 0.1264 0.76707 0.70558 0.0
H1317 H 0.08534 0.77288 0.75317 0.0
H1318 H 0.1058 0.7735 0.75609 0.0
H1319 H 0.09501 0.75553 0.75245 0.0
C1320 C 0.15184 0.7693 0.74601 0.0
C1321 C 0.15156 0.75511 0.75266 0.0
C1322 C 0.1394 0.77314 0.73737 0.0
C1323 C 0.1264 0.76295 0.73539 0.0
C1324 C 0.12609 0.74878 0.74198 0.0
H1325 H 0.03969 0.75403 0.6903 0.0
H1326 H 0.06277 0.75225 0.70538 0.0
C1327 C 0.13854 0.7449 0.75053 0.0
C1328 C 0.11322 0.76688 0.72618 0.0
H1329 H 0.07496 0.77186 0.72815 0.0
C1330 C 0.11517 0.7683 0.7105 0.0
C1331 C 0.09862 0.7685 0.73267 0.0
C1332 C 0.09603 0.76766 0.74954 0.0
C1333 C 0.10273 0.77061 0.701 0.0
C1334 C 0.08803 0.77184 0.70744 0.0
C1335 C 0.08621 0.77088 0.72321 0.0
C1336 C 0.07417 0.77317 0.698 0.0
C1337 C 0.1053 0.77101 0.68409 0.0
C1338 C 0.07283 0.78559 0.68885 0.0
C1339 C 0.05961 0.78661 0.68008 0.0
C1340 C 0.04745 0.77529 0.68045 0.0
C1341 C 0.04882 0.76296 0.68973 0.0
C1342 C 0.06202 0.76192 0.6984 0.0
H1343 H 0.11636 0.76644 0.68066 0.0
H1344 H 0.09591 0.76434 0.67769 0.0
H1345 H 0.1055 0.78299 0.68075 0.0
H1346 H 0.08194 0.79457 0.68859 0.0
H1347 H 0.05887 0.79629 0.67312 0.0
H1348 H 0.97761 0.62885 0.56054 0.0
H1349 H 0.98434 0.65256 0.57569 0.0
H1350 H 0.97648 0.67854 0.53672 0.0
H1351 H 0.9695 0.6549 0.52153 0.0
H1352 H 0.00791 0.6768 0.56951 0.0
H1353 H 0.94878 0.69615 0.57113 0.0
H1354 H 0.95269 0.67661 0.56631 0.0
H1355 H 0.95609 0.69085 0.55266 0.0
C1356 C 0.97725 0.63962 0.55522 0.0
C1357 C 0.97293 0.64002 0.53987 0.0
C1358 C 0.98118 0.65313 0.56385 0.0
C1359 C 0.98074 0.66727 0.55735 0.0
C1360 C 0.97672 0.66772 0.54197 0.0
H1361 H 0.992 0.76021 0.59686 0.0
H1362 H 0.98803 0.73761 0.57955 0.0
C1363 C 0.97286 0.65421 0.53329 0.0
C1364 C 0.98433 0.68154 0.56675 0.0
H1365 H 0.96824 0.71278 0.58265 0.0
C1366 C 0.99927 0.6847 0.57239 0.0
C1367 C 0.97302 0.6918 0.5704 0.0
C1368 C 0.9567 0.68871 0.56493 0.0
C1369 C 1.00324 0.69796 0.58155 0.0
C1370 C 0.99186 0.7081 0.58545 0.0
C1371 C 0.97695 0.70499 0.57965 0.0
C1372 C 0.99503 0.72186 0.59577 0.0
C1373 C 0.01965 0.70108 0.58674 0.0
C1374 C 1.00021 0.72052 0.61069 0.0
C1375 C 1.00258 0.73342 0.6206 0.0
C1376 C 0.99961 0.74793 0.61586 0.0
C1377 C 0.9944 0.74923 0.6009 0.0
C1378 C 0.99212 0.73632 0.59098 0.0
H1379 H 0.02761 0.69492 0.57922 0.0
H1380 H 0.02316 0.71347 0.58702 0.0
H1381 H 0.02084 0.6971 0.59838 0.0
H1382 H 1.00217 0.70943 0.61476 0.0
H1383 H 0.00648 0.73198 0.63206 0.0
H1384 H 0.77456 0.89461 0.25667 0.0
H1385 H 0.78958 0.91859 0.26324 0.0
H1386 H 0.788 0.93051 0.21647 0.0
H1387 H 0.77259 0.90679 0.20989 0.0
H1388 H 0.81802 0.92788 0.25185 0.0
H1389 H 0.7753 0.96919 0.23954 0.0
H1390 H 0.77012 0.94918 0.24154 0.0
H1391 H 0.7783 0.95557 0.22409 0.0
C1392 C 0.77716 0.90246 0.24783 0.0
C1393 C 0.77233 0.89878 0.23275 0.0
C1394 C 0.78584 0.91611 0.25159 0.0
C1395 C 0.78976 0.92642 0.24038 0.0
C1396 C 0.78489 0.92285 0.22535 0.0
H1397 H 0.86415 0.99738 0.24513 0.0
H1398 H 0.84686 0.97495 0.23844 0.0
C1399 C 0.77623 0.9092 0.22158 0.0
C1400 C 0.79957 0.94054 0.2443 0.0
H1401 H 0.80092 0.9794 0.24402 0.0
C1402 C 0.81427 0.93915 0.25019 0.0
C1403 C 0.79459 0.95523 0.24226 0.0
C1404 C 0.77866 0.95745 0.23665 0.0
C1405 C 0.82422 0.95204 0.25389 0.0
C1406 C 0.81942 0.96671 0.25139 0.0
C1407 C 0.80463 0.96813 0.24575 0.0
C1408 C 0.82954 0.98072 0.25485 0.0
C1409 C 0.83969 0.94985 0.26066 0.0
C1410 C 0.8253 0.99167 0.26593 0.0
C1411 C 0.83511 0.00456 0.26973 0.0
C1412 C 0.84935 0.00678 0.26246 0.0
C1413 C 0.85334 0.99599 0.25103 0.0
C1414 C 0.84351 0.98312 0.24725 0.0
H1415 H 0.84009 0.93842 0.26534 0.0
H1416 H 0.84853 0.95087 0.25168 0.0
H1417 H 0.84269 0.95869 0.26986 0.0
H1418 H 0.81452 0.99008 0.27188 0.0
H1419 H 0.83163 0.01265 0.27855 0.0
H1420 H 0.76074 0.16998 0.31816 0.0
H1421 H 0.77739 0.14915 0.31311 0.0
H1422 H 0.80878 0.17927 0.28919 0.0
H1423 H 0.79227 0.20024 0.29442 0.0
H1424 H 0.78658 0.13576 0.28668 0.0
H1425 H 0.83734 0.16202 0.31867 0.0
H1426 H 0.81878 0.16963 0.32015 0.0
H1427 H 0.83081 0.17346 0.30407 0.0
C1428 C 0.77116 0.17216 0.31176 0.0
C1429 C 0.77522 0.18678 0.30675 0.0
C1430 C 0.78069 0.16025 0.30893 0.0
C1431 C 0.79449 0.16269 0.30101 0.0
C1432 C 0.79842 0.1772 0.29569 0.0
H1433 H 0.86194 0.09707 0.27362 0.0
H1434 H 0.84715 0.11979 0.27551 0.0
C1435 C 0.78894 0.18916 0.29863 0.0
C1436 C 0.80456 0.14993 0.29818 0.0
H1437 H 0.84041 0.1386 0.30483 0.0
C1438 C 0.79835 0.13642 0.29064 0.0
C1439 C 0.81996 0.15077 0.30333 0.0
C1440 C 0.82711 0.16469 0.31213 0.0
C1441 C 0.80704 0.12372 0.28821 0.0
C1442 C 0.82233 0.12452 0.2935 0.0
C1443 C 0.8287 0.1381 0.30073 0.0
C1444 C 0.83152 0.11101 0.29246 0.0
C1445 C 0.79982 0.10946 0.28008 0.0
C1446 C 0.82774 0.09872 0.30152 0.0
C1447 C 0.83619 0.08583 0.30056 0.0
C1448 C 0.84858 0.08495 0.29046 0.0
C1449 C 0.85245 0.09738 0.28148 0.0
C1450 C 0.84403 0.11036 0.28255 0.0
H1451 H 0.78914 0.11166 0.27402 0.0
H1452 H 0.80793 0.1046 0.27176 0.0
H1453 H 0.79694 0.10079 0.28849 0.0
H1454 H 0.81821 0.09908 0.30934 0.0
H1455 H 0.83288 0.07649 0.30765 0.0
H1456 H 0.40392 0.99093 0.99497 0.0
H1457 H 0.38114 0.97627 1.00388 0.0
H1458 H 0.35401 0.01434 0.99721 0.0
H1459 H 0.37665 0.029 0.98805 0.0
H1460 H 0.36087 0.9846 0.02896 0.0
H1461 H 0.33142 0.97734 0.97279 0.0
H1462 H 0.35169 0.98257 0.9747 0.0
H1463 H 0.33808 0.99653 0.97882 0.0
C1464 C 0.39307 0.99614 0.99529 0.0
C1465 C 0.39206 0.0111 0.99073 0.0
C1466 C 0.38012 0.98779 1.00047 0.0
C1467 C 0.3659 0.99418 1.00105 0.0
C1468 C 0.36486 0.00916 0.99668 0.0
H1469 H 0.27393 0.95746 0.02143 0.0
H1470 H 0.29647 0.97399 0.0154 0.0
C1471 C 0.37783 0.01755 0.99157 0.0
C1472 C 0.35214 0.98515 0.00618 0.0
H1473 H 0.31773 0.96823 0.99389 0.0
C1474 C 0.35142 0.98099 0.02132 0.0
C1475 C 0.33985 0.98053 0.99617 0.0
C1476 C 0.34025 0.98434 0.97967 0.0
C1477 C 0.33862 0.97247 0.02679 0.0
C1478 C 0.32638 0.96768 0.01673 0.0
C1479 C 0.3271 0.97192 1.0016 0.0
C1480 C 0.31282 0.95804 0.02151 0.0
C1481 C 0.33819 0.96893 0.04336 0.0
C1482 C 0.31451 0.94359 0.027 0.0
C1483 C 0.30164 0.93413 0.03055 0.0
C1484 C 0.2868 0.93887 0.02849 0.0
C1485 C 0.28517 0.95344 0.02315 0.0
C1486 C 0.29804 0.96291 0.01968 0.0
H1487 H 0.34597 0.97706 0.05032 0.0
H1488 H 0.32642 0.96929 0.04799 0.0
H1489 H 0.342 0.9573 0.04456 0.0
H1490 H 0.32577 0.93943 0.02816 0.0
H1491 H 0.30333 0.92295 0.03453 0.0
H1492 H 0.22794 0.37581 0.26967 0.0
H1493 H 0.20969 0.39551 0.26794 0.0
H1494 H 0.23126 0.42059 0.30658 0.0
H1495 H 0.24956 0.40104 0.30831 0.0
H1496 H 0.1887 0.40664 0.28854 0.0
H1497 H 0.23249 0.45236 0.27476 0.0
H1498 H 0.23643 0.4325 0.27408 0.0
H1499 H 0.23668 0.44344 0.29196 0.0
C1500 C 0.22872 0.38547 0.27786 0.0
C1501 C 0.2403 0.38695 0.28904 0.0
C1502 C 0.21832 0.39674 0.27683 0.0
C1503 C 0.21931 0.40967 0.28693 0.0
C1504 C 0.23054 0.41091 0.2984 0.0
H1505 H 0.17225 0.49051 0.30602 0.0
H1506 H 0.18794 0.46869 0.30559 0.0
C1507 C 0.24098 0.39972 0.29939 0.0
C1508 C 0.20866 0.42192 0.28552 0.0
H1509 H 0.20778 0.46021 0.28152 0.0
C1510 C 0.19284 0.41834 0.28686 0.0
C1511 C 0.21408 0.43715 0.28321 0.0
C1512 C 0.23083 0.44159 0.28076 0.0
C1513 C 0.18235 0.4297 0.28657 0.0
C1514 C 0.18784 0.44498 0.28473 0.0
C1515 C 0.20361 0.44849 0.28303 0.0
C1516 C 0.17757 0.45769 0.28518 0.0
C1517 C 0.16554 0.42538 0.28874 0.0
C1518 C 0.16648 0.45873 0.27383 0.0
C1519 C 0.15744 0.47126 0.27402 0.0
C1520 C 0.15941 0.48296 0.28555 0.0
C1521 C 0.17042 0.48173 0.29697 0.0
C1522 C 0.17942 0.46926 0.29675 0.0
H1523 H 0.16351 0.41373 0.2929 0.0
H1524 H 0.16046 0.43362 0.29692 0.0
H1525 H 0.15949 0.4257 0.27771 0.0
H1526 H 0.16503 0.45003 0.26466 0.0
H1527 H 0.14911 0.4719 0.26504 0.0
H1528 H 0.12634 0.04625 0.44733 0.0
H1529 H 0.14974 0.06237 0.45326 0.0
H1530 H 0.1397 0.06114 0.50111 0.0
H1531 H 0.11624 0.04509 0.49529 0.0
H1532 H 0.15195 0.09095 0.46835 0.0
H1533 H 0.18435 0.05009 0.49897 0.0
H1534 H 0.16777 0.04417 0.48734 0.0
H1535 H 0.16546 0.05243 0.50625 0.0
C1536 C 0.1291 0.04941 0.45912 0.0
C1537 C 0.11942 0.04437 0.47084 0.0
C1538 C 0.14251 0.05856 0.46249 0.0
C1539 C 0.14656 0.06279 0.47762 0.0
C1540 C 0.13698 0.05773 0.48936 0.0
H1541 H 0.20857 0.13907 0.50961 0.0
H1542 H 0.18647 0.1211 0.50389 0.0
C1543 C 0.12356 0.04856 0.48601 0.0
C1544 C 0.16041 0.07309 0.48107 0.0
H1545 H 0.19454 0.07593 0.50017 0.0
C1546 C 0.16129 0.08765 0.47526 0.0
C1547 C 0.17264 0.0687 0.48995 0.0
C1548 C 0.17263 0.05295 0.49589 0.0
C1549 C 0.17397 0.09805 0.47831 0.0
C1550 C 0.18597 0.09384 0.4876 0.0
C1551 C 0.18523 0.07918 0.49318 0.0
C1552 C 0.19945 0.10448 0.49153 0.0
C1553 C 0.17451 0.11337 0.47138 0.0
C1554 C 0.21413 0.10089 0.48685 0.0
C1555 C 0.22682 0.11111 0.49015 0.0
C1556 C 0.22506 0.12509 0.49829 0.0
C1557 C 0.21034 0.12847 0.50325 0.0
C1558 C 0.19768 0.11825 0.49993 0.0
H1559 H 0.16647 0.11336 0.46162 0.0
H1560 H 0.17119 0.12211 0.48008 0.0
H1561 H 0.18624 0.11677 0.46744 0.0
H1562 H 0.21574 0.09028 0.48043 0.0
H1563 H 0.23798 0.1081 0.4862 0.0
H1564 H 0.74798 0.15238 0.72857 0.0
H1565 H 0.7297 0.13022 0.73071 0.0
H1566 H 0.71529 0.14854 0.77438 0.0
H1567 H 0.73338 0.17077 0.77223 0.0
H1568 H 0.72823 0.10885 0.75158 0.0
H1569 H 0.67466 0.13872 0.75306 0.0
H1570 H 0.6928 0.14786 0.74767 0.0
H1571 H 0.68811 0.14621 0.76743 0.0
C1572 C 0.74088 0.15169 0.73861 0.0
C1573 C 0.74205 0.16337 0.75019 0.0
C1574 C 0.73042 0.13905 0.7398 0.0
C1575 C 0.72093 0.13783 0.75258 0.0
C1576 C 0.72217 0.14942 0.76421 0.0
H1577 H 0.67515 0.05557 0.78535 0.0
H1578 H 0.6928 0.07746 0.78034 0.0
C1579 C 0.73255 0.16211 0.76299 0.0
C1580 C 0.71017 0.12417 0.75403 0.0
H1581 H 0.67268 0.11292 0.76034 0.0
C1582 C 0.71606 0.10973 0.75339 0.0
C1583 C 0.69426 0.12529 0.75615 0.0
C1584 C 0.68704 0.14034 0.75596 0.0
C1585 C 0.70655 0.09642 0.75518 0.0
C1586 C 0.69077 0.09762 0.75806 0.0
C1587 C 0.68481 0.11202 0.75832 0.0
C1588 C 0.68022 0.08411 0.76091 0.0
C1589 C 0.71348 0.08121 0.75377 0.0
C1590 C 0.66705 0.08077 0.75191 0.0
C1591 C 0.65681 0.06837 0.75487 0.0
C1592 C 0.65953 0.05905 0.76692 0.0
C1593 C 0.67276 0.06242 0.7759 0.0
C1594 C 0.68293 0.07489 0.77299 0.0
H1595 H 0.72426 0.08185 0.74711 0.0
H1596 H 0.71628 0.07767 0.76529 0.0
H1597 H 0.7054 0.07228 0.74825 0.0
H1598 H 0.66468 0.08778 0.74258 0.0
H1599 H 0.64674 0.06612 0.74773 0.0
H1600 H 0.37697 0.02965 0.54756 0.0
H1601 H 0.35844 0.04706 0.53928 0.0
H1602 H 0.38697 0.08541 0.55822 0.0
H1603 H 0.40577 0.06815 0.56612 0.0
H1604 H 0.34223 0.06835 0.55659 0.0
H1605 H 0.37995 0.09656 0.51426 0.0
H1606 H 0.3842 0.07892 0.52232 0.0
H1607 H 0.38797 0.09676 0.53305 0.0
C1608 C 0.37939 0.04179 0.54983 0.0
C1609 C 0.39291 0.04749 0.55744 0.0
C1610 C 0.36873 0.05172 0.54519 0.0
C1611 C 0.37142 0.06754 0.54797 0.0
C1612 C 0.38477 0.07326 0.55576 0.0
H1613 H 0.30278 0.13439 0.53852 0.0
H1614 H 0.32221 0.11887 0.54861 0.0
C1615 C 0.39543 0.06335 0.56041 0.0
C1616 C 0.36023 0.07804 0.54271 0.0
H1617 H 0.35609 0.10691 0.51901 0.0
C1618 C 0.34524 0.07681 0.5484 0.0
C1619 C 0.36417 0.08895 0.53191 0.0
C1620 C 0.3799 0.09034 0.5249 0.0
C1621 C 0.33409 0.08623 0.5436 0.0
C1622 C 0.33811 0.09732 0.53298 0.0
C1623 C 0.35309 0.09852 0.52728 0.0
C1624 C 0.32672 0.1072 0.52698 0.0
C1625 C 0.318 0.08397 0.54961 0.0
C1626 C 0.32313 0.10611 0.51143 0.0
C1627 C 0.31213 0.11499 0.50563 0.0
C1628 C 0.30452 0.12523 0.51527 0.0
C1629 C 0.30839 0.12658 0.53081 0.0
C1630 C 0.31941 0.11765 0.53661 0.0
H1631 H 0.316 0.07288 0.55498 0.0
H1632 H 0.31604 0.09321 0.55831 0.0
H1633 H 0.30947 0.08448 0.54035 0.0
H1634 H 0.32867 0.09817 0.50378 0.0
H1635 H 0.30948 0.11368 0.4936 0.0
H1636 H 0.61153 0.51543 0.59237 0.0
H1637 H 0.63137 0.49768 0.58738 0.0
H1638 H 0.64589 0.52201 0.54813 0.0
H1639 H 0.6266 0.54026 0.55346 0.0
H1640 H 0.63524 0.47842 0.563 0.0
H1641 H 0.68616 0.51932 0.56962 0.0
H1642 H 0.66732 0.52414 0.5756 0.0
H1643 H 0.67278 0.52493 0.55594 0.0
C1644 C 0.61912 0.51721 0.58284 0.0
C1645 C 0.6175 0.52939 0.57339 0.0
C1646 C 0.63039 0.50695 0.57993 0.0
C1647 C 0.64031 0.50864 0.56754 0.0
C1648 C 0.63861 0.52066 0.55798 0.0
H1649 H 0.70739 0.4579 0.52059 0.0
H1650 H 0.68826 0.47514 0.52947 0.0
C1651 C 0.62741 0.53098 0.56092 0.0
C1652 C 0.65207 0.49754 0.56428 0.0
H1653 H 0.69027 0.49487 0.55769 0.0
C1654 C 0.6473 0.48199 0.56201 0.0
C1655 C 0.66782 0.50219 0.56309 0.0
C1656 C 0.67386 0.51853 0.56635 0.0
C1657 C 0.65776 0.47108 0.55802 0.0
C1658 C 0.6734 0.47583 0.55634 0.0
C1659 C 0.67824 0.49129 0.55893 0.0
C1660 C 0.68482 0.46506 0.55114 0.0
C1661 C 0.65199 0.45462 0.55512 0.0
C1662 C 0.68927 0.45368 0.56043 0.0
C1663 C 0.7003 0.44378 0.55541 0.0
C1664 C 0.70701 0.4451 0.54099 0.0
C1665 C 0.70244 0.45651 0.53173 0.0
C1666 C 0.69152 0.46641 0.53679 0.0
H1667 H 0.63928 0.45317 0.55469 0.0
H1668 H 0.6566 0.44993 0.54423 0.0
H1669 H 0.65604 0.44781 0.56436 0.0
H1670 H 0.68433 0.45256 0.57162 0.0
H1671 H 0.7036 0.43516 0.56282 0.0
H1672 H 0.68856 0.30326 0.39354 0.0
H1673 H 0.69296 0.31862 0.41735 0.0
H1674 H 0.74142 0.32254 0.40827 0.0
H1675 H 0.73709 0.30756 0.38422 0.0
H1676 H 0.71114 0.31374 0.44268 0.0
H1677 H 0.7307 0.36706 0.41541 0.0
H1678 H 0.72108 0.35092 0.40497 0.0
H1679 H 0.74105 0.35082 0.40968 0.0
C1680 C 0.70015 0.30749 0.39654 0.0
C1681 C 0.71246 0.3043 0.38689 0.0
C1682 C 0.70265 0.31617 0.4102 0.0
C1683 C 0.71748 0.32191 0.41446 0.0
C1684 C 0.72985 0.31844 0.40507 0.0
H1685 H 0.74891 0.3611 0.50264 0.0
H1686 H 0.74314 0.34442 0.47996 0.0
C1687 C 0.72736 0.30974 0.3914 0.0
C1688 C 0.71997 0.33161 0.42868 0.0
H1689 H 0.73304 0.36726 0.44223 0.0
C1690 C 0.7159 0.32545 0.4426 0.0
C1691 C 0.72597 0.34695 0.42851 0.0
C1692 C 0.72983 0.35442 0.41385 0.0
C1693 C 0.71793 0.33416 0.4564 0.0
C1694 C 0.72436 0.34936 0.45627 0.0
C1695 C 0.7282 0.35558 0.44232 0.0
C1696 C 0.72723 0.35907 0.47044 0.0
C1697 C 0.71294 0.3271 0.47098 0.0
C1698 C 0.72035 0.37293 0.47255 0.0
C1699 C 0.72368 0.38256 0.48547 0.0
C1700 C 0.73407 0.37854 0.4965 0.0
C1701 C 0.7408 0.36453 0.49443 0.0
C1702 C 0.73746 0.35493 0.4815 0.0
H1703 H 0.70463 0.31706 0.46882 0.0
H1704 H 0.72309 0.32319 0.47676 0.0
H1705 H 0.70762 0.33551 0.4788 0.0
H1706 H 0.71246 0.37638 0.46412 0.0
H1707 H 0.7183 0.39326 0.48666 0.0
H1708 H 0.52379 0.0831 0.90299 0.0
H1709 H 0.53965 0.07496 0.88165 0.0
H1710 H 0.53594 0.02895 0.89637 0.0
H1711 H 0.52013 0.03702 0.91786 0.0
H1712 H 0.56769 0.06186 0.88307 0.0
H1713 H 0.52434 0.02351 0.85105 0.0
H1714 H 0.51924 0.03716 0.86591 0.0
H1715 H 0.52661 0.0195 0.87067 0.0
C1716 C 0.52638 0.07125 0.90173 0.0
C1717 C 0.5207 0.06071 0.91215 0.0
C1718 C 0.53538 0.06661 0.88948 0.0
C1719 C 0.53883 0.05133 0.88734 0.0
C1720 C 0.53315 0.04074 0.89765 0.0
H1721 H 0.61271 0.01998 0.82976 0.0
H1722 H 0.59567 0.02523 0.85112 0.0
C1723 C 0.52412 0.04538 0.90992 0.0
C1724 C 0.54886 0.04668 0.87461 0.0
H1725 H 0.54986 0.02389 0.84201 0.0
C1726 C 0.56381 0.05355 0.8741 0.0
C1727 C 0.5437 0.03593 0.86286 0.0
C1728 C 0.52756 0.02867 0.86251 0.0
C1729 C 0.57377 0.04993 0.86218 0.0
C1730 C 0.56871 0.03899 0.85056 0.0
C1731 C 0.55374 0.03216 0.85102 0.0
C1732 C 0.57863 0.03494 0.83755 0.0
C1733 C 0.5895 0.05814 0.86191 0.0
C1734 C 0.57447 0.03823 0.82278 0.0
C1735 C 0.58414 0.0352 0.81053 0.0
C1736 C 0.59815 0.02874 0.81282 0.0
C1737 C 0.60206 0.02505 0.8276 0.0
C1738 C 0.59238 0.0281 0.83984 0.0
H1739 H 0.59032 0.06856 0.86965 0.0
H1740 H 0.59808 0.05043 0.86565 0.0
H1741 H 0.59252 0.06142 0.85023 0.0
H1742 H 0.56387 0.04346 0.82077 0.0
H1743 H 0.58071 0.03814 0.79931 0.0
H1744 H 0.30405 0.27244 0.38023 0.0
H1745 H 0.30511 0.25402 0.39998 0.0
H1746 H 0.25631 0.2439 0.39604 0.0
H1747 H 0.2552 0.26191 0.376 0.0
H1748 H 0.29042 0.25432 0.42783 0.0
H1749 H 0.27266 0.20154 0.39323 0.0
H1750 H 0.27881 0.21921 0.38484 0.0
H1751 H 0.25959 0.21622 0.39185 0.0
C1752 C 0.29357 0.26612 0.3834 0.0
C1753 C 0.27954 0.26862 0.37649 0.0
C1754 C 0.29419 0.25567 0.39475 0.0
C1755 C 0.28083 0.24743 0.39933 0.0
C1756 C 0.26681 0.24992 0.39249 0.0
H1757 H 0.25874 0.20425 0.48218 0.0
H1758 H 0.26303 0.22141 0.46156 0.0
C1759 C 0.26617 0.26036 0.38116 0.0
C1760 C 0.28138 0.23669 0.41169 0.0
H1761 H 0.27191 0.19984 0.42022 0.0
C1762 C 0.28652 0.24237 0.42614 0.0
C1763 C 0.27652 0.22105 0.40942 0.0
C1764 C 0.27173 0.21408 0.39396 0.0
C1765 C 0.28635 0.23297 0.43852 0.0
C1766 C 0.28068 0.21754 0.43643 0.0
C1767 C 0.27611 0.21171 0.42185 0.0
C1768 C 0.27877 0.20741 0.44932 0.0
C1769 C 0.29225 0.23966 0.45372 0.0
C1770 C 0.28602 0.19368 0.4492 0.0
C1771 C 0.28352 0.18375 0.46098 0.0
C1772 C 0.27361 0.18732 0.47303 0.0
C1773 C 0.26649 0.20115 0.47315 0.0
C1774 C 0.26901 0.21105 0.46139 0.0
H1775 H 0.30027 0.24987 0.45244 0.0
H1776 H 0.28246 0.24324 0.46071 0.0
H1777 H 0.2982 0.23116 0.45995 0.0
H1778 H 0.29353 0.19061 0.43994 0.0
H1779 H 0.28916 0.17318 0.46049 0.0
H1780 H 0.47969 0.47451 0.89715 0.0
H1781 H 0.46418 0.4833 0.87671 0.0
H1782 H 0.47152 0.52957 0.89534 0.0
H1783 H 0.48701 0.52089 0.91584 0.0
H1784 H 0.43756 0.49842 0.87859 0.0
H1785 H 0.48368 0.53338 0.85086 0.0
H1786 H 0.48757 0.51978 0.86471 0.0
H1787 H 0.48146 0.5382 0.87077 0.0
C1788 C 0.47795 0.48655 0.89695 0.0
C1789 C 0.48465 0.497 0.9081 0.0
C1790 C 0.46914 0.49156 0.88522 0.0
C1791 C 0.46689 0.50711 0.88437 0.0
C1792 C 0.47341 0.51756 0.89557 0.0
H1793 H 0.39604 0.54328 0.82969 0.0
H1794 H 0.41227 0.53661 0.85058 0.0
C1795 C 0.48225 0.51257 0.90728 0.0
C1796 C 0.45741 0.51232 0.87196 0.0
H1797 H 0.45836 0.53528 0.8419 0.0
C1798 C 0.4421 0.50648 0.87056 0.0
C1799 C 0.46341 0.5227 0.86139 0.0
C1800 C 0.47996 0.52879 0.86187 0.0
C1801 C 0.43259 0.51081 0.85896 0.0
C1802 C 0.43848 0.52149 0.84863 0.0
C1803 C 0.45382 0.52724 0.84994 0.0
C1804 C 0.42904 0.52636 0.83601 0.0
C1805 C 0.41642 0.50365 0.85764 0.0
C1806 C 0.43338 0.52332 0.82089 0.0
C1807 C 0.42421 0.52722 0.80891 0.0
C1808 C 0.41051 0.5343 0.81183 0.0
C1809 C 0.40645 0.53776 0.82702 0.0
C1810 C 0.41566 0.53387 0.83899 0.0
H1811 H 0.41491 0.49308 0.86398 0.0
H1812 H 0.40841 0.51182 0.86247 0.0
H1813 H 0.41322 0.50083 0.84557 0.0
H1814 H 0.44371 0.51762 0.81834 0.0
H1815 H 0.42773 0.52442 0.79738 0.0
H1816 H 0.74095 0.74622 0.17343 0.0
H1817 H 0.74825 0.73109 0.15076 0.0
H1818 H 0.72405 0.75998 0.12254 0.0
H1819 H 0.71692 0.77525 0.1451 0.0
H1820 H 0.73054 0.71454 0.1301 0.0
H1821 H 0.76453 0.75965 0.10105 0.0
H1822 H 0.75876 0.76204 0.12065 0.0
H1823 H 0.74562 0.76501 0.10554 0.0
C1824 C 0.73722 0.74936 0.16238 0.0
C1825 C 0.72843 0.76199 0.16104 0.0
C1826 C 0.74144 0.74074 0.14944 0.0
C1827 C 0.73696 0.74456 0.13491 0.0
C1828 C 0.72805 0.75707 0.13357 0.0
H1829 H 0.73304 0.70471 0.04439 0.0
H1830 H 0.73081 0.71935 0.06854 0.0
C1831 C 0.72393 0.76577 0.14648 0.0
C1832 C 0.74098 0.73508 0.1212 0.0
H1833 H 0.75664 0.73704 0.08577 0.0
C1834 C 0.73644 0.71942 0.1205 0.0
C1835 C 0.74876 0.74143 0.10868 0.0
C1836 C 0.75484 0.75792 0.10906 0.0
C1837 C 0.73891 0.71009 0.1074 0.0
C1838 C 0.74614 0.71658 0.09472 0.0
C1839 C 0.75104 0.73213 0.09553 0.0
C1840 C 0.74785 0.70764 0.08016 0.0
C1841 C 0.73327 0.69348 0.10695 0.0
C1842 C 0.75828 0.69627 0.07869 0.0
C1843 C 0.75966 0.68788 0.06482 0.0
C1844 C 0.75056 0.69072 0.05226 0.0
C1845 C 0.74018 0.70218 0.05384 0.0
C1846 C 0.7389 0.7106 0.06762 0.0
H1847 H 0.72627 0.69061 0.11705 0.0
H1848 H 0.72631 0.69045 0.09653 0.0
H1849 H 0.74323 0.68635 0.10654 0.0
H1850 H 0.76537 0.69392 0.08824 0.0
H1851 H 0.76777 0.67915 0.06396 0.0
H1852 H 0.97338 0.09917 0.12665 0.0
H1853 H 0.95575 0.09333 0.14738 0.0
H1854 H 0.9932 0.07959 0.17401 0.0
H1855 H 0.01101 0.08588 0.15352 0.0
H1856 H 0.9494 0.06557 0.15958 0.0
H1857 H 0.9722 0.10817 0.20409 0.0
H1858 H 0.97723 0.10927 0.18429 0.0
H1859 H 0.98649 0.09655 0.196 0.0
C1860 C 0.97793 0.09517 0.13702 0.0
C1861 C 0.99365 0.09307 0.13843 0.0
C1862 C 0.96781 0.09175 0.14882 0.0
C1863 C 0.97318 0.08624 0.16234 0.0
C1864 C 0.98884 0.08412 0.16381 0.0
H1865 H 0.92505 0.0331 0.22824 0.0
H1866 H 0.94063 0.04322 0.20767 0.0
C1867 C 0.99898 0.08754 0.152 0.0
C1868 C 0.96227 0.08193 0.17454 0.0
H1869 H 0.9546 0.08828 0.2123 0.0
C1870 C 0.95046 0.07063 0.17108 0.0
C1871 C 0.96353 0.08869 0.18949 0.0
C1872 C 0.97545 0.10145 0.19369 0.0
C1873 C 0.94021 0.06553 0.18226 0.0
C1874 C 0.94193 0.07175 0.19737 0.0
C1875 C 0.95339 0.08343 0.20074 0.0
C1876 C 0.93236 0.06579 0.20992 0.0
C1877 C 0.92761 0.05351 0.17781 0.0
C1878 C 0.92275 0.07524 0.21826 0.0
C1879 C 0.91379 0.06948 0.23011 0.0
C1880 C 0.91442 0.05422 0.2339 0.0
C1881 C 0.9242 0.04488 0.2256 0.0
C1882 C 0.93309 0.05062 0.21376 0.0
H1883 H 0.92521 0.05306 0.16541 0.0
H1884 H 0.93118 0.04218 0.18072 0.0
H1885 H 0.91688 0.05564 0.18404 0.0
H1886 H 0.92211 0.08702 0.21552 0.0
H1887 H 0.90643 0.07698 0.23633 0.0
H1888 H 0.28934 0.7894 0.16023 0.0
H1889 H 0.28713 0.80809 0.14094 0.0
H1890 H 0.24392 0.82001 0.15989 0.0
H1891 H 0.24618 0.80155 0.17943 0.0
H1892 H 0.26253 0.80789 0.11953 0.0
H1893 H 0.26829 0.86175 0.15578 0.0
H1894 H 0.27434 0.84393 0.16206 0.0
H1895 H 0.25438 0.84733 0.16185 0.0
C1896 C 0.27949 0.79618 0.16046 0.0
C1897 C 0.26796 0.794 0.1714 0.0
C1898 C 0.2782 0.80679 0.14938 0.0
C1899 C 0.26544 0.81554 0.14908 0.0
C1900 C 0.25397 0.81353 0.16005 0.0
H1901 H 0.23929 0.88269 0.08578 0.0
H1902 H 0.24016 0.86604 0.10719 0.0
C1903 C 0.25521 0.80287 0.17111 0.0
C1904 C 0.26382 0.82619 0.1368 0.0
H1905 H 0.26247 0.86386 0.12979 0.0
C1906 C 0.26254 0.82013 0.12176 0.0
C1907 C 0.26367 0.84214 0.13978 0.0
C1908 C 0.26535 0.84926 0.15572 0.0
C1909 C 0.26111 0.82956 0.10959 0.0
C1910 C 0.26133 0.84555 0.1125 0.0
C1911 C 0.26234 0.85162 0.12758 0.0
C1912 C 0.26105 0.85613 0.09996 0.0
C1913 C 0.25918 0.82228 0.09372 0.0
C1914 C 0.2727 0.85636 0.08903 0.0
C1915 C 0.27221 0.86576 0.07682 0.0
C1916 C 0.26013 0.87529 0.07533 0.0
C1917 C 0.24872 0.87545 0.08657 0.0
C1918 C 0.2492 0.86595 0.0988 0.0
H1919 H 0.25476 0.81014 0.09388 0.0
H1920 H 0.25124 0.82846 0.08688 0.0
H1921 H 0.27047 0.82264 0.08799 0.0
H1922 H 0.28215 0.84916 0.08989 0.0
H1923 H 0.28127 0.86546 0.06847 0.0
H1924 H 0.01525 0.46002 0.13329 0.0
H1925 H 0.03222 0.46542 0.15529 0.0
H1926 H 0.02357 0.51301 0.15541 0.0
H1927 H 0.00682 0.50781 0.13324 0.0
H1928 H 0.05903 0.48613 0.15732 0.0
H1929 H 0.01505 0.50148 0.19971 0.0
H1930 H 0.01029 0.49113 0.18187 0.0
H1931 H 0.01456 0.51143 0.18247 0.0
C1932 C 0.017 0.47166 0.13794 0.0
C1933 C 0.00964 0.48348 0.13147 0.0
C1934 C 0.02664 0.47469 0.15056 0.0
C1935 C 0.029 0.48957 0.15707 0.0
C1936 C 0.02167 0.50139 0.15072 0.0
H1937 H 0.08184 0.5376 0.22873 0.0
H1938 H 0.065 0.5289 0.20748 0.0
C1939 C 0.01206 0.49839 0.13807 0.0
C1940 C 0.03953 0.49285 0.17021 0.0
H1941 H 0.04106 0.50703 0.20706 0.0
C1942 C 0.05512 0.49057 0.16825 0.0
C1943 C 0.03435 0.49862 0.18444 0.0
C1944 C 0.01763 0.5007 0.18736 0.0
C1945 C 0.0658 0.49446 0.17999 0.0
C1946 C 0.06066 0.50049 0.19415 0.0
C1947 C 0.04499 0.50244 0.19619 0.0
C1948 C 0.07136 0.50558 0.2068 0.0
C1949 C 0.08254 0.49261 0.17695 0.0
C1950 C 0.08056 0.49535 0.21352 0.0
C1951 C 0.09033 0.50032 0.22568 0.0
C1952 C 0.09092 0.51559 0.2314 0.0
C1953 C 0.08167 0.52577 0.22462 0.0
C1954 C 0.07201 0.52081 0.21247 0.0
H1955 H 0.08496 0.49131 0.16458 0.0
H1956 H 0.08975 0.50255 0.18191 0.0
H1957 H 0.08596 0.48225 0.18229 0.0
H1958 H 0.08003 0.48347 0.20952 0.0
H1959 H 0.09723 0.49218 0.23073 0.0
H1960 H 0.38462 0.76793 0.26635 0.0
H1961 H 0.40603 0.76857 0.28425 0.0
H1962 H 0.37746 0.74373 0.31564 0.0
H1963 H 0.35586 0.74326 0.29794 0.0
H1964 H 0.40614 0.7816 0.31469 0.0
H1965 H 0.41673 0.72001 0.31261 0.0
H1966 H 0.40597 0.72833 0.29808 0.0
H1967 H 0.39726 0.72447 0.31603 0.0
C1968 C 0.38284 0.76264 0.27708 0.0
C1969 C 0.36848 0.75557 0.2807 0.0
C1970 C 0.39513 0.76293 0.28725 0.0
C1971 C 0.39337 0.75605 0.30118 0.0
C1972 C 0.37913 0.74885 0.30481 0.0
H1973 H 0.45437 0.75227 0.37895 0.0
H1974 H 0.4331 0.7484 0.36074 0.0
C1975 C 0.3668 0.74859 0.29466 0.0
C1976 C 0.40624 0.75716 0.31222 0.0
H1977 H 0.43095 0.73612 0.33074 0.0
C1978 C 0.41161 0.77167 0.31817 0.0
C1979 C 0.41323 0.74416 0.31683 0.0
C1980 C 0.40813 0.72834 0.3105 0.0
C1981 C 0.42372 0.77356 0.32868 0.0
C1982 C 0.43093 0.76059 0.3331 0.0
C1983 C 0.42545 0.74604 0.32729 0.0
C1984 C 0.44423 0.762 0.34366 0.0
C1985 C 0.42849 0.78941 0.33519 0.0
C1986 C 0.45771 0.77053 0.3399 0.0
C1987 C 0.46983 0.77283 0.35028 0.0
C1988 C 0.4688 0.7665 0.36459 0.0
C1989 C 0.45554 0.75736 0.36805 0.0
C1990 C 0.44337 0.75513 0.35767 0.0
H1991 H 0.41928 0.79731 0.33399 0.0
H1992 H 0.43157 0.78928 0.34741 0.0
H1993 H 0.43867 0.794 0.32897 0.0
H1994 H 0.45876 0.77563 0.32901 0.0
H1995 H 0.47992 0.77979 0.34715 0.0
H1996 H 0.96409 0.43071 0.98154 0.0
H1997 H 0.97224 0.40873 0.96616 0.0
H1998 H 0.96177 0.37976 1.00321 0.0
H1999 H 0.95336 0.40162 0.01858 0.0
H2000 H 0.99587 0.38877 0.97385 0.0
H2001 H 0.93841 0.35813 0.96587 0.0
H2002 H 0.94093 0.37816 0.97165 0.0
H2003 H 0.94368 0.36403 0.98514 0.0
C2004 C 0.96336 0.41963 0.98635 0.0
C2005 C 0.95801 0.41789 1.00126 0.0
C2006 C 0.96811 0.40711 0.97759 0.0
C2007 C 0.96746 0.39262 0.9835 0.0
C2008 C 0.96219 0.39083 0.99838 0.0
H2009 H 0.98681 0.30281 0.94573 0.0
H2010 H 0.98017 0.32456 0.96224 0.0
C2011 C 0.95751 0.40335 0.00718 0.0
C2012 C 0.9725 0.3794 0.97417 0.0
H2013 H 0.95962 0.34533 0.95667 0.0
C2014 C 0.98797 0.37927 0.97005 0.0
C2015 C 0.96215 0.36702 0.96932 0.0
C2016 C 0.94533 0.3668 0.97309 0.0
C2017 C 0.99343 0.36696 0.96134 0.0
C2018 C 0.98304 0.35463 0.95634 0.0
C2019 C 0.96757 0.35477 0.96052 0.0
C2020 C 0.98789 0.34155 0.94659 0.0
C2021 C 0.01031 0.36713 0.95789 0.0
C2022 C 0.99444 0.34386 0.93228 0.0
C2023 C 0.99835 0.33146 0.92284 0.0
C2024 C 0.99561 0.31646 0.92744 0.0
C2025 C 0.9891 0.31419 0.94182 0.0
C2026 C 0.98527 0.32662 0.95127 0.0
H2027 H 0.01718 0.37485 0.96611 0.0
H2028 H 0.01447 0.35552 0.95813 0.0
H2029 H 0.01237 0.37132 0.94637 0.0
H2030 H 0.99623 0.35526 0.92826 0.0
H2031 H 1.00322 0.33362 0.91181 0.0
H2032 H 0.66635 0.80197 0.30763 0.0
H2033 H 0.6446 0.79521 0.32404 0.0
H2034 H 0.61432 0.81528 0.29346 0.0
H2035 H 0.63592 0.82183 0.27693 0.0
H2036 H 0.62565 0.81323 0.33929 0.0
H2037 H 0.59156 0.77462 0.29844 0.0
H2038 H 0.61126 0.78087 0.29498 0.0
H2039 H 0.59614 0.79293 0.29102 0.0
C2040 C 0.65503 0.80488 0.30439 0.0
C2041 C 0.65283 0.81233 0.29092 0.0
C2042 C 0.64261 0.80098 0.31375 0.0
C2043 C 0.62776 0.80446 0.30985 0.0
C2044 C 0.62557 0.81204 0.29649 0.0
H2045 H 0.54081 0.8105 0.35214 0.0
H2046 H 0.56432 0.8125 0.33727 0.0
C2047 C 0.63795 0.81583 0.28706 0.0
C2048 C 0.61463 0.8008 0.32005 0.0
H2049 H 0.57821 0.78401 0.32046 0.0
C2050 C 0.61538 0.80664 0.33523 0.0
C2051 C 0.60123 0.79212 0.31479 0.0
C2052 C 0.60004 0.78464 0.29896 0.0
C2053 C 0.60285 0.80458 0.34506 0.0
C2054 C 0.58928 0.7965 0.33957 0.0
C2055 C 0.58865 0.79028 0.32457 0.0
C2056 C 0.57527 0.79523 0.34894 0.0
C2057 C 0.60393 0.81149 0.3611 0.0
C2058 C 0.57368 0.78481 0.36043 0.0
C2059 C 0.56017 0.78355 0.36895 0.0
C2060 C 0.54811 0.79276 0.36613 0.0
C2061 C 0.54987 0.80326 0.35466 0.0
C2062 C 0.56329 0.80441 0.34611 0.0
H2063 H 0.61502 0.81818 0.3634 0.0
H2064 H 0.59446 0.81907 0.36326 0.0
H2065 H 0.60265 0.8023 0.36923 0.0
H2066 H 0.58283 0.77758 0.3627 0.0
H2067 H 0.55916 0.77536 0.37768 0.0
H2068 H 0.02947 0.14834 0.01528 0.0
H2069 H 0.02259 0.16762 0.99807 0.0
H2070 H 0.06987 0.17497 0.98502 0.0
H2071 H 0.07693 0.15585 1.00239 0.0
H2072 H 0.03377 0.19883 0.99822 0.0
H2073 H 0.04689 0.16707 0.94401 0.0
H2074 H 0.04462 0.15789 0.96178 0.0
H2075 H 0.06199 0.16912 0.95797 0.0
C2076 C 0.03845 0.15413 0.00887 0.0
C2077 C 0.05377 0.1505 0.01023 0.0
C2078 C 0.03447 0.16509 0.99896 0.0
C2079 C 0.04568 0.17258 0.99012 0.0
C2080 C 0.06099 0.1691 0.99151 0.0
H2081 H 0.0367 0.24168 0.92312 0.0
H2082 H 0.04693 0.22327 0.93969 0.0
C2083 C 0.065 0.15816 1.00145 0.0
C2084 C 0.04129 0.18425 0.97971 0.0
H2085 H 0.03904 0.19202 0.94222 0.0
C2086 C 0.03494 0.19735 0.98597 0.0
C2087 C 0.04295 0.18235 0.96376 0.0
C2088 C 0.04937 0.16831 0.9564 0.0
C2089 C 0.03012 0.2086 0.97672 0.0
C2090 C 0.03138 0.20652 0.96073 0.0
C2091 C 0.03806 0.19357 0.95447 0.0
C2092 C 0.02522 0.21735 0.95035 0.0
C2093 C 0.02384 0.22267 0.98418 0.0
C2094 C 0.00957 0.21985 0.95058 0.0
C2095 C 1.00373 0.23033 0.94119 0.0
C2096 C 0.01337 0.23847 0.93124 0.0
C2097 C 0.02898 0.23563 0.93068 0.0
C2098 C 0.03484 0.22513 0.94014 0.0
H2099 H 0.02781 0.22466 0.99615 0.0
H2100 H 0.02727 0.23295 0.97788 0.0
H2101 H 0.01115 0.22117 0.98425 0.0
H2102 H 1.00186 0.21371 0.95809 0.0
H2103 H 0.99163 0.23212 0.94183 0.0
H2104 H 0.36388 0.28108 0.25139 0.0
H2105 H 0.38545 0.28082 0.23379 0.0
H2106 H 0.3928 0.3297 0.24022 0.0
H2107 H 0.3715 0.33002 0.25822 0.0
H2108 H 0.39007 0.29548 0.20665 0.0
H2109 H 0.43501 0.31463 0.24948 0.0
H2110 H 0.41587 0.30795 0.25471 0.0
H2111 H 0.41955 0.32689 0.24832 0.0
C2112 C 0.37016 0.29177 0.24917 0.0
C2113 C 0.36605 0.30556 0.25633 0.0
C2114 C 0.38242 0.29161 0.23903 0.0
C2115 C 0.39086 0.30521 0.23587 0.0
C2116 C 0.38659 0.31904 0.2427 0.0
H2117 H 0.4567 0.3124 0.16138 0.0
H2118 H 0.43521 0.31621 0.17858 0.0
C2119 C 0.37431 0.31922 0.25286 0.0
C2120 C 0.40414 0.30479 0.22544 0.0
H2121 H 0.443 0.31157 0.22393 0.0
C2122 C 0.40164 0.29905 0.21039 0.0
C2123 C 0.41923 0.30929 0.23043 0.0
C2124 C 0.42267 0.31492 0.24664 0.0
C2125 C 0.41385 0.29767 0.20019 0.0
C2126 C 0.42892 0.30236 0.20511 0.0
C2127 C 0.43142 0.30811 0.22016 0.0
C2128 C 0.44233 0.30073 0.19502 0.0
C2129 C 0.41054 0.29077 0.18436 0.0
C2130 C 0.45373 0.29116 0.1988 0.0
C2131 C 0.46608 0.28903 0.18905 0.0
C2132 C 0.46731 0.29648 0.17533 0.0
C2133 C 0.45607 0.3064 0.17179 0.0
C2134 C 0.44373 0.30853 0.18157 0.0
H2135 H 0.39904 0.28457 0.18352 0.0
H2136 H 0.4109 0.3 0.17625 0.0
H2137 H 0.41927 0.28276 0.18081 0.0
H2138 H 0.4529 0.28508 0.20916 0.0
H2139 H 0.47453 0.28134 0.19218 0.0
H2140 H 0.56732 0.42039 0.03628 0.0
H2141 H 0.56081 0.39998 0.0534 0.0
H2142 H 0.51289 0.40269 0.04354 0.0
H2143 H 0.51924 0.4233 0.02661 0.0
H2144 H 0.54145 0.40124 0.07955 0.0
H2145 H 0.51985 0.35691 0.03597 0.0
H2146 H 0.53148 0.37375 0.03124 0.0
H2147 H 0.51144 0.37487 0.03514 0.0
C2148 C 0.55538 0.41672 0.0378 0.0
C2149 C 0.5438 0.42351 0.03004 0.0
C2150 C 0.5517 0.40499 0.04753 0.0
C2151 C 0.53639 0.39972 0.0496 0.0
C2152 C 0.5248 0.40641 0.04188 0.0
H2153 H 0.4868 0.33298 0.10193 0.0
H2154 H 0.49543 0.35321 0.08544 0.0
C2155 C 0.52846 0.41817 0.03217 0.0
C2156 C 0.53249 0.38749 0.06016 0.0
H2157 H 0.51555 0.35148 0.06176 0.0
C2158 C 0.53588 0.3903 0.07568 0.0
C2159 C 0.52525 0.37326 0.05505 0.0
C2160 C 0.52189 0.3694 0.03842 0.0
C2161 C 0.53177 0.37943 0.08632 0.0
C2162 C 0.52436 0.36524 0.08123 0.0
C2163 C 0.5212 0.36237 0.06566 0.0
C2164 C 0.51929 0.35338 0.09186 0.0
C2165 C 0.53493 0.38341 0.10296 0.0
C2166 C 0.52985 0.34674 0.10101 0.0
C2167 C 0.52492 0.33518 0.11057 0.0
C2168 C 0.50937 0.32997 0.11102 0.0
C2169 C 0.49885 0.33671 0.10188 0.0
C2170 C 0.50377 0.34828 0.09241 0.0
H2171 H 0.53709 0.39591 0.10531 0.0
H2172 H 0.5252 0.37926 0.11007 0.0
H2173 H 0.54527 0.37788 0.10645 0.0
H2174 H 0.54193 0.35028 0.10054 0.0
H2175 H 0.53331 0.33014 0.11738 0.0
H2176 H 0.65883 0.27794 0.24646 0.0
H2177 H 0.63694 0.28436 0.23126 0.0
H2178 H 0.61438 0.24015 0.2382 0.0
H2179 H 0.63606 0.23374 0.25353 0.0
H2180 H 0.62431 0.26769 0.20409 0.0
H2181 H 0.5823 0.27102 0.2511 0.0
H2182 H 0.60273 0.27212 0.25435 0.0
H2183 H 0.59247 0.25398 0.25008 0.0
C2184 C 0.64913 0.26965 0.24487 0.0
C2185 C 0.64916 0.25534 0.25123 0.0
C2186 C 0.63669 0.2733 0.23612 0.0
C2187 C 0.62398 0.26279 0.23375 0.0
C2188 C 0.62399 0.2485 0.24005 0.0
H2189 H 0.53786 0.25333 0.1873 0.0
H2190 H 0.56087 0.25139 0.20244 0.0
C2191 C 0.63645 0.2448 0.2487 0.0
C2192 C 0.6108 0.26655 0.22444 0.0
H2193 H 0.57233 0.27048 0.22596 0.0
C2194 C 0.61296 0.26847 0.20886 0.0
C2195 C 0.59604 0.26758 0.23073 0.0
C2196 C 0.5932 0.26621 0.24751 0.0
C2197 C 0.60059 0.27074 0.19926 0.0
C2198 C 0.58574 0.27142 0.2055 0.0
C2199 C 0.5837 0.26992 0.22117 0.0
C2200 C 0.57198 0.27278 0.19591 0.0
C2201 C 0.60341 0.27174 0.18244 0.0
C2202 C 0.57052 0.2855 0.18721 0.0
C2203 C 0.55733 0.28662 0.17841 0.0
C2204 C 0.54534 0.27509 0.1783 0.0
C2205 C 0.54686 0.26243 0.1871 0.0
C2206 C 0.56001 0.2613 0.1958 0.0
H2207 H 0.61463 0.2675 0.17904 0.0
H2208 H 0.59424 0.26508 0.17571 0.0
H2209 H 0.60342 0.28382 0.17947 0.0
H2210 H 0.57947 0.29465 0.18735 0.0
H2211 H 0.55648 0.29656 0.17183 0.0
H2212 H 0.48526 0.13393 0.04778 0.0
H2213 H 0.49166 0.157 0.06399 0.0
H2214 H 0.45751 0.18029 0.04093 0.0
H2215 H 0.45091 0.15719 0.02485 0.0
H2216 H 0.50212 0.18578 0.05738 0.0
H2217 H 0.4452 0.18691 0.08488 0.0
H2218 H 0.45083 0.17065 0.07342 0.0
H2219 H 0.4443 0.18694 0.06454 0.0
C2220 C 0.47919 0.144 0.04611 0.0
C2221 C 0.46749 0.14372 0.03513 0.0
C2222 C 0.48282 0.15715 0.0554 0.0
C2223 C 0.47485 0.17027 0.05388 0.0
C2224 C 0.46351 0.17017 0.0426 0.0
H2225 H 0.48085 0.26075 0.0987 0.0
H2226 H 0.47593 0.23843 0.08114 0.0
C2227 C 0.45978 0.15699 0.03339 0.0
C2228 C 0.47843 0.18403 0.0641 0.0
H2229 H 0.46258 0.20858 0.08995 0.0
C2230 C 0.49349 0.19073 0.06455 0.0
C2231 C 0.46717 0.19044 0.0735 0.0
C2232 C 0.45101 0.18329 0.07421 0.0
C2233 C 0.49752 0.20381 0.07395 0.0
C2234 C 0.48621 0.21027 0.08319 0.0
C2235 C 0.47118 0.2036 0.08276 0.0
C2236 C 0.48977 0.22388 0.09353 0.0
C2237 C 0.51376 0.21078 0.0738 0.0
C2238 C 0.49912 0.22303 0.10634 0.0
C2239 C 0.5019 0.23573 0.11646 0.0
C2240 C 0.49537 0.24953 0.11393 0.0
C2241 C 0.4861 0.25034 0.10098 0.0
C2242 C 0.48325 0.2376 0.09094 0.0
H2243 H 0.5203 0.20626 0.06395 0.0
H2244 H 0.51392 0.22338 0.07344 0.0
H2245 H 0.51968 0.20815 0.08438 0.0
H2246 H 0.50409 0.21246 0.10862 0.0
H2247 H 0.50908 0.2347 0.12631 0.0
H2248 H 0.27573 0.39252 0.75633 0.0
H2249 H 0.2908 0.41647 0.76295 0.0
H2250 H 0.28946 0.42837 0.71617 0.0
H2251 H 0.27402 0.40468 0.70953 0.0
H2252 H 0.31936 0.42582 0.75159 0.0
H2253 H 0.27649 0.46699 0.73927 0.0
H2254 H 0.27137 0.44697 0.74128 0.0
H2255 H 0.27954 0.45336 0.72383 0.0
C2256 C 0.27842 0.40035 0.74749 0.0
C2257 C 0.27364 0.39669 0.7324 0.0
C2258 C 0.28711 0.41398 0.75128 0.0
C2259 C 0.2911 0.42428 0.74009 0.0
C2260 C 0.2863 0.42071 0.72503 0.0
H2261 H 0.36518 0.49549 0.74463 0.0
H2262 H 0.34796 0.47298 0.73807 0.0
C2263 C 0.27762 0.40708 0.72123 0.0
C2264 C 0.30086 0.43842 0.74404 0.0
H2265 H 0.30208 0.47728 0.74379 0.0
C2266 C 0.31556 0.43707 0.74994 0.0
C2267 C 0.29583 0.4531 0.74202 0.0
C2268 C 0.27989 0.45526 0.73639 0.0
C2269 C 0.32547 0.44999 0.75364 0.0
C2270 C 0.32063 0.46465 0.75115 0.0
C2271 C 0.30582 0.46602 0.74552 0.0
C2272 C 0.33071 0.47868 0.75458 0.0
C2273 C 0.34097 0.44786 0.76039 0.0
C2274 C 0.32648 0.48961 0.76569 0.0
C2275 C 0.33626 0.50254 0.76943 0.0
C2276 C 0.35043 0.50483 0.76206 0.0
C2277 C 0.35441 0.49406 0.75061 0.0
C2278 C 0.34462 0.48113 0.74689 0.0
H2279 H 0.34142 0.43642 0.76505 0.0
H2280 H 0.3498 0.44893 0.75141 0.0
H2281 H 0.34394 0.45669 0.76961 0.0
H2282 H 0.31575 0.48796 0.7717 0.0
H2283 H 0.33279 0.51061 0.77826 0.0
H2284 H 0.26819 0.67074 0.82857 0.0
H2285 H 0.28454 0.64992 0.82231 0.0
H2286 H 0.29966 0.67168 0.78175 0.0
H2287 H 0.28355 0.69277 0.78811 0.0
H2288 H 0.28396 0.63025 0.79543 0.0
H2289 H 0.33999 0.66372 0.80369 0.0
H2290 H 0.3223 0.67048 0.81103 0.0
H2291 H 0.32657 0.67126 0.79115 0.0
C2292 C 0.2751 0.67118 0.81838 0.0
C2293 C 0.27465 0.68349 0.8089 0.0
C2294 C 0.28437 0.65923 0.81478 0.0
C2295 C 0.29346 0.65936 0.80168 0.0
C2296 C 0.2929 0.67148 0.79204 0.0
H2297 H 0.35871 0.5931 0.7701 0.0
H2298 H 0.3431 0.61522 0.77203 0.0
C2299 C 0.28357 0.68344 0.79561 0.0
C2300 C 0.30335 0.64663 0.79813 0.0
H2301 H 0.34067 0.63774 0.7958 0.0
C2302 C 0.29635 0.63189 0.79544 0.0
C2303 C 0.31952 0.64883 0.79805 0.0
C2304 C 0.32761 0.66439 0.80123 0.0
C2305 C 0.30509 0.61925 0.79284 0.0
C2306 C 0.32126 0.62135 0.79326 0.0
C2307 C 0.32827 0.63616 0.79552 0.0
C2308 C 0.33103 0.60823 0.79219 0.0
C2309 C 0.29689 0.60373 0.78963 0.0
C2310 C 0.32968 0.59718 0.80308 0.0
C2311 C 0.33852 0.58459 0.80201 0.0
C2312 C 0.34903 0.58281 0.79009 0.0
C2313 C 0.35069 0.59411 0.7794 0.0
C2314 C 0.34179 0.60674 0.78047 0.0
H2315 H 0.28511 0.60464 0.78523 0.0
H2316 H 0.30325 0.59676 0.78124 0.0
H2317 H 0.29595 0.59766 0.80033 0.0
H2318 H 0.32172 0.59828 0.81242 0.0
H2319 H 0.33703 0.57619 0.81052 0.0
H2320 H 0.90476 0.49958 0.50938 0.0
H2321 H 0.88208 0.48421 0.51745 0.0
H2322 H 0.85541 0.50213 0.48227 0.0
H2323 H 0.87809 0.51729 0.474 0.0
H2324 H 0.85458 0.49223 0.52796 0.0
H2325 H 0.84633 0.45691 0.47415 0.0
H2326 H 0.86351 0.46902 0.47818 0.0
H2327 H 0.84657 0.47695 0.4714 0.0
C2328 C 0.89404 0.50026 0.5034 0.0
C2329 C 0.89322 0.50953 0.49098 0.0
C2330 C 0.88111 0.49145 0.50799 0.0
C2331 C 0.86711 0.49179 0.50027 0.0
C2332 C 0.86618 0.50135 0.48811 0.0
H2333 H 0.77485 0.45313 0.51276 0.0
H2334 H 0.79792 0.46889 0.50666 0.0
C2335 C 0.87913 0.51004 0.48343 0.0
C2336 C 0.85346 0.48227 0.50505 0.0
H2337 H 0.82598 0.45516 0.49205 0.0
C2338 C 0.8484 0.48405 0.52014 0.0
C2339 C 0.84544 0.47152 0.49486 0.0
C2340 C 0.85082 0.46835 0.47879 0.0
C2341 C 0.83532 0.47562 0.52518 0.0
C2342 C 0.82716 0.46518 0.51488 0.0
C2343 C 0.83225 0.46328 0.49987 0.0
C2344 C 0.8132 0.45612 0.51942 0.0
C2345 C 0.83011 0.47808 0.54139 0.0
C2346 C 0.81421 0.44376 0.52866 0.0
C2347 C 0.80106 0.43463 0.5321 0.0
C2348 C 0.78667 0.43777 0.52639 0.0
C2349 C 0.78572 0.45039 0.51738 0.0
C2350 C 0.79888 0.45941 0.51386 0.0
H2351 H 0.83654 0.48797 0.5474 0.0
H2352 H 0.8177 0.47995 0.54168 0.0
H2353 H 0.8318 0.46772 0.54764 0.0
H2354 H 0.82521 0.441 0.53294 0.0
H2355 H 0.80221 0.42501 0.53906 0.0
H2356 H 0.7445 0.89322 0.80893 0.0
H2357 H 0.7262 0.91291 0.80823 0.0
H2358 H 0.71242 0.89647 0.76293 0.0
H2359 H 0.7305 0.87653 0.76364 0.0
H2360 H 0.72637 0.93569 0.78635 0.0
H2361 H 0.67135 0.89994 0.78587 0.0
H2362 H 0.6892 0.89301 0.79183 0.0
H2363 H 0.68523 0.8944 0.77198 0.0
C2364 C 0.73739 0.89361 0.79891 0.0
C2365 C 0.73894 0.88327 0.78635 0.0
C2366 C 0.727 0.90492 0.7985 0.0
C2367 C 0.71784 0.90604 0.78559 0.0
C2368 C 0.71922 0.89566 0.77309 0.0
H2369 H 0.65202 0.97219 0.764 0.0
H2370 H 0.66794 0.95031 0.76324 0.0
C2371 C 0.72966 0.88437 0.77346 0.0
C2372 C 0.70749 0.91861 0.78496 0.0
H2373 H 0.66988 0.92636 0.78295 0.0
C2374 C 0.71402 0.93366 0.78563 0.0
C2375 C 0.6914 0.9159 0.78386 0.0
C2376 C 0.6838 0.89996 0.78345 0.0
C2377 C 0.70489 0.94609 0.78522 0.0
C2378 C 0.68876 0.94343 0.78448 0.0
C2379 C 0.68223 0.92837 0.78355 0.0
C2380 C 0.67855 0.9562 0.78517 0.0
C2381 C 0.71264 0.96198 0.78539 0.0
C2382 C 0.67894 0.96651 0.7979 0.0
C2383 C 0.66995 0.979 0.79834 0.0
C2384 C 0.66023 0.98137 0.78611 0.0
C2385 C 0.65943 0.97072 0.77357 0.0
C2386 C 0.6685 0.95821 0.77313 0.0
H2387 H 0.72471 0.96186 0.78152 0.0
H2388 H 0.70647 0.96936 0.77801 0.0
H2389 H 0.71271 0.96713 0.79717 0.0
H2390 H 0.68633 0.96498 0.80748 0.0
H2391 H 0.67075 0.98688 0.80824 0.0
H2392 H 0.6063 0.56802 0.97987 0.0
H2393 H 0.62984 0.58394 0.98587 0.0
H2394 H 0.65663 0.54577 0.97432 0.0
H2395 H 0.63313 0.52979 0.9681 0.0
H2396 H 0.65382 0.57794 0.00774 0.0
H2397 H 0.67453 0.58127 0.9482 0.0
H2398 H 0.6548 0.57597 0.95269 0.0
H2399 H 0.66909 0.56253 0.95444 0.0
C2400 C 0.61721 0.56304 0.9785 0.0
C2401 C 0.61787 0.54767 0.97343 0.0
C2402 C 0.63062 0.57212 0.98202 0.0
C2403 C 0.64494 0.56605 0.98039 0.0
C2404 C 0.64567 0.55069 0.97549 0.0
H2405 H 0.73763 0.60851 0.99022 0.0
H2406 H 0.71526 0.59056 0.98569 0.0
C2407 C 0.63225 0.54156 0.97206 0.0
C2408 C 0.65909 0.57584 0.98389 0.0
H2409 H 0.69058 0.59313 0.96752 0.0
C2410 C 0.66189 0.58127 0.99897 0.0
C2411 C 0.66958 0.58006 0.97242 0.0
C2412 C 0.66688 0.57478 0.95599 0.0
C2413 C 0.675 0.59079 1.00293 0.0
C2414 C 0.68536 0.59529 0.9914 0.0
C2415 C 0.68263 0.58969 0.97634 0.0
C2416 C 0.69895 0.60605 0.99465 0.0
C2417 C 0.67775 0.59571 0.01944 0.0
C2418 C 0.69721 0.62077 1.00107 0.0
C2419 C 0.70997 0.63103 1.00376 0.0
C2420 C 0.72474 0.62685 0.99989 0.0
C2421 C 0.72644 0.61212 0.99335 0.0
C2422 C 0.71366 0.60183 0.99075 0.0
H2423 H 0.67155 0.58778 0.02708 0.0
H2424 H 0.69014 0.59636 0.02231 0.0
H2425 H 0.67349 0.60718 0.02173 0.0
H2426 H 0.68593 0.62441 1.00381 0.0
H2427 H 0.70823 0.64231 0.00868 0.0
H2428 H 0.24046 0.65877 0.22747 0.0
H2429 H 0.22154 0.637 0.22879 0.0
H2430 H 0.21843 0.64551 0.27732 0.0
H2431 H 0.237 0.66749 0.27606 0.0
H2432 H 0.22384 0.61092 0.24525 0.0
H2433 H 0.1735 0.64199 0.26354 0.0
H2434 H 0.19048 0.65141 0.2557 0.0
H2435 H 0.19015 0.64658 0.27527 0.0
C2436 C 0.23557 0.65615 0.23838 0.0
C2437 C 0.24022 0.66489 0.25165 0.0
C2438 C 0.22484 0.64366 0.23913 0.0
C2439 C 0.21845 0.63976 0.25312 0.0
C2440 C 0.22303 0.64847 0.26637 0.0
H2441 H 0.17511 0.55459 0.28052 0.0
H2442 H 0.19253 0.57668 0.27556 0.0
C2443 C 0.23377 0.66093 0.26564 0.0
C2444 C 0.20744 0.62623 0.254 0.0
H2445 H 0.17135 0.61501 0.26552 0.0
C2446 C 0.21232 0.61181 0.24957 0.0
C2447 C 0.19236 0.62745 0.25945 0.0
C2448 C 0.18623 0.6427 0.26363 0.0
C2449 C 0.20267 0.59851 0.2509 0.0
C2450 C 0.18783 0.59967 0.257 0.0
C2451 C 0.18278 0.61413 0.26098 0.0
C2452 C 0.17743 0.58602 0.2596 0.0
C2453 C 0.20842 0.58334 0.24569 0.0
C2454 C 0.16303 0.58407 0.25248 0.0
C2455 C 0.15298 0.57148 0.25534 0.0
C2456 C 0.15711 0.56065 0.26549 0.0
C2457 C 0.17157 0.56265 0.27258 0.0
C2458 C 0.1816 0.57523 0.2697 0.0
H2459 H 0.21805 0.58473 0.23756 0.0
H2460 H 0.21262 0.5777 0.25568 0.0
H2461 H 0.19912 0.57572 0.24018 0.0
H2462 H 0.15956 0.59231 0.24471 0.0
H2463 H 0.14195 0.57033 0.24971 0.0
H2464 H 0.88735 0.55623 0.07872 0.0
H2465 H 0.86839 0.57331 0.07069 0.0
H2466 H 0.87627 0.55948 0.02382 0.0
H2467 H 0.89542 0.54257 0.03169 0.0
H2468 H 0.87244 0.59789 0.05075 0.0
H2469 H 0.82937 0.5527 0.02867 0.0
H2470 H 0.84486 0.54886 0.04112 0.0
H2471 H 0.84833 0.55111 0.02124 0.0
C2472 C 0.88514 0.55688 0.06669 0.0
C2473 C 0.8929 0.54796 0.05586 0.0
C2474 C 0.87425 0.5666 0.06213 0.0
C2475 C 0.87079 0.56751 0.04668 0.0
C2476 C 0.87855 0.55872 0.03583 0.0
H2477 H 0.81011 0.61583 0.99289 0.0
H2478 H 0.82943 0.60026 1.00272 0.0
C2479 C 0.88947 0.54903 0.04036 0.0
C2480 C 0.85922 0.57781 0.04185 0.0
H2481 H 0.82505 0.57813 0.02324 0.0
C2482 C 0.86202 0.5936 0.04482 0.0
C2483 C 0.84565 0.57215 0.03414 0.0
C2484 C 0.84175 0.55527 0.0312 0.0
C2485 C 0.85181 0.60393 0.03986 0.0
C2486 C 0.83831 0.59827 0.03199 0.0
C2487 C 0.83543 0.58246 0.02923 0.0
C2488 C 0.82714 0.6085 0.02614 0.0
C2489 C 0.85582 0.6208 0.04266 0.0
C2490 C 0.81944 0.6184 0.03603 0.0
C2491 C 0.8084 0.62743 0.03042 0.0
C2492 C 0.80476 0.62659 0.01483 0.0
C2493 C 0.81261 0.61677 0.00496 0.0
C2494 C 0.82366 0.60783 0.01056 0.0
H2495 H 0.86819 0.62331 0.04528 0.0
H2496 H 0.85287 0.62715 0.03264 0.0
H2497 H 0.8492 0.62511 0.05252 0.0
H2498 H 0.82171 0.61889 0.04814 0.0
H2499 H 0.80248 0.63478 0.03833 0.0
H2500 H 0.1198 0.02313 0.09769 0.0
H2501 H 0.13948 0.00527 0.09208 0.0
H2502 H 0.13715 0.01422 0.04455 0.0
H2503 H 0.11729 0.03189 0.04998 0.0
H2504 H 0.13734 0.97864 0.07196 0.0
H2505 H 0.18323 0.02101 0.0549 0.0
H2506 H 0.16655 0.02636 0.06539 0.0
H2507 H 0.16529 0.02203 0.04523 0.0
C2508 C 0.1234 0.02125 0.08602 0.0
C2509 C 0.11695 0.029 0.07428 0.0
C2510 C 0.1347 0.01109 0.08286 0.0
C2511 C 0.13991 0.00857 0.06794 0.0
C2512 C 0.13351 0.01624 0.0562 0.0
H2513 H 0.20342 0.95363 0.02013 0.0
H2514 H 0.18416 0.97088 0.02856 0.0
C2515 C 0.12218 0.02637 0.05933 0.0
C2516 C 0.15175 0.99763 0.06456 0.0
H2517 H 0.18752 0.99489 0.04974 0.0
C2518 C 0.14838 0.98218 0.06722 0.0
C2519 C 0.16612 1.00231 0.05841 0.0
C2520 C 0.17063 0.01885 0.05593 0.0
C2521 C 0.1588 0.97117 0.06336 0.0
C2522 C 0.17308 0.97582 0.05696 0.0
C2523 C 0.17655 0.99133 0.0546 0.0
C2524 C 0.18439 0.96476 0.052 0.0
C2525 C 0.15419 0.95462 0.06567 0.0
C2526 C 0.19094 0.95552 0.06238 0.0
C2527 C 0.20195 0.94552 0.05756 0.0
C2528 C 0.2067 0.94471 0.0423 0.0
C2529 C 0.20005 0.95395 0.03196 0.0
C2530 C 0.18904 0.96386 0.03677 0.0
H2531 H 0.14163 0.95258 0.06719 0.0
H2532 H 0.15777 0.94722 0.05588 0.0
H2533 H 0.15991 0.95114 0.07604 0.0
H2534 H 0.18776 0.95624 0.07426 0.0
H2535 H 0.20694 0.93865 0.06582 0.0
loop_
_geom_bond_atom_site_label_1
_geom_bond_atom_site_label_2
_geom_bond_distance
_geom_bond_site_symmetry_2
_ccdc_geom_bond_type
C0 C1 1.264 . S
C0 C5 1.479 . S
C0 C10 1.465 . S
C1 C0 1.264 . S
C1 C3 1.339 . S
C1 H28 0.931 . S
C2 C3 1.395 . S
C2 C4 1.320 . S
C3 C1 1.339 . S
C3 C2 1.395 . S
C3 H29 0.929 . S
C4 C2 1.320 . S
C4 C5 1.405 . S
C4 H30 0.930 . S
C5 C0 1.479 . S
C5 C4 1.405 . S
C5 H31 0.931 . S
U6 O7 2.454 . S
U6 O8 2.458 . S
U6 C9 2.984 . S
U6 C10 2.847 . S
U6 C23 2.882 . S
U6 O24 2.441 . S
U6 O25 2.420 . S
U6 O26 2.455 . S
U6 O27 2.449 . S
O7 U6 2.454 . S
O7 C9 1.353 . S
O8 U6 2.458 . S
O8 C9 1.286 . S
C9 U6 2.984 . S
C9 O7 1.353 . S
C9 O8 1.286 . S
C9 C11 1.363 . S
C10 C0 1.465 . S
C10 U6 2.847 . S
C10 O24 1.249 . S
C10 O25 1.202 . S
C11 C9 1.363 . S
C11 C13 1.408 . S
C11 C16 1.342 . S
C12 C13 1.310 . S
C12 C15 1.461 . S
C12 H32 0.932 . S
C13 C11 1.408 . S
C13 C12 1.310 . S
C13 H33 0.930 . S
C14 C15 1.474 . S
C14 C16 1.285 . S
C14 H34 0.929 . S
C15 C12 1.461 . S
C15 C14 1.474 . S
C16 C11 1.342 . S
C16 C14 1.285 . S
C16 H35 0.930 . S
C17 C20 1.424 . S
C17 C22 1.245 . S
C17 C23 1.428 . S
C18 C21 1.260 . S
C18 C22 1.477 . S
C18 H36 0.932 . S
C19 C20 1.384 . S
C19 C21 1.479 . S
C19 H37 0.929 . S
C20 C17 1.424 . S
C20 C19 1.384 . S
C20 H38 0.928 . S
C21 C18 1.260 . S
C21 C19 1.479 . S
C22 C17 1.245 . S
C22 C18 1.477 . S
C22 H39 0.932 . S
C23 U6 2.882 . S
C23 C17 1.428 . S
C23 O26 1.301 . S
C23 O27 1.282 . S
O24 U6 2.441 . S
O24 C10 1.249 . S
O25 U6 2.420 . S
O25 C10 1.202 . S
O26 U6 2.455 . S
O26 C23 1.301 . S
O27 U6 2.449 . S
O27 C23 1.282 . S
H28 C1 0.931 . S
H29 C3 0.929 . S
H30 C4 0.930 . S
H31 C5 0.931 . S
H32 C12 0.932 . S
H33 C13 0.930 . S
H34 C14 0.929 . S
H35 C16 0.930 . S
H36 C18 0.932 . S
H37 C19 0.929 . S
H38 C20 0.928 . S
H39 C22 0.932 . S
C40 C41 1.264 . S
C40 C45 1.479 . S
C40 C50 1.465 . S
C41 C40 1.264 . S
C41 C43 1.339 . S
C41 H68 0.931 . S
C42 C43 1.395 . S
C42 C44 1.320 . S
C43 C41 1.339 . S
C43 C42 1.395 . S
C43 H69 0.929 . S
C44 C42 1.320 . S
C44 C45 1.405 . S
C44 H70 0.930 . S
C45 C40 1.479 . S
C45 C44 1.405 . S
C45 H71 0.931 . S
U46 O47 2.454 . S
U46 O48 2.458 . S
U46 C49 2.984 . S
U46 C50 2.847 . S
U46 C63 2.882 . S
U46 O64 2.441 . S
U46 O65 2.420 . S
U46 O66 2.455 . S
U46 O67 2.449 . S
O47 U46 2.454 . S
O47 C49 1.353 . S
O48 U46 2.458 . S
O48 C49 1.286 . S
C49 U46 2.984 . S
C49 O47 1.353 . S
C49 O48 1.286 . S
C49 C51 1.363 . S
C50 C40 1.465 . S
C50 U46 2.847 . S
C50 O64 1.249 . S
C50 O65 1.202 . S
C51 C49 1.363 . S
C51 C53 1.408 . S
C51 C56 1.342 . S
C52 C53 1.310 . S
C52 C55 1.461 . S
C52 H72 0.932 . S
C53 C51 1.408 . S
C53 C52 1.310 . S
C53 H73 0.930 . S
C54 C55 1.474 . S
C54 C56 1.285 . S
C54 H74 0.929 . S
C55 C52 1.461 . S
C55 C54 1.474 . S
C56 C51 1.342 . S
C56 C54 1.285 . S
C56 H75 0.930 . S
C57 C60 1.424 . S
C57 C62 1.245 . S
C57 C63 1.428 . S
C58 C61 1.260 . S
C58 C62 1.477 . S
C58 H76 0.932 . S
C59 C60 1.384 . S
C59 C61 1.479 . S
C59 H77 0.929 . S
C60 C57 1.424 . S
C60 C59 1.384 . S
C60 H78 0.928 . S
C61 C58 1.260 . S
C61 C59 1.479 . S
C62 C57 1.245 . S
C62 C58 1.477 . S
C62 H79 0.932 . S
C63 U46 2.882 . S
C63 C57 1.428 . S
C63 O66 1.301 . S
C63 O67 1.282 . S
O64 U46 2.441 . S
O64 C50 1.249 . S
O65 U46 2.420 . S
O65 C50 1.202 . S
O66 U46 2.455 . S
O66 C63 1.301 . S
O67 U46 2.449 . S
O67 C63 1.282 . S
H68 C41 0.931 . S
H69 C43 0.929 . S
H70 C44 0.930 . S
H71 C45 0.931 . S
H72 C52 0.932 . S
H73 C53 0.930 . S
H74 C54 0.929 . S
H75 C56 0.930 . S
H76 C58 0.932 . S
H77 C59 0.929 . S
H78 C60 0.928 . S
H79 C62 0.932 . S
C80 C81 1.264 . S
C80 C85 1.479 . S
C80 C90 1.465 . S
C81 C80 1.264 . S
C81 C83 1.339 . S
C81 H108 0.931 . S
C82 C83 1.395 . S
C82 C84 1.320 . S
C83 C81 1.339 . S
C83 C82 1.395 . S
C83 H109 0.929 . S
C84 C82 1.320 . S
C84 C85 1.405 . S
C84 H110 0.930 . S
C85 C80 1.479 . S
C85 C84 1.405 . S
C85 H111 0.931 . S
U86 O87 2.454 . S
U86 O88 2.458 . S
U86 C89 2.984 . S
U86 C90 2.847 . S
U86 C103 2.882 . S
U86 O104 2.441 . S
U86 O105 2.420 . S
U86 O106 2.455 . S
U86 O107 2.449 . S
O87 U86 2.454 . S
O87 C89 1.353 . S
O88 U86 2.458 . S
O88 C89 1.286 . S
C89 U86 2.984 . S
C89 O87 1.353 . S
C89 O88 1.286 . S
C89 C91 1.363 . S
C90 C80 1.465 . S
C90 U86 2.847 . S
C90 O104 1.249 . S
C90 O105 1.202 . S
C91 C89 1.363 . S
C91 C93 1.408 . S
C91 C96 1.342 . S
C92 C93 1.310 . S
C92 C95 1.461 . S
C92 H112 0.932 . S
C93 C91 1.408 . S
C93 C92 1.310 . S
C93 H113 0.930 . S
C94 C95 1.474 . S
C94 C96 1.285 . S
C94 H114 0.929 . S
C95 C92 1.461 . S
C95 C94 1.474 . S
C96 C91 1.342 . S
C96 C94 1.285 . S
C96 H115 0.930 . S
C97 C100 1.424 . S
C97 C102 1.245 . S
C97 C103 1.428 . S
C98 C101 1.260 . S
C98 C102 1.477 . S
C98 H116 0.932 . S
C99 C100 1.384 . S
C99 C101 1.479 . S
C99 H117 0.929 . S
C100 C97 1.424 . S
C100 C99 1.384 . S
C100 H118 0.928 . S
C101 C98 1.260 . S
C101 C99 1.479 . S
C102 C97 1.245 . S
C102 C98 1.477 . S
C102 H119 0.932 . S
C103 U86 2.882 . S
C103 C97 1.428 . S
C103 O106 1.301 . S
C103 O107 1.282 . S
O104 U86 2.441 . S
O104 C90 1.249 . S
O105 U86 2.420 . S
O105 C90 1.202 . S
O106 U86 2.455 . S
O106 C103 1.301 . S
O107 U86 2.449 . S
O107 C103 1.282 . S
H108 C81 0.931 . S
H109 C83 0.929 . S
H110 C84 0.930 . S
H111 C85 0.931 . S
H112 C92 0.932 . S
H113 C93 0.930 . S
H114 C94 0.929 . S
H115 C96 0.930 . S
H116 C98 0.932 . S
H117 C99 0.929 . S
H118 C100 0.928 . S
H119 C102 0.932 . S
C120 C121 1.264 . S
C120 C125 1.479 . S
C120 C130 1.465 . S
C121 C120 1.264 . S
C121 C123 1.339 . S
C121 H148 0.931 . S
C122 C123 1.395 . S
C122 C124 1.320 . S
C123 C121 1.339 . S
C123 C122 1.395 . S
C123 H149 0.929 . S
C124 C122 1.320 . S
C124 C125 1.405 . S
C124 H150 0.930 . S
C125 C120 1.479 . S
C125 C124 1.405 . S
C125 H151 0.931 . S
U126 O127 2.454 . S
U126 O128 2.458 . S
U126 C129 2.984 . S
U126 C130 2.847 . S
U126 C143 2.882 . S
U126 O144 2.441 . S
U126 O145 2.420 . S
U126 O146 2.455 . S
U126 O147 2.449 . S
O127 U126 2.454 . S
O127 C129 1.353 . S
O128 U126 2.458 . S
O128 C129 1.286 . S
C129 U126 2.984 . S
C129 O127 1.353 . S
C129 O128 1.286 . S
C129 C131 1.363 . S
C130 C120 1.465 . S
C130 U126 2.847 . S
C130 O144 1.249 . S
C130 O145 1.202 . S
C131 C129 1.363 . S
C131 C133 1.408 . S
C131 C136 1.342 . S
C132 C133 1.310 . S
C132 C135 1.461 . S
C132 H152 0.932 . S
C133 C131 1.408 . S
C133 C132 1.310 . S
C133 H153 0.930 . S
C134 C135 1.474 . S
C134 C136 1.285 . S
C134 H154 0.929 . S
C135 C132 1.461 . S
C135 C134 1.474 . S
C136 C131 1.342 . S
C136 C134 1.285 . S
C136 H155 0.930 . S
C137 C140 1.424 . S
C137 C142 1.245 . S
C137 C143 1.428 . S
C138 C141 1.260 . S
C138 C142 1.477 . S
C138 H156 0.932 . S
C139 C140 1.384 . S
C139 C141 1.479 . S
C139 H157 0.929 . S
C140 C137 1.424 . S
C140 C139 1.384 . S
C140 H158 0.928 . S
C141 C138 1.260 . S
C141 C139 1.479 . S
C142 C137 1.245 . S
C142 C138 1.477 . S
C142 H159 0.932 . S
C143 U126 2.882 . S
C143 C137 1.428 . S
C143 O146 1.301 . S
C143 O147 1.282 . S
O144 U126 2.441 . S
O144 C130 1.249 . S
O145 U126 2.420 . S
O145 C130 1.202 . S
O146 U126 2.455 . S
O146 C143 1.301 . S
O147 U126 2.449 . S
O147 C143 1.282 . S
H148 C121 0.931 . S
H149 C123 0.929 . S
H150 C124 0.930 . S
H151 C125 0.931 . S
H152 C132 0.932 . S
H153 C133 0.930 . S
H154 C134 0.929 . S
H155 C136 0.930 . S
H156 C138 0.932 . S
H157 C139 0.929 . S
H158 C140 0.928 . S
H159 C142 0.932 . S
C160 C161 1.264 . S
C160 C165 1.479 . S
C160 C170 1.465 . S
C161 C160 1.264 . S
C161 C163 1.339 . S
C161 H188 0.931 . S
C162 C163 1.395 . S
C162 C164 1.320 . S
C163 C161 1.339 . S
C163 C162 1.395 . S
C163 H189 0.929 . S
C164 C162 1.320 . S
C164 C165 1.405 . S
C164 H190 0.930 . S
C165 C160 1.479 . S
C165 C164 1.405 . S
C165 H191 0.931 . S
U166 O167 2.454 . S
U166 O168 2.458 . S
U166 C169 2.984 . S
U166 C170 2.847 . S
U166 C183 2.882 . S
U166 O184 2.441 . S
U166 O185 2.420 . S
U166 O186 2.455 . S
U166 O187 2.449 . S
O167 U166 2.454 . S
O167 C169 1.353 . S
O168 U166 2.458 . S
O168 C169 1.286 . S
C169 U166 2.984 . S
C169 O167 1.353 . S
C169 O168 1.286 . S
C169 C171 1.363 . S
C170 C160 1.465 . S
C170 U166 2.847 . S
C170 O184 1.249 . S
C170 O185 1.202 . S
C171 C169 1.363 . S
C171 C173 1.408 . S
C171 C176 1.342 . S
C172 C173 1.310 . S
C172 C175 1.461 . S
C172 H192 0.932 . S
C173 C171 1.408 . S
C173 C172 1.310 . S
C173 H193 0.930 . S
C174 C175 1.474 . S
C174 C176 1.285 . S
C174 H194 0.929 . S
C175 C172 1.461 . S
C175 C174 1.474 . S
C176 C171 1.342 . S
C176 C174 1.285 . S
C176 H195 0.930 . S
C177 C180 1.424 . S
C177 C182 1.245 . S
C177 C183 1.428 . S
C178 C181 1.260 1_565 S
C178 C182 1.477 . S
C178 H196 0.932 . S
C179 C180 1.384 1_545 S
C179 C181 1.479 . S
C179 H197 0.929 . S
C180 C177 1.424 . S
C180 C179 1.384 1_565 S
C180 H198 0.928 . S
C181 C178 1.260 1_545 S
C181 C179 1.479 . S
C182 C177 1.245 . S
C182 C178 1.477 . S
C182 H199 0.932 . S
C183 U166 2.882 . S
C183 C177 1.428 . S
C183 O186 1.301 . S
C183 O187 1.282 . S
O184 U166 2.441 . S
O184 C170 1.249 . S
O185 U166 2.420 . S
O185 C170 1.202 . S
O186 U166 2.455 . S
O186 C183 1.301 . S
O187 U166 2.449 . S
O187 C183 1.282 . S
H188 C161 0.931 . S
H189 C163 0.929 . S
H190 C164 0.930 . S
H191 C165 0.931 . S
H192 C172 0.932 . S
H193 C173 0.930 . S
H194 C174 0.929 . S
H195 C176 0.930 . S
H196 C178 0.932 . S
H197 C179 0.929 . S
H198 C180 0.928 . S
H199 C182 0.932 . S
C200 C201 1.264 . S
C200 C205 1.479 . S
C200 C210 1.465 . S
C201 C200 1.264 . S
C201 C203 1.339 . S
C201 H228 0.931 . S
C202 C203 1.395 . S
C202 C204 1.320 . S
C203 C201 1.339 . S
C203 C202 1.395 . S
C203 H229 0.929 . S
C204 C202 1.320 . S
C204 C205 1.405 . S
C204 H230 0.930 . S
C205 C200 1.479 . S
C205 C204 1.405 . S
C205 H231 0.931 . S
U206 O207 2.454 . S
U206 O208 2.458 . S
U206 C209 2.984 . S
U206 C210 2.847 . S
U206 C223 2.882 . S
U206 O224 2.441 . S
U206 O225 2.420 . S
U206 O226 2.455 . S
U206 O227 2.449 . S
O207 U206 2.454 . S
O207 C209 1.353 . S
O208 U206 2.458 . S
O208 C209 1.286 . S
C209 U206 2.984 . S
C209 O207 1.353 . S
C209 O208 1.286 . S
C209 C211 1.363 . S
C210 C200 1.465 . S
C210 U206 2.847 . S
C210 O224 1.249 . S
C210 O225 1.202 . S
C211 C209 1.363 . S
C211 C213 1.408 . S
C211 C216 1.342 . S
C212 C213 1.310 . S
C212 C215 1.461 . S
C212 H232 0.932 . S
C213 C211 1.408 . S
C213 C212 1.310 . S
C213 H233 0.930 . S
C214 C215 1.474 . S
C214 C216 1.285 . S
C214 H234 0.929 . S
C215 C212 1.461 . S
C215 C214 1.474 . S
C216 C211 1.342 . S
C216 C214 1.285 . S
C216 H235 0.930 . S
C217 C220 1.424 . S
C217 C222 1.245 . S
C217 C223 1.428 . S
C218 C221 1.260 . S
C218 C222 1.477 . S
C218 H236 0.932 . S
C219 C220 1.384 . S
C219 C221 1.479 . S
C219 H237 0.929 . S
C220 C217 1.424 . S
C220 C219 1.384 . S
C220 H238 0.928 . S
C221 C218 1.260 . S
C221 C219 1.479 . S
C222 C217 1.245 . S
C222 C218 1.477 . S
C222 H239 0.932 . S
C223 U206 2.882 . S
C223 C217 1.428 . S
C223 O226 1.301 . S
C223 O227 1.282 . S
O224 U206 2.441 . S
O224 C210 1.249 . S
O225 U206 2.420 . S
O225 C210 1.202 . S
O226 U206 2.455 . S
O226 C223 1.301 . S
O227 U206 2.449 . S
O227 C223 1.282 . S
H228 C201 0.931 . S
H229 C203 0.929 . S
H230 C204 0.930 . S
H231 C205 0.931 . S
H232 C212 0.932 . S
H233 C213 0.930 . S
H234 C214 0.929 . S
H235 C216 0.930 . S
H236 C218 0.932 . S
H237 C219 0.929 . S
H238 C220 0.928 . S
H239 C222 0.932 . S
C240 C241 1.264 . S
C240 C245 1.479 . S
C240 C250 1.465 . S
C241 C240 1.264 . S
C241 C243 1.339 . S
C241 H268 0.931 . S
C242 C243 1.395 . S
C242 C244 1.320 . S
C243 C241 1.339 . S
C243 C242 1.395 . S
C243 H269 0.929 . S
C244 C242 1.320 . S
C244 C245 1.405 . S
C244 H270 0.930 . S
C245 C240 1.479 . S
C245 C244 1.405 . S
C245 H271 0.931 . S
U246 O247 2.454 . S
U246 O248 2.458 . S
U246 C249 2.984 . S
U246 C250 2.847 . S
U246 C263 2.882 . S
U246 O264 2.441 . S
U246 O265 2.420 . S
U246 O266 2.455 . S
U246 O267 2.449 . S
O247 U246 2.454 . S
O247 C249 1.353 . S
O248 U246 2.458 . S
O248 C249 1.286 . S
C249 U246 2.984 . S
C249 O247 1.353 . S
C249 O248 1.286 . S
C249 C251 1.363 . S
C250 C240 1.465 . S
C250 U246 2.847 . S
C250 O264 1.249 . S
C250 O265 1.202 . S
C251 C249 1.363 . S
C251 C253 1.408 . S
C251 C256 1.342 . S
C252 C253 1.310 . S
C252 C255 1.461 . S
C252 H272 0.932 . S
C253 C251 1.408 . S
C253 C252 1.310 . S
C253 H273 0.930 . S
C254 C255 1.474 . S
C254 C256 1.285 . S
C254 H274 0.929 . S
C255 C252 1.461 . S
C255 C254 1.474 . S
C256 C251 1.342 . S
C256 C254 1.285 . S
C256 H275 0.930 . S
C257 C260 1.424 . S
C257 C262 1.245 . S
C257 C263 1.428 . S
C258 C261 1.260 . S
C258 C262 1.477 . S
C258 H276 0.932 . S
C259 C260 1.384 . S
C259 C261 1.479 . S
C259 H277 0.929 . S
C260 C257 1.424 . S
C260 C259 1.384 . S
C260 H278 0.928 . S
C261 C258 1.260 . S
C261 C259 1.479 . S
C262 C257 1.245 . S
C262 C258 1.477 . S
C262 H279 0.932 . S
C263 U246 2.882 . S
C263 C257 1.428 . S
C263 O266 1.301 . S
C263 O267 1.282 . S
O264 U246 2.441 . S
O264 C250 1.249 . S
O265 U246 2.420 . S
O265 C250 1.202 . S
O266 U246 2.455 . S
O266 C263 1.301 . S
O267 U246 2.449 . S
O267 C263 1.282 . S
H268 C241 0.931 . S
H269 C243 0.929 . S
H270 C244 0.930 . S
H271 C245 0.931 . S
H272 C252 0.932 . S
H273 C253 0.930 . S
H274 C254 0.929 . S
H275 C256 0.930 . S
H276 C258 0.932 . S
H277 C259 0.929 . S
H278 C260 0.928 . S
H279 C262 0.932 . S
C280 C281 1.264 . S
C280 C285 1.479 . S
C280 C290 1.465 . S
C281 C280 1.264 . S
C281 C283 1.339 . S
C281 H308 0.931 . S
C282 C283 1.395 . S
C282 C284 1.320 . S
C283 C281 1.339 . S
C283 C282 1.395 . S
C283 H309 0.929 . S
C284 C282 1.320 . S
C284 C285 1.405 . S
C284 H310 0.930 . S
C285 C280 1.479 . S
C285 C284 1.405 . S
C285 H311 0.931 . S
U286 O287 2.454 . S
U286 O288 2.458 . S
U286 C289 2.984 . S
U286 C290 2.847 . S
U286 C303 2.882 . S
U286 O304 2.441 . S
U286 O305 2.420 . S
U286 O306 2.455 . S
U286 O307 2.449 . S
O287 U286 2.454 . S
O287 C289 1.353 . S
O288 U286 2.458 . S
O288 C289 1.286 . S
C289 U286 2.984 . S
C289 O287 1.353 . S
C289 O288 1.286 . S
C289 C291 1.363 . S
C290 C280 1.465 . S
C290 U286 2.847 . S
C290 O304 1.249 . S
C290 O305 1.202 . S
C291 C289 1.363 . S
C291 C293 1.408 . S
C291 C296 1.342 . S
C292 C293 1.310 . S
C292 C295 1.461 . S
C292 H312 0.932 . S
C293 C291 1.408 . S
C293 C292 1.310 . S
C293 H313 0.930 . S
C294 C295 1.474 . S
C294 C296 1.285 . S
C294 H314 0.929 . S
C295 C292 1.461 . S
C295 C294 1.474 . S
C296 C291 1.342 . S
C296 C294 1.285 . S
C296 H315 0.930 . S
C297 C300 1.424 . S
C297 C302 1.245 . S
C297 C303 1.428 . S
C298 C301 1.260 . S
C298 C302 1.477 . S
C298 H316 0.932 . S
C299 C300 1.384 . S
C299 C301 1.479 . S
C299 H317 0.929 . S
C300 C297 1.424 . S
C300 C299 1.384 . S
C300 H318 0.928 . S
C301 C298 1.260 . S
C301 C299 1.479 . S
C302 C297 1.245 . S
C302 C298 1.477 . S
C302 H319 0.932 . S
C303 U286 2.882 . S
C303 C297 1.428 . S
C303 O306 1.301 . S
C303 O307 1.282 . S
O304 U286 2.441 . S
O304 C290 1.249 . S
O305 U286 2.420 . S
O305 C290 1.202 . S
O306 U286 2.455 . S
O306 C303 1.301 . S
O307 U286 2.449 . S
O307 C303 1.282 . S
H308 C281 0.931 . S
H309 C283 0.929 . S
H310 C284 0.930 . S
H311 C285 0.931 . S
H312 C292 0.932 . S
H313 C293 0.930 . S
H314 C294 0.929 . S
H315 C296 0.930 . S
H316 C298 0.932 . S
H317 C299 0.929 . S
H318 C300 0.928 . S
H319 C302 0.932 . S
C320 C321 1.264 . S
C320 C325 1.479 . S
C320 C330 1.465 . S
C321 C320 1.264 . S
C321 C323 1.339 . S
C321 H348 0.931 . S
C322 C323 1.395 . S
C322 C324 1.320 . S
C323 C321 1.339 . S
C323 C322 1.395 . S
C323 H349 0.929 . S
C324 C322 1.320 . S
C324 C325 1.405 . S
C324 H350 0.930 . S
C325 C320 1.479 . S
C325 C324 1.405 . S
C325 H351 0.931 . S
U326 O327 2.454 . S
U326 O328 2.458 . S
U326 C329 2.984 . S
U326 C330 2.847 . S
U326 C343 2.882 . S
U326 O344 2.441 . S
U326 O345 2.420 . S
U326 O346 2.455 . S
U326 O347 2.449 . S
O327 U326 2.454 . S
O327 C329 1.353 . S
O328 U326 2.458 . S
O328 C329 1.286 . S
C329 U326 2.984 . S
C329 O327 1.353 . S
C329 O328 1.286 . S
C329 C331 1.363 . S
C330 C320 1.465 . S
C330 U326 2.847 . S
C330 O344 1.249 . S
C330 O345 1.202 . S
C331 C329 1.363 . S
C331 C333 1.408 . S
C331 C336 1.342 . S
C332 C333 1.310 . S
C332 C335 1.461 . S
C332 H352 0.932 . S
C333 C331 1.408 . S
C333 C332 1.310 . S
C333 H353 0.930 . S
C334 C335 1.474 . S
C334 C336 1.285 . S
C334 H354 0.929 . S
C335 C332 1.461 . S
C335 C334 1.474 . S
C336 C331 1.342 . S
C336 C334 1.285 . S
C336 H355 0.930 . S
C337 C340 1.424 . S
C337 C342 1.245 . S
C337 C343 1.428 . S
C338 C341 1.260 . S
C338 C342 1.477 . S
C338 H356 0.932 . S
C339 C340 1.384 . S
C339 C341 1.479 . S
C339 H357 0.929 . S
C340 C337 1.424 . S
C340 C339 1.384 . S
C340 H358 0.928 . S
C341 C338 1.260 . S
C341 C339 1.479 . S
C342 C337 1.245 . S
C342 C338 1.477 . S
C342 H359 0.932 . S
C343 U326 2.882 . S
C343 C337 1.428 . S
C343 O346 1.301 . S
C343 O347 1.282 . S
O344 U326 2.441 . S
O344 C330 1.249 . S
O345 U326 2.420 . S
O345 C330 1.202 . S
O346 U326 2.455 . S
O346 C343 1.301 . S
O347 U326 2.449 . S
O347 C343 1.282 . S
H348 C321 0.931 . S
H349 C323 0.929 . S
H350 C324 0.930 . S
H351 C325 0.931 . S
H352 C332 0.932 . S
H353 C333 0.930 . S
H354 C334 0.929 . S
H355 C336 0.930 . S
H356 C338 0.932 . S
H357 C339 0.929 . S
H358 C340 0.928 . S
H359 C342 0.932 . S
C360 C361 1.264 . S
C360 C365 1.479 . S
C360 C370 1.465 . S
C361 C360 1.264 . S
C361 C363 1.339 . S
C361 H388 0.931 . S
C362 C363 1.395 . S
C362 C364 1.320 . S
C363 C361 1.339 . S
C363 C362 1.395 . S
C363 H389 0.929 . S
C364 C362 1.320 . S
C364 C365 1.405 . S
C364 H390 0.930 . S
C365 C360 1.479 . S
C365 C364 1.405 . S
C365 H391 0.931 . S
U366 O367 2.454 . S
U366 O368 2.458 . S
U366 C369 2.984 . S
U366 C370 2.847 . S
U366 C383 2.882 . S
U366 O384 2.441 . S
U366 O385 2.420 . S
U366 O386 2.455 . S
U366 O387 2.449 . S
O367 U366 2.454 . S
O367 C369 1.353 . S
O368 U366 2.458 . S
O368 C369 1.286 . S
C369 U366 2.984 . S
C369 O367 1.353 . S
C369 O368 1.286 . S
C369 C371 1.363 . S
C370 C360 1.465 . S
C370 U366 2.847 . S
C370 O384 1.249 . S
C370 O385 1.202 . S
C371 C369 1.363 . S
C371 C373 1.408 . S
C371 C376 1.342 . S
C372 C373 1.310 . S
C372 C375 1.461 . S
C372 H392 0.932 . S
C373 C371 1.408 . S
C373 C372 1.310 . S
C373 H393 0.930 . S
C374 C375 1.474 . S
C374 C376 1.285 . S
C374 H394 0.929 . S
C375 C372 1.461 . S
C375 C374 1.474 . S
C376 C371 1.342 . S
C376 C374 1.285 . S
C376 H395 0.930 . S
C377 C380 1.424 . S
C377 C382 1.245 . S
C377 C383 1.428 . S
C378 C381 1.260 . S
C378 C382 1.477 . S
C378 H396 0.932 . S
C379 C380 1.384 . S
C379 C381 1.479 . S
C379 H397 0.929 . S
C380 C377 1.424 . S
C380 C379 1.384 . S
C380 H398 0.928 . S
C381 C378 1.260 . S
C381 C379 1.479 . S
C382 C377 1.245 . S
C382 C378 1.477 . S
C382 H399 0.932 . S
C383 U366 2.882 . S
C383 C377 1.428 . S
C383 O386 1.301 . S
C383 O387 1.282 . S
O384 U366 2.441 . S
O384 C370 1.249 . S
O385 U366 2.420 . S
O385 C370 1.202 . S
O386 U366 2.455 . S
O386 C383 1.301 . S
O387 U366 2.449 . S
O387 C383 1.282 . S
H388 C361 0.931 . S
H389 C363 0.929 . S
H390 C364 0.930 . S
H391 C365 0.931 . S
H392 C372 0.932 . S
H393 C373 0.930 . S
H394 C374 0.929 . S
H395 C376 0.930 . S
H396 C378 0.932 . S
H397 C379 0.929 . S
H398 C380 0.928 . S
H399 C382 0.932 . S
C400 C401 1.264 . S
C400 C405 1.479 . S
C400 C410 1.465 . S
C401 C400 1.264 . S
C401 C403 1.339 . S
C401 H428 0.931 . S
C402 C403 1.395 . S
C402 C404 1.320 . S
C403 C401 1.339 . S
C403 C402 1.395 . S
C403 H429 0.929 . S
C404 C402 1.320 . S
C404 C405 1.405 . S
C404 H430 0.930 . S
C405 C400 1.479 . S
C405 C404 1.405 . S
C405 H431 0.931 . S
U406 O407 2.454 . S
U406 O408 2.458 . S
U406 C409 2.984 . S
U406 C410 2.847 . S
U406 C423 2.882 . S
U406 O424 2.441 . S
U406 O425 2.420 . S
U406 O426 2.455 . S
U406 O427 2.449 . S
O407 U406 2.454 . S
O407 C409 1.353 . S
O408 U406 2.458 . S
O408 C409 1.286 . S
C409 U406 2.984 . S
C409 O407 1.353 . S
C409 O408 1.286 . S
C409 C411 1.363 . S
C410 C400 1.465 . S
C410 U406 2.847 . S
C410 O424 1.249 . S
C410 O425 1.202 . S
C411 C409 1.363 . S
C411 C413 1.408 . S
C411 C416 1.342 . S
C412 C413 1.310 . S
C412 C415 1.461 . S
C412 H432 0.932 . S
C413 C411 1.408 . S
C413 C412 1.310 . S
C413 H433 0.930 . S
C414 C415 1.474 . S
C414 C416 1.285 . S
C414 H434 0.929 . S
C415 C412 1.461 . S
C415 C414 1.474 . S
C416 C411 1.342 . S
C416 C414 1.285 . S
C416 H435 0.930 . S
C417 C420 1.424 . S
C417 C422 1.245 . S
C417 C423 1.428 . S
C418 C421 1.260 . S
C418 C422 1.477 . S
C418 H436 0.932 . S
C419 C420 1.384 . S
C419 C421 1.479 . S
C419 H437 0.929 . S
C420 C417 1.424 . S
C420 C419 1.384 . S
C420 H438 0.928 . S
C421 C418 1.260 . S
C421 C419 1.479 . S
C422 C417 1.245 . S
C422 C418 1.477 . S
C422 H439 0.932 . S
C423 U406 2.882 . S
C423 C417 1.428 . S
C423 O426 1.301 . S
C423 O427 1.282 . S
O424 U406 2.441 . S
O424 C410 1.249 . S
O425 U406 2.420 . S
O425 C410 1.202 . S
O426 U406 2.455 . S
O426 C423 1.301 . S
O427 U406 2.449 . S
O427 C423 1.282 . S
H428 C401 0.931 . S
H429 C403 0.929 . S
H430 C404 0.930 . S
H431 C405 0.931 . S
H432 C412 0.932 . S
H433 C413 0.930 . S
H434 C414 0.929 . S
H435 C416 0.930 . S
H436 C418 0.932 . S
H437 C419 0.929 . S
H438 C420 0.928 . S
H439 C422 0.932 . S
C440 C441 1.264 . S
C440 C445 1.479 . S
C440 C450 1.465 . S
C441 C440 1.264 . S
C441 C443 1.339 . S
C441 H468 0.931 . S
C442 C443 1.395 . S
C442 C444 1.320 . S
C443 C441 1.339 . S
C443 C442 1.395 . S
C443 H469 0.929 . S
C444 C442 1.320 . S
C444 C445 1.405 . S
C444 H470 0.930 . S
C445 C440 1.479 . S
C445 C444 1.405 . S
C445 H471 0.931 . S
U446 O447 2.454 . S
U446 O448 2.458 . S
U446 C449 2.984 . S
U446 C450 2.847 . S
U446 C463 2.882 . S
U446 O464 2.441 . S
U446 O465 2.420 . S
U446 O466 2.455 . S
U446 O467 2.449 . S
O447 U446 2.454 . S
O447 C449 1.353 . S
O448 U446 2.458 . S
O448 C449 1.286 . S
C449 U446 2.984 . S
C449 O447 1.353 . S
C449 O448 1.286 . S
C449 C451 1.363 . S
C450 C440 1.465 . S
C450 U446 2.847 . S
C450 O464 1.249 . S
C450 O465 1.202 . S
C451 C449 1.363 . S
C451 C453 1.408 . S
C451 C456 1.342 . S
C452 C453 1.310 . S
C452 C455 1.461 . S
C452 H472 0.932 . S
C453 C451 1.408 . S
C453 C452 1.310 . S
C453 H473 0.930 . S
C454 C455 1.474 . S
C454 C456 1.285 . S
C454 H474 0.929 . S
C455 C452 1.461 . S
C455 C454 1.474 . S
C456 C451 1.342 . S
C456 C454 1.285 . S
C456 H475 0.930 . S
C457 C460 1.424 . S
C457 C462 1.245 . S
C457 C463 1.428 . S
C458 C461 1.260 . S
C458 C462 1.477 . S
C458 H476 0.932 . S
C459 C460 1.384 . S
C459 C461 1.479 . S
C459 H477 0.929 . S
C460 C457 1.424 . S
C460 C459 1.384 . S
C460 H478 0.928 . S
C461 C458 1.260 . S
C461 C459 1.479 . S
C462 C457 1.245 . S
C462 C458 1.477 . S
C462 H479 0.932 . S
C463 U446 2.882 . S
C463 C457 1.428 . S
C463 O466 1.301 . S
C463 O467 1.282 . S
O464 U446 2.441 . S
O464 C450 1.249 . S
O465 U446 2.420 . S
O465 C450 1.202 . S
O466 U446 2.455 . S
O466 C463 1.301 . S
O467 U446 2.449 . S
O467 C463 1.282 . S
H468 C441 0.931 . S
H469 C443 0.929 . S
H470 C444 0.930 . S
H471 C445 0.931 . S
H472 C452 0.932 . S
H473 C453 0.930 . S
H474 C454 0.929 . S
H475 C456 0.930 . S
H476 C458 0.932 . S
H477 C459 0.929 . S
H478 C460 0.928 . S
H479 C462 0.932 . S
C480 C481 1.264 . S
C480 C485 1.479 . S
C480 C490 1.465 . S
C481 C480 1.264 . S
C481 C483 1.339 . S
C481 H508 0.931 . S
C482 C483 1.395 . S
C482 C484 1.320 . S
C483 C481 1.339 . S
C483 C482 1.395 . S
C483 H509 0.929 . S
C484 C482 1.320 . S
C484 C485 1.405 . S
C484 H510 0.930 . S
C485 C480 1.479 . S
C485 C484 1.405 . S
C485 H511 0.931 . S
U486 O487 2.454 . S
U486 O488 2.458 . S
U486 C489 2.984 . S
U486 C490 2.847 . S
U486 C503 2.882 . S
U486 O504 2.441 . S
U486 O505 2.420 . S
U486 O506 2.455 . S
U486 O507 2.449 . S
O487 U486 2.454 . S
O487 C489 1.353 . S
O488 U486 2.458 . S
O488 C489 1.286 . S
C489 U486 2.984 . S
C489 O487 1.353 . S
C489 O488 1.286 . S
C489 C491 1.363 . S
C490 C480 1.465 . S
C490 U486 2.847 . S
C490 O504 1.249 . S
C490 O505 1.202 . S
C491 C489 1.363 . S
C491 C493 1.408 . S
C491 C496 1.342 . S
C492 C493 1.310 . S
C492 C495 1.461 . S
C492 H512 0.932 . S
C493 C491 1.408 . S
C493 C492 1.310 . S
C493 H513 0.930 . S
C494 C495 1.474 . S
C494 C496 1.285 . S
C494 H514 0.929 . S
C495 C492 1.461 . S
C495 C494 1.474 . S
C496 C491 1.342 . S
C496 C494 1.285 . S
C496 H515 0.930 . S
C497 C500 1.424 . S
C497 C502 1.245 . S
C497 C503 1.428 . S
C498 C501 1.260 . S
C498 C502 1.477 . S
C498 H516 0.932 . S
C499 C500 1.384 . S
C499 C501 1.479 . S
C499 H517 0.929 . S
C500 C497 1.424 . S
C500 C499 1.384 . S
C500 H518 0.928 . S
C501 C498 1.260 . S
C501 C499 1.479 . S
C502 C497 1.245 . S
C502 C498 1.477 . S
C502 H519 0.932 . S
C503 U486 2.882 . S
C503 C497 1.428 . S
C503 O506 1.301 . S
C503 O507 1.282 . S
O504 U486 2.441 . S
O504 C490 1.249 . S
O505 U486 2.420 . S
O505 C490 1.202 . S
O506 U486 2.455 . S
O506 C503 1.301 . S
O507 U486 2.449 . S
O507 C503 1.282 . S
H508 C481 0.931 . S
H509 C483 0.929 . S
H510 C484 0.930 . S
H511 C485 0.931 . S
H512 C492 0.932 . S
H513 C493 0.930 . S
H514 C494 0.929 . S
H515 C496 0.930 . S
H516 C498 0.932 . S
H517 C499 0.929 . S
H518 C500 0.928 . S
H519 C502 0.932 . S
C520 C521 1.264 . S
C520 C525 1.479 . S
C520 C530 1.465 . S
C521 C520 1.264 . S
C521 C523 1.339 . S
C521 H548 0.931 . S
C522 C523 1.395 . S
C522 C524 1.320 . S
C523 C521 1.339 . S
C523 C522 1.395 . S
C523 H549 0.929 . S
C524 C522 1.320 . S
C524 C525 1.405 . S
C524 H550 0.930 . S
C525 C520 1.479 . S
C525 C524 1.405 . S
C525 H551 0.931 . S
U526 O527 2.454 . S
U526 O528 2.458 . S
U526 C529 2.984 . S
U526 C530 2.847 . S
U526 C543 2.882 . S
U526 O544 2.441 . S
U526 O545 2.420 . S
U526 O546 2.455 . S
U526 O547 2.449 . S
O527 U526 2.454 . S
O527 C529 1.353 . S
O528 U526 2.458 . S
O528 C529 1.286 . S
C529 U526 2.984 . S
C529 O527 1.353 . S
C529 O528 1.286 . S
C529 C531 1.363 . S
C530 C520 1.465 . S
C530 U526 2.847 . S
C530 O544 1.249 . S
C530 O545 1.202 . S
C531 C529 1.363 . S
C531 C533 1.408 . S
C531 C536 1.342 . S
C532 C533 1.310 . S
C532 C535 1.461 . S
C532 H552 0.932 . S
C533 C531 1.408 . S
C533 C532 1.310 . S
C533 H553 0.930 . S
C534 C535 1.474 . S
C534 C536 1.285 . S
C534 H554 0.929 . S
C535 C532 1.461 . S
C535 C534 1.474 . S
C536 C531 1.342 . S
C536 C534 1.285 . S
C536 H555 0.930 . S
C537 C540 1.424 . S
C537 C542 1.245 . S
C537 C543 1.428 . S
C538 C541 1.260 . S
C538 C542 1.477 . S
C538 H556 0.932 . S
C539 C540 1.384 . S
C539 C541 1.479 . S
C539 H557 0.929 . S
C540 C537 1.424 . S
C540 C539 1.384 . S
C540 H558 0.928 . S
C541 C538 1.260 . S
C541 C539 1.479 . S
C542 C537 1.245 . S
C542 C538 1.477 . S
C542 H559 0.932 . S
C543 U526 2.882 . S
C543 C537 1.428 . S
C543 O546 1.301 . S
C543 O547 1.282 . S
O544 U526 2.441 . S
O544 C530 1.249 . S
O545 U526 2.420 . S
O545 C530 1.202 . S
O546 U526 2.455 . S
O546 C543 1.301 . S
O547 U526 2.449 . S
O547 C543 1.282 . S
H548 C521 0.931 . S
H549 C523 0.929 . S
H550 C524 0.930 . S
H551 C525 0.931 . S
H552 C532 0.932 . S
H553 C533 0.930 . S
H554 C534 0.929 . S
H555 C536 0.930 . S
H556 C538 0.932 . S
H557 C539 0.929 . S
H558 C540 0.928 . S
H559 C542 0.932 . S
C560 C561 1.264 . S
C560 C565 1.479 . S
C560 C570 1.465 . S
C561 C560 1.264 . S
C561 C563 1.339 . S
C561 H588 0.931 . S
C562 C563 1.395 . S
C562 C564 1.320 . S
C563 C561 1.339 . S
C563 C562 1.395 . S
C563 H589 0.929 . S
C564 C562 1.320 . S
C564 C565 1.405 . S
C564 H590 0.930 . S
C565 C560 1.479 . S
C565 C564 1.405 . S
C565 H591 0.931 . S
U566 O567 2.454 . S
U566 O568 2.458 . S
U566 C569 2.984 . S
U566 C570 2.847 . S
U566 C583 2.882 . S
U566 O584 2.441 . S
U566 O585 2.420 . S
U566 O586 2.455 . S
U566 O587 2.449 . S
O567 U566 2.454 . S
O567 C569 1.353 . S
O568 U566 2.458 . S
O568 C569 1.286 . S
C569 U566 2.984 . S
C569 O567 1.353 . S
C569 O568 1.286 . S
C569 C571 1.363 . S
C570 C560 1.465 . S
C570 U566 2.847 . S
C570 O584 1.249 . S
C570 O585 1.202 . S
C571 C569 1.363 . S
C571 C573 1.408 . S
C571 C576 1.342 . S
C572 C573 1.310 . S
C572 C575 1.461 . S
C572 H592 0.932 . S
C573 C571 1.408 . S
C573 C572 1.310 . S
C573 H593 0.930 . S
C574 C575 1.474 . S
C574 C576 1.285 . S
C574 H594 0.929 . S
C575 C572 1.461 . S
C575 C574 1.474 . S
C576 C571 1.342 . S
C576 C574 1.285 . S
C576 H595 0.930 . S
C577 C580 1.424 . S
C577 C582 1.245 . S
C577 C583 1.428 . S
C578 C581 1.260 . S
C578 C582 1.477 . S
C578 H596 0.932 . S
C579 C580 1.384 . S
C579 C581 1.479 . S
C579 H597 0.929 . S
C580 C577 1.424 . S
C580 C579 1.384 . S
C580 H598 0.928 . S
C581 C578 1.260 . S
C581 C579 1.479 . S
C582 C577 1.245 . S
C582 C578 1.477 . S
C582 H599 0.932 . S
C583 U566 2.882 . S
C583 C577 1.428 . S
C583 O586 1.301 . S
C583 O587 1.282 . S
O584 U566 2.441 . S
O584 C570 1.249 . S
O585 U566 2.420 . S
O585 C570 1.202 . S
O586 U566 2.455 . S
O586 C583 1.301 . S
O587 U566 2.449 . S
O587 C583 1.282 . S
H588 C561 0.931 . S
H589 C563 0.929 . S
H590 C564 0.930 . S
H591 C565 0.931 . S
H592 C572 0.932 . S
H593 C573 0.930 . S
H594 C574 0.929 . S
H595 C576 0.930 . S
H596 C578 0.932 . S
H597 C579 0.929 . S
H598 C580 0.928 . S
H599 C582 0.932 . S
C600 C601 1.264 . S
C600 C605 1.479 . S
C600 C610 1.465 . S
C601 C600 1.264 . S
C601 C603 1.339 . S
C601 H628 0.931 . S
C602 C603 1.395 . S
C602 C604 1.320 . S
C603 C601 1.339 . S
C603 C602 1.395 . S
C603 H629 0.929 . S
C604 C602 1.320 . S
C604 C605 1.405 . S
C604 H630 0.930 . S
C605 C600 1.479 . S
C605 C604 1.405 . S
C605 H631 0.931 . S
U606 O607 2.454 . S
U606 O608 2.458 . S
U606 C609 2.984 . S
U606 C610 2.847 . S
U606 C623 2.882 . S
U606 O624 2.441 . S
U606 O625 2.420 . S
U606 O626 2.455 . S
U606 O627 2.449 . S
O607 U606 2.454 . S
O607 C609 1.353 . S
O608 U606 2.458 . S
O608 C609 1.286 . S
C609 U606 2.984 . S
C609 O607 1.353 . S
C609 O608 1.286 . S
C609 C611 1.363 . S
C610 C600 1.465 . S
C610 U606 2.847 . S
C610 O624 1.249 . S
C610 O625 1.202 . S
C611 C609 1.363 . S
C611 C613 1.408 . S
C611 C616 1.342 . S
C612 C613 1.310 . S
C612 C615 1.461 . S
C612 H632 0.932 . S
C613 C611 1.408 . S
C613 C612 1.310 . S
C613 H633 0.930 . S
C614 C615 1.474 . S
C614 C616 1.285 . S
C614 H634 0.929 . S
C615 C612 1.461 . S
C615 C614 1.474 . S
C616 C611 1.342 . S
C616 C614 1.285 . S
C616 H635 0.930 . S
C617 C620 1.424 . S
C617 C622 1.245 . S
C617 C623 1.428 . S
C618 C621 1.260 . S
C618 C622 1.477 . S
C618 H636 0.932 . S
C619 C620 1.384 . S
C619 C621 1.479 . S
C619 H637 0.929 . S
C620 C617 1.424 . S
C620 C619 1.384 . S
C620 H638 0.928 . S
C621 C618 1.260 . S
C621 C619 1.479 . S
C622 C617 1.245 . S
C622 C618 1.477 . S
C622 H639 0.932 . S
C623 U606 2.882 . S
C623 C617 1.428 . S
C623 O626 1.301 . S
C623 O627 1.282 . S
O624 U606 2.441 . S
O624 C610 1.249 . S
O625 U606 2.420 . S
O625 C610 1.202 . S
O626 U606 2.455 . S
O626 C623 1.301 . S
O627 U606 2.449 . S
O627 C623 1.282 . S
H628 C601 0.931 . S
H629 C603 0.929 . S
H630 C604 0.930 . S
H631 C605 0.931 . S
H632 C612 0.932 . S
H633 C613 0.930 . S
H634 C614 0.929 . S
H635 C616 0.930 . S
H636 C618 0.932 . S
H637 C619 0.929 . S
H638 C620 0.928 . S
H639 C622 0.932 . S
O640 Cd641 2.223 . S
O640 C648 1.315 . S
Cd641 O640 2.223 . S
Cd641 O644 2.297 . S
Cd641 O645 2.439 . S
Cd641 O651 2.240 . S
Cd642 O643 2.240 . S
Cd642 O650 2.223 . S
Cd642 O652 2.297 . S
Cd642 O653 2.439 . S
O643 Cd642 2.240 . S
O643 C648 1.279 . S
O644 Cd641 2.297 . S
O644 C646 1.247 . S
O645 Cd641 2.439 . S
O645 C646 1.208 . S
C646 O644 1.247 . S
C646 O645 1.208 . S
C647 O652 1.247 . S
C647 O653 1.208 . S
C648 O640 1.315 . S
C648 O643 1.279 . S
C649 O650 1.315 . S
C649 O651 1.279 . S
O650 Cd642 2.223 . S
O650 C649 1.315 . S
O651 Cd641 2.240 . S
O651 C649 1.279 . S
O652 Cd642 2.297 . S
O652 C647 1.247 . S
O653 Cd642 2.439 . S
O653 C647 1.208 . S
O654 Cd655 2.223 . S
O654 C662 1.315 . S
Cd655 O654 2.223 . S
Cd655 O658 2.297 . S
Cd655 O659 2.439 . S
Cd655 O665 2.240 . S
Cd656 O657 2.240 . S
Cd656 O664 2.223 . S
Cd656 O666 2.297 . S
Cd656 O667 2.439 . S
O657 Cd656 2.240 . S
O657 C662 1.279 . S
O658 Cd655 2.297 . S
O658 C660 1.247 . S
O659 Cd655 2.439 . S
O659 C660 1.208 . S
C660 O658 1.247 . S
C660 O659 1.208 . S
C661 O666 1.247 . S
C661 O667 1.208 . S
C662 O654 1.315 . S
C662 O657 1.279 . S
C663 O664 1.315 . S
C663 O665 1.279 . S
O664 Cd656 2.223 . S
O664 C663 1.315 . S
O665 Cd655 2.240 . S
O665 C663 1.279 . S
O666 Cd656 2.297 . S
O666 C661 1.247 . S
O667 Cd656 2.439 . S
O667 C661 1.208 . S
O668 Cd669 2.223 1_556 S
O668 C676 1.315 . S
Cd669 O668 2.223 1_554 S
Cd669 O672 2.297 . S
Cd669 O673 2.439 . S
Cd669 O679 2.240 . S
Cd670 O671 2.240 . S
Cd670 O678 2.223 . S
Cd670 O680 2.297 1_556 S
Cd670 O681 2.439 1_556 S
O671 Cd670 2.240 . S
O671 C676 1.279 . S
O672 Cd669 2.297 . S
O672 C674 1.247 . S
O673 Cd669 2.439 . S
O673 C674 1.208 . S
C674 O672 1.247 . S
C674 O673 1.208 . S
C675 O680 1.247 . S
C675 O681 1.208 . S
C676 O668 1.315 . S
C676 O671 1.279 . S
C677 O678 1.315 . S
C677 O679 1.279 1_556 S
O678 Cd670 2.223 . S
O678 C677 1.315 . S
O679 Cd669 2.240 . S
O679 C677 1.279 1_554 S
O680 Cd670 2.297 1_554 S
O680 C675 1.247 . S
O681 Cd670 2.439 1_554 S
O681 C675 1.208 . S
O682 Cd683 2.223 . S
O682 C690 1.315 . S
Cd683 O682 2.223 . S
Cd683 O686 2.297 . S
Cd683 O687 2.439 . S
Cd683 O693 2.240 . S
Cd684 O685 2.240 . S
Cd684 O692 2.223 . S
Cd684 O694 2.297 . S
Cd684 O695 2.439 . S
O685 Cd684 2.240 . S
O685 C690 1.279 . S
O686 Cd683 2.297 . S
O686 C688 1.247 . S
O687 Cd683 2.439 . S
O687 C688 1.208 . S
C688 O686 1.247 . S
C688 O687 1.208 . S
C689 O694 1.247 . S
C689 O695 1.208 . S
C690 O682 1.315 . S
C690 O685 1.279 . S
C691 O692 1.315 . S
C691 O693 1.279 . S
O692 Cd684 2.223 . S
O692 C691 1.315 . S
O693 Cd683 2.240 . S
O693 C691 1.279 . S
O694 Cd684 2.297 . S
O694 C689 1.247 . S
O695 Cd684 2.439 . S
O695 C689 1.208 . S
O696 Cd697 2.223 . S
O696 C704 1.315 . S
Cd697 O696 2.223 . S
Cd697 O700 2.297 . S
Cd697 O701 2.439 . S
Cd697 O707 2.240 . S
Cd698 O699 2.240 . S
Cd698 O706 2.223 . S
Cd698 O708 2.297 . S
Cd698 O709 2.439 . S
O699 Cd698 2.240 . S
O699 C704 1.279 . S
O700 Cd697 2.297 . S
O700 C702 1.247 . S
O701 Cd697 2.439 . S
O701 C702 1.208 . S
C702 O700 1.247 . S
C702 O701 1.208 . S
C703 O708 1.247 . S
C703 O709 1.208 . S
C704 O696 1.315 . S
C704 O699 1.279 . S
C705 O706 1.315 . S
C705 O707 1.279 . S
O706 Cd698 2.223 . S
O706 C705 1.315 . S
O707 Cd697 2.240 . S
O707 C705 1.279 . S
O708 Cd698 2.297 . S
O708 C703 1.247 . S
O709 Cd698 2.439 . S
O709 C703 1.208 . S
O710 Cd711 2.223 . S
O710 C718 1.315 . S
Cd711 O710 2.223 . S
Cd711 O714 2.297 . S
Cd711 O715 2.439 . S
Cd711 O721 2.240 . S
Cd712 O713 2.240 . S
Cd712 O720 2.223 . S
Cd712 O722 2.297 . S
Cd712 O723 2.439 . S
O713 Cd712 2.240 . S
O713 C718 1.279 . S
O714 Cd711 2.297 . S
O714 C716 1.247 . S
O715 Cd711 2.439 . S
O715 C716 1.208 . S
C716 O714 1.247 . S
C716 O715 1.208 . S
C717 O722 1.247 . S
C717 O723 1.208 . S
C718 O710 1.315 . S
C718 O713 1.279 . S
C719 O720 1.315 . S
C719 O721 1.279 . S
O720 Cd712 2.223 . S
O720 C719 1.315 . S
O721 Cd711 2.240 . S
O721 C719 1.279 . S
O722 Cd712 2.297 . S
O722 C717 1.247 . S
O723 Cd712 2.439 . S
O723 C717 1.208 . S
O724 Cd725 2.223 . S
O724 C732 1.315 . S
Cd725 O724 2.223 . S
Cd725 O728 2.297 . S
Cd725 O729 2.439 . S
Cd725 O735 2.240 . S
Cd726 O727 2.240 . S
Cd726 O734 2.223 . S
Cd726 O736 2.297 . S
Cd726 O737 2.439 . S
O727 Cd726 2.240 . S
O727 C732 1.279 . S
O728 Cd725 2.297 . S
O728 C730 1.247 . S
O729 Cd725 2.439 . S
O729 C730 1.208 . S
C730 O728 1.247 . S
C730 O729 1.208 . S
C731 O736 1.247 . S
C731 O737 1.208 . S
C732 O724 1.315 . S
C732 O727 1.279 . S
C733 O734 1.315 . S
C733 O735 1.279 . S
O734 Cd726 2.223 . S
O734 C733 1.315 . S
O735 Cd725 2.240 . S
O735 C733 1.279 . S
O736 Cd726 2.297 . S
O736 C731 1.247 . S
O737 Cd726 2.439 . S
O737 C731 1.208 . S
O738 Cd739 2.223 1_545 S
O738 C746 1.315 . S
Cd739 O738 2.223 1_565 S
Cd739 O742 2.297 . S
Cd739 O743 2.439 . S
Cd739 O749 2.240 1_565 S
Cd740 O741 2.240 . S
Cd740 O748 2.223 . S
Cd740 O750 2.297 . S
Cd740 O751 2.439 1_545 S
O741 Cd740 2.240 . S
O741 C746 1.279 . S
O742 Cd739 2.297 . S
O742 C744 1.247 . S
O743 Cd739 2.439 . S
O743 C744 1.208 . S
C744 O742 1.247 . S
C744 O743 1.208 . S
C745 O750 1.247 1_565 S
C745 O751 1.208 . S
C746 O738 1.315 . S
C746 O741 1.279 . S
C747 O748 1.315 . S
C747 O749 1.279 . S
O748 Cd740 2.223 . S
O748 C747 1.315 . S
O749 Cd739 2.240 1_545 S
O749 C747 1.279 . S
O750 Cd740 2.297 . S
O750 C745 1.247 1_545 S
O751 Cd740 2.439 1_565 S
O751 C745 1.208 . S
O752 Cd753 2.223 . S
O752 C760 1.315 . S
Cd753 O752 2.223 . S
Cd753 O756 2.297 1_655 S
Cd753 O757 2.439 1_655 S
Cd753 O763 2.240 . S
Cd754 O755 2.240 . S
Cd754 O762 2.223 1_455 S
Cd754 O764 2.297 . S
Cd754 O765 2.439 . S
O755 Cd754 2.240 . S
O755 C760 1.279 1_455 S
O756 Cd753 2.297 1_455 S
O756 C758 1.247 . S
O757 Cd753 2.439 1_455 S
O757 C758 1.208 . S
C758 O756 1.247 . S
C758 O757 1.208 . S
C759 O764 1.247 . S
C759 O765 1.208 . S
C760 O752 1.315 . S
C760 O755 1.279 1_655 S
C761 O762 1.315 . S
C761 O763 1.279 . S
O762 Cd754 2.223 1_655 S
O762 C761 1.315 . S
O763 Cd753 2.240 . S
O763 C761 1.279 . S
O764 Cd754 2.297 . S
O764 C759 1.247 . S
O765 Cd754 2.439 . S
O765 C759 1.208 . S
O766 Cd767 2.223 . S
O766 C774 1.315 . S
Cd767 O766 2.223 . S
Cd767 O770 2.297 . S
Cd767 O771 2.439 . S
Cd767 O777 2.240 . S
Cd768 O769 2.240 . S
Cd768 O776 2.223 . S
Cd768 O778 2.297 . S
Cd768 O779 2.439 . S
O769 Cd768 2.240 . S
O769 C774 1.279 . S
O770 Cd767 2.297 . S
O770 C772 1.247 . S
O771 Cd767 2.439 . S
O771 C772 1.208 . S
C772 O770 1.247 . S
C772 O771 1.208 . S
C773 O778 1.247 . S
C773 O779 1.208 . S
C774 O766 1.315 . S
C774 O769 1.279 . S
C775 O776 1.315 . S
C775 O777 1.279 . S
O776 Cd768 2.223 . S
O776 C775 1.315 . S
O777 Cd767 2.240 . S
O777 C775 1.279 . S
O778 Cd768 2.297 . S
O778 C773 1.247 . S
O779 Cd768 2.439 . S
O779 C773 1.208 . S
O780 Cd781 2.223 1_655 S
O780 C788 1.315 . S
Cd781 O780 2.223 1_455 S
Cd781 O784 2.297 . S
Cd781 O785 2.439 . S
Cd781 O791 2.240 . S
Cd782 O783 2.240 . S
Cd782 O790 2.223 . S
Cd782 O792 2.297 1_655 S
Cd782 O793 2.439 1_655 S
O783 Cd782 2.240 . S
O783 C788 1.279 . S
O784 Cd781 2.297 . S
O784 C786 1.247 . S
O785 Cd781 2.439 . S
O785 C786 1.208 . S
C786 O784 1.247 . S
C786 O785 1.208 . S
C787 O792 1.247 . S
C787 O793 1.208 . S
C788 O780 1.315 . S
C788 O783 1.279 . S
C789 O790 1.315 . S
C789 O791 1.279 1_655 S
O790 Cd782 2.223 . S
O790 C789 1.315 . S
O791 Cd781 2.240 . S
O791 C789 1.279 1_455 S
O792 Cd782 2.297 1_455 S
O792 C787 1.247 . S
O793 Cd782 2.439 1_455 S
O793 C787 1.208 . S
O794 Cd795 2.223 . S
O794 C802 1.315 . S
Cd795 O794 2.223 . S
Cd795 O798 2.297 . S
Cd795 O799 2.439 . S
Cd795 O805 2.240 . S
Cd796 O797 2.240 . S
Cd796 O804 2.223 . S
Cd796 O806 2.297 . S
Cd796 O807 2.439 . S
O797 Cd796 2.240 . S
O797 C802 1.279 . S
O798 Cd795 2.297 . S
O798 C800 1.247 . S
O799 Cd795 2.439 . S
O799 C800 1.208 . S
C800 O798 1.247 . S
C800 O799 1.208 . S
C801 O806 1.247 . S
C801 O807 1.208 . S
C802 O794 1.315 . S
C802 O797 1.279 . S
C803 O804 1.315 . S
C803 O805 1.279 . S
O804 Cd796 2.223 . S
O804 C803 1.315 . S
O805 Cd795 2.240 . S
O805 C803 1.279 . S
O806 Cd796 2.297 . S
O806 C801 1.247 . S
O807 Cd796 2.439 . S
O807 C801 1.208 . S
H808 C816 0.929 . S
H809 C818 0.930 . S
H810 C820 0.930 . S
H811 C823 0.929 . S
H812 C826 0.930 . S
H813 C828 0.960 . S
H814 C828 0.960 . S
H815 C828 0.960 . S
C816 H808 0.929 . S
C816 C817 1.377 . S
C816 C818 1.384 . S
C817 C816 1.377 . S
C817 C823 1.390 . S
C818 H809 0.930 . S
C818 C816 1.384 . S
C818 C819 1.372 . S
C819 C818 1.372 . S
C819 C820 1.400 . S
C819 C824 1.490 . S
C820 H810 0.930 . S
C820 C819 1.400 . S
C820 C823 1.386 . S
H821 C837 0.930 . S
H822 C838 0.931 . S
C823 H811 0.929 . S
C823 C817 1.390 . S
C823 C820 1.386 . S
C824 C819 1.490 . S
C824 C826 1.395 . S
C824 C827 1.403 . S
H825 C831 0.930 . S
C826 H812 0.930 . S
C826 C824 1.395 . S
C826 C829 1.403 . S
C827 C824 1.403 . S
C827 C828 1.524 . S
C827 C831 1.400 . S
C828 H813 0.960 . S
C828 H814 0.960 . S
C828 H815 0.960 . S
C828 C827 1.524 . S
C829 C826 1.403 . S
C829 C830 1.392 . S
C829 C833 1.495 . S
C830 C829 1.392 . S
C830 C831 1.385 . S
C830 C832 1.478 . S
C831 H825 0.930 . S
C831 C827 1.400 . S
C831 C830 1.385 . S
C832 C830 1.478 . S
C832 C834 1.381 . S
C832 C838 1.383 . S
C833 C829 1.495 . S
C833 H839 0.959 . S
C833 H840 0.961 . S
C833 H841 0.960 . S
C834 C832 1.381 . S
C834 C835 1.394 . S
C834 H842 0.930 . S
C835 C834 1.394 . S
C835 C836 1.383 1_556 S
C835 H843 0.929 . S
C836 C835 1.383 1_554 S
C836 C837 1.377 . S
C837 H821 0.930 . S
C837 C836 1.377 . S
C837 C838 1.379 1_554 S
C838 H822 0.931 . S
C838 C832 1.383 . S
C838 C837 1.379 1_556 S
H839 C833 0.959 . S
H840 C833 0.961 . S
H841 C833 0.960 . S
H842 C834 0.930 . S
H843 C835 0.929 . S
H844 C852 0.929 . S
H845 C854 0.930 . S
H846 C856 0.930 . S
H847 C859 0.929 . S
H848 C862 0.930 . S
H849 C864 0.969 . S
H850 C864 0.946 1_655 S
H851 C864 0.927 1_655 S
C852 H844 0.929 . S
C852 C853 1.377 . S
C852 C854 1.384 1_655 S
C853 C852 1.377 . S
C853 C859 1.390 . S
C854 H845 0.930 . S
C854 C852 1.384 1_455 S
C854 C855 1.372 . S
C855 C854 1.372 . S
C855 C856 1.400 1_455 S
C855 C860 1.490 . S
C856 H846 0.930 . S
C856 C855 1.400 1_655 S
C856 C859 1.386 . S
H857 C873 0.930 . S
H858 C874 0.931 . S
C859 H847 0.929 . S
C859 C853 1.390 . S
C859 C856 1.386 . S
C860 C855 1.490 . S
C860 C862 1.395 . S
C860 C863 1.403 . S
H861 C867 0.930 . S
C862 H848 0.930 . S
C862 C860 1.395 . S
C862 C865 1.403 . S
C863 C860 1.403 . S
C863 C864 1.557 . S
C863 C867 1.400 . S
C864 H849 0.969 . S
C864 H850 0.946 1_455 S
C864 H851 0.927 1_455 S
C864 C863 1.557 . S
C865 C862 1.403 . S
C865 C866 1.392 . S
C865 C869 1.495 . S
C866 C865 1.392 . S
C866 C867 1.385 . S
C866 C868 1.478 . S
C867 H861 0.930 . S
C867 C863 1.400 . S
C867 C866 1.385 . S
C868 C866 1.478 . S
C868 C870 1.381 . S
C868 C874 1.383 . S
C869 C865 1.495 . S
C869 H875 0.959 . S
C869 H876 0.961 . S
C869 H877 0.960 . S
C870 C868 1.381 . S
C870 C871 1.394 . S
C870 H878 0.930 . S
C871 C870 1.394 . S
C871 C872 1.383 . S
C871 H879 0.929 . S
C872 C871 1.383 . S
C872 C873 1.377 . S
C873 H857 0.930 . S
C873 C872 1.377 . S
C873 C874 1.379 . S
C874 H858 0.931 . S
C874 C868 1.383 . S
C874 C873 1.379 . S
H875 C869 0.959 . S
H876 C869 0.961 . S
H877 C869 0.960 . S
H878 C870 0.930 . S
H879 C871 0.929 . S
H880 C888 0.929 . S
H881 C890 0.930 . S
H882 C892 0.930 . S
H883 C895 0.929 . S
H884 C898 0.930 . S
H885 C900 0.960 . S
H886 C900 0.960 . S
H887 C900 0.960 . S
C888 H880 0.929 . S
C888 C889 1.377 . S
C888 C890 1.384 . S
C889 C888 1.377 . S
C889 C895 1.390 . S
C890 H881 0.930 . S
C890 C888 1.384 . S
C890 C891 1.372 . S
C891 C890 1.372 . S
C891 C892 1.400 . S
C891 C896 1.490 . S
C892 H882 0.930 . S
C892 C891 1.400 . S
C892 C895 1.386 . S
H893 C909 0.930 . S
H894 C910 0.931 . S
C895 H883 0.929 . S
C895 C889 1.390 . S
C895 C892 1.386 . S
C896 C891 1.490 . S
C896 C898 1.395 . S
C896 C899 1.403 . S
H897 C903 0.930 . S
C898 H884 0.930 . S
C898 C896 1.395 . S
C898 C901 1.403 . S
C899 C896 1.403 . S
C899 C900 1.524 . S
C899 C903 1.400 . S
C900 H885 0.960 . S
C900 H886 0.960 . S
C900 H887 0.960 . S
C900 C899 1.524 . S
C901 C898 1.403 . S
C901 C902 1.392 . S
C901 C905 1.495 . S
C902 C901 1.392 . S
C902 C903 1.385 . S
C902 C904 1.478 . S
C903 H897 0.930 . S
C903 C899 1.400 . S
C903 C902 1.385 . S
C904 C902 1.478 . S
C904 C906 1.381 . S
C904 C910 1.383 . S
C905 C901 1.495 . S
C905 H911 0.959 . S
C905 H912 0.961 . S
C905 H913 0.960 . S
C906 C904 1.381 . S
C906 C907 1.394 . S
C906 H914 0.930 . S
C907 C906 1.394 . S
C907 C908 1.383 . S
C907 H915 0.929 . S
C908 C907 1.383 . S
C908 C909 1.377 . S
C909 H893 0.930 . S
C909 C908 1.377 . S
C909 C910 1.379 . S
C910 H894 0.931 . S
C910 C904 1.383 . S
C910 C909 1.379 . S
H911 C905 0.959 . S
H912 C905 0.961 . S
H913 C905 0.960 . S
H914 C906 0.930 . S
H915 C907 0.929 . S
H916 C924 0.929 . S
H917 C926 0.930 . S
H918 C928 0.936 1_545 S
H919 C931 0.929 . S
H920 C934 0.930 . S
H921 C936 0.960 . S
H922 C936 0.960 1_455 S
H923 C936 0.960 1_455 S
C924 H916 0.929 . S
C924 C925 1.377 . S
C924 C926 1.384 1_455 S
C925 C924 1.377 . S
C925 C931 1.390 . S
C926 H917 0.930 . S
C926 C924 1.384 1_655 S
C926 C927 1.372 . S
C927 C926 1.372 . S
C927 C928 1.400 1_655 S
C927 C932 1.490 . S
C928 H918 0.936 1_565 S
C928 C927 1.400 1_455 S
C928 C931 1.386 . S
H929 C945 0.930 . S
H930 C946 0.931 . S
C931 H919 0.929 . S
C931 C925 1.390 . S
C931 C928 1.386 . S
C932 C927 1.490 . S
C932 C934 1.395 . S
C932 C935 1.403 1_565 S
H933 C939 0.930 . S
C934 H920 0.930 . S
C934 C932 1.395 . S
C934 C937 1.403 . S
C935 C932 1.403 1_545 S
C935 C936 1.524 . S
C935 C939 1.400 . S
C936 H921 0.960 . S
C936 H922 0.960 1_655 S
C936 H923 0.960 1_655 S
C936 C935 1.524 . S
C937 C934 1.403 . S
C937 C938 1.392 1_565 S
C937 C941 1.495 . S
C938 C937 1.392 1_545 S
C938 C939 1.385 . S
C938 C940 1.478 . S
C939 H933 0.930 . S
C939 C935 1.400 . S
C939 C938 1.385 . S
C940 C938 1.478 . S
C940 C942 1.381 . S
C940 C946 1.383 . S
C941 C937 1.495 . S
C941 H947 0.959 . S
C941 H948 0.961 . S
C941 H949 0.960 . S
C942 C940 1.381 . S
C942 C943 1.394 . S
C942 H950 0.897 1_545 S
C943 C942 1.394 . S
C943 C944 1.383 . S
C943 H951 0.929 . S
C944 C943 1.383 . S
C944 C945 1.377 . S
C945 H929 0.930 . S
C945 C944 1.377 . S
C945 C946 1.379 . S
C946 H930 0.931 . S
C946 C940 1.383 . S
C946 C945 1.379 . S
H947 C941 0.959 . S
H948 C941 0.961 . S
H949 C941 0.960 . S
H950 C942 0.897 1_565 S
H951 C943 0.929 . S
H952 C960 0.929 . S
H953 C962 0.930 . S
H954 C964 0.930 . S
H955 C967 0.929 . S
H956 C970 0.930 . S
H957 C972 0.960 . S
H958 C972 0.960 . S
H959 C972 0.960 . S
C960 H952 0.929 . S
C960 C961 1.377 . S
C960 C962 1.384 . S
C961 C960 1.377 . S
C961 C967 1.390 . S
C962 H953 0.930 . S
C962 C960 1.384 . S
C962 C963 1.372 . S
C963 C962 1.372 . S
C963 C964 1.400 . S
C963 C968 1.490 . S
C964 H954 0.930 . S
C964 C963 1.400 . S
C964 C967 1.386 . S
H965 C981 0.930 . S
H966 C982 0.931 . S
C967 H955 0.929 . S
C967 C961 1.390 . S
C967 C964 1.386 . S
C968 C963 1.490 . S
C968 C970 1.395 . S
C968 C971 1.403 . S
H969 C975 0.930 . S
C970 H956 0.930 . S
C970 C968 1.395 . S
C970 C973 1.403 . S
C971 C968 1.403 . S
C971 C972 1.524 . S
C971 C975 1.400 . S
C972 H957 0.960 . S
C972 H958 0.960 . S
C972 H959 0.960 . S
C972 C971 1.524 . S
C973 C970 1.403 . S
C973 C974 1.392 . S
C973 C977 1.495 . S
C974 C973 1.392 . S
C974 C975 1.385 . S
C974 C976 1.478 . S
C975 H969 0.930 . S
C975 C971 1.400 . S
C975 C974 1.385 . S
C976 C974 1.478 . S
C976 C978 1.381 . S
C976 C982 1.383 . S
C977 C973 1.495 . S
C977 H983 0.959 . S
C977 H984 0.961 . S
C977 H985 0.960 . S
C978 C976 1.381 . S
C978 C979 1.394 . S
C978 H986 0.930 . S
C979 C978 1.394 . S
C979 C980 1.383 . S
C979 H987 0.929 . S
C980 C979 1.383 . S
C980 C981 1.377 . S
C981 H965 0.930 . S
C981 C980 1.377 . S
C981 C982 1.379 . S
C982 H966 0.931 . S
C982 C976 1.383 . S
C982 C981 1.379 . S
H983 C977 0.959 . S
H984 C977 0.961 . S
H985 C977 0.960 . S
H986 C978 0.930 . S
H987 C979 0.929 . S
H988 C996 0.929 . S
H989 C998 0.930 . S
H990 C1000 0.930 . S
H991 C1003 0.929 . S
H992 C1006 0.930 . S
H993 C1008 0.960 . S
H994 C1008 0.960 . S
H995 C1008 0.960 . S
C996 H988 0.929 . S
C996 C997 1.377 . S
C996 C998 1.384 . S
C997 C996 1.377 . S
C997 C1003 1.390 . S
C998 H989 0.930 . S
C998 C996 1.384 . S
C998 C999 1.372 . S
C999 C998 1.372 . S
C999 C1000 1.400 . S
C999 C1004 1.490 . S
C1000 H990 0.930 . S
C1000 C999 1.400 . S
C1000 C1003 1.386 . S
H1001 C1017 0.930 . S
H1002 C1018 0.931 . S
C1003 H991 0.929 . S
C1003 C997 1.390 . S
C1003 C1000 1.386 . S
C1004 C999 1.490 . S
C1004 C1006 1.395 . S
C1004 C1007 1.403 . S
H1005 C1011 0.930 . S
C1006 H992 0.930 . S
C1006 C1004 1.395 . S
C1006 C1009 1.403 . S
C1007 C1004 1.403 . S
C1007 C1008 1.524 . S
C1007 C1011 1.400 . S
C1008 H993 0.960 . S
C1008 H994 0.960 . S
C1008 H995 0.960 . S
C1008 C1007 1.524 . S
C1009 C1006 1.403 . S
C1009 C1010 1.392 . S
C1009 C1013 1.495 . S
C1010 C1009 1.392 . S
C1010 C1011 1.385 . S
C1010 C1012 1.478 . S
C1011 H1005 0.930 . S
C1011 C1007 1.400 . S
C1011 C1010 1.385 . S
C1012 C1010 1.478 . S
C1012 C1014 1.381 . S
C1012 C1018 1.383 . S
C1013 C1009 1.495 . S
C1013 H1019 0.959 . S
C1013 H1020 0.961 . S
C1013 H1021 0.960 . S
C1014 C1012 1.381 . S
C1014 C1015 1.394 . S
C1014 H1022 0.930 . S
C1015 C1014 1.394 . S
C1015 C1016 1.383 . S
C1015 H1023 0.929 . S
C1016 C1015 1.383 . S
C1016 C1017 1.377 . S
C1017 H1001 0.930 . S
C1017 C1016 1.377 . S
C1017 C1018 1.379 . S
C1018 H1002 0.931 . S
C1018 C1012 1.383 . S
C1018 C1017 1.379 . S
H1019 C1013 0.959 . S
H1020 C1013 0.961 . S
H1021 C1013 0.960 . S
H1022 C1014 0.930 . S
H1023 C1015 0.929 . S
H1024 C1032 0.929 . S
H1025 C1034 0.930 . S
H1026 C1036 0.930 . S
H1027 C1039 0.929 . S
H1028 C1042 0.930 . S
H1029 C1044 0.960 . S
H1030 C1044 0.960 . S
H1031 C1044 0.960 . S
C1032 H1024 0.929 . S
C1032 C1033 1.377 . S
C1032 C1034 1.384 . S
C1033 C1032 1.377 . S
C1033 C1039 1.390 . S
C1034 H1025 0.930 . S
C1034 C1032 1.384 . S
C1034 C1035 1.372 . S
C1035 C1034 1.372 . S
C1035 C1036 1.400 . S
C1035 C1040 1.490 . S
C1036 H1026 0.930 . S
C1036 C1035 1.400 . S
C1036 C1039 1.386 . S
H1037 C1053 0.930 . S
H1038 C1054 0.931 . S
C1039 H1027 0.929 . S
C1039 C1033 1.390 . S
C1039 C1036 1.386 . S
C1040 C1035 1.490 . S
C1040 C1042 1.395 . S
C1040 C1043 1.403 . S
H1041 C1047 0.930 . S
C1042 H1028 0.930 . S
C1042 C1040 1.395 . S
C1042 C1045 1.403 . S
C1043 C1040 1.403 . S
C1043 C1044 1.524 . S
C1043 C1047 1.400 . S
C1044 H1029 0.960 . S
C1044 H1030 0.960 . S
C1044 H1031 0.960 . S
C1044 C1043 1.524 . S
C1045 C1042 1.403 . S
C1045 C1046 1.392 . S
C1045 C1049 1.495 . S
C1046 C1045 1.392 . S
C1046 C1047 1.385 . S
C1046 C1048 1.478 . S
C1047 H1041 0.930 . S
C1047 C1043 1.400 . S
C1047 C1046 1.385 . S
C1048 C1046 1.478 . S
C1048 C1050 1.381 . S
C1048 C1054 1.383 . S
C1049 C1045 1.495 . S
C1049 H1055 0.959 . S
C1049 H1056 0.961 . S
C1049 H1057 0.960 . S
C1050 C1048 1.381 . S
C1050 C1051 1.394 . S
C1050 H1058 0.930 . S
C1051 C1050 1.394 . S
C1051 C1052 1.383 . S
C1051 H1059 0.929 . S
C1052 C1051 1.383 . S
C1052 C1053 1.377 . S
C1053 H1037 0.930 . S
C1053 C1052 1.377 . S
C1053 C1054 1.379 . S
C1054 H1038 0.931 . S
C1054 C1048 1.383 . S
C1054 C1053 1.379 . S
H1055 C1049 0.959 . S
H1056 C1049 0.961 . S
H1057 C1049 0.960 . S
H1058 C1050 0.930 . S
H1059 C1051 0.929 . S
H1060 C1068 0.929 . S
H1061 C1070 0.930 . S
H1062 C1072 0.930 . S
H1063 C1075 0.929 . S
H1064 C1078 0.930 . S
H1065 C1080 0.960 . S
H1066 C1080 0.960 . S
H1067 C1080 0.960 . S
C1068 H1060 0.929 . S
C1068 C1069 1.377 . S
C1068 C1070 1.384 . S
C1069 C1068 1.377 . S
C1069 C1075 1.390 . S
C1070 H1061 0.930 . S
C1070 C1068 1.384 . S
C1070 C1071 1.372 . S
C1071 C1070 1.372 . S
C1071 C1072 1.400 . S
C1071 C1076 1.490 . S
C1072 H1062 0.930 . S
C1072 C1071 1.400 . S
C1072 C1075 1.386 . S
H1073 C1089 0.930 . S
H1074 C1090 0.931 . S
C1075 H1063 0.929 . S
C1075 C1069 1.390 . S
C1075 C1072 1.386 . S
C1076 C1071 1.490 . S
C1076 C1078 1.395 . S
C1076 C1079 1.403 . S
H1077 C1083 0.930 . S
C1078 H1064 0.930 . S
C1078 C1076 1.395 . S
C1078 C1081 1.403 . S
C1079 C1076 1.403 . S
C1079 C1080 1.524 . S
C1079 C1083 1.400 . S
C1080 H1065 0.960 . S
C1080 H1066 0.960 . S
C1080 H1067 0.960 . S
C1080 C1079 1.524 . S
C1081 C1078 1.403 . S
C1081 C1082 1.392 . S
C1081 C1085 1.495 . S
C1082 C1081 1.392 . S
C1082 C1083 1.385 . S
C1082 C1084 1.478 . S
C1083 H1077 0.930 . S
C1083 C1079 1.400 . S
C1083 C1082 1.385 . S
C1084 C1082 1.478 . S
C1084 C1086 1.381 . S
C1084 C1090 1.383 . S
C1085 C1081 1.495 . S
C1085 H1091 0.959 . S
C1085 H1092 0.961 . S
C1085 H1093 0.960 . S
C1086 C1084 1.381 . S
C1086 C1087 1.394 . S
C1086 H1094 0.930 . S
C1087 C1086 1.394 . S
C1087 C1088 1.383 . S
C1087 H1095 0.929 . S
C1088 C1087 1.383 . S
C1088 C1089 1.377 . S
C1089 H1073 0.930 . S
C1089 C1088 1.377 . S
C1089 C1090 1.379 . S
C1090 H1074 0.931 . S
C1090 C1084 1.383 . S
C1090 C1089 1.379 . S
H1091 C1085 0.959 . S
H1092 C1085 0.961 . S
H1093 C1085 0.960 . S
H1094 C1086 0.930 . S
H1095 C1087 0.929 . S
H1096 C1104 0.929 . S
H1097 C1106 0.930 . S
H1098 C1108 0.930 . S
H1099 C1111 0.929 . S
H1100 C1114 0.930 . S
H1101 C1116 0.960 . S
H1102 C1116 0.960 . S
H1103 C1116 0.960 . S
C1104 H1096 0.929 . S
C1104 C1105 1.377 . S
C1104 C1106 1.384 . S
C1105 C1104 1.377 . S
C1105 C1111 1.390 . S
C1106 H1097 0.930 . S
C1106 C1104 1.384 . S
C1106 C1107 1.372 . S
C1107 C1106 1.372 . S
C1107 C1108 1.400 . S
C1107 C1112 1.490 . S
C1108 H1098 0.930 . S
C1108 C1107 1.400 . S
C1108 C1111 1.386 . S
H1109 C1125 0.930 . S
H1110 C1126 0.931 . S
C1111 H1099 0.929 . S
C1111 C1105 1.390 . S
C1111 C1108 1.386 . S
C1112 C1107 1.490 . S
C1112 C1114 1.395 . S
C1112 C1115 1.403 . S
H1113 C1119 0.930 . S
C1114 H1100 0.930 . S
C1114 C1112 1.395 . S
C1114 C1117 1.403 . S
C1115 C1112 1.403 . S
C1115 C1116 1.524 . S
C1115 C1119 1.400 . S
C1116 H1101 0.960 . S
C1116 H1102 0.960 . S
C1116 H1103 0.960 . S
C1116 C1115 1.524 . S
C1117 C1114 1.403 . S
C1117 C1118 1.392 . S
C1117 C1121 1.495 . S
C1118 C1117 1.392 . S
C1118 C1119 1.385 . S
C1118 C1120 1.478 . S
C1119 H1113 0.930 . S
C1119 C1115 1.400 . S
C1119 C1118 1.385 . S
C1120 C1118 1.478 . S
C1120 C1122 1.381 . S
C1120 C1126 1.383 . S
C1121 C1117 1.495 . S
C1121 H1127 0.959 . S
C1121 H1128 0.961 . S
C1121 H1129 0.960 . S
C1122 C1120 1.381 . S
C1122 C1123 1.394 . S
C1122 H1130 0.930 . S
C1123 C1122 1.394 . S
C1123 C1124 1.383 . S
C1123 H1131 0.929 . S
C1124 C1123 1.383 . S
C1124 C1125 1.377 . S
C1125 H1109 0.930 . S
C1125 C1124 1.377 . S
C1125 C1126 1.379 . S
C1126 H1110 0.931 . S
C1126 C1120 1.383 . S
C1126 C1125 1.379 . S
H1127 C1121 0.959 . S
H1128 C1121 0.961 . S
H1129 C1121 0.960 . S
H1130 C1122 0.930 . S
H1131 C1123 0.929 . S
H1132 C1140 0.929 . S
H1133 C1142 0.930 . S
H1134 C1144 0.930 . S
H1135 C1147 0.929 . S
H1136 C1150 0.930 . S
H1137 C1152 0.960 . S
H1138 C1152 0.960 . S
H1139 C1152 0.960 . S
C1140 H1132 0.929 . S
C1140 C1141 1.377 . S
C1140 C1142 1.384 . S
C1141 C1140 1.377 . S
C1141 C1147 1.390 . S
C1142 H1133 0.930 . S
C1142 C1140 1.384 . S
C1142 C1143 1.372 . S
C1143 C1142 1.372 . S
C1143 C1144 1.400 . S
C1143 C1148 1.490 . S
C1144 H1134 0.930 . S
C1144 C1143 1.400 . S
C1144 C1147 1.386 . S
H1145 C1161 0.930 . S
H1146 C1162 0.931 . S
C1147 H1135 0.929 . S
C1147 C1141 1.390 . S
C1147 C1144 1.386 . S
C1148 C1143 1.490 . S
C1148 C1150 1.395 . S
C1148 C1151 1.403 . S
H1149 C1155 0.930 . S
C1150 H1136 0.930 . S
C1150 C1148 1.395 . S
C1150 C1153 1.403 . S
C1151 C1148 1.403 . S
C1151 C1152 1.524 . S
C1151 C1155 1.400 . S
C1152 H1137 0.960 . S
C1152 H1138 0.960 . S
C1152 H1139 0.960 . S
C1152 C1151 1.524 . S
C1153 C1150 1.403 . S
C1153 C1154 1.392 . S
C1153 C1157 1.495 . S
C1154 C1153 1.392 . S
C1154 C1155 1.385 . S
C1154 C1156 1.478 . S
C1155 H1149 0.930 . S
C1155 C1151 1.400 . S
C1155 C1154 1.385 . S
C1156 C1154 1.478 . S
C1156 C1158 1.381 . S
C1156 C1162 1.383 . S
C1157 C1153 1.495 . S
C1157 H1163 0.959 . S
C1157 H1164 0.961 . S
C1157 H1165 0.960 . S
C1158 C1156 1.381 . S
C1158 C1159 1.394 . S
C1158 H1166 0.930 . S
C1159 C1158 1.394 . S
C1159 C1160 1.383 . S
C1159 H1167 0.929 . S
C1160 C1159 1.383 . S
C1160 C1161 1.377 . S
C1161 H1145 0.930 . S
C1161 C1160 1.377 . S
C1161 C1162 1.379 . S
C1162 H1146 0.931 . S
C1162 C1156 1.383 . S
C1162 C1161 1.379 . S
H1163 C1157 0.959 . S
H1164 C1157 0.961 . S
H1165 C1157 0.960 . S
H1166 C1158 0.930 . S
H1167 C1159 0.929 . S
H1168 C1176 0.929 . S
H1169 C1178 0.930 . S
H1170 C1180 0.930 . S
H1171 C1183 0.929 . S
H1172 C1186 0.930 . S
H1173 C1188 0.960 . S
H1174 C1188 0.960 . S
H1175 C1188 0.960 . S
C1176 H1168 0.929 . S
C1176 C1177 1.377 . S
C1176 C1178 1.384 . S
C1177 C1176 1.377 . S
C1177 C1183 1.390 . S
C1178 H1169 0.930 . S
C1178 C1176 1.384 . S
C1178 C1179 1.372 . S
C1179 C1178 1.372 . S
C1179 C1180 1.400 . S
C1179 C1184 1.490 . S
C1180 H1170 0.930 . S
C1180 C1179 1.400 . S
C1180 C1183 1.386 . S
H1181 C1197 0.930 . S
H1182 C1198 0.931 . S
C1183 H1171 0.929 . S
C1183 C1177 1.390 . S
C1183 C1180 1.386 . S
C1184 C1179 1.490 . S
C1184 C1186 1.395 . S
C1184 C1187 1.403 . S
H1185 C1191 0.930 . S
C1186 H1172 0.930 . S
C1186 C1184 1.395 . S
C1186 C1189 1.403 . S
C1187 C1184 1.403 . S
C1187 C1188 1.524 . S
C1187 C1191 1.400 . S
C1188 H1173 0.960 . S
C1188 H1174 0.960 . S
C1188 H1175 0.960 . S
C1188 C1187 1.524 . S
C1189 C1186 1.403 . S
C1189 C1190 1.392 . S
C1189 C1193 1.495 . S
C1190 C1189 1.392 . S
C1190 C1191 1.385 . S
C1190 C1192 1.478 . S
C1191 H1185 0.930 . S
C1191 C1187 1.400 . S
C1191 C1190 1.385 . S
C1192 C1190 1.478 . S
C1192 C1194 1.381 . S
C1192 C1198 1.383 . S
C1193 C1189 1.495 . S
C1193 H1199 0.959 . S
C1193 H1200 0.961 . S
C1193 H1201 0.960 . S
C1194 C1192 1.381 . S
C1194 C1195 1.394 . S
C1194 H1202 0.930 . S
C1195 C1194 1.394 . S
C1195 C1196 1.383 . S
C1195 H1203 0.929 . S
C1196 C1195 1.383 . S
C1196 C1197 1.377 . S
C1197 H1181 0.930 . S
C1197 C1196 1.377 . S
C1197 C1198 1.379 . S
C1198 H1182 0.931 . S
C1198 C1192 1.383 . S
C1198 C1197 1.379 . S
H1199 C1193 0.959 . S
H1200 C1193 0.961 . S
H1201 C1193 0.960 . S
H1202 C1194 0.930 . S
H1203 C1195 0.929 . S
H1204 C1212 0.929 . S
H1205 C1214 0.930 . S
H1206 C1216 0.930 . S
H1207 C1219 0.929 . S
H1208 C1222 0.930 . S
H1209 C1224 0.960 . S
H1210 C1224 0.960 . S
H1211 C1224 0.960 . S
C1212 H1204 0.929 . S
C1212 C1213 1.377 . S
C1212 C1214 1.384 . S
C1213 C1212 1.377 . S
C1213 C1219 1.390 . S
C1214 H1205 0.930 . S
C1214 C1212 1.384 . S
C1214 C1215 1.372 . S
C1215 C1214 1.372 . S
C1215 C1216 1.400 . S
C1215 C1220 1.490 . S
C1216 H1206 0.930 . S
C1216 C1215 1.400 . S
C1216 C1219 1.386 . S
H1217 C1233 0.930 . S
H1218 C1234 0.931 . S
C1219 H1207 0.929 . S
C1219 C1213 1.390 . S
C1219 C1216 1.386 . S
C1220 C1215 1.490 . S
C1220 C1222 1.395 . S
C1220 C1223 1.403 . S
H1221 C1227 0.930 . S
C1222 H1208 0.930 . S
C1222 C1220 1.395 . S
C1222 C1225 1.403 . S
C1223 C1220 1.403 . S
C1223 C1224 1.524 . S
C1223 C1227 1.400 . S
C1224 H1209 0.960 . S
C1224 H1210 0.960 . S
C1224 H1211 0.960 . S
C1224 C1223 1.524 . S
C1225 C1222 1.403 . S
C1225 C1226 1.392 . S
C1225 C1229 1.495 . S
C1226 C1225 1.392 . S
C1226 C1227 1.385 . S
C1226 C1228 1.478 . S
C1227 H1221 0.930 . S
C1227 C1223 1.400 . S
C1227 C1226 1.385 . S
C1228 C1226 1.478 . S
C1228 C1230 1.381 . S
C1228 C1234 1.383 . S
C1229 C1225 1.495 . S
C1229 H1235 0.959 . S
C1229 H1236 0.961 . S
C1229 H1237 0.960 . S
C1230 C1228 1.381 . S
C1230 C1231 1.394 . S
C1230 H1238 0.930 . S
C1231 C1230 1.394 . S
C1231 C1232 1.383 . S
C1231 H1239 0.929 . S
C1232 C1231 1.383 . S
C1232 C1233 1.377 . S
C1233 H1217 0.930 . S
C1233 C1232 1.377 . S
C1233 C1234 1.379 . S
C1234 H1218 0.931 . S
C1234 C1228 1.383 . S
C1234 C1233 1.379 . S
H1235 C1229 0.959 . S
H1236 C1229 0.961 . S
H1237 C1229 0.960 . S
H1238 C1230 0.930 . S
H1239 C1231 0.929 . S
H1240 C1248 0.929 . S
H1241 C1250 0.930 . S
H1242 C1252 0.930 . S
H1243 C1255 0.929 . S
H1244 C1258 0.930 . S
H1245 C1260 0.960 . S
H1246 C1260 0.960 . S
H1247 C1260 0.960 . S
C1248 H1240 0.929 . S
C1248 C1249 1.377 . S
C1248 C1250 1.384 . S
C1249 C1248 1.377 . S
C1249 C1255 1.390 . S
C1250 H1241 0.930 . S
C1250 C1248 1.384 . S
C1250 C1251 1.372 . S
C1251 C1250 1.372 . S
C1251 C1252 1.400 . S
C1251 C1256 1.490 . S
C1252 H1242 0.930 . S
C1252 C1251 1.400 . S
C1252 C1255 1.386 . S
H1253 C1269 0.930 . S
H1254 C1270 0.931 . S
C1255 H1243 0.929 . S
C1255 C1249 1.390 . S
C1255 C1252 1.386 . S
C1256 C1251 1.490 . S
C1256 C1258 1.395 . S
C1256 C1259 1.403 . S
H1257 C1263 0.930 . S
C1258 H1244 0.930 . S
C1258 C1256 1.395 . S
C1258 C1261 1.403 . S
C1259 C1256 1.403 . S
C1259 C1260 1.524 . S
C1259 C1263 1.400 . S
C1260 H1245 0.960 . S
C1260 H1246 0.960 . S
C1260 H1247 0.960 . S
C1260 C1259 1.524 . S
C1261 C1258 1.403 . S
C1261 C1262 1.392 . S
C1261 C1265 1.495 . S
C1262 C1261 1.392 . S
C1262 C1263 1.385 . S
C1262 C1264 1.478 . S
C1263 H1257 0.930 . S
C1263 C1259 1.400 . S
C1263 C1262 1.385 . S
C1264 C1262 1.478 . S
C1264 C1266 1.381 . S
C1264 C1270 1.383 . S
C1265 C1261 1.495 . S
C1265 H1271 0.959 . S
C1265 H1272 0.961 . S
C1265 H1273 0.960 . S
C1266 C1264 1.381 . S
C1266 C1267 1.394 . S
C1266 H1274 0.930 . S
C1267 C1266 1.394 . S
C1267 C1268 1.383 . S
C1267 H1275 0.929 . S
C1268 C1267 1.383 . S
C1268 C1269 1.377 . S
C1269 H1253 0.930 . S
C1269 C1268 1.377 . S
C1269 C1270 1.379 . S
C1270 H1254 0.931 . S
C1270 C1264 1.383 . S
C1270 C1269 1.379 . S
H1271 C1265 0.959 . S
H1272 C1265 0.961 . S
H1273 C1265 0.960 . S
H1274 C1266 0.930 . S
H1275 C1267 0.929 . S
H1276 C1284 0.929 . S
H1277 C1286 0.930 . S
H1278 C1288 0.930 . S
H1279 C1291 0.929 . S
H1280 C1294 0.930 . S
H1281 C1296 0.960 . S
H1282 C1296 0.960 . S
H1283 C1296 0.960 . S
C1284 H1276 0.929 . S
C1284 C1285 1.377 . S
C1284 C1286 1.384 . S
C1285 C1284 1.377 . S
C1285 C1291 1.390 . S
C1286 H1277 0.930 . S
C1286 C1284 1.384 . S
C1286 C1287 1.372 . S
C1287 C1286 1.372 . S
C1287 C1288 1.400 . S
C1287 C1292 1.490 . S
C1288 H1278 0.930 . S
C1288 C1287 1.400 . S
C1288 C1291 1.386 . S
H1289 C1305 0.930 . S
H1290 C1306 0.931 . S
C1291 H1279 0.929 . S
C1291 C1285 1.390 . S
C1291 C1288 1.386 . S
C1292 C1287 1.490 . S
C1292 C1294 1.395 . S
C1292 C1295 1.403 . S
H1293 C1299 0.930 . S
C1294 H1280 0.930 . S
C1294 C1292 1.395 . S
C1294 C1297 1.403 . S
C1295 C1292 1.403 . S
C1295 C1296 1.524 . S
C1295 C1299 1.400 . S
C1296 H1281 0.960 . S
C1296 H1282 0.960 . S
C1296 H1283 0.960 . S
C1296 C1295 1.524 . S
C1297 C1294 1.403 . S
C1297 C1298 1.392 . S
C1297 C1301 1.495 . S
C1298 C1297 1.392 . S
C1298 C1299 1.385 . S
C1298 C1300 1.478 . S
C1299 H1293 0.930 . S
C1299 C1295 1.400 . S
C1299 C1298 1.385 . S
C1300 C1298 1.478 . S
C1300 C1302 1.381 . S
C1300 C1306 1.383 . S
C1301 C1297 1.495 . S
C1301 H1307 0.959 . S
C1301 H1308 0.961 . S
C1301 H1309 0.960 . S
C1302 C1300 1.381 . S
C1302 C1303 1.394 . S
C1302 H1310 0.930 . S
C1303 C1302 1.394 . S
C1303 C1304 1.383 . S
C1303 H1311 0.929 . S
C1304 C1303 1.383 . S
C1304 C1305 1.377 . S
C1305 H1289 0.930 . S
C1305 C1304 1.377 . S
C1305 C1306 1.379 . S
C1306 H1290 0.931 . S
C1306 C1300 1.383 . S
C1306 C1305 1.379 . S
H1307 C1301 0.959 . S
H1308 C1301 0.961 . S
H1309 C1301 0.960 . S
H1310 C1302 0.930 . S
H1311 C1303 0.929 . S
H1312 C1320 0.929 . S
H1313 C1322 0.930 . S
H1314 C1324 0.930 . S
H1315 C1327 0.929 . S
H1316 C1330 0.930 . S
H1317 C1332 0.960 . S
H1318 C1332 0.960 . S
H1319 C1332 0.960 . S
C1320 H1312 0.929 . S
C1320 C1321 1.377 . S
C1320 C1322 1.384 . S
C1321 C1320 1.377 . S
C1321 C1327 1.390 . S
C1322 H1313 0.930 . S
C1322 C1320 1.384 . S
C1322 C1323 1.372 . S
C1323 C1322 1.372 . S
C1323 C1324 1.400 . S
C1323 C1328 1.490 . S
C1324 H1314 0.930 . S
C1324 C1323 1.400 . S
C1324 C1327 1.386 . S
H1325 C1341 0.930 . S
H1326 C1342 0.931 . S
C1327 H1315 0.929 . S
C1327 C1321 1.390 . S
C1327 C1324 1.386 . S
C1328 C1323 1.490 . S
C1328 C1330 1.395 . S
C1328 C1331 1.403 . S
H1329 C1335 0.930 . S
C1330 H1316 0.930 . S
C1330 C1328 1.395 . S
C1330 C1333 1.403 . S
C1331 C1328 1.403 . S
C1331 C1332 1.524 . S
C1331 C1335 1.400 . S
C1332 H1317 0.960 . S
C1332 H1318 0.960 . S
C1332 H1319 0.960 . S
C1332 C1331 1.524 . S
C1333 C1330 1.403 . S
C1333 C1334 1.392 . S
C1333 C1337 1.495 . S
C1334 C1333 1.392 . S
C1334 C1335 1.385 . S
C1334 C1336 1.478 . S
C1335 H1329 0.930 . S
C1335 C1331 1.400 . S
C1335 C1334 1.385 . S
C1336 C1334 1.478 . S
C1336 C1338 1.381 . S
C1336 C1342 1.383 . S
C1337 C1333 1.495 . S
C1337 H1343 0.959 . S
C1337 H1344 0.961 . S
C1337 H1345 0.960 . S
C1338 C1336 1.381 . S
C1338 C1339 1.394 . S
C1338 H1346 0.930 . S
C1339 C1338 1.394 . S
C1339 C1340 1.383 . S
C1339 H1347 0.929 . S
C1340 C1339 1.383 . S
C1340 C1341 1.377 . S
C1341 H1325 0.930 . S
C1341 C1340 1.377 . S
C1341 C1342 1.379 . S
C1342 H1326 0.931 . S
C1342 C1336 1.383 . S
C1342 C1341 1.379 . S
H1343 C1337 0.959 . S
H1344 C1337 0.961 . S
H1345 C1337 0.960 . S
H1346 C1338 0.930 . S
H1347 C1339 0.929 . S
H1348 C1356 0.929 . S
H1349 C1358 0.930 . S
H1350 C1360 0.930 . S
H1351 C1363 0.929 . S
H1352 C1366 0.930 . S
H1353 C1368 0.960 . S
H1354 C1368 0.960 . S
H1355 C1368 0.960 . S
C1356 H1348 0.929 . S
C1356 C1357 1.377 . S
C1356 C1358 1.384 . S
C1357 C1356 1.377 . S
C1357 C1363 1.390 . S
C1358 H1349 0.930 . S
C1358 C1356 1.384 . S
C1358 C1359 1.372 . S
C1359 C1358 1.372 . S
C1359 C1360 1.400 . S
C1359 C1364 1.490 . S
C1360 H1350 0.930 . S
C1360 C1359 1.400 . S
C1360 C1363 1.386 . S
H1361 C1377 0.930 . S
H1362 C1378 0.931 . S
C1363 H1351 0.929 . S
C1363 C1357 1.390 . S
C1363 C1360 1.386 . S
C1364 C1359 1.490 . S
C1364 C1366 1.395 . S
C1364 C1367 1.403 . S
H1365 C1371 0.930 . S
C1366 H1352 0.930 . S
C1366 C1364 1.395 . S
C1366 C1369 1.403 . S
C1367 C1364 1.403 . S
C1367 C1368 1.524 . S
C1367 C1371 1.400 . S
C1368 H1353 0.960 . S
C1368 H1354 0.960 . S
C1368 H1355 0.960 . S
C1368 C1367 1.524 . S
C1369 C1366 1.403 . S
C1369 C1370 1.392 . S
C1369 C1373 1.495 . S
C1370 C1369 1.392 . S
C1370 C1371 1.385 . S
C1370 C1372 1.478 . S
C1371 H1365 0.930 . S
C1371 C1367 1.400 . S
C1371 C1370 1.385 . S
C1372 C1370 1.478 . S
C1372 C1374 1.381 . S
C1372 C1378 1.383 . S
C1373 C1369 1.495 . S
C1373 H1379 0.959 1_655 S
C1373 H1380 0.961 1_655 S
C1373 H1381 0.960 . S
C1374 C1372 1.381 . S
C1374 C1375 1.394 . S
C1374 H1382 0.930 . S
C1375 C1374 1.394 . S
C1375 C1376 1.383 . S
C1375 H1383 0.929 . S
C1376 C1375 1.383 . S
C1376 C1377 1.377 . S
C1377 H1361 0.930 . S
C1377 C1376 1.377 . S
C1377 C1378 1.379 . S
C1378 H1362 0.931 . S
C1378 C1372 1.383 . S
C1378 C1377 1.379 . S
H1379 C1373 0.959 1_455 S
H1380 C1373 0.961 1_455 S
H1381 C1373 0.960 . S
H1382 C1374 0.930 . S
H1383 C1375 0.929 . S
H1384 C1392 0.929 . S
H1385 C1394 0.930 . S
H1386 C1396 0.930 . S
H1387 C1399 0.929 . S
H1388 C1402 0.930 . S
H1389 C1404 0.960 . S
H1390 C1404 0.960 . S
H1391 C1404 0.960 . S
C1392 H1384 0.929 . S
C1392 C1393 1.377 . S
C1392 C1394 1.384 . S
C1393 C1392 1.377 . S
C1393 C1399 1.390 . S
C1394 H1385 0.930 . S
C1394 C1392 1.384 . S
C1394 C1395 1.372 . S
C1395 C1394 1.372 . S
C1395 C1396 1.400 . S
C1395 C1400 1.490 . S
C1396 H1386 0.930 . S
C1396 C1395 1.400 . S
C1396 C1399 1.386 . S
H1397 C1413 0.930 . S
H1398 C1414 0.931 1_565 S
C1399 H1387 0.929 . S
C1399 C1393 1.390 . S
C1399 C1396 1.386 . S
C1400 C1395 1.490 . S
C1400 C1402 1.395 . S
C1400 C1403 1.403 . S
H1401 C1407 0.930 . S
C1402 H1388 0.930 . S
C1402 C1400 1.395 . S
C1402 C1405 1.403 . S
C1403 C1400 1.403 . S
C1403 C1404 1.524 . S
C1403 C1407 1.400 . S
C1404 H1389 0.960 . S
C1404 H1390 0.960 . S
C1404 H1391 0.960 . S
C1404 C1403 1.524 . S
C1405 C1402 1.403 . S
C1405 C1406 1.392 . S
C1405 C1409 1.495 . S
C1406 C1405 1.392 . S
C1406 C1407 1.385 . S
C1406 C1408 1.478 . S
C1407 H1401 0.930 . S
C1407 C1403 1.400 . S
C1407 C1406 1.385 . S
C1408 C1406 1.478 . S
C1408 C1410 1.381 . S
C1408 C1414 1.383 1_565 S
C1409 C1405 1.495 . S
C1409 H1415 0.959 . S
C1409 H1416 0.961 . S
C1409 H1417 0.960 . S
C1410 C1408 1.381 . S
C1410 C1411 1.394 1_565 S
C1410 H1418 0.930 . S
C1411 C1410 1.394 1_545 S
C1411 C1412 1.383 . S
C1411 H1419 0.929 . S
C1412 C1411 1.383 . S
C1412 C1413 1.377 . S
C1413 H1397 0.930 . S
C1413 C1412 1.377 . S
C1413 C1414 1.379 . S
C1414 H1398 0.931 1_545 S
C1414 C1408 1.383 1_545 S
C1414 C1413 1.379 . S
H1415 C1409 0.959 . S
H1416 C1409 0.961 . S
H1417 C1409 0.960 . S
H1418 C1410 0.930 . S
H1419 C1411 0.929 . S
H1420 C1428 0.929 . S
H1421 C1430 0.930 . S
H1422 C1432 0.930 . S
H1423 C1435 0.929 . S
H1424 C1438 0.930 . S
H1425 C1440 0.960 . S
H1426 C1440 0.960 . S
H1427 C1440 0.960 . S
C1428 H1420 0.929 . S
C1428 C1429 1.377 . S
C1428 C1430 1.384 . S
C1429 C1428 1.377 . S
C1429 C1435 1.390 . S
C1430 H1421 0.930 . S
C1430 C1428 1.384 . S
C1430 C1431 1.372 . S
C1431 C1430 1.372 . S
C1431 C1432 1.400 . S
C1431 C1436 1.490 . S
C1432 H1422 0.930 . S
C1432 C1431 1.400 . S
C1432 C1435 1.386 . S
H1433 C1449 0.930 . S
H1434 C1450 0.931 . S
C1435 H1423 0.929 . S
C1435 C1429 1.390 . S
C1435 C1432 1.386 . S
C1436 C1431 1.490 . S
C1436 C1438 1.395 . S
C1436 C1439 1.403 . S
H1437 C1443 0.930 . S
C1438 H1424 0.930 . S
C1438 C1436 1.395 . S
C1438 C1441 1.403 . S
C1439 C1436 1.403 . S
C1439 C1440 1.524 . S
C1439 C1443 1.400 . S
C1440 H1425 0.960 . S
C1440 H1426 0.960 . S
C1440 H1427 0.960 . S
C1440 C1439 1.524 . S
C1441 C1438 1.403 . S
C1441 C1442 1.392 . S
C1441 C1445 1.495 . S
C1442 C1441 1.392 . S
C1442 C1443 1.385 . S
C1442 C1444 1.478 . S
C1443 H1437 0.930 . S
C1443 C1439 1.400 . S
C1443 C1442 1.385 . S
C1444 C1442 1.478 . S
C1444 C1446 1.381 . S
C1444 C1450 1.383 . S
C1445 C1441 1.495 . S
C1445 H1451 0.959 . S
C1445 H1452 0.961 . S
C1445 H1453 0.960 . S
C1446 C1444 1.381 . S
C1446 C1447 1.394 . S
C1446 H1454 0.930 . S
C1447 C1446 1.394 . S
C1447 C1448 1.383 . S
C1447 H1455 0.929 . S
C1448 C1447 1.383 . S
C1448 C1449 1.377 . S
C1449 H1433 0.930 . S
C1449 C1448 1.377 . S
C1449 C1450 1.379 . S
C1450 H1434 0.931 . S
C1450 C1444 1.383 . S
C1450 C1449 1.379 . S
H1451 C1445 0.959 . S
H1452 C1445 0.961 . S
H1453 C1445 0.960 . S
H1454 C1446 0.930 . S
H1455 C1447 0.929 . S
H1456 C1464 0.929 . S
H1457 C1466 0.930 . S
H1458 C1468 0.930 . S
H1459 C1471 0.929 . S
H1460 C1474 0.928 . S
H1461 C1476 0.960 . S
H1462 C1476 0.960 . S
H1463 C1476 0.960 1_545 S
C1464 H1456 0.929 . S
C1464 C1465 1.377 . S
C1464 C1466 1.384 . S
C1465 C1464 1.377 . S
C1465 C1471 1.390 . S
C1466 H1457 0.930 . S
C1466 C1464 1.384 . S
C1466 C1467 1.372 . S
C1467 C1466 1.372 . S
C1467 C1468 1.400 . S
C1467 C1472 1.490 . S
C1468 H1458 0.930 . S
C1468 C1467 1.400 . S
C1468 C1471 1.386 . S
H1469 C1485 0.930 . S
H1470 C1486 0.931 . S
C1471 H1459 0.929 . S
C1471 C1465 1.390 . S
C1471 C1468 1.386 . S
C1472 C1467 1.490 . S
C1472 C1474 1.394 1_556 S
C1472 C1475 1.403 1_545 S
H1473 C1479 0.930 . S
C1474 H1460 0.928 . S
C1474 C1472 1.394 1_554 S
C1474 C1477 1.406 1_545 S
C1475 C1472 1.403 1_565 S
C1475 C1476 1.524 . S
C1475 C1479 1.400 . S
C1476 H1461 0.960 . S
C1476 H1462 0.960 . S
C1476 H1463 0.960 1_565 S
C1476 C1475 1.524 . S
C1477 C1474 1.406 1_565 S
C1477 C1478 1.392 . S
C1477 C1481 1.495 . S
C1478 C1477 1.392 . S
C1478 C1479 1.385 1_554 S
C1478 C1480 1.478 . S
C1479 H1473 0.930 . S
C1479 C1475 1.400 . S
C1479 C1478 1.385 1_556 S
C1480 C1478 1.478 . S
C1480 C1482 1.381 . S
C1480 C1486 1.383 . S
C1481 C1477 1.495 . S
C1481 H1487 0.959 . S
C1481 H1488 0.961 . S
C1481 H1489 0.960 . S
C1482 C1480 1.381 . S
C1482 C1483 1.394 . S
C1482 H1490 0.930 . S
C1483 C1482 1.394 . S
C1483 C1484 1.383 . S
C1483 H1491 0.929 . S
C1484 C1483 1.383 . S
C1484 C1485 1.377 . S
C1485 H1469 0.930 . S
C1485 C1484 1.377 . S
C1485 C1486 1.379 . S
C1486 H1470 0.931 . S
C1486 C1480 1.383 . S
C1486 C1485 1.379 . S
H1487 C1481 0.959 . S
H1488 C1481 0.961 . S
H1489 C1481 0.960 . S
H1490 C1482 0.930 . S
H1491 C1483 0.929 . S
H1492 C1500 0.929 . S
H1493 C1502 0.930 . S
H1494 C1504 0.930 . S
H1495 C1507 0.929 . S
H1496 C1510 0.930 . S
H1497 C1512 0.960 . S
H1498 C1512 0.960 . S
H1499 C1512 0.960 . S
C1500 H1492 0.929 . S
C1500 C1501 1.377 . S
C1500 C1502 1.384 . S
C1501 C1500 1.377 . S
C1501 C1507 1.390 . S
C1502 H1493 0.930 . S
C1502 C1500 1.384 . S
C1502 C1503 1.372 . S
C1503 C1502 1.372 . S
C1503 C1504 1.400 . S
C1503 C1508 1.490 . S
C1504 H1494 0.930 . S
C1504 C1503 1.400 . S
C1504 C1507 1.386 . S
H1505 C1521 0.930 . S
H1506 C1522 0.931 . S
C1507 H1495 0.929 . S
C1507 C1501 1.390 . S
C1507 C1504 1.386 . S
C1508 C1503 1.490 . S
C1508 C1510 1.395 . S
C1508 C1511 1.403 . S
H1509 C1515 0.930 . S
C1510 H1496 0.930 . S
C1510 C1508 1.395 . S
C1510 C1513 1.403 . S
C1511 C1508 1.403 . S
C1511 C1512 1.524 . S
C1511 C1515 1.400 . S
C1512 H1497 0.960 . S
C1512 H1498 0.960 . S
C1512 H1499 0.960 . S
C1512 C1511 1.524 . S
C1513 C1510 1.403 . S
C1513 C1514 1.392 . S
C1513 C1517 1.495 . S
C1514 C1513 1.392 . S
C1514 C1515 1.385 . S
C1514 C1516 1.478 . S
C1515 H1509 0.930 . S
C1515 C1511 1.400 . S
C1515 C1514 1.385 . S
C1516 C1514 1.478 . S
C1516 C1518 1.381 . S
C1516 C1522 1.383 . S
C1517 C1513 1.495 . S
C1517 H1523 0.959 . S
C1517 H1524 0.961 . S
C1517 H1525 0.960 . S
C1518 C1516 1.381 . S
C1518 C1519 1.394 . S
C1518 H1526 0.930 . S
C1519 C1518 1.394 . S
C1519 C1520 1.383 . S
C1519 H1527 0.929 . S
C1520 C1519 1.383 . S
C1520 C1521 1.377 . S
C1521 H1505 0.930 . S
C1521 C1520 1.377 . S
C1521 C1522 1.379 . S
C1522 H1506 0.931 . S
C1522 C1516 1.383 . S
C1522 C1521 1.379 . S
H1523 C1517 0.959 . S
H1524 C1517 0.961 . S
H1525 C1517 0.960 . S
H1526 C1518 0.930 . S
H1527 C1519 0.929 . S
H1528 C1536 0.929 . S
H1529 C1538 0.930 . S
H1530 C1540 0.930 . S
H1531 C1543 0.929 . S
H1532 C1546 0.930 . S
H1533 C1548 0.960 . S
H1534 C1548 0.960 . S
H1535 C1548 0.960 . S
C1536 H1528 0.929 . S
C1536 C1537 1.377 . S
C1536 C1538 1.384 . S
C1537 C1536 1.377 . S
C1537 C1543 1.390 . S
C1538 H1529 0.930 . S
C1538 C1536 1.384 . S
C1538 C1539 1.372 . S
C1539 C1538 1.372 . S
C1539 C1540 1.400 . S
C1539 C1544 1.490 . S
C1540 H1530 0.930 . S
C1540 C1539 1.400 . S
C1540 C1543 1.386 . S
H1541 C1557 0.930 . S
H1542 C1558 0.931 . S
C1543 H1531 0.929 . S
C1543 C1537 1.390 . S
C1543 C1540 1.386 . S
C1544 C1539 1.490 . S
C1544 C1546 1.395 . S
C1544 C1547 1.403 . S
H1545 C1551 0.930 . S
C1546 H1532 0.930 . S
C1546 C1544 1.395 . S
C1546 C1549 1.403 . S
C1547 C1544 1.403 . S
C1547 C1548 1.524 . S
C1547 C1551 1.400 . S
C1548 H1533 0.960 . S
C1548 H1534 0.960 . S
C1548 H1535 0.960 . S
C1548 C1547 1.524 . S
C1549 C1546 1.403 . S
C1549 C1550 1.392 . S
C1549 C1553 1.495 . S
C1550 C1549 1.392 . S
C1550 C1551 1.385 . S
C1550 C1552 1.478 . S
C1551 H1545 0.930 . S
C1551 C1547 1.400 . S
C1551 C1550 1.385 . S
C1552 C1550 1.478 . S
C1552 C1554 1.381 . S
C1552 C1558 1.383 . S
C1553 C1549 1.495 . S
C1553 H1559 0.959 . S
C1553 H1560 0.961 . S
C1553 H1561 0.960 . S
C1554 C1552 1.381 . S
C1554 C1555 1.394 . S
C1554 H1562 0.930 . S
C1555 C1554 1.394 . S
C1555 C1556 1.383 . S
C1555 H1563 0.929 . S
C1556 C1555 1.383 . S
C1556 C1557 1.377 . S
C1557 H1541 0.930 . S
C1557 C1556 1.377 . S
C1557 C1558 1.379 . S
C1558 H1542 0.931 . S
C1558 C1552 1.383 . S
C1558 C1557 1.379 . S
H1559 C1553 0.959 . S
H1560 C1553 0.961 . S
H1561 C1553 0.960 . S
H1562 C1554 0.930 . S
H1563 C1555 0.929 . S
H1564 C1572 0.929 . S
H1565 C1574 0.930 . S
H1566 C1576 0.930 . S
H1567 C1579 0.929 . S
H1568 C1582 0.930 . S
H1569 C1584 0.960 . S
H1570 C1584 0.960 . S
H1571 C1584 0.960 . S
C1572 H1564 0.929 . S
C1572 C1573 1.377 . S
C1572 C1574 1.384 . S
C1573 C1572 1.377 . S
C1573 C1579 1.390 . S
C1574 H1565 0.930 . S
C1574 C1572 1.384 . S
C1574 C1575 1.372 . S
C1575 C1574 1.372 . S
C1575 C1576 1.400 . S
C1575 C1580 1.490 . S
C1576 H1566 0.930 . S
C1576 C1575 1.400 . S
C1576 C1579 1.386 . S
H1577 C1593 0.930 . S
H1578 C1594 0.931 . S
C1579 H1567 0.929 . S
C1579 C1573 1.390 . S
C1579 C1576 1.386 . S
C1580 C1575 1.490 . S
C1580 C1582 1.395 . S
C1580 C1583 1.403 . S
H1581 C1587 0.930 . S
C1582 H1568 0.930 . S
C1582 C1580 1.395 . S
C1582 C1585 1.403 . S
C1583 C1580 1.403 . S
C1583 C1584 1.524 . S
C1583 C1587 1.400 . S
C1584 H1569 0.960 . S
C1584 H1570 0.960 . S
C1584 H1571 0.960 . S
C1584 C1583 1.524 . S
C1585 C1582 1.403 . S
C1585 C1586 1.392 . S
C1585 C1589 1.495 . S
C1586 C1585 1.392 . S
C1586 C1587 1.385 . S
C1586 C1588 1.478 . S
C1587 H1581 0.930 . S
C1587 C1583 1.400 . S
C1587 C1586 1.385 . S
C1588 C1586 1.478 . S
C1588 C1590 1.381 . S
C1588 C1594 1.383 . S
C1589 C1585 1.495 . S
C1589 H1595 0.959 . S
C1589 H1596 0.961 . S
C1589 H1597 0.960 . S
C1590 C1588 1.381 . S
C1590 C1591 1.394 . S
C1590 H1598 0.930 . S
C1591 C1590 1.394 . S
C1591 C1592 1.383 . S
C1591 H1599 0.929 . S
C1592 C1591 1.383 . S
C1592 C1593 1.377 . S
C1593 H1577 0.930 . S
C1593 C1592 1.377 . S
C1593 C1594 1.379 . S
C1594 H1578 0.931 . S
C1594 C1588 1.383 . S
C1594 C1593 1.379 . S
H1595 C1589 0.959 . S
H1596 C1589 0.961 . S
H1597 C1589 0.960 . S
H1598 C1590 0.930 . S
H1599 C1591 0.929 . S
H1600 C1608 0.929 . S
H1601 C1610 0.930 . S
H1602 C1612 0.930 . S
H1603 C1615 0.929 . S
H1604 C1618 0.930 . S
H1605 C1620 0.960 . S
H1606 C1620 0.960 . S
H1607 C1620 0.960 . S
C1608 H1600 0.929 . S
C1608 C1609 1.377 . S
C1608 C1610 1.384 1_565 S
C1609 C1608 1.377 . S
C1609 C1615 1.390 1_565 S
C1610 H1601 0.930 . S
C1610 C1608 1.384 1_545 S
C1610 C1611 1.372 . S
C1611 C1610 1.372 . S
C1611 C1612 1.400 . S
C1611 C1616 1.490 . S
C1612 H1602 0.930 . S
C1612 C1611 1.400 . S
C1612 C1615 1.386 . S
H1613 C1629 0.930 . S
H1614 C1630 0.931 . S
C1615 H1603 0.929 . S
C1615 C1609 1.390 1_545 S
C1615 C1612 1.386 . S
C1616 C1611 1.490 . S
C1616 C1618 1.395 . S
C1616 C1619 1.403 . S
H1617 C1623 0.930 . S
C1618 H1604 0.930 . S
C1618 C1616 1.395 . S
C1618 C1621 1.403 . S
C1619 C1616 1.403 . S
C1619 C1620 1.524 . S
C1619 C1623 1.400 . S
C1620 H1605 0.960 . S
C1620 H1606 0.960 . S
C1620 H1607 0.960 . S
C1620 C1619 1.524 . S
C1621 C1618 1.403 . S
C1621 C1622 1.392 . S
C1621 C1625 1.495 . S
C1622 C1621 1.392 . S
C1622 C1623 1.385 . S
C1622 C1624 1.478 . S
C1623 H1617 0.930 . S
C1623 C1619 1.400 . S
C1623 C1622 1.385 . S
C1624 C1622 1.478 . S
C1624 C1626 1.381 . S
C1624 C1630 1.383 . S
C1625 C1621 1.495 . S
C1625 H1631 0.959 . S
C1625 H1632 0.961 . S
C1625 H1633 0.960 . S
C1626 C1624 1.381 . S
C1626 C1627 1.394 . S
C1626 H1634 0.930 . S
C1627 C1626 1.394 . S
C1627 C1628 1.383 . S
C1627 H1635 0.929 . S
C1628 C1627 1.383 . S
C1628 C1629 1.377 . S
C1629 H1613 0.930 . S
C1629 C1628 1.377 . S
C1629 C1630 1.379 . S
C1630 H1614 0.931 . S
C1630 C1624 1.383 . S
C1630 C1629 1.379 . S
H1631 C1625 0.959 . S
H1632 C1625 0.961 . S
H1633 C1625 0.960 . S
H1634 C1626 0.930 . S
H1635 C1627 0.929 . S
H1636 C1644 0.929 . S
H1637 C1646 0.930 . S
H1638 C1648 0.930 . S
H1639 C1651 0.929 . S
H1640 C1654 0.930 . S
H1641 C1656 0.960 . S
H1642 C1656 0.960 . S
H1643 C1656 0.960 . S
C1644 H1636 0.929 . S
C1644 C1645 1.377 . S
C1644 C1646 1.384 . S
C1645 C1644 1.377 . S
C1645 C1651 1.390 . S
C1646 H1637 0.930 . S
C1646 C1644 1.384 . S
C1646 C1647 1.372 . S
C1647 C1646 1.372 . S
C1647 C1648 1.400 . S
C1647 C1652 1.490 . S
C1648 H1638 0.930 . S
C1648 C1647 1.400 . S
C1648 C1651 1.386 . S
H1649 C1665 0.930 . S
H1650 C1666 0.931 . S
C1651 H1639 0.929 . S
C1651 C1645 1.390 . S
C1651 C1648 1.386 . S
C1652 C1647 1.490 . S
C1652 C1654 1.395 . S
C1652 C1655 1.403 . S
H1653 C1659 0.930 . S
C1654 H1640 0.930 . S
C1654 C1652 1.395 . S
C1654 C1657 1.403 . S
C1655 C1652 1.403 . S
C1655 C1656 1.524 . S
C1655 C1659 1.400 . S
C1656 H1641 0.960 . S
C1656 H1642 0.960 . S
C1656 H1643 0.960 . S
C1656 C1655 1.524 . S
C1657 C1654 1.403 . S
C1657 C1658 1.392 . S
C1657 C1661 1.495 . S
C1658 C1657 1.392 . S
C1658 C1659 1.385 . S
C1658 C1660 1.478 . S
C1659 H1653 0.930 . S
C1659 C1655 1.400 . S
C1659 C1658 1.385 . S
C1660 C1658 1.478 . S
C1660 C1662 1.381 . S
C1660 C1666 1.383 . S
C1661 C1657 1.495 . S
C1661 H1667 0.959 . S
C1661 H1668 0.961 . S
C1661 H1669 0.960 . S
C1662 C1660 1.381 . S
C1662 C1663 1.394 . S
C1662 H1670 0.930 . S
C1663 C1662 1.394 . S
C1663 C1664 1.383 . S
C1663 H1671 0.929 . S
C1664 C1663 1.383 . S
C1664 C1665 1.377 . S
C1665 H1649 0.930 . S
C1665 C1664 1.377 . S
C1665 C1666 1.379 . S
C1666 H1650 0.931 . S
C1666 C1660 1.383 . S
C1666 C1665 1.379 . S
H1667 C1661 0.959 . S
H1668 C1661 0.961 . S
H1669 C1661 0.960 . S
H1670 C1662 0.930 . S
H1671 C1663 0.929 . S
H1672 C1680 0.929 . S
H1673 C1682 0.930 . S
H1674 C1684 0.930 . S
H1675 C1687 0.929 . S
H1676 C1690 0.930 . S
H1677 C1692 0.960 . S
H1678 C1692 0.960 . S
H1679 C1692 0.960 . S
C1680 H1672 0.929 . S
C1680 C1681 1.377 . S
C1680 C1682 1.384 . S
C1681 C1680 1.377 . S
C1681 C1687 1.390 . S
C1682 H1673 0.930 . S
C1682 C1680 1.384 . S
C1682 C1683 1.372 . S
C1683 C1682 1.372 . S
C1683 C1684 1.400 . S
C1683 C1688 1.490 . S
C1684 H1674 0.930 . S
C1684 C1683 1.400 . S
C1684 C1687 1.386 . S
H1685 C1701 0.930 . S
H1686 C1702 0.931 . S
C1687 H1675 0.929 . S
C1687 C1681 1.390 . S
C1687 C1684 1.386 . S
C1688 C1683 1.490 . S
C1688 C1690 1.395 . S
C1688 C1691 1.403 . S
H1689 C1695 0.930 . S
C1690 H1676 0.930 . S
C1690 C1688 1.395 . S
C1690 C1693 1.403 . S
C1691 C1688 1.403 . S
C1691 C1692 1.524 . S
C1691 C1695 1.400 . S
C1692 H1677 0.960 . S
C1692 H1678 0.960 . S
C1692 H1679 0.960 . S
C1692 C1691 1.524 . S
C1693 C1690 1.403 . S
C1693 C1694 1.392 . S
C1693 C1697 1.495 . S
C1694 C1693 1.392 . S
C1694 C1695 1.385 . S
C1694 C1696 1.478 . S
C1695 H1689 0.930 . S
C1695 C1691 1.400 . S
C1695 C1694 1.385 . S
C1696 C1694 1.478 . S
C1696 C1698 1.381 . S
C1696 C1702 1.383 . S
C1697 C1693 1.495 . S
C1697 H1703 0.959 . S
C1697 H1704 0.961 . S
C1697 H1705 0.960 . S
C1698 C1696 1.381 . S
C1698 C1699 1.394 . S
C1698 H1706 0.930 . S
C1699 C1698 1.394 . S
C1699 C1700 1.383 . S
C1699 H1707 0.929 . S
C1700 C1699 1.383 . S
C1700 C1701 1.377 . S
C1701 H1685 0.930 . S
C1701 C1700 1.377 . S
C1701 C1702 1.379 . S
C1702 H1686 0.931 . S
C1702 C1696 1.383 . S
C1702 C1701 1.379 . S
H1703 C1697 0.959 . S
H1704 C1697 0.961 . S
H1705 C1697 0.960 . S
H1706 C1698 0.930 . S
H1707 C1699 0.929 . S
H1708 C1716 0.929 . S
H1709 C1718 0.930 . S
H1710 C1720 0.930 . S
H1711 C1723 0.929 . S
H1712 C1726 0.930 . S
H1713 C1728 0.960 . S
H1714 C1728 0.960 . S
H1715 C1728 0.960 . S
C1716 H1708 0.929 . S
C1716 C1717 1.377 . S
C1716 C1718 1.384 . S
C1717 C1716 1.377 . S
C1717 C1723 1.390 . S
C1718 H1709 0.930 . S
C1718 C1716 1.384 . S
C1718 C1719 1.372 . S
C1719 C1718 1.372 . S
C1719 C1720 1.400 . S
C1719 C1724 1.490 . S
C1720 H1710 0.930 . S
C1720 C1719 1.400 . S
C1720 C1723 1.386 . S
H1721 C1737 0.930 . S
H1722 C1738 0.931 . S
C1723 H1711 0.929 . S
C1723 C1717 1.390 . S
C1723 C1720 1.386 . S
C1724 C1719 1.490 . S
C1724 C1726 1.395 . S
C1724 C1727 1.403 . S
H1725 C1731 0.930 . S
C1726 H1712 0.930 . S
C1726 C1724 1.395 . S
C1726 C1729 1.403 . S
C1727 C1724 1.403 . S
C1727 C1728 1.524 . S
C1727 C1731 1.400 . S
C1728 H1713 0.960 . S
C1728 H1714 0.960 . S
C1728 H1715 0.960 . S
C1728 C1727 1.524 . S
C1729 C1726 1.403 . S
C1729 C1730 1.392 . S
C1729 C1733 1.495 . S
C1730 C1729 1.392 . S
C1730 C1731 1.385 . S
C1730 C1732 1.478 . S
C1731 H1725 0.930 . S
C1731 C1727 1.400 . S
C1731 C1730 1.385 . S
C1732 C1730 1.478 . S
C1732 C1734 1.381 . S
C1732 C1738 1.383 . S
C1733 C1729 1.495 . S
C1733 H1739 0.959 . S
C1733 H1740 0.961 . S
C1733 H1741 0.960 . S
C1734 C1732 1.381 . S
C1734 C1735 1.394 . S
C1734 H1742 0.930 . S
C1735 C1734 1.394 . S
C1735 C1736 1.383 . S
C1735 H1743 0.929 . S
C1736 C1735 1.383 . S
C1736 C1737 1.377 . S
C1737 H1721 0.930 . S
C1737 C1736 1.377 . S
C1737 C1738 1.379 . S
C1738 H1722 0.931 . S
C1738 C1732 1.383 . S
C1738 C1737 1.379 . S
H1739 C1733 0.959 . S
H1740 C1733 0.961 . S
H1741 C1733 0.960 . S
H1742 C1734 0.930 . S
H1743 C1735 0.929 . S
H1744 C1752 0.929 . S
H1745 C1754 0.930 . S
H1746 C1756 0.930 . S
H1747 C1759 0.929 . S
H1748 C1762 0.930 . S
H1749 C1764 0.960 . S
H1750 C1764 0.960 . S
H1751 C1764 0.960 . S
C1752 H1744 0.929 . S
C1752 C1753 1.377 . S
C1752 C1754 1.384 . S
C1753 C1752 1.377 . S
C1753 C1759 1.390 . S
C1754 H1745 0.930 . S
C1754 C1752 1.384 . S
C1754 C1755 1.372 . S
C1755 C1754 1.372 . S
C1755 C1756 1.400 . S
C1755 C1760 1.490 . S
C1756 H1746 0.930 . S
C1756 C1755 1.400 . S
C1756 C1759 1.386 . S
H1757 C1773 0.930 . S
H1758 C1774 0.931 . S
C1759 H1747 0.929 . S
C1759 C1753 1.390 . S
C1759 C1756 1.386 . S
C1760 C1755 1.490 . S
C1760 C1762 1.395 . S
C1760 C1763 1.403 . S
H1761 C1767 0.930 . S
C1762 H1748 0.930 . S
C1762 C1760 1.395 . S
C1762 C1765 1.403 . S
C1763 C1760 1.403 . S
C1763 C1764 1.524 . S
C1763 C1767 1.400 . S
C1764 H1749 0.960 . S
C1764 H1750 0.960 . S
C1764 H1751 0.960 . S
C1764 C1763 1.524 . S
C1765 C1762 1.403 . S
C1765 C1766 1.392 . S
C1765 C1769 1.495 . S
C1766 C1765 1.392 . S
C1766 C1767 1.385 . S
C1766 C1768 1.478 . S
C1767 H1761 0.930 . S
C1767 C1763 1.400 . S
C1767 C1766 1.385 . S
C1768 C1766 1.478 . S
C1768 C1770 1.381 . S
C1768 C1774 1.383 . S
C1769 C1765 1.495 . S
C1769 H1775 0.959 . S
C1769 H1776 0.961 . S
C1769 H1777 0.960 . S
C1770 C1768 1.381 . S
C1770 C1771 1.394 . S
C1770 H1778 0.930 . S
C1771 C1770 1.394 . S
C1771 C1772 1.383 . S
C1771 H1779 0.929 . S
C1772 C1771 1.383 . S
C1772 C1773 1.377 . S
C1773 H1757 0.930 . S
C1773 C1772 1.377 . S
C1773 C1774 1.379 . S
C1774 H1758 0.931 . S
C1774 C1768 1.383 . S
C1774 C1773 1.379 . S
H1775 C1769 0.959 . S
H1776 C1769 0.961 . S
H1777 C1769 0.960 . S
H1778 C1770 0.930 . S
H1779 C1771 0.929 . S
H1780 C1788 0.929 . S
H1781 C1790 0.930 . S
H1782 C1792 0.930 . S
H1783 C1795 0.929 . S
H1784 C1798 0.930 . S
H1785 C1800 0.960 . S
H1786 C1800 0.960 . S
H1787 C1800 0.960 . S
C1788 H1780 0.929 . S
C1788 C1789 1.377 . S
C1788 C1790 1.384 . S
C1789 C1788 1.377 . S
C1789 C1795 1.390 . S
C1790 H1781 0.930 . S
C1790 C1788 1.384 . S
C1790 C1791 1.372 . S
C1791 C1790 1.372 . S
C1791 C1792 1.400 . S
C1791 C1796 1.490 . S
C1792 H1782 0.930 . S
C1792 C1791 1.400 . S
C1792 C1795 1.386 . S
H1793 C1809 0.930 . S
H1794 C1810 0.931 . S
C1795 H1783 0.929 . S
C1795 C1789 1.390 . S
C1795 C1792 1.386 . S
C1796 C1791 1.490 . S
C1796 C1798 1.395 . S
C1796 C1799 1.403 . S
H1797 C1803 0.930 . S
C1798 H1784 0.930 . S
C1798 C1796 1.395 . S
C1798 C1801 1.403 . S
C1799 C1796 1.403 . S
C1799 C1800 1.524 . S
C1799 C1803 1.400 . S
C1800 H1785 0.960 . S
C1800 H1786 0.960 . S
C1800 H1787 0.960 . S
C1800 C1799 1.524 . S
C1801 C1798 1.403 . S
C1801 C1802 1.392 . S
C1801 C1805 1.495 . S
C1802 C1801 1.392 . S
C1802 C1803 1.385 . S
C1802 C1804 1.478 . S
C1803 H1797 0.930 . S
C1803 C1799 1.400 . S
C1803 C1802 1.385 . S
C1804 C1802 1.478 . S
C1804 C1806 1.381 . S
C1804 C1810 1.383 . S
C1805 C1801 1.495 . S
C1805 H1811 0.959 . S
C1805 H1812 0.961 . S
C1805 H1813 0.960 . S
C1806 C1804 1.381 . S
C1806 C1807 1.394 . S
C1806 H1814 0.930 . S
C1807 C1806 1.394 . S
C1807 C1808 1.383 . S
C1807 H1815 0.929 . S
C1808 C1807 1.383 . S
C1808 C1809 1.377 . S
C1809 H1793 0.930 . S
C1809 C1808 1.377 . S
C1809 C1810 1.379 . S
C1810 H1794 0.931 . S
C1810 C1804 1.383 . S
C1810 C1809 1.379 . S
H1811 C1805 0.959 . S
H1812 C1805 0.961 . S
H1813 C1805 0.960 . S
H1814 C1806 0.930 . S
H1815 C1807 0.929 . S
H1816 C1824 0.929 . S
H1817 C1826 0.930 . S
H1818 C1828 0.930 . S
H1819 C1831 0.929 . S
H1820 C1834 0.930 . S
H1821 C1836 0.960 . S
H1822 C1836 0.960 . S
H1823 C1836 0.960 . S
C1824 H1816 0.929 . S
C1824 C1825 1.377 . S
C1824 C1826 1.384 . S
C1825 C1824 1.377 . S
C1825 C1831 1.390 . S
C1826 H1817 0.930 . S
C1826 C1824 1.384 . S
C1826 C1827 1.372 . S
C1827 C1826 1.372 . S
C1827 C1828 1.400 . S
C1827 C1832 1.490 . S
C1828 H1818 0.930 . S
C1828 C1827 1.400 . S
C1828 C1831 1.386 . S
H1829 C1845 0.930 . S
H1830 C1846 0.931 . S
C1831 H1819 0.929 . S
C1831 C1825 1.390 . S
C1831 C1828 1.386 . S
C1832 C1827 1.490 . S
C1832 C1834 1.395 . S
C1832 C1835 1.403 . S
H1833 C1839 0.930 . S
C1834 H1820 0.930 . S
C1834 C1832 1.395 . S
C1834 C1837 1.403 . S
C1835 C1832 1.403 . S
C1835 C1836 1.524 . S
C1835 C1839 1.400 . S
C1836 H1821 0.960 . S
C1836 H1822 0.960 . S
C1836 H1823 0.960 . S
C1836 C1835 1.524 . S
C1837 C1834 1.403 . S
C1837 C1838 1.392 . S
C1837 C1841 1.495 . S
C1838 C1837 1.392 . S
C1838 C1839 1.385 . S
C1838 C1840 1.478 . S
C1839 H1833 0.930 . S
C1839 C1835 1.400 . S
C1839 C1838 1.385 . S
C1840 C1838 1.478 . S
C1840 C1842 1.381 . S
C1840 C1846 1.383 . S
C1841 C1837 1.495 . S
C1841 H1847 0.959 . S
C1841 H1848 0.961 . S
C1841 H1849 0.960 . S
C1842 C1840 1.381 . S
C1842 C1843 1.394 . S
C1842 H1850 0.930 . S
C1843 C1842 1.394 . S
C1843 C1844 1.383 . S
C1843 H1851 0.929 . S
C1844 C1843 1.383 . S
C1844 C1845 1.377 . S
C1845 H1829 0.930 . S
C1845 C1844 1.377 . S
C1845 C1846 1.379 . S
C1846 H1830 0.931 . S
C1846 C1840 1.383 . S
C1846 C1845 1.379 . S
H1847 C1841 0.959 . S
H1848 C1841 0.961 . S
H1849 C1841 0.960 . S
H1850 C1842 0.930 . S
H1851 C1843 0.929 . S
H1852 C1860 0.929 . S
H1853 C1862 0.930 . S
H1854 C1864 0.930 . S
H1855 C1867 0.929 . S
H1856 C1870 0.930 . S
H1857 C1872 0.960 . S
H1858 C1872 0.960 . S
H1859 C1872 0.960 . S
C1860 H1852 0.929 . S
C1860 C1861 1.377 . S
C1860 C1862 1.384 . S
C1861 C1860 1.377 . S
C1861 C1867 1.390 . S
C1862 H1853 0.930 . S
C1862 C1860 1.384 . S
C1862 C1863 1.372 . S
C1863 C1862 1.372 . S
C1863 C1864 1.400 . S
C1863 C1868 1.490 1_455 S
C1864 H1854 0.930 . S
C1864 C1863 1.400 . S
C1864 C1867 1.386 . S
H1865 C1881 0.930 . S
H1866 C1882 0.931 . S
C1867 H1855 0.929 . S
C1867 C1861 1.390 . S
C1867 C1864 1.386 . S
C1868 C1863 1.490 1_655 S
C1868 C1870 1.395 . S
C1868 C1871 1.403 . S
H1869 C1875 0.930 . S
C1870 H1856 0.930 . S
C1870 C1868 1.395 . S
C1870 C1873 1.403 . S
C1871 C1868 1.403 . S
C1871 C1872 1.524 1_655 S
C1871 C1875 1.400 . S
C1872 H1857 0.960 . S
C1872 H1858 0.960 . S
C1872 H1859 0.960 . S
C1872 C1871 1.524 1_455 S
C1873 C1870 1.403 . S
C1873 C1874 1.392 . S
C1873 C1877 1.495 . S
C1874 C1873 1.392 . S
C1874 C1875 1.385 . S
C1874 C1876 1.478 . S
C1875 H1869 0.930 . S
C1875 C1871 1.400 . S
C1875 C1874 1.385 . S
C1876 C1874 1.478 . S
C1876 C1878 1.381 . S
C1876 C1882 1.383 . S
C1877 C1873 1.495 . S
C1877 H1883 0.959 . S
C1877 H1884 0.961 . S
C1877 H1885 0.960 . S
C1878 C1876 1.381 . S
C1878 C1879 1.394 . S
C1878 H1886 0.930 . S
C1879 C1878 1.394 . S
C1879 C1880 1.383 . S
C1879 H1887 0.929 . S
C1880 C1879 1.383 . S
C1880 C1881 1.377 . S
C1881 H1865 0.930 . S
C1881 C1880 1.377 . S
C1881 C1882 1.379 . S
C1882 H1866 0.931 . S
C1882 C1876 1.383 . S
C1882 C1881 1.379 . S
H1883 C1877 0.959 . S
H1884 C1877 0.961 . S
H1885 C1877 0.960 . S
H1886 C1878 0.930 . S
H1887 C1879 0.929 . S
H1888 C1896 0.929 . S
H1889 C1898 0.930 . S
H1890 C1900 0.930 . S
H1891 C1903 0.929 . S
H1892 C1906 0.930 . S
H1893 C1908 0.960 . S
H1894 C1908 0.960 . S
H1895 C1908 0.960 . S
C1896 H1888 0.929 . S
C1896 C1897 1.377 . S
C1896 C1898 1.384 . S
C1897 C1896 1.377 . S
C1897 C1903 1.390 . S
C1898 H1889 0.930 . S
C1898 C1896 1.384 . S
C1898 C1899 1.372 . S
C1899 C1898 1.372 . S
C1899 C1900 1.400 . S
C1899 C1904 1.490 . S
C1900 H1890 0.930 . S
C1900 C1899 1.400 . S
C1900 C1903 1.386 . S
H1901 C1917 0.930 . S
H1902 C1918 0.931 . S
C1903 H1891 0.929 . S
C1903 C1897 1.390 . S
C1903 C1900 1.386 . S
C1904 C1899 1.490 . S
C1904 C1906 1.395 . S
C1904 C1907 1.403 . S
H1905 C1911 0.930 . S
C1906 H1892 0.930 . S
C1906 C1904 1.395 . S
C1906 C1909 1.403 . S
C1907 C1904 1.403 . S
C1907 C1908 1.524 . S
C1907 C1911 1.400 . S
C1908 H1893 0.960 . S
C1908 H1894 0.960 . S
C1908 H1895 0.960 . S
C1908 C1907 1.524 . S
C1909 C1906 1.403 . S
C1909 C1910 1.392 . S
C1909 C1913 1.495 . S
C1910 C1909 1.392 . S
C1910 C1911 1.385 . S
C1910 C1912 1.478 . S
C1911 H1905 0.930 . S
C1911 C1907 1.400 . S
C1911 C1910 1.385 . S
C1912 C1910 1.478 . S
C1912 C1914 1.381 . S
C1912 C1918 1.383 . S
C1913 C1909 1.495 . S
C1913 H1919 0.959 . S
C1913 H1920 0.961 . S
C1913 H1921 0.960 . S
C1914 C1912 1.381 . S
C1914 C1915 1.394 . S
C1914 H1922 0.930 . S
C1915 C1914 1.394 . S
C1915 C1916 1.383 . S
C1915 H1923 0.929 . S
C1916 C1915 1.383 . S
C1916 C1917 1.377 . S
C1917 H1901 0.930 . S
C1917 C1916 1.377 . S
C1917 C1918 1.379 . S
C1918 H1902 0.931 . S
C1918 C1912 1.383 . S
C1918 C1917 1.379 . S
H1919 C1913 0.959 . S
H1920 C1913 0.961 . S
H1921 C1913 0.960 . S
H1922 C1914 0.930 . S
H1923 C1915 0.929 . S
H1924 C1932 0.929 . S
H1925 C1934 0.930 . S
H1926 C1936 0.930 . S
H1927 C1939 0.929 . S
H1928 C1942 0.930 . S
H1929 C1944 0.960 . S
H1930 C1944 0.960 . S
H1931 C1944 0.960 . S
C1932 H1924 0.929 . S
C1932 C1933 1.377 . S
C1932 C1934 1.384 . S
C1933 C1932 1.377 . S
C1933 C1939 1.390 . S
C1934 H1925 0.930 . S
C1934 C1932 1.384 . S
C1934 C1935 1.372 . S
C1935 C1934 1.372 . S
C1935 C1936 1.400 . S
C1935 C1940 1.490 . S
C1936 H1926 0.930 . S
C1936 C1935 1.400 . S
C1936 C1939 1.386 . S
H1937 C1953 0.930 . S
H1938 C1954 0.931 . S
C1939 H1927 0.929 . S
C1939 C1933 1.390 . S
C1939 C1936 1.386 . S
C1940 C1935 1.490 . S
C1940 C1942 1.395 1_655 S
C1940 C1943 1.403 . S
H1941 C1947 0.930 . S
C1942 H1928 0.930 . S
C1942 C1940 1.395 1_455 S
C1942 C1945 1.403 . S
C1943 C1940 1.403 . S
C1943 C1944 1.524 . S
C1943 C1947 1.400 1_655 S
C1944 H1929 0.960 . S
C1944 H1930 0.960 . S
C1944 H1931 0.960 . S
C1944 C1943 1.524 . S
C1945 C1942 1.403 . S
C1945 C1946 1.392 . S
C1945 C1949 1.495 . S
C1946 C1945 1.392 . S
C1946 C1947 1.385 . S
C1946 C1948 1.478 . S
C1947 H1941 0.930 . S
C1947 C1943 1.400 1_455 S
C1947 C1946 1.385 . S
C1948 C1946 1.478 . S
C1948 C1950 1.381 . S
C1948 C1954 1.383 . S
C1949 C1945 1.495 . S
C1949 H1955 0.959 . S
C1949 H1956 0.961 . S
C1949 H1957 0.960 . S
C1950 C1948 1.381 . S
C1950 C1951 1.394 . S
C1950 H1958 0.930 . S
C1951 C1950 1.394 . S
C1951 C1952 1.383 . S
C1951 H1959 0.929 . S
C1952 C1951 1.383 . S
C1952 C1953 1.377 . S
C1953 H1937 0.930 . S
C1953 C1952 1.377 . S
C1953 C1954 1.379 . S
C1954 H1938 0.931 . S
C1954 C1948 1.383 . S
C1954 C1953 1.379 . S
H1955 C1949 0.959 . S
H1956 C1949 0.961 . S
H1957 C1949 0.960 . S
H1958 C1950 0.930 . S
H1959 C1951 0.929 . S
H1960 C1968 0.929 . S
H1961 C1970 0.930 . S
H1962 C1972 0.930 . S
H1963 C1975 0.929 . S
H1964 C1978 0.930 . S
H1965 C1980 0.960 . S
H1966 C1980 0.960 . S
H1967 C1980 0.960 . S
C1968 H1960 0.929 . S
C1968 C1969 1.377 . S
C1968 C1970 1.384 . S
C1969 C1968 1.377 . S
C1969 C1975 1.390 . S
C1970 H1961 0.930 . S
C1970 C1968 1.384 . S
C1970 C1971 1.372 . S
C1971 C1970 1.372 . S
C1971 C1972 1.400 . S
C1971 C1976 1.490 . S
C1972 H1962 0.930 . S
C1972 C1971 1.400 . S
C1972 C1975 1.386 . S
H1973 C1989 0.930 . S
H1974 C1990 0.931 . S
C1975 H1963 0.929 . S
C1975 C1969 1.390 . S
C1975 C1972 1.386 . S
C1976 C1971 1.490 . S
C1976 C1978 1.395 . S
C1976 C1979 1.403 . S
H1977 C1983 0.930 . S
C1978 H1964 0.930 . S
C1978 C1976 1.395 . S
C1978 C1981 1.403 . S
C1979 C1976 1.403 . S
C1979 C1980 1.524 . S
C1979 C1983 1.400 . S
C1980 H1965 0.960 . S
C1980 H1966 0.960 . S
C1980 H1967 0.960 . S
C1980 C1979 1.524 . S
C1981 C1978 1.403 . S
C1981 C1982 1.392 . S
C1981 C1985 1.495 . S
C1982 C1981 1.392 . S
C1982 C1983 1.385 . S
C1982 C1984 1.478 . S
C1983 H1977 0.930 . S
C1983 C1979 1.400 . S
C1983 C1982 1.385 . S
C1984 C1982 1.478 . S
C1984 C1986 1.381 . S
C1984 C1990 1.383 . S
C1985 C1981 1.495 . S
C1985 H1991 0.959 . S
C1985 H1992 0.961 . S
C1985 H1993 0.960 . S
C1986 C1984 1.381 . S
C1986 C1987 1.394 . S
C1986 H1994 0.930 . S
C1987 C1986 1.394 . S
C1987 C1988 1.383 . S
C1987 H1995 0.929 . S
C1988 C1987 1.383 . S
C1988 C1989 1.377 . S
C1989 H1973 0.930 . S
C1989 C1988 1.377 . S
C1989 C1990 1.379 . S
C1990 H1974 0.931 . S
C1990 C1984 1.383 . S
C1990 C1989 1.379 . S
H1991 C1985 0.959 . S
H1992 C1985 0.961 . S
H1993 C1985 0.960 . S
H1994 C1986 0.930 . S
H1995 C1987 0.929 . S
H1996 C2004 0.929 . S
H1997 C2006 0.930 . S
H1998 C2008 0.930 . S
H1999 C2011 0.929 . S
H2000 C2014 0.930 . S
H2001 C2016 0.960 . S
H2002 C2016 0.960 . S
H2003 C2016 0.960 1_554 S
C2004 H1996 0.929 . S
C2004 C2005 1.377 . S
C2004 C2006 1.384 1_554 S
C2005 C2004 1.377 . S
C2005 C2011 1.390 . S
C2006 H1997 0.930 . S
C2006 C2004 1.384 1_556 S
C2006 C2007 1.379 . S
C2007 C2006 1.379 . S
C2007 C2008 1.370 1_556 S
C2007 C2012 1.512 . S
C2008 H1998 0.930 . S
C2008 C2007 1.370 1_554 S
C2008 C2011 1.386 . S
H2009 C2025 0.930 . S
H2010 C2026 0.931 . S
C2011 H1999 0.929 . S
C2011 C2005 1.390 . S
C2011 C2008 1.386 . S
C2012 C2007 1.512 . S
C2012 C2014 1.395 . S
C2012 C2015 1.403 . S
H2013 C2019 0.930 . S
C2014 H2000 0.930 . S
C2014 C2012 1.395 . S
C2014 C2017 1.403 . S
C2015 C2012 1.403 . S
C2015 C2016 1.524 . S
C2015 C2019 1.400 . S
C2016 H2001 0.960 . S
C2016 H2002 0.960 . S
C2016 H2003 0.960 1_556 S
C2016 C2015 1.524 . S
C2017 C2014 1.403 . S
C2017 C2018 1.392 . S
C2017 C2021 1.495 . S
C2018 C2017 1.392 . S
C2018 C2019 1.385 . S
C2018 C2020 1.478 . S
C2019 H2013 0.930 . S
C2019 C2015 1.400 . S
C2019 C2018 1.385 . S
C2020 C2018 1.478 . S
C2020 C2022 1.381 . S
C2020 C2026 1.383 . S
C2021 C2017 1.495 . S
C2021 H2027 0.959 . S
C2021 H2028 0.961 . S
C2021 H2029 0.960 . S
C2022 C2020 1.381 . S
C2022 C2023 1.394 . S
C2022 H2030 0.930 . S
C2023 C2022 1.394 . S
C2023 C2024 1.383 . S
C2023 H2031 0.929 . S
C2024 C2023 1.383 . S
C2024 C2025 1.377 . S
C2025 H2009 0.930 . S
C2025 C2024 1.377 . S
C2025 C2026 1.379 . S
C2026 H2010 0.931 . S
C2026 C2020 1.383 . S
C2026 C2025 1.379 . S
H2027 C2021 0.959 . S
H2028 C2021 0.961 . S
H2029 C2021 0.960 . S
H2030 C2022 0.930 . S
H2031 C2023 0.929 . S
H2032 C2040 0.929 . S
H2033 C2042 0.930 . S
H2034 C2044 0.930 . S
H2035 C2047 0.929 . S
H2036 C2050 0.930 . S
H2037 C2052 0.960 . S
H2038 C2052 0.960 . S
H2039 C2052 0.960 . S
C2040 H2032 0.929 . S
C2040 C2041 1.377 . S
C2040 C2042 1.384 . S
C2041 C2040 1.377 . S
C2041 C2047 1.390 . S
C2042 H2033 0.930 . S
C2042 C2040 1.384 . S
C2042 C2043 1.372 . S
C2043 C2042 1.372 . S
C2043 C2044 1.400 . S
C2043 C2048 1.490 . S
C2044 H2034 0.930 . S
C2044 C2043 1.400 . S
C2044 C2047 1.386 . S
H2045 C2061 0.930 . S
H2046 C2062 0.931 . S
C2047 H2035 0.929 . S
C2047 C2041 1.390 . S
C2047 C2044 1.386 . S
C2048 C2043 1.490 . S
C2048 C2050 1.395 . S
C2048 C2051 1.403 . S
H2049 C2055 0.930 . S
C2050 H2036 0.930 . S
C2050 C2048 1.395 . S
C2050 C2053 1.403 . S
C2051 C2048 1.403 . S
C2051 C2052 1.524 . S
C2051 C2055 1.400 . S
C2052 H2037 0.960 . S
C2052 H2038 0.960 . S
C2052 H2039 0.960 . S
C2052 C2051 1.524 . S
C2053 C2050 1.403 . S
C2053 C2054 1.392 . S
C2053 C2057 1.495 . S
C2054 C2053 1.392 . S
C2054 C2055 1.385 . S
C2054 C2056 1.478 . S
C2055 H2049 0.930 . S
C2055 C2051 1.400 . S
C2055 C2054 1.385 . S
C2056 C2054 1.478 . S
C2056 C2058 1.381 . S
C2056 C2062 1.383 . S
C2057 C2053 1.495 . S
C2057 H2063 0.959 . S
C2057 H2064 0.961 . S
C2057 H2065 0.960 . S
C2058 C2056 1.381 . S
C2058 C2059 1.394 . S
C2058 H2066 0.930 . S
C2059 C2058 1.394 . S
C2059 C2060 1.383 . S
C2059 H2067 0.929 . S
C2060 C2059 1.383 . S
C2060 C2061 1.377 . S
C2061 H2045 0.930 . S
C2061 C2060 1.377 . S
C2061 C2062 1.379 . S
C2062 H2046 0.931 . S
C2062 C2056 1.383 . S
C2062 C2061 1.379 . S
H2063 C2057 0.959 . S
H2064 C2057 0.961 . S
H2065 C2057 0.960 . S
H2066 C2058 0.930 . S
H2067 C2059 0.929 . S
H2068 C2076 0.929 . S
H2069 C2078 0.930 . S
H2070 C2080 0.930 . S
H2071 C2083 0.929 . S
H2072 C2086 0.930 . S
H2073 C2088 0.960 . S
H2074 C2088 0.960 . S
H2075 C2088 0.960 . S
C2076 H2068 0.929 . S
C2076 C2077 1.377 . S
C2076 C2078 1.384 . S
C2077 C2076 1.377 . S
C2077 C2083 1.390 . S
C2078 H2069 0.930 . S
C2078 C2076 1.384 . S
C2078 C2079 1.372 . S
C2079 C2078 1.372 . S
C2079 C2080 1.400 . S
C2079 C2084 1.490 . S
C2080 H2070 0.930 . S
C2080 C2079 1.400 . S
C2080 C2083 1.386 . S
H2081 C2097 0.930 . S
H2082 C2098 0.931 . S
C2083 H2071 0.929 . S
C2083 C2077 1.390 . S
C2083 C2080 1.386 . S
C2084 C2079 1.490 . S
C2084 C2086 1.395 . S
C2084 C2087 1.403 1_554 S
H2085 C2091 0.930 . S
C2086 H2072 0.930 . S
C2086 C2084 1.395 . S
C2086 C2089 1.403 1_554 S
C2087 C2084 1.403 1_556 S
C2087 C2088 1.524 . S
C2087 C2091 1.400 . S
C2088 H2073 0.960 . S
C2088 H2074 0.960 . S
C2088 H2075 0.960 . S
C2088 C2087 1.524 . S
C2089 C2086 1.403 1_556 S
C2089 C2090 1.392 . S
C2089 C2093 1.500 . S
C2090 C2089 1.392 . S
C2090 C2091 1.385 . S
C2090 C2092 1.478 . S
C2091 H2085 0.930 . S
C2091 C2087 1.400 . S
C2091 C2090 1.385 . S
C2092 C2090 1.478 . S
C2092 C2094 1.381 . S
C2092 C2098 1.383 . S
C2093 C2089 1.500 . S
C2093 H2099 0.918 1_556 S
C2093 H2100 0.989 . S
C2093 H2101 0.971 . S
C2094 C2092 1.381 . S
C2094 C2095 1.394 . S
C2094 H2102 0.930 . S
C2095 C2094 1.394 . S
C2095 C2096 1.383 . S
C2095 H2103 0.929 . S
C2096 C2095 1.383 . S
C2096 C2097 1.377 . S
C2097 H2081 0.930 . S
C2097 C2096 1.377 . S
C2097 C2098 1.379 . S
C2098 H2082 0.931 . S
C2098 C2092 1.383 . S
C2098 C2097 1.379 . S
H2099 C2093 0.918 1_554 S
H2100 C2093 0.989 . S
H2101 C2093 0.971 . S
H2102 C2094 0.930 . S
H2103 C2095 0.929 . S
H2104 C2112 0.929 . S
H2105 C2114 0.930 . S
H2106 C2116 0.930 . S
H2107 C2119 0.929 . S
H2108 C2122 0.930 . S
H2109 C2124 0.960 . S
H2110 C2124 0.960 . S
H2111 C2124 0.960 . S
C2112 H2104 0.929 . S
C2112 C2113 1.377 . S
C2112 C2114 1.384 . S
C2113 C2112 1.377 . S
C2113 C2119 1.390 . S
C2114 H2105 0.930 . S
C2114 C2112 1.384 . S
C2114 C2115 1.372 . S
C2115 C2114 1.372 . S
C2115 C2116 1.400 . S
C2115 C2120 1.490 . S
C2116 H2106 0.930 . S
C2116 C2115 1.400 . S
C2116 C2119 1.386 . S
H2117 C2133 0.930 . S
H2118 C2134 0.931 . S
C2119 H2107 0.929 . S
C2119 C2113 1.390 . S
C2119 C2116 1.386 . S
C2120 C2115 1.490 . S
C2120 C2122 1.395 . S
C2120 C2123 1.403 . S
H2121 C2127 0.930 . S
C2122 H2108 0.930 . S
C2122 C2120 1.395 . S
C2122 C2125 1.403 . S
C2123 C2120 1.403 . S
C2123 C2124 1.524 . S
C2123 C2127 1.400 . S
C2124 H2109 0.960 . S
C2124 H2110 0.960 . S
C2124 H2111 0.960 . S
C2124 C2123 1.524 . S
C2125 C2122 1.403 . S
C2125 C2126 1.392 . S
C2125 C2129 1.495 . S
C2126 C2125 1.392 . S
C2126 C2127 1.385 . S
C2126 C2128 1.478 . S
C2127 H2121 0.930 . S
C2127 C2123 1.400 . S
C2127 C2126 1.385 . S
C2128 C2126 1.478 . S
C2128 C2130 1.381 . S
C2128 C2134 1.383 . S
C2129 C2125 1.495 . S
C2129 H2135 0.959 . S
C2129 H2136 0.961 . S
C2129 H2137 0.960 . S
C2130 C2128 1.381 . S
C2130 C2131 1.394 . S
C2130 H2138 0.930 . S
C2131 C2130 1.394 . S
C2131 C2132 1.383 . S
C2131 H2139 0.929 . S
C2132 C2131 1.383 . S
C2132 C2133 1.377 . S
C2133 H2117 0.930 . S
C2133 C2132 1.377 . S
C2133 C2134 1.379 . S
C2134 H2118 0.931 . S
C2134 C2128 1.383 . S
C2134 C2133 1.379 . S
H2135 C2129 0.959 . S
H2136 C2129 0.961 . S
H2137 C2129 0.960 . S
H2138 C2130 0.930 . S
H2139 C2131 0.929 . S
H2140 C2148 0.929 . S
H2141 C2150 0.930 . S
H2142 C2152 0.930 1_554 S
H2143 C2155 0.929 . S
H2144 C2158 0.930 . S
H2145 C2160 0.960 . S
H2146 C2160 0.960 1_556 S
H2147 C2160 0.960 . S
C2148 H2140 0.929 . S
C2148 C2149 1.377 . S
C2148 C2150 1.384 . S
C2149 C2148 1.377 . S
C2149 C2155 1.390 . S
C2150 H2141 0.930 . S
C2150 C2148 1.384 . S
C2150 C2151 1.372 1_556 S
C2151 C2150 1.372 1_554 S
C2151 C2152 1.400 1_554 S
C2151 C2156 1.490 . S
C2152 H2142 0.930 1_556 S
C2152 C2151 1.400 1_556 S
C2152 C2155 1.386 . S
H2153 C2169 0.930 . S
H2154 C2170 0.931 . S
C2155 H2143 0.929 . S
C2155 C2149 1.390 . S
C2155 C2152 1.386 . S
C2156 C2151 1.490 . S
C2156 C2158 1.395 . S
C2156 C2159 1.403 . S
H2157 C2163 0.930 . S
C2158 H2144 0.930 . S
C2158 C2156 1.395 . S
C2158 C2161 1.403 . S
C2159 C2156 1.403 . S
C2159 C2160 1.524 . S
C2159 C2163 1.400 . S
C2160 H2145 0.960 . S
C2160 H2146 0.960 1_554 S
C2160 H2147 0.960 . S
C2160 C2159 1.524 . S
C2161 C2158 1.403 . S
C2161 C2162 1.392 . S
C2161 C2165 1.495 . S
C2162 C2161 1.392 . S
C2162 C2163 1.385 . S
C2162 C2164 1.478 . S
C2163 H2157 0.930 . S
C2163 C2159 1.400 . S
C2163 C2162 1.385 . S
C2164 C2162 1.478 . S
C2164 C2166 1.381 . S
C2164 C2170 1.383 . S
C2165 C2161 1.495 . S
C2165 H2171 0.959 . S
C2165 H2172 0.961 . S
C2165 H2173 0.960 . S
C2166 C2164 1.381 . S
C2166 C2167 1.394 . S
C2166 H2174 0.930 . S
C2167 C2166 1.394 . S
C2167 C2168 1.383 . S
C2167 H2175 0.929 . S
C2168 C2167 1.383 . S
C2168 C2169 1.377 . S
C2169 H2153 0.930 . S
C2169 C2168 1.377 . S
C2169 C2170 1.379 . S
C2170 H2154 0.931 . S
C2170 C2164 1.383 . S
C2170 C2169 1.379 . S
H2171 C2165 0.959 . S
H2172 C2165 0.961 . S
H2173 C2165 0.960 . S
H2174 C2166 0.930 . S
H2175 C2167 0.929 . S
H2176 C2184 0.929 . S
H2177 C2186 0.930 . S
H2178 C2188 0.930 . S
H2179 C2191 0.929 . S
H2180 C2194 0.930 . S
H2181 C2196 0.960 . S
H2182 C2196 0.960 . S
H2183 C2196 0.960 . S
C2184 H2176 0.929 . S
C2184 C2185 1.377 . S
C2184 C2186 1.384 . S
C2185 C2184 1.377 . S
C2185 C2191 1.390 . S
C2186 H2177 0.930 . S
C2186 C2184 1.384 . S
C2186 C2187 1.372 . S
C2187 C2186 1.372 . S
C2187 C2188 1.400 . S
C2187 C2192 1.490 . S
C2188 H2178 0.930 . S
C2188 C2187 1.400 . S
C2188 C2191 1.386 . S
H2189 C2205 0.930 . S
H2190 C2206 0.931 . S
C2191 H2179 0.929 . S
C2191 C2185 1.390 . S
C2191 C2188 1.386 . S
C2192 C2187 1.490 . S
C2192 C2194 1.395 . S
C2192 C2195 1.403 . S
H2193 C2199 0.930 . S
C2194 H2180 0.930 . S
C2194 C2192 1.395 . S
C2194 C2197 1.403 . S
C2195 C2192 1.403 . S
C2195 C2196 1.524 . S
C2195 C2199 1.400 . S
C2196 H2181 0.960 . S
C2196 H2182 0.960 . S
C2196 H2183 0.960 . S
C2196 C2195 1.524 . S
C2197 C2194 1.403 . S
C2197 C2198 1.392 . S
C2197 C2201 1.495 . S
C2198 C2197 1.392 . S
C2198 C2199 1.385 . S
C2198 C2200 1.478 . S
C2199 H2193 0.930 . S
C2199 C2195 1.400 . S
C2199 C2198 1.385 . S
C2200 C2198 1.478 . S
C2200 C2202 1.381 . S
C2200 C2206 1.383 . S
C2201 C2197 1.495 . S
C2201 H2207 0.959 . S
C2201 H2208 0.961 . S
C2201 H2209 0.960 . S
C2202 C2200 1.381 . S
C2202 C2203 1.394 . S
C2202 H2210 0.930 . S
C2203 C2202 1.394 . S
C2203 C2204 1.383 . S
C2203 H2211 0.929 . S
C2204 C2203 1.383 . S
C2204 C2205 1.377 . S
C2205 H2189 0.930 . S
C2205 C2204 1.377 . S
C2205 C2206 1.379 . S
C2206 H2190 0.931 . S
C2206 C2200 1.383 . S
C2206 C2205 1.379 . S
H2207 C2201 0.959 . S
H2208 C2201 0.961 . S
H2209 C2201 0.960 . S
H2210 C2202 0.930 . S
H2211 C2203 0.929 . S
H2212 C2220 0.929 . S
H2213 C2222 0.930 . S
H2214 C2224 0.930 . S
H2215 C2227 0.929 . S
H2216 C2230 0.930 . S
H2217 C2232 0.960 . S
H2218 C2232 0.960 . S
H2219 C2232 0.960 . S
C2220 H2212 0.929 . S
C2220 C2221 1.377 1_554 S
C2220 C2222 1.384 . S
C2221 C2220 1.377 1_556 S
C2221 C2227 1.390 . S
C2222 H2213 0.930 . S
C2222 C2220 1.384 . S
C2222 C2223 1.372 . S
C2223 C2222 1.372 . S
C2223 C2224 1.400 . S
C2223 C2228 1.490 . S
C2224 H2214 0.930 . S
C2224 C2223 1.400 . S
C2224 C2227 1.386 1_554 S
H2225 C2241 0.930 . S
H2226 C2242 0.931 . S
C2227 H2215 0.929 . S
C2227 C2221 1.390 . S
C2227 C2224 1.386 1_556 S
C2228 C2223 1.490 . S
C2228 C2230 1.395 . S
C2228 C2231 1.403 . S
H2229 C2235 0.930 . S
C2230 H2216 0.930 . S
C2230 C2228 1.395 . S
C2230 C2233 1.403 . S
C2231 C2228 1.403 . S
C2231 C2232 1.524 . S
C2231 C2235 1.400 . S
C2232 H2217 0.960 . S
C2232 H2218 0.960 . S
C2232 H2219 0.960 . S
C2232 C2231 1.524 . S
C2233 C2230 1.403 . S
C2233 C2234 1.392 . S
C2233 C2237 1.495 . S
C2234 C2233 1.392 . S
C2234 C2235 1.385 . S
C2234 C2236 1.478 . S
C2235 H2229 0.930 . S
C2235 C2231 1.400 . S
C2235 C2234 1.385 . S
C2236 C2234 1.478 . S
C2236 C2238 1.381 . S
C2236 C2242 1.383 . S
C2237 C2233 1.495 . S
C2237 H2243 0.959 . S
C2237 H2244 0.961 . S
C2237 H2245 0.960 . S
C2238 C2236 1.381 . S
C2238 C2239 1.394 . S
C2238 H2246 0.930 . S
C2239 C2238 1.394 . S
C2239 C2240 1.383 . S
C2239 H2247 0.929 . S
C2240 C2239 1.383 . S
C2240 C2241 1.377 . S
C2241 H2225 0.930 . S
C2241 C2240 1.377 . S
C2241 C2242 1.379 . S
C2242 H2226 0.931 . S
C2242 C2236 1.383 . S
C2242 C2241 1.379 . S
H2243 C2237 0.959 . S
H2244 C2237 0.961 . S
H2245 C2237 0.960 . S
H2246 C2238 0.930 . S
H2247 C2239 0.929 . S
H2248 C2256 0.929 . S
H2249 C2258 0.930 . S
H2250 C2260 0.930 . S
H2251 C2263 0.929 . S
H2252 C2266 0.930 . S
H2253 C2268 0.960 . S
H2254 C2268 0.960 . S
H2255 C2268 0.960 . S
C2256 H2248 0.929 . S
C2256 C2257 1.377 . S
C2256 C2258 1.384 . S
C2257 C2256 1.377 . S
C2257 C2263 1.390 . S
C2258 H2249 0.930 . S
C2258 C2256 1.384 . S
C2258 C2259 1.372 . S
C2259 C2258 1.372 . S
C2259 C2260 1.400 . S
C2259 C2264 1.490 . S
C2260 H2250 0.930 . S
C2260 C2259 1.400 . S
C2260 C2263 1.386 . S
H2261 C2277 0.930 . S
H2262 C2278 0.931 . S
C2263 H2251 0.929 . S
C2263 C2257 1.390 . S
C2263 C2260 1.386 . S
C2264 C2259 1.490 . S
C2264 C2266 1.395 . S
C2264 C2267 1.403 . S
H2265 C2271 0.930 . S
C2266 H2252 0.930 . S
C2266 C2264 1.395 . S
C2266 C2269 1.403 . S
C2267 C2264 1.403 . S
C2267 C2268 1.524 . S
C2267 C2271 1.400 . S
C2268 H2253 0.960 . S
C2268 H2254 0.960 . S
C2268 H2255 0.960 . S
C2268 C2267 1.524 . S
C2269 C2266 1.403 . S
C2269 C2270 1.392 . S
C2269 C2273 1.495 . S
C2270 C2269 1.392 . S
C2270 C2271 1.385 . S
C2270 C2272 1.478 . S
C2271 H2265 0.930 . S
C2271 C2267 1.400 . S
C2271 C2270 1.385 . S
C2272 C2270 1.478 . S
C2272 C2274 1.381 . S
C2272 C2278 1.383 . S
C2273 C2269 1.495 . S
C2273 H2279 0.959 . S
C2273 H2280 0.961 . S
C2273 H2281 0.960 . S
C2274 C2272 1.381 . S
C2274 C2275 1.394 . S
C2274 H2282 0.930 . S
C2275 C2274 1.394 . S
C2275 C2276 1.383 . S
C2275 H2283 0.929 . S
C2276 C2275 1.383 . S
C2276 C2277 1.377 . S
C2277 H2261 0.930 . S
C2277 C2276 1.377 . S
C2277 C2278 1.379 . S
C2278 H2262 0.931 . S
C2278 C2272 1.383 . S
C2278 C2277 1.379 . S
H2279 C2273 0.959 . S
H2280 C2273 0.961 . S
H2281 C2273 0.960 . S
H2282 C2274 0.930 . S
H2283 C2275 0.929 . S
H2284 C2292 0.929 . S
H2285 C2294 0.930 . S
H2286 C2296 0.930 . S
H2287 C2299 0.929 . S
H2288 C2302 0.930 . S
H2289 C2304 0.960 . S
H2290 C2304 0.960 . S
H2291 C2304 0.960 . S
C2292 H2284 0.929 . S
C2292 C2293 1.377 . S
C2292 C2294 1.384 . S
C2293 C2292 1.377 . S
C2293 C2299 1.390 . S
C2294 H2285 0.930 . S
C2294 C2292 1.384 . S
C2294 C2295 1.372 . S
C2295 C2294 1.372 . S
C2295 C2296 1.400 . S
C2295 C2300 1.490 . S
C2296 H2286 0.930 . S
C2296 C2295 1.400 . S
C2296 C2299 1.386 . S
H2297 C2313 0.930 . S
H2298 C2314 0.931 . S
C2299 H2287 0.929 . S
C2299 C2293 1.390 . S
C2299 C2296 1.386 . S
C2300 C2295 1.490 . S
C2300 C2302 1.395 . S
C2300 C2303 1.403 . S
H2301 C2307 0.930 . S
C2302 H2288 0.930 . S
C2302 C2300 1.395 . S
C2302 C2305 1.403 . S
C2303 C2300 1.403 . S
C2303 C2304 1.524 . S
C2303 C2307 1.400 . S
C2304 H2289 0.960 . S
C2304 H2290 0.960 . S
C2304 H2291 0.960 . S
C2304 C2303 1.524 . S
C2305 C2302 1.403 . S
C2305 C2306 1.392 . S
C2305 C2309 1.495 . S
C2306 C2305 1.392 . S
C2306 C2307 1.385 . S
C2306 C2308 1.478 . S
C2307 H2301 0.930 . S
C2307 C2303 1.400 . S
C2307 C2306 1.385 . S
C2308 C2306 1.478 . S
C2308 C2310 1.381 . S
C2308 C2314 1.383 . S
C2309 C2305 1.495 . S
C2309 H2315 0.959 . S
C2309 H2316 0.961 . S
C2309 H2317 0.960 . S
C2310 C2308 1.381 . S
C2310 C2311 1.394 . S
C2310 H2318 0.930 . S
C2311 C2310 1.394 . S
C2311 C2312 1.383 . S
C2311 H2319 0.929 . S
C2312 C2311 1.383 . S
C2312 C2313 1.377 . S
C2313 H2297 0.930 . S
C2313 C2312 1.377 . S
C2313 C2314 1.379 . S
C2314 H2298 0.931 . S
C2314 C2308 1.383 . S
C2314 C2313 1.379 . S
H2315 C2309 0.959 . S
H2316 C2309 0.961 . S
H2317 C2309 0.960 . S
H2318 C2310 0.930 . S
H2319 C2311 0.929 . S
H2320 C2328 0.929 . S
H2321 C2330 0.930 . S
H2322 C2332 0.930 . S
H2323 C2335 0.929 . S
H2324 C2338 0.930 . S
H2325 C2340 0.960 . S
H2326 C2340 0.960 . S
H2327 C2340 0.960 . S
C2328 H2320 0.929 . S
C2328 C2329 1.377 . S
C2328 C2330 1.384 . S
C2329 C2328 1.377 . S
C2329 C2335 1.390 . S
C2330 H2321 0.930 . S
C2330 C2328 1.384 . S
C2330 C2331 1.372 . S
C2331 C2330 1.372 . S
C2331 C2332 1.400 . S
C2331 C2336 1.490 . S
C2332 H2322 0.930 . S
C2332 C2331 1.400 . S
C2332 C2335 1.386 . S
H2333 C2349 0.930 . S
H2334 C2350 0.931 . S
C2335 H2323 0.929 . S
C2335 C2329 1.390 . S
C2335 C2332 1.386 . S
C2336 C2331 1.490 . S
C2336 C2338 1.395 . S
C2336 C2339 1.403 . S
H2337 C2343 0.930 . S
C2338 H2324 0.930 . S
C2338 C2336 1.395 . S
C2338 C2341 1.403 . S
C2339 C2336 1.403 . S
C2339 C2340 1.524 . S
C2339 C2343 1.400 . S
C2340 H2325 0.960 . S
C2340 H2326 0.960 . S
C2340 H2327 0.960 . S
C2340 C2339 1.524 . S
C2341 C2338 1.403 . S
C2341 C2342 1.392 . S
C2341 C2345 1.495 . S
C2342 C2341 1.392 . S
C2342 C2343 1.385 . S
C2342 C2344 1.478 . S
C2343 H2337 0.930 . S
C2343 C2339 1.400 . S
C2343 C2342 1.385 . S
C2344 C2342 1.478 . S
C2344 C2346 1.381 . S
C2344 C2350 1.383 . S
C2345 C2341 1.495 . S
C2345 H2351 0.959 . S
C2345 H2352 0.961 . S
C2345 H2353 0.960 . S
C2346 C2344 1.381 . S
C2346 C2347 1.394 . S
C2346 H2354 0.930 . S
C2347 C2346 1.394 . S
C2347 C2348 1.383 . S
C2347 H2355 0.929 . S
C2348 C2347 1.383 . S
C2348 C2349 1.377 . S
C2349 H2333 0.930 . S
C2349 C2348 1.377 . S
C2349 C2350 1.379 . S
C2350 H2334 0.931 . S
C2350 C2344 1.383 . S
C2350 C2349 1.379 . S
H2351 C2345 0.959 . S
H2352 C2345 0.961 . S
H2353 C2345 0.960 . S
H2354 C2346 0.930 . S
H2355 C2347 0.929 . S
H2356 C2364 0.929 . S
H2357 C2366 0.930 . S
H2358 C2368 0.930 . S
H2359 C2371 0.929 . S
H2360 C2374 0.930 . S
H2361 C2376 0.960 . S
H2362 C2376 0.960 . S
H2363 C2376 0.960 . S
C2364 H2356 0.929 . S
C2364 C2365 1.377 . S
C2364 C2366 1.384 . S
C2365 C2364 1.377 . S
C2365 C2371 1.390 . S
C2366 H2357 0.930 . S
C2366 C2364 1.384 . S
C2366 C2367 1.372 . S
C2367 C2366 1.372 . S
C2367 C2368 1.400 . S
C2367 C2372 1.490 . S
C2368 H2358 0.930 . S
C2368 C2367 1.400 . S
C2368 C2371 1.386 . S
H2369 C2385 0.930 . S
H2370 C2386 0.931 . S
C2371 H2359 0.929 . S
C2371 C2365 1.390 . S
C2371 C2368 1.386 . S
C2372 C2367 1.490 . S
C2372 C2374 1.395 . S
C2372 C2375 1.403 . S
H2373 C2379 0.930 . S
C2374 H2360 0.930 . S
C2374 C2372 1.395 . S
C2374 C2377 1.403 . S
C2375 C2372 1.403 . S
C2375 C2376 1.524 . S
C2375 C2379 1.400 . S
C2376 H2361 0.960 . S
C2376 H2362 0.960 . S
C2376 H2363 0.960 . S
C2376 C2375 1.524 . S
C2377 C2374 1.403 . S
C2377 C2378 1.392 . S
C2377 C2381 1.495 . S
C2378 C2377 1.392 . S
C2378 C2379 1.385 . S
C2378 C2380 1.478 . S
C2379 H2373 0.930 . S
C2379 C2375 1.400 . S
C2379 C2378 1.385 . S
C2380 C2378 1.478 . S
C2380 C2382 1.381 . S
C2380 C2386 1.383 . S
C2381 C2377 1.495 . S
C2381 H2387 0.959 . S
C2381 H2388 0.961 . S
C2381 H2389 0.960 . S
C2382 C2380 1.381 . S
C2382 C2383 1.394 . S
C2382 H2390 0.930 . S
C2383 C2382 1.394 . S
C2383 C2384 1.383 . S
C2383 H2391 0.929 . S
C2384 C2383 1.383 . S
C2384 C2385 1.377 . S
C2385 H2369 0.930 . S
C2385 C2384 1.377 . S
C2385 C2386 1.379 . S
C2386 H2370 0.931 . S
C2386 C2380 1.383 . S
C2386 C2385 1.379 . S
H2387 C2381 0.959 . S
H2388 C2381 0.961 . S
H2389 C2381 0.960 . S
H2390 C2382 0.930 . S
H2391 C2383 0.929 . S
H2392 C2400 0.929 . S
H2393 C2402 0.930 . S
H2394 C2404 0.930 . S
H2395 C2407 0.929 . S
H2396 C2410 0.930 . S
H2397 C2412 0.960 . S
H2398 C2412 0.960 . S
H2399 C2412 0.960 . S
C2400 H2392 0.929 . S
C2400 C2401 1.377 . S
C2400 C2402 1.384 . S
C2401 C2400 1.377 . S
C2401 C2407 1.390 . S
C2402 H2393 0.930 . S
C2402 C2400 1.384 . S
C2402 C2403 1.372 . S
C2403 C2402 1.372 . S
C2403 C2404 1.400 . S
C2403 C2408 1.490 . S
C2404 H2394 0.930 . S
C2404 C2403 1.400 . S
C2404 C2407 1.386 . S
H2405 C2421 0.930 . S
H2406 C2422 0.931 . S
C2407 H2395 0.929 . S
C2407 C2401 1.390 . S
C2407 C2404 1.386 . S
C2408 C2403 1.490 . S
C2408 C2410 1.395 . S
C2408 C2411 1.403 . S
H2409 C2415 0.930 . S
C2410 H2396 0.930 . S
C2410 C2408 1.395 . S
C2410 C2413 1.403 . S
C2411 C2408 1.403 . S
C2411 C2412 1.524 . S
C2411 C2415 1.400 . S
C2412 H2397 0.960 . S
C2412 H2398 0.960 . S
C2412 H2399 0.960 . S
C2412 C2411 1.524 . S
C2413 C2410 1.403 . S
C2413 C2414 1.392 . S
C2413 C2417 1.495 . S
C2414 C2413 1.392 . S
C2414 C2415 1.385 . S
C2414 C2416 1.478 . S
C2415 H2409 0.930 . S
C2415 C2411 1.400 . S
C2415 C2414 1.385 . S
C2416 C2414 1.478 . S
C2416 C2418 1.381 . S
C2416 C2422 1.383 . S
C2417 C2413 1.495 . S
C2417 H2423 0.959 . S
C2417 H2424 0.961 . S
C2417 H2425 0.960 . S
C2418 C2416 1.381 . S
C2418 C2419 1.394 . S
C2418 H2426 0.930 . S
C2419 C2418 1.394 . S
C2419 C2420 1.383 . S
C2419 H2427 0.929 . S
C2420 C2419 1.383 . S
C2420 C2421 1.377 . S
C2421 H2405 0.930 . S
C2421 C2420 1.377 . S
C2421 C2422 1.379 . S
C2422 H2406 0.931 . S
C2422 C2416 1.383 . S
C2422 C2421 1.379 . S
H2423 C2417 0.959 . S
H2424 C2417 0.961 . S
H2425 C2417 0.960 . S
H2426 C2418 0.930 . S
H2427 C2419 0.929 . S
H2428 C2436 0.929 . S
H2429 C2438 0.930 . S
H2430 C2440 0.930 . S
H2431 C2443 0.929 . S
H2432 C2446 0.930 . S
H2433 C2448 0.960 . S
H2434 C2448 0.960 . S
H2435 C2448 0.960 . S
C2436 H2428 0.929 . S
C2436 C2437 1.377 . S
C2436 C2438 1.384 . S
C2437 C2436 1.377 . S
C2437 C2443 1.390 . S
C2438 H2429 0.930 . S
C2438 C2436 1.384 . S
C2438 C2439 1.372 . S
C2439 C2438 1.372 . S
C2439 C2440 1.400 . S
C2439 C2444 1.490 . S
C2440 H2430 0.930 . S
C2440 C2439 1.400 . S
C2440 C2443 1.386 . S
H2441 C2457 0.930 . S
H2442 C2458 0.931 . S
C2443 H2431 0.929 . S
C2443 C2437 1.390 . S
C2443 C2440 1.386 . S
C2444 C2439 1.490 . S
C2444 C2446 1.395 . S
C2444 C2447 1.403 . S
H2445 C2451 0.930 . S
C2446 H2432 0.930 . S
C2446 C2444 1.395 . S
C2446 C2449 1.403 . S
C2447 C2444 1.403 . S
C2447 C2448 1.524 . S
C2447 C2451 1.400 . S
C2448 H2433 0.960 . S
C2448 H2434 0.960 . S
C2448 H2435 0.960 . S
C2448 C2447 1.524 . S
C2449 C2446 1.403 . S
C2449 C2450 1.392 . S
C2449 C2453 1.495 . S
C2450 C2449 1.392 . S
C2450 C2451 1.385 . S
C2450 C2452 1.478 . S
C2451 H2445 0.930 . S
C2451 C2447 1.400 . S
C2451 C2450 1.385 . S
C2452 C2450 1.478 . S
C2452 C2454 1.381 . S
C2452 C2458 1.383 . S
C2453 C2449 1.495 . S
C2453 H2459 0.959 . S
C2453 H2460 0.961 . S
C2453 H2461 0.960 . S
C2454 C2452 1.381 . S
C2454 C2455 1.394 . S
C2454 H2462 0.930 . S
C2455 C2454 1.394 . S
C2455 C2456 1.383 . S
C2455 H2463 0.929 . S
C2456 C2455 1.383 . S
C2456 C2457 1.377 . S
C2457 H2441 0.930 . S
C2457 C2456 1.377 . S
C2457 C2458 1.379 . S
C2458 H2442 0.931 . S
C2458 C2452 1.383 . S
C2458 C2457 1.379 . S
H2459 C2453 0.959 . S
H2460 C2453 0.961 . S
H2461 C2453 0.960 . S
H2462 C2454 0.930 . S
H2463 C2455 0.929 . S
H2464 C2472 0.929 . S
H2465 C2474 0.930 . S
H2466 C2476 0.930 . S
H2467 C2479 0.929 . S
H2468 C2482 0.930 . S
H2469 C2484 0.960 . S
H2470 C2484 0.960 . S
H2471 C2484 0.960 . S
C2472 H2464 0.929 . S
C2472 C2473 1.377 . S
C2472 C2474 1.384 . S
C2473 C2472 1.377 . S
C2473 C2479 1.390 . S
C2474 H2465 0.930 . S
C2474 C2472 1.384 . S
C2474 C2475 1.372 . S
C2475 C2474 1.372 . S
C2475 C2476 1.400 . S
C2475 C2480 1.490 . S
C2476 H2466 0.930 . S
C2476 C2475 1.400 . S
C2476 C2479 1.386 . S
H2477 C2493 0.930 . S
H2478 C2494 0.931 . S
C2479 H2467 0.929 . S
C2479 C2473 1.390 . S
C2479 C2476 1.386 . S
C2480 C2475 1.490 . S
C2480 C2482 1.395 . S
C2480 C2483 1.403 . S
H2481 C2487 0.930 . S
C2482 H2468 0.930 . S
C2482 C2480 1.395 . S
C2482 C2485 1.403 . S
C2483 C2480 1.403 . S
C2483 C2484 1.524 . S
C2483 C2487 1.400 . S
C2484 H2469 0.960 . S
C2484 H2470 0.960 . S
C2484 H2471 0.960 . S
C2484 C2483 1.524 . S
C2485 C2482 1.403 . S
C2485 C2486 1.392 . S
C2485 C2489 1.495 . S
C2486 C2485 1.392 . S
C2486 C2487 1.385 . S
C2486 C2488 1.478 . S
C2487 H2481 0.930 . S
C2487 C2483 1.400 . S
C2487 C2486 1.385 . S
C2488 C2486 1.478 . S
C2488 C2490 1.381 . S
C2488 C2494 1.383 . S
C2489 C2485 1.495 . S
C2489 H2495 0.959 . S
C2489 H2496 0.961 . S
C2489 H2497 0.960 . S
C2490 C2488 1.381 . S
C2490 C2491 1.394 . S
C2490 H2498 0.930 . S
C2491 C2490 1.394 . S
C2491 C2492 1.383 . S
C2491 H2499 0.929 . S
C2492 C2491 1.383 . S
C2492 C2493 1.377 . S
C2493 H2477 0.930 . S
C2493 C2492 1.377 . S
C2493 C2494 1.379 . S
C2494 H2478 0.931 . S
C2494 C2488 1.383 . S
C2494 C2493 1.379 . S
H2495 C2489 0.959 . S
H2496 C2489 0.961 . S
H2497 C2489 0.960 . S
H2498 C2490 0.930 . S
H2499 C2491 0.929 . S
H2500 C2508 0.929 . S
H2501 C2510 0.930 . S
H2502 C2512 0.930 . S
H2503 C2515 0.929 . S
H2504 C2518 0.930 . S
H2505 C2520 0.960 . S
H2506 C2520 0.960 . S
H2507 C2520 0.960 . S
C2508 H2500 0.929 . S
C2508 C2509 1.377 . S
C2508 C2510 1.384 . S
C2509 C2508 1.377 . S
C2509 C2515 1.390 . S
C2510 H2501 0.930 . S
C2510 C2508 1.384 . S
C2510 C2511 1.372 . S
C2511 C2510 1.372 . S
C2511 C2512 1.400 . S
C2511 C2516 1.490 . S
C2512 H2502 0.930 . S
C2512 C2511 1.400 . S
C2512 C2515 1.386 . S
H2513 C2529 0.930 . S
H2514 C2530 0.931 . S
C2515 H2503 0.929 . S
C2515 C2509 1.390 . S
C2515 C2512 1.386 . S
C2516 C2511 1.490 . S
C2516 C2518 1.395 . S
C2516 C2519 1.403 . S
H2517 C2523 0.930 . S
C2518 H2504 0.930 . S
C2518 C2516 1.395 . S
C2518 C2521 1.403 . S
C2519 C2516 1.403 . S
C2519 C2520 1.524 . S
C2519 C2523 1.400 . S
C2520 H2505 0.960 . S
C2520 H2506 0.960 . S
C2520 H2507 0.960 . S
C2520 C2519 1.524 . S
C2521 C2518 1.403 . S
C2521 C2522 1.392 . S
C2521 C2525 1.478 1_545 S
C2522 C2521 1.392 . S
C2522 C2523 1.385 . S
C2522 C2524 1.478 1_545 S
C2523 H2517 0.930 . S
C2523 C2519 1.400 . S
C2523 C2522 1.385 . S
C2524 C2522 1.478 1_565 S
C2524 C2526 1.381 . S
C2524 C2530 1.383 . S
C2525 C2521 1.478 1_565 S
C2525 H2531 0.945 1_565 S
C2525 H2532 0.987 . S
C2525 H2533 0.967 . S
C2526 C2524 1.381 . S
C2526 C2527 1.394 . S
C2526 H2534 0.930 . S
C2527 C2526 1.394 . S
C2527 C2528 1.383 . S
C2527 H2535 0.929 . S
C2528 C2527 1.383 . S
C2528 C2529 1.377 . S
C2529 H2513 0.930 . S
C2529 C2528 1.377 . S
C2529 C2530 1.379 . S
C2530 H2514 0.931 . S
C2530 C2524 1.383 . S
C2530 C2529 1.379 . S
H2531 C2525 0.945 1_545 S
H2532 C2525 0.987 . S
H2533 C2525 0.967 . S
H2534 C2526 0.930 . S
H2535 C2527 0.929 . S
C836 C648 1.656 . S
C817 C202 1.653 . S
C872 C663 1.813 . S
C853 C261 1.777 . S
C889 C282 1.769 . S
C908 C676 1.747 . S
C944 C690 1.593 . S
C925 C162 1.565 . S
C980 C702 1.695 . S
C961 C402 1.749 . S
C1016 C716 1.315 . S
C997 C482 1.275 . S
C1033 C442 1.844 . S
C1052 C730 1.824 . S
C1088 C745 1.546 . S
C1069 C381 1.479 . S
C1105 C461 1.779 . S
C1124 C761 1.761 . S
C1160 C774 1.520 . S
C1141 C362 1.482 . S
C1177 C415 1.600 . S
C1196 C759 1.570 . S
C1232 C772 1.562 . S
C1213 C495 1.552 . S
C1249 C301 1.985 . S
C1268 C788 1.978 . S
C1285 C175 1.640 . S
C1304 C787 1.623 . S
C1321 C215 1.773 . S
C1340 C786 1.712 . S
C1357 C242 1.591 . S
C1376 C789 1.633 . S
C1393 C141 1.783 . S
C1412 C691 1.781 . S
C1429 C581 1.547 . S
C1448 C689 1.537 . S
C1484 C649 1.537 . S
C1465 C615 1.552 . S
C1520 C660 1.812 . S
C1501 C335 1.826 . S
C1537 C181 1.663 . S
C1556 C705 1.714 . S
C1592 C746 1.954 . S
C1573 C455 1.973 . S
C1628 C703 1.516 . S
C1609 C375 1.503 . S
C1664 C731 1.578 . S
C1645 C501 1.528 . S
C1700 C732 1.641 . S
C1681 C562 1.650 . S
C1717 C621 1.779 . S
C1736 C747 1.806 . S
C1753 C322 1.769 . S
C1772 C704 1.751 . S
C1808 C718 1.584 . S
C1789 C522 1.564 . S
C1825 C122 1.748 . S
C1844 C674 1.713 . S
C1880 C688 1.323 . S
C1861 C2 1.278 . S
C1916 C646 1.793 . S
C1897 C42 1.843 . S
C1952 C661 1.544 . S
C1933 C101 1.483 . S
C1969 C61 1.780 . S
C1988 C775 1.755 . S
C2005 C82 1.490 . S
C2024 C760 1.543 . S
C2041 C135 1.599 . S
C2060 C773 1.536 . S
C2077 C15 1.551 . S
C2096 C758 1.571 . S
C2132 C802 1.979 . S
C2113 C341 1.984 . S
C2168 C801 1.650 . S
C2149 C535 1.644 . S
C2204 C800 1.709 . S
C2185 C575 1.773 . S
C2221 C602 1.589 . S
C2240 C803 1.618 . S
C2257 C421 1.783 . S
C2276 C719 1.781 . S
C2312 C717 1.526 . S
C2293 C221 1.549 . S
C2348 C733 1.527 . S
C2329 C255 1.550 . S
C2384 C744 1.803 . S
C2365 C295 1.827 . S
C2401 C541 1.660 . S
C2420 C677 1.710 . S
C2456 C662 1.956 . S
C2437 C55 1.974 . S
C2473 C95 1.508 . S
C2492 C675 1.524 . S
C2528 C647 1.600 . S
C2509 C21 1.529 . S
