# Generated by pormake.
# Topology iac, (4,6)-cn, num edge types: 1
# Building blocks:
#     Node 0, Type 0, BuildingBlock: QUQFOY_clean_sbu_3, # of connection points: 4
#     Node 1, Type 0, BuildingBlock: QUQFOY_clean_sbu_3, # of connection points: 4
#     Node 2, Type 0, BuildingBlock: QUQFOY_clean_sbu_3, # of connection points: 4
#     Node 3, Type 0, BuildingBlock: QUQFOY_clean_sbu_3, # of connection points: 4
#     Node 4, Type 0, BuildingBlock: QUQFOY_clean_sbu_3, # of connection points: 4
#     Node 5, Type 0, BuildingBlock: QUQFOY_clean_sbu_3, # of connection points: 4
#     Node 6, Type 0, BuildingBlock: QUQFOY_clean_sbu_3, # of connection points: 4
#     Node 7, Type 0, BuildingBlock: QUQFOY_clean_sbu_3, # of connection points: 4
#     Node 8, Type 0, BuildingBlock: QUQFOY_clean_sbu_3, # of connection points: 4
#     Node 9, Type 0, BuildingBlock: QUQFOY_clean_sbu_3, # of connection points: 4
#     Node 10, Type 0, BuildingBlock: QUQFOY_clean_sbu_3, # of connection points: 4
#     Node 11, Type 0, BuildingBlock: QUQFOY_clean_sbu_3, # of connection points: 4
#     Node 12, Type 0, BuildingBlock: QUQFOY_clean_sbu_3, # of connection points: 4
#     Node 13, Type 0, BuildingBlock: QUQFOY_clean_sbu_3, # of connection points: 4
#     Node 14, Type 0, BuildingBlock: QUQFOY_clean_sbu_3, # of connection points: 4
#     Node 15, Type 0, BuildingBlock: QUQFOY_clean_sbu_3, # of connection points: 4
#     Node 16, Type 0, BuildingBlock: QUQFOY_clean_sbu_3, # of connection points: 4
#     Node 17, Type 0, BuildingBlock: QUQFOY_clean_sbu_3, # of connection points: 4
#     Node 18, Type 0, BuildingBlock: QUQFOY_clean_sbu_3, # of connection points: 4
#     Node 19, Type 0, BuildingBlock: QUQFOY_clean_sbu_3, # of connection points: 4
#     Node 20, Type 0, BuildingBlock: QUQFOY_clean_sbu_3, # of connection points: 4
#     Node 21, Type 0, BuildingBlock: QUQFOY_clean_sbu_3, # of connection points: 4
#     Node 22, Type 0, BuildingBlock: QUQFOY_clean_sbu_3, # of connection points: 4
#     Node 23, Type 0, BuildingBlock: QUQFOY_clean_sbu_3, # of connection points: 4
#     Node 24, Type 1, BuildingBlock: VOLQOD_clean_sbu_1, # of connection points: 6
#     Node 25, Type 1, BuildingBlock: VOLQOD_clean_sbu_1, # of connection points: 6
#     Node 26, Type 1, BuildingBlock: VOLQOD_clean_sbu_1, # of connection points: 6
#     Node 27, Type 1, BuildingBlock: VOLQOD_clean_sbu_1, # of connection points: 6
#     Node 28, Type 1, BuildingBlock: VOLQOD_clean_sbu_1, # of connection points: 6
#     Node 29, Type 1, BuildingBlock: VOLQOD_clean_sbu_1, # of connection points: 6
#     Node 30, Type 1, BuildingBlock: VOLQOD_clean_sbu_1, # of connection points: 6
#     Node 31, Type 1, BuildingBlock: VOLQOD_clean_sbu_1, # of connection points: 6
#     Node 32, Type 1, BuildingBlock: VOLQOD_clean_sbu_1, # of connection points: 6
#     Node 33, Type 1, BuildingBlock: VOLQOD_clean_sbu_1, # of connection points: 6
#     Node 34, Type 1, BuildingBlock: VOLQOD_clean_sbu_1, # of connection points: 6
#     Node 35, Type 1, BuildingBlock: VOLQOD_clean_sbu_1, # of connection points: 6
#     Node 36, Type 1, BuildingBlock: VOLQOD_clean_sbu_1, # of connection points: 6
#     Node 37, Type 1, BuildingBlock: VOLQOD_clean_sbu_1, # of connection points: 6
#     Node 38, Type 1, BuildingBlock: VOLQOD_clean_sbu_1, # of connection points: 6
#     Node 39, Type 1, BuildingBlock: VOLQOD_clean_sbu_1, # of connection points: 6
#     Edge 40, Type (0, 1), BuildingBlock: TEMPAE_clean_linker_10, # of connection points: 2
#     Edge 41, Type (0, 1), BuildingBlock: TEMPAE_clean_linker_10, # of connection points: 2
#     Edge 42, Type (0, 1), BuildingBlock: TEMPAE_clean_linker_10, # of connection points: 2
#     Edge 43, Type (0, 1), BuildingBlock: TEMPAE_clean_linker_10, # of connection points: 2
#     Edge 44, Type (0, 1), BuildingBlock: TEMPAE_clean_linker_10, # of connection points: 2
#     Edge 45, Type (0, 1), BuildingBlock: TEMPAE_clean_linker_10, # of connection points: 2
#     Edge 46, Type (0, 1), BuildingBlock: TEMPAE_clean_linker_10, # of connection points: 2
#     Edge 47, Type (0, 1), BuildingBlock: TEMPAE_clean_linker_10, # of connection points: 2
#     Edge 48, Type (0, 1), BuildingBlock: TEMPAE_clean_linker_10, # of connection points: 2
#     Edge 49, Type (0, 1), BuildingBlock: TEMPAE_clean_linker_10, # of connection points: 2
#     Edge 50, Type (0, 1), BuildingBlock: TEMPAE_clean_linker_10, # of connection points: 2
#     Edge 51, Type (0, 1), BuildingBlock: TEMPAE_clean_linker_10, # of connection points: 2
#     Edge 52, Type (0, 1), BuildingBlock: TEMPAE_clean_linker_10, # of connection points: 2
#     Edge 53, Type (0, 1), BuildingBlock: TEMPAE_clean_linker_10, # of connection points: 2
#     Edge 54, Type (0, 1), BuildingBlock: TEMPAE_clean_linker_10, # of connection points: 2
#     Edge 55, Type (0, 1), BuildingBlock: TEMPAE_clean_linker_10, # of connection points: 2
#     Edge 56, Type (0, 1), BuildingBlock: TEMPAE_clean_linker_10, # of connection points: 2
#     Edge 57, Type (0, 1), BuildingBlock: TEMPAE_clean_linker_10, # of connection points: 2
#     Edge 58, Type (0, 1), BuildingBlock: TEMPAE_clean_linker_10, # of connection points: 2
#     Edge 59, Type (0, 1), BuildingBlock: TEMPAE_clean_linker_10, # of connection points: 2
#     Edge 60, Type (0, 1), BuildingBlock: TEMPAE_clean_linker_10, # of connection points: 2
#     Edge 61, Type (0, 1), BuildingBlock: TEMPAE_clean_linker_10, # of connection points: 2
#     Edge 62, Type (0, 1), BuildingBlock: TEMPAE_clean_linker_10, # of connection points: 2
#     Edge 63, Type (0, 1), BuildingBlock: TEMPAE_clean_linker_10, # of connection points: 2
#     Edge 64, Type (0, 1), BuildingBlock: TEMPAE_clean_linker_10, # of connection points: 2
#     Edge 65, Type (0, 1), BuildingBlock: TEMPAE_clean_linker_10, # of connection points: 2
#     Edge 66, Type (0, 1), BuildingBlock: TEMPAE_clean_linker_10, # of connection points: 2
#     Edge 67, Type (0, 1), BuildingBlock: TEMPAE_clean_linker_10, # of connection points: 2
#     Edge 68, Type (0, 1), BuildingBlock: TEMPAE_clean_linker_10, # of connection points: 2
#     Edge 69, Type (0, 1), BuildingBlock: TEMPAE_clean_linker_10, # of connection points: 2
#     Edge 70, Type (0, 1), BuildingBlock: TEMPAE_clean_linker_10, # of connection points: 2
#     Edge 71, Type (0, 1), BuildingBlock: TEMPAE_clean_linker_10, # of connection points: 2
#     Edge 72, Type (0, 1), BuildingBlock: TEMPAE_clean_linker_10, # of connection points: 2
#     Edge 73, Type (0, 1), BuildingBlock: TEMPAE_clean_linker_10, # of connection points: 2
#     Edge 74, Type (0, 1), BuildingBlock: TEMPAE_clean_linker_10, # of connection points: 2
#     Edge 75, Type (0, 1), BuildingBlock: TEMPAE_clean_linker_10, # of connection points: 2
#     Edge 76, Type (0, 1), BuildingBlock: TEMPAE_clean_linker_10, # of connection points: 2
#     Edge 77, Type (0, 1), BuildingBlock: TEMPAE_clean_linker_10, # of connection points: 2
#     Edge 78, Type (0, 1), BuildingBlock: TEMPAE_clean_linker_10, # of connection points: 2
#     Edge 79, Type (0, 1), BuildingBlock: TEMPAE_clean_linker_10, # of connection points: 2
#     Edge 80, Type (0, 1), BuildingBlock: TEMPAE_clean_linker_10, # of connection points: 2
#     Edge 81, Type (0, 1), BuildingBlock: TEMPAE_clean_linker_10, # of connection points: 2
#     Edge 82, Type (0, 1), BuildingBlock: TEMPAE_clean_linker_10, # of connection points: 2
#     Edge 83, Type (0, 1), BuildingBlock: TEMPAE_clean_linker_10, # of connection points: 2
#     Edge 84, Type (0, 1), BuildingBlock: TEMPAE_clean_linker_10, # of connection points: 2
#     Edge 85, Type (0, 1), BuildingBlock: TEMPAE_clean_linker_10, # of connection points: 2
#     Edge 86, Type (0, 1), BuildingBlock: TEMPAE_clean_linker_10, # of connection points: 2
#     Edge 87, Type (0, 1), BuildingBlock: TEMPAE_clean_linker_10, # of connection points: 2
#     Edge 88, Type (0, 1), BuildingBlock: TEMPAE_clean_linker_10, # of connection points: 2
#     Edge 89, Type (0, 1), BuildingBlock: TEMPAE_clean_linker_10, # of connection points: 2
#     Edge 90, Type (0, 1), BuildingBlock: TEMPAE_clean_linker_10, # of connection points: 2
#     Edge 91, Type (0, 1), BuildingBlock: TEMPAE_clean_linker_10, # of connection points: 2
#     Edge 92, Type (0, 1), BuildingBlock: TEMPAE_clean_linker_10, # of connection points: 2
#     Edge 93, Type (0, 1), BuildingBlock: TEMPAE_clean_linker_10, # of connection points: 2
#     Edge 94, Type (0, 1), BuildingBlock: TEMPAE_clean_linker_10, # of connection points: 2
#     Edge 95, Type (0, 1), BuildingBlock: TEMPAE_clean_linker_10, # of connection points: 2
#     Edge 96, Type (0, 1), BuildingBlock: TEMPAE_clean_linker_10, # of connection points: 2
#     Edge 97, Type (0, 1), BuildingBlock: TEMPAE_clean_linker_10, # of connection points: 2
#     Edge 98, Type (0, 1), BuildingBlock: TEMPAE_clean_linker_10, # of connection points: 2
#     Edge 99, Type (0, 1), BuildingBlock: TEMPAE_clean_linker_10, # of connection points: 2
#     Edge 100, Type (0, 1), BuildingBlock: TEMPAE_clean_linker_10, # of connection points: 2
#     Edge 101, Type (0, 1), BuildingBlock: TEMPAE_clean_linker_10, # of connection points: 2
#     Edge 102, Type (0, 1), BuildingBlock: TEMPAE_clean_linker_10, # of connection points: 2
#     Edge 103, Type (0, 1), BuildingBlock: TEMPAE_clean_linker_10, # of connection points: 2
#     Edge 104, Type (0, 1), BuildingBlock: TEMPAE_clean_linker_10, # of connection points: 2
#     Edge 105, Type (0, 1), BuildingBlock: TEMPAE_clean_linker_10, # of connection points: 2
#     Edge 106, Type (0, 1), BuildingBlock: TEMPAE_clean_linker_10, # of connection points: 2
#     Edge 107, Type (0, 1), BuildingBlock: TEMPAE_clean_linker_10, # of connection points: 2
#     Edge 108, Type (0, 1), BuildingBlock: TEMPAE_clean_linker_10, # of connection points: 2
#     Edge 109, Type (0, 1), BuildingBlock: TEMPAE_clean_linker_10, # of connection points: 2
#     Edge 110, Type (0, 1), BuildingBlock: TEMPAE_clean_linker_10, # of connection points: 2
#     Edge 111, Type (0, 1), BuildingBlock: TEMPAE_clean_linker_10, # of connection points: 2
#     Edge 112, Type (0, 1), BuildingBlock: TEMPAE_clean_linker_10, # of connection points: 2
#     Edge 113, Type (0, 1), BuildingBlock: TEMPAE_clean_linker_10, # of connection points: 2
#     Edge 114, Type (0, 1), BuildingBlock: TEMPAE_clean_linker_10, # of connection points: 2
#     Edge 115, Type (0, 1), BuildingBlock: TEMPAE_clean_linker_10, # of connection points: 2
#     Edge 116, Type (0, 1), BuildingBlock: TEMPAE_clean_linker_10, # of connection points: 2
#     Edge 117, Type (0, 1), BuildingBlock: TEMPAE_clean_linker_10, # of connection points: 2
#     Edge 118, Type (0, 1), BuildingBlock: TEMPAE_clean_linker_10, # of connection points: 2
#     Edge 119, Type (0, 1), BuildingBlock: TEMPAE_clean_linker_10, # of connection points: 2
#     Edge 120, Type (0, 1), BuildingBlock: TEMPAE_clean_linker_10, # of connection points: 2
#     Edge 121, Type (0, 1), BuildingBlock: TEMPAE_clean_linker_10, # of connection points: 2
#     Edge 122, Type (0, 1), BuildingBlock: TEMPAE_clean_linker_10, # of connection points: 2
#     Edge 123, Type (0, 1), BuildingBlock: TEMPAE_clean_linker_10, # of connection points: 2
#     Edge 124, Type (0, 1), BuildingBlock: TEMPAE_clean_linker_10, # of connection points: 2
#     Edge 125, Type (0, 1), BuildingBlock: TEMPAE_clean_linker_10, # of connection points: 2
#     Edge 126, Type (0, 1), BuildingBlock: TEMPAE_clean_linker_10, # of connection points: 2
#     Edge 127, Type (0, 1), BuildingBlock: TEMPAE_clean_linker_10, # of connection points: 2
#     Edge 128, Type (0, 1), BuildingBlock: TEMPAE_clean_linker_10, # of connection points: 2
#     Edge 129, Type (0, 1), BuildingBlock: TEMPAE_clean_linker_10, # of connection points: 2
#     Edge 130, Type (0, 1), BuildingBlock: TEMPAE_clean_linker_10, # of connection points: 2
#     Edge 131, Type (0, 1), BuildingBlock: TEMPAE_clean_linker_10, # of connection points: 2
#     Edge 132, Type (0, 1), BuildingBlock: TEMPAE_clean_linker_10, # of connection points: 2
#     Edge 133, Type (0, 1), BuildingBlock: TEMPAE_clean_linker_10, # of connection points: 2
#     Edge 134, Type (0, 1), BuildingBlock: TEMPAE_clean_linker_10, # of connection points: 2
#     Edge 135, Type (0, 1), BuildingBlock: TEMPAE_clean_linker_10, # of connection points: 2
# Relax obj value: 0.303
# Max RMSD: 0.292
# Mean RMSD: 0.139
data_MOF--net-iac--node1-QUQFOY_clean_sbu_3--node2-VOLQOD_clean_sbu_1--edge1-TEMPAE_clean_linker_10
_symmetry_space_group_name_H-M    P1
_symmetry_Int_Tables_number       1
_symmetry_cell_setting            triclinic
loop_
_symmetry_equiv_pos_as_xyz
'x, y, z'
_cell_length_a     55.393592
_cell_length_b     56.462437
_cell_length_c     55.874092
_cell_angle_alpha  90.957381
_cell_angle_beta   89.995228
_cell_angle_gamma 90.776494
loop_
_atom_site_label
_atom_site_type_symbol
_atom_site_fract_x
_atom_site_fract_y
_atom_site_fract_z
_atom_type_partial_charge
C0 C 0.98235 0.22876 0.15764 0.0
O1 O 0.00082 0.21568 0.15818 0.0
Cd2 Cd 0.03433 0.2172 0.13134 0.0
O3 O 0.98089 0.24533 0.14242 0.0
Cd4 Cd 0.0071 0.25948 0.10899 0.0
C5 C -0.00039 0.20526 0.08302 0.0
O6 O 0.04573 0.25812 0.12948 0.0
O7 O 0.04747 0.26396 0.09141 0.0
O8 O -0.00486 0.30113 0.11312 0.0
C9 C 0.05813 0.26396 0.11144 0.0
O10 O 0.01695 0.19799 0.09577 0.0
C11 C -0.00808 0.30347 0.09073 0.0
O12 O -0.00775 0.22636 0.0853 0.0
O13 O -0.00628 0.28495 0.0777 0.0
C14 C 0.97388 0.74207 0.306 0.0
O15 O 0.98639 0.75987 0.29928 0.0
Cd16 Cd 0.02693 0.77392 0.30911 0.0
O17 O 0.9823 0.72723 0.32075 0.0
Cd18 Cd 0.01943 0.72257 0.34469 0.0
C19 C 0.01663 0.78029 0.36917 0.0
O20 O 0.04759 0.73953 0.31818 0.0
O21 O 0.06045 0.70744 0.33251 0.0
O22 O 0.00764 0.68178 0.35191 0.0
C23 C 0.06459 0.72507 0.31939 0.0
O24 O 0.02136 0.78993 0.3492 0.0
C25 C 0.014 0.6824 0.37383 0.0
O26 O 0.01489 0.75783 0.37111 0.0
O27 O 0.0223 0.70199 0.38218 0.0
C28 C 0.46892 0.69211 0.62506 0.0
O29 O 0.48638 0.68164 0.63485 0.0
Cd30 Cd 0.52767 0.69278 0.63041 0.0
O31 O 0.47283 0.70931 0.61097 0.0
Cd32 Cd 0.5107 0.72753 0.59504 0.0
C33 C 0.5331 0.67661 0.57298 0.0
O34 O 0.52859 0.73556 0.6338 0.0
O35 O 0.55289 0.73942 0.60398 0.0
O36 O 0.49227 0.76587 0.58743 0.0
C37 C 0.54814 0.74398 0.62573 0.0
O38 O 0.5407 0.67231 0.59391 0.0
C39 C 0.50118 0.7675 0.56654 0.0
O40 O 0.52042 0.6947 0.56934 0.0
O41 O 0.51259 0.74975 0.55857 0.0
C42 C 0.47474 0.24973 0.85529 0.0
O43 O 0.49342 0.26016 0.84718 0.0
Cd44 Cd 0.53223 0.26177 0.86501 0.0
O45 O 0.47522 0.23913 0.87533 0.0
Cd46 Cd 0.5053 0.23281 0.90793 0.0
C47 C 0.51471 0.29232 0.91518 0.0
O48 O 0.53512 0.22253 0.87945 0.0
O49 O 0.54972 0.22668 0.91467 0.0
O50 O 0.48624 0.19527 0.91904 0.0
C51 C 0.55331 0.22129 0.89284 0.0
O52 O 0.52787 0.29206 0.89648 0.0
C53 C 0.48476 0.2005 0.94121 0.0
O54 O 0.50365 0.27371 0.92193 0.0
O55 O 0.49271 0.22077 0.94776 0.0
C56 C 0.09295 0.0409 0.29052 0.0
O57 O 0.07637 0.05222 0.28021 0.0
Cd58 Cd 0.07496 0.06042 0.23893 0.0
O59 O 0.11092 0.033 0.27868 0.0
Cd60 Cd 0.12499 0.03328 0.23618 0.0
C61 C 0.12684 0.09342 0.23483 0.0
O62 O 0.08551 0.02295 0.22122 0.0
O63 O 0.11151 0.03186 0.19398 0.0
O64 O 0.14055 -0.00638 0.2408 0.0
C65 C 0.0908 0.02364 0.19926 0.0
O66 O 0.10389 0.09297 0.23519 0.0
C67 C 0.16198 -0.0015 0.23435 0.0
O68 O 0.13887 0.07441 0.23541 0.0
O69 O 0.16649 0.01985 0.22893 0.0
C70 C 0.31119 0.94426 0.56209 0.0
O71 O 0.29687 0.95802 0.55155 0.0
Cd72 Cd 0.25974 0.94702 0.53309 0.0
O73 O 0.30579 0.92239 0.56447 0.0
Cd74 Cd 0.27072 0.89708 0.55256 0.0
C75 C 0.28242 0.90596 0.49431 0.0
O76 O 0.23808 0.92414 0.56201 0.0
O77 O 0.22922 0.89508 0.53809 0.0
O78 O 0.27205 0.87069 0.58703 0.0
C79 C 0.22197 0.91208 0.55115 0.0
O80 O 0.27139 0.92556 0.4962 0.0
C81 C 0.27063 0.85194 0.57412 0.0
O82 O 0.286 0.89348 0.51261 0.0
O83 O 0.27071 0.85448 0.55163 0.0
C84 C 0.39621 0.9667 0.80654 0.0
O85 O 0.4107 0.94958 0.80434 0.0
Cd86 Cd 0.42298 0.93219 0.76736 0.0
O87 O 0.3863 0.97564 0.78827 0.0
Cd88 Cd 0.38546 0.96744 0.74458 0.0
C89 C 0.36884 0.90963 0.74809 0.0
O90 O 0.42892 0.96471 0.74098 0.0
O91 O 0.40835 0.95609 0.70902 0.0
O92 O 0.38282 0.00812 0.73103 0.0
C93 C 0.42878 0.95996 0.71874 0.0
O94 O 0.38976 0.90588 0.75648 0.0
C95 C 0.36043 0.0071 0.72644 0.0
O96 O 0.36242 0.93038 0.74262 0.0
O97 O 0.34948 0.98767 0.73022 0.0
C98 C 0.1956 0.0825 0.03033 0.0
O99 O 0.17827 0.08567 0.04482 0.0
Cd100 Cd 0.15264 0.11897 0.04115 0.0
O101 O 0.19925 0.0969 0.01329 0.0
Cd102 Cd 0.18096 0.13336 -0.00282 0.0
C103 C 0.19535 0.1627 0.04772 0.0
O104 O 0.14043 0.11886 -0.00035 0.0
O105 O 0.14316 0.15676 -0.00432 0.0
O106 O 0.1939 0.11968 0.95732 0.0
C107 C 0.13033 0.13805 -0.00547 0.0
O108 O 0.1768 0.15276 0.05679 0.0
C109 C 0.1991 0.14038 0.95021 0.0
O110 O 0.20178 0.15764 0.02647 0.0
O111 O 0.19651 0.15732 0.96514 0.0
C112 C 0.77799 0.4416 0.06945 0.0
O113 O 0.75863 0.45169 0.06343 0.0
Cd114 Cd 0.72085 0.43427 0.0542 0.0
O115 O 0.7784 0.41921 0.07266 0.0
Cd116 Cd 0.74725 0.38633 0.07007 0.0
C117 C 0.74261 0.39697 0.01064 0.0
O118 O 0.71449 0.40843 0.08694 0.0
O119 O 0.70327 0.37699 0.06809 0.0
O120 O 0.76235 0.3613 0.1023 0.0
C121 C 0.69736 0.39464 0.08097 0.0
O122 O 0.7295 0.41481 0.0154 0.0
C123 C 0.76175 0.34247 0.08941 0.0
O124 O 0.75162 0.38487 0.02729 0.0
O125 O 0.75586 0.34465 0.06765 0.0
C126 C 0.89167 0.43299 0.28448 0.0
O127 O 0.90602 0.42061 0.27193 0.0
Cd128 Cd 0.90396 0.41948 0.22945 0.0
O129 O 0.87601 0.44597 0.27459 0.0
Cd130 Cd 0.86411 0.45583 0.23319 0.0
C131 C 0.84601 0.39939 0.22461 0.0
O132 O 0.90524 0.46089 0.21989 0.0
O133 O 0.87874 0.45957 0.19161 0.0
O134 O 0.85597 0.49537 0.24905 0.0
C135 C 0.9 0.465 0.19837 0.0
O136 O 0.86815 0.39484 0.22097 0.0
C137 C 0.83708 0.49828 0.23663 0.0
O138 O 0.83961 0.42022 0.23035 0.0
O139 O 0.83026 0.48102 0.22332 0.0
C140 C 0.76773 0.60636 0.57327 0.0
O141 O 0.75563 0.6026 0.59217 0.0
Cd142 Cd 0.7135 0.60922 0.59525 0.0
O143 O 0.75771 0.61485 0.55475 0.0
Cd144 Cd 0.71622 0.62742 0.54382 0.0
C145 C 0.71326 0.66859 0.58855 0.0
O146 O 0.70049 0.59019 0.55845 0.0
O147 O 0.67339 0.61421 0.54653 0.0
O148 O 0.72818 0.62058 0.50172 0.0
C149 C 0.67885 0.59338 0.55245 0.0
O150 O 0.70898 0.65173 0.60281 0.0
C151 C 0.71599 0.6377 0.49385 0.0
O152 O 0.71764 0.6642 0.56666 0.0
O153 O 0.70455 0.64994 0.50921 0.0
C154 C 0.58756 0.57437 0.78443 0.0
O155 O 0.57427 0.58958 0.77464 0.0
Cd156 Cd 0.57478 0.59543 0.73223 0.0
O157 O 0.60157 0.56162 0.77175 0.0
Cd158 Cd 0.61287 0.55664 0.72931 0.0
C159 C 0.63308 0.61332 0.72638 0.0
O160 O 0.5717 0.55637 0.71424 0.0
O161 O 0.59964 0.55739 0.6873 0.0
O162 O 0.61637 0.51448 0.73647 0.0
C163 C 0.57749 0.55431 0.69239 0.0
O164 O 0.61106 0.61915 0.72462 0.0
C165 C 0.63815 0.51298 0.72969 0.0
O166 O 0.63868 0.59185 0.72948 0.0
O167 O 0.64835 0.53188 0.72259 0.0
C168 C 0.9662 0.802 0.83203 0.0
O169 O 0.98396 0.81005 0.82013 0.0
Cd170 Cd 0.02536 0.80443 0.83044 0.0
O171 O 0.96963 0.78995 0.85079 0.0
Cd172 Cd 0.0038 0.77516 0.87447 0.0
C173 C 0.02595 0.83064 0.8857 0.0
O174 O 0.02699 0.76303 0.83998 0.0
O175 O 0.04551 0.76075 0.87372 0.0
O176 O 0.97993 0.74008 0.88474 0.0
C177 C 0.04557 0.75687 0.85134 0.0
O178 O 0.0328 0.83203 0.86402 0.0
C179 C 0.98336 0.74226 0.90716 0.0
O180 O 0.01451 0.8125 0.89302 0.0
O181 O -0.00404 0.75995 0.91426 0.0
C182 C 0.94288 0.23489 0.68383 0.0
O183 O 0.94875 0.21576 0.69375 0.0
Cd184 Cd 0.98388 0.19593 0.67722 0.0
O185 O 0.95406 0.24184 0.66541 0.0
Cd186 Cd 0.98573 0.23504 0.63645 0.0
C187 C 0.96946 0.17968 0.61915 0.0
O188 O 0.01408 0.22597 0.66822 0.0
O189 O 0.02779 0.22539 0.63192 0.0
O190 O 0.97872 0.27675 0.64014 0.0
C191 C 0.03163 0.22239 0.65403 0.0
O192 O 0.97414 0.17384 0.64056 0.0
C193 C 0.98084 0.28134 0.61815 0.0
O194 O 0.97019 0.20132 0.61305 0.0
O195 O 0.98687 0.26443 0.60415 0.0
C196 C 0.46132 0.23505 0.33843 0.0
O197 O 0.47969 0.24529 0.32944 0.0
Cd198 Cd 0.52106 0.24145 0.34008 0.0
O199 O 0.46348 0.22139 0.35628 0.0
Cd200 Cd 0.49857 0.20952 0.38097 0.0
C201 C 0.51987 0.26498 0.39568 0.0
O202 O 0.52341 0.19973 0.34683 0.0
O203 O 0.54147 0.19785 0.3807 0.0
O204 O 0.48327 0.172 0.39725 0.0
C205 C 0.5421 0.19428 0.35829 0.0
O206 O 0.52851 0.26774 0.37481 0.0
C207 C 0.48452 0.17959 0.41882 0.0
O208 O 0.50771 0.24654 0.40062 0.0
O209 O 0.49075 0.20107 0.42204 0.0
C210 C 0.51411 0.78627 0.177 0.0
O211 O 0.53199 0.77785 0.18808 0.0
Cd212 Cd 0.56688 0.76148 0.16824 0.0
O213 O 0.51427 0.78806 0.15432 0.0
Cd214 Cd 0.53967 0.78281 0.11843 0.0
C215 C 0.54151 0.72309 0.12542 0.0
O216 O 0.57731 0.78862 0.13798 0.0
O217 O 0.58027 0.77591 0.10172 0.0
O218 O 0.52828 0.82147 0.1045 0.0
C219 C 0.59042 0.77934 0.12188 0.0
O220 O 0.55419 0.72639 0.14432 0.0
C221 C 0.51619 0.81376 0.0866 0.0
O222 O 0.53269 0.74046 0.11419 0.0
O223 O 0.51644 0.79154 0.08249 0.0
C224 C 0.90047 0.024 0.77721 0.0
O225 O 0.91314 0.01047 0.76402 0.0
Cd226 Cd 0.9173 0.0148 0.72194 0.0
O227 O 0.89044 0.04229 0.76879 0.0
Cd228 Cd 0.88594 0.06591 0.73207 0.0
C229 C 0.85552 0.01789 0.70971 0.0
O230 O 0.92486 0.05568 0.71848 0.0
O231 O 0.90444 0.07407 0.69237 0.0
O232 O 0.8898 0.09942 0.75993 0.0
C233 C 0.92334 0.06263 0.6972 0.0
O234 O 0.87581 0.00748 0.70874 0.0
C235 C 0.87297 0.11122 0.75059 0.0
O236 O 0.85382 0.03888 0.71829 0.0
O237 O 0.86262 0.10218 0.73222 0.0
C238 C 0.84495 0.10575 0.54531 0.0
O239 O 0.84321 0.09977 0.56706 0.0
Cd240 Cd 0.80563 0.10794 0.58677 0.0
O241 O 0.82848 0.11795 0.53592 0.0
Cd242 Cd 0.78977 0.13715 0.54128 0.0
C243 C 0.79883 0.16806 0.5929 0.0
O244 O 0.77679 0.09865 0.55544 0.0
O245 O 0.74873 0.12438 0.55105 0.0
O246 O 0.7998 0.13233 0.49969 0.0
C247 C 0.75458 0.10349 0.55642 0.0
O248 O 0.80252 0.14821 0.60261 0.0
C249 C 0.78681 0.14867 0.49174 0.0
O250 O 0.79531 0.16935 0.57046 0.0
O251 O 0.77428 0.16008 0.507 0.0
C252 C 0.5739 0.99217 0.28841 0.0
O253 O 0.5624 0.00602 0.27494 0.0
Cd254 Cd 0.55967 -0.00029 0.23281 0.0
O255 O 0.58534 0.97456 0.27963 0.0
Cd256 Cd 0.59498 0.95359 0.24134 0.0
C257 C 0.62007 0.00374 0.21758 0.0
O258 O 0.55322 0.95769 0.23385 0.0
O259 O 0.57076 0.93792 0.20601 0.0
O260 O 0.60397 0.92386 0.2713 0.0
C261 C 0.55131 0.94635 0.21433 0.0
O262 O 0.59927 0.0131 0.21802 0.0
C263 C 0.61932 0.91292 0.25855 0.0
O264 O 0.62306 0.98285 0.22513 0.0
O265 O 0.62259 0.92028 0.23743 0.0
C266 C 0.71272 0.92481 0.03343 0.0
O267 O 0.69884 0.93992 0.02419 0.0
Cd268 Cd 0.65718 0.93279 0.01615 0.0
O269 O 0.70505 0.90415 0.03871 0.0
Cd270 Cd 0.66932 0.87757 0.0389 0.0
C271 C 0.66439 0.88394 0.97826 0.0
O272 O 0.64852 0.91132 0.05103 0.0
O273 O 0.62561 0.8805 0.05086 0.0
O274 O 0.69431 0.86305 0.07046 0.0
C275 C 0.62764 0.90278 0.05379 0.0
O276 O 0.65878 0.90556 0.98171 0.0
C277 C 0.68768 0.84151 0.06843 0.0
O278 O 0.66945 0.87061 -0.00428 0.0
O279 O 0.67162 0.8365 0.05281 0.0
C280 C 0.30491 0.60908 0.01992 0.0
O281 O 0.29601 0.60092 0.03909 0.0
Cd282 Cd 0.25781 0.61676 0.05166 0.0
O283 O 0.29534 0.62661 0.00981 0.0
Cd284 Cd 0.26337 0.65579 0.01082 0.0
C285 C 0.27045 0.67479 0.06784 0.0
O286 O 0.23827 0.621 0.01351 0.0
O287 O 0.21863 0.65347 0.0104 0.0
O288 O 0.28563 0.6569 0.97407 0.0
C289 C 0.21813 0.63107 0.01187 0.0
O290 O 0.2638 0.65409 0.07401 0.0
C291 C 0.27658 0.67567 0.96617 0.0
O292 O 0.27337 0.67976 0.04592 0.0
O293 O 0.26063 0.68563 0.97908 0.0
C294 C 0.04557 0.46573 0.77809 0.0
O295 O 0.03685 0.47517 0.75955 0.0
Cd296 Cd 0.05445 0.47493 0.72009 0.0
O297 O 0.0654 0.45456 0.77702 0.0
Cd298 Cd 0.0967 0.44324 0.74763 0.0
C299 C 0.11044 0.49988 0.73177 0.0
O300 O 0.07088 0.43676 0.71359 0.0
O301 O 0.10886 0.43777 0.70585 0.0
O302 O 0.10479 0.40344 0.7617 0.0
C303 C 0.08743 0.4367 0.69794 0.0
O304 O 0.08991 0.50134 0.72159 0.0
C305 C 0.12603 0.40848 0.76898 0.0
O306 O 0.11617 0.48167 0.74358 0.0
O307 O 0.13324 0.42977 0.76673 0.0
C308 C 0.24877 0.42234 0.50065 0.0
O309 O 0.22999 0.43411 0.49606 0.0
Cd310 Cd 0.19122 0.41469 0.49003 0.0
O311 O 0.24762 0.39993 0.50257 0.0
Cd312 Cd 0.22158 0.36455 0.50179 0.0
C313 C 0.20795 0.37619 0.44402 0.0
O314 O 0.18773 0.38431 0.51904 0.0
O315 O 0.18034 0.34881 0.50627 0.0
O316 O 0.24798 0.35398 0.53406 0.0
C317 C 0.17223 0.36804 0.51488 0.0
O318 O 0.19602 0.39402 0.45151 0.0
C319 C 0.25092 0.33263 0.52734 0.0
O320 O 0.22 0.36356 0.45837 0.0
O321 O 0.23969 0.32561 0.50861 0.0
C322 C 0.45387 0.52409 0.26795 0.0
O323 O 0.4624 0.52049 0.24711 0.0
Cd324 Cd 0.44285 0.53305 0.21094 0.0
O325 O 0.43445 0.53554 0.27105 0.0
Cd326 Cd 0.40221 0.55679 0.25114 0.0
C327 C 0.38747 0.50514 0.22206 0.0
O328 O 0.42516 0.57021 0.21822 0.0
O329 O 0.38673 0.574 0.21466 0.0
O330 O 0.40763 0.59027 0.27783 0.0
C331 C 0.40736 0.57467 0.20482 0.0
O332 O 0.40706 0.50767 0.21029 0.0
C333 C 0.38599 0.5907 0.28531 0.0
O334 O 0.38184 0.51947 0.2391 0.0
O335 O 0.37176 0.57439 0.27759 0.0
O336 O 0.90294 0.05596 0.01502 0.0
Zn337 Zn 0.92908 0.0383 -0.00144 0.0
O338 O 0.93585 0.00965 0.01548 0.0
Zn339 Zn 0.96997 0.00554 0.01797 0.0
Zn340 Zn 0.92184 0.01374 0.04704 0.0
Zn341 Zn 0.92201 0.9834 -0.00195 0.0
O342 O 0.98148 0.97914 -0.00339 0.0
O343 O 0.94713 0.95917 0.99051 0.0
O344 O 0.95805 0.05992 -0.00161 0.0
O345 O 0.98685 0.03612 0.01098 0.0
O346 O 0.97885 -0.0023 0.05137 0.0
O347 O 0.94586 0.00535 0.07263 0.0
O348 O 0.89192 0.99316 0.0495 0.0
O349 O 0.91925 0.03149 0.96509 0.0
O350 O 0.89468 0.97004 0.01689 0.0
O351 O 0.9098 0.99321 0.96566 0.0
C352 C 0.90675 0.06295 0.0364 0.0
C353 C 0.97002 0.96096 0.98866 0.0
C354 C 0.96783 -0.00095 0.07129 0.0
C355 C 0.97992 0.05628 0.00399 0.0
C356 C 0.88419 0.97595 0.03636 0.0
C357 C 0.91118 0.01281 0.95474 0.0
O358 O 0.91514 0.0486 0.05156 0.0
O359 O 0.28751 0.76851 0.22604 0.0
Zn360 Zn 0.28215 0.77324 0.26083 0.0
O361 O 0.29451 0.80383 0.27148 0.0
Zn362 Zn 0.32102 0.79917 0.29401 0.0
Zn363 Zn 0.30527 0.82207 0.24354 0.0
Zn364 Zn 0.26899 0.82017 0.28809 0.0
O365 O 0.3171 0.81894 0.32426 0.0
O366 O 0.27843 0.82844 0.32155 0.0
O367 O 0.29929 0.74729 0.27685 0.0
O368 O 0.32417 0.76466 0.30308 0.0
O369 O 0.35208 0.8078 0.27784 0.0
O370 O 0.34167 0.82646 0.24468 0.0
O371 O 0.28829 0.85372 0.24189 0.0
O372 O 0.24674 0.76898 0.26746 0.0
O373 O 0.26281 0.85095 0.27252 0.0
O374 O 0.23804 0.80123 0.28876 0.0
C375 C 0.29318 0.78205 0.20897 0.0
C376 C 0.2982 0.82829 0.33308 0.0
C377 C 0.35772 0.81872 0.25883 0.0
C378 C 0.31484 0.74608 0.29348 0.0
C379 C 0.27157 0.86229 0.25498 0.0
C380 C 0.23179 0.7814 0.27934 0.0
O381 O 0.29882 0.80377 0.21248 0.0
O382 O 0.53088 0.94497 0.51332 0.0
Zn383 Zn 0.52563 0.97963 0.51084 0.0
O384 O 0.5477 -0.00411 0.53253 0.0
Zn385 Zn 0.52965 0.01443 0.55524 0.0
Zn386 Zn 0.56725 0.97424 0.55052 0.0
Zn387 Zn 0.56735 0.01708 0.51454 0.0
O388 O 0.52645 0.0479 0.54482 0.0
O389 O 0.55484 0.0502 0.51696 0.0
O390 O 0.49104 0.98391 0.52132 0.0
O391 O 0.49615 0.00162 0.55677 0.0
O392 O 0.5425 0.01202 0.58847 0.0
O393 O 0.55734 0.97587 0.58513 0.0
O394 O 0.60252 0.98399 0.54912 0.0
O395 O 0.53169 0.98818 0.47624 0.0
O396 O 0.60132 0.01524 0.52528 0.0
O397 O 0.56591 0.00885 0.47989 0.0
C398 C 0.54508 0.93177 0.52482 0.0
C399 C 0.5379 0.05956 0.52909 0.0
C400 C 0.54949 0.99295 0.59798 0.0
C401 C 0.48271 0.99109 0.54142 0.0
C402 C 0.6129 0.00112 0.53844 0.0
C403 C 0.54984 -0.0013 0.46693 0.0
O404 O 0.5609 0.9405 0.53919 0.0
O405 O 0.2594 0.21071 0.78815 0.0
Zn406 Zn 0.26903 0.23492 0.76426 0.0
O407 O 0.26426 0.22225 0.73192 0.0
Zn408 Zn 0.29515 0.21884 0.715 0.0
Zn409 Zn 0.24637 0.19195 0.73264 0.0
Zn410 Zn 0.24537 0.24476 0.71545 0.0
O411 O 0.29577 0.23586 0.68275 0.0
O412 O 0.26067 0.25402 0.6854 0.0
O413 O 0.30388 0.24207 0.76963 0.0
O414 O 0.32252 0.23085 0.73612 0.0
O415 O 0.30106 0.1842 0.70918 0.0
O416 O 0.26596 0.16617 0.71696 0.0
O417 O 0.21328 0.19376 0.71729 0.0
O418 O 0.25029 0.26493 0.77133 0.0
O419 O 0.21326 0.23151 0.70717 0.0
O420 O 0.23919 0.27382 0.73455 0.0
C421 C 0.24822 0.19091 0.78681 0.0
C422 C 0.27999 0.24959 0.6741 0.0
C423 C 0.2878 0.16561 0.70983 0.0
C424 C 0.32304 0.23945 0.75737 0.0
C425 C 0.20269 0.21149 0.70844 0.0
C426 C 0.24061 0.279 0.7567 0.0
O427 O 0.24127 0.18199 0.76685 0.0
O428 O 0.01187 0.97326 0.44502 0.0
Zn429 Zn 0.98516 0.9641 0.46736 0.0
O430 O -0.00632 0.97316 0.49955 0.0
Zn431 Zn 0.00164 0.94661 0.51894 0.0
Zn432 Zn 0.01949 -0.00374 0.49977 0.0
Zn433 Zn 0.9645 0.98652 0.51174 0.0
O434 O 0.98741 0.95089 0.55196 0.0
O435 O 0.95889 0.97716 0.54523 0.0
O436 O 0.97982 0.9288 0.46601 0.0
O437 O -0.00786 0.91616 0.5016 0.0
O438 O 0.03709 0.94691 0.52495 0.0
O439 O 0.04756 0.98451 0.51876 0.0
O440 O 0.00769 0.02762 0.51268 0.0
O441 O 0.95579 0.98272 0.45769 0.0
O442 O 0.96782 0.02224 0.51375 0.0
O443 O 0.93648 0.97665 0.4913 0.0
C444 C 0.02874 0.98875 0.44693 0.0
C445 C 0.97017 0.9638 0.55928 0.0
C446 C 0.05251 0.96382 0.52592 0.0
C447 C 0.9838 0.9121 0.48058 0.0
C448 C 0.98648 0.03561 0.51594 0.0
C449 C 0.93657 0.98417 0.47005 0.0
O450 O 0.03255 9e-05 0.4665 0.0
O451 O 0.30994 0.69083 0.72251 0.0
Zn452 Zn 0.28463 0.70714 0.74169 0.0
O453 O 0.25278 0.69703 0.7311 0.0
Zn454 Zn 0.23343 0.7249 0.72494 0.0
Zn455 Zn 0.25516 0.67669 0.70248 0.0
Zn456 Zn 0.23774 0.67949 0.75622 0.0
O457 O 0.20301 0.72594 0.74438 0.0
O458 O 0.20694 0.69425 0.76685 0.0
O459 O 0.28939 0.74169 0.73624 0.0
O460 O 0.25221 0.75512 0.73146 0.0
O461 O 0.22598 0.72631 0.69009 0.0
O462 O 0.24458 0.69525 0.67397 0.0
O463 O 0.23533 0.64617 0.70599 0.0
O464 O 0.28991 0.70139 0.77688 0.0
O465 O 0.22868 0.64728 0.74517 0.0
O466 O 0.25848 0.67816 0.78508 0.0
C467 C 0.30979 0.67654 0.70466 0.0
C468 C 0.19524 0.71236 0.76068 0.0
C469 C 0.23293 0.71441 0.67187 0.0
C470 C 0.27482 0.75866 0.73364 0.0
C471 C 0.22711 0.63669 0.72498 0.0
C472 C 0.27801 0.68857 0.79137 0.0
O473 O 0.29004 0.66902 0.69538 0.0
O474 O 0.43005 0.01523 0.09584 0.0
Zn475 Zn 0.43571 0.0219 0.06121 0.0
O476 O 0.41304 0.00472 0.04084 0.0
Zn477 Zn 0.43082 0.99004 0.01509 0.0
Zn478 Zn 0.39546 0.98127 0.05943 0.0
Zn479 Zn 0.39127 0.02683 0.02715 0.0
O480 O 0.42074 0.00175 0.98325 0.0
O481 O 0.38689 0.02088 0.99165 0.0
O482 O 0.46884 0.00932 0.0557 0.0
O483 O 0.46651 -0.00675 0.01936 0.0
O484 O 0.42584 0.95505 0.01583 0.0
O485 O 0.40106 0.9482 0.04618 0.0
O486 O 0.35969 0.98926 0.06165 0.0
O487 O 0.43675 0.0567 0.05356 0.0
O488 O 0.3595 0.02404 0.04322 0.0
O489 O 0.4045 0.05993 0.03032 0.0
C490 C 0.42297 -0.00435 0.10467 0.0
C491 C 0.40186 0.0124 0.9766 0.0
C492 C 0.41442 0.9407 0.02916 0.0
C493 C 0.47871 -0.00087 0.03784 0.0
C494 C 0.34895 0.00802 0.05528 0.0
C495 C 0.4229 0.0691 0.04073 0.0
O496 O 0.41044 0.98079 0.09234 0.0
O497 O 0.2032 0.31409 0.20216 0.0
Zn498 Zn 0.22288 0.30042 0.22844 0.0
O499 O 0.25704 0.29968 0.21964 0.0
Zn500 Zn 0.26826 0.26709 0.21893 0.0
Zn501 Zn 0.26182 0.31424 0.18835 0.0
Zn502 Zn 0.27569 0.31699 0.24327 0.0
O503 O 0.2974 0.26219 0.23971 0.0
O504 O 0.30011 0.29674 0.259 0.0
O505 O 0.20976 0.26732 0.23227 0.0
O506 O 0.24225 0.24472 0.22984 0.0
O507 O 0.27493 0.25721 0.18506 0.0
O508 O 0.27427 0.29046 0.16444 0.0
O509 O 0.28302 0.34378 0.19022 0.0
O510 O 0.21732 0.31856 0.25936 0.0
O511 O 0.29323 0.34397 0.22868 0.0
O512 O 0.2546 0.33023 0.26877 0.0
C513 C 0.20832 0.32125 0.18127 0.0
C514 C 0.30721 0.27564 0.25552 0.0
C515 C 0.27681 0.26811 0.16537 0.0
C516 C 0.21971 0.24718 0.23319 0.0
C517 C 0.29445 0.35289 0.20798 0.0
C518 C 0.2321 0.32958 0.27317 0.0
O519 O 0.22998 0.32232 0.17383 0.0
O520 O 0.51977 0.51693 0.94827 0.0
Zn521 Zn 0.49552 0.50569 0.97206 0.0
O522 O 0.50734 0.51515 0.00306 0.0
Zn523 Zn 0.50177 0.49051 0.0257 0.0
Zn524 Zn 0.54026 0.52689 0.00354 0.0
Zn525 Zn 0.48761 0.54114 0.01018 0.0
O526 O 0.47524 0.49989 0.04903 0.0
O527 O 0.46058 0.53132 0.03094 0.0
O528 O 0.49221 0.47036 0.96992 0.0
O529 O 0.49364 0.45994 0.00811 0.0
O530 O 0.533 0.48363 0.0423 0.0
O531 O 0.56024 0.5023 0.01976 0.0
O532 O 0.54373 0.55738 0.0239 0.0
O533 O 0.46309 0.52083 0.96557 0.0
O534 O 0.50505 0.56535 0.02923 0.0
O535 O 0.47434 0.55532 0.98089 0.0
C536 C 0.5405 0.52704 0.94921 0.0
C537 C 0.45945 0.51607 0.04739 0.0
C538 C 0.55485 0.48764 0.03617 0.0
C539 C 0.49142 0.45459 0.98596 0.0
C540 C 0.52714 0.5699 0.03333 0.0
C541 C 0.45948 0.54291 0.96859 0.0
O542 O 0.55083 0.53219 0.96914 0.0
O543 O 0.81945 0.19169 0.25337 0.0
Zn544 Zn 0.7873 0.19784 0.26843 0.0
O545 O 0.76224 0.1816 0.24998 0.0
Zn546 Zn 0.73758 0.20402 0.24056 0.0
Zn547 Zn 0.7755 0.16658 0.22127 0.0
Zn548 Zn 0.748 0.15762 0.26977 0.0
O549 O 0.70554 0.19745 0.25623 0.0
O550 O 0.71351 0.16496 0.27641 0.0
O551 O 0.78313 0.23304 0.26724 0.0
O552 O 0.74799 0.23726 0.24892 0.0
O553 O 0.73438 0.20548 0.20489 0.0
O554 O 0.76695 0.18624 0.19285 0.0
O555 O 0.76165 0.13302 0.21659 0.0
O556 O 0.78761 0.18778 0.30296 0.0
O557 O 0.7474 0.12629 0.25306 0.0
O558 O 0.76345 0.15613 0.30208 0.0
C559 C 0.8268 0.17969 0.23535 0.0
C560 C 0.69899 0.18096 0.27017 0.0
C561 C 0.74958 0.20011 0.18865 0.0
C562 C 0.76675 0.24614 0.25887 0.0
C563 C 0.75168 0.11928 0.23173 0.0
C564 C 0.77769 0.17025 0.31335 0.0
O565 O 0.81209 0.16783 0.22209 0.0
O566 O 0.01912 0.4996 0.53261 0.0
Zn567 Zn 0.00173 0.49459 0.50126 0.0
O568 O 0.96821 0.48542 0.50762 0.0
Zn569 Zn 0.96265 0.45275 0.49745 0.0
Zn570 Zn 0.96079 0.48915 0.54151 0.0
Zn571 Zn 0.9471 0.50508 0.48972 0.0
O572 O 0.94267 0.45001 0.46742 0.0
O573 O 0.93284 0.48749 0.46178 0.0
O574 O 0.02012 0.46765 0.48618 0.0
O575 O -0.00542 0.43753 0.4915 0.0
O576 O 0.94784 0.4335 0.52336 0.0
O577 O 0.95224 0.45728 0.55517 0.0
O578 O 0.93332 0.51176 0.54736 0.0
O579 O 0.00414 0.52446 0.48151 0.0
O580 O 0.92066 0.51778 0.51019 0.0
O581 O 0.96534 0.53256 0.47664 0.0
C582 C 0.01226 0.50129 0.55432 0.0
C583 C 0.93232 0.4658 0.45525 0.0
C584 C 0.94695 0.43713 0.54586 0.0
C585 C 0.01551 0.44548 0.48635 0.0
C586 C 0.91833 0.52043 0.53271 0.0
C587 C 0.98755 0.53783 0.47384 0.0
O588 O 0.99009 0.49939 0.56002 0.0
O589 O 0.73572 0.70913 0.31947 0.0
Zn590 Zn 0.74445 0.72981 0.29175 0.0
O591 O 0.73244 0.71333 0.26362 0.0
Zn592 Zn 0.75636 0.70873 0.2389 0.0
Zn593 Zn 0.71574 0.6838 0.26962 0.0
Zn594 Zn 0.70941 0.73396 0.2517 0.0
O595 O 0.747 0.72644 0.20871 0.0
O596 O 0.72351 0.75324 0.226 0.0
O597 O 0.78084 0.73365 0.28889 0.0
O598 O 0.78805 0.72129 0.25152 0.0
O599 O 0.76175 0.67357 0.23292 0.0
O600 O 0.73762 0.65766 0.26025 0.0
O601 O 0.68657 0.67923 0.24701 0.0
O602 O 0.72824 0.76221 0.29745 0.0
O603 O 0.68365 0.71646 0.23554 0.0
O604 O 0.69529 0.75481 0.27613 0.0
C605 C 0.72146 0.69151 0.32288 0.0
C606 C 0.73505 0.7456 0.20784 0.0
C607 C 0.75407 0.65566 0.24448 0.0
C608 C 0.79541 0.72978 0.27156 0.0
C609 C 0.67663 0.69507 0.23448 0.0
C610 C 0.70667 0.76729 0.29155 0.0
O611 O 0.71028 0.68106 0.30554 0.0
O612 O 0.743 0.26588 0.74144 0.0
Zn613 Zn 0.74421 0.27365 0.77678 0.0
O614 O 0.75359 0.30661 0.78266 0.0
Zn615 Zn 0.78333 0.30845 0.80205 0.0
Zn616 Zn 0.75865 0.32239 0.75232 0.0
Zn617 Zn 0.72756 0.32222 0.79918 0.0
O618 O 0.77854 0.32738 0.83303 0.0
O619 O 0.73927 0.33448 0.83056 0.0
O620 O 0.76917 0.2524 0.7898 0.0
O621 O 0.79535 0.27565 0.80942 0.0
O622 O 0.81091 0.32096 0.78241 0.0
O623 O 0.7937 0.32912 0.74777 0.0
O624 O 0.73883 0.35186 0.74893 0.0
O625 O 0.71316 0.26503 0.79314 0.0
O626 O 0.71568 0.35029 0.78136 0.0
O627 O 0.70029 0.2998 0.80674 0.0
C628 C 0.74711 0.27828 0.723 0.0
C629 C 0.75917 0.33589 0.84183 0.0
C630 C 0.81248 0.32695 0.76059 0.0
C631 C 0.78812 0.25518 0.8024 0.0
C632 C 0.72211 0.36029 0.76208 0.0
C633 C 0.6976 0.27748 0.80417 0.0
O634 O 0.75215 0.30027 0.72478 0.0
O635 O 0.6777 0.8116 0.74735 0.0
Zn636 Zn 0.70798 0.80879 0.76594 0.0
O637 O 0.73395 0.82472 0.74919 0.0
Zn638 Zn 0.75722 0.80128 0.73832 0.0
Zn639 Zn 0.72102 0.84133 0.72157 0.0
Zn640 Zn 0.7494 0.8471 0.77106 0.0
O641 O 0.78945 0.80632 0.75401 0.0
O642 O 0.78335 0.8372 0.7783 0.0
O643 O 0.71286 0.77381 0.76747 0.0
O644 O 0.7454 0.76825 0.74513 0.0
O645 O 0.76038 0.80072 0.70269 0.0
O646 O 0.73147 0.8248 0.69126 0.0
O647 O 0.73227 0.87551 0.72108 0.0
O648 O 0.70262 0.82222 0.79879 0.0
O649 O 0.75158 0.87891 0.75585 0.0
O650 O 0.73126 0.84992 0.80226 0.0
C651 C 0.67059 0.82396 0.72997 0.0
C652 C 0.79697 0.82105 0.76992 0.0
C653 C 0.7474 0.80944 0.68634 0.0
C654 C 0.72776 0.76008 0.75715 0.0
C655 C 0.74441 0.88779 0.73632 0.0
C656 C 0.71319 0.83867 0.81076 0.0
O657 O 0.6848 0.83842 0.71959 0.0
O658 O 0.50821 0.52136 0.47395 0.0
Zn659 Zn 0.51283 0.48646 0.47261 0.0
O660 O 0.48912 0.47103 0.4928 0.0
Zn661 Zn 0.5062 0.45338 0.51712 0.0
Zn662 Zn 0.46845 0.49401 0.50829 0.0
Zn663 Zn 0.46956 0.4503 0.4729 0.0
O664 O 0.50517 0.41833 0.50922 0.0
O665 O 0.47836 0.41702 0.47952 0.0
O666 O 0.54645 0.48292 0.48451 0.0
O667 O 0.54088 0.46418 0.51859 0.0
O668 O 0.49467 0.46155 0.55044 0.0
O669 O 0.47595 0.4952 0.54329 0.0
O670 O 0.43316 0.48606 0.50389 0.0
O671 O 0.51029 0.4764 0.43843 0.0
O672 O 0.43421 0.45488 0.47917 0.0
O673 O 0.47615 0.45544 0.43781 0.0
C674 C 0.49301 0.53494 0.48397 0.0
C675 C 0.49278 0.40677 0.49362 0.0
C676 C 0.48548 0.48093 0.55782 0.0
C677 C 0.55452 0.47529 0.50418 0.0
C678 C 0.42243 0.46982 0.4917 0.0
C679 C 0.49385 0.46514 0.42696 0.0
O680 O 0.47595 0.52671 0.49679 0.0
O681 O 0.98368 0.47335 0.00657 0.0
Zn682 Zn 0.97491 0.5044 -0.00734 0.0
O683 O -0.00519 0.52928 0.00746 0.0
Zn684 Zn 0.97469 0.55134 0.02579 0.0
Zn685 Zn 0.01879 0.51546 0.0284 0.0
Zn686 Zn 0.01122 0.54616 0.9827 0.0
O687 O 0.97375 0.58405 0.01124 0.0
O688 O -0.00123 0.57884 0.9806 0.0
O689 O 0.94006 0.5078 0.00171 0.0
O690 O 0.94113 0.538 0.02769 0.0
O691 O 0.98425 0.55288 0.06051 0.0
O692 O 0.00986 0.52313 0.06208 0.0
O693 O 0.0523 0.5287 0.02248 0.0
O694 O 0.9796 0.50188 0.95673 0.0
O695 O 0.04633 0.54944 0.98964 0.0
O696 O 0.00702 0.53019 0.9509 0.0
C697 C 0.00086 0.46575 0.0193 0.0
C698 C 0.98461 0.59184 -0.0072 0.0
C699 C -0.00331 0.53843 0.07249 0.0
C700 C 0.92983 0.52102 0.01724 0.0
C701 C 0.06017 0.54207 0.00598 0.0
C702 C -0.00626 0.51328 0.94293 0.0
O703 O 0.01747 0.47962 0.02722 0.0
C704 C 0.9608 0.19302 0.0637 0.0
C705 C 0.98492 0.18791 0.06909 0.0
C706 C 0.94472 0.17513 0.05592 0.0
C707 C 0.95315 0.15176 0.05306 0.0
C708 C 0.97796 0.14694 0.05637 0.0
C709 C -0.00647 0.16506 0.06458 0.0
C710 C 0.9184 0.18094 0.05273 0.0
C711 C 0.98778 0.1223 0.0529 0.0
C712 C 0.91489 0.0972 0.06405 0.0
C713 C 0.91152 0.08847 0.04067 0.0
C714 C 0.9268 0.11891 0.0683 0.0
C715 C 0.9359 0.13187 0.04869 0.0
C716 C 0.93074 0.12417 0.02504 0.0
C717 C 0.9182 0.10273 0.02129 0.0
C718 C 0.93141 0.12698 0.09382 0.0
C719 C 0.94034 0.13746 0.00373 0.0
H720 H 0.95396 0.21064 0.06718 0.0
H721 H 0.01218 0.16105 0.06855 0.0
H722 H 0.91091 0.17221 0.03638 0.0
H723 H 0.90799 0.17419 0.06822 0.0
H724 H 0.91554 0.20033 0.05162 0.0
H725 H 0.0078 0.12238 0.05172 0.0
H726 H 0.98231 0.11124 0.06826 0.0
H727 H 0.98028 0.11378 0.03646 0.0
H728 H 0.90963 0.08632 0.07905 0.0
H729 H 0.91569 0.09615 0.00311 0.0
H730 H 0.92729 0.14605 0.09613 0.0
H731 H 0.95078 0.12471 0.09817 0.0
H732 H 0.92045 0.11672 0.1068 0.0
H733 H 0.93435 0.15612 0.00451 0.0
H734 H 0.93438 0.12932 0.98645 0.0
H735 H 0.96037 0.13781 0.00418 0.0
C736 C 0.10889 0.71806 0.31735 0.0
C737 C 0.08865 0.7302 0.30924 0.0
C738 C 0.13226 0.72512 0.31063 0.0
C739 C 0.13534 0.74451 0.29513 0.0
C740 C 0.11489 0.75587 0.28571 0.0
C741 C 0.09174 0.7487 0.29306 0.0
C742 C 0.15365 0.71273 0.32123 0.0
C743 C 0.11746 0.7763 0.26876 0.0
C744 C 0.19273 0.78134 0.30157 0.0
C745 C 0.2069 0.77234 0.28282 0.0
C746 C 0.16943 0.77237 0.30574 0.0
C747 C 0.15991 0.75425 0.29053 0.0
C748 C 0.17392 0.74536 0.27129 0.0
C749 C 0.19738 0.75438 0.26779 0.0
C750 C 0.15515 0.78206 0.32667 0.0
C751 C 0.16416 0.72635 0.25447 0.0
H752 H 0.10656 0.70377 0.32989 0.0
H753 H 0.0761 0.75801 0.28663 0.0
H754 H 0.1664 0.70726 0.30694 0.0
H755 H 0.16355 0.72514 0.33345 0.0
H756 H 0.14818 0.69683 0.33147 0.0
H757 H 0.09987 0.78136 0.26094 0.0
H758 H 0.12523 0.79192 0.27845 0.0
H759 H 0.13004 0.77172 0.25399 0.0
H760 H 0.20004 0.7951 0.31335 0.0
H761 H 0.2082 0.74746 0.25317 0.0
H762 H 0.15032 0.76752 0.33898 0.0
H763 H 0.13803 0.78971 0.32025 0.0
H764 H 0.16529 0.79597 0.33693 0.0
H765 H 0.15999 0.71003 0.26454 0.0
H766 H 0.17708 0.7219 0.23992 0.0
H767 H 0.14703 0.73221 0.24631 0.0
C768 C 0.4928 0.81072 0.56469 0.0
C769 C 0.50219 0.79025 0.55391 0.0
C770 C 0.49882 0.8332 0.55605 0.0
C771 C 0.51464 0.83515 0.53623 0.0
C772 C 0.52248 0.81451 0.52404 0.0
C773 C 0.51607 0.79226 0.53299 0.0
C774 C 0.48969 0.85487 0.56921 0.0
C775 C 0.53916 0.81588 0.50272 0.0
C776 C 0.5208 0.89661 0.5108 0.0
C777 C 0.54039 0.9059 0.52409 0.0
C778 C 0.51284 0.87317 0.51365 0.0
C779 C 0.52488 0.85865 0.53003 0.0
C780 C 0.54576 0.86732 0.54212 0.0
C781 C 0.55327 0.89088 0.53903 0.0
C782 C 0.49061 0.8645 0.50033 0.0
C783 C 0.55934 0.85215 0.55945 0.0
H784 H 0.48193 0.80928 0.58075 0.0
H785 H 0.52327 0.77649 0.52444 0.0
H786 H 0.50492 0.86388 0.57871 0.0
H787 H 0.48217 0.86766 0.55642 0.0
H788 H 0.47555 0.85038 0.58255 0.0
H789 H 0.54054 0.79857 0.49311 0.0
H790 H 0.53292 0.82935 0.48996 0.0
H791 H 0.55747 0.82138 0.50885 0.0
H792 H 0.5108 0.90799 0.49904 0.0
H793 H 0.56851 0.89781 0.54922 0.0
H794 H 0.47525 0.8632 0.51301 0.0
H795 H 0.49344 0.84656 0.49253 0.0
H796 H 0.48552 0.87662 0.48576 0.0
H797 H 0.54781 0.84852 0.57525 0.0
H798 H 0.57637 0.8608 0.56576 0.0
H799 H 0.56374 0.83484 0.55096 0.0
C800 C 0.45005 0.26594 0.82222 0.0
C801 C 0.45242 0.24975 0.84085 0.0
C802 C 0.42944 0.26582 0.80771 0.0
C803 C 0.41091 0.24892 0.81175 0.0
C804 C 0.41309 0.2326 0.83058 0.0
C805 C 0.43379 0.23332 0.84505 0.0
C806 C 0.42753 0.28375 0.78805 0.0
C807 C 0.39368 0.21421 0.83525 0.0
C808 C 0.34735 0.25902 0.78975 0.0
C809 C 0.34641 0.24436 0.76925 0.0
C810 C 0.36852 0.2613 0.80332 0.0
C811 C 0.38912 0.24836 0.79636 0.0
C812 C 0.38859 0.23424 0.77518 0.0
C813 C 0.36723 0.23254 0.76174 0.0
C814 C 0.36859 0.27691 0.82554 0.0
C815 C 0.41022 0.2201 0.76731 0.0
H816 H 0.46432 0.27883 0.81899 0.0
H817 H 0.43558 0.22071 0.85933 0.0
H818 H 0.42593 0.27452 0.77042 0.0
H819 H 0.41099 0.29437 0.79056 0.0
H820 H 0.44338 0.29599 0.78756 0.0
H821 H 0.39827 0.20264 0.85044 0.0
H822 H 0.37632 0.223 0.83927 0.0
H823 H 0.39084 0.20293 0.81902 0.0
H824 H 0.33132 0.26833 0.79552 0.0
H825 H 0.36653 0.22107 0.746 0.0
H826 H 0.3841 0.28953 0.82517 0.0
H827 H 0.37073 0.26586 0.84162 0.0
H828 H 0.35168 0.28713 0.82747 0.0
H829 H 0.42635 0.23184 0.76584 0.0
H830 H 0.40724 0.21089 0.74982 0.0
H831 H 0.41431 0.20666 0.78094 0.0
C832 C -0.00389 0.78835 0.40834 0.0
C833 C 0.01184 0.79574 0.39016 0.0
C834 C 0.9893 0.80405 0.42684 0.0
C835 C -0.00123 0.82746 0.42724 0.0
C836 C 0.01565 0.83453 0.40961 0.0
C837 C 0.02179 0.81866 0.39117 0.0
C838 C 0.97108 0.79597 0.44516 0.0
C839 C 0.02661 0.8592 0.40968 0.0
C840 C 0.9682 0.88202 0.45118 0.0
C841 C 0.98257 0.88752 0.4712 0.0
C842 C 0.97157 0.86099 0.43802 0.0
C843 C 0.99005 0.84539 0.44483 0.0
C844 C 0.00292 0.84971 0.46639 0.0
C845 C -0.00114 0.8707 0.47948 0.0
C846 C 0.95696 0.85667 0.41552 0.0
C847 C 0.02275 0.83351 0.47429 0.0
H848 H 0.9883 0.77065 0.40753 0.0
H849 H 0.03416 0.82432 0.37729 0.0
H850 H 0.97687 0.80134 0.46349 0.0
H851 H 0.95355 0.80457 0.44174 0.0
H852 H 0.9682 0.77646 0.4445 0.0
H853 H 0.04084 0.86123 0.39582 0.0
H854 H 0.01233 0.87232 0.4063 0.0
H855 H 0.03462 0.86354 0.42744 0.0
H856 H 0.95533 0.89483 0.44494 0.0
H857 H 0.01001 0.87485 0.49498 0.0
H858 H 0.95108 0.83785 0.41402 0.0
H859 H 0.96832 0.86062 0.39968 0.0
H860 H 0.94076 0.86804 0.41497 0.0
H861 H 0.01736 0.81465 0.47174 0.0
H862 H 0.02766 0.83667 0.49337 0.0
H863 H 0.03905 0.83672 0.46319 0.0
C864 C 0.42502 0.70103 0.62909 0.0
C865 C 0.44402 0.68515 0.63165 0.0
C866 C 0.40223 0.69609 0.63893 0.0
C867 C 0.39837 0.67465 0.65128 0.0
C868 C 0.41692 0.65775 0.6522 0.0
C869 C 0.4396 0.66328 0.64252 0.0
C870 C 0.38285 0.71459 0.6376 0.0
C871 C 0.41334 0.63449 0.66476 0.0
C872 C 0.35462 0.68003 0.70288 0.0
C873 C 0.333 0.67166 0.69252 0.0
C874 C 0.37619 0.6802 0.68988 0.0
C875 C 0.37627 0.67153 0.66597 0.0
C876 C 0.35496 0.66145 0.65594 0.0
C877 C 0.33349 0.6617 0.66933 0.0
C878 C 0.3986 0.69098 0.7013 0.0
C879 C 0.3545 0.65162 0.63065 0.0
H880 H 0.4283 0.7179 0.62062 0.0
H881 H 0.45413 0.65074 0.6442 0.0
H882 H 0.36555 0.70644 0.63147 0.0
H883 H 0.37976 0.72234 0.65571 0.0
H884 H 0.38783 0.72914 0.62531 0.0
H885 H 0.42797 0.62183 0.66052 0.0
H886 H 0.41311 0.63769 0.6844 0.0
H887 H 0.39575 0.6262 0.65973 0.0
H888 H 0.35451 0.68754 0.72087 0.0
H889 H 0.3169 0.65514 0.66117 0.0
H890 H 0.40407 0.70717 0.69158 0.0
H891 H 0.41379 0.67843 0.70007 0.0
H892 H 0.39578 0.69585 0.72044 0.0
H893 H 0.3556 0.66643 0.61788 0.0
H894 H 0.33774 0.64122 0.62684 0.0
H895 H 0.3703 0.64017 0.62729 0.0
C896 C 0.47021 0.16 0.95185 0.0
C897 C 0.47468 0.18364 0.95867 0.0
C898 C 0.46133 0.14361 0.96834 0.0
C899 C 0.45649 0.1511 0.99217 0.0
C900 C 0.46064 0.17501 -0.00089 0.0
C901 C 0.46985 0.191 0.9823 0.0
C902 C 0.45731 0.11818 0.96028 0.0
C903 C 0.45536 0.18368 0.02425 0.0
C904 C 0.41411 0.10821 0.02272 0.0
C905 C 0.4305 0.09332 0.03402 0.0
C906 C 0.42216 0.12841 0.01065 0.0
C907 C 0.4472 0.13361 0.00962 0.0
C908 C 0.46357 0.11985 0.02278 0.0
C909 C 0.45498 0.09994 0.03501 0.0
C910 C 0.40406 0.14298 -0.00267 0.0
C911 C 0.49042 0.1248 0.02213 0.0
H912 H 0.47398 0.1542 0.93366 0.0
H913 H 0.47318 0.20929 0.98764 0.0
H914 H 0.46817 0.10625 0.97147 0.0
H915 H 0.43806 0.11306 0.96263 0.0
H916 H 0.46229 0.11517 0.94122 0.0
H917 H 0.4591 0.20296 0.02665 0.0
H918 H 0.43615 0.1801 0.02872 0.0
H919 H 0.46645 0.17393 0.03725 0.0
H920 H 0.39512 0.10336 0.02214 0.0
H921 H 0.46778 0.08854 0.0437 0.0
H922 H 0.40541 0.13898 0.97787 0.0
H923 H 0.40787 0.16219 -2e-05 0.0
H924 H 0.38524 0.13914 0.00314 0.0
H925 H 0.49757 0.11967 0.00425 0.0
H926 H 0.50025 0.11475 0.0359 0.0
H927 H 0.49431 0.14397 0.0249 0.0
C928 C 0.09049 0.29343 0.10243 0.0
C929 C 0.08289 0.27305 0.11442 0.0
C930 C 0.11231 0.3049 0.10862 0.0
C931 C 0.12691 0.29528 0.12673 0.0
C932 C 0.12011 0.27361 0.13744 0.0
C933 C 0.09791 0.263 0.13146 0.0
C934 C 0.11891 0.32803 0.09699 0.0
C935 C 0.13565 0.26226 0.15617 0.0
C936 C 0.1915 0.31153 0.14122 0.0
C937 C 0.18852 0.32232 0.16381 0.0
C938 C 0.17141 0.30435 0.12754 0.0
C939 C 0.14798 0.3087 0.13651 0.0
C940 C 0.14506 0.32241 0.15776 0.0
C941 C 0.16542 0.32875 0.17141 0.0
C942 C 0.17546 0.28964 0.10513 0.0
C943 C 0.12035 0.32815 0.16748 0.0
H944 H 0.07867 0.30125 0.08935 0.0
H945 H 0.09198 0.24712 0.14055 0.0
H946 H 0.11648 0.34277 0.11011 0.0
H947 H 0.13814 0.32824 0.09148 0.0
H948 H 0.1075 0.33142 0.08108 0.0
H949 H 0.12906 0.24422 0.16072 0.0
H950 H 0.15458 0.26102 0.14983 0.0
H951 H 0.13573 0.27335 0.17276 0.0
H952 H 0.20937 0.30637 0.13535 0.0
H953 H 0.16316 0.33721 0.18881 0.0
H954 H 0.16114 0.29237 0.09164 0.0
H955 H 0.1752 0.27061 0.10983 0.0
H956 H 0.19328 0.29378 0.09697 0.0
H957 H 0.1082 0.33379 0.15291 0.0
H958 H 0.12119 0.34237 0.18146 0.0
H959 H 0.11225 0.31207 0.17554 0.0
C960 C 0.05432 0.00065 0.18663 0.0
C961 C 0.07273 0.01692 0.18102 0.0
C962 C 0.03623 -0.0053 0.17001 0.0
C963 C 0.03624 0.00582 0.14753 0.0
C964 C 0.05492 0.02214 0.14169 0.0
C965 C 0.07319 0.02725 0.15844 0.0
C966 C 0.01701 0.97672 0.17655 0.0
C967 C 0.05526 0.03465 0.11801 0.0
C968 C 0.00239 0.98218 0.09329 0.0
C969 C 0.98224 -0.00309 0.09322 0.0
C970 C 0.01939 0.98376 0.11183 0.0
C971 C 0.01643 0.00096 0.13025 0.0
C972 C -0.00461 0.01494 0.13097 0.0
C973 C 0.97833 0.0125 0.11254 0.0
C974 C 0.04119 0.96801 0.11091 0.0
C975 C -0.0082 0.03372 0.15015 0.0
H976 H 0.05413 0.99249 0.20407 0.0
H977 H 0.08737 0.03991 0.15418 0.0
H978 H -0.00089 0.98527 0.17719 0.0
H979 H 0.01599 0.96244 0.16269 0.0
H980 H 0.02048 0.96861 0.19418 0.0
H981 H 0.07094 0.04699 0.11636 0.0
H982 H 0.05592 0.0215 0.10306 0.0
H983 H 0.03843 0.04485 0.1159 0.0
H984 H 0.00533 0.97005 0.07835 0.0
H985 H 0.96288 0.02409 0.11234 0.0
H986 H 0.04455 0.96024 0.1287 0.0
H987 H 0.05741 0.97868 0.10618 0.0
H988 H 0.03907 0.95341 0.09747 0.0
H989 H -0.00581 0.02618 0.16818 0.0
H990 H 0.97364 0.04177 0.14922 0.0
H991 H 0.00563 0.04796 0.14812 0.0
C992 C 0.28742 0.91 0.44994 0.0
C993 C 0.2897 0.89646 0.4706 0.0
C994 C 0.29199 0.90004 0.42722 0.0
C995 C 0.29861 0.87594 0.42522 0.0
C996 C 0.30208 0.86257 0.44607 0.0
C997 C 0.29774 0.87304 0.4685 0.0
C998 C 0.28853 0.91492 0.40533 0.0
C999 C 0.30883 0.83674 0.44467 0.0
C1000 C 0.27748 0.84207 0.37005 0.0
C1001 C 0.29892 0.83978 0.35696 0.0
C1002 C 0.27724 0.8538 0.39228 0.0
C1003 C 0.29892 0.86385 0.40148 0.0
C1004 C 0.32068 0.86167 0.38838 0.0
C1005 C 0.32048 0.84939 0.36629 0.0
C1006 C 0.25375 0.8553 0.40596 0.0
C1007 C 0.34403 0.87249 0.39756 0.0
H1008 H 0.28149 0.92818 0.45144 0.0
H1009 H 0.29969 0.86243 0.48436 0.0
H1010 H 0.30399 0.91283 0.39287 0.0
H1011 H 0.27203 0.90886 0.39564 0.0
H1012 H 0.28663 0.93401 0.40998 0.0
H1013 H 0.31314 0.82953 0.46253 0.0
H1014 H 0.29359 0.82624 0.43689 0.0
H1015 H 0.32463 0.83421 0.43276 0.0
H1016 H 0.26081 0.83452 0.36295 0.0
H1017 H 0.33703 0.84783 0.35607 0.0
H1018 H 0.24897 0.87412 0.40907 0.0
H1019 H 0.25576 0.84712 0.42376 0.0
H1020 H 0.23856 0.84627 0.39636 0.0
H1021 H 0.34189 0.89185 0.40043 0.0
H1022 H 0.3593 0.86951 0.38503 0.0
H1023 H 0.34868 0.8649 0.41513 0.0
C1024 C 0.47353 0.96509 0.71591 0.0
C1025 C 0.45123 0.96083 0.70458 0.0
C1026 C 0.49461 0.96873 0.7025 0.0
C1027 C 0.4932 0.96834 0.67725 0.0
C1028 C 0.47098 0.96274 0.66575 0.0
C1029 C 0.45026 0.95901 0.67958 0.0
C1030 C 0.51805 0.97417 0.71537 0.0
C1031 C 0.46879 0.96193 0.63877 0.0
C1032 C 0.53022 0.006 0.63611 0.0
C1033 C 0.54252 0.9885 0.62306 0.0
C1034 C 0.51579 0.0 0.65571 0.0
C1035 C 0.51402 0.97602 0.66253 0.0
C1036 C 0.52916 0.95897 0.65171 0.0
C1037 C 0.54332 0.96542 0.632 0.0
C1038 C 0.50024 0.01883 0.66711 0.0
C1039 C 0.52838 0.93338 0.65906 0.0
H1040 H 0.47442 0.96628 0.73528 0.0
H1041 H 0.43311 0.95557 0.67075 0.0
H1042 H 0.53335 0.96504 0.70654 0.0
H1043 H 0.52186 -0.00651 0.71483 0.0
H1044 H 0.51728 0.96889 0.73443 0.0
H1045 H 0.45073 0.95548 0.63273 0.0
H1046 H 0.47195 0.97992 0.63161 0.0
H1047 H 0.48265 0.95016 0.63087 0.0
H1048 H 0.52998 0.02402 0.6297 0.0
H1049 H 0.5532 0.95185 0.62236 0.0
H1050 H 0.50022 0.01735 0.68687 0.0
H1051 H 0.48133 0.01636 0.66085 0.0
H1052 H 0.5064 0.03697 0.6624 0.0
H1053 H 0.52661 0.9319 0.67876 0.0
H1054 H 0.54478 0.92382 0.65311 0.0
H1055 H 0.51241 0.92444 0.65077 0.0
C1056 C 0.20327 0.1673 0.91579 0.0
C1057 C 0.20685 0.1449 0.92548 0.0
C1058 C 0.21008 0.17214 0.89226 0.0
C1059 C 0.22131 0.15431 0.87827 0.0
C1060 C 0.22506 0.13163 0.88794 0.0
C1061 C 0.21747 0.12708 0.91143 0.0
C1062 C 0.20535 0.19642 0.88242 0.0
C1063 C 0.2375 0.11242 0.87368 0.0
C1064 C 0.22104 0.16577 0.81168 0.0
C1065 C 0.24271 0.17854 0.80917 0.0
C1066 C 0.21424 0.15668 0.83395 0.0
C1067 C 0.22983 0.16 0.85385 0.0
C1068 C 0.2525 0.17142 0.85091 0.0
C1069 C 0.25852 0.18087 0.82865 0.0
C1070 C 0.18972 0.14499 0.83652 0.0
C1071 C 0.26987 0.17479 0.87156 0.0
H1072 H 0.1948 0.18102 0.92655 0.0
H1073 H 0.22028 0.10977 0.91897 0.0
H1074 H 0.22271 0.20546 0.87828 0.0
H1075 H 0.19497 0.19479 0.86547 0.0
H1076 H 0.19513 0.20778 0.89517 0.0
H1077 H 0.23853 0.09558 0.88361 0.0
H1078 H 0.22783 0.10896 0.85657 0.0
H1079 H 0.2561 0.11832 0.86911 0.0
H1080 H 0.2088 0.16403 0.79658 0.0
H1081 H 0.27546 0.19047 0.82659 0.0
H1082 H 0.17786 0.15669 0.84735 0.0
H1083 H 0.19118 0.12804 0.84611 0.0
H1084 H 0.18094 0.14148 0.81892 0.0
H1085 H 0.26261 0.18805 0.88445 0.0
H1086 H 0.28795 0.18104 0.86557 0.0
H1087 H 0.27197 0.15796 0.88127 0.0
C1088 C 0.10309 0.01706 0.32653 0.0
C1089 C 0.08991 0.03524 0.31607 0.0
C1090 C 0.0973 0.0091 0.34954 0.0
C1091 C 0.07793 0.01958 0.36218 0.0
C1092 C 0.06576 0.03902 0.35236 0.0
C1093 C 0.07193 0.04663 0.32946 0.0
C1094 C 0.1109 0.98855 0.35965 0.0
C1095 C 0.04509 0.05081 0.36535 0.0
C1096 C 0.03738 0.98462 0.40322 0.0
C1097 C 0.0435 -0.00558 0.42567 0.0
C1098 C 0.04951 0.99167 0.3825 0.0
C1099 C 0.06834 0.00882 0.3843 0.0
C1100 C 0.07566 0.01765 0.40702 0.0
C1101 C 0.06306 0.01043 0.42748 0.0
C1102 C 0.04118 0.98182 0.35854 0.0
C1103 C 0.09591 0.03567 0.40963 0.0
H1104 H 0.1171 0.00827 0.31633 0.0
H1105 H 0.06193 0.06095 0.32165 0.0
H1106 H 0.11538 0.99189 0.37877 0.0
H1107 H 0.09936 0.97235 0.35866 0.0
H1108 H 0.12784 0.98508 0.34963 0.0
H1109 H 0.03887 0.06691 0.35612 0.0
H1110 H 0.02963 0.03818 0.3666 0.0
H1111 H 0.05049 0.05587 0.38387 0.0
H1112 H 0.02245 0.97208 0.40166 0.0
H1113 H 0.06815 0.01784 0.4448 0.0
H1114 H 0.05676 0.97526 0.34802 0.0
H1115 H 0.03273 -0.0039 0.34814 0.0
H1116 H 0.02782 0.96711 0.3604 0.0
H1117 H 0.11161 0.0305 0.39847 0.0
H1118 H 0.10193 0.03785 0.42852 0.0
H1119 H 0.08972 0.05308 0.40328 0.0
C1120 C 0.27098 0.8246 0.60879 0.0
C1121 C 0.26657 0.82838 0.58451 0.0
C1122 C 0.26489 0.80291 0.6192 0.0
C1123 C 0.2536 0.78483 0.60505 0.0
C1124 C 0.24967 0.78834 0.58039 0.0
C1125 C 0.25643 0.81002 0.57035 0.0
C1126 C 0.2699 0.79958 0.64552 0.0
C1127 C 0.23734 0.76967 0.56487 0.0
C1128 C 0.2544 0.72531 0.63473 0.0
C1129 C 0.23355 0.72681 0.6489 0.0
C1130 C 0.26044 0.74336 0.61878 0.0
C1131 C 0.24488 0.76286 0.6166 0.0
C1132 C 0.22228 0.76274 0.62842 0.0
C1133 C 0.21696 0.74477 0.64466 0.0
C1134 C 0.28473 0.74283 0.60653 0.0
C1135 C 0.2048 0.78282 0.62587 0.0
H1136 H 0.27891 0.83872 0.61972 0.0
H1137 H 0.25281 0.81294 0.55157 0.0
H1138 H 0.25261 0.79781 0.65539 0.0
H1139 H 0.28009 0.78304 0.64817 0.0
H1140 H 0.28039 0.81464 0.65352 0.0
H1141 H 0.23769 0.77426 0.54562 0.0
H1142 H 0.24601 0.75224 0.56704 0.0
H1143 H 0.21823 0.76762 0.57055 0.0
H1144 H 0.26736 0.71151 0.638 0.0
H1145 H 0.20075 0.74585 0.65549 0.0
H1146 H 0.29735 0.75513 0.61613 0.0
H1147 H 0.28339 0.74885 0.5878 0.0
H1148 H 0.2926 0.72484 0.60652 0.0
H1149 H 0.21166 0.79856 0.63605 0.0
H1150 H 0.18659 0.77813 0.63282 0.0
H1151 H 0.20312 0.78791 0.60685 0.0
C1152 C 0.38508 0.00024 0.83403 0.0
C1153 C 0.39126 0.97641 0.83064 0.0
C1154 C 0.38313 0.01008 0.85719 0.0
C1155 C 0.38712 -0.00442 0.87719 0.0
C1156 C 0.39176 0.97116 0.87376 0.0
C1157 C 0.39399 0.96194 0.85052 0.0
C1158 C 0.3783 0.0362 0.86018 0.0
C1159 C 0.39569 0.95498 0.89464 0.0
C1160 C 0.41633 0.01531 0.93486 0.0
C1161 C 0.39695 0.01351 0.95082 0.0
C1162 C 0.41285 0.0119 0.91027 0.0
C1163 C 0.38949 0.006 0.90159 0.0
C1164 C 0.36952 0.00611 0.91741 0.0
C1165 C 0.37348 0.01009 0.94198 0.0
C1166 C 0.43455 0.01253 0.89391 0.0
C1167 C 0.34437 -0.0001 0.9088 0.0
H1168 H 0.38291 0.01144 0.81863 0.0
H1169 H 0.39836 0.94341 0.84791 0.0
H1170 H 0.36506 0.03945 0.87472 0.0
H1171 H 0.39531 0.0456 0.86526 0.0
H1172 H 0.37142 0.04399 0.84341 0.0
H1173 H 0.39659 0.93606 0.88895 0.0
H1174 H 0.41286 0.95991 0.90379 0.0
H1175 H 0.38092 0.95693 0.90791 0.0
H1176 H 0.43443 0.01838 0.94175 0.0
H1177 H 0.35849 0.00878 0.95439 0.0
H1178 H 0.43047 0.02236 0.8774 0.0
H1179 H 0.43928 -0.00582 0.88847 0.0
H1180 H 0.45054 0.02093 0.90275 0.0
H1181 H 0.34054 0.0084 0.89147 0.0
H1182 H 0.33043 0.00531 0.92202 0.0
H1183 H 0.34285 0.98045 0.90589 0.0
C1184 C 0.23382 0.18538 0.05479 0.0
C1185 C 0.21031 0.17942 0.06221 0.0
C1186 C 0.24876 0.20024 0.06887 0.0
C1187 C 0.23985 0.20956 0.09072 0.0
C1188 C 0.21596 0.20404 0.09807 0.0
C1189 C 0.20153 0.18889 0.08379 0.0
C1190 C 0.27419 0.20557 0.06062 0.0
C1191 C 0.20568 0.21398 0.12114 0.0
C1192 C 0.27808 0.22934 0.14344 0.0
C1193 C 0.27511 0.25396 0.1429 0.0
C1194 C 0.26841 0.21461 0.1253 0.0
C1195 C 0.25543 0.2248 0.10634 0.0
C1196 C 0.2547 0.24972 0.10434 0.0
C1197 C 0.26482 0.26405 0.12255 0.0
C1198 C 0.27001 0.18809 0.12777 0.0
C1199 C 0.2411 0.26122 0.0843 0.0
H1200 H 0.2408 0.17801 0.03819 0.0
H1201 H 0.18336 0.18446 0.08955 0.0
H1202 H 0.27735 0.22498 0.05997 0.0
H1203 H 0.28728 0.19845 0.0736 0.0
H1204 H 0.278 0.19774 0.04266 0.0
H1205 H 0.18654 0.20856 0.12388 0.0
H1206 H 0.21643 0.20786 0.13655 0.0
H1207 H 0.2068 0.23362 0.1212 0.0
H1208 H 0.28626 0.22143 0.15896 0.0
H1209 H 0.26251 0.28306 0.12188 0.0
H1210 H 0.27428 0.1795 0.11031 0.0
H1211 H 0.2523 0.18093 0.13376 0.0
H1212 H 0.28392 0.18312 0.14104 0.0
H1213 H 0.24638 0.25345 0.06674 0.0
H1214 H 0.24428 0.28069 0.08396 0.0
H1215 H 0.22146 0.25784 0.08656 0.0
C1216 C 0.08869 0.14994 0.00556 0.0
C1217 C 0.10436 0.13808 0.98997 0.0
C1218 C 0.06411 0.1435 0.00629 0.0
C1219 C 0.05553 0.12488 0.99109 0.0
C1220 C 0.07076 0.11549 0.97302 0.0
C1221 C 0.09515 0.12204 0.9729 0.0
C1222 C 0.04831 0.15443 0.02535 0.0
C1223 C 0.06231 0.09595 0.95609 0.0
C1224 C 0.01944 0.07408 0.01552 0.0
C1225 C -0.00224 0.07582 0.00286 0.0
C1226 C 0.03763 0.09124 0.01337 0.0
C1227 C 0.03411 0.1106 -0.00199 0.0
C1228 C 0.01158 0.11347 0.98658 0.0
C1229 C -0.00644 0.09594 0.98913 0.0
C1230 C 0.06122 0.08771 0.02637 0.0
C1231 C 0.00699 0.13439 0.97085 0.0
H1232 H 0.09598 0.16243 0.01872 0.0
H1233 H 0.10744 0.11313 0.96073 0.0
H1234 H 0.02904 0.15427 0.01994 0.0
H1235 H 0.04991 0.14416 0.04202 0.0
H1236 H 0.05411 0.17296 0.02948 0.0
H1237 H 0.07477 0.0937 0.94067 0.0
H1238 H 0.06141 0.07898 0.96584 0.0
H1239 H 0.04399 0.09953 0.94917 0.0
H1240 H 0.02248 0.05893 0.02675 0.0
H1241 H 0.97656 0.0976 0.97974 0.0
H1242 H 0.06643 0.104 0.03657 0.0
H1243 H 0.07576 0.08404 0.0132 0.0
H1244 H 0.06026 0.07275 0.03901 0.0
H1245 H 0.01874 0.13347 0.9548 0.0
H1246 H 0.0116 0.15112 0.9806 0.0
H1247 H 0.98788 0.13505 0.96488 0.0
C1248 C 0.66675 0.42323 0.09552 0.0
C1249 C 0.67242 0.40344 0.08121 0.0
C1250 C 0.64537 0.43563 0.09188 0.0
C1251 C 0.62948 0.42808 0.07339 0.0
C1252 C 0.634 0.40682 0.06045 0.0
C1253 C 0.65544 0.39463 0.06462 0.0
C1254 C 0.64093 0.45795 0.10638 0.0
C1255 C 0.61738 0.39815 0.04067 0.0
C1256 C 0.56878 0.45721 0.06506 0.0
C1257 C 0.5742 0.47365 0.04717 0.0
C1258 C 0.58666 0.44249 0.07419 0.0
C1259 C 0.61042 0.4442 0.0651 0.0
C1260 C 0.61614 0.46113 0.04749 0.0
C1261 C 0.59798 0.47569 0.0388 0.0
C1262 C 0.58004 0.4248 0.09315 0.0
C1263 C 0.64135 0.4635 0.03738 0.0
H1264 H 0.67971 0.42989 0.10862 0.0
H1265 H 0.65967 0.37924 0.05362 0.0
H1266 H 0.6449 0.4736 0.09521 0.0
H1267 H 0.62175 0.45894 0.11197 0.0
H1268 H 0.65254 0.45909 0.12258 0.0
H1269 H 0.62148 0.37974 0.0348 0.0
H1270 H 0.59826 0.39882 0.04649 0.0
H1271 H 0.61937 0.40988 0.02503 0.0
H1272 H 0.55046 0.45553 0.07169 0.0
H1273 H 0.60237 0.48832 0.02502 0.0
H1274 H 0.59248 0.42667 0.10864 0.0
H1275 H 0.58199 0.40654 0.08582 0.0
H1276 H 0.5612 0.42692 0.0996 0.0
H1277 H 0.65444 0.46736 0.052 0.0
H1278 H 0.64285 0.47777 0.02399 0.0
H1279 H 0.64669 0.44655 0.02869 0.0
C1280 C 0.8079 0.38195 0.24079 0.0
C1281 C 0.82831 0.37967 0.22607 0.0
C1282 C 0.79369 0.36212 0.24661 0.0
C1283 C 0.79982 0.33964 0.23708 0.0
C1284 C 0.81919 0.33761 0.22062 0.0
C1285 C 0.83338 0.35762 0.21553 0.0
C1286 C 0.77351 0.365 0.26454 0.0
C1287 C 0.82613 0.31401 0.20969 0.0
C1288 C 0.79068 0.2824 0.27001 0.0
C1289 C 0.77155 0.27187 0.25712 0.0
C1290 C 0.79889 0.3053 0.2648 0.0
C1291 C 0.78791 0.31782 0.24604 0.0
C1292 C 0.76742 0.30805 0.23421 0.0
C1293 C 0.75933 0.28521 0.24004 0.0
C1294 C 0.82033 0.31547 0.27836 0.0
C1295 C 0.7548 0.3212 0.2146 0.0
H1296 H 0.80396 0.39893 0.24913 0.0
H1297 H 0.84903 0.35581 0.20402 0.0
H1298 H 0.75743 0.35425 0.25927 0.0
H1299 H 0.77963 0.35865 0.2822 0.0
H1300 H 0.76812 0.3838 0.26667 0.0
H1301 H 0.8372 0.31623 0.19328 0.0
H1302 H 0.8369 0.30411 0.22284 0.0
H1303 H 0.80994 0.30308 0.20513 0.0
H1304 H 0.79997 0.27232 0.28345 0.0
H1305 H 0.74438 0.27728 0.23012 0.0
H1306 H 0.8169 0.33402 0.2841 0.0
H1307 H 0.83639 0.31566 0.26649 0.0
H1308 H 0.82466 0.30498 0.29442 0.0
H1309 H 0.74558 0.33684 0.22239 0.0
H1310 H 0.7411 0.30996 0.20513 0.0
H1311 H 0.76805 0.32786 0.20134 0.0
C1312 C 0.79982 0.57891 0.58598 0.0
C1313 C 0.79276 0.59787 0.57179 0.0
C1314 C 0.82186 0.56766 0.58204 0.0
C1315 C 0.83746 0.57603 0.56392 0.0
C1316 C 0.83131 0.59638 0.55088 0.0
C1317 C 0.80879 0.60687 0.55471 0.0
C1318 C 0.82747 0.54566 0.59591 0.0
C1319 C 0.84788 0.60624 0.53194 0.0
C1320 C 0.90046 0.55037 0.56059 0.0
C1321 C 0.89768 0.53396 0.5417 0.0
C1322 C 0.8811 0.56461 0.56786 0.0
C1323 C 0.85842 0.56164 0.55643 0.0
C1324 C 0.85546 0.54456 0.53778 0.0
C1325 C 0.87527 0.53121 0.53038 0.0
C1326 C 0.88503 0.58314 0.58731 0.0
C1327 C 0.83137 0.54035 0.52563 0.0
H1328 H 0.78743 0.57182 0.59915 0.0
H1329 H 0.80347 0.62169 0.54389 0.0
H1330 H 0.82625 0.52995 0.58374 0.0
H1331 H 0.84613 0.54655 0.60306 0.0
H1332 H 0.81477 0.54296 0.61104 0.0
H1333 H 0.84238 0.62416 0.5263 0.0
H1334 H 0.86676 0.60725 0.53857 0.0
H1335 H 0.84761 0.5943 0.51597 0.0
H1336 H 0.91795 0.55263 0.56909 0.0
H1337 H 0.87319 0.51839 0.51583 0.0
H1338 H 0.87234 0.58011 0.60233 0.0
H1339 H 0.88121 0.60094 0.5802 0.0
H1340 H 0.90377 0.58317 0.59438 0.0
H1341 H 0.81733 0.53619 0.53916 0.0
H1342 H 0.83191 0.52557 0.51227 0.0
H1343 H 0.82575 0.55661 0.51641 0.0
C1344 C 0.13161 0.13498 0.2495 0.0
C1345 C 0.13965 0.11638 0.23479 0.0
C1346 C 0.14415 0.15671 0.25049 0.0
C1347 C 0.1646 0.16011 0.23569 0.0
C1348 C 0.17243 0.1415 0.22037 0.0
C1349 C 0.16011 0.11963 0.22048 0.0
C1350 C 0.13579 0.17585 0.26766 0.0
C1351 C 0.19366 0.14476 0.20373 0.0
C1352 C 0.18359 0.22317 0.22179 0.0
C1353 C 0.20454 0.22584 0.23564 0.0
C1354 C 0.17039 0.20181 0.22158 0.0
C1355 C 0.1779 0.1831 0.23629 0.0
C1356 C 0.19851 0.18614 0.25109 0.0
C1357 C 0.21192 0.20736 0.25018 0.0
C1358 C 0.14903 0.19895 0.20493 0.0
C1359 C 0.20657 0.1669 0.26762 0.0
H1360 H 0.1159 0.13228 0.26076 0.0
H1361 H 0.16617 0.1052 0.20902 0.0
H1362 H 0.15072 0.18106 0.27999 0.0
H1363 H 0.13079 0.19186 0.25767 0.0
H1364 H 0.12 0.17008 0.27847 0.0
H1365 H 0.19661 0.12894 0.19205 0.0
H1366 H 0.19077 0.16031 0.19223 0.0
H1367 H 0.21032 0.14833 0.21425 0.0
H1368 H 0.17818 0.23742 0.21024 0.0
H1369 H 0.22817 0.20954 0.26086 0.0
H1370 H 0.13257 0.19421 0.21518 0.0
H1371 H 0.15235 0.18425 0.19196 0.0
H1372 H 0.14549 0.21531 0.1948 0.0
H1373 H 0.19127 0.16103 0.27901 0.0
H1374 H 0.22171 0.17284 0.2794 0.0
H1375 H 0.21249 0.15127 0.25698 0.0
C1376 C 0.3418 0.97693 0.56404 0.0
C1377 C 0.33575 0.95309 0.56796 0.0
C1378 C 0.36593 0.98452 0.5634 0.0
C1379 C 0.38437 0.9679 0.56702 0.0
C1380 C 0.37834 0.94443 0.57352 0.0
C1381 C 0.35401 0.93725 0.57387 0.0
C1382 C 0.37165 0.00978 0.55664 0.0
C1383 C 0.3976 0.92638 0.57806 0.0
C1384 C 0.44141 0.97617 0.53071 0.0
C1385 C 0.45731 0.98598 0.54777 0.0
C1386 C 0.41761 0.97024 0.53685 0.0
C1387 C 0.40957 0.97413 0.56064 0.0
C1388 C 0.42543 0.98417 0.57795 0.0
C1389 C 0.44914 0.99 0.5713 0.0
C1390 C 0.40105 0.95976 0.51784 0.0
C1391 C 0.41741 0.98852 0.60346 0.0
H1392 H 0.32778 0.98942 0.55986 0.0
H1393 H 0.34948 0.91887 0.57722 0.0
H1394 H 0.38613 0.01745 0.56822 0.0
H1395 H 0.3783 0.01008 0.53791 0.0
H1396 H 0.35555 0.02125 0.55799 0.0
H1397 H 0.39009 0.9102 0.58651 0.0
H1398 H 0.40611 0.92114 0.56082 0.0
H1399 H 0.412 0.934 0.58975 0.0
H1400 H 0.44757 0.97301 0.51254 0.0
H1401 H 0.46137 -0.00258 0.58468 0.0
H1402 H 0.38495 0.97103 0.51582 0.0
H1403 H 0.39458 0.94196 0.52327 0.0
H1404 H 0.41008 0.95803 0.50015 0.0
H1405 H 0.40111 -0.00029 0.60387 0.0
H1406 H 0.43168 -0.00264 0.61451 0.0
H1407 H 0.4124 0.97145 0.61179 0.0
C1408 C 0.80557 0.52497 0.22053 0.0
C1409 C 0.82428 0.52107 0.23685 0.0
C1410 C 0.79389 0.54685 0.21994 0.0
C1411 C 0.80101 0.56513 0.23618 0.0
C1412 C 0.81987 0.56129 0.2527 0.0
C1413 C 0.83133 0.53931 0.25279 0.0
C1414 C 0.77389 0.55036 0.20203 0.0
C1415 C 0.82779 0.58032 0.27044 0.0
C1416 C 0.78484 0.62921 0.22519 0.0
C1417 C 0.76509 0.63214 0.24063 0.0
C1418 C 0.79639 0.60728 0.22306 0.0
C1419 C 0.78801 0.58794 0.23673 0.0
C1420 C 0.7677 0.59061 0.2518 0.0
C1421 C 0.75647 0.61262 0.25352 0.0
C1422 C 0.81793 0.60496 0.20667 0.0
C1423 C 0.75824 0.5704 0.26668 0.0
H1424 H 0.80015 0.51099 0.20805 0.0
H1425 H 0.84582 0.53641 0.2654 0.0
H1426 H 0.75673 0.55402 0.21156 0.0
H1427 H 0.77805 0.56596 0.19086 0.0
H1428 H 0.77111 0.53465 0.19008 0.0
H1429 H 0.8431 0.57467 0.28174 0.0
H1430 H 0.83331 0.59657 0.26086 0.0
H1431 H 0.81248 0.58509 0.2823 0.0
H1432 H 0.7916 0.64416 0.21514 0.0
H1433 H 0.74116 0.61461 0.26543 0.0
H1434 H 0.81523 0.58977 0.19406 0.0
H1435 H 0.8343 0.60134 0.21737 0.0
H1436 H 0.82128 0.62123 0.19618 0.0
H1437 H 0.75412 0.55474 0.25506 0.0
H1438 H 0.74168 0.57514 0.27679 0.0
H1439 H 0.77226 0.56507 0.27964 0.0
C1440 C 0.63823 0.46892 0.73132 0.0
C1441 C 0.65116 0.49041 0.73088 0.0
C1442 C 0.65014 0.44739 0.73411 0.0
C1443 C 0.6755 0.44747 0.73715 0.0
C1444 C 0.68872 0.46908 0.73614 0.0
C1445 C 0.67638 0.49031 0.73273 0.0
C1446 C 0.63548 0.42465 0.73454 0.0
C1447 C 0.71573 0.46991 0.7398 0.0
C1448 C 0.70022 0.39706 0.77326 0.0
C1449 C 0.71039 0.38257 0.75542 0.0
C1450 C 0.68924 0.41843 0.76753 0.0
C1451 C 0.68789 0.42522 0.74331 0.0
C1452 C 0.69798 0.41061 0.72516 0.0
C1453 C 0.7094 0.38955 0.73148 0.0
C1454 C 0.67912 0.43377 0.78745 0.0
C1455 C 0.69637 0.41705 0.6991 0.0
H1456 H 0.61872 0.46894 0.72965 0.0
H1457 H 0.68639 0.50693 0.73248 0.0
H1458 H 0.64337 0.4113 0.72212 0.0
H1459 H 0.63594 0.41717 0.75277 0.0
H1460 H 0.61634 0.42736 0.72948 0.0
H1461 H 0.72349 0.48791 0.73707 0.0
H1462 H 0.72004 0.46437 0.75825 0.0
H1463 H 0.72468 0.45734 0.72732 0.0
H1464 H 0.70117 0.39186 0.79182 0.0
H1465 H 0.71716 0.37831 0.71765 0.0
H1466 H 0.65935 0.43556 0.78514 0.0
H1467 H 0.68722 0.45183 0.78677 0.0
H1468 H 0.68258 0.42642 0.80543 0.0
H1469 H 0.67715 0.41855 0.6938 0.0
H1470 H 0.70509 0.40375 0.68718 0.0
H1471 H 0.7051 0.43456 0.69622 0.0
C1472 C 0.02779 0.87423 0.89316 0.0
C1473 C 0.02844 0.85122 0.90209 0.0
C1474 C 0.0234 0.89358 0.90852 0.0
C1475 C 0.01997 0.88967 0.93327 0.0
C1476 C 0.02362 0.86689 0.94264 0.0
C1477 C 0.02761 0.84784 0.92687 0.0
C1478 C 0.0197 0.91765 0.89785 0.0
C1479 C 0.02071 0.8621 0.969 0.0
C1480 C 0.00854 0.94224 0.97488 0.0
C1481 C 0.98319 0.94218 0.97561 0.0
C1482 C 0.02096 0.92509 0.96139 0.0
C1483 C 0.00767 0.90778 0.94819 0.0
C1484 C 0.98212 0.90752 0.94906 0.0
C1485 C 0.97023 0.92462 0.96286 0.0
C1486 C 0.04821 0.92564 0.96106 0.0
C1487 C 0.96724 0.88933 0.93516 0.0
H1488 H 0.02856 0.87689 0.874 0.0
H1489 H 0.02858 0.83006 0.93383 0.0
H1490 H 6e-05 0.92116 0.89684 0.0
H1491 H 0.02805 0.9318 0.90922 0.0
H1492 H 0.02735 0.91873 0.87951 0.0
H1493 H 0.02891 0.84502 0.97397 0.0
H1494 H 0.02903 0.87654 0.98003 0.0
H1495 H 0.0012 0.86127 0.97347 0.0
H1496 H 0.01868 0.95574 0.98475 0.0
H1497 H 0.95067 0.92447 0.96322 0.0
H1498 H 0.05473 0.92926 0.9427 0.0
H1499 H 0.05531 0.90813 0.96609 0.0
H1500 H 0.05586 0.93938 0.97346 0.0
H1501 H 0.97147 0.89038 0.9158 0.0
H1502 H 0.94752 0.89183 0.93757 0.0
H1503 H 0.97177 0.87124 0.94099 0.0
C1504 C 0.92862 0.27551 0.69286 0.0
C1505 C 0.92509 0.25094 0.6948 0.0
C1506 C 0.91243 0.2915 0.7032 0.0
C1507 C 0.89185 0.2827 0.71523 0.0
C1508 C 0.88794 0.25789 0.71692 0.0
C1509 C 0.90491 0.24224 0.70703 0.0
C1510 C 0.9174 0.31778 0.70132 0.0
C1511 C 0.86559 0.24788 0.72869 0.0
C1512 C 0.85646 0.31778 0.76131 0.0
C1513 C 0.83582 0.32346 0.74815 0.0
C1514 C 0.87573 0.30585 0.7504 0.0
C1515 C 0.87417 0.29936 0.72586 0.0
C1516 C 0.85456 0.30718 0.71199 0.0
C1517 C 0.83582 0.3195 0.72323 0.0
C1518 C 0.89676 0.29842 0.7656 0.0
C1519 C 0.85207 0.30048 0.6858 0.0
H1520 H 0.94439 0.28229 0.68357 0.0
H1521 H 0.90211 0.22326 0.70834 0.0
H1522 H 0.90232 0.3264 0.69191 0.0
H1523 H 0.91859 0.32595 0.71949 0.0
H1524 H 0.93442 0.32169 0.69154 0.0
H1525 H 0.86547 0.22822 0.72875 0.0
H1526 H 0.86422 0.25461 0.7474 0.0
H1527 H 0.84928 0.25381 0.71906 0.0
H1528 H 0.85678 0.32094 0.7805 0.0
H1529 H 0.82006 0.3239 0.71277 0.0
H1530 H 0.9141 0.30209 0.75634 0.0
H1531 H 0.89557 0.27906 0.76856 0.0
H1532 H 0.89698 0.30765 0.78332 0.0
H1533 H 0.83777 0.31073 0.67686 0.0
H1534 H 0.84733 0.28136 0.68412 0.0
H1535 H 0.86933 0.30333 0.67615 0.0
C1536 C 0.48672 0.17284 0.46264 0.0
C1537 C 0.48311 0.16359 0.43941 0.0
C1538 C 0.49229 0.15799 0.48164 0.0
C1539 C 0.49411 0.13337 0.47722 0.0
C1540 C 0.48783 0.12373 0.45444 0.0
C1541 C 0.48242 0.13901 0.43572 0.0
C1542 C 0.49847 0.16891 0.50575 0.0
C1543 C 0.48902 0.09745 0.44922 0.0
C1544 C 0.5421 0.09675 0.50612 0.0
C1545 C 0.52823 0.08235 0.52113 0.0
C1546 C 0.53138 0.11471 0.49301 0.0
C1547 C 0.50616 0.11817 0.49486 0.0
C1548 C 0.49248 0.10519 0.51164 0.0
C1549 C 0.50374 0.08746 0.52473 0.0
C1550 C 0.54674 0.12866 0.47574 0.0
C1551 C 0.46562 0.10852 0.51429 0.0
H1552 H 0.48693 0.19185 0.46571 0.0
H1553 H 0.47939 0.13176 0.41788 0.0
H1554 H 0.49109 0.15806 0.52048 0.0
H1555 H 0.51839 0.16968 0.50784 0.0
H1556 H 0.4915 0.1872 0.50765 0.0
H1557 H 0.48052 0.09253 0.43179 0.0
H1558 H 0.50819 0.09197 0.4487 0.0
H1559 H 0.47992 0.08733 0.46357 0.0
H1560 H 0.56108 0.09304 0.5035 0.0
H1561 H 0.49287 0.07641 0.53633 0.0
H1562 H 0.54336 0.1479 0.4779 0.0
H1563 H 0.54188 0.12346 0.4571 0.0
H1564 H 0.56633 0.12558 0.4783 0.0
H1565 H 0.46092 0.12755 0.5138 0.0
H1566 H 0.45869 0.10096 0.53123 0.0
H1567 H 0.45619 0.09944 0.49914 0.0
C1568 C 0.62378 0.76897 0.14915 0.0
C1569 C 0.60889 0.76261 0.12982 0.0
C1570 C 0.63571 0.75167 0.1622 0.0
C1571 C 0.632 0.72738 0.15619 0.0
C1572 C 0.61847 0.72097 0.13557 0.0
C1573 C 0.60737 0.73875 0.12234 0.0
C1574 C 0.65104 0.75934 0.18338 0.0
C1575 C 0.6142 0.69531 0.12859 0.0
C1576 C 0.67406 0.68948 0.19153 0.0
C1577 C 0.66177 0.68916 0.21349 0.0
C1578 C 0.66383 0.70009 0.17146 0.0
C1579 C 0.6402 0.70912 0.17318 0.0
C1580 C 0.62621 0.70465 0.19393 0.0
C1581 C 0.63737 0.69512 0.21412 0.0
C1582 C 0.67977 0.70491 0.15012 0.0
C1583 C 0.60051 0.71297 0.19601 0.0
H1584 H 0.62495 0.78739 0.15491 0.0
H1585 H 0.59564 0.73371 0.10753 0.0
H1586 H 0.64203 0.754 0.20023 0.0
H1587 H 0.66881 0.75052 0.18263 0.0
H1588 H 0.65411 0.77882 0.18411 0.0
H1589 H 0.60471 0.68604 0.14328 0.0
H1590 H 0.60329 0.69326 0.11198 0.0
H1591 H 0.63169 0.68634 0.12583 0.0
H1592 H 0.69311 0.6852 0.19114 0.0
H1593 H 0.6279 0.69511 0.23112 0.0
H1594 H 0.66928 0.70556 0.13326 0.0
H1595 H 0.69394 0.69127 0.14817 0.0
H1596 H 0.68895 0.72236 0.15278 0.0
H1597 H 0.60048 0.73241 0.19927 0.0
H1598 H 0.59084 0.70434 0.21103 0.0
H1599 H 0.59045 0.70924 0.17916 0.0
C1600 C 0.97176 0.16558 0.57651 0.0
C1601 C 0.9669 0.16078 0.60063 0.0
C1602 C 0.97412 0.1471 0.55957 0.0
C1603 C 0.97132 0.12337 0.56693 0.0
C1604 C 0.96487 0.11854 0.59089 0.0
C1605 C 0.96284 0.13729 0.60747 0.0
C1606 C 0.98066 0.15288 0.53408 0.0
C1607 C 0.96108 0.09349 0.59925 0.0
C1608 C 0.96098 0.07103 0.52479 0.0
C1609 C 0.98358 0.06014 0.52526 0.0
C1610 C 0.95714 0.09266 0.53684 0.0
C1611 C 0.97621 0.10335 0.5501 0.0
C1612 C -0.00054 0.09324 0.5494 0.0
C1613 C 0.0029 0.07182 0.53686 0.0
C1614 C 0.93224 0.10313 0.5367 0.0
C1615 C 0.02035 0.10426 0.56314 0.0
H1616 H 0.975 0.18369 0.57109 0.0
H1617 H 0.95888 0.13345 0.62602 0.0
H1618 H -0.00093 0.14641 0.53006 0.0
H1619 H 0.96808 0.14371 0.52144 0.0
H1620 H 0.98025 0.17221 0.53077 0.0
H1621 H 0.95412 0.09281 0.61788 0.0
H1622 H 0.94816 0.08399 0.58723 0.0
H1623 H 0.97841 0.08387 0.5984 0.0
H1624 H 0.94608 0.06233 0.51559 0.0
H1625 H 0.02046 0.0636 0.5373 0.0
H1626 H 0.92213 0.09765 0.52037 0.0
H1627 H 0.93287 0.12275 0.53763 0.0
H1628 H 0.92215 0.09681 0.55257 0.0
H1629 H 0.02187 0.12347 0.55947 0.0
H1630 H 0.03778 0.09578 0.5586 0.0
H1631 H 0.01713 0.1024 0.58263 0.0
C1632 C 0.58701 0.19141 0.35695 0.0
C1633 C 0.56463 0.18874 0.34548 0.0
C1634 C 0.60858 0.18883 0.34408 0.0
C1635 C 0.6076 0.18311 0.31932 0.0
C1636 C 0.58506 0.17936 0.30792 0.0
C1637 C 0.56381 0.18237 0.32113 0.0
C1638 C 0.63236 0.19308 0.35675 0.0
C1639 C 0.58338 0.17282 0.28164 0.0
C1640 C 0.66127 0.20192 0.28179 0.0
C1641 C 0.67457 0.18101 0.28071 0.0
C1642 C 0.63922 0.20275 0.29406 0.0
C1643 C 0.63017 0.18208 0.30514 0.0
C1644 C 0.64303 0.16067 0.30326 0.0
C1645 C 0.66519 0.16043 0.29119 0.0
C1646 C 0.626 0.22594 0.29585 0.0
C1647 C 0.63368 0.13818 0.31447 0.0
H1648 H 0.58769 0.19638 0.37577 0.0
H1649 H 0.54652 0.18012 0.31227 0.0
H1650 H 0.64418 0.17753 0.35428 0.0
H1651 H 0.64186 0.20851 0.34885 0.0
H1652 H 0.63001 0.19654 0.37624 0.0
H1653 H 0.56453 0.1688 0.27594 0.0
H1654 H 0.59045 0.18765 0.27078 0.0
H1655 H 0.59465 0.15717 0.27757 0.0
H1656 H 0.6685 0.21789 0.27382 0.0
H1657 H 0.67532 0.14415 0.29021 0.0
H1658 H 0.62463 0.23166 0.31489 0.0
H1659 H 0.60732 0.22368 0.28893 0.0
H1660 H 0.63517 0.24023 0.28571 0.0
H1661 H 0.63315 0.14046 0.33422 0.0
H1662 H 0.64507 0.12268 0.30999 0.0
H1663 H 0.61494 0.13431 0.3084 0.0
C1664 C 0.49933 0.85371 0.07934 0.0
C1665 C 0.50054 0.82967 0.07286 0.0
C1666 C 0.48252 0.86856 0.06871 0.0
C1667 C 0.46665 0.85923 0.05092 0.0
C1668 C 0.46815 0.83513 0.04382 0.0
C1669 C 0.48508 0.82059 0.05492 0.0
C1670 C 0.48131 0.89414 0.07704 0.0
C1671 C 0.45133 0.82453 0.02515 0.0
C1672 C 0.41364 0.90002 0.04635 0.0
C1673 C 0.42206 0.9156 0.02882 0.0
C1674 C 0.42668 0.87969 0.05199 0.0
C1675 C 0.4487 0.87513 0.04 0.0
C1676 C 0.45556 0.88908 0.02029 0.0
C1677 C 0.44193 0.90896 0.01469 0.0
C1678 C 0.41828 0.86471 0.07258 0.0
C1679 C 0.4789 0.88487 0.007 0.0
H1680 H 0.51112 0.86085 0.09325 0.0
H1681 H 0.48578 0.80197 0.04996 0.0
H1682 H 0.48376 0.90606 0.06161 0.0
H1683 H 0.46329 0.89776 0.08483 0.0
H1684 H 0.49517 0.89868 0.09078 0.0
H1685 H 0.45619 0.80608 0.02014 0.0
H1686 H 0.43258 0.82445 0.03213 0.0
H1687 H 0.45149 0.8354 0.00879 0.0
H1688 H 0.39807 0.9047 0.0571 0.0
H1689 H 0.4484 0.92058 0.00076 0.0
H1690 H 0.4287 0.86977 0.08888 0.0
H1691 H 0.42142 0.84565 0.06879 0.0
H1692 H 0.3988 0.86725 0.07645 0.0
H1693 H 0.49423 0.8914 0.01819 0.0
H1694 H 0.47948 0.89432 0.98972 0.0
H1695 H 0.48159 0.86571 0.00345 0.0
C1696 C 0.92152 0.79605 0.83564 0.0
C1697 C 0.94129 0.80618 0.82369 0.0
C1698 C 0.8979 0.79909 0.82735 0.0
C1699 C 0.89399 0.81263 0.80667 0.0
C1700 C 0.91378 0.82327 0.79476 0.0
C1701 C 0.93721 0.8199 0.80341 0.0
C1702 C 0.87718 0.78748 0.84048 0.0
C1703 C 0.91023 0.83791 0.77268 0.0
C1704 C 0.83667 0.80055 0.77129 0.0
C1705 C 0.82193 0.81917 0.77907 0.0
C1706 C 0.86019 0.79827 0.7801 0.0
C1707 C 0.86921 0.81505 0.79704 0.0
C1708 C 0.85456 0.83399 0.80486 0.0
C1709 C 0.83106 0.83581 0.7958 0.0
C1710 C 0.87533 0.77781 0.77138 0.0
C1711 C 0.86368 0.85226 0.82286 0.0
H1712 H 0.92449 0.78545 0.85134 0.0
H1713 H 0.95236 0.82787 0.7941 0.0
H1714 H 0.86376 0.80095 0.84591 0.0
H1715 H 0.86781 0.77452 0.82843 0.0
H1716 H 0.88323 0.77811 0.8567 0.0
H1717 H 0.92745 0.84568 0.76604 0.0
H1718 H 0.90211 0.82673 0.7582 0.0
H1719 H 0.89751 0.85248 0.77655 0.0
H1720 H 0.82979 0.78759 0.75839 0.0
H1721 H 0.81985 0.85029 0.80189 0.0
H1722 H 0.8806 0.76678 0.78672 0.0
H1723 H 0.89222 0.78458 0.7631 0.0
H1724 H 0.86566 0.76637 0.75805 0.0
H1725 H 0.86854 0.84351 0.83979 0.0
H1726 H 0.85009 0.86606 0.82687 0.0
H1727 H 0.88029 0.86101 0.81602 0.0
C1728 C 0.87915 0.02866 0.81629 0.0
C1729 C 0.8982 0.01909 0.80293 0.0
C1730 C 0.8779 0.02568 0.84111 0.0
C1731 C 0.89646 0.01336 0.85277 0.0
C1732 C 0.91519 0.00284 0.83924 0.0
C1733 C 0.9157 0.00564 0.8144 0.0
C1734 C 0.85735 0.03665 0.85495 0.0
C1735 C 0.93553 0.98989 0.85112 0.0
C1736 C 0.91368 0.03273 0.91549 0.0
C1737 C 0.90522 0.01365 0.92904 0.0
C1738 C 0.91045 0.03301 0.8907 0.0
C1739 C 0.89804 0.01394 0.87921 0.0
C1740 C 0.8885 -0.00489 0.89284 0.0
C1741 C 0.89243 -0.00495 0.91766 0.0
C1742 C 0.92119 0.05327 0.87671 0.0
C1743 C 0.8747 0.97479 0.88115 0.0
H1744 H 0.86539 0.03877 0.8074 0.0
H1745 H 0.93044 -0.0018 0.8041 0.0
H1746 H 0.84968 0.02383 0.86784 0.0
H1747 H 0.86416 0.0522 0.86545 0.0
H1748 H 0.84269 0.0426 0.84299 0.0
H1749 H 0.94764 0.98117 0.83791 0.0
H1750 H 0.94644 0.0026 0.86213 0.0
H1751 H 0.92826 0.97625 0.86332 0.0
H1752 H 0.92366 0.04714 0.92413 0.0
H1753 H 0.88571 0.98035 0.92809 0.0
H1754 H 0.907 0.06186 0.86603 0.0
H1755 H 0.93491 0.04643 0.86397 0.0
H1756 H 0.92992 0.06694 0.88847 0.0
H1757 H 0.86029 0.98159 0.86942 0.0
H1758 H 0.86637 0.96282 0.89451 0.0
H1759 H 0.88704 0.96427 0.86966 0.0
C1760 C 0.77745 0.20571 0.60177 0.0
C1761 C 0.79451 0.18894 0.60849 0.0
C1762 C 0.76904 0.22265 0.6183 0.0
C1763 C 0.77838 0.22313 0.64187 0.0
C1764 C 0.79695 0.2074 0.64819 0.0
C1765 C 0.80457 0.19026 0.63148 0.0
C1766 C 0.74904 0.23896 0.61101 0.0
C1767 C 0.80794 0.2079 0.67295 0.0
C1768 C 0.76844 0.27543 0.68392 0.0
C1769 C 0.75129 0.26607 0.69982 0.0
C1770 C 0.77693 0.26195 0.66446 0.0
C1771 C 0.7676 0.23879 0.6605 0.0
C1772 C 0.74908 0.22987 0.67551 0.0
C1773 C 0.74136 0.24352 0.69521 0.0
C1774 C 0.79706 0.27189 0.64923 0.0
C1775 C 0.73827 0.20544 0.67148 0.0
H1776 H 0.76944 0.2046 0.58407 0.0
H1777 H 0.81785 0.17738 0.63667 0.0
H1778 H 0.73226 0.23417 0.62076 0.0
H1779 H 0.75365 0.25758 0.61594 0.0
H1780 H 0.74532 0.23785 0.59149 0.0
H1781 H 0.82391 0.19627 0.67416 0.0
H1782 H 0.81351 0.22623 0.67813 0.0
H1783 H 0.79432 0.2019 0.68617 0.0
H1784 H 0.77652 0.29272 0.68757 0.0
H1785 H 0.72813 0.23624 0.70746 0.0
H1786 H 0.79304 0.26917 0.62993 0.0
H1787 H 0.814 0.26239 0.65306 0.0
H1788 H 0.80023 0.2911 0.65277 0.0
H1789 H 0.73274 0.20298 0.6525 0.0
H1790 H 0.72233 0.20217 0.68309 0.0
H1791 H 0.75201 0.19189 0.67531 0.0
C1792 C 0.55775 0.01311 0.32471 0.0
C1793 C 0.57204 -0.00486 0.3147 0.0
C1794 C 0.55383 0.01464 0.34947 0.0
C1795 C 0.56451 -0.00215 0.36454 0.0
C1796 C 0.57947 0.98008 0.35467 0.0
C1797 C 0.58308 0.97895 0.32986 0.0
C1798 C 0.53789 0.03392 0.35944 0.0
C1799 C 0.59129 0.96197 0.37028 0.0
C1800 C 0.57193 0.0121 0.43055 0.0
C1801 C 0.55279 -0.00091 0.44062 0.0
C1802 C 0.57573 0.01213 0.40579 0.0
C1803 C 0.56002 -0.00121 0.39069 0.0
C1804 C 0.54042 0.98593 0.40062 0.0
C1805 C 0.53701 0.98624 0.42551 0.0
C1806 C 0.59676 0.02614 0.39582 0.0
C1807 C 0.5233 0.97155 0.38496 0.0
H1808 H 0.54914 0.02571 0.31315 0.0
H1809 H 0.59416 0.96502 0.32232 0.0
H1810 H 0.52193 0.02589 0.36836 0.0
H1811 H 0.54782 0.04457 0.3732 0.0
H1812 H 0.53148 0.04599 0.34535 0.0
H1813 H 0.60278 0.94957 0.35983 0.0
H1814 H 0.60262 0.97099 0.38413 0.0
H1815 H 0.57725 0.95152 0.37975 0.0
H1816 H 0.58417 0.02222 0.44204 0.0
H1817 H 0.52218 0.97617 0.43313 0.0
H1818 H 0.59028 0.03884 0.38239 0.0
H1819 H 0.60941 0.01402 0.38652 0.0
H1820 H 0.60686 0.03616 0.40997 0.0
H1821 H 0.51514 0.98301 0.37129 0.0
H1822 H 0.50856 0.96308 0.39541 0.0
H1823 H 0.53335 0.95749 0.37526 0.0
C1824 C 0.72006 0.82824 0.09564 0.0
C1825 C 0.698 0.82351 0.08412 0.0
C1826 C 0.72898 0.81291 0.11285 0.0
C1827 C 0.71523 0.79263 0.11904 0.0
C1828 C 0.69373 0.7869 0.10633 0.0
C1829 C 0.68547 0.80236 0.08876 0.0
C1830 C 0.75222 0.81937 0.12565 0.0
C1831 C 0.67882 0.76519 0.11221 0.0
C1832 C 0.74125 0.74927 0.1634 0.0
C1833 C 0.73182 0.75813 0.18502 0.0
C1834 C 0.7361 0.76025 0.14159 0.0
C1835 C 0.72096 0.78025 0.14151 0.0
C1836 C 0.71148 0.78923 0.16328 0.0
C1837 C 0.7172 0.77824 0.18469 0.0
C1838 C 0.74651 0.75023 0.11868 0.0
C1839 C 0.6949 0.8103 0.16397 0.0
H1840 H 0.73008 0.84435 0.09171 0.0
H1841 H 0.66856 0.79853 0.07962 0.0
H1842 H 0.74807 0.82588 0.14403 0.0
H1843 H 0.7638 0.80359 0.1273 0.0
H1844 H 0.76256 0.83343 0.11628 0.0
H1845 H 0.66143 0.76443 0.10231 0.0
H1846 H 0.68916 0.74905 0.10767 0.0
H1847 H 0.67498 0.76478 0.13166 0.0
H1848 H 0.75233 0.7336 0.16346 0.0
H1849 H 0.70963 0.78521 0.20121 0.0
H1850 H 0.75482 0.76453 0.10791 0.0
H1851 H 0.73182 0.742 0.10778 0.0
H1852 H 0.76031 0.73659 0.12207 0.0
H1853 H 0.70431 0.82607 0.15665 0.0
H1854 H 0.68866 0.81474 0.18239 0.0
H1855 H 0.6788 0.8066 0.15261 0.0
C1856 C 0.93021 0.05246 0.65401 0.0
C1857 C 0.93642 0.04968 0.6781 0.0
C1858 C 0.93847 0.03653 0.6364 0.0
C1859 C 0.95306 0.01733 0.64316 0.0
C1860 C 0.96045 0.01519 0.66721 0.0
C1861 C 0.95242 0.03168 0.68431 0.0
C1862 C 0.93072 0.03963 0.61073 0.0
C1863 C 0.97551 -0.00535 0.67514 0.0
C1864 C 0.94806 0.9671 0.59778 0.0
C1865 C 0.96913 0.97072 0.58454 0.0
C1866 C 0.94366 0.98076 0.61851 0.0
C1867 C 0.96007 -0.00073 0.625 0.0
C1868 C 0.98198 0.00205 0.61233 0.0
C1869 C 0.98648 0.98729 0.59253 0.0
C1870 C 0.92062 0.97659 0.63232 0.0
C1871 C -0.00057 0.02218 0.61794 0.0
H1872 H 0.91804 0.06643 0.64905 0.0
H1873 H 0.95754 0.02956 0.70287 0.0
H1874 H 0.94676 0.03997 0.59884 0.0
H1875 H 0.91919 0.02442 0.60485 0.0
H1876 H 0.92036 0.05612 0.60827 0.0
H1877 H 0.98083 -0.00372 0.69428 0.0
H1878 H 0.96508 0.97789 0.67252 0.0
H1879 H -0.00791 -0.00677 0.66412 0.0
H1880 H 0.93448 0.9546 0.5912 0.0
H1881 H 0.00245 0.99047 0.58172 0.0
H1882 H 0.90755 0.99067 0.62825 0.0
H1883 H 0.92415 0.97736 0.65188 0.0
H1884 H 0.91214 0.95918 0.62766 0.0
H1885 H -0.00866 0.0391 0.61233 0.0
H1886 H 0.01691 0.02006 0.60845 0.0
H1887 H 0.00298 0.02368 0.63743 0.0
C1888 C 0.76961 0.16895 0.45605 0.0
C1889 C 0.78661 0.15374 0.46586 0.0
C1890 C 0.76889 0.17273 0.43126 0.0
C1891 C 0.78568 0.16115 0.41608 0.0
C1892 C 0.80329 0.14632 0.42602 0.0
C1893 C 0.80349 0.14274 0.45075 0.0
C1894 C 0.74978 0.18859 0.42123 0.0
C1895 C 0.8216 0.13378 0.41047 0.0
C1896 C 0.76847 0.14912 0.35132 0.0
C1897 C 0.78102 0.16723 0.33945 0.0
C1898 C 0.76977 0.14707 0.37624 0.0
C1899 C 0.78406 0.16343 0.38968 0.0
C1900 C 0.7971 0.18151 0.37786 0.0
C1901 C 0.79541 0.18323 0.35287 0.0
C1902 C 0.75565 0.12748 0.38821 0.0
C1903 C 0.81269 0.19914 0.39164 0.0
H1904 H 0.75657 0.1775 0.46767 0.0
H1905 H 0.81683 0.1311 0.45822 0.0
H1906 H 0.75827 0.20257 0.4102 0.0
H1907 H 0.73751 0.17808 0.40935 0.0
H1908 H 0.73884 0.19719 0.43551 0.0
H1909 H 0.83499 0.12399 0.42116 0.0
H1910 H 0.81223 0.121 0.39822 0.0
H1911 H 0.8314 0.14671 0.39919 0.0
H1912 H 0.75726 0.13669 0.34118 0.0
H1913 H 0.80513 0.1973 0.3439 0.0
H1914 H 0.7429 0.13515 0.40145 0.0
H1915 H 0.76809 0.11594 0.39812 0.0
H1916 H 0.74522 0.11633 0.37519 0.0
H1917 H 0.80152 0.20903 0.4048 0.0
H1918 H 0.82181 0.21206 0.37975 0.0
H1919 H 0.82665 0.18971 0.40188 0.0
C1920 C 0.5282 0.9429 0.1758 0.0
C1921 C 0.52855 0.94705 0.20058 0.0
C1922 C 0.50751 0.94785 0.1623 0.0
C1923 C 0.48683 0.95706 0.17396 0.0
C1924 C 0.4864 0.95911 0.19918 0.0
C1925 C 0.50732 0.95422 0.21218 0.0
C1926 C 0.50827 0.94467 0.13544 0.0
C1927 C 0.46439 0.96795 0.21233 0.0
C1928 C 0.45302 0.00168 0.1375 0.0
C1929 C 0.43483 0.98756 0.12684 0.0
C1930 C 0.46947 0.99208 0.15357 0.0
C1931 C 0.46737 0.96789 0.15964 0.0
C1932 C 0.44768 0.95411 0.15081 0.0
C1933 C 0.43169 0.96408 0.13438 0.0
C1934 C 0.49019 0.00744 0.16264 0.0
C1935 C 0.44434 0.92844 0.15731 0.0
H1936 H 0.54446 0.93706 0.1668 0.0
H1937 H 0.50732 0.95697 0.23144 0.0
H1938 H 0.49271 0.93362 0.12925 0.0
H1939 H 0.50673 0.96215 0.12685 0.0
H1940 H 0.52517 0.93615 0.12926 0.0
H1941 H 0.46556 0.96492 0.23189 0.0
H1942 H 0.46253 0.98724 0.20947 0.0
H1943 H 0.4478 0.95907 0.20528 0.0
H1944 H 0.45556 0.01985 0.13199 0.0
H1945 H 0.41763 0.95299 0.12639 0.0
H1946 H 0.50747 0.0005 0.15553 0.0
H1947 H 0.49117 0.00696 0.18246 0.0
H1948 H 0.48855 0.02618 0.1572 0.0
H1949 H 0.44959 0.92535 0.17616 0.0
H1950 H 0.45596 0.91734 0.14563 0.0
H1951 H 0.42534 0.9224 0.15468 0.0
C1952 C 0.67981 0.85384 0.94891 0.0
C1953 C 0.66747 0.87499 0.95342 0.0
C1954 C 0.68584 0.84685 0.92549 0.0
C1955 C 0.67915 0.86125 0.90615 0.0
C1956 C 0.66558 0.88193 0.91047 0.0
C1957 C 0.65997 0.8886 0.93407 0.0
C1958 C 0.70037 0.82469 0.92154 0.0
C1959 C 0.65785 0.89754 0.89024 0.0
C1960 C 0.718 0.85955 0.85033 0.0
C1961 C 0.70434 0.84465 0.83507 0.0
C1962 C 0.71 0.86502 0.87355 0.0
C1963 C 0.68771 0.85552 0.8816 0.0
C1964 C 0.67373 0.84064 0.86626 0.0
C1965 C 0.68226 0.83529 0.8432 0.0
C1966 C 0.72548 0.88085 0.88951 0.0
C1967 C 0.64976 0.8304 0.87421 0.0
H1968 H 0.68568 0.84321 0.96374 0.0
H1969 H 0.65025 0.90486 0.93738 0.0
H1970 H 0.69156 0.81297 0.90791 0.0
H1971 H 0.71852 0.82951 0.9146 0.0
H1972 H 0.70264 0.81457 0.93826 0.0
H1973 H 0.64561 0.91182 0.8964 0.0
H1974 H 0.674 0.90582 0.88192 0.0
H1975 H 0.64852 0.88682 0.87612 0.0
H1976 H 0.73511 0.86678 0.84423 0.0
H1977 H 0.67153 0.82384 0.83149 0.0
H1978 H 0.73022 0.8714 0.90607 0.0
H1979 H 0.71526 0.89682 0.89497 0.0
H1980 H 0.74243 0.88663 0.88057 0.0
H1981 H 0.65233 0.81938 0.89024 0.0
H1982 H 0.64097 0.81932 0.86 0.0
H1983 H 0.63739 0.84489 0.87939 0.0
C1984 C 0.75227 0.91736 0.05318 0.0
C1985 C 0.73816 0.93123 0.03813 0.0
C1986 C 0.77667 0.92294 0.05718 0.0
C1987 C 0.78716 0.94258 0.04554 0.0
C1988 C 0.77287 0.95694 0.03077 0.0
C1989 C 0.74848 0.95117 0.02738 0.0
C1990 C 0.79135 0.90751 0.07334 0.0
C1991 C 0.78354 0.97793 0.01785 0.0
C1992 C 0.84653 0.97257 0.0609 0.0
C1993 C 0.8611 0.96403 0.04222 0.0
C1994 C 0.82273 0.96427 0.06353 0.0
C1995 C 0.81343 0.94725 0.04698 0.0
C1996 C 0.82869 0.93712 0.02942 0.0
C1997 C 0.8524 0.94555 0.02735 0.0
C1998 C 0.80705 0.97503 0.08283 0.0
C1999 C 0.81941 0.91889 0.01145 0.0
H2000 H 0.74427 0.90207 0.06178 0.0
H2001 H 0.73765 0.96195 0.01576 0.0
H2002 H 0.80483 0.89763 0.06257 0.0
H2003 H 0.80148 0.91858 0.08662 0.0
H2004 H 0.77991 0.89452 0.08305 0.0
H2005 H 0.76973 0.98776 0.00773 0.0
H2006 H 0.79238 0.99035 0.03081 0.0
H2007 H 0.7976 0.97183 0.0051 0.0
H2008 H 0.85323 0.98662 0.07269 0.0
H2009 H 0.86367 0.93852 0.01312 0.0
H2010 H 0.79585 0.9612 0.09155 0.0
H2011 H 0.79457 0.98783 0.07469 0.0
H2012 H 0.81793 0.98455 0.09674 0.0
H2013 H 0.80926 0.90457 0.02054 0.0
H2014 H 0.83422 0.91082 0.00082 0.0
H2015 H 0.80677 0.92741 -0.00108 0.0
C2016 C 0.34184 0.5842 0.02116 0.0
C2017 C 0.32559 0.59762 0.0081 0.0
C2018 C 0.36209 0.5743 0.00998 0.0
C2019 C 0.3658 0.57756 0.98513 0.0
C2020 C 0.34874 0.59003 0.97164 0.0
C2021 C 0.32898 0.60019 0.98335 0.0
C2022 C 0.38011 0.56131 0.02501 0.0
C2023 C 0.35169 0.59324 0.94501 0.0
C2024 C 0.43182 0.57706 0.96952 0.0
C2025 C 0.4353 0.55288 0.96474 0.0
C2026 C 0.40884 0.58575 0.97457 0.0
C2027 C 0.3888 0.56997 0.97405 0.0
C2028 C 0.39175 0.54627 0.96603 0.0
C2029 C 0.4151 0.53789 0.96159 0.0
C2030 C 0.40651 0.61119 0.98301 0.0
C2031 C 0.3706 0.52922 0.96429 0.0
H2032 H 0.33917 0.58211 0.04023 0.0
H2033 H 0.31614 0.61018 0.97307 0.0
H2034 H 0.38352 0.54349 0.01719 0.0
H2035 H 0.39754 0.57122 0.02512 0.0
H2036 H 0.37392 0.55921 0.04377 0.0
H2037 H 0.33517 0.6004 0.93665 0.0
H2038 H 0.36691 0.60569 0.94158 0.0
H2039 H 0.35608 0.57613 0.93609 0.0
H2040 H 0.44733 0.58886 0.97148 0.0
H2041 H 0.41759 0.51923 0.95758 0.0
H2042 H 0.40249 0.61162 0.00247 0.0
H2043 H 0.39137 0.61987 0.97379 0.0
H2044 H 0.42329 0.62171 0.97992 0.0
H2045 H 0.36574 0.52312 0.98246 0.0
H2046 H 0.37491 0.51341 0.95305 0.0
H2047 H 0.35455 0.53795 0.95671 0.0
C2048 C 0.15327 0.51384 0.73046 0.0
C2049 C 0.12863 0.51887 0.72848 0.0
C2050 C 0.1709 0.53151 0.72713 0.0
C2051 C 0.16365 0.55486 0.72226 0.0
C2052 C 0.13882 0.55995 0.71975 0.0
C2053 C 0.12158 0.5418 0.72264 0.0
C2054 C 0.19722 0.52534 0.72952 0.0
C2055 C 0.1304 0.58477 0.71503 0.0
C2056 C 0.20318 0.60523 0.74513 0.0
C2057 C 0.21323 0.61409 0.72394 0.0
C2058 C 0.18737 0.58576 0.74475 0.0
C2059 C 0.18173 0.57446 0.72268 0.0
C2060 C 0.19267 0.58245 0.7013 0.0
C2061 C 0.20823 0.60235 0.70214 0.0
C2062 C 0.17598 0.57789 0.76795 0.0
C2063 C 0.18741 0.5704 0.67753 0.0
H2064 H 0.15884 0.49601 0.73449 0.0
H2065 H 0.10255 0.5457 0.72097 0.0
H2066 H 0.20768 0.53226 0.71414 0.0
H2067 H 0.20478 0.53381 0.74599 0.0
H2068 H 0.19994 0.50592 0.73049 0.0
H2069 H 0.1106 0.58547 0.71201 0.0
H2070 H 0.13504 0.59649 0.73055 0.0
H2071 H 0.13976 0.59203 0.69916 0.0
H2072 H 0.207 0.614 0.76215 0.0
H2073 H 0.21596 0.60902 0.68572 0.0
H2074 H 0.17983 0.55896 0.77103 0.0
H2075 H 0.15608 0.57961 0.7669 0.0
H2076 H 0.18259 0.58844 0.78365 0.0
H2077 H 0.19011 0.55102 0.6788 0.0
H2078 H 0.19904 0.57735 0.66297 0.0
H2079 H 0.16826 0.57308 0.6726 0.0
C2080 C 0.13671 0.39243 0.52571 0.0
C2081 C 0.14657 0.37393 0.5121 0.0
C2082 C 0.11363 0.4009 0.52065 0.0
C2083 C 0.10046 0.39106 0.50106 0.0
C2084 C 0.10993 0.37171 0.48786 0.0
C2085 C 0.13281 0.36317 0.49374 0.0
C2086 C 0.10382 0.42109 0.53561 0.0
C2087 C 0.09661 0.36102 0.46664 0.0
C2088 C 0.03458 0.40792 0.49861 0.0
C2089 C 0.03588 0.42888 0.48547 0.0
C2090 C 0.05531 0.39468 0.50298 0.0
C2091 C 0.0777 0.40232 0.49346 0.0
C2092 C 0.07871 0.42232 0.47849 0.0
C2093 C 0.05782 0.43557 0.47493 0.0
C2094 C 0.05353 0.37372 0.51935 0.0
C2095 C 0.10216 0.4306 0.46745 0.0
H2096 H 0.14735 0.40071 0.53992 0.0
H2097 H 0.14051 0.349 0.48299 0.0
H2098 H 0.10314 0.43732 0.52472 0.0
H2099 H 0.08512 0.41696 0.54149 0.0
H2100 H 0.1151 0.42493 0.55169 0.0
H2101 H 0.10523 0.34458 0.45981 0.0
H2102 H 0.0776 0.35689 0.47138 0.0
H2103 H 0.09628 0.37403 0.45197 0.0
H2104 H 0.01772 0.40275 0.50702 0.0
H2105 H 0.05885 0.45168 0.46468 0.0
H2106 H 0.06183 0.37851 0.53687 0.0
H2107 H 0.06357 0.35843 0.51187 0.0
H2108 H 0.0345 0.36811 0.5225 0.0
H2109 H 0.11423 0.43799 0.48164 0.0
H2110 H 0.09934 0.44449 0.45391 0.0
H2111 H 0.1116 0.41551 0.4588 0.0
C2112 C 0.8106 0.01181 0.71148 0.0
C2113 C 0.83342 0.00372 0.7044 0.0
C2114 C 0.79076 -0.00389 0.71256 0.0
C2115 C 0.79404 0.97187 0.70679 0.0
C2116 C 0.81621 0.96435 0.69684 0.0
C2117 C 0.83558 0.98044 0.69558 0.0
C2118 C 0.76701 0.005 0.72209 0.0
C2119 C 0.82043 0.93872 0.6901 0.0
C2120 C 0.76837 0.92429 0.74612 0.0
C2121 C 0.75291 0.91196 0.73027 0.0
C2122 C 0.78059 0.94487 0.73915 0.0
C2123 C 0.77692 0.95367 0.71587 0.0
C2124 C 0.75955 0.9427 0.70061 0.0
C2125 C 0.74787 0.92176 0.70791 0.0
C2126 C 0.79893 0.95602 0.7561 0.0
C2127 C 0.75441 0.95204 0.67602 0.0
H2128 H 0.80859 0.02992 0.71783 0.0
H2129 H 0.85296 0.97419 0.68943 0.0
H2130 H 0.75159 -0.00406 0.71294 0.0
H2131 H 0.76567 0.0012 0.74146 0.0
H2132 H 0.76541 0.02443 0.71985 0.0
H2133 H 0.83758 0.93632 0.68009 0.0
H2134 H 0.82121 0.92805 0.70659 0.0
H2135 H 0.80536 0.93158 0.67898 0.0
H2136 H 0.77211 0.91713 0.7636 0.0
H2137 H 0.73566 0.91258 0.69565 0.0
H2138 H 0.79563 0.97525 0.75834 0.0
H2139 H 0.81734 0.95399 0.74854 0.0
H2140 H 0.79853 0.94785 0.77405 0.0
H2141 H 0.756 0.97164 0.6757 0.0
H2142 H 0.73606 0.94662 0.66982 0.0
H2143 H 0.76767 0.94468 0.66311 0.0
C2144 C 0.74292 0.0608 0.55924 0.0
C2145 C 0.73624 0.0847 0.55975 0.0
C2146 C 0.72538 0.04267 0.55884 0.0
C2147 C 0.70071 0.04871 0.5591 0.0
C2148 C 0.69395 0.07275 0.5615 0.0
C2149 C 0.71184 0.09048 0.56168 0.0
C2150 C 0.73326 0.01726 0.55637 0.0
C2151 C 0.66776 0.07986 0.56223 0.0
C2152 C 0.65238 0.01606 0.52447 0.0
C2153 C 0.6384 0.00675 0.543 0.0
C2154 C 0.67421 0.02782 0.52935 0.0
C2155 C 0.68188 0.03064 0.5534 0.0
C2156 C 0.66902 0.01923 0.57193 0.0
C2157 C 0.64734 0.00719 0.56645 0.0
C2158 C 0.68774 0.03925 0.50899 0.0
C2159 C 0.67678 0.0217 0.59774 0.0
H2160 H 0.76183 0.05622 0.55796 0.0
H2161 H 0.70664 0.10892 0.56245 0.0
H2162 H 0.72215 0.00553 0.56784 0.0
H2163 H 0.73071 0.01113 0.53756 0.0
H2164 H 0.75258 0.01521 0.56113 0.0
H2165 H 0.66563 0.09894 0.56682 0.0
H2166 H 0.65936 0.07634 0.54447 0.0
H2167 H 0.65768 0.06922 0.57553 0.0
H2168 H 0.64546 0.01545 0.50631 0.0
H2169 H 0.63639 1e-05 0.58077 0.0
H2170 H 0.70737 0.03598 0.51044 0.0
H2171 H 0.68516 0.05871 0.50986 0.0
H2172 H 0.68133 0.03259 0.49124 0.0
H2173 H 0.69668 0.02056 0.59945 0.0
H2174 H 0.6682 0.00792 0.60901 0.0
H2175 H 0.67138 0.03933 0.60481 0.0
C2176 C 0.16576 0.39618 0.78552 0.0
C2177 C 0.14263 0.38998 0.77709 0.0
C2178 C 0.18341 0.3789 0.7885 0.0
C2179 C 0.17781 0.35501 0.78255 0.0
C2180 C 0.15383 0.34841 0.77633 0.0
C2181 C 0.13646 0.36601 0.77378 0.0
C2182 C 0.20858 0.38652 0.7959 0.0
C2183 C 0.14706 0.32308 0.76997 0.0
C2184 C 0.22293 0.31815 0.74859 0.0
C2185 C 0.22858 0.30076 0.76521 0.0
C2186 C 0.20747 0.33667 0.75456 0.0
C2187 C 0.19751 0.33799 0.77786 0.0
C2188 C 0.20467 0.32164 0.79537 0.0
C2189 C 0.22015 0.30308 0.7888 0.0
C2190 C 0.20054 0.35386 0.73535 0.0
C2191 C 0.19484 0.32281 0.82053 0.0
H2192 H 0.17052 0.41468 0.78856 0.0
H2193 H 0.11852 0.36107 0.76757 0.0
H2194 H 0.21662 0.37349 0.80812 0.0
H2195 H 0.22024 0.38752 0.7798 0.0
H2196 H 0.20871 0.40422 0.80489 0.0
H2197 H 0.12719 0.32039 0.76873 0.0
H2198 H 0.15514 0.31823 0.75241 0.0
H2199 H 0.15428 0.31083 0.78342 0.0
H2200 H 0.22974 0.3167 0.73043 0.0
H2201 H 0.22453 0.28972 0.80176 0.0
H2202 H 0.2035 0.37237 0.74175 0.0
H2203 H 0.18105 0.35167 0.73111 0.0
H2204 H 0.211 0.35117 0.71858 0.0
H2205 H 0.19378 0.34141 0.82712 0.0
H2206 H 0.2061 0.31263 0.8331 0.0
H2207 H 0.17629 0.31516 0.82072 0.0
C2208 C 0.39154 0.63197 0.30065 0.0
C2209 C 0.37705 0.61144 0.29896 0.0
C2210 C 0.38148 0.65389 0.30664 0.0
C2211 C 0.35647 0.6551 0.31165 0.0
C2212 C 0.34267 0.63393 0.31357 0.0
C2213 C 0.35304 0.61227 0.30682 0.0
C2214 C 0.39693 0.67597 0.30425 0.0
C2215 C 0.31625 0.63441 0.32007 0.0
C2216 C 0.33229 0.71723 0.32237 0.0
C2217 C 0.32412 0.72255 0.29935 0.0
C2218 C 0.3419 0.69484 0.32717 0.0
C2219 C 0.34404 0.67793 0.30829 0.0
C2220 C 0.33565 0.68334 0.28509 0.0
C2221 C 0.32548 0.70539 0.28105 0.0
C2222 C 0.34961 0.68923 0.35232 0.0
C2223 C 0.33814 0.66615 0.26418 0.0
H2224 H 0.41026 0.6314 0.29503 0.0
H2225 H 0.34189 0.59635 0.30612 0.0
H2226 H 0.39281 0.68443 0.28695 0.0
H2227 H 0.39303 0.68902 0.31872 0.0
H2228 H 0.4165 0.67194 0.30459 0.0
H2229 H 0.30989 0.61699 0.32677 0.0
H2230 H 0.31272 0.64826 0.3339 0.0
H2231 H 0.3055 0.63861 0.30397 0.0
H2232 H 0.33097 0.73046 0.33657 0.0
H2233 H 0.31938 0.70955 0.26318 0.0
H2234 H 0.36846 0.68288 0.35253 0.0
H2235 H 0.33802 0.67471 0.35927 0.0
H2236 H 0.34821 0.70481 0.36463 0.0
H2237 H 0.35738 0.66148 0.26165 0.0
H2238 H 0.33132 0.67349 0.24718 0.0
H2239 H 0.32797 0.64955 0.2678 0.0
C2240 C 0.5294 0.66476 0.53 0.0
C2241 C 0.53539 0.65881 0.55355 0.0
C2242 C 0.52508 0.64713 0.51254 0.0
C2243 C 0.52655 0.62311 0.51899 0.0
C2244 C 0.535 0.6171 0.54203 0.0
C2245 C 0.5395 0.6351 0.55903 0.0
C2246 C 0.51672 0.65427 0.48802 0.0
C2247 C 0.53673 0.59163 0.54972 0.0
C2248 C 0.48305 0.57565 0.49809 0.0
C2249 C 0.49861 0.56056 0.48551 0.0
C2250 C 0.49139 0.59748 0.5072 0.0
C2251 C 0.51577 0.6043 0.50346 0.0
C2252 C 0.53054 0.59067 0.4881 0.0
C2253 C 0.52172 0.5689 0.47914 0.0
C2254 C 0.47486 0.61192 0.52304 0.0
C2255 C 0.55644 0.59775 0.48329 0.0
H2256 H 0.5266 0.68314 0.52556 0.0
H2257 H 0.54424 0.6304 0.57715 0.0
H2258 H 0.52344 0.642 0.4739 0.0
H2259 H 0.4967 0.65368 0.48744 0.0
H2260 H 0.52275 0.67258 0.48384 0.0
H2261 H 0.54815 0.5899 0.56593 0.0
H2262 H 0.51837 0.58476 0.55392 0.0
H2263 H 0.54421 0.58028 0.53522 0.0
H2264 H 0.465 0.56955 0.50261 0.0
H2265 H 0.53378 0.55753 0.46905 0.0
H2266 H 0.47587 0.63091 0.51833 0.0
H2267 H 0.48066 0.61046 0.54197 0.0
H2268 H 0.45575 0.6058 0.52164 0.0
H2269 H 0.55787 0.61688 0.47922 0.0
H2270 H 0.56428 0.58735 0.4682 0.0
H2271 H 0.56742 0.59473 0.49953 0.0
C2272 C 0.59763 0.23074 0.89455 0.0
C2273 C 0.57758 0.22174 0.88192 0.0
C2274 C 0.61911 0.23649 0.88246 0.0
C2275 C 0.6203 0.23327 0.85727 0.0
C2276 C 0.60085 0.22223 0.84488 0.0
C2277 C 0.57979 0.21643 0.85741 0.0
C2278 C 0.63977 0.24772 0.89633 0.0
C2279 C 0.60135 0.2185 0.81804 0.0
C2280 C 0.65674 0.27852 0.82281 0.0
C2281 C 0.67722 0.26562 0.81633 0.0
C2282 C 0.63811 0.2681 0.83609 0.0
C2283 C 0.64022 0.24433 0.84345 0.0
C2284 C 0.66081 0.23116 0.83694 0.0
C2285 C 0.679 0.24191 0.82322 0.0
C2286 C 0.61615 0.28257 0.84228 0.0
C2287 C 0.66379 0.20591 0.84479 0.0
H2288 H 0.59607 0.23471 0.91353 0.0
H2289 H 0.56443 0.20913 0.84762 0.0
H2290 H 0.65723 0.2401 0.89056 0.0
H2291 H 0.64056 0.26698 0.89276 0.0
H2292 H 0.63769 0.24534 0.91593 0.0
H2293 H 0.58617 0.20702 0.81161 0.0
H2294 H 0.60008 0.2359 0.8092 0.0
H2295 H 0.61858 0.21041 0.81228 0.0
H2296 H 0.65531 0.29683 0.81751 0.0
H2297 H 0.69497 0.23197 0.81855 0.0
H2298 H 0.61417 0.28409 0.862 0.0
H2299 H 0.59963 0.27358 0.83523 0.0
H2300 H 0.61718 0.30069 0.83488 0.0
H2301 H 0.66359 0.20523 0.86463 0.0
H2302 H 0.6809 0.19811 0.83818 0.0
H2303 H 0.64847 0.19476 0.83822 0.0
C2304 C 0.98633 0.34739 0.09395 0.0
C2305 C 0.98955 0.32698 0.07976 0.0
C2306 C 0.98731 0.36999 0.0838 0.0
C2307 C -0.0079 0.37214 0.05901 0.0
C2308 C -0.00523 0.35156 0.04453 0.0
C2309 C -0.00679 0.32924 0.05504 0.0
C2310 C 0.98378 0.39158 0.09967 0.0
C2311 C 0.00015 0.35313 0.01809 0.0
C2312 C 0.97705 0.42903 0.02756 0.0
C2313 C -0.00058 0.44106 0.02771 0.0
C2314 C 0.97438 0.40672 0.0379 0.0
C2315 C -0.00533 0.39589 0.04818 0.0
C2316 C 0.01746 0.4076 0.04784 0.0
C2317 C 0.01951 0.4302 0.03783 0.0
C2318 C 0.94971 0.39498 0.0383 0.0
C2319 C 0.03961 0.39634 0.05821 0.0
H2320 H 0.98351 0.34574 0.11305 0.0
H2321 H -0.0041 0.31356 0.04395 0.0
H2322 H 0.00068 0.40234 0.10032 0.0
H2323 H 0.9695 0.40289 0.0922 0.0
H2324 H 0.97872 0.38684 0.11824 0.0
H2325 H 0.00133 0.33541 0.00927 0.0
H2326 H 0.98594 0.36332 0.00901 0.0
H2327 H 0.01752 0.36276 0.01542 0.0
H2328 H 0.96132 0.43742 0.0201 0.0
H2329 H 0.0368 0.43943 0.03804 0.0
H2330 H 0.94423 0.39163 0.05705 0.0
H2331 H 0.95025 0.37757 0.02885 0.0
H2332 H 0.93569 0.40593 0.02977 0.0
H2333 H 0.03693 0.39332 0.0776 0.0
H2334 H 0.05612 0.40744 0.05586 0.0
H2335 H 0.04255 0.37879 0.04954 0.0
C2336 C 0.93719 0.75851 0.28644 0.0
C2337 C 0.94831 0.73983 0.29831 0.0
C2338 C 0.91242 0.75775 0.28119 0.0
C2339 C 0.89845 0.73774 0.28778 0.0
C2340 C 0.90965 0.71851 0.2991 0.0
C2341 C 0.93442 0.71982 0.30431 0.0
C2342 C 0.90109 0.77861 0.26915 0.0
C2343 C 0.89537 0.69674 0.30612 0.0
C2344 C 0.83074 0.74342 0.2966 0.0
C2345 C 0.82174 0.73353 0.27514 0.0
C2346 C 0.8557 0.74532 0.30076 0.0
C2347 C 0.87202 0.737 0.28312 0.0
C2348 C 0.86309 0.72747 0.26124 0.0
C2349 C 0.83809 0.72593 0.25748 0.0
C2350 C 0.86461 0.75583 0.32423 0.0
C2351 C 0.87993 0.71833 0.24204 0.0
H2352 H 0.9477 0.7741 0.28179 0.0
H2353 H 0.94283 0.70528 0.31342 0.0
H2354 H 0.89174 0.7727 0.2525 0.0
H2355 H 0.88727 0.78654 0.28111 0.0
H2356 H 0.91458 0.79256 0.2646 0.0
H2357 H 0.90694 0.68297 0.31401 0.0
H2358 H 0.88131 0.70167 0.31936 0.0
H2359 H 0.88597 0.68897 0.29025 0.0
H2360 H 0.81829 0.74939 0.31032 0.0
H2361 H 0.83139 0.71822 0.24084 0.0
H2362 H 0.87735 0.77074 0.32089 0.0
H2363 H 0.87462 0.74229 0.33425 0.0
H2364 H 0.84963 0.76239 0.33566 0.0
H2365 H 0.893 0.73242 0.23693 0.0
H2366 H 0.87011 0.71211 0.22573 0.0
H2367 H 0.89052 0.70341 0.24902 0.0
C2368 C 0.49041 0.31789 0.94268 0.0
C2369 C 0.511 0.31487 0.92838 0.0
C2370 C 0.48554 0.3398 0.95373 0.0
C2371 C 0.50191 0.35896 0.95073 0.0
C2372 C 0.52316 0.35578 0.93702 0.0
C2373 C 0.52733 0.33382 0.9258 0.0
C2374 C 0.46253 0.34265 0.96791 0.0
C2375 C 0.54127 0.37571 0.93382 0.0
C2376 C 0.48208 0.42278 0.9557 0.0
C2377 C 0.4908 0.4294 0.97842 0.0
C2378 C 0.48453 0.39953 0.94694 0.0
C2379 C 0.49644 0.38268 0.96106 0.0
C2380 C 0.50445 0.38901 0.98437 0.0
C2381 C 0.50132 0.41228 -0.00712 0.0
C2382 C 0.47526 0.39326 0.92218 0.0
C2383 C 0.51753 0.37162 -0.00019 0.0
H2384 H 0.47762 0.30333 0.94461 0.0
H2385 H 0.54335 0.33152 0.9149 0.0
H2386 H 0.46662 0.34952 0.98619 0.0
H2387 H 0.45088 0.35582 0.95919 0.0
H2388 H 0.45221 0.32573 0.96938 0.0
H2389 H 0.5576 0.3699 0.9239 0.0
H2390 H 0.53285 0.39029 0.92386 0.0
H2391 H 0.54694 0.38305 0.95153 0.0
H2392 H 0.47381 0.43593 0.94453 0.0
H2393 H 0.50828 0.41736 0.01039 0.0
H2394 H 0.46395 0.37691 0.92265 0.0
H2395 H 0.4907 0.38967 0.91007 0.0
H2396 H 0.46443 0.40769 0.91448 0.0
H2397 H 0.50696 0.35487 0.00115 0.0
H2398 H 0.52097 0.37877 0.01816 0.0
H2399 H 0.53511 0.3672 0.99144 0.0
C2400 C 0.96243 0.2032 0.18824 0.0
C2401 C 0.96133 0.22266 0.17292 0.0
C2402 C 0.94185 0.19499 0.20034 0.0
C2403 C 0.91964 0.20655 0.19717 0.0
C2404 C 0.91858 0.22679 0.18256 0.0
C2405 C 0.93944 0.2346 0.1706 0.0
C2406 C 0.94371 0.1734 0.21581 0.0
C2407 C 0.89521 0.23974 0.17895 0.0
C2408 C 0.86002 0.17375 0.20544 0.0
C2409 C 0.85223 0.18296 0.22757 0.0
C2410 C 0.88237 0.18061 0.19573 0.0
C2411 C 0.89727 0.19707 0.20844 0.0
C2412 C 0.89018 0.20535 0.23137 0.0
C2413 C 0.86781 0.19814 0.24069 0.0
C2414 C 0.88949 0.17115 0.17133 0.0
C2415 C 0.90562 0.22283 0.24552 0.0
H2416 H 0.97924 0.19384 0.19024 0.0
H2417 H 0.93838 0.24962 0.15883 0.0
H2418 H 0.93641 0.17721 0.23393 0.0
H2419 H 0.93268 0.1587 0.20792 0.0
H2420 H 0.96261 0.16734 0.21761 0.0
H2421 H 0.89767 0.25585 0.16802 0.0
H2422 H 0.88189 0.22781 0.16986 0.0
H2423 H 0.8874 0.245 0.1965 0.0
H2424 H 0.84819 0.16201 0.19515 0.0
H2425 H 0.86207 0.20532 0.25785 0.0
H2426 H 0.90796 0.16381 0.1719 0.0
H2427 H 0.88978 0.1858 0.15834 0.0
H2428 H 0.87685 0.15711 0.16462 0.0
H2429 H 0.92442 0.21646 0.2468 0.0
H2430 H 0.89856 0.22594 0.2639 0.0
H2431 H 0.90629 0.24001 0.23616 0.0
C2432 C 0.01809 0.66263 0.41331 0.0
C2433 C 0.01215 0.66118 0.38892 0.0
C2434 C 0.01611 0.64272 0.42791 0.0
C2435 C 0.00808 0.62085 0.41782 0.0
C2436 C 0.00259 0.61914 0.3931 0.0
C2437 C 0.00463 0.63935 0.37895 0.0
C2438 C 0.02199 0.64523 0.45423 0.0
C2439 C -0.00598 0.59608 0.38171 0.0
C2440 C 0.01683 0.56349 0.45131 0.0
C2441 C -0.0063 0.55973 0.46084 0.0
C2442 C 0.02198 0.58353 0.43751 0.0
C2443 C 0.00361 0.6002 0.43341 0.0
C2444 C 0.98048 0.59682 0.44359 0.0
C2445 C 0.9758 0.57663 0.4571 0.0
C2446 C 0.04683 0.58658 0.42683 0.0
C2447 C 0.96047 0.61431 0.43983 0.0
H2448 H 0.02401 0.67943 0.42112 0.0
H2449 H 0.00019 0.63806 0.36008 0.0
H2450 H 0.00543 0.64211 0.46496 0.0
H2451 H 0.03527 0.63172 0.45944 0.0
H2452 H 0.02942 0.66307 0.45897 0.0
H2453 H -0.008 0.59734 0.36199 0.0
H2454 H 0.00688 0.58177 0.38562 0.0
H2455 H 0.97631 0.59083 0.38941 0.0
H2456 H 0.03073 0.55048 0.45409 0.0
H2457 H 0.95793 0.57401 0.46459 0.0
H2458 H 0.05457 0.60415 0.432 0.0
H2459 H 0.04559 0.58596 0.40701 0.0
H2460 H 0.05942 0.57263 0.43262 0.0
H2461 H 0.96646 0.63233 0.44563 0.0
H2462 H 0.9438 0.60956 0.44982 0.0
H2463 H 0.95598 0.61508 0.42051 0.0
C2464 C 0.58914 0.7593 0.63662 0.0
C2465 C 0.56428 0.75853 0.64098 0.0
C2466 C 0.60463 0.77249 0.65173 0.0
C2467 C 0.5948 0.78573 0.6711 0.0
C2468 C 0.56957 0.78583 0.67486 0.0
C2469 C 0.55462 0.77189 0.65995 0.0
C2470 C 0.63155 0.77154 0.64751 0.0
C2471 C 0.55845 0.80024 0.69492 0.0
C2472 C 0.63679 0.79524 0.7236 0.0
C2473 C 0.6475 0.81722 0.71832 0.0
C2474 C 0.61903 0.78513 0.70874 0.0
C2475 C 0.61114 0.7977 0.68859 0.0
C2476 C 0.6202 0.82081 0.68437 0.0
C2477 C 0.63856 0.83023 0.69916 0.0
C2478 C 0.61015 0.76022 0.71359 0.0
C2479 C 0.61157 0.835 0.66345 0.0
H2480 H 0.59654 0.74898 0.62189 0.0
H2481 H 0.53529 0.77158 0.66304 0.0
H2482 H 0.63912 0.78968 0.64553 0.0
H2483 H 0.64051 0.76364 0.66319 0.0
H2484 H 0.63617 0.7609 0.63129 0.0
H2485 H 0.53843 0.80035 0.69384 0.0
H2486 H 0.56368 0.79287 0.71242 0.0
H2487 H 0.5653 0.81879 0.69453 0.0
H2488 H 0.64355 0.78499 0.73834 0.0
H2489 H 0.64666 0.84727 0.69504 0.0
H2490 H 0.61605 0.74815 0.6989 0.0
H2491 H 0.59015 0.75952 0.71408 0.0
H2492 H 0.61714 0.75341 0.73076 0.0
H2493 H 0.61885 0.82733 0.64658 0.0
H2494 H 0.61751 0.85385 0.66485 0.0
H2495 H 0.59158 0.83424 0.6622 0.0
C2496 C 0.56536 0.54665 0.64984 0.0
C2497 C 0.55973 0.54602 0.67426 0.0
C2498 C 0.54957 0.53669 0.63269 0.0
C2499 C 0.52789 0.52547 0.64023 0.0
C2500 C 0.52166 0.52564 0.66477 0.0
C2501 C 0.53761 0.53605 0.6815 0.0
C2502 C 0.55639 0.53758 0.60655 0.0
C2503 C 0.49863 0.51402 0.67342 0.0
C2504 C 0.48397 0.51251 0.58965 0.0
C2505 C 0.49099 0.48966 0.58242 0.0
C2506 C 0.49469 0.52396 0.60951 0.0
C2507 C 0.51275 0.51221 0.62247 0.0
C2508 C 0.51821 0.48836 0.61668 0.0
C2509 C 0.50719 0.47733 0.59676 0.0
C2510 C 0.48813 0.54929 0.61526 0.0
C2511 C 0.53725 0.47515 0.63022 0.0
H2512 H 0.58229 0.55458 0.64415 0.0
H2513 H 0.53313 0.53555 0.70037 0.0
H2514 H 0.55829 0.51933 0.59921 0.0
H2515 H 0.54191 0.54614 0.59622 0.0
H2516 H 0.57355 0.54752 0.60362 0.0
H2517 H 0.49535 0.51758 0.69276 0.0
H2518 H 0.48295 0.52034 0.66308 0.0
H2519 H 0.4996 0.49458 0.67047 0.0
H2520 H 0.4713 0.52216 0.57885 0.0
H2521 H 0.51265 0.45964 0.59147 0.0
H2522 H 0.50244 0.56131 0.60835 0.0
H2523 H 0.48687 0.55239 0.63487 0.0
H2524 H 0.47073 0.55415 0.6069 0.0
H2525 H 0.55532 0.48276 0.62606 0.0
H2526 H 0.53726 0.45598 0.62544 0.0
H2527 H 0.53443 0.47713 0.64981 0.0
C2528 C 0.7553 0.36677 0.98035 0.0
C2529 C 0.74746 0.38981 0.98556 0.0
C2530 C 0.75938 0.35921 0.95673 0.0
C2531 C 0.75594 0.37521 0.93786 0.0
C2532 C 0.74893 0.39878 0.94302 0.0
C2533 C 0.74451 0.40575 0.96685 0.0
C2534 C 0.76632 0.33378 0.95193 0.0
C2535 C 0.74546 0.4164 0.92334 0.0
C2536 C 0.77994 0.35582 0.87691 0.0
C2537 C 0.7589 0.34666 0.86611 0.0
C2538 C 0.77921 0.36597 0.90006 0.0
C2539 C 0.75704 0.3664 0.91272 0.0
C2540 C 0.73581 0.35717 0.90184 0.0
C2541 C 0.73697 0.34763 0.87864 0.0
C2542 C 0.80209 0.37606 0.91105 0.0
C2543 C 0.7119 0.35682 0.91491 0.0
H2544 H 0.7576 0.35435 -0.00527 0.0
H2545 H 0.73877 0.42367 0.97082 0.0
H2546 H 0.75161 0.32449 0.94191 0.0
H2547 H 0.78276 0.33302 0.94063 0.0
H2548 H 0.76974 0.32404 0.96867 0.0
H2549 H 0.7427 0.43464 0.93048 0.0
H2550 H 0.76136 0.41653 0.91125 0.0
H2551 H 0.72951 0.41114 0.91239 0.0
H2552 H 0.79688 0.35524 0.86722 0.0
H2553 H 0.72064 0.3404 0.8705 0.0
H2554 H 0.80703 0.36575 0.92701 0.0
H2555 H 0.79921 0.3946 0.91719 0.0
H2556 H 0.81748 0.37576 0.89829 0.0
H2557 H 0.71342 0.3462 0.93136 0.0
H2558 H 0.69703 0.34919 0.90374 0.0
H2559 H 0.70695 0.37504 0.92054 0.0
C2560 C 0.93579 0.49138 0.19284 0.0
C2561 C 0.91733 0.47722 0.18269 0.0
C2562 C 0.95171 0.50431 0.17841 0.0
C2563 C 0.94941 0.50251 0.15326 0.0
C2564 C 0.9311 0.48783 0.1429 0.0
C2565 C 0.91503 0.47559 0.15779 0.0
C2566 C 0.97068 0.52015 0.19002 0.0
C2567 C 0.92859 0.48494 0.11607 0.0
C2568 C 0.97122 0.547 0.10837 0.0
C2569 C 0.99048 0.53467 0.09792 0.0
C2570 C 0.9589 0.5378 0.12814 0.0
C2571 C 0.96605 0.51584 0.1375 0.0
C2572 C 0.98734 0.505 0.12904 0.0
C2573 C -0.00046 0.51477 0.10952 0.0
C2574 C 0.93667 0.55025 0.13722 0.0
C2575 C -0.00434 0.48161 0.13859 0.0
H2576 H 0.93741 0.49286 0.21215 0.0
H2577 H 0.90081 0.46458 0.14997 0.0
H2578 H 0.98892 0.51513 0.18371 0.0
H2579 H 0.96785 0.53877 0.18476 0.0
H2580 H 0.97027 0.51927 0.20987 0.0
H2581 H 0.91338 0.47288 0.11092 0.0
H2582 H 0.9257 0.5024 0.10783 0.0
H2583 H 0.9455 0.47771 0.10842 0.0
H2584 H 0.96433 0.56263 0.09984 0.0
H2585 H 0.01471 0.50535 0.10191 0.0
H2586 H 0.93579 0.54992 0.15705 0.0
H2587 H 0.92034 0.54092 0.13018 0.0
H2588 H 0.93619 0.56895 0.13139 0.0
H2589 H -0.0056 0.4813 0.15838 0.0
H2590 H 0.01454 0.47775 0.13323 0.0
H2591 H 0.98378 0.46719 0.13139 0.0
C2592 C 0.6991 0.66064 0.46008 0.0
C2593 C 0.71507 0.64341 0.46811 0.0
C2594 C 0.69852 0.66709 0.43597 0.0
C2595 C 0.71444 0.65618 0.41949 0.0
C2596 C 0.73017 0.63831 0.42732 0.0
C2597 C 0.73024 0.63207 0.45156 0.0
C2598 C 0.68139 0.68612 0.4283 0.0
C2599 C 0.74751 0.62638 0.41027 0.0
C2600 C 0.70319 0.66365 0.35281 0.0
C2601 C 0.71891 0.68257 0.34761 0.0
C2602 C 0.70153 0.65475 0.37613 0.0
C2603 C 0.71603 0.66494 0.39458 0.0
C2604 C 0.73189 0.68402 0.38943 0.0
C2605 C 0.73308 0.69263 0.3661 0.0
C2606 C 0.68428 0.63449 0.38106 0.0
C2607 C 0.74771 0.69536 0.40858 0.0
H2608 H 0.68715 0.66934 0.47272 0.0
H2609 H 0.74257 0.61869 0.45764 0.0
H2610 H 0.69183 0.70199 0.4227 0.0
H2611 H 0.67059 0.67988 0.41265 0.0
H2612 H 0.66885 0.69147 0.44287 0.0
H2613 H 0.7573 0.61168 0.41877 0.0
H2614 H 0.7377 0.61927 0.39435 0.0
H2615 H 0.76095 0.63956 0.40384 0.0
H2616 H 0.6922 0.65573 0.33868 0.0
H2617 H 0.74538 0.70719 0.36235 0.0
H2618 H 0.67101 0.63994 0.3949 0.0
H2619 H 0.6943 0.61929 0.38823 0.0
H2620 H 0.67431 0.62849 0.36476 0.0
H2621 H 0.73633 0.7028 0.42313 0.0
H2622 H 0.75939 0.70979 0.40153 0.0
H2623 H 0.7594 0.68183 0.41664 0.0
C2624 C 0.59955 0.55275 0.82121 0.0
C2625 C 0.58575 0.57035 0.81048 0.0
C2626 C 0.59593 0.54675 0.8452 0.0
C2627 C 0.57806 0.55861 0.85873 0.0
C2628 C 0.5652 0.57743 0.84849 0.0
C2629 C 0.5692 0.58308 0.82447 0.0
C2630 C 0.61011 0.5267 0.85556 0.0
C2631 C 0.54606 0.59056 0.86241 0.0
C2632 C 0.54276 0.52435 0.90479 0.0
C2633 C 0.55204 0.53368 0.92637 0.0
C2634 C 0.55163 0.53188 0.88273 0.0
C2635 C 0.5703 0.5492 0.88216 0.0
C2636 C 0.58045 0.55808 0.90382 0.0
C2637 C 0.5712 0.55017 0.92576 0.0
C2638 C 0.54044 0.5218 0.86001 0.0
C2639 C 0.60046 0.57649 0.90382 0.0
H2640 H 0.6126 0.54299 0.81063 0.0
H2641 H 0.55865 0.59688 0.81643 0.0
H2642 H 0.61689 0.53153 0.87369 0.0
H2643 H 0.59813 0.51092 0.85737 0.0
H2644 H 0.62568 0.52174 0.84407 0.0
H2645 H 0.53981 0.60649 0.85292 0.0
H2646 H 0.53028 0.57862 0.86527 0.0
H2647 H 0.55298 0.59611 0.8803 0.0
H2648 H 0.52815 0.51139 0.90507 0.0
H2649 H 0.57846 0.55745 0.94237 0.0
H2650 H 0.55461 0.51428 0.84821 0.0
H2651 H 0.53158 0.53613 0.85004 0.0
H2652 H 0.52677 0.50772 0.86359 0.0
H2653 H 0.6153 0.57082 0.89178 0.0
H2654 H 0.60795 0.57989 0.92202 0.0
H2655 H 0.59349 0.59336 0.89686 0.0
C2656 C 0.75754 0.29847 0.08647 0.0
C2657 C 0.76479 0.31873 0.09968 0.0
C2658 C 0.75624 0.27618 0.09715 0.0
C2659 C 0.76261 0.27409 0.1215 0.0
C2660 C 0.77173 0.29413 0.13436 0.0
C2661 C 0.7725 0.31629 0.12336 0.0
C2662 C 0.74662 0.25522 0.08279 0.0
C2663 C 0.77949 0.29242 0.16016 0.0
C2664 C 0.73168 0.23062 0.16246 0.0
C2665 C 0.75026 0.21461 0.1668 0.0
C2666 C 0.73496 0.24923 0.14647 0.0
C2667 C 0.75731 0.25183 0.13442 0.0
C2668 C 0.77523 0.23444 0.13692 0.0
C2669 C 0.77147 0.21595 0.15305 0.0
C2670 C 0.71522 0.26723 0.14403 0.0
C2671 C 0.79918 0.23639 0.12416 0.0
H2672 H 0.75163 0.30018 0.0681 0.0
H2673 H 0.77837 0.33182 0.13356 0.0
H2674 H 0.75797 0.23945 0.08548 0.0
H2675 H 0.72813 0.25067 0.08902 0.0
H2676 H 0.74581 0.25893 0.06334 0.0
H2677 H 0.78802 0.30914 0.16688 0.0
H2678 H 0.76359 0.28822 0.17147 0.0
H2679 H 0.79253 0.27786 0.16222 0.0
H2680 H 0.71513 0.22959 0.17278 0.0
H2681 H 0.78594 0.20364 0.15616 0.0
H2682 H 0.7118 0.27092 0.1249 0.0
H2683 H 0.721 0.28415 0.15283 0.0
H2684 H 0.69803 0.26125 0.15238 0.0
H2685 H 0.79672 0.24199 0.10539 0.0
H2686 H 0.80901 0.21937 0.12414 0.0
H2687 H 0.8106 0.25004 0.13334 0.0
C2688 C 0.91663 0.42873 0.32107 0.0
C2689 C 0.89424 0.43357 0.31072 0.0
C2690 C 0.92034 0.4319 0.3457 0.0
C2691 C 0.90098 0.43949 0.36034 0.0
C2692 C 0.87789 0.44286 0.35022 0.0
C2693 C 0.87487 0.4402 0.3254 0.0
C2694 C 0.94537 0.42859 0.35575 0.0
C2695 C 0.85668 0.45024 0.36544 0.0
C2696 C 0.91382 0.43605 0.4268 0.0
C2697 C 0.92145 0.45936 0.43193 0.0
C2698 C 0.90561 0.42954 0.40382 0.0
C2699 C 0.90582 0.44659 0.38554 0.0
C2700 C 0.9128 0.4703 0.39086 0.0
C2701 C 0.92022 0.47645 0.41409 0.0
C2702 C 0.89752 0.40429 0.3989 0.0
C2703 C 0.91375 0.48891 0.37174 0.0
H2704 H 0.93165 0.42363 0.30975 0.0
H2705 H 0.85744 0.44363 0.31744 0.0
H2706 H 0.95266 0.44589 0.36238 0.0
H2707 H 0.94473 0.4165 0.37118 0.0
H2708 H 0.95806 0.42129 0.34221 0.0
H2709 H 0.83932 0.44847 0.35557 0.0
H2710 H 0.8556 0.43943 0.38182 0.0
H2711 H 0.85907 0.46901 0.37125 0.0
H2712 H 0.91453 0.42287 0.44066 0.0
H2713 H 0.92623 0.49447 0.41794 0.0
H2714 H 0.91115 0.39518 0.38764 0.0
H2715 H 0.88025 0.40387 0.38884 0.0
H2716 H 0.89513 0.39419 0.41565 0.0
H2717 H 0.92714 0.48383 0.35786 0.0
H2718 H 0.91883 0.50671 0.37906 0.0
H2719 H 0.89597 0.49015 0.36276 0.0
C2720 C 0.7259 0.71095 0.58363 0.0
C2721 C 0.71551 0.69323 0.59785 0.0
C2722 C 0.73129 0.73354 0.59321 0.0
C2723 C 0.72606 0.73849 0.61753 0.0
C2724 C 0.71412 0.7212 0.63151 0.0
C2725 C 0.70912 0.69872 0.62154 0.0
C2726 C 0.74382 0.75155 0.57767 0.0
C2727 C 0.70771 0.72599 0.65742 0.0
C2728 C 0.76295 0.77882 0.65794 0.0
C2729 C 0.7463 0.79672 0.66297 0.0
C2730 C 0.7575 0.7607 0.6413 0.0
C2731 C 0.735 0.76069 0.6293 0.0
C2732 C 0.71961 0.78034 0.63193 0.0
C2733 C 0.72551 0.79827 0.6487 0.0
C2734 C 0.77465 0.74025 0.63866 0.0
C2735 C 0.69571 0.78116 0.61901 0.0
H2736 H 0.73082 0.70692 0.56525 0.0
H2737 H 0.70085 0.68524 0.63256 0.0
H2738 H 0.73633 0.76946 0.58071 0.0
H2739 H 0.76327 0.75246 0.58238 0.0
H2740 H 0.74224 0.74683 0.55835 0.0
H2741 H 0.69611 0.71173 0.66491 0.0
H2742 H 0.72447 0.72749 0.66824 0.0
H2743 H 0.69808 0.74301 0.65936 0.0
H2744 H 0.77927 0.77773 0.66855 0.0
H2745 H 0.71264 0.81219 0.65221 0.0
H2746 H 0.77683 0.73509 0.61955 0.0
H2747 H 0.76711 0.72469 0.64813 0.0
H2748 H 0.79272 0.74456 0.6463 0.0
H2749 H 0.69798 0.77644 0.5998 0.0
H2750 H 0.68735 0.7989 0.62051 0.0
H2751 H 0.6831 0.76794 0.62677 0.0
C2752 C 0.67087 0.54995 0.54894 0.0
C2753 C 0.66195 0.57312 0.54948 0.0
C2754 C 0.65577 0.53055 0.54329 0.0
C2755 C 0.63113 0.53443 0.53841 0.0
C2756 C 0.62176 0.55764 0.54018 0.0
C2757 C 0.63736 0.57677 0.5455 0.0
C2758 C 0.66653 0.50617 0.54121 0.0
C2759 C 0.59538 0.56236 0.53573 0.0
C2760 C 0.59372 0.49584 0.49651 0.0
C2761 C 0.57819 0.48447 0.51261 0.0
C2762 C 0.61231 0.51092 0.50476 0.0
C2763 C 0.61535 0.51469 0.52969 0.0
C2764 C 0.60133 0.50146 0.54601 0.0
C2765 C 0.58295 0.48633 0.53726 0.0
C2766 C 0.6273 0.52433 0.48678 0.0
C2767 C 0.60459 0.5046 0.57271 0.0
H2768 H 0.68992 0.54702 0.55194 0.0
H2769 H 0.6304 0.59463 0.54611 0.0
H2770 H 0.65483 0.49279 0.54999 0.0
H2771 H 0.66791 0.50097 0.52203 0.0
H2772 H 0.68485 0.50557 0.54924 0.0
H2773 H 0.59084 0.58126 0.53892 0.0
H2774 H 0.59065 0.55749 0.51698 0.0
H2775 H 0.58399 0.55127 0.54759 0.0
H2776 H 0.59034 0.49425 0.47743 0.0
H2777 H 0.57112 0.47749 0.54985 0.0
H2778 H 0.64672 0.5238 0.49153 0.0
H2779 H 0.6219 0.54319 0.48697 0.0
H2780 H 0.62493 0.51708 0.46831 0.0
H2781 H 0.62344 0.50063 0.57776 0.0
H2782 H 0.59222 0.49296 0.58303 0.0
H2783 H 0.60134 0.5233 0.578 0.0
C2784 C 0.18143 0.91151 0.53211 0.0
C2785 C 0.19677 0.91991 0.55036 0.0
C2786 C 0.15782 0.91973 0.53023 0.0
C2787 C 0.14927 0.9364 0.54731 0.0
C2788 C 0.16445 0.94449 0.56617 0.0
C2789 C 0.18819 0.93629 0.56735 0.0
C2790 C 0.14219 0.91093 0.50968 0.0
C2791 C 0.15568 0.9619 0.58493 0.0
C2792 C 0.09672 0.97237 0.52592 0.0
C2793 C 0.07713 0.95881 0.53412 0.0
C2794 C 0.12045 0.96584 0.53097 0.0
C2795 C 0.12453 0.94559 0.54492 0.0
C2796 C 0.1048 0.93277 0.55455 0.0
C2797 C 0.08127 0.9394 0.54881 0.0
C2798 C 0.1411 0.97974 0.52016 0.0
C2799 C 0.10852 0.91137 0.56992 0.0
H2800 H 0.18805 0.8989 0.5189 0.0
H2801 H 0.20003 0.94267 0.58157 0.0
H2802 H 0.12559 0.90226 0.51664 0.0
H2803 H 0.13646 0.92609 0.49875 0.0
H2804 H 0.15168 0.89807 0.49785 0.0
H2805 H 0.1694 0.96555 0.59906 0.0
H2806 H 0.15103 0.97885 0.57644 0.0
H2807 H 0.139 0.95496 0.59349 0.0
H2808 H 0.09355 0.98736 0.51451 0.0
H2809 H 0.0661 0.92909 0.55543 0.0
H2810 H 0.15036 0.96856 0.50655 0.0
H2811 H 0.15462 0.98468 0.53406 0.0
H2812 H 0.13494 -0.00387 0.51142 0.0
H2813 H 0.11565 0.89661 0.55877 0.0
H2814 H 0.09148 0.90527 0.57846 0.0
H2815 H 0.12202 0.9154 0.58413 0.0
C2816 C 0.35351 0.87024 0.76054 0.0
C2817 C 0.35177 0.88957 0.74529 0.0
C2818 C 0.33813 0.85055 0.75784 0.0
C2819 C 0.321 0.84993 0.73904 0.0
C2820 C 0.31882 0.86958 0.72382 0.0
C2821 C 0.3341 0.88938 0.72733 0.0
C2822 C 0.34068 0.83011 0.77474 0.0
C2823 C 0.30109 0.86927 0.70329 0.0
C2824 C 0.30645 0.7869 0.72048 0.0
C2825 C 0.28474 0.78285 0.73262 0.0
C2826 C 0.3175 0.80932 0.7209 0.0
C2827 C 0.3069 0.82785 0.73444 0.0
C2828 C 0.28437 0.82411 0.74587 0.0
C2829 C 0.27334 0.8016 0.74454 0.0
C2830 C 0.34117 0.81279 0.7079 0.0
C2831 C 0.27276 0.84336 0.76078 0.0
H2832 H 0.36694 0.87053 0.77466 0.0
H2833 H 0.33281 0.90435 0.7155 0.0
H2834 H 0.32286 0.82522 0.78241 0.0
H2835 H 0.34744 0.81437 0.7648 0.0
H2836 H 0.35336 0.8343 0.78967 0.0
H2837 H 0.30034 0.88663 0.69427 0.0
H2838 H 0.30636 0.85555 0.6899 0.0
H2839 H 0.28273 0.8645 0.70969 0.0
H2840 H 0.31499 0.7724 0.7109 0.0
H2841 H 0.25648 0.79835 0.75387 0.0
H2842 H 0.35605 0.81468 0.72111 0.0
H2843 H 0.34088 0.82925 0.69733 0.0
H2844 H 0.34525 0.79765 0.69567 0.0
H2845 H 0.28351 0.84651 0.77732 0.0
H2846 H 0.25398 0.83858 0.76599 0.0
H2847 H 0.27253 0.86025 0.75094 0.0
C2848 C 0.21246 0.05073 0.05602 0.0
C2849 C 0.21315 0.06351 0.03466 0.0
C2850 C 0.23154 0.03596 0.06233 0.0
C2851 C 0.2517 0.03405 0.04693 0.0
C2852 C 0.25139 0.04511 0.02436 0.0
C2853 C 0.23211 0.05972 0.01851 0.0
C2854 C 0.23097 0.02404 0.0863 0.0
C2855 C 0.27239 0.04325 0.00721 0.0
C2856 C 0.31588 0.03379 0.06828 0.0
C2857 C 0.32325 0.01141 0.06037 0.0
C2858 C 0.2918 0.04052 0.06628 0.0
C2859 C 0.27482 0.02452 0.05577 0.0
C2860 C 0.2817 0.001 0.05011 0.0
C2861 C 0.30603 -0.00535 0.05253 0.0
C2862 C 0.28519 0.06565 0.07302 0.0
C2863 C 0.26403 0.98331 0.0393 0.0
H2864 H 0.19769 0.05326 0.06849 0.0
H2865 H 0.23257 0.06915 0.00177 0.0
H2866 H 0.23891 0.00613 0.0851 0.0
H2867 H 0.24187 0.03469 0.09932 0.0
H2868 H 0.21228 0.02249 0.09336 0.0
H2869 H 0.2681 0.05048 0.98936 0.0
H2870 H 0.28814 0.05326 0.01466 0.0
H2871 H 0.27782 0.02452 0.00484 0.0
H2872 H 0.32932 0.04665 0.07444 0.0
H2873 H 0.31186 0.97736 0.04629 0.0
H2874 H 0.2682 0.06591 0.08351 0.0
H2875 H 0.28218 0.07588 0.05651 0.0
H2876 H 0.29959 0.07476 0.08367 0.0
H2877 H 0.24584 0.98518 0.04736 0.0
H2878 H 0.27018 0.96484 0.04163 0.0
H2879 H 0.26238 0.98652 0.01983 0.0
C2880 C 0.67406 0.62781 0.73901 0.0
C2881 C 0.65199 0.63204 0.7276 0.0
C2882 C 0.69055 0.64637 0.74383 0.0
C2883 C 0.68492 0.66959 0.73677 0.0
C2884 C 0.66343 0.67365 0.72379 0.0
C2885 C 0.64713 0.65485 0.71953 0.0
C2886 C 0.71312 0.64135 0.75791 0.0
C2887 C 0.65704 0.69812 0.71546 0.0
C2888 C 0.7045 0.72479 0.77095 0.0
C2889 C 0.72155 0.73457 0.7553 0.0
C2890 C 0.69375 0.70265 0.76601 0.0
C2891 C 0.70003 0.69014 0.74479 0.0
C2892 C 0.71866 0.69899 0.72995 0.0
C2893 C 0.72937 0.72108 0.7355 0.0
C2894 C 0.67431 0.69354 0.78257 0.0
C2895 C 0.72611 0.68589 0.70742 0.0
H2896 H 0.6779 0.61022 0.74538 0.0
H2897 H 0.63023 0.65818 0.71048 0.0
H2898 H 0.72897 0.65086 0.75041 0.0
H2899 H 0.71077 0.64776 0.77663 0.0
H2900 H 0.71702 0.62211 0.75822 0.0
H2901 H 0.64103 0.69784 0.70347 0.0
H2902 H 0.65307 0.70968 0.73119 0.0
H2903 H 0.67248 0.70625 0.70581 0.0
H2904 H 0.69858 0.73502 0.78641 0.0
H2905 H 0.74258 0.72851 0.72332 0.0
H2906 H 0.67718 0.6746 0.78654 0.0
H2907 H 0.65645 0.69486 0.77372 0.0
H2908 H 0.67374 0.70375 0.79973 0.0
H2909 H 0.73242 0.66794 0.7119 0.0
H2910 H 0.74075 0.69528 0.69766 0.0
H2911 H 0.71037 0.68352 0.6953 0.0
C2912 C 0.79963 0.47989 0.06299 0.0
C2913 C 0.80062 0.45586 0.06904 0.0
C2914 C 0.82052 0.49264 0.05699 0.0
C2915 C 0.84305 0.48126 0.05759 0.0
C2916 C 0.84451 0.45775 0.0659 0.0
C2917 C 0.82319 0.4452 0.07137 0.0
C2918 C 0.81816 0.51763 0.04809 0.0
C2919 C 0.86841 0.44535 0.06751 0.0
C2920 C 0.89063 0.49928 0.0125 0.0
C2921 C 0.90598 0.51371 0.02649 0.0
C2922 C 0.86979 0.48904 0.02236 0.0
C2923 C 0.8645 0.49297 0.04691 0.0
C2924 C 0.87959 0.50802 0.06099 0.0
C2925 C 0.90008 0.5184 0.05054 0.0
C2926 C 0.85373 0.47355 0.00663 0.0
C2927 C 0.87458 0.51245 0.08725 0.0
H2928 H 0.78233 0.48847 0.06145 0.0
H2929 H 0.82417 0.42674 0.07628 0.0
H2930 H 0.83179 0.52959 0.05663 0.0
H2931 H 0.8215 0.51777 0.0285 0.0
H2932 H 0.79993 0.52489 0.05155 0.0
H2933 H 0.86692 0.42855 0.07752 0.0
H2934 H 0.87509 0.44119 0.04921 0.0
H2935 H 0.8821 0.45702 0.07639 0.0
H2936 H 0.89519 0.49559 -0.00605 0.0
H2937 H 0.91213 0.52923 0.06157 0.0
H2938 H 0.83489 0.47996 0.00734 0.0
H2939 H 0.85357 0.45515 0.01328 0.0
H2940 H 0.85977 0.47323 0.98767 0.0
H2941 H 0.85614 0.51946 0.08975 0.0
H2942 H 0.88772 0.52517 0.09554 0.0
H2943 H 0.87534 0.4955 0.09699 0.0
C2944 C 0.32804 0.03629 0.73252 0.0
C2945 C 0.34753 0.02821 0.71894 0.0
C2946 C 0.31772 0.05827 0.72792 0.0
C2947 C 0.32651 0.07187 0.7086 0.0
C2948 C 0.3451 0.06287 0.69377 0.0
C2949 C 0.35587 0.04135 0.69953 0.0
C2950 C 0.29855 0.0676 0.7447 0.0
C2951 C 0.35417 0.07633 0.67238 0.0
C2952 C 0.28668 0.12389 0.69424 0.0
C2953 C 0.29907 0.14244 0.70605 0.0
C2954 C 0.29628 0.10099 0.6934 0.0
C2955 C 0.31805 0.09649 0.70571 0.0
C2956 C 0.33085 0.11537 0.71715 0.0
C2957 C 0.32142 0.13823 0.71672 0.0
C2958 C 0.28275 0.08151 0.68005 0.0
C2959 C 0.35369 0.11122 0.73119 0.0
H2960 H 0.32186 0.02607 0.74766 0.0
H2961 H 0.37092 0.03486 0.689 0.0
H2962 H 0.30533 0.08395 0.75391 0.0
H2963 H 0.28219 0.0724 0.73454 0.0
H2964 H 0.29331 0.05454 0.75848 0.0
H2965 H 0.36555 0.06515 0.66047 0.0
H2966 H 0.33881 0.08309 0.66186 0.0
H2967 H 0.36514 0.09185 0.6785 0.0
H2968 H 0.26941 0.12725 0.68593 0.0
H2969 H 0.33081 0.15258 0.72612 0.0
H2970 H 0.27401 0.06944 0.69299 0.0
H2971 H 0.29537 0.07081 0.66902 0.0
H2972 H 0.26854 0.08863 0.66823 0.0
H2973 H 0.34977 0.09899 0.74608 0.0
H2974 H 0.36155 0.12791 0.73882 0.0
H2975 H 0.36743 0.10271 0.71961 0.0
C2976 C 0.20529 0.98629 0.23296 0.0
C2977 C 0.18069 0.98011 0.23359 0.0
C2978 C 0.22309 0.96884 0.2341 0.0
C2979 C 0.21602 0.94472 0.23559 0.0
C2980 C 0.19121 0.93837 0.23504 0.0
C2981 C 0.17386 0.95615 0.23424 0.0
C2982 C 0.24935 0.97628 0.23487 0.0
C2983 C 0.18291 0.91281 0.23629 0.0
C2984 C 0.25822 0.89294 0.22612 0.0
C2985 C 0.26119 0.88554 0.24974 0.0
C2986 C 0.24456 0.91309 0.22113 0.0
C2987 C 0.23412 0.92617 0.24026 0.0
C2988 C 0.2387 0.91972 0.26418 0.0
C2989 C 0.25199 0.89936 0.2686 0.0
C2990 C 0.23994 0.91936 0.1954 0.0
C2991 C 0.22829 0.93343 0.28512 0.0
H2992 H 0.21064 0.00481 0.23241 0.0
H2993 H 0.15487 0.95125 0.23442 0.0
H2994 H 0.25674 0.97305 0.25296 0.0
H2995 H 0.26 0.96557 0.22194 0.0
H2996 H 0.25197 -0.00467 0.2308 0.0
H2997 H 0.16315 0.91072 0.23339 0.0
H2998 H 0.19245 0.9019 0.22267 0.0
H2999 H 0.18738 0.90569 0.25411 0.0
H3000 H 0.2653 0.88221 0.21153 0.0
H3001 H 0.25457 0.89382 0.28691 0.0
H3002 H 0.24236 0.93867 0.19278 0.0
H3003 H 0.22098 0.91472 0.19071 0.0
H3004 H 0.25206 0.90972 0.18287 0.0
H3005 H 0.23178 0.95268 0.28314 0.0
H3006 H 0.23591 0.92781 0.30249 0.0
H3007 H 0.20843 0.93067 0.28564 0.0
C3008 C 0.52726 0.30716 0.40818 0.0
C3009 C 0.52251 0.28363 0.41435 0.0
C3010 C 0.52541 0.32544 0.42536 0.0
C3011 C 0.51891 0.31991 0.44919 0.0
C3012 C 0.51629 0.29603 0.45594 0.0
C3013 C 0.51799 0.27815 0.43838 0.0
C3014 C 0.52851 0.35077 0.41754 0.0
C3015 C 0.5099 0.28941 0.48125 0.0
C3016 C 0.52124 0.37298 0.49146 0.0
C3017 C 0.49784 0.38165 0.48855 0.0
C3018 C 0.52813 0.35175 0.4801 0.0
C3019 C 0.51114 0.33914 0.4657 0.0
C3020 C 0.48688 0.34662 0.46485 0.0
C3021 C 0.48053 0.36781 0.47632 0.0
C3022 C 0.55403 0.34402 0.48184 0.0
C3023 C 0.46806 0.33341 0.45005 0.0
H3024 H 0.53095 0.31144 0.38969 0.0
H3025 H 0.51479 0.25989 0.44336 0.0
H3026 H 0.51072 0.3596 0.41783 0.0
H3027 H 0.54057 0.36073 0.43009 0.0
H3028 H 0.5361 0.35197 0.39919 0.0
H3029 H 0.51321 0.27038 0.4846 0.0
H3030 H 0.5204 0.3003 0.49439 0.0
H3031 H 0.49048 0.29285 0.48448 0.0
H3032 H 0.5347 0.38366 0.50092 0.0
H3033 H 0.46233 0.37437 0.47435 0.0
H3034 H 0.56382 0.34917 0.46537 0.0
H3035 H 0.55514 0.3245 0.48331 0.0
H3036 H 0.56337 0.35246 0.49744 0.0
H3037 H 0.47245 0.33507 0.43077 0.0
H3038 H 0.44961 0.34033 0.45311 0.0
H3039 H 0.46801 0.31428 0.45425 0.0
C3040 C 0.49484 0.80618 0.21225 0.0
C3041 C 0.49259 0.79388 0.19037 0.0
C3042 C 0.47428 0.81368 0.22484 0.0
C3043 C 0.45106 0.80783 0.21574 0.0
C3044 C 0.44879 0.79535 0.19362 0.0
C3045 C 0.46961 0.78895 0.18099 0.0
C3046 C 0.47737 0.82775 0.24787 0.0
C3047 C 0.42439 0.78809 0.18364 0.0
C3048 C 0.39791 0.7998 0.25741 0.0
C3049 C 0.38321 0.81872 0.25104 0.0
C3050 C 0.42053 0.79659 0.24675 0.0
C3051 C 0.42903 0.81317 0.2299 0.0
C3052 C 0.41512 0.83335 0.22482 0.0
C3053 C 0.39209 0.83565 0.23511 0.0
C3054 C 0.43442 0.77446 0.25215 0.0
C3055 C 0.42402 0.8519 0.20767 0.0
H3056 H 0.51269 0.81027 0.2193 0.0
H3057 H 0.46794 0.77937 0.16406 0.0
H3058 H 0.4665 0.8441 0.24732 0.0
H3059 H 0.47068 0.81723 0.26314 0.0
H3060 H 0.49654 0.83278 0.2513 0.0
H3061 H 0.42582 0.77821 0.16635 0.0
H3062 H 0.4147 0.77673 0.19662 0.0
H3063 H 0.41322 0.80395 0.18084 0.0
H3064 H 0.39104 0.78651 0.26954 0.0
H3065 H 0.38082 0.85038 0.23026 0.0
H3066 H 0.45326 0.77901 0.25733 0.0
H3067 H 0.43525 0.76302 0.23583 0.0
H3068 H 0.42601 0.76408 0.26675 0.0
H3069 H 0.44323 0.85653 0.21129 0.0
H3070 H 0.41318 0.86829 0.20884 0.0
H3071 H 0.4229 0.84481 0.18907 0.0
C3072 C 0.98237 0.72507 0.94805 0.0
C3073 C 0.9754 0.72375 0.92392 0.0
C3074 C 0.97951 0.70549 0.96294 0.0
C3075 C 0.96947 0.68418 0.9534 0.0
C3076 C 0.96001 0.68364 0.92985 0.0
C3077 C 0.96314 0.70346 0.91534 0.0
C3078 C 0.98948 0.7069 0.98807 0.0
C3079 C 0.94883 0.66136 0.91914 0.0
C3080 C -0.00142 0.62678 0.97011 0.0
C3081 C 0.98112 0.61639 0.98491 0.0
C3082 C -0.00479 0.64915 0.96049 0.0
C3083 C 0.97373 0.66152 0.96568 0.0
C3084 C 0.95637 0.65161 0.98136 0.0
C3085 C 0.96032 0.62907 0.9909 0.0
C3086 C 0.0144 0.6592 0.94414 0.0
C3087 C 0.9333 0.66433 0.98729 0.0
H3088 H -0.0085 0.74087 0.95493 0.0
H3089 H 0.95731 0.70247 0.89683 0.0
H3090 H 0.97741 0.69755 0.00075 0.0
H3091 H 0.00728 0.69813 0.98848 0.0
H3092 H -0.008 0.72554 -0.00564 0.0
H3093 H 0.9387 0.66495 0.90245 0.0
H3094 H 0.96328 0.64856 0.9148 0.0
H3095 H 0.93641 0.65283 0.93208 0.0
H3096 H 0.01489 0.61723 0.96572 0.0
H3097 H 0.94678 0.62108 0.00234 0.0
H3098 H 0.02035 0.67698 0.95072 0.0
H3099 H 0.00688 0.66131 0.92591 0.0
H3100 H 0.03048 0.64771 0.94279 0.0
H3101 H 0.93699 0.68329 0.99159 0.0
H3102 H 0.92367 0.65621 0.00262 0.0
H3103 H 0.92116 0.6636 0.9715 0.0
C3104 C 0.0611 0.21692 0.68725 0.0
C3105 C 0.0557 0.21582 0.66275 0.0
C3106 C 0.08456 0.2127 0.69541 0.0
C3107 C 0.10287 0.20708 0.67865 0.0
C3108 C 0.09713 0.20447 0.65408 0.0
C3109 C 0.07361 0.209 0.6464 0.0
C3110 C 0.09008 0.21576 0.72176 0.0
C3111 C 0.11615 0.19833 0.6357 0.0
C3112 C 0.16568 0.23 0.69251 0.0
C3113 C 0.17733 0.20959 0.7003 0.0
C3114 C 0.14148 0.2293 0.68556 0.0
C3115 C 0.12851 0.20759 0.68621 0.0
C3116 C 0.14007 0.18681 0.6938 0.0
C3117 C 0.16442 0.18805 0.70086 0.0
C3118 C 0.12977 0.25191 0.67762 0.0
C3119 C 0.12671 0.16336 0.6945 0.0
H3120 H 0.04724 0.22198 0.69996 0.0
H3121 H 0.06942 0.20774 0.62747 0.0
H3122 H 0.10086 0.20074 0.72822 0.0
H3123 H 0.10102 0.23216 0.72467 0.0
H3124 H 0.0734 0.21708 0.73272 0.0
H3125 H 0.10813 0.19372 0.61798 0.0
H3126 H 0.1286 0.2137 0.63349 0.0
H3127 H 0.12708 0.18324 0.64174 0.0
H3128 H 0.17541 0.24678 0.69204 0.0
H3129 H 0.17329 0.17223 0.70686 0.0
H3130 H 0.11394 0.25585 0.6891 0.0
H3131 H 0.12313 0.24976 0.65897 0.0
H3132 H 0.14238 0.26737 0.67844 0.0
H3133 H 0.11099 0.16472 0.70673 0.0
H3134 H 0.13838 0.14878 0.70059 0.0
H3135 H 0.11957 0.15868 0.67646 0.0
C3136 C 0.55041 0.67961 0.1254 0.0
C3137 C 0.53951 0.69901 0.11456 0.0
C3138 C 0.55086 0.65732 0.11387 0.0
C3139 C 0.54001 0.65436 0.09106 0.0
C3140 C 0.52868 0.67377 0.08021 0.0
C3141 C 0.52852 0.6958 0.09209 0.0
C3142 C 0.563 0.63699 0.12602 0.0
C3143 C 0.51675 0.6713 0.05596 0.0
C3144 C 0.55377 0.60359 0.04785 0.0
C3145 C 0.53277 0.58972 0.05009 0.0
C3146 C 0.55708 0.62423 0.06203 0.0
C3147 C 0.53911 0.63077 0.07889 0.0
C3148 C 0.51871 0.6159 0.08223 0.0
C3149 C 0.51576 0.59565 0.06774 0.0
C3150 C 0.57906 0.63972 0.05798 0.0
C3151 C 0.4993 0.62204 0.10021 0.0
H3152 H 0.55896 0.68192 0.14274 0.0
H3153 H 0.52012 0.71064 0.08349 0.0
H3154 H 0.54966 0.62254 0.12919 0.0
H3155 H 0.57728 0.62961 0.11427 0.0
H3156 H 0.57125 0.6424 0.14342 0.0
H3157 H 0.5094 0.68831 0.04966 0.0
H3158 H 0.52992 0.66471 0.04253 0.0
H3159 H 0.50175 0.65811 0.05673 0.0
H3160 H 0.56696 0.59898 0.03428 0.0
H3161 H 0.4997 0.58468 0.06987 0.0
H3162 H 0.58758 0.64489 0.0753 0.0
H3163 H 0.57355 0.65626 0.04915 0.0
H3164 H 0.5927 0.63079 0.04652 0.0
H3165 H 0.48555 0.60766 0.10189 0.0
H3166 H 0.49002 0.63837 0.0947 0.0
H3167 H 0.5074 0.62567 0.11808 0.0
C3168 C 0.08974 0.7491 0.8498 0.0
C3169 C 0.06712 0.7484 0.83859 0.0
C3170 C 0.11059 0.74264 0.83722 0.0
C3171 C 0.10858 0.73495 0.81305 0.0
C3172 C 0.08568 0.7335 0.8019 0.0
C3173 C 0.0652 0.74044 0.81478 0.0
C3174 C 0.1348 0.74463 0.84957 0.0
C3175 C 0.08285 0.72496 0.77628 0.0
C3176 C 0.16331 0.74092 0.77285 0.0
C3177 C 0.17258 0.71796 0.7733 0.0
C3178 C 0.1425 0.74671 0.78582 0.0
C3179 C 0.13053 0.72901 0.7992 0.0
C3180 C 0.13953 0.7057 0.79936 0.0
C3181 C 0.16058 0.70049 0.78653 0.0
C3182 C 0.13351 0.77184 0.7855 0.0
C3183 C 0.12697 0.6863 0.81311 0.0
H3184 H 0.09126 0.75534 0.86825 0.0
H3185 H 0.04771 0.73972 0.80615 0.0
H3186 H 0.14398 0.7273 0.84894 0.0
H3187 H 0.14654 0.75748 0.84007 0.0
H3188 H 0.13318 0.7505 0.86858 0.0
H3189 H 0.06362 0.72373 0.77068 0.0
H3190 H 0.0925 0.73723 0.76416 0.0
H3191 H 0.09108 0.70727 0.77391 0.0
H3192 H 0.17262 0.75451 0.76279 0.0
H3193 H 0.16759 0.68266 0.78681 0.0
H3194 H 0.13305 0.77929 0.80399 0.0
H3195 H 0.11479 0.7721 0.77846 0.0
H3196 H 0.14502 0.78354 0.77433 0.0
H3197 H 0.1266 0.69103 0.83246 0.0
H3198 H 0.13598 0.66894 0.81086 0.0
H3199 H 0.10796 0.68435 0.80708 0.0
C3200 C 0.98576 0.31444 0.58934 0.0
C3201 C 0.9744 0.30485 0.60938 0.0
C3202 C 0.97935 0.33686 0.58111 0.0
C3203 C 0.96051 0.34939 0.59269 0.0
C3204 C 0.94878 0.33955 0.61274 0.0
C3205 C 0.95616 0.31755 0.6211 0.0
C3206 C -0.00715 0.34721 0.56016 0.0
C3207 C 0.92829 0.35212 0.6252 0.0
C3208 C 0.95973 0.41536 0.5818 0.0
C3209 C 0.94525 0.41625 0.56127 0.0
C3210 C 0.96404 0.39379 0.59298 0.0
C3211 C 0.95314 0.37277 0.58366 0.0
C3212 C 0.93668 0.37396 0.56435 0.0
C3213 C 0.9332 0.39568 0.55312 0.0
C3214 C 0.98197 0.39338 0.61331 0.0
C3215 C 0.9239 0.35207 0.55459 0.0
H3216 H -8e-05 0.3046 0.5804 0.0
H3217 H 0.94719 0.30998 0.6365 0.0
H3218 H 0.98027 0.34985 0.54502 0.0
H3219 H 0.00053 0.36484 0.56524 0.0
H3220 H 0.00775 0.33569 0.55388 0.0
H3221 H 0.92074 0.34178 0.64028 0.0
H3222 H 0.9346 0.36961 0.63225 0.0
H3223 H 0.9136 0.35544 0.61222 0.0
H3224 H 0.96936 0.43116 0.58798 0.0
H3225 H 0.92194 0.39637 0.53728 0.0
H3226 H -0.00023 0.38783 0.60619 0.0
H3227 H 0.97649 0.38057 0.62718 0.0
H3228 H 0.98422 0.41114 0.62193 0.0
H3229 H 0.93705 0.34067 0.54504 0.0
H3230 H 0.90925 0.35649 0.54192 0.0
H3231 H 0.91609 0.34159 0.5694 0.0
C3232 C 0.41629 0.22914 0.33739 0.0
C3233 C 0.43739 0.23899 0.32755 0.0
C3234 C 0.39364 0.2331 0.32699 0.0
C3235 C 0.39218 0.24715 0.3063 0.0
C3236 C 0.41341 0.25691 0.29619 0.0
C3237 C 0.4357 0.25274 0.30694 0.0
C3238 C 0.37128 0.22252 0.33824 0.0
C3239 C 0.41258 0.27201 0.27411 0.0
C3240 C 0.33881 0.24556 0.26394 0.0
C3241 C 0.32755 0.26695 0.26994 0.0
C3242 C 0.35926 0.23821 0.27647 0.0
C3243 C 0.36851 0.25254 0.29546 0.0
C3244 C 0.35651 0.27352 0.30235 0.0
C3245 C 0.33622 0.28051 0.28947 0.0
C3246 C 0.37166 0.21573 0.26861 0.0
C3247 C 0.36579 0.28922 0.3226 0.0
H3248 H 0.41744 0.21847 0.35328 0.0
H3249 H 0.45187 0.26036 0.2991 0.0
H3250 H 0.35908 0.23686 0.34423 0.0
H3251 H 0.36124 0.21151 0.32485 0.0
H3252 H 0.37557 0.2114 0.35385 0.0
H3253 H 0.43085 0.27772 0.26812 0.0
H3254 H 0.40366 0.26204 0.25921 0.0
H3255 H 0.40174 0.28804 0.27778 0.0
H3256 H 0.33214 0.23492 0.24897 0.0
H3257 H 0.32744 0.29691 0.29445 0.0
H3258 H 0.37526 0.20445 0.28425 0.0
H3259 H 0.38935 0.22022 0.26042 0.0
H3260 H 0.36079 0.20532 0.25534 0.0
H3261 H 0.3691 0.2786 0.33877 0.0
H3262 H 0.35301 0.30356 0.32731 0.0
H3263 H 0.38327 0.29746 0.31738 0.0
C3264 C 0.47925 0.49315 0.28683 0.0
C3265 C 0.46545 0.51372 0.289 0.0
C3266 C 0.48747 0.48155 0.30728 0.0
C3267 C 0.48186 0.49097 0.33021 0.0
C3268 C 0.46894 0.51237 0.33237 0.0
C3269 C 0.46081 0.5234 0.31175 0.0
C3270 C 0.50113 0.45874 0.30435 0.0
C3271 C 0.46294 0.52325 0.35652 0.0
C3272 C 0.47388 0.45762 0.38738 0.0
C3273 C 0.49379 0.46622 0.40054 0.0
C3274 C 0.47099 0.46351 0.36329 0.0
C3275 C 0.48837 0.47836 0.35228 0.0
C3276 C 0.50978 0.48481 0.36466 0.0
C3277 C 0.51227 0.4786 0.38868 0.0
C3278 C 0.44813 0.45587 0.35046 0.0
C3279 C 0.52889 0.50036 0.35342 0.0
H3280 H 0.48272 0.48555 0.26924 0.0
H3281 H 0.45036 0.53943 0.31346 0.0
H3282 H 0.51711 0.45868 0.3163 0.0
H3283 H 0.48928 0.44366 0.30949 0.0
H3284 H 0.50718 0.45575 0.2856 0.0
H3285 H 0.45375 0.54052 0.35499 0.0
H3286 H 0.45097 0.51104 0.36658 0.0
H3287 H 0.47965 0.52601 0.36722 0.0
H3288 H 0.45973 0.44765 0.39626 0.0
H3289 H 0.52801 0.4849 0.39855 0.0
H3290 H 0.45209 0.45012 0.33181 0.0
H3291 H 0.43571 0.4711 0.34963 0.0
H3292 H 0.43868 0.44117 0.35975 0.0
H3293 H 0.53219 0.49493 0.33454 0.0
H3294 H 0.54622 0.49988 0.36339 0.0
H3295 H 0.52259 0.51894 0.35343 0.0
C3296 C 0.26242 0.69199 0.10832 0.0
C3297 C 0.27452 0.69332 0.08638 0.0
C3298 C 0.26618 0.70926 0.12626 0.0
C3299 C 0.28293 0.72798 0.12237 0.0
C3300 C 0.29506 0.72957 0.10015 0.0
C3301 C 0.29048 0.71232 0.08227 0.0
C3302 C 0.25256 0.70719 0.14958 0.0
C3303 C 0.31343 0.74896 0.0956 0.0
C3304 C 0.2783 0.77908 0.167 0.0
C3305 C 0.29395 0.77152 0.18486 0.0
C3306 C 0.27538 0.76572 0.14572 0.0
C3307 C 0.28882 0.74473 0.14233 0.0
C3308 C 0.30603 0.7382 0.15965 0.0
C3309 C 0.3081 0.75151 0.1809 0.0
C3310 C 0.25662 0.77303 0.12782 0.0
C3311 C 0.32111 0.71628 0.15649 0.0
H3312 H 0.24984 0.67749 0.11142 0.0
H3313 H 0.29993 0.71334 0.06531 0.0
H3314 H 0.26537 0.70366 0.16432 0.0
H3315 H 0.24345 0.72409 0.15399 0.0
H3316 H 0.23877 0.69272 0.14899 0.0
H3317 H 0.32013 0.74859 0.07686 0.0
H3318 H 0.30555 0.76657 0.09946 0.0
H3319 H 0.32904 0.74699 0.10783 0.0
H3320 H 0.26722 0.79447 0.17034 0.0
H3321 H 0.3202 0.74579 0.19488 0.0
H3322 H 0.24099 0.76056 0.12853 0.0
H3323 H 0.26396 0.77217 0.10936 0.0
H3324 H 0.25006 0.79124 0.1315 0.0
H3325 H 0.30948 0.70027 0.15842 0.0
H3326 H 0.33587 0.71556 0.16991 0.0
H3327 H 0.32914 0.71556 0.13831 0.0
C3328 C 0.0445 0.46134 0.82253 0.0
C3329 C 0.03348 0.46916 0.80153 0.0
C3330 C 0.03488 0.46693 0.84509 0.0
C3331 C 0.01365 0.48054 0.84671 0.0
C3332 C 0.00162 0.48725 0.82559 0.0
C3333 C 0.01173 0.48155 0.80323 0.0
C3334 C 0.04826 0.45945 0.86722 0.0
C3335 C 0.97879 0.50155 0.82662 0.0
C3336 C 0.98547 0.485 0.9086 0.0
C3337 C -0.0038 0.50603 0.91745 0.0
C3338 C 0.99012 0.47686 0.88516 0.0
C3339 C 0.00589 0.49006 0.87037 0.0
C3340 C 0.01585 0.51183 0.87885 0.0
C3341 C 0.01084 0.51955 0.90222 0.0
C3342 C 0.97898 0.4537 0.87659 0.0
C3343 C 0.0327 0.52649 0.86361 0.0
H3344 H 0.0612 0.45162 0.82144 0.0
H3345 H 0.00294 0.48746 0.7871 0.0
H3346 H 0.056 0.47534 0.87651 0.0
H3347 H 0.03572 0.45071 0.87989 0.0
H3348 H 0.06318 0.44713 0.86295 0.0
H3349 H 0.96987 0.50249 0.80886 0.0
H3350 H 0.96584 0.49385 0.83959 0.0
H3351 H 0.98316 0.51986 0.8329 0.0
H3352 H 0.97406 0.47448 0.92021 0.0
H3353 H 0.01904 0.53596 0.90877 0.0
H3354 H -0.00677 0.44017 0.87481 0.0
H3355 H 0.97073 0.45571 0.85865 0.0
H3356 H 0.96496 0.44704 0.8891 0.0
H3357 H 0.04941 0.51645 0.85988 0.0
H3358 H 0.03782 0.54363 0.87239 0.0
H3359 H 0.02416 0.53018 0.84613 0.0
C3360 C 0.28315 0.3258 0.55728 0.0
C3361 C 0.2651 0.3165 0.54212 0.0
C3362 C 0.29272 0.31219 0.57565 0.0
C3363 C 0.28338 0.28909 0.57931 0.0
C3364 C 0.26749 0.27866 0.56214 0.0
C3365 C 0.2586 0.29252 0.54355 0.0
C3366 C 0.31048 0.3236 0.59291 0.0
C3367 C 0.2574 0.25395 0.56518 0.0
C3368 C 0.30094 0.25346 0.63406 0.0
C3369 C 0.2829 0.2604 0.65026 0.0
C3370 C 0.30187 0.2629 0.61085 0.0
C3371 C 0.28416 0.27929 0.6038 0.0
C3372 C 0.26633 0.28667 0.62035 0.0
C3373 C 0.26609 0.27733 0.64327 0.0
C3374 C 0.32136 0.25485 0.59384 0.0
C3375 C 0.24708 0.30421 0.61381 0.0
H3376 H 0.28871 0.34421 0.55575 0.0
H3377 H 0.24491 0.2852 0.53158 0.0
H3378 H 0.30064 0.33028 0.60891 0.0
H3379 H 0.3239 0.31059 0.59901 0.0
H3380 H 0.32018 0.3388 0.58472 0.0
H3381 H 0.24924 0.24684 0.54833 0.0
H3382 H 0.27167 0.24177 0.57109 0.0
H3383 H 0.2432 0.25428 0.5792 0.0
H3384 H 0.31399 0.24039 0.63931 0.0
H3385 H 0.25224 0.28314 0.65566 0.0
H3386 H 0.32798 0.26965 0.58267 0.0
H3387 H 0.31387 0.2409 0.58164 0.0
H3388 H 0.33689 0.2473 0.60355 0.0
H3389 H 0.25558 0.32136 0.6089 0.0
H3390 H 0.2342 0.30759 0.62869 0.0
H3391 H 0.23666 0.29753 0.59808 0.0
C3392 C 0.39037 0.55809 0.16679 0.0
C3393 C 0.40935 0.5698 0.17897 0.0
C3394 C 0.39388 0.54815 0.14394 0.0
C3395 C 0.41677 0.5504 0.13299 0.0
C3396 C 0.43546 0.56363 0.14453 0.0
C3397 C 0.43158 0.57298 0.16753 0.0
C3398 C 0.37366 0.5339 0.13236 0.0
C3399 C 0.45996 0.56694 0.13307 0.0
C3400 C 0.44358 0.50747 0.08832 0.0
C3401 C 0.44263 0.52079 0.06741 0.0
C3402 C 0.43311 0.51594 0.1096 0.0
C3403 C 0.42183 0.53831 0.10987 0.0
C3404 C 0.41871 0.55062 0.08834 0.0
C3405 C 0.42883 0.5415 0.06726 0.0
C3406 C 0.43603 0.50199 0.13222 0.0
C3407 C 0.40671 0.57449 0.08801 0.0
H3408 H 0.37322 0.55526 0.17572 0.0
H3409 H 0.44624 0.58196 0.177 0.0
H3410 H 0.37216 0.5378 0.11304 0.0
H3411 H 0.37754 0.51475 0.13387 0.0
H3412 H 0.35599 0.53734 0.14107 0.0
H3413 H 0.47158 0.57974 0.14326 0.0
H3414 H 0.46928 0.54968 0.13207 0.0
H3415 H 0.458 0.57331 0.11451 0.0
H3416 H 0.45389 0.49129 0.08852 0.0
H3417 H 0.42764 0.55176 0.05111 0.0
H3418 H 0.41888 0.50149 0.14246 0.0
H3419 H 0.44988 0.51077 0.14379 0.0
H3420 H 0.44177 0.48353 0.12839 0.0
H3421 H 0.40571 0.58182 0.06972 0.0
H3422 H 0.41691 0.5873 0.09955 0.0
H3423 H 0.38816 0.57306 0.09537 0.0
C3424 C 0.30384 0.67511 0.93087 0.0
C3425 C 0.28317 0.68403 0.94218 0.0
C3426 C 0.30805 0.6789 0.90653 0.0
C3427 C 0.291 0.69161 0.89322 0.0
C3428 C 0.27133 0.70254 0.90506 0.0
C3429 C 0.2677 0.69869 0.92954 0.0
C3430 C 0.32953 0.66743 0.89468 0.0
C3431 C 0.25285 0.71638 0.89145 0.0
C3432 C 0.29917 0.70566 0.82745 0.0
C3433 C 0.28517 0.6875 0.81675 0.0
C3434 C 0.30218 0.70685 0.85242 0.0
C3435 C 0.29091 0.68948 0.86676 0.0
C3436 C 0.27806 0.67034 0.85585 0.0
C3437 C 0.27539 0.66959 0.83099 0.0
C3438 C 0.31627 0.72733 0.86345 0.0
C3439 C 0.26605 0.65123 0.87049 0.0
H3440 H 0.31613 0.66412 0.94075 0.0
H3441 H 0.25184 0.70579 0.93831 0.0
H3442 H 0.32346 0.6512 0.88481 0.0
H3443 H 0.33801 0.67947 0.88153 0.0
H3444 H 0.34336 0.66231 0.90796 0.0
H3445 H 0.24081 0.72655 0.90362 0.0
H3446 H 0.26182 0.72884 0.87905 0.0
H3447 H 0.24154 0.70395 0.88051 0.0
H3448 H 0.30673 0.71958 0.8165 0.0
H3449 H 0.26481 0.65536 0.82276 0.0
H3450 H 0.32825 0.72118 0.87792 0.0
H3451 H 0.30354 0.74016 0.87157 0.0
H3452 H 0.3274 0.73674 0.84996 0.0
H3453 H 0.27941 0.643 0.88245 0.0
H3454 H 0.25761 0.63706 0.85912 0.0
H3455 H 0.25183 0.65913 0.88198 0.0
C3456 C 0.06254 0.43675 0.66098 0.0
C3457 C 0.08224 0.44573 0.67401 0.0
C3458 C 0.05511 0.4477 0.63993 0.0
C3459 C 0.06704 0.4687 0.63247 0.0
C3460 C 0.08738 0.47746 0.64528 0.0
C3461 C 0.09496 0.46563 0.66576 0.0
C3462 C 0.03386 0.43732 0.62624 0.0
C3463 C 0.10025 0.5 0.63816 0.0
C3464 C 0.05126 0.48632 0.56945 0.0
C3465 C 0.03028 0.49942 0.57361 0.0
C3466 C 0.0646 0.47744 0.58856 0.0
C3467 C 0.05697 0.48221 0.6123 0.0
C3468 C 0.03748 0.49769 0.61656 0.0
C3469 C 0.02417 0.50592 0.59712 0.0
C3470 C 0.08519 0.46098 0.58312 0.0
C3471 C 0.02939 0.50396 0.64165 0.0
H3472 H 0.05269 0.42145 0.66752 0.0
H3473 H 0.10995 0.47284 0.67617 0.0
H3474 H 0.01813 0.44915 0.62821 0.0
H3475 H 0.03816 0.43588 0.60688 0.0
H3476 H 0.02862 0.41949 0.63273 0.0
H3477 H 0.11679 0.5035 0.64898 0.0
H3478 H 0.10532 0.49917 0.61896 0.0
H3479 H 0.08794 0.5152 0.64058 0.0
H3480 H 0.05603 0.48108 0.55131 0.0
H3481 H 0.00807 0.5162 0.60039 0.0
H3482 H 0.07831 0.44242 0.58327 0.0
H3483 H 0.09976 0.46266 0.59666 0.0
H3484 H 0.09299 0.4644 0.56518 0.0
H3485 H 0.02016 0.48841 0.64961 0.0
H3486 H 0.01668 0.51902 0.64193 0.0
H3487 H 0.04514 0.50862 0.65315 0.0
C3488 C 0.19573 0.38443 0.40186 0.0
C3489 C 0.20787 0.37015 0.41817 0.0
C3490 C 0.19629 0.37931 0.37722 0.0
C3491 C 0.20927 0.35948 0.36878 0.0
C3492 C 0.22095 0.34461 0.38519 0.0
C3493 C 0.22013 0.35014 0.40968 0.0
C3494 C 0.18363 0.39551 0.36019 0.0
C3495 C 0.23496 0.32324 0.37681 0.0
C3496 C 0.20234 0.33228 0.30673 0.0
C3497 C 0.22364 0.34033 0.29584 0.0
C3498 C 0.19656 0.33945 0.33019 0.0
C3499 C 0.21241 0.3551 0.34277 0.0
C3500 C 0.23295 0.36463 0.33116 0.0
C3501 C 0.23835 0.35707 0.30785 0.0
C3502 C 0.17443 0.32904 0.34202 0.0
C3503 C 0.25013 0.38161 0.34389 0.0
H3504 H 0.18609 0.39986 0.40826 0.0
H3505 H 0.22939 0.3389 0.42214 0.0
H3506 H 0.19721 0.40489 0.34908 0.0
H3507 H 0.1718 0.38509 0.34781 0.0
H3508 H 0.17255 0.40893 0.36973 0.0
H3509 H 0.24177 0.31272 0.39196 0.0
H3510 H 0.22342 0.31157 0.3653 0.0
H3511 H 0.2506 0.32902 0.36585 0.0
H3512 H 0.19089 0.31937 0.29748 0.0
H3513 H 0.25466 0.36363 0.29934 0.0
H3514 H 0.16418 0.34301 0.3516 0.0
H3515 H 0.18005 0.31598 0.35549 0.0
H3516 H 0.16226 0.31993 0.3289 0.0
H3517 H 0.24007 0.39626 0.3526 0.0
H3518 H 0.26373 0.38933 0.33155 0.0
H3519 H 0.25981 0.37216 0.35818 0.0
C3520 C 0.29136 0.42285 0.51462 0.0
C3521 C 0.27264 0.43417 0.50263 0.0
C3522 C 0.31499 0.43188 0.5141 0.0
C3523 C 0.32009 0.4526 0.50101 0.0
C3524 C 0.30106 0.46485 0.48995 0.0
C3525 C 0.27743 0.45553 0.49101 0.0
C3526 C 0.33471 0.41848 0.52647 0.0
C3527 C 0.30585 0.48696 0.4758 0.0
C3528 C 0.3827 0.47902 0.51096 0.0
C3529 C 0.3958 0.4676 0.49273 0.0
C3530 C 0.35772 0.47518 0.51333 0.0
C3531 C 0.34563 0.45974 0.49696 0.0
C3532 C 0.35856 0.44915 0.47783 0.0
C3533 C 0.3835 0.45311 0.47602 0.0
C3534 C 0.34453 0.48668 0.53401 0.0
C3535 C 0.34625 0.43276 0.45984 0.0
H3536 H 0.28766 0.40649 0.52392 0.0
H3537 H 0.26299 0.46432 0.48171 0.0
H3538 H 0.34686 0.41048 0.51287 0.0
H3539 H 0.34581 0.4307 0.53783 0.0
H3540 H 0.32739 0.40411 0.53784 0.0
H3541 H 0.2889 0.49603 0.47097 0.0
H3542 H 0.31758 0.49955 0.48606 0.0
H3543 H 0.31556 0.48221 0.45906 0.0
H3544 H 0.39208 0.49028 0.52393 0.0
H3545 H 0.39343 0.44447 0.4617 0.0
H3546 H 0.33917 0.47296 0.54705 0.0
H3547 H 0.32775 0.49508 0.52771 0.0
H3548 H 0.35584 0.50029 0.54344 0.0
H3549 H 0.34008 0.41639 0.46884 0.0
H3550 H 0.3584 0.42769 0.44484 0.0
H3551 H 0.33005 0.44129 0.45234 0.0
C3552 C 0.86061 0.09691 0.50429 0.0
C3553 C 0.86216 0.09362 0.52914 0.0
C3554 C 0.87139 0.08105 0.48808 0.0
C3555 C 0.88493 0.06205 0.49693 0.0
C3556 C 0.88819 0.05979 0.52203 0.0
C3557 C 0.87656 0.07547 0.53777 0.0
C3558 C 0.86709 0.08385 0.46159 0.0
C3559 C 0.90269 0.04012 0.5328 0.0
C3560 C 0.89578 0.00096 0.47301 0.0
C3561 C 0.91971 0.00336 0.46538 0.0
C3562 C 0.88265 0.02092 0.48003 0.0
C3563 C 0.89428 0.04342 0.48047 0.0
C3564 C 0.91707 0.04623 0.46927 0.0
C3565 C 0.92934 0.02602 0.46134 0.0
C3566 C 0.85737 0.01751 0.48954 0.0
C3567 C 0.92967 0.06999 0.46708 0.0
H3568 H 0.84957 0.11095 0.49739 0.0
H3569 H 0.87793 0.07275 0.55689 0.0
H3570 H 0.88415 0.08935 0.45279 0.0
H3571 H 0.86118 0.06673 0.4533 0.0
H3572 H 0.85324 0.09737 0.45788 0.0
H3573 H 0.91276 0.04676 0.54881 0.0
H3574 H 0.89015 0.02595 0.53888 0.0
H3575 H 0.91574 0.03214 0.52009 0.0
H3576 H 0.88818 0.9834 0.47575 0.0
H3577 H 0.94775 0.02792 0.45497 0.0
H3578 H 0.84597 0.03293 0.48536 0.0
H3579 H 0.85802 0.01576 0.50927 0.0
H3580 H 0.84875 0.00118 0.48191 0.0
H3581 H 0.92769 0.07606 0.4484 0.0
H3582 H 0.94933 0.06841 0.47055 0.0
H3583 H 0.92232 0.08381 0.47921 0.0
C3584 C 0.6638 0.00764 0.20635 0.0
C3585 C 0.64151 0.01829 0.21115 0.0
C3586 C 0.68505 0.02136 0.20437 0.0
C3587 C 0.68404 0.0462 0.20796 0.0
C3588 C 0.66136 0.05713 0.21115 0.0
C3589 C 0.64036 0.04306 0.21242 0.0
C3590 C 0.70871 0.00909 0.19999 0.0
C3591 C 0.65941 0.08356 0.21523 0.0
C3592 C 0.73233 0.08068 0.2415 0.0
C3593 C 0.74054 0.09639 0.22398 0.0
C3594 C 0.71524 0.06293 0.23604 0.0
C3595 C 0.70649 0.06043 0.21232 0.0
C3596 C 0.7169 0.07427 0.19398 0.0
C3597 C 0.73376 0.09228 0.20005 0.0
C3598 C 0.70479 0.04853 0.25621 0.0
C3599 C 0.70879 0.07147 0.16832 0.0
H3600 H 0.6648 0.9885 0.20498 0.0
H3601 H 0.62322 0.05146 0.21605 0.0
H3602 H 0.72054 0.01963 0.18805 0.0
H3603 H 0.71833 0.00714 0.21725 0.0
H3604 H 0.70593 0.99115 0.19192 0.0
H3605 H 0.64037 0.08948 0.21559 0.0
H3606 H 0.66797 0.08859 0.23258 0.0
H3607 H 0.66915 0.09326 0.20101 0.0
H3608 H 0.73784 0.08344 0.25997 0.0
H3609 H 0.74014 0.10419 0.18634 0.0
H3610 H 0.70469 0.0294 0.25144 0.0
H3611 H 0.68578 0.05374 0.2594 0.0
H3612 H 0.71501 0.05118 0.27318 0.0
H3613 H 0.70555 0.05254 0.16353 0.0
H3614 H 0.7223 0.07901 0.15576 0.0
H3615 H 0.69156 0.08092 0.16586 0.0
C3616 C 0.58321 0.90952 0.05741 0.0
C3617 C 0.60665 0.91856 0.05453 0.0
C3618 C 0.56324 0.92445 0.05594 0.0
C3619 C 0.56691 0.94878 0.051 0.0
C3620 C 0.59056 0.95808 0.04871 0.0
C3621 C 0.61015 0.94291 0.05082 0.0
C3622 C 0.5382 0.91415 0.05915 0.0
C3623 C 0.59517 0.9838 0.04292 0.0
C3624 C 0.51444 0.97836 0.02085 0.0
C3625 C 0.50347 0.99006 0.04024 0.0
C3626 C 0.53559 0.96548 0.02398 0.0
C3627 C 0.54594 0.96423 0.04707 0.0
C3628 C 0.53579 0.97709 0.06643 0.0
C3629 C 0.51469 0.98997 0.06277 0.0
C3630 C 0.54626 0.95235 0.00279 0.0
C3631 C 0.54664 0.97642 0.0912 0.0
H3632 H 0.58046 0.89077 0.06048 0.0
H3633 H 0.62825 0.95008 0.0487 0.0
H3634 H 0.52835 0.92449 0.07299 0.0
H3635 H 0.52792 0.9154 0.04219 0.0
H3636 H 0.53849 0.89528 0.06448 0.0
H3637 H 0.6147 0.98855 0.04332 0.0
H3638 H 0.58805 0.98746 0.02482 0.0
H3639 H 0.58557 -0.00447 0.05574 0.0
H3640 H 0.50597 0.97844 0.00336 0.0
H3641 H 0.50635 -0.00105 0.07788 0.0
H3642 H 0.54435 0.93298 0.00542 0.0
H3643 H 0.56583 0.95648 0.00124 0.0
H3644 H 0.53729 0.95683 0.9857 0.0
H3645 H 0.54708 0.95787 0.0974 0.0
H3646 H 0.53644 0.98728 0.1044 0.0
H3647 H 0.56557 0.98302 0.09082 0.0
C3648 C 0.35034 0.48027 0.22893 0.0
C3649 C 0.37165 0.48455 0.21609 0.0
C3650 C 0.33647 0.45966 0.22459 0.0
C3651 C 0.34424 0.44294 0.20713 0.0
C3652 C 0.36501 0.44775 0.19327 0.0
C3653 C 0.37842 0.46853 0.19786 0.0
C3654 C 0.31419 0.45521 0.2395 0.0
C3655 C 0.37392 0.43032 0.17458 0.0
C3656 C 0.32826 0.37935 0.22069 0.0
C3657 C 0.30866 0.37491 0.20535 0.0
C3658 C 0.34039 0.40121 0.22086 0.0
C3659 C 0.33247 0.41923 0.20555 0.0
C3660 C 0.31316 0.41466 0.18943 0.0
C3661 C 0.30155 0.39237 0.18938 0.0
C3662 C 0.36126 0.40521 0.23795 0.0
C3663 C 0.30418 0.43358 0.17301 0.0
H3664 H 0.34482 0.49267 0.24283 0.0
H3665 H 0.39469 0.47178 0.18758 0.0
H3666 H 0.29878 0.44975 0.2279 0.0
H3667 H 0.31755 0.4405 0.25195 0.0
H3668 H 0.309 0.4711 0.25021 0.0
H3669 H 0.38859 0.43795 0.16342 0.0
H3670 H 0.3809 0.41441 0.18353 0.0
H3671 H 0.35893 0.42436 0.16267 0.0
H3672 H 0.3339 0.36576 0.23291 0.0
H3673 H 0.28625 0.389 0.17765 0.0
H3674 H 0.35668 0.41927 0.25123 0.0
H3675 H 0.37748 0.41137 0.22806 0.0
H3676 H 0.36591 0.38893 0.24775 0.0
H3677 H 0.29628 0.4482 0.18382 0.0
H3678 H 0.29023 0.42666 0.16032 0.0
H3679 H 0.31936 0.44124 0.16261 0.0
C3680 C 0.19627 0.59237 0.00853 0.0
C3681 C 0.19546 0.61707 0.01153 0.0
C3682 C 0.17506 0.5786 0.00791 0.0
C3683 C 0.15254 0.58979 0.01068 0.0
C3684 C 0.15159 0.61469 0.01403 0.0
C3685 C 0.17311 0.62809 0.01424 0.0
C3686 C 0.17673 0.55214 0.00393 0.0
C3687 C 0.12784 0.62717 0.01726 0.0
C3688 C 0.09575 0.5605 0.98605 0.0
C3689 C 0.08518 0.55135 0.00681 0.0
C3690 C 0.11805 0.57243 0.98697 0.0
C3691 C 0.12989 0.57555 0.00924 0.0
C3692 C 0.11975 0.56565 0.03014 0.0
C3693 C 0.09754 0.55346 0.02864 0.0
C3694 C 0.12856 0.58233 0.96421 0.0
C3695 C 0.13185 0.56879 0.05422 0.0
H3696 H 0.21352 0.58376 0.00634 0.0
H3697 H 0.17245 0.64716 0.01668 0.0
H3698 H 0.16789 0.54268 0.01887 0.0
H3699 H 0.16701 0.54686 0.98727 0.0
H3700 H 0.1957 0.54616 0.00246 0.0
H3701 H 0.13029 0.64649 0.02065 0.0
H3702 H 0.11655 0.62453 0.00102 0.0
H3703 H 0.11773 0.61946 0.03248 0.0
H3704 H 0.08631 0.55876 0.9691 0.0
H3705 H 0.08933 0.54658 0.04476 0.0
H3706 H 0.14736 0.57623 0.96172 0.0
H3707 H 0.12922 0.60196 0.96547 0.0
H3708 H 0.11784 0.57703 0.94815 0.0
H3709 H 0.15073 0.56253 0.05334 0.0
H3710 H 0.1222 0.55906 0.06854 0.0
H3711 H 0.13259 0.58789 0.05925 0.0
C3712 C 0.64509 0.87744 0.2524 0.0
C3713 C 0.63323 0.89299 0.26807 0.0
C3714 C 0.6582 0.85833 0.26108 0.0
C3715 C 0.65992 0.85499 0.28612 0.0
C3716 C 0.64862 0.87108 0.30209 0.0
C3717 C 0.63514 0.88976 0.29285 0.0
C3718 C 0.66965 0.84133 0.24339 0.0
C3719 C 0.65047 0.86837 0.32885 0.0
C3720 C 0.67005 0.79071 0.29911 0.0
C3721 C 0.69534 0.78977 0.29887 0.0
C3722 C 0.65812 0.81225 0.2971 0.0
C3723 C 0.67185 0.83343 0.29513 0.0
C3724 C 0.69728 0.83289 0.29792 0.0
C3725 C 0.70883 0.81093 0.2997 0.0
C3726 C 0.63099 0.81191 0.29424 0.0
C3727 C 0.71248 0.85519 0.29664 0.0
H3728 H 0.6437 0.8799 0.23325 0.0
H3729 H 0.62626 0.90196 0.30506 0.0
H3730 H 0.68929 0.84011 0.24694 0.0
H3731 H 0.66169 0.82334 0.24549 0.0
H3732 H 0.66708 0.84675 0.22455 0.0
H3733 H 0.64279 0.88371 0.3388 0.0
H3734 H 0.64067 0.85208 0.33433 0.0
H3735 H 0.66962 0.86641 0.33421 0.0
H3736 H 0.65959 0.77432 0.29872 0.0
H3737 H 0.72838 0.81028 0.29948 0.0
H3738 H 0.62639 0.81498 0.27522 0.0
H3739 H 0.62268 0.82625 0.3051 0.0
H3740 H 0.62281 0.7947 0.29954 0.0
H3741 H 0.71438 0.86041 0.27766 0.0
H3742 H 0.73083 0.85262 0.3041 0.0
H3743 H 0.70377 0.87003 0.30646 0.0
C3744 C 0.85163 0.14963 0.74772 0.0
C3745 C 0.86481 0.13377 0.76139 0.0
C3746 C 0.84199 0.17015 0.75816 0.0
C3747 C 0.8451 0.17459 0.78304 0.0
C3748 C 0.85896 0.15897 0.79682 0.0
C3749 C 0.86887 0.13881 0.78574 0.0
C3750 C 0.82754 0.18648 0.74268 0.0
C3751 C 0.86212 0.16267 0.82345 0.0
C3752 C 0.82888 0.23724 0.8012 0.0
C3753 C 0.80394 0.23459 0.80479 0.0
C3754 C 0.84316 0.21748 0.79582 0.0
C3755 C 0.8322 0.19468 0.79455 0.0
C3756 C 0.8076 0.19177 0.80082 0.0
C3757 C 0.79368 0.21182 0.80559 0.0
C3758 C 0.86944 0.22119 0.78956 0.0
C3759 C 0.79543 0.16768 0.80047 0.0
H3760 H 0.84858 0.14584 0.72887 0.0
H3761 H 0.87891 0.12645 0.79641 0.0
H3762 H 0.80801 0.18366 0.74623 0.0
H3763 H 0.83191 0.20531 0.74693 0.0
H3764 H 0.83081 0.18317 0.7233 0.0
H3765 H 0.87667 0.1515 0.83072 0.0
H3766 H 0.86629 0.18149 0.82791 0.0
H3767 H 0.84499 0.15798 0.83263 0.0
H3768 H 0.83682 0.25488 0.80045 0.0
H3769 H 0.77441 0.20978 0.80852 0.0
H3770 H 0.87289 0.21467 0.77105 0.0
H3771 H 0.88092 0.21079 0.80164 0.0
H3772 H 0.8751 0.24012 0.79095 0.0
H3773 H 0.79259 0.16168 0.78165 0.0
H3774 H 0.77761 0.16797 0.80959 0.0
H3775 H 0.80697 0.15446 0.80924 0.0
loop_
_geom_bond_atom_site_label_1
_geom_bond_atom_site_label_2
_geom_bond_distance
_geom_bond_site_symmetry_2
_ccdc_geom_bond_type
C0 O1 1.306 . S
C0 O3 1.160 . S
O1 C0 1.306 . S
O1 Cd2 2.228 1_655 S
Cd2 O1 2.228 1_455 S
Cd2 O6 2.273 . S
Cd2 O10 2.277 . S
O3 C0 1.160 . S
O3 Cd4 2.203 1_655 S
Cd4 O3 2.203 1_455 S
Cd4 O6 2.411 . S
Cd4 O7 2.333 . S
Cd4 O8 2.352 . S
Cd4 O12 2.277 . S
Cd4 O13 2.356 . S
C5 O10 1.209 . S
C5 O12 1.226 . S
O6 Cd2 2.273 . S
O6 Cd4 2.411 . S
O6 C9 1.320 . S
O7 Cd4 2.333 . S
O7 C9 1.214 . S
O8 Cd4 2.352 . S
O8 C11 1.258 . S
C9 O6 1.320 . S
C9 O7 1.214 . S
O10 Cd2 2.277 . S
O10 C5 1.209 . S
C11 O8 1.258 . S
C11 O13 1.282 . S
O12 Cd4 2.277 . S
O12 C5 1.226 . S
O13 Cd4 2.356 . S
O13 C11 1.282 . S
C14 O15 1.306 . S
C14 O17 1.160 . S
O15 C14 1.306 . S
O15 Cd16 2.228 1_655 S
Cd16 O15 2.228 1_455 S
Cd16 O20 2.273 . S
Cd16 O24 2.277 . S
O17 C14 1.160 . S
O17 Cd18 2.203 1_655 S
Cd18 O17 2.203 1_455 S
Cd18 O20 2.411 . S
Cd18 O21 2.333 . S
Cd18 O22 2.352 . S
Cd18 O26 2.277 . S
Cd18 O27 2.356 . S
C19 O24 1.209 . S
C19 O26 1.226 . S
O20 Cd16 2.273 . S
O20 Cd18 2.411 . S
O20 C23 1.320 . S
O21 Cd18 2.333 . S
O21 C23 1.214 . S
O22 Cd18 2.352 . S
O22 C25 1.258 . S
C23 O20 1.320 . S
C23 O21 1.214 . S
O24 Cd16 2.277 . S
O24 C19 1.209 . S
C25 O22 1.258 . S
C25 O27 1.282 . S
O26 Cd18 2.277 . S
O26 C19 1.226 . S
O27 Cd18 2.356 . S
O27 C25 1.282 . S
C28 O29 1.306 . S
C28 O31 1.160 . S
O29 C28 1.306 . S
O29 Cd30 2.228 . S
Cd30 O29 2.228 . S
Cd30 O34 2.273 . S
Cd30 O38 2.277 . S
O31 C28 1.160 . S
O31 Cd32 2.203 . S
Cd32 O31 2.203 . S
Cd32 O34 2.411 . S
Cd32 O35 2.333 . S
Cd32 O36 2.352 . S
Cd32 O40 2.277 . S
Cd32 O41 2.356 . S
C33 O38 1.209 . S
C33 O40 1.226 . S
O34 Cd30 2.273 . S
O34 Cd32 2.411 . S
O34 C37 1.320 . S
O35 Cd32 2.333 . S
O35 C37 1.214 . S
O36 Cd32 2.352 . S
O36 C39 1.258 . S
C37 O34 1.320 . S
C37 O35 1.214 . S
O38 Cd30 2.277 . S
O38 C33 1.209 . S
C39 O36 1.258 . S
C39 O41 1.282 . S
O40 Cd32 2.277 . S
O40 C33 1.226 . S
O41 Cd32 2.356 . S
O41 C39 1.282 . S
C42 O43 1.306 . S
C42 O45 1.160 . S
O43 C42 1.306 . S
O43 Cd44 2.228 . S
Cd44 O43 2.228 . S
Cd44 O48 2.273 . S
Cd44 O52 2.277 . S
O45 C42 1.160 . S
O45 Cd46 2.203 . S
Cd46 O45 2.203 . S
Cd46 O48 2.411 . S
Cd46 O49 2.333 . S
Cd46 O50 2.352 . S
Cd46 O54 2.277 . S
Cd46 O55 2.356 . S
C47 O52 1.209 . S
C47 O54 1.226 . S
O48 Cd44 2.273 . S
O48 Cd46 2.411 . S
O48 C51 1.320 . S
O49 Cd46 2.333 . S
O49 C51 1.214 . S
O50 Cd46 2.352 . S
O50 C53 1.258 . S
C51 O48 1.320 . S
C51 O49 1.214 . S
O52 Cd44 2.277 . S
O52 C47 1.209 . S
C53 O50 1.258 . S
C53 O55 1.282 . S
O54 Cd46 2.277 . S
O54 C47 1.226 . S
O55 Cd46 2.356 . S
O55 C53 1.282 . S
C56 O57 1.306 . S
C56 O59 1.160 . S
O57 C56 1.306 . S
O57 Cd58 2.228 . S
Cd58 O57 2.228 . S
Cd58 O62 2.273 . S
Cd58 O66 2.277 . S
O59 C56 1.160 . S
O59 Cd60 2.203 . S
Cd60 O59 2.203 . S
Cd60 O62 2.411 . S
Cd60 O63 2.333 . S
Cd60 O64 2.352 1_545 S
Cd60 O68 2.277 . S
Cd60 O69 2.356 1_545 S
C61 O66 1.209 . S
C61 O68 1.226 . S
O62 Cd58 2.273 . S
O62 Cd60 2.411 . S
O62 C65 1.320 . S
O63 Cd60 2.333 . S
O63 C65 1.214 . S
O64 Cd60 2.352 1_565 S
O64 C67 1.258 . S
C65 O62 1.320 . S
C65 O63 1.214 . S
O66 Cd58 2.277 . S
O66 C61 1.209 . S
C67 O64 1.258 . S
C67 O69 1.282 . S
O68 Cd60 2.277 . S
O68 C61 1.226 . S
O69 Cd60 2.356 1_565 S
O69 C67 1.282 . S
C70 O71 1.306 . S
C70 O73 1.160 . S
O71 C70 1.306 . S
O71 Cd72 2.228 . S
Cd72 O71 2.228 . S
Cd72 O76 2.273 . S
Cd72 O80 2.277 . S
O73 C70 1.160 . S
O73 Cd74 2.203 . S
Cd74 O73 2.203 . S
Cd74 O76 2.411 . S
Cd74 O77 2.333 . S
Cd74 O78 2.352 . S
Cd74 O82 2.277 . S
Cd74 O83 2.356 . S
C75 O80 1.209 . S
C75 O82 1.226 . S
O76 Cd72 2.273 . S
O76 Cd74 2.411 . S
O76 C79 1.320 . S
O77 Cd74 2.333 . S
O77 C79 1.214 . S
O78 Cd74 2.352 . S
O78 C81 1.258 . S
C79 O76 1.320 . S
C79 O77 1.214 . S
O80 Cd72 2.277 . S
O80 C75 1.209 . S
C81 O78 1.258 . S
C81 O83 1.282 . S
O82 Cd74 2.277 . S
O82 C75 1.226 . S
O83 Cd74 2.356 . S
O83 C81 1.282 . S
C84 O85 1.306 . S
C84 O87 1.160 1_565 S
O85 C84 1.306 . S
O85 Cd86 2.228 . S
Cd86 O85 2.228 . S
Cd86 O90 2.305 . S
Cd86 O94 2.277 . S
O87 C84 1.160 1_545 S
O87 Cd88 2.203 . S
Cd88 O87 2.203 . S
Cd88 O90 2.407 1_545 S
Cd88 O91 2.333 . S
Cd88 O92 2.352 . S
Cd88 O96 2.277 1_545 S
Cd88 O97 2.356 . S
C89 O94 1.209 . S
C89 O96 1.226 . S
O90 Cd86 2.305 . S
O90 Cd88 2.407 1_565 S
O90 C93 1.317 1_565 S
O91 Cd88 2.333 . S
O91 C93 1.214 . S
O92 Cd88 2.352 . S
O92 C95 1.258 . S
C93 O90 1.317 1_545 S
C93 O91 1.214 . S
O94 Cd86 2.277 . S
O94 C89 1.209 . S
C95 O92 1.258 . S
C95 O97 1.282 . S
O96 Cd88 2.277 1_565 S
O96 C89 1.226 . S
O97 Cd88 2.356 . S
O97 C95 1.282 . S
C98 O99 1.306 . S
C98 O101 1.160 . S
O99 C98 1.306 . S
O99 Cd100 2.228 . S
Cd100 O99 2.228 . S
Cd100 O104 2.273 . S
Cd100 O108 2.277 . S
O101 C98 1.160 . S
O101 Cd102 2.203 . S
Cd102 O101 2.203 . S
Cd102 O104 2.411 . S
Cd102 O105 2.333 . S
Cd102 O106 2.352 1_554 S
Cd102 O110 2.277 . S
Cd102 O111 2.356 1_554 S
C103 O108 1.209 . S
C103 O110 1.226 . S
O104 Cd100 2.273 . S
O104 Cd102 2.411 . S
O104 C107 1.320 . S
O105 Cd102 2.333 . S
O105 C107 1.214 . S
O106 Cd102 2.352 1_556 S
O106 C109 1.258 . S
C107 O104 1.320 . S
C107 O105 1.214 . S
O108 Cd100 2.277 . S
O108 C103 1.209 . S
C109 O106 1.258 . S
C109 O111 1.282 . S
O110 Cd102 2.277 . S
O110 C103 1.226 . S
O111 Cd102 2.356 1_556 S
O111 C109 1.282 . S
C112 O113 1.306 1_554 S
C112 O115 1.160 . S
O113 C112 1.306 1_556 S
O113 Cd114 2.228 . S
Cd114 O113 2.228 . S
Cd114 O118 2.273 1_556 S
Cd114 O122 2.277 . S
O115 C112 1.160 . S
O115 Cd116 2.203 . S
Cd116 O115 2.203 . S
Cd116 O118 2.411 . S
Cd116 O119 2.333 . S
Cd116 O120 2.352 . S
Cd116 O124 2.277 1_554 S
Cd116 O125 2.356 . S
C117 O122 1.209 . S
C117 O124 1.226 . S
O118 Cd114 2.273 1_554 S
O118 Cd116 2.411 . S
O118 C121 1.320 . S
O119 Cd116 2.333 . S
O119 C121 1.214 . S
O120 Cd116 2.352 . S
O120 C123 1.258 . S
C121 O118 1.320 . S
C121 O119 1.214 . S
O122 Cd114 2.277 . S
O122 C117 1.209 . S
C123 O120 1.258 . S
C123 O125 1.282 . S
O124 Cd116 2.277 1_556 S
O124 C117 1.226 . S
O125 Cd116 2.356 . S
O125 C123 1.282 . S
C126 O127 1.306 . S
C126 O129 1.160 . S
O127 C126 1.306 . S
O127 Cd128 2.228 . S
Cd128 O127 2.228 . S
Cd128 O132 2.273 . S
Cd128 O136 2.277 . S
O129 C126 1.160 . S
O129 Cd130 2.203 . S
Cd130 O129 2.203 . S
Cd130 O132 2.411 . S
Cd130 O133 2.333 . S
Cd130 O134 2.352 . S
Cd130 O138 2.277 . S
Cd130 O139 2.356 . S
C131 O136 1.209 . S
C131 O138 1.226 . S
O132 Cd128 2.273 . S
O132 Cd130 2.411 . S
O132 C135 1.320 . S
O133 Cd130 2.333 . S
O133 C135 1.214 . S
O134 Cd130 2.352 . S
O134 C137 1.258 . S
C135 O132 1.320 . S
C135 O133 1.214 . S
O136 Cd128 2.277 . S
O136 C131 1.209 . S
C137 O134 1.258 . S
C137 O139 1.282 . S
O138 Cd130 2.277 . S
O138 C131 1.226 . S
O139 Cd130 2.356 . S
O139 C137 1.282 . S
C140 O141 1.306 . S
C140 O143 1.160 . S
O141 C140 1.306 . S
O141 Cd142 2.228 . S
Cd142 O141 2.228 . S
Cd142 O146 2.273 . S
Cd142 O150 2.277 . S
O143 C140 1.160 . S
O143 Cd144 2.203 . S
Cd144 O143 2.203 . S
Cd144 O146 2.411 . S
Cd144 O147 2.333 . S
Cd144 O148 2.352 . S
Cd144 O152 2.277 . S
Cd144 O153 2.356 . S
C145 O150 1.209 . S
C145 O152 1.226 . S
O146 Cd142 2.273 . S
O146 Cd144 2.411 . S
O146 C149 1.320 . S
O147 Cd144 2.333 . S
O147 C149 1.214 . S
O148 Cd144 2.352 . S
O148 C151 1.258 . S
C149 O146 1.320 . S
C149 O147 1.214 . S
O150 Cd142 2.277 . S
O150 C145 1.209 . S
C151 O148 1.258 . S
C151 O153 1.282 . S
O152 Cd144 2.277 . S
O152 C145 1.226 . S
O153 Cd144 2.356 . S
O153 C151 1.282 . S
C154 O155 1.306 . S
C154 O157 1.160 . S
O155 C154 1.306 . S
O155 Cd156 2.228 . S
Cd156 O155 2.228 . S
Cd156 O160 2.273 . S
Cd156 O164 2.277 . S
O157 C154 1.160 . S
O157 Cd158 2.203 . S
Cd158 O157 2.203 . S
Cd158 O160 2.411 . S
Cd158 O161 2.333 . S
Cd158 O162 2.352 . S
Cd158 O166 2.277 . S
Cd158 O167 2.356 . S
C159 O164 1.209 . S
C159 O166 1.226 . S
O160 Cd156 2.273 . S
O160 Cd158 2.411 . S
O160 C163 1.320 . S
O161 Cd158 2.333 . S
O161 C163 1.214 . S
O162 Cd158 2.352 . S
O162 C165 1.258 . S
C163 O160 1.320 . S
C163 O161 1.214 . S
O164 Cd156 2.277 . S
O164 C159 1.209 . S
C165 O162 1.258 . S
C165 O167 1.282 . S
O166 Cd158 2.277 . S
O166 C159 1.226 . S
O167 Cd158 2.356 . S
O167 C165 1.282 . S
C168 O169 1.306 . S
C168 O171 1.160 . S
O169 C168 1.306 . S
O169 Cd170 2.228 1_655 S
Cd170 O169 2.228 1_455 S
Cd170 O174 2.273 . S
Cd170 O178 2.277 . S
O171 C168 1.160 . S
O171 Cd172 2.203 1_655 S
Cd172 O171 2.203 1_455 S
Cd172 O174 2.411 . S
Cd172 O175 2.333 . S
Cd172 O176 2.352 . S
Cd172 O180 2.277 . S
Cd172 O181 2.356 . S
C173 O178 1.209 . S
C173 O180 1.226 . S
O174 Cd170 2.273 . S
O174 Cd172 2.411 . S
O174 C177 1.320 . S
O175 Cd172 2.333 . S
O175 C177 1.214 . S
O176 Cd172 2.352 . S
O176 C179 1.258 . S
C177 O174 1.320 . S
C177 O175 1.214 . S
O178 Cd170 2.277 . S
O178 C173 1.209 . S
C179 O176 1.258 . S
C179 O181 1.282 . S
O180 Cd172 2.277 . S
O180 C173 1.226 . S
O181 Cd172 2.356 . S
O181 C179 1.282 . S
C182 O183 1.306 . S
C182 O185 1.160 . S
O183 C182 1.306 . S
O183 Cd184 2.228 1_655 S
Cd184 O183 2.228 1_455 S
Cd184 O188 2.273 . S
Cd184 O192 2.277 . S
O185 C182 1.160 . S
O185 Cd186 2.203 1_655 S
Cd186 O185 2.203 1_455 S
Cd186 O188 2.411 . S
Cd186 O189 2.333 . S
Cd186 O190 2.352 . S
Cd186 O194 2.277 . S
Cd186 O195 2.356 . S
C187 O192 1.209 . S
C187 O194 1.226 . S
O188 Cd184 2.273 . S
O188 Cd186 2.411 . S
O188 C191 1.320 . S
O189 Cd186 2.333 . S
O189 C191 1.214 . S
O190 Cd186 2.352 . S
O190 C193 1.258 . S
C191 O188 1.320 . S
C191 O189 1.214 . S
O192 Cd184 2.277 . S
O192 C187 1.209 . S
C193 O190 1.258 . S
C193 O195 1.282 . S
O194 Cd186 2.277 . S
O194 C187 1.226 . S
O195 Cd186 2.356 . S
O195 C193 1.282 . S
C196 O197 1.306 . S
C196 O199 1.160 . S
O197 C196 1.306 . S
O197 Cd198 2.228 . S
Cd198 O197 2.228 . S
Cd198 O202 2.273 . S
Cd198 O206 2.277 . S
O199 C196 1.160 . S
O199 Cd200 2.203 . S
Cd200 O199 2.203 . S
Cd200 O202 2.411 . S
Cd200 O203 2.333 . S
Cd200 O204 2.352 . S
Cd200 O208 2.277 . S
Cd200 O209 2.356 . S
C201 O206 1.209 . S
C201 O208 1.226 . S
O202 Cd198 2.273 . S
O202 Cd200 2.411 . S
O202 C205 1.320 . S
O203 Cd200 2.333 . S
O203 C205 1.214 . S
O204 Cd200 2.352 . S
O204 C207 1.258 . S
C205 O202 1.320 . S
C205 O203 1.214 . S
O206 Cd198 2.277 . S
O206 C201 1.209 . S
C207 O204 1.258 . S
C207 O209 1.282 . S
O208 Cd200 2.277 . S
O208 C201 1.226 . S
O209 Cd200 2.356 . S
O209 C207 1.282 . S
C210 O211 1.306 . S
C210 O213 1.160 . S
O211 C210 1.306 . S
O211 Cd212 2.228 . S
Cd212 O211 2.228 . S
Cd212 O216 2.273 . S
Cd212 O220 2.277 . S
O213 C210 1.160 . S
O213 Cd214 2.203 . S
Cd214 O213 2.203 . S
Cd214 O216 2.411 . S
Cd214 O217 2.333 . S
Cd214 O218 2.352 . S
Cd214 O222 2.277 . S
Cd214 O223 2.356 . S
C215 O220 1.209 . S
C215 O222 1.226 . S
O216 Cd212 2.273 . S
O216 Cd214 2.411 . S
O216 C219 1.320 . S
O217 Cd214 2.333 . S
O217 C219 1.214 . S
O218 Cd214 2.352 . S
O218 C221 1.258 . S
C219 O216 1.320 . S
C219 O217 1.214 . S
O220 Cd212 2.277 . S
O220 C215 1.209 . S
C221 O218 1.258 . S
C221 O223 1.282 . S
O222 Cd214 2.277 . S
O222 C215 1.226 . S
O223 Cd214 2.356 . S
O223 C221 1.282 . S
C224 O225 1.306 . S
C224 O227 1.160 . S
O225 C224 1.306 . S
O225 Cd226 2.228 1_545 S
Cd226 O225 2.228 1_565 S
Cd226 O230 2.273 1_565 S
Cd226 O234 2.277 . S
O227 C224 1.160 . S
O227 Cd228 2.203 . S
Cd228 O227 2.203 . S
Cd228 O230 2.411 . S
Cd228 O231 2.333 . S
Cd228 O232 2.352 . S
Cd228 O236 2.277 1_545 S
Cd228 O237 2.356 . S
C229 O234 1.209 . S
C229 O236 1.226 . S
O230 Cd226 2.273 1_545 S
O230 Cd228 2.411 . S
O230 C233 1.320 . S
O231 Cd228 2.333 . S
O231 C233 1.214 . S
O232 Cd228 2.352 . S
O232 C235 1.258 . S
C233 O230 1.320 . S
C233 O231 1.214 . S
O234 Cd226 2.277 . S
O234 C229 1.209 . S
C235 O232 1.258 . S
C235 O237 1.282 . S
O236 Cd228 2.277 1_565 S
O236 C229 1.226 . S
O237 Cd228 2.356 . S
O237 C235 1.282 . S
C238 O239 1.306 . S
C238 O241 1.160 . S
O239 C238 1.306 . S
O239 Cd240 2.228 . S
Cd240 O239 2.228 . S
Cd240 O244 2.273 . S
Cd240 O248 2.277 . S
O241 C238 1.160 . S
O241 Cd242 2.203 . S
Cd242 O241 2.203 . S
Cd242 O244 2.411 . S
Cd242 O245 2.333 . S
Cd242 O246 2.352 . S
Cd242 O250 2.277 . S
Cd242 O251 2.356 . S
C243 O248 1.209 . S
C243 O250 1.226 . S
O244 Cd240 2.273 . S
O244 Cd242 2.411 . S
O244 C247 1.320 . S
O245 Cd242 2.333 . S
O245 C247 1.214 . S
O246 Cd242 2.352 . S
O246 C249 1.258 . S
C247 O244 1.320 . S
C247 O245 1.214 . S
O248 Cd240 2.277 . S
O248 C243 1.209 . S
C249 O246 1.258 . S
C249 O251 1.282 . S
O250 Cd242 2.277 . S
O250 C243 1.226 . S
O251 Cd242 2.356 . S
O251 C249 1.282 . S
C252 O253 1.306 . S
C252 O255 1.160 1_545 S
O253 C252 1.306 . S
O253 Cd254 2.228 . S
Cd254 O253 2.228 . S
Cd254 O258 2.273 . S
Cd254 O262 2.277 . S
O255 C252 1.160 1_565 S
O255 Cd256 2.203 . S
Cd256 O255 2.203 . S
Cd256 O258 2.411 1_565 S
Cd256 O259 2.333 . S
Cd256 O260 2.352 . S
Cd256 O264 2.277 1_565 S
Cd256 O265 2.356 . S
C257 O262 1.209 . S
C257 O264 1.226 . S
O258 Cd254 2.273 . S
O258 Cd256 2.411 1_545 S
O258 C261 1.317 1_545 S
O259 Cd256 2.333 . S
O259 C261 1.222 . S
O260 Cd256 2.352 . S
O260 C263 1.258 . S
C261 O258 1.317 1_565 S
C261 O259 1.222 . S
O262 Cd254 2.277 . S
O262 C257 1.209 . S
C263 O260 1.258 . S
C263 O265 1.282 . S
O264 Cd256 2.277 1_545 S
O264 C257 1.226 . S
O265 Cd256 2.356 . S
O265 C263 1.282 . S
C266 O267 1.306 1_554 S
C266 O269 1.160 . S
O267 C266 1.306 1_556 S
O267 Cd268 2.228 . S
Cd268 O267 2.228 . S
Cd268 O272 2.273 1_556 S
Cd268 O276 2.277 . S
O269 C266 1.160 . S
O269 Cd270 2.203 . S
Cd270 O269 2.203 . S
Cd270 O272 2.411 . S
Cd270 O273 2.333 . S
Cd270 O274 2.352 . S
Cd270 O278 2.277 1_554 S
Cd270 O279 2.356 . S
C271 O276 1.209 . S
C271 O278 1.226 . S
O272 Cd268 2.273 1_554 S
O272 Cd270 2.411 . S
O272 C275 1.320 . S
O273 Cd270 2.333 . S
O273 C275 1.214 . S
O274 Cd270 2.352 . S
O274 C277 1.258 . S
C275 O272 1.320 . S
C275 O273 1.214 . S
O276 Cd268 2.277 . S
O276 C271 1.209 . S
C277 O274 1.258 . S
C277 O279 1.282 . S
O278 Cd270 2.277 1_556 S
O278 C271 1.226 . S
O279 Cd270 2.356 . S
O279 C277 1.282 . S
C280 O281 1.306 . S
C280 O283 1.159 . S
O281 C280 1.306 . S
O281 Cd282 2.228 . S
Cd282 O281 2.228 . S
Cd282 O286 2.273 . S
Cd282 O290 2.277 . S
O283 C280 1.159 . S
O283 Cd284 2.203 1_554 S
Cd284 O283 2.203 1_556 S
Cd284 O286 2.411 1_556 S
Cd284 O287 2.333 . S
Cd284 O288 2.352 . S
Cd284 O292 2.277 1_556 S
Cd284 O293 2.356 . S
C285 O290 1.209 . S
C285 O292 1.226 . S
O286 Cd282 2.273 . S
O286 Cd284 2.411 1_554 S
O286 C289 1.320 . S
O287 Cd284 2.333 . S
O287 C289 1.209 1_556 S
O288 Cd284 2.352 . S
O288 C291 1.258 . S
C289 O286 1.320 . S
C289 O287 1.209 1_554 S
O290 Cd282 2.277 . S
O290 C285 1.209 . S
C291 O288 1.258 . S
C291 O293 1.282 . S
O292 Cd284 2.277 1_554 S
O292 C285 1.226 . S
O293 Cd284 2.356 . S
O293 C291 1.282 . S
C294 O295 1.306 . S
C294 O297 1.160 . S
O295 C294 1.306 . S
O295 Cd296 2.228 . S
Cd296 O295 2.228 . S
Cd296 O300 2.273 . S
Cd296 O304 2.277 . S
O297 C294 1.160 . S
O297 Cd298 2.203 . S
Cd298 O297 2.203 . S
Cd298 O300 2.411 . S
Cd298 O301 2.333 . S
Cd298 O302 2.352 . S
Cd298 O306 2.277 . S
Cd298 O307 2.356 . S
C299 O304 1.209 . S
C299 O306 1.226 . S
O300 Cd296 2.273 . S
O300 Cd298 2.411 . S
O300 C303 1.320 . S
O301 Cd298 2.333 . S
O301 C303 1.214 . S
O302 Cd298 2.352 . S
O302 C305 1.258 . S
C303 O300 1.320 . S
C303 O301 1.214 . S
O304 Cd296 2.277 . S
O304 C299 1.209 . S
C305 O302 1.258 . S
C305 O307 1.282 . S
O306 Cd298 2.277 . S
O306 C299 1.226 . S
O307 Cd298 2.356 . S
O307 C305 1.282 . S
C308 O309 1.306 . S
C308 O311 1.160 . S
O309 C308 1.306 . S
O309 Cd310 2.228 . S
Cd310 O309 2.228 . S
Cd310 O314 2.273 . S
Cd310 O318 2.277 . S
O311 C308 1.160 . S
O311 Cd312 2.203 . S
Cd312 O311 2.203 . S
Cd312 O314 2.411 . S
Cd312 O315 2.333 . S
Cd312 O316 2.352 . S
Cd312 O320 2.277 . S
Cd312 O321 2.356 . S
C313 O318 1.209 . S
C313 O320 1.226 . S
O314 Cd310 2.273 . S
O314 Cd312 2.411 . S
O314 C317 1.320 . S
O315 Cd312 2.333 . S
O315 C317 1.214 . S
O316 Cd312 2.352 . S
O316 C319 1.258 . S
C317 O314 1.320 . S
C317 O315 1.214 . S
O318 Cd310 2.277 . S
O318 C313 1.209 . S
C319 O316 1.258 . S
C319 O321 1.282 . S
O320 Cd312 2.277 . S
O320 C313 1.226 . S
O321 Cd312 2.356 . S
O321 C319 1.282 . S
C322 O323 1.306 . S
C322 O325 1.160 . S
O323 C322 1.306 . S
O323 Cd324 2.228 . S
Cd324 O323 2.228 . S
Cd324 O328 2.273 . S
Cd324 O332 2.277 . S
O325 C322 1.160 . S
O325 Cd326 2.203 . S
Cd326 O325 2.203 . S
Cd326 O328 2.411 . S
Cd326 O329 2.333 . S
Cd326 O330 2.352 . S
Cd326 O334 2.277 . S
Cd326 O335 2.356 . S
C327 O332 1.209 . S
C327 O334 1.226 . S
O328 Cd324 2.273 . S
O328 Cd326 2.411 . S
O328 C331 1.320 . S
O329 Cd326 2.333 . S
O329 C331 1.214 . S
O330 Cd326 2.352 . S
O330 C333 1.258 . S
C331 O328 1.320 . S
C331 O329 1.214 . S
O332 Cd324 2.277 . S
O332 C327 1.209 . S
C333 O330 1.258 . S
C333 O335 1.282 . S
O334 Cd326 2.277 . S
O334 C327 1.226 . S
O335 Cd326 2.356 . S
O335 C333 1.282 . S
O336 Zn337 1.953 . S
O336 C352 1.225 1_455 S
Zn337 O336 1.953 . S
Zn337 O338 1.964 . S
Zn337 O344 1.919 1_554 S
Zn337 O349 1.924 1_454 S
O338 Zn337 1.964 . S
O338 Zn339 1.957 1_545 S
O338 Zn340 1.924 1_455 S
O338 Zn341 1.924 1_444 S
Zn339 O338 1.957 1_565 S
Zn339 O342 1.933 . S
Zn339 O345 1.941 1_565 S
Zn339 O346 1.965 . S
Zn340 O338 1.924 1_655 S
Zn340 O347 1.938 . S
Zn340 O348 1.906 1_545 S
Zn340 O358 1.953 . S
Zn341 O338 1.924 1_666 S
Zn341 O343 1.932 . S
Zn341 O350 1.977 1_556 S
Zn341 O351 1.910 1_565 S
O342 Zn339 1.933 . S
O342 C353 1.226 1_554 S
O343 Zn341 1.932 . S
O343 C353 1.307 1_655 S
O344 Zn337 1.919 1_556 S
O344 C355 1.253 1_556 S
O345 Zn339 1.941 1_545 S
O345 C355 1.283 . S
O346 Zn339 1.965 . S
O346 C354 1.303 1_565 S
O347 Zn340 1.938 . S
O347 C354 1.247 1_655 S
O348 Zn340 1.906 1_565 S
O348 C356 1.304 . S
O349 Zn337 1.924 1_656 S
O349 C357 1.311 . S
O350 Zn341 1.977 1_554 S
O350 C356 1.272 . S
O351 Zn341 1.910 1_545 S
O351 C357 1.231 . S
C352 O336 1.225 1_655 S
C352 O358 1.298 . S
C353 O342 1.226 1_556 S
C353 O343 1.307 1_455 S
C354 O346 1.303 1_545 S
C354 O347 1.247 1_455 S
C355 O344 1.253 1_554 S
C355 O345 1.283 . S
C356 O348 1.304 . S
C356 O350 1.272 . S
C357 O349 1.311 . S
C357 O351 1.231 . S
O358 Zn340 1.953 . S
O358 C352 1.298 . S
O359 Zn360 1.953 . S
O359 C375 1.225 . S
Zn360 O359 1.953 . S
Zn360 O361 1.949 . S
Zn360 O367 1.919 . S
Zn360 O372 1.924 . S
O361 Zn360 1.949 . S
O361 Zn362 1.923 . S
O361 Zn363 1.950 . S
O361 Zn364 1.945 . S
Zn362 O361 1.923 . S
Zn362 O365 1.933 . S
Zn362 O368 1.941 . S
Zn362 O369 1.965 . S
Zn363 O361 1.950 . S
Zn363 O370 1.938 . S
Zn363 O371 1.906 . S
Zn363 O381 1.953 . S
Zn364 O361 1.945 . S
Zn364 O366 1.932 . S
Zn364 O373 1.977 . S
Zn364 O374 1.910 . S
O365 Zn362 1.933 . S
O365 C376 1.226 . S
O366 Zn364 1.932 . S
O366 C376 1.307 . S
O367 Zn360 1.919 . S
O367 C378 1.253 . S
O368 Zn362 1.941 . S
O368 C378 1.283 . S
O369 Zn362 1.965 . S
O369 C377 1.303 . S
O370 Zn363 1.938 . S
O370 C377 1.247 . S
O371 Zn363 1.906 . S
O371 C379 1.304 . S
O372 Zn360 1.924 . S
O372 C380 1.311 . S
O373 Zn364 1.977 . S
O373 C379 1.272 . S
O374 Zn364 1.910 . S
O374 C380 1.231 . S
C375 O359 1.225 . S
C375 O381 1.298 . S
C376 O365 1.226 . S
C376 O366 1.307 . S
C377 O369 1.303 . S
C377 O370 1.247 . S
C378 O367 1.253 . S
C378 O368 1.283 . S
C379 O371 1.304 . S
C379 O373 1.272 . S
C380 O372 1.311 . S
C380 O374 1.231 . S
O381 Zn363 1.953 . S
O381 C375 1.298 . S
O382 Zn383 1.953 . S
O382 C398 1.225 . S
Zn383 O382 1.953 . S
Zn383 O384 1.949 1_565 S
Zn383 O390 1.919 . S
Zn383 O395 1.924 . S
O384 Zn383 1.949 1_545 S
O384 Zn385 1.923 . S
O384 Zn386 1.950 . S
O384 Zn387 1.945 . S
Zn385 O384 1.923 . S
Zn385 O388 1.933 . S
Zn385 O391 1.941 . S
Zn385 O392 1.965 . S
Zn386 O384 1.950 . S
Zn386 O393 1.938 . S
Zn386 O394 1.906 . S
Zn386 O404 1.953 1_545 S
Zn387 O384 1.945 . S
Zn387 O389 1.932 . S
Zn387 O396 1.977 . S
Zn387 O397 1.910 . S
O388 Zn385 1.933 . S
O388 C399 1.226 . S
O389 Zn387 1.932 . S
O389 C399 1.307 . S
O390 Zn383 1.919 . S
O390 C401 1.253 . S
O391 Zn385 1.941 . S
O391 C401 1.283 1_545 S
O392 Zn385 1.965 . S
O392 C400 1.303 . S
O393 Zn386 1.938 . S
O393 C400 1.247 . S
O394 Zn386 1.906 . S
O394 C402 1.304 . S
O395 Zn383 1.924 . S
O395 C403 1.311 . S
O396 Zn387 1.977 . S
O396 C402 1.272 . S
O397 Zn387 1.910 . S
O397 C403 1.231 1_545 S
C398 O382 1.225 . S
C398 O404 1.298 . S
C399 O388 1.226 . S
C399 O389 1.307 . S
C400 O392 1.303 . S
C400 O393 1.247 . S
C401 O390 1.253 . S
C401 O391 1.283 1_565 S
C402 O394 1.304 . S
C402 O396 1.272 . S
C403 O395 1.311 . S
C403 O397 1.231 1_565 S
O404 Zn386 1.953 1_565 S
O404 C398 1.298 . S
O405 Zn406 1.953 . S
O405 C421 1.225 . S
Zn406 O405 1.953 . S
Zn406 O407 1.949 . S
Zn406 O413 1.919 . S
Zn406 O418 1.924 . S
O407 Zn406 1.949 . S
O407 Zn408 1.923 . S
O407 Zn409 1.950 . S
O407 Zn410 1.945 . S
Zn408 O407 1.923 . S
Zn408 O411 1.933 . S
Zn408 O414 1.941 . S
Zn408 O415 1.965 . S
Zn409 O407 1.950 . S
Zn409 O416 1.938 . S
Zn409 O417 1.906 . S
Zn409 O427 1.953 . S
Zn410 O407 1.945 . S
Zn410 O412 1.932 . S
Zn410 O419 1.977 . S
Zn410 O420 1.910 . S
O411 Zn408 1.933 . S
O411 C422 1.226 . S
O412 Zn410 1.932 . S
O412 C422 1.307 . S
O413 Zn406 1.919 . S
O413 C424 1.253 . S
O414 Zn408 1.941 . S
O414 C424 1.283 . S
O415 Zn408 1.965 . S
O415 C423 1.303 . S
O416 Zn409 1.938 . S
O416 C423 1.247 . S
O417 Zn409 1.906 . S
O417 C425 1.304 . S
O418 Zn406 1.924 . S
O418 C426 1.311 . S
O419 Zn410 1.977 . S
O419 C425 1.272 . S
O420 Zn410 1.910 . S
O420 C426 1.231 . S
C421 O405 1.225 . S
C421 O427 1.298 . S
C422 O411 1.226 . S
C422 O412 1.307 . S
C423 O415 1.303 . S
C423 O416 1.247 . S
C424 O413 1.253 . S
C424 O414 1.283 . S
C425 O417 1.304 . S
C425 O419 1.272 . S
C426 O418 1.311 . S
C426 O420 1.231 . S
O427 Zn409 1.953 . S
O427 C421 1.298 . S
O428 Zn429 1.966 1_455 S
O428 C444 1.225 . S
Zn429 O428 1.966 1_655 S
Zn429 O430 1.963 1_655 S
Zn429 O436 1.877 1_545 S
Zn429 O441 1.945 . S
O430 Zn429 1.963 1_455 S
O430 Zn431 1.923 1_545 S
O430 Zn432 1.950 . S
O430 Zn433 1.945 1_455 S
Zn431 O430 1.923 1_565 S
Zn431 O434 1.933 . S
Zn431 O437 1.941 . S
Zn431 O438 1.965 . S
Zn432 O430 1.950 . S
Zn432 O439 1.938 . S
Zn432 O440 1.906 . S
Zn432 O450 1.953 . S
Zn433 O430 1.945 1_655 S
Zn433 O435 1.932 . S
Zn433 O442 1.977 . S
Zn433 O443 1.910 . S
O434 Zn431 1.933 . S
O434 C445 1.226 1_455 S
O435 Zn433 1.932 . S
O435 C445 1.307 1_545 S
O436 Zn429 1.877 1_565 S
O436 C447 1.253 . S
O437 Zn431 1.941 . S
O437 C447 1.283 1_455 S
O438 Zn431 1.965 . S
O438 C446 1.303 . S
O439 Zn432 1.938 . S
O439 C446 1.247 1_545 S
O440 Zn432 1.906 . S
O440 C448 1.304 . S
O441 Zn429 1.945 . S
O441 C449 1.311 . S
O442 Zn433 1.977 . S
O442 C448 1.272 1_655 S
O443 Zn433 1.910 . S
O443 C449 1.231 . S
C444 O428 1.225 . S
C444 O450 1.298 . S
C445 O434 1.226 1_655 S
C445 O435 1.307 1_565 S
C446 O438 1.303 . S
C446 O439 1.247 1_565 S
C447 O436 1.253 . S
C447 O437 1.283 1_655 S
C448 O440 1.304 . S
C448 O442 1.272 1_455 S
C449 O441 1.311 . S
C449 O443 1.231 . S
O450 Zn432 1.953 . S
O450 C444 1.298 . S
O451 Zn452 1.953 . S
O451 C467 1.225 . S
Zn452 O451 1.953 . S
Zn452 O453 1.949 . S
Zn452 O459 1.919 . S
Zn452 O464 1.924 . S
O453 Zn452 1.949 . S
O453 Zn454 1.923 . S
O453 Zn455 1.950 . S
O453 Zn456 1.945 . S
Zn454 O453 1.923 . S
Zn454 O457 1.933 . S
Zn454 O460 1.941 . S
Zn454 O461 1.965 . S
Zn455 O453 1.950 . S
Zn455 O462 1.938 . S
Zn455 O463 1.906 . S
Zn455 O473 1.953 . S
Zn456 O453 1.945 . S
Zn456 O458 1.932 . S
Zn456 O465 1.977 . S
Zn456 O466 1.910 . S
O457 Zn454 1.933 . S
O457 C468 1.226 . S
O458 Zn456 1.932 . S
O458 C468 1.307 . S
O459 Zn452 1.919 . S
O459 C470 1.253 . S
O460 Zn454 1.941 . S
O460 C470 1.283 . S
O461 Zn454 1.965 . S
O461 C469 1.303 . S
O462 Zn455 1.938 . S
O462 C469 1.247 . S
O463 Zn455 1.906 . S
O463 C471 1.304 . S
O464 Zn452 1.924 . S
O464 C472 1.311 . S
O465 Zn456 1.977 . S
O465 C471 1.272 . S
O466 Zn456 1.910 . S
O466 C472 1.231 . S
C467 O451 1.225 . S
C467 O473 1.298 . S
C468 O457 1.226 . S
C468 O458 1.307 . S
C469 O461 1.303 . S
C469 O462 1.247 . S
C470 O459 1.253 . S
C470 O460 1.283 . S
C471 O463 1.304 . S
C471 O465 1.272 . S
C472 O464 1.311 . S
C472 O466 1.231 . S
O473 Zn455 1.953 . S
O473 C467 1.298 . S
O474 Zn475 1.953 . S
O474 C490 1.225 . S
Zn475 O474 1.953 . S
Zn475 O476 1.949 . S
Zn475 O482 1.919 1_545 S
Zn475 O487 1.924 . S
O476 Zn475 1.949 . S
O476 Zn477 1.936 1_545 S
O476 Zn478 1.950 . S
O476 Zn479 1.945 1_554 S
Zn477 O476 1.936 1_565 S
Zn477 O480 1.905 1_554 S
Zn477 O483 1.938 1_554 S
Zn477 O484 1.984 . S
Zn478 O476 1.950 . S
Zn478 O485 1.938 1_545 S
Zn478 O486 1.906 . S
Zn478 O496 1.953 . S
Zn479 O476 1.945 1_556 S
Zn479 O481 1.932 . S
Zn479 O488 1.977 1_556 S
Zn479 O489 1.910 . S
O480 Zn477 1.905 1_556 S
O480 C491 1.226 . S
O481 Zn479 1.932 . S
O481 C491 1.307 1_545 S
O482 Zn475 1.919 1_565 S
O482 C493 1.253 1_554 S
O483 Zn477 1.938 1_556 S
O483 C493 1.283 . S
O484 Zn477 1.984 . S
O484 C492 1.303 . S
O485 Zn478 1.938 1_565 S
O485 C492 1.247 . S
O486 Zn478 1.906 . S
O486 C494 1.304 . S
O487 Zn475 1.924 . S
O487 C495 1.311 . S
O488 Zn479 1.977 1_554 S
O488 C494 1.272 . S
O489 Zn479 1.910 . S
O489 C495 1.231 1_556 S
C490 O474 1.225 . S
C490 O496 1.298 . S
C491 O480 1.226 . S
C491 O481 1.307 1_565 S
C492 O484 1.303 . S
C492 O485 1.247 . S
C493 O482 1.253 1_556 S
C493 O483 1.283 . S
C494 O486 1.304 . S
C494 O488 1.272 . S
C495 O487 1.311 . S
C495 O489 1.231 1_554 S
O496 Zn478 1.953 . S
O496 C490 1.298 . S
O497 Zn498 1.953 . S
O497 C513 1.225 . S
Zn498 O497 1.953 . S
Zn498 O499 1.949 . S
Zn498 O505 1.919 . S
Zn498 O510 1.924 . S
O499 Zn498 1.949 . S
O499 Zn500 1.923 . S
O499 Zn501 1.950 . S
O499 Zn502 1.945 . S
Zn500 O499 1.923 . S
Zn500 O503 1.933 . S
Zn500 O506 1.941 . S
Zn500 O507 1.965 . S
Zn501 O499 1.950 . S
Zn501 O508 1.938 . S
Zn501 O509 1.906 . S
Zn501 O519 1.953 . S
Zn502 O499 1.945 . S
Zn502 O504 1.932 . S
Zn502 O511 1.977 . S
Zn502 O512 1.910 . S
O503 Zn500 1.933 . S
O503 C514 1.226 . S
O504 Zn502 1.932 . S
O504 C514 1.307 . S
O505 Zn498 1.919 . S
O505 C516 1.253 . S
O506 Zn500 1.941 . S
O506 C516 1.283 . S
O507 Zn500 1.965 . S
O507 C515 1.303 . S
O508 Zn501 1.938 . S
O508 C515 1.247 . S
O509 Zn501 1.906 . S
O509 C517 1.304 . S
O510 Zn498 1.924 . S
O510 C518 1.311 . S
O511 Zn502 1.977 . S
O511 C517 1.272 . S
O512 Zn502 1.910 . S
O512 C518 1.231 . S
C513 O497 1.225 . S
C513 O519 1.298 . S
C514 O503 1.226 . S
C514 O504 1.307 . S
C515 O507 1.303 . S
C515 O508 1.247 . S
C516 O505 1.253 . S
C516 O506 1.283 . S
C517 O509 1.304 . S
C517 O511 1.272 . S
C518 O510 1.311 . S
C518 O512 1.231 . S
O519 Zn501 1.953 . S
O519 C513 1.298 . S
O520 Zn521 1.953 . S
O520 C536 1.225 . S
Zn521 O520 1.953 . S
Zn521 O522 1.949 1_556 S
Zn521 O528 1.919 . S
Zn521 O533 1.924 . S
O522 Zn521 1.949 1_554 S
O522 Zn523 1.923 . S
O522 Zn524 1.950 . S
O522 Zn525 1.945 . S
Zn523 O522 1.923 . S
Zn523 O526 1.933 . S
Zn523 O529 1.941 . S
Zn523 O530 1.965 . S
Zn524 O522 1.950 . S
Zn524 O531 1.938 . S
Zn524 O532 1.906 . S
Zn524 O542 1.953 1_554 S
Zn525 O522 1.945 . S
Zn525 O527 1.932 . S
Zn525 O534 1.977 . S
Zn525 O535 1.910 . S
O526 Zn523 1.933 . S
O526 C537 1.226 . S
O527 Zn525 1.932 . S
O527 C537 1.307 . S
O528 Zn521 1.919 . S
O528 C539 1.253 1_556 S
O529 Zn523 1.941 . S
O529 C539 1.283 . S
O530 Zn523 1.965 . S
O530 C538 1.303 . S
O531 Zn524 1.938 . S
O531 C538 1.247 . S
O532 Zn524 1.906 . S
O532 C540 1.304 . S
O533 Zn521 1.924 . S
O533 C541 1.311 . S
O534 Zn525 1.977 . S
O534 C540 1.272 . S
O535 Zn525 1.910 . S
O535 C541 1.231 1_554 S
C536 O520 1.225 . S
C536 O542 1.298 . S
C537 O526 1.226 . S
C537 O527 1.307 . S
C538 O530 1.303 . S
C538 O531 1.247 . S
C539 O528 1.253 1_554 S
C539 O529 1.283 . S
C540 O532 1.304 . S
C540 O534 1.272 . S
C541 O533 1.311 . S
C541 O535 1.231 1_556 S
O542 Zn524 1.953 1_556 S
O542 C536 1.298 . S
O543 Zn544 1.953 . S
O543 C559 1.225 . S
Zn544 O543 1.953 . S
Zn544 O545 1.949 . S
Zn544 O551 1.919 . S
Zn544 O556 1.924 . S
O545 Zn544 1.949 . S
O545 Zn546 1.923 . S
O545 Zn547 1.950 . S
O545 Zn548 1.945 . S
Zn546 O545 1.923 . S
Zn546 O549 1.933 . S
Zn546 O552 1.941 . S
Zn546 O553 1.965 . S
Zn547 O545 1.950 . S
Zn547 O554 1.938 . S
Zn547 O555 1.906 . S
Zn547 O565 1.953 . S
Zn548 O545 1.945 . S
Zn548 O550 1.932 . S
Zn548 O557 1.977 . S
Zn548 O558 1.910 . S
O549 Zn546 1.933 . S
O549 C560 1.226 . S
O550 Zn548 1.932 . S
O550 C560 1.307 . S
O551 Zn544 1.919 . S
O551 C562 1.253 . S
O552 Zn546 1.941 . S
O552 C562 1.283 . S
O553 Zn546 1.965 . S
O553 C561 1.303 . S
O554 Zn547 1.938 . S
O554 C561 1.247 . S
O555 Zn547 1.906 . S
O555 C563 1.304 . S
O556 Zn544 1.924 . S
O556 C564 1.311 . S
O557 Zn548 1.977 . S
O557 C563 1.272 . S
O558 Zn548 1.910 . S
O558 C564 1.231 . S
C559 O543 1.225 . S
C559 O565 1.298 . S
C560 O549 1.226 . S
C560 O550 1.307 . S
C561 O553 1.303 . S
C561 O554 1.247 . S
C562 O551 1.253 . S
C562 O552 1.283 . S
C563 O555 1.304 . S
C563 O557 1.272 . S
C564 O556 1.311 . S
C564 O558 1.231 . S
O565 Zn547 1.953 . S
O565 C559 1.298 . S
O566 Zn567 1.953 . S
O566 C582 1.225 . S
Zn567 O566 1.953 . S
Zn567 O568 1.965 . S
Zn567 O574 1.919 . S
Zn567 O579 1.924 . S
O568 Zn567 1.965 . S
O568 Zn569 1.924 . S
O568 Zn570 1.941 1_455 S
O568 Zn571 1.937 1_455 S
Zn569 O568 1.924 . S
Zn569 O572 1.933 1_455 S
Zn569 O575 1.941 . S
Zn569 O576 1.965 1_455 S
Zn570 O568 1.941 1_655 S
Zn570 O577 1.938 . S
Zn570 O578 1.906 . S
Zn570 O588 1.941 1_655 S
Zn571 O568 1.937 1_655 S
Zn571 O573 1.932 . S
Zn571 O580 1.977 . S
Zn571 O581 1.910 1_655 S
O572 Zn569 1.933 1_655 S
O572 C583 1.226 . S
O573 Zn571 1.932 . S
O573 C583 1.307 . S
O574 Zn567 1.919 . S
O574 C585 1.253 . S
O575 Zn569 1.941 . S
O575 C585 1.283 . S
O576 Zn569 1.965 1_655 S
O576 C584 1.303 . S
O577 Zn570 1.938 . S
O577 C584 1.247 . S
O578 Zn570 1.906 . S
O578 C586 1.304 . S
O579 Zn567 1.924 . S
O579 C587 1.311 . S
O580 Zn571 1.977 . S
O580 C586 1.272 . S
O581 Zn571 1.910 1_455 S
O581 C587 1.231 . S
C582 O566 1.225 . S
C582 O588 1.322 . S
C583 O572 1.226 . S
C583 O573 1.307 . S
C584 O576 1.303 . S
C584 O577 1.247 . S
C585 O574 1.253 . S
C585 O575 1.283 . S
C586 O578 1.304 . S
C586 O580 1.272 . S
C587 O579 1.311 . S
C587 O581 1.231 . S
O588 Zn570 1.941 1_455 S
O588 C582 1.322 . S
O589 Zn590 1.953 . S
O589 C605 1.225 . S
Zn590 O589 1.953 . S
Zn590 O591 1.949 . S
Zn590 O597 1.919 . S
Zn590 O602 1.924 . S
O591 Zn590 1.949 . S
O591 Zn592 1.923 . S
O591 Zn593 1.950 . S
O591 Zn594 1.945 . S
Zn592 O591 1.923 . S
Zn592 O595 1.933 . S
Zn592 O598 1.941 . S
Zn592 O599 1.965 . S
Zn593 O591 1.950 . S
Zn593 O600 1.938 . S
Zn593 O601 1.906 . S
Zn593 O611 1.953 . S
Zn594 O591 1.945 . S
Zn594 O596 1.932 . S
Zn594 O603 1.977 . S
Zn594 O604 1.910 . S
O595 Zn592 1.933 . S
O595 C606 1.226 . S
O596 Zn594 1.932 . S
O596 C606 1.307 . S
O597 Zn590 1.919 . S
O597 C608 1.253 . S
O598 Zn592 1.941 . S
O598 C608 1.283 . S
O599 Zn592 1.965 . S
O599 C607 1.303 . S
O600 Zn593 1.938 . S
O600 C607 1.247 . S
O601 Zn593 1.906 . S
O601 C609 1.304 . S
O602 Zn590 1.924 . S
O602 C610 1.311 . S
O603 Zn594 1.977 . S
O603 C609 1.272 . S
O604 Zn594 1.910 . S
O604 C610 1.231 . S
C605 O589 1.225 . S
C605 O611 1.298 . S
C606 O595 1.226 . S
C606 O596 1.307 . S
C607 O599 1.303 . S
C607 O600 1.247 . S
C608 O597 1.253 . S
C608 O598 1.283 . S
C609 O601 1.304 . S
C609 O603 1.272 . S
C610 O602 1.311 . S
C610 O604 1.231 . S
O611 Zn593 1.953 . S
O611 C605 1.298 . S
O612 Zn613 1.953 . S
O612 C628 1.225 . S
Zn613 O612 1.953 . S
Zn613 O614 1.949 . S
Zn613 O620 1.919 . S
Zn613 O625 1.924 . S
O614 Zn613 1.949 . S
O614 Zn615 1.923 . S
O614 Zn616 1.950 . S
O614 Zn617 1.945 . S
Zn615 O614 1.923 . S
Zn615 O618 1.933 . S
Zn615 O621 1.941 . S
Zn615 O622 1.965 . S
Zn616 O614 1.950 . S
Zn616 O623 1.938 . S
Zn616 O624 1.906 . S
Zn616 O634 1.953 . S
Zn617 O614 1.945 . S
Zn617 O619 1.932 . S
Zn617 O626 1.977 . S
Zn617 O627 1.910 . S
O618 Zn615 1.933 . S
O618 C629 1.226 . S
O619 Zn617 1.932 . S
O619 C629 1.307 . S
O620 Zn613 1.919 . S
O620 C631 1.253 . S
O621 Zn615 1.941 . S
O621 C631 1.283 . S
O622 Zn615 1.965 . S
O622 C630 1.303 . S
O623 Zn616 1.938 . S
O623 C630 1.247 . S
O624 Zn616 1.906 . S
O624 C632 1.304 . S
O625 Zn613 1.924 . S
O625 C633 1.311 . S
O626 Zn617 1.977 . S
O626 C632 1.272 . S
O627 Zn617 1.910 . S
O627 C633 1.231 . S
C628 O612 1.225 . S
C628 O634 1.298 . S
C629 O618 1.226 . S
C629 O619 1.307 . S
C630 O622 1.303 . S
C630 O623 1.247 . S
C631 O620 1.253 . S
C631 O621 1.283 . S
C632 O624 1.304 . S
C632 O626 1.272 . S
C633 O625 1.311 . S
C633 O627 1.231 . S
O634 Zn616 1.953 . S
O634 C628 1.298 . S
O635 Zn636 1.953 . S
O635 C651 1.225 . S
Zn636 O635 1.953 . S
Zn636 O637 1.949 . S
Zn636 O643 1.919 . S
Zn636 O648 1.924 . S
O637 Zn636 1.949 . S
O637 Zn638 1.923 . S
O637 Zn639 1.950 . S
O637 Zn640 1.945 . S
Zn638 O637 1.923 . S
Zn638 O641 1.933 . S
Zn638 O644 1.941 . S
Zn638 O645 1.965 . S
Zn639 O637 1.950 . S
Zn639 O646 1.938 . S
Zn639 O647 1.906 . S
Zn639 O657 1.953 . S
Zn640 O637 1.945 . S
Zn640 O642 1.932 . S
Zn640 O649 1.977 . S
Zn640 O650 1.910 . S
O641 Zn638 1.933 . S
O641 C652 1.226 . S
O642 Zn640 1.932 . S
O642 C652 1.307 . S
O643 Zn636 1.919 . S
O643 C654 1.253 . S
O644 Zn638 1.941 . S
O644 C654 1.283 . S
O645 Zn638 1.965 . S
O645 C653 1.303 . S
O646 Zn639 1.938 . S
O646 C653 1.247 . S
O647 Zn639 1.906 . S
O647 C655 1.304 . S
O648 Zn636 1.924 . S
O648 C656 1.311 . S
O649 Zn640 1.977 . S
O649 C655 1.272 . S
O650 Zn640 1.910 . S
O650 C656 1.231 . S
C651 O635 1.225 . S
C651 O657 1.298 . S
C652 O641 1.226 . S
C652 O642 1.307 . S
C653 O645 1.303 . S
C653 O646 1.247 . S
C654 O643 1.253 . S
C654 O644 1.283 . S
C655 O647 1.304 . S
C655 O649 1.272 . S
C656 O648 1.311 . S
C656 O650 1.231 . S
O657 Zn639 1.953 . S
O657 C651 1.298 . S
O658 Zn659 1.953 . S
O658 C674 1.225 . S
Zn659 O658 1.953 . S
Zn659 O660 1.949 . S
Zn659 O666 1.919 . S
Zn659 O671 1.924 . S
O660 Zn659 1.949 . S
O660 Zn661 1.923 . S
O660 Zn662 1.950 . S
O660 Zn663 1.945 . S
Zn661 O660 1.923 . S
Zn661 O664 1.933 . S
Zn661 O667 1.941 . S
Zn661 O668 1.965 . S
Zn662 O660 1.950 . S
Zn662 O669 1.938 . S
Zn662 O670 1.906 . S
Zn662 O680 1.953 . S
Zn663 O660 1.945 . S
Zn663 O665 1.932 . S
Zn663 O672 1.977 . S
Zn663 O673 1.910 . S
O664 Zn661 1.933 . S
O664 C675 1.226 . S
O665 Zn663 1.932 . S
O665 C675 1.307 . S
O666 Zn659 1.919 . S
O666 C677 1.253 . S
O667 Zn661 1.941 . S
O667 C677 1.283 . S
O668 Zn661 1.965 . S
O668 C676 1.303 . S
O669 Zn662 1.938 . S
O669 C676 1.247 . S
O670 Zn662 1.906 . S
O670 C678 1.304 . S
O671 Zn659 1.924 . S
O671 C679 1.311 . S
O672 Zn663 1.977 . S
O672 C678 1.272 . S
O673 Zn663 1.910 . S
O673 C679 1.231 . S
C674 O658 1.225 . S
C674 O680 1.298 . S
C675 O664 1.226 . S
C675 O665 1.307 . S
C676 O668 1.303 . S
C676 O669 1.247 . S
C677 O666 1.253 . S
C677 O667 1.283 . S
C678 O670 1.304 . S
C678 O672 1.272 . S
C679 O671 1.311 . S
C679 O673 1.231 . S
O680 Zn662 1.953 . S
O680 C674 1.298 . S
O681 Zn682 1.953 1_455 S
O681 C697 1.225 . S
Zn682 O681 1.953 1_655 S
Zn682 O683 1.949 1_655 S
Zn682 O689 1.915 1_554 S
Zn682 O694 1.924 1_654 S
O683 Zn682 1.949 1_455 S
O683 Zn684 1.923 1_455 S
O683 Zn685 1.950 . S
O683 Zn686 1.945 1_554 S
Zn684 O683 1.923 1_655 S
Zn684 O687 1.933 . S
Zn684 O690 1.941 . S
Zn684 O691 1.965 . S
Zn685 O683 1.950 . S
Zn685 O692 1.938 . S
Zn685 O693 1.906 . S
Zn685 O703 1.953 . S
Zn686 O683 1.945 1_556 S
Zn686 O688 1.932 . S
Zn686 O695 1.977 1_556 S
Zn686 O696 1.910 . S
O687 Zn684 1.933 . S
O687 C698 1.226 1_554 S
O688 Zn686 1.932 . S
O688 C698 1.307 1_455 S
O689 Zn682 1.915 1_556 S
O689 C700 1.247 1_556 S
O690 Zn684 1.941 . S
O690 C700 1.283 . S
O691 Zn684 1.965 . S
O691 C699 1.303 . S
O692 Zn685 1.938 . S
O692 C699 1.247 1_455 S
O693 Zn685 1.906 . S
O693 C701 1.304 . S
O694 Zn682 1.924 1_456 S
O694 C702 1.311 . S
O695 Zn686 1.977 1_554 S
O695 C701 1.272 . S
O696 Zn686 1.910 . S
O696 C702 1.231 . S
C697 O681 1.225 . S
C697 O703 1.298 . S
C698 O687 1.226 1_556 S
C698 O688 1.307 1_655 S
C699 O691 1.303 . S
C699 O692 1.247 1_655 S
C700 O689 1.247 1_554 S
C700 O690 1.283 . S
C701 O693 1.304 . S
C701 O695 1.272 . S
C702 O694 1.311 . S
C702 O696 1.231 . S
O703 Zn685 1.953 . S
O703 C697 1.298 . S
C704 C705 1.391 1_655 S
C704 C706 1.394 . S
C704 H720 0.931 . S
C705 C704 1.391 1_455 S
C705 C709 1.376 . S
C706 C704 1.394 . S
C706 C707 1.369 . S
C706 C710 1.531 . S
C707 C706 1.369 . S
C707 C708 1.410 1_655 S
C707 C715 1.503 . S
C708 C707 1.410 1_455 S
C708 C709 1.392 . S
C708 C711 1.511 . S
C709 C705 1.376 . S
C709 C708 1.392 . S
C709 H721 0.929 . S
C710 C706 1.531 . S
C710 H722 0.960 . S
C710 H723 0.962 . S
C710 H724 0.960 . S
C711 C708 1.511 . S
C711 H725 0.961 . S
C711 H726 0.961 . S
C711 H727 0.961 . S
C712 C713 1.370 . S
C712 C714 1.363 . S
C712 H728 0.931 . S
C713 C712 1.370 . S
C713 C717 1.408 . S
C714 C712 1.363 . S
C714 C715 1.370 . S
C714 C718 1.524 . S
C715 C707 1.503 . S
C715 C714 1.370 . S
C715 C716 1.403 . S
C716 C715 1.403 . S
C716 C717 1.404 . S
C716 C719 1.539 1_655 S
C717 C713 1.408 . S
C717 C716 1.404 . S
C717 H729 0.930 . S
C718 C714 1.524 . S
C718 H730 0.956 . S
C718 H731 0.961 . S
C718 H732 0.961 . S
C719 C716 1.539 1_455 S
C719 H733 0.958 1_455 S
C719 H734 0.961 . S
C719 H735 0.960 . S
H720 C704 0.931 . S
H721 C709 0.929 . S
H722 C710 0.960 . S
H723 C710 0.962 . S
H724 C710 0.960 . S
H725 C711 0.961 . S
H726 C711 0.961 . S
H727 C711 0.961 . S
H728 C712 0.931 . S
H729 C717 0.930 . S
H730 C718 0.956 . S
H731 C718 0.961 . S
H732 C718 0.961 . S
H733 C719 0.958 1_655 S
H734 C719 0.961 . S
H735 C719 0.960 . S
C736 C737 1.391 . S
C736 C738 1.394 . S
C736 H752 0.931 . S
C737 C736 1.391 . S
C737 C741 1.376 . S
C738 C736 1.394 . S
C738 C739 1.369 . S
C738 C742 1.531 . S
C739 C738 1.369 . S
C739 C740 1.410 . S
C739 C747 1.503 . S
C740 C739 1.410 . S
C740 C741 1.392 . S
C740 C743 1.511 . S
C741 C737 1.376 . S
C741 C740 1.392 . S
C741 H753 0.929 . S
C742 C738 1.531 . S
C742 H754 0.960 . S
C742 H755 0.962 . S
C742 H756 0.960 . S
C743 C740 1.511 . S
C743 H757 0.961 . S
C743 H758 0.961 . S
C743 H759 0.961 . S
C744 C745 1.370 . S
C744 C746 1.363 . S
C744 H760 0.931 . S
C745 C744 1.370 . S
C745 C749 1.408 . S
C746 C744 1.363 . S
C746 C747 1.370 . S
C746 C750 1.524 . S
C747 C739 1.503 . S
C747 C746 1.370 . S
C747 C748 1.403 . S
C748 C747 1.403 . S
C748 C749 1.404 . S
C748 C751 1.539 . S
C749 C745 1.408 . S
C749 C748 1.404 . S
C749 H761 0.930 . S
C750 C746 1.524 . S
C750 H762 0.956 . S
C750 H763 0.961 . S
C750 H764 0.961 . S
C751 C748 1.539 . S
C751 H765 0.958 . S
C751 H766 0.961 . S
C751 H767 0.960 . S
H752 C736 0.931 . S
H753 C741 0.929 . S
H754 C742 0.960 . S
H755 C742 0.962 . S
H756 C742 0.960 . S
H757 C743 0.961 . S
H758 C743 0.961 . S
H759 C743 0.961 . S
H760 C744 0.931 . S
H761 C749 0.930 . S
H762 C750 0.956 . S
H763 C750 0.961 . S
H764 C750 0.961 . S
H765 C751 0.958 . S
H766 C751 0.961 . S
H767 C751 0.960 . S
C768 C769 1.391 . S
C768 C770 1.394 . S
C768 H784 0.931 . S
C769 C768 1.391 . S
C769 C773 1.376 . S
C770 C768 1.394 . S
C770 C771 1.369 . S
C770 C774 1.531 . S
C771 C770 1.369 . S
C771 C772 1.410 . S
C771 C779 1.503 . S
C772 C771 1.410 . S
C772 C773 1.392 . S
C772 C775 1.511 . S
C773 C769 1.376 . S
C773 C772 1.392 . S
C773 H785 0.929 . S
C774 C770 1.531 . S
C774 H786 0.960 . S
C774 H787 0.962 . S
C774 H788 0.960 . S
C775 C772 1.511 . S
C775 H789 0.961 . S
C775 H790 0.961 . S
C775 H791 0.961 . S
C776 C777 1.370 . S
C776 C778 1.363 . S
C776 H792 0.931 . S
C777 C776 1.370 . S
C777 C781 1.408 . S
C778 C776 1.363 . S
C778 C779 1.370 . S
C778 C782 1.524 . S
C779 C771 1.503 . S
C779 C778 1.370 . S
C779 C780 1.403 . S
C780 C779 1.403 . S
C780 C781 1.404 . S
C780 C783 1.539 . S
C781 C777 1.408 . S
C781 C780 1.404 . S
C781 H793 0.930 . S
C782 C778 1.524 . S
C782 H794 0.956 . S
C782 H795 0.961 . S
C782 H796 0.961 . S
C783 C780 1.539 . S
C783 H797 0.958 . S
C783 H798 0.961 . S
C783 H799 0.960 . S
H784 C768 0.931 . S
H785 C773 0.929 . S
H786 C774 0.960 . S
H787 C774 0.962 . S
H788 C774 0.960 . S
H789 C775 0.961 . S
H790 C775 0.961 . S
H791 C775 0.961 . S
H792 C776 0.931 . S
H793 C781 0.930 . S
H794 C782 0.956 . S
H795 C782 0.961 . S
H796 C782 0.961 . S
H797 C783 0.958 . S
H798 C783 0.961 . S
H799 C783 0.960 . S
C800 C801 1.391 . S
C800 C802 1.394 . S
C800 H816 0.931 . S
C801 C800 1.391 . S
C801 C805 1.376 . S
C802 C800 1.394 . S
C802 C803 1.369 . S
C802 C806 1.531 . S
C803 C802 1.369 . S
C803 C804 1.410 . S
C803 C811 1.503 . S
C804 C803 1.410 . S
C804 C805 1.392 . S
C804 C807 1.511 . S
C805 C801 1.376 . S
C805 C804 1.392 . S
C805 H817 0.929 . S
C806 C802 1.531 . S
C806 H818 0.960 . S
C806 H819 0.962 . S
C806 H820 0.960 . S
C807 C804 1.511 . S
C807 H821 0.961 . S
C807 H822 0.961 . S
C807 H823 0.961 . S
C808 C809 1.370 . S
C808 C810 1.363 . S
C808 H824 0.931 . S
C809 C808 1.370 . S
C809 C813 1.408 . S
C810 C808 1.363 . S
C810 C811 1.370 . S
C810 C814 1.524 . S
C811 C803 1.503 . S
C811 C810 1.370 . S
C811 C812 1.403 . S
C812 C811 1.403 . S
C812 C813 1.404 . S
C812 C815 1.539 . S
C813 C809 1.408 . S
C813 C812 1.404 . S
C813 H825 0.930 . S
C814 C810 1.524 . S
C814 H826 0.956 . S
C814 H827 0.961 . S
C814 H828 0.961 . S
C815 C812 1.539 . S
C815 H829 0.958 . S
C815 H830 0.961 . S
C815 H831 0.960 . S
H816 C800 0.931 . S
H817 C805 0.929 . S
H818 C806 0.960 . S
H819 C806 0.962 . S
H820 C806 0.960 . S
H821 C807 0.961 . S
H822 C807 0.961 . S
H823 C807 0.961 . S
H824 C808 0.931 . S
H825 C813 0.930 . S
H826 C814 0.956 . S
H827 C814 0.961 . S
H828 C814 0.961 . S
H829 C815 0.958 . S
H830 C815 0.961 . S
H831 C815 0.960 . S
C832 C833 1.391 1_655 S
C832 C834 1.394 . S
C832 H848 0.931 . S
C833 C832 1.391 1_455 S
C833 C837 1.376 . S
C834 C832 1.394 . S
C834 C835 1.369 1_655 S
C834 C838 1.531 . S
C835 C834 1.369 1_455 S
C835 C836 1.410 . S
C835 C843 1.503 1_455 S
C836 C835 1.410 . S
C836 C837 1.392 . S
C836 C839 1.511 . S
C837 C833 1.376 . S
C837 C836 1.392 . S
C837 H849 0.929 . S
C838 C834 1.531 . S
C838 H850 0.960 . S
C838 H851 0.962 . S
C838 H852 0.960 . S
C839 C836 1.511 . S
C839 H853 0.961 . S
C839 H854 0.961 . S
C839 H855 0.961 . S
C840 C841 1.370 . S
C840 C842 1.363 . S
C840 H856 0.931 . S
C841 C840 1.370 . S
C841 C845 1.408 1_655 S
C842 C840 1.363 . S
C842 C843 1.370 . S
C842 C846 1.524 . S
C843 C835 1.503 1_655 S
C843 C842 1.370 . S
C843 C844 1.403 1_655 S
C844 C843 1.403 1_455 S
C844 C845 1.404 . S
C844 C847 1.539 . S
C845 C841 1.408 1_455 S
C845 C844 1.404 . S
C845 H857 0.930 . S
C846 C842 1.524 . S
C846 H858 0.956 . S
C846 H859 0.961 . S
C846 H860 0.961 . S
C847 C844 1.539 . S
C847 H861 0.958 . S
C847 H862 0.961 . S
C847 H863 0.960 . S
H848 C832 0.931 . S
H849 C837 0.929 . S
H850 C838 0.960 . S
H851 C838 0.962 . S
H852 C838 0.960 . S
H853 C839 0.961 . S
H854 C839 0.961 . S
H855 C839 0.961 . S
H856 C840 0.931 . S
H857 C845 0.930 . S
H858 C846 0.956 . S
H859 C846 0.961 . S
H860 C846 0.961 . S
H861 C847 0.958 . S
H862 C847 0.961 . S
H863 C847 0.960 . S
C864 C865 1.391 . S
C864 C866 1.394 . S
C864 H880 0.931 . S
C865 C864 1.391 . S
C865 C869 1.376 . S
C866 C864 1.394 . S
C866 C867 1.369 . S
C866 C870 1.531 . S
C867 C866 1.369 . S
C867 C868 1.410 . S
C867 C875 1.503 . S
C868 C867 1.410 . S
C868 C869 1.392 . S
C868 C871 1.511 . S
C869 C865 1.376 . S
C869 C868 1.392 . S
C869 H881 0.929 . S
C870 C866 1.531 . S
C870 H882 0.960 . S
C870 H883 0.962 . S
C870 H884 0.960 . S
C871 C868 1.511 . S
C871 H885 0.961 . S
C871 H886 0.961 . S
C871 H887 0.961 . S
C872 C873 1.370 . S
C872 C874 1.363 . S
C872 H888 0.931 . S
C873 C872 1.370 . S
C873 C877 1.408 . S
C874 C872 1.363 . S
C874 C875 1.370 . S
C874 C878 1.524 . S
C875 C867 1.503 . S
C875 C874 1.370 . S
C875 C876 1.403 . S
C876 C875 1.403 . S
C876 C877 1.404 . S
C876 C879 1.539 . S
C877 C873 1.408 . S
C877 C876 1.404 . S
C877 H889 0.930 . S
C878 C874 1.524 . S
C878 H890 0.956 . S
C878 H891 0.961 . S
C878 H892 0.961 . S
C879 C876 1.539 . S
C879 H893 0.958 . S
C879 H894 0.961 . S
C879 H895 0.960 . S
H880 C864 0.931 . S
H881 C869 0.929 . S
H882 C870 0.960 . S
H883 C870 0.962 . S
H884 C870 0.960 . S
H885 C871 0.961 . S
H886 C871 0.961 . S
H887 C871 0.961 . S
H888 C872 0.931 . S
H889 C877 0.930 . S
H890 C878 0.956 . S
H891 C878 0.961 . S
H892 C878 0.961 . S
H893 C879 0.958 . S
H894 C879 0.961 . S
H895 C879 0.960 . S
C896 C897 1.391 . S
C896 C898 1.394 . S
C896 H912 0.931 . S
C897 C896 1.391 . S
C897 C901 1.376 . S
C898 C896 1.394 . S
C898 C899 1.369 . S
C898 C902 1.531 . S
C899 C898 1.369 . S
C899 C900 1.410 . S
C899 C907 1.503 . S
C900 C899 1.410 . S
C900 C901 1.392 . S
C900 C903 1.511 . S
C901 C897 1.376 . S
C901 C900 1.392 . S
C901 H913 0.929 . S
C902 C898 1.531 . S
C902 H914 0.960 . S
C902 H915 0.962 . S
C902 H916 0.960 . S
C903 C900 1.511 . S
C903 H917 0.961 . S
C903 H918 0.961 . S
C903 H919 0.961 . S
C904 C905 1.370 1_554 S
C904 C906 1.363 1_554 S
C904 H920 0.931 . S
C905 C904 1.370 1_556 S
C905 C909 1.408 . S
C906 C904 1.363 1_556 S
C906 C907 1.370 . S
C906 C910 1.524 . S
C907 C899 1.503 . S
C907 C906 1.370 . S
C907 C908 1.403 . S
C908 C907 1.403 . S
C908 C909 1.404 . S
C908 C911 1.539 . S
C909 C905 1.408 . S
C909 C908 1.404 . S
C909 H921 0.930 . S
C910 C906 1.524 . S
C910 H922 0.956 . S
C910 H923 0.961 . S
C910 H924 0.961 1_556 S
C911 C908 1.539 . S
C911 H925 0.958 . S
C911 H926 0.961 . S
C911 H927 0.960 . S
H912 C896 0.931 . S
H913 C901 0.929 . S
H914 C902 0.960 . S
H915 C902 0.962 . S
H916 C902 0.960 . S
H917 C903 0.961 . S
H918 C903 0.961 . S
H919 C903 0.961 . S
H920 C904 0.931 . S
H921 C909 0.930 . S
H922 C910 0.956 . S
H923 C910 0.961 . S
H924 C910 0.961 1_554 S
H925 C911 0.958 . S
H926 C911 0.961 . S
H927 C911 0.960 . S
C928 C929 1.391 . S
C928 C930 1.394 . S
C928 H944 0.931 . S
C929 C928 1.391 . S
C929 C933 1.376 . S
C930 C928 1.394 . S
C930 C931 1.369 . S
C930 C934 1.531 . S
C931 C930 1.369 . S
C931 C932 1.410 . S
C931 C939 1.503 . S
C932 C931 1.410 . S
C932 C933 1.392 . S
C932 C935 1.511 . S
C933 C929 1.376 . S
C933 C932 1.392 . S
C933 H945 0.929 . S
C934 C930 1.531 . S
C934 H946 0.960 . S
C934 H947 0.962 . S
C934 H948 0.960 . S
C935 C932 1.511 . S
C935 H949 0.961 . S
C935 H950 0.961 . S
C935 H951 0.961 . S
C936 C937 1.370 . S
C936 C938 1.363 . S
C936 H952 0.931 . S
C937 C936 1.370 . S
C937 C941 1.408 . S
C938 C936 1.363 . S
C938 C939 1.370 . S
C938 C942 1.524 . S
C939 C931 1.503 . S
C939 C938 1.370 . S
C939 C940 1.403 . S
C940 C939 1.403 . S
C940 C941 1.404 . S
C940 C943 1.539 . S
C941 C937 1.408 . S
C941 C940 1.404 . S
C941 H953 0.930 . S
C942 C938 1.524 . S
C942 H954 0.956 . S
C942 H955 0.961 . S
C942 H956 0.961 . S
C943 C940 1.539 . S
C943 H957 0.958 . S
C943 H958 0.961 . S
C943 H959 0.960 . S
H944 C928 0.931 . S
H945 C933 0.929 . S
H946 C934 0.960 . S
H947 C934 0.962 . S
H948 C934 0.960 . S
H949 C935 0.961 . S
H950 C935 0.961 . S
H951 C935 0.961 . S
H952 C936 0.931 . S
H953 C941 0.930 . S
H954 C942 0.956 . S
H955 C942 0.961 . S
H956 C942 0.961 . S
H957 C943 0.958 . S
H958 C943 0.961 . S
H959 C943 0.960 . S
C960 C961 1.391 . S
C960 C962 1.394 . S
C960 H976 0.931 1_545 S
C961 C960 1.391 . S
C961 C965 1.376 . S
C962 C960 1.394 . S
C962 C963 1.369 . S
C962 C966 1.531 1_545 S
C963 C962 1.369 . S
C963 C964 1.410 . S
C963 C971 1.503 . S
C964 C963 1.410 . S
C964 C965 1.392 . S
C964 C967 1.511 . S
C965 C961 1.376 . S
C965 C964 1.392 . S
C965 H977 0.929 . S
C966 C962 1.531 1_565 S
C966 H978 0.960 . S
C966 H979 0.962 . S
C966 H980 0.960 . S
C967 C964 1.511 . S
C967 H981 0.961 . S
C967 H982 0.961 . S
C967 H983 0.961 . S
C968 C969 1.370 1_565 S
C968 C970 1.363 . S
C968 H984 0.931 . S
C969 C968 1.370 1_545 S
C969 C973 1.408 . S
C970 C968 1.363 . S
C970 C971 1.370 1_565 S
C970 C974 1.524 . S
C971 C963 1.503 . S
C971 C970 1.370 1_545 S
C971 C972 1.403 . S
C972 C971 1.403 . S
C972 C973 1.404 . S
C972 C975 1.539 . S
C973 C969 1.408 . S
C973 C972 1.404 . S
C973 H985 0.930 . S
C974 C970 1.524 . S
C974 H986 0.956 . S
C974 H987 0.961 . S
C974 H988 0.961 . S
C975 C972 1.539 . S
C975 H989 0.958 . S
C975 H990 0.961 . S
C975 H991 0.960 . S
H976 C960 0.931 1_565 S
H977 C965 0.929 . S
H978 C966 0.960 . S
H979 C966 0.962 . S
H980 C966 0.960 . S
H981 C967 0.961 . S
H982 C967 0.961 . S
H983 C967 0.961 . S
H984 C968 0.931 . S
H985 C973 0.930 . S
H986 C974 0.956 . S
H987 C974 0.961 . S
H988 C974 0.961 . S
H989 C975 0.958 . S
H990 C975 0.961 . S
H991 C975 0.960 . S
C992 C993 1.391 . S
C992 C994 1.394 . S
C992 H1008 0.931 . S
C993 C992 1.391 . S
C993 C997 1.376 . S
C994 C992 1.394 . S
C994 C995 1.369 . S
C994 C998 1.531 . S
C995 C994 1.369 . S
C995 C996 1.410 . S
C995 C1003 1.503 . S
C996 C995 1.410 . S
C996 C997 1.392 . S
C996 C999 1.511 . S
C997 C993 1.376 . S
C997 C996 1.392 . S
C997 H1009 0.929 . S
C998 C994 1.531 . S
C998 H1010 0.960 . S
C998 H1011 0.962 . S
C998 H1012 0.960 . S
C999 C996 1.511 . S
C999 H1013 0.961 . S
C999 H1014 0.961 . S
C999 H1015 0.961 . S
C1000 C1001 1.370 . S
C1000 C1002 1.363 . S
C1000 H1016 0.931 . S
C1001 C1000 1.370 . S
C1001 C1005 1.408 . S
C1002 C1000 1.363 . S
C1002 C1003 1.370 . S
C1002 C1006 1.524 . S
C1003 C995 1.503 . S
C1003 C1002 1.370 . S
C1003 C1004 1.403 . S
C1004 C1003 1.403 . S
C1004 C1005 1.404 . S
C1004 C1007 1.539 . S
C1005 C1001 1.408 . S
C1005 C1004 1.404 . S
C1005 H1017 0.930 . S
C1006 C1002 1.524 . S
C1006 H1018 0.956 . S
C1006 H1019 0.961 . S
C1006 H1020 0.961 . S
C1007 C1004 1.539 . S
C1007 H1021 0.958 . S
C1007 H1022 0.961 . S
C1007 H1023 0.960 . S
H1008 C992 0.931 . S
H1009 C997 0.929 . S
H1010 C998 0.960 . S
H1011 C998 0.962 . S
H1012 C998 0.960 . S
H1013 C999 0.961 . S
H1014 C999 0.961 . S
H1015 C999 0.961 . S
H1016 C1000 0.931 . S
H1017 C1005 0.930 . S
H1018 C1006 0.956 . S
H1019 C1006 0.961 . S
H1020 C1006 0.961 . S
H1021 C1007 0.958 . S
H1022 C1007 0.961 . S
H1023 C1007 0.960 . S
C1024 C1025 1.399 . S
C1024 C1026 1.394 . S
C1024 H1040 0.931 . S
C1025 C1024 1.399 . S
C1025 C1029 1.369 1_565 S
C1026 C1024 1.394 . S
C1026 C1027 1.369 1_565 S
C1026 C1030 1.531 . S
C1027 C1026 1.369 1_545 S
C1027 C1028 1.410 . S
C1027 C1035 1.503 . S
C1028 C1027 1.410 . S
C1028 C1029 1.392 . S
C1028 C1031 1.511 . S
C1029 C1025 1.369 1_545 S
C1029 C1028 1.392 . S
C1029 H1041 0.929 . S
C1030 C1026 1.531 . S
C1030 H1042 0.960 . S
C1030 H1043 0.962 1_565 S
C1030 H1044 0.960 . S
C1031 C1028 1.511 . S
C1031 H1045 0.961 . S
C1031 H1046 0.961 . S
C1031 H1047 0.961 1_545 S
C1032 C1033 1.370 . S
C1032 C1034 1.363 . S
C1032 H1048 0.931 . S
C1033 C1032 1.370 . S
C1033 C1037 1.408 1_545 S
C1034 C1032 1.363 . S
C1034 C1035 1.370 . S
C1034 C1038 1.524 . S
C1035 C1027 1.503 . S
C1035 C1034 1.370 . S
C1035 C1036 1.403 1_545 S
C1036 C1035 1.403 1_565 S
C1036 C1037 1.404 . S
C1036 C1039 1.539 . S
C1037 C1033 1.408 1_565 S
C1037 C1036 1.404 . S
C1037 H1049 0.930 . S
C1038 C1034 1.524 . S
C1038 H1050 0.956 . S
C1038 H1051 0.961 . S
C1038 H1052 0.961 . S
C1039 C1036 1.539 . S
C1039 H1053 0.958 . S
C1039 H1054 0.961 . S
C1039 H1055 0.960 . S
H1040 C1024 0.931 . S
H1041 C1029 0.929 . S
H1042 C1030 0.960 . S
H1043 C1030 0.962 1_545 S
H1044 C1030 0.960 . S
H1045 C1031 0.961 . S
H1046 C1031 0.961 . S
H1047 C1031 0.961 1_565 S
H1048 C1032 0.931 . S
H1049 C1037 0.930 . S
H1050 C1038 0.956 . S
H1051 C1038 0.961 . S
H1052 C1038 0.961 . S
H1053 C1039 0.958 . S
H1054 C1039 0.961 . S
H1055 C1039 0.960 . S
C1056 C1057 1.391 . S
C1056 C1058 1.394 . S
C1056 H1072 0.931 . S
C1057 C1056 1.391 . S
C1057 C1061 1.376 . S
C1058 C1056 1.394 . S
C1058 C1059 1.369 . S
C1058 C1062 1.531 . S
C1059 C1058 1.369 . S
C1059 C1060 1.410 . S
C1059 C1067 1.503 . S
C1060 C1059 1.410 . S
C1060 C1061 1.392 . S
C1060 C1063 1.511 . S
C1061 C1057 1.376 . S
C1061 C1060 1.392 . S
C1061 H1073 0.929 . S
C1062 C1058 1.531 . S
C1062 H1074 0.960 . S
C1062 H1075 0.962 . S
C1062 H1076 0.960 . S
C1063 C1060 1.511 . S
C1063 H1077 0.961 . S
C1063 H1078 0.961 . S
C1063 H1079 0.961 . S
C1064 C1065 1.370 . S
C1064 C1066 1.363 . S
C1064 H1080 0.931 . S
C1065 C1064 1.370 . S
C1065 C1069 1.408 . S
C1066 C1064 1.363 . S
C1066 C1067 1.370 . S
C1066 C1070 1.524 . S
C1067 C1059 1.503 . S
C1067 C1066 1.370 . S
C1067 C1068 1.403 . S
C1068 C1067 1.403 . S
C1068 C1069 1.404 . S
C1068 C1071 1.539 . S
C1069 C1065 1.408 . S
C1069 C1068 1.404 . S
C1069 H1081 0.930 . S
C1070 C1066 1.524 . S
C1070 H1082 0.956 . S
C1070 H1083 0.961 . S
C1070 H1084 0.961 . S
C1071 C1068 1.539 . S
C1071 H1085 0.958 . S
C1071 H1086 0.961 . S
C1071 H1087 0.960 . S
H1072 C1056 0.931 . S
H1073 C1061 0.929 . S
H1074 C1062 0.960 . S
H1075 C1062 0.962 . S
H1076 C1062 0.960 . S
H1077 C1063 0.961 . S
H1078 C1063 0.961 . S
H1079 C1063 0.961 . S
H1080 C1064 0.931 . S
H1081 C1069 0.930 . S
H1082 C1070 0.956 . S
H1083 C1070 0.961 . S
H1084 C1070 0.961 . S
H1085 C1071 0.958 . S
H1086 C1071 0.961 . S
H1087 C1071 0.960 . S
C1088 C1089 1.391 . S
C1088 C1090 1.394 . S
C1088 H1104 0.931 1_545 S
C1089 C1088 1.391 . S
C1089 C1093 1.376 . S
C1090 C1088 1.394 . S
C1090 C1091 1.369 . S
C1090 C1094 1.531 1_545 S
C1091 C1090 1.369 . S
C1091 C1092 1.410 . S
C1091 C1099 1.503 . S
C1092 C1091 1.410 . S
C1092 C1093 1.392 . S
C1092 C1095 1.511 . S
C1093 C1089 1.376 . S
C1093 C1092 1.392 . S
C1093 H1105 0.929 . S
C1094 C1090 1.531 1_565 S
C1094 H1106 0.960 . S
C1094 H1107 0.962 . S
C1094 H1108 0.960 . S
C1095 C1092 1.511 . S
C1095 H1109 0.961 . S
C1095 H1110 0.961 . S
C1095 H1111 0.961 . S
C1096 C1097 1.370 . S
C1096 C1098 1.363 . S
C1096 H1112 0.931 . S
C1097 C1096 1.370 . S
C1097 C1101 1.408 . S
C1098 C1096 1.363 . S
C1098 C1099 1.370 . S
C1098 C1102 1.524 . S
C1099 C1091 1.503 . S
C1099 C1098 1.370 . S
C1099 C1100 1.403 . S
C1100 C1099 1.403 . S
C1100 C1101 1.404 . S
C1100 C1103 1.562 . S
C1101 C1097 1.408 . S
C1101 C1100 1.404 . S
C1101 H1113 0.930 . S
C1102 C1098 1.524 . S
C1102 H1114 0.956 . S
C1102 H1115 0.961 . S
C1102 H1116 0.961 . S
C1103 C1100 1.562 . S
C1103 H1117 0.913 1_545 S
C1103 H1118 0.968 . S
C1103 H1119 0.978 . S
H1104 C1088 0.931 1_565 S
H1105 C1093 0.929 . S
H1106 C1094 0.960 . S
H1107 C1094 0.962 . S
H1108 C1094 0.960 . S
H1109 C1095 0.961 . S
H1110 C1095 0.961 . S
H1111 C1095 0.961 . S
H1112 C1096 0.931 . S
H1113 C1101 0.930 . S
H1114 C1102 0.956 . S
H1115 C1102 0.961 . S
H1116 C1102 0.961 . S
H1117 C1103 0.913 1_565 S
H1118 C1103 0.968 . S
H1119 C1103 0.978 . S
C1120 C1121 1.391 . S
C1120 C1122 1.394 . S
C1120 H1136 0.931 . S
C1121 C1120 1.391 . S
C1121 C1125 1.376 . S
C1122 C1120 1.394 . S
C1122 C1123 1.369 . S
C1122 C1126 1.531 . S
C1123 C1122 1.369 . S
C1123 C1124 1.410 . S
C1123 C1131 1.503 . S
C1124 C1123 1.410 . S
C1124 C1125 1.392 . S
C1124 C1127 1.511 . S
C1125 C1121 1.376 . S
C1125 C1124 1.392 . S
C1125 H1137 0.929 . S
C1126 C1122 1.531 . S
C1126 H1138 0.960 . S
C1126 H1139 0.962 . S
C1126 H1140 0.960 . S
C1127 C1124 1.511 . S
C1127 H1141 0.961 . S
C1127 H1142 0.961 . S
C1127 H1143 0.961 . S
C1128 C1129 1.370 . S
C1128 C1130 1.363 . S
C1128 H1144 0.931 . S
C1129 C1128 1.370 . S
C1129 C1133 1.408 . S
C1130 C1128 1.363 . S
C1130 C1131 1.370 . S
C1130 C1134 1.524 . S
C1131 C1123 1.503 . S
C1131 C1130 1.370 . S
C1131 C1132 1.403 . S
C1132 C1131 1.403 . S
C1132 C1133 1.404 . S
C1132 C1135 1.539 . S
C1133 C1129 1.408 . S
C1133 C1132 1.404 . S
C1133 H1145 0.930 . S
C1134 C1130 1.524 . S
C1134 H1146 0.956 . S
C1134 H1147 0.961 . S
C1134 H1148 0.961 . S
C1135 C1132 1.539 . S
C1135 H1149 0.958 . S
C1135 H1150 0.961 . S
C1135 H1151 0.960 . S
H1136 C1120 0.931 . S
H1137 C1125 0.929 . S
H1138 C1126 0.960 . S
H1139 C1126 0.962 . S
H1140 C1126 0.960 . S
H1141 C1127 0.961 . S
H1142 C1127 0.961 . S
H1143 C1127 0.961 . S
H1144 C1128 0.931 . S
H1145 C1133 0.930 . S
H1146 C1134 0.956 . S
H1147 C1134 0.961 . S
H1148 C1134 0.961 . S
H1149 C1135 0.958 . S
H1150 C1135 0.961 . S
H1151 C1135 0.960 . S
C1152 C1153 1.390 1_545 S
C1152 C1154 1.394 . S
C1152 H1168 0.931 . S
C1153 C1152 1.390 1_565 S
C1153 C1157 1.376 . S
C1154 C1152 1.394 . S
C1154 C1155 1.369 1_545 S
C1154 C1158 1.531 . S
C1155 C1154 1.369 1_565 S
C1155 C1156 1.410 . S
C1155 C1163 1.503 . S
C1156 C1155 1.410 . S
C1156 C1157 1.392 . S
C1156 C1159 1.511 . S
C1157 C1153 1.376 . S
C1157 C1156 1.392 . S
C1157 H1169 0.929 . S
C1158 C1154 1.531 . S
C1158 H1170 0.960 . S
C1158 H1171 0.962 . S
C1158 H1172 0.960 . S
C1159 C1156 1.511 . S
C1159 H1173 0.961 . S
C1159 H1174 0.961 . S
C1159 H1175 0.961 . S
C1160 C1161 1.370 . S
C1160 C1162 1.363 . S
C1160 H1176 0.931 . S
C1161 C1160 1.370 . S
C1161 C1165 1.408 1_565 S
C1162 C1160 1.363 . S
C1162 C1163 1.370 . S
C1162 C1166 1.524 . S
C1163 C1155 1.503 . S
C1163 C1162 1.370 . S
C1163 C1164 1.403 1_565 S
C1164 C1163 1.403 1_545 S
C1164 C1165 1.404 . S
C1164 C1167 1.539 . S
C1165 C1161 1.408 1_545 S
C1165 C1164 1.404 . S
C1165 H1177 0.930 . S
C1166 C1162 1.524 . S
C1166 H1178 0.956 . S
C1166 H1179 0.961 . S
C1166 H1180 0.961 . S
C1167 C1164 1.539 . S
C1167 H1181 0.958 . S
C1167 H1182 0.961 . S
C1167 H1183 0.960 . S
H1168 C1152 0.931 . S
H1169 C1157 0.929 . S
H1170 C1158 0.960 . S
H1171 C1158 0.962 . S
H1172 C1158 0.960 . S
H1173 C1159 0.961 . S
H1174 C1159 0.961 . S
H1175 C1159 0.961 . S
H1176 C1160 0.931 . S
H1177 C1165 0.930 . S
H1178 C1166 0.956 . S
H1179 C1166 0.961 . S
H1180 C1166 0.961 . S
H1181 C1167 0.958 . S
H1182 C1167 0.961 . S
H1183 C1167 0.960 . S
C1184 C1185 1.391 . S
C1184 C1186 1.394 . S
C1184 H1200 0.931 . S
C1185 C1184 1.391 . S
C1185 C1189 1.376 . S
C1186 C1184 1.394 . S
C1186 C1187 1.369 . S
C1186 C1190 1.531 . S
C1187 C1186 1.369 . S
C1187 C1188 1.410 . S
C1187 C1195 1.503 . S
C1188 C1187 1.410 . S
C1188 C1189 1.392 . S
C1188 C1191 1.511 . S
C1189 C1185 1.376 . S
C1189 C1188 1.392 . S
C1189 H1201 0.929 . S
C1190 C1186 1.531 . S
C1190 H1202 0.960 . S
C1190 H1203 0.962 . S
C1190 H1204 0.960 . S
C1191 C1188 1.511 . S
C1191 H1205 0.961 . S
C1191 H1206 0.961 . S
C1191 H1207 0.961 . S
C1192 C1193 1.370 . S
C1192 C1194 1.363 . S
C1192 H1208 0.931 . S
C1193 C1192 1.370 . S
C1193 C1197 1.408 . S
C1194 C1192 1.363 . S
C1194 C1195 1.370 . S
C1194 C1198 1.524 . S
C1195 C1187 1.503 . S
C1195 C1194 1.370 . S
C1195 C1196 1.403 . S
C1196 C1195 1.403 . S
C1196 C1197 1.404 . S
C1196 C1199 1.539 . S
C1197 C1193 1.408 . S
C1197 C1196 1.404 . S
C1197 H1209 0.930 . S
C1198 C1194 1.524 . S
C1198 H1210 0.956 . S
C1198 H1211 0.961 . S
C1198 H1212 0.961 . S
C1199 C1196 1.539 . S
C1199 H1213 0.958 . S
C1199 H1214 0.961 . S
C1199 H1215 0.960 . S
H1200 C1184 0.931 . S
H1201 C1189 0.929 . S
H1202 C1190 0.960 . S
H1203 C1190 0.962 . S
H1204 C1190 0.960 . S
H1205 C1191 0.961 . S
H1206 C1191 0.961 . S
H1207 C1191 0.961 . S
H1208 C1192 0.931 . S
H1209 C1197 0.930 . S
H1210 C1198 0.956 . S
H1211 C1198 0.961 . S
H1212 C1198 0.961 . S
H1213 C1199 0.958 . S
H1214 C1199 0.961 . S
H1215 C1199 0.960 . S
C1216 C1217 1.391 . S
C1216 C1218 1.394 . S
C1216 H1232 0.931 . S
C1217 C1216 1.391 . S
C1217 C1221 1.376 1_554 S
C1218 C1216 1.394 . S
C1218 C1219 1.369 . S
C1218 C1222 1.531 . S
C1219 C1218 1.369 . S
C1219 C1220 1.410 1_554 S
C1219 C1227 1.503 . S
C1220 C1219 1.410 1_556 S
C1220 C1221 1.392 . S
C1220 C1223 1.511 . S
C1221 C1217 1.376 1_556 S
C1221 C1220 1.392 . S
C1221 H1233 0.929 . S
C1222 C1218 1.531 . S
C1222 H1234 0.960 . S
C1222 H1235 0.962 . S
C1222 H1236 0.960 . S
C1223 C1220 1.511 . S
C1223 H1237 0.961 . S
C1223 H1238 0.961 . S
C1223 H1239 0.961 . S
C1224 C1225 1.370 . S
C1224 C1226 1.363 . S
C1224 H1240 0.931 . S
C1225 C1224 1.370 . S
C1225 C1229 1.408 1_556 S
C1226 C1224 1.363 . S
C1226 C1227 1.370 1_556 S
C1226 C1230 1.524 . S
C1227 C1219 1.503 . S
C1227 C1226 1.370 1_554 S
C1227 C1228 1.403 . S
C1228 C1227 1.403 . S
C1228 C1229 1.404 . S
C1228 C1231 1.539 . S
C1229 C1225 1.408 1_554 S
C1229 C1228 1.404 . S
C1229 H1241 0.930 . S
C1230 C1226 1.524 . S
C1230 H1242 0.956 . S
C1230 H1243 0.961 . S
C1230 H1244 0.961 . S
C1231 C1228 1.539 . S
C1231 H1245 0.958 . S
C1231 H1246 0.961 . S
C1231 H1247 0.960 . S
H1232 C1216 0.931 . S
H1233 C1221 0.929 . S
H1234 C1222 0.960 . S
H1235 C1222 0.962 . S
H1236 C1222 0.960 . S
H1237 C1223 0.961 . S
H1238 C1223 0.961 . S
H1239 C1223 0.961 . S
H1240 C1224 0.931 . S
H1241 C1229 0.930 . S
H1242 C1230 0.956 . S
H1243 C1230 0.961 . S
H1244 C1230 0.961 . S
H1245 C1231 0.958 . S
H1246 C1231 0.961 . S
H1247 C1231 0.960 . S
C1248 C1249 1.391 1_556 S
C1248 C1250 1.394 . S
C1248 H1264 0.931 . S
C1249 C1248 1.391 1_554 S
C1249 C1253 1.376 . S
C1250 C1248 1.394 . S
C1250 C1251 1.369 1_556 S
C1250 C1254 1.531 . S
C1251 C1250 1.369 1_554 S
C1251 C1252 1.410 . S
C1251 C1259 1.503 . S
C1252 C1251 1.410 . S
C1252 C1253 1.392 . S
C1252 C1255 1.511 . S
C1253 C1249 1.376 . S
C1253 C1252 1.392 . S
C1253 H1265 0.929 . S
C1254 C1250 1.531 . S
C1254 H1266 0.960 . S
C1254 H1267 0.962 . S
C1254 H1268 0.960 . S
C1255 C1252 1.511 . S
C1255 H1269 0.961 . S
C1255 H1270 0.961 . S
C1255 H1271 0.961 . S
C1256 C1257 1.370 . S
C1256 C1258 1.363 . S
C1256 H1272 0.931 . S
C1257 C1256 1.370 . S
C1257 C1261 1.444 . S
C1258 C1256 1.363 . S
C1258 C1259 1.370 . S
C1258 C1262 1.524 . S
C1259 C1251 1.503 . S
C1259 C1258 1.370 . S
C1259 C1260 1.403 1_554 S
C1260 C1259 1.403 1_556 S
C1260 C1261 1.398 1_556 S
C1260 C1263 1.539 . S
C1261 C1257 1.444 . S
C1261 C1260 1.398 1_554 S
C1261 H1273 0.903 1_554 S
C1262 C1258 1.524 . S
C1262 H1274 0.956 . S
C1262 H1275 0.961 . S
C1262 H1276 0.961 . S
C1263 C1260 1.539 . S
C1263 H1277 0.958 . S
C1263 H1278 0.961 . S
C1263 H1279 0.960 . S
H1264 C1248 0.931 . S
H1265 C1253 0.929 . S
H1266 C1254 0.960 . S
H1267 C1254 0.962 . S
H1268 C1254 0.960 . S
H1269 C1255 0.961 . S
H1270 C1255 0.961 . S
H1271 C1255 0.961 . S
H1272 C1256 0.931 . S
H1273 C1261 0.903 1_556 S
H1274 C1262 0.956 . S
H1275 C1262 0.961 . S
H1276 C1262 0.961 . S
H1277 C1263 0.958 . S
H1278 C1263 0.961 . S
H1279 C1263 0.960 . S
C1280 C1281 1.391 . S
C1280 C1282 1.394 . S
C1280 H1296 0.931 . S
C1281 C1280 1.391 . S
C1281 C1285 1.376 . S
C1282 C1280 1.394 . S
C1282 C1283 1.369 . S
C1282 C1286 1.531 . S
C1283 C1282 1.369 . S
C1283 C1284 1.410 . S
C1283 C1291 1.503 . S
C1284 C1283 1.410 . S
C1284 C1285 1.392 . S
C1284 C1287 1.511 . S
C1285 C1281 1.376 . S
C1285 C1284 1.392 . S
C1285 H1297 0.929 . S
C1286 C1282 1.531 . S
C1286 H1298 0.960 . S
C1286 H1299 0.962 . S
C1286 H1300 0.960 . S
C1287 C1284 1.511 . S
C1287 H1301 0.961 . S
C1287 H1302 0.961 . S
C1287 H1303 0.961 . S
C1288 C1289 1.370 . S
C1288 C1290 1.363 . S
C1288 H1304 0.931 . S
C1289 C1288 1.370 . S
C1289 C1293 1.408 . S
C1290 C1288 1.363 . S
C1290 C1291 1.370 . S
C1290 C1294 1.524 . S
C1291 C1283 1.503 . S
C1291 C1290 1.370 . S
C1291 C1292 1.403 . S
C1292 C1291 1.403 . S
C1292 C1293 1.404 . S
C1292 C1295 1.539 . S
C1293 C1289 1.408 . S
C1293 C1292 1.404 . S
C1293 H1305 0.930 . S
C1294 C1290 1.524 . S
C1294 H1306 0.956 . S
C1294 H1307 0.961 . S
C1294 H1308 0.961 . S
C1295 C1292 1.539 . S
C1295 H1309 0.958 . S
C1295 H1310 0.961 . S
C1295 H1311 0.960 . S
H1296 C1280 0.931 . S
H1297 C1285 0.929 . S
H1298 C1286 0.960 . S
H1299 C1286 0.962 . S
H1300 C1286 0.960 . S
H1301 C1287 0.961 . S
H1302 C1287 0.961 . S
H1303 C1287 0.961 . S
H1304 C1288 0.931 . S
H1305 C1293 0.930 . S
H1306 C1294 0.956 . S
H1307 C1294 0.961 . S
H1308 C1294 0.961 . S
H1309 C1295 0.958 . S
H1310 C1295 0.961 . S
H1311 C1295 0.960 . S
C1312 C1313 1.391 . S
C1312 C1314 1.394 . S
C1312 H1328 0.931 . S
C1313 C1312 1.391 . S
C1313 C1317 1.376 . S
C1314 C1312 1.394 . S
C1314 C1315 1.369 . S
C1314 C1318 1.531 . S
C1315 C1314 1.369 . S
C1315 C1316 1.410 . S
C1315 C1323 1.503 . S
C1316 C1315 1.410 . S
C1316 C1317 1.392 . S
C1316 C1319 1.511 . S
C1317 C1313 1.376 . S
C1317 C1316 1.392 . S
C1317 H1329 0.929 . S
C1318 C1314 1.531 . S
C1318 H1330 0.960 . S
C1318 H1331 0.962 . S
C1318 H1332 0.960 . S
C1319 C1316 1.511 . S
C1319 H1333 0.961 . S
C1319 H1334 0.961 . S
C1319 H1335 0.961 . S
C1320 C1321 1.370 . S
C1320 C1322 1.363 . S
C1320 H1336 0.931 . S
C1321 C1320 1.370 . S
C1321 C1325 1.408 . S
C1322 C1320 1.363 . S
C1322 C1323 1.370 . S
C1322 C1326 1.524 . S
C1323 C1315 1.503 . S
C1323 C1322 1.370 . S
C1323 C1324 1.403 . S
C1324 C1323 1.403 . S
C1324 C1325 1.404 . S
C1324 C1327 1.539 . S
C1325 C1321 1.408 . S
C1325 C1324 1.404 . S
C1325 H1337 0.930 . S
C1326 C1322 1.524 . S
C1326 H1338 0.956 . S
C1326 H1339 0.961 . S
C1326 H1340 0.961 . S
C1327 C1324 1.539 . S
C1327 H1341 0.958 . S
C1327 H1342 0.961 . S
C1327 H1343 0.960 . S
H1328 C1312 0.931 . S
H1329 C1317 0.929 . S
H1330 C1318 0.960 . S
H1331 C1318 0.962 . S
H1332 C1318 0.960 . S
H1333 C1319 0.961 . S
H1334 C1319 0.961 . S
H1335 C1319 0.961 . S
H1336 C1320 0.931 . S
H1337 C1325 0.930 . S
H1338 C1326 0.956 . S
H1339 C1326 0.961 . S
H1340 C1326 0.961 . S
H1341 C1327 0.958 . S
H1342 C1327 0.961 . S
H1343 C1327 0.960 . S
C1344 C1345 1.391 . S
C1344 C1346 1.394 . S
C1344 H1360 0.931 . S
C1345 C1344 1.391 . S
C1345 C1349 1.376 . S
C1346 C1344 1.394 . S
C1346 C1347 1.369 . S
C1346 C1350 1.531 . S
C1347 C1346 1.369 . S
C1347 C1348 1.410 . S
C1347 C1355 1.503 . S
C1348 C1347 1.410 . S
C1348 C1349 1.392 . S
C1348 C1351 1.511 . S
C1349 C1345 1.376 . S
C1349 C1348 1.392 . S
C1349 H1361 0.929 . S
C1350 C1346 1.531 . S
C1350 H1362 0.960 . S
C1350 H1363 0.962 . S
C1350 H1364 0.960 . S
C1351 C1348 1.511 . S
C1351 H1365 0.961 . S
C1351 H1366 0.961 . S
C1351 H1367 0.961 . S
C1352 C1353 1.370 . S
C1352 C1354 1.363 . S
C1352 H1368 0.931 . S
C1353 C1352 1.370 . S
C1353 C1357 1.408 . S
C1354 C1352 1.363 . S
C1354 C1355 1.370 . S
C1354 C1358 1.524 . S
C1355 C1347 1.503 . S
C1355 C1354 1.370 . S
C1355 C1356 1.403 . S
C1356 C1355 1.403 . S
C1356 C1357 1.404 . S
C1356 C1359 1.539 . S
C1357 C1353 1.408 . S
C1357 C1356 1.404 . S
C1357 H1369 0.930 . S
C1358 C1354 1.524 . S
C1358 H1370 0.956 . S
C1358 H1371 0.961 . S
C1358 H1372 0.961 . S
C1359 C1356 1.539 . S
C1359 H1373 0.958 . S
C1359 H1374 0.961 . S
C1359 H1375 0.960 . S
H1360 C1344 0.931 . S
H1361 C1349 0.929 . S
H1362 C1350 0.960 . S
H1363 C1350 0.962 . S
H1364 C1350 0.960 . S
H1365 C1351 0.961 . S
H1366 C1351 0.961 . S
H1367 C1351 0.961 . S
H1368 C1352 0.931 . S
H1369 C1357 0.930 . S
H1370 C1358 0.956 . S
H1371 C1358 0.961 . S
H1372 C1358 0.961 . S
H1373 C1359 0.958 . S
H1374 C1359 0.961 . S
H1375 C1359 0.960 . S
C1376 C1377 1.391 . S
C1376 C1378 1.394 . S
C1376 H1392 0.931 . S
C1377 C1376 1.391 . S
C1377 C1381 1.376 . S
C1378 C1376 1.394 . S
C1378 C1379 1.369 . S
C1378 C1382 1.531 . S
C1379 C1378 1.369 . S
C1379 C1380 1.410 . S
C1379 C1387 1.503 . S
C1380 C1379 1.410 . S
C1380 C1381 1.392 . S
C1380 C1383 1.511 . S
C1381 C1377 1.376 . S
C1381 C1380 1.392 . S
C1381 H1393 0.929 . S
C1382 C1378 1.531 . S
C1382 H1394 0.960 . S
C1382 H1395 0.962 . S
C1382 H1396 0.960 . S
C1383 C1380 1.511 . S
C1383 H1397 0.961 . S
C1383 H1398 0.961 . S
C1383 H1399 0.961 . S
C1384 C1385 1.370 . S
C1384 C1386 1.363 . S
C1384 H1400 0.931 . S
C1385 C1384 1.370 . S
C1385 C1389 1.408 1_565 S
C1386 C1384 1.363 . S
C1386 C1387 1.370 . S
C1386 C1390 1.524 . S
C1387 C1379 1.503 . S
C1387 C1386 1.370 . S
C1387 C1388 1.403 . S
C1388 C1387 1.403 . S
C1388 C1389 1.404 1_565 S
C1388 C1391 1.539 . S
C1389 C1385 1.408 1_545 S
C1389 C1388 1.404 1_545 S
C1389 H1401 0.930 . S
C1390 C1386 1.524 . S
C1390 H1402 0.956 . S
C1390 H1403 0.961 . S
C1390 H1404 0.961 . S
C1391 C1388 1.539 . S
C1391 H1405 0.958 1_565 S
C1391 H1406 0.961 1_565 S
C1391 H1407 0.960 . S
H1392 C1376 0.931 . S
H1393 C1381 0.929 . S
H1394 C1382 0.960 . S
H1395 C1382 0.962 . S
H1396 C1382 0.960 . S
H1397 C1383 0.961 . S
H1398 C1383 0.961 . S
H1399 C1383 0.961 . S
H1400 C1384 0.931 . S
H1401 C1389 0.930 . S
H1402 C1390 0.956 . S
H1403 C1390 0.961 . S
H1404 C1390 0.961 . S
H1405 C1391 0.958 1_545 S
H1406 C1391 0.961 1_545 S
H1407 C1391 0.960 . S
C1408 C1409 1.391 . S
C1408 C1410 1.394 . S
C1408 H1424 0.931 . S
C1409 C1408 1.391 . S
C1409 C1413 1.376 . S
C1410 C1408 1.394 . S
C1410 C1411 1.369 . S
C1410 C1414 1.531 . S
C1411 C1410 1.369 . S
C1411 C1412 1.410 . S
C1411 C1419 1.503 . S
C1412 C1411 1.410 . S
C1412 C1413 1.392 . S
C1412 C1415 1.511 . S
C1413 C1409 1.376 . S
C1413 C1412 1.392 . S
C1413 H1425 0.929 . S
C1414 C1410 1.531 . S
C1414 H1426 0.960 . S
C1414 H1427 0.962 . S
C1414 H1428 0.960 . S
C1415 C1412 1.511 . S
C1415 H1429 0.961 . S
C1415 H1430 0.961 . S
C1415 H1431 0.961 . S
C1416 C1417 1.370 . S
C1416 C1418 1.363 . S
C1416 H1432 0.931 . S
C1417 C1416 1.370 . S
C1417 C1421 1.408 . S
C1418 C1416 1.363 . S
C1418 C1419 1.370 . S
C1418 C1422 1.524 . S
C1419 C1411 1.503 . S
C1419 C1418 1.370 . S
C1419 C1420 1.403 . S
C1420 C1419 1.403 . S
C1420 C1421 1.404 . S
C1420 C1423 1.539 . S
C1421 C1417 1.408 . S
C1421 C1420 1.404 . S
C1421 H1433 0.930 . S
C1422 C1418 1.524 . S
C1422 H1434 0.956 . S
C1422 H1435 0.961 . S
C1422 H1436 0.961 . S
C1423 C1420 1.539 . S
C1423 H1437 0.958 . S
C1423 H1438 0.961 . S
C1423 H1439 0.960 . S
H1424 C1408 0.931 . S
H1425 C1413 0.929 . S
H1426 C1414 0.960 . S
H1427 C1414 0.962 . S
H1428 C1414 0.960 . S
H1429 C1415 0.961 . S
H1430 C1415 0.961 . S
H1431 C1415 0.961 . S
H1432 C1416 0.931 . S
H1433 C1421 0.930 . S
H1434 C1422 0.956 . S
H1435 C1422 0.961 . S
H1436 C1422 0.961 . S
H1437 C1423 0.958 . S
H1438 C1423 0.961 . S
H1439 C1423 0.960 . S
C1440 C1441 1.391 . S
C1440 C1442 1.394 . S
C1440 H1456 0.931 . S
C1441 C1440 1.391 . S
C1441 C1445 1.376 . S
C1442 C1440 1.394 . S
C1442 C1443 1.369 . S
C1442 C1446 1.531 . S
C1443 C1442 1.369 . S
C1443 C1444 1.410 . S
C1443 C1451 1.503 . S
C1444 C1443 1.410 . S
C1444 C1445 1.392 . S
C1444 C1447 1.511 . S
C1445 C1441 1.376 . S
C1445 C1444 1.392 . S
C1445 H1457 0.929 . S
C1446 C1442 1.531 . S
C1446 H1458 0.960 . S
C1446 H1459 0.962 . S
C1446 H1460 0.960 . S
C1447 C1444 1.511 . S
C1447 H1461 0.961 . S
C1447 H1462 0.961 . S
C1447 H1463 0.961 . S
C1448 C1449 1.370 . S
C1448 C1450 1.363 . S
C1448 H1464 0.931 . S
C1449 C1448 1.370 . S
C1449 C1453 1.408 . S
C1450 C1448 1.363 . S
C1450 C1451 1.370 . S
C1450 C1454 1.524 . S
C1451 C1443 1.503 . S
C1451 C1450 1.370 . S
C1451 C1452 1.403 . S
C1452 C1451 1.403 . S
C1452 C1453 1.404 . S
C1452 C1455 1.539 . S
C1453 C1449 1.408 . S
C1453 C1452 1.404 . S
C1453 H1465 0.930 . S
C1454 C1450 1.524 . S
C1454 H1466 0.956 . S
C1454 H1467 0.961 . S
C1454 H1468 0.961 . S
C1455 C1452 1.539 . S
C1455 H1469 0.958 . S
C1455 H1470 0.961 . S
C1455 H1471 0.960 . S
H1456 C1440 0.931 . S
H1457 C1445 0.929 . S
H1458 C1446 0.960 . S
H1459 C1446 0.962 . S
H1460 C1446 0.960 . S
H1461 C1447 0.961 . S
H1462 C1447 0.961 . S
H1463 C1447 0.961 . S
H1464 C1448 0.931 . S
H1465 C1453 0.930 . S
H1466 C1454 0.956 . S
H1467 C1454 0.961 . S
H1468 C1454 0.961 . S
H1469 C1455 0.958 . S
H1470 C1455 0.961 . S
H1471 C1455 0.960 . S
C1472 C1473 1.391 1_655 S
C1472 C1474 1.394 . S
C1472 H1488 0.931 . S
C1473 C1472 1.391 1_455 S
C1473 C1477 1.376 . S
C1474 C1472 1.394 . S
C1474 C1475 1.369 1_655 S
C1474 C1478 1.531 . S
C1475 C1474 1.369 1_455 S
C1475 C1476 1.410 . S
C1475 C1483 1.503 . S
C1476 C1475 1.410 . S
C1476 C1477 1.392 . S
C1476 C1479 1.511 . S
C1477 C1473 1.376 . S
C1477 C1476 1.392 . S
C1477 H1489 0.929 . S
C1478 C1474 1.531 . S
C1478 H1490 0.960 . S
C1478 H1491 0.962 . S
C1478 H1492 0.960 . S
C1479 C1476 1.511 . S
C1479 H1493 0.961 . S
C1479 H1494 0.961 . S
C1479 H1495 0.961 . S
C1480 C1481 1.370 . S
C1480 C1482 1.363 . S
C1480 H1496 0.931 . S
C1481 C1480 1.370 . S
C1481 C1485 1.408 . S
C1482 C1480 1.363 . S
C1482 C1483 1.370 . S
C1482 C1486 1.524 . S
C1483 C1475 1.503 . S
C1483 C1482 1.370 . S
C1483 C1484 1.403 1_455 S
C1484 C1483 1.403 1_655 S
C1484 C1485 1.404 1_655 S
C1484 C1487 1.539 . S
C1485 C1481 1.408 . S
C1485 C1484 1.404 1_455 S
C1485 H1497 0.930 1_456 S
C1486 C1482 1.524 . S
C1486 H1498 0.956 . S
C1486 H1499 0.961 . S
C1486 H1500 0.961 . S
C1487 C1484 1.539 . S
C1487 H1501 0.958 . S
C1487 H1502 0.961 1_556 S
C1487 H1503 0.960 . S
H1488 C1472 0.931 . S
H1489 C1477 0.929 . S
H1490 C1478 0.960 . S
H1491 C1478 0.962 . S
H1492 C1478 0.960 . S
H1493 C1479 0.961 . S
H1494 C1479 0.961 . S
H1495 C1479 0.961 . S
H1496 C1480 0.931 . S
H1497 C1485 0.930 1_654 S
H1498 C1486 0.956 . S
H1499 C1486 0.961 . S
H1500 C1486 0.961 . S
H1501 C1487 0.958 . S
H1502 C1487 0.961 1_554 S
H1503 C1487 0.960 . S
C1504 C1505 1.391 . S
C1504 C1506 1.394 . S
C1504 H1520 0.931 . S
C1505 C1504 1.391 . S
C1505 C1509 1.376 . S
C1506 C1504 1.394 . S
C1506 C1507 1.369 . S
C1506 C1510 1.531 . S
C1507 C1506 1.369 . S
C1507 C1508 1.410 . S
C1507 C1515 1.503 . S
C1508 C1507 1.410 . S
C1508 C1509 1.392 . S
C1508 C1511 1.511 . S
C1509 C1505 1.376 . S
C1509 C1508 1.392 . S
C1509 H1521 0.929 . S
C1510 C1506 1.531 . S
C1510 H1522 0.960 . S
C1510 H1523 0.962 . S
C1510 H1524 0.960 . S
C1511 C1508 1.511 . S
C1511 H1525 0.961 . S
C1511 H1526 0.961 . S
C1511 H1527 0.961 . S
C1512 C1513 1.370 . S
C1512 C1514 1.363 . S
C1512 H1528 0.931 . S
C1513 C1512 1.370 . S
C1513 C1517 1.408 . S
C1514 C1512 1.363 . S
C1514 C1515 1.370 . S
C1514 C1518 1.524 . S
C1515 C1507 1.503 . S
C1515 C1514 1.370 . S
C1515 C1516 1.403 . S
C1516 C1515 1.403 . S
C1516 C1517 1.404 . S
C1516 C1519 1.539 . S
C1517 C1513 1.408 . S
C1517 C1516 1.404 . S
C1517 H1529 0.930 . S
C1518 C1514 1.524 . S
C1518 H1530 0.956 . S
C1518 H1531 0.961 . S
C1518 H1532 0.961 . S
C1519 C1516 1.539 . S
C1519 H1533 0.958 . S
C1519 H1534 0.961 . S
C1519 H1535 0.960 . S
H1520 C1504 0.931 . S
H1521 C1509 0.929 . S
H1522 C1510 0.960 . S
H1523 C1510 0.962 . S
H1524 C1510 0.960 . S
H1525 C1511 0.961 . S
H1526 C1511 0.961 . S
H1527 C1511 0.961 . S
H1528 C1512 0.931 . S
H1529 C1517 0.930 . S
H1530 C1518 0.956 . S
H1531 C1518 0.961 . S
H1532 C1518 0.961 . S
H1533 C1519 0.958 . S
H1534 C1519 0.961 . S
H1535 C1519 0.960 . S
C1536 C1537 1.391 . S
C1536 C1538 1.394 . S
C1536 H1552 0.931 . S
C1537 C1536 1.391 . S
C1537 C1541 1.376 . S
C1538 C1536 1.394 . S
C1538 C1539 1.369 . S
C1538 C1542 1.531 . S
C1539 C1538 1.369 . S
C1539 C1540 1.410 . S
C1539 C1547 1.503 . S
C1540 C1539 1.410 . S
C1540 C1541 1.392 . S
C1540 C1543 1.511 . S
C1541 C1537 1.376 . S
C1541 C1540 1.392 . S
C1541 H1553 0.929 . S
C1542 C1538 1.531 . S
C1542 H1554 0.960 . S
C1542 H1555 0.962 . S
C1542 H1556 0.960 . S
C1543 C1540 1.511 . S
C1543 H1557 0.961 . S
C1543 H1558 0.961 . S
C1543 H1559 0.961 . S
C1544 C1545 1.370 . S
C1544 C1546 1.363 . S
C1544 H1560 0.931 . S
C1545 C1544 1.370 . S
C1545 C1549 1.408 . S
C1546 C1544 1.363 . S
C1546 C1547 1.370 . S
C1546 C1550 1.524 . S
C1547 C1539 1.503 . S
C1547 C1546 1.370 . S
C1547 C1548 1.403 . S
C1548 C1547 1.403 . S
C1548 C1549 1.404 . S
C1548 C1551 1.539 . S
C1549 C1545 1.408 . S
C1549 C1548 1.404 . S
C1549 H1561 0.930 . S
C1550 C1546 1.524 . S
C1550 H1562 0.956 . S
C1550 H1563 0.961 . S
C1550 H1564 0.961 . S
C1551 C1548 1.539 . S
C1551 H1565 0.958 . S
C1551 H1566 0.961 . S
C1551 H1567 0.960 . S
H1552 C1536 0.931 . S
H1553 C1541 0.929 . S
H1554 C1542 0.960 . S
H1555 C1542 0.962 . S
H1556 C1542 0.960 . S
H1557 C1543 0.961 . S
H1558 C1543 0.961 . S
H1559 C1543 0.961 . S
H1560 C1544 0.931 . S
H1561 C1549 0.930 . S
H1562 C1550 0.956 . S
H1563 C1550 0.961 . S
H1564 C1550 0.961 . S
H1565 C1551 0.958 . S
H1566 C1551 0.961 . S
H1567 C1551 0.960 . S
C1568 C1569 1.391 . S
C1568 C1570 1.394 . S
C1568 H1584 0.931 . S
C1569 C1568 1.391 . S
C1569 C1573 1.376 . S
C1570 C1568 1.394 . S
C1570 C1571 1.369 . S
C1570 C1574 1.531 . S
C1571 C1570 1.369 . S
C1571 C1572 1.410 . S
C1571 C1579 1.503 . S
C1572 C1571 1.410 . S
C1572 C1573 1.392 . S
C1572 C1575 1.511 . S
C1573 C1569 1.376 . S
C1573 C1572 1.392 . S
C1573 H1585 0.929 . S
C1574 C1570 1.531 . S
C1574 H1586 0.960 . S
C1574 H1587 0.962 . S
C1574 H1588 0.960 . S
C1575 C1572 1.511 . S
C1575 H1589 0.961 . S
C1575 H1590 0.961 . S
C1575 H1591 0.961 . S
C1576 C1577 1.370 . S
C1576 C1578 1.363 . S
C1576 H1592 0.931 . S
C1577 C1576 1.370 . S
C1577 C1581 1.408 . S
C1578 C1576 1.363 . S
C1578 C1579 1.370 . S
C1578 C1582 1.524 . S
C1579 C1571 1.503 . S
C1579 C1578 1.370 . S
C1579 C1580 1.403 . S
C1580 C1579 1.403 . S
C1580 C1581 1.404 . S
C1580 C1583 1.539 . S
C1581 C1577 1.408 . S
C1581 C1580 1.404 . S
C1581 H1593 0.930 . S
C1582 C1578 1.524 . S
C1582 H1594 0.956 . S
C1582 H1595 0.961 . S
C1582 H1596 0.961 . S
C1583 C1580 1.539 . S
C1583 H1597 0.958 . S
C1583 H1598 0.961 . S
C1583 H1599 0.960 . S
H1584 C1568 0.931 . S
H1585 C1573 0.929 . S
H1586 C1574 0.960 . S
H1587 C1574 0.962 . S
H1588 C1574 0.960 . S
H1589 C1575 0.961 . S
H1590 C1575 0.961 . S
H1591 C1575 0.961 . S
H1592 C1576 0.931 . S
H1593 C1581 0.930 . S
H1594 C1582 0.956 . S
H1595 C1582 0.961 . S
H1596 C1582 0.961 . S
H1597 C1583 0.958 . S
H1598 C1583 0.961 . S
H1599 C1583 0.960 . S
C1600 C1601 1.391 1_655 S
C1600 C1602 1.394 . S
C1600 H1616 0.931 . S
C1601 C1600 1.391 1_455 S
C1601 C1605 1.376 . S
C1602 C1600 1.394 . S
C1602 C1603 1.369 1_655 S
C1602 C1606 1.531 . S
C1603 C1602 1.369 1_455 S
C1603 C1604 1.410 . S
C1603 C1611 1.503 . S
C1604 C1603 1.410 . S
C1604 C1605 1.392 . S
C1604 C1607 1.511 . S
C1605 C1601 1.376 . S
C1605 C1604 1.392 . S
C1605 H1617 0.929 . S
C1606 C1602 1.531 . S
C1606 H1618 0.960 . S
C1606 H1619 0.962 . S
C1606 H1620 0.960 . S
C1607 C1604 1.511 . S
C1607 H1621 0.961 . S
C1607 H1622 0.961 . S
C1607 H1623 0.961 . S
C1608 C1609 1.370 . S
C1608 C1610 1.363 . S
C1608 H1624 0.931 . S
C1609 C1608 1.370 . S
C1609 C1613 1.408 . S
C1610 C1608 1.363 . S
C1610 C1611 1.370 . S
C1610 C1614 1.524 . S
C1611 C1603 1.503 . S
C1611 C1610 1.370 . S
C1611 C1612 1.403 . S
C1612 C1611 1.403 . S
C1612 C1613 1.404 . S
C1612 C1615 1.539 . S
C1613 C1609 1.408 . S
C1613 C1612 1.404 . S
C1613 H1625 0.930 . S
C1614 C1610 1.524 . S
C1614 H1626 0.956 . S
C1614 H1627 0.961 . S
C1614 H1628 0.961 . S
C1615 C1612 1.539 . S
C1615 H1629 0.958 1_455 S
C1615 H1630 0.961 . S
C1615 H1631 0.960 . S
H1616 C1600 0.931 . S
H1617 C1605 0.929 . S
H1618 C1606 0.960 . S
H1619 C1606 0.962 . S
H1620 C1606 0.960 . S
H1621 C1607 0.961 . S
H1622 C1607 0.961 . S
H1623 C1607 0.961 . S
H1624 C1608 0.931 . S
H1625 C1613 0.930 . S
H1626 C1614 0.956 . S
H1627 C1614 0.961 . S
H1628 C1614 0.961 . S
H1629 C1615 0.958 1_655 S
H1630 C1615 0.961 . S
H1631 C1615 0.960 . S
C1632 C1633 1.391 . S
C1632 C1634 1.394 . S
C1632 H1648 0.931 . S
C1633 C1632 1.391 . S
C1633 C1637 1.376 . S
C1634 C1632 1.394 . S
C1634 C1635 1.369 . S
C1634 C1638 1.531 . S
C1635 C1634 1.369 . S
C1635 C1636 1.410 . S
C1635 C1643 1.503 . S
C1636 C1635 1.410 . S
C1636 C1637 1.392 . S
C1636 C1639 1.511 . S
C1637 C1633 1.376 . S
C1637 C1636 1.392 . S
C1637 H1649 0.929 . S
C1638 C1634 1.531 . S
C1638 H1650 0.960 . S
C1638 H1651 0.962 . S
C1638 H1652 0.960 . S
C1639 C1636 1.511 . S
C1639 H1653 0.961 . S
C1639 H1654 0.961 . S
C1639 H1655 0.961 . S
C1640 C1641 1.370 . S
C1640 C1642 1.363 . S
C1640 H1656 0.931 . S
C1641 C1640 1.370 . S
C1641 C1645 1.408 . S
C1642 C1640 1.363 . S
C1642 C1643 1.370 . S
C1642 C1646 1.524 . S
C1643 C1635 1.503 . S
C1643 C1642 1.370 . S
C1643 C1644 1.403 . S
C1644 C1643 1.403 . S
C1644 C1645 1.404 . S
C1644 C1647 1.539 . S
C1645 C1641 1.408 . S
C1645 C1644 1.404 . S
C1645 H1657 0.930 . S
C1646 C1642 1.524 . S
C1646 H1658 0.956 . S
C1646 H1659 0.961 . S
C1646 H1660 0.961 . S
C1647 C1644 1.539 . S
C1647 H1661 0.958 . S
C1647 H1662 0.961 . S
C1647 H1663 0.960 . S
H1648 C1632 0.931 . S
H1649 C1637 0.929 . S
H1650 C1638 0.960 . S
H1651 C1638 0.962 . S
H1652 C1638 0.960 . S
H1653 C1639 0.961 . S
H1654 C1639 0.961 . S
H1655 C1639 0.961 . S
H1656 C1640 0.931 . S
H1657 C1645 0.930 . S
H1658 C1646 0.956 . S
H1659 C1646 0.961 . S
H1660 C1646 0.961 . S
H1661 C1647 0.958 . S
H1662 C1647 0.961 . S
H1663 C1647 0.960 . S
C1664 C1665 1.391 . S
C1664 C1666 1.394 . S
C1664 H1680 0.931 . S
C1665 C1664 1.391 . S
C1665 C1669 1.376 . S
C1666 C1664 1.394 . S
C1666 C1667 1.369 . S
C1666 C1670 1.531 . S
C1667 C1666 1.369 . S
C1667 C1668 1.410 . S
C1667 C1675 1.503 . S
C1668 C1667 1.410 . S
C1668 C1669 1.392 . S
C1668 C1671 1.511 . S
C1669 C1665 1.376 . S
C1669 C1668 1.392 . S
C1669 H1681 0.929 . S
C1670 C1666 1.531 . S
C1670 H1682 0.960 . S
C1670 H1683 0.962 . S
C1670 H1684 0.960 . S
C1671 C1668 1.511 . S
C1671 H1685 0.961 . S
C1671 H1686 0.961 . S
C1671 H1687 0.961 . S
C1672 C1673 1.370 . S
C1672 C1674 1.363 . S
C1672 H1688 0.931 . S
C1673 C1672 1.370 . S
C1673 C1677 1.408 . S
C1674 C1672 1.363 . S
C1674 C1675 1.370 . S
C1674 C1678 1.524 . S
C1675 C1667 1.503 . S
C1675 C1674 1.370 . S
C1675 C1676 1.403 . S
C1676 C1675 1.403 . S
C1676 C1677 1.404 . S
C1676 C1679 1.539 . S
C1677 C1673 1.408 . S
C1677 C1676 1.404 . S
C1677 H1689 0.930 . S
C1678 C1674 1.524 . S
C1678 H1690 0.956 . S
C1678 H1691 0.961 . S
C1678 H1692 0.961 . S
C1679 C1676 1.539 . S
C1679 H1693 0.958 . S
C1679 H1694 0.961 . S
C1679 H1695 0.960 . S
H1680 C1664 0.931 . S
H1681 C1669 0.929 . S
H1682 C1670 0.960 . S
H1683 C1670 0.962 . S
H1684 C1670 0.960 . S
H1685 C1671 0.961 . S
H1686 C1671 0.961 . S
H1687 C1671 0.961 . S
H1688 C1672 0.931 . S
H1689 C1677 0.930 . S
H1690 C1678 0.956 . S
H1691 C1678 0.961 . S
H1692 C1678 0.961 . S
H1693 C1679 0.958 . S
H1694 C1679 0.961 . S
H1695 C1679 0.960 . S
C1696 C1697 1.391 . S
C1696 C1698 1.394 . S
C1696 H1712 0.931 . S
C1697 C1696 1.391 . S
C1697 C1701 1.376 . S
C1698 C1696 1.394 . S
C1698 C1699 1.369 . S
C1698 C1702 1.531 . S
C1699 C1698 1.369 . S
C1699 C1700 1.410 . S
C1699 C1707 1.503 . S
C1700 C1699 1.410 . S
C1700 C1701 1.392 . S
C1700 C1703 1.511 . S
C1701 C1697 1.376 . S
C1701 C1700 1.392 . S
C1701 H1713 0.929 . S
C1702 C1698 1.531 . S
C1702 H1714 0.960 . S
C1702 H1715 0.962 . S
C1702 H1716 0.960 . S
C1703 C1700 1.511 . S
C1703 H1717 0.961 . S
C1703 H1718 0.961 . S
C1703 H1719 0.961 . S
C1704 C1705 1.370 . S
C1704 C1706 1.363 . S
C1704 H1720 0.931 . S
C1705 C1704 1.370 . S
C1705 C1709 1.408 . S
C1706 C1704 1.363 . S
C1706 C1707 1.370 . S
C1706 C1710 1.524 . S
C1707 C1699 1.503 . S
C1707 C1706 1.370 . S
C1707 C1708 1.403 . S
C1708 C1707 1.403 . S
C1708 C1709 1.404 . S
C1708 C1711 1.539 . S
C1709 C1705 1.408 . S
C1709 C1708 1.404 . S
C1709 H1721 0.930 . S
C1710 C1706 1.524 . S
C1710 H1722 0.956 . S
C1710 H1723 0.961 . S
C1710 H1724 0.961 . S
C1711 C1708 1.539 . S
C1711 H1725 0.958 . S
C1711 H1726 0.961 . S
C1711 H1727 0.960 . S
H1712 C1696 0.931 . S
H1713 C1701 0.929 . S
H1714 C1702 0.960 . S
H1715 C1702 0.962 . S
H1716 C1702 0.960 . S
H1717 C1703 0.961 . S
H1718 C1703 0.961 . S
H1719 C1703 0.961 . S
H1720 C1704 0.931 . S
H1721 C1709 0.930 . S
H1722 C1710 0.956 . S
H1723 C1710 0.961 . S
H1724 C1710 0.961 . S
H1725 C1711 0.958 . S
H1726 C1711 0.961 . S
H1727 C1711 0.960 . S
C1728 C1729 1.391 . S
C1728 C1730 1.394 . S
C1728 H1744 0.931 1_545 S
C1729 C1728 1.391 . S
C1729 C1733 1.376 . S
C1730 C1728 1.394 . S
C1730 C1731 1.369 . S
C1730 C1734 1.531 1_545 S
C1731 C1730 1.369 . S
C1731 C1732 1.410 . S
C1731 C1739 1.503 . S
C1732 C1731 1.410 . S
C1732 C1733 1.392 . S
C1732 C1735 1.511 . S
C1733 C1729 1.376 . S
C1733 C1732 1.392 . S
C1733 H1745 0.929 . S
C1734 C1730 1.531 1_565 S
C1734 H1746 0.960 . S
C1734 H1747 0.962 1_565 S
C1734 H1748 0.960 . S
C1735 C1732 1.511 . S
C1735 H1749 0.961 . S
C1735 H1750 0.961 . S
C1735 H1751 0.961 . S
C1736 C1737 1.370 . S
C1736 C1738 1.363 . S
C1736 H1752 0.931 . S
C1737 C1736 1.370 . S
C1737 C1741 1.408 . S
C1738 C1736 1.363 . S
C1738 C1739 1.370 . S
C1738 C1742 1.524 . S
C1739 C1731 1.503 . S
C1739 C1738 1.370 . S
C1739 C1740 1.403 . S
C1740 C1739 1.403 . S
C1740 C1741 1.404 . S
C1740 C1743 1.539 1_545 S
C1741 C1737 1.408 . S
C1741 C1740 1.404 . S
C1741 H1753 0.930 . S
C1742 C1738 1.524 . S
C1742 H1754 0.956 . S
C1742 H1755 0.961 . S
C1742 H1756 0.961 . S
C1743 C1740 1.539 1_565 S
C1743 H1757 0.958 . S
C1743 H1758 0.961 . S
C1743 H1759 0.960 . S
H1744 C1728 0.931 1_565 S
H1745 C1733 0.929 . S
H1746 C1734 0.960 . S
H1747 C1734 0.962 1_545 S
H1748 C1734 0.960 . S
H1749 C1735 0.961 . S
H1750 C1735 0.961 . S
H1751 C1735 0.961 . S
H1752 C1736 0.931 . S
H1753 C1741 0.930 . S
H1754 C1742 0.956 . S
H1755 C1742 0.961 . S
H1756 C1742 0.961 . S
H1757 C1743 0.958 . S
H1758 C1743 0.961 . S
H1759 C1743 0.960 . S
C1760 C1761 1.391 . S
C1760 C1762 1.394 . S
C1760 H1776 0.931 . S
C1761 C1760 1.391 . S
C1761 C1765 1.376 . S
C1762 C1760 1.394 . S
C1762 C1763 1.369 . S
C1762 C1766 1.531 . S
C1763 C1762 1.369 . S
C1763 C1764 1.410 . S
C1763 C1771 1.503 . S
C1764 C1763 1.410 . S
C1764 C1765 1.392 . S
C1764 C1767 1.511 . S
C1765 C1761 1.376 . S
C1765 C1764 1.392 . S
C1765 H1777 0.929 . S
C1766 C1762 1.531 . S
C1766 H1778 0.960 . S
C1766 H1779 0.962 . S
C1766 H1780 0.960 . S
C1767 C1764 1.511 . S
C1767 H1781 0.961 . S
C1767 H1782 0.961 . S
C1767 H1783 0.961 . S
C1768 C1769 1.370 . S
C1768 C1770 1.363 . S
C1768 H1784 0.931 . S
C1769 C1768 1.370 . S
C1769 C1773 1.408 . S
C1770 C1768 1.363 . S
C1770 C1771 1.370 . S
C1770 C1774 1.524 . S
C1771 C1763 1.503 . S
C1771 C1770 1.370 . S
C1771 C1772 1.403 . S
C1772 C1771 1.403 . S
C1772 C1773 1.404 . S
C1772 C1775 1.539 . S
C1773 C1769 1.408 . S
C1773 C1772 1.404 . S
C1773 H1785 0.930 . S
C1774 C1770 1.524 . S
C1774 H1786 0.956 . S
C1774 H1787 0.961 . S
C1774 H1788 0.961 . S
C1775 C1772 1.539 . S
C1775 H1789 0.958 . S
C1775 H1790 0.961 . S
C1775 H1791 0.960 . S
H1776 C1760 0.931 . S
H1777 C1765 0.929 . S
H1778 C1766 0.960 . S
H1779 C1766 0.962 . S
H1780 C1766 0.960 . S
H1781 C1767 0.961 . S
H1782 C1767 0.961 . S
H1783 C1767 0.961 . S
H1784 C1768 0.931 . S
H1785 C1773 0.930 . S
H1786 C1774 0.956 . S
H1787 C1774 0.961 . S
H1788 C1774 0.961 . S
H1789 C1775 0.958 . S
H1790 C1775 0.961 . S
H1791 C1775 0.960 . S
C1792 C1793 1.391 . S
C1792 C1794 1.394 . S
C1792 H1808 0.931 . S
C1793 C1792 1.391 . S
C1793 C1797 1.376 1_545 S
C1794 C1792 1.394 . S
C1794 C1795 1.339 1_545 S
C1794 C1798 1.531 . S
C1795 C1794 1.339 1_565 S
C1795 C1796 1.434 . S
C1795 C1803 1.515 . S
C1796 C1795 1.434 . S
C1796 C1797 1.392 . S
C1796 C1799 1.511 . S
C1797 C1793 1.376 1_565 S
C1797 C1796 1.392 . S
C1797 H1809 0.929 . S
C1798 C1794 1.531 . S
C1798 H1810 0.960 . S
C1798 H1811 0.962 . S
C1798 H1812 0.960 . S
C1799 C1796 1.511 . S
C1799 H1813 0.961 . S
C1799 H1814 0.961 . S
C1799 H1815 0.961 . S
C1800 C1801 1.370 . S
C1800 C1802 1.363 . S
C1800 H1816 0.931 . S
C1801 C1800 1.370 . S
C1801 C1805 1.408 1_565 S
C1802 C1800 1.363 . S
C1802 C1803 1.370 . S
C1802 C1806 1.524 . S
C1803 C1795 1.515 . S
C1803 C1802 1.370 . S
C1803 C1804 1.403 1_565 S
C1804 C1803 1.403 1_545 S
C1804 C1805 1.404 . S
C1804 C1807 1.539 . S
C1805 C1801 1.408 1_545 S
C1805 C1804 1.404 . S
C1805 H1817 0.930 . S
C1806 C1802 1.524 . S
C1806 H1818 0.956 . S
C1806 H1819 0.961 . S
C1806 H1820 0.961 . S
C1807 C1804 1.539 . S
C1807 H1821 0.958 . S
C1807 H1822 0.961 . S
C1807 H1823 0.960 . S
H1808 C1792 0.931 . S
H1809 C1797 0.929 . S
H1810 C1798 0.960 . S
H1811 C1798 0.962 . S
H1812 C1798 0.960 . S
H1813 C1799 0.961 . S
H1814 C1799 0.961 . S
H1815 C1799 0.961 . S
H1816 C1800 0.931 . S
H1817 C1805 0.930 . S
H1818 C1806 0.956 . S
H1819 C1806 0.961 . S
H1820 C1806 0.961 . S
H1821 C1807 0.958 . S
H1822 C1807 0.961 . S
H1823 C1807 0.960 . S
C1824 C1825 1.391 . S
C1824 C1826 1.394 . S
C1824 H1840 0.931 . S
C1825 C1824 1.391 . S
C1825 C1829 1.376 . S
C1826 C1824 1.394 . S
C1826 C1827 1.369 . S
C1826 C1830 1.531 . S
C1827 C1826 1.369 . S
C1827 C1828 1.410 . S
C1827 C1835 1.503 . S
C1828 C1827 1.410 . S
C1828 C1829 1.392 . S
C1828 C1831 1.511 . S
C1829 C1825 1.376 . S
C1829 C1828 1.392 . S
C1829 H1841 0.929 . S
C1830 C1826 1.531 . S
C1830 H1842 0.960 . S
C1830 H1843 0.962 . S
C1830 H1844 0.960 . S
C1831 C1828 1.511 . S
C1831 H1845 0.961 . S
C1831 H1846 0.961 . S
C1831 H1847 0.961 . S
C1832 C1833 1.370 . S
C1832 C1834 1.363 . S
C1832 H1848 0.931 . S
C1833 C1832 1.370 . S
C1833 C1837 1.408 . S
C1834 C1832 1.363 . S
C1834 C1835 1.370 . S
C1834 C1838 1.524 . S
C1835 C1827 1.503 . S
C1835 C1834 1.370 . S
C1835 C1836 1.403 . S
C1836 C1835 1.403 . S
C1836 C1837 1.404 . S
C1836 C1839 1.539 . S
C1837 C1833 1.408 . S
C1837 C1836 1.404 . S
C1837 H1849 0.930 . S
C1838 C1834 1.524 . S
C1838 H1850 0.956 . S
C1838 H1851 0.961 . S
C1838 H1852 0.961 . S
C1839 C1836 1.539 . S
C1839 H1853 0.958 . S
C1839 H1854 0.961 . S
C1839 H1855 0.960 . S
H1840 C1824 0.931 . S
H1841 C1829 0.929 . S
H1842 C1830 0.960 . S
H1843 C1830 0.962 . S
H1844 C1830 0.960 . S
H1845 C1831 0.961 . S
H1846 C1831 0.961 . S
H1847 C1831 0.961 . S
H1848 C1832 0.931 . S
H1849 C1837 0.930 . S
H1850 C1838 0.956 . S
H1851 C1838 0.961 . S
H1852 C1838 0.961 . S
H1853 C1839 0.958 . S
H1854 C1839 0.961 . S
H1855 C1839 0.960 . S
C1856 C1857 1.391 . S
C1856 C1858 1.394 . S
C1856 H1872 0.931 . S
C1857 C1856 1.391 . S
C1857 C1861 1.376 . S
C1858 C1856 1.394 . S
C1858 C1859 1.369 . S
C1858 C1862 1.531 . S
C1859 C1858 1.369 . S
C1859 C1860 1.410 . S
C1859 C1867 1.503 . S
C1860 C1859 1.410 . S
C1860 C1861 1.392 . S
C1860 C1863 1.511 1_545 S
C1861 C1857 1.376 . S
C1861 C1860 1.392 . S
C1861 H1873 0.929 . S
C1862 C1858 1.531 . S
C1862 H1874 0.960 . S
C1862 H1875 0.962 . S
C1862 H1876 0.960 . S
C1863 C1860 1.511 1_565 S
C1863 H1877 0.961 . S
C1863 H1878 0.961 . S
C1863 H1879 0.961 1_565 S
C1864 C1865 1.370 . S
C1864 C1866 1.363 . S
C1864 H1880 0.931 . S
C1865 C1864 1.370 . S
C1865 C1869 1.408 1_565 S
C1866 C1864 1.363 . S
C1866 C1867 1.370 1_565 S
C1866 C1870 1.524 . S
C1867 C1859 1.503 . S
C1867 C1866 1.370 1_545 S
C1867 C1868 1.403 . S
C1868 C1867 1.403 . S
C1868 C1869 1.404 . S
C1868 C1871 1.539 . S
C1869 C1865 1.408 1_545 S
C1869 C1868 1.404 . S
C1869 H1881 0.930 . S
C1870 C1866 1.524 . S
C1870 H1882 0.956 . S
C1870 H1883 0.961 . S
C1870 H1884 0.961 . S
C1871 C1868 1.539 . S
C1871 H1885 0.958 . S
C1871 H1886 0.961 . S
C1871 H1887 0.960 . S
H1872 C1856 0.931 . S
H1873 C1861 0.929 . S
H1874 C1862 0.960 . S
H1875 C1862 0.962 . S
H1876 C1862 0.960 . S
H1877 C1863 0.961 . S
H1878 C1863 0.961 . S
H1879 C1863 0.961 1_545 S
H1880 C1864 0.931 . S
H1881 C1869 0.930 . S
H1882 C1870 0.956 . S
H1883 C1870 0.961 . S
H1884 C1870 0.961 . S
H1885 C1871 0.958 . S
H1886 C1871 0.961 . S
H1887 C1871 0.960 . S
C1888 C1889 1.391 . S
C1888 C1890 1.394 . S
C1888 H1904 0.931 . S
C1889 C1888 1.391 . S
C1889 C1893 1.376 . S
C1890 C1888 1.394 . S
C1890 C1891 1.369 . S
C1890 C1894 1.531 . S
C1891 C1890 1.369 . S
C1891 C1892 1.410 . S
C1891 C1899 1.503 . S
C1892 C1891 1.410 . S
C1892 C1893 1.392 . S
C1892 C1895 1.511 . S
C1893 C1889 1.376 . S
C1893 C1892 1.392 . S
C1893 H1905 0.929 . S
C1894 C1890 1.531 . S
C1894 H1906 0.960 . S
C1894 H1907 0.962 . S
C1894 H1908 0.960 . S
C1895 C1892 1.511 . S
C1895 H1909 0.961 . S
C1895 H1910 0.961 . S
C1895 H1911 0.961 . S
C1896 C1897 1.370 . S
C1896 C1898 1.363 . S
C1896 H1912 0.931 . S
C1897 C1896 1.370 . S
C1897 C1901 1.408 . S
C1898 C1896 1.363 . S
C1898 C1899 1.370 . S
C1898 C1902 1.524 . S
C1899 C1891 1.503 . S
C1899 C1898 1.370 . S
C1899 C1900 1.403 . S
C1900 C1899 1.403 . S
C1900 C1901 1.404 . S
C1900 C1903 1.539 . S
C1901 C1897 1.408 . S
C1901 C1900 1.404 . S
C1901 H1913 0.930 . S
C1902 C1898 1.524 . S
C1902 H1914 0.956 . S
C1902 H1915 0.961 . S
C1902 H1916 0.961 . S
C1903 C1900 1.539 . S
C1903 H1917 0.958 . S
C1903 H1918 0.961 . S
C1903 H1919 0.960 . S
H1904 C1888 0.931 . S
H1905 C1893 0.929 . S
H1906 C1894 0.960 . S
H1907 C1894 0.962 . S
H1908 C1894 0.960 . S
H1909 C1895 0.961 . S
H1910 C1895 0.961 . S
H1911 C1895 0.961 . S
H1912 C1896 0.931 . S
H1913 C1901 0.930 . S
H1914 C1902 0.956 . S
H1915 C1902 0.961 . S
H1916 C1902 0.961 . S
H1917 C1903 0.958 . S
H1918 C1903 0.961 . S
H1919 C1903 0.960 . S
C1920 C1921 1.390 1_565 S
C1920 C1922 1.394 . S
C1920 H1936 0.931 . S
C1921 C1920 1.390 1_545 S
C1921 C1925 1.377 . S
C1922 C1920 1.394 . S
C1922 C1923 1.369 1_565 S
C1922 C1926 1.531 . S
C1923 C1922 1.369 1_545 S
C1923 C1924 1.410 . S
C1923 C1931 1.503 . S
C1924 C1923 1.410 . S
C1924 C1925 1.392 . S
C1924 C1927 1.511 . S
C1925 C1921 1.377 . S
C1925 C1924 1.392 . S
C1925 H1937 0.929 . S
C1926 C1922 1.531 . S
C1926 H1938 0.960 . S
C1926 H1939 0.962 . S
C1926 H1940 0.960 . S
C1927 C1924 1.511 . S
C1927 H1941 0.961 . S
C1927 H1942 0.961 . S
C1927 H1943 0.961 . S
C1928 C1929 1.370 . S
C1928 C1930 1.363 . S
C1928 H1944 0.931 . S
C1929 C1928 1.370 . S
C1929 C1933 1.404 . S
C1930 C1928 1.363 . S
C1930 C1931 1.370 . S
C1930 C1934 1.524 . S
C1931 C1923 1.503 . S
C1931 C1930 1.370 . S
C1931 C1932 1.403 1_545 S
C1932 C1931 1.403 1_565 S
C1932 C1933 1.405 1_565 S
C1932 C1935 1.539 . S
C1933 C1929 1.404 . S
C1933 C1932 1.405 1_545 S
C1933 H1945 0.933 1_545 S
C1934 C1930 1.524 . S
C1934 H1946 0.956 . S
C1934 H1947 0.961 . S
C1934 H1948 0.961 . S
C1935 C1932 1.539 . S
C1935 H1949 0.958 . S
C1935 H1950 0.961 . S
C1935 H1951 0.960 . S
H1936 C1920 0.931 . S
H1937 C1925 0.929 . S
H1938 C1926 0.960 . S
H1939 C1926 0.962 . S
H1940 C1926 0.960 . S
H1941 C1927 0.961 . S
H1942 C1927 0.961 . S
H1943 C1927 0.961 . S
H1944 C1928 0.931 . S
H1945 C1933 0.933 1_565 S
H1946 C1934 0.956 . S
H1947 C1934 0.961 . S
H1948 C1934 0.961 . S
H1949 C1935 0.958 . S
H1950 C1935 0.961 . S
H1951 C1935 0.960 . S
C1952 C1953 1.391 . S
C1952 C1954 1.394 . S
C1952 H1968 0.931 . S
C1953 C1952 1.391 . S
C1953 C1957 1.376 . S
C1954 C1952 1.394 . S
C1954 C1955 1.369 . S
C1954 C1958 1.531 . S
C1955 C1954 1.369 . S
C1955 C1956 1.410 . S
C1955 C1963 1.503 . S
C1956 C1955 1.410 . S
C1956 C1957 1.392 . S
C1956 C1959 1.511 . S
C1957 C1953 1.376 . S
C1957 C1956 1.392 . S
C1957 H1969 0.929 . S
C1958 C1954 1.531 . S
C1958 H1970 0.960 . S
C1958 H1971 0.962 . S
C1958 H1972 0.960 . S
C1959 C1956 1.511 . S
C1959 H1973 0.961 . S
C1959 H1974 0.961 . S
C1959 H1975 0.961 . S
C1960 C1961 1.370 . S
C1960 C1962 1.363 . S
C1960 H1976 0.931 . S
C1961 C1960 1.370 . S
C1961 C1965 1.408 . S
C1962 C1960 1.363 . S
C1962 C1963 1.370 . S
C1962 C1966 1.524 . S
C1963 C1955 1.503 . S
C1963 C1962 1.370 . S
C1963 C1964 1.403 . S
C1964 C1963 1.403 . S
C1964 C1965 1.404 . S
C1964 C1967 1.539 . S
C1965 C1961 1.408 . S
C1965 C1964 1.404 . S
C1965 H1977 0.930 . S
C1966 C1962 1.524 . S
C1966 H1978 0.956 . S
C1966 H1979 0.961 . S
C1966 H1980 0.961 . S
C1967 C1964 1.539 . S
C1967 H1981 0.958 . S
C1967 H1982 0.961 . S
C1967 H1983 0.960 . S
H1968 C1952 0.931 . S
H1969 C1957 0.929 . S
H1970 C1958 0.960 . S
H1971 C1958 0.962 . S
H1972 C1958 0.960 . S
H1973 C1959 0.961 . S
H1974 C1959 0.961 . S
H1975 C1959 0.961 . S
H1976 C1960 0.931 . S
H1977 C1965 0.930 . S
H1978 C1966 0.956 . S
H1979 C1966 0.961 . S
H1980 C1966 0.961 . S
H1981 C1967 0.958 . S
H1982 C1967 0.961 . S
H1983 C1967 0.960 . S
C1984 C1985 1.391 1_556 S
C1984 C1986 1.394 . S
C1984 H2000 0.931 . S
C1985 C1984 1.391 1_554 S
C1985 C1989 1.376 . S
C1986 C1984 1.394 . S
C1986 C1987 1.369 1_556 S
C1986 C1990 1.531 . S
C1987 C1986 1.369 1_554 S
C1987 C1988 1.410 . S
C1987 C1995 1.503 . S
C1988 C1987 1.410 . S
C1988 C1989 1.392 . S
C1988 C1991 1.511 . S
C1989 C1985 1.376 . S
C1989 C1988 1.392 . S
C1989 H2001 0.929 . S
C1990 C1986 1.531 . S
C1990 H2002 0.960 . S
C1990 H2003 0.962 . S
C1990 H2004 0.960 . S
C1991 C1988 1.511 . S
C1991 H2005 0.961 . S
C1991 H2006 0.961 . S
C1991 H2007 0.961 . S
C1992 C1993 1.370 . S
C1992 C1994 1.363 . S
C1992 H2008 0.931 . S
C1993 C1992 1.370 . S
C1993 C1997 1.408 . S
C1994 C1992 1.363 . S
C1994 C1995 1.370 . S
C1994 C1998 1.524 . S
C1995 C1987 1.503 . S
C1995 C1994 1.370 . S
C1995 C1996 1.403 . S
C1996 C1995 1.403 . S
C1996 C1997 1.404 . S
C1996 C1999 1.539 1_554 S
C1997 C1993 1.408 . S
C1997 C1996 1.404 . S
C1997 H2009 0.930 . S
C1998 C1994 1.524 . S
C1998 H2010 0.956 . S
C1998 H2011 0.961 . S
C1998 H2012 0.961 . S
C1999 C1996 1.539 1_556 S
C1999 H2013 0.958 . S
C1999 H2014 0.961 . S
C1999 H2015 0.960 . S
H2000 C1984 0.931 . S
H2001 C1989 0.929 . S
H2002 C1990 0.960 . S
H2003 C1990 0.962 . S
H2004 C1990 0.960 . S
H2005 C1991 0.961 . S
H2006 C1991 0.961 . S
H2007 C1991 0.961 . S
H2008 C1992 0.931 . S
H2009 C1997 0.930 . S
H2010 C1998 0.956 . S
H2011 C1998 0.961 . S
H2012 C1998 0.961 . S
H2013 C1999 0.958 . S
H2014 C1999 0.961 . S
H2015 C1999 0.960 . S
C2016 C2017 1.391 . S
C2016 C2018 1.394 . S
C2016 H2032 0.931 . S
C2017 C2016 1.391 . S
C2017 C2021 1.376 1_554 S
C2018 C2016 1.394 . S
C2018 C2019 1.369 1_554 S
C2018 C2022 1.531 . S
C2019 C2018 1.369 1_556 S
C2019 C2020 1.410 . S
C2019 C2027 1.503 . S
C2020 C2019 1.410 . S
C2020 C2021 1.392 . S
C2020 C2023 1.511 . S
C2021 C2017 1.376 1_556 S
C2021 C2020 1.392 . S
C2021 H2033 0.929 . S
C2022 C2018 1.531 . S
C2022 H2034 0.960 . S
C2022 H2035 0.962 . S
C2022 H2036 0.960 . S
C2023 C2020 1.511 . S
C2023 H2037 0.961 . S
C2023 H2038 0.961 . S
C2023 H2039 0.961 . S
C2024 C2025 1.370 1_554 S
C2024 C2026 1.363 . S
C2024 H2040 0.931 . S
C2025 C2024 1.370 1_556 S
C2025 C2029 1.408 . S
C2026 C2024 1.363 . S
C2026 C2027 1.370 1_554 S
C2026 C2030 1.524 . S
C2027 C2019 1.503 . S
C2027 C2026 1.370 1_556 S
C2027 C2028 1.403 . S
C2028 C2027 1.403 . S
C2028 C2029 1.404 . S
C2028 C2031 1.539 . S
C2029 C2025 1.408 . S
C2029 C2028 1.404 . S
C2029 H2041 0.930 . S
C2030 C2026 1.524 . S
C2030 H2042 0.956 . S
C2030 H2043 0.961 . S
C2030 H2044 0.961 . S
C2031 C2028 1.539 . S
C2031 H2045 0.958 . S
C2031 H2046 0.961 . S
C2031 H2047 0.960 . S
H2032 C2016 0.931 . S
H2033 C2021 0.929 . S
H2034 C2022 0.960 . S
H2035 C2022 0.962 . S
H2036 C2022 0.960 . S
H2037 C2023 0.961 . S
H2038 C2023 0.961 . S
H2039 C2023 0.961 . S
H2040 C2024 0.931 . S
H2041 C2029 0.930 . S
H2042 C2030 0.956 . S
H2043 C2030 0.961 . S
H2044 C2030 0.961 . S
H2045 C2031 0.958 . S
H2046 C2031 0.961 . S
H2047 C2031 0.960 . S
C2048 C2049 1.391 . S
C2048 C2050 1.394 . S
C2048 H2064 0.931 . S
C2049 C2048 1.391 . S
C2049 C2053 1.376 . S
C2050 C2048 1.394 . S
C2050 C2051 1.369 . S
C2050 C2054 1.531 . S
C2051 C2050 1.369 . S
C2051 C2052 1.410 . S
C2051 C2059 1.503 . S
C2052 C2051 1.410 . S
C2052 C2053 1.392 . S
C2052 C2055 1.511 . S
C2053 C2049 1.376 . S
C2053 C2052 1.392 . S
C2053 H2065 0.929 . S
C2054 C2050 1.531 . S
C2054 H2066 0.960 . S
C2054 H2067 0.962 . S
C2054 H2068 0.960 . S
C2055 C2052 1.511 . S
C2055 H2069 0.961 . S
C2055 H2070 0.961 . S
C2055 H2071 0.961 . S
C2056 C2057 1.370 . S
C2056 C2058 1.363 . S
C2056 H2072 0.931 . S
C2057 C2056 1.370 . S
C2057 C2061 1.408 . S
C2058 C2056 1.363 . S
C2058 C2059 1.370 . S
C2058 C2062 1.524 . S
C2059 C2051 1.503 . S
C2059 C2058 1.370 . S
C2059 C2060 1.403 . S
C2060 C2059 1.403 . S
C2060 C2061 1.404 . S
C2060 C2063 1.539 . S
C2061 C2057 1.408 . S
C2061 C2060 1.404 . S
C2061 H2073 0.930 . S
C2062 C2058 1.524 . S
C2062 H2074 0.956 . S
C2062 H2075 0.961 . S
C2062 H2076 0.961 . S
C2063 C2060 1.539 . S
C2063 H2077 0.958 . S
C2063 H2078 0.961 . S
C2063 H2079 0.960 . S
H2064 C2048 0.931 . S
H2065 C2053 0.929 . S
H2066 C2054 0.960 . S
H2067 C2054 0.962 . S
H2068 C2054 0.960 . S
H2069 C2055 0.961 . S
H2070 C2055 0.961 . S
H2071 C2055 0.961 . S
H2072 C2056 0.931 . S
H2073 C2061 0.930 . S
H2074 C2062 0.956 . S
H2075 C2062 0.961 . S
H2076 C2062 0.961 . S
H2077 C2063 0.958 . S
H2078 C2063 0.961 . S
H2079 C2063 0.960 . S
C2080 C2081 1.391 . S
C2080 C2082 1.394 . S
C2080 H2096 0.931 . S
C2081 C2080 1.391 . S
C2081 C2085 1.376 . S
C2082 C2080 1.394 . S
C2082 C2083 1.369 . S
C2082 C2086 1.531 . S
C2083 C2082 1.369 . S
C2083 C2084 1.410 . S
C2083 C2091 1.503 . S
C2084 C2083 1.410 . S
C2084 C2085 1.392 . S
C2084 C2087 1.511 . S
C2085 C2081 1.376 . S
C2085 C2084 1.392 . S
C2085 H2097 0.929 . S
C2086 C2082 1.531 . S
C2086 H2098 0.960 . S
C2086 H2099 0.962 . S
C2086 H2100 0.960 . S
C2087 C2084 1.511 . S
C2087 H2101 0.961 . S
C2087 H2102 0.961 . S
C2087 H2103 0.961 . S
C2088 C2089 1.370 . S
C2088 C2090 1.363 . S
C2088 H2104 0.931 . S
C2089 C2088 1.370 . S
C2089 C2093 1.408 . S
C2090 C2088 1.363 . S
C2090 C2091 1.370 . S
C2090 C2094 1.524 . S
C2091 C2083 1.503 . S
C2091 C2090 1.370 . S
C2091 C2092 1.403 . S
C2092 C2091 1.403 . S
C2092 C2093 1.404 . S
C2092 C2095 1.539 . S
C2093 C2089 1.408 . S
C2093 C2092 1.404 . S
C2093 H2105 0.930 . S
C2094 C2090 1.524 . S
C2094 H2106 0.956 . S
C2094 H2107 0.961 . S
C2094 H2108 0.961 . S
C2095 C2092 1.539 . S
C2095 H2109 0.958 . S
C2095 H2110 0.961 . S
C2095 H2111 0.960 . S
H2096 C2080 0.931 . S
H2097 C2085 0.929 . S
H2098 C2086 0.960 . S
H2099 C2086 0.962 . S
H2100 C2086 0.960 . S
H2101 C2087 0.961 . S
H2102 C2087 0.961 . S
H2103 C2087 0.961 . S
H2104 C2088 0.931 . S
H2105 C2093 0.930 . S
H2106 C2094 0.956 . S
H2107 C2094 0.961 . S
H2108 C2094 0.961 . S
H2109 C2095 0.958 . S
H2110 C2095 0.961 . S
H2111 C2095 0.960 . S
C2112 C2113 1.391 . S
C2112 C2114 1.394 . S
C2112 H2128 0.931 . S
C2113 C2112 1.391 . S
C2113 C2117 1.376 . S
C2114 C2112 1.394 . S
C2114 C2115 1.369 . S
C2114 C2118 1.531 . S
C2115 C2114 1.369 . S
C2115 C2116 1.410 . S
C2115 C2123 1.503 . S
C2116 C2115 1.410 . S
C2116 C2117 1.392 . S
C2116 C2119 1.511 . S
C2117 C2113 1.376 . S
C2117 C2116 1.392 . S
C2117 H2129 0.929 . S
C2118 C2114 1.531 . S
C2118 H2130 0.960 . S
C2118 H2131 0.962 . S
C2118 H2132 0.960 . S
C2119 C2116 1.511 . S
C2119 H2133 0.961 . S
C2119 H2134 0.961 . S
C2119 H2135 0.961 . S
C2120 C2121 1.370 . S
C2120 C2122 1.363 . S
C2120 H2136 0.931 . S
C2121 C2120 1.370 . S
C2121 C2125 1.408 . S
C2122 C2120 1.363 . S
C2122 C2123 1.370 . S
C2122 C2126 1.524 . S
C2123 C2115 1.503 . S
C2123 C2122 1.370 . S
C2123 C2124 1.403 . S
C2124 C2123 1.403 . S
C2124 C2125 1.404 . S
C2124 C2127 1.539 . S
C2125 C2121 1.408 . S
C2125 C2124 1.404 . S
C2125 H2137 0.930 . S
C2126 C2122 1.524 . S
C2126 H2138 0.956 . S
C2126 H2139 0.961 . S
C2126 H2140 0.961 . S
C2127 C2124 1.539 . S
C2127 H2141 0.958 . S
C2127 H2142 0.961 . S
C2127 H2143 0.960 . S
H2128 C2112 0.931 . S
H2129 C2117 0.929 . S
H2130 C2118 0.960 . S
H2131 C2118 0.962 . S
H2132 C2118 0.960 . S
H2133 C2119 0.961 . S
H2134 C2119 0.961 . S
H2135 C2119 0.961 . S
H2136 C2120 0.931 . S
H2137 C2125 0.930 . S
H2138 C2126 0.956 . S
H2139 C2126 0.961 . S
H2140 C2126 0.961 . S
H2141 C2127 0.958 . S
H2142 C2127 0.961 . S
H2143 C2127 0.960 . S
C2144 C2145 1.391 . S
C2144 C2146 1.394 . S
C2144 H2160 0.931 . S
C2145 C2144 1.391 . S
C2145 C2149 1.376 . S
C2146 C2144 1.394 . S
C2146 C2147 1.369 . S
C2146 C2150 1.531 . S
C2147 C2146 1.369 . S
C2147 C2148 1.410 . S
C2147 C2155 1.503 . S
C2148 C2147 1.410 . S
C2148 C2149 1.392 . S
C2148 C2151 1.511 . S
C2149 C2145 1.376 . S
C2149 C2148 1.392 . S
C2149 H2161 0.929 . S
C2150 C2146 1.531 . S
C2150 H2162 0.960 . S
C2150 H2163 0.962 . S
C2150 H2164 0.960 . S
C2151 C2148 1.511 . S
C2151 H2165 0.961 . S
C2151 H2166 0.961 . S
C2151 H2167 0.961 . S
C2152 C2153 1.370 . S
C2152 C2154 1.363 . S
C2152 H2168 0.931 . S
C2153 C2152 1.370 . S
C2153 C2157 1.408 . S
C2154 C2152 1.363 . S
C2154 C2155 1.370 . S
C2154 C2158 1.524 . S
C2155 C2147 1.503 . S
C2155 C2154 1.370 . S
C2155 C2156 1.403 . S
C2156 C2155 1.403 . S
C2156 C2157 1.404 . S
C2156 C2159 1.539 . S
C2157 C2153 1.408 . S
C2157 C2156 1.404 . S
C2157 H2169 0.930 . S
C2158 C2154 1.524 . S
C2158 H2170 0.956 . S
C2158 H2171 0.961 . S
C2158 H2172 0.961 . S
C2159 C2156 1.539 . S
C2159 H2173 0.958 . S
C2159 H2174 0.961 . S
C2159 H2175 0.960 . S
H2160 C2144 0.931 . S
H2161 C2149 0.929 . S
H2162 C2150 0.960 . S
H2163 C2150 0.962 . S
H2164 C2150 0.960 . S
H2165 C2151 0.961 . S
H2166 C2151 0.961 . S
H2167 C2151 0.961 . S
H2168 C2152 0.931 . S
H2169 C2157 0.930 . S
H2170 C2158 0.956 . S
H2171 C2158 0.961 . S
H2172 C2158 0.961 . S
H2173 C2159 0.958 . S
H2174 C2159 0.961 . S
H2175 C2159 0.960 . S
C2176 C2177 1.391 . S
C2176 C2178 1.394 . S
C2176 H2192 0.931 . S
C2177 C2176 1.391 . S
C2177 C2181 1.376 . S
C2178 C2176 1.394 . S
C2178 C2179 1.369 . S
C2178 C2182 1.531 . S
C2179 C2178 1.369 . S
C2179 C2180 1.410 . S
C2179 C2187 1.503 . S
C2180 C2179 1.410 . S
C2180 C2181 1.392 . S
C2180 C2183 1.511 . S
C2181 C2177 1.376 . S
C2181 C2180 1.392 . S
C2181 H2193 0.929 . S
C2182 C2178 1.531 . S
C2182 H2194 0.960 . S
C2182 H2195 0.962 . S
C2182 H2196 0.960 . S
C2183 C2180 1.511 . S
C2183 H2197 0.961 . S
C2183 H2198 0.961 . S
C2183 H2199 0.961 . S
C2184 C2185 1.370 . S
C2184 C2186 1.363 . S
C2184 H2200 0.931 . S
C2185 C2184 1.370 . S
C2185 C2189 1.408 . S
C2186 C2184 1.363 . S
C2186 C2187 1.370 . S
C2186 C2190 1.524 . S
C2187 C2179 1.503 . S
C2187 C2186 1.370 . S
C2187 C2188 1.403 . S
C2188 C2187 1.403 . S
C2188 C2189 1.404 . S
C2188 C2191 1.539 . S
C2189 C2185 1.408 . S
C2189 C2188 1.404 . S
C2189 H2201 0.930 . S
C2190 C2186 1.524 . S
C2190 H2202 0.956 . S
C2190 H2203 0.961 . S
C2190 H2204 0.961 . S
C2191 C2188 1.539 . S
C2191 H2205 0.958 . S
C2191 H2206 0.961 . S
C2191 H2207 0.960 . S
H2192 C2176 0.931 . S
H2193 C2181 0.929 . S
H2194 C2182 0.960 . S
H2195 C2182 0.962 . S
H2196 C2182 0.960 . S
H2197 C2183 0.961 . S
H2198 C2183 0.961 . S
H2199 C2183 0.961 . S
H2200 C2184 0.931 . S
H2201 C2189 0.930 . S
H2202 C2190 0.956 . S
H2203 C2190 0.961 . S
H2204 C2190 0.961 . S
H2205 C2191 0.958 . S
H2206 C2191 0.961 . S
H2207 C2191 0.960 . S
C2208 C2209 1.391 . S
C2208 C2210 1.394 . S
C2208 H2224 0.931 . S
C2209 C2208 1.391 . S
C2209 C2213 1.376 . S
C2210 C2208 1.394 . S
C2210 C2211 1.369 . S
C2210 C2214 1.531 . S
C2211 C2210 1.369 . S
C2211 C2212 1.410 . S
C2211 C2219 1.503 . S
C2212 C2211 1.410 . S
C2212 C2213 1.392 . S
C2212 C2215 1.511 . S
C2213 C2209 1.376 . S
C2213 C2212 1.392 . S
C2213 H2225 0.929 . S
C2214 C2210 1.531 . S
C2214 H2226 0.960 . S
C2214 H2227 0.962 . S
C2214 H2228 0.960 . S
C2215 C2212 1.511 . S
C2215 H2229 0.961 . S
C2215 H2230 0.961 . S
C2215 H2231 0.961 . S
C2216 C2217 1.370 . S
C2216 C2218 1.363 . S
C2216 H2232 0.931 . S
C2217 C2216 1.370 . S
C2217 C2221 1.408 . S
C2218 C2216 1.363 . S
C2218 C2219 1.370 . S
C2218 C2222 1.524 . S
C2219 C2211 1.503 . S
C2219 C2218 1.370 . S
C2219 C2220 1.403 . S
C2220 C2219 1.403 . S
C2220 C2221 1.404 . S
C2220 C2223 1.539 . S
C2221 C2217 1.408 . S
C2221 C2220 1.404 . S
C2221 H2233 0.930 . S
C2222 C2218 1.524 . S
C2222 H2234 0.956 . S
C2222 H2235 0.961 . S
C2222 H2236 0.961 . S
C2223 C2220 1.539 . S
C2223 H2237 0.958 . S
C2223 H2238 0.961 . S
C2223 H2239 0.960 . S
H2224 C2208 0.931 . S
H2225 C2213 0.929 . S
H2226 C2214 0.960 . S
H2227 C2214 0.962 . S
H2228 C2214 0.960 . S
H2229 C2215 0.961 . S
H2230 C2215 0.961 . S
H2231 C2215 0.961 . S
H2232 C2216 0.931 . S
H2233 C2221 0.930 . S
H2234 C2222 0.956 . S
H2235 C2222 0.961 . S
H2236 C2222 0.961 . S
H2237 C2223 0.958 . S
H2238 C2223 0.961 . S
H2239 C2223 0.960 . S
C2240 C2241 1.391 . S
C2240 C2242 1.394 . S
C2240 H2256 0.931 . S
C2241 C2240 1.391 . S
C2241 C2245 1.376 . S
C2242 C2240 1.394 . S
C2242 C2243 1.369 . S
C2242 C2246 1.531 . S
C2243 C2242 1.369 . S
C2243 C2244 1.410 . S
C2243 C2251 1.503 . S
C2244 C2243 1.410 . S
C2244 C2245 1.392 . S
C2244 C2247 1.511 . S
C2245 C2241 1.376 . S
C2245 C2244 1.392 . S
C2245 H2257 0.929 . S
C2246 C2242 1.531 . S
C2246 H2258 0.960 . S
C2246 H2259 0.962 . S
C2246 H2260 0.960 . S
C2247 C2244 1.511 . S
C2247 H2261 0.961 . S
C2247 H2262 0.961 . S
C2247 H2263 0.961 . S
C2248 C2249 1.370 . S
C2248 C2250 1.363 . S
C2248 H2264 0.931 . S
C2249 C2248 1.370 . S
C2249 C2253 1.408 . S
C2250 C2248 1.363 . S
C2250 C2251 1.370 . S
C2250 C2254 1.524 . S
C2251 C2243 1.503 . S
C2251 C2250 1.370 . S
C2251 C2252 1.403 . S
C2252 C2251 1.403 . S
C2252 C2253 1.404 . S
C2252 C2255 1.539 . S
C2253 C2249 1.408 . S
C2253 C2252 1.404 . S
C2253 H2265 0.930 . S
C2254 C2250 1.524 . S
C2254 H2266 0.956 . S
C2254 H2267 0.961 . S
C2254 H2268 0.961 . S
C2255 C2252 1.539 . S
C2255 H2269 0.958 . S
C2255 H2270 0.961 . S
C2255 H2271 0.960 . S
H2256 C2240 0.931 . S
H2257 C2245 0.929 . S
H2258 C2246 0.960 . S
H2259 C2246 0.962 . S
H2260 C2246 0.960 . S
H2261 C2247 0.961 . S
H2262 C2247 0.961 . S
H2263 C2247 0.961 . S
H2264 C2248 0.931 . S
H2265 C2253 0.930 . S
H2266 C2254 0.956 . S
H2267 C2254 0.961 . S
H2268 C2254 0.961 . S
H2269 C2255 0.958 . S
H2270 C2255 0.961 . S
H2271 C2255 0.960 . S
C2272 C2273 1.391 . S
C2272 C2274 1.394 . S
C2272 H2288 0.931 . S
C2273 C2272 1.391 . S
C2273 C2277 1.376 . S
C2274 C2272 1.394 . S
C2274 C2275 1.369 . S
C2274 C2278 1.531 . S
C2275 C2274 1.369 . S
C2275 C2276 1.410 . S
C2275 C2283 1.503 . S
C2276 C2275 1.410 . S
C2276 C2277 1.392 . S
C2276 C2279 1.511 . S
C2277 C2273 1.376 . S
C2277 C2276 1.392 . S
C2277 H2289 0.929 . S
C2278 C2274 1.531 . S
C2278 H2290 0.960 . S
C2278 H2291 0.962 . S
C2278 H2292 0.960 . S
C2279 C2276 1.511 . S
C2279 H2293 0.961 . S
C2279 H2294 0.961 . S
C2279 H2295 0.961 . S
C2280 C2281 1.370 . S
C2280 C2282 1.363 . S
C2280 H2296 0.931 . S
C2281 C2280 1.370 . S
C2281 C2285 1.408 . S
C2282 C2280 1.363 . S
C2282 C2283 1.370 . S
C2282 C2286 1.524 . S
C2283 C2275 1.503 . S
C2283 C2282 1.370 . S
C2283 C2284 1.403 . S
C2284 C2283 1.403 . S
C2284 C2285 1.404 . S
C2284 C2287 1.539 . S
C2285 C2281 1.408 . S
C2285 C2284 1.404 . S
C2285 H2297 0.930 . S
C2286 C2282 1.524 . S
C2286 H2298 0.956 . S
C2286 H2299 0.961 . S
C2286 H2300 0.961 . S
C2287 C2284 1.539 . S
C2287 H2301 0.958 . S
C2287 H2302 0.961 . S
C2287 H2303 0.960 . S
H2288 C2272 0.931 . S
H2289 C2277 0.929 . S
H2290 C2278 0.960 . S
H2291 C2278 0.962 . S
H2292 C2278 0.960 . S
H2293 C2279 0.961 . S
H2294 C2279 0.961 . S
H2295 C2279 0.961 . S
H2296 C2280 0.931 . S
H2297 C2285 0.930 . S
H2298 C2286 0.956 . S
H2299 C2286 0.961 . S
H2300 C2286 0.961 . S
H2301 C2287 0.958 . S
H2302 C2287 0.961 . S
H2303 C2287 0.960 . S
C2304 C2305 1.391 1_655 S
C2304 C2306 1.394 . S
C2304 H2320 0.931 . S
C2305 C2304 1.391 1_455 S
C2305 C2309 1.376 . S
C2306 C2304 1.394 . S
C2306 C2307 1.369 1_655 S
C2306 C2310 1.531 . S
C2307 C2306 1.369 1_455 S
C2307 C2308 1.410 . S
C2307 C2315 1.503 . S
C2308 C2307 1.410 . S
C2308 C2309 1.392 . S
C2308 C2311 1.511 . S
C2309 C2305 1.376 . S
C2309 C2308 1.392 . S
C2309 H2321 0.929 . S
C2310 C2306 1.531 . S
C2310 H2322 0.960 . S
C2310 H2323 0.962 . S
C2310 H2324 0.960 . S
C2311 C2308 1.511 . S
C2311 H2325 0.961 . S
C2311 H2326 0.961 . S
C2311 H2327 0.961 . S
C2312 C2313 1.370 . S
C2312 C2314 1.363 . S
C2312 H2328 0.931 . S
C2313 C2312 1.370 . S
C2313 C2317 1.408 . S
C2314 C2312 1.363 . S
C2314 C2315 1.370 . S
C2314 C2318 1.524 1_455 S
C2315 C2307 1.503 . S
C2315 C2314 1.370 . S
C2315 C2316 1.403 . S
C2316 C2315 1.403 . S
C2316 C2317 1.404 . S
C2316 C2319 1.539 . S
C2317 C2313 1.408 . S
C2317 C2316 1.404 . S
C2317 H2329 0.930 . S
C2318 C2314 1.524 1_655 S
C2318 H2330 0.956 . S
C2318 H2331 0.961 1_655 S
C2318 H2332 0.961 . S
C2319 C2316 1.539 . S
C2319 H2333 0.958 . S
C2319 H2334 0.961 . S
C2319 H2335 0.960 . S
H2320 C2304 0.931 . S
H2321 C2309 0.929 . S
H2322 C2310 0.960 . S
H2323 C2310 0.962 . S
H2324 C2310 0.960 . S
H2325 C2311 0.961 . S
H2326 C2311 0.961 . S
H2327 C2311 0.961 . S
H2328 C2312 0.931 . S
H2329 C2317 0.930 . S
H2330 C2318 0.956 . S
H2331 C2318 0.961 1_455 S
H2332 C2318 0.961 . S
H2333 C2319 0.958 . S
H2334 C2319 0.961 . S
H2335 C2319 0.960 . S
C2336 C2337 1.391 . S
C2336 C2338 1.394 . S
C2336 H2352 0.931 . S
C2337 C2336 1.391 . S
C2337 C2341 1.376 . S
C2338 C2336 1.394 . S
C2338 C2339 1.369 . S
C2338 C2342 1.531 . S
C2339 C2338 1.369 . S
C2339 C2340 1.410 . S
C2339 C2347 1.503 . S
C2340 C2339 1.410 . S
C2340 C2341 1.392 . S
C2340 C2343 1.511 . S
C2341 C2337 1.376 . S
C2341 C2340 1.392 . S
C2341 H2353 0.929 . S
C2342 C2338 1.531 . S
C2342 H2354 0.960 . S
C2342 H2355 0.962 . S
C2342 H2356 0.960 . S
C2343 C2340 1.511 . S
C2343 H2357 0.961 . S
C2343 H2358 0.961 . S
C2343 H2359 0.961 . S
C2344 C2345 1.370 . S
C2344 C2346 1.363 . S
C2344 H2360 0.931 . S
C2345 C2344 1.370 . S
C2345 C2349 1.408 . S
C2346 C2344 1.363 . S
C2346 C2347 1.370 . S
C2346 C2350 1.524 . S
C2347 C2339 1.503 . S
C2347 C2346 1.370 . S
C2347 C2348 1.403 . S
C2348 C2347 1.403 . S
C2348 C2349 1.404 . S
C2348 C2351 1.539 . S
C2349 C2345 1.408 . S
C2349 C2348 1.404 . S
C2349 H2361 0.930 . S
C2350 C2346 1.524 . S
C2350 H2362 0.956 . S
C2350 H2363 0.961 . S
C2350 H2364 0.961 . S
C2351 C2348 1.539 . S
C2351 H2365 0.958 . S
C2351 H2366 0.961 . S
C2351 H2367 0.960 . S
H2352 C2336 0.931 . S
H2353 C2341 0.929 . S
H2354 C2342 0.960 . S
H2355 C2342 0.962 . S
H2356 C2342 0.960 . S
H2357 C2343 0.961 . S
H2358 C2343 0.961 . S
H2359 C2343 0.961 . S
H2360 C2344 0.931 . S
H2361 C2349 0.930 . S
H2362 C2350 0.956 . S
H2363 C2350 0.961 . S
H2364 C2350 0.961 . S
H2365 C2351 0.958 . S
H2366 C2351 0.961 . S
H2367 C2351 0.960 . S
C2368 C2369 1.391 . S
C2368 C2370 1.394 . S
C2368 H2384 0.931 . S
C2369 C2368 1.391 . S
C2369 C2373 1.376 . S
C2370 C2368 1.394 . S
C2370 C2371 1.369 . S
C2370 C2374 1.531 . S
C2371 C2370 1.369 . S
C2371 C2372 1.410 . S
C2371 C2379 1.503 . S
C2372 C2371 1.410 . S
C2372 C2373 1.392 . S
C2372 C2375 1.511 . S
C2373 C2369 1.376 . S
C2373 C2372 1.392 . S
C2373 H2385 0.929 . S
C2374 C2370 1.531 . S
C2374 H2386 0.960 . S
C2374 H2387 0.962 . S
C2374 H2388 0.960 . S
C2375 C2372 1.511 . S
C2375 H2389 0.961 . S
C2375 H2390 0.961 . S
C2375 H2391 0.961 . S
C2376 C2377 1.370 . S
C2376 C2378 1.363 . S
C2376 H2392 0.931 . S
C2377 C2376 1.370 . S
C2377 C2381 1.408 1_556 S
C2378 C2376 1.363 . S
C2378 C2379 1.370 . S
C2378 C2382 1.524 . S
C2379 C2371 1.503 . S
C2379 C2378 1.370 . S
C2379 C2380 1.403 . S
C2380 C2379 1.403 . S
C2380 C2381 1.404 1_556 S
C2380 C2383 1.539 . S
C2381 C2377 1.408 1_554 S
C2381 C2380 1.404 1_554 S
C2381 H2393 0.930 . S
C2382 C2378 1.524 . S
C2382 H2394 0.956 . S
C2382 H2395 0.961 . S
C2382 H2396 0.961 . S
C2383 C2380 1.539 . S
C2383 H2397 0.958 1_556 S
C2383 H2398 0.961 . S
C2383 H2399 0.960 . S
H2384 C2368 0.931 . S
H2385 C2373 0.929 . S
H2386 C2374 0.960 . S
H2387 C2374 0.962 . S
H2388 C2374 0.960 . S
H2389 C2375 0.961 . S
H2390 C2375 0.961 . S
H2391 C2375 0.961 . S
H2392 C2376 0.931 . S
H2393 C2381 0.930 . S
H2394 C2382 0.956 . S
H2395 C2382 0.961 . S
H2396 C2382 0.961 . S
H2397 C2383 0.958 1_554 S
H2398 C2383 0.961 . S
H2399 C2383 0.960 . S
C2400 C2401 1.391 . S
C2400 C2402 1.394 . S
C2400 H2416 0.931 . S
C2401 C2400 1.391 . S
C2401 C2405 1.376 . S
C2402 C2400 1.394 . S
C2402 C2403 1.369 . S
C2402 C2406 1.531 . S
C2403 C2402 1.369 . S
C2403 C2404 1.410 . S
C2403 C2411 1.503 . S
C2404 C2403 1.410 . S
C2404 C2405 1.392 . S
C2404 C2407 1.511 . S
C2405 C2401 1.376 . S
C2405 C2404 1.392 . S
C2405 H2417 0.929 . S
C2406 C2402 1.531 . S
C2406 H2418 0.960 . S
C2406 H2419 0.962 . S
C2406 H2420 0.960 . S
C2407 C2404 1.511 . S
C2407 H2421 0.961 . S
C2407 H2422 0.961 . S
C2407 H2423 0.961 . S
C2408 C2409 1.370 . S
C2408 C2410 1.363 . S
C2408 H2424 0.931 . S
C2409 C2408 1.370 . S
C2409 C2413 1.408 . S
C2410 C2408 1.363 . S
C2410 C2411 1.370 . S
C2410 C2414 1.524 . S
C2411 C2403 1.503 . S
C2411 C2410 1.370 . S
C2411 C2412 1.403 . S
C2412 C2411 1.403 . S
C2412 C2413 1.404 . S
C2412 C2415 1.539 . S
C2413 C2409 1.408 . S
C2413 C2412 1.404 . S
C2413 H2425 0.930 . S
C2414 C2410 1.524 . S
C2414 H2426 0.956 . S
C2414 H2427 0.961 . S
C2414 H2428 0.961 . S
C2415 C2412 1.539 . S
C2415 H2429 0.958 . S
C2415 H2430 0.961 . S
C2415 H2431 0.960 . S
H2416 C2400 0.931 . S
H2417 C2405 0.929 . S
H2418 C2406 0.960 . S
H2419 C2406 0.962 . S
H2420 C2406 0.960 . S
H2421 C2407 0.961 . S
H2422 C2407 0.961 . S
H2423 C2407 0.961 . S
H2424 C2408 0.931 . S
H2425 C2413 0.930 . S
H2426 C2414 0.956 . S
H2427 C2414 0.961 . S
H2428 C2414 0.961 . S
H2429 C2415 0.958 . S
H2430 C2415 0.961 . S
H2431 C2415 0.960 . S
C2432 C2433 1.391 . S
C2432 C2434 1.394 . S
C2432 H2448 0.931 . S
C2433 C2432 1.391 . S
C2433 C2437 1.376 1_455 S
C2434 C2432 1.394 . S
C2434 C2435 1.369 . S
C2434 C2438 1.531 . S
C2435 C2434 1.369 . S
C2435 C2436 1.410 1_455 S
C2435 C2443 1.503 . S
C2436 C2435 1.410 1_655 S
C2436 C2437 1.392 . S
C2436 C2439 1.511 . S
C2437 C2433 1.376 1_655 S
C2437 C2436 1.392 . S
C2437 H2449 0.929 . S
C2438 C2434 1.531 . S
C2438 H2450 0.960 . S
C2438 H2451 0.962 . S
C2438 H2452 0.960 . S
C2439 C2436 1.511 . S
C2439 H2453 0.961 . S
C2439 H2454 0.961 . S
C2439 H2455 0.961 . S
C2440 C2441 1.370 . S
C2440 C2442 1.363 . S
C2440 H2456 0.931 . S
C2441 C2440 1.370 . S
C2441 C2445 1.408 . S
C2442 C2440 1.363 . S
C2442 C2443 1.370 . S
C2442 C2446 1.524 . S
C2443 C2435 1.503 . S
C2443 C2442 1.370 . S
C2443 C2444 1.403 . S
C2444 C2443 1.403 . S
C2444 C2445 1.404 . S
C2444 C2447 1.539 . S
C2445 C2441 1.408 . S
C2445 C2444 1.404 . S
C2445 H2457 0.930 . S
C2446 C2442 1.524 . S
C2446 H2458 0.956 . S
C2446 H2459 0.961 . S
C2446 H2460 0.961 . S
C2447 C2444 1.539 . S
C2447 H2461 0.958 . S
C2447 H2462 0.961 . S
C2447 H2463 0.960 . S
H2448 C2432 0.931 . S
H2449 C2437 0.929 . S
H2450 C2438 0.960 . S
H2451 C2438 0.962 . S
H2452 C2438 0.960 . S
H2453 C2439 0.961 . S
H2454 C2439 0.961 . S
H2455 C2439 0.961 . S
H2456 C2440 0.931 . S
H2457 C2445 0.930 . S
H2458 C2446 0.956 . S
H2459 C2446 0.961 . S
H2460 C2446 0.961 . S
H2461 C2447 0.958 . S
H2462 C2447 0.961 . S
H2463 C2447 0.960 . S
C2464 C2465 1.391 . S
C2464 C2466 1.394 . S
C2464 H2480 0.931 . S
C2465 C2464 1.391 . S
C2465 C2469 1.376 . S
C2466 C2464 1.394 . S
C2466 C2467 1.369 . S
C2466 C2470 1.531 . S
C2467 C2466 1.369 . S
C2467 C2468 1.410 . S
C2467 C2475 1.503 . S
C2468 C2467 1.410 . S
C2468 C2469 1.392 . S
C2468 C2471 1.511 . S
C2469 C2465 1.376 . S
C2469 C2468 1.392 . S
C2469 H2481 0.929 . S
C2470 C2466 1.531 . S
C2470 H2482 0.960 . S
C2470 H2483 0.962 . S
C2470 H2484 0.960 . S
C2471 C2468 1.511 . S
C2471 H2485 0.961 . S
C2471 H2486 0.961 . S
C2471 H2487 0.961 . S
C2472 C2473 1.370 . S
C2472 C2474 1.363 . S
C2472 H2488 0.931 . S
C2473 C2472 1.370 . S
C2473 C2477 1.408 . S
C2474 C2472 1.363 . S
C2474 C2475 1.370 . S
C2474 C2478 1.524 . S
C2475 C2467 1.503 . S
C2475 C2474 1.370 . S
C2475 C2476 1.403 . S
C2476 C2475 1.403 . S
C2476 C2477 1.404 . S
C2476 C2479 1.539 . S
C2477 C2473 1.408 . S
C2477 C2476 1.404 . S
C2477 H2489 0.930 . S
C2478 C2474 1.524 . S
C2478 H2490 0.956 . S
C2478 H2491 0.961 . S
C2478 H2492 0.961 . S
C2479 C2476 1.539 . S
C2479 H2493 0.958 . S
C2479 H2494 0.961 . S
C2479 H2495 0.960 . S
H2480 C2464 0.931 . S
H2481 C2469 0.929 . S
H2482 C2470 0.960 . S
H2483 C2470 0.962 . S
H2484 C2470 0.960 . S
H2485 C2471 0.961 . S
H2486 C2471 0.961 . S
H2487 C2471 0.961 . S
H2488 C2472 0.931 . S
H2489 C2477 0.930 . S
H2490 C2478 0.956 . S
H2491 C2478 0.961 . S
H2492 C2478 0.961 . S
H2493 C2479 0.958 . S
H2494 C2479 0.961 . S
H2495 C2479 0.960 . S
C2496 C2497 1.391 . S
C2496 C2498 1.394 . S
C2496 H2512 0.931 . S
C2497 C2496 1.391 . S
C2497 C2501 1.376 . S
C2498 C2496 1.394 . S
C2498 C2499 1.369 . S
C2498 C2502 1.531 . S
C2499 C2498 1.369 . S
C2499 C2500 1.410 . S
C2499 C2507 1.503 . S
C2500 C2499 1.410 . S
C2500 C2501 1.392 . S
C2500 C2503 1.511 . S
C2501 C2497 1.376 . S
C2501 C2500 1.392 . S
C2501 H2513 0.929 . S
C2502 C2498 1.531 . S
C2502 H2514 0.960 . S
C2502 H2515 0.962 . S
C2502 H2516 0.960 . S
C2503 C2500 1.511 . S
C2503 H2517 0.961 . S
C2503 H2518 0.961 . S
C2503 H2519 0.961 . S
C2504 C2505 1.370 . S
C2504 C2506 1.363 . S
C2504 H2520 0.931 . S
C2505 C2504 1.370 . S
C2505 C2509 1.408 . S
C2506 C2504 1.363 . S
C2506 C2507 1.370 . S
C2506 C2510 1.524 . S
C2507 C2499 1.503 . S
C2507 C2506 1.370 . S
C2507 C2508 1.403 . S
C2508 C2507 1.403 . S
C2508 C2509 1.404 . S
C2508 C2511 1.539 . S
C2509 C2505 1.408 . S
C2509 C2508 1.404 . S
C2509 H2521 0.930 . S
C2510 C2506 1.524 . S
C2510 H2522 0.956 . S
C2510 H2523 0.961 . S
C2510 H2524 0.961 . S
C2511 C2508 1.539 . S
C2511 H2525 0.958 . S
C2511 H2526 0.961 . S
C2511 H2527 0.960 . S
H2512 C2496 0.931 . S
H2513 C2501 0.929 . S
H2514 C2502 0.960 . S
H2515 C2502 0.962 . S
H2516 C2502 0.960 . S
H2517 C2503 0.961 . S
H2518 C2503 0.961 . S
H2519 C2503 0.961 . S
H2520 C2504 0.931 . S
H2521 C2509 0.930 . S
H2522 C2510 0.956 . S
H2523 C2510 0.961 . S
H2524 C2510 0.961 . S
H2525 C2511 0.958 . S
H2526 C2511 0.961 . S
H2527 C2511 0.960 . S
C2528 C2529 1.391 . S
C2528 C2530 1.394 . S
C2528 H2544 0.931 . S
C2529 C2528 1.391 . S
C2529 C2533 1.376 . S
C2530 C2528 1.394 . S
C2530 C2531 1.369 . S
C2530 C2534 1.531 . S
C2531 C2530 1.369 . S
C2531 C2532 1.410 . S
C2531 C2539 1.503 . S
C2532 C2531 1.410 . S
C2532 C2533 1.392 . S
C2532 C2535 1.511 . S
C2533 C2529 1.376 . S
C2533 C2532 1.392 . S
C2533 H2545 0.929 . S
C2534 C2530 1.531 . S
C2534 H2546 0.960 . S
C2534 H2547 0.962 . S
C2534 H2548 0.960 . S
C2535 C2532 1.511 . S
C2535 H2549 0.961 . S
C2535 H2550 0.961 . S
C2535 H2551 0.961 . S
C2536 C2537 1.370 . S
C2536 C2538 1.363 . S
C2536 H2552 0.931 . S
C2537 C2536 1.370 . S
C2537 C2541 1.408 . S
C2538 C2536 1.363 . S
C2538 C2539 1.370 . S
C2538 C2542 1.524 . S
C2539 C2531 1.503 . S
C2539 C2538 1.370 . S
C2539 C2540 1.403 . S
C2540 C2539 1.403 . S
C2540 C2541 1.404 . S
C2540 C2543 1.539 . S
C2541 C2537 1.408 . S
C2541 C2540 1.404 . S
C2541 H2553 0.930 . S
C2542 C2538 1.524 . S
C2542 H2554 0.956 . S
C2542 H2555 0.961 . S
C2542 H2556 0.961 . S
C2543 C2540 1.539 . S
C2543 H2557 0.958 . S
C2543 H2558 0.961 . S
C2543 H2559 0.960 . S
H2544 C2528 0.931 . S
H2545 C2533 0.929 . S
H2546 C2534 0.960 . S
H2547 C2534 0.962 . S
H2548 C2534 0.960 . S
H2549 C2535 0.961 . S
H2550 C2535 0.961 . S
H2551 C2535 0.961 . S
H2552 C2536 0.931 . S
H2553 C2541 0.930 . S
H2554 C2542 0.956 . S
H2555 C2542 0.961 . S
H2556 C2542 0.961 . S
H2557 C2543 0.958 . S
H2558 C2543 0.961 . S
H2559 C2543 0.960 . S
C2560 C2561 1.391 . S
C2560 C2562 1.394 . S
C2560 H2576 0.931 . S
C2561 C2560 1.391 . S
C2561 C2565 1.376 . S
C2562 C2560 1.394 . S
C2562 C2563 1.369 . S
C2562 C2566 1.531 . S
C2563 C2562 1.369 . S
C2563 C2564 1.410 . S
C2563 C2571 1.503 . S
C2564 C2563 1.410 . S
C2564 C2565 1.392 . S
C2564 C2567 1.511 . S
C2565 C2561 1.376 . S
C2565 C2564 1.392 . S
C2565 H2577 0.929 . S
C2566 C2562 1.531 . S
C2566 H2578 0.960 . S
C2566 H2579 0.962 . S
C2566 H2580 0.960 . S
C2567 C2564 1.511 . S
C2567 H2581 0.961 . S
C2567 H2582 0.961 . S
C2567 H2583 0.961 . S
C2568 C2569 1.370 . S
C2568 C2570 1.363 . S
C2568 H2584 0.931 . S
C2569 C2568 1.370 . S
C2569 C2573 1.408 . S
C2570 C2568 1.363 . S
C2570 C2571 1.370 . S
C2570 C2574 1.524 . S
C2571 C2563 1.503 . S
C2571 C2570 1.370 . S
C2571 C2572 1.403 . S
C2572 C2571 1.403 . S
C2572 C2573 1.404 . S
C2572 C2575 1.539 . S
C2573 C2569 1.408 . S
C2573 C2572 1.404 . S
C2573 H2585 0.930 1_655 S
C2574 C2570 1.524 . S
C2574 H2586 0.956 . S
C2574 H2587 0.961 . S
C2574 H2588 0.961 . S
C2575 C2572 1.539 . S
C2575 H2589 0.958 . S
C2575 H2590 0.961 1_655 S
C2575 H2591 0.960 . S
H2576 C2560 0.931 . S
H2577 C2565 0.929 . S
H2578 C2566 0.960 . S
H2579 C2566 0.962 . S
H2580 C2566 0.960 . S
H2581 C2567 0.961 . S
H2582 C2567 0.961 . S
H2583 C2567 0.961 . S
H2584 C2568 0.931 . S
H2585 C2573 0.930 1_455 S
H2586 C2574 0.956 . S
H2587 C2574 0.961 . S
H2588 C2574 0.961 . S
H2589 C2575 0.958 . S
H2590 C2575 0.961 1_455 S
H2591 C2575 0.960 . S
C2592 C2593 1.391 . S
C2592 C2594 1.394 . S
C2592 H2608 0.931 . S
C2593 C2592 1.391 . S
C2593 C2597 1.376 . S
C2594 C2592 1.394 . S
C2594 C2595 1.369 . S
C2594 C2598 1.531 . S
C2595 C2594 1.369 . S
C2595 C2596 1.410 . S
C2595 C2603 1.503 . S
C2596 C2595 1.410 . S
C2596 C2597 1.392 . S
C2596 C2599 1.511 . S
C2597 C2593 1.376 . S
C2597 C2596 1.392 . S
C2597 H2609 0.929 . S
C2598 C2594 1.531 . S
C2598 H2610 0.960 . S
C2598 H2611 0.962 . S
C2598 H2612 0.960 . S
C2599 C2596 1.511 . S
C2599 H2613 0.961 . S
C2599 H2614 0.961 . S
C2599 H2615 0.961 . S
C2600 C2601 1.370 . S
C2600 C2602 1.363 . S
C2600 H2616 0.931 . S
C2601 C2600 1.370 . S
C2601 C2605 1.408 . S
C2602 C2600 1.363 . S
C2602 C2603 1.370 . S
C2602 C2606 1.524 . S
C2603 C2595 1.503 . S
C2603 C2602 1.370 . S
C2603 C2604 1.403 . S
C2604 C2603 1.403 . S
C2604 C2605 1.404 . S
C2604 C2607 1.539 . S
C2605 C2601 1.408 . S
C2605 C2604 1.404 . S
C2605 H2617 0.930 . S
C2606 C2602 1.524 . S
C2606 H2618 0.956 . S
C2606 H2619 0.961 . S
C2606 H2620 0.961 . S
C2607 C2604 1.539 . S
C2607 H2621 0.958 . S
C2607 H2622 0.961 . S
C2607 H2623 0.960 . S
H2608 C2592 0.931 . S
H2609 C2597 0.929 . S
H2610 C2598 0.960 . S
H2611 C2598 0.962 . S
H2612 C2598 0.960 . S
H2613 C2599 0.961 . S
H2614 C2599 0.961 . S
H2615 C2599 0.961 . S
H2616 C2600 0.931 . S
H2617 C2605 0.930 . S
H2618 C2606 0.956 . S
H2619 C2606 0.961 . S
H2620 C2606 0.961 . S
H2621 C2607 0.958 . S
H2622 C2607 0.961 . S
H2623 C2607 0.960 . S
C2624 C2625 1.391 . S
C2624 C2626 1.394 . S
C2624 H2640 0.931 . S
C2625 C2624 1.391 . S
C2625 C2629 1.376 . S
C2626 C2624 1.394 . S
C2626 C2627 1.369 . S
C2626 C2630 1.531 . S
C2627 C2626 1.369 . S
C2627 C2628 1.410 . S
C2627 C2635 1.503 . S
C2628 C2627 1.410 . S
C2628 C2629 1.392 . S
C2628 C2631 1.511 . S
C2629 C2625 1.376 . S
C2629 C2628 1.392 . S
C2629 H2641 0.929 . S
C2630 C2626 1.531 . S
C2630 H2642 0.960 . S
C2630 H2643 0.962 . S
C2630 H2644 0.960 . S
C2631 C2628 1.511 . S
C2631 H2645 0.961 . S
C2631 H2646 0.961 . S
C2631 H2647 0.961 . S
C2632 C2633 1.370 . S
C2632 C2634 1.363 . S
C2632 H2648 0.931 . S
C2633 C2632 1.370 . S
C2633 C2637 1.408 . S
C2634 C2632 1.363 . S
C2634 C2635 1.370 . S
C2634 C2638 1.524 . S
C2635 C2627 1.503 . S
C2635 C2634 1.370 . S
C2635 C2636 1.403 . S
C2636 C2635 1.403 . S
C2636 C2637 1.404 . S
C2636 C2639 1.539 . S
C2637 C2633 1.408 . S
C2637 C2636 1.404 . S
C2637 H2649 0.930 . S
C2638 C2634 1.524 . S
C2638 H2650 0.956 . S
C2638 H2651 0.961 . S
C2638 H2652 0.961 . S
C2639 C2636 1.539 . S
C2639 H2653 0.958 . S
C2639 H2654 0.961 . S
C2639 H2655 0.960 . S
H2640 C2624 0.931 . S
H2641 C2629 0.929 . S
H2642 C2630 0.960 . S
H2643 C2630 0.962 . S
H2644 C2630 0.960 . S
H2645 C2631 0.961 . S
H2646 C2631 0.961 . S
H2647 C2631 0.961 . S
H2648 C2632 0.931 . S
H2649 C2637 0.930 . S
H2650 C2638 0.956 . S
H2651 C2638 0.961 . S
H2652 C2638 0.961 . S
H2653 C2639 0.958 . S
H2654 C2639 0.961 . S
H2655 C2639 0.960 . S
C2656 C2657 1.391 . S
C2656 C2658 1.394 . S
C2656 H2672 0.931 . S
C2657 C2656 1.391 . S
C2657 C2661 1.376 . S
C2658 C2656 1.394 . S
C2658 C2659 1.369 . S
C2658 C2662 1.531 . S
C2659 C2658 1.369 . S
C2659 C2660 1.410 . S
C2659 C2667 1.503 . S
C2660 C2659 1.410 . S
C2660 C2661 1.392 . S
C2660 C2663 1.511 . S
C2661 C2657 1.376 . S
C2661 C2660 1.392 . S
C2661 H2673 0.929 . S
C2662 C2658 1.531 . S
C2662 H2674 0.960 . S
C2662 H2675 0.962 . S
C2662 H2676 0.960 . S
C2663 C2660 1.511 . S
C2663 H2677 0.961 . S
C2663 H2678 0.961 . S
C2663 H2679 0.961 . S
C2664 C2665 1.370 . S
C2664 C2666 1.363 . S
C2664 H2680 0.931 . S
C2665 C2664 1.370 . S
C2665 C2669 1.408 . S
C2666 C2664 1.363 . S
C2666 C2667 1.370 . S
C2666 C2670 1.524 . S
C2667 C2659 1.503 . S
C2667 C2666 1.370 . S
C2667 C2668 1.403 . S
C2668 C2667 1.403 . S
C2668 C2669 1.404 . S
C2668 C2671 1.539 . S
C2669 C2665 1.408 . S
C2669 C2668 1.404 . S
C2669 H2681 0.930 . S
C2670 C2666 1.524 . S
C2670 H2682 0.956 . S
C2670 H2683 0.961 . S
C2670 H2684 0.961 . S
C2671 C2668 1.539 . S
C2671 H2685 0.958 . S
C2671 H2686 0.961 . S
C2671 H2687 0.960 . S
H2672 C2656 0.931 . S
H2673 C2661 0.929 . S
H2674 C2662 0.960 . S
H2675 C2662 0.962 . S
H2676 C2662 0.960 . S
H2677 C2663 0.961 . S
H2678 C2663 0.961 . S
H2679 C2663 0.961 . S
H2680 C2664 0.931 . S
H2681 C2669 0.930 . S
H2682 C2670 0.956 . S
H2683 C2670 0.961 . S
H2684 C2670 0.961 . S
H2685 C2671 0.958 . S
H2686 C2671 0.961 . S
H2687 C2671 0.960 . S
C2688 C2689 1.391 . S
C2688 C2690 1.394 . S
C2688 H2704 0.931 . S
C2689 C2688 1.391 . S
C2689 C2693 1.376 . S
C2690 C2688 1.394 . S
C2690 C2691 1.369 . S
C2690 C2694 1.531 . S
C2691 C2690 1.369 . S
C2691 C2692 1.410 . S
C2691 C2699 1.503 . S
C2692 C2691 1.410 . S
C2692 C2693 1.392 . S
C2692 C2695 1.511 . S
C2693 C2689 1.376 . S
C2693 C2692 1.392 . S
C2693 H2705 0.929 . S
C2694 C2690 1.531 . S
C2694 H2706 0.960 . S
C2694 H2707 0.962 . S
C2694 H2708 0.960 . S
C2695 C2692 1.511 . S
C2695 H2709 0.961 . S
C2695 H2710 0.961 . S
C2695 H2711 0.961 . S
C2696 C2697 1.370 . S
C2696 C2698 1.363 . S
C2696 H2712 0.931 . S
C2697 C2696 1.370 . S
C2697 C2701 1.408 . S
C2698 C2696 1.363 . S
C2698 C2699 1.370 . S
C2698 C2702 1.524 . S
C2699 C2691 1.503 . S
C2699 C2698 1.370 . S
C2699 C2700 1.403 . S
C2700 C2699 1.403 . S
C2700 C2701 1.404 . S
C2700 C2703 1.539 . S
C2701 C2697 1.408 . S
C2701 C2700 1.404 . S
C2701 H2713 0.930 . S
C2702 C2698 1.524 . S
C2702 H2714 0.956 . S
C2702 H2715 0.961 . S
C2702 H2716 0.961 . S
C2703 C2700 1.539 . S
C2703 H2717 0.958 . S
C2703 H2718 0.961 . S
C2703 H2719 0.960 . S
H2704 C2688 0.931 . S
H2705 C2693 0.929 . S
H2706 C2694 0.960 . S
H2707 C2694 0.962 . S
H2708 C2694 0.960 . S
H2709 C2695 0.961 . S
H2710 C2695 0.961 . S
H2711 C2695 0.961 . S
H2712 C2696 0.931 . S
H2713 C2701 0.930 . S
H2714 C2702 0.956 . S
H2715 C2702 0.961 . S
H2716 C2702 0.961 . S
H2717 C2703 0.958 . S
H2718 C2703 0.961 . S
H2719 C2703 0.960 . S
C2720 C2721 1.391 . S
C2720 C2722 1.394 . S
C2720 H2736 0.931 . S
C2721 C2720 1.391 . S
C2721 C2725 1.376 . S
C2722 C2720 1.394 . S
C2722 C2723 1.369 . S
C2722 C2726 1.531 . S
C2723 C2722 1.369 . S
C2723 C2724 1.410 . S
C2723 C2731 1.503 . S
C2724 C2723 1.410 . S
C2724 C2725 1.392 . S
C2724 C2727 1.511 . S
C2725 C2721 1.376 . S
C2725 C2724 1.392 . S
C2725 H2737 0.929 . S
C2726 C2722 1.531 . S
C2726 H2738 0.960 . S
C2726 H2739 0.962 . S
C2726 H2740 0.960 . S
C2727 C2724 1.511 . S
C2727 H2741 0.961 . S
C2727 H2742 0.961 . S
C2727 H2743 0.961 . S
C2728 C2729 1.370 . S
C2728 C2730 1.363 . S
C2728 H2744 0.931 . S
C2729 C2728 1.370 . S
C2729 C2733 1.408 . S
C2730 C2728 1.363 . S
C2730 C2731 1.370 . S
C2730 C2734 1.524 . S
C2731 C2723 1.503 . S
C2731 C2730 1.370 . S
C2731 C2732 1.403 . S
C2732 C2731 1.403 . S
C2732 C2733 1.404 . S
C2732 C2735 1.539 . S
C2733 C2729 1.408 . S
C2733 C2732 1.404 . S
C2733 H2745 0.930 . S
C2734 C2730 1.524 . S
C2734 H2746 0.956 . S
C2734 H2747 0.961 . S
C2734 H2748 0.961 . S
C2735 C2732 1.539 . S
C2735 H2749 0.958 . S
C2735 H2750 0.961 . S
C2735 H2751 0.960 . S
H2736 C2720 0.931 . S
H2737 C2725 0.929 . S
H2738 C2726 0.960 . S
H2739 C2726 0.962 . S
H2740 C2726 0.960 . S
H2741 C2727 0.961 . S
H2742 C2727 0.961 . S
H2743 C2727 0.961 . S
H2744 C2728 0.931 . S
H2745 C2733 0.930 . S
H2746 C2734 0.956 . S
H2747 C2734 0.961 . S
H2748 C2734 0.961 . S
H2749 C2735 0.958 . S
H2750 C2735 0.961 . S
H2751 C2735 0.960 . S
C2752 C2753 1.391 . S
C2752 C2754 1.394 . S
C2752 H2768 0.931 . S
C2753 C2752 1.391 . S
C2753 C2757 1.376 . S
C2754 C2752 1.394 . S
C2754 C2755 1.369 . S
C2754 C2758 1.531 . S
C2755 C2754 1.369 . S
C2755 C2756 1.410 . S
C2755 C2763 1.503 . S
C2756 C2755 1.410 . S
C2756 C2757 1.392 . S
C2756 C2759 1.511 . S
C2757 C2753 1.376 . S
C2757 C2756 1.392 . S
C2757 H2769 0.929 . S
C2758 C2754 1.531 . S
C2758 H2770 0.960 . S
C2758 H2771 0.962 . S
C2758 H2772 0.960 . S
C2759 C2756 1.511 . S
C2759 H2773 0.961 . S
C2759 H2774 0.961 . S
C2759 H2775 0.961 . S
C2760 C2761 1.370 . S
C2760 C2762 1.363 . S
C2760 H2776 0.931 . S
C2761 C2760 1.370 . S
C2761 C2765 1.408 . S
C2762 C2760 1.363 . S
C2762 C2763 1.370 . S
C2762 C2766 1.524 . S
C2763 C2755 1.503 . S
C2763 C2762 1.370 . S
C2763 C2764 1.403 . S
C2764 C2763 1.403 . S
C2764 C2765 1.404 . S
C2764 C2767 1.539 . S
C2765 C2761 1.408 . S
C2765 C2764 1.404 . S
C2765 H2777 0.930 . S
C2766 C2762 1.524 . S
C2766 H2778 0.956 . S
C2766 H2779 0.961 . S
C2766 H2780 0.961 . S
C2767 C2764 1.539 . S
C2767 H2781 0.958 . S
C2767 H2782 0.961 . S
C2767 H2783 0.960 . S
H2768 C2752 0.931 . S
H2769 C2757 0.929 . S
H2770 C2758 0.960 . S
H2771 C2758 0.962 . S
H2772 C2758 0.960 . S
H2773 C2759 0.961 . S
H2774 C2759 0.961 . S
H2775 C2759 0.961 . S
H2776 C2760 0.931 . S
H2777 C2765 0.930 . S
H2778 C2766 0.956 . S
H2779 C2766 0.961 . S
H2780 C2766 0.961 . S
H2781 C2767 0.958 . S
H2782 C2767 0.961 . S
H2783 C2767 0.960 . S
C2784 C2785 1.391 . S
C2784 C2786 1.394 . S
C2784 H2800 0.931 . S
C2785 C2784 1.391 . S
C2785 C2789 1.376 . S
C2786 C2784 1.394 . S
C2786 C2787 1.369 . S
C2786 C2790 1.531 . S
C2787 C2786 1.369 . S
C2787 C2788 1.410 . S
C2787 C2795 1.503 . S
C2788 C2787 1.410 . S
C2788 C2789 1.392 . S
C2788 C2791 1.511 . S
C2789 C2785 1.376 . S
C2789 C2788 1.392 . S
C2789 H2801 0.929 . S
C2790 C2786 1.531 . S
C2790 H2802 0.960 . S
C2790 H2803 0.962 . S
C2790 H2804 0.960 . S
C2791 C2788 1.511 . S
C2791 H2805 0.961 . S
C2791 H2806 0.961 . S
C2791 H2807 0.961 . S
C2792 C2793 1.370 . S
C2792 C2794 1.363 . S
C2792 H2808 0.931 1_565 S
C2793 C2792 1.370 . S
C2793 C2797 1.408 . S
C2794 C2792 1.363 . S
C2794 C2795 1.370 . S
C2794 C2798 1.524 . S
C2795 C2787 1.503 . S
C2795 C2794 1.370 . S
C2795 C2796 1.403 . S
C2796 C2795 1.403 . S
C2796 C2797 1.404 . S
C2796 C2799 1.539 . S
C2797 C2793 1.408 . S
C2797 C2796 1.404 . S
C2797 H2809 0.930 . S
C2798 C2794 1.524 . S
C2798 H2810 0.956 . S
C2798 H2811 0.961 . S
C2798 H2812 0.961 1_565 S
C2799 C2796 1.539 . S
C2799 H2813 0.958 . S
C2799 H2814 0.961 . S
C2799 H2815 0.960 . S
H2800 C2784 0.931 . S
H2801 C2789 0.929 . S
H2802 C2790 0.960 . S
H2803 C2790 0.962 . S
H2804 C2790 0.960 . S
H2805 C2791 0.961 . S
H2806 C2791 0.961 . S
H2807 C2791 0.961 . S
H2808 C2792 0.931 1_545 S
H2809 C2797 0.930 . S
H2810 C2798 0.956 . S
H2811 C2798 0.961 . S
H2812 C2798 0.961 1_545 S
H2813 C2799 0.958 . S
H2814 C2799 0.961 . S
H2815 C2799 0.960 . S
C2816 C2817 1.391 . S
C2816 C2818 1.394 . S
C2816 H2832 0.931 . S
C2817 C2816 1.391 . S
C2817 C2821 1.376 . S
C2818 C2816 1.394 . S
C2818 C2819 1.369 . S
C2818 C2822 1.531 . S
C2819 C2818 1.369 . S
C2819 C2820 1.410 . S
C2819 C2827 1.503 . S
C2820 C2819 1.410 . S
C2820 C2821 1.392 . S
C2820 C2823 1.511 . S
C2821 C2817 1.376 . S
C2821 C2820 1.392 . S
C2821 H2833 0.929 . S
C2822 C2818 1.531 . S
C2822 H2834 0.960 . S
C2822 H2835 0.962 . S
C2822 H2836 0.960 . S
C2823 C2820 1.511 . S
C2823 H2837 0.961 . S
C2823 H2838 0.961 . S
C2823 H2839 0.961 . S
C2824 C2825 1.370 . S
C2824 C2826 1.363 . S
C2824 H2840 0.931 . S
C2825 C2824 1.370 . S
C2825 C2829 1.408 . S
C2826 C2824 1.363 . S
C2826 C2827 1.370 . S
C2826 C2830 1.524 . S
C2827 C2819 1.503 . S
C2827 C2826 1.370 . S
C2827 C2828 1.403 . S
C2828 C2827 1.403 . S
C2828 C2829 1.404 . S
C2828 C2831 1.539 . S
C2829 C2825 1.408 . S
C2829 C2828 1.404 . S
C2829 H2841 0.930 . S
C2830 C2826 1.524 . S
C2830 H2842 0.956 . S
C2830 H2843 0.961 . S
C2830 H2844 0.961 . S
C2831 C2828 1.539 . S
C2831 H2845 0.958 . S
C2831 H2846 0.961 . S
C2831 H2847 0.960 . S
H2832 C2816 0.931 . S
H2833 C2821 0.929 . S
H2834 C2822 0.960 . S
H2835 C2822 0.962 . S
H2836 C2822 0.960 . S
H2837 C2823 0.961 . S
H2838 C2823 0.961 . S
H2839 C2823 0.961 . S
H2840 C2824 0.931 . S
H2841 C2829 0.930 . S
H2842 C2830 0.956 . S
H2843 C2830 0.961 . S
H2844 C2830 0.961 . S
H2845 C2831 0.958 . S
H2846 C2831 0.961 . S
H2847 C2831 0.960 . S
C2848 C2849 1.391 . S
C2848 C2850 1.394 . S
C2848 H2864 0.931 . S
C2849 C2848 1.391 . S
C2849 C2853 1.376 . S
C2850 C2848 1.394 . S
C2850 C2851 1.369 . S
C2850 C2854 1.531 . S
C2851 C2850 1.369 . S
C2851 C2852 1.410 . S
C2851 C2859 1.503 . S
C2852 C2851 1.410 . S
C2852 C2853 1.392 . S
C2852 C2855 1.511 . S
C2853 C2849 1.376 . S
C2853 C2852 1.392 . S
C2853 H2865 0.929 . S
C2854 C2850 1.531 . S
C2854 H2866 0.960 . S
C2854 H2867 0.962 . S
C2854 H2868 0.960 . S
C2855 C2852 1.511 . S
C2855 H2869 0.961 1_554 S
C2855 H2870 0.961 . S
C2855 H2871 0.961 . S
C2856 C2857 1.370 . S
C2856 C2858 1.363 . S
C2856 H2872 0.931 1_554 S
C2857 C2856 1.370 . S
C2857 C2861 1.408 . S
C2858 C2856 1.363 . S
C2858 C2859 1.370 . S
C2858 C2862 1.524 1_554 S
C2859 C2851 1.503 . S
C2859 C2858 1.370 . S
C2859 C2860 1.403 . S
C2860 C2859 1.403 . S
C2860 C2861 1.404 . S
C2860 C2863 1.539 . S
C2861 C2857 1.408 . S
C2861 C2860 1.404 . S
C2861 H2873 0.930 . S
C2862 C2858 1.524 1_556 S
C2862 H2874 0.956 . S
C2862 H2875 0.961 . S
C2862 H2876 0.961 . S
C2863 C2860 1.539 . S
C2863 H2877 0.958 . S
C2863 H2878 0.961 . S
C2863 H2879 0.960 . S
H2864 C2848 0.931 . S
H2865 C2853 0.929 . S
H2866 C2854 0.960 . S
H2867 C2854 0.962 . S
H2868 C2854 0.960 . S
H2869 C2855 0.961 1_556 S
H2870 C2855 0.961 . S
H2871 C2855 0.961 . S
H2872 C2856 0.931 1_556 S
H2873 C2861 0.930 . S
H2874 C2862 0.956 . S
H2875 C2862 0.961 . S
H2876 C2862 0.961 . S
H2877 C2863 0.958 . S
H2878 C2863 0.961 . S
H2879 C2863 0.960 . S
C2880 C2881 1.391 . S
C2880 C2882 1.394 . S
C2880 H2896 0.931 . S
C2881 C2880 1.391 . S
C2881 C2885 1.376 . S
C2882 C2880 1.394 . S
C2882 C2883 1.369 . S
C2882 C2886 1.531 . S
C2883 C2882 1.369 . S
C2883 C2884 1.410 . S
C2883 C2891 1.503 . S
C2884 C2883 1.410 . S
C2884 C2885 1.392 . S
C2884 C2887 1.511 . S
C2885 C2881 1.376 . S
C2885 C2884 1.392 . S
C2885 H2897 0.929 . S
C2886 C2882 1.531 . S
C2886 H2898 0.960 . S
C2886 H2899 0.962 . S
C2886 H2900 0.960 . S
C2887 C2884 1.511 . S
C2887 H2901 0.961 . S
C2887 H2902 0.961 . S
C2887 H2903 0.961 . S
C2888 C2889 1.370 . S
C2888 C2890 1.363 . S
C2888 H2904 0.931 . S
C2889 C2888 1.370 . S
C2889 C2893 1.408 . S
C2890 C2888 1.363 . S
C2890 C2891 1.370 . S
C2890 C2894 1.524 . S
C2891 C2883 1.503 . S
C2891 C2890 1.370 . S
C2891 C2892 1.403 . S
C2892 C2891 1.403 . S
C2892 C2893 1.404 . S
C2892 C2895 1.539 . S
C2893 C2889 1.408 . S
C2893 C2892 1.404 . S
C2893 H2905 0.930 . S
C2894 C2890 1.524 . S
C2894 H2906 0.956 . S
C2894 H2907 0.961 . S
C2894 H2908 0.961 . S
C2895 C2892 1.539 . S
C2895 H2909 0.958 . S
C2895 H2910 0.961 . S
C2895 H2911 0.960 . S
H2896 C2880 0.931 . S
H2897 C2885 0.929 . S
H2898 C2886 0.960 . S
H2899 C2886 0.962 . S
H2900 C2886 0.960 . S
H2901 C2887 0.961 . S
H2902 C2887 0.961 . S
H2903 C2887 0.961 . S
H2904 C2888 0.931 . S
H2905 C2893 0.930 . S
H2906 C2894 0.956 . S
H2907 C2894 0.961 . S
H2908 C2894 0.961 . S
H2909 C2895 0.958 . S
H2910 C2895 0.961 . S
H2911 C2895 0.960 . S
C2912 C2913 1.391 . S
C2912 C2914 1.394 . S
C2912 H2928 0.931 . S
C2913 C2912 1.391 . S
C2913 C2917 1.376 . S
C2914 C2912 1.394 . S
C2914 C2915 1.369 . S
C2914 C2918 1.531 . S
C2915 C2914 1.369 . S
C2915 C2916 1.410 . S
C2915 C2923 1.503 . S
C2916 C2915 1.410 . S
C2916 C2917 1.392 . S
C2916 C2919 1.511 . S
C2917 C2913 1.376 . S
C2917 C2916 1.392 . S
C2917 H2929 0.929 . S
C2918 C2914 1.531 . S
C2918 H2930 0.960 . S
C2918 H2931 0.962 1_554 S
C2918 H2932 0.960 . S
C2919 C2916 1.511 . S
C2919 H2933 0.961 . S
C2919 H2934 0.987 . S
C2919 H2935 0.961 . S
C2920 C2921 1.358 1_556 S
C2920 C2922 1.363 . S
C2920 H2936 0.931 . S
C2921 C2920 1.358 1_554 S
C2921 C2925 1.423 . S
C2922 C2920 1.363 . S
C2922 C2923 1.370 1_556 S
C2922 C2926 1.524 . S
C2923 C2915 1.503 . S
C2923 C2922 1.370 1_554 S
C2923 C2924 1.403 . S
C2924 C2923 1.403 . S
C2924 C2925 1.404 . S
C2924 C2927 1.539 . S
C2925 C2921 1.423 . S
C2925 C2924 1.404 . S
C2925 H2937 0.930 . S
C2926 C2922 1.524 . S
C2926 H2938 0.956 . S
C2926 H2939 0.961 . S
C2926 H2940 0.961 . S
C2927 C2924 1.539 . S
C2927 H2941 0.958 . S
C2927 H2942 0.961 . S
C2927 H2943 0.960 . S
H2928 C2912 0.931 . S
H2929 C2917 0.929 . S
H2930 C2918 0.960 . S
H2931 C2918 0.962 1_556 S
H2932 C2918 0.960 . S
H2933 C2919 0.961 . S
H2934 C2919 0.987 . S
H2935 C2919 0.961 . S
H2936 C2920 0.931 . S
H2937 C2925 0.930 . S
H2938 C2926 0.956 . S
H2939 C2926 0.961 . S
H2940 C2926 0.961 . S
H2941 C2927 0.958 . S
H2942 C2927 0.961 . S
H2943 C2927 0.960 . S
C2944 C2945 1.391 . S
C2944 C2946 1.394 . S
C2944 H2960 0.931 . S
C2945 C2944 1.391 . S
C2945 C2949 1.376 . S
C2946 C2944 1.394 . S
C2946 C2947 1.369 . S
C2946 C2950 1.531 . S
C2947 C2946 1.369 . S
C2947 C2948 1.410 . S
C2947 C2955 1.503 . S
C2948 C2947 1.410 . S
C2948 C2949 1.392 . S
C2948 C2951 1.511 . S
C2949 C2945 1.376 . S
C2949 C2948 1.392 . S
C2949 H2961 0.929 . S
C2950 C2946 1.531 . S
C2950 H2962 0.960 . S
C2950 H2963 0.962 . S
C2950 H2964 0.960 . S
C2951 C2948 1.511 . S
C2951 H2965 0.961 . S
C2951 H2966 0.961 . S
C2951 H2967 0.961 . S
C2952 C2953 1.370 . S
C2952 C2954 1.363 . S
C2952 H2968 0.931 . S
C2953 C2952 1.370 . S
C2953 C2957 1.408 . S
C2954 C2952 1.363 . S
C2954 C2955 1.370 . S
C2954 C2958 1.524 . S
C2955 C2947 1.503 . S
C2955 C2954 1.370 . S
C2955 C2956 1.403 . S
C2956 C2955 1.403 . S
C2956 C2957 1.404 . S
C2956 C2959 1.539 . S
C2957 C2953 1.408 . S
C2957 C2956 1.404 . S
C2957 H2969 0.930 . S
C2958 C2954 1.524 . S
C2958 H2970 0.956 . S
C2958 H2971 0.961 . S
C2958 H2972 0.961 . S
C2959 C2956 1.539 . S
C2959 H2973 0.958 . S
C2959 H2974 0.961 . S
C2959 H2975 0.960 . S
H2960 C2944 0.931 . S
H2961 C2949 0.929 . S
H2962 C2950 0.960 . S
H2963 C2950 0.962 . S
H2964 C2950 0.960 . S
H2965 C2951 0.961 . S
H2966 C2951 0.961 . S
H2967 C2951 0.961 . S
H2968 C2952 0.931 . S
H2969 C2957 0.930 . S
H2970 C2958 0.956 . S
H2971 C2958 0.961 . S
H2972 C2958 0.961 . S
H2973 C2959 0.958 . S
H2974 C2959 0.961 . S
H2975 C2959 0.960 . S
C2976 C2977 1.391 . S
C2976 C2978 1.394 . S
C2976 H2992 0.931 . S
C2977 C2976 1.391 . S
C2977 C2981 1.376 . S
C2978 C2976 1.394 . S
C2978 C2979 1.369 . S
C2978 C2982 1.531 . S
C2979 C2978 1.369 . S
C2979 C2980 1.410 . S
C2979 C2987 1.503 . S
C2980 C2979 1.410 . S
C2980 C2981 1.392 . S
C2980 C2983 1.511 . S
C2981 C2977 1.376 . S
C2981 C2980 1.392 . S
C2981 H2993 0.929 . S
C2982 C2978 1.531 . S
C2982 H2994 0.960 . S
C2982 H2995 0.962 . S
C2982 H2996 0.960 . S
C2983 C2980 1.511 . S
C2983 H2997 0.961 . S
C2983 H2998 0.961 . S
C2983 H2999 0.961 . S
C2984 C2985 1.370 . S
C2984 C2986 1.363 . S
C2984 H3000 0.931 . S
C2985 C2984 1.370 . S
C2985 C2989 1.408 . S
C2986 C2984 1.363 . S
C2986 C2987 1.370 . S
C2986 C2990 1.524 . S
C2987 C2979 1.503 . S
C2987 C2986 1.370 . S
C2987 C2988 1.403 . S
C2988 C2987 1.403 . S
C2988 C2989 1.404 . S
C2988 C2991 1.539 . S
C2989 C2985 1.408 . S
C2989 C2988 1.404 . S
C2989 H3001 0.930 . S
C2990 C2986 1.524 . S
C2990 H3002 0.956 . S
C2990 H3003 0.961 . S
C2990 H3004 0.961 . S
C2991 C2988 1.539 . S
C2991 H3005 0.958 . S
C2991 H3006 0.961 . S
C2991 H3007 0.960 . S
H2992 C2976 0.931 . S
H2993 C2981 0.929 . S
H2994 C2982 0.960 . S
H2995 C2982 0.962 . S
H2996 C2982 0.960 . S
H2997 C2983 0.961 . S
H2998 C2983 0.961 . S
H2999 C2983 0.961 . S
H3000 C2984 0.931 . S
H3001 C2989 0.930 . S
H3002 C2990 0.956 . S
H3003 C2990 0.961 . S
H3004 C2990 0.961 . S
H3005 C2991 0.958 . S
H3006 C2991 0.961 . S
H3007 C2991 0.960 . S
C3008 C3009 1.391 . S
C3008 C3010 1.394 . S
C3008 H3024 0.931 . S
C3009 C3008 1.391 . S
C3009 C3013 1.376 . S
C3010 C3008 1.394 . S
C3010 C3011 1.369 . S
C3010 C3014 1.531 . S
C3011 C3010 1.369 . S
C3011 C3012 1.410 . S
C3011 C3019 1.503 . S
C3012 C3011 1.410 . S
C3012 C3013 1.392 . S
C3012 C3015 1.511 . S
C3013 C3009 1.376 . S
C3013 C3012 1.392 . S
C3013 H3025 0.929 . S
C3014 C3010 1.531 . S
C3014 H3026 0.960 . S
C3014 H3027 0.962 . S
C3014 H3028 0.960 . S
C3015 C3012 1.511 . S
C3015 H3029 0.961 . S
C3015 H3030 0.961 . S
C3015 H3031 0.961 . S
C3016 C3017 1.370 . S
C3016 C3018 1.363 . S
C3016 H3032 0.931 . S
C3017 C3016 1.370 . S
C3017 C3021 1.408 . S
C3018 C3016 1.363 . S
C3018 C3019 1.370 . S
C3018 C3022 1.524 . S
C3019 C3011 1.503 . S
C3019 C3018 1.370 . S
C3019 C3020 1.403 . S
C3020 C3019 1.403 . S
C3020 C3021 1.404 . S
C3020 C3023 1.539 . S
C3021 C3017 1.408 . S
C3021 C3020 1.404 . S
C3021 H3033 0.930 . S
C3022 C3018 1.524 . S
C3022 H3034 0.956 . S
C3022 H3035 0.961 . S
C3022 H3036 0.961 . S
C3023 C3020 1.539 . S
C3023 H3037 0.958 . S
C3023 H3038 0.961 . S
C3023 H3039 0.960 . S
H3024 C3008 0.931 . S
H3025 C3013 0.929 . S
H3026 C3014 0.960 . S
H3027 C3014 0.962 . S
H3028 C3014 0.960 . S
H3029 C3015 0.961 . S
H3030 C3015 0.961 . S
H3031 C3015 0.961 . S
H3032 C3016 0.931 . S
H3033 C3021 0.930 . S
H3034 C3022 0.956 . S
H3035 C3022 0.961 . S
H3036 C3022 0.961 . S
H3037 C3023 0.958 . S
H3038 C3023 0.961 . S
H3039 C3023 0.960 . S
C3040 C3041 1.391 . S
C3040 C3042 1.394 . S
C3040 H3056 0.931 . S
C3041 C3040 1.391 . S
C3041 C3045 1.376 . S
C3042 C3040 1.394 . S
C3042 C3043 1.369 . S
C3042 C3046 1.531 . S
C3043 C3042 1.369 . S
C3043 C3044 1.410 . S
C3043 C3051 1.503 . S
C3044 C3043 1.410 . S
C3044 C3045 1.392 . S
C3044 C3047 1.511 . S
C3045 C3041 1.376 . S
C3045 C3044 1.392 . S
C3045 H3057 0.929 . S
C3046 C3042 1.531 . S
C3046 H3058 0.960 . S
C3046 H3059 0.962 . S
C3046 H3060 0.960 . S
C3047 C3044 1.511 . S
C3047 H3061 0.961 . S
C3047 H3062 0.961 . S
C3047 H3063 0.961 . S
C3048 C3049 1.370 . S
C3048 C3050 1.363 . S
C3048 H3064 0.931 . S
C3049 C3048 1.370 . S
C3049 C3053 1.408 . S
C3050 C3048 1.363 . S
C3050 C3051 1.370 . S
C3050 C3054 1.524 . S
C3051 C3043 1.503 . S
C3051 C3050 1.370 . S
C3051 C3052 1.403 . S
C3052 C3051 1.403 . S
C3052 C3053 1.404 . S
C3052 C3055 1.539 . S
C3053 C3049 1.408 . S
C3053 C3052 1.404 . S
C3053 H3065 0.930 . S
C3054 C3050 1.524 . S
C3054 H3066 0.956 . S
C3054 H3067 0.961 . S
C3054 H3068 0.961 . S
C3055 C3052 1.539 . S
C3055 H3069 0.958 . S
C3055 H3070 0.961 . S
C3055 H3071 0.960 . S
H3056 C3040 0.931 . S
H3057 C3045 0.929 . S
H3058 C3046 0.960 . S
H3059 C3046 0.962 . S
H3060 C3046 0.960 . S
H3061 C3047 0.961 . S
H3062 C3047 0.961 . S
H3063 C3047 0.961 . S
H3064 C3048 0.931 . S
H3065 C3053 0.930 . S
H3066 C3054 0.956 . S
H3067 C3054 0.961 . S
H3068 C3054 0.961 . S
H3069 C3055 0.958 . S
H3070 C3055 0.961 . S
H3071 C3055 0.960 . S
C3072 C3073 1.391 . S
C3072 C3074 1.394 . S
C3072 H3088 0.931 . S
C3073 C3072 1.391 . S
C3073 C3077 1.376 1_455 S
C3074 C3072 1.394 . S
C3074 C3075 1.369 1_455 S
C3074 C3078 1.531 . S
C3075 C3074 1.369 1_655 S
C3075 C3076 1.410 . S
C3075 C3083 1.503 . S
C3076 C3075 1.410 . S
C3076 C3077 1.392 . S
C3076 C3079 1.511 . S
C3077 C3073 1.376 1_655 S
C3077 C3076 1.392 . S
C3077 H3089 0.929 . S
C3078 C3074 1.531 . S
C3078 H3090 0.960 . S
C3078 H3091 0.962 . S
C3078 H3092 0.960 . S
C3079 C3076 1.511 . S
C3079 H3093 0.961 . S
C3079 H3094 0.961 . S
C3079 H3095 0.961 . S
C3080 C3081 1.370 1_455 S
C3080 C3082 1.363 . S
C3080 H3096 0.931 . S
C3081 C3080 1.370 1_655 S
C3081 C3085 1.408 . S
C3082 C3080 1.363 . S
C3082 C3083 1.370 1_455 S
C3082 C3086 1.524 . S
C3083 C3075 1.503 . S
C3083 C3082 1.370 1_655 S
C3083 C3084 1.403 . S
C3084 C3083 1.403 . S
C3084 C3085 1.404 . S
C3084 C3087 1.539 . S
C3085 C3081 1.408 . S
C3085 C3084 1.404 . S
C3085 H3097 0.930 1_556 S
C3086 C3082 1.524 . S
C3086 H3098 0.956 . S
C3086 H3099 0.961 . S
C3086 H3100 0.961 . S
C3087 C3084 1.539 . S
C3087 H3101 0.961 . S
C3087 H3102 0.961 . S
C3087 H3103 0.960 . S
H3088 C3072 0.931 . S
H3089 C3077 0.929 . S
H3090 C3078 0.960 . S
H3091 C3078 0.962 . S
H3092 C3078 0.960 . S
H3093 C3079 0.961 . S
H3094 C3079 0.961 . S
H3095 C3079 0.961 . S
H3096 C3080 0.931 . S
H3097 C3085 0.930 1_554 S
H3098 C3086 0.956 . S
H3099 C3086 0.961 . S
H3100 C3086 0.961 . S
H3101 C3087 0.961 . S
H3102 C3087 0.961 . S
H3103 C3087 0.960 . S
C3104 C3105 1.391 . S
C3104 C3106 1.394 . S
C3104 H3120 0.931 . S
C3105 C3104 1.391 . S
C3105 C3109 1.376 . S
C3106 C3104 1.394 . S
C3106 C3107 1.369 . S
C3106 C3110 1.531 . S
C3107 C3106 1.369 . S
C3107 C3108 1.410 . S
C3107 C3115 1.503 . S
C3108 C3107 1.410 . S
C3108 C3109 1.392 . S
C3108 C3111 1.511 . S
C3109 C3105 1.376 . S
C3109 C3108 1.392 . S
C3109 H3121 0.929 . S
C3110 C3106 1.531 . S
C3110 H3122 0.960 . S
C3110 H3123 0.962 . S
C3110 H3124 0.960 . S
C3111 C3108 1.511 . S
C3111 H3125 0.961 . S
C3111 H3126 0.961 . S
C3111 H3127 0.961 . S
C3112 C3113 1.370 . S
C3112 C3114 1.363 . S
C3112 H3128 0.931 . S
C3113 C3112 1.370 . S
C3113 C3117 1.408 . S
C3114 C3112 1.363 . S
C3114 C3115 1.370 . S
C3114 C3118 1.524 . S
C3115 C3107 1.503 . S
C3115 C3114 1.370 . S
C3115 C3116 1.403 . S
C3116 C3115 1.403 . S
C3116 C3117 1.404 . S
C3116 C3119 1.539 . S
C3117 C3113 1.408 . S
C3117 C3116 1.404 . S
C3117 H3129 0.930 . S
C3118 C3114 1.524 . S
C3118 H3130 0.956 . S
C3118 H3131 0.961 . S
C3118 H3132 0.961 . S
C3119 C3116 1.539 . S
C3119 H3133 0.958 . S
C3119 H3134 0.961 . S
C3119 H3135 0.960 . S
H3120 C3104 0.931 . S
H3121 C3109 0.929 . S
H3122 C3110 0.960 . S
H3123 C3110 0.962 . S
H3124 C3110 0.960 . S
H3125 C3111 0.961 . S
H3126 C3111 0.961 . S
H3127 C3111 0.961 . S
H3128 C3112 0.931 . S
H3129 C3117 0.930 . S
H3130 C3118 0.956 . S
H3131 C3118 0.961 . S
H3132 C3118 0.961 . S
H3133 C3119 0.958 . S
H3134 C3119 0.961 . S
H3135 C3119 0.960 . S
C3136 C3137 1.391 . S
C3136 C3138 1.394 . S
C3136 H3152 0.931 . S
C3137 C3136 1.391 . S
C3137 C3141 1.376 . S
C3138 C3136 1.394 . S
C3138 C3139 1.369 . S
C3138 C3142 1.531 . S
C3139 C3138 1.369 . S
C3139 C3140 1.410 . S
C3139 C3147 1.503 . S
C3140 C3139 1.410 . S
C3140 C3141 1.392 . S
C3140 C3143 1.511 . S
C3141 C3137 1.376 . S
C3141 C3140 1.392 . S
C3141 H3153 0.929 . S
C3142 C3138 1.531 . S
C3142 H3154 0.960 . S
C3142 H3155 0.962 . S
C3142 H3156 0.960 . S
C3143 C3140 1.511 . S
C3143 H3157 0.961 . S
C3143 H3158 0.961 . S
C3143 H3159 0.961 . S
C3144 C3145 1.370 . S
C3144 C3146 1.363 . S
C3144 H3160 0.931 . S
C3145 C3144 1.370 . S
C3145 C3149 1.408 . S
C3146 C3144 1.363 . S
C3146 C3147 1.370 . S
C3146 C3150 1.524 . S
C3147 C3139 1.503 . S
C3147 C3146 1.370 . S
C3147 C3148 1.403 . S
C3148 C3147 1.403 . S
C3148 C3149 1.404 . S
C3148 C3151 1.539 . S
C3149 C3145 1.408 . S
C3149 C3148 1.404 . S
C3149 H3161 0.930 . S
C3150 C3146 1.524 . S
C3150 H3162 0.956 . S
C3150 H3163 0.961 . S
C3150 H3164 0.961 . S
C3151 C3148 1.539 . S
C3151 H3165 0.958 . S
C3151 H3166 0.961 . S
C3151 H3167 0.960 . S
H3152 C3136 0.931 . S
H3153 C3141 0.929 . S
H3154 C3142 0.960 . S
H3155 C3142 0.962 . S
H3156 C3142 0.960 . S
H3157 C3143 0.961 . S
H3158 C3143 0.961 . S
H3159 C3143 0.961 . S
H3160 C3144 0.931 . S
H3161 C3149 0.930 . S
H3162 C3150 0.956 . S
H3163 C3150 0.961 . S
H3164 C3150 0.961 . S
H3165 C3151 0.958 . S
H3166 C3151 0.961 . S
H3167 C3151 0.960 . S
C3168 C3169 1.391 . S
C3168 C3170 1.394 . S
C3168 H3184 0.931 . S
C3169 C3168 1.391 . S
C3169 C3173 1.376 . S
C3170 C3168 1.394 . S
C3170 C3171 1.369 . S
C3170 C3174 1.531 . S
C3171 C3170 1.369 . S
C3171 C3172 1.410 . S
C3171 C3179 1.503 . S
C3172 C3171 1.410 . S
C3172 C3173 1.392 . S
C3172 C3175 1.511 . S
C3173 C3169 1.376 . S
C3173 C3172 1.392 . S
C3173 H3185 0.929 . S
C3174 C3170 1.531 . S
C3174 H3186 0.960 . S
C3174 H3187 0.962 . S
C3174 H3188 0.960 . S
C3175 C3172 1.511 . S
C3175 H3189 0.961 . S
C3175 H3190 0.961 . S
C3175 H3191 0.961 . S
C3176 C3177 1.370 . S
C3176 C3178 1.363 . S
C3176 H3192 0.931 . S
C3177 C3176 1.370 . S
C3177 C3181 1.408 . S
C3178 C3176 1.363 . S
C3178 C3179 1.370 . S
C3178 C3182 1.524 . S
C3179 C3171 1.503 . S
C3179 C3178 1.370 . S
C3179 C3180 1.403 . S
C3180 C3179 1.403 . S
C3180 C3181 1.404 . S
C3180 C3183 1.539 . S
C3181 C3177 1.408 . S
C3181 C3180 1.404 . S
C3181 H3193 0.930 . S
C3182 C3178 1.524 . S
C3182 H3194 0.956 . S
C3182 H3195 0.961 . S
C3182 H3196 0.961 . S
C3183 C3180 1.539 . S
C3183 H3197 0.958 . S
C3183 H3198 0.961 . S
C3183 H3199 0.960 . S
H3184 C3168 0.931 . S
H3185 C3173 0.929 . S
H3186 C3174 0.960 . S
H3187 C3174 0.962 . S
H3188 C3174 0.960 . S
H3189 C3175 0.961 . S
H3190 C3175 0.961 . S
H3191 C3175 0.961 . S
H3192 C3176 0.931 . S
H3193 C3181 0.930 . S
H3194 C3182 0.956 . S
H3195 C3182 0.961 . S
H3196 C3182 0.961 . S
H3197 C3183 0.958 . S
H3198 C3183 0.961 . S
H3199 C3183 0.960 . S
C3200 C3201 1.391 . S
C3200 C3202 1.394 . S
C3200 H3216 0.931 . S
C3201 C3200 1.391 . S
C3201 C3205 1.376 1_455 S
C3202 C3200 1.394 . S
C3202 C3203 1.369 1_455 S
C3202 C3206 1.531 . S
C3203 C3202 1.369 1_655 S
C3203 C3204 1.410 . S
C3203 C3211 1.503 . S
C3204 C3203 1.410 . S
C3204 C3205 1.392 . S
C3204 C3207 1.511 . S
C3205 C3201 1.376 1_655 S
C3205 C3204 1.392 . S
C3205 H3217 0.929 . S
C3206 C3202 1.531 . S
C3206 H3218 0.960 . S
C3206 H3219 0.962 . S
C3206 H3220 0.960 . S
C3207 C3204 1.511 . S
C3207 H3221 0.961 . S
C3207 H3222 0.961 . S
C3207 H3223 0.961 . S
C3208 C3209 1.390 . S
C3208 C3210 1.359 1_655 S
C3208 H3224 0.917 1_655 S
C3209 C3208 1.390 . S
C3209 C3213 1.408 . S
C3210 C3208 1.359 1_455 S
C3210 C3211 1.370 1_455 S
C3210 C3214 1.524 . S
C3211 C3203 1.503 . S
C3211 C3210 1.370 1_655 S
C3211 C3212 1.403 . S
C3212 C3211 1.403 . S
C3212 C3213 1.404 . S
C3212 C3215 1.539 . S
C3213 C3209 1.408 . S
C3213 C3212 1.404 . S
C3213 H3225 0.930 . S
C3214 C3210 1.524 . S
C3214 H3226 0.956 . S
C3214 H3227 0.961 . S
C3214 H3228 0.961 . S
C3215 C3212 1.539 . S
C3215 H3229 0.958 . S
C3215 H3230 0.961 . S
C3215 H3231 0.960 . S
H3216 C3200 0.931 . S
H3217 C3205 0.929 . S
H3218 C3206 0.960 . S
H3219 C3206 0.962 . S
H3220 C3206 0.960 . S
H3221 C3207 0.961 . S
H3222 C3207 0.961 . S
H3223 C3207 0.961 . S
H3224 C3208 0.917 1_455 S
H3225 C3213 0.930 . S
H3226 C3214 0.956 . S
H3227 C3214 0.961 . S
H3228 C3214 0.961 . S
H3229 C3215 0.958 . S
H3230 C3215 0.961 . S
H3231 C3215 0.960 . S
C3232 C3233 1.391 . S
C3232 C3234 1.394 . S
C3232 H3248 0.931 . S
C3233 C3232 1.391 . S
C3233 C3237 1.376 . S
C3234 C3232 1.394 . S
C3234 C3235 1.369 . S
C3234 C3238 1.531 . S
C3235 C3234 1.369 . S
C3235 C3236 1.410 . S
C3235 C3243 1.503 . S
C3236 C3235 1.410 . S
C3236 C3237 1.392 . S
C3236 C3239 1.511 . S
C3237 C3233 1.376 . S
C3237 C3236 1.392 . S
C3237 H3249 0.929 . S
C3238 C3234 1.531 . S
C3238 H3250 0.960 . S
C3238 H3251 0.962 . S
C3238 H3252 0.960 . S
C3239 C3236 1.511 . S
C3239 H3253 0.961 . S
C3239 H3254 0.961 . S
C3239 H3255 0.961 . S
C3240 C3241 1.370 . S
C3240 C3242 1.363 . S
C3240 H3256 0.931 . S
C3241 C3240 1.370 . S
C3241 C3245 1.408 . S
C3242 C3240 1.363 . S
C3242 C3243 1.370 . S
C3242 C3246 1.524 . S
C3243 C3235 1.503 . S
C3243 C3242 1.370 . S
C3243 C3244 1.403 . S
C3244 C3243 1.403 . S
C3244 C3245 1.404 . S
C3244 C3247 1.539 . S
C3245 C3241 1.408 . S
C3245 C3244 1.404 . S
C3245 H3257 0.930 . S
C3246 C3242 1.524 . S
C3246 H3258 0.956 . S
C3246 H3259 0.961 . S
C3246 H3260 0.961 . S
C3247 C3244 1.539 . S
C3247 H3261 0.958 . S
C3247 H3262 0.961 . S
C3247 H3263 0.960 . S
H3248 C3232 0.931 . S
H3249 C3237 0.929 . S
H3250 C3238 0.960 . S
H3251 C3238 0.962 . S
H3252 C3238 0.960 . S
H3253 C3239 0.961 . S
H3254 C3239 0.961 . S
H3255 C3239 0.961 . S
H3256 C3240 0.931 . S
H3257 C3245 0.930 . S
H3258 C3246 0.956 . S
H3259 C3246 0.961 . S
H3260 C3246 0.961 . S
H3261 C3247 0.958 . S
H3262 C3247 0.961 . S
H3263 C3247 0.960 . S
C3264 C3265 1.391 . S
C3264 C3266 1.394 . S
C3264 H3280 0.931 . S
C3265 C3264 1.391 . S
C3265 C3269 1.376 . S
C3266 C3264 1.394 . S
C3266 C3267 1.369 . S
C3266 C3270 1.531 . S
C3267 C3266 1.369 . S
C3267 C3268 1.410 . S
C3267 C3275 1.503 . S
C3268 C3267 1.410 . S
C3268 C3269 1.392 . S
C3268 C3271 1.511 . S
C3269 C3265 1.376 . S
C3269 C3268 1.392 . S
C3269 H3281 0.929 . S
C3270 C3266 1.531 . S
C3270 H3282 0.960 . S
C3270 H3283 0.962 . S
C3270 H3284 0.960 . S
C3271 C3268 1.511 . S
C3271 H3285 0.961 . S
C3271 H3286 0.961 . S
C3271 H3287 0.961 . S
C3272 C3273 1.370 . S
C3272 C3274 1.363 . S
C3272 H3288 0.931 . S
C3273 C3272 1.370 . S
C3273 C3277 1.408 . S
C3274 C3272 1.363 . S
C3274 C3275 1.370 . S
C3274 C3278 1.524 . S
C3275 C3267 1.503 . S
C3275 C3274 1.370 . S
C3275 C3276 1.403 . S
C3276 C3275 1.403 . S
C3276 C3277 1.404 . S
C3276 C3279 1.539 . S
C3277 C3273 1.408 . S
C3277 C3276 1.404 . S
C3277 H3289 0.930 . S
C3278 C3274 1.524 . S
C3278 H3290 0.956 . S
C3278 H3291 0.961 . S
C3278 H3292 0.961 . S
C3279 C3276 1.539 . S
C3279 H3293 0.958 . S
C3279 H3294 0.961 . S
C3279 H3295 0.960 . S
H3280 C3264 0.931 . S
H3281 C3269 0.929 . S
H3282 C3270 0.960 . S
H3283 C3270 0.962 . S
H3284 C3270 0.960 . S
H3285 C3271 0.961 . S
H3286 C3271 0.961 . S
H3287 C3271 0.961 . S
H3288 C3272 0.931 . S
H3289 C3277 0.930 . S
H3290 C3278 0.956 . S
H3291 C3278 0.961 . S
H3292 C3278 0.961 . S
H3293 C3279 0.958 . S
H3294 C3279 0.961 . S
H3295 C3279 0.960 . S
C3296 C3297 1.391 . S
C3296 C3298 1.394 . S
C3296 H3312 0.931 . S
C3297 C3296 1.391 . S
C3297 C3301 1.376 . S
C3298 C3296 1.394 . S
C3298 C3299 1.369 . S
C3298 C3302 1.531 . S
C3299 C3298 1.369 . S
C3299 C3300 1.410 . S
C3299 C3307 1.503 . S
C3300 C3299 1.410 . S
C3300 C3301 1.392 . S
C3300 C3303 1.511 . S
C3301 C3297 1.376 . S
C3301 C3300 1.392 . S
C3301 H3313 0.929 . S
C3302 C3298 1.531 . S
C3302 H3314 0.960 . S
C3302 H3315 0.962 . S
C3302 H3316 0.960 . S
C3303 C3300 1.511 . S
C3303 H3317 0.961 . S
C3303 H3318 0.961 . S
C3303 H3319 0.961 . S
C3304 C3305 1.370 . S
C3304 C3306 1.363 . S
C3304 H3320 0.931 . S
C3305 C3304 1.370 . S
C3305 C3309 1.408 . S
C3306 C3304 1.363 . S
C3306 C3307 1.370 . S
C3306 C3310 1.524 . S
C3307 C3299 1.503 . S
C3307 C3306 1.370 . S
C3307 C3308 1.403 . S
C3308 C3307 1.403 . S
C3308 C3309 1.404 . S
C3308 C3311 1.539 . S
C3309 C3305 1.408 . S
C3309 C3308 1.404 . S
C3309 H3321 0.930 . S
C3310 C3306 1.524 . S
C3310 H3322 0.956 . S
C3310 H3323 0.961 . S
C3310 H3324 0.961 . S
C3311 C3308 1.539 . S
C3311 H3325 0.958 . S
C3311 H3326 0.961 . S
C3311 H3327 0.960 . S
H3312 C3296 0.931 . S
H3313 C3301 0.929 . S
H3314 C3302 0.960 . S
H3315 C3302 0.962 . S
H3316 C3302 0.960 . S
H3317 C3303 0.961 . S
H3318 C3303 0.961 . S
H3319 C3303 0.961 . S
H3320 C3304 0.931 . S
H3321 C3309 0.930 . S
H3322 C3310 0.956 . S
H3323 C3310 0.961 . S
H3324 C3310 0.961 . S
H3325 C3311 0.958 . S
H3326 C3311 0.961 . S
H3327 C3311 0.960 . S
C3328 C3329 1.391 . S
C3328 C3330 1.394 . S
C3328 H3344 0.931 . S
C3329 C3328 1.391 . S
C3329 C3333 1.376 . S
C3330 C3328 1.394 . S
C3330 C3331 1.369 . S
C3330 C3334 1.531 . S
C3331 C3330 1.369 . S
C3331 C3332 1.410 . S
C3331 C3339 1.503 . S
C3332 C3331 1.410 . S
C3332 C3333 1.392 . S
C3332 C3335 1.511 . S
C3333 C3329 1.376 . S
C3333 C3332 1.392 . S
C3333 H3345 0.929 . S
C3334 C3330 1.531 . S
C3334 H3346 0.960 . S
C3334 H3347 0.962 . S
C3334 H3348 0.960 . S
C3335 C3332 1.511 . S
C3335 H3349 0.961 . S
C3335 H3350 0.961 . S
C3335 H3351 0.961 . S
C3336 C3337 1.370 . S
C3336 C3338 1.363 . S
C3336 H3352 0.931 . S
C3337 C3336 1.370 . S
C3337 C3341 1.408 . S
C3338 C3336 1.363 . S
C3338 C3339 1.370 . S
C3338 C3342 1.524 . S
C3339 C3331 1.503 . S
C3339 C3338 1.370 . S
C3339 C3340 1.403 . S
C3340 C3339 1.403 . S
C3340 C3341 1.404 . S
C3340 C3343 1.539 . S
C3341 C3337 1.408 . S
C3341 C3340 1.404 . S
C3341 H3353 0.930 . S
C3342 C3338 1.524 . S
C3342 H3354 0.956 . S
C3342 H3355 0.961 . S
C3342 H3356 0.961 . S
C3343 C3340 1.539 . S
C3343 H3357 0.958 . S
C3343 H3358 0.961 . S
C3343 H3359 0.960 . S
H3344 C3328 0.931 . S
H3345 C3333 0.929 . S
H3346 C3334 0.960 . S
H3347 C3334 0.962 . S
H3348 C3334 0.960 . S
H3349 C3335 0.961 . S
H3350 C3335 0.961 . S
H3351 C3335 0.961 . S
H3352 C3336 0.931 . S
H3353 C3341 0.930 . S
H3354 C3342 0.956 . S
H3355 C3342 0.961 . S
H3356 C3342 0.961 . S
H3357 C3343 0.958 . S
H3358 C3343 0.961 . S
H3359 C3343 0.960 . S
C3360 C3361 1.391 . S
C3360 C3362 1.394 . S
C3360 H3376 0.931 . S
C3361 C3360 1.391 . S
C3361 C3365 1.376 . S
C3362 C3360 1.394 . S
C3362 C3363 1.369 . S
C3362 C3366 1.531 . S
C3363 C3362 1.369 . S
C3363 C3364 1.410 . S
C3363 C3371 1.503 . S
C3364 C3363 1.410 . S
C3364 C3365 1.392 . S
C3364 C3367 1.511 . S
C3365 C3361 1.376 . S
C3365 C3364 1.392 . S
C3365 H3377 0.929 . S
C3366 C3362 1.531 . S
C3366 H3378 0.960 . S
C3366 H3379 0.962 . S
C3366 H3380 0.960 . S
C3367 C3364 1.511 . S
C3367 H3381 0.961 . S
C3367 H3382 0.961 . S
C3367 H3383 0.961 . S
C3368 C3369 1.370 . S
C3368 C3370 1.363 . S
C3368 H3384 0.931 . S
C3369 C3368 1.370 . S
C3369 C3373 1.408 . S
C3370 C3368 1.363 . S
C3370 C3371 1.370 . S
C3370 C3374 1.524 . S
C3371 C3363 1.503 . S
C3371 C3370 1.370 . S
C3371 C3372 1.403 . S
C3372 C3371 1.403 . S
C3372 C3373 1.404 . S
C3372 C3375 1.539 . S
C3373 C3369 1.408 . S
C3373 C3372 1.404 . S
C3373 H3385 0.930 . S
C3374 C3370 1.524 . S
C3374 H3386 0.956 . S
C3374 H3387 0.961 . S
C3374 H3388 0.961 . S
C3375 C3372 1.539 . S
C3375 H3389 0.958 . S
C3375 H3390 0.961 . S
C3375 H3391 0.960 . S
H3376 C3360 0.931 . S
H3377 C3365 0.929 . S
H3378 C3366 0.960 . S
H3379 C3366 0.962 . S
H3380 C3366 0.960 . S
H3381 C3367 0.961 . S
H3382 C3367 0.961 . S
H3383 C3367 0.961 . S
H3384 C3368 0.931 . S
H3385 C3373 0.930 . S
H3386 C3374 0.956 . S
H3387 C3374 0.961 . S
H3388 C3374 0.961 . S
H3389 C3375 0.958 . S
H3390 C3375 0.961 . S
H3391 C3375 0.960 . S
C3392 C3393 1.391 . S
C3392 C3394 1.394 . S
C3392 H3408 0.931 . S
C3393 C3392 1.391 . S
C3393 C3397 1.376 . S
C3394 C3392 1.394 . S
C3394 C3395 1.369 . S
C3394 C3398 1.531 . S
C3395 C3394 1.369 . S
C3395 C3396 1.410 . S
C3395 C3403 1.503 . S
C3396 C3395 1.410 . S
C3396 C3397 1.392 . S
C3396 C3399 1.511 . S
C3397 C3393 1.376 . S
C3397 C3396 1.392 . S
C3397 H3409 0.929 . S
C3398 C3394 1.531 . S
C3398 H3410 0.960 . S
C3398 H3411 0.962 . S
C3398 H3412 0.960 . S
C3399 C3396 1.511 . S
C3399 H3413 0.961 . S
C3399 H3414 0.961 . S
C3399 H3415 0.961 . S
C3400 C3401 1.370 . S
C3400 C3402 1.363 . S
C3400 H3416 0.931 . S
C3401 C3400 1.370 . S
C3401 C3405 1.408 . S
C3402 C3400 1.363 . S
C3402 C3403 1.370 . S
C3402 C3406 1.524 . S
C3403 C3395 1.503 . S
C3403 C3402 1.370 . S
C3403 C3404 1.403 . S
C3404 C3403 1.403 . S
C3404 C3405 1.404 . S
C3404 C3407 1.539 . S
C3405 C3401 1.408 . S
C3405 C3404 1.404 . S
C3405 H3417 0.930 . S
C3406 C3402 1.524 . S
C3406 H3418 0.956 . S
C3406 H3419 0.961 . S
C3406 H3420 0.961 . S
C3407 C3404 1.539 . S
C3407 H3421 0.958 . S
C3407 H3422 0.961 . S
C3407 H3423 0.960 . S
H3408 C3392 0.931 . S
H3409 C3397 0.929 . S
H3410 C3398 0.960 . S
H3411 C3398 0.962 . S
H3412 C3398 0.960 . S
H3413 C3399 0.961 . S
H3414 C3399 0.961 . S
H3415 C3399 0.961 . S
H3416 C3400 0.931 . S
H3417 C3405 0.930 . S
H3418 C3406 0.956 . S
H3419 C3406 0.961 . S
H3420 C3406 0.961 . S
H3421 C3407 0.958 . S
H3422 C3407 0.961 . S
H3423 C3407 0.960 . S
C3424 C3425 1.391 . S
C3424 C3426 1.394 . S
C3424 H3440 0.931 . S
C3425 C3424 1.391 . S
C3425 C3429 1.376 . S
C3426 C3424 1.394 . S
C3426 C3427 1.369 . S
C3426 C3430 1.531 . S
C3427 C3426 1.369 . S
C3427 C3428 1.410 . S
C3427 C3435 1.503 . S
C3428 C3427 1.410 . S
C3428 C3429 1.392 . S
C3428 C3431 1.511 . S
C3429 C3425 1.376 . S
C3429 C3428 1.392 . S
C3429 H3441 0.929 . S
C3430 C3426 1.531 . S
C3430 H3442 0.960 . S
C3430 H3443 0.962 . S
C3430 H3444 0.960 . S
C3431 C3428 1.511 . S
C3431 H3445 0.961 . S
C3431 H3446 0.961 . S
C3431 H3447 0.961 . S
C3432 C3433 1.370 . S
C3432 C3434 1.363 . S
C3432 H3448 0.931 . S
C3433 C3432 1.370 . S
C3433 C3437 1.408 . S
C3434 C3432 1.363 . S
C3434 C3435 1.370 . S
C3434 C3438 1.524 . S
C3435 C3427 1.503 . S
C3435 C3434 1.370 . S
C3435 C3436 1.403 . S
C3436 C3435 1.403 . S
C3436 C3437 1.404 . S
C3436 C3439 1.539 . S
C3437 C3433 1.408 . S
C3437 C3436 1.404 . S
C3437 H3449 0.930 . S
C3438 C3434 1.524 . S
C3438 H3450 0.956 . S
C3438 H3451 0.961 . S
C3438 H3452 0.961 . S
C3439 C3436 1.539 . S
C3439 H3453 0.958 . S
C3439 H3454 0.961 . S
C3439 H3455 0.960 . S
H3440 C3424 0.931 . S
H3441 C3429 0.929 . S
H3442 C3430 0.960 . S
H3443 C3430 0.962 . S
H3444 C3430 0.960 . S
H3445 C3431 0.961 . S
H3446 C3431 0.961 . S
H3447 C3431 0.961 . S
H3448 C3432 0.931 . S
H3449 C3437 0.930 . S
H3450 C3438 0.956 . S
H3451 C3438 0.961 . S
H3452 C3438 0.961 . S
H3453 C3439 0.958 . S
H3454 C3439 0.961 . S
H3455 C3439 0.960 . S
C3456 C3457 1.391 . S
C3456 C3458 1.394 . S
C3456 H3472 0.931 . S
C3457 C3456 1.391 . S
C3457 C3461 1.376 . S
C3458 C3456 1.394 . S
C3458 C3459 1.369 . S
C3458 C3462 1.531 . S
C3459 C3458 1.369 . S
C3459 C3460 1.410 . S
C3459 C3467 1.503 . S
C3460 C3459 1.410 . S
C3460 C3461 1.392 . S
C3460 C3463 1.511 . S
C3461 C3457 1.376 . S
C3461 C3460 1.392 . S
C3461 H3473 0.929 . S
C3462 C3458 1.531 . S
C3462 H3474 0.960 . S
C3462 H3475 0.962 . S
C3462 H3476 0.960 . S
C3463 C3460 1.511 . S
C3463 H3477 0.961 . S
C3463 H3478 0.961 . S
C3463 H3479 0.961 . S
C3464 C3465 1.370 . S
C3464 C3466 1.363 . S
C3464 H3480 0.931 . S
C3465 C3464 1.370 . S
C3465 C3469 1.408 . S
C3466 C3464 1.363 . S
C3466 C3467 1.370 . S
C3466 C3470 1.524 . S
C3467 C3459 1.503 . S
C3467 C3466 1.370 . S
C3467 C3468 1.403 . S
C3468 C3467 1.403 . S
C3468 C3469 1.404 . S
C3468 C3471 1.539 . S
C3469 C3465 1.408 . S
C3469 C3468 1.404 . S
C3469 H3481 0.930 . S
C3470 C3466 1.524 . S
C3470 H3482 0.956 . S
C3470 H3483 0.961 . S
C3470 H3484 0.961 . S
C3471 C3468 1.539 . S
C3471 H3485 0.958 . S
C3471 H3486 0.961 . S
C3471 H3487 0.960 . S
H3472 C3456 0.931 . S
H3473 C3461 0.929 . S
H3474 C3462 0.960 . S
H3475 C3462 0.962 . S
H3476 C3462 0.960 . S
H3477 C3463 0.961 . S
H3478 C3463 0.961 . S
H3479 C3463 0.961 . S
H3480 C3464 0.931 . S
H3481 C3469 0.930 . S
H3482 C3470 0.956 . S
H3483 C3470 0.961 . S
H3484 C3470 0.961 . S
H3485 C3471 0.958 . S
H3486 C3471 0.961 . S
H3487 C3471 0.960 . S
C3488 C3489 1.391 . S
C3488 C3490 1.394 . S
C3488 H3504 0.931 . S
C3489 C3488 1.391 . S
C3489 C3493 1.376 . S
C3490 C3488 1.394 . S
C3490 C3491 1.369 . S
C3490 C3494 1.531 . S
C3491 C3490 1.369 . S
C3491 C3492 1.410 . S
C3491 C3499 1.503 . S
C3492 C3491 1.410 . S
C3492 C3493 1.392 . S
C3492 C3495 1.511 . S
C3493 C3489 1.376 . S
C3493 C3492 1.392 . S
C3493 H3505 0.929 . S
C3494 C3490 1.531 . S
C3494 H3506 0.960 . S
C3494 H3507 0.962 . S
C3494 H3508 0.960 . S
C3495 C3492 1.511 . S
C3495 H3509 0.961 . S
C3495 H3510 0.961 . S
C3495 H3511 0.961 . S
C3496 C3497 1.370 . S
C3496 C3498 1.363 . S
C3496 H3512 0.931 . S
C3497 C3496 1.370 . S
C3497 C3501 1.408 . S
C3498 C3496 1.363 . S
C3498 C3499 1.370 . S
C3498 C3502 1.524 . S
C3499 C3491 1.503 . S
C3499 C3498 1.370 . S
C3499 C3500 1.403 . S
C3500 C3499 1.403 . S
C3500 C3501 1.404 . S
C3500 C3503 1.539 . S
C3501 C3497 1.408 . S
C3501 C3500 1.404 . S
C3501 H3513 0.930 . S
C3502 C3498 1.524 . S
C3502 H3514 0.956 . S
C3502 H3515 0.961 . S
C3502 H3516 0.961 . S
C3503 C3500 1.539 . S
C3503 H3517 0.958 . S
C3503 H3518 0.961 . S
C3503 H3519 0.960 . S
H3504 C3488 0.931 . S
H3505 C3493 0.929 . S
H3506 C3494 0.960 . S
H3507 C3494 0.962 . S
H3508 C3494 0.960 . S
H3509 C3495 0.961 . S
H3510 C3495 0.961 . S
H3511 C3495 0.961 . S
H3512 C3496 0.931 . S
H3513 C3501 0.930 . S
H3514 C3502 0.956 . S
H3515 C3502 0.961 . S
H3516 C3502 0.961 . S
H3517 C3503 0.958 . S
H3518 C3503 0.961 . S
H3519 C3503 0.960 . S
C3520 C3521 1.391 . S
C3520 C3522 1.394 . S
C3520 H3536 0.931 . S
C3521 C3520 1.391 . S
C3521 C3525 1.376 . S
C3522 C3520 1.394 . S
C3522 C3523 1.369 . S
C3522 C3526 1.531 . S
C3523 C3522 1.369 . S
C3523 C3524 1.410 . S
C3523 C3531 1.503 . S
C3524 C3523 1.410 . S
C3524 C3525 1.392 . S
C3524 C3527 1.511 . S
C3525 C3521 1.376 . S
C3525 C3524 1.392 . S
C3525 H3537 0.929 . S
C3526 C3522 1.531 . S
C3526 H3538 0.960 . S
C3526 H3539 0.962 . S
C3526 H3540 0.960 . S
C3527 C3524 1.511 . S
C3527 H3541 0.961 . S
C3527 H3542 0.961 . S
C3527 H3543 0.961 . S
C3528 C3529 1.370 . S
C3528 C3530 1.363 . S
C3528 H3544 0.931 . S
C3529 C3528 1.370 . S
C3529 C3533 1.408 . S
C3530 C3528 1.363 . S
C3530 C3531 1.370 . S
C3530 C3534 1.524 . S
C3531 C3523 1.503 . S
C3531 C3530 1.370 . S
C3531 C3532 1.403 . S
C3532 C3531 1.403 . S
C3532 C3533 1.404 . S
C3532 C3535 1.539 . S
C3533 C3529 1.408 . S
C3533 C3532 1.404 . S
C3533 H3545 0.930 . S
C3534 C3530 1.524 . S
C3534 H3546 0.956 . S
C3534 H3547 0.961 . S
C3534 H3548 0.961 . S
C3535 C3532 1.539 . S
C3535 H3549 0.958 . S
C3535 H3550 0.961 . S
C3535 H3551 0.960 . S
H3536 C3520 0.931 . S
H3537 C3525 0.929 . S
H3538 C3526 0.960 . S
H3539 C3526 0.962 . S
H3540 C3526 0.960 . S
H3541 C3527 0.961 . S
H3542 C3527 0.961 . S
H3543 C3527 0.961 . S
H3544 C3528 0.931 . S
H3545 C3533 0.930 . S
H3546 C3534 0.956 . S
H3547 C3534 0.961 . S
H3548 C3534 0.961 . S
H3549 C3535 0.958 . S
H3550 C3535 0.961 . S
H3551 C3535 0.960 . S
C3552 C3553 1.391 . S
C3552 C3554 1.394 . S
C3552 H3568 0.931 . S
C3553 C3552 1.391 . S
C3553 C3557 1.376 . S
C3554 C3552 1.394 . S
C3554 C3555 1.369 . S
C3554 C3558 1.531 . S
C3555 C3554 1.369 . S
C3555 C3556 1.410 . S
C3555 C3563 1.503 . S
C3556 C3555 1.410 . S
C3556 C3557 1.392 . S
C3556 C3559 1.511 . S
C3557 C3553 1.376 . S
C3557 C3556 1.392 . S
C3557 H3569 0.929 . S
C3558 C3554 1.531 . S
C3558 H3570 0.960 . S
C3558 H3571 0.962 . S
C3558 H3572 0.960 . S
C3559 C3556 1.511 . S
C3559 H3573 0.961 . S
C3559 H3574 0.961 . S
C3559 H3575 0.961 . S
C3560 C3561 1.370 . S
C3560 C3562 1.363 . S
C3560 H3576 0.931 . S
C3561 C3560 1.370 . S
C3561 C3565 1.408 . S
C3562 C3560 1.363 . S
C3562 C3563 1.370 . S
C3562 C3566 1.524 . S
C3563 C3555 1.503 . S
C3563 C3562 1.370 . S
C3563 C3564 1.403 . S
C3564 C3563 1.403 . S
C3564 C3565 1.404 . S
C3564 C3567 1.539 . S
C3565 C3561 1.408 . S
C3565 C3564 1.404 . S
C3565 H3577 0.930 . S
C3566 C3562 1.524 . S
C3566 H3578 0.956 . S
C3566 H3579 0.961 . S
C3566 H3580 0.961 . S
C3567 C3564 1.539 . S
C3567 H3581 0.958 . S
C3567 H3582 0.961 . S
C3567 H3583 0.960 . S
H3568 C3552 0.931 . S
H3569 C3557 0.929 . S
H3570 C3558 0.960 . S
H3571 C3558 0.962 . S
H3572 C3558 0.960 . S
H3573 C3559 0.961 . S
H3574 C3559 0.961 . S
H3575 C3559 0.961 . S
H3576 C3560 0.931 . S
H3577 C3565 0.930 . S
H3578 C3566 0.956 . S
H3579 C3566 0.961 . S
H3580 C3566 0.961 . S
H3581 C3567 0.958 . S
H3582 C3567 0.961 . S
H3583 C3567 0.960 . S
C3584 C3585 1.391 . S
C3584 C3586 1.394 . S
C3584 H3600 0.931 . S
C3585 C3584 1.391 . S
C3585 C3589 1.376 . S
C3586 C3584 1.394 . S
C3586 C3587 1.369 . S
C3586 C3590 1.531 . S
C3587 C3586 1.369 . S
C3587 C3588 1.410 . S
C3587 C3595 1.503 . S
C3588 C3587 1.410 . S
C3588 C3589 1.392 . S
C3588 C3591 1.511 . S
C3589 C3585 1.376 . S
C3589 C3588 1.392 . S
C3589 H3601 0.929 . S
C3590 C3586 1.531 . S
C3590 H3602 0.960 . S
C3590 H3603 0.962 . S
C3590 H3604 0.960 . S
C3591 C3588 1.511 . S
C3591 H3605 0.961 . S
C3591 H3606 0.961 . S
C3591 H3607 0.961 . S
C3592 C3593 1.370 . S
C3592 C3594 1.363 . S
C3592 H3608 0.931 . S
C3593 C3592 1.370 . S
C3593 C3597 1.408 . S
C3594 C3592 1.363 . S
C3594 C3595 1.370 . S
C3594 C3598 1.524 . S
C3595 C3587 1.503 . S
C3595 C3594 1.370 . S
C3595 C3596 1.403 . S
C3596 C3595 1.403 . S
C3596 C3597 1.404 . S
C3596 C3599 1.539 . S
C3597 C3593 1.408 . S
C3597 C3596 1.404 . S
C3597 H3609 0.930 . S
C3598 C3594 1.524 . S
C3598 H3610 0.956 . S
C3598 H3611 0.961 . S
C3598 H3612 0.961 . S
C3599 C3596 1.539 . S
C3599 H3613 0.958 . S
C3599 H3614 0.961 . S
C3599 H3615 0.960 . S
H3600 C3584 0.931 . S
H3601 C3589 0.929 . S
H3602 C3590 0.960 . S
H3603 C3590 0.962 . S
H3604 C3590 0.960 . S
H3605 C3591 0.961 . S
H3606 C3591 0.961 . S
H3607 C3591 0.961 . S
H3608 C3592 0.931 . S
H3609 C3597 0.930 . S
H3610 C3598 0.956 . S
H3611 C3598 0.961 . S
H3612 C3598 0.961 . S
H3613 C3599 0.958 . S
H3614 C3599 0.961 . S
H3615 C3599 0.960 . S
C3616 C3617 1.391 . S
C3616 C3618 1.394 . S
C3616 H3632 0.931 . S
C3617 C3616 1.391 . S
C3617 C3621 1.376 1_554 S
C3618 C3616 1.394 . S
C3618 C3619 1.369 . S
C3618 C3622 1.531 . S
C3619 C3618 1.369 . S
C3619 C3620 1.410 1_554 S
C3619 C3627 1.503 1_554 S
C3620 C3619 1.410 1_556 S
C3620 C3621 1.392 . S
C3620 C3623 1.511 . S
C3621 C3617 1.376 1_556 S
C3621 C3620 1.392 . S
C3621 H3633 0.929 . S
C3622 C3618 1.531 . S
C3622 H3634 0.960 . S
C3622 H3635 0.962 . S
C3622 H3636 0.960 . S
C3623 C3620 1.511 . S
C3623 H3637 0.961 . S
C3623 H3638 0.961 . S
C3623 H3639 0.961 . S
C3624 C3625 1.370 . S
C3624 C3626 1.363 . S
C3624 H3640 0.931 . S
C3625 C3624 1.370 . S
C3625 C3629 1.408 1_556 S
C3626 C3624 1.363 . S
C3626 C3627 1.370 . S
C3626 C3630 1.524 . S
C3627 C3619 1.503 1_556 S
C3627 C3626 1.370 . S
C3627 C3628 1.403 1_556 S
C3628 C3627 1.403 1_554 S
C3628 C3629 1.404 . S
C3628 C3631 1.539 . S
C3629 C3625 1.408 1_554 S
C3629 C3628 1.404 . S
C3629 H3641 0.930 . S
C3630 C3626 1.524 . S
C3630 H3642 0.956 . S
C3630 H3643 0.961 . S
C3630 H3644 0.961 . S
C3631 C3628 1.539 . S
C3631 H3645 0.958 . S
C3631 H3646 0.961 . S
C3631 H3647 0.960 . S
H3632 C3616 0.931 . S
H3633 C3621 0.929 . S
H3634 C3622 0.960 . S
H3635 C3622 0.962 . S
H3636 C3622 0.960 . S
H3637 C3623 0.961 . S
H3638 C3623 0.961 . S
H3639 C3623 0.961 . S
H3640 C3624 0.931 . S
H3641 C3629 0.930 . S
H3642 C3630 0.956 . S
H3643 C3630 0.961 . S
H3644 C3630 0.961 . S
H3645 C3631 0.958 . S
H3646 C3631 0.961 . S
H3647 C3631 0.960 . S
C3648 C3649 1.391 . S
C3648 C3650 1.394 . S
C3648 H3664 0.931 . S
C3649 C3648 1.391 . S
C3649 C3653 1.376 . S
C3650 C3648 1.394 . S
C3650 C3651 1.369 . S
C3650 C3654 1.531 . S
C3651 C3650 1.369 . S
C3651 C3652 1.410 . S
C3651 C3659 1.503 . S
C3652 C3651 1.410 . S
C3652 C3653 1.392 . S
C3652 C3655 1.511 . S
C3653 C3649 1.376 . S
C3653 C3652 1.392 . S
C3653 H3665 0.929 . S
C3654 C3650 1.531 . S
C3654 H3666 0.960 . S
C3654 H3667 0.962 . S
C3654 H3668 0.960 . S
C3655 C3652 1.511 . S
C3655 H3669 0.961 . S
C3655 H3670 0.961 . S
C3655 H3671 0.961 . S
C3656 C3657 1.370 . S
C3656 C3658 1.363 . S
C3656 H3672 0.931 . S
C3657 C3656 1.370 . S
C3657 C3661 1.408 . S
C3658 C3656 1.363 . S
C3658 C3659 1.370 . S
C3658 C3662 1.524 . S
C3659 C3651 1.503 . S
C3659 C3658 1.370 . S
C3659 C3660 1.403 . S
C3660 C3659 1.403 . S
C3660 C3661 1.404 . S
C3660 C3663 1.539 . S
C3661 C3657 1.408 . S
C3661 C3660 1.404 . S
C3661 H3673 0.930 . S
C3662 C3658 1.524 . S
C3662 H3674 0.956 . S
C3662 H3675 0.961 . S
C3662 H3676 0.961 . S
C3663 C3660 1.539 . S
C3663 H3677 0.958 . S
C3663 H3678 0.961 . S
C3663 H3679 0.960 . S
H3664 C3648 0.931 . S
H3665 C3653 0.929 . S
H3666 C3654 0.960 . S
H3667 C3654 0.962 . S
H3668 C3654 0.960 . S
H3669 C3655 0.961 . S
H3670 C3655 0.961 . S
H3671 C3655 0.961 . S
H3672 C3656 0.931 . S
H3673 C3661 0.930 . S
H3674 C3662 0.956 . S
H3675 C3662 0.961 . S
H3676 C3662 0.961 . S
H3677 C3663 0.958 . S
H3678 C3663 0.961 . S
H3679 C3663 0.960 . S
C3680 C3681 1.391 . S
C3680 C3682 1.394 . S
C3680 H3696 0.925 1_554 S
C3681 C3680 1.391 . S
C3681 C3685 1.376 . S
C3682 C3680 1.394 . S
C3682 C3683 1.369 . S
C3682 C3686 1.531 . S
C3683 C3682 1.369 . S
C3683 C3684 1.410 . S
C3683 C3691 1.503 . S
C3684 C3683 1.410 . S
C3684 C3685 1.392 . S
C3684 C3687 1.511 . S
C3685 C3681 1.376 . S
C3685 C3684 1.392 . S
C3685 H3697 0.929 . S
C3686 C3682 1.531 . S
C3686 H3698 0.960 . S
C3686 H3699 0.962 1_554 S
C3686 H3700 0.960 . S
C3687 C3684 1.511 . S
C3687 H3701 0.961 . S
C3687 H3702 0.961 . S
C3687 H3703 0.961 . S
C3688 C3689 1.370 . S
C3688 C3690 1.363 . S
C3688 H3704 0.931 1_554 S
C3689 C3688 1.370 . S
C3689 C3693 1.408 . S
C3690 C3688 1.363 . S
C3690 C3691 1.370 . S
C3690 C3694 1.524 1_554 S
C3691 C3683 1.503 . S
C3691 C3690 1.370 . S
C3691 C3692 1.403 . S
C3692 C3691 1.403 . S
C3692 C3693 1.404 . S
C3692 C3695 1.539 . S
C3693 C3689 1.408 . S
C3693 C3692 1.404 . S
C3693 H3705 0.930 . S
C3694 C3690 1.524 1_556 S
C3694 H3706 0.956 . S
C3694 H3707 0.961 . S
C3694 H3708 0.961 . S
C3695 C3692 1.539 . S
C3695 H3709 0.958 . S
C3695 H3710 0.961 . S
C3695 H3711 0.960 . S
H3696 C3680 0.925 1_556 S
H3697 C3685 0.929 . S
H3698 C3686 0.960 . S
H3699 C3686 0.962 1_556 S
H3700 C3686 0.960 . S
H3701 C3687 0.961 . S
H3702 C3687 0.961 . S
H3703 C3687 0.961 . S
H3704 C3688 0.931 1_556 S
H3705 C3693 0.930 . S
H3706 C3694 0.956 . S
H3707 C3694 0.961 . S
H3708 C3694 0.961 . S
H3709 C3695 0.958 . S
H3710 C3695 0.961 . S
H3711 C3695 0.960 . S
C3712 C3713 1.391 . S
C3712 C3714 1.394 . S
C3712 H3728 0.931 . S
C3713 C3712 1.391 . S
C3713 C3717 1.376 . S
C3714 C3712 1.394 . S
C3714 C3715 1.369 . S
C3714 C3718 1.531 . S
C3715 C3714 1.369 . S
C3715 C3716 1.410 . S
C3715 C3723 1.503 . S
C3716 C3715 1.410 . S
C3716 C3717 1.392 . S
C3716 C3719 1.511 . S
C3717 C3713 1.376 . S
C3717 C3716 1.392 . S
C3717 H3729 0.929 . S
C3718 C3714 1.531 . S
C3718 H3730 0.960 . S
C3718 H3731 0.962 . S
C3718 H3732 0.960 . S
C3719 C3716 1.511 . S
C3719 H3733 0.961 . S
C3719 H3734 0.961 . S
C3719 H3735 0.961 . S
C3720 C3721 1.370 . S
C3720 C3722 1.363 . S
C3720 H3736 0.931 . S
C3721 C3720 1.370 . S
C3721 C3725 1.408 . S
C3722 C3720 1.363 . S
C3722 C3723 1.370 . S
C3722 C3726 1.524 . S
C3723 C3715 1.503 . S
C3723 C3722 1.370 . S
C3723 C3724 1.403 . S
C3724 C3723 1.403 . S
C3724 C3725 1.404 . S
C3724 C3727 1.539 . S
C3725 C3721 1.408 . S
C3725 C3724 1.404 . S
C3725 H3737 0.930 . S
C3726 C3722 1.524 . S
C3726 H3738 0.956 . S
C3726 H3739 0.961 . S
C3726 H3740 0.961 . S
C3727 C3724 1.539 . S
C3727 H3741 0.958 . S
C3727 H3742 0.961 . S
C3727 H3743 0.960 . S
H3728 C3712 0.931 . S
H3729 C3717 0.929 . S
H3730 C3718 0.960 . S
H3731 C3718 0.962 . S
H3732 C3718 0.960 . S
H3733 C3719 0.961 . S
H3734 C3719 0.961 . S
H3735 C3719 0.961 . S
H3736 C3720 0.931 . S
H3737 C3725 0.930 . S
H3738 C3726 0.956 . S
H3739 C3726 0.961 . S
H3740 C3726 0.961 . S
H3741 C3727 0.958 . S
H3742 C3727 0.961 . S
H3743 C3727 0.960 . S
C3744 C3745 1.391 . S
C3744 C3746 1.394 . S
C3744 H3760 0.931 . S
C3745 C3744 1.391 . S
C3745 C3749 1.376 . S
C3746 C3744 1.394 . S
C3746 C3747 1.369 . S
C3746 C3750 1.531 . S
C3747 C3746 1.369 . S
C3747 C3748 1.410 . S
C3747 C3755 1.503 . S
C3748 C3747 1.410 . S
C3748 C3749 1.392 . S
C3748 C3751 1.511 . S
C3749 C3745 1.376 . S
C3749 C3748 1.392 . S
C3749 H3761 0.929 . S
C3750 C3746 1.531 . S
C3750 H3762 0.960 . S
C3750 H3763 0.962 . S
C3750 H3764 0.960 . S
C3751 C3748 1.511 . S
C3751 H3765 0.961 . S
C3751 H3766 0.961 . S
C3751 H3767 0.961 . S
C3752 C3753 1.370 . S
C3752 C3754 1.363 . S
C3752 H3768 0.931 . S
C3753 C3752 1.370 . S
C3753 C3757 1.408 . S
C3754 C3752 1.363 . S
C3754 C3755 1.370 . S
C3754 C3758 1.524 . S
C3755 C3747 1.503 . S
C3755 C3754 1.370 . S
C3755 C3756 1.403 . S
C3756 C3755 1.403 . S
C3756 C3757 1.404 . S
C3756 C3759 1.539 . S
C3757 C3753 1.408 . S
C3757 C3756 1.404 . S
C3757 H3769 0.930 . S
C3758 C3754 1.524 . S
C3758 H3770 0.956 . S
C3758 H3771 0.961 . S
C3758 H3772 0.961 . S
C3759 C3756 1.539 . S
C3759 H3773 0.958 . S
C3759 H3774 0.961 . S
C3759 H3775 0.960 . S
H3760 C3744 0.931 . S
H3761 C3749 0.929 . S
H3762 C3750 0.960 . S
H3763 C3750 0.962 . S
H3764 C3750 0.960 . S
H3765 C3751 0.961 . S
H3766 C3751 0.961 . S
H3767 C3751 0.961 . S
H3768 C3752 0.931 . S
H3769 C3757 0.930 . S
H3770 C3758 0.956 . S
H3771 C3758 0.961 . S
H3772 C3758 0.961 . S
H3773 C3759 0.958 . S
H3774 C3759 0.961 . S
H3775 C3759 0.960 . S
C713 C352 1.137 . S
C705 C5 1.157 . S
C737 C23 1.410 . S
C745 C380 1.339 . S
C769 C39 1.091 . S
C777 C398 1.103 . S
C809 C424 1.326 . S
C801 C42 1.420 . S
C833 C19 1.477 . S
C841 C447 1.335 . S
C873 C467 1.131 . S
C865 C28 1.105 . S
C905 C495 1.292 1_556 S
C897 C53 1.399 . S
C929 C9 1.144 . S
C937 C513 1.100 . S
C961 C65 1.428 . S
C969 C354 1.429 . S
C993 C75 1.120 . S
C1001 C376 1.094 . S
C1033 C400 1.448 . S
C1025 C93 1.449 1_565 S
C1065 C421 1.064 . S
C1057 C109 1.103 . S
C1089 C56 1.161 . S
C1097 C444 1.125 . S
C1129 C469 1.327 . S
C1121 C81 1.321 . S
C1161 C491 1.097 . S
C1153 C84 1.141 . S
C1193 C515 1.395 . S
C1185 C103 1.386 . S
C1225 C355 0.921 1_556 S
C1217 C107 1.028 . S
C1257 C538 1.208 . S
C1249 C121 1.208 . S
C1281 C131 1.131 . S
C1289 C562 1.006 . S
C1321 C586 1.164 . S
C1313 C140 1.180 . S
C1345 C61 1.055 . S
C1353 C516 1.019 . S
C1385 C401 0.967 . S
C1377 C70 1.041 . S
C1409 C137 1.122 . S
C1417 C607 1.144 . S
C1449 C632 1.089 . S
C1441 C165 1.091 . S
C1473 C173 1.156 . S
C1481 C353 1.139 . S
C1513 C630 1.031 . S
C1505 C182 1.032 . S
C1537 C207 1.093 . S
C1545 C399 1.102 . S
C1569 C219 1.003 . S
C1577 C609 0.960 . S
C1609 C448 0.985 . S
C1601 C187 1.025 . S
C1641 C560 1.123 . S
C1633 C205 1.146 . S
C1673 C492 1.021 . S
C1665 C221 1.025 . S
C1705 C652 1.103 . S
C1697 C168 1.105 . S
C1737 C357 0.940 . S
C1729 C224 1.011 . S
C1761 C243 1.320 . S
C1769 C628 1.291 . S
C1801 C403 0.946 . S
C1793 C252 1.024 . S
C1825 C277 1.266 . S
C1833 C606 1.221 . S
C1857 C233 1.359 . S
C1865 C445 1.321 . S
C1889 C249 0.921 . S
C1897 C564 0.887 . S
C1929 C490 1.346 . S
C1921 C261 1.382 1_545 S
C1953 C271 0.969 . S
C1961 C656 0.961 . S
C1985 C266 1.309 . S
C1993 C356 1.253 . S
C2017 C280 1.234 . S
C2025 C541 1.190 . S
C2049 C299 1.364 . S
C2057 C471 1.342 . S
C2081 C317 1.272 . S
C2089 C585 1.185 . S
C2121 C655 1.333 . S
C2113 C229 1.351 . S
C2153 C402 1.305 . S
C2145 C247 1.328 . S
C2185 C426 1.156 . S
C2177 C305 1.207 . S
C2217 C378 1.087 . S
C2209 C333 1.215 . S
C2241 C33 1.168 . S
C2249 C674 1.126 . S
C2281 C633 1.330 . S
C2273 C51 1.409 . S
C2313 C697 1.096 . S
C2305 C11 1.105 . S
C2337 C14 1.423 . S
C2345 C608 1.322 . S
C2369 C47 1.479 . S
C2377 C539 1.330 1_556 S
C2409 C559 1.108 . S
C2401 C0 1.140 . S
C2441 C587 1.316 . S
C2433 C25 1.374 . S
C2473 C651 1.117 . S
C2465 C37 1.112 . S
C2505 C676 1.425 . S
C2497 C163 1.412 . S
C2529 C117 1.104 . S
C2537 C629 1.095 . S
C2561 C135 1.440 . S
C2569 C699 1.449 . S
C2601 C605 1.081 . S
C2593 C151 1.065 . S
C2633 C536 1.135 . S
C2625 C154 1.150 . S
C2657 C123 1.305 . S
C2665 C561 1.336 . S
C2697 C583 1.102 . S
C2689 C126 1.128 . S
C2721 C145 1.376 . S
C2729 C653 1.395 . S
C2761 C677 0.920 . S
C2753 C149 1.035 . S
C2793 C446 1.203 . S
C2785 C79 1.187 . S
C2825 C470 1.058 . S
C2817 C89 1.107 . S
C2849 C98 1.157 . S
C2857 C494 1.166 . S
C2889 C654 1.017 . S
C2881 C159 1.055 . S
C2913 C112 1.058 . S
C2921 C700 0.955 . S
C2953 C423 1.148 . S
C2945 C95 1.155 . S
C2985 C379 1.072 . S
C2977 C67 1.117 . S
C3009 C201 1.167 . S
C3017 C675 1.133 . S
C3049 C377 1.028 . S
C3041 C210 1.029 . S
C3081 C698 1.112 . S
C3073 C179 1.096 . S
C3105 C191 0.987 . S
C3113 C425 0.987 . S
C3137 C215 1.026 . S
C3145 C540 0.998 . S
C3169 C177 1.145 . S
C3177 C468 1.119 . S
C3201 C193 1.009 . S
C3209 C584 1.016 . S
C3233 C196 1.128 . S
C3241 C514 1.113 . S
C3273 C679 0.985 . S
C3265 C322 1.018 . S
C3297 C285 1.333 . S
C3305 C375 1.284 . S
C3337 C702 0.988 . S
C3329 C294 1.029 . S
C3361 C319 1.267 . S
C3369 C422 1.220 . S
C3393 C331 1.356 . S
C3401 C537 1.319 . S
C3433 C472 0.904 . S
C3425 C291 0.946 . S
C3457 C303 1.370 . S
C3465 C582 1.361 . S
C3497 C518 0.911 . S
C3489 C313 1.000 . S
C3529 C678 1.252 . S
C3521 C308 1.311 . S
C3561 C449 1.189 . S
C3553 C238 1.250 . S
C3585 C257 1.361 . S
C3593 C563 1.333 . S
C3625 C493 1.153 . S
C3617 C275 1.277 . S
C3657 C517 1.326 . S
C3649 C327 1.351 . S
C3681 C289 1.332 . S
C3689 C701 1.301 . S
C3721 C610 1.129 . S
C3713 C263 1.201 . S
C3753 C631 1.132 . S
C3745 C235 1.189 . S
