# Generated by pormake.
# Topology zzz, (3,6)-cn, num edge types: 1
# Building blocks:
#     Node 0, Type 0, BuildingBlock: WUSLED_clean_sbu_0, # of connection points: 3
#     Node 1, Type 0, BuildingBlock: WUSLED_clean_sbu_0, # of connection points: 3
#     Node 2, Type 0, BuildingBlock: WUSLED_clean_sbu_0, # of connection points: 3
#     Node 3, Type 0, BuildingBlock: WUSLED_clean_sbu_0, # of connection points: 3
#     Node 4, Type 0, BuildingBlock: WUSLED_clean_sbu_0, # of connection points: 3
#     Node 5, Type 0, BuildingBlock: WUSLED_clean_sbu_0, # of connection points: 3
#     Node 6, Type 0, BuildingBlock: WUSLED_clean_sbu_0, # of connection points: 3
#     Node 7, Type 0, BuildingBlock: WUSLED_clean_sbu_0, # of connection points: 3
#     Node 8, Type 1, BuildingBlock: NUHQIS_clean_sbu_0, # of connection points: 6
#     Node 9, Type 1, BuildingBlock: NUHQIS_clean_sbu_0, # of connection points: 6
#     Node 10, Type 1, BuildingBlock: NUHQIS_clean_sbu_0, # of connection points: 6
#     Node 11, Type 1, BuildingBlock: NUHQIS_clean_sbu_0, # of connection points: 6
#     Edge 12, Type (0, 1), BuildingBlock: OJICUG_clean_linker_0, # of connection points: 2
#     Edge 13, Type (0, 1), BuildingBlock: OJICUG_clean_linker_0, # of connection points: 2
#     Edge 14, Type (0, 1), BuildingBlock: OJICUG_clean_linker_0, # of connection points: 2
#     Edge 15, Type (0, 1), BuildingBlock: OJICUG_clean_linker_0, # of connection points: 2
#     Edge 16, Type (0, 1), BuildingBlock: OJICUG_clean_linker_0, # of connection points: 2
#     Edge 17, Type (0, 1), BuildingBlock: OJICUG_clean_linker_0, # of connection points: 2
#     Edge 18, Type (0, 1), BuildingBlock: OJICUG_clean_linker_0, # of connection points: 2
#     Edge 19, Type (0, 1), BuildingBlock: OJICUG_clean_linker_0, # of connection points: 2
#     Edge 20, Type (0, 1), BuildingBlock: OJICUG_clean_linker_0, # of connection points: 2
#     Edge 21, Type (0, 1), BuildingBlock: OJICUG_clean_linker_0, # of connection points: 2
#     Edge 22, Type (0, 1), BuildingBlock: OJICUG_clean_linker_0, # of connection points: 2
#     Edge 23, Type (0, 1), BuildingBlock: OJICUG_clean_linker_0, # of connection points: 2
#     Edge 24, Type (0, 1), BuildingBlock: OJICUG_clean_linker_0, # of connection points: 2
#     Edge 25, Type (0, 1), BuildingBlock: OJICUG_clean_linker_0, # of connection points: 2
#     Edge 26, Type (0, 1), BuildingBlock: OJICUG_clean_linker_0, # of connection points: 2
#     Edge 27, Type (0, 1), BuildingBlock: OJICUG_clean_linker_0, # of connection points: 2
#     Edge 28, Type (0, 1), BuildingBlock: OJICUG_clean_linker_0, # of connection points: 2
#     Edge 29, Type (0, 1), BuildingBlock: OJICUG_clean_linker_0, # of connection points: 2
#     Edge 30, Type (0, 1), BuildingBlock: OJICUG_clean_linker_0, # of connection points: 2
#     Edge 31, Type (0, 1), BuildingBlock: OJICUG_clean_linker_0, # of connection points: 2
#     Edge 32, Type (0, 1), BuildingBlock: OJICUG_clean_linker_0, # of connection points: 2
#     Edge 33, Type (0, 1), BuildingBlock: OJICUG_clean_linker_0, # of connection points: 2
#     Edge 34, Type (0, 1), BuildingBlock: OJICUG_clean_linker_0, # of connection points: 2
#     Edge 35, Type (0, 1), BuildingBlock: OJICUG_clean_linker_0, # of connection points: 2
# Relax obj value: 0.432
# Max RMSD: 0.245
# Mean RMSD: 0.228
data_MOF--net-zzz--node1-WUSLED_clean_sbu_0--node2-NUHQIS_clean_sbu_0--edge1-OJICUG_clean_linker_0
_symmetry_space_group_name_H-M    P1
_symmetry_Int_Tables_number       1
_symmetry_cell_setting            triclinic
loop_
_symmetry_equiv_pos_as_xyz
'x, y, z'
_cell_length_a     50.528371
_cell_length_b     50.493231
_cell_length_c     16.214764
_cell_angle_alpha  90.006673
_cell_angle_beta   89.771574
_cell_angle_gamma 89.982512
loop_
_atom_site_label
_atom_site_type_symbol
_atom_site_fract_x
_atom_site_fract_y
_atom_site_fract_z
_atom_type_partial_charge
C0 C 0.80642 0.54082 0.43504 0.0
C1 C 0.8105 0.51933 0.48898 0.0
C2 C 0.85697 0.53205 0.50901 0.0
C3 C 0.83543 0.51502 0.52546 0.0
C4 C 0.85272 0.55339 0.45457 0.0
C5 C 0.8279 0.55768 0.41839 0.0
U6 U 0.74229 0.52579 0.30857 0.0
O7 O 0.72276 0.55323 0.22307 0.0
O8 O 0.70027 0.53711 0.32731 0.0
C9 C 0.69942 0.55077 0.25819 0.0
C10 C 0.77993 0.54731 0.39931 0.0
C11 C 0.67691 0.54552 0.20131 0.0
C12 C 0.63114 0.55412 0.16109 0.0
C13 C 0.65204 0.55689 0.21737 0.0
C14 C 0.65946 0.52826 0.07152 0.0
C15 C 0.63459 0.54 0.08677 0.0
C16 C 0.6803 0.53091 0.1281 0.0
C17 C 0.7742 0.46005 0.2636 0.0
C18 C 0.79881 0.42393 0.20209 0.0
C19 C 0.82179 0.45794 0.27925 0.0
C20 C 0.79764 0.46996 0.29766 0.0
C21 C 0.82274 0.43582 0.2265 0.0
C22 C 0.77466 0.43618 0.21982 0.0
C23 C 0.75104 0.4773 0.25797 0.0
O24 O 0.77877 0.54967 0.31866 0.0
O25 O 0.75896 0.53549 0.43067 0.0
O26 O 0.73869 0.48265 0.32752 0.0
O27 O 0.7552 0.49834 0.21211 0.0
H28 H 0.79443 0.50591 0.50344 0.0
H29 H 0.83785 0.4982 0.56614 0.0
H30 H 0.86847 0.56728 0.44109 0.0
H31 H 0.82538 0.5746 0.37804 0.0
H32 H 0.61245 0.56366 0.17493 0.0
H33 H 0.64891 0.56842 0.27291 0.0
H34 H 0.66283 0.5169 0.01581 0.0
H35 H 0.69922 0.52185 0.11393 0.0
H36 H 0.79887 0.40652 0.16304 0.0
H37 H 0.83973 0.46774 0.29909 0.0
H38 H 0.79755 0.48846 0.33152 0.0
H39 H 0.75666 0.42824 0.19343 0.0
C40 C 0.99196 0.80602 0.46266 0.0
C41 C 1.01145 0.80998 0.52355 0.0
C42 C 0.9997 0.85708 0.53668 0.0
C43 C 0.01525 0.8351 0.55995 0.0
C44 C 0.98031 0.85297 0.47558 0.0
C45 C 0.97651 0.82795 0.4395 0.0
U46 U 1.00669 0.74406 0.3244 0.0
O47 O 0.97848 0.72228 0.24668 0.0
O48 O 1.00009 0.70102 0.34285 0.0
C49 C 0.98408 0.69913 0.27924 0.0
C50 C 0.98592 0.77914 0.42731 0.0
C51 C 0.9889 0.67709 0.21954 0.0
C52 C 0.97846 0.63227 0.17222 0.0
C53 C 0.97622 0.6526 0.2312 0.0
C54 C 1.00657 0.6603 0.08887 0.0
C55 C 0.9934 0.63584 0.09938 0.0
C56 C 1.00435 0.68062 0.14805 0.0
C57 C 0.06651 0.78315 0.26441 0.0
C58 C 0.10204 0.81109 0.21446 0.0
C59 C 0.06453 0.83059 0.28561 0.0
C60 C 0.05398 0.80543 0.29823 0.0
C61 C 0.08802 0.83387 0.2397 0.0
C62 C 0.09115 0.7859 0.2258 0.0
C63 C 0.05189 0.75821 0.25875 0.0
O64 O 0.98024 0.7781 0.34829 0.0
O65 O 1.00043 0.75893 0.45136 0.0
O66 O 0.02911 0.76055 0.22068 0.0
O67 O 0.05034 0.74425 0.32702 0.0
H68 H 0.02367 0.79362 0.54379 0.0
H69 H 0.03055 0.8373 0.606 0.0
H70 H 0.96751 0.86903 0.4566 0.0
H71 H 0.96101 0.82568 0.39407 0.0
H72 H 0.96775 0.614 0.18274 0.0
H73 H 0.96401 0.64936 0.28534 0.0
H74 H 0.01865 0.66383 0.03469 0.0
H75 H 0.01438 0.69926 0.13726 0.0
H76 H 0.12059 0.81279 0.18121 0.0
H77 H 0.05294 0.84743 0.30581 0.0
H78 H 0.03494 0.80358 0.32865 0.0
H79 H 0.10118 0.76879 0.20014 0.0
C80 C 0.72006 0.99598 0.48017 0.0
C81 C 0.71434 0.01787 0.53131 0.0
C82 C 0.6683 1.00324 0.54934 0.0
C83 C 0.68885 0.02143 0.56543 0.0
C84 C 0.67418 0.98144 0.49802 0.0
C85 C 0.69956 0.97788 0.4643 0.0
U86 U 0.78187 1.01026 0.3413 0.0
O87 O 0.80533 0.98113 0.27153 0.0
O88 O 0.82497 1.00617 0.3629 0.0
C89 C 0.82798 0.98872 0.30328 0.0
C90 C 0.74734 0.99043 0.4475 0.0
C91 C 0.84981 0.99339 0.24293 0.0
C92 C 0.89487 0.98377 0.19609 0.0
C93 C 0.87467 0.98165 0.25565 0.0
C94 C 0.86589 1.00991 0.1102 0.0
C95 C 0.89073 0.99763 0.12174 0.0
C96 C 0.84573 1.00782 0.16994 0.0
C97 C 0.74101 0.0672 0.26492 0.0
C98 C 0.71374 0.10262 0.21126 0.0
C99 C 0.69336 0.06524 0.28047 0.0
C100 C 0.71832 0.05468 0.29598 0.0
C101 C 0.69068 0.08874 0.23448 0.0
C102 C 0.73875 0.09174 0.22559 0.0
C103 C 0.76629 0.05303 0.26442 0.0
O104 O 0.74907 0.98283 0.3701 0.0
O105 O 0.76661 1.00656 0.46877 0.0
O106 O 0.77983 0.05383 0.3334 0.0
O107 O 0.7649 0.0292 0.23219 0.0
H108 H 0.72959 0.0322 0.54556 0.0
H109 H 0.68519 0.03859 0.60384 0.0
H110 H 0.65923 0.96668 0.485 0.0
H111 H 0.70328 0.96058 0.42643 0.0
H112 H 0.91348 0.97381 0.20738 0.0
H113 H 0.87831 0.97026 0.31109 0.0
H114 H 0.86196 0.02116 0.05475 0.0
H115 H 0.82677 0.01712 0.15846 0.0
H116 H 0.71247 0.12114 0.17786 0.0
H117 H 0.67625 0.05377 0.29906 0.0
H118 H 0.7198 0.03575 0.32713 0.0
H119 H 0.75616 0.10179 0.20215 0.0
C120 C 0.50538 0.73104 0.48935 0.0
C121 C 0.49712 0.70895 0.44299 0.0
C122 C 0.50735 0.67869 0.55708 0.0
C123 C 0.4981 0.68325 0.47632 0.0
C124 C 0.51555 0.70084 0.60338 0.0
C125 C 0.51456 0.72657 0.57001 0.0
U126 U 0.52156 0.78575 0.32854 0.0
O127 O 0.53088 0.82853 0.33989 0.0
O128 O 0.49487 0.81578 0.27643 0.0
C129 C 0.51055 0.83571 0.29449 0.0
C130 C 0.50343 0.75877 0.45652 0.0
C131 C 0.5154 0.85563 0.22769 0.0
C132 C 0.5269 0.90097 0.18764 0.0
C133 C 0.52453 0.8811 0.24805 0.0
C134 C 0.51128 0.87033 0.08436 0.0
C135 C 0.52001 0.89607 0.10473 0.0
C136 C 0.50906 0.85044 0.14474 0.0
C137 C 0.55631 0.72897 0.23111 0.0
C138 C 0.55704 0.68745 0.1565 0.0
C139 C 0.54934 0.68758 0.30415 0.0
C140 C 0.55237 0.71504 0.30513 0.0
C141 C 0.55023 0.67375 0.22912 0.0
C142 C 0.55992 0.71495 0.15748 0.0
C143 C 0.55056 0.7574 0.22802 0.0
O144 O 0.525 0.77332 0.45914 0.0
O145 O 0.49009 0.76215 0.38784 0.0
O146 O 0.52544 0.76251 0.21482 0.0
O147 O 0.56079 0.77181 0.28747 0.0
H148 H 0.48979 0.71146 0.38081 0.0
H149 H 0.49117 0.66692 0.43896 0.0
H150 H 0.52304 0.69831 0.66534 0.0
H151 H 0.52091 0.7431 0.60767 0.0
H152 H 0.53412 0.92022 0.20628 0.0
H153 H 0.52945 0.88581 0.31135 0.0
H154 H 0.50536 0.86563 0.02198 0.0
H155 H 0.50179 0.83114 0.12656 0.0
H156 H 0.55761 0.67731 0.09763 0.0
H157 H 0.54436 0.6774 0.36094 0.0
H158 H 0.54946 0.72558 0.36265 0.0
H159 H 0.56271 0.72542 0.09975 0.0
C160 C 0.20996 0.48557 0.04482 0.0
C161 C 0.18626 0.47511 0.07694 0.0
C162 C 0.16062 0.49427 0.96375 0.0
C163 C 0.16199 0.4794 0.03716 0.0
C164 C 0.18431 0.50505 0.93219 0.0
C165 C 0.20863 0.50063 0.97178 0.0
U166 U 0.27166 0.50412 0.17465 0.0
O167 O 0.31388 0.4932 0.16238 0.0
O168 O 0.29122 0.48046 0.27081 0.0
C169 C 0.31451 0.48128 0.23453 0.0
C170 C 0.23582 0.47929 0.08536 0.0
C171 C 0.33743 0.48696 0.28882 0.0
C172 C 0.37762 0.47105 0.35557 0.0
C173 C 0.35644 0.46712 0.30129 0.0
C174 C 0.36139 0.51506 0.38569 0.0
C175 C 0.38045 0.49503 0.39911 0.0
C176 C 0.34011 0.51105 0.33125 0.0
C177 C 0.23514 0.56762 0.18515 0.0
C178 C 0.19961 0.59603 0.23295 0.0
C179 C 0.19153 0.56441 0.12343 0.0
C180 C 0.21806 0.55678 0.12597 0.0
C181 C 0.18177 0.58314 0.17988 0.0
C182 C 0.22612 0.58816 0.23597 0.0
C183 C 0.25959 0.55347 0.20597 0.0
O184 O 0.25731 0.49009 0.05393 0.0
O185 O 0.23597 0.47902 0.16645 0.0
O186 O 0.25575 0.5342 0.25906 0.0
O187 O 0.27467 0.54651 0.14328 0.0
H188 H 0.1865 0.46326 0.13263 0.0
H189 H 0.14422 0.47105 0.06419 0.0
H190 H 0.18422 0.51636 0.87548 0.0
H191 H 0.22641 0.50886 0.94453 0.0
H192 H 0.39144 0.45494 0.3648 0.0
H193 H 0.35468 0.44826 0.26984 0.0
H194 H 0.36295 0.53394 0.41696 0.0
H195 H 0.32566 0.52666 0.32284 0.0
H196 H 0.19257 0.61033 0.2778 0.0
H197 H 0.17825 0.55422 0.08183 0.0
H198 H 0.22471 0.54083 0.08647 0.0
H199 H 0.23894 0.59654 0.28259 0.0
C200 C 0.02892 0.22797 0.97279 0.0
C201 C 0.03945 0.20673 0.01853 0.0
C202 C 0.02302 0.1744 0.91773 0.0
C203 C 0.03657 0.18038 0.99137 0.0
C204 C 1.01222 0.19572 0.87282 0.0
C205 C 0.01518 0.22204 0.89985 0.0
U206 U 0.02611 0.2834 0.13647 0.0
O207 O 1.01288 0.32498 0.13017 0.0
O208 O 0.05374 0.31609 0.16536 0.0
C209 C 0.03536 0.33441 0.15862 0.0
C210 C 0.03251 0.25628 0.99862 0.0
C211 C 0.03373 0.3544 0.22661 0.0
C212 C 0.05296 0.3925 0.29817 0.0
C213 C 0.05437 0.37276 0.23708 0.0
C214 C 1.01012 0.37603 0.34027 0.0
C215 C 0.03077 0.39459 0.35083 0.0
C216 C 1.01159 0.35623 0.27926 0.0
C217 C 1.00319 0.22542 0.256 0.0
C218 C 1.0043 0.1826 0.32265 0.0
C219 C 0.99073 0.1859 0.1797 0.0
C220 C 0.99463 0.21324 0.18275 0.0
C221 C 0.99564 0.17033 0.24957 0.0
C222 C 1.00806 0.20995 0.32576 0.0
C223 C 1.00922 0.25381 0.25726 0.0
O224 O 1.01087 0.26968 0.01593 0.0
O225 O 0.05186 0.26134 0.05036 0.0
O226 O 0.03439 0.25939 0.24652 0.0
O227 O 0.99332 0.26872 0.21309 0.0
H228 H 0.04995 0.21043 0.07547 0.0
H229 H 0.04481 0.16465 0.02869 0.0
H230 H 1.0019 0.19216 0.81548 0.0
H231 H 1.00689 0.23788 0.86302 0.0
H232 H 0.06948 0.40598 0.30454 0.0
H233 H 0.07167 0.37191 0.19746 0.0
H234 H 0.99249 0.37701 0.37825 0.0
H235 H 0.99525 0.34252 0.27288 0.0
H236 H 1.00776 0.17109 0.37794 0.0
H237 H 0.98413 0.17692 0.12269 0.0
H238 H 0.99123 0.22484 0.1276 0.0
H239 H 0.01496 0.21898 0.38235 0.0
C240 C 0.30226 0.04227 0.02017 0.0
C241 C 0.32506 0.05451 0.0521 0.0
C242 C 0.35308 0.03462 0.94474 0.0
C243 C 0.35001 0.05069 0.01532 0.0
C244 C 0.33031 0.02193 0.91377 0.0
C245 C 0.30531 0.02575 0.95067 0.0
U246 U 0.23908 0.02806 0.153 0.0
O247 O 0.19667 0.0363 0.13143 0.0
O248 O 0.21735 0.05606 0.23249 0.0
C249 C 0.19449 0.05165 0.19671 0.0
C250 C 0.27545 0.04887 0.05492 0.0
C251 C 0.17187 0.04647 0.25345 0.0
C252 C 0.13117 0.062 0.3196 0.0
C253 C 0.15191 0.06562 0.26271 0.0
C254 C 0.14974 0.0197 0.35846 0.0
C255 C 0.12984 0.03909 0.36914 0.0
C256 C 0.1705 0.02337 0.30149 0.0
C257 C 0.27553 0.96603 0.20817 0.0
C258 C 0.30848 0.94019 0.28028 0.0
C259 C 0.31981 0.96168 0.15123 0.0
C260 C 0.29394 0.9712 0.14514 0.0
C261 C 0.32773 0.94723 0.22113 0.0
C262 C 0.28259 0.94955 0.27378 0.0
C263 C 0.25125 0.98175 0.21444 0.0
O264 O 0.255 0.03531 0.02789 0.0
O265 O 0.27403 0.05368 0.13453 0.0
O266 O 0.23755 0.98451 0.14616 0.0
O267 O 0.25447 1.00407 0.25476 0.0
H268 H 0.32357 0.06754 0.10498 0.0
H269 H 0.36695 0.06048 0.04236 0.0
H270 H 0.33158 1.00963 0.85921 0.0
H271 H 0.28829 0.01618 0.92341 0.0
H272 H 0.11659 0.07757 0.32629 0.0
H273 H 0.15261 0.0837 0.22679 0.0
H274 H 0.14932 1.00158 0.39415 0.0
H275 H 0.18566 1.00829 0.29563 0.0
H276 H 0.31383 0.92941 0.33547 0.0
H277 H 0.33401 0.96712 0.10398 0.0
H278 H 0.28885 0.98409 0.09418 0.0
H279 H 0.26868 0.94562 0.32332 0.0
C280 C 0.48571 0.31078 0.02124 0.0
C281 C 0.47671 0.33407 0.06015 0.0
C282 C 0.49289 0.36168 0.94596 0.0
C283 C 0.4803 0.35905 0.02334 0.0
C284 C 0.50244 0.33842 0.90791 0.0
C285 C 0.4988 0.3134 0.94471 0.0
U286 U 0.49819 0.24674 0.15307 0.0
O287 O 0.48912 0.20459 0.12909 0.0
O288 O 0.46903 0.22545 0.2297 0.0
C289 C 0.47334 0.20256 0.19358 0.0
C290 C 0.47879 0.284 0.05574 0.0
C291 C 0.47791 0.17984 0.25023 0.0
C292 C 0.46052 0.14122 0.32343 0.0
C293 C 0.45726 0.16196 0.26656 0.0
C294 C 0.50541 0.15561 0.34818 0.0
C295 C 0.48458 0.13777 0.36585 0.0
C296 C 0.50209 0.17639 0.29131 0.0
C297 C 0.56115 0.28044 0.21767 0.0
C298 C 0.59641 0.30537 0.28205 0.0
C299 C 0.56394 0.32788 0.19756 0.0
C300 C 0.5519 0.30368 0.18038 0.0
C301 C 0.58551 0.32916 0.25212 0.0
C302 C 0.58412 0.28116 0.2655 0.0
C303 C 0.54437 0.25686 0.2187 0.0
O304 O 0.49212 0.26337 0.02839 0.0
O305 O 0.47368 0.28249 0.13522 0.0
O306 O 0.5218 0.26048 0.25754 0.0
O307 O 0.54175 0.24435 0.1481 0.0
H308 H 0.46629 0.33301 0.11855 0.0
H309 H 0.47301 0.37636 0.05565 0.0
H310 H 0.51198 0.33938 0.84808 0.0
H311 H 0.50566 0.296 0.91191 0.0
H312 H 0.44386 0.12831 0.33567 0.0
H313 H 0.43834 0.1643 0.23619 0.0
H314 H 0.52439 0.15352 0.37821 0.0
H315 H 0.51833 0.18993 0.28004 0.0
H316 H 0.61334 0.30562 0.32276 0.0
H317 H 0.5548 0.3457 0.17379 0.0
H318 H 0.53409 0.3034 0.14335 0.0
H319 H 0.59153 0.26331 0.29446 0.0
Tb320 Tb 0.03276 1.00575 0.80403 0.0
Eu321 Eu 0.98591 0.02227 0.67766 0.0
C322 C 0.0471 0.02559 0.62075 0.0
C323 C 1.01338 0.0651 0.79535 0.0
C324 C 0.07677 0.97435 0.96441 0.0
C325 C 0.10881 0.94357 0.02081 0.0
C326 C 0.10237 0.96365 0.96538 0.0
C327 C 0.05793 0.96559 0.02208 0.0
C328 C 0.06447 0.94566 0.07821 0.0
C329 C 0.08978 0.93406 0.07664 0.0
C330 C 0.07016 0.99374 0.90041 0.0
O331 O 0.99738 1.00652 0.88332 0.0
O332 O 0.96454 1.00412 0.78618 0.0
O333 O 1.00315 0.98344 0.6348 0.0
O334 O 0.01574 0.96793 0.76033 0.0
C335 C 0.97228 1.00352 0.86342 0.0
O336 O 0.96032 0.05112 0.61844 0.0
O337 O 0.9551 1.00942 0.59228 0.0
O338 O 0.0231 0.03512 0.61006 0.0
O339 O 0.05321 1.01147 0.68621 0.0
O340 O 0.03401 0.04917 0.79652 0.0
O341 O 0.9907 0.05677 0.76579 0.0
C342 C 1.00916 0.96347 0.68283 0.0
O343 O 0.06763 0.98434 0.82615 0.0
O344 O 0.05191 1.01114 0.91756 0.0
C345 C 0.95009 0.03998 0.48348 0.0
C346 C 0.96256 0.06808 0.33953 0.0
C347 C 0.93821 0.07229 0.38012 0.0
C348 C 0.93208 0.05834 0.45189 0.0
C349 C 0.97248 0.03295 0.43686 0.0
C350 C 0.97851 0.04672 0.36457 0.0
C351 C 0.94895 0.03358 0.57141 0.0
H352 H 0.12843 0.93493 0.01849 0.0
H353 H 0.11716 0.9703 0.92145 0.0
H354 H 0.03802 0.97355 0.02216 0.0
H355 H 0.04932 0.93835 0.11986 0.0
H356 H 0.92538 0.08853 0.36289 0.0
H357 H 0.91472 0.06397 0.48725 0.0
H358 H 0.98663 0.01873 0.46039 0.0
H359 H 0.99709 0.04259 0.33355 0.0
Tb360 Tb 0.51746 0.04015 0.79718 0.0
Eu361 Eu 0.49973 0.99378 0.66934 0.0
C362 C 0.49744 0.05473 0.61603 0.0
C363 C 0.45748 0.02324 0.78735 0.0
C364 C 0.54996 0.0828 0.95821 0.0
C365 C 0.58243 0.11329 0.01373 0.0
C366 C 0.56196 0.10783 0.95884 0.0
C367 C 0.55788 0.06358 0.01556 0.0
C368 C 0.57819 0.06914 0.07113 0.0
C369 C 0.59103 0.09384 0.06937 0.0
C370 C 0.53007 0.07708 0.89498 0.0
O371 O 0.51465 1.00424 0.87332 0.0
O372 O 0.52007 0.97244 0.77394 0.0
O373 O 0.54121 1.00616 0.63492 0.0
O374 O 0.55536 0.02226 0.75877 0.0
C375 C 0.51906 0.97943 0.85196 0.0
O376 O 0.47731 0.95817 0.63847 0.0
O377 O 0.50527 0.97422 0.55074 0.0
O378 O 0.48537 0.03173 0.6097 0.0
O379 O 0.51391 0.05949 0.67691 0.0
O380 O 0.47427 0.04314 0.79008 0.0
O381 O 0.46443 1.0006 0.75358 0.0
C382 C 0.56051 1.0134 0.68384 0.0
O383 O 0.53899 0.07494 0.81991 0.0
O384 O 0.51251 0.05896 0.91175 0.0
C385 C 0.46736 0.95395 0.49786 0.0
C386 C 0.42862 0.94818 0.37522 0.0
C387 C 0.4455 0.92695 0.39481 0.0
C388 C 0.46479 0.92986 0.45575 0.0
C389 C 0.45104 0.97534 0.47728 0.0
C390 C 0.43184 0.97249 0.41652 0.0
C391 C 0.48683 0.95672 0.56379 0.0
H392 H 0.59203 0.13246 1.01128 0.0
H393 H 0.556 0.12291 0.91516 0.0
H394 H 0.54894 0.04408 0.01593 0.0
H395 H 0.58475 0.05368 0.11261 0.0
H396 H 0.44355 0.90805 0.3638 0.0
H397 H 0.47744 0.91323 0.47079 0.0
H398 H 0.45283 0.99408 0.50936 0.0
H399 H 0.41884 0.98907 0.40419 0.0
Tb400 Tb 0.48714 0.52669 0.8112 0.0
Eu401 Eu 0.53005 0.50975 0.67147 0.0
C402 C 0.4672 0.50861 0.63458 0.0
C403 C 0.50247 0.4666 0.79112 0.0
C404 C 0.46697 0.55227 1.0096 0.0
C405 C 0.46913 0.59215 0.0926 0.0
C406 C 0.45641 0.57683 0.03296 0.0
C407 C 0.48894 0.54216 0.05248 0.0
C408 C 0.50174 0.55753 0.11161 0.0
C409 C 0.49267 0.58315 0.12933 0.0
C410 C 0.45844 0.5399 0.93177 0.0
O411 O 0.52489 0.52197 0.87521 0.0
O412 O 0.55274 0.53207 0.76936 0.0
O413 O 0.51772 0.55124 0.63817 0.0
O414 O 0.50292 0.56467 0.76485 0.0
C415 C 0.54835 0.52924 0.84864 0.0
O416 O 0.56891 0.49352 0.641 0.0
O417 O 0.54377 0.50853 0.54392 0.0
O418 O 0.49019 0.49693 0.62115 0.0
O419 O 0.46331 0.52396 0.69931 0.0
O420 O 0.48299 0.48369 0.79983 0.0
O421 O 0.52442 0.47351 0.75292 0.0
C422 C 0.51022 0.57016 0.68849 0.0
O423 O 0.4615 0.55451 0.86623 0.0
O424 O 0.46665 0.51583 0.91894 0.0
C425 C 0.57358 0.47371 0.50921 0.0
C426 C 0.58852 0.42982 0.41228 0.0
C427 C 0.60351 0.43703 0.48147 0.0
C428 C 0.59618 0.45887 0.52921 0.0
C429 C 0.55914 0.46707 0.43827 0.0
C430 C 0.56654 0.44532 0.39031 0.0
C431 C 0.56576 0.4963 0.56169 0.0
H432 H 0.46179 0.61194 0.10468 0.0
H433 H 0.43956 0.58502 1.00068 0.0
H434 H 0.49743 0.52315 0.03638 0.0
H435 H 0.51968 0.55007 0.13973 0.0
H436 H 0.62065 0.42554 0.4994 0.0
H437 H 0.60798 0.46391 0.5826 0.0
H438 H 0.54182 0.47832 0.42048 0.0
H439 H 0.55441 0.44003 0.33792 0.0
Tb440 Tb 1.00027 0.49251 0.78624 0.0
Eu441 Eu 0.02259 0.53855 0.66343 0.0
C442 C 0.0217 0.47731 0.6048 0.0
C443 C 0.0597 0.50839 0.79244 0.0
C444 C 0.96177 0.45153 0.9377 0.0
C445 C 0.94287 0.42734 0.0532 0.0
C446 C 0.96453 0.43343 1.00274 0.0
C447 C 0.93735 0.46394 0.92452 0.0
C448 C 0.9157 0.45769 0.97426 0.0
C449 C 0.91816 0.43908 0.03833 0.0
C450 C 0.9841 0.45631 0.88184 0.0
O451 O 1.00185 0.52811 0.86478 0.0
O452 O 1.00243 0.56082 0.76671 0.0
O453 O 0.98251 0.52621 0.61556 0.0
O454 O 0.96456 0.51171 0.73715 0.0
C455 C 1.00017 0.55332 0.84398 0.0
O456 O 0.05566 0.56202 0.61833 0.0
O457 O 0.01604 0.57086 0.57584 0.0
O458 O 0.03312 0.5006 0.59563 0.0
O459 O 1.00637 0.47206 0.66863 0.0
O460 O 0.04329 0.48839 0.78548 0.0
O461 O 0.05301 0.53171 0.76363 0.0
C462 C 0.96172 0.51991 0.66042 0.0
O463 O 0.97832 0.45782 0.80383 0.0
O464 O 1.00076 0.47465 0.90363 0.0
C465 C 0.05225 0.58174 0.48818 0.0
C466 C 0.08268 0.58747 0.34332 0.0
C467 C 0.08436 0.60622 0.40742 0.0
C468 C 0.06923 0.60338 0.47885 0.0
C469 C 0.04891 0.56395 0.42267 0.0
C470 C 0.06382 0.56697 0.35028 0.0
C471 C 0.04113 0.57662 0.5702 0.0
H472 H 0.94524 0.41303 0.1024 0.0
H473 H 0.98332 0.42372 0.01364 0.0
H474 H 0.93493 0.47815 0.87501 0.0
H475 H 0.89698 0.46745 0.96269 0.0
H476 H 0.09881 0.62203 0.40576 0.0
H477 H 0.07207 0.61724 0.52912 0.0
H478 H 0.03579 0.54709 0.42899 0.0
H479 H 0.06155 0.55245 0.30167 0.0
C480 C 0.11387 0.02381 0.50958 0.0
C481 C 0.10836 0.03581 0.43317 0.0
H482 H 0.09939 1.01144 0.62758 0.0
C483 C 0.0823 0.04492 0.41954 0.0
H484 H 0.13366 0.01699 0.52365 0.0
C485 C 0.06246 0.04193 0.48013 0.0
C486 C 0.06807 0.02976 0.55625 0.0
H487 H 0.07706 0.05403 0.36141 0.0
H488 H 0.04266 0.04894 0.46687 0.0
C489 C 0.09411 0.02082 0.56988 0.0
C490 C 0.50265 0.12066 0.50143 0.0
C491 C 0.48769 0.11624 0.42962 0.0
H492 H 0.51723 0.10525 0.61547 0.0
C493 C 0.47554 0.09123 0.42034 0.0
H494 H 0.51191 0.13966 0.51226 0.0
C495 C 0.47839 0.07135 0.48062 0.0
C496 C 0.49351 0.07583 0.55205 0.0
H497 H 0.46408 0.08681 0.36577 0.0
H498 H 0.46893 0.05237 0.47078 0.0
C499 C 0.50552 0.10084 0.56139 0.0
C500 C 0.42807 0.48778 0.44376 0.0
C501 C 0.40285 0.49878 0.45905 0.0
H502 H 0.46787 0.48207 0.4861 0.0
C503 C 0.39914 0.51294 0.53309 0.0
H504 H 0.432 0.47708 0.38714 0.0
C505 C 0.41987 0.51595 0.5898 0.0
C506 C 0.44502 0.50486 0.57457 0.0
H507 H 0.38003 0.52138 0.54818 0.0
H508 H 0.41607 0.52696 0.64594 0.0
C509 C 0.44879 0.49073 0.50061 0.0
C510 C 0.0398 0.44139 0.40349 0.0
C511 C 0.02915 0.41584 0.41636 0.0
H512 H 0.04596 0.48063 0.4516 0.0
C513 C 0.01675 0.41082 0.49275 0.0
H514 H 0.04923 0.44635 0.34547 0.0
C515 C 0.01471 0.43058 0.55338 0.0
C516 C 0.0251 0.45617 0.5403 0.0
H517 H 1.00873 0.39142 0.50641 0.0
H518 H 1.00488 0.42569 0.61085 0.0
C519 C 0.03783 0.46122 0.46449 0.0
C520 C 0.93892 1.0008 0.07607 0.0
C521 C 0.91186 0.99871 0.05587 0.0
H522 H 0.97902 1.00386 0.03243 0.0
C523 C 0.90516 0.9974 0.9717 0.0
H524 H 0.945 1.00213 0.13989 0.0
C525 C 0.92471 0.99844 0.90995 0.0
C526 C 0.95171 1.00083 0.93003 0.0
H527 H 0.8847 0.99529 0.95317 0.0
H528 H 0.91852 0.99754 0.84614 0.0
C529 C 0.95852 1.00187 0.01417 0.0
C530 C 0.51547 0.94432 0.06102 0.0
C531 C 0.5212 0.91776 0.0405 0.0
H532 H 0.51051 0.98434 0.0191 0.0
C533 C 0.52742 0.9121 0.95742 0.0
H534 H 0.51018 0.94968 0.12358 0.0
C535 C 0.52729 0.93208 0.89697 0.0
C536 C 0.52113 0.9585 0.91743 0.0
H537 H 0.53246 0.89215 0.93868 0.0
H538 H 0.53183 0.92671 0.83382 0.0
C539 C 0.51553 0.96434 1.00064 0.0
C540 C 0.61733 0.53947 0.93994 0.0
C541 C 0.61245 0.53769 0.02545 0.0
H542 H 0.60122 0.5386 0.81757 0.0
C543 C 0.58617 0.53368 0.05181 0.0
H544 H 0.6372 0.5429 0.91706 0.0
C545 C 0.56553 0.53117 0.99462 0.0
C546 C 0.57039 0.53286 0.90918 0.0
H547 H 0.58155 0.53193 0.11685 0.0
H548 H 0.54574 0.52764 0.01764 0.0
C549 C 0.5966 0.5372 0.8827 0.0
C550 C 0.99538 0.58736 0.05524 0.0
C551 C 0.99473 0.61448 0.03413 0.0
H552 H 0.99752 0.54703 1.0132 0.0
C553 C 0.99509 0.62101 0.9496 0.0
H554 H 0.99542 0.58135 0.11933 0.0
C555 C 0.99634 0.60126 0.88857 0.0
C556 C 0.99727 0.57418 0.90965 0.0
H557 H 0.99413 0.6415 0.93016 0.0
H558 H 0.99675 0.60733 0.82453 0.0
C559 C 0.99666 0.56756 0.99408 0.0
C560 C 1.00789 0.12416 0.2878 0.0
C561 C 0.99024 0.14157 0.24917 0.0
H562 H 1.01312 0.08675 0.34538 0.0
C563 C 0.96582 0.1319 0.22108 0.0
H564 H 0.02711 0.13099 0.30818 0.0
C565 C 0.95782 0.10619 0.24113 0.0
C566 C 0.97409 0.08996 0.28993 0.0
H567 H 0.95195 0.14488 0.19022 0.0
H568 H 0.93802 0.09991 0.22487 0.0
C569 C 0.99993 0.09857 0.30792 0.0
C570 C 0.37384 0.96502 0.2273 0.0
C571 C 0.35623 0.94387 0.24079 0.0
H572 H 0.41101 0.98262 0.25774 0.0
C573 C 0.36504 0.92181 0.28595 0.0
H574 H 0.36783 0.98242 0.19311 0.0
C575 C 0.3897 0.92223 0.32457 0.0
C576 C 0.40605 0.94466 0.31817 0.0
H577 H 0.35217 0.90496 0.29602 0.0
H578 H 0.39499 0.90589 0.36452 0.0
C579 C 0.39853 0.96535 0.26536 0.0
C580 C 0.59719 0.35678 0.37456 0.0
C581 C 0.59301 0.35502 0.28899 0.0
H582 H 0.59901 0.38186 0.48037 0.0
C583 C 0.59165 0.37853 0.24265 0.0
H584 H 0.59796 0.33919 0.41266 0.0
C585 C 0.5919 0.40315 0.28207 0.0
C586 C 0.59384 0.40467 0.36835 0.0
H587 H 0.58896 0.37789 0.17645 0.0
H588 H 0.58939 0.42092 0.24551 0.0
C589 C 0.59768 0.38133 0.41372 0.0
C590 C 0.1388 0.56155 0.21248 0.0
C591 C 0.15301 0.58494 0.19688 0.0
H592 H 0.10558 0.54391 0.27169 0.0
C593 C 0.14095 0.60941 0.21336 0.0
H594 H 0.14765 0.54235 0.20083 0.0
C595 C 0.11627 0.61039 0.25259 0.0
C596 C 0.10362 0.58689 0.27823 0.0
H597 H 0.15136 0.62774 0.20077 0.0
H598 H 0.10808 0.62957 0.26814 0.0
C599 C 0.11446 0.56249 0.25317 0.0
C600 C 0.10398 0.86266 0.1241 0.0
C601 C 0.09483 0.86045 0.20593 0.0
H602 H 0.10965 0.8878 0.01965 0.0
C603 C 0.08807 0.88375 0.24897 0.0
H604 H 0.109 0.84532 0.08806 0.0
C605 C 0.08779 0.90818 0.20845 0.0
C606 C 0.09496 0.90983 0.12493 0.0
H607 H 0.08159 0.88296 0.31265 0.0
H608 H 0.08096 0.92559 0.24131 0.0
C609 C 0.10419 0.8871 0.08431 0.0
C610 C 0.64084 0.08996 0.24209 0.0
C611 C 0.66446 0.09598 0.1996 0.0
H612 H 0.59882 0.08446 0.23379 0.0
C613 C 0.66283 0.10514 0.11779 0.0
H614 H 0.64123 0.08347 0.30572 0.0
C615 C 0.63854 0.10624 0.07759 0.0
C616 C 0.61538 0.09791 0.11782 0.0
H617 H 0.68045 0.10959 0.08225 0.0
H618 H 0.63821 0.11174 1.01301 0.0
C619 C 0.61655 0.09062 0.20123 0.0
C620 C 0.51335 0.64219 0.2551 0.0
C621 C 0.5388 0.64688 0.22284 0.0
H622 H 0.47864 0.61788 0.25115 0.0
C623 C 0.5506 0.62768 0.17209 0.0
H624 H 0.50364 0.65682 0.29356 0.0
C625 C 0.53627 0.60537 0.14794 0.0
C626 C 0.50982 0.60213 0.17344 0.0
H627 H 0.57021 0.63082 0.14668 0.0
H628 H 0.54514 0.59191 0.10371 0.0
C629 C 0.49892 0.62005 0.23028 0.0
C630 C 0.84728 0.42598 0.09652 0.0
C631 C 0.8478 0.42951 0.18256 0.0
H632 H 0.86929 0.42602 0.98377 0.0
C633 C 0.87245 0.432 0.22199 0.0
H634 H 0.82875 0.42429 0.06362 0.0
C635 C 0.89579 0.43338 0.17547 0.0
C636 C 0.89476 0.43235 0.089 0.0
H637 H 0.87353 0.43445 0.28825 0.0
H638 H 0.91435 0.43702 0.2067 0.0
C639 C 0.8705 0.42739 0.05035 0.0
C640 C 0.04144 0.12799 0.89508 0.0
C641 C 0.02043 0.14622 0.88731 0.0
H642 H 0.05592 0.08865 0.87216 0.0
C643 C 0.99704 0.13729 0.8491 0.0
H644 H 0.0599 0.13401 0.9231 0.0
C645 C 0.99476 0.11115 0.81967 0.0
C646 C 0.01585 0.09302 0.82688 0.0
H647 H 0.98025 0.15044 0.84267 0.0
H648 H 0.97638 0.1052 0.79099 0.0
C649 C 0.03922 0.1019 0.86515 0.0
C650 C 0.38756 1.00759 0.86623 0.0
C651 C 0.37969 0.0317 0.90288 0.0
H652 H 0.4178 0.98597 0.80147 0.0
C653 C 0.39757 0.05312 0.89887 0.0
H654 H 0.37466 0.99049 0.86851 0.0
C655 C 0.42245 0.05048 0.86059 0.0
C656 C 0.43038 0.02633 0.82467 0.0
H657 H 0.39228 0.07219 0.92468 0.0
H658 H 0.43554 0.06745 0.85956 0.0
C659 C 0.41247 1.00495 0.82782 0.0
C660 C 0.47483 0.40727 0.91075 0.0
C661 C 0.49531 0.38839 0.90448 0.0
H662 H 0.4608 0.44612 0.88009 0.0
C663 C 0.51793 0.39534 0.85801 0.0
H664 H 0.45686 0.40272 0.94444 0.0
C665 C 0.52014 0.4204 0.8203 0.0
C666 C 0.49973 0.43932 0.8274 0.0
H667 H 0.53428 0.38159 0.85202 0.0
H668 H 0.53803 0.42502 0.78627 0.0
C669 C 0.47699 0.43224 0.87291 0.0
C670 C 0.12829 0.52225 0.88178 0.0
C671 C 0.13476 0.49797 0.9195 0.0
H672 H 0.09984 0.54465 0.8128 0.0
C673 C 0.11632 0.47711 0.91402 0.0
H674 H 0.14176 0.53889 0.88527 0.0
C675 C 0.09223 0.48041 0.87231 0.0
C676 C 0.08571 0.50472 0.83497 0.0
H677 H 0.12064 0.458 0.9411 0.0
H678 H 0.07865 0.46385 0.86971 0.0
C679 C 0.10412 0.5256 0.84037 0.0
C680 C 1.00027 0.90723 0.52733 0.0
C681 C 1.00343 0.88416 0.57511 0.0
H682 H 0.99964 0.94953 0.52276 0.0
C683 C 1.00951 0.88748 0.65955 0.0
H684 H 0.99618 0.90584 0.46198 0.0
C685 C 1.01173 0.91298 0.69499 0.0
C686 C 1.00797 0.93595 0.64704 0.0
H687 H 1.01195 0.87035 0.69894 0.0
H688 H 0.01603 0.91467 0.76016 0.0
C689 C 1.00244 0.93253 0.56251 0.0
C690 C 0.61847 1.00016 0.53753 0.0
C691 C 0.64083 1.00679 0.58473 0.0
H692 H 0.5764 0.99697 0.53085 0.0
C693 C 0.63648 0.01624 0.66572 0.0
H694 H 0.62071 0.99335 0.47456 0.0
C695 C 0.61062 0.01849 0.69856 0.0
C696 C 0.58837 1.01145 0.65124 0.0
H697 H 0.65309 0.02141 0.70447 0.0
H698 H 0.6081 0.02559 0.76112 0.0
C699 C 0.59283 1.00241 0.57006 0.0
C700 C 0.50233 0.64577 0.67566 0.0
C701 C 0.50852 0.65101 0.59221 0.0
H702 H 0.4978 0.61658 0.7715 0.0
C703 C 0.51573 0.62937 0.54205 0.0
H704 H 0.49643 0.66174 0.71634 0.0
C705 C 0.5165 0.6035 0.57374 0.0
C706 C 0.51003 0.59817 0.65682 0.0
H707 H 0.52106 0.63242 0.47799 0.0
H708 H 0.52208 0.58758 0.53242 0.0
C709 C 0.50298 0.61976 0.7074 0.0
C710 C 0.9071 0.53322 0.50341 0.0
C711 C 0.88373 0.52791 0.54809 0.0
H712 H 0.9494 0.53492 0.50282 0.0
C713 C 0.88633 0.5193 0.63051 0.0
H714 H 0.90617 0.53937 0.43952 0.0
C715 C 0.91146 0.51656 0.6672 0.0
C716 C 0.93474 0.52231 0.62252 0.0
H717 H 0.86892 0.5152 0.66746 0.0
H718 H 0.91259 0.51015 0.73082 0.0
C719 C 0.93208 0.5305 0.5399 0.0
loop_
_geom_bond_atom_site_label_1
_geom_bond_atom_site_label_2
_geom_bond_distance
_geom_bond_site_symmetry_2
_ccdc_geom_bond_type
C0 C1 1.264 . S
C0 C5 1.479 . S
C0 C10 1.465 . S
C1 C0 1.264 . S
C1 C3 1.339 . S
C1 H28 0.931 . S
C2 C3 1.395 . S
C2 C4 1.320 . S
C3 C1 1.339 . S
C3 C2 1.395 . S
C3 H29 0.929 . S
C4 C2 1.320 . S
C4 C5 1.405 . S
C4 H30 0.930 . S
C5 C0 1.479 . S
C5 C4 1.405 . S
C5 H31 0.931 . S
U6 O7 2.454 . S
U6 O8 2.458 . S
U6 C9 2.984 . S
U6 C10 2.847 . S
U6 C23 2.882 . S
U6 O24 2.441 . S
U6 O25 2.420 . S
U6 O26 2.455 . S
U6 O27 2.449 . S
O7 U6 2.454 . S
O7 C9 1.353 . S
O8 U6 2.458 . S
O8 C9 1.286 . S
C9 U6 2.984 . S
C9 O7 1.353 . S
C9 O8 1.286 . S
C9 C11 1.363 . S
C10 C0 1.465 . S
C10 U6 2.847 . S
C10 O24 1.249 . S
C10 O25 1.202 . S
C11 C9 1.363 . S
C11 C13 1.408 . S
C11 C16 1.342 . S
C12 C13 1.310 . S
C12 C15 1.461 . S
C12 H32 0.932 . S
C13 C11 1.408 . S
C13 C12 1.310 . S
C13 H33 0.930 . S
C14 C15 1.474 . S
C14 C16 1.285 . S
C14 H34 0.929 . S
C15 C12 1.461 . S
C15 C14 1.474 . S
C16 C11 1.342 . S
C16 C14 1.285 . S
C16 H35 0.930 . S
C17 C20 1.424 . S
C17 C22 1.245 . S
C17 C23 1.428 . S
C18 C21 1.260 . S
C18 C22 1.477 . S
C18 H36 0.932 . S
C19 C20 1.384 . S
C19 C21 1.479 . S
C19 H37 0.929 . S
C20 C17 1.424 . S
C20 C19 1.384 . S
C20 H38 0.928 . S
C21 C18 1.260 . S
C21 C19 1.479 . S
C22 C17 1.245 . S
C22 C18 1.477 . S
C22 H39 0.932 . S
C23 U6 2.882 . S
C23 C17 1.428 . S
C23 O26 1.301 . S
C23 O27 1.282 . S
O24 U6 2.441 . S
O24 C10 1.249 . S
O25 U6 2.420 . S
O25 C10 1.202 . S
O26 U6 2.455 . S
O26 C23 1.301 . S
O27 U6 2.449 . S
O27 C23 1.282 . S
H28 C1 0.931 . S
H29 C3 0.929 . S
H30 C4 0.930 . S
H31 C5 0.931 . S
H32 C12 0.932 . S
H33 C13 0.930 . S
H34 C14 0.929 . S
H35 C16 0.930 . S
H36 C18 0.932 . S
H37 C19 0.929 . S
H38 C20 0.928 . S
H39 C22 0.932 . S
C40 C41 1.264 . S
C40 C45 1.479 . S
C40 C50 1.465 . S
C41 C40 1.264 . S
C41 C43 1.339 . S
C41 H68 0.931 . S
C42 C43 1.395 . S
C42 C44 1.320 . S
C43 C41 1.339 . S
C43 C42 1.395 . S
C43 H69 0.929 . S
C44 C42 1.320 . S
C44 C45 1.405 . S
C44 H70 0.921 1_455 S
C45 C40 1.479 . S
C45 C44 1.405 . S
C45 H71 0.931 . S
U46 O47 2.454 . S
U46 O48 2.458 . S
U46 C49 2.984 . S
U46 C50 2.847 . S
U46 C63 2.882 . S
U46 O64 2.441 . S
U46 O65 2.420 . S
U46 O66 2.455 . S
U46 O67 2.449 . S
O47 U46 2.454 . S
O47 C49 1.353 . S
O48 U46 2.458 . S
O48 C49 1.286 . S
C49 U46 2.984 . S
C49 O47 1.353 . S
C49 O48 1.286 . S
C49 C51 1.363 . S
C50 C40 1.465 . S
C50 U46 2.847 . S
C50 O64 1.249 . S
C50 O65 1.202 . S
C51 C49 1.363 . S
C51 C53 1.408 . S
C51 C56 1.342 . S
C52 C53 1.310 . S
C52 C55 1.461 . S
C52 H72 0.932 . S
C53 C51 1.408 . S
C53 C52 1.310 . S
C53 H73 0.930 . S
C54 C55 1.474 1_655 S
C54 C56 1.285 1_655 S
C54 H74 0.930 . S
C55 C52 1.461 . S
C55 C54 1.474 1_455 S
C56 C51 1.342 . S
C56 C54 1.285 1_455 S
C56 H75 0.933 . S
C57 C60 1.424 . S
C57 C62 1.245 . S
C57 C63 1.428 . S
C58 C61 1.260 . S
C58 C62 1.477 . S
C58 H76 0.932 . S
C59 C60 1.384 . S
C59 C61 1.479 . S
C59 H77 0.929 . S
C60 C57 1.424 . S
C60 C59 1.384 . S
C60 H78 0.928 . S
C61 C58 1.260 . S
C61 C59 1.479 . S
C62 C57 1.245 . S
C62 C58 1.477 . S
C62 H79 0.932 . S
C63 U46 2.882 . S
C63 C57 1.428 . S
C63 O66 1.301 . S
C63 O67 1.282 . S
O64 U46 2.441 . S
O64 C50 1.249 . S
O65 U46 2.420 . S
O65 C50 1.202 . S
O66 U46 2.455 . S
O66 C63 1.301 . S
O67 U46 2.449 . S
O67 C63 1.282 . S
H68 C41 0.931 . S
H69 C43 0.929 . S
H70 C44 0.921 1_655 S
H71 C45 0.931 . S
H72 C52 0.932 . S
H73 C53 0.930 . S
H74 C54 0.930 . S
H75 C56 0.933 . S
H76 C58 0.932 . S
H77 C59 0.929 . S
H78 C60 0.928 . S
H79 C62 0.932 . S
C80 C81 1.264 . S
C80 C85 1.479 . S
C80 C90 1.465 . S
C81 C80 1.264 . S
C81 C83 1.339 . S
C81 H108 0.931 . S
C82 C83 1.395 . S
C82 C84 1.320 . S
C83 C81 1.339 . S
C83 C82 1.395 . S
C83 H109 0.929 . S
C84 C82 1.320 . S
C84 C85 1.405 . S
C84 H110 0.921 1_545 S
C85 C80 1.479 . S
C85 C84 1.405 . S
C85 H111 0.931 . S
U86 O87 2.454 . S
U86 O88 2.458 . S
U86 C89 2.984 . S
U86 C90 2.847 . S
U86 C103 2.882 . S
U86 O104 2.441 . S
U86 O105 2.420 . S
U86 O106 2.455 . S
U86 O107 2.449 . S
O87 U86 2.454 . S
O87 C89 1.353 . S
O88 U86 2.458 . S
O88 C89 1.286 . S
C89 U86 2.984 . S
C89 O87 1.353 . S
C89 O88 1.286 . S
C89 C91 1.363 . S
C90 C80 1.465 . S
C90 U86 2.847 . S
C90 O104 1.249 . S
C90 O105 1.202 . S
C91 C89 1.363 . S
C91 C93 1.408 . S
C91 C96 1.342 . S
C92 C93 1.310 . S
C92 C95 1.461 . S
C92 H112 0.932 . S
C93 C91 1.408 . S
C93 C92 1.310 . S
C93 H113 0.930 . S
C94 C95 1.474 1_565 S
C94 C96 1.285 1_565 S
C94 H114 0.931 . S
C95 C92 1.461 . S
C95 C94 1.474 1_545 S
C96 C91 1.342 . S
C96 C94 1.285 1_545 S
C96 H115 0.933 . S
C97 C100 1.424 . S
C97 C102 1.245 . S
C97 C103 1.428 . S
C98 C101 1.260 . S
C98 C102 1.477 . S
C98 H116 0.932 . S
C99 C100 1.384 . S
C99 C101 1.479 . S
C99 H117 0.929 . S
C100 C97 1.424 . S
C100 C99 1.384 . S
C100 H118 0.928 . S
C101 C98 1.260 . S
C101 C99 1.479 . S
C102 C97 1.245 . S
C102 C98 1.477 . S
C102 H119 0.932 . S
C103 U86 2.882 . S
C103 C97 1.428 . S
C103 O106 1.301 . S
C103 O107 1.282 . S
O104 U86 2.441 . S
O104 C90 1.249 . S
O105 U86 2.420 . S
O105 C90 1.202 . S
O106 U86 2.455 . S
O106 C103 1.301 . S
O107 U86 2.449 . S
O107 C103 1.282 . S
H108 C81 0.931 . S
H109 C83 0.929 . S
H110 C84 0.921 1_565 S
H111 C85 0.931 . S
H112 C92 0.932 . S
H113 C93 0.930 . S
H114 C94 0.931 . S
H115 C96 0.933 . S
H116 C98 0.932 . S
H117 C99 0.929 . S
H118 C100 0.928 . S
H119 C102 0.932 . S
C120 C121 1.264 . S
C120 C125 1.479 . S
C120 C130 1.465 . S
C121 C120 1.264 . S
C121 C123 1.339 . S
C121 H148 0.931 . S
C122 C123 1.395 . S
C122 C124 1.320 . S
C123 C121 1.339 . S
C123 C122 1.395 . S
C123 H149 0.929 . S
C124 C122 1.320 . S
C124 C125 1.405 . S
C124 H150 0.930 . S
C125 C120 1.479 . S
C125 C124 1.405 . S
C125 H151 0.931 . S
U126 O127 2.454 . S
U126 O128 2.458 . S
U126 C129 2.984 . S
U126 C130 2.847 . S
U126 C143 2.882 . S
U126 O144 2.441 . S
U126 O145 2.420 . S
U126 O146 2.455 . S
U126 O147 2.449 . S
O127 U126 2.454 . S
O127 C129 1.353 . S
O128 U126 2.458 . S
O128 C129 1.286 . S
C129 U126 2.984 . S
C129 O127 1.353 . S
C129 O128 1.286 . S
C129 C131 1.363 . S
C130 C120 1.465 . S
C130 U126 2.847 . S
C130 O144 1.249 . S
C130 O145 1.202 . S
C131 C129 1.363 . S
C131 C133 1.408 . S
C131 C136 1.342 . S
C132 C133 1.310 . S
C132 C135 1.461 . S
C132 H152 0.932 . S
C133 C131 1.408 . S
C133 C132 1.310 . S
C133 H153 0.930 . S
C134 C135 1.474 . S
C134 C136 1.285 . S
C134 H154 0.929 . S
C135 C132 1.461 . S
C135 C134 1.474 . S
C136 C131 1.342 . S
C136 C134 1.285 . S
C136 H155 0.930 . S
C137 C140 1.424 . S
C137 C142 1.245 . S
C137 C143 1.428 . S
C138 C141 1.260 . S
C138 C142 1.477 . S
C138 H156 0.932 . S
C139 C140 1.384 . S
C139 C141 1.479 . S
C139 H157 0.929 . S
C140 C137 1.424 . S
C140 C139 1.384 . S
C140 H158 0.928 . S
C141 C138 1.260 . S
C141 C139 1.479 . S
C142 C137 1.245 . S
C142 C138 1.477 . S
C142 H159 0.932 . S
C143 U126 2.882 . S
C143 C137 1.428 . S
C143 O146 1.301 . S
C143 O147 1.282 . S
O144 U126 2.441 . S
O144 C130 1.249 . S
O145 U126 2.420 . S
O145 C130 1.202 . S
O146 U126 2.455 . S
O146 C143 1.301 . S
O147 U126 2.449 . S
O147 C143 1.282 . S
H148 C121 0.931 . S
H149 C123 0.929 . S
H150 C124 0.930 . S
H151 C125 0.931 . S
H152 C132 0.932 . S
H153 C133 0.930 . S
H154 C134 0.929 . S
H155 C136 0.930 . S
H156 C138 0.932 . S
H157 C139 0.929 . S
H158 C140 0.928 . S
H159 C142 0.932 . S
C160 C161 1.264 . S
C160 C165 1.479 . S
C160 C170 1.465 . S
C161 C160 1.264 . S
C161 C163 1.339 . S
C161 H188 0.931 . S
C162 C163 1.395 . S
C162 C164 1.320 . S
C163 C161 1.339 . S
C163 C162 1.395 . S
C163 H189 0.929 . S
C164 C162 1.320 . S
C164 C165 1.405 . S
C164 H190 0.930 . S
C165 C160 1.479 . S
C165 C164 1.405 . S
C165 H191 0.931 . S
U166 O167 2.454 . S
U166 O168 2.458 . S
U166 C169 2.984 . S
U166 C170 2.847 1_554 S
U166 C183 2.882 . S
U166 O184 2.441 1_554 S
U166 O185 2.420 1_554 S
U166 O186 2.455 . S
U166 O187 2.449 . S
O167 U166 2.454 . S
O167 C169 1.353 . S
O168 U166 2.458 . S
O168 C169 1.286 . S
C169 U166 2.984 . S
C169 O167 1.353 . S
C169 O168 1.286 . S
C169 C171 1.363 . S
C170 C160 1.465 . S
C170 U166 2.847 1_556 S
C170 O184 1.249 . S
C170 O185 1.202 . S
C171 C169 1.363 . S
C171 C173 1.408 . S
C171 C176 1.342 . S
C172 C173 1.310 . S
C172 C175 1.461 . S
C172 H192 0.932 . S
C173 C171 1.408 . S
C173 C172 1.310 . S
C173 H193 0.930 1_554 S
C174 C175 1.474 . S
C174 C176 1.285 . S
C174 H194 0.929 . S
C175 C172 1.461 . S
C175 C174 1.474 . S
C176 C171 1.342 . S
C176 C174 1.285 . S
C176 H195 0.930 . S
C177 C180 1.424 . S
C177 C182 1.245 . S
C177 C183 1.428 . S
C178 C181 1.260 . S
C178 C182 1.477 . S
C178 H196 0.932 . S
C179 C180 1.384 . S
C179 C181 1.479 . S
C179 H197 0.929 . S
C180 C177 1.424 . S
C180 C179 1.384 . S
C180 H198 0.928 . S
C181 C178 1.260 . S
C181 C179 1.479 . S
C182 C177 1.245 . S
C182 C178 1.477 . S
C182 H199 0.932 . S
C183 U166 2.882 . S
C183 C177 1.428 . S
C183 O186 1.301 . S
C183 O187 1.282 . S
O184 U166 2.441 1_556 S
O184 C170 1.249 . S
O185 U166 2.420 1_556 S
O185 C170 1.202 . S
O186 U166 2.455 . S
O186 C183 1.301 . S
O187 U166 2.449 . S
O187 C183 1.282 . S
H188 C161 0.931 . S
H189 C163 0.929 . S
H190 C164 0.930 . S
H191 C165 0.931 . S
H192 C172 0.932 . S
H193 C173 0.930 1_556 S
H194 C174 0.929 . S
H195 C176 0.930 . S
H196 C178 0.932 . S
H197 C179 0.929 . S
H198 C180 0.928 . S
H199 C182 0.932 . S
C200 C201 1.264 . S
C200 C205 1.479 . S
C200 C210 1.465 . S
C201 C200 1.264 . S
C201 C203 1.339 . S
C201 H228 0.931 . S
C202 C203 1.395 . S
C202 C204 1.320 . S
C203 C201 1.339 . S
C203 C202 1.395 . S
C203 H229 0.929 . S
C204 C202 1.320 . S
C204 C205 1.405 . S
C204 H230 0.923 1_455 S
C205 C200 1.479 . S
C205 C204 1.405 . S
C205 H231 0.931 . S
U206 O207 2.454 . S
U206 O208 2.458 . S
U206 C209 2.984 . S
U206 C210 2.847 1_554 S
U206 C223 2.882 . S
U206 O224 2.441 1_554 S
U206 O225 2.420 1_554 S
U206 O226 2.455 . S
U206 O227 2.449 . S
O207 U206 2.454 . S
O207 C209 1.353 . S
O208 U206 2.458 . S
O208 C209 1.286 . S
C209 U206 2.984 . S
C209 O207 1.353 . S
C209 O208 1.286 . S
C209 C211 1.363 . S
C210 C200 1.465 . S
C210 U206 2.847 1_556 S
C210 O224 1.249 . S
C210 O225 1.202 . S
C211 C209 1.363 . S
C211 C213 1.408 . S
C211 C216 1.342 . S
C212 C213 1.310 . S
C212 C215 1.462 . S
C212 H232 0.932 . S
C213 C211 1.408 . S
C213 C212 1.310 . S
C213 H233 0.930 1_554 S
C214 C215 1.474 1_655 S
C214 C216 1.286 1_655 S
C214 H234 0.929 . S
C215 C212 1.462 . S
C215 C214 1.474 1_455 S
C216 C211 1.342 . S
C216 C214 1.286 1_455 S
C216 H235 0.930 . S
C217 C220 1.424 . S
C217 C222 1.245 . S
C217 C223 1.428 . S
C218 C221 1.260 . S
C218 C222 1.477 . S
C218 H236 0.932 . S
C219 C220 1.384 . S
C219 C221 1.479 . S
C219 H237 0.929 . S
C220 C217 1.424 . S
C220 C219 1.384 . S
C220 H238 0.928 . S
C221 C218 1.260 . S
C221 C219 1.479 . S
C222 C217 1.245 . S
C222 C218 1.477 . S
C222 H239 0.932 . S
C223 U206 2.882 . S
C223 C217 1.428 . S
C223 O226 1.301 . S
C223 O227 1.282 . S
O224 U206 2.441 1_556 S
O224 C210 1.249 . S
O225 U206 2.420 1_556 S
O225 C210 1.202 . S
O226 U206 2.455 . S
O226 C223 1.301 . S
O227 U206 2.449 . S
O227 C223 1.282 . S
H228 C201 0.931 . S
H229 C203 0.929 . S
H230 C204 0.923 1_655 S
H231 C205 0.931 . S
H232 C212 0.932 . S
H233 C213 0.930 1_556 S
H234 C214 0.929 . S
H235 C216 0.930 . S
H236 C218 0.932 . S
H237 C219 0.929 . S
H238 C220 0.928 . S
H239 C222 0.932 . S
C240 C241 1.264 . S
C240 C245 1.479 . S
C240 C250 1.465 . S
C241 C240 1.264 . S
C241 C243 1.339 . S
C241 H268 0.931 . S
C242 C243 1.395 . S
C242 C244 1.320 . S
C243 C241 1.339 . S
C243 C242 1.395 . S
C243 H269 0.929 . S
C244 C242 1.320 . S
C244 C245 1.405 . S
C244 H270 0.923 1_545 S
C245 C240 1.479 . S
C245 C244 1.405 . S
C245 H271 0.931 . S
U246 O247 2.454 . S
U246 O248 2.458 . S
U246 C249 2.984 . S
U246 C250 2.847 1_554 S
U246 C263 2.882 . S
U246 O264 2.441 1_554 S
U246 O265 2.420 1_554 S
U246 O266 2.455 . S
U246 O267 2.449 . S
O247 U246 2.454 . S
O247 C249 1.353 . S
O248 U246 2.458 . S
O248 C249 1.286 . S
C249 U246 2.984 . S
C249 O247 1.353 . S
C249 O248 1.286 . S
C249 C251 1.363 . S
C250 C240 1.465 . S
C250 U246 2.847 1_556 S
C250 O264 1.249 . S
C250 O265 1.202 . S
C251 C249 1.363 . S
C251 C253 1.408 . S
C251 C256 1.342 . S
C252 C253 1.310 . S
C252 C255 1.462 . S
C252 H272 0.932 . S
C253 C251 1.408 . S
C253 C252 1.310 . S
C253 H273 0.930 1_554 S
C254 C255 1.474 1_565 S
C254 C256 1.286 1_565 S
C254 H274 0.929 . S
C255 C252 1.462 . S
C255 C254 1.474 1_545 S
C256 C251 1.342 . S
C256 C254 1.286 1_545 S
C256 H275 0.930 . S
C257 C260 1.424 . S
C257 C262 1.245 . S
C257 C263 1.428 . S
C258 C261 1.260 . S
C258 C262 1.477 . S
C258 H276 0.932 . S
C259 C260 1.384 . S
C259 C261 1.479 . S
C259 H277 0.929 . S
C260 C257 1.424 . S
C260 C259 1.384 . S
C260 H278 0.928 . S
C261 C258 1.260 . S
C261 C259 1.479 . S
C262 C257 1.245 . S
C262 C258 1.477 . S
C262 H279 0.932 . S
C263 U246 2.882 . S
C263 C257 1.428 . S
C263 O266 1.301 . S
C263 O267 1.282 . S
O264 U246 2.441 1_556 S
O264 C250 1.249 . S
O265 U246 2.420 1_556 S
O265 C250 1.202 . S
O266 U246 2.455 . S
O266 C263 1.301 . S
O267 U246 2.449 . S
O267 C263 1.282 . S
H268 C241 0.931 . S
H269 C243 0.929 . S
H270 C244 0.923 1_565 S
H271 C245 0.931 . S
H272 C252 0.932 . S
H273 C253 0.930 1_556 S
H274 C254 0.929 . S
H275 C256 0.930 . S
H276 C258 0.932 . S
H277 C259 0.929 . S
H278 C260 0.928 . S
H279 C262 0.932 . S
C280 C281 1.264 . S
C280 C285 1.479 . S
C280 C290 1.465 . S
C281 C280 1.264 . S
C281 C283 1.339 . S
C281 H308 0.931 . S
C282 C283 1.395 . S
C282 C284 1.320 . S
C283 C281 1.339 . S
C283 C282 1.395 . S
C283 H309 0.929 . S
C284 C282 1.320 . S
C284 C285 1.405 . S
C284 H310 0.930 . S
C285 C280 1.479 . S
C285 C284 1.405 . S
C285 H311 0.931 . S
U286 O287 2.454 . S
U286 O288 2.458 . S
U286 C289 2.984 . S
U286 C290 2.847 1_554 S
U286 C303 2.882 . S
U286 O304 2.441 1_554 S
U286 O305 2.420 1_554 S
U286 O306 2.455 . S
U286 O307 2.449 . S
O287 U286 2.454 . S
O287 C289 1.353 . S
O288 U286 2.458 . S
O288 C289 1.286 . S
C289 U286 2.984 . S
C289 O287 1.353 . S
C289 O288 1.286 . S
C289 C291 1.363 . S
C290 C280 1.465 . S
C290 U286 2.847 1_556 S
C290 O304 1.249 . S
C290 O305 1.202 . S
C291 C289 1.363 . S
C291 C293 1.408 . S
C291 C296 1.342 . S
C292 C293 1.310 . S
C292 C295 1.461 . S
C292 H312 0.932 . S
C293 C291 1.408 . S
C293 C292 1.310 . S
C293 H313 0.930 1_554 S
C294 C295 1.474 . S
C294 C296 1.285 . S
C294 H314 0.929 . S
C295 C292 1.461 . S
C295 C294 1.474 . S
C296 C291 1.342 . S
C296 C294 1.285 . S
C296 H315 0.930 . S
C297 C300 1.424 . S
C297 C302 1.245 . S
C297 C303 1.428 . S
C298 C301 1.260 . S
C298 C302 1.477 . S
C298 H316 0.932 . S
C299 C300 1.384 . S
C299 C301 1.479 . S
C299 H317 0.929 . S
C300 C297 1.424 . S
C300 C299 1.384 . S
C300 H318 0.928 . S
C301 C298 1.260 . S
C301 C299 1.479 . S
C302 C297 1.245 . S
C302 C298 1.477 . S
C302 H319 0.932 . S
C303 U286 2.882 . S
C303 C297 1.428 . S
C303 O306 1.301 . S
C303 O307 1.282 . S
O304 U286 2.441 1_556 S
O304 C290 1.249 . S
O305 U286 2.420 1_556 S
O305 C290 1.202 . S
O306 U286 2.455 . S
O306 C303 1.301 . S
O307 U286 2.449 . S
O307 C303 1.282 . S
H308 C281 0.931 . S
H309 C283 0.929 . S
H310 C284 0.930 . S
H311 C285 0.931 . S
H312 C292 0.932 . S
H313 C293 0.930 1_556 S
H314 C294 0.929 . S
H315 C296 0.930 . S
H316 C298 0.932 . S
H317 C299 0.929 . S
H318 C300 0.928 . S
H319 C302 0.932 . S
Tb320 C330 2.825 . S
Tb320 O331 2.347 1_455 S
Tb320 O334 2.366 . S
Tb320 O339 2.418 . S
Tb320 O340 2.384 1_565 S
Tb320 O343 2.479 . S
Tb320 O344 2.471 . S
Eu321 O332 2.418 . S
Eu321 O333 2.384 1_545 S
Eu321 O336 2.479 . S
Eu321 O337 2.471 . S
Eu321 O338 2.347 1_655 S
Eu321 O341 2.366 . S
Eu321 C351 2.825 . S
C322 O338 1.259 1_565 S
C322 O339 1.265 . S
C323 O340 1.255 . S
C323 O341 1.265 1_455 S
C324 C326 1.380 . S
C324 C327 1.374 . S
C324 C330 1.507 . S
C325 C326 1.384 . S
C325 C329 1.387 1_556 S
C325 H352 0.930 . S
C326 C324 1.380 . S
C326 C325 1.384 . S
C326 H353 0.931 . S
C327 C324 1.374 . S
C327 C328 1.390 . S
C327 H354 0.930 1_455 S
C328 C327 1.390 . S
C328 C329 1.391 1_556 S
C328 H355 0.930 1_456 S
C329 C325 1.387 1_554 S
C329 C328 1.391 1_554 S
C330 Tb320 2.825 . S
C330 C324 1.507 . S
C330 O343 1.238 . S
C330 O344 1.247 . S
O331 Tb320 2.347 1_655 S
O331 C335 1.259 1_565 S
O332 Eu321 2.418 . S
O332 C335 1.265 . S
O333 Eu321 2.384 1_565 S
O333 C342 1.255 . S
O334 Tb320 2.366 . S
O334 C342 1.265 1_455 S
C335 O331 1.259 1_545 S
C335 O332 1.265 . S
O336 Eu321 2.479 . S
O336 C351 1.238 . S
O337 Eu321 2.471 . S
O337 C351 1.247 . S
O338 Eu321 2.347 1_455 S
O338 C322 1.259 1_545 S
O339 Tb320 2.418 . S
O339 C322 1.265 . S
O340 Tb320 2.384 1_545 S
O340 C323 1.255 . S
O341 Eu321 2.366 . S
O341 C323 1.265 1_655 S
C342 O333 1.255 . S
C342 O334 1.265 1_655 S
O343 Tb320 2.479 . S
O343 C330 1.238 . S
O344 Tb320 2.471 . S
O344 C330 1.247 . S
C345 C348 1.380 . S
C345 C349 1.374 . S
C345 C351 1.507 . S
C346 C347 1.387 . S
C346 C350 1.391 . S
C347 C346 1.387 . S
C347 C348 1.384 . S
C347 H356 0.930 . S
C348 C345 1.380 . S
C348 C347 1.384 . S
C348 H357 0.931 . S
C349 C345 1.374 . S
C349 C350 1.390 . S
C349 H358 0.930 1_655 S
C350 C346 1.391 . S
C350 C349 1.390 . S
C350 H359 0.930 1_655 S
C351 Eu321 2.825 . S
C351 O336 1.238 . S
C351 O337 1.247 . S
C351 C345 1.507 . S
H352 C325 0.930 . S
H353 C326 0.931 . S
H354 C327 0.930 1_655 S
H355 C328 0.930 1_654 S
H356 C347 0.930 . S
H357 C348 0.931 . S
H358 C349 0.930 1_455 S
H359 C350 0.930 1_455 S
Tb360 C370 2.825 . S
Tb360 O371 2.347 1_545 S
Tb360 O374 2.366 . S
Tb360 O379 2.418 . S
Tb360 O380 2.384 . S
Tb360 O383 2.479 . S
Tb360 O384 2.471 . S
Eu361 O372 2.418 . S
Eu361 O373 2.384 . S
Eu361 O376 2.479 . S
Eu361 O377 2.471 . S
Eu361 O378 2.347 1_565 S
Eu361 O381 2.366 . S
Eu361 C391 2.825 . S
C362 O378 1.259 . S
C362 O379 1.265 . S
C363 O380 1.255 . S
C363 O381 1.265 1_545 S
C364 C366 1.380 . S
C364 C367 1.374 . S
C364 C370 1.507 . S
C365 C366 1.384 . S
C365 C369 1.387 1_556 S
C365 H392 0.930 . S
C366 C364 1.380 . S
C366 C365 1.384 . S
C366 H393 0.931 . S
C367 C364 1.374 . S
C367 C368 1.390 . S
C367 H394 0.930 1_545 S
C368 C367 1.390 . S
C368 C369 1.391 1_556 S
C368 H395 0.930 1_546 S
C369 C365 1.387 1_554 S
C369 C368 1.391 1_554 S
C370 Tb360 2.825 . S
C370 C364 1.507 . S
C370 O383 1.238 . S
C370 O384 1.247 . S
O371 Tb360 2.347 1_565 S
O371 C375 1.259 . S
O372 Eu361 2.418 . S
O372 C375 1.265 . S
O373 Eu361 2.384 . S
O373 C382 1.255 . S
O374 Tb360 2.366 . S
O374 C382 1.265 1_545 S
C375 O371 1.259 . S
C375 O372 1.265 . S
O376 Eu361 2.479 . S
O376 C391 1.238 . S
O377 Eu361 2.471 . S
O377 C391 1.247 . S
O378 Eu361 2.347 1_545 S
O378 C362 1.259 . S
O379 Tb360 2.418 . S
O379 C362 1.265 . S
O380 Tb360 2.384 . S
O380 C363 1.255 . S
O381 Eu361 2.366 . S
O381 C363 1.265 1_565 S
C382 O373 1.255 . S
C382 O374 1.265 1_565 S
O383 Tb360 2.479 . S
O383 C370 1.238 . S
O384 Tb360 2.471 . S
O384 C370 1.247 . S
C385 C388 1.380 . S
C385 C389 1.374 . S
C385 C391 1.507 . S
C386 C387 1.387 . S
C386 C390 1.391 . S
C387 C386 1.387 . S
C387 C388 1.384 . S
C387 H396 0.930 . S
C388 C385 1.380 . S
C388 C387 1.384 . S
C388 H397 0.931 . S
C389 C385 1.374 . S
C389 C390 1.390 . S
C389 H398 0.930 1_565 S
C390 C386 1.391 . S
C390 C389 1.390 . S
C390 H399 0.930 1_565 S
C391 Eu361 2.825 . S
C391 O376 1.238 . S
C391 O377 1.247 . S
C391 C385 1.507 . S
H392 C365 0.930 . S
H393 C366 0.931 . S
H394 C367 0.930 1_565 S
H395 C368 0.930 1_564 S
H396 C387 0.930 . S
H397 C388 0.931 . S
H398 C389 0.930 1_545 S
H399 C390 0.930 1_545 S
Tb400 C410 2.825 . S
Tb400 O411 2.347 . S
Tb400 O414 2.366 . S
Tb400 O419 2.418 . S
Tb400 O420 2.384 . S
Tb400 O423 2.479 . S
Tb400 O424 2.471 . S
Eu401 O412 2.418 . S
Eu401 O413 2.384 . S
Eu401 O416 2.479 . S
Eu401 O417 2.471 . S
Eu401 O418 2.347 . S
Eu401 O421 2.366 . S
Eu401 C431 2.825 . S
C402 O418 1.259 . S
C402 O419 1.265 . S
C403 O420 1.255 . S
C403 O421 1.265 . S
C404 C406 1.380 . S
C404 C407 1.374 . S
C404 C410 1.507 . S
C405 C406 1.384 . S
C405 C409 1.387 1_556 S
C405 H432 0.930 . S
C406 C404 1.380 . S
C406 C405 1.384 . S
C406 H433 0.931 . S
C407 C404 1.374 . S
C407 C408 1.390 . S
C407 H434 0.930 . S
C408 C407 1.390 . S
C408 C409 1.391 1_556 S
C408 H435 0.930 1_556 S
C409 C405 1.387 1_554 S
C409 C408 1.391 1_554 S
C410 Tb400 2.825 . S
C410 C404 1.507 . S
C410 O423 1.238 . S
C410 O424 1.247 . S
O411 Tb400 2.347 . S
O411 C415 1.259 . S
O412 Eu401 2.418 . S
O412 C415 1.265 . S
O413 Eu401 2.384 . S
O413 C422 1.255 . S
O414 Tb400 2.366 . S
O414 C422 1.265 . S
C415 O411 1.259 . S
C415 O412 1.265 . S
O416 Eu401 2.479 . S
O416 C431 1.238 . S
O417 Eu401 2.471 . S
O417 C431 1.247 . S
O418 Eu401 2.347 . S
O418 C402 1.259 . S
O419 Tb400 2.418 . S
O419 C402 1.265 . S
O420 Tb400 2.384 . S
O420 C403 1.255 . S
O421 Eu401 2.366 . S
O421 C403 1.265 . S
C422 O413 1.255 . S
C422 O414 1.265 . S
O423 Tb400 2.479 . S
O423 C410 1.238 . S
O424 Tb400 2.471 . S
O424 C410 1.247 . S
C425 C428 1.380 . S
C425 C429 1.374 . S
C425 C431 1.507 . S
C426 C427 1.387 . S
C426 C430 1.391 . S
C427 C426 1.387 . S
C427 C428 1.384 . S
C427 H436 0.930 . S
C428 C425 1.380 . S
C428 C427 1.384 . S
C428 H437 0.931 . S
C429 C425 1.374 . S
C429 C430 1.390 . S
C429 H438 0.930 . S
C430 C426 1.391 . S
C430 C429 1.390 . S
C430 H439 0.930 . S
C431 Eu401 2.825 . S
C431 O416 1.238 . S
C431 O417 1.247 . S
C431 C425 1.507 . S
H432 C405 0.930 . S
H433 C406 0.931 . S
H434 C407 0.930 . S
H435 C408 0.930 1_554 S
H436 C427 0.930 . S
H437 C428 0.931 . S
H438 C429 0.930 . S
H439 C430 0.930 . S
Tb440 C450 2.825 . S
Tb440 O451 2.347 . S
Tb440 O454 2.366 . S
Tb440 O459 2.418 . S
Tb440 O460 2.384 1_655 S
Tb440 O463 2.479 . S
Tb440 O464 2.471 . S
Eu441 O452 2.418 . S
Eu441 O453 2.384 1_455 S
Eu441 O456 2.479 . S
Eu441 O457 2.471 . S
Eu441 O458 2.347 . S
Eu441 O461 2.366 . S
Eu441 C471 2.825 . S
C442 O458 1.259 1_655 S
C442 O459 1.265 . S
C443 O460 1.255 . S
C443 O461 1.265 . S
C444 C446 1.380 . S
C444 C447 1.374 . S
C444 C450 1.507 . S
C445 C446 1.384 . S
C445 C449 1.387 1_556 S
C445 H472 0.930 . S
C446 C444 1.380 . S
C446 C445 1.384 . S
C446 H473 0.931 . S
C447 C444 1.374 . S
C447 C448 1.390 . S
C447 H474 0.930 . S
C448 C447 1.390 . S
C448 C449 1.391 1_556 S
C448 H475 0.930 1_556 S
C449 C445 1.387 1_554 S
C449 C448 1.391 1_554 S
C450 Tb440 2.825 . S
C450 C444 1.507 . S
C450 O463 1.238 . S
C450 O464 1.247 . S
O451 Tb440 2.347 . S
O451 C455 1.259 1_655 S
O452 Eu441 2.418 . S
O452 C455 1.265 . S
O453 Eu441 2.384 1_655 S
O453 C462 1.255 . S
O454 Tb440 2.366 . S
O454 C462 1.265 . S
C455 O451 1.259 1_455 S
C455 O452 1.265 . S
O456 Eu441 2.479 . S
O456 C471 1.238 . S
O457 Eu441 2.471 . S
O457 C471 1.247 . S
O458 Eu441 2.347 . S
O458 C442 1.259 1_455 S
O459 Tb440 2.418 . S
O459 C442 1.265 . S
O460 Tb440 2.384 1_455 S
O460 C443 1.255 . S
O461 Eu441 2.366 . S
O461 C443 1.265 . S
C462 O453 1.255 . S
C462 O454 1.265 . S
O463 Tb440 2.479 . S
O463 C450 1.238 . S
O464 Tb440 2.471 . S
O464 C450 1.247 . S
C465 C468 1.380 . S
C465 C469 1.374 . S
C465 C471 1.507 . S
C466 C467 1.387 . S
C466 C470 1.391 . S
C467 C466 1.387 . S
C467 C468 1.384 . S
C467 H476 0.930 . S
C468 C465 1.380 . S
C468 C467 1.384 . S
C468 H477 0.931 . S
C469 C465 1.374 . S
C469 C470 1.390 . S
C469 H478 0.930 . S
C470 C466 1.391 . S
C470 C469 1.390 . S
C470 H479 0.930 . S
C471 Eu441 2.825 . S
C471 O456 1.238 . S
C471 O457 1.247 . S
C471 C465 1.507 . S
H472 C445 0.930 . S
H473 C446 0.931 . S
H474 C447 0.930 . S
H475 C448 0.930 1_554 S
H476 C467 0.930 . S
H477 C468 0.931 . S
H478 C469 0.930 . S
H479 C470 0.930 . S
C480 C481 1.391 . S
C480 H484 0.950 . S
C480 C489 1.390 . S
C481 C480 1.391 . S
C481 C483 1.384 1_545 S
H482 C489 0.950 . S
C483 C481 1.384 1_565 S
C483 C485 1.390 . S
C483 H487 0.950 . S
H484 C480 0.950 . S
C485 C483 1.390 . S
C485 C486 1.379 1_565 S
C485 H488 0.950 . S
C486 C485 1.379 1_545 S
C486 C489 1.396 . S
H487 C483 0.950 . S
H488 C485 0.950 . S
C489 C480 1.390 . S
C489 H482 0.950 . S
C489 C486 1.396 . S
C490 C491 1.387 . S
C490 H494 0.950 . S
C490 C499 1.390 . S
C491 C490 1.387 . S
C491 C493 1.387 . S
H492 C499 0.950 . S
C493 C491 1.387 . S
C493 C495 1.390 . S
C493 H497 0.950 . S
H494 C490 0.950 . S
C495 C493 1.390 . S
C495 C496 1.387 . S
C495 H498 0.950 . S
C496 C495 1.387 . S
C496 C499 1.387 . S
H497 C493 0.950 . S
H498 C495 0.950 . S
C499 C490 1.390 . S
C499 H492 0.950 . S
C499 C496 1.387 . S
C500 C501 1.387 . S
C500 H504 0.950 . S
C500 C509 1.390 . S
C501 C500 1.387 . S
C501 C503 1.387 . S
H502 C509 0.950 . S
C503 C501 1.387 . S
C503 C505 1.390 . S
C503 H507 0.950 . S
H504 C500 0.950 . S
C505 C503 1.390 . S
C505 C506 1.387 . S
C505 H508 0.950 . S
C506 C505 1.387 . S
C506 C509 1.387 . S
H507 C503 0.950 . S
H508 C505 0.950 . S
C509 C500 1.390 . S
C509 H502 0.950 . S
C509 C506 1.387 . S
C510 C511 1.376 1_655 S
C510 H514 0.950 . S
C510 C519 1.390 . S
C511 C510 1.376 1_455 S
C511 C513 1.400 . S
H512 C519 0.950 . S
C513 C511 1.400 . S
C513 C515 1.390 . S
C513 H517 0.950 . S
H514 C510 0.950 . S
C515 C513 1.390 . S
C515 C516 1.407 . S
C515 H518 0.950 . S
C516 C515 1.407 . S
C516 C519 1.368 1_455 S
H517 C513 0.950 . S
H518 C515 0.950 . S
C519 C510 1.390 . S
C519 H512 0.950 . S
C519 C516 1.368 1_655 S
C520 C521 1.384 . S
C520 H524 0.950 . S
C520 C529 1.390 . S
C521 C520 1.384 . S
C521 C523 1.391 1_545 S
H522 C529 0.950 1_556 S
C523 C521 1.391 1_565 S
C523 C525 1.390 . S
C523 H527 0.950 . S
H524 C520 0.950 . S
C525 C523 1.390 . S
C525 C526 1.387 1_554 S
C525 H528 0.950 1_554 S
C526 C525 1.387 1_556 S
C526 C529 1.388 1_566 S
H527 C523 0.950 . S
H528 C525 0.950 1_556 S
C529 C520 1.390 . S
C529 H522 0.950 1_554 S
C529 C526 1.388 1_544 S
C530 C531 1.387 . S
C530 H534 0.950 . S
C530 C539 1.390 . S
C531 C530 1.387 . S
C531 C533 1.387 . S
H532 C539 0.950 1_556 S
C533 C531 1.387 . S
C533 C535 1.390 . S
C533 H537 0.950 . S
H534 C530 0.950 . S
C535 C533 1.390 . S
C535 C536 1.387 1_554 S
C535 H538 0.950 1_554 S
C536 C535 1.387 1_556 S
C536 C539 1.387 1_556 S
H537 C533 0.950 . S
H538 C535 0.950 1_556 S
C539 C530 1.390 . S
C539 H532 0.950 1_554 S
C539 C536 1.387 1_554 S
C540 C541 1.387 . S
C540 H544 0.950 . S
C540 C549 1.390 . S
C541 C540 1.387 . S
C541 C543 1.387 . S
H542 C549 0.950 1_556 S
C543 C541 1.387 . S
C543 C545 1.390 . S
C543 H547 0.950 . S
H544 C540 0.950 . S
C545 C543 1.390 . S
C545 C546 1.387 1_554 S
C545 H548 0.950 1_554 S
C546 C545 1.387 1_556 S
C546 C549 1.387 1_556 S
H547 C543 0.950 . S
H548 C545 0.950 1_556 S
C549 C540 1.390 . S
C549 H542 0.950 1_554 S
C549 C546 1.387 1_554 S
C550 C551 1.370 1_455 S
C550 H554 0.950 . S
C550 C559 1.390 . S
C551 C550 1.370 1_655 S
C551 C553 1.405 . S
H552 C559 0.950 1_556 S
C553 C551 1.405 . S
C553 C555 1.390 . S
C553 H557 0.950 . S
H554 C550 0.950 . S
C555 C553 1.390 . S
C555 C556 1.387 1_554 S
C555 H558 0.950 1_554 S
C556 C555 1.387 1_556 S
C556 C559 1.387 1_656 S
H557 C553 0.950 . S
H558 C555 0.950 1_556 S
C559 C550 1.390 . S
C559 H552 0.950 1_554 S
C559 C556 1.387 1_454 S
C560 C561 1.386 1_655 S
C560 H564 0.950 1_655 S
C560 C569 1.390 . S
C561 C560 1.386 1_455 S
C561 C563 1.382 1_455 S
H562 C569 0.950 . S
C563 C561 1.382 1_655 S
C563 C565 1.390 . S
C563 H567 0.950 . S
H564 C560 0.950 1_455 S
C565 C563 1.390 . S
C565 C566 1.387 . S
C565 H568 0.950 . S
C566 C565 1.387 . S
C566 C569 1.387 . S
H567 C563 0.950 . S
H568 C565 0.950 . S
C569 C560 1.390 . S
C569 H562 0.950 . S
C569 C566 1.387 . S
C570 C571 1.387 1_565 S
C570 H574 0.950 1_565 S
C570 C579 1.390 . S
C571 C570 1.387 1_545 S
C571 C573 1.385 1_545 S
H572 C579 0.950 . S
C573 C571 1.385 1_565 S
C573 C575 1.390 . S
C573 H577 0.950 . S
H574 C570 0.950 1_545 S
C575 C573 1.390 . S
C575 C576 1.387 . S
C575 H578 0.950 . S
C576 C575 1.387 . S
C576 C579 1.387 . S
H577 C573 0.950 . S
H578 C575 0.950 . S
C579 C570 1.390 . S
C579 H572 0.950 . S
C579 C576 1.387 . S
C580 C581 1.387 . S
C580 H584 0.950 . S
C580 C589 1.390 . S
C581 C580 1.387 . S
C581 C583 1.387 . S
H582 C589 0.950 . S
C583 C581 1.387 . S
C583 C585 1.390 . S
C583 H587 0.950 . S
H584 C580 0.950 . S
C585 C583 1.390 . S
C585 C586 1.387 . S
C585 H588 0.950 . S
C586 C585 1.387 . S
C586 C589 1.387 . S
H587 C583 0.950 . S
H588 C585 0.950 . S
C589 C580 1.390 . S
C589 H582 0.950 . S
C589 C586 1.387 . S
C590 C591 1.387 . S
C590 H594 0.950 . S
C590 C599 1.390 . S
C591 C590 1.387 . S
C591 C593 1.387 . S
H592 C599 0.950 . S
C593 C591 1.387 . S
C593 C595 1.390 . S
C593 H597 0.950 . S
H594 C590 0.950 . S
C595 C593 1.390 . S
C595 C596 1.387 . S
C595 H598 0.950 . S
C596 C595 1.387 . S
C596 C599 1.387 . S
H597 C593 0.950 . S
H598 C595 0.950 . S
C599 C590 1.390 . S
C599 H592 0.950 . S
C599 C596 1.387 . S
C600 C601 1.387 1_456 S
C600 H604 0.950 1_455 S
C600 C609 1.390 . S
C601 C600 1.387 1_654 S
C601 C603 1.386 1_655 S
H602 C609 0.950 . S
C603 C601 1.386 1_455 S
C603 C605 1.390 . S
C603 H607 0.950 . S
H604 C600 0.950 1_655 S
C605 C603 1.390 . S
C605 C606 1.387 . S
C605 H608 0.950 . S
C606 C605 1.387 . S
C606 C609 1.387 1_554 S
H607 C603 0.950 . S
H608 C605 0.950 . S
C609 C600 1.390 . S
C609 H602 0.950 . S
C609 C606 1.387 1_556 S
C610 C611 1.386 1_545 S
C610 H614 0.950 . S
C610 C619 1.390 . S
C611 C610 1.386 1_565 S
C611 C613 1.387 1_564 S
H612 C619 0.950 . S
C613 C611 1.387 1_546 S
C613 C615 1.390 . S
C613 H617 0.950 1_545 S
H614 C610 0.950 . S
C615 C613 1.390 . S
C615 C616 1.387 1_556 S
C615 H618 0.950 . S
C616 C615 1.387 1_554 S
C616 C619 1.387 . S
H617 C613 0.950 1_565 S
H618 C615 0.950 . S
C619 C610 1.390 . S
C619 H612 0.950 . S
C619 C616 1.387 . S
C620 C621 1.387 . S
C620 H624 0.950 . S
C620 C629 1.390 . S
C621 C620 1.387 . S
C621 C623 1.387 . S
H622 C629 0.950 . S
C623 C621 1.387 . S
C623 C625 1.390 . S
C623 H627 0.950 . S
H624 C620 0.950 . S
C625 C623 1.390 . S
C625 C626 1.387 . S
C625 H628 0.950 1_554 S
C626 C625 1.387 . S
C626 C629 1.387 . S
H627 C623 0.950 . S
H628 C625 0.950 1_556 S
C629 C620 1.390 . S
C629 H622 0.950 . S
C629 C626 1.387 . S
C630 C631 1.387 1_556 S
C630 H634 0.950 . S
C630 C639 1.390 . S
C631 C630 1.387 1_554 S
C631 C633 1.387 . S
H632 C639 0.950 . S
C633 C631 1.387 . S
C633 C635 1.390 . S
C633 H637 0.950 . S
H634 C630 0.950 . S
C635 C633 1.390 . S
C635 C636 1.387 . S
C635 H638 0.950 . S
C636 C635 1.387 . S
C636 C639 1.387 1_554 S
H637 C633 0.950 . S
H638 C635 0.950 . S
C639 C630 1.390 . S
C639 H632 0.950 . S
C639 C636 1.387 1_556 S
C640 C641 1.387 . S
C640 H644 0.950 . S
C640 C649 1.390 . S
C641 C640 1.387 . S
C641 C643 1.387 1_455 S
H642 C649 0.950 . S
C643 C641 1.387 1_655 S
C643 C645 1.390 . S
C643 H647 0.950 . S
H644 C640 0.950 . S
C645 C643 1.390 . S
C645 C646 1.387 1_655 S
C645 H648 0.950 . S
C646 C645 1.387 1_455 S
C646 C649 1.387 . S
H647 C643 0.950 . S
H648 C645 0.950 . S
C649 C640 1.390 . S
C649 H642 0.950 . S
C649 C646 1.387 . S
C650 C651 1.387 1_565 S
C650 H654 0.950 . S
C650 C659 1.390 . S
C651 C650 1.387 1_545 S
C651 C653 1.387 . S
H652 C659 0.950 . S
C653 C651 1.387 . S
C653 C655 1.390 . S
C653 H657 0.950 . S
H654 C650 0.950 . S
C655 C653 1.390 . S
C655 C656 1.387 . S
C655 H658 0.950 . S
C656 C655 1.387 . S
C656 C659 1.387 1_545 S
H657 C653 0.950 . S
H658 C655 0.950 . S
C659 C650 1.390 . S
C659 H652 0.950 . S
C659 C656 1.387 1_565 S
C660 C661 1.387 . S
C660 H664 0.950 . S
C660 C669 1.390 . S
C661 C660 1.387 . S
C661 C663 1.387 . S
H662 C669 0.950 . S
C663 C661 1.387 . S
C663 C665 1.390 . S
C663 H667 0.950 . S
H664 C660 0.950 . S
C665 C663 1.390 . S
C665 C666 1.387 . S
C665 H668 0.950 . S
C666 C665 1.387 . S
C666 C669 1.387 . S
H667 C663 0.950 . S
H668 C665 0.950 . S
C669 C660 1.390 . S
C669 H662 0.950 . S
C669 C666 1.387 . S
C670 C671 1.387 . S
C670 H674 0.950 . S
C670 C679 1.390 . S
C671 C670 1.387 . S
C671 C673 1.387 . S
H672 C679 0.950 . S
C673 C671 1.387 . S
C673 C675 1.390 . S
C673 H677 0.950 . S
H674 C670 0.950 . S
C675 C673 1.390 . S
C675 C676 1.387 . S
C675 H678 0.950 . S
C676 C675 1.387 . S
C676 C679 1.387 . S
H677 C673 0.950 . S
H678 C675 0.950 . S
C679 C670 1.390 . S
C679 H672 0.950 . S
C679 C676 1.387 . S
C680 C681 1.387 . S
C680 H684 0.950 . S
C680 C689 1.390 . S
C681 C680 1.387 . S
C681 C683 1.387 1_655 S
H682 C689 0.950 . S
C683 C681 1.387 1_455 S
C683 C685 1.390 . S
C683 H687 0.950 . S
H684 C680 0.950 . S
C685 C683 1.390 . S
C685 C686 1.387 1_455 S
C685 H688 0.950 . S
C686 C685 1.387 1_655 S
C686 C689 1.387 . S
H687 C683 0.950 . S
H688 C685 0.950 . S
C689 C680 1.390 . S
C689 H682 0.950 . S
C689 C686 1.387 . S
C690 C691 1.387 . S
C690 H694 0.950 . S
C690 C699 1.390 . S
C691 C690 1.387 . S
C691 C693 1.387 1_565 S
H692 C699 0.950 . S
C693 C691 1.387 1_545 S
C693 C695 1.390 . S
C693 H697 0.950 . S
H694 C690 0.950 . S
C695 C693 1.390 . S
C695 C696 1.387 1_545 S
C695 H698 0.950 . S
C696 C695 1.387 1_565 S
C696 C699 1.387 . S
H697 C693 0.950 . S
H698 C695 0.950 . S
C699 C690 1.390 . S
C699 H692 0.950 . S
C699 C696 1.387 . S
C700 C701 1.387 . S
C700 H704 0.950 . S
C700 C709 1.390 . S
C701 C700 1.387 . S
C701 C703 1.387 . S
H702 C709 0.950 . S
C703 C701 1.387 . S
C703 C705 1.390 . S
C703 H707 0.950 . S
H704 C700 0.950 . S
C705 C703 1.390 . S
C705 C706 1.387 . S
C705 H708 0.950 . S
C706 C705 1.387 . S
C706 C709 1.387 . S
H707 C703 0.950 . S
H708 C705 0.950 . S
C709 C700 1.390 . S
C709 H702 0.950 . S
C709 C706 1.387 . S
C710 C711 1.387 . S
C710 H714 0.950 . S
C710 C719 1.390 . S
C711 C710 1.387 . S
C711 C713 1.387 . S
H712 C719 0.950 . S
C713 C711 1.387 . S
C713 C715 1.390 . S
C713 H717 0.950 . S
H714 C710 0.950 . S
C715 C713 1.390 . S
C715 C716 1.387 . S
C715 H718 0.950 . S
C716 C715 1.387 . S
C716 C719 1.387 . S
H717 C713 0.950 . S
H718 C715 0.950 . S
C719 C710 1.390 . S
C719 H712 0.950 . S
C719 C716 1.387 . S
C481 C255 2.659 . S
C486 C322 2.994 1_545 S
C496 C362 3.011 . S
C491 C295 2.676 . S
C506 C402 3.016 . S
C501 C175 2.686 . S
C516 C442 2.998 1_455 S
C511 C215 2.666 . S
C526 C335 2.996 1_565 S
C521 C95 2.662 . S
C531 C135 2.681 . S
C536 C375 3.013 . S
C541 C15 2.687 . S
C546 C415 3.015 . S
C551 C55 2.663 1_655 S
C556 C455 2.997 1_655 S
C566 C346 0.748 . S
C561 C221 0.744 . S
C576 C386 0.737 . S
C571 C261 0.738 . S
C586 C426 0.708 . S
C581 C301 0.703 . S
C591 C181 0.701 . S
C596 C466 0.704 . S
C601 C61 0.742 1_655 S
C606 C329 0.744 . S
C616 C369 0.744 . S
C611 C101 0.744 1_565 S
C626 C409 0.704 . S
C621 C141 0.718 . S
C631 C21 0.719 . S
C636 C449 0.706 . S
C641 C202 3.583 . S
C646 C323 4.029 . S
C651 C242 3.551 . S
C656 C363 4.006 . S
C666 C403 4.001 . S
C661 C282 3.538 . S
C676 C443 4.027 . S
C671 C162 3.561 . S
C681 C42 3.601 1_655 S
C686 C342 4.037 . S
C696 C382 4.007 . S
C691 C82 3.572 1_565 S
C706 C422 4.001 . S
C701 C122 3.574 . S
C711 C2 3.600 . S
C716 C462 4.031 . S
