# Generated by pormake.
# Topology gar, (4,6)-cn, num edge types: 1
# Building blocks:
#     Node 0, Type 0, BuildingBlock: GALJAG_clean_sbu_0, # of connection points: 4
#     Node 1, Type 0, BuildingBlock: GALJAG_clean_sbu_0, # of connection points: 4
#     Node 2, Type 0, BuildingBlock: GALJAG_clean_sbu_0, # of connection points: 4
#     Node 3, Type 0, BuildingBlock: GALJAG_clean_sbu_0, # of connection points: 4
#     Node 4, Type 0, BuildingBlock: GALJAG_clean_sbu_0, # of connection points: 4
#     Node 5, Type 0, BuildingBlock: GALJAG_clean_sbu_0, # of connection points: 4
#     Node 6, Type 0, BuildingBlock: GALJAG_clean_sbu_0, # of connection points: 4
#     Node 7, Type 0, BuildingBlock: GALJAG_clean_sbu_0, # of connection points: 4
#     Node 8, Type 0, BuildingBlock: GALJAG_clean_sbu_0, # of connection points: 4
#     Node 9, Type 0, BuildingBlock: GALJAG_clean_sbu_0, # of connection points: 4
#     Node 10, Type 0, BuildingBlock: GALJAG_clean_sbu_0, # of connection points: 4
#     Node 11, Type 0, BuildingBlock: GALJAG_clean_sbu_0, # of connection points: 4
#     Node 12, Type 0, BuildingBlock: GALJAG_clean_sbu_0, # of connection points: 4
#     Node 13, Type 0, BuildingBlock: GALJAG_clean_sbu_0, # of connection points: 4
#     Node 14, Type 0, BuildingBlock: GALJAG_clean_sbu_0, # of connection points: 4
#     Node 15, Type 0, BuildingBlock: GALJAG_clean_sbu_0, # of connection points: 4
#     Node 16, Type 0, BuildingBlock: GALJAG_clean_sbu_0, # of connection points: 4
#     Node 17, Type 0, BuildingBlock: GALJAG_clean_sbu_0, # of connection points: 4
#     Node 18, Type 0, BuildingBlock: GALJAG_clean_sbu_0, # of connection points: 4
#     Node 19, Type 0, BuildingBlock: GALJAG_clean_sbu_0, # of connection points: 4
#     Node 20, Type 0, BuildingBlock: GALJAG_clean_sbu_0, # of connection points: 4
#     Node 21, Type 0, BuildingBlock: GALJAG_clean_sbu_0, # of connection points: 4
#     Node 22, Type 0, BuildingBlock: GALJAG_clean_sbu_0, # of connection points: 4
#     Node 23, Type 0, BuildingBlock: GALJAG_clean_sbu_0, # of connection points: 4
#     Node 24, Type 1, BuildingBlock: BETDIP_clean_sbu_0, # of connection points: 6
#     Node 25, Type 1, BuildingBlock: BETDIP_clean_sbu_0, # of connection points: 6
#     Node 26, Type 1, BuildingBlock: BETDIP_clean_sbu_0, # of connection points: 6
#     Node 27, Type 1, BuildingBlock: BETDIP_clean_sbu_0, # of connection points: 6
#     Node 28, Type 1, BuildingBlock: BETDIP_clean_sbu_0, # of connection points: 6
#     Node 29, Type 1, BuildingBlock: BETDIP_clean_sbu_0, # of connection points: 6
#     Node 30, Type 1, BuildingBlock: BETDIP_clean_sbu_0, # of connection points: 6
#     Node 31, Type 1, BuildingBlock: BETDIP_clean_sbu_0, # of connection points: 6
#     Node 32, Type 1, BuildingBlock: BETDIP_clean_sbu_0, # of connection points: 6
#     Node 33, Type 1, BuildingBlock: BETDIP_clean_sbu_0, # of connection points: 6
#     Node 34, Type 1, BuildingBlock: BETDIP_clean_sbu_0, # of connection points: 6
#     Node 35, Type 1, BuildingBlock: BETDIP_clean_sbu_0, # of connection points: 6
#     Node 36, Type 1, BuildingBlock: BETDIP_clean_sbu_0, # of connection points: 6
#     Node 37, Type 1, BuildingBlock: BETDIP_clean_sbu_0, # of connection points: 6
#     Node 38, Type 1, BuildingBlock: BETDIP_clean_sbu_0, # of connection points: 6
#     Node 39, Type 1, BuildingBlock: BETDIP_clean_sbu_0, # of connection points: 6
#     Edge 40, Type (0, 1), BuildingBlock: OJICUG_clean_linker_0, # of connection points: 2
#     Edge 41, Type (0, 1), BuildingBlock: OJICUG_clean_linker_0, # of connection points: 2
#     Edge 42, Type (0, 1), BuildingBlock: OJICUG_clean_linker_0, # of connection points: 2
#     Edge 43, Type (0, 1), BuildingBlock: OJICUG_clean_linker_0, # of connection points: 2
#     Edge 44, Type (0, 1), BuildingBlock: OJICUG_clean_linker_0, # of connection points: 2
#     Edge 45, Type (0, 1), BuildingBlock: OJICUG_clean_linker_0, # of connection points: 2
#     Edge 46, Type (0, 1), BuildingBlock: OJICUG_clean_linker_0, # of connection points: 2
#     Edge 47, Type (0, 1), BuildingBlock: OJICUG_clean_linker_0, # of connection points: 2
#     Edge 48, Type (0, 1), BuildingBlock: OJICUG_clean_linker_0, # of connection points: 2
#     Edge 49, Type (0, 1), BuildingBlock: OJICUG_clean_linker_0, # of connection points: 2
#     Edge 50, Type (0, 1), BuildingBlock: OJICUG_clean_linker_0, # of connection points: 2
#     Edge 51, Type (0, 1), BuildingBlock: OJICUG_clean_linker_0, # of connection points: 2
#     Edge 52, Type (0, 1), BuildingBlock: OJICUG_clean_linker_0, # of connection points: 2
#     Edge 53, Type (0, 1), BuildingBlock: OJICUG_clean_linker_0, # of connection points: 2
#     Edge 54, Type (0, 1), BuildingBlock: OJICUG_clean_linker_0, # of connection points: 2
#     Edge 55, Type (0, 1), BuildingBlock: OJICUG_clean_linker_0, # of connection points: 2
#     Edge 56, Type (0, 1), BuildingBlock: OJICUG_clean_linker_0, # of connection points: 2
#     Edge 57, Type (0, 1), BuildingBlock: OJICUG_clean_linker_0, # of connection points: 2
#     Edge 58, Type (0, 1), BuildingBlock: OJICUG_clean_linker_0, # of connection points: 2
#     Edge 59, Type (0, 1), BuildingBlock: OJICUG_clean_linker_0, # of connection points: 2
#     Edge 60, Type (0, 1), BuildingBlock: OJICUG_clean_linker_0, # of connection points: 2
#     Edge 61, Type (0, 1), BuildingBlock: OJICUG_clean_linker_0, # of connection points: 2
#     Edge 62, Type (0, 1), BuildingBlock: OJICUG_clean_linker_0, # of connection points: 2
#     Edge 63, Type (0, 1), BuildingBlock: OJICUG_clean_linker_0, # of connection points: 2
#     Edge 64, Type (0, 1), BuildingBlock: OJICUG_clean_linker_0, # of connection points: 2
#     Edge 65, Type (0, 1), BuildingBlock: OJICUG_clean_linker_0, # of connection points: 2
#     Edge 66, Type (0, 1), BuildingBlock: OJICUG_clean_linker_0, # of connection points: 2
#     Edge 67, Type (0, 1), BuildingBlock: OJICUG_clean_linker_0, # of connection points: 2
#     Edge 68, Type (0, 1), BuildingBlock: OJICUG_clean_linker_0, # of connection points: 2
#     Edge 69, Type (0, 1), BuildingBlock: OJICUG_clean_linker_0, # of connection points: 2
#     Edge 70, Type (0, 1), BuildingBlock: OJICUG_clean_linker_0, # of connection points: 2
#     Edge 71, Type (0, 1), BuildingBlock: OJICUG_clean_linker_0, # of connection points: 2
#     Edge 72, Type (0, 1), BuildingBlock: OJICUG_clean_linker_0, # of connection points: 2
#     Edge 73, Type (0, 1), BuildingBlock: OJICUG_clean_linker_0, # of connection points: 2
#     Edge 74, Type (0, 1), BuildingBlock: OJICUG_clean_linker_0, # of connection points: 2
#     Edge 75, Type (0, 1), BuildingBlock: OJICUG_clean_linker_0, # of connection points: 2
#     Edge 76, Type (0, 1), BuildingBlock: OJICUG_clean_linker_0, # of connection points: 2
#     Edge 77, Type (0, 1), BuildingBlock: OJICUG_clean_linker_0, # of connection points: 2
#     Edge 78, Type (0, 1), BuildingBlock: OJICUG_clean_linker_0, # of connection points: 2
#     Edge 79, Type (0, 1), BuildingBlock: OJICUG_clean_linker_0, # of connection points: 2
#     Edge 80, Type (0, 1), BuildingBlock: OJICUG_clean_linker_0, # of connection points: 2
#     Edge 81, Type (0, 1), BuildingBlock: OJICUG_clean_linker_0, # of connection points: 2
#     Edge 82, Type (0, 1), BuildingBlock: OJICUG_clean_linker_0, # of connection points: 2
#     Edge 83, Type (0, 1), BuildingBlock: OJICUG_clean_linker_0, # of connection points: 2
#     Edge 84, Type (0, 1), BuildingBlock: OJICUG_clean_linker_0, # of connection points: 2
#     Edge 85, Type (0, 1), BuildingBlock: OJICUG_clean_linker_0, # of connection points: 2
#     Edge 86, Type (0, 1), BuildingBlock: OJICUG_clean_linker_0, # of connection points: 2
#     Edge 87, Type (0, 1), BuildingBlock: OJICUG_clean_linker_0, # of connection points: 2
#     Edge 88, Type (0, 1), BuildingBlock: OJICUG_clean_linker_0, # of connection points: 2
#     Edge 89, Type (0, 1), BuildingBlock: OJICUG_clean_linker_0, # of connection points: 2
#     Edge 90, Type (0, 1), BuildingBlock: OJICUG_clean_linker_0, # of connection points: 2
#     Edge 91, Type (0, 1), BuildingBlock: OJICUG_clean_linker_0, # of connection points: 2
#     Edge 92, Type (0, 1), BuildingBlock: OJICUG_clean_linker_0, # of connection points: 2
#     Edge 93, Type (0, 1), BuildingBlock: OJICUG_clean_linker_0, # of connection points: 2
#     Edge 94, Type (0, 1), BuildingBlock: OJICUG_clean_linker_0, # of connection points: 2
#     Edge 95, Type (0, 1), BuildingBlock: OJICUG_clean_linker_0, # of connection points: 2
#     Edge 96, Type (0, 1), BuildingBlock: OJICUG_clean_linker_0, # of connection points: 2
#     Edge 97, Type (0, 1), BuildingBlock: OJICUG_clean_linker_0, # of connection points: 2
#     Edge 98, Type (0, 1), BuildingBlock: OJICUG_clean_linker_0, # of connection points: 2
#     Edge 99, Type (0, 1), BuildingBlock: OJICUG_clean_linker_0, # of connection points: 2
#     Edge 100, Type (0, 1), BuildingBlock: OJICUG_clean_linker_0, # of connection points: 2
#     Edge 101, Type (0, 1), BuildingBlock: OJICUG_clean_linker_0, # of connection points: 2
#     Edge 102, Type (0, 1), BuildingBlock: OJICUG_clean_linker_0, # of connection points: 2
#     Edge 103, Type (0, 1), BuildingBlock: OJICUG_clean_linker_0, # of connection points: 2
#     Edge 104, Type (0, 1), BuildingBlock: OJICUG_clean_linker_0, # of connection points: 2
#     Edge 105, Type (0, 1), BuildingBlock: OJICUG_clean_linker_0, # of connection points: 2
#     Edge 106, Type (0, 1), BuildingBlock: OJICUG_clean_linker_0, # of connection points: 2
#     Edge 107, Type (0, 1), BuildingBlock: OJICUG_clean_linker_0, # of connection points: 2
#     Edge 108, Type (0, 1), BuildingBlock: OJICUG_clean_linker_0, # of connection points: 2
#     Edge 109, Type (0, 1), BuildingBlock: OJICUG_clean_linker_0, # of connection points: 2
#     Edge 110, Type (0, 1), BuildingBlock: OJICUG_clean_linker_0, # of connection points: 2
#     Edge 111, Type (0, 1), BuildingBlock: OJICUG_clean_linker_0, # of connection points: 2
#     Edge 112, Type (0, 1), BuildingBlock: OJICUG_clean_linker_0, # of connection points: 2
#     Edge 113, Type (0, 1), BuildingBlock: OJICUG_clean_linker_0, # of connection points: 2
#     Edge 114, Type (0, 1), BuildingBlock: OJICUG_clean_linker_0, # of connection points: 2
#     Edge 115, Type (0, 1), BuildingBlock: OJICUG_clean_linker_0, # of connection points: 2
#     Edge 116, Type (0, 1), BuildingBlock: OJICUG_clean_linker_0, # of connection points: 2
#     Edge 117, Type (0, 1), BuildingBlock: OJICUG_clean_linker_0, # of connection points: 2
#     Edge 118, Type (0, 1), BuildingBlock: OJICUG_clean_linker_0, # of connection points: 2
#     Edge 119, Type (0, 1), BuildingBlock: OJICUG_clean_linker_0, # of connection points: 2
#     Edge 120, Type (0, 1), BuildingBlock: OJICUG_clean_linker_0, # of connection points: 2
#     Edge 121, Type (0, 1), BuildingBlock: OJICUG_clean_linker_0, # of connection points: 2
#     Edge 122, Type (0, 1), BuildingBlock: OJICUG_clean_linker_0, # of connection points: 2
#     Edge 123, Type (0, 1), BuildingBlock: OJICUG_clean_linker_0, # of connection points: 2
#     Edge 124, Type (0, 1), BuildingBlock: OJICUG_clean_linker_0, # of connection points: 2
#     Edge 125, Type (0, 1), BuildingBlock: OJICUG_clean_linker_0, # of connection points: 2
#     Edge 126, Type (0, 1), BuildingBlock: OJICUG_clean_linker_0, # of connection points: 2
#     Edge 127, Type (0, 1), BuildingBlock: OJICUG_clean_linker_0, # of connection points: 2
#     Edge 128, Type (0, 1), BuildingBlock: OJICUG_clean_linker_0, # of connection points: 2
#     Edge 129, Type (0, 1), BuildingBlock: OJICUG_clean_linker_0, # of connection points: 2
#     Edge 130, Type (0, 1), BuildingBlock: OJICUG_clean_linker_0, # of connection points: 2
#     Edge 131, Type (0, 1), BuildingBlock: OJICUG_clean_linker_0, # of connection points: 2
#     Edge 132, Type (0, 1), BuildingBlock: OJICUG_clean_linker_0, # of connection points: 2
#     Edge 133, Type (0, 1), BuildingBlock: OJICUG_clean_linker_0, # of connection points: 2
#     Edge 134, Type (0, 1), BuildingBlock: OJICUG_clean_linker_0, # of connection points: 2
#     Edge 135, Type (0, 1), BuildingBlock: OJICUG_clean_linker_0, # of connection points: 2
# Relax obj value: 0.254
# Max RMSD: 0.362
# Mean RMSD: 0.182
data_MOF--net-gar--node1-GALJAG_clean_sbu_0--node2-BETDIP_clean_sbu_0--edge1-OJICUG_clean_linker_0
_symmetry_space_group_name_H-M    P1
_symmetry_Int_Tables_number       1
_symmetry_cell_setting            triclinic
loop_
_symmetry_equiv_pos_as_xyz
'x, y, z'
_cell_length_a     49.123033
_cell_length_b     42.009391
_cell_length_c     39.384349
_cell_angle_alpha  97.387163
_cell_angle_beta   99.638441
_cell_angle_gamma 101.69729
loop_
_atom_site_label
_atom_site_type_symbol
_atom_site_fract_x
_atom_site_fract_y
_atom_site_fract_z
_atom_type_partial_charge
In0 In 0.05833 0.37048 0.41901 0.0
O1 O 0.07841 0.36447 0.37119 0.0
O2 O 0.10383 0.39433 0.41761 0.0
C3 C 1.00802 0.35161 0.37595 0.0
C4 C 0.07447 0.325 0.45453 0.0
C5 C 0.04353 0.41392 0.46491 0.0
O6 O 1.02307 0.38056 0.3799 0.0
O7 O 1.01917 0.33207 0.39237 0.0
O8 O 0.04009 0.3837 0.46672 0.0
O9 O 0.05508 0.42264 0.44014 0.0
C10 C 0.10276 0.38044 0.38693 0.0
O11 O 0.08448 0.35552 0.46474 0.0
O12 O 0.0562 0.31748 0.42642 0.0
In13 In 0.11741 0.77145 0.79188 0.0
O14 O 0.09804 0.77721 0.73705 0.0
O15 O 0.13291 0.81495 0.76608 0.0
C16 C 0.12497 0.71298 0.76215 0.0
C17 C 0.16684 0.79945 0.83492 0.0
C18 C 0.07118 0.77976 0.81842 0.0
O19 O 0.13829 0.74048 0.75772 0.0
O20 O 0.10785 0.71462 0.78271 0.0
O21 O 0.09419 0.77929 0.83802 0.0
O22 O 0.07131 0.77399 0.78636 0.0
C23 C 0.11503 0.80434 0.73792 0.0
O24 O 0.15157 0.81578 0.81891 0.0
O25 O 0.15549 0.76915 0.83233 0.0
In26 In 0.54989 0.86056 0.9174 0.0
O27 O 0.5812 0.86428 0.88074 0.0
O28 O 0.59657 0.86043 0.93328 0.0
C29 C 0.51033 0.86194 0.86232 0.0
C30 C 0.52776 0.80344 0.93672 0.0
C31 C 0.55078 0.90784 0.97089 0.0
O32 O 0.52394 0.88769 0.88324 0.0
O33 O 0.51757 0.83585 0.86863 0.0
O34 O 0.55044 0.87842 0.97443 0.0
O35 O 0.55242 0.91403 0.94067 0.0
C36 C 0.60171 0.86147 0.90312 0.0
O37 O 0.51749 0.82852 0.94099 0.0
O38 O 0.54862 0.80686 0.92158 0.0
In39 In 0.61046 0.28237 0.29323 0.0
O40 O 0.60817 0.25746 0.23812 0.0
O41 O 0.60887 0.22738 0.27755 0.0
C42 C 0.62218 0.33494 0.26162 0.0
C43 C 0.56105 0.28036 0.31469 0.0
C44 C 0.6581 0.29373 0.34156 0.0
O45 O 0.63337 0.31064 0.25714 0.0
O46 O 0.60527 0.33297 0.28254 0.0
O47 O 0.64698 0.31641 0.33202 0.0
O48 O 0.64387 0.26495 0.32864 0.0
C49 C 0.60911 0.22952 0.24589 0.0
O50 O 0.58403 0.28281 0.33568 0.0
O51 O 0.56277 0.27663 0.28292 0.0
In52 In 0.1191 0.83973 0.21013 0.0
O53 O 0.12156 0.79838 0.16591 0.0
O54 O 0.09795 0.78486 0.20423 0.0
C55 C 0.11746 0.89392 0.17654 0.0
C56 C 0.07425 0.83778 0.24351 0.0
C57 C 0.17261 0.84267 0.24747 0.0
O58 O 0.1059 0.86456 0.16214 0.0
O59 O 0.13109 0.896 0.20718 0.0
O60 O 0.15472 0.85596 0.26 0.0
O61 O 0.16395 0.82889 0.216 0.0
C62 C 0.10671 0.77532 0.17725 0.0
O63 O 0.0994 0.84088 0.25974 0.0
O64 O 0.07195 0.83626 0.21093 0.0
In65 In 0.52725 0.78997 0.49641 0.0
O66 O 0.54806 0.78974 0.4477 0.0
O67 O 0.57459 0.79325 0.49694 0.0
C68 C 0.47413 0.78869 0.45843 0.0
C69 C 0.52771 0.73413 0.52767 0.0
C70 C 0.54072 0.85385 0.53124 0.0
O71 O 0.49227 0.77601 0.44576 0.0
O72 O 0.4823 0.80106 0.49037 0.0
O73 O 0.52543 0.83058 0.54182 0.0
O74 O 0.54926 0.84478 0.50392 0.0
C75 C 0.57295 0.79232 0.46451 0.0
O76 O 0.53792 0.76322 0.54384 0.0
O77 O 0.51595 0.73312 0.49641 0.0
In78 In 0.61758 0.33576 0.70948 0.0
O79 O 0.61964 0.29412 0.6655 0.0
O80 O 0.59713 0.28094 0.70497 0.0
C81 C 0.61583 0.3896 0.67535 0.0
C82 C 0.57224 0.33402 0.74203 0.0
C83 C 0.67122 0.33832 0.74651 0.0
O84 O 0.60515 0.3601 0.66074 0.0
O85 O 0.62864 0.39197 0.70644 0.0
O86 O 0.65343 0.35165 0.75923 0.0
O87 O 0.66246 0.3248 0.71499 0.0
C88 C 0.60544 0.27118 0.6777 0.0
O89 O 0.59743 0.33846 0.75877 0.0
O90 O 0.57014 0.33097 0.70936 0.0
In91 In 1.02797 0.29339 1.00066 0.0
O92 O 0.03945 0.26778 0.04862 0.0
O93 O 1.01624 0.23702 1.00205 0.0
C94 C 0.04168 0.35753 0.03417 0.0
C95 C 0.07287 0.29462 0.96763 0.0
C96 C 0.97461 0.29141 0.96349 0.0
O97 O 1.02653 0.33464 0.04542 0.0
O98 O 0.05003 0.34794 1.00689 0.0
O99 O 0.99231 0.27785 0.95093 0.0
O100 O 0.98336 0.30512 0.99497 0.0
C101 C 1.02864 0.23856 0.03315 0.0
O102 O 0.04793 0.29266 0.95136 0.0
O103 O 0.07494 0.29549 1.00011 0.0
In104 In 0.44796 0.08753 0.34476 0.0
O105 O 0.4901 0.08671 0.31872 0.0
O106 O 0.45292 0.08125 0.28291 0.0
C107 C 0.48421 0.08819 0.41197 0.0
C108 C 0.41826 0.14432 0.34502 0.0
C109 C 0.41348 1.02167 0.34193 0.0
O110 O 0.49291 0.09945 0.38628 0.0
O111 O 0.45754 0.07803 0.4046 0.0
O112 O 0.41674 0.04602 0.36586 0.0
O113 O 0.42631 0.03038 0.31808 0.0
C114 C 0.47934 0.08244 0.28634 0.0
O115 O 0.40725 0.11429 0.33183 0.0
O116 O 0.44425 0.14634 0.35774 0.0
In117 In 0.28232 0.19183 0.57422 0.0
O118 O 0.30636 0.20595 0.63098 0.0
O119 O 0.27335 0.22987 0.61611 0.0
C120 C 0.28662 0.22804 0.52069 0.0
C121 C 0.32777 0.16336 0.57401 0.0
C122 C 0.23057 0.15147 0.57595 0.0
O123 O 0.29137 0.24057 0.5525 0.0
O124 O 0.27872 0.19695 0.51526 0.0
O125 O 0.25368 0.14235 0.57987 0.0
O126 O 0.2331 0.18037 0.56925 0.0
C127 C 0.29252 0.22656 0.64014 0.0
O128 O 0.30262 0.14764 0.56044 0.0
O129 O 0.3298 0.19311 0.58669 0.0
In130 In 0.1774 0.10661 0.88798 0.0
O131 O 0.14556 0.12009 0.84548 0.0
O132 O 0.14927 0.07044 0.84064 0.0
C133 C 0.15115 0.09241 0.94222 0.0
C134 C 0.21556 0.07279 0.87125 0.0
C135 C 0.21481 0.16576 0.89827 0.0
O136 O 0.15739 0.07106 0.9213 0.0
O137 O 0.15734 0.12127 0.93543 0.0
O138 O 0.21941 0.14285 0.91464 0.0
O139 O 0.1904 0.15987 0.8792 0.0
C140 C 0.13865 0.09176 0.82688 0.0
O141 O 0.20868 0.07412 0.90082 0.0
O142 O 0.20326 0.0884 0.8507 0.0
In143 In 0.31816 0.99229 0.03828 0.0
O144 O 0.31009 0.94129 0.05291 0.0
O145 O 0.33764 0.98078 0.09056 0.0
C146 C 0.33719 0.96371 0.98526 0.0
C147 C 0.26513 1.00081 0.03468 0.0
C148 C 0.34683 0.05574 0.05444 0.0
O149 O 0.31165 0.96577 0.98279 0.0
O150 O 0.35312 0.97603 1.01452 0.0
O151 O 0.3373 0.04085 0.02357 0.0
O152 O 0.34236 0.03831 0.07765 0.0
C153 C 0.32571 0.95037 0.08301 0.0
O154 O 0.28026 1.01075 1.01365 0.0
O155 O 0.27606 0.98458 0.05566 0.0
In156 In 0.36629 0.43239 0.13569 0.0
O157 O 0.35857 0.38394 0.15831 0.0
O158 O 0.37296 0.42798 0.19482 0.0
C159 C 0.35126 0.39571 0.07068 0.0
C160 C 0.32311 0.46491 0.13502 0.0
C161 C 0.41973 0.4686 0.13432 0.0
O162 O 0.33992 0.41893 0.07997 0.0
O163 O 0.36981 0.39049 0.09434 0.0
O164 O 0.40527 0.47702 0.15617 0.0
O165 O 0.40771 0.44192 0.11419 0.0
C166 C 0.36477 0.39698 0.19007 0.0
O167 O 0.34757 0.4785 0.13115 0.0
O168 O 0.32065 0.4354 0.13967 0.0
In169 In 0.83143 0.14537 0.13797 0.0
O170 O 0.84109 0.12996 0.08528 0.0
O171 O 0.87477 0.13837 0.12966 0.0
C172 C 0.80144 0.08392 0.13338 0.0
C173 C 0.8403 0.17601 0.20425 0.0
C174 C 0.8139 0.19507 0.1118 0.0
O175 O 0.82473 0.09483 0.15489 0.0
O176 O 0.79324 0.1044 0.11558 0.0
O177 O 0.83954 0.19609 0.12392 0.0
O178 O 0.79669 0.16841 0.11228 0.0
C179 C 0.86656 0.12996 0.09691 0.0
O180 O 0.86037 0.17499 0.18806 0.0
O181 O 0.81632 0.15916 0.18793 0.0
In182 In 0.20548 0.54359 0.36996 0.0
O183 O 0.24596 0.51652 0.38329 0.0
O184 O 0.20927 0.48498 0.3555 0.0
C185 C 0.23921 0.60978 0.37111 0.0
C186 C 0.16816 0.54174 0.30312 0.0
C187 C 0.17601 0.54783 0.43042 0.0
O188 O 0.23838 0.58437 0.34959 0.0
O189 O 0.2246 0.60197 0.39368 0.0
O190 O 0.16493 0.54683 0.39862 0.0
O191 O 0.2018 0.54626 0.43222 0.0
C192 C 0.23505 0.48671 0.36904 0.0
O193 O 0.15997 0.5308 0.32924 0.0
O194 O 0.19481 0.55201 0.30987 0.0
In195 In 0.86919 0.93408 0.63643 0.0
O196 O 0.86132 0.88539 0.65834 0.0
O197 O 0.87603 0.92915 0.69532 0.0
C198 C 0.85452 0.89704 0.57152 0.0
C199 C 0.82552 0.96573 0.63572 0.0
C200 C 0.92256 0.97169 0.63732 0.0
O201 O 0.84292 0.92007 0.58058 0.0
O202 O 0.87333 0.8924 0.59522 0.0
O203 O 0.90686 0.98 0.65759 0.0
O204 O 0.91176 0.94444 0.61762 0.0
C205 C 0.86773 0.89814 0.69018 0.0
O206 O 0.84921 0.97883 0.62924 0.0
O207 O 0.82408 0.93714 0.64299 0.0
In208 In 0.97106 1.02272 0.32637 0.0
O209 O 0.98894 1.00685 0.27737 0.0
O210 O 0.99536 0.05772 0.29644 0.0
C211 C 1.00975 0.03806 0.38738 0.0
C212 C 0.93329 0.05959 0.33552 0.0
C213 C 0.9335 0.96402 0.31947 0.0
O214 O 1.00437 1.01025 0.36788 0.0
O215 O 0.99701 0.05847 0.37499 0.0
O216 O 0.92959 0.98532 0.30053 0.0
O217 O 0.95725 0.97127 0.34018 0.0
C218 C 0.99848 0.03604 0.27319 0.0
O219 O 0.94003 0.05293 0.30634 0.0
O220 O 0.94545 0.0475 0.35981 0.0
In221 In 0.35075 0.65529 0.65098 0.0
O222 O 0.35153 0.62902 0.5976 0.0
O223 O 0.38971 0.64043 0.63625 0.0
C224 C 0.31583 0.60668 0.66984 0.0
C225 C 0.37389 0.69546 0.7119 0.0
C226 C 0.32807 0.69934 0.61911 0.0
O227 O 0.33975 0.60338 0.66401 0.0
O228 O 0.30979 0.63394 0.66574 0.0
O229 O 0.35331 0.70517 0.63539 0.0
O230 O 0.3138 0.67049 0.618 0.0
C231 C 0.37727 0.6281 0.60514 0.0
O232 O 0.38423 0.69808 0.68487 0.0
O233 O 0.35571 0.66898 0.70947 0.0
In234 In 0.46388 0.52325 0.8144 0.0
O235 O 0.43354 0.54808 0.83956 0.0
O236 O 0.44093 0.55971 0.79049 0.0
C237 C 0.42657 0.46465 0.80901 0.0
C238 C 0.49418 0.53308 0.76295 0.0
C239 C 0.49862 0.53776 0.87855 0.0
O240 O 0.42126 0.48669 0.7917 0.0
O241 O 0.45136 0.47121 0.82714 0.0
O242 O 0.49588 0.51116 0.85789 0.0
O243 O 0.48516 0.55755 0.86611 0.0
C244 C 0.42847 0.56448 0.81556 0.0
O245 O 0.49679 0.55395 0.78993 0.0
O246 O 0.47741 0.50588 0.76254 0.0
In247 In 0.70679 0.04166 0.87343 0.0
O248 O 0.74842 1.01578 0.88491 0.0
O249 O 0.71135 0.98299 0.86071 0.0
C250 C 0.73937 0.10837 0.87439 0.0
C251 C 0.66911 0.03951 0.80642 0.0
C252 C 0.67765 0.04622 0.93439 0.0
O253 O 0.72576 0.10001 0.8977 0.0
O254 O 0.73803 0.08331 0.85212 0.0
O255 O 0.66584 0.04177 0.9023 0.0
O256 O 0.70403 0.04782 0.93626 0.0
C257 C 0.73763 0.98553 0.87233 0.0
O258 O 0.66107 1.02877 0.83273 0.0
O259 O 0.69576 0.04983 0.81312 0.0
In260 In 0.78323 0.698 0.07444 0.0
O261 O 0.80186 0.65189 0.08039 0.0
O262 O 0.82869 0.69436 0.07047 0.0
C263 C 0.72833 0.66343 0.07201 0.0
C264 C 0.79759 0.73387 0.13984 0.0
C265 C 0.78753 0.73423 0.02117 0.0
O266 O 0.74359 0.65455 0.05141 0.0
O267 O 0.74042 0.68958 0.09298 0.0
O268 O 0.79291 0.74688 0.05302 0.0
O269 O 0.7787 0.70327 1.01576 0.0
C270 C 0.82629 0.66514 0.07608 0.0
O271 O 0.8075 0.70926 0.13114 0.0
O272 O 0.78065 0.74074 0.11549 0.0
In273 In 0.94749 0.58457 0.8401 0.0
O274 O 0.90733 0.61214 0.8281 0.0
O275 O 0.94496 0.64352 0.85353 0.0
C276 C 0.91283 0.51888 0.83825 0.0
C277 C 0.9768 0.57911 0.77966 0.0
C278 C 0.98413 0.58678 0.90747 0.0
O279 O 0.91422 0.54419 0.8602 0.0
O280 O 0.9275 0.52654 0.81569 0.0
O281 O 0.99264 0.59769 0.8815 0.0
O282 O 0.95754 0.57603 0.90016 0.0
C283 C 0.91897 0.64202 0.84135 0.0
O284 O 0.98781 0.58006 0.81149 0.0
O285 O 0.95118 0.58141 0.77782 0.0
In286 In 0.84121 0.49961 0.56569 0.0
O287 O 0.8676 0.47866 0.60689 0.0
O288 O 0.82416 0.45422 0.58631 0.0
C289 C 0.84701 0.46091 0.5093 0.0
C290 C 0.80061 0.52136 0.5919 0.0
C291 C 0.86945 0.5589 0.55917 0.0
O292 O 0.82394 0.46958 0.51122 0.0
O293 O 0.86718 0.47308 0.53506 0.0
O294 O 0.84927 0.54176 0.53556 0.0
O295 O 0.87617 0.54548 0.58538 0.0
C296 C 0.84712 0.45465 0.60652 0.0
O297 O 0.82607 0.52773 0.60792 0.0
O298 O 0.79524 0.5035 0.56195 0.0
In299 In 0.67606 0.60265 0.3805 0.0
O300 O 0.71956 0.59057 0.38257 0.0
O301 O 0.68275 0.55195 0.36262 0.0
C302 C 0.71478 0.66033 0.38645 0.0
C303 C 0.64073 0.59246 0.31692 0.0
C304 C 0.65061 0.59019 0.43597 0.0
O305 O 0.71597 0.64179 0.40926 0.0
O306 O 0.69344 0.65054 0.36182 0.0
O307 O 0.6512 0.6167 0.42392 0.0
O308 O 0.66226 0.57072 0.42004 0.0
C309 C 0.70946 0.56057 0.36957 0.0
O310 O 0.64329 0.61767 0.33956 0.0
O311 O 0.65455 0.5722 0.32715 0.0
Tb312 Tb 0.0479 0.04337 0.08164 0.0
Tb313 Tb 0.09565 0.08756 0.12905 0.0
C314 C 0.99958 1.01277 0.048 0.0
C315 C 0.97543 1.02461 0.03151 0.0
C316 C 0.94832 1.01057 0.03651 0.0
C317 C 0.92726 1.02842 0.03342 0.0
C318 C 0.93341 0.06053 0.02575 0.0
C319 C 0.95921 0.07254 1.01601 0.0
C320 C 0.98014 0.0545 0.01865 0.0
C321 C 0.09382 0.0565 0.05404 0.0
C322 C 0.05335 0.12183 0.08762 0.0
C323 C 0.14574 0.11666 0.15558 0.0
C324 C 0.16989 0.11099 0.13997 0.0
C325 C 0.17032 0.11586 0.10531 0.0
C326 C 0.18511 0.09878 0.08511 0.0
C327 C 0.20016 0.07708 0.09945 0.0
C328 C 0.20269 0.07554 0.1353 0.0
C329 C 0.18762 0.09237 0.15543 0.0
C330 C 0.0511 0.07389 0.15874 0.0
C331 C 0.09046 1.00932 0.12119 0.0
O332 O 1.00587 1.02097 0.08204 0.0
O333 O 1.0221 1.0177 0.03409 0.0
O334 O 0.08479 0.07647 0.07348 0.0
O335 O 0.07667 1.0278 0.04946 0.0
O336 O 0.03683 0.09173 0.07709 0.0
O337 O 0.0788 0.1261 0.10702 0.0
O338 O 0.12813 0.13035 0.13725 0.0
O339 O 0.13232 0.09131 0.16697 0.0
O340 O 0.05917 0.05428 0.13771 0.0
O341 O 0.0694 0.10187 0.16499 0.0
O342 O 0.10789 0.03905 0.12736 0.0
O343 O 0.0637 1.00547 0.10608 0.0
H344 H 0.94435 0.98751 0.04641 0.0
H345 H 0.90746 1.01879 0.04118 0.0
H346 H 0.96411 0.09716 1.00975 0.0
H347 H 1.00085 0.06543 1.01409 0.0
H348 H 0.15715 0.13041 0.09263 0.0
H349 H 0.18304 0.10079 0.0577 0.0
H350 H 0.21514 0.05995 0.14736 0.0
H351 H 0.1878 0.0884 0.18211 0.0
Tb352 Tb 0.32822 0.80376 0.32031 0.0
Tb353 Tb 0.31816 0.82925 0.38602 0.0
C354 C 0.32952 0.79468 0.25624 0.0
C355 C 0.33001 0.81708 0.23052 0.0
C356 C 0.32169 0.84694 0.23726 0.0
C357 C 0.32266 0.86861 0.21325 0.0
C358 C 0.33161 0.86061 0.18184 0.0
C359 C 0.33967 0.83052 0.17496 0.0
C360 C 0.33902 0.80898 0.19927 0.0
C361 C 0.36632 0.79486 0.37235 0.0
C362 C 0.35232 0.8829 0.35004 0.0
C363 C 0.31285 0.84354 0.4484 0.0
C364 C 0.30502 0.82564 0.47608 0.0
C365 C 0.29234 0.79192 0.46841 0.0
C366 C 0.28931 0.77376 0.49528 0.0
C367 C 0.2986 0.78928 0.53035 0.0
C368 C 0.30873 0.82378 0.53779 0.0
C369 C 0.3122 0.84179 0.51078 0.0
C370 C 0.28105 0.83824 0.33263 0.0
C371 C 0.29661 0.74924 0.35821 0.0
O372 O 0.30621 0.78878 0.26851 0.0
O373 O 0.35214 0.80083 0.28095 0.0
O374 O 0.35632 0.8204 0.37089 0.0
O375 O 0.35563 0.77429 0.34348 0.0
O376 O 0.34478 0.85858 0.32252 0.0
O377 O 0.34609 0.87605 0.38018 0.0
O378 O 0.33671 0.84032 0.43938 0.0
O379 O 0.2927 0.84082 0.42132 0.0
O380 O 0.2903 0.8125 0.33554 0.0
O381 O 0.2927 0.85972 0.36043 0.0
O382 O 0.30215 0.77443 0.38477 0.0
O383 O 0.30382 0.75538 0.32821 0.0
H384 H 0.31421 0.85344 0.26098 0.0
H385 H 0.31588 0.89136 0.21897 0.0
H386 H 0.34674 0.82384 0.15096 0.0
H387 H 0.34553 0.78603 0.19369 0.0
H388 H 0.28603 0.77938 0.44172 0.0
H389 H 0.28157 0.74727 0.48839 0.0
H390 H 0.31543 0.83662 0.56451 0.0
H391 H 0.32162 0.86802 0.51705 0.0
Tb392 Tb 0.60418 0.06642 0.5962 0.0
Tb393 Tb 0.54688 0.05777 0.62156 0.0
C394 C 0.65592 0.06951 0.59514 0.0
C395 C 0.67956 0.05344 0.60597 0.0
C396 C 0.70656 0.07326 0.62128 0.0
C397 C 0.73009 0.05928 0.62823 0.0
C398 C 0.7273 1.02499 0.61993 0.0
C399 C 0.69999 1.00504 0.60553 0.0
C400 C 0.67642 1.01907 0.59861 0.0
C401 C 0.56279 0.07456 0.54349 0.0
C402 C 0.56474 0.99406 0.58907 0.0
C403 C 0.49528 0.05624 0.62256 0.0
C404 C 0.47269 0.0742 0.6119 0.0
C405 C 0.4526 0.0627 0.58046 0.0
C406 C 0.42965 0.07754 0.57224 0.0
C407 C 0.42602 0.10425 0.5953 0.0
C408 C 0.44638 0.11593 0.62652 0.0
C409 C 0.46926 0.10112 0.63471 0.0
C410 C 0.58865 0.0502 0.67454 0.0
C411 C 0.58563 0.13013 0.62725 0.0
O412 O 0.64716 0.08651 0.61972 0.0
O413 O 0.63493 0.05275 0.5701 0.0
O414 O 0.56094 0.06821 0.57422 0.0
O415 O 0.58949 0.07708 0.54305 0.0
O416 O 0.5902 1.01258 0.58957 0.0
O417 O 0.54399 1.00667 0.59859 0.0
O418 O 0.50378 0.03888 0.59797 0.0
O419 O 0.51639 0.07159 0.64815 0.0
O420 O 0.59025 0.05629 0.64366 0.0
O421 O 0.56189 0.04739 0.67493 0.0
O422 O 0.5604 0.11143 0.62716 0.0
O423 O 0.60661 0.11767 0.61824 0.0
H424 H 0.70961 0.09981 0.62716 0.0
H425 H 0.75055 0.07546 0.63992 0.0
H426 H 0.69691 0.9786 0.59846 0.0
H427 H 0.6559 1.00308 0.58669 0.0
H428 H 0.45431 0.0418 0.5624 0.0
H429 H 0.41469 0.06799 0.54779 0.0
H430 H 0.44422 0.13598 0.64533 0.0
H431 H 0.48391 0.11038 0.65946 0.0
Tb432 Tb 0.29296 0.32332 0.84855 0.0
Tb433 Tb 0.35114 0.30473 0.86059 0.0
C434 C 0.24258 0.32822 0.8491 0.0
C435 C 0.21941 0.32069 0.86893 0.0
C436 C 0.1942 0.29756 0.85256 0.0
C437 C 0.17087 0.29209 0.86897 0.0
C438 C 0.17199 0.30969 0.90229 0.0
C439 C 0.19752 0.33231 0.91908 0.0
C440 C 0.22091 0.33782 0.90258 0.0
C441 C 0.33517 0.3651 0.83286 0.0
C442 C 0.33093 0.33547 0.92546 0.0
C443 C 0.40178 0.30073 0.85999 0.0
C444 C 0.42491 0.30799 0.83993 0.0
C445 C 0.44938 0.33282 0.85505 0.0
C446 C 0.47279 0.3381 0.83871 0.0
C447 C 0.47254 0.31861 0.80673 0.0
C448 C 0.44775 0.29422 0.79117 0.0
C449 C 0.42428 0.2889 0.80759 0.0
C450 C 0.30869 0.2628 0.87586 0.0
C451 C 0.31253 0.29108 0.78395 0.0
O452 O 0.24927 0.30303 0.83208 0.0
O453 O 0.26494 0.35195 0.86329 0.0
O454 O 0.33657 0.34888 0.85752 0.0
O455 O 0.30875 0.36097 0.81816 0.0
O456 O 0.30517 0.32962 0.90572 0.0
O457 O 0.35327 0.33083 0.91251 0.0
O458 O 0.39472 0.32606 0.87625 0.0
O459 O 0.37965 0.27645 0.84654 0.0
O460 O 0.30763 0.27935 0.8515 0.0
O461 O 0.33509 0.2666 0.89061 0.0
O462 O 0.33846 0.29757 0.80341 0.0
O463 O 0.29034 0.2959 0.7971 0.0
H464 H 0.19231 0.28407 0.82658 0.0
H465 H 0.15186 0.27407 0.85541 0.0
H466 H 0.19919 0.34657 0.94458 0.0
H467 H 0.23991 0.35598 0.91592 0.0
H468 H 0.45067 0.34783 0.88004 0.0
H469 H 0.49119 0.35746 0.85131 0.0
H470 H 0.44675 0.27848 0.76675 0.0
H471 H 0.40593 0.26936 0.79527 0.0
Tb472 Tb 0.07155 0.10064 0.61161 0.0
Tb473 Tb 0.07699 1.02817 0.60157 0.0
C474 C 0.07585 0.16116 0.61279 0.0
C475 C 0.08234 0.18501 0.58983 0.0
C476 C 0.08768 0.17514 0.55667 0.0
C477 C 0.09142 0.19787 0.53397 0.0
C478 C 0.09002 0.23069 0.54435 0.0
C479 C 0.08584 0.24063 0.57819 0.0
C480 C 0.08199 0.21788 0.60074 0.0
C481 C 1.02895 0.05684 0.62449 0.0
C482 C 0.05794 0.05867 0.53508 0.0
C483 C 0.06536 0.96669 0.59551 0.0
C484 C 0.07841 0.94205 0.61042 0.0
C485 C 0.0972 0.95058 0.6428 0.0
C486 C 0.10708 0.92623 0.65866 0.0
C487 C 0.09855 0.89302 0.64219 0.0
C488 C 0.0811 0.885 0.60869 0.0
C489 C 0.071 0.9094 0.59299 0.0
C490 C 0.12614 0.06869 0.59858 0.0
C491 C 0.09462 0.07167 0.67764 0.0
O492 O 0.09688 0.14852 0.62554 0.0
O493 O 0.05183 0.13908 0.60184 0.0
O494 O 0.04284 0.05286 0.60061 0.0
O495 O 0.03771 0.08703 0.64059 0.0
O496 O 0.06524 0.08848 0.55447 0.0
O497 O 0.05748 0.03162 0.54896 0.0
O498 O 0.05606 0.98606 0.61753 0.0
O499 O 0.07904 0.98263 0.57469 0.0
O500 O 0.10308 0.07532 0.60329 0.0
O501 O 0.1223 0.03702 0.597 0.0
O502 O 0.08721 0.04157 0.65875 0.0
O503 O 0.09357 0.09847 0.66356 0.0
H504 H 0.08829 0.14981 0.54807 0.0
H505 H 0.09482 0.18967 0.50811 0.0
H506 H 0.08424 0.26563 0.58671 0.0
H507 H 0.07791 0.22576 0.62634 0.0
H508 H 0.1033 0.97584 0.65643 0.0
H509 H 0.12014 0.93327 0.68466 0.0
H510 H 0.07455 0.85974 0.59512 0.0
H511 H 0.05673 0.90262 0.56773 0.0
Tb512 Tb 0.34417 0.81066 0.84563 0.0
Tb513 Tb 0.33582 0.8651 0.80244 0.0
C514 C 0.34078 0.75565 0.86508 0.0
C515 C 0.35154 0.72656 0.85494 0.0
C516 C 0.33661 0.69545 0.85848 0.0
C517 C 0.34647 0.66743 0.8487 0.0
C518 C 0.37142 0.67017 0.83516 0.0
C519 C 0.38597 0.70139 0.83089 0.0
C520 C 0.37609 0.7294 0.84071 0.0
C521 C 0.3588 0.87159 0.88075 0.0
C522 C 0.39475 0.84749 0.8184 0.0
C523 C 0.32858 0.91815 0.78417 0.0
C524 C 0.31241 0.94179 0.7955 0.0
C525 C 0.29186 0.93279 0.81533 0.0
C526 C 0.2781 0.95582 0.82892 0.0
C527 C 0.28471 0.98844 0.82291 0.0
C528 C 0.3052 0.99745 0.80269 0.0
C529 C 0.31905 0.97423 0.78917 0.0
C530 C 0.33924 0.80916 0.76627 0.0
C531 C 0.28487 0.82974 0.83559 0.0
O532 O 0.32168 0.7618 0.84109 0.0
O533 O 0.35978 0.78226 0.88094 0.0
O534 O 0.33873 0.85953 0.85538 0.0
O535 O 0.37021 0.84787 0.88967 0.0
O536 O 0.38194 0.81825 0.82372 0.0
O537 O 0.38171 0.87205 0.81649 0.0
O538 O 0.34989 0.9162 0.80822 0.0
O539 O 0.3136 0.88906 0.76759 0.0
O540 O 0.32826 0.81304 0.79264 0.0
O541 O 0.34668 0.83771 0.75712 0.0
O542 O 0.29337 0.84993 0.81413 0.0
O543 O 0.30181 0.81366 0.85244 0.0
H544 H 0.31738 0.69287 0.86896 0.0
H545 H 0.33466 0.64362 0.85188 0.0
H546 H 0.40537 0.7043 0.82081 0.0
H547 H 0.38766 0.75324 0.83728 0.0
H548 H 0.28685 0.90808 0.82092 0.0
H549 H 0.26211 0.94798 0.84391 0.0
H550 H 0.31081 1.02252 0.79783 0.0
H551 H 0.33521 0.9817 0.77429 0.0
Tb552 Tb 0.56395 0.08214 0.09195 0.0
Tb553 Tb 0.59734 0.04707 0.1341 0.0
C554 C 0.52484 0.10183 0.05735 0.0
C555 C 0.50111 0.11511 0.0666 0.0
C556 C 0.48735 0.10318 0.09232 0.0
C557 C 0.46275 0.11232 0.09821 0.0
C558 C 0.4508 0.1331 0.07784 0.0
C559 C 0.46612 0.14761 0.05435 0.0
C560 C 0.49114 0.13857 0.04872 0.0
C561 C 0.60554 0.12146 0.13956 0.0
C562 C 0.54609 0.06708 0.1674 0.0
C563 C 0.63529 1.02835 0.17208 0.0
C564 C 0.65836 1.01213 0.16751 0.0
C565 C 0.68269 1.02007 0.19382 0.0
C566 C 0.70777 1.01276 0.1868 0.0
C567 C 0.70884 0.99759 0.15311 0.0
C568 C 0.68314 0.98484 0.12879 0.0
C569 C 0.65809 0.99272 0.13567 0.0
C570 C 0.55573 1.00789 0.08595 0.0
C571 C 0.6148 0.06148 0.05786 0.0
O572 O 0.52355 0.07079 0.06013 0.0
O573 O 0.55012 0.12056 0.0701 0.0
O574 O 0.58974 0.09499 0.14289 0.0
O575 O 0.59872 0.12578 0.10753 0.0
O576 O 0.53837 0.07472 0.13553 0.0
O577 O 0.5707 0.05794 0.17368 0.0
O578 O 0.63851 0.05804 0.16399 0.0
O579 O 0.60952 1.01043 0.16042 0.0
O580 O 0.57157 0.03448 0.08337 0.0
O581 O 0.56325 1.00244 0.1174 0.0
O582 O 0.62263 0.05317 0.0896 0.0
O583 O 0.59053 0.0716 0.0522 0.0
H584 H 0.4943 0.08486 0.10623 0.0
H585 H 0.45168 0.10005 0.11619 0.0
H586 H 0.45769 0.16397 0.03849 0.0
H587 H 0.5018 0.14849 0.02912 0.0
H588 H 0.68301 0.03465 0.21875 0.0
H589 H 0.72683 1.02285 0.20653 0.0
H590 H 0.68297 0.97206 0.10303 0.0
H591 H 0.63921 0.9859 0.11521 0.0
Tb592 Tb 0.30111 0.29277 0.33607 0.0
Tb593 Tb 0.35132 0.33717 0.37796 0.0
C594 C 0.2498 0.26414 0.32118 0.0
C595 C 0.22717 0.27919 0.33144 0.0
C596 C 0.23325 0.30124 0.3631 0.0
C597 C 0.21492 0.32108 0.37066 0.0
C598 C 0.18897 0.31825 0.34775 0.0
C599 C 0.18217 0.29469 0.31674 0.0
C600 C 0.20136 0.27577 0.30839 0.0
C601 C 0.33482 0.32124 0.29786 0.0
C602 C 0.29839 0.37138 0.36457 0.0
C603 C 0.40229 0.36741 0.39406 0.0
C604 C 0.42599 0.3556 0.38258 0.0
C605 C 0.42087 0.33457 0.35034 0.0
C606 C 0.44196 0.32019 0.34022 0.0
C607 C 0.46907 0.3272 0.3616 0.0
C608 C 0.47438 0.34874 0.39376 0.0
C609 C 0.45287 0.36265 0.4043 0.0
C610 C 0.31759 0.30746 0.41581 0.0
C611 C 0.3544 0.25902 0.34898 0.0
O612 O 0.26763 0.25872 0.34723 0.0
O613 O 0.2629 0.27818 0.29876 0.0
O614 O 0.32933 0.3344 0.32592 0.0
O615 O 0.32003 0.2909 0.28964 0.0
O616 O 0.28526 0.3404 0.34856 0.0
O617 O 0.32601 0.37655 0.37863 0.0
O618 O 0.38405 0.37358 0.36898 0.0
O619 O 0.38974 0.35029 0.41486 0.0
O620 O 0.32343 0.29515 0.38771 0.0
O621 O 0.3321 0.33789 0.42445 0.0
O622 O 0.36772 0.29028 0.36386 0.0
O623 O 0.32648 0.2534 0.33618 0.0
H624 H 0.25305 0.30454 0.38151 0.0
H625 H 0.2219 0.33933 0.39418 0.0
H626 H 0.16215 0.29078 0.2987 0.0
H627 H 0.19628 0.25898 0.28374 0.0
H628 H 0.40027 0.32863 0.33304 0.0
H629 H 0.43678 0.30321 0.31571 0.0
H630 H 0.49515 0.35508 0.41066 0.0
H631 H 0.45714 0.37865 0.42936 0.0
Tb632 Tb 0.56451 0.59958 0.10395 0.0
Tb633 Tb 0.57786 0.53711 0.09148 0.0
C634 C 0.55672 0.65702 0.10394 0.0
C635 C 0.54388 0.67455 0.07819 0.0
C636 C 0.54871 0.7089 0.08558 0.0
C637 C 0.53849 0.7262 0.06024 0.0
C638 C 0.52366 0.70931 0.02706 0.0
C639 C 0.51796 0.67476 0.02013 0.0
C640 C 0.52771 0.65744 0.0458 0.0
C641 C 0.52626 0.55164 0.11861 0.0
C642 C 0.54751 0.55807 0.02658 0.0
C643 C 0.58578 0.47968 0.09079 0.0
C644 C 0.59818 0.46165 0.11624 0.0
C645 C 0.59283 0.42728 0.10841 0.0
C646 C 0.60272 0.40949 0.13341 0.0
C647 C 0.61777 0.42592 0.16666 0.0
C648 C 0.62388 0.46049 0.17406 0.0
C649 C 0.6144 0.47829 0.14877 0.0
C650 C 0.61657 0.58551 0.07789 0.0
C651 C 0.59404 0.57784 0.169 0.0
O652 O 0.58 0.64861 0.0984 0.0
O653 O 0.53926 0.63319 0.11273 0.0
O654 O 0.53791 0.55001 0.09221 0.0
O655 O 0.5359 0.58068 0.13713 0.0
O656 O 0.55382 0.58763 0.04621 0.0
O657 O 0.55144 0.53224 0.04064 0.0
O658 O 0.56235 0.48784 0.09606 0.0
O659 O 0.60345 0.50386 0.08288 0.0
O660 O 0.60458 0.58663 0.10399 0.0
O661 O 0.6066 0.55684 0.05866 0.0
O662 O 0.58782 0.54846 0.14906 0.0
O663 O 0.59051 0.604 0.1552 0.0
H664 H 0.56102 0.72239 0.11058 0.0
H665 H 0.54345 0.7529 0.06597 0.0
H666 H 0.50654 0.6613 0.99472 0.0
H667 H 0.52316 0.63082 0.04016 0.0
H668 H 0.58042 0.41417 0.0833 0.0
H669 H 0.59747 0.3828 0.12731 0.0
H670 H 0.63555 0.4736 0.19951 0.0
H671 H 0.61923 0.50492 0.15478 0.0
Tb672 Tb 0.83422 0.29007 0.37142 0.0
Tb673 Tb 0.8306 0.34595 0.32982 0.0
C674 C 0.82784 0.23372 0.38803 0.0
C675 C 0.84076 0.20622 0.37909 0.0
C676 C 0.85857 0.20804 0.35474 0.0
C677 C 0.87105 0.18197 0.34611 0.0
C678 C 0.8659 0.15366 0.36174 0.0
C679 C 0.84768 0.15179 0.38581 0.0
C680 C 0.83517 0.17797 0.39442 0.0
C681 C 0.84911 0.35032 0.4084 0.0
C682 C 0.88804 0.32598 0.34955 0.0
C683 C 0.82614 0.3994 0.31034 0.0
C684 C 0.80936 0.4233 0.31849 0.0
C685 C 0.78995 0.41682 0.34036 0.0
C686 C 0.77422 0.43959 0.34902 0.0
C687 C 0.77785 0.46943 0.33605 0.0
C688 C 0.79766 0.47617 0.31445 0.0
C689 C 0.81331 0.45311 0.30564 0.0
C690 C 0.83356 0.29017 0.29337 0.0
C691 C 0.77638 0.31169 0.35783 0.0
O692 O 0.81167 0.24091 0.3616 0.0
O693 O 0.84503 0.25998 0.40767 0.0
O694 O 0.82983 0.33949 0.38196 0.0
O695 O 0.85964 0.32593 0.41723 0.0
O696 O 0.87381 0.29676 0.35313 0.0
O697 O 0.87586 0.35118 0.34731 0.0
O698 O 0.8454 0.39703 0.33677 0.0
O699 O 0.81163 0.37051 0.29279 0.0
O700 O 0.82074 0.29362 0.3181 0.0
O701 O 0.84364 0.3189 0.28621 0.0
O702 O 0.78709 0.33281 0.33847 0.0
O703 O 0.79139 0.29377 0.37473 0.0
H704 H 0.86298 0.22973 0.3426 0.0
H705 H 0.8853 0.18437 0.32789 0.0
H706 H 0.84313 0.13013 0.39797 0.0
H707 H 0.82125 0.17622 0.41307 0.0
H708 H 0.78715 0.39421 0.35088 0.0
H709 H 0.75941 0.43401 0.36613 0.0
H710 H 0.8007 0.49898 0.304 0.0
H711 H 0.82846 0.45854 0.28891 0.0
Tb712 Tb 0.06267 0.58543 0.58813 0.0
Tb713 Tb 0.09169 0.54171 0.62465 0.0
C714 C 0.03676 0.61514 0.54711 0.0
C715 C 1.0169 0.63623 0.55122 0.0
C716 C 1.00867 0.64156 0.58337 0.0
C717 C 0.98258 0.64918 0.58474 0.0
C718 C 0.96427 0.65116 0.55373 0.0
C719 C 0.97566 0.653 0.52325 0.0
C720 C 1.00159 0.64458 0.52174 0.0
C721 C 0.0963 0.61498 0.64727 0.0
C722 C 0.0404 0.56392 0.65735 0.0
C723 C 0.12469 0.51334 0.6588 0.0
C724 C 0.15463 0.51212 0.66314 0.0
C725 C 0.17012 0.51344 0.69678 0.0
C726 C 0.19958 0.51838 0.70261 0.0
C727 C 0.21383 0.52197 0.67477 0.0
C728 C 0.19798 0.51768 0.64063 0.0
C729 C 0.16857 0.51296 0.63486 0.0
C730 C 0.0447 0.51113 0.57837 0.0
C731 C 0.11307 0.56106 0.5536 0.0
O732 O 1.02694 0.58448 0.55074 0.0
O733 O 0.06296 0.62718 0.56404 0.0
O734 O 0.10197 0.5936 0.62557 0.0
O735 O 0.07256 0.62178 0.63504 0.0
O736 O 0.03294 0.57281 0.62597 0.0
O737 O 0.0645 0.55348 0.66324 0.0
O738 O 0.11998 0.54186 0.67082 0.0
O739 O 0.10854 0.50003 0.62833 0.0
O740 O 0.06338 0.5355 0.57629 0.0
O741 O 0.05181 0.50381 0.6091 0.0
O742 O 0.11775 0.54644 0.58181 0.0
O743 O 0.09256 0.57783 0.55141 0.0
H744 H 1.02065 0.63582 0.60659 0.0
H745 H 0.97556 0.64857 0.60928 0.0
H746 H 0.96308 0.65665 0.49936 0.0
H747 H 1.00816 0.64139 0.49684 0.0
H748 H 0.1596 0.51265 0.71885 0.0
H749 H 0.21137 0.52165 0.72913 0.0
H750 H 0.20843 0.52086 0.61874 0.0
H751 H 0.157 0.51192 0.60864 0.0
Tb752 Tb 0.79577 0.82267 0.34992 0.0
Tb753 Tb 0.85395 0.80369 0.36238 0.0
C754 C 0.7448 0.82574 0.34925 0.0
C755 C 0.72137 0.8187 0.36882 0.0
C756 C 0.69637 0.79519 0.35251 0.0
C757 C 0.67276 0.78998 0.36848 0.0
C758 C 0.67337 0.80822 0.4013 0.0
C759 C 0.6987 0.83126 0.41805 0.0
C760 C 0.72237 0.83652 0.40198 0.0
C761 C 0.83885 0.86554 0.33764 0.0
C762 C 0.83303 0.83337 0.42731 0.0
C763 C 0.90468 0.79987 0.36249 0.0
C764 C 0.92787 0.80774 0.3427 0.0
C765 C 0.95275 0.83148 0.35893 0.0
C766 C 0.97606 0.83751 0.3425 0.0
C767 C 0.97525 0.81987 0.3093 0.0
C768 C 0.95006 0.79656 0.29269 0.0
C769 C 0.92669 0.7905 0.3092 0.0
C770 C 0.81053 0.76078 0.3741 0.0
C771 C 0.81721 0.79411 0.2849 0.0
O772 O 0.75242 0.80026 0.33419 0.0
O773 O 0.76656 0.85055 0.36246 0.0
O774 O 0.83941 0.84793 0.36111 0.0
O775 O 0.81268 0.86213 0.32212 0.0
O776 O 0.80749 0.82841 0.40718 0.0
O777 O 0.85541 0.82827 0.41472 0.0
O778 O 0.89746 0.82493 0.37903 0.0
O779 O 0.88265 0.77563 0.34849 0.0
O780 O 0.8104 0.77852 0.35082 0.0
O781 O 0.83659 0.76412 0.39 0.0
O782 O 0.84264 0.79892 0.30522 0.0
O783 O 0.79466 0.79883 0.29733 0.0
H784 H 0.69485 0.78115 0.32691 0.0
H785 H 0.65395 0.77163 0.35497 0.0
H786 H 0.69999 0.846 0.44318 0.0
H787 H 0.7412 0.85498 0.41524 0.0
H788 H 0.95441 0.84509 0.38478 0.0
H789 H 0.99478 0.85603 0.35595 0.0
H790 H 0.94863 0.78223 0.26729 0.0
H791 H 0.90796 0.77189 0.29596 0.0
Tb792 Tb 0.82904 0.30082 0.82345 0.0
Tb793 Tb 0.81683 0.32824 0.88605 0.0
C794 C 0.83542 0.28718 0.76157 0.0
C795 C 0.84432 0.30728 0.73589 0.0
C796 C 0.86404 0.33767 0.7466 0.0
C797 C 0.86816 0.35956 0.72316 0.0
C798 C 0.85274 0.35124 0.68861 0.0
C799 C 0.83494 0.31953 0.67727 0.0
C800 C 0.83061 0.29782 0.70084 0.0
C801 C 0.86573 0.2943 0.8783 0.0
C802 C 0.8522 0.38058 0.84966 0.0
C803 C 0.8092 0.34449 0.94703 0.0
C804 C 0.79999 0.32737 0.97458 0.0
C805 C 0.78455 0.29453 0.9667 0.0
C806 C 0.78032 0.27656 0.99348 0.0
C807 C 0.7913 0.29136 0.02854 0.0
C808 C 0.80429 0.32523 0.03629 0.0
C809 C 0.80883 0.34304 1.00941 0.0
C810 C 0.78047 0.3348 0.83074 0.0
C811 C 0.79533 0.24809 0.86095 0.0
O812 O 0.81123 0.28991 0.76987 0.0
O813 O 0.85475 0.28799 0.78897 0.0
O814 O 0.85616 0.3198 0.87441 0.0
O815 O 0.85451 0.27195 0.85106 0.0
O816 O 0.84591 0.35526 0.82321 0.0
O817 O 0.84473 0.37484 0.87954 0.0
O818 O 0.83353 0.34079 0.93988 0.0
O819 O 0.79004 0.3414 0.91884 0.0
O820 O 0.78972 0.3092 0.83513 0.0
O821 O 0.79219 0.35742 0.85753 0.0
O822 O 0.80127 0.27366 0.88716 0.0
O823 O 0.80234 0.25376 0.8308 0.0
H824 H 0.87521 0.34521 0.77348 0.0
H825 H 0.88202 0.38374 0.73273 0.0
H826 H 0.8233 0.31209 0.65055 0.0
H827 H 0.81551 0.2743 0.69209 0.0
H828 H 0.77702 0.28232 0.93989 0.0
H829 H 0.77039 0.25051 0.98649 0.0
H830 H 0.81246 0.33746 0.06307 0.0
H831 H 0.82044 0.36858 1.01583 0.0
Tb832 Tb 0.80519 0.79331 0.83653 0.0
Tb833 Tb 0.85669 0.83766 0.87674 0.0
C834 C 0.75417 0.76371 0.82214 0.0
C835 C 0.73128 0.77608 0.83511 0.0
C836 C 0.73705 0.79496 0.86874 0.0
C837 C 0.71717 0.81087 0.87996 0.0
C838 C 0.69085 0.80799 0.85803 0.0
C839 C 0.68481 0.78851 0.82457 0.0
C840 C 0.70498 0.7728 0.81313 0.0
C841 C 0.83811 0.82156 0.79719 0.0
C842 C 0.80295 0.87159 0.86581 0.0
C843 C 0.9083 0.86647 0.89099 0.0
C844 C 0.93259 0.85369 0.88205 0.0
C845 C 0.92864 0.83079 0.85135 0.0
C846 C 0.95089 0.81747 0.84294 0.0
C847 C 0.97807 0.82727 0.86447 0.0
C848 C 0.98204 0.85015 0.89542 0.0
C849 C 0.95942 0.86312 0.90419 0.0
C850 C 0.82343 0.80987 0.91596 0.0
C851 C 0.8579 0.7587 0.84802 0.0
O852 O 0.77286 0.7568 0.84618 0.0
O853 O 0.76614 0.78082 0.80089 0.0
O854 O 0.83323 0.83466 0.82558 0.0
O855 O 0.823 0.7914 0.78912 0.0
O856 O 0.78927 0.84019 0.85201 0.0
O857 O 0.83119 0.87723 0.87691 0.0
O858 O 0.89029 0.87047 0.86429 0.0
O859 O 0.89536 0.85214 0.91336 0.0
O860 O 0.82853 0.79656 0.88779 0.0
O861 O 0.83871 0.83999 0.9241 0.0
O862 O 0.87174 0.78977 0.86296 0.0
O863 O 0.83002 0.75362 0.83562 0.0
H864 H 0.75738 0.7984 0.8861 0.0
H865 H 0.72275 0.8261 0.90559 0.0
H866 H 0.66452 0.7854 0.80725 0.0
H867 H 0.70029 0.75867 0.78698 0.0
H868 H 0.90824 0.82305 0.83364 0.0
H869 H 0.94666 0.79935 0.81938 0.0
H870 H 1.00269 0.85853 0.9125 0.0
H871 H 0.96293 0.88065 0.92809 0.0
Tb872 Tb 0.54826 0.53799 0.57425 0.0
Tb873 Tb 0.59541 0.58297 0.62274 0.0
C874 C 0.50044 0.50687 0.53946 0.0
C875 C 0.47582 0.51816 0.52343 0.0
C876 C 0.44911 0.50381 0.52945 0.0
C877 C 0.42806 0.52167 0.52816 0.0
C878 C 0.43381 0.55405 0.52114 0.0
C879 C 0.45877 0.56601 0.50946 0.0
C880 C 0.47978 0.54809 0.5106 0.0
C881 C 0.59452 0.55287 0.54804 0.0
C882 C 0.55274 0.61684 0.58129 0.0
C883 C 0.64435 0.61384 0.65397 0.0
C884 C 0.67128 0.60358 0.66003 0.0
C885 C 0.69539 0.62347 0.65263 0.0
C886 C 0.71862 0.61029 0.64781 0.0
C887 C 0.71769 0.577 0.64994 0.0
C888 C 0.69461 0.55801 0.66036 0.0
C889 C 0.67166 0.57139 0.66576 0.0
C890 C 0.54957 0.56934 0.64979 0.0
C891 C 0.58999 0.5043 0.61687 0.0
O892 O 0.50643 0.51407 0.5736 0.0
O893 O 0.52308 0.5133 0.52593 0.0
O894 O 0.58467 0.57218 0.56719 0.0
O895 O 0.5782 0.52363 0.54335 0.0
O896 O 0.53694 0.58641 0.56953 0.0
O897 O 0.57777 0.62163 0.60203 0.0
O898 O 0.63427 0.61347 0.62101 0.0
O899 O 0.62476 0.60069 0.67007 0.0
O900 O 0.55862 0.54932 0.63021 0.0
O901 O 0.56679 0.59808 0.65471 0.0
O902 O 0.60688 0.53439 0.62548 0.0
O903 O 0.5641 0.49986 0.59846 0.0
H904 H 0.44569 0.48064 0.53921 0.0
H905 H 0.4089 0.51191 0.53722 0.0
H906 H 0.46335 0.59076 0.50347 0.0
H907 H 0.50014 0.55933 0.50525 0.0
H908 H 0.69539 0.64833 0.64794 0.0
H909 H 0.73629 0.62532 0.63975 0.0
H910 H 0.69372 0.53238 0.66256 0.0
H911 H 0.65347 0.55588 0.67205 0.0
Tb912 Tb 0.10419 0.57038 0.09408 0.0
Tb913 Tb 0.04668 0.56209 0.11917 0.0
C914 C 0.1559 0.57277 0.09331 0.0
C915 C 0.17906 0.55598 0.10423 0.0
C916 C 0.20584 0.57504 0.1217 0.0
C917 C 0.22903 0.56048 0.12884 0.0
C918 C 0.22612 0.52637 0.11858 0.0
C919 C 0.199 0.50716 0.10194 0.0
C920 C 0.17579 0.52174 0.09486 0.0
C921 C 0.06281 0.57751 0.04076 0.0
C922 C 0.06491 0.49823 0.08802 0.0
C923 C 0.99498 0.55955 0.12035 0.0
C924 C 0.97145 0.57582 0.10928 0.0
C925 C 0.94456 0.55622 0.09303 0.0
C926 C 0.92113 0.57036 0.08571 0.0
C927 C 0.92389 0.60462 0.09456 0.0
C928 C 0.9511 0.62433 0.11005 0.0
C929 C 0.97456 0.61014 0.11732 0.0
C930 C 0.08825 0.55433 0.17213 0.0
C931 C 0.08565 0.63434 0.12475 0.0
O932 O 0.14722 0.58996 0.11785 0.0
O933 O 0.1349 0.55653 0.06803 0.0
O934 O 0.06089 0.57175 0.07166 0.0
O935 O 0.08958 0.58019 0.04056 0.0
O936 O 0.09038 0.51667 0.08855 0.0
O937 O 0.04398 0.51093 0.09681 0.0
O938 O 1.00359 0.54208 0.09597 0.0
O939 O 1.01609 0.57634 0.14522 0.0
O940 O 0.08991 0.56043 0.14132 0.0
O941 O 0.06154 0.55182 0.17259 0.0
O942 O 0.06029 0.61576 0.12442 0.0
O943 O 0.10664 0.62173 0.11594 0.0
H944 H 0.20902 0.60147 0.12915 0.0
H945 H 0.24932 0.5761 0.14225 0.0
H946 H 0.19583 0.48091 0.09328 0.0
H947 H 0.15547 0.5063 0.08125 0.0
H948 H 0.94149 0.5297 0.08663 0.0
H949 H 0.90078 0.55434 0.07322 0.0
H950 H 0.95419 0.65071 0.11763 0.0
H951 H 0.99495 0.626 0.13 0.0
C952 C 0.0518 0.21161 0.08057 0.0
C953 C 0.03256 0.20861 0.04888 0.0
H954 H 0.07335 0.18701 0.11748 0.0
C955 C 1.01876 0.17654 0.03121 0.0
H956 H 0.06297 0.23576 0.09492 0.0
C957 C 1.02456 0.14843 0.04439 0.0
C958 C 0.04451 0.15143 0.07546 0.0
H959 H 1.00392 0.17313 1.00666 0.0
H960 H 1.01431 0.12436 0.02938 0.0
C961 C 0.05782 0.18352 0.0935 0.0
C962 C 0.21294 0.86474 0.29933 0.0
C963 C 0.20094 0.84214 0.26831 0.0
H964 H 0.2476 0.88166 0.34318 0.0
C965 C 0.21595 0.81846 0.25802 0.0
H966 H 0.20207 0.88332 0.30807 0.0
C967 C 0.24192 0.81698 0.27866 0.0
C968 C 0.25387 0.83965 0.3097 0.0
H969 H 0.20729 0.80055 0.23435 0.0
H970 H 0.25259 0.79809 0.27035 0.0
C971 C 0.23914 0.86377 0.31945 0.0
C972 C 0.57072 0.91154 0.54142 0.0
C973 C 0.54758 0.88919 0.54825 0.0
H974 H 0.59452 0.96155 0.54926 0.0
C975 C 0.5306 0.90143 0.56982 0.0
H976 H 0.58428 0.90301 0.52497 0.0
C977 C 0.53615 0.93535 0.5833 0.0
C978 C 0.55922 0.95775 0.57619 0.0
H979 H 0.51253 0.88493 0.57546 0.0
H980 H 0.52231 0.94404 0.59921 0.0
C981 C 0.57663 0.9452 0.55547 0.0
C982 C 0.51943 0.32445 0.73829 0.0
C983 C 0.54695 0.33109 0.75884 0.0
H984 H 0.47468 0.31568 0.73696 0.0
C985 C 0.54984 0.33401 0.7953 0.0
H986 H 0.51636 0.32206 0.71011 0.0
C987 C 0.52583 0.3302 0.81076 0.0
C988 C 0.49822 0.32328 0.7902 0.0
H989 H 0.57066 0.33895 0.81193 0.0
H990 H 0.52894 0.33206 0.83888 0.0
C991 C 0.49544 0.32056 0.75371 0.0
C992 C 0.08782 0.81679 0.68406 0.0
C993 C 0.11283 0.8236 0.70946 0.0
H994 H 0.06351 0.83377 0.643 0.0
C995 C 0.1348 0.85067 0.70921 0.0
H996 H 0.07062 0.79594 0.68369 0.0
C997 C 0.13104 0.87198 0.68538 0.0
C998 C 0.10506 0.86684 0.66184 0.0
H999 H 0.15451 0.85606 0.72823 0.0
H1000 H 0.14801 0.89327 0.68644 0.0
C1001 C 0.08388 0.83836 0.66056 0.0
C1002 C 0.4665 0.83012 0.82182 0.0
C1003 C 0.48351 0.86085 0.8389 0.0
H1004 H 0.42428 0.80177 0.80172 0.0
C1005 C 0.47181 0.88873 0.8405 0.0
H1006 H 0.47514 0.80834 0.81963 0.0
C1007 C 0.44262 0.88496 0.83015 0.0
C1008 C 0.42512 0.85332 0.81829 0.0
H1009 H 0.48461 0.9128 0.85312 0.0
H1010 H 0.43362 0.90624 0.83482 0.0
C1011 C 0.43738 0.82632 0.81178 0.0
C1012 C 0.61543 0.20791 0.18647 0.0
C1013 C 0.61158 0.2022 0.21993 0.0
H1014 H 0.61771 0.18686 0.13491 0.0
C1015 C 0.61032 0.17048 0.22812 0.0
H1016 H 0.61706 0.2323 0.17962 0.0
C1017 C 0.61097 0.14446 0.20252 0.0
C1018 C 0.61286 0.14978 0.16835 0.0
H1019 H 0.60784 0.16552 0.25388 0.0
H1020 H 0.60839 0.11986 0.20897 0.0
C1021 C 0.6162 0.18198 0.16095 0.0
C1022 C 0.15005 0.36877 0.40135 0.0
C1023 C 0.12816 0.3729 0.37577 0.0
H1024 H 0.18442 0.34634 0.41336 0.0
C1025 C 0.12792 0.36222 0.34047 0.0
H1026 H 0.15041 0.37608 0.42886 0.0
C1027 C 0.14856 0.34613 0.33108 0.0
C1028 C 0.1691 0.33918 0.35693 0.0
H1029 H 0.11107 0.365 0.32028 0.0
H1030 H 0.1477 0.33829 0.30359 0.0
C1031 C 0.1698 0.3515 0.39219 0.0
C1032 C 1.01399 1.02067 0.21637 0.0
C1033 C 1.01103 0.04485 0.24287 0.0
H1034 H 1.02865 1.01078 0.16842 0.0
C1035 C 1.01955 0.07824 0.2399 0.0
H1036 H 1.00738 0.99473 0.21773 0.0
C1037 C 0.03137 0.08735 0.21172 0.0
C1038 C 0.03508 0.06336 0.1857 0.0
H1039 H 1.01731 0.09754 0.25959 0.0
H1040 H 0.03819 0.11335 0.21072 0.0
C1041 C 1.02592 0.02984 0.188 0.0
C1042 C 0.33479 0.75576 0.60499 0.0
C1043 C 0.31734 0.72409 0.60095 0.0
H1044 H 0.34262 0.80105 0.58583 0.0
C1045 C 0.29116 0.71593 0.57751 0.0
H1046 H 0.35495 0.7629 0.62328 0.0
C1047 C 0.28368 0.7383 0.55629 0.0
C1048 C 0.3024 0.76898 0.55815 0.0
H1049 H 0.27717 0.69179 0.57432 0.0
H1050 H 0.26393 0.73095 0.53728 0.0
C1051 C 0.32748 0.77791 0.58376 0.0
C1052 C 0.65935 0.05216 0.74204 0.0
C1053 C 0.64919 0.04122 0.77149 0.0
H1054 H 0.64987 0.06335 0.6893 0.0
C1055 C 0.6193 0.03279 0.7672 0.0
H1056 H 0.68201 0.05914 0.74341 0.0
C1057 C 0.60081 0.03548 0.73606 0.0
C1058 C 0.61069 0.04651 0.70664 0.0
H1059 H 0.60991 1.02436 0.78838 0.0
H1060 H 0.5782 0.0289 0.73523 0.0
C1061 C 0.64068 0.0546 0.71047 0.0
C1062 C 0.32039 0.37955 1.01091 0.0
C1063 C 0.34483 0.37787 0.03429 0.0
H1064 H 0.29657 0.36697 0.95835 0.0
C1065 C 0.3639 0.36061 0.02202 0.0
H1066 H 0.30529 0.39264 0.01966 0.0
C1067 C 0.35919 0.3464 0.98678 0.0
C1068 C 0.33501 0.34859 0.96321 0.0
H1069 H 0.38297 0.359 0.03941 0.0
H1070 H 0.37463 0.33394 0.97793 0.0
C1071 C 0.31538 0.36477 0.97582 0.0
C1072 C 1.03066 0.07601 0.44462 0.0
C1073 C 1.02598 0.04474 0.42389 0.0
H1074 H 0.04459 0.10514 0.49591 0.0
C1075 C 0.03405 1.01901 0.43954 0.0
H1076 H 1.02464 0.09637 0.43333 0.0
C1077 C 0.04516 1.02393 0.47542 0.0
C1078 C 0.04868 0.05479 0.49653 0.0
H1079 H 0.03069 0.99464 0.42438 0.0
H1080 H 0.05037 1.00321 0.48671 0.0
C1081 C 0.04202 0.08103 0.48053 0.0
C1082 C 0.3842 0.75654 0.72813 0.0
C1083 C 0.37167 0.72526 0.7345 0.0
H1084 H 0.3831 0.8076 0.73242 0.0
C1085 C 0.35034 0.7226 0.75444 0.0
H1086 H 0.40056 0.75939 0.71267 0.0
C1087 C 0.33979 0.74994 0.76464 0.0
C1088 C 0.35085 0.78056 0.75599 0.0
H1089 H 0.34006 0.69886 0.75962 0.0
H1090 H 0.32199 0.74668 0.77771 0.0
C1091 C 0.37375 0.78396 0.73864 0.0
C1092 C 0.63365 0.05425 0.96265 0.0
C1093 C 0.66195 0.04982 0.96654 0.0
H1094 H 0.59779 0.06153 0.98582 0.0
C1095 C 0.67453 0.04918 1.00188 0.0
H1096 H 0.62236 0.05506 0.93682 0.0
C1097 C 0.65986 0.05246 0.03081 0.0
C1098 C 0.63162 0.05734 0.02683 0.0
H1099 H 0.69602 0.04586 1.0074 0.0
H1100 H 0.67101 0.05144 0.05665 0.0
C1101 C 0.61924 0.05812 0.99152 0.0
C1102 C 0.35161 0.34292 0.21142 0.0
C1103 C 0.36026 0.37757 0.21879 0.0
H1104 H 0.33726 0.29808 0.23048 0.0
C1105 C 0.36253 0.39334 0.25327 0.0
H1106 H 0.34964 0.32988 0.18523 0.0
C1107 C 0.35526 0.37502 0.27928 0.0
C1108 C 0.34565 0.34046 0.27153 0.0
H1109 H 0.36906 0.41995 0.25993 0.0
H1110 H 0.35636 0.38806 0.30523 0.0
C1111 C 0.3445 0.32463 0.23742 0.0
C1112 C 0.24037 0.04651 0.03322 0.0
C1113 C 0.24162 1.01537 0.0419 0.0
H1114 H 0.22705 0.0912 0.04577 0.0
C1115 C 0.22525 1.00261 0.06507 0.0
H1116 H 0.25288 0.05691 1.01542 0.0
C1117 C 0.21043 1.02218 0.08235 0.0
C1118 C 0.21201 0.05486 0.07694 0.0
H1119 H 0.22569 0.9785 0.07186 0.0
H1120 H 0.19888 1.01225 0.10123 0.0
C1121 C 0.2258 0.06627 0.05085 0.0
C1122 C 0.68471 0.65375 0.09916 0.0
C1123 C 0.6991 0.64448 0.07265 0.0
H1124 H 0.64755 0.64268 0.12179 0.0
C1125 C 0.68547 0.61654 0.04738 0.0
H1126 H 0.69451 0.67514 0.11912 0.0
C1127 C 0.65849 0.59818 0.0488 0.0
C1128 C 0.64436 0.60696 0.07571 0.0
H1129 H 0.69575 0.60867 0.02657 0.0
H1130 H 0.64887 0.57662 0.02899 0.0
C1131 C 0.65774 0.63519 0.10074 0.0
C1132 C 0.75661 0.54875 0.36472 0.0
C1133 C 0.72725 0.53744 0.36182 0.0
H1134 H 0.79578 0.53587 0.3586 0.0
C1135 C 0.71471 0.50381 0.35041 0.0
H1136 H 0.76675 0.57462 0.37338 0.0
C1137 C 0.73123 0.48179 0.34205 0.0
C1138 C 0.76056 0.49305 0.34472 0.0
H1139 H 0.6921 0.49446 0.34784 0.0
H1140 H 0.721 0.45598 0.33306 0.0
C1141 C 0.77314 0.5267 0.35606 0.0
C1142 C 0.8934 0.59417 0.52232 0.0
C1143 C 0.88633 0.59049 0.55475 0.0
H1144 H 0.92378 0.6175 0.49582 0.0
C1145 C 0.89903 0.61504 0.58382 0.0
H1146 H 0.88325 0.57585 0.49933 0.0
C1147 C 0.92156 0.64039 0.58155 0.0
C1148 C 0.93299 0.63976 0.551 0.0
H1149 H 0.89295 0.61328 0.60884 0.0
H1150 H 0.93217 0.65779 0.60504 0.0
C1151 C 0.91669 0.61859 0.5204 0.0
C1152 C 0.41555 0.20761 0.36035 0.0
C1153 C 0.4021 0.17398 0.34572 0.0
H1154 H 0.41285 0.25887 0.37293 0.0
C1155 C 0.37248 0.16954 0.3319 0.0
H1156 H 0.43803 0.21362 0.37151 0.0
C1157 C 0.35765 0.19616 0.33275 0.0
C1158 C 0.37104 0.22978 0.34744 0.0
H1159 H 0.36033 0.14493 0.32024 0.0
H1160 H 0.33515 0.19008 0.32171 0.0
C1161 C 0.40071 0.23428 0.36116 0.0
C1162 C 0.35002 0.11417 0.56644 0.0
C1163 C 0.3529 0.14819 0.57696 0.0
H1164 H 0.37047 0.07359 0.56416 0.0
C1165 C 0.38015 0.16772 0.59201 0.0
H1166 H 0.32936 0.09836 0.55487 0.0
C1167 C 0.40375 0.15362 0.59715 0.0
C1168 C 0.40092 0.11946 0.58753 0.0
H1169 H 0.38327 0.19403 0.60028 0.0
H1170 H 0.4243 0.16964 0.60881 0.0
C1171 C 0.3737 0.1 0.57165 0.0
C1172 C 0.73679 0.70569 0.35739 0.0
C1173 C 0.7383 0.68848 0.38572 0.0
H1174 H 0.7587 0.74109 0.33101 0.0
C1175 C 0.76349 0.69631 0.41119 0.0
H1176 H 0.71783 0.70007 0.33713 0.0
C1177 C 0.78692 0.72024 0.40782 0.0
C1178 C 0.78554 0.73673 0.37895 0.0
H1179 H 0.76538 0.68332 0.4332 0.0
H1180 H 0.80622 0.72546 0.42748 0.0
C1181 C 0.76019 0.72938 0.35396 0.0
C1182 C 0.88494 0.47622 0.8697 0.0
C1183 C 0.8967 0.48341 0.84026 0.0
H1184 H 0.8627 0.44009 0.89598 0.0
C1185 C 0.89333 0.45586 0.81364 0.0
H1186 H 0.88682 0.496 0.89111 0.0
C1187 C 0.87898 0.42321 0.81633 0.0
C1188 C 0.86748 0.41599 0.84601 0.0
H1189 H 0.90183 0.45948 0.79041 0.0
H1190 H 0.87711 0.40346 0.79501 0.0
C1191 C 0.87094 0.4436 0.87257 0.0
C1192 C 0.09107 0.91999 0.13103 0.0
C1193 C 0.11295 0.92345 0.16026 0.0
H1194 H 0.0669 0.94391 0.09608 0.0
C1195 C 0.12894 0.95561 0.17497 0.0
H1196 H 0.0782 0.89579 0.11899 0.0
C1197 C 0.12276 0.98344 0.16131 0.0
C1198 C 0.10001 0.97996 0.13303 0.0
H1199 H 0.14595 0.95934 0.19751 0.0
H1200 H 0.13506 1.00776 0.17386 0.0
C1201 C 0.08454 0.94774 0.11789 0.0
C1202 C 0.93123 0.31572 0.95268 0.0
C1203 C 0.94627 0.29193 0.9427 0.0
H1204 H 0.89432 0.33572 0.94005 0.0
C1205 C 0.93424 0.26897 0.91199 0.0
H1206 H 0.93992 0.33389 0.97613 0.0
C1207 C 0.90798 0.26961 0.89188 0.0
C1208 C 0.89315 0.29374 0.90129 0.0
H1209 H 0.9451 0.2503 0.9035 0.0
H1210 H 0.89953 0.25136 0.86844 0.0
C1211 C 0.90513 0.31685 0.93199 0.0
C1212 C 0.61701 0.22317 0.64159 0.0
C1213 C 0.59971 0.23548 0.66264 0.0
H1214 H 0.62656 0.18027 0.61436 0.0
C1215 C 0.57749 0.21299 0.67103 0.0
H1216 H 0.63443 0.23983 0.63486 0.0
C1217 C 0.5727 0.17908 0.6589 0.0
C1218 C 0.59038 0.16651 0.63862 0.0
H1219 H 0.56376 0.2216 0.68718 0.0
H1220 H 0.55543 0.16263 0.66617 0.0
C1221 C 0.61259 0.18902 0.63003 0.0
C1222 C 0.59598 0.79475 0.4119 0.0
C1223 C 0.59844 0.79552 0.44809 0.0
H1224 H 0.61739 0.79848 0.36892 0.0
C1225 C 0.62572 0.80023 0.46876 0.0
H1226 H 0.57536 0.79134 0.39521 0.0
C1227 C 0.6499 0.80428 0.45371 0.0
C1228 C 0.64753 0.80362 0.41748 0.0
H1229 H 0.62845 0.80096 0.49674 0.0
H1230 H 0.67047 0.8076 0.47048 0.0
C1231 C 0.62016 0.79869 0.39681 0.0
C1232 C 0.10045 0.31004 0.50787 0.0
C1233 C 0.08186 0.3002 0.47528 0.0
H1234 H 0.11811 0.29539 0.55522 0.0
C1235 C 0.06879 0.2667 0.46386 0.0
H1236 H 0.11102 0.33571 0.51714 0.0
C1237 C 0.07284 0.24368 0.48562 0.0
C1238 C 0.09 0.25384 0.51915 0.0
H1239 H 0.05448 0.25844 0.43873 0.0
H1240 H 0.06124 0.21829 0.47696 0.0
C1241 C 0.10446 0.28704 0.52966 0.0
C1242 C 0.70541 0.33172 0.35799 0.0
C1243 C 0.68839 0.30028 0.35693 0.0
H1244 H 0.74682 0.35976 0.3583 0.0
C1245 C 0.70127 0.27393 0.36234 0.0
H1246 H 0.69607 0.35257 0.35416 0.0
C1247 C 0.73048 0.27822 0.36493 0.0
C1248 C 0.7469 0.30873 0.3616 0.0
H1249 H 0.68858 0.24948 0.36177 0.0
H1250 H 0.73982 0.2571 0.36687 0.0
C1251 C 0.73444 0.33579 0.35981 0.0
C1252 C 0.54697 0.92424 0.03286 0.0
C1253 C 0.54842 0.93261 0.99966 0.0
H1254 H 0.54719 0.94155 0.08649 0.0
C1255 C 0.54744 0.96473 0.99422 0.0
H1256 H 0.54717 0.89944 0.03762 0.0
C1257 C 0.54692 0.98863 0.02203 0.0
C1258 C 0.54763 0.98089 0.05581 0.0
H1259 H 0.54798 0.97169 0.96876 0.0
H1260 H 0.5477 1.01367 1.01751 0.0
C1261 C 0.54655 0.94819 0.06074 0.0
C1262 C 1.02532 0.79672 0.80684 0.0
C1263 C 0.04699 0.79004 0.83106 0.0
H1264 H 0.98772 0.8148 0.7983 0.0
C1265 C 0.04602 0.7956 0.86676 0.0
H1266 H 1.02562 0.79326 0.77918 0.0
C1267 C 1.02368 0.80757 0.87788 0.0
C1268 C 1.00207 0.81447 0.85349 0.0
H1269 H 0.06255 0.79088 0.88605 0.0
H1270 H 1.02326 0.81119 0.90549 0.0
C1271 C 1.00339 0.809 0.81788 0.0
C1272 C 0.13147 0.10819 0.99566 0.0
C1273 C 0.13791 0.08389 0.97224 0.0
H1274 H 0.11279 0.1187 0.04021 0.0
C1275 C 0.13151 0.05095 0.97766 0.0
H1276 H 0.13632 0.13381 0.99244 0.0
C1277 C 0.11816 0.04233 1.00503 0.0
C1278 C 0.11097 0.06643 0.02781 0.0
H1279 H 0.13641 0.03162 0.96036 0.0
H1280 H 0.11294 1.01664 1.00792 0.0
C1281 C 0.11816 0.09955 0.02317 0.0
C1282 C 0.87548 0.42639 0.64689 0.0
C1283 C 0.8494 0.42825 0.62727 0.0
H1284 H 0.89727 0.39983 0.68115 0.0
C1285 C 0.82496 0.40409 0.6269 0.0
H1286 H 0.89467 0.44462 0.64738 0.0
C1287 C 0.82637 0.37877 0.64612 0.0
C1288 C 0.85232 0.37679 0.66602 0.0
H1289 H 0.80451 0.40492 0.61208 0.0
H1290 H 0.80686 0.36129 0.64615 0.0
C1291 C 0.87695 0.40079 0.66613 0.0
C1292 C 0.53344 0.09404 0.45166 0.0
C1293 C 0.50354 0.08573 0.4469 0.0
H1294 H 0.57417 0.09718 0.48397 0.0
C1295 C 0.49286 0.07421 0.47578 0.0
H1296 H 0.54316 0.10289 0.43089 0.0
C1297 C 0.51112 0.07109 0.50733 0.0
C1298 C 0.54113 0.07903 0.51159 0.0
H1299 H 0.47013 0.06731 0.47397 0.0
H1300 H 0.50162 0.0619 0.5281 0.0
C1301 C 0.5515 0.09067 0.48274 0.0
C1302 C 0.82764 0.74883 0.20008 0.0
C1303 C 0.80396 0.75176 0.1762 0.0
H1304 H 0.85074 0.76052 0.25299 0.0
C1305 C 0.78562 0.77047 0.18787 0.0
H1306 H 0.84218 0.73464 0.19178 0.0
C1307 C 0.79021 0.78481 0.22308 0.0
C1308 C 0.81359 0.78133 0.24715 0.0
H1309 H 0.76716 0.77308 0.17006 0.0
H1310 H 0.77526 0.79831 0.23151 0.0
C1311 C 0.83258 0.76376 0.23511 0.0
C1312 C 0.11764 0.11167 0.77334 0.0
C1313 C 0.1239 0.08547 0.78966 0.0
H1314 H 0.10381 0.12798 0.72553 0.0
C1315 C 0.1192 0.05415 0.76905 0.0
H1316 H 0.12118 0.13613 0.78834 0.0
C1317 C 0.10928 0.04939 0.73279 0.0
C1318 C 0.10405 0.07593 0.71627 0.0
H1319 H 0.12398 0.03346 0.78078 0.0
H1320 H 0.10638 1.0251 0.71766 0.0
C1321 C 0.10792 0.10699 0.73715 0.0
C1322 C 0.82765 0.42419 0.4516 0.0
C1323 C 0.84944 0.43544 0.4812 0.0
H1324 H 0.81066 0.3883 0.40543 0.0
C1325 C 0.87242 0.42001 0.48537 0.0
H1326 H 0.80968 0.43554 0.44775 0.0
C1327 C 0.87287 0.39274 0.46118 0.0
C1328 C 0.85057 0.38087 0.43225 0.0
H1329 H 0.88949 0.42811 0.50806 0.0
H1330 H 0.89026 0.38052 0.4655 0.0
C1331 C 0.8283 0.39725 0.42728 0.0
C1332 C 0.48445 0.07868 0.21978 0.0
C1333 C 0.49618 0.07867 0.2555 0.0
H1334 H 0.48947 0.07569 0.16564 0.0
C1335 C 0.52464 0.07473 0.26101 0.0
H1336 H 0.46289 0.08155 0.21312 0.0
C1337 C 0.54004 0.07081 0.23315 0.0
C1338 C 0.52846 0.07098 0.19745 0.0
H1339 H 0.53527 0.07442 0.28732 0.0
H1340 H 0.56157 0.06787 0.23992 0.0
C1341 C 0.50005 0.07526 0.19191 0.0
C1342 C 0.80338 0.78839 1.00104 0.0
C1343 C 0.79372 0.75384 0.99312 0.0
H1344 H 0.81994 0.83312 0.98297 0.0
C1345 C 0.79211 0.7382 0.95878 0.0
H1346 H 0.80491 0.80132 0.02717 0.0
C1347 C 0.80093 0.75647 0.93346 0.0
C1348 C 0.81144 0.79089 0.94174 0.0
H1349 H 0.78488 0.71166 0.95173 0.0
H1350 H 0.80027 0.74346 0.90765 0.0
C1351 C 0.81203 0.80667 0.97568 0.0
C1352 C 0.91371 0.12546 0.08445 0.0
C1353 C 0.88412 0.11716 0.07433 0.0
H1354 H 0.95276 0.11444 0.07546 0.0
C1355 C 0.87112 0.09379 0.04412 0.0
H1356 H 0.92412 0.14354 0.10754 0.0
C1357 C 0.88739 0.07673 0.02614 0.0
C1358 C 0.91686 0.08366 0.03758 0.0
H1359 H 0.84824 0.087 0.03587 0.0
H1360 H 0.87691 0.05696 1.0046 0.0
C1361 C 0.93003 0.10908 0.06591 0.0
C1362 C 0.46114 0.47984 0.10346 0.0
C1363 C 0.44778 0.4888 0.13116 0.0
H1364 H 0.49625 0.49241 0.07756 0.0
C1365 C 0.46112 0.51779 0.15504 0.0
H1366 H 0.4515 0.45767 0.08451 0.0
C1367 C 0.48678 0.53748 0.15112 0.0
C1368 C 0.49984 0.52899 0.12306 0.0
H1369 H 0.45159 0.52549 0.17666 0.0
H1370 H 0.49621 0.55979 0.16996 0.0
C1371 C 0.48681 0.49972 0.09941 0.0
C1372 C 0.40903 0.61011 0.79326 0.0
C1373 C 0.41116 0.58915 0.81816 0.0
H1374 H 0.39434 0.65213 0.77888 0.0
C1375 C 0.39823 0.59343 0.84708 0.0
H1376 H 0.41873 0.60724 0.77062 0.0
C1377 C 0.38444 0.61907 0.85184 0.0
C1378 C 0.38332 0.64096 0.8278 0.0
H1379 H 0.39951 0.5776 0.86665 0.0
H1380 H 0.37569 0.62256 0.87517 0.0
C1381 C 0.39525 0.63587 0.79807 0.0
C1382 C 0.27926 0.58908 0.70345 0.0
C1383 C 0.29526 0.58053 0.67893 0.0
H1384 H 0.24092 0.57619 0.7221 0.0
C1385 C 0.28754 0.54899 0.65858 0.0
H1386 H 0.28507 0.61337 0.71942 0.0
C1387 C 0.26196 0.52771 0.6597 0.0
C1388 C 0.24435 0.53774 0.68165 0.0
H1389 H 0.2997 0.54215 0.63941 0.0
H1390 H 0.25484 0.50469 0.64146 0.0
C1391 C 0.25412 0.56767 0.70511 0.0
C1392 C 0.78423 0.96105 0.88327 0.0
C1393 C 0.75429 0.95615 0.87106 0.0
H1394 H 0.82211 0.94116 0.89163 0.0
C1395 C 0.74096 0.92226 0.85741 0.0
H1396 H 0.79638 0.98584 0.89412 0.0
C1397 C 0.75614 0.89586 0.85602 0.0
C1398 C 0.78612 0.90079 0.86809 0.0
H1399 H 0.71828 0.91581 0.84748 0.0
H1400 H 0.74397 0.87109 0.84506 0.0
C1401 C 0.79942 0.93467 0.88182 0.0
C1402 C 0.80266 1.01256 0.62262 0.0
C1403 C 0.80088 0.98161 0.63317 0.0
H1404 H 0.78107 0.0502 0.60971 0.0
C1405 C 0.77491 0.96536 0.64014 0.0
H1406 H 0.82226 1.0257 0.61686 0.0
C1407 C 0.75124 0.97948 0.63625 0.0
C1408 C 0.75284 1.0103 0.62526 0.0
H1409 H 0.77276 0.94151 0.64839 0.0
H1410 H 0.7317 0.96624 0.64205 0.0
C1411 C 0.77899 1.0267 0.6187 0.0
C1412 C 0.37731 0.42895 0.79022 0.0
C1413 C 0.40427 0.43619 0.81212 0.0
H1414 H 0.33438 0.40047 0.77946 0.0
C1415 C 0.40869 0.41849 0.83972 0.0
H1416 H 0.37321 0.44229 0.76885 0.0
C1417 C 0.38631 0.39514 0.84623 0.0
C1418 C 0.35922 0.38844 0.82485 0.0
H1419 H 0.42909 0.42378 0.85736 0.0
H1420 H 0.39001 0.38328 0.86878 0.0
C1421 C 0.35505 0.40517 0.79642 0.0
C1422 C 0.26665 0.65281 0.33936 0.0
C1423 C 0.25461 0.64549 0.36861 0.0
H1424 H 0.28841 0.68926 0.3129 0.0
C1425 C 0.25689 0.67319 0.3946 0.0
H1426 H 0.26558 0.63294 0.31838 0.0
C1427 C 0.27044 0.70604 0.39153 0.0
C1428 C 0.28227 0.71344 0.36211 0.0
H1429 H 0.24809 0.66954 0.41761 0.0
H1430 H 0.27127 0.7258 0.4124 0.0
C1431 C 0.2799 0.68568 0.33612 0.0
C1432 C 0.51846 0.67183 0.5246 0.0
C1433 C 0.53159 0.70386 0.54298 0.0
H1434 H 0.51449 0.61956 0.52212 0.0
C1435 C 0.55015 0.70662 0.57516 0.0
H1436 H 0.50412 0.66856 0.49968 0.0
C1437 C 0.5562 0.67845 0.5879 0.0
C1438 C 0.54362 0.64641 0.56919 0.0
H1439 H 0.56079 0.73072 0.5901 0.0
H1440 H 0.57123 0.68187 0.6123 0.0
C1441 C 0.52426 0.64357 0.5376 0.0
C1442 C 0.71187 0.36051 0.7979 0.0
C1443 C 0.69962 0.33766 0.76716 0.0
H1444 H 0.74685 0.37789 0.84121 0.0
C1445 C 0.71449 0.31376 0.75696 0.0
H1446 H 0.70114 0.37924 0.80658 0.0
C1447 C 0.74064 0.31243 0.7774 0.0
C1448 C 0.75289 0.33548 0.80809 0.0
H1449 H 0.70563 0.29564 0.7335 0.0
H1450 H 0.7513 0.29348 0.76914 0.0
C1451 C 0.7382 0.3597 0.81775 0.0
C1452 C 0.03132 0.40567 0.07138 0.0
C1453 C 0.04844 0.39304 0.05029 0.0
H1454 H 1.02274 0.44876 0.09942 0.0
C1455 C 0.07148 0.4151 0.04292 0.0
H1456 H 1.01332 0.38936 0.07738 0.0
C1457 C 0.07717 0.44893 0.05597 0.0
C1458 C 0.0596 0.46186 0.07616 0.0
H1459 H 0.0851 0.40622 0.02679 0.0
H1460 H 0.09498 0.46509 0.04939 0.0
C1461 C 0.03665 0.43974 0.08385 0.0
C1462 C 1.02163 0.82945 0.24062 0.0
C1463 C 0.04917 0.83441 0.26067 0.0
H1464 H 0.977 0.82138 0.23997 0.0
C1465 C 0.05225 0.83506 0.2969 0.0
H1466 H 1.01842 0.82883 0.21263 0.0
C1467 C 1.0284 0.8306 0.31262 0.0
C1468 C 1.00077 0.8253 0.29254 0.0
H1469 H 0.0731 0.83866 0.31312 0.0
H1470 H 0.03165 0.83064 0.3405 0.0
C1471 C 0.99779 0.82492 0.2563 0.0
C1472 C 0.63798 0.35769 0.21111 0.0
C1473 C 0.62604 0.36162 0.24095 0.0
H1474 H 0.64475 0.37543 0.1639 0.0
C1475 C 0.61517 0.38954 0.24863 0.0
H1476 H 0.64662 0.33642 0.20469 0.0
C1477 C 0.61447 0.41202 0.22552 0.0
C1478 C 0.6243 0.40658 0.19429 0.0
H1479 H 0.60603 0.3932 0.27161 0.0
H1480 H 0.60453 0.4324 0.23094 0.0
C1481 C 0.6369 0.37989 0.18778 0.0
C1482 C 0.96386 0.36819 0.35238 0.0
C1483 C 0.97773 0.34314 0.36012 0.0
H1484 H 0.92428 0.3824 0.34311 0.0
C1485 C 0.96168 0.31118 0.35896 0.0
H1486 H 0.97576 0.39299 0.35296 0.0
C1487 C 0.93222 0.30509 0.35357 0.0
C1488 C 0.91846 0.33095 0.34931 0.0
H1489 H 0.97192 0.29134 0.36455 0.0
H1490 H 0.92046 0.28061 0.35463 0.0
C1491 C 0.93439 0.36213 0.34708 0.0
C1492 C 0.14177 0.6836 0.71329 0.0
C1493 C 0.1254 0.68229 0.73949 0.0
H1494 H 0.14575 0.66148 0.66264 0.0
C1495 C 0.10559 0.6531 0.73916 0.0
H1496 H 0.15749 0.70572 0.71307 0.0
C1497 C 0.09933 0.62772 0.71054 0.0
C1498 C 0.1128 0.63099 0.68198 0.0
H1499 H 0.09286 0.65119 0.75909 0.0
H1500 H 0.08167 0.6073 0.70913 0.0
C1501 C 0.1354 0.65808 0.68457 0.0
C1502 C 0.63162 0.85336 0.85887 0.0
C1503 C 0.62733 0.85323 0.89323 0.0
H1504 H 0.65541 0.83955 0.82086 0.0
C1505 C 0.64537 0.84043 0.91658 0.0
H1506 H 0.61799 0.86312 0.84035 0.0
C1507 C 0.66626 0.82624 0.90525 0.0
C1508 C 0.66979 0.82495 0.87043 0.0
H1509 H 0.64238 0.83973 0.94314 0.0
H1510 H 0.67883 0.81507 0.92346 0.0
C1511 C 0.65275 0.83945 0.8476 0.0
C1512 C 0.52019 0.57459 0.7327 0.0
C1513 C 0.50778 0.54147 0.73323 0.0
H1514 H 0.54212 0.60927 0.70566 0.0
C1515 C 0.50769 0.51742 0.70477 0.0
H1516 H 0.5203 0.59384 0.75389 0.0
C1517 C 0.52051 0.52634 0.6769 0.0
C1518 C 0.53326 0.55952 0.67682 0.0
H1519 H 0.49807 0.49173 0.70426 0.0
H1520 H 0.52084 0.50728 0.65576 0.0
C1521 C 0.53253 0.5835 0.70482 0.0
C1522 C 0.82568 0.25186 0.09909 0.0
C1523 C 0.8055 0.22223 0.09589 0.0
H1524 H 0.83694 0.29699 0.08035 0.0
C1525 C 0.77855 0.21797 0.07485 0.0
H1526 H 0.84651 0.25595 0.11552 0.0
C1527 C 0.77282 0.24189 0.05485 0.0
C1528 C 0.79398 0.2703 0.05573 0.0
H1529 H 0.76252 0.19543 0.07229 0.0
H1530 H 0.75242 0.23736 0.03737 0.0
C1531 C 0.82001 0.27564 0.0792 0.0
C1532 C 0.1185 0.53571 0.26415 0.0
C1533 C 0.14838 0.54385 0.26837 0.0
H1534 H 0.0775 0.53252 0.23238 0.0
C1535 C 0.15867 0.55499 0.2391 0.0
H1536 H 0.10906 0.52717 0.28525 0.0
C1537 C 0.1401 0.55789 0.20771 0.0
C1538 C 0.11013 0.55011 0.20397 0.0
H1539 H 0.18134 0.56176 0.24048 0.0
H1540 H 0.14934 0.56676 0.18662 0.0
C1541 C 0.10012 0.53887 0.23321 0.0
C1542 C 0.82325 0.87979 0.51199 0.0
C1543 C 0.84774 0.87836 0.53544 0.0
H1544 H 0.79907 0.86613 0.45962 0.0
C1545 C 0.8664 0.86021 0.5236 0.0
H1546 H 0.80843 0.8935 0.52041 0.0
C1547 C 0.86127 0.84492 0.48867 0.0
C1548 C 0.8371 0.84695 0.46496 0.0
H1549 H 0.88546 0.85868 0.54106 0.0
H1550 H 0.87647 0.83187 0.48013 0.0
C1551 C 0.81784 0.86399 0.4772 0.0
C1552 C 0.51791 0.57492 0.93656 0.0
C1553 C 0.51352 0.54384 0.91563 0.0
H1554 H 0.53247 0.60404 0.98767 0.0
C1555 C 0.52134 0.51795 0.93123 0.0
H1556 H 0.5121 0.5954 0.92532 0.0
C1557 C 0.53244 0.52271 0.96713 0.0
C1558 C 0.5363 0.5536 0.98831 0.0
H1559 H 0.5181 0.49366 0.9159 0.0
H1560 H 0.53777 0.50198 0.9783 0.0
C1561 C 0.52939 0.57982 0.97242 0.0
C1562 C 0.8641 0.23075 0.23998 0.0
C1563 C 0.84275 0.20171 0.23455 0.0
H1564 H 0.87743 0.28194 0.26253 0.0
C1565 C 0.82053 0.20074 0.25302 0.0
H1566 H 0.88143 0.23227 0.22604 0.0
C1567 C 0.81844 0.22918 0.27422 0.0
C1568 C 0.8382 0.25897 0.27654 0.0
H1569 H 0.80381 0.17864 0.24928 0.0
H1570 H 0.80035 0.22839 0.28674 0.0
C1571 C 0.86163 0.25928 0.26047 0.0
C1572 C 0.13383 0.56065 0.45975 0.0
C1573 C 0.16022 0.55106 0.4624 0.0
H1574 H 0.09953 0.57173 0.48407 0.0
C1575 C 0.17087 0.54485 0.49638 0.0
H1576 H 0.12413 0.56588 0.43495 0.0
C1577 C 0.15609 0.54764 0.52519 0.0
C1578 C 0.12984 0.55769 0.52255 0.0
H1579 H 0.19082 0.53737 0.50083 0.0
H1580 H 0.16561 0.54212 0.54994 0.0
C1581 C 0.11944 0.56416 0.48866 0.0
C1582 C 0.86595 0.89391 0.75326 0.0
C1583 C 0.86329 0.87843 0.7186 0.0
H1584 H 0.8601 0.88822 0.80519 0.0
C1585 C 0.85431 0.84381 0.7108 0.0
H1586 H 0.87272 0.9205 0.76022 0.0
C1587 C 0.84724 0.82528 0.73662 0.0
C1588 C 0.8488 0.84086 0.77092 0.0
H1589 H 0.85205 0.831 0.68444 0.0
H1590 H 0.83974 0.79878 0.72942 0.0
C1591 C 0.85873 0.87537 0.77907 0.0
C1592 C 0.7879 0.56118 0.63536 0.0
C1593 C 0.7792 0.53457 0.60741 0.0
H1594 H 0.775 0.59565 0.6708 0.0
C1595 C 0.75019 0.52101 0.59472 0.0
H1596 H 0.8102 0.57209 0.6456 0.0
C1597 C 0.73016 0.5341 0.60965 0.0
C1598 C 0.73893 0.56123 0.63701 0.0
H1599 H 0.74302 0.5004 0.57331 0.0
H1600 H 0.70782 0.52372 0.59912 0.0
C1601 C 0.76789 0.57464 0.64982 0.0
C1602 C 0.17874 0.1431 0.58142 0.0
C1603 C 0.20335 0.13064 0.58104 0.0
H1604 H 0.1351 0.13368 0.58744 0.0
C1605 C 0.2021 0.09815 0.58708 0.0
H1606 H 0.17889 0.16805 0.57703 0.0
C1607 C 0.17715 0.07866 0.59312 0.0
C1608 C 0.15261 0.09101 0.59368 0.0
H1609 H 0.22051 0.08766 0.58715 0.0
H1610 H 0.17711 0.05369 0.59738 0.0
C1611 C 0.15368 0.12353 0.58773 0.0
C1612 C 0.24193 0.05346 0.8271 0.0
C1613 C 0.23541 0.05345 0.8605 0.0
H1614 H 0.26258 0.03277 0.78901 0.0
C1615 C 0.24694 0.03376 0.88252 0.0
H1616 H 0.2334 0.06852 0.80961 0.0
C1617 C 0.26382 1.01339 0.87074 0.0
C1618 C 0.26943 1.01246 0.83679 0.0
H1619 H 0.24238 0.03348 0.90848 0.0
H1620 H 0.27214 0.998 0.88799 0.0
C1621 C 0.2588 0.03317 0.81536 0.0
C1622 C 0.37643 0.10187 0.03437 0.0
C1623 C 0.3666 0.08829 0.06203 0.0
H1624 H 0.41191 0.12892 0.018 0.0
C1625 C 0.38041 0.10213 0.09646 0.0
H1626 H 0.36554 0.09259 1.00755 0.0
C1627 C 0.40677 0.12427 0.10262 0.0
C1628 C 0.41989 0.13107 0.07434 0.0
H1629 H 0.37262 0.09303 0.11837 0.0
H1630 H 0.41872 0.13149 0.12922 0.0
C1631 C 0.40306 0.12326 0.04049 0.0
C1632 C 0.91766 0.70553 0.85765 0.0
C1633 C 0.90352 0.67218 0.84275 0.0
H1634 H 0.91606 0.75704 0.87108 0.0
C1635 C 0.87395 0.6685 0.82939 0.0
H1636 H 0.94017 0.71089 0.86851 0.0
C1637 C 0.85976 0.69564 0.8309 0.0
C1638 C 0.87384 0.72897 0.84587 0.0
H1639 H 0.86134 0.64414 0.81758 0.0
H1640 H 0.83723 0.69019 0.82017 0.0
C1641 C 0.90347 0.73271 0.85914 0.0
C1642 C 0.84821 0.61736 0.08872 0.0
C1643 C 0.85072 0.64883 0.07925 0.0
H1644 H 0.86906 0.57904 0.10147 0.0
C1645 C 0.87727 0.66525 0.074 0.0
H1646 H 0.82818 0.60408 0.09316 0.0
C1647 C 0.90076 0.65086 0.07851 0.0
C1648 C 0.89847 0.61955 0.0885 0.0
H1649 H 0.88001 0.68951 0.06658 0.0
H1650 H 0.92071 0.66428 0.07399 0.0
C1651 C 0.87174 0.60295 0.09331 0.0
C1652 C 0.26463 0.20008 0.91812 0.0
C1653 C 0.23778 0.19395 0.89612 0.0
H1654 H 0.30813 0.22701 0.92915 0.0
C1655 C 0.23419 0.21203 0.86871 0.0
H1656 H 0.26812 0.18635 0.93929 0.0
C1657 C 0.2572 0.23453 0.86239 0.0
C1658 C 0.28417 0.24015 0.88383 0.0
H1659 H 0.21393 0.20755 0.85092 0.0
H1660 H 0.25408 0.24649 0.83983 0.0
C1661 C 0.28757 0.22315 0.91216 0.0
C1662 C 0.39188 0.95952 0.3148 0.0
C1663 C 0.39724 0.98607 0.34308 0.0
H1664 H 0.37395 0.90765 0.29415 0.0
C1665 C 0.38728 0.9778 0.37333 0.0
H1666 H 0.39894 0.96404 0.29088 0.0
C1667 C 0.3731 0.94506 0.37539 0.0
C1668 C 0.36769 0.91844 0.34722 0.0
H1669 H 0.39071 0.9968 0.39596 0.0
H1670 H 0.36629 0.94066 0.39948 0.0
C1671 C 0.37738 0.92671 0.31673 0.0
C1672 C 0.62553 0.45136 0.67502 0.0
C1673 C 0.61147 0.41897 0.65863 0.0
H1674 H 0.6301 0.50331 0.67496 0.0
C1675 C 0.59167 0.41511 0.62721 0.0
H1676 H 0.64079 0.45545 0.69932 0.0
C1677 C 0.58542 0.44269 0.61332 0.0
C1678 C 0.59905 0.47513 0.63002 0.0
H1679 H 0.58028 0.39069 0.61383 0.0
H1680 H 0.56947 0.43854 0.58962 0.0
C1681 C 0.61953 0.47897 0.66084 0.0
C1682 C 0.43477 0.76867 0.40518 0.0
C1683 C 0.44604 0.78989 0.43728 0.0
H1684 H 0.40093 0.75319 0.36031 0.0
C1685 C 0.43051 0.81273 0.44836 0.0
H1686 H 0.44602 0.75076 0.39578 0.0
C1687 C 0.40472 0.81467 0.42751 0.0
C1688 C 0.39348 0.79331 0.39542 0.0
H1689 H 0.43857 0.82959 0.47287 0.0
H1690 H 0.39357 0.83283 0.43653 0.0
C1691 C 0.4088 0.77009 0.38483 0.0
C1692 C 0.07784 0.7173 0.16894 0.0
C1693 C 0.10066 0.7397 0.16156 0.0
H1694 H 0.05501 0.66709 0.16282 0.0
C1695 C 0.11818 0.7273 0.14089 0.0
H1696 H 0.06391 0.72595 0.18476 0.0
C1697 C 0.11341 0.69318 0.12878 0.0
C1698 C 0.09062 0.67076 0.13642 0.0
H1699 H 0.13604 0.74385 0.1349 0.0
H1700 H 0.12759 0.68438 0.11349 0.0
C1701 C 0.07271 0.68345 0.15626 0.0
C1702 C 0.12534 0.30116 0.97069 0.0
C1703 C 0.09798 0.29735 0.95061 0.0
H1704 H 0.16989 0.30766 0.97142 0.0
C1705 C 0.09509 0.29714 0.91447 0.0
H1706 H 0.12838 0.30142 0.99861 0.0
C1707 C 0.11898 0.30088 0.89885 0.0
C1708 C 0.14644 0.30501 0.91895 0.0
H1709 H 0.07438 0.29442 0.89824 0.0
H1710 H 0.11592 0.30121 0.87103 0.0
C1711 C 0.14923 0.30499 0.9551 0.0
C1712 C 0.50547 0.77788 0.98184 0.0
C1713 C 0.51971 0.77489 0.95391 0.0
H1714 H 0.49557 0.75893 0.0274 0.0
C1715 C 0.5303 0.74669 0.94659 0.0
H1716 H 0.49704 0.79937 0.98799 0.0
C1717 C 0.52906 0.72338 0.96885 0.0
C1718 C 0.51758 0.72828 0.9989 0.0
H1719 H 0.54122 0.74376 0.92507 0.0
H1720 H 0.53922 0.70307 0.96417 0.0
C1721 C 0.50467 0.75487 1.00443 0.0
C1722 C 0.21028 0.84072 0.83334 0.0
C1723 C 0.19778 0.812 0.84491 0.0
H1724 H 0.24729 0.86817 0.82002 0.0
C1725 C 0.21504 0.79177 0.85808 0.0
H1726 H 0.19752 0.85683 0.82297 0.0
C1727 C 0.24382 0.79858 0.85673 0.0
C1728 C 0.25565 0.82544 0.84173 0.0
H1729 H 0.20594 0.76946 0.86709 0.0
H1730 H 0.25633 0.7816 0.86544 0.0
C1731 C 0.23885 0.84711 0.83128 0.0
C1732 C 0.03094 0.42801 0.52302 0.0
C1733 C 0.03657 0.43744 0.49142 0.0
H1734 H 1.02819 0.4443 0.57591 0.0
C1735 C 0.03773 0.47014 0.48667 0.0
H1736 H 1.02946 0.40277 0.52716 0.0
C1737 C 0.03623 0.49371 0.51426 0.0
C1738 C 0.03425 0.48509 0.5473 0.0
H1739 H 0.04144 0.47792 0.46233 0.0
H1740 H 0.03942 0.51927 0.51069 0.0
C1741 C 1.02986 0.45171 0.55085 0.0
C1742 C 0.53411 0.29116 0.36185 0.0
C1743 C 0.53572 0.28771 0.32635 0.0
H1744 H 0.51143 0.30568 0.40088 0.0
C1745 C 0.51464 0.29569 0.30245 0.0
H1746 H 0.55019 0.28525 0.38083 0.0
C1747 C 0.49309 0.30833 0.31397 0.0
C1748 C 0.49169 0.31265 0.34961 0.0
H1749 H 0.51555 0.29375 0.27499 0.0
H1750 H 0.4781 0.31579 0.29492 0.0
C1751 C 0.51216 0.30331 0.37337 0.0
C1752 C 0.63356 0.5493 0.47306 0.0
C1753 C 0.63736 0.58173 0.46592 0.0
H1754 H 0.61722 0.51493 0.50461 0.0
C1755 C 0.62856 0.60528 0.48762 0.0
H1756 H 0.64019 0.53053 0.45698 0.0
C1757 C 0.6158 0.59636 0.51547 0.0
C1758 C 0.61123 0.56361 0.52177 0.0
H1759 H 0.63138 0.63049 0.48298 0.0
H1760 H 0.6087 0.61485 0.53135 0.0
C1761 C 0.6205 0.54032 0.50046 0.0
C1762 C 0.31791 0.89323 0.09687 0.0
C1763 C 0.3288 0.92729 0.10788 0.0
H1764 H 0.31043 0.84539 0.1117 0.0
C1765 C 0.34179 0.93914 0.14305 0.0
H1766 H 0.30784 0.8834 0.06987 0.0
C1767 C 0.34312 0.9174 0.16698 0.0
C1768 C 0.33178 0.88339 0.15609 0.0
H1769 H 0.35039 0.96527 0.15224 0.0
H1770 H 0.35291 0.9272 0.19407 0.0
C1771 C 0.31952 0.87145 0.12072 0.0
C1772 C 0.03342 0.59442 0.94776 0.0
C1773 C 1.00352 0.58545 0.94277 0.0
H1774 H 0.07418 0.59904 0.98071 0.0
C1775 C 0.99286 0.57442 0.97186 0.0
H1776 H 0.04312 0.60296 0.92684 0.0
C1777 C 1.01113 0.57236 1.00385 0.0
C1778 C 0.04114 0.58095 1.00836 0.0
H1779 H 0.97014 0.56707 0.96988 0.0
H1780 H 1.00165 0.56347 0.02476 0.0
C1781 C 0.0515 0.5921 0.97929 0.0
C1782 C 0.32345 0.24558 0.69952 0.0
C1783 C 0.29815 0.24474 0.6763 0.0
H1784 H 0.34804 0.26133 0.75145 0.0
C1785 C 0.27812 0.26056 0.68829 0.0
H1786 H 0.33934 0.23372 0.69098 0.0
C1787 C 0.28293 0.27606 0.72314 0.0
C1788 C 0.3081 0.27653 0.74652 0.0
H1789 H 0.25844 0.26029 0.67098 0.0
H1790 H 0.26684 0.28748 0.73181 0.0
C1791 C 0.32848 0.26154 0.73415 0.0
C1792 C 0.62093 0.55765 0.25809 0.0
C1793 C 0.62591 0.58828 0.28002 0.0
H1794 H 0.60667 0.5302 0.20631 0.0
C1795 C 0.61928 0.61524 0.26543 0.0
H1796 H 0.62581 0.53637 0.26852 0.0
C1797 C 0.60885 0.61186 0.22942 0.0
C1798 C 0.60454 0.58136 0.20731 0.0
H1799 H 0.62309 0.6392 0.2816 0.0
H1800 H 0.60445 0.63328 0.2189 0.0
C1801 C 0.61017 0.55417 0.22227 0.0
C1802 C 0.3698 0.93056 0.96474 0.0
C1803 C 0.34688 0.94553 0.95711 0.0
H1804 H 0.39179 0.89486 0.94594 0.0
C1805 C 0.33142 0.9402 0.92283 0.0
H1806 H 0.3821 0.93453 0.99106 0.0
C1807 C 0.33732 0.91819 0.89712 0.0
C1808 C 0.35833 0.90067 0.90542 0.0
H1809 H 0.31392 0.95187 0.91625 0.0
H1810 H 0.32406 0.91311 0.87135 0.0
C1811 C 0.37538 0.90799 0.93901 0.0
C1812 C 0.98152 0.57974 0.71316 0.0
C1813 C 0.99252 0.57513 0.74771 0.0
H1814 H 0.9866 0.58067 0.65925 0.0
C1815 C 1.01925 0.56637 0.75105 0.0
H1816 H 0.96127 0.58646 0.70816 0.0
C1817 C 0.03373 0.56233 0.72235 0.0
C1818 C 1.02307 0.5673 0.68787 0.0
H1819 H 1.02921 0.5623 0.77629 0.0
H1820 H 0.05394 0.55551 0.72758 0.0
C1821 C 0.99634 0.57627 0.68444 0.0
C1822 C 0.30005 0.28297 0.50103 0.0
C1823 C 0.29188 0.24829 0.49276 0.0
H1824 H 0.31414 0.32871 0.4834 0.0
C1825 C 0.29044 0.23344 0.45817 0.0
H1826 H 0.30137 0.29535 0.52734 0.0
C1827 C 0.29789 0.25267 0.43292 0.0
C1828 C 0.30687 0.28729 0.44154 0.0
H1829 H 0.2843 0.20686 0.4508 0.0
H1830 H 0.29734 0.24031 0.40685 0.0
C1831 C 0.30737 0.30218 0.47579 0.0
C1832 C 0.42093 0.62099 0.5843 0.0
C1833 C 0.39134 0.61256 0.57982 0.0
H1834 H 0.45753 0.60952 0.56783 0.0
C1835 C 0.37538 0.58798 0.55197 0.0
H1836 H 0.43359 0.64012 0.60536 0.0
C1837 C 0.38906 0.5702 0.5306 0.0
C1838 C 0.41877 0.57747 0.53633 0.0
H1839 H 0.35245 0.58123 0.548 0.0
H1840 H 0.37658 0.54977 0.51082 0.0
C1841 C 0.43454 0.60381 0.56248 0.0
C1842 C 0.96214 1.02292 0.65782 0.0
C1843 C 0.95063 0.99261 0.63531 0.0
H1844 H 0.99581 0.06656 0.67221 0.0
C1845 C 0.96579 0.98299 0.60984 0.0
H1846 H 0.95115 0.03117 0.67771 0.0
C1847 C 0.99141 1.0034 0.60654 0.0
C1848 C 1.00263 0.03392 0.62873 0.0
H1849 H 0.95759 0.95984 0.59197 0.0
H1850 H 1.00218 0.9955 0.58625 0.0
C1851 C 0.98779 0.04322 0.65462 0.0
C1852 C 0.90098 0.09457 0.31381 0.0
C1853 C 0.91392 0.08126 0.34143 0.0
H1854 H 0.87501 0.1275 0.29848 0.0
C1855 C 0.90931 0.09008 0.37525 0.0
H1856 H 0.90404 0.08797 0.28744 0.0
C1857 C 0.89293 0.11282 0.38162 0.0
C1858 C 0.88078 0.12708 0.35425 0.0
H1859 H 0.91905 0.08016 0.39703 0.0
H1860 H 0.89072 0.12017 0.40822 0.0
C1861 C 0.8845 0.11727 0.32016 0.0
C1862 C 0.75917 0.04019 0.10474 0.0
C1863 C 0.78287 0.05147 0.13204 0.0
H1864 H 0.71676 1.01253 0.08932 0.0
C1865 C 0.78537 0.0348 0.16064 0.0
H1866 H 0.75723 0.05189 0.08176 0.0
C1867 C 0.7621 1.0113 0.16481 0.0
C1868 C 0.73611 1.00518 0.14086 0.0
H1869 H 0.80391 0.04241 0.18156 0.0
H1870 H 0.76334 1.00133 0.18891 0.0
C1871 C 0.73596 1.01704 0.10899 0.0
C1872 C 0.23801 0.42377 0.35117 0.0
C1873 C 0.25109 0.4569 0.36812 0.0
H1874 H 0.24098 0.37297 0.33616 0.0
C1875 C 0.28022 0.46068 0.38404 0.0
H1876 H 0.21593 0.41826 0.33825 0.0
C1877 C 0.29492 0.43391 0.38307 0.0
C1878 C 0.28189 0.4008 0.36606 0.0
H1879 H 0.29209 0.48485 0.39755 0.0
H1880 H 0.31701 0.43948 0.39591 0.0
C1881 C 0.25275 0.39702 0.35009 0.0
C1882 C 0.27204 0.46456 0.13675 0.0
C1883 C 0.29877 0.48133 0.13242 0.0
H1884 H 0.22855 0.46552 0.13648 0.0
C1885 C 0.30163 0.51336 0.12442 0.0
H1886 H 0.26904 0.43989 0.14302 0.0
C1887 C 0.27827 0.52803 0.12035 0.0
C1888 C 0.25135 0.51112 0.12422 0.0
H1889 H 0.32185 0.52694 0.12073 0.0
H1890 H 0.28122 0.5524 0.11331 0.0
C1891 C 0.24869 0.47923 0.13274 0.0
C1892 C 0.88429 0.92884 0.29771 0.0
C1893 C 0.91047 0.9358 0.32127 0.0
H1894 H 0.8411 0.90094 0.28433 0.0
C1895 C 0.91324 0.91815 0.34916 0.0
H1896 H 0.88143 0.94216 0.27607 0.0
C1897 C 0.89002 0.8951 0.35423 0.0
C1898 C 0.8637 0.88871 0.33118 0.0
H1899 H 0.93299 0.92323 0.36805 0.0
H1900 H 0.89243 0.88326 0.37699 0.0
C1901 C 0.86115 0.90543 0.30255 0.0
C1902 C 0.75742 0.17176 0.89856 0.0
C1903 C 0.75428 0.14427 0.87192 0.0
H1904 H 0.7724 0.22441 0.91683 0.0
C1905 C 0.76507 0.1519 0.84196 0.0
H1906 H 0.74962 0.16783 0.92217 0.0
C1907 C 0.77795 0.18482 0.83865 0.0
C1908 C 0.78118 0.21238 0.86521 0.0
H1909 H 0.76332 0.13223 0.8205 0.0
H1910 H 0.78551 0.1886 0.81486 0.0
C1911 C 0.77064 0.20475 0.89541 0.0
loop_
_geom_bond_atom_site_label_1
_geom_bond_atom_site_label_2
_geom_bond_distance
_geom_bond_site_symmetry_2
_ccdc_geom_bond_type
In0 O1 2.294 . S
In0 O2 2.326 . S
In0 O6 2.266 1_455 S
In0 O7 2.326 1_455 S
In0 O8 2.266 . S
In0 O9 2.326 . S
In0 O11 2.294 . S
In0 O12 2.326 . S
O1 In0 2.294 . S
O1 C10 1.240 . S
O2 In0 2.326 . S
O2 C10 1.252 . S
C3 O6 1.252 . S
C3 O7 1.260 . S
C4 O11 1.240 . S
C4 O12 1.252 . S
C5 O8 1.252 . S
C5 O9 1.260 . S
O6 In0 2.266 1_655 S
O6 C3 1.252 . S
O7 In0 2.326 1_655 S
O7 C3 1.260 . S
O8 In0 2.266 . S
O8 C5 1.252 . S
O9 In0 2.326 . S
O9 C5 1.260 . S
C10 O1 1.240 . S
C10 O2 1.252 . S
O11 In0 2.294 . S
O11 C4 1.240 . S
O12 In0 2.326 . S
O12 C4 1.252 . S
In13 O14 2.294 . S
In13 O15 2.326 . S
In13 O19 2.266 . S
In13 O20 2.326 . S
In13 O21 2.266 . S
In13 O22 2.326 . S
In13 O24 2.294 . S
In13 O25 2.326 . S
O14 In13 2.294 . S
O14 C23 1.240 . S
O15 In13 2.326 . S
O15 C23 1.252 . S
C16 O19 1.252 . S
C16 O20 1.260 . S
C17 O24 1.240 . S
C17 O25 1.252 . S
C18 O21 1.252 . S
C18 O22 1.260 . S
O19 In13 2.266 . S
O19 C16 1.252 . S
O20 In13 2.326 . S
O20 C16 1.260 . S
O21 In13 2.266 . S
O21 C18 1.252 . S
O22 In13 2.326 . S
O22 C18 1.260 . S
C23 O14 1.240 . S
C23 O15 1.252 . S
O24 In13 2.294 . S
O24 C17 1.240 . S
O25 In13 2.326 . S
O25 C17 1.252 . S
In26 O27 2.294 . S
In26 O28 2.326 . S
In26 O32 2.266 . S
In26 O33 2.326 . S
In26 O34 2.266 . S
In26 O35 2.326 . S
In26 O37 2.294 . S
In26 O38 2.326 . S
O27 In26 2.294 . S
O27 C36 1.240 . S
O28 In26 2.326 . S
O28 C36 1.252 . S
C29 O32 1.252 . S
C29 O33 1.260 . S
C30 O37 1.240 . S
C30 O38 1.252 . S
C31 O34 1.252 . S
C31 O35 1.260 . S
O32 In26 2.266 . S
O32 C29 1.252 . S
O33 In26 2.326 . S
O33 C29 1.260 . S
O34 In26 2.266 . S
O34 C31 1.252 . S
O35 In26 2.326 . S
O35 C31 1.260 . S
C36 O27 1.240 . S
C36 O28 1.252 . S
O37 In26 2.294 . S
O37 C30 1.240 . S
O38 In26 2.326 . S
O38 C30 1.252 . S
In39 O40 2.294 . S
In39 O41 2.326 . S
In39 O45 2.266 . S
In39 O46 2.326 . S
In39 O47 2.266 . S
In39 O48 2.326 . S
In39 O50 2.294 . S
In39 O51 2.326 . S
O40 In39 2.294 . S
O40 C49 1.240 . S
O41 In39 2.326 . S
O41 C49 1.252 . S
C42 O45 1.252 . S
C42 O46 1.260 . S
C43 O50 1.240 . S
C43 O51 1.252 . S
C44 O47 1.252 . S
C44 O48 1.260 . S
O45 In39 2.266 . S
O45 C42 1.252 . S
O46 In39 2.326 . S
O46 C42 1.260 . S
O47 In39 2.266 . S
O47 C44 1.252 . S
O48 In39 2.326 . S
O48 C44 1.260 . S
C49 O40 1.240 . S
C49 O41 1.252 . S
O50 In39 2.294 . S
O50 C43 1.240 . S
O51 In39 2.326 . S
O51 C43 1.252 . S
In52 O53 2.294 . S
In52 O54 2.326 . S
In52 O58 2.266 . S
In52 O59 2.326 . S
In52 O60 2.266 . S
In52 O61 2.326 . S
In52 O63 2.294 . S
In52 O64 2.326 . S
O53 In52 2.294 . S
O53 C62 1.240 . S
O54 In52 2.326 . S
O54 C62 1.252 . S
C55 O58 1.252 . S
C55 O59 1.260 . S
C56 O63 1.240 . S
C56 O64 1.252 . S
C57 O60 1.252 . S
C57 O61 1.260 . S
O58 In52 2.266 . S
O58 C55 1.252 . S
O59 In52 2.326 . S
O59 C55 1.260 . S
O60 In52 2.266 . S
O60 C57 1.252 . S
O61 In52 2.326 . S
O61 C57 1.260 . S
C62 O53 1.240 . S
C62 O54 1.252 . S
O63 In52 2.294 . S
O63 C56 1.240 . S
O64 In52 2.326 . S
O64 C56 1.252 . S
In65 O66 2.294 . S
In65 O67 2.326 . S
In65 O71 2.266 . S
In65 O72 2.326 . S
In65 O73 2.266 . S
In65 O74 2.326 . S
In65 O76 2.294 . S
In65 O77 2.326 . S
O66 In65 2.294 . S
O66 C75 1.240 . S
O67 In65 2.326 . S
O67 C75 1.252 . S
C68 O71 1.252 . S
C68 O72 1.260 . S
C69 O76 1.240 . S
C69 O77 1.252 . S
C70 O73 1.252 . S
C70 O74 1.260 . S
O71 In65 2.266 . S
O71 C68 1.252 . S
O72 In65 2.326 . S
O72 C68 1.260 . S
O73 In65 2.266 . S
O73 C70 1.252 . S
O74 In65 2.326 . S
O74 C70 1.260 . S
C75 O66 1.240 . S
C75 O67 1.252 . S
O76 In65 2.294 . S
O76 C69 1.240 . S
O77 In65 2.326 . S
O77 C69 1.252 . S
In78 O79 2.294 . S
In78 O80 2.326 . S
In78 O84 2.266 . S
In78 O85 2.326 . S
In78 O86 2.266 . S
In78 O87 2.326 . S
In78 O89 2.294 . S
In78 O90 2.326 . S
O79 In78 2.294 . S
O79 C88 1.240 . S
O80 In78 2.326 . S
O80 C88 1.252 . S
C81 O84 1.252 . S
C81 O85 1.260 . S
C82 O89 1.240 . S
C82 O90 1.252 . S
C83 O86 1.252 . S
C83 O87 1.260 . S
O84 In78 2.266 . S
O84 C81 1.252 . S
O85 In78 2.326 . S
O85 C81 1.260 . S
O86 In78 2.266 . S
O86 C83 1.252 . S
O87 In78 2.326 . S
O87 C83 1.260 . S
C88 O79 1.240 . S
C88 O80 1.252 . S
O89 In78 2.294 . S
O89 C82 1.240 . S
O90 In78 2.326 . S
O90 C82 1.252 . S
In91 O92 2.294 1_556 S
In91 O93 2.326 . S
In91 O97 2.266 1_556 S
In91 O98 2.326 . S
In91 O99 2.266 1_455 S
In91 O100 2.326 1_455 S
In91 O102 2.294 . S
In91 O103 2.326 . S
O92 In91 2.294 1_554 S
O92 C101 1.240 . S
O93 In91 2.326 . S
O93 C101 1.252 1_556 S
C94 O97 1.252 . S
C94 O98 1.260 1_554 S
C95 O102 1.240 . S
C95 O103 1.252 . S
C96 O99 1.252 . S
C96 O100 1.260 . S
O97 In91 2.266 1_554 S
O97 C94 1.252 . S
O98 In91 2.326 . S
O98 C94 1.260 1_556 S
O99 In91 2.266 1_655 S
O99 C96 1.252 . S
O100 In91 2.326 1_655 S
O100 C96 1.260 . S
C101 O92 1.240 . S
C101 O93 1.252 1_554 S
O102 In91 2.294 . S
O102 C95 1.240 . S
O103 In91 2.326 . S
O103 C95 1.252 . S
In104 O105 2.294 . S
In104 O106 2.326 . S
In104 O110 2.266 . S
In104 O111 2.326 . S
In104 O112 2.266 1_545 S
In104 O113 2.326 1_545 S
In104 O115 2.294 . S
In104 O116 2.326 . S
O105 In104 2.294 . S
O105 C114 1.240 . S
O106 In104 2.326 . S
O106 C114 1.252 . S
C107 O110 1.252 . S
C107 O111 1.260 . S
C108 O115 1.240 . S
C108 O116 1.252 . S
C109 O112 1.252 . S
C109 O113 1.260 . S
O110 In104 2.266 . S
O110 C107 1.252 . S
O111 In104 2.326 . S
O111 C107 1.260 . S
O112 In104 2.266 1_565 S
O112 C109 1.252 . S
O113 In104 2.326 1_565 S
O113 C109 1.260 . S
C114 O105 1.240 . S
C114 O106 1.252 . S
O115 In104 2.294 . S
O115 C108 1.240 . S
O116 In104 2.326 . S
O116 C108 1.252 . S
In117 O118 2.294 . S
In117 O119 2.326 . S
In117 O123 2.266 . S
In117 O124 2.326 . S
In117 O125 2.266 . S
In117 O126 2.326 . S
In117 O128 2.294 . S
In117 O129 2.326 . S
O118 In117 2.294 . S
O118 C127 1.240 . S
O119 In117 2.326 . S
O119 C127 1.252 . S
C120 O123 1.252 . S
C120 O124 1.260 . S
C121 O128 1.240 . S
C121 O129 1.252 . S
C122 O125 1.252 . S
C122 O126 1.260 . S
O123 In117 2.266 . S
O123 C120 1.252 . S
O124 In117 2.326 . S
O124 C120 1.260 . S
O125 In117 2.266 . S
O125 C122 1.252 . S
O126 In117 2.326 . S
O126 C122 1.260 . S
C127 O118 1.240 . S
C127 O119 1.252 . S
O128 In117 2.294 . S
O128 C121 1.240 . S
O129 In117 2.326 . S
O129 C121 1.252 . S
In130 O131 2.294 . S
In130 O132 2.326 . S
In130 O136 2.266 . S
In130 O137 2.326 . S
In130 O138 2.266 . S
In130 O139 2.326 . S
In130 O141 2.294 . S
In130 O142 2.326 . S
O131 In130 2.294 . S
O131 C140 1.240 . S
O132 In130 2.326 . S
O132 C140 1.252 . S
C133 O136 1.252 . S
C133 O137 1.260 . S
C134 O141 1.240 . S
C134 O142 1.252 . S
C135 O138 1.252 . S
C135 O139 1.260 . S
O136 In130 2.266 . S
O136 C133 1.252 . S
O137 In130 2.326 . S
O137 C133 1.260 . S
O138 In130 2.266 . S
O138 C135 1.252 . S
O139 In130 2.326 . S
O139 C135 1.260 . S
C140 O131 1.240 . S
C140 O132 1.252 . S
O141 In130 2.294 . S
O141 C134 1.240 . S
O142 In130 2.326 . S
O142 C134 1.252 . S
In143 O144 2.296 . S
In143 O145 2.329 . S
In143 O149 2.264 1_554 S
In143 O150 2.322 1_554 S
In143 O151 2.265 . S
In143 O152 2.331 . S
In143 O154 2.294 . S
In143 O155 2.335 1_554 S
O144 In143 2.296 . S
O144 C153 1.240 . S
O145 In143 2.329 . S
O145 C153 1.252 . S
C146 O149 1.252 . S
C146 O150 1.260 . S
C147 O154 1.240 . S
C147 O155 1.252 1_554 S
C148 O151 1.252 . S
C148 O152 1.255 . S
O149 In143 2.264 1_556 S
O149 C146 1.252 . S
O150 In143 2.322 1_556 S
O150 C146 1.260 . S
O151 In143 2.265 . S
O151 C148 1.252 . S
O152 In143 2.331 . S
O152 C148 1.255 . S
C153 O144 1.240 . S
C153 O145 1.252 . S
O154 In143 2.294 . S
O154 C147 1.240 . S
O155 In143 2.335 1_556 S
O155 C147 1.252 1_556 S
In156 O157 2.294 . S
In156 O158 2.326 . S
In156 O162 2.266 . S
In156 O163 2.326 . S
In156 O164 2.266 . S
In156 O165 2.326 . S
In156 O167 2.294 . S
In156 O168 2.326 . S
O157 In156 2.294 . S
O157 C166 1.240 . S
O158 In156 2.326 . S
O158 C166 1.252 . S
C159 O162 1.252 . S
C159 O163 1.260 . S
C160 O167 1.240 . S
C160 O168 1.252 . S
C161 O164 1.252 . S
C161 O165 1.260 . S
O162 In156 2.266 . S
O162 C159 1.252 . S
O163 In156 2.326 . S
O163 C159 1.260 . S
O164 In156 2.266 . S
O164 C161 1.252 . S
O165 In156 2.326 . S
O165 C161 1.260 . S
C166 O157 1.240 . S
C166 O158 1.252 . S
O167 In156 2.294 . S
O167 C160 1.240 . S
O168 In156 2.326 . S
O168 C160 1.252 . S
In169 O170 2.294 . S
In169 O171 2.326 . S
In169 O175 2.266 . S
In169 O176 2.326 . S
In169 O177 2.266 . S
In169 O178 2.326 . S
In169 O180 2.294 . S
In169 O181 2.326 . S
O170 In169 2.294 . S
O170 C179 1.240 . S
O171 In169 2.326 . S
O171 C179 1.252 . S
C172 O175 1.252 . S
C172 O176 1.260 . S
C173 O180 1.240 . S
C173 O181 1.252 . S
C174 O177 1.252 . S
C174 O178 1.260 . S
O175 In169 2.266 . S
O175 C172 1.252 . S
O176 In169 2.326 . S
O176 C172 1.260 . S
O177 In169 2.266 . S
O177 C174 1.252 . S
O178 In169 2.326 . S
O178 C174 1.260 . S
C179 O170 1.240 . S
C179 O171 1.252 . S
O180 In169 2.294 . S
O180 C173 1.240 . S
O181 In169 2.326 . S
O181 C173 1.252 . S
In182 O183 2.294 . S
In182 O184 2.326 . S
In182 O188 2.266 . S
In182 O189 2.326 . S
In182 O190 2.266 . S
In182 O191 2.326 . S
In182 O193 2.294 . S
In182 O194 2.326 . S
O183 In182 2.294 . S
O183 C192 1.240 . S
O184 In182 2.326 . S
O184 C192 1.252 . S
C185 O188 1.252 . S
C185 O189 1.260 . S
C186 O193 1.240 . S
C186 O194 1.252 . S
C187 O190 1.252 . S
C187 O191 1.260 . S
O188 In182 2.266 . S
O188 C185 1.252 . S
O189 In182 2.326 . S
O189 C185 1.260 . S
O190 In182 2.266 . S
O190 C187 1.252 . S
O191 In182 2.326 . S
O191 C187 1.260 . S
C192 O183 1.240 . S
C192 O184 1.252 . S
O193 In182 2.294 . S
O193 C186 1.240 . S
O194 In182 2.326 . S
O194 C186 1.252 . S
In195 O196 2.294 . S
In195 O197 2.326 . S
In195 O201 2.266 . S
In195 O202 2.326 . S
In195 O203 2.266 . S
In195 O204 2.326 . S
In195 O206 2.294 . S
In195 O207 2.326 . S
O196 In195 2.294 . S
O196 C205 1.240 . S
O197 In195 2.326 . S
O197 C205 1.252 . S
C198 O201 1.252 . S
C198 O202 1.260 . S
C199 O206 1.240 . S
C199 O207 1.252 . S
C200 O203 1.252 . S
C200 O204 1.260 . S
O201 In195 2.266 . S
O201 C198 1.252 . S
O202 In195 2.326 . S
O202 C198 1.260 . S
O203 In195 2.266 . S
O203 C200 1.252 . S
O204 In195 2.326 . S
O204 C200 1.260 . S
C205 O196 1.240 . S
C205 O197 1.252 . S
O206 In195 2.294 . S
O206 C199 1.240 . S
O207 In195 2.326 . S
O207 C199 1.252 . S
In208 O209 2.297 . S
In208 O210 2.332 1_545 S
In208 O214 2.259 . S
In208 O215 2.322 . S
In208 O216 2.249 1_545 S
In208 O217 2.297 1_545 S
In208 O219 2.315 . S
In208 O220 2.355 . S
O209 In208 2.297 . S
O209 C218 1.240 . S
O210 In208 2.332 1_565 S
O210 C218 1.252 1_565 S
C211 O214 1.252 . S
C211 O215 1.260 . S
C212 O219 1.240 . S
C212 O220 1.252 . S
C213 O216 1.252 . S
C213 O217 1.260 . S
O214 In208 2.259 . S
O214 C211 1.252 . S
O215 In208 2.322 . S
O215 C211 1.260 . S
O216 In208 2.249 1_565 S
O216 C213 1.252 . S
O217 In208 2.297 1_565 S
O217 C213 1.260 . S
C218 O209 1.240 . S
C218 O210 1.252 1_545 S
O219 In208 2.315 . S
O219 C212 1.240 . S
O220 In208 2.355 . S
O220 C212 1.252 . S
In221 O222 2.294 . S
In221 O223 2.326 . S
In221 O227 2.266 . S
In221 O228 2.326 . S
In221 O229 2.266 . S
In221 O230 2.326 . S
In221 O232 2.294 . S
In221 O233 2.326 . S
O222 In221 2.294 . S
O222 C231 1.240 . S
O223 In221 2.326 . S
O223 C231 1.252 . S
C224 O227 1.252 . S
C224 O228 1.260 . S
C225 O232 1.240 . S
C225 O233 1.252 . S
C226 O229 1.252 . S
C226 O230 1.260 . S
O227 In221 2.266 . S
O227 C224 1.252 . S
O228 In221 2.326 . S
O228 C224 1.260 . S
O229 In221 2.266 . S
O229 C226 1.252 . S
O230 In221 2.326 . S
O230 C226 1.260 . S
C231 O222 1.240 . S
C231 O223 1.252 . S
O232 In221 2.294 . S
O232 C225 1.240 . S
O233 In221 2.326 . S
O233 C225 1.252 . S
In234 O235 2.294 . S
In234 O236 2.326 . S
In234 O240 2.266 . S
In234 O241 2.326 . S
In234 O242 2.266 . S
In234 O243 2.326 . S
In234 O245 2.294 . S
In234 O246 2.326 . S
O235 In234 2.294 . S
O235 C244 1.240 . S
O236 In234 2.326 . S
O236 C244 1.252 . S
C237 O240 1.252 . S
C237 O241 1.260 . S
C238 O245 1.240 . S
C238 O246 1.252 . S
C239 O242 1.252 . S
C239 O243 1.260 . S
O240 In234 2.266 . S
O240 C237 1.252 . S
O241 In234 2.326 . S
O241 C237 1.260 . S
O242 In234 2.266 . S
O242 C239 1.252 . S
O243 In234 2.326 . S
O243 C239 1.260 . S
C244 O235 1.240 . S
C244 O236 1.252 . S
O245 In234 2.294 . S
O245 C238 1.240 . S
O246 In234 2.326 . S
O246 C238 1.252 . S
In247 O248 2.294 . S
In247 O249 2.326 1_545 S
In247 O253 2.266 . S
In247 O254 2.326 . S
In247 O255 2.266 . S
In247 O256 2.326 . S
In247 O258 2.294 . S
In247 O259 2.326 . S
O248 In247 2.294 . S
O248 C257 1.240 1_545 S
O249 In247 2.326 1_565 S
O249 C257 1.252 . S
C250 O253 1.252 . S
C250 O254 1.260 . S
C251 O258 1.240 . S
C251 O259 1.252 . S
C252 O255 1.252 . S
C252 O256 1.260 . S
O253 In247 2.266 . S
O253 C250 1.252 . S
O254 In247 2.326 . S
O254 C250 1.260 . S
O255 In247 2.266 . S
O255 C252 1.252 . S
O256 In247 2.326 . S
O256 C252 1.260 . S
C257 O248 1.240 1_565 S
C257 O249 1.252 . S
O258 In247 2.294 . S
O258 C251 1.240 . S
O259 In247 2.326 . S
O259 C251 1.252 . S
In260 O261 2.294 . S
In260 O262 2.326 . S
In260 O266 2.266 . S
In260 O267 2.326 . S
In260 O268 2.266 . S
In260 O269 2.326 . S
In260 O271 2.294 . S
In260 O272 2.326 . S
O261 In260 2.294 . S
O261 C270 1.240 . S
O262 In260 2.326 . S
O262 C270 1.252 . S
C263 O266 1.252 . S
C263 O267 1.260 . S
C264 O271 1.240 . S
C264 O272 1.252 . S
C265 O268 1.252 . S
C265 O269 1.260 . S
O266 In260 2.266 . S
O266 C263 1.252 . S
O267 In260 2.326 . S
O267 C263 1.260 . S
O268 In260 2.266 . S
O268 C265 1.252 . S
O269 In260 2.326 . S
O269 C265 1.260 . S
C270 O261 1.240 . S
C270 O262 1.252 . S
O271 In260 2.294 . S
O271 C264 1.240 . S
O272 In260 2.326 . S
O272 C264 1.252 . S
In273 O274 2.294 . S
In273 O275 2.326 . S
In273 O279 2.266 . S
In273 O280 2.326 . S
In273 O281 2.266 . S
In273 O282 2.326 . S
In273 O284 2.294 . S
In273 O285 2.326 . S
O274 In273 2.294 . S
O274 C283 1.240 . S
O275 In273 2.326 . S
O275 C283 1.252 . S
C276 O279 1.252 . S
C276 O280 1.260 . S
C277 O284 1.240 . S
C277 O285 1.252 . S
C278 O281 1.252 . S
C278 O282 1.260 . S
O279 In273 2.266 . S
O279 C276 1.252 . S
O280 In273 2.326 . S
O280 C276 1.260 . S
O281 In273 2.266 . S
O281 C278 1.252 . S
O282 In273 2.326 . S
O282 C278 1.260 . S
C283 O274 1.240 . S
C283 O275 1.252 . S
O284 In273 2.294 . S
O284 C277 1.240 . S
O285 In273 2.326 . S
O285 C277 1.252 . S
In286 O287 2.294 . S
In286 O288 2.326 . S
In286 O292 2.266 . S
In286 O293 2.326 . S
In286 O294 2.266 . S
In286 O295 2.326 . S
In286 O297 2.294 . S
In286 O298 2.326 . S
O287 In286 2.294 . S
O287 C296 1.240 . S
O288 In286 2.326 . S
O288 C296 1.252 . S
C289 O292 1.252 . S
C289 O293 1.260 . S
C290 O297 1.240 . S
C290 O298 1.252 . S
C291 O294 1.252 . S
C291 O295 1.260 . S
O292 In286 2.266 . S
O292 C289 1.252 . S
O293 In286 2.326 . S
O293 C289 1.260 . S
O294 In286 2.266 . S
O294 C291 1.252 . S
O295 In286 2.326 . S
O295 C291 1.260 . S
C296 O287 1.240 . S
C296 O288 1.252 . S
O297 In286 2.294 . S
O297 C290 1.240 . S
O298 In286 2.326 . S
O298 C290 1.252 . S
In299 O300 2.294 . S
In299 O301 2.326 . S
In299 O305 2.266 . S
In299 O306 2.326 . S
In299 O307 2.266 . S
In299 O308 2.326 . S
In299 O310 2.294 . S
In299 O311 2.326 . S
O300 In299 2.294 . S
O300 C309 1.240 . S
O301 In299 2.326 . S
O301 C309 1.252 . S
C302 O305 1.252 . S
C302 O306 1.260 . S
C303 O310 1.240 . S
C303 O311 1.252 . S
C304 O307 1.252 . S
C304 O308 1.260 . S
O305 In299 2.266 . S
O305 C302 1.252 . S
O306 In299 2.326 . S
O306 C302 1.260 . S
O307 In299 2.266 . S
O307 C304 1.252 . S
O308 In299 2.326 . S
O308 C304 1.260 . S
C309 O300 1.240 . S
C309 O301 1.252 . S
O310 In299 2.294 . S
O310 C303 1.240 . S
O311 In299 2.326 . S
O311 C303 1.252 . S
Tb312 C314 2.809 1_455 S
Tb312 O332 2.484 1_455 S
Tb312 O333 2.440 1_455 S
Tb312 O334 2.658 . S
Tb312 O335 2.409 . S
Tb312 O336 2.378 . S
Tb312 O340 2.325 . S
Tb312 O343 2.341 1_545 S
Tb313 C323 2.809 . S
Tb313 O334 2.325 . S
Tb313 O337 2.341 . S
Tb313 O338 2.484 . S
Tb313 O339 2.440 . S
Tb313 O340 2.658 . S
Tb313 O341 2.409 . S
Tb313 O342 2.378 . S
C314 Tb312 2.809 1_655 S
C314 C315 1.514 . S
C314 O332 1.248 . S
C314 O333 1.266 . S
C315 C314 1.514 . S
C315 C316 1.359 . S
C315 C320 1.348 . S
C316 C315 1.359 . S
C316 C317 1.380 . S
C316 H344 0.929 . S
C317 C316 1.380 . S
C317 C318 1.347 . S
C317 H345 0.931 . S
C318 C317 1.347 . S
C318 C319 1.369 . S
C319 C318 1.369 . S
C319 C320 1.408 . S
C319 H346 0.930 . S
C320 C315 1.348 . S
C320 C319 1.408 . S
C320 H347 0.930 . S
C321 O334 1.281 . S
C321 O335 1.254 . S
C322 O336 1.236 . S
C322 O337 1.266 . S
C323 Tb313 2.809 . S
C323 C324 1.514 . S
C323 O338 1.248 . S
C323 O339 1.266 . S
C324 C323 1.514 . S
C324 C325 1.359 1_545 S
C324 C329 1.348 . S
C325 C324 1.359 1_565 S
C325 C326 1.380 . S
C325 H348 0.929 . S
C326 C325 1.380 . S
C326 C327 1.347 . S
C326 H349 0.931 . S
C327 C326 1.347 . S
C327 C328 1.369 . S
C328 C327 1.369 . S
C328 C329 1.408 1_565 S
C328 H350 0.930 . S
C329 C324 1.348 . S
C329 C328 1.408 1_545 S
C329 H351 0.930 . S
C330 O340 1.281 . S
C330 O341 1.254 . S
C331 O342 1.236 1_565 S
C331 O343 1.266 . S
O332 Tb312 2.484 1_655 S
O332 C314 1.248 . S
O333 Tb312 2.440 1_655 S
O333 C314 1.266 . S
O334 Tb312 2.658 . S
O334 Tb313 2.325 . S
O334 C321 1.281 . S
O335 Tb312 2.409 . S
O335 C321 1.254 . S
O336 Tb312 2.378 . S
O336 C322 1.236 . S
O337 Tb313 2.341 . S
O337 C322 1.266 . S
O338 Tb313 2.484 . S
O338 C323 1.248 . S
O339 Tb313 2.440 . S
O339 C323 1.266 . S
O340 Tb312 2.325 . S
O340 Tb313 2.658 . S
O340 C330 1.281 . S
O341 Tb313 2.409 . S
O341 C330 1.254 . S
O342 Tb313 2.378 . S
O342 C331 1.236 1_545 S
O343 Tb312 2.341 1_565 S
O343 C331 1.266 . S
H344 C316 0.929 . S
H345 C317 0.931 . S
H346 C319 0.930 . S
H347 C320 0.930 . S
H348 C325 0.929 . S
H349 C326 0.931 . S
H350 C328 0.930 . S
H351 C329 0.930 . S
Tb352 C354 2.809 . S
Tb352 O372 2.484 . S
Tb352 O373 2.440 . S
Tb352 O374 2.658 . S
Tb352 O375 2.409 . S
Tb352 O376 2.378 . S
Tb352 O380 2.325 . S
Tb352 O383 2.341 . S
Tb353 C363 2.809 . S
Tb353 O374 2.325 . S
Tb353 O377 2.341 . S
Tb353 O378 2.484 . S
Tb353 O379 2.440 . S
Tb353 O380 2.658 . S
Tb353 O381 2.409 . S
Tb353 O382 2.378 . S
C354 Tb352 2.809 . S
C354 C355 1.514 . S
C354 O372 1.248 . S
C354 O373 1.266 . S
C355 C354 1.514 . S
C355 C356 1.359 . S
C355 C360 1.348 . S
C356 C355 1.359 . S
C356 C357 1.380 . S
C356 H384 0.929 . S
C357 C356 1.380 . S
C357 C358 1.347 . S
C357 H385 0.931 . S
C358 C357 1.347 . S
C358 C359 1.369 . S
C359 C358 1.369 . S
C359 C360 1.408 . S
C359 H386 0.930 . S
C360 C355 1.348 . S
C360 C359 1.408 . S
C360 H387 0.930 . S
C361 O374 1.281 . S
C361 O375 1.254 . S
C362 O376 1.236 . S
C362 O377 1.266 . S
C363 Tb353 2.809 . S
C363 C364 1.514 . S
C363 O378 1.248 . S
C363 O379 1.266 . S
C364 C363 1.514 . S
C364 C365 1.359 . S
C364 C369 1.348 . S
C365 C364 1.359 . S
C365 C366 1.380 . S
C365 H388 0.929 . S
C366 C365 1.380 . S
C366 C367 1.347 . S
C366 H389 0.931 . S
C367 C366 1.347 . S
C367 C368 1.369 . S
C368 C367 1.369 . S
C368 C369 1.408 . S
C368 H390 0.930 . S
C369 C364 1.348 . S
C369 C368 1.408 . S
C369 H391 0.930 . S
C370 O380 1.281 . S
C370 O381 1.254 . S
C371 O382 1.236 . S
C371 O383 1.266 . S
O372 Tb352 2.484 . S
O372 C354 1.248 . S
O373 Tb352 2.440 . S
O373 C354 1.266 . S
O374 Tb352 2.658 . S
O374 Tb353 2.325 . S
O374 C361 1.281 . S
O375 Tb352 2.409 . S
O375 C361 1.254 . S
O376 Tb352 2.378 . S
O376 C362 1.236 . S
O377 Tb353 2.341 . S
O377 C362 1.266 . S
O378 Tb353 2.484 . S
O378 C363 1.248 . S
O379 Tb353 2.440 . S
O379 C363 1.266 . S
O380 Tb352 2.325 . S
O380 Tb353 2.658 . S
O380 C370 1.281 . S
O381 Tb353 2.409 . S
O381 C370 1.254 . S
O382 Tb353 2.378 . S
O382 C371 1.236 . S
O383 Tb352 2.341 . S
O383 C371 1.266 . S
H384 C356 0.929 . S
H385 C357 0.931 . S
H386 C359 0.930 . S
H387 C360 0.930 . S
H388 C365 0.929 . S
H389 C366 0.931 . S
H390 C368 0.930 . S
H391 C369 0.930 . S
Tb392 C394 2.809 . S
Tb392 O412 2.484 . S
Tb392 O413 2.440 . S
Tb392 O414 2.658 . S
Tb392 O415 2.409 . S
Tb392 O416 2.378 1_545 S
Tb392 O420 2.325 . S
Tb392 O423 2.341 . S
Tb393 C403 2.809 . S
Tb393 O414 2.325 . S
Tb393 O417 2.341 1_545 S
Tb393 O418 2.484 . S
Tb393 O419 2.440 . S
Tb393 O420 2.658 . S
Tb393 O421 2.409 . S
Tb393 O422 2.378 . S
C394 Tb392 2.809 . S
C394 C395 1.514 1_545 S
C394 O412 1.248 . S
C394 O413 1.266 . S
C395 C394 1.514 1_565 S
C395 C396 1.359 . S
C395 C400 1.348 . S
C396 C395 1.359 . S
C396 C397 1.380 . S
C396 H424 0.929 . S
C397 C396 1.380 . S
C397 C398 1.347 . S
C397 H425 0.931 . S
C398 C397 1.347 . S
C398 C399 1.369 . S
C399 C398 1.369 . S
C399 C400 1.408 . S
C399 H426 0.930 . S
C400 C395 1.348 . S
C400 C399 1.408 . S
C400 H427 0.930 . S
C401 O414 1.281 . S
C401 O415 1.254 . S
C402 O416 1.236 . S
C402 O417 1.266 . S
C403 Tb393 2.809 . S
C403 C404 1.514 . S
C403 O418 1.248 . S
C403 O419 1.266 . S
C404 C403 1.514 . S
C404 C405 1.359 . S
C404 C409 1.348 . S
C405 C404 1.359 . S
C405 C406 1.380 . S
C405 H428 0.929 . S
C406 C405 1.380 . S
C406 C407 1.347 . S
C406 H429 0.931 . S
C407 C406 1.347 . S
C407 C408 1.369 . S
C408 C407 1.369 . S
C408 C409 1.408 . S
C408 H430 0.930 . S
C409 C404 1.348 . S
C409 C408 1.408 . S
C409 H431 0.930 . S
C410 O420 1.281 . S
C410 O421 1.254 . S
C411 O422 1.236 . S
C411 O423 1.266 . S
O412 Tb392 2.484 . S
O412 C394 1.248 . S
O413 Tb392 2.440 . S
O413 C394 1.266 . S
O414 Tb392 2.658 . S
O414 Tb393 2.325 . S
O414 C401 1.281 . S
O415 Tb392 2.409 . S
O415 C401 1.254 . S
O416 Tb392 2.378 1_565 S
O416 C402 1.236 . S
O417 Tb393 2.341 1_565 S
O417 C402 1.266 . S
O418 Tb393 2.484 . S
O418 C403 1.248 . S
O419 Tb393 2.440 . S
O419 C403 1.266 . S
O420 Tb392 2.325 . S
O420 Tb393 2.658 . S
O420 C410 1.281 . S
O421 Tb393 2.409 . S
O421 C410 1.254 . S
O422 Tb393 2.378 . S
O422 C411 1.236 . S
O423 Tb392 2.341 . S
O423 C411 1.266 . S
H424 C396 0.929 . S
H425 C397 0.931 . S
H426 C399 0.930 . S
H427 C400 0.930 . S
H428 C405 0.929 . S
H429 C406 0.931 . S
H430 C408 0.930 . S
H431 C409 0.930 . S
Tb432 C434 2.809 . S
Tb432 O452 2.484 . S
Tb432 O453 2.440 . S
Tb432 O454 2.658 . S
Tb432 O455 2.409 . S
Tb432 O456 2.378 . S
Tb432 O460 2.325 . S
Tb432 O463 2.341 . S
Tb433 C443 2.809 . S
Tb433 O454 2.325 . S
Tb433 O457 2.341 . S
Tb433 O458 2.484 . S
Tb433 O459 2.440 . S
Tb433 O460 2.658 . S
Tb433 O461 2.409 . S
Tb433 O462 2.378 . S
C434 Tb432 2.809 . S
C434 C435 1.514 . S
C434 O452 1.248 . S
C434 O453 1.266 . S
C435 C434 1.514 . S
C435 C436 1.359 . S
C435 C440 1.348 . S
C436 C435 1.359 . S
C436 C437 1.380 . S
C436 H464 0.929 . S
C437 C436 1.380 . S
C437 C438 1.347 . S
C437 H465 0.931 . S
C438 C437 1.347 . S
C438 C439 1.369 . S
C439 C438 1.369 . S
C439 C440 1.408 . S
C439 H466 0.930 . S
C440 C435 1.348 . S
C440 C439 1.408 . S
C440 H467 0.930 . S
C441 O454 1.281 . S
C441 O455 1.254 . S
C442 O456 1.236 . S
C442 O457 1.266 . S
C443 Tb433 2.809 . S
C443 C444 1.514 . S
C443 O458 1.248 . S
C443 O459 1.266 . S
C444 C443 1.514 . S
C444 C445 1.359 . S
C444 C449 1.348 . S
C445 C444 1.359 . S
C445 C446 1.380 . S
C445 H468 0.929 . S
C446 C445 1.380 . S
C446 C447 1.347 . S
C446 H469 0.931 . S
C447 C446 1.347 . S
C447 C448 1.369 . S
C448 C447 1.369 . S
C448 C449 1.408 . S
C448 H470 0.930 . S
C449 C444 1.348 . S
C449 C448 1.408 . S
C449 H471 0.930 . S
C450 O460 1.281 . S
C450 O461 1.254 . S
C451 O462 1.236 . S
C451 O463 1.266 . S
O452 Tb432 2.484 . S
O452 C434 1.248 . S
O453 Tb432 2.440 . S
O453 C434 1.266 . S
O454 Tb432 2.658 . S
O454 Tb433 2.325 . S
O454 C441 1.281 . S
O455 Tb432 2.409 . S
O455 C441 1.254 . S
O456 Tb432 2.378 . S
O456 C442 1.236 . S
O457 Tb433 2.341 . S
O457 C442 1.266 . S
O458 Tb433 2.484 . S
O458 C443 1.248 . S
O459 Tb433 2.440 . S
O459 C443 1.266 . S
O460 Tb432 2.325 . S
O460 Tb433 2.658 . S
O460 C450 1.281 . S
O461 Tb433 2.409 . S
O461 C450 1.254 . S
O462 Tb433 2.378 . S
O462 C451 1.236 . S
O463 Tb432 2.341 . S
O463 C451 1.266 . S
H464 C436 0.929 . S
H465 C437 0.931 . S
H466 C439 0.930 . S
H467 C440 0.930 . S
H468 C445 0.929 . S
H469 C446 0.931 . S
H470 C448 0.930 . S
H471 C449 0.930 . S
Tb472 C474 2.809 . S
Tb472 O492 2.484 . S
Tb472 O493 2.440 . S
Tb472 O494 2.658 . S
Tb472 O495 2.409 . S
Tb472 O496 2.378 . S
Tb472 O500 2.325 . S
Tb472 O503 2.341 . S
Tb473 C483 2.809 . S
Tb473 O494 2.325 1_565 S
Tb473 O497 2.341 1_565 S
Tb473 O498 2.484 . S
Tb473 O499 2.440 . S
Tb473 O500 2.658 1_565 S
Tb473 O501 2.409 1_565 S
Tb473 O502 2.378 1_565 S
C474 Tb472 2.809 . S
C474 C475 1.514 . S
C474 O492 1.248 . S
C474 O493 1.266 . S
C475 C474 1.514 . S
C475 C476 1.359 . S
C475 C480 1.348 . S
C476 C475 1.359 . S
C476 C477 1.380 . S
C476 H504 0.929 . S
C477 C476 1.380 . S
C477 C478 1.347 . S
C477 H505 0.931 . S
C478 C477 1.347 . S
C478 C479 1.369 1_455 S
C479 C478 1.369 1_655 S
C479 C480 1.408 1_655 S
C479 H506 0.930 . S
C480 C475 1.348 . S
C480 C479 1.408 1_455 S
C480 H507 0.930 1_455 S
C481 O494 1.281 . S
C481 O495 1.254 . S
C482 O496 1.236 . S
C482 O497 1.266 . S
C483 Tb473 2.809 . S
C483 C484 1.514 . S
C483 O498 1.248 . S
C483 O499 1.266 . S
C484 C483 1.514 . S
C484 C485 1.359 . S
C484 C489 1.348 . S
C485 C484 1.359 . S
C485 C486 1.380 . S
C485 H508 0.929 . S
C486 C485 1.380 . S
C486 C487 1.347 . S
C486 H509 0.931 . S
C487 C486 1.347 . S
C487 C488 1.369 . S
C488 C487 1.369 . S
C488 C489 1.408 . S
C488 H510 0.930 . S
C489 C484 1.348 . S
C489 C488 1.408 . S
C489 H511 0.930 . S
C490 O500 1.281 . S
C490 O501 1.254 . S
C491 O502 1.236 . S
C491 O503 1.266 . S
O492 Tb472 2.484 . S
O492 C474 1.248 . S
O493 Tb472 2.440 . S
O493 C474 1.266 . S
O494 Tb472 2.658 . S
O494 Tb473 2.325 1_545 S
O494 C481 1.281 . S
O495 Tb472 2.409 . S
O495 C481 1.254 . S
O496 Tb472 2.378 . S
O496 C482 1.236 . S
O497 Tb473 2.341 1_545 S
O497 C482 1.266 . S
O498 Tb473 2.484 . S
O498 C483 1.248 . S
O499 Tb473 2.440 . S
O499 C483 1.266 . S
O500 Tb472 2.325 . S
O500 Tb473 2.658 1_545 S
O500 C490 1.281 . S
O501 Tb473 2.409 1_545 S
O501 C490 1.254 . S
O502 Tb473 2.378 1_545 S
O502 C491 1.236 . S
O503 Tb472 2.341 . S
O503 C491 1.266 . S
H504 C476 0.929 . S
H505 C477 0.931 . S
H506 C479 0.930 . S
H507 C480 0.930 1_655 S
H508 C485 0.929 . S
H509 C486 0.931 . S
H510 C488 0.930 . S
H511 C489 0.930 . S
Tb512 C514 2.809 . S
Tb512 O532 2.484 . S
Tb512 O533 2.440 . S
Tb512 O534 2.658 . S
Tb512 O535 2.409 . S
Tb512 O536 2.378 . S
Tb512 O540 2.325 . S
Tb512 O543 2.341 . S
Tb513 C523 2.809 . S
Tb513 O534 2.325 . S
Tb513 O537 2.341 . S
Tb513 O538 2.484 . S
Tb513 O539 2.440 . S
Tb513 O540 2.658 . S
Tb513 O541 2.409 . S
Tb513 O542 2.378 . S
C514 Tb512 2.809 . S
C514 C515 1.514 . S
C514 O532 1.248 . S
C514 O533 1.266 . S
C515 C514 1.514 . S
C515 C516 1.359 . S
C515 C520 1.348 . S
C516 C515 1.359 . S
C516 C517 1.380 . S
C516 H544 0.929 . S
C517 C516 1.380 . S
C517 C518 1.347 . S
C517 H545 0.931 . S
C518 C517 1.347 . S
C518 C519 1.369 . S
C519 C518 1.369 . S
C519 C520 1.408 . S
C519 H546 0.930 . S
C520 C515 1.348 . S
C520 C519 1.408 . S
C520 H547 0.930 . S
C521 O534 1.281 . S
C521 O535 1.254 . S
C522 O536 1.236 . S
C522 O537 1.266 . S
C523 Tb513 2.809 . S
C523 C524 1.514 . S
C523 O538 1.248 . S
C523 O539 1.266 . S
C524 C523 1.514 . S
C524 C525 1.359 . S
C524 C529 1.348 . S
C525 C524 1.359 . S
C525 C526 1.380 . S
C525 H548 0.929 . S
C526 C525 1.380 . S
C526 C527 1.347 . S
C526 H549 0.931 . S
C527 C526 1.347 . S
C527 C528 1.369 . S
C528 C527 1.369 . S
C528 C529 1.408 . S
C528 H550 0.930 . S
C529 C524 1.348 . S
C529 C528 1.408 . S
C529 H551 0.930 . S
C530 O540 1.281 . S
C530 O541 1.254 . S
C531 O542 1.236 . S
C531 O543 1.266 . S
O532 Tb512 2.484 . S
O532 C514 1.248 . S
O533 Tb512 2.440 . S
O533 C514 1.266 . S
O534 Tb512 2.658 . S
O534 Tb513 2.325 . S
O534 C521 1.281 . S
O535 Tb512 2.409 . S
O535 C521 1.254 . S
O536 Tb512 2.378 . S
O536 C522 1.236 . S
O537 Tb513 2.341 . S
O537 C522 1.266 . S
O538 Tb513 2.484 . S
O538 C523 1.248 . S
O539 Tb513 2.440 . S
O539 C523 1.266 . S
O540 Tb512 2.325 . S
O540 Tb513 2.658 . S
O540 C530 1.281 . S
O541 Tb513 2.409 . S
O541 C530 1.254 . S
O542 Tb513 2.378 . S
O542 C531 1.236 . S
O543 Tb512 2.341 . S
O543 C531 1.266 . S
H544 C516 0.929 . S
H545 C517 0.931 . S
H546 C519 0.930 . S
H547 C520 0.930 . S
H548 C525 0.929 . S
H549 C526 0.931 . S
H550 C528 0.930 . S
H551 C529 0.930 . S
Tb552 C554 2.809 . S
Tb552 O572 2.484 . S
Tb552 O573 2.440 . S
Tb552 O574 2.658 . S
Tb552 O575 2.409 . S
Tb552 O576 2.378 . S
Tb552 O580 2.325 . S
Tb552 O583 2.341 . S
Tb553 C563 2.809 . S
Tb553 O574 2.325 . S
Tb553 O577 2.341 . S
Tb553 O578 2.484 . S
Tb553 O579 2.440 . S
Tb553 O580 2.658 . S
Tb553 O581 2.409 1_545 S
Tb553 O582 2.378 . S
C554 Tb552 2.809 . S
C554 C555 1.514 . S
C554 O572 1.248 . S
C554 O573 1.266 . S
C555 C554 1.514 . S
C555 C556 1.359 1_545 S
C555 C560 1.348 . S
C556 C555 1.359 1_565 S
C556 C557 1.380 . S
C556 H584 0.929 . S
C557 C556 1.380 . S
C557 C558 1.347 . S
C557 H585 0.931 . S
C558 C557 1.347 . S
C558 C559 1.369 1_565 S
C559 C558 1.369 1_545 S
C559 C560 1.408 . S
C559 H586 0.930 . S
C560 C555 1.348 . S
C560 C559 1.408 . S
C560 H587 0.930 . S
C561 O574 1.281 . S
C561 O575 1.254 . S
C562 O576 1.236 . S
C562 O577 1.266 . S
C563 Tb553 2.809 . S
C563 C564 1.514 . S
C563 O578 1.248 . S
C563 O579 1.266 . S
C564 C563 1.514 . S
C564 C565 1.359 . S
C564 C569 1.348 . S
C565 C564 1.359 . S
C565 C566 1.380 . S
C565 H588 0.929 . S
C566 C565 1.380 . S
C566 C567 1.347 . S
C566 H589 0.931 . S
C567 C566 1.347 . S
C567 C568 1.369 . S
C568 C567 1.369 . S
C568 C569 1.408 . S
C568 H590 0.930 . S
C569 C564 1.348 . S
C569 C568 1.408 . S
C569 H591 0.930 . S
C570 O580 1.281 1_565 S
C570 O581 1.254 . S
C571 O582 1.236 . S
C571 O583 1.266 . S
O572 Tb552 2.484 . S
O572 C554 1.248 . S
O573 Tb552 2.440 . S
O573 C554 1.266 . S
O574 Tb552 2.658 . S
O574 Tb553 2.325 . S
O574 C561 1.281 . S
O575 Tb552 2.409 . S
O575 C561 1.254 . S
O576 Tb552 2.378 . S
O576 C562 1.236 . S
O577 Tb553 2.341 . S
O577 C562 1.266 . S
O578 Tb553 2.484 . S
O578 C563 1.248 . S
O579 Tb553 2.440 . S
O579 C563 1.266 . S
O580 Tb552 2.325 . S
O580 Tb553 2.658 . S
O580 C570 1.281 1_545 S
O581 Tb553 2.409 1_565 S
O581 C570 1.254 . S
O582 Tb553 2.378 . S
O582 C571 1.236 . S
O583 Tb552 2.341 . S
O583 C571 1.266 . S
H584 C556 0.929 . S
H585 C557 0.931 . S
H586 C559 0.930 . S
H587 C560 0.930 . S
H588 C565 0.929 . S
H589 C566 0.931 . S
H590 C568 0.930 . S
H591 C569 0.930 . S
Tb592 C594 2.809 . S
Tb592 O612 2.484 . S
Tb592 O613 2.440 . S
Tb592 O614 2.658 . S
Tb592 O615 2.409 . S
Tb592 O616 2.378 . S
Tb592 O620 2.325 . S
Tb592 O623 2.341 . S
Tb593 C603 2.809 . S
Tb593 O614 2.325 . S
Tb593 O617 2.341 . S
Tb593 O618 2.484 . S
Tb593 O619 2.440 . S
Tb593 O620 2.658 . S
Tb593 O621 2.409 . S
Tb593 O622 2.378 . S
C594 Tb592 2.809 . S
C594 C595 1.514 . S
C594 O612 1.248 . S
C594 O613 1.266 . S
C595 C594 1.514 . S
C595 C596 1.359 . S
C595 C600 1.348 . S
C596 C595 1.359 . S
C596 C597 1.380 . S
C596 H624 0.929 . S
C597 C596 1.380 . S
C597 C598 1.347 . S
C597 H625 0.931 . S
C598 C597 1.347 . S
C598 C599 1.369 . S
C599 C598 1.369 . S
C599 C600 1.408 . S
C599 H626 0.930 . S
C600 C595 1.348 . S
C600 C599 1.408 . S
C600 H627 0.930 . S
C601 O614 1.281 . S
C601 O615 1.254 . S
C602 O616 1.236 . S
C602 O617 1.266 . S
C603 Tb593 2.809 . S
C603 C604 1.514 . S
C603 O618 1.248 . S
C603 O619 1.266 . S
C604 C603 1.514 . S
C604 C605 1.359 . S
C604 C609 1.348 . S
C605 C604 1.359 . S
C605 C606 1.380 . S
C605 H628 0.929 . S
C606 C605 1.380 . S
C606 C607 1.347 . S
C606 H629 0.931 . S
C607 C606 1.347 . S
C607 C608 1.369 . S
C608 C607 1.369 . S
C608 C609 1.408 . S
C608 H630 0.930 . S
C609 C604 1.348 . S
C609 C608 1.408 . S
C609 H631 0.930 . S
C610 O620 1.281 . S
C610 O621 1.254 . S
C611 O622 1.236 . S
C611 O623 1.266 . S
O612 Tb592 2.484 . S
O612 C594 1.248 . S
O613 Tb592 2.440 . S
O613 C594 1.266 . S
O614 Tb592 2.658 . S
O614 Tb593 2.325 . S
O614 C601 1.281 . S
O615 Tb592 2.409 . S
O615 C601 1.254 . S
O616 Tb592 2.378 . S
O616 C602 1.236 . S
O617 Tb593 2.341 . S
O617 C602 1.266 . S
O618 Tb593 2.484 . S
O618 C603 1.248 . S
O619 Tb593 2.440 . S
O619 C603 1.266 . S
O620 Tb592 2.325 . S
O620 Tb593 2.658 . S
O620 C610 1.281 . S
O621 Tb593 2.409 . S
O621 C610 1.254 . S
O622 Tb593 2.378 . S
O622 C611 1.236 . S
O623 Tb592 2.341 . S
O623 C611 1.266 . S
H624 C596 0.929 . S
H625 C597 0.931 . S
H626 C599 0.930 . S
H627 C600 0.930 . S
H628 C605 0.929 . S
H629 C606 0.931 . S
H630 C608 0.930 . S
H631 C609 0.930 . S
Tb632 C634 2.809 . S
Tb632 O652 2.484 . S
Tb632 O653 2.440 . S
Tb632 O654 2.658 . S
Tb632 O655 2.409 . S
Tb632 O656 2.378 . S
Tb632 O660 2.325 . S
Tb632 O663 2.341 . S
Tb633 C643 2.809 . S
Tb633 O654 2.325 . S
Tb633 O657 2.341 . S
Tb633 O658 2.484 . S
Tb633 O659 2.440 . S
Tb633 O660 2.658 . S
Tb633 O661 2.409 . S
Tb633 O662 2.378 . S
C634 Tb632 2.809 . S
C634 C635 1.514 . S
C634 O652 1.248 . S
C634 O653 1.266 . S
C635 C634 1.514 . S
C635 C636 1.359 . S
C635 C640 1.348 . S
C636 C635 1.359 . S
C636 C637 1.380 1_554 S
C636 H664 0.929 . S
C637 C636 1.380 1_556 S
C637 C638 1.347 . S
C637 H665 0.931 . S
C638 C637 1.347 . S
C638 C639 1.369 1_556 S
C639 C638 1.369 1_554 S
C639 C640 1.408 . S
C639 H666 0.928 . S
C640 C635 1.348 . S
C640 C639 1.408 . S
C640 H667 0.930 . S
C641 O654 1.281 . S
C641 O655 1.254 . S
C642 O656 1.236 . S
C642 O657 1.266 . S
C643 Tb633 2.809 . S
C643 C644 1.514 . S
C643 O658 1.248 . S
C643 O659 1.266 . S
C644 C643 1.514 . S
C644 C645 1.359 . S
C644 C649 1.348 . S
C645 C644 1.359 . S
C645 C646 1.380 . S
C645 H668 0.929 . S
C646 C645 1.380 . S
C646 C647 1.347 . S
C646 H669 0.931 . S
C647 C646 1.347 . S
C647 C648 1.369 . S
C648 C647 1.369 . S
C648 C649 1.408 . S
C648 H670 0.930 . S
C649 C644 1.348 . S
C649 C648 1.408 . S
C649 H671 0.930 . S
C650 O660 1.281 . S
C650 O661 1.254 . S
C651 O662 1.236 . S
C651 O663 1.266 . S
O652 Tb632 2.484 . S
O652 C634 1.248 . S
O653 Tb632 2.440 . S
O653 C634 1.266 . S
O654 Tb632 2.658 . S
O654 Tb633 2.325 . S
O654 C641 1.281 . S
O655 Tb632 2.409 . S
O655 C641 1.254 . S
O656 Tb632 2.378 . S
O656 C642 1.236 . S
O657 Tb633 2.341 . S
O657 C642 1.266 . S
O658 Tb633 2.484 . S
O658 C643 1.248 . S
O659 Tb633 2.440 . S
O659 C643 1.266 . S
O660 Tb632 2.325 . S
O660 Tb633 2.658 . S
O660 C650 1.281 . S
O661 Tb633 2.409 . S
O661 C650 1.254 . S
O662 Tb633 2.378 . S
O662 C651 1.236 . S
O663 Tb632 2.341 . S
O663 C651 1.266 . S
H664 C636 0.929 . S
H665 C637 0.931 . S
H666 C639 0.928 . S
H667 C640 0.930 . S
H668 C645 0.929 . S
H669 C646 0.931 . S
H670 C648 0.930 . S
H671 C649 0.930 . S
Tb672 C674 2.809 . S
Tb672 O692 2.484 . S
Tb672 O693 2.440 . S
Tb672 O694 2.658 . S
Tb672 O695 2.409 . S
Tb672 O696 2.378 . S
Tb672 O700 2.325 . S
Tb672 O703 2.341 . S
Tb673 C683 2.809 . S
Tb673 O694 2.325 . S
Tb673 O697 2.341 . S
Tb673 O698 2.484 . S
Tb673 O699 2.440 . S
Tb673 O700 2.658 . S
Tb673 O701 2.409 . S
Tb673 O702 2.378 . S
C674 Tb672 2.809 . S
C674 C675 1.514 . S
C674 O692 1.248 . S
C674 O693 1.266 . S
C675 C674 1.514 . S
C675 C676 1.359 . S
C675 C680 1.348 . S
C676 C675 1.359 . S
C676 C677 1.380 . S
C676 H704 0.929 . S
C677 C676 1.380 . S
C677 C678 1.347 . S
C677 H705 0.931 . S
C678 C677 1.347 . S
C678 C679 1.369 . S
C679 C678 1.369 . S
C679 C680 1.408 . S
C679 H706 0.930 . S
C680 C675 1.348 . S
C680 C679 1.408 . S
C680 H707 0.930 . S
C681 O694 1.281 . S
C681 O695 1.254 . S
C682 O696 1.236 . S
C682 O697 1.266 . S
C683 Tb673 2.809 . S
C683 C684 1.514 . S
C683 O698 1.248 . S
C683 O699 1.266 . S
C684 C683 1.514 . S
C684 C685 1.359 . S
C684 C689 1.348 . S
C685 C684 1.359 . S
C685 C686 1.380 . S
C685 H708 0.929 . S
C686 C685 1.380 . S
C686 C687 1.347 . S
C686 H709 0.931 . S
C687 C686 1.347 . S
C687 C688 1.369 . S
C688 C687 1.369 . S
C688 C689 1.408 . S
C688 H710 0.930 . S
C689 C684 1.348 . S
C689 C688 1.408 . S
C689 H711 0.930 . S
C690 O700 1.281 . S
C690 O701 1.254 . S
C691 O702 1.236 . S
C691 O703 1.266 . S
O692 Tb672 2.484 . S
O692 C674 1.248 . S
O693 Tb672 2.440 . S
O693 C674 1.266 . S
O694 Tb672 2.658 . S
O694 Tb673 2.325 . S
O694 C681 1.281 . S
O695 Tb672 2.409 . S
O695 C681 1.254 . S
O696 Tb672 2.378 . S
O696 C682 1.236 . S
O697 Tb673 2.341 . S
O697 C682 1.266 . S
O698 Tb673 2.484 . S
O698 C683 1.248 . S
O699 Tb673 2.440 . S
O699 C683 1.266 . S
O700 Tb672 2.325 . S
O700 Tb673 2.658 . S
O700 C690 1.281 . S
O701 Tb673 2.409 . S
O701 C690 1.254 . S
O702 Tb673 2.378 . S
O702 C691 1.236 . S
O703 Tb672 2.341 . S
O703 C691 1.266 . S
H704 C676 0.929 . S
H705 C677 0.931 . S
H706 C679 0.930 . S
H707 C680 0.930 . S
H708 C685 0.929 . S
H709 C686 0.931 . S
H710 C688 0.930 . S
H711 C689 0.930 . S
Tb712 C714 2.809 . S
Tb712 O732 2.484 . S
Tb712 O733 2.440 . S
Tb712 O734 2.658 1_655 S
Tb712 O735 2.409 1_655 S
Tb712 O736 2.378 . S
Tb712 O740 2.325 1_655 S
Tb712 O743 2.341 1_655 S
Tb713 C723 2.809 . S
Tb713 O734 2.325 . S
Tb713 O737 2.341 . S
Tb713 O738 2.484 . S
Tb713 O739 2.440 . S
Tb713 O740 2.658 . S
Tb713 O741 2.409 . S
Tb713 O742 2.378 . S
C714 Tb712 2.809 . S
C714 C715 1.514 . S
C714 O732 1.248 . S
C714 O733 1.266 . S
C715 C714 1.514 . S
C715 C716 1.359 . S
C715 C720 1.348 . S
C716 C715 1.359 . S
C716 C717 1.380 . S
C716 H744 0.929 . S
C717 C716 1.380 . S
C717 C718 1.347 . S
C717 H745 0.931 . S
C718 C717 1.347 . S
C718 C719 1.369 . S
C719 C718 1.369 . S
C719 C720 1.408 . S
C719 H746 0.930 . S
C720 C715 1.348 . S
C720 C719 1.408 . S
C720 H747 0.930 . S
C721 O734 1.281 . S
C721 O735 1.254 . S
C722 O736 1.236 1_455 S
C722 O737 1.266 . S
C723 Tb713 2.809 . S
C723 C724 1.514 . S
C723 O738 1.248 . S
C723 O739 1.266 . S
C724 C723 1.514 . S
C724 C725 1.359 . S
C724 C729 1.348 . S
C725 C724 1.359 . S
C725 C726 1.380 . S
C725 H748 0.929 . S
C726 C725 1.380 . S
C726 C727 1.347 . S
C726 H749 0.931 . S
C727 C726 1.347 . S
C727 C728 1.369 . S
C728 C727 1.369 . S
C728 C729 1.408 . S
C728 H750 0.930 . S
C729 C724 1.348 . S
C729 C728 1.408 . S
C729 H751 0.930 . S
C730 O740 1.281 . S
C730 O741 1.254 . S
C731 O742 1.236 . S
C731 O743 1.266 . S
O732 Tb712 2.484 . S
O732 C714 1.248 . S
O733 Tb712 2.440 . S
O733 C714 1.266 . S
O734 Tb712 2.658 1_455 S
O734 Tb713 2.325 . S
O734 C721 1.281 . S
O735 Tb712 2.409 1_455 S
O735 C721 1.254 . S
O736 Tb712 2.378 . S
O736 C722 1.236 1_655 S
O737 Tb713 2.341 . S
O737 C722 1.266 . S
O738 Tb713 2.484 . S
O738 C723 1.248 . S
O739 Tb713 2.440 . S
O739 C723 1.266 . S
O740 Tb712 2.325 1_455 S
O740 Tb713 2.658 . S
O740 C730 1.281 . S
O741 Tb713 2.409 . S
O741 C730 1.254 . S
O742 Tb713 2.378 . S
O742 C731 1.236 . S
O743 Tb712 2.341 1_455 S
O743 C731 1.266 . S
H744 C716 0.929 . S
H745 C717 0.931 . S
H746 C719 0.930 . S
H747 C720 0.930 . S
H748 C725 0.929 . S
H749 C726 0.931 . S
H750 C728 0.930 . S
H751 C729 0.930 . S
Tb752 C754 2.809 . S
Tb752 O772 2.484 . S
Tb752 O773 2.440 . S
Tb752 O774 2.658 . S
Tb752 O775 2.409 . S
Tb752 O776 2.378 . S
Tb752 O780 2.325 . S
Tb752 O783 2.341 . S
Tb753 C763 2.809 . S
Tb753 O774 2.325 . S
Tb753 O777 2.341 . S
Tb753 O778 2.484 . S
Tb753 O779 2.440 . S
Tb753 O780 2.658 . S
Tb753 O781 2.409 . S
Tb753 O782 2.378 . S
C754 Tb752 2.809 . S
C754 C755 1.514 . S
C754 O772 1.248 . S
C754 O773 1.266 . S
C755 C754 1.514 . S
C755 C756 1.359 . S
C755 C760 1.348 . S
C756 C755 1.359 . S
C756 C757 1.380 . S
C756 H784 0.929 . S
C757 C756 1.380 . S
C757 C758 1.347 . S
C757 H785 0.931 . S
C758 C757 1.347 . S
C758 C759 1.369 . S
C759 C758 1.369 . S
C759 C760 1.408 . S
C759 H786 0.930 . S
C760 C755 1.348 . S
C760 C759 1.408 . S
C760 H787 0.930 . S
C761 O774 1.281 . S
C761 O775 1.254 . S
C762 O776 1.236 . S
C762 O777 1.266 . S
C763 Tb753 2.809 . S
C763 C764 1.514 . S
C763 O778 1.248 . S
C763 O779 1.266 . S
C764 C763 1.514 . S
C764 C765 1.359 . S
C764 C769 1.348 . S
C765 C764 1.359 . S
C765 C766 1.380 . S
C765 H788 0.929 . S
C766 C765 1.380 . S
C766 C767 1.347 . S
C766 H789 0.931 . S
C767 C766 1.347 . S
C767 C768 1.369 . S
C768 C767 1.369 . S
C768 C769 1.408 . S
C768 H790 0.930 . S
C769 C764 1.348 . S
C769 C768 1.408 . S
C769 H791 0.930 . S
C770 O780 1.281 . S
C770 O781 1.254 . S
C771 O782 1.236 . S
C771 O783 1.266 . S
O772 Tb752 2.484 . S
O772 C754 1.248 . S
O773 Tb752 2.440 . S
O773 C754 1.266 . S
O774 Tb752 2.658 . S
O774 Tb753 2.325 . S
O774 C761 1.281 . S
O775 Tb752 2.409 . S
O775 C761 1.254 . S
O776 Tb752 2.378 . S
O776 C762 1.236 . S
O777 Tb753 2.341 . S
O777 C762 1.266 . S
O778 Tb753 2.484 . S
O778 C763 1.248 . S
O779 Tb753 2.440 . S
O779 C763 1.266 . S
O780 Tb752 2.325 . S
O780 Tb753 2.658 . S
O780 C770 1.281 . S
O781 Tb753 2.409 . S
O781 C770 1.254 . S
O782 Tb753 2.378 . S
O782 C771 1.236 . S
O783 Tb752 2.341 . S
O783 C771 1.266 . S
H784 C756 0.929 . S
H785 C757 0.931 . S
H786 C759 0.930 . S
H787 C760 0.930 . S
H788 C765 0.929 . S
H789 C766 0.931 . S
H790 C768 0.930 . S
H791 C769 0.930 . S
Tb792 C794 2.809 . S
Tb792 O812 2.484 . S
Tb792 O813 2.440 . S
Tb792 O814 2.658 . S
Tb792 O815 2.409 . S
Tb792 O816 2.378 . S
Tb792 O820 2.325 . S
Tb792 O823 2.341 . S
Tb793 C803 2.809 . S
Tb793 O814 2.325 . S
Tb793 O817 2.341 . S
Tb793 O818 2.484 . S
Tb793 O819 2.440 . S
Tb793 O820 2.658 . S
Tb793 O821 2.409 . S
Tb793 O822 2.378 . S
C794 Tb792 2.809 . S
C794 C795 1.514 . S
C794 O812 1.248 . S
C794 O813 1.266 . S
C795 C794 1.514 . S
C795 C796 1.359 . S
C795 C800 1.348 . S
C796 C795 1.359 . S
C796 C797 1.380 . S
C796 H824 0.929 . S
C797 C796 1.380 . S
C797 C798 1.347 . S
C797 H825 0.931 . S
C798 C797 1.347 . S
C798 C799 1.369 . S
C799 C798 1.369 . S
C799 C800 1.408 . S
C799 H826 0.930 . S
C800 C795 1.348 . S
C800 C799 1.408 . S
C800 H827 0.930 . S
C801 O814 1.281 . S
C801 O815 1.254 . S
C802 O816 1.236 . S
C802 O817 1.266 . S
C803 Tb793 2.809 . S
C803 C804 1.514 . S
C803 O818 1.248 . S
C803 O819 1.266 . S
C804 C803 1.514 . S
C804 C805 1.359 . S
C804 C809 1.348 . S
C805 C804 1.359 . S
C805 C806 1.380 1_556 S
C805 H828 0.929 . S
C806 C805 1.380 1_554 S
C806 C807 1.347 . S
C806 H829 0.931 . S
C807 C806 1.347 . S
C807 C808 1.369 . S
C808 C807 1.369 . S
C808 C809 1.408 1_554 S
C808 H830 0.930 . S
C809 C804 1.348 . S
C809 C808 1.408 1_556 S
C809 H831 0.930 . S
C810 O820 1.281 . S
C810 O821 1.254 . S
C811 O822 1.236 . S
C811 O823 1.266 . S
O812 Tb792 2.484 . S
O812 C794 1.248 . S
O813 Tb792 2.440 . S
O813 C794 1.266 . S
O814 Tb792 2.658 . S
O814 Tb793 2.325 . S
O814 C801 1.281 . S
O815 Tb792 2.409 . S
O815 C801 1.254 . S
O816 Tb792 2.378 . S
O816 C802 1.236 . S
O817 Tb793 2.341 . S
O817 C802 1.266 . S
O818 Tb793 2.484 . S
O818 C803 1.248 . S
O819 Tb793 2.440 . S
O819 C803 1.266 . S
O820 Tb792 2.325 . S
O820 Tb793 2.658 . S
O820 C810 1.281 . S
O821 Tb793 2.409 . S
O821 C810 1.254 . S
O822 Tb793 2.378 . S
O822 C811 1.236 . S
O823 Tb792 2.341 . S
O823 C811 1.266 . S
H824 C796 0.929 . S
H825 C797 0.931 . S
H826 C799 0.930 . S
H827 C800 0.930 . S
H828 C805 0.929 . S
H829 C806 0.931 . S
H830 C808 0.930 . S
H831 C809 0.930 . S
Tb832 C834 2.809 . S
Tb832 O852 2.484 . S
Tb832 O853 2.440 . S
Tb832 O854 2.658 . S
Tb832 O855 2.409 . S
Tb832 O856 2.378 . S
Tb832 O860 2.325 . S
Tb832 O863 2.341 . S
Tb833 C843 2.809 . S
Tb833 O854 2.325 . S
Tb833 O857 2.341 . S
Tb833 O858 2.484 . S
Tb833 O859 2.440 . S
Tb833 O860 2.658 . S
Tb833 O861 2.409 . S
Tb833 O862 2.378 . S
C834 Tb832 2.809 . S
C834 C835 1.514 . S
C834 O852 1.248 . S
C834 O853 1.266 . S
C835 C834 1.514 . S
C835 C836 1.359 . S
C835 C840 1.348 . S
C836 C835 1.359 . S
C836 C837 1.380 . S
C836 H864 0.929 . S
C837 C836 1.380 . S
C837 C838 1.347 . S
C837 H865 0.931 . S
C838 C837 1.347 . S
C838 C839 1.369 . S
C839 C838 1.369 . S
C839 C840 1.408 . S
C839 H866 0.930 . S
C840 C835 1.348 . S
C840 C839 1.408 . S
C840 H867 0.930 . S
C841 O854 1.281 . S
C841 O855 1.254 . S
C842 O856 1.236 . S
C842 O857 1.266 . S
C843 Tb833 2.809 . S
C843 C844 1.514 . S
C843 O858 1.248 . S
C843 O859 1.266 . S
C844 C843 1.514 . S
C844 C845 1.359 . S
C844 C849 1.348 . S
C845 C844 1.359 . S
C845 C846 1.380 . S
C845 H868 0.929 . S
C846 C845 1.380 . S
C846 C847 1.347 . S
C846 H869 0.931 . S
C847 C846 1.347 . S
C847 C848 1.369 . S
C848 C847 1.369 . S
C848 C849 1.408 . S
C848 H870 0.930 . S
C849 C844 1.348 . S
C849 C848 1.408 . S
C849 H871 0.930 . S
C850 O860 1.281 . S
C850 O861 1.254 . S
C851 O862 1.236 . S
C851 O863 1.266 . S
O852 Tb832 2.484 . S
O852 C834 1.248 . S
O853 Tb832 2.440 . S
O853 C834 1.266 . S
O854 Tb832 2.658 . S
O854 Tb833 2.325 . S
O854 C841 1.281 . S
O855 Tb832 2.409 . S
O855 C841 1.254 . S
O856 Tb832 2.378 . S
O856 C842 1.236 . S
O857 Tb833 2.341 . S
O857 C842 1.266 . S
O858 Tb833 2.484 . S
O858 C843 1.248 . S
O859 Tb833 2.440 . S
O859 C843 1.266 . S
O860 Tb832 2.325 . S
O860 Tb833 2.658 . S
O860 C850 1.281 . S
O861 Tb833 2.409 . S
O861 C850 1.254 . S
O862 Tb833 2.378 . S
O862 C851 1.236 . S
O863 Tb832 2.341 . S
O863 C851 1.266 . S
H864 C836 0.929 . S
H865 C837 0.931 . S
H866 C839 0.930 . S
H867 C840 0.930 . S
H868 C845 0.929 . S
H869 C846 0.931 . S
H870 C848 0.930 . S
H871 C849 0.930 . S
Tb872 C874 2.809 . S
Tb872 O892 2.484 . S
Tb872 O893 2.440 . S
Tb872 O894 2.658 . S
Tb872 O895 2.409 . S
Tb872 O896 2.378 . S
Tb872 O900 2.325 . S
Tb872 O903 2.341 . S
Tb873 C883 2.809 . S
Tb873 O894 2.325 . S
Tb873 O897 2.341 . S
Tb873 O898 2.484 . S
Tb873 O899 2.440 . S
Tb873 O900 2.658 . S
Tb873 O901 2.409 . S
Tb873 O902 2.378 . S
C874 Tb872 2.809 . S
C874 C875 1.514 . S
C874 O892 1.248 . S
C874 O893 1.266 . S
C875 C874 1.514 . S
C875 C876 1.359 . S
C875 C880 1.348 . S
C876 C875 1.359 . S
C876 C877 1.380 . S
C876 H904 0.929 . S
C877 C876 1.380 . S
C877 C878 1.347 . S
C877 H905 0.931 . S
C878 C877 1.347 . S
C878 C879 1.369 . S
C879 C878 1.369 . S
C879 C880 1.408 . S
C879 H906 0.930 . S
C880 C875 1.348 . S
C880 C879 1.408 . S
C880 H907 0.930 . S
C881 O894 1.281 . S
C881 O895 1.254 . S
C882 O896 1.236 . S
C882 O897 1.266 . S
C883 Tb873 2.809 . S
C883 C884 1.514 . S
C883 O898 1.248 . S
C883 O899 1.266 . S
C884 C883 1.514 . S
C884 C885 1.359 . S
C884 C889 1.348 . S
C885 C884 1.359 . S
C885 C886 1.380 . S
C885 H908 0.929 . S
C886 C885 1.380 . S
C886 C887 1.347 . S
C886 H909 0.931 . S
C887 C886 1.347 . S
C887 C888 1.369 . S
C888 C887 1.369 . S
C888 C889 1.408 . S
C888 H910 0.930 . S
C889 C884 1.348 . S
C889 C888 1.408 . S
C889 H911 0.930 . S
C890 O900 1.281 . S
C890 O901 1.254 . S
C891 O902 1.236 . S
C891 O903 1.266 . S
O892 Tb872 2.484 . S
O892 C874 1.248 . S
O893 Tb872 2.440 . S
O893 C874 1.266 . S
O894 Tb872 2.658 . S
O894 Tb873 2.325 . S
O894 C881 1.281 . S
O895 Tb872 2.409 . S
O895 C881 1.254 . S
O896 Tb872 2.378 . S
O896 C882 1.236 . S
O897 Tb873 2.341 . S
O897 C882 1.266 . S
O898 Tb873 2.484 . S
O898 C883 1.248 . S
O899 Tb873 2.440 . S
O899 C883 1.266 . S
O900 Tb872 2.325 . S
O900 Tb873 2.658 . S
O900 C890 1.281 . S
O901 Tb873 2.409 . S
O901 C890 1.254 . S
O902 Tb873 2.378 . S
O902 C891 1.236 . S
O903 Tb872 2.341 . S
O903 C891 1.266 . S
H904 C876 0.929 . S
H905 C877 0.931 . S
H906 C879 0.930 . S
H907 C880 0.930 . S
H908 C885 0.929 . S
H909 C886 0.931 . S
H910 C888 0.930 . S
H911 C889 0.930 . S
Tb912 C914 2.809 . S
Tb912 O932 2.484 . S
Tb912 O933 2.440 . S
Tb912 O934 2.658 . S
Tb912 O935 2.409 . S
Tb912 O936 2.378 . S
Tb912 O940 2.325 . S
Tb912 O943 2.341 . S
Tb913 C923 2.809 1_455 S
Tb913 O934 2.325 . S
Tb913 O937 2.341 . S
Tb913 O938 2.484 1_455 S
Tb913 O939 2.440 1_455 S
Tb913 O940 2.658 . S
Tb913 O941 2.409 . S
Tb913 O942 2.378 . S
C914 Tb912 2.809 . S
C914 C915 1.514 . S
C914 O932 1.248 . S
C914 O933 1.266 . S
C915 C914 1.514 . S
C915 C916 1.359 . S
C915 C920 1.348 . S
C916 C915 1.359 . S
C916 C917 1.380 . S
C916 H944 0.929 . S
C917 C916 1.380 . S
C917 C918 1.347 . S
C917 H945 0.931 . S
C918 C917 1.347 . S
C918 C919 1.369 . S
C919 C918 1.369 . S
C919 C920 1.408 . S
C919 H946 0.930 . S
C920 C915 1.348 . S
C920 C919 1.408 . S
C920 H947 0.930 . S
C921 O934 1.281 . S
C921 O935 1.254 . S
C922 O936 1.236 . S
C922 O937 1.266 . S
C923 Tb913 2.809 1_655 S
C923 C924 1.514 . S
C923 O938 1.248 . S
C923 O939 1.266 . S
C924 C923 1.514 . S
C924 C925 1.359 . S
C924 C929 1.348 . S
C925 C924 1.359 . S
C925 C926 1.380 . S
C925 H948 0.929 . S
C926 C925 1.380 . S
C926 C927 1.347 . S
C926 H949 0.931 . S
C927 C926 1.347 . S
C927 C928 1.369 . S
C928 C927 1.369 . S
C928 C929 1.408 . S
C928 H950 0.930 . S
C929 C924 1.348 . S
C929 C928 1.408 . S
C929 H951 0.930 . S
C930 O940 1.281 . S
C930 O941 1.254 . S
C931 O942 1.236 . S
C931 O943 1.266 . S
O932 Tb912 2.484 . S
O932 C914 1.248 . S
O933 Tb912 2.440 . S
O933 C914 1.266 . S
O934 Tb912 2.658 . S
O934 Tb913 2.325 . S
O934 C921 1.281 . S
O935 Tb912 2.409 . S
O935 C921 1.254 . S
O936 Tb912 2.378 . S
O936 C922 1.236 . S
O937 Tb913 2.341 . S
O937 C922 1.266 . S
O938 Tb913 2.484 1_655 S
O938 C923 1.248 . S
O939 Tb913 2.440 1_655 S
O939 C923 1.266 . S
O940 Tb912 2.325 . S
O940 Tb913 2.658 . S
O940 C930 1.281 . S
O941 Tb913 2.409 . S
O941 C930 1.254 . S
O942 Tb913 2.378 . S
O942 C931 1.236 . S
O943 Tb912 2.341 . S
O943 C931 1.266 . S
H944 C916 0.929 . S
H945 C917 0.931 . S
H946 C919 0.930 . S
H947 C920 0.930 . S
H948 C925 0.929 . S
H949 C926 0.931 . S
H950 C928 0.930 . S
H951 C929 0.930 . S
C952 C953 1.387 . S
C952 H956 0.950 . S
C952 C961 1.390 . S
C953 C952 1.387 . S
C953 C955 1.387 . S
H954 C961 0.950 . S
C955 C953 1.387 . S
C955 C957 1.390 . S
C955 H959 0.950 . S
H956 C952 0.950 . S
C957 C955 1.390 . S
C957 C958 1.387 . S
C957 H960 0.950 . S
C958 C957 1.387 . S
C958 C961 1.387 . S
H959 C955 0.950 . S
H960 C957 0.950 . S
C961 C952 1.390 . S
C961 H954 0.950 . S
C961 C958 1.387 . S
C962 C963 1.387 . S
C962 H966 0.950 . S
C962 C971 1.390 . S
C963 C962 1.387 . S
C963 C965 1.387 . S
H964 C971 0.950 . S
C965 C963 1.387 . S
C965 C967 1.390 . S
C965 H969 0.950 . S
H966 C962 0.950 . S
C967 C965 1.390 . S
C967 C968 1.387 . S
C967 H970 0.950 . S
C968 C967 1.387 . S
C968 C971 1.387 . S
H969 C965 0.950 . S
H970 C967 0.950 . S
C971 C962 1.390 . S
C971 H964 0.950 . S
C971 C968 1.387 . S
C972 C973 1.387 . S
C972 H976 0.950 . S
C972 C981 1.390 . S
C973 C972 1.387 . S
C973 C975 1.387 . S
H974 C981 0.950 . S
C975 C973 1.387 . S
C975 C977 1.390 . S
C975 H979 0.950 . S
H976 C972 0.950 . S
C977 C975 1.390 . S
C977 C978 1.387 . S
C977 H980 0.950 . S
C978 C977 1.387 . S
C978 C981 1.387 . S
H979 C975 0.950 . S
H980 C977 0.950 . S
C981 C972 1.390 . S
C981 H974 0.950 . S
C981 C978 1.387 . S
C982 C983 1.387 . S
C982 H986 0.950 . S
C982 C991 1.390 . S
C983 C982 1.387 . S
C983 C985 1.387 . S
H984 C991 0.950 . S
C985 C983 1.387 . S
C985 C987 1.390 . S
C985 H989 0.950 . S
H986 C982 0.950 . S
C987 C985 1.390 . S
C987 C988 1.387 . S
C987 H990 0.950 . S
C988 C987 1.387 . S
C988 C991 1.387 . S
H989 C985 0.950 . S
H990 C987 0.950 . S
C991 C982 1.390 . S
C991 H984 0.950 . S
C991 C988 1.387 . S
C992 C993 1.387 . S
C992 H996 0.950 . S
C992 C1001 1.390 . S
C993 C992 1.387 . S
C993 C995 1.387 . S
H994 C1001 0.950 . S
C995 C993 1.387 . S
C995 C997 1.390 . S
C995 H999 0.950 . S
H996 C992 0.950 . S
C997 C995 1.390 . S
C997 C998 1.387 . S
C997 H1000 0.950 . S
C998 C997 1.387 . S
C998 C1001 1.387 . S
H999 C995 0.950 . S
H1000 C997 0.950 . S
C1001 C992 1.390 . S
C1001 H994 0.950 . S
C1001 C998 1.387 . S
C1002 C1003 1.387 . S
C1002 H1006 0.950 . S
C1002 C1011 1.390 . S
C1003 C1002 1.387 . S
C1003 C1005 1.387 . S
H1004 C1011 0.950 . S
C1005 C1003 1.387 . S
C1005 C1007 1.390 . S
C1005 H1009 0.950 . S
H1006 C1002 0.950 . S
C1007 C1005 1.390 . S
C1007 C1008 1.387 . S
C1007 H1010 0.950 . S
C1008 C1007 1.387 . S
C1008 C1011 1.387 . S
H1009 C1005 0.950 . S
H1010 C1007 0.950 . S
C1011 C1002 1.390 . S
C1011 H1004 0.950 . S
C1011 C1008 1.387 . S
C1012 C1013 1.387 . S
C1012 H1016 0.950 . S
C1012 C1021 1.390 . S
C1013 C1012 1.387 . S
C1013 C1015 1.387 . S
H1014 C1021 0.950 . S
C1015 C1013 1.387 . S
C1015 C1017 1.390 . S
C1015 H1019 0.950 . S
H1016 C1012 0.950 . S
C1017 C1015 1.390 . S
C1017 C1018 1.387 . S
C1017 H1020 0.950 . S
C1018 C1017 1.387 . S
C1018 C1021 1.387 . S
H1019 C1015 0.950 . S
H1020 C1017 0.950 . S
C1021 C1012 1.390 . S
C1021 H1014 0.950 . S
C1021 C1018 1.387 . S
C1022 C1023 1.387 . S
C1022 H1026 0.950 . S
C1022 C1031 1.390 . S
C1023 C1022 1.387 . S
C1023 C1025 1.387 . S
H1024 C1031 0.950 . S
C1025 C1023 1.387 . S
C1025 C1027 1.390 . S
C1025 H1029 0.950 . S
H1026 C1022 0.950 . S
C1027 C1025 1.390 . S
C1027 C1028 1.387 . S
C1027 H1030 0.950 . S
C1028 C1027 1.387 . S
C1028 C1031 1.387 . S
H1029 C1025 0.950 . S
H1030 C1027 0.950 . S
C1031 C1022 1.390 . S
C1031 H1024 0.950 . S
C1031 C1028 1.387 . S
C1032 C1033 1.387 1_455 S
C1032 H1036 0.950 1_545 S
C1032 C1041 1.390 . S
C1033 C1032 1.387 1_655 S
C1033 C1035 1.387 . S
H1034 C1041 0.950 . S
C1035 C1033 1.387 . S
C1035 C1037 1.390 1_655 S
C1035 H1039 0.950 . S
H1036 C1032 0.950 1_565 S
C1037 C1035 1.390 1_455 S
C1037 C1038 1.387 . S
C1037 H1040 0.950 . S
C1038 C1037 1.387 . S
C1038 C1041 1.387 . S
H1039 C1035 0.950 . S
H1040 C1037 0.950 . S
C1041 C1032 1.390 . S
C1041 H1034 0.950 . S
C1041 C1038 1.387 . S
C1042 C1043 1.387 . S
C1042 H1046 0.950 . S
C1042 C1051 1.390 . S
C1043 C1042 1.387 . S
C1043 C1045 1.387 . S
H1044 C1051 0.950 . S
C1045 C1043 1.387 . S
C1045 C1047 1.390 . S
C1045 H1049 0.950 . S
H1046 C1042 0.950 . S
C1047 C1045 1.390 . S
C1047 C1048 1.387 . S
C1047 H1050 0.950 . S
C1048 C1047 1.387 . S
C1048 C1051 1.387 . S
H1049 C1045 0.950 . S
H1050 C1047 0.950 . S
C1051 C1042 1.390 . S
C1051 H1044 0.950 . S
C1051 C1048 1.387 . S
C1052 C1053 1.387 . S
C1052 H1056 0.950 . S
C1052 C1061 1.390 . S
C1053 C1052 1.387 . S
C1053 C1055 1.387 1_545 S
H1054 C1061 0.950 . S
C1055 C1053 1.387 1_565 S
C1055 C1057 1.390 . S
C1055 H1059 0.950 . S
H1056 C1052 0.950 . S
C1057 C1055 1.390 . S
C1057 C1058 1.387 1_565 S
C1057 H1060 0.950 . S
C1058 C1057 1.387 1_545 S
C1058 C1061 1.387 . S
H1059 C1055 0.950 . S
H1060 C1057 0.950 . S
C1061 C1052 1.390 . S
C1061 H1054 0.950 . S
C1061 C1058 1.387 . S
C1062 C1063 1.387 1_556 S
C1062 H1066 0.950 1_556 S
C1062 C1071 1.390 . S
C1063 C1062 1.387 1_554 S
C1063 C1065 1.387 1_554 S
H1064 C1071 0.950 . S
C1065 C1063 1.387 1_556 S
C1065 C1067 1.390 . S
C1065 H1069 0.950 . S
H1066 C1062 0.950 1_554 S
C1067 C1065 1.390 . S
C1067 C1068 1.387 . S
C1067 H1070 0.950 . S
C1068 C1067 1.387 . S
C1068 C1071 1.387 . S
H1069 C1065 0.950 . S
H1070 C1067 0.950 . S
C1071 C1062 1.390 . S
C1071 H1064 0.950 . S
C1071 C1068 1.387 . S
C1072 C1073 1.387 . S
C1072 H1076 0.950 . S
C1072 C1081 1.390 1_655 S
C1073 C1072 1.387 . S
C1073 C1075 1.406 1_545 S
H1074 C1081 0.950 . S
C1075 C1073 1.406 1_565 S
C1075 C1077 1.377 1_655 S
C1075 H1079 0.946 . S
H1076 C1072 0.950 . S
C1077 C1075 1.377 1_455 S
C1077 C1078 1.387 1_565 S
C1077 H1080 0.950 . S
C1078 C1077 1.387 1_545 S
C1078 C1081 1.387 . S
H1079 C1075 0.946 . S
H1080 C1077 0.950 . S
C1081 C1072 1.390 1_455 S
C1081 H1074 0.950 . S
C1081 C1078 1.387 . S
C1082 C1083 1.387 . S
C1082 H1086 0.950 . S
C1082 C1091 1.390 . S
C1083 C1082 1.387 . S
C1083 C1085 1.387 . S
H1084 C1091 0.950 . S
C1085 C1083 1.387 . S
C1085 C1087 1.390 . S
C1085 H1089 0.950 . S
H1086 C1082 0.950 . S
C1087 C1085 1.390 . S
C1087 C1088 1.387 . S
C1087 H1090 0.950 . S
C1088 C1087 1.387 . S
C1088 C1091 1.387 . S
H1089 C1085 0.950 . S
H1090 C1087 0.950 . S
C1091 C1082 1.390 . S
C1091 H1084 0.950 . S
C1091 C1088 1.387 . S
C1092 C1093 1.387 . S
C1092 H1096 0.950 . S
C1092 C1101 1.390 . S
C1093 C1092 1.387 . S
C1093 C1095 1.387 . S
H1094 C1101 0.950 . S
C1095 C1093 1.387 . S
C1095 C1097 1.390 . S
C1095 H1099 0.950 . S
H1096 C1092 0.950 . S
C1097 C1095 1.390 . S
C1097 C1098 1.387 . S
C1097 H1100 0.950 1_556 S
C1098 C1097 1.387 . S
C1098 C1101 1.387 . S
H1099 C1095 0.950 . S
H1100 C1097 0.950 1_554 S
C1101 C1092 1.390 . S
C1101 H1094 0.950 . S
C1101 C1098 1.387 . S
C1102 C1103 1.387 . S
C1102 H1106 0.950 . S
C1102 C1111 1.390 . S
C1103 C1102 1.387 . S
C1103 C1105 1.387 . S
H1104 C1111 0.950 . S
C1105 C1103 1.387 . S
C1105 C1107 1.390 . S
C1105 H1109 0.950 . S
H1106 C1102 0.950 . S
C1107 C1105 1.390 . S
C1107 C1108 1.387 . S
C1107 H1110 0.950 . S
C1108 C1107 1.387 . S
C1108 C1111 1.387 . S
H1109 C1105 0.950 . S
H1110 C1107 0.950 . S
C1111 C1102 1.390 . S
C1111 H1104 0.950 . S
C1111 C1108 1.387 . S
C1112 C1113 1.387 . S
C1112 H1116 0.950 . S
C1112 C1121 1.390 . S
C1113 C1112 1.387 . S
C1113 C1115 1.387 . S
H1114 C1121 0.950 . S
C1115 C1113 1.387 . S
C1115 C1117 1.390 . S
C1115 H1119 0.950 . S
H1116 C1112 0.950 . S
C1117 C1115 1.390 . S
C1117 C1118 1.387 . S
C1117 H1120 0.950 . S
C1118 C1117 1.387 . S
C1118 C1121 1.387 . S
H1119 C1115 0.950 . S
H1120 C1117 0.950 . S
C1121 C1112 1.390 . S
C1121 H1114 0.950 . S
C1121 C1118 1.387 . S
C1122 C1123 1.387 . S
C1122 H1126 0.950 . S
C1122 C1131 1.390 . S
C1123 C1122 1.387 . S
C1123 C1125 1.387 . S
H1124 C1131 0.950 . S
C1125 C1123 1.387 . S
C1125 C1127 1.390 . S
C1125 H1129 0.950 . S
H1126 C1122 0.950 . S
C1127 C1125 1.390 . S
C1127 C1128 1.387 . S
C1127 H1130 0.950 . S
C1128 C1127 1.387 . S
C1128 C1131 1.387 . S
H1129 C1125 0.950 . S
H1130 C1127 0.950 . S
C1131 C1122 1.390 . S
C1131 H1124 0.950 . S
C1131 C1128 1.387 . S
C1132 C1133 1.387 . S
C1132 H1136 0.950 . S
C1132 C1141 1.390 . S
C1133 C1132 1.387 . S
C1133 C1135 1.387 . S
H1134 C1141 0.950 . S
C1135 C1133 1.387 . S
C1135 C1137 1.390 . S
C1135 H1139 0.950 . S
H1136 C1132 0.950 . S
C1137 C1135 1.390 . S
C1137 C1138 1.387 . S
C1137 H1140 0.950 . S
C1138 C1137 1.387 . S
C1138 C1141 1.387 . S
H1139 C1135 0.950 . S
H1140 C1137 0.950 . S
C1141 C1132 1.390 . S
C1141 H1134 0.950 . S
C1141 C1138 1.387 . S
C1142 C1143 1.387 . S
C1142 H1146 0.950 . S
C1142 C1151 1.390 . S
C1143 C1142 1.387 . S
C1143 C1145 1.387 . S
H1144 C1151 0.950 . S
C1145 C1143 1.387 . S
C1145 C1147 1.390 . S
C1145 H1149 0.950 . S
H1146 C1142 0.950 . S
C1147 C1145 1.390 . S
C1147 C1148 1.387 . S
C1147 H1150 0.950 . S
C1148 C1147 1.387 . S
C1148 C1151 1.387 . S
H1149 C1145 0.950 . S
H1150 C1147 0.950 . S
C1151 C1142 1.390 . S
C1151 H1144 0.950 . S
C1151 C1148 1.387 . S
C1152 C1153 1.387 . S
C1152 H1156 0.950 . S
C1152 C1161 1.390 . S
C1153 C1152 1.387 . S
C1153 C1155 1.387 . S
H1154 C1161 0.950 . S
C1155 C1153 1.387 . S
C1155 C1157 1.390 . S
C1155 H1159 0.950 . S
H1156 C1152 0.950 . S
C1157 C1155 1.390 . S
C1157 C1158 1.387 . S
C1157 H1160 0.950 . S
C1158 C1157 1.387 . S
C1158 C1161 1.387 . S
H1159 C1155 0.950 . S
H1160 C1157 0.950 . S
C1161 C1152 1.390 . S
C1161 H1154 0.950 . S
C1161 C1158 1.387 . S
C1162 C1163 1.387 . S
C1162 H1166 0.950 . S
C1162 C1171 1.390 . S
C1163 C1162 1.387 . S
C1163 C1165 1.387 . S
H1164 C1171 0.950 . S
C1165 C1163 1.387 . S
C1165 C1167 1.390 . S
C1165 H1169 0.950 . S
H1166 C1162 0.950 . S
C1167 C1165 1.390 . S
C1167 C1168 1.387 . S
C1167 H1170 0.950 . S
C1168 C1167 1.387 . S
C1168 C1171 1.387 . S
H1169 C1165 0.950 . S
H1170 C1167 0.950 . S
C1171 C1162 1.390 . S
C1171 H1164 0.950 . S
C1171 C1168 1.387 . S
C1172 C1173 1.387 . S
C1172 H1176 0.950 . S
C1172 C1181 1.390 . S
C1173 C1172 1.387 . S
C1173 C1175 1.387 . S
H1174 C1181 0.950 . S
C1175 C1173 1.387 . S
C1175 C1177 1.390 . S
C1175 H1179 0.950 . S
H1176 C1172 0.950 . S
C1177 C1175 1.390 . S
C1177 C1178 1.387 . S
C1177 H1180 0.950 . S
C1178 C1177 1.387 . S
C1178 C1181 1.387 . S
H1179 C1175 0.950 . S
H1180 C1177 0.950 . S
C1181 C1172 1.390 . S
C1181 H1174 0.950 . S
C1181 C1178 1.387 . S
C1182 C1183 1.387 . S
C1182 H1186 0.950 . S
C1182 C1191 1.390 . S
C1183 C1182 1.387 . S
C1183 C1185 1.387 . S
H1184 C1191 0.950 . S
C1185 C1183 1.387 . S
C1185 C1187 1.390 . S
C1185 H1189 0.950 . S
H1186 C1182 0.950 . S
C1187 C1185 1.390 . S
C1187 C1188 1.387 . S
C1187 H1190 0.950 . S
C1188 C1187 1.387 . S
C1188 C1191 1.387 . S
H1189 C1185 0.950 . S
H1190 C1187 0.950 . S
C1191 C1182 1.390 . S
C1191 H1184 0.950 . S
C1191 C1188 1.387 . S
C1192 C1193 1.387 . S
C1192 H1196 0.950 . S
C1192 C1201 1.390 . S
C1193 C1192 1.387 . S
C1193 C1195 1.387 . S
H1194 C1201 0.950 . S
C1195 C1193 1.387 . S
C1195 C1197 1.390 . S
C1195 H1199 0.950 . S
H1196 C1192 0.950 . S
C1197 C1195 1.390 . S
C1197 C1198 1.387 . S
C1197 H1200 0.950 . S
C1198 C1197 1.387 . S
C1198 C1201 1.387 . S
H1199 C1195 0.950 . S
H1200 C1197 0.950 . S
C1201 C1192 1.390 . S
C1201 H1194 0.950 . S
C1201 C1198 1.387 . S
C1202 C1203 1.387 . S
C1202 H1206 0.950 . S
C1202 C1211 1.390 . S
C1203 C1202 1.387 . S
C1203 C1205 1.387 . S
H1204 C1211 0.950 . S
C1205 C1203 1.387 . S
C1205 C1207 1.390 . S
C1205 H1209 0.950 . S
H1206 C1202 0.950 . S
C1207 C1205 1.390 . S
C1207 C1208 1.387 . S
C1207 H1210 0.950 . S
C1208 C1207 1.387 . S
C1208 C1211 1.387 . S
H1209 C1205 0.950 . S
H1210 C1207 0.950 . S
C1211 C1202 1.390 . S
C1211 H1204 0.950 . S
C1211 C1208 1.387 . S
C1212 C1213 1.387 . S
C1212 H1216 0.950 . S
C1212 C1221 1.390 . S
C1213 C1212 1.387 . S
C1213 C1215 1.387 . S
H1214 C1221 0.950 . S
C1215 C1213 1.387 . S
C1215 C1217 1.390 . S
C1215 H1219 0.950 . S
H1216 C1212 0.950 . S
C1217 C1215 1.390 . S
C1217 C1218 1.387 . S
C1217 H1220 0.950 . S
C1218 C1217 1.387 . S
C1218 C1221 1.387 . S
H1219 C1215 0.950 . S
H1220 C1217 0.950 . S
C1221 C1212 1.390 . S
C1221 H1214 0.950 . S
C1221 C1218 1.387 . S
C1222 C1223 1.387 . S
C1222 H1226 0.950 . S
C1222 C1231 1.390 . S
C1223 C1222 1.387 . S
C1223 C1225 1.387 . S
H1224 C1231 0.950 . S
C1225 C1223 1.387 . S
C1225 C1227 1.390 . S
C1225 H1229 0.950 . S
H1226 C1222 0.950 . S
C1227 C1225 1.390 . S
C1227 C1228 1.387 . S
C1227 H1230 0.950 . S
C1228 C1227 1.387 . S
C1228 C1231 1.387 . S
H1229 C1225 0.950 . S
H1230 C1227 0.950 . S
C1231 C1222 1.390 . S
C1231 H1224 0.950 . S
C1231 C1228 1.387 . S
C1232 C1233 1.387 . S
C1232 H1236 0.950 . S
C1232 C1241 1.390 . S
C1233 C1232 1.387 . S
C1233 C1235 1.387 1_455 S
H1234 C1241 0.950 . S
C1235 C1233 1.387 1_655 S
C1235 C1237 1.390 . S
C1235 H1239 0.950 . S
H1236 C1232 0.950 . S
C1237 C1235 1.390 . S
C1237 C1238 1.387 1_655 S
C1237 H1240 0.950 . S
C1238 C1237 1.387 1_455 S
C1238 C1241 1.387 . S
H1239 C1235 0.950 . S
H1240 C1237 0.950 . S
C1241 C1232 1.390 . S
C1241 H1234 0.950 . S
C1241 C1238 1.387 . S
C1242 C1243 1.387 . S
C1242 H1246 0.950 . S
C1242 C1251 1.390 . S
C1243 C1242 1.387 . S
C1243 C1245 1.387 . S
H1244 C1251 0.950 . S
C1245 C1243 1.387 . S
C1245 C1247 1.390 . S
C1245 H1249 0.950 . S
H1246 C1242 0.950 . S
C1247 C1245 1.390 . S
C1247 C1248 1.387 . S
C1247 H1250 0.950 . S
C1248 C1247 1.387 . S
C1248 C1251 1.387 . S
H1249 C1245 0.950 . S
H1250 C1247 0.950 . S
C1251 C1242 1.390 . S
C1251 H1244 0.950 . S
C1251 C1248 1.387 . S
C1252 C1253 1.387 . S
C1252 H1256 0.950 . S
C1252 C1261 1.390 1_556 S
C1253 C1252 1.387 . S
C1253 C1255 1.387 . S
H1254 C1261 0.950 . S
C1255 C1253 1.387 . S
C1255 C1257 1.390 1_556 S
C1255 H1259 0.950 . S
H1256 C1252 0.950 . S
C1257 C1255 1.390 1_554 S
C1257 C1258 1.387 . S
C1257 H1260 0.950 . S
C1258 C1257 1.387 . S
C1258 C1261 1.387 . S
H1259 C1255 0.950 . S
H1260 C1257 0.950 . S
C1261 C1252 1.390 1_554 S
C1261 H1254 0.950 . S
C1261 C1258 1.387 . S
C1262 C1263 1.387 . S
C1262 H1266 0.949 . S
C1262 C1271 1.391 1_455 S
C1263 C1262 1.387 . S
C1263 C1265 1.387 . S
H1264 C1271 0.950 . S
C1265 C1263 1.387 . S
C1265 C1267 1.390 1_455 S
C1265 H1269 0.950 . S
H1266 C1262 0.949 . S
C1267 C1265 1.390 1_655 S
C1267 C1268 1.387 . S
C1267 H1270 0.950 . S
C1268 C1267 1.387 . S
C1268 C1271 1.387 . S
H1269 C1265 0.950 . S
H1270 C1267 0.950 . S
C1271 C1262 1.391 1_655 S
C1271 H1264 0.950 . S
C1271 C1268 1.387 . S
C1272 C1273 1.387 . S
C1272 H1276 0.950 . S
C1272 C1281 1.390 1_556 S
C1273 C1272 1.387 . S
C1273 C1275 1.387 . S
H1274 C1281 0.950 . S
C1275 C1273 1.387 . S
C1275 C1277 1.390 . S
C1275 H1279 0.950 . S
H1276 C1272 0.950 . S
C1277 C1275 1.390 . S
C1277 C1278 1.387 1_556 S
C1277 H1280 0.950 . S
C1278 C1277 1.387 1_554 S
C1278 C1281 1.387 . S
H1279 C1275 0.950 . S
H1280 C1277 0.950 . S
C1281 C1272 1.390 1_554 S
C1281 H1274 0.950 . S
C1281 C1278 1.387 . S
C1282 C1283 1.387 . S
C1282 H1286 0.950 . S
C1282 C1291 1.390 . S
C1283 C1282 1.387 . S
C1283 C1285 1.387 . S
H1284 C1291 0.950 . S
C1285 C1283 1.387 . S
C1285 C1287 1.390 . S
C1285 H1289 0.950 . S
H1286 C1282 0.950 . S
C1287 C1285 1.390 . S
C1287 C1288 1.387 . S
C1287 H1290 0.950 . S
C1288 C1287 1.387 . S
C1288 C1291 1.387 . S
H1289 C1285 0.950 . S
H1290 C1287 0.950 . S
C1291 C1282 1.390 . S
C1291 H1284 0.950 . S
C1291 C1288 1.387 . S
C1292 C1293 1.387 . S
C1292 H1296 0.950 1_545 S
C1292 C1301 1.390 . S
C1293 C1292 1.387 . S
C1293 C1295 1.387 . S
H1294 C1301 0.950 1_565 S
C1295 C1293 1.387 . S
C1295 C1297 1.390 . S
C1295 H1299 0.950 . S
H1296 C1292 0.950 1_565 S
C1297 C1295 1.390 . S
C1297 C1298 1.387 . S
C1297 H1300 0.950 . S
C1298 C1297 1.387 . S
C1298 C1301 1.387 . S
H1299 C1295 0.950 . S
H1300 C1297 0.950 . S
C1301 C1292 1.390 . S
C1301 H1294 0.950 1_545 S
C1301 C1298 1.387 . S
C1302 C1303 1.387 . S
C1302 H1306 0.950 . S
C1302 C1311 1.390 . S
C1303 C1302 1.387 . S
C1303 C1305 1.387 . S
H1304 C1311 0.950 . S
C1305 C1303 1.387 . S
C1305 C1307 1.390 . S
C1305 H1309 0.950 . S
H1306 C1302 0.950 . S
C1307 C1305 1.390 . S
C1307 C1308 1.387 . S
C1307 H1310 0.950 . S
C1308 C1307 1.387 . S
C1308 C1311 1.387 . S
H1309 C1305 0.950 . S
H1310 C1307 0.950 . S
C1311 C1302 1.390 . S
C1311 H1304 0.950 . S
C1311 C1308 1.387 . S
C1312 C1313 1.387 . S
C1312 H1316 0.950 . S
C1312 C1321 1.390 . S
C1313 C1312 1.387 . S
C1313 C1315 1.387 . S
H1314 C1321 0.950 . S
C1315 C1313 1.387 . S
C1315 C1317 1.390 . S
C1315 H1319 0.950 . S
H1316 C1312 0.950 . S
C1317 C1315 1.390 . S
C1317 C1318 1.387 . S
C1317 H1320 0.950 1_545 S
C1318 C1317 1.387 . S
C1318 C1321 1.387 . S
H1319 C1315 0.950 . S
H1320 C1317 0.950 1_565 S
C1321 C1312 1.390 . S
C1321 H1314 0.950 . S
C1321 C1318 1.387 . S
C1322 C1323 1.387 . S
C1322 H1326 0.950 . S
C1322 C1331 1.390 . S
C1323 C1322 1.387 . S
C1323 C1325 1.387 . S
H1324 C1331 0.950 . S
C1325 C1323 1.387 . S
C1325 C1327 1.390 . S
C1325 H1329 0.950 . S
H1326 C1322 0.950 . S
C1327 C1325 1.390 . S
C1327 C1328 1.387 . S
C1327 H1330 0.950 . S
C1328 C1327 1.387 . S
C1328 C1331 1.387 . S
H1329 C1325 0.950 . S
H1330 C1327 0.950 . S
C1331 C1322 1.390 . S
C1331 H1324 0.950 . S
C1331 C1328 1.387 . S
C1332 C1333 1.387 . S
C1332 H1336 0.950 1_545 S
C1332 C1341 1.390 . S
C1333 C1332 1.387 . S
C1333 C1335 1.387 . S
H1334 C1341 0.950 1_565 S
C1335 C1333 1.387 . S
C1335 C1337 1.390 . S
C1335 H1339 0.950 . S
H1336 C1332 0.950 1_565 S
C1337 C1335 1.390 . S
C1337 C1338 1.387 . S
C1337 H1340 0.950 . S
C1338 C1337 1.387 . S
C1338 C1341 1.387 . S
H1339 C1335 0.950 . S
H1340 C1337 0.950 . S
C1341 C1332 1.390 . S
C1341 H1334 0.950 1_545 S
C1341 C1338 1.387 . S
C1342 C1343 1.387 . S
C1342 H1346 0.950 . S
C1342 C1351 1.390 . S
C1343 C1342 1.387 . S
C1343 C1345 1.387 . S
H1344 C1351 0.950 . S
C1345 C1343 1.387 . S
C1345 C1347 1.390 . S
C1345 H1349 0.950 . S
H1346 C1342 0.950 . S
C1347 C1345 1.390 . S
C1347 C1348 1.387 . S
C1347 H1350 0.950 . S
C1348 C1347 1.387 . S
C1348 C1351 1.387 . S
H1349 C1345 0.950 . S
H1350 C1347 0.950 . S
C1351 C1342 1.390 . S
C1351 H1344 0.950 . S
C1351 C1348 1.387 . S
C1352 C1353 1.387 . S
C1352 H1356 0.950 . S
C1352 C1361 1.390 . S
C1353 C1352 1.387 . S
C1353 C1355 1.387 . S
H1354 C1361 0.950 . S
C1355 C1353 1.387 . S
C1355 C1357 1.390 . S
C1355 H1359 0.950 . S
H1356 C1352 0.950 . S
C1357 C1355 1.390 . S
C1357 C1358 1.387 . S
C1357 H1360 0.950 . S
C1358 C1357 1.387 . S
C1358 C1361 1.387 . S
H1359 C1355 0.950 . S
H1360 C1357 0.950 . S
C1361 C1352 1.390 . S
C1361 H1354 0.950 . S
C1361 C1358 1.387 . S
C1362 C1363 1.387 . S
C1362 H1366 0.950 . S
C1362 C1371 1.390 . S
C1363 C1362 1.387 . S
C1363 C1365 1.387 . S
H1364 C1371 0.950 . S
C1365 C1363 1.387 . S
C1365 C1367 1.390 . S
C1365 H1369 0.950 . S
H1366 C1362 0.950 . S
C1367 C1365 1.390 . S
C1367 C1368 1.387 . S
C1367 H1370 0.950 . S
C1368 C1367 1.387 . S
C1368 C1371 1.387 . S
H1369 C1365 0.950 . S
H1370 C1367 0.950 . S
C1371 C1362 1.390 . S
C1371 H1364 0.950 . S
C1371 C1368 1.387 . S
C1372 C1373 1.387 . S
C1372 H1376 0.950 . S
C1372 C1381 1.390 . S
C1373 C1372 1.387 . S
C1373 C1375 1.387 . S
H1374 C1381 0.950 . S
C1375 C1373 1.387 . S
C1375 C1377 1.390 . S
C1375 H1379 0.950 . S
H1376 C1372 0.950 . S
C1377 C1375 1.390 . S
C1377 C1378 1.387 . S
C1377 H1380 0.950 . S
C1378 C1377 1.387 . S
C1378 C1381 1.387 . S
H1379 C1375 0.950 . S
H1380 C1377 0.950 . S
C1381 C1372 1.390 . S
C1381 H1374 0.950 . S
C1381 C1378 1.387 . S
C1382 C1383 1.387 . S
C1382 H1386 0.950 . S
C1382 C1391 1.390 . S
C1383 C1382 1.387 . S
C1383 C1385 1.387 . S
H1384 C1391 0.950 . S
C1385 C1383 1.387 . S
C1385 C1387 1.390 . S
C1385 H1389 0.950 . S
H1386 C1382 0.950 . S
C1387 C1385 1.390 . S
C1387 C1388 1.387 . S
C1387 H1390 0.950 . S
C1388 C1387 1.387 . S
C1388 C1391 1.387 . S
H1389 C1385 0.950 . S
H1390 C1387 0.950 . S
C1391 C1382 1.390 . S
C1391 H1384 0.950 . S
C1391 C1388 1.387 . S
C1392 C1393 1.387 . S
C1392 H1396 0.950 . S
C1392 C1401 1.390 . S
C1393 C1392 1.387 . S
C1393 C1395 1.387 . S
H1394 C1401 0.950 . S
C1395 C1393 1.387 . S
C1395 C1397 1.390 . S
C1395 H1399 0.950 . S
H1396 C1392 0.950 . S
C1397 C1395 1.390 . S
C1397 C1398 1.387 . S
C1397 H1400 0.950 . S
C1398 C1397 1.387 . S
C1398 C1401 1.387 . S
H1399 C1395 0.950 . S
H1400 C1397 0.950 . S
C1401 C1392 1.390 . S
C1401 H1394 0.950 . S
C1401 C1398 1.387 . S
C1402 C1403 1.387 . S
C1402 H1406 0.950 . S
C1402 C1411 1.390 . S
C1403 C1402 1.387 . S
C1403 C1405 1.387 . S
H1404 C1411 0.950 . S
C1405 C1403 1.387 . S
C1405 C1407 1.390 . S
C1405 H1409 0.950 . S
H1406 C1402 0.950 . S
C1407 C1405 1.390 . S
C1407 C1408 1.387 . S
C1407 H1410 0.950 . S
C1408 C1407 1.387 . S
C1408 C1411 1.387 . S
H1409 C1405 0.950 . S
H1410 C1407 0.950 . S
C1411 C1402 1.390 . S
C1411 H1404 0.950 . S
C1411 C1408 1.387 . S
C1412 C1413 1.387 . S
C1412 H1416 0.950 . S
C1412 C1421 1.390 . S
C1413 C1412 1.387 . S
C1413 C1415 1.387 . S
H1414 C1421 0.950 . S
C1415 C1413 1.387 . S
C1415 C1417 1.390 . S
C1415 H1419 0.950 . S
H1416 C1412 0.950 . S
C1417 C1415 1.390 . S
C1417 C1418 1.387 . S
C1417 H1420 0.950 . S
C1418 C1417 1.387 . S
C1418 C1421 1.387 . S
H1419 C1415 0.950 . S
H1420 C1417 0.950 . S
C1421 C1412 1.390 . S
C1421 H1414 0.950 . S
C1421 C1418 1.387 . S
C1422 C1423 1.387 . S
C1422 H1426 0.950 . S
C1422 C1431 1.390 . S
C1423 C1422 1.387 . S
C1423 C1425 1.387 . S
H1424 C1431 0.950 . S
C1425 C1423 1.387 . S
C1425 C1427 1.390 . S
C1425 H1429 0.950 . S
H1426 C1422 0.950 . S
C1427 C1425 1.390 . S
C1427 C1428 1.387 . S
C1427 H1430 0.950 . S
C1428 C1427 1.387 . S
C1428 C1431 1.387 . S
H1429 C1425 0.950 . S
H1430 C1427 0.950 . S
C1431 C1422 1.390 . S
C1431 H1424 0.950 . S
C1431 C1428 1.387 . S
C1432 C1433 1.387 . S
C1432 H1436 0.950 . S
C1432 C1441 1.390 . S
C1433 C1432 1.387 . S
C1433 C1435 1.387 . S
H1434 C1441 0.950 . S
C1435 C1433 1.387 . S
C1435 C1437 1.390 . S
C1435 H1439 0.950 . S
H1436 C1432 0.950 . S
C1437 C1435 1.390 . S
C1437 C1438 1.387 . S
C1437 H1440 0.950 . S
C1438 C1437 1.387 . S
C1438 C1441 1.387 . S
H1439 C1435 0.950 . S
H1440 C1437 0.950 . S
C1441 C1432 1.390 . S
C1441 H1434 0.950 . S
C1441 C1438 1.387 . S
C1442 C1443 1.387 . S
C1442 H1446 0.950 . S
C1442 C1451 1.390 . S
C1443 C1442 1.387 . S
C1443 C1445 1.387 . S
H1444 C1451 0.950 . S
C1445 C1443 1.387 . S
C1445 C1447 1.390 . S
C1445 H1449 0.950 . S
H1446 C1442 0.950 . S
C1447 C1445 1.390 . S
C1447 C1448 1.387 . S
C1447 H1450 0.950 . S
C1448 C1447 1.387 . S
C1448 C1451 1.387 . S
H1449 C1445 0.950 . S
H1450 C1447 0.950 . S
C1451 C1442 1.390 . S
C1451 H1444 0.950 . S
C1451 C1448 1.387 . S
C1452 C1453 1.387 . S
C1452 H1456 0.950 1_455 S
C1452 C1461 1.390 . S
C1453 C1452 1.387 . S
C1453 C1455 1.387 . S
H1454 C1461 0.950 1_655 S
C1455 C1453 1.387 . S
C1455 C1457 1.390 . S
C1455 H1459 0.950 . S
H1456 C1452 0.950 1_655 S
C1457 C1455 1.390 . S
C1457 C1458 1.387 . S
C1457 H1460 0.950 . S
C1458 C1457 1.387 . S
C1458 C1461 1.387 . S
H1459 C1455 0.950 . S
H1460 C1457 0.950 . S
C1461 C1452 1.390 . S
C1461 H1454 0.950 1_455 S
C1461 C1458 1.387 . S
C1462 C1463 1.388 1_655 S
C1462 H1466 0.950 1_655 S
C1462 C1471 1.390 . S
C1463 C1462 1.388 1_455 S
C1463 C1465 1.382 1_455 S
H1464 C1471 0.950 . S
C1465 C1463 1.382 1_655 S
C1465 C1467 1.390 . S
C1465 H1469 0.950 . S
H1466 C1462 0.950 1_455 S
C1467 C1465 1.390 . S
C1467 C1468 1.387 . S
C1467 H1470 0.950 . S
C1468 C1467 1.387 . S
C1468 C1471 1.387 . S
H1469 C1465 0.950 . S
H1470 C1467 0.950 . S
C1471 C1462 1.390 . S
C1471 H1464 0.950 . S
C1471 C1468 1.387 . S
C1472 C1473 1.387 . S
C1472 H1476 0.950 . S
C1472 C1481 1.390 . S
C1473 C1472 1.387 . S
C1473 C1475 1.387 . S
H1474 C1481 0.950 . S
C1475 C1473 1.387 . S
C1475 C1477 1.390 . S
C1475 H1479 0.950 . S
H1476 C1472 0.950 . S
C1477 C1475 1.390 . S
C1477 C1478 1.387 . S
C1477 H1480 0.950 . S
C1478 C1477 1.387 . S
C1478 C1481 1.387 . S
H1479 C1475 0.950 . S
H1480 C1477 0.950 . S
C1481 C1472 1.390 . S
C1481 H1474 0.950 . S
C1481 C1478 1.387 . S
C1482 C1483 1.387 . S
C1482 H1486 0.950 . S
C1482 C1491 1.390 . S
C1483 C1482 1.387 . S
C1483 C1485 1.387 . S
H1484 C1491 0.950 . S
C1485 C1483 1.387 . S
C1485 C1487 1.390 . S
C1485 H1489 0.950 . S
H1486 C1482 0.950 . S
C1487 C1485 1.390 . S
C1487 C1488 1.387 . S
C1487 H1490 0.950 . S
C1488 C1487 1.387 . S
C1488 C1491 1.387 . S
H1489 C1485 0.950 . S
H1490 C1487 0.950 . S
C1491 C1482 1.390 . S
C1491 H1484 0.950 . S
C1491 C1488 1.387 . S
C1492 C1493 1.387 . S
C1492 H1496 0.950 . S
C1492 C1501 1.390 . S
C1493 C1492 1.387 . S
C1493 C1495 1.387 . S
H1494 C1501 0.950 . S
C1495 C1493 1.387 . S
C1495 C1497 1.390 . S
C1495 H1499 0.950 . S
H1496 C1492 0.950 . S
C1497 C1495 1.390 . S
C1497 C1498 1.387 . S
C1497 H1500 0.950 . S
C1498 C1497 1.387 . S
C1498 C1501 1.387 . S
H1499 C1495 0.950 . S
H1500 C1497 0.950 . S
C1501 C1492 1.390 . S
C1501 H1494 0.950 . S
C1501 C1498 1.387 . S
C1502 C1503 1.387 . S
C1502 H1506 0.950 . S
C1502 C1511 1.390 . S
C1503 C1502 1.387 . S
C1503 C1505 1.387 . S
H1504 C1511 0.950 . S
C1505 C1503 1.387 . S
C1505 C1507 1.390 . S
C1505 H1509 0.950 . S
H1506 C1502 0.950 . S
C1507 C1505 1.390 . S
C1507 C1508 1.387 . S
C1507 H1510 0.950 . S
C1508 C1507 1.387 . S
C1508 C1511 1.387 . S
H1509 C1505 0.950 . S
H1510 C1507 0.950 . S
C1511 C1502 1.390 . S
C1511 H1504 0.950 . S
C1511 C1508 1.387 . S
C1512 C1513 1.387 . S
C1512 H1516 0.950 . S
C1512 C1521 1.390 . S
C1513 C1512 1.387 . S
C1513 C1515 1.387 . S
H1514 C1521 0.950 . S
C1515 C1513 1.387 . S
C1515 C1517 1.390 . S
C1515 H1519 0.950 . S
H1516 C1512 0.950 . S
C1517 C1515 1.390 . S
C1517 C1518 1.387 . S
C1517 H1520 0.950 . S
C1518 C1517 1.387 . S
C1518 C1521 1.387 . S
H1519 C1515 0.950 . S
H1520 C1517 0.950 . S
C1521 C1512 1.390 . S
C1521 H1514 0.950 . S
C1521 C1518 1.387 . S
C1522 C1523 1.387 . S
C1522 H1526 0.950 . S
C1522 C1531 1.390 . S
C1523 C1522 1.387 . S
C1523 C1525 1.387 . S
H1524 C1531 0.950 . S
C1525 C1523 1.387 . S
C1525 C1527 1.390 . S
C1525 H1529 0.950 . S
H1526 C1522 0.950 . S
C1527 C1525 1.390 . S
C1527 C1528 1.387 . S
C1527 H1530 0.950 . S
C1528 C1527 1.387 . S
C1528 C1531 1.387 . S
H1529 C1525 0.950 . S
H1530 C1527 0.950 . S
C1531 C1522 1.390 . S
C1531 H1524 0.950 . S
C1531 C1528 1.387 . S
C1532 C1533 1.387 . S
C1532 H1536 0.950 . S
C1532 C1541 1.390 . S
C1533 C1532 1.387 . S
C1533 C1535 1.387 . S
H1534 C1541 0.950 . S
C1535 C1533 1.387 . S
C1535 C1537 1.390 . S
C1535 H1539 0.950 . S
H1536 C1532 0.950 . S
C1537 C1535 1.390 . S
C1537 C1538 1.387 . S
C1537 H1540 0.950 . S
C1538 C1537 1.387 . S
C1538 C1541 1.387 . S
H1539 C1535 0.950 . S
H1540 C1537 0.950 . S
C1541 C1532 1.390 . S
C1541 H1534 0.950 . S
C1541 C1538 1.387 . S
C1542 C1543 1.387 . S
C1542 H1546 0.950 . S
C1542 C1551 1.390 . S
C1543 C1542 1.387 . S
C1543 C1545 1.387 . S
H1544 C1551 0.950 . S
C1545 C1543 1.387 . S
C1545 C1547 1.390 . S
C1545 H1549 0.950 . S
H1546 C1542 0.950 . S
C1547 C1545 1.390 . S
C1547 C1548 1.387 . S
C1547 H1550 0.950 . S
C1548 C1547 1.387 . S
C1548 C1551 1.387 . S
H1549 C1545 0.950 . S
H1550 C1547 0.950 . S
C1551 C1542 1.390 . S
C1551 H1544 0.950 . S
C1551 C1548 1.387 . S
C1552 C1553 1.387 . S
C1552 H1556 0.950 . S
C1552 C1561 1.390 . S
C1553 C1552 1.387 . S
C1553 C1555 1.387 . S
H1554 C1561 0.950 . S
C1555 C1553 1.387 . S
C1555 C1557 1.390 . S
C1555 H1559 0.950 . S
H1556 C1552 0.950 . S
C1557 C1555 1.390 . S
C1557 C1558 1.387 . S
C1557 H1560 0.950 . S
C1558 C1557 1.387 . S
C1558 C1561 1.387 . S
H1559 C1555 0.950 . S
H1560 C1557 0.950 . S
C1561 C1552 1.390 . S
C1561 H1554 0.950 . S
C1561 C1558 1.387 . S
C1562 C1563 1.387 . S
C1562 H1566 0.950 . S
C1562 C1571 1.390 . S
C1563 C1562 1.387 . S
C1563 C1565 1.387 . S
H1564 C1571 0.950 . S
C1565 C1563 1.387 . S
C1565 C1567 1.390 . S
C1565 H1569 0.950 . S
H1566 C1562 0.950 . S
C1567 C1565 1.390 . S
C1567 C1568 1.387 . S
C1567 H1570 0.950 . S
C1568 C1567 1.387 . S
C1568 C1571 1.387 . S
H1569 C1565 0.950 . S
H1570 C1567 0.950 . S
C1571 C1562 1.390 . S
C1571 H1564 0.950 . S
C1571 C1568 1.387 . S
C1572 C1573 1.387 . S
C1572 H1576 0.950 . S
C1572 C1581 1.390 . S
C1573 C1572 1.387 . S
C1573 C1575 1.387 . S
H1574 C1581 0.950 . S
C1575 C1573 1.387 . S
C1575 C1577 1.390 . S
C1575 H1579 0.950 . S
H1576 C1572 0.950 . S
C1577 C1575 1.390 . S
C1577 C1578 1.387 . S
C1577 H1580 0.950 . S
C1578 C1577 1.387 . S
C1578 C1581 1.387 . S
H1579 C1575 0.950 . S
H1580 C1577 0.950 . S
C1581 C1572 1.390 . S
C1581 H1574 0.950 . S
C1581 C1578 1.387 . S
C1582 C1583 1.387 . S
C1582 H1586 0.950 . S
C1582 C1591 1.390 . S
C1583 C1582 1.387 . S
C1583 C1585 1.387 . S
H1584 C1591 0.950 . S
C1585 C1583 1.387 . S
C1585 C1587 1.390 . S
C1585 H1589 0.950 . S
H1586 C1582 0.950 . S
C1587 C1585 1.390 . S
C1587 C1588 1.387 . S
C1587 H1590 0.950 . S
C1588 C1587 1.387 . S
C1588 C1591 1.387 . S
H1589 C1585 0.950 . S
H1590 C1587 0.950 . S
C1591 C1582 1.390 . S
C1591 H1584 0.950 . S
C1591 C1588 1.387 . S
C1592 C1593 1.387 . S
C1592 H1596 0.950 . S
C1592 C1601 1.390 . S
C1593 C1592 1.387 . S
C1593 C1595 1.387 . S
H1594 C1601 0.950 . S
C1595 C1593 1.387 . S
C1595 C1597 1.390 . S
C1595 H1599 0.950 . S
H1596 C1592 0.950 . S
C1597 C1595 1.390 . S
C1597 C1598 1.387 . S
C1597 H1600 0.950 . S
C1598 C1597 1.387 . S
C1598 C1601 1.387 . S
H1599 C1595 0.950 . S
H1600 C1597 0.950 . S
C1601 C1592 1.390 . S
C1601 H1594 0.950 . S
C1601 C1598 1.387 . S
C1602 C1603 1.387 . S
C1602 H1606 0.950 . S
C1602 C1611 1.390 . S
C1603 C1602 1.387 . S
C1603 C1605 1.387 . S
H1604 C1611 0.950 . S
C1605 C1603 1.387 . S
C1605 C1607 1.390 . S
C1605 H1609 0.950 . S
H1606 C1602 0.950 . S
C1607 C1605 1.390 . S
C1607 C1608 1.387 . S
C1607 H1610 0.950 . S
C1608 C1607 1.387 . S
C1608 C1611 1.387 . S
H1609 C1605 0.950 . S
H1610 C1607 0.950 . S
C1611 C1602 1.390 . S
C1611 H1604 0.950 . S
C1611 C1608 1.387 . S
C1612 C1613 1.387 1_545 S
C1612 H1616 0.950 . S
C1612 C1621 1.390 1_545 S
C1613 C1612 1.387 1_565 S
C1613 C1615 1.387 . S
H1614 C1621 0.950 . S
C1615 C1613 1.387 . S
C1615 C1617 1.390 . S
C1615 H1619 0.950 . S
H1616 C1612 0.950 . S
C1617 C1615 1.390 . S
C1617 C1618 1.387 . S
C1617 H1620 0.950 . S
C1618 C1617 1.387 . S
C1618 C1621 1.387 . S
H1619 C1615 0.950 . S
H1620 C1617 0.950 . S
C1621 C1612 1.390 1_565 S
C1621 H1614 0.950 . S
C1621 C1618 1.387 . S
C1622 C1623 1.387 1_556 S
C1622 H1626 0.950 . S
C1622 C1631 1.390 . S
C1623 C1622 1.387 1_554 S
C1623 C1625 1.387 . S
H1624 C1631 0.950 . S
C1625 C1623 1.387 . S
C1625 C1627 1.390 . S
C1625 H1629 0.950 . S
H1626 C1622 0.950 . S
C1627 C1625 1.390 . S
C1627 C1628 1.387 . S
C1627 H1630 0.950 . S
C1628 C1627 1.387 . S
C1628 C1631 1.387 1_554 S
H1629 C1625 0.950 . S
H1630 C1627 0.950 . S
C1631 C1622 1.390 . S
C1631 H1624 0.950 . S
C1631 C1628 1.387 1_556 S
C1632 C1633 1.387 . S
C1632 H1636 0.950 . S
C1632 C1641 1.390 . S
C1633 C1632 1.387 . S
C1633 C1635 1.387 . S
H1634 C1641 0.950 . S
C1635 C1633 1.387 . S
C1635 C1637 1.390 . S
C1635 H1639 0.950 . S
H1636 C1632 0.950 . S
C1637 C1635 1.390 . S
C1637 C1638 1.387 . S
C1637 H1640 0.950 . S
C1638 C1637 1.387 . S
C1638 C1641 1.387 . S
H1639 C1635 0.950 . S
H1640 C1637 0.950 . S
C1641 C1632 1.390 . S
C1641 H1634 0.950 . S
C1641 C1638 1.387 . S
C1642 C1643 1.387 . S
C1642 H1646 0.950 . S
C1642 C1651 1.390 . S
C1643 C1642 1.387 . S
C1643 C1645 1.387 . S
H1644 C1651 0.950 . S
C1645 C1643 1.387 . S
C1645 C1647 1.390 . S
C1645 H1649 0.950 . S
H1646 C1642 0.950 . S
C1647 C1645 1.390 . S
C1647 C1648 1.387 . S
C1647 H1650 0.950 . S
C1648 C1647 1.387 . S
C1648 C1651 1.387 . S
H1649 C1645 0.950 . S
H1650 C1647 0.950 . S
C1651 C1642 1.390 . S
C1651 H1644 0.950 . S
C1651 C1648 1.387 . S
C1652 C1653 1.387 . S
C1652 H1656 0.950 . S
C1652 C1661 1.390 . S
C1653 C1652 1.387 . S
C1653 C1655 1.387 . S
H1654 C1661 0.950 . S
C1655 C1653 1.387 . S
C1655 C1657 1.390 . S
C1655 H1659 0.950 . S
H1656 C1652 0.950 . S
C1657 C1655 1.390 . S
C1657 C1658 1.387 . S
C1657 H1660 0.950 . S
C1658 C1657 1.387 . S
C1658 C1661 1.387 . S
H1659 C1655 0.950 . S
H1660 C1657 0.950 . S
C1661 C1652 1.390 . S
C1661 H1654 0.950 . S
C1661 C1658 1.387 . S
C1662 C1663 1.387 . S
C1662 H1666 0.950 . S
C1662 C1671 1.390 . S
C1663 C1662 1.387 . S
C1663 C1665 1.387 . S
H1664 C1671 0.950 . S
C1665 C1663 1.387 . S
C1665 C1667 1.390 . S
C1665 H1669 0.950 . S
H1666 C1662 0.950 . S
C1667 C1665 1.390 . S
C1667 C1668 1.387 . S
C1667 H1670 0.950 . S
C1668 C1667 1.387 . S
C1668 C1671 1.387 . S
H1669 C1665 0.950 . S
H1670 C1667 0.950 . S
C1671 C1662 1.390 . S
C1671 H1664 0.950 . S
C1671 C1668 1.387 . S
C1672 C1673 1.387 . S
C1672 H1676 0.950 . S
C1672 C1681 1.390 . S
C1673 C1672 1.387 . S
C1673 C1675 1.387 . S
H1674 C1681 0.950 . S
C1675 C1673 1.387 . S
C1675 C1677 1.390 . S
C1675 H1679 0.950 . S
H1676 C1672 0.950 . S
C1677 C1675 1.390 . S
C1677 C1678 1.387 . S
C1677 H1680 0.950 . S
C1678 C1677 1.387 . S
C1678 C1681 1.387 . S
H1679 C1675 0.950 . S
H1680 C1677 0.950 . S
C1681 C1672 1.390 . S
C1681 H1674 0.950 . S
C1681 C1678 1.387 . S
C1682 C1683 1.387 . S
C1682 H1686 0.950 . S
C1682 C1691 1.390 . S
C1683 C1682 1.387 . S
C1683 C1685 1.387 . S
H1684 C1691 0.950 . S
C1685 C1683 1.387 . S
C1685 C1687 1.390 . S
C1685 H1689 0.950 . S
H1686 C1682 0.950 . S
C1687 C1685 1.390 . S
C1687 C1688 1.387 . S
C1687 H1690 0.950 . S
C1688 C1687 1.387 . S
C1688 C1691 1.387 . S
H1689 C1685 0.950 . S
H1690 C1687 0.950 . S
C1691 C1682 1.390 . S
C1691 H1684 0.950 . S
C1691 C1688 1.387 . S
C1692 C1693 1.387 . S
C1692 H1696 0.950 . S
C1692 C1701 1.390 . S
C1693 C1692 1.387 . S
C1693 C1695 1.387 . S
H1694 C1701 0.950 . S
C1695 C1693 1.387 . S
C1695 C1697 1.390 . S
C1695 H1699 0.950 . S
H1696 C1692 0.950 . S
C1697 C1695 1.390 . S
C1697 C1698 1.387 . S
C1697 H1700 0.950 . S
C1698 C1697 1.387 . S
C1698 C1701 1.387 . S
H1699 C1695 0.950 . S
H1700 C1697 0.950 . S
C1701 C1692 1.390 . S
C1701 H1694 0.950 . S
C1701 C1698 1.387 . S
C1702 C1703 1.387 . S
C1702 H1706 0.950 1_556 S
C1702 C1711 1.390 . S
C1703 C1702 1.387 . S
C1703 C1705 1.387 . S
H1704 C1711 0.950 . S
C1705 C1703 1.387 . S
C1705 C1707 1.390 . S
C1705 H1709 0.950 . S
H1706 C1702 0.950 1_554 S
C1707 C1705 1.390 . S
C1707 C1708 1.387 . S
C1707 H1710 0.950 . S
C1708 C1707 1.387 . S
C1708 C1711 1.387 . S
H1709 C1705 0.950 . S
H1710 C1707 0.950 . S
C1711 C1702 1.390 . S
C1711 H1704 0.950 . S
C1711 C1708 1.387 . S
C1712 C1713 1.387 . S
C1712 H1716 0.950 . S
C1712 C1721 1.390 . S
C1713 C1712 1.387 . S
C1713 C1715 1.387 . S
H1714 C1721 0.950 . S
C1715 C1713 1.387 . S
C1715 C1717 1.390 . S
C1715 H1719 0.950 . S
H1716 C1712 0.950 . S
C1717 C1715 1.390 . S
C1717 C1718 1.387 . S
C1717 H1720 0.950 . S
C1718 C1717 1.387 . S
C1718 C1721 1.387 . S
H1719 C1715 0.950 . S
H1720 C1717 0.950 . S
C1721 C1712 1.390 . S
C1721 H1714 0.950 . S
C1721 C1718 1.387 . S
C1722 C1723 1.387 . S
C1722 H1726 0.950 . S
C1722 C1731 1.390 . S
C1723 C1722 1.387 . S
C1723 C1725 1.387 . S
H1724 C1731 0.950 . S
C1725 C1723 1.387 . S
C1725 C1727 1.390 . S
C1725 H1729 0.950 . S
H1726 C1722 0.950 . S
C1727 C1725 1.390 . S
C1727 C1728 1.387 . S
C1727 H1730 0.950 . S
C1728 C1727 1.387 . S
C1728 C1731 1.387 . S
H1729 C1725 0.950 . S
H1730 C1727 0.950 . S
C1731 C1722 1.390 . S
C1731 H1724 0.950 . S
C1731 C1728 1.387 . S
C1732 C1733 1.387 . S
C1732 H1736 0.950 . S
C1732 C1741 1.390 . S
C1733 C1732 1.387 . S
C1733 C1735 1.387 1_455 S
H1734 C1741 0.950 . S
C1735 C1733 1.387 1_655 S
C1735 C1737 1.390 . S
C1735 H1739 0.950 . S
H1736 C1732 0.950 . S
C1737 C1735 1.390 . S
C1737 C1738 1.387 1_655 S
C1737 H1740 0.950 . S
C1738 C1737 1.387 1_455 S
C1738 C1741 1.387 . S
H1739 C1735 0.950 . S
H1740 C1737 0.950 . S
C1741 C1732 1.390 . S
C1741 H1734 0.950 . S
C1741 C1738 1.387 . S
C1742 C1743 1.387 . S
C1742 H1746 0.950 . S
C1742 C1751 1.390 . S
C1743 C1742 1.387 . S
C1743 C1745 1.387 . S
H1744 C1751 0.950 . S
C1745 C1743 1.387 . S
C1745 C1747 1.390 . S
C1745 H1749 0.950 . S
H1746 C1742 0.950 . S
C1747 C1745 1.390 . S
C1747 C1748 1.387 . S
C1747 H1750 0.950 . S
C1748 C1747 1.387 . S
C1748 C1751 1.387 . S
H1749 C1745 0.950 . S
H1750 C1747 0.950 . S
C1751 C1742 1.390 . S
C1751 H1744 0.950 . S
C1751 C1748 1.387 . S
C1752 C1753 1.387 . S
C1752 H1756 0.950 . S
C1752 C1761 1.390 . S
C1753 C1752 1.387 . S
C1753 C1755 1.387 . S
H1754 C1761 0.950 . S
C1755 C1753 1.387 . S
C1755 C1757 1.390 . S
C1755 H1759 0.950 . S
H1756 C1752 0.950 . S
C1757 C1755 1.390 . S
C1757 C1758 1.387 . S
C1757 H1760 0.950 . S
C1758 C1757 1.387 . S
C1758 C1761 1.387 . S
H1759 C1755 0.950 . S
H1760 C1757 0.950 . S
C1761 C1752 1.390 . S
C1761 H1754 0.950 . S
C1761 C1758 1.387 . S
C1762 C1763 1.387 . S
C1762 H1766 0.950 . S
C1762 C1771 1.390 . S
C1763 C1762 1.387 . S
C1763 C1765 1.387 . S
H1764 C1771 0.950 . S
C1765 C1763 1.387 . S
C1765 C1767 1.390 . S
C1765 H1769 0.950 . S
H1766 C1762 0.950 . S
C1767 C1765 1.390 . S
C1767 C1768 1.387 . S
C1767 H1770 0.950 . S
C1768 C1767 1.387 . S
C1768 C1771 1.387 . S
H1769 C1765 0.950 . S
H1770 C1767 0.950 . S
C1771 C1762 1.390 . S
C1771 H1764 0.950 . S
C1771 C1768 1.387 . S
C1772 C1773 1.387 . S
C1772 H1776 0.950 . S
C1772 C1781 1.390 . S
C1773 C1772 1.387 . S
C1773 C1775 1.387 . S
H1774 C1781 0.950 . S
C1775 C1773 1.387 . S
C1775 C1777 1.390 . S
C1775 H1779 0.950 . S
H1776 C1772 0.950 . S
C1777 C1775 1.390 . S
C1777 C1778 1.387 . S
C1777 H1780 0.950 . S
C1778 C1777 1.387 . S
C1778 C1781 1.387 . S
H1779 C1775 0.950 . S
H1780 C1777 0.950 . S
C1781 C1772 1.390 . S
C1781 H1774 0.950 . S
C1781 C1778 1.387 . S
C1782 C1783 1.387 . S
C1782 H1786 0.950 . S
C1782 C1791 1.390 . S
C1783 C1782 1.387 . S
C1783 C1785 1.387 . S
H1784 C1791 0.950 . S
C1785 C1783 1.387 . S
C1785 C1787 1.390 . S
C1785 H1789 0.950 . S
H1786 C1782 0.950 . S
C1787 C1785 1.390 . S
C1787 C1788 1.387 . S
C1787 H1790 0.950 . S
C1788 C1787 1.387 . S
C1788 C1791 1.387 . S
H1789 C1785 0.950 . S
H1790 C1787 0.950 . S
C1791 C1782 1.390 . S
C1791 H1784 0.950 . S
C1791 C1788 1.387 . S
C1792 C1793 1.387 . S
C1792 H1796 0.950 . S
C1792 C1801 1.390 . S
C1793 C1792 1.387 . S
C1793 C1795 1.387 . S
H1794 C1801 0.950 . S
C1795 C1793 1.387 . S
C1795 C1797 1.390 . S
C1795 H1799 0.950 . S
H1796 C1792 0.950 . S
C1797 C1795 1.390 . S
C1797 C1798 1.387 . S
C1797 H1800 0.950 . S
C1798 C1797 1.387 . S
C1798 C1801 1.387 . S
H1799 C1795 0.950 . S
H1800 C1797 0.950 . S
C1801 C1792 1.390 . S
C1801 H1794 0.950 . S
C1801 C1798 1.387 . S
C1802 C1803 1.387 . S
C1802 H1806 0.950 . S
C1802 C1811 1.390 . S
C1803 C1802 1.387 . S
C1803 C1805 1.387 . S
H1804 C1811 0.950 . S
C1805 C1803 1.387 . S
C1805 C1807 1.390 . S
C1805 H1809 0.950 . S
H1806 C1802 0.950 . S
C1807 C1805 1.390 . S
C1807 C1808 1.387 . S
C1807 H1810 0.950 . S
C1808 C1807 1.387 . S
C1808 C1811 1.387 . S
H1809 C1805 0.950 . S
H1810 C1807 0.950 . S
C1811 C1802 1.390 . S
C1811 H1804 0.950 . S
C1811 C1808 1.387 . S
C1812 C1813 1.387 . S
C1812 H1816 0.950 . S
C1812 C1821 1.390 . S
C1813 C1812 1.387 . S
C1813 C1815 1.387 . S
H1814 C1821 0.950 . S
C1815 C1813 1.387 . S
C1815 C1817 1.390 . S
C1815 H1819 0.950 . S
H1816 C1812 0.950 . S
C1817 C1815 1.390 . S
C1817 C1818 1.387 . S
C1817 H1820 0.950 . S
C1818 C1817 1.387 . S
C1818 C1821 1.387 . S
H1819 C1815 0.950 . S
H1820 C1817 0.950 . S
C1821 C1812 1.390 . S
C1821 H1814 0.950 . S
C1821 C1818 1.387 . S
C1822 C1823 1.387 . S
C1822 H1826 0.950 . S
C1822 C1831 1.390 . S
C1823 C1822 1.387 . S
C1823 C1825 1.387 . S
H1824 C1831 0.950 . S
C1825 C1823 1.387 . S
C1825 C1827 1.390 . S
C1825 H1829 0.950 . S
H1826 C1822 0.950 . S
C1827 C1825 1.390 . S
C1827 C1828 1.387 . S
C1827 H1830 0.950 . S
C1828 C1827 1.387 . S
C1828 C1831 1.387 . S
H1829 C1825 0.950 . S
H1830 C1827 0.950 . S
C1831 C1822 1.390 . S
C1831 H1824 0.950 . S
C1831 C1828 1.387 . S
C1832 C1833 1.387 . S
C1832 H1836 0.950 . S
C1832 C1841 1.390 . S
C1833 C1832 1.387 . S
C1833 C1835 1.387 . S
H1834 C1841 0.950 . S
C1835 C1833 1.387 . S
C1835 C1837 1.390 . S
C1835 H1839 0.950 . S
H1836 C1832 0.950 . S
C1837 C1835 1.390 . S
C1837 C1838 1.387 . S
C1837 H1840 0.950 . S
C1838 C1837 1.387 . S
C1838 C1841 1.387 . S
H1839 C1835 0.950 . S
H1840 C1837 0.950 . S
C1841 C1832 1.390 . S
C1841 H1834 0.950 . S
C1841 C1838 1.387 . S
C1842 C1843 1.387 . S
C1842 H1846 0.950 . S
C1842 C1851 1.390 . S
C1843 C1842 1.387 . S
C1843 C1845 1.387 . S
H1844 C1851 0.950 1_545 S
C1845 C1843 1.387 . S
C1845 C1847 1.390 . S
C1845 H1849 0.950 . S
H1846 C1842 0.950 . S
C1847 C1845 1.390 . S
C1847 C1848 1.387 . S
C1847 H1850 0.950 . S
C1848 C1847 1.387 . S
C1848 C1851 1.387 . S
H1849 C1845 0.950 . S
H1850 C1847 0.950 . S
C1851 C1842 1.390 . S
C1851 H1844 0.950 1_565 S
C1851 C1848 1.387 . S
C1852 C1853 1.387 . S
C1852 H1856 0.950 . S
C1852 C1861 1.390 . S
C1853 C1852 1.387 . S
C1853 C1855 1.387 . S
H1854 C1861 0.950 . S
C1855 C1853 1.387 . S
C1855 C1857 1.390 . S
C1855 H1859 0.950 . S
H1856 C1852 0.950 . S
C1857 C1855 1.390 . S
C1857 C1858 1.387 . S
C1857 H1860 0.950 . S
C1858 C1857 1.387 . S
C1858 C1861 1.387 . S
H1859 C1855 0.950 . S
H1860 C1857 0.950 . S
C1861 C1852 1.390 . S
C1861 H1854 0.950 . S
C1861 C1858 1.387 . S
C1862 C1863 1.387 . S
C1862 H1866 0.950 . S
C1862 C1871 1.390 . S
C1863 C1862 1.387 . S
C1863 C1865 1.387 . S
H1864 C1871 0.950 . S
C1865 C1863 1.387 . S
C1865 C1867 1.390 . S
C1865 H1869 0.950 . S
H1866 C1862 0.950 . S
C1867 C1865 1.390 . S
C1867 C1868 1.387 . S
C1867 H1870 0.950 . S
C1868 C1867 1.387 . S
C1868 C1871 1.387 . S
H1869 C1865 0.950 . S
H1870 C1867 0.950 . S
C1871 C1862 1.390 . S
C1871 H1864 0.950 . S
C1871 C1868 1.387 . S
C1872 C1873 1.387 . S
C1872 H1876 0.950 . S
C1872 C1881 1.390 . S
C1873 C1872 1.387 . S
C1873 C1875 1.387 . S
H1874 C1881 0.950 . S
C1875 C1873 1.387 . S
C1875 C1877 1.390 . S
C1875 H1879 0.950 . S
H1876 C1872 0.950 . S
C1877 C1875 1.390 . S
C1877 C1878 1.387 . S
C1877 H1880 0.950 . S
C1878 C1877 1.387 . S
C1878 C1881 1.387 . S
H1879 C1875 0.950 . S
H1880 C1877 0.950 . S
C1881 C1872 1.390 . S
C1881 H1874 0.950 . S
C1881 C1878 1.387 . S
C1882 C1883 1.387 . S
C1882 H1886 0.950 . S
C1882 C1891 1.390 . S
C1883 C1882 1.387 . S
C1883 C1885 1.387 . S
H1884 C1891 0.950 . S
C1885 C1883 1.387 . S
C1885 C1887 1.390 . S
C1885 H1889 0.950 . S
H1886 C1882 0.950 . S
C1887 C1885 1.390 . S
C1887 C1888 1.387 . S
C1887 H1890 0.950 . S
C1888 C1887 1.387 . S
C1888 C1891 1.387 . S
H1889 C1885 0.950 . S
H1890 C1887 0.950 . S
C1891 C1882 1.390 . S
C1891 H1884 0.950 . S
C1891 C1888 1.387 . S
C1892 C1893 1.387 . S
C1892 H1896 0.950 . S
C1892 C1901 1.390 . S
C1893 C1892 1.387 . S
C1893 C1895 1.387 . S
H1894 C1901 0.950 . S
C1895 C1893 1.387 . S
C1895 C1897 1.390 . S
C1895 H1899 0.950 . S
H1896 C1892 0.950 . S
C1897 C1895 1.390 . S
C1897 C1898 1.387 . S
C1897 H1900 0.950 . S
C1898 C1897 1.387 . S
C1898 C1901 1.387 . S
H1899 C1895 0.950 . S
H1900 C1897 0.950 . S
C1901 C1892 1.390 . S
C1901 H1894 0.950 . S
C1901 C1898 1.387 . S
C1902 C1903 1.387 . S
C1902 H1906 0.950 . S
C1902 C1911 1.390 . S
C1903 C1902 1.387 . S
C1903 C1905 1.387 . S
H1904 C1911 0.950 . S
C1905 C1903 1.387 . S
C1905 C1907 1.390 . S
C1905 H1909 0.950 . S
H1906 C1902 0.950 . S
C1907 C1905 1.390 . S
C1907 C1908 1.387 . S
C1907 H1910 0.950 . S
C1908 C1907 1.387 . S
C1908 C1911 1.387 . S
H1909 C1905 0.950 . S
H1910 C1907 0.950 . S
C1911 C1902 1.390 . S
C1911 H1904 0.950 . S
C1911 C1908 1.387 . S
C953 C101 2.481 . S
C958 C322 2.325 . S
C963 C57 1.961 . S
C968 C370 1.998 . S
C973 C70 1.379 . S
C978 C402 1.347 . S
C988 C447 1.701 . S
C983 C82 1.802 . S
C993 C23 0.939 . S
C998 C487 0.931 . S
C1008 C522 0.975 . S
C1003 C29 0.978 . S
C1018 C561 1.553 . S
C1013 C49 1.476 . S
C1023 C10 1.376 . S
C1028 C598 1.350 . S
C1038 C330 2.218 . S
C1033 C218 2.163 . S
C1043 C226 0.870 . S
C1048 C367 0.831 . S
C1058 C410 2.336 . S
C1053 C251 2.296 . S
C1068 C442 1.095 . S
C1063 C159 1.128 . S
C1073 C211 1.384 . S
C1078 C482 1.336 . S
C1088 C530 0.710 . S
C1083 C225 0.793 . S
C1098 C571 2.155 1_556 S
C1093 C252 2.247 . S
C1108 C601 2.113 . S
C1103 C166 2.097 . S
C1118 C327 2.231 . S
C1113 C147 2.271 . S
C1123 C263 2.069 . S
C1128 C650 2.096 . S
C1138 C687 1.410 . S
C1133 C309 1.429 . S
C1148 C718 1.322 . S
C1143 C291 1.398 . S
C1153 C108 2.737 . S
C1158 C611 2.701 . S
C1163 C121 1.485 . S
C1168 C407 1.444 . S
C1173 C302 1.750 . S
C1178 C770 1.883 . S
C1188 C802 1.882 . S
C1183 C276 1.905 . S
C1198 C331 2.313 . S
C1193 C55 2.392 . S
C1208 C801 2.274 . S
C1203 C96 2.285 . S
C1213 C88 1.639 . S
C1218 C411 1.630 . S
C1223 C75 1.876 . S
C1228 C758 1.794 . S
C1238 C478 1.081 . S
C1233 C4 1.089 . S
C1243 C44 1.488 . S
C1248 C691 1.512 . S
C1258 C570 1.338 . S
C1253 C31 1.323 . S
C1268 C847 1.442 . S
C1263 C18 1.443 . S
C1278 C321 2.298 . S
C1273 C133 2.271 . S
C1288 C798 0.896 . S
C1283 C296 0.914 . S
C1293 C107 2.504 . S
C1298 C401 2.488 . S
C1303 C264 1.418 . S
C1308 C771 1.412 . S
C1313 C140 1.637 . S
C1318 C491 1.615 . S
C1328 C681 0.760 . S
C1323 C289 0.758 . S
C1333 C114 2.452 . S
C1338 C562 2.374 . S
C1343 C265 2.132 1_556 S
C1348 C850 2.134 . S
C1353 C179 1.866 . S
C1358 C318 1.853 . S
C1363 C161 2.350 . S
C1368 C641 2.319 . S
C1373 C244 1.376 . S
C1378 C518 1.366 . S
C1383 C224 1.130 . S
C1388 C727 1.089 . S
C1398 C842 2.819 . S
C1393 C257 2.867 . S
C1403 C199 1.636 . S
C1408 C398 1.590 . S
C1418 C441 1.948 . S
C1413 C237 1.899 . S
C1428 C371 2.081 . S
C1423 C185 2.059 . S
C1433 C69 2.483 . S
C1438 C882 2.327 . S
C1448 C810 1.998 . S
C1443 C83 1.962 . S
C1453 C94 1.380 . S
C1458 C922 1.351 . S
C1463 C56 1.806 . S
C1468 C767 1.699 . S
C1473 C42 0.947 . S
C1478 C647 0.937 . S
C1488 C682 0.977 . S
C1483 C3 0.978 . S
C1498 C721 1.559 . S
C1493 C16 1.488 . S
C1508 C838 1.348 . S
C1503 C36 1.374 . S
C1518 C890 2.217 . S
C1513 C238 2.163 . S
C1523 C174 0.869 . S
C1528 C807 0.830 . S
C1538 C930 2.336 . S
C1533 C186 2.297 . S
C1548 C762 1.094 . S
C1543 C198 1.127 . S
C1558 C642 1.336 1_556 S
C1553 C239 1.384 . S
C1563 C173 0.790 . S
C1568 C690 0.706 . S
C1578 C731 2.157 . S
C1573 C187 2.249 . S
C1583 C205 2.099 . S
C1588 C841 2.113 . S
C1598 C887 2.229 . S
C1593 C290 2.272 . S
C1603 C122 2.070 . S
C1608 C490 2.097 . S
C1618 C527 1.410 . S
C1613 C134 1.428 1_565 S
C1628 C558 1.319 . S
C1623 C148 1.395 . S
C1638 C851 2.697 . S
C1633 C283 2.734 . S
C1643 C270 1.484 . S
C1648 C927 1.443 . S
C1658 C450 1.883 . S
C1653 C135 1.749 . S
C1668 C362 1.880 . S
C1663 C109 1.903 . S
C1673 C81 2.392 . S
C1678 C891 2.313 . S
C1688 C361 2.273 . S
C1683 C68 2.283 . S
C1693 C62 1.639 . S
C1698 C931 1.631 . S
C1703 C95 1.873 . S
C1708 C438 1.790 . S
C1713 C30 1.088 . S
C1718 C638 1.081 . S
C1728 C531 1.505 . S
C1723 C17 1.482 . S
C1733 C5 1.321 . S
C1738 C730 1.338 . S
C1743 C43 1.444 . S
C1748 C607 1.438 . S
C1758 C881 2.300 . S
C1753 C304 2.272 . S
C1763 C153 0.920 . S
C1768 C358 0.899 . S
C1778 C921 2.489 1_656 S
C1773 C278 2.504 . S
C1783 C127 1.417 . S
C1788 C451 1.412 . S
C1793 C303 1.634 . S
C1798 C651 1.613 . S
C1808 C521 0.766 . S
C1803 C146 0.770 . S
C1813 C277 2.447 . S
C1818 C722 2.369 1_655 S
C1828 C610 2.132 . S
C1823 C120 2.130 . S
C1838 C878 1.854 . S
C1833 C231 1.867 . S
C1848 C481 2.318 1_665 S
C1843 C200 2.349 . S
C1853 C212 1.378 . S
C1858 C678 1.366 . S
C1868 C567 1.091 . S
C1863 C172 1.133 . S
C1873 C192 2.866 . S
C1878 C602 2.817 . S
C1883 C160 1.634 . S
C1888 C918 1.588 . S
C1898 C761 1.948 . S
C1893 C213 1.899 . S
C1908 C811 2.082 . S
C1903 C250 2.060 . S
