# Generated by pormake.
# Topology cor, (4,6)-cn, num edge types: 1
# Building blocks:
#     Node 0, Type 0, BuildingBlock: KUFVIS_clean_sbu_0, # of connection points: 4
#     Node 1, Type 0, BuildingBlock: KUFVIS_clean_sbu_0, # of connection points: 4
#     Node 2, Type 0, BuildingBlock: KUFVIS_clean_sbu_0, # of connection points: 4
#     Node 3, Type 0, BuildingBlock: KUFVIS_clean_sbu_0, # of connection points: 4
#     Node 4, Type 0, BuildingBlock: KUFVIS_clean_sbu_0, # of connection points: 4
#     Node 5, Type 0, BuildingBlock: KUFVIS_clean_sbu_0, # of connection points: 4
#     Node 6, Type 0, BuildingBlock: KUFVIS_clean_sbu_0, # of connection points: 4
#     Node 7, Type 0, BuildingBlock: KUFVIS_clean_sbu_0, # of connection points: 4
#     Node 8, Type 0, BuildingBlock: KUFVIS_clean_sbu_0, # of connection points: 4
#     Node 9, Type 0, BuildingBlock: KUFVIS_clean_sbu_0, # of connection points: 4
#     Node 10, Type 0, BuildingBlock: KUFVIS_clean_sbu_0, # of connection points: 4
#     Node 11, Type 0, BuildingBlock: KUFVIS_clean_sbu_0, # of connection points: 4
#     Node 12, Type 0, BuildingBlock: KUFVIS_clean_sbu_0, # of connection points: 4
#     Node 13, Type 0, BuildingBlock: KUFVIS_clean_sbu_0, # of connection points: 4
#     Node 14, Type 0, BuildingBlock: KUFVIS_clean_sbu_0, # of connection points: 4
#     Node 15, Type 0, BuildingBlock: KUFVIS_clean_sbu_0, # of connection points: 4
#     Node 16, Type 0, BuildingBlock: KUFVIS_clean_sbu_0, # of connection points: 4
#     Node 17, Type 0, BuildingBlock: KUFVIS_clean_sbu_0, # of connection points: 4
#     Node 18, Type 1, BuildingBlock: MIDCAF_clean_sbu_0, # of connection points: 6
#     Node 19, Type 1, BuildingBlock: MIDCAF_clean_sbu_0, # of connection points: 6
#     Node 20, Type 1, BuildingBlock: MIDCAF_clean_sbu_0, # of connection points: 6
#     Node 21, Type 1, BuildingBlock: MIDCAF_clean_sbu_0, # of connection points: 6
#     Node 22, Type 1, BuildingBlock: MIDCAF_clean_sbu_0, # of connection points: 6
#     Node 23, Type 1, BuildingBlock: MIDCAF_clean_sbu_0, # of connection points: 6
#     Node 24, Type 1, BuildingBlock: MIDCAF_clean_sbu_0, # of connection points: 6
#     Node 25, Type 1, BuildingBlock: MIDCAF_clean_sbu_0, # of connection points: 6
#     Node 26, Type 1, BuildingBlock: MIDCAF_clean_sbu_0, # of connection points: 6
#     Node 27, Type 1, BuildingBlock: MIDCAF_clean_sbu_0, # of connection points: 6
#     Node 28, Type 1, BuildingBlock: MIDCAF_clean_sbu_0, # of connection points: 6
#     Node 29, Type 1, BuildingBlock: MIDCAF_clean_sbu_0, # of connection points: 6
#     Edge 30, Type (0, 1), BuildingBlock: AJUNOK_clean_linker_0, # of connection points: 2
#     Edge 31, Type (0, 1), BuildingBlock: AJUNOK_clean_linker_0, # of connection points: 2
#     Edge 32, Type (0, 1), BuildingBlock: AJUNOK_clean_linker_0, # of connection points: 2
#     Edge 33, Type (0, 1), BuildingBlock: AJUNOK_clean_linker_0, # of connection points: 2
#     Edge 34, Type (0, 1), BuildingBlock: AJUNOK_clean_linker_0, # of connection points: 2
#     Edge 35, Type (0, 1), BuildingBlock: AJUNOK_clean_linker_0, # of connection points: 2
#     Edge 36, Type (0, 1), BuildingBlock: AJUNOK_clean_linker_0, # of connection points: 2
#     Edge 37, Type (0, 1), BuildingBlock: AJUNOK_clean_linker_0, # of connection points: 2
#     Edge 38, Type (0, 1), BuildingBlock: AJUNOK_clean_linker_0, # of connection points: 2
#     Edge 39, Type (0, 1), BuildingBlock: AJUNOK_clean_linker_0, # of connection points: 2
#     Edge 40, Type (0, 1), BuildingBlock: AJUNOK_clean_linker_0, # of connection points: 2
#     Edge 41, Type (0, 1), BuildingBlock: AJUNOK_clean_linker_0, # of connection points: 2
#     Edge 42, Type (0, 1), BuildingBlock: AJUNOK_clean_linker_0, # of connection points: 2
#     Edge 43, Type (0, 1), BuildingBlock: AJUNOK_clean_linker_0, # of connection points: 2
#     Edge 44, Type (0, 1), BuildingBlock: AJUNOK_clean_linker_0, # of connection points: 2
#     Edge 45, Type (0, 1), BuildingBlock: AJUNOK_clean_linker_0, # of connection points: 2
#     Edge 46, Type (0, 1), BuildingBlock: AJUNOK_clean_linker_0, # of connection points: 2
#     Edge 47, Type (0, 1), BuildingBlock: AJUNOK_clean_linker_0, # of connection points: 2
#     Edge 48, Type (0, 1), BuildingBlock: AJUNOK_clean_linker_0, # of connection points: 2
#     Edge 49, Type (0, 1), BuildingBlock: AJUNOK_clean_linker_0, # of connection points: 2
#     Edge 50, Type (0, 1), BuildingBlock: AJUNOK_clean_linker_0, # of connection points: 2
#     Edge 51, Type (0, 1), BuildingBlock: AJUNOK_clean_linker_0, # of connection points: 2
#     Edge 52, Type (0, 1), BuildingBlock: AJUNOK_clean_linker_0, # of connection points: 2
#     Edge 53, Type (0, 1), BuildingBlock: AJUNOK_clean_linker_0, # of connection points: 2
#     Edge 54, Type (0, 1), BuildingBlock: AJUNOK_clean_linker_0, # of connection points: 2
#     Edge 55, Type (0, 1), BuildingBlock: AJUNOK_clean_linker_0, # of connection points: 2
#     Edge 56, Type (0, 1), BuildingBlock: AJUNOK_clean_linker_0, # of connection points: 2
#     Edge 57, Type (0, 1), BuildingBlock: AJUNOK_clean_linker_0, # of connection points: 2
#     Edge 58, Type (0, 1), BuildingBlock: AJUNOK_clean_linker_0, # of connection points: 2
#     Edge 59, Type (0, 1), BuildingBlock: AJUNOK_clean_linker_0, # of connection points: 2
#     Edge 60, Type (0, 1), BuildingBlock: AJUNOK_clean_linker_0, # of connection points: 2
#     Edge 61, Type (0, 1), BuildingBlock: AJUNOK_clean_linker_0, # of connection points: 2
#     Edge 62, Type (0, 1), BuildingBlock: AJUNOK_clean_linker_0, # of connection points: 2
#     Edge 63, Type (0, 1), BuildingBlock: AJUNOK_clean_linker_0, # of connection points: 2
#     Edge 64, Type (0, 1), BuildingBlock: AJUNOK_clean_linker_0, # of connection points: 2
#     Edge 65, Type (0, 1), BuildingBlock: AJUNOK_clean_linker_0, # of connection points: 2
#     Edge 66, Type (0, 1), BuildingBlock: AJUNOK_clean_linker_0, # of connection points: 2
#     Edge 67, Type (0, 1), BuildingBlock: AJUNOK_clean_linker_0, # of connection points: 2
#     Edge 68, Type (0, 1), BuildingBlock: AJUNOK_clean_linker_0, # of connection points: 2
#     Edge 69, Type (0, 1), BuildingBlock: AJUNOK_clean_linker_0, # of connection points: 2
#     Edge 70, Type (0, 1), BuildingBlock: AJUNOK_clean_linker_0, # of connection points: 2
#     Edge 71, Type (0, 1), BuildingBlock: AJUNOK_clean_linker_0, # of connection points: 2
#     Edge 72, Type (0, 1), BuildingBlock: AJUNOK_clean_linker_0, # of connection points: 2
#     Edge 73, Type (0, 1), BuildingBlock: AJUNOK_clean_linker_0, # of connection points: 2
#     Edge 74, Type (0, 1), BuildingBlock: AJUNOK_clean_linker_0, # of connection points: 2
#     Edge 75, Type (0, 1), BuildingBlock: AJUNOK_clean_linker_0, # of connection points: 2
#     Edge 76, Type (0, 1), BuildingBlock: AJUNOK_clean_linker_0, # of connection points: 2
#     Edge 77, Type (0, 1), BuildingBlock: AJUNOK_clean_linker_0, # of connection points: 2
#     Edge 78, Type (0, 1), BuildingBlock: AJUNOK_clean_linker_0, # of connection points: 2
#     Edge 79, Type (0, 1), BuildingBlock: AJUNOK_clean_linker_0, # of connection points: 2
#     Edge 80, Type (0, 1), BuildingBlock: AJUNOK_clean_linker_0, # of connection points: 2
#     Edge 81, Type (0, 1), BuildingBlock: AJUNOK_clean_linker_0, # of connection points: 2
#     Edge 82, Type (0, 1), BuildingBlock: AJUNOK_clean_linker_0, # of connection points: 2
#     Edge 83, Type (0, 1), BuildingBlock: AJUNOK_clean_linker_0, # of connection points: 2
#     Edge 84, Type (0, 1), BuildingBlock: AJUNOK_clean_linker_0, # of connection points: 2
#     Edge 85, Type (0, 1), BuildingBlock: AJUNOK_clean_linker_0, # of connection points: 2
#     Edge 86, Type (0, 1), BuildingBlock: AJUNOK_clean_linker_0, # of connection points: 2
#     Edge 87, Type (0, 1), BuildingBlock: AJUNOK_clean_linker_0, # of connection points: 2
#     Edge 88, Type (0, 1), BuildingBlock: AJUNOK_clean_linker_0, # of connection points: 2
#     Edge 89, Type (0, 1), BuildingBlock: AJUNOK_clean_linker_0, # of connection points: 2
#     Edge 90, Type (0, 1), BuildingBlock: AJUNOK_clean_linker_0, # of connection points: 2
#     Edge 91, Type (0, 1), BuildingBlock: AJUNOK_clean_linker_0, # of connection points: 2
#     Edge 92, Type (0, 1), BuildingBlock: AJUNOK_clean_linker_0, # of connection points: 2
#     Edge 93, Type (0, 1), BuildingBlock: AJUNOK_clean_linker_0, # of connection points: 2
#     Edge 94, Type (0, 1), BuildingBlock: AJUNOK_clean_linker_0, # of connection points: 2
#     Edge 95, Type (0, 1), BuildingBlock: AJUNOK_clean_linker_0, # of connection points: 2
#     Edge 96, Type (0, 1), BuildingBlock: AJUNOK_clean_linker_0, # of connection points: 2
#     Edge 97, Type (0, 1), BuildingBlock: AJUNOK_clean_linker_0, # of connection points: 2
#     Edge 98, Type (0, 1), BuildingBlock: AJUNOK_clean_linker_0, # of connection points: 2
#     Edge 99, Type (0, 1), BuildingBlock: AJUNOK_clean_linker_0, # of connection points: 2
#     Edge 100, Type (0, 1), BuildingBlock: AJUNOK_clean_linker_0, # of connection points: 2
#     Edge 101, Type (0, 1), BuildingBlock: AJUNOK_clean_linker_0, # of connection points: 2
# Relax obj value: 0.121
# Max RMSD: 0.161
# Mean RMSD: 0.124
data_MOF--net-cor--node1-KUFVIS_clean_sbu_0--node2-MIDCAF_clean_sbu_0--edge1-AJUNOK_clean_linker_0
_symmetry_space_group_name_H-M    P1
_symmetry_Int_Tables_number       1
_symmetry_cell_setting            triclinic
loop_
_symmetry_equiv_pos_as_xyz
'x, y, z'
_cell_length_a     28.631426
_cell_length_b     28.489452
_cell_length_c     71.995774
_cell_angle_alpha  89.488225
_cell_angle_beta   90.808512
_cell_angle_gamma 120.01691
loop_
_atom_site_label
_atom_site_type_symbol
_atom_site_fract_x
_atom_site_fract_y
_atom_site_fract_z
_atom_type_partial_charge
Mn0 Mn 0.72896 0.01137 0.27167 0.0
Mn1 Mn 0.8311 0.14013 0.2665 0.0
C2 C 0.80664 0.04408 0.28984 0.0
C3 C 0.65073 0.94304 0.28564 0.0
C4 C 0.80907 0.05065 0.23941 0.0
O5 O 0.69178 0.0472 0.25756 0.0
O6 O 0.76383 0.13171 0.25506 0.0
C7 C 0.7892 0.19246 0.29132 0.0
N8 N 0.82893 0.18171 0.2868 0.0
C9 C 0.8818 0.2298 0.31365 0.0
C10 C 0.8416 0.24169 0.31852 0.0
C11 C 0.7951 0.22291 0.30731 0.0
C12 C 0.87376 0.19945 0.29752 0.0
H13 H 0.75317 0.17763 0.28283 0.0
C14 C 0.71437 0.09639 0.25179 0.0
O15 O 0.66547 0.9375 0.26925 0.0
O16 O 0.67881 0.99037 0.29334 0.0
N17 N 0.89871 0.1538 0.27684 0.0
C18 C 0.93401 0.13954 0.27001 0.0
C19 C 0.98284 0.15545 0.27953 0.0
C20 C 0.99494 0.18609 0.29589 0.0
C21 C 0.95856 0.20144 0.30239 0.0
C22 C 0.91096 0.18512 0.29215 0.0
H23 H 0.92475 0.11579 0.25748 0.0
O24 O 0.77614 0.99255 0.28693 0.0
O25 O 0.79114 0.07522 0.2819 0.0
O26 O 0.76875 0.0133 0.24795 0.0
O27 O 0.83637 0.09936 0.24532 0.0
C28 C 0.96756 0.23213 0.31864 0.0
C29 C 0.92914 0.24618 0.3243 0.0
H30 H 0.84585 0.26491 0.3309 0.0
H31 H 0.76377 0.23167 0.31104 0.0
H32 H 0.01087 0.14376 0.27436 0.0
H33 H 0.03232 0.19771 0.30332 0.0
H34 H 0.0038 0.24498 0.32694 0.0
H35 H 0.93635 0.26949 0.33688 0.0
Mn36 Mn 0.0173 0.71738 0.26831 0.0
Mn37 Mn 0.11736 0.84853 0.26792 0.0
C38 C 0.01349 0.7764 0.24702 0.0
C39 C 0.97614 0.62703 0.25883 0.0
C40 C 0.03208 0.80098 0.29771 0.0
O41 O 0.07821 0.71562 0.2824 0.0
O42 O 0.14433 0.80308 0.27978 0.0
C43 C 0.19385 0.84278 0.24212 0.0
N44 N 0.16288 0.86455 0.24692 0.0
C45 C 0.19691 0.92813 0.22155 0.0
C46 C 0.22936 0.90653 0.21636 0.0
C47 C 0.22767 0.86355 0.22665 0.0
C48 C 0.16425 0.90596 0.23714 0.0
H49 H 0.19283 0.80999 0.2501 0.0
C50 C 0.12633 0.7542 0.28538 0.0
O51 O 0.96551 0.64078 0.27465 0.0
O52 O 0.01374 0.66545 0.24899 0.0
N53 N 0.09681 0.89699 0.25695 0.0
C54 C 0.05792 0.90806 0.26234 0.0
C55 C 0.05102 0.94707 0.25256 0.0
C56 C 0.08521 0.97539 0.23771 0.0
C57 C 0.12505 0.96335 0.23245 0.0
C58 C 0.12934 0.92334 0.24251 0.0
H59 H 0.03198 0.88675 0.27387 0.0
O60 O 0.97016 0.73265 0.25211 0.0
O61 O 0.0586 0.78523 0.25483 0.0
O62 O 0.00434 0.75399 0.2906 0.0
O63 O 0.07444 0.83873 0.29023 0.0
C64 C 0.15898 0.98762 0.21711 0.0
C65 C 0.19486 0.96999 0.21165 0.0
H66 H 0.25531 0.92226 0.20439 0.0
H67 H 0.25246 0.84657 0.22269 0.0
H68 H 0.01986 0.95576 0.25658 0.0
H69 H 0.07985 0.00557 0.23026 0.0
H70 H 0.15686 0.01884 0.2091 0.0
H71 H 0.2199 0.98814 0.1996 0.0
Mn72 Mn 0.301 0.30892 0.2731 0.0
Mn73 Mn 0.31489 0.19867 0.26875 0.0
C74 C 0.24331 0.23001 0.2886 0.0
C75 C 0.31684 0.38763 0.28817 0.0
C76 C 0.25948 0.23114 0.23961 0.0
O77 O 0.37685 0.34178 0.26233 0.0
O78 O 0.37907 0.26437 0.25878 0.0
C79 C 0.40468 0.23285 0.29591 0.0
N80 N 0.35381 0.196 0.29016 0.0
C81 C 0.34193 0.13825 0.3164 0.0
C82 C 0.3943 0.17543 0.32254 0.0
C83 C 0.42576 0.22297 0.31225 0.0
C84 C 0.32313 0.15024 0.29999 0.0
H85 H 0.42893 0.26958 0.28811 0.0
C86 C 0.39958 0.31567 0.2568 0.0
O87 O 0.30051 0.37822 0.27098 0.0
O88 O 0.32853 0.35372 0.29612 0.0
N89 N 0.25636 0.13201 0.27779 0.0
C90 C 0.2067 0.1003 0.26998 0.0
C91 C 0.16973 0.05198 0.27888 0.0
C92 C 0.18461 0.03587 0.29536 0.0
C93 C 0.23656 0.06827 0.30279 0.0
C94 C 0.27162 0.11623 0.2934 0.0
H95 H 0.19496 0.11249 0.25732 0.0
O96 O 0.22976 0.2662 0.28498 0.0
O97 O 0.29109 0.24103 0.28317 0.0
O98 O 0.26756 0.27431 0.24776 0.0
O99 O 0.27379 0.19862 0.24649 0.0
C100 C 0.2547 0.05523 0.31928 0.0
C101 C 0.30736 0.09017 0.32608 0.0
H102 H 0.41063 0.16807 0.33518 0.0
H103 H 0.46613 0.25199 0.31694 0.0
H104 H 0.12956 0.02775 0.27326 0.0
H105 H 0.15576 0.99869 0.30221 0.0
H106 H 0.22839 0.0186 0.32691 0.0
H107 H 0.32071 0.07992 0.33885 0.0
Mn108 Mn 0.32523 0.01412 0.76229 0.0
Mn109 Mn 0.21369 0.88945 0.75818 0.0
C110 C 0.26189 0.99928 0.73928 0.0
C111 C 0.41674 0.07541 0.75579 0.0
C112 C 0.2223 0.97026 0.78655 0.0
O113 O 0.34389 0.96766 0.77896 0.0
O114 O 0.26717 0.88813 0.77549 0.0
C115 C 0.27132 0.84421 0.73789 0.0
N116 N 0.23034 0.85533 0.73869 0.0
C117 C 0.19948 0.81982 0.70796 0.0
C118 C 0.24119 0.80771 0.70684 0.0
C119 C 0.27731 0.82005 0.72186 0.0
C120 C 0.19589 0.84439 0.72421 0.0
H121 H 0.29933 0.85394 0.74937 0.0
C122 C 0.31316 0.91801 0.78315 0.0
O123 O 0.39317 0.0806 0.77027 0.0
O124 O 0.3877 0.03365 0.74534 0.0
N125 N 0.15616 0.88172 0.74236 0.0
C126 C 0.11356 0.88799 0.74692 0.0
C127 C 0.07207 0.87508 0.73384 0.0
C128 C 0.0738 0.8539 0.71649 0.0
C129 C 0.11599 0.84398 0.71265 0.0
C130 C 0.15603 0.85751 0.72628 0.0
H131 H 0.11168 0.90335 0.76039 0.0
O132 O 0.29777 0.0479 0.74424 0.0
O133 O 0.26571 0.96004 0.74734 0.0
O134 O 0.27013 0.00778 0.78216 0.0
O135 O 0.19595 0.92493 0.77801 0.0
C136 C 0.11923 0.81996 0.69605 0.0
C137 C 0.16111 0.80815 0.69367 0.0
H138 H 0.24577 0.78883 0.69453 0.0
H139 H 0.30969 0.81096 0.72109 0.0
H140 H 0.03886 0.88142 0.73713 0.0
H141 H 0.04184 0.84424 0.70645 0.0
H142 H 0.08944 0.80976 0.68513 0.0
H143 H 0.16291 0.78931 0.6809 0.0
Mn144 Mn 0.04553 0.33288 0.76036 0.0
Mn145 Mn 0.16357 0.33366 0.75758 0.0
C146 C 0.05265 0.27528 0.74011 0.0
C147 C 0.98877 0.36623 0.75105 0.0
C148 C 0.08444 0.27356 0.78774 0.0
O149 O 0.09682 0.40197 0.77365 0.0
O150 O 0.17093 0.39415 0.7733 0.0
C151 C 0.21645 0.43425 0.73516 0.0
N152 N 0.20051 0.38077 0.73726 0.0
C153 C 0.23624 0.37838 0.70748 0.0
C154 C 0.25326 0.43349 0.70502 0.0
C155 C 0.24321 0.46151 0.71891 0.0
C156 C 0.20947 0.3533 0.72391 0.0
H157 H 0.20873 0.45593 0.74579 0.0
C158 C 0.14494 0.41716 0.77874 0.0
O159 O 0.98331 0.3427 0.76707 0.0
O160 O 0.02824 0.37225 0.74083 0.0
N161 N 0.16434 0.27802 0.74317 0.0
C162 C 0.14835 0.22595 0.74822 0.0
C163 C 0.15572 0.19231 0.73589 0.0
C164 C 0.18096 0.21307 0.71879 0.0
C165 C 0.1995 0.26758 0.71433 0.0
C166 C 0.19085 0.29904 0.72713 0.0
H167 H 0.12935 0.21003 0.76143 0.0
O168 O 0.00592 0.26612 0.74558 0.0
O169 O 0.09473 0.31931 0.7463 0.0
O170 O 0.05123 0.28962 0.78292 0.0
O171 O 0.12633 0.28432 0.77839 0.0
C172 C 0.22651 0.29208 0.69774 0.0
C173 C 0.24469 0.34732 0.69426 0.0
H174 H 0.274 0.45466 0.69252 0.0
H175 H 0.25609 0.50402 0.71711 0.0
H176 H 0.14201 0.15051 0.73957 0.0
H177 H 0.18641 0.18696 0.70931 0.0
H178 H 0.23358 0.2689 0.68757 0.0
H179 H 0.26523 0.3655 0.6814 0.0
Mn180 Mn 0.71025 0.73863 0.76925 0.0
Mn181 Mn 0.83261 0.74998 0.76726 0.0
C182 C 0.78166 0.80825 0.78535 0.0
C183 C 0.62728 0.70437 0.78341 0.0
C184 C 0.78624 0.78688 0.73621 0.0
O185 O 0.69293 0.66511 0.75856 0.0
O186 O 0.77662 0.67662 0.75813 0.0
C187 C 0.81593 0.67102 0.79703 0.0
N188 N 0.84406 0.72227 0.79007 0.0
C189 C 0.89941 0.75416 0.81768 0.0
C190 C 0.87133 0.7016 0.82509 0.0
C191 C 0.82949 0.65984 0.8147 0.0
C192 C 0.88459 0.76267 0.7999 0.0
H193 H 0.78313 0.63909 0.78919 0.0
C194 C 0.72583 0.64885 0.75457 0.0
O195 O 0.634 0.72039 0.7662 0.0
O196 O 0.66767 0.70518 0.79202 0.0
N197 N 0.89055 0.81855 0.77521 0.0
C198 C 0.91369 0.86681 0.76596 0.0
C199 C 0.95678 0.91268 0.77429 0.0
C200 C 0.97534 0.90839 0.79203 0.0
C201 C 0.95131 0.8581 0.80114 0.0
C202 C 0.90964 0.81351 0.79191 0.0
H203 H 0.8991 0.87035 0.7524 0.0
O204 O 0.73906 0.811 0.78102 0.0
O205 O 0.78093 0.76395 0.78021 0.0
O206 O 0.74177 0.77463 0.74404 0.0
O207 O 0.82314 0.7801 0.74375 0.0
C208 C 0.96617 0.85067 0.81917 0.0
C209 C 0.94054 0.79873 0.82742 0.0
H210 H 0.88123 0.69297 0.83881 0.0
H211 H 0.8074 0.61925 0.82037 0.0
H212 H 0.97529 0.95133 0.76715 0.0
H213 H 0.00816 0.9439 0.79845 0.0
H214 H 0.9963 0.88486 0.82697 0.0
H215 H 0.95228 0.7937 0.84134 0.0
Mn216 Mn 0.38359 0.33478 0.613 0.0
Mn217 Mn 0.50834 0.44074 0.60549 0.0
C218 C 0.45498 0.3432 0.63083 0.0
C219 C 0.30004 0.29673 0.62691 0.0
C220 C 0.45361 0.34272 0.58017 0.0
O221 O 0.36916 0.3867 0.59783 0.0
O222 O 0.45338 0.45799 0.59545 0.0
C223 C 0.50318 0.51904 0.63089 0.0
N224 N 0.52761 0.49094 0.6255 0.0
C225 C 0.59316 0.52924 0.65029 0.0
C226 C 0.56895 0.55891 0.65603 0.0
C227 C 0.52372 0.55373 0.64629 0.0
C228 C 0.57099 0.49543 0.63481 0.0
H229 H 0.46814 0.51479 0.62352 0.0
C230 C 0.40236 0.43471 0.59245 0.0
O231 O 0.30669 0.2786 0.61131 0.0
O232 O 0.34165 0.33806 0.63438 0.0
N233 N 0.56599 0.43041 0.61428 0.0
C234 C 0.58503 0.39955 0.60677 0.0
C235 C 0.63037 0.40028 0.61482 0.0
C236 C 0.65598 0.43313 0.63035 0.0
C237 C 0.63668 0.46583 0.63747 0.0
C238 C 0.59179 0.46396 0.6287 0.0
H239 H 0.56552 0.37422 0.59483 0.0
O240 O 0.41091 0.29677 0.62924 0.0
O241 O 0.45593 0.38377 0.62198 0.0
O242 O 0.41121 0.31552 0.58974 0.0
O243 O 0.49168 0.39005 0.58457 0.0
C244 C 0.65972 0.49971 0.65305 0.0
C245 C 0.63792 0.53129 0.65948 0.0
H246 H 0.58453 0.58554 0.66795 0.0
H247 H 0.50464 0.57628 0.65069 0.0
H248 H 0.64529 0.37527 0.60915 0.0
H249 H 0.69037 0.43284 0.63666 0.0
H250 H 0.69378 0.50138 0.66036 0.0
H251 H 0.65575 0.55682 0.67156 0.0
Mn252 Mn 0.67089 0.05539 0.6053 0.0
Mn253 Mn 0.78925 0.17229 0.60914 0.0
C254 C 0.68325 0.12997 0.58851 0.0
C255 C 0.6169 0.97112 0.59186 0.0
C256 C 0.70404 0.12964 0.63917 0.0
O257 O 0.7212 0.03163 0.61669 0.0
O258 O 0.80038 0.11071 0.61621 0.0
C259 C 0.85101 0.15804 0.57927 0.0
N260 N 0.82999 0.1869 0.58691 0.0
C261 C 0.86738 0.25442 0.56279 0.0
C262 C 0.88977 0.22562 0.55473 0.0
C263 C 0.88142 0.17715 0.56298 0.0
C264 C 0.83775 0.23357 0.57908 0.0
H265 H 0.84459 0.12074 0.58557 0.0
C266 C 0.77199 0.05967 0.61942 0.0
O267 O 0.60843 0.98199 0.60853 0.0
O268 O 0.65786 0.00896 0.58304 0.0
N269 N 0.78374 0.23459 0.60271 0.0
C270 C 0.75632 0.25532 0.61155 0.0
C271 C 0.75703 0.30149 0.60426 0.0
C272 C 0.78754 0.32711 0.58841 0.0
C273 C 0.81625 0.30558 0.57976 0.0
C274 C 0.81316 0.25878 0.58743 0.0
H275 H 0.73274 0.23585 0.62372 0.0
O276 O 0.63507 0.09068 0.59214 0.0
O277 O 0.72314 0.12453 0.59491 0.0
O278 O 0.66795 0.0891 0.63015 0.0
O279 O 0.7507 0.162 0.63271 0.0
C280 C 0.84636 0.32765 0.56348 0.0
C281 C 0.87206 0.3022 0.55503 0.0
H282 H 0.91289 0.23999 0.54208 0.0
H283 H 0.89831 0.15454 0.55677 0.0
H284 H 0.73344 0.31676 0.61073 0.0
H285 H 0.78781 0.36267 0.5828 0.0
H286 H 0.84933 0.36372 0.55718 0.0
H287 H 0.89448 0.31912 0.54238 0.0
Mn288 Mn 0.99263 0.66367 0.60821 0.0
Mn289 Mn 0.97183 0.53715 0.60241 0.0
C290 C 0.93864 0.59669 0.62922 0.0
C291 C 0.04014 0.75086 0.62047 0.0
C292 C 0.91758 0.58404 0.57839 0.0
O293 O 0.05262 0.67543 0.59054 0.0
O294 O 0.03763 0.59004 0.58866 0.0
C295 C 0.06695 0.54612 0.62238 0.0
N296 N 0.01246 0.52166 0.62014 0.0
C297 C 0.99813 0.45345 0.64287 0.0
C298 C 0.05414 0.47784 0.64543 0.0
C299 C 0.08867 0.52456 0.63522 0.0
C300 C 0.97887 0.477 0.63 0.0
H301 H 0.09353 0.58151 0.61432 0.0
C302 C 0.06351 0.64037 0.58413 0.0
O303 O 0.01069 0.74035 0.60555 0.0
O304 O 0.04478 0.71154 0.62773 0.0
N305 N 0.90954 0.48201 0.61464 0.0
C306 C 0.85666 0.46605 0.61146 0.0
C307 C 0.81688 0.42322 0.6219 0.0
C308 C 0.8317 0.39548 0.63478 0.0
C309 C 0.88635 0.41179 0.63741 0.0
C310 C 0.92432 0.45622 0.62718 0.0
H311 H 0.84509 0.48683 0.60141 0.0
O312 O 0.93461 0.63968 0.62678 0.0
O313 O 0.97438 0.59345 0.61897 0.0
O314 O 0.93675 0.6294 0.58678 0.0
O315 O 0.92794 0.54718 0.58334 0.0
C316 C 0.90471 0.38648 0.65006 0.0
C317 C 0.9606 0.40713 0.65273 0.0
H318 H 0.07104 0.46126 0.65528 0.0
H319 H 0.13193 0.54364 0.63713 0.0
H320 H 0.77489 0.41148 0.61995 0.0
H321 H 0.80083 0.36206 0.64268 0.0
H322 H 0.87608 0.35136 0.65786 0.0
H323 H 0.97437 0.38768 0.66262 0.0
Mn324 Mn 0.99725 0.36972 0.10815 0.0
Mn325 Mn 0.87051 0.26788 0.112 0.0
C326 C 0.93226 0.36956 0.08844 0.0
C327 C 0.08254 0.40366 0.09602 0.0
C328 C 0.92806 0.35638 0.14096 0.0
O329 O 0.00365 0.31176 0.12282 0.0
O330 O 0.92042 0.23985 0.11798 0.0
C331 C 0.8582 0.19002 0.08278 0.0
N332 N 0.84235 0.22319 0.0905 0.0
C333 C 0.76672 0.19157 0.06939 0.0
C334 C 0.78225 0.15707 0.06119 0.0
C335 C 0.82833 0.1565 0.06786 0.0
C336 C 0.79812 0.22414 0.08416 0.0
H337 H 0.89317 0.189 0.08805 0.0
C338 C 0.96968 0.26117 0.12355 0.0
O339 O 0.0751 0.42106 0.11169 0.0
O340 O 0.04057 0.36534 0.08761 0.0
N341 N 0.81979 0.29128 0.10622 0.0
C342 C 0.81303 0.33024 0.11456 0.0
C343 C 0.77081 0.33865 0.10865 0.0
C344 C 0.73561 0.30654 0.0944 0.0
C345 C 0.74329 0.26664 0.08608 0.0
C346 C 0.78651 0.26062 0.09237 0.0
H347 H 0.83957 0.35478 0.12562 0.0
O348 O 0.97726 0.41397 0.0918 0.0
O349 O 0.92669 0.32642 0.09694 0.0
O350 O 0.96782 0.38833 0.13097 0.0
O351 O 0.89234 0.30938 0.13547 0.0
C352 C 0.70997 0.23285 0.0717 0.0
C353 C 0.72171 0.19539 0.06337 0.0
H354 H 0.75932 0.1311 0.0497 0.0
H355 H 0.84058 0.13002 0.06159 0.0
H356 H 0.76522 0.36958 0.11514 0.0
H357 H 0.70299 0.31301 0.08991 0.0
H358 H 0.67566 0.23591 0.06679 0.0
H359 H 0.69618 0.17015 0.05222 0.0
Mn360 Mn 0.64835 0.63417 0.101 0.0
Mn361 Mn 0.75487 0.61623 0.10632 0.0
C362 C 0.65312 0.56996 0.08283 0.0
C363 C 0.61177 0.6822 0.08719 0.0
C364 C 0.66085 0.56824 0.13273 0.0
O365 O 0.70143 0.70131 0.1155 0.0
O366 O 0.7702 0.68524 0.11841 0.0
C367 C 0.82741 0.70778 0.08212 0.0
N368 N 0.80215 0.65388 0.08626 0.0
C369 C 0.8375 0.63509 0.05903 0.0
C370 C 0.86424 0.6904 0.05452 0.0
C371 C 0.85918 0.72692 0.06613 0.0
C372 C 0.80654 0.61842 0.07517 0.0
H373 H 0.82309 0.73592 0.09087 0.0
C374 C 0.7483 0.71405 0.12144 0.0
O375 O 0.59373 0.65708 0.10291 0.0
O376 O 0.65091 0.67951 0.07949 0.0
N377 N 0.74748 0.55192 0.09558 0.0
C378 C 0.72176 0.50057 0.10259 0.0
C379 C 0.72618 0.45971 0.09344 0.0
C380 C 0.75648 0.47206 0.07714 0.0
C381 C 0.78183 0.52511 0.07001 0.0
C382 C 0.77833 0.56456 0.08028 0.0
H383 H 0.69883 0.4911 0.11522 0.0
O384 O 0.60742 0.5679 0.08535 0.0
O385 O 0.69494 0.61024 0.09096 0.0
O386 O 0.63363 0.58725 0.12469 0.0
O387 O 0.70622 0.57593 0.12696 0.0
C388 C 0.81061 0.54069 0.05323 0.0
C389 C 0.83895 0.59562 0.04785 0.0
H390 H 0.88838 0.7052 0.0421 0.0
H391 H 0.87939 0.76964 0.0627 0.0
H392 H 0.7066 0.4189 0.099 0.0
H393 H 0.76088 0.44061 0.0705 0.0
H394 H 0.81044 0.51088 0.04408 0.0
H395 H 0.86115 0.60693 0.03497 0.0
Mn396 Mn 0.39279 0.05187 0.11555 0.0
Mn397 Mn 0.5027 0.0366 0.11604 0.0
C398 C 0.46746 0.11082 0.13277 0.0
C399 C 0.30664 0.02479 0.12716 0.0
C400 C 0.47984 0.09321 0.0846 0.0
O401 O 0.36405 0.97791 0.10423 0.0
O402 O 0.43956 0.97229 0.10451 0.0
C403 C 0.45894 0.94872 0.14407 0.0
N404 N 0.49832 0.99877 0.13859 0.0
C405 C 0.54704 0.01237 0.16742 0.0
C406 C 0.50716 0.9608 0.17333 0.0
C407 C 0.4629 0.92889 0.16161 0.0
C408 C 0.54077 0.03004 0.14984 0.0
H409 H 0.42468 0.92426 0.13516 0.0
C410 C 0.38979 0.95389 0.10033 0.0
O411 O 0.32106 0.04587 0.11068 0.0
O412 O 0.34232 0.02023 0.13701 0.0
N413 N 0.56787 0.0947 0.12634 0.0
C414 C 0.60517 0.14123 0.11785 0.0
C415 C 0.65269 0.17725 0.12747 0.0
C416 C 0.6621 0.16435 0.1455 0.0
C417 C 0.62454 0.11484 0.15354 0.0
C418 C 0.57804 0.08047 0.14323 0.0
H419 H 0.59838 0.15108 0.10391 0.0
O420 O 0.43055 0.12279 0.12842 0.0
O421 O 0.45848 0.06319 0.12758 0.0
O422 O 0.43531 0.08677 0.09114 0.0
O423 O 0.50894 0.07709 0.09306 0.0
C424 C 0.63161 0.098 0.1713 0.0
C425 C 0.59273 0.04692 0.17828 0.0
H426 H 0.51009 0.94532 0.18683 0.0
H427 H 0.43186 0.88914 0.1661 0.0
H428 H 0.68192 0.2149 0.12106 0.0
H429 H 0.69865 0.19237 0.15292 0.0
H430 H 0.66693 0.12389 0.17966 0.0
H431 H 0.59862 0.03443 0.19196 0.0
Mn432 Mn 0.05612 0.69563 0.94687 0.0
Mn433 Mn 0.16383 0.82277 0.95044 0.0
C434 C 0.12166 0.71528 0.96918 0.0
C435 C 0.97004 0.62554 0.95576 0.0
C436 C 0.15762 0.74371 0.92193 0.0
O437 O 0.03135 0.73915 0.93082 0.0
O438 O 0.10826 0.81957 0.93304 0.0
C439 C 0.10356 0.86608 0.97021 0.0
N440 N 0.14554 0.85644 0.96966 0.0
C441 C 0.17488 0.89254 1.00042 0.0
C442 C 0.13209 0.9031 1.00129 0.0
C443 C 0.09627 0.88978 0.98612 0.0
C444 C 0.17994 0.86865 0.98424 0.0
H445 H 0.07574 0.85551 0.95863 0.0
C446 C 0.06166 0.78859 0.92587 0.0
O447 O 0.99173 0.62428 0.94017 0.0
O448 O 0.99552 0.67037 0.96507 0.0
N449 N 0.2221 0.83321 0.96646 0.0
C450 C 0.26487 0.82668 0.96242 0.0
C451 C 0.30535 0.83933 0.97591 0.0
C452 C 0.30246 0.86052 0.99313 0.0
C453 C 0.26002 0.87048 0.99644 0.0
C454 C 0.2209 0.857 0.98245 0.0
H455 H 0.26746 0.81095 0.94911 0.0
O456 O 0.08976 0.66598 0.96387 0.0
O457 O 0.11388 0.75252 0.96161 0.0
O458 O 0.10991 0.70606 0.92616 0.0
O459 O 0.18383 0.78823 0.93093 0.0
C460 C 0.25543 0.89403 1.01294 0.0
C461 C 0.21277 0.90488 1.01496 0.0
H462 H 0.12636 0.92144 1.01352 0.0
H463 H 0.06307 0.89767 0.9867 0.0
H464 H 0.33861 0.83268 0.97306 0.0
H465 H 0.33362 0.87006 1.00353 0.0
H466 H 0.28477 0.90442 0.02409 0.0
H467 H 0.20979 0.92323 0.02767 0.0
Mn468 Mn 0.32527 0.36907 0.9404 0.0
Mn469 Mn 0.42782 0.4973 0.94592 0.0
C470 C 0.32715 0.43881 0.92314 0.0
C471 C 0.28002 0.28584 0.92513 0.0
C472 C 0.33866 0.44073 0.97378 0.0
O473 O 0.38406 0.35792 0.95308 0.0
O474 O 0.44942 0.44574 0.9558 0.0
C475 C 0.50781 0.49732 0.92035 0.0
N476 N 0.47643 0.51821 0.92561 0.0
C477 C 0.51713 0.58992 0.90302 0.0
C478 C 0.54996 0.56923 0.89735 0.0
C479 C 0.54501 0.52251 0.90598 0.0
C480 C 0.48037 0.5627 0.91725 0.0
H481 H 0.50472 0.46198 0.92718 0.0
C482 C 0.43098 0.39504 0.95861 0.0
O483 O 0.26916 0.29122 0.94215 0.0
O484 O 0.32105 0.32722 0.91763 0.0
N485 N 0.41191 0.55124 0.93704 0.0
C486 C 0.37603 0.56487 0.94376 0.0
C487 C 0.37408 0.60936 0.93608 0.0
C488 C 0.40993 0.64009 0.92192 0.0
C489 C 0.44691 0.62556 0.91541 0.0
C490 C 0.44612 0.58013 0.92329 0.0
H491 H 0.34908 0.5419 0.95488 0.0
O492 O 0.28174 0.39528 0.92655 0.0
O493 O 0.37009 0.44119 0.93048 0.0
O494 O 0.31215 0.39607 0.96509 0.0
O495 O 0.38131 0.48122 0.96755 0.0
C496 C 0.48456 0.65441 0.90143 0.0
C497 C 0.51938 0.63644 0.89512 0.0
H498 H 0.57892 0.58873 0.88635 0.0
H499 H 0.57016 0.50627 0.90167 0.0
H500 H 0.34553 0.62038 0.94123 0.0
H501 H 0.40876 0.67474 0.91616 0.0
H502 H 0.48659 0.6902 0.89537 0.0
H503 H 0.54765 0.65865 0.88417 0.0
Mn504 Mn 0.65291 0.96624 0.94885 0.0
Mn505 Mn 0.65496 0.84858 0.95156 0.0
C506 C 0.58902 0.89466 0.96597 0.0
C507 C 0.67355 0.05229 0.95957 0.0
C508 C 0.60996 0.87747 0.91843 0.0
O509 O 0.72813 0.98938 0.93923 0.0
O510 O 0.72049 0.90678 0.9396 0.0
C511 C 0.74341 0.88853 0.97945 0.0
N512 N 0.69213 0.8516 0.97416 0.0
C513 C 0.67748 0.80155 1.00267 0.0
C514 C 0.73023 0.83894 1.00839 0.0
C515 C 0.76327 0.88272 0.99676 0.0
C516 C 0.65977 0.80977 0.98535 0.0
H517 H 0.7689 0.92215 0.97052 0.0
C518 C 0.74492 0.95688 0.935 0.0
O519 O 0.65977 0.03766 0.94241 0.0
O520 O 0.6799 0.0187 0.97012 0.0
N521 N 0.59409 0.78732 0.96237 0.0
C522 C 0.5452 0.75344 0.95437 0.0
C523 C 0.50728 0.70754 0.96419 0.0
C524 C 0.52057 0.69602 0.98184 0.0
C525 C 0.57202 0.73012 0.98941 0.0
C526 C 0.60805 0.7754 0.97902 0.0
H527 H 0.53506 0.76176 0.94069 0.0
O528 O 0.58002 0.93219 0.95975 0.0
O529 O 0.63582 0.89992 0.96222 0.0
O530 O 0.62224 0.92456 0.92433 0.0
O531 O 0.61605 0.84312 0.92819 0.0
C532 C 0.58915 0.72068 1.00677 0.0
C533 C 0.64173 0.75654 1.01346 0.0
H534 H 0.74575 0.83448 1.0217 0.0
H535 H 0.80398 0.91182 1.0011 0.0
H536 H 0.46793 0.6811 0.95818 0.0
H537 H 0.49117 0.6606 0.98937 0.0
H538 H 0.56228 0.68581 1.01505 0.0
H539 H 0.6543 0.74902 0.02689 0.0
Mn540 Mn 0.67328 0.72145 0.43836 0.0
Mn541 Mn 0.54609 0.61838 0.44381 0.0
C542 C 0.60575 0.71531 0.41898 0.0
C543 C 0.75773 0.75693 0.4252 0.0
C544 C 0.59832 0.71607 0.46918 0.0
O545 O 0.68396 0.66768 0.4539 0.0
O546 O 0.59783 0.59957 0.45597 0.0
C547 C 0.55086 0.5351 0.42094 0.0
N548 N 0.52807 0.56599 0.42462 0.0
C549 C 0.46068 0.52139 0.40071 0.0
C550 C 0.4833 0.48893 0.39671 0.0
C551 C 0.52877 0.49605 0.4068 0.0
C552 C 0.48478 0.56001 0.41482 0.0
H553 H 0.58545 0.5401 0.42881 0.0
C554 C 0.64847 0.62081 0.45951 0.0
O555 O 0.7509 0.77584 0.44065 0.0
O556 O 0.71585 0.7162 0.41767 0.0
N557 N 0.49177 0.63064 0.43286 0.0
C558 C 0.47487 0.66526 0.43844 0.0
C559 C 0.43006 0.66376 0.42962 0.0
C560 C 0.40261 0.62616 0.41537 0.0
C561 C 0.42046 0.59062 0.40997 0.0
C562 C 0.46544 0.59411 0.41923 0.0
H563 H 0.49527 0.69367 0.44958 0.0
O564 O 0.64959 0.76144 0.42147 0.0
O565 O 0.60244 0.67402 0.42807 0.0
O566 O 0.64374 0.74153 0.46109 0.0
O567 O 0.55993 0.6701 0.46392 0.0
C568 C 0.39519 0.55162 0.39585 0.0
C569 C 0.41545 0.51724 0.39115 0.0
H570 H 0.46629 0.45864 0.38585 0.0
H571 H 0.54654 0.47126 0.40375 0.0
H572 H 0.41642 0.69119 0.43391 0.0
H573 H 0.3678 0.62484 0.40872 0.0
H574 H 0.3602 0.54781 0.38848 0.0
H575 H 0.39593 0.48774 0.38017 0.0
Mn576 Mn 0.33444 0.97553 0.42923 0.0
Mn577 Mn 0.45141 0.97426 0.43054 0.0
C578 C 0.34764 0.9249 0.40774 0.0
C579 C 0.28766 0.01793 0.41819 0.0
C580 C 0.35671 0.8998 0.45466 0.0
O581 O 0.38095 0.03892 0.44604 0.0
O582 O 0.45473 0.03091 0.44771 0.0
C583 C 0.51502 0.08257 0.41305 0.0
N584 N 0.49774 0.02846 0.41318 0.0
C585 C 0.54918 0.03716 0.38591 0.0
C586 C 0.5677 0.09296 0.38556 0.0
C587 C 0.55033 0.1157 0.39915 0.0
C588 C 0.51338 0.00604 0.39996 0.0
H589 H 0.50204 0.10048 0.42345 0.0
C590 C 0.42805 0.05407 0.45224 0.0
O591 O 0.27189 0.98747 0.43298 0.0
O592 O 0.33091 0.02502 0.41033 0.0
N593 N 0.45783 0.92395 0.41479 0.0
C594 C 0.43996 0.87042 0.41789 0.0
C595 C 0.45396 0.84163 0.40559 0.0
C596 C 0.4881 0.86874 0.39062 0.0
C597 C 0.50855 0.92444 0.3883 0.0
C598 C 0.49272 0.95085 0.40092 0.0
H599 H 0.41626 0.85023 0.42988 0.0
O600 O 0.29968 0.916 0.41124 0.0
O601 O 0.38781 0.96524 0.41657 0.0
O602 O 0.32634 0.91965 0.45006 0.0
O603 O 0.40376 0.91664 0.44799 0.0
C604 C 0.54476 0.95493 0.37411 0.0
C605 C 0.5649 0.01125 0.37287 0.0
H606 H 0.59523 0.1187 0.37493 0.0
H607 H 0.56432 0.15871 0.39896 0.0
H608 H 0.43915 0.79886 0.40781 0.0
H609 H 0.49926 0.8468 0.38116 0.0
H610 H 0.55741 0.93547 0.3641 0.0
H611 H 0.59256 0.03427 0.36187 0.0
Mn612 Mn 0.03631 0.39501 0.44357 0.0
Mn613 Mn 0.15501 0.39693 0.44593 0.0
C614 C 0.10451 0.4582 0.46236 0.0
C615 C 0.94887 0.36015 0.45548 0.0
C616 C 0.12455 0.44424 0.41347 0.0
O617 O 0.01758 0.32267 0.43213 0.0
O618 O 0.09845 0.32756 0.4345 0.0
C619 C 0.12424 0.31084 0.47424 0.0
N620 N 0.15784 0.36254 0.46844 0.0
C621 C 0.21484 0.38157 0.49548 0.0
C622 C 0.18097 0.3284 0.50173 0.0
C623 C 0.13537 0.29296 0.49109 0.0
C624 C 0.20161 0.39709 0.47861 0.0
H625 H 0.08934 0.28355 0.46602 0.0
C626 C 0.04893 0.30398 0.42917 0.0
O627 O 0.96082 0.38037 0.43878 0.0
O628 O 0.98687 0.35878 0.46489 0.0
N629 N 0.21411 0.46139 0.45615 0.0
C630 C 0.24068 0.51215 0.44866 0.0
C631 C 0.28671 0.55296 0.45774 0.0
C632 C 0.3053 0.54093 0.47427 0.0
C633 C 0.27734 0.48831 0.48168 0.0
C634 C 0.23179 0.44933 0.47198 0.0
H635 H 0.22686 0.52137 0.43584 0.0
O636 O 0.06542 0.46539 0.45668 0.0
O637 O 0.10237 0.41348 0.45692 0.0
O638 O 0.07821 0.43425 0.41939 0.0
O639 O 0.15617 0.43323 0.42269 0.0
C640 C 0.29228 0.47316 0.49844 0.0
C641 C 0.26087 0.41995 0.5054 0.0
H642 H 0.18941 0.31446 0.51471 0.0
H643 H 0.10896 0.25194 0.49585 0.0
H644 H 0.30798 0.59349 0.45197 0.0
H645 H 0.34087 0.57252 0.48121 0.0
H646 H 0.3274 0.50233 0.50625 0.0
H647 H 0.27227 0.40908 0.51846 0.0
Zn648 Zn 0.01119 0.99521 0.13527 0.0
Zn649 Zn 0.01921 0.0241 0.19604 0.0
Zn650 Zn 0.01618 0.00762 0.16706 0.0
C651 C 0.00826 0.92652 0.19424 0.0
C652 C 0.10921 0.10291 0.18681 0.0
O653 O 0.04522 0.09133 0.15733 0.0
O654 O 0.00768 0.06125 0.12992 0.0
C655 C 0.91191 0.91813 0.14737 0.0
O656 O 0.04077 0.9528 0.18088 0.0
O657 O 0.98245 0.94676 0.2014 0.0
O658 O 0.09827 0.06458 0.19791 0.0
O659 O 0.07487 0.09558 0.17373 0.0
O660 O 0.94332 0.92536 0.13417 0.0
O661 O 0.92889 0.95063 0.16136 0.0
O662 O 0.07101 0.97406 0.16317 0.0
O663 O 0.07998 0.99607 0.13348 0.0
C664 C 0.09566 0.98107 0.14763 0.0
O665 O 0.93393 0.98442 0.17686 0.0
O666 O 0.97606 0.06084 0.19227 0.0
C667 C 0.02792 0.0992 0.14164 0.0
C668 C 0.93246 0.02273 0.18578 0.0
Zn669 Zn 0.96391 0.99141 0.34368 0.0
Zn670 Zn 0.02208 0.02834 0.40305 0.0
Zn671 Zn 0.01964 0.02547 0.36981 0.0
C672 C 0.99328 0.10236 0.39552 0.0
C673 C 0.95384 0.92253 0.39679 0.0
O674 O 0.98813 0.93634 0.3615 0.0
O675 O 0.9441 0.92055 0.33476 0.0
C676 C 0.08309 0.06981 0.33752 0.0
O677 O 0.00053 0.08857 0.37931 0.0
O678 O 0.99609 0.07746 0.40964 0.0
O679 O 0.97648 0.95334 0.41043 0.0
O680 O 0.96537 0.94192 0.3802 0.0
O681 O 0.03484 0.05125 0.33171 0.0
O682 O 0.09133 0.05886 0.35413 0.0
O683 O 0.98038 0.07241 0.35766 0.0
O684 O 0.90311 0.99908 0.35413 0.0
C685 C 0.93065 0.04958 0.35222 0.0
O686 O 0.10642 0.05622 0.37468 0.0
O687 O 0.09995 0.05678 0.40512 0.0
C688 C 0.96582 0.90587 0.34705 0.0
C689 C 0.12833 0.06443 0.39095 0.0
Zn690 Zn 0.01661 0.00623 0.89281 0.0
Zn691 Zn 0.99949 0.04651 0.81614 0.0
Zn692 Zn 0.01413 0.01548 0.86338 0.0
C693 C 0.02748 0.11661 0.84618 0.0
C694 C 0.91345 0.97588 0.83969 0.0
O695 O 0.0416 0.95645 0.86739 0.0
O696 O 0.98202 0.92601 0.88956 0.0
C697 C 0.10786 0.09567 0.8882 0.0
O698 O 0.05515 0.10199 0.85635 0.0
O699 O 0.98354 0.07958 0.83934 0.0
O700 O 0.93988 0.02519 0.83486 0.0
O701 O 0.92757 0.96498 0.85534 0.0
O702 O 0.09536 0.05112 0.89601 0.0
O703 O 0.07591 0.09603 0.87541 0.0
O704 O 0.93261 0.9859 0.8755 0.0
O705 O 0.97238 0.03961 0.89913 0.0
C706 C 0.93004 0.01165 0.8897 0.0
O707 O 0.05616 0.98387 0.84774 0.0
O708 O 0.05718 0.0242 0.8207 0.0
C709 C 0.0119 0.91826 0.87881 0.0
C710 C 0.07535 0.00094 0.83141 0.0
Zn711 Zn 0.00358 0.00766 0.69588 0.0
Zn712 Zn 0.02941 0.02258 0.63266 0.0
Zn713 Zn 0.02136 0.01639 0.66728 0.0
C714 C 0.06051 0.94746 0.64591 0.0
C715 C 0.09899 0.12628 0.64773 0.0
O716 O 0.0508 0.09675 0.68087 0.0
O717 O 0.97495 0.05802 0.69625 0.0
C718 C 0.9199 0.92441 0.68494 0.0
O719 O 0.05671 0.96488 0.66194 0.0
O720 O 0.04916 0.96496 0.63133 0.0
O721 O 0.08743 0.09979 0.63276 0.0
O722 O 0.07556 0.10282 0.6629 0.0
O723 O 0.95525 0.92828 0.69641 0.0
O724 O 0.93299 0.96238 0.67282 0.0
O725 O 0.06838 0.98142 0.6814 0.0
O726 O 0.07843 0.03703 0.70377 0.0
C727 C 0.09225 0.00578 0.69664 0.0
O728 O 0.93936 0.98957 0.65607 0.0
O729 O 0.95534 0.00697 0.62613 0.0
C730 C 0.01792 0.10072 0.69194 0.0
C731 C 0.92329 0.99338 0.63959 0.0
Zn732 Zn 0.65239 0.37481 0.53504 0.0
Zn733 Zn 0.66653 0.35396 0.47423 0.0
Zn734 Zn 0.67289 0.35112 0.50804 0.0
C735 C 0.74981 0.33023 0.48474 0.0
C736 C 0.57225 0.26412 0.48198 0.0
O737 O 0.58425 0.30514 0.51573 0.0
O738 O 0.59192 0.38181 0.5241 0.0
C739 C 0.7374 0.46376 0.53348 0.0
O740 O 0.73122 0.32464 0.50129 0.0
O741 O 0.73073 0.34609 0.47179 0.0
O742 O 0.59729 0.28934 0.46765 0.0
O743 O 0.59229 0.28296 0.4982 0.0
O744 O 0.70779 0.43844 0.54696 0.0
O745 O 0.7264 0.44113 0.51718 0.0
O746 O 0.7088 0.31361 0.52469 0.0
O747 O 0.64785 0.30615 0.54456 0.0
C748 C 0.68163 0.29251 0.53953 0.0
O749 O 0.69467 0.43561 0.50026 0.0
O750 O 0.67423 0.42566 0.47032 0.0
C751 C 0.56171 0.33214 0.52106 0.0
C752 C 0.68857 0.45473 0.48469 0.0
Zn753 Zn 0.70359 0.36782 0.74048 0.0
Zn754 Zn 0.70241 0.33513 0.68023 0.0
Zn755 Zn 0.70093 0.35846 0.708 0.0
C756 C 0.6156 0.34208 0.68105 0.0
C757 C 0.7841 0.43108 0.67838 0.0
O758 O 0.78852 0.39342 0.7135 0.0
O759 O 0.77651 0.37683 0.74356 0.0
C760 C 0.62317 0.2626 0.73628 0.0
O761 O 0.64868 0.38117 0.6917 0.0
O762 O 0.62267 0.30203 0.67932 0.0
O763 O 0.74252 0.40467 0.66847 0.0
O764 O 0.78441 0.41353 0.69505 0.0
O765 O 0.64037 0.29935 0.74841 0.0
O766 O 0.6448 0.27436 0.71999 0.0
O767 O 0.66915 0.41532 0.71131 0.0
O768 O 0.69643 0.43283 0.74055 0.0
C769 C 0.67775 0.44356 0.7262 0.0
O770 O 0.66973 0.26841 0.70405 0.0
O771 O 0.74109 0.29543 0.68702 0.0
C772 C 0.80704 0.39043 0.72965 0.0
C773 C 0.70197 0.25717 0.69528 0.0
Zn774 Zn 0.6865 0.34826 0.24207 0.0
Zn775 Zn 0.71567 0.39738 0.17917 0.0
Zn776 Zn 0.69174 0.35776 0.20727 0.0
C777 C 0.67144 0.44899 0.18967 0.0
C778 C 0.63661 0.28723 0.17473 0.0
O779 O 0.66132 0.26984 0.21042 0.0
O780 O 0.66663 0.27059 0.24108 0.0
C781 C 0.79263 0.42657 0.23556 0.0
O782 O 0.64797 0.40257 0.19802 0.0
O783 O 0.71867 0.46685 0.18397 0.0
O784 O 0.65037 0.33371 0.16822 0.0
O785 O 0.65449 0.28366 0.19087 0.0
O786 O 0.76114 0.40416 0.24899 0.0
O787 O 0.77487 0.41196 0.21879 0.0
O788 O 0.63013 0.3786 0.2169 0.0
O789 O 0.62869 0.36469 0.24714 0.0
C790 C 0.61034 0.37694 0.23304 0.0
O791 O 0.78156 0.39477 0.20109 0.0
O792 O 0.78173 0.40402 0.17065 0.0
C793 C 0.65687 0.24507 0.22593 0.0
C794 C 0.8059 0.40383 0.18532 0.0
Zn795 Zn 0.68595 0.3443 0.03815 0.0
Zn796 Zn 0.68482 0.34641 0.97801 0.0
Zn797 Zn 0.68814 0.3459 1.0088 0.0
C798 C 0.67898 0.25 0.98485 0.0
C799 C 0.78298 0.4343 0.98598 0.0
O800 O 0.64968 0.39343 1.01926 0.0
O801 O 0.71158 0.42257 0.04099 0.0
C802 C 0.60165 0.25196 0.03016 0.0
O803 O 0.66309 0.25966 1.00037 0.0
O804 O 0.69849 0.28705 0.97278 0.0
O805 O 0.74562 0.42065 0.97409 0.0
O806 O 0.77363 0.40583 1.00098 0.0
O807 O 0.60737 0.29258 0.03894 0.0
O808 O 0.63805 0.25927 1.01821 0.0
O809 O 0.77317 0.38262 1.02039 0.0
O810 O 0.73746 0.31742 0.041 0.0
C811 C 0.77907 0.3536 0.03312 0.0
O812 O 0.62845 0.3725 1.00118 0.0
O813 O 0.61007 0.33116 0.97421 0.0
C814 C 0.67581 0.42751 0.0324 0.0
C815 C 0.59768 0.35375 0.98664 0.0
Zn816 Zn 0.37372 0.69338 0.87589 0.0
Zn817 Zn 0.34921 0.69061 0.81684 0.0
Zn818 Zn 0.36083 0.68827 0.84635 0.0
C819 C 0.43653 0.68153 0.81865 0.0
C820 C 0.26525 0.60064 0.8265 0.0
O821 O 0.31628 0.72623 0.85824 0.0
O822 O 0.29795 0.67075 0.88188 0.0
C823 C 0.46216 0.77428 0.86235 0.0
O824 O 0.43881 0.70805 0.8334 0.0
O825 O 0.39255 0.65777 0.80974 0.0
O826 O 0.26935 0.6423 0.8186 0.0
O827 O 0.30322 0.6064 0.83762 0.0
O828 O 0.42655 0.77207 0.873 0.0
O829 O 0.44868 0.73489 0.85096 0.0
O830 O 0.32303 0.60536 0.85783 0.0
O831 O 0.39586 0.63719 0.8751 0.0
C832 C 0.3539 0.59683 0.86875 0.0
O833 O 0.3359 0.74939 0.84076 0.0
O834 O 0.38443 0.77075 0.81559 0.0
C835 C 0.28726 0.70191 0.87253 0.0
C836 C 0.36111 0.78339 0.82759 0.0
Zn837 Zn 0.34537 0.67815 0.07576 0.0
Zn838 Zn 0.30674 0.65386 1.0133 0.0
Zn839 Zn 0.3407 0.67546 0.04181 0.0
C840 C 0.24976 0.68891 0.02383 0.0
C841 C 0.41299 0.73723 1.01068 0.0
O842 O 0.4271 0.71059 0.04582 0.0
O843 O 0.42459 0.71173 0.07641 0.0
C844 C 0.27979 0.57177 0.06965 0.0
O845 O 0.29606 0.71726 0.03178 0.0
O846 O 0.23376 0.63959 1.02127 0.0
O847 O 0.3671 0.72465 1.00404 0.0
O848 O 0.41561 0.7155 0.02611 0.0
O849 O 0.30236 0.60251 0.08334 0.0
O850 O 0.29036 0.59151 0.05302 0.0
O851 O 0.3179 0.73485 0.0515 0.0
O852 O 0.31614 0.7251 0.0819 0.0
C853 C 0.31119 0.74868 0.06777 0.0
O854 O 0.30314 0.58584 0.03481 0.0
O855 O 0.30744 0.59145 1.00423 0.0
C856 C 0.45132 0.7214 0.06167 0.0
C857 C 0.29943 0.56392 1.0188 0.0
Zn858 Zn 0.34076 0.67692 0.56902 0.0
Zn859 Zn 0.37002 0.64872 0.51188 0.0
Zn860 Zn 0.35768 0.68279 0.53757 0.0
C861 C 0.33965 0.72765 0.50196 0.0
C862 C 0.26372 0.59596 0.5158 0.0
O863 O 0.35504 0.60842 0.54659 0.0
O864 O 0.32521 0.60194 0.5749 0.0
C865 C 0.44274 0.7697 0.56327 0.0
O866 O 0.3151 0.70814 0.51748 0.0
O867 O 0.37111 0.71159 0.4963 0.0
O868 O 0.2982 0.58077 0.51488 0.0
O869 O 0.27924 0.64424 0.5218 0.0
O870 O 0.41269 0.73834 0.57585 0.0
O871 O 0.4283 0.75823 0.54622 0.0
O872 O 0.28234 0.68759 0.5367 0.0
O873 O 0.28073 0.6919 0.56731 0.0
C874 C 0.26087 0.69279 0.55164 0.0
O875 O 0.44085 0.73433 0.52725 0.0
O876 O 0.44026 0.65866 0.52174 0.0
C877 C 0.33958 0.58258 0.56192 0.0
C878 C 0.46679 0.70964 0.52339 0.0
Zn879 Zn 0.36309 0.67924 0.30827 0.0
Zn880 Zn 0.36138 0.68828 0.36929 0.0
Zn881 Zn 0.36116 0.68489 0.33947 0.0
C882 C 0.44713 0.68481 0.36406 0.0
C883 C 0.26774 0.60285 0.36295 0.0
O884 O 0.31424 0.72189 0.32947 0.0
O885 O 0.29206 0.67389 0.3038 0.0
C886 C 0.463 0.76183 0.31708 0.0
O887 O 0.44353 0.71382 0.3509 0.0
O888 O 0.40462 0.65138 0.37222 0.0
O889 O 0.28164 0.6462 0.37162 0.0
O890 O 0.30037 0.60294 0.35067 0.0
O891 O 0.42937 0.74918 0.30391 0.0
O892 O 0.44825 0.73528 0.33251 0.0
O893 O 0.32337 0.59694 0.33389 0.0
O894 O 0.36762 0.61246 0.30768 0.0
C895 C 0.3401 0.58004 0.32039 0.0
O896 O 0.33454 0.74183 0.34774 0.0
O897 O 0.39849 0.7691 0.3688 0.0
C898 C 0.28423 0.70328 0.31488 0.0
C899 C 0.36582 0.77776 0.3596 0.0
C900 C 0.24157 0.18876 0.2082 0.0
C901 C 0.22841 0.21498 0.22191 0.0
C902 C 0.2053 0.16009 0.19372 0.0
C903 C 0.1542 0.15574 0.19264 0.0
H904 H 0.27834 0.18684 0.20948 0.0
H905 H 0.21449 0.13541 0.18478 0.0
S906 S 0.10275 0.22181 0.22392 0.0
N907 N 0.16362 0.24028 0.2322 0.0
N908 N 0.09458 0.18427 0.20548 0.0
C909 C 0.14306 0.1865 0.20509 0.0
C910 C 0.18031 0.21643 0.2197 0.0
C911 C 0.82649 0.98692 0.22086 0.0
C912 C 0.82711 0.03654 0.22221 0.0
C913 C 0.85421 0.97803 0.20658 0.0
C914 C 0.8829 0.01835 0.19323 0.0
H915 H 0.8086 0.95678 0.23175 0.0
H916 H 0.85832 0.94224 0.20729 0.0
S917 S 0.88494 0.14882 0.18793 0.0
N918 N 0.84981 0.12169 0.20696 0.0
N919 N 0.90179 0.10489 0.18024 0.0
C920 C 0.87783 0.06489 0.19313 0.0
C921 C 0.85017 0.07418 0.20767 0.0
C922 C 0.04834 0.83145 0.21752 0.0
C923 C 0.00975 0.80949 0.23175 0.0
C924 C 0.04626 0.86646 0.20394 0.0
C925 C 0.00405 0.8782 0.20384 0.0
H926 H 0.08135 0.82322 0.21733 0.0
H927 H 0.07927 0.88676 0.19431 0.0
S928 S 0.88342 0.81498 0.23418 0.0
N929 N 0.92277 0.79271 0.24247 0.0
N930 N 0.91561 0.85326 0.2162 0.0
C931 C 0.96103 0.84923 0.21626 0.0
C932 C 0.96452 0.816 0.23039 0.0
C933 C 0.15275 0.15259 0.29476 0.0
C934 C 0.20698 0.18332 0.30023 0.0
C935 C 0.11415 0.1142 0.30664 0.0
C936 C 0.12763 0.10601 0.32486 0.0
H937 H 0.13983 0.15901 0.28121 0.0
H938 H 0.07286 0.09216 0.30159 0.0
S939 S 0.26441 0.17898 0.34625 0.0
N940 N 0.27268 0.2049 0.32512 0.0
N941 N 0.19995 0.13244 0.3477 0.0
C942 C 0.18215 0.13618 0.33047 0.0
C943 C 0.22176 0.17522 0.31817 0.0
C944 C 0.88977 0.04988 0.30312 0.0
C945 C 0.84854 0.06245 0.30458 0.0
C946 C 0.92297 0.05524 0.31836 0.0
C947 C 0.91457 0.07071 0.336 0.0
H948 H 0.89469 0.03317 0.29032 0.0
H949 H 0.95128 0.04105 0.31672 0.0
S950 S 0.81248 0.10946 0.34702 0.0
N951 N 0.80274 0.09428 0.32467 0.0
N952 N 0.86325 0.101 0.35374 0.0
C953 C 0.87506 0.08586 0.33744 0.0
C954 C 0.84224 0.08215 0.32167 0.0
C955 C 0.95789 0.79669 0.31699 0.0
C956 C 0.01302 0.81473 0.31475 0.0
C957 C 0.94077 0.82094 0.33012 0.0
C958 C 0.97814 0.86342 0.34159 0.0
H959 H 0.92837 0.76756 0.30738 0.0
H960 H 0.89879 0.81046 0.32991 0.0
S961 S 0.12549 0.916 0.34407 0.0
N962 N 0.10373 0.87056 0.32727 0.0
N963 N 0.07142 0.91544 0.35205 0.0
C964 C 0.03231 0.8763 0.3412 0.0
C965 C 0.04988 0.85239 0.32764 0.0
C966 C 0.83059 0.83665 0.81623 0.0
C967 C 0.82201 0.85013 0.79811 0.0
C968 C 0.86066 0.87718 0.82957 0.0
C969 C 0.88249 0.93277 0.82541 0.0
H970 H 0.81261 0.79447 0.82028 0.0
H971 H 0.86601 0.86476 0.84333 0.0
S972 S 0.8702 0.98858 0.77979 0.0
N973 N 0.83709 0.92232 0.77675 0.0
N974 N 0.89283 0.99824 0.80143 0.0
C975 C 0.87405 0.94634 0.80721 0.0
C976 C 0.84377 0.90517 0.79374 0.0
C977 C 0.19437 0.03066 0.80158 0.0
C978 C 0.19316 0.98088 0.80125 0.0
C979 C 0.15809 0.0375 0.81247 0.0
C980 C 0.12039 0.9955 0.82392 0.0
H981 H 0.22078 0.06325 0.79238 0.0
H982 H 0.15794 0.07538 0.81126 0.0
S983 S 0.11025 0.86194 0.83138 0.0
N984 N 0.15675 0.89146 0.81526 0.0
N985 N 0.09118 0.90605 0.83678 0.0
C986 C 0.12308 0.94778 0.82535 0.0
C987 C 0.15875 0.93999 0.81371 0.0
C988 C 0.10773 0.21794 0.80938 0.0
C989 C 0.07457 0.24041 0.805 0.0
C990 C 0.09659 0.18242 0.82449 0.0
C991 C 0.05207 0.16824 0.83585 0.0
H992 H 0.14117 0.22563 0.80056 0.0
H993 H 0.12028 0.16261 0.82632 0.0
S994 S 0.9572 0.22088 0.83242 0.0
N995 N 0.99881 0.25 0.81494 0.0
N996 N 0.9779 0.18289 0.84307 0.0
C997 C 0.02118 0.19336 0.83257 0.0
C998 C 0.03231 0.22941 0.81722 0.0
C999 C 0.82116 0.79522 0.70442 0.0
C1000 C 0.79873 0.81339 0.71787 0.0
C1001 C 0.85302 0.82969 0.69019 0.0
C1002 C 0.86417 0.88359 0.68923 0.0
H1003 H 0.81891 0.75629 0.70609 0.0
H1004 H 0.87547 0.81674 0.6817 0.0
S1005 S 0.8057 0.94658 0.71869 0.0
N1006 N 0.78168 0.88493 0.72736 0.0
N1007 N 0.84242 0.95014 0.70066 0.0
C1008 C 0.83525 0.89925 0.7008 0.0
C1009 C 0.80255 0.86405 0.71529 0.0
C1010 C 0.20687 0.97859 0.70963 0.0
C1011 C 0.21479 0.9927 0.72861 0.0
C1012 C 0.16557 0.98029 0.69914 0.0
C1013 C 0.13171 0.99665 0.70741 0.0
H1014 H 0.23345 0.96752 0.70281 0.0
H1015 H 0.16131 0.97056 0.68449 0.0
S1016 S 0.13493 0.03384 0.75715 0.0
N1017 N 0.1857 0.02251 0.75513 0.0
N1018 N 0.10684 0.02263 0.73633 0.0
C1019 C 0.13882 0.00906 0.7266 0.0
C1020 C 0.18105 0.00844 0.73692 0.0
C1021 C 0.0283 0.18131 0.73435 0.0
C1022 C 0.05419 0.23497 0.72804 0.0
C1023 C 0.01905 0.13909 0.72254 0.0
C1024 C 0.03428 0.14857 0.70376 0.0
H1025 H 0.01413 0.17178 0.74852 0.0
H1026 H 0.99868 0.0983 0.72817 0.0
S1027 S 0.10167 0.28198 0.68017 0.0
N1028 N 0.09377 0.29597 0.70176 0.0
N1029 N 0.07713 0.21571 0.67938 0.0
C1030 C 0.06137 0.20221 0.69726 0.0
C1031 C 0.07066 0.24565 0.70941 0.0
C1032 C 0.88082 0.53975 0.54773 0.0
C1033 C 0.87893 0.57049 0.56266 0.0
C1034 C 0.83669 0.51202 0.53554 0.0
C1035 C 0.78876 0.51316 0.53814 0.0
H1036 H 0.91497 0.5335 0.54639 0.0
H1037 H 0.83772 0.48413 0.52563 0.0
S1038 S 0.76674 0.59523 0.57291 0.0
N1039 N 0.82845 0.60714 0.57746 0.0
N1040 N 0.74501 0.554 0.55485 0.0
C1041 C 0.7889 0.54892 0.55157 0.0
C1042 C 0.83408 0.57771 0.56384 0.0
C1043 C 0.458 0.34299 0.54585 0.0
C1044 C 0.45993 0.31951 0.56285 0.0
C1045 C 0.48162 0.33607 0.52995 0.0
C1046 C 0.50976 0.30726 0.53081 0.0
H1047 H 0.44286 0.37105 0.54527 0.0
H1048 H 0.48532 0.36045 0.51781 0.0
S1049 S 0.51477 0.22784 0.57105 0.0
N1050 N 0.48223 0.25784 0.5788 0.0
N1051 N 0.5277 0.24562 0.54899 0.0
C1052 C 0.50436 0.27679 0.54694 0.0
C1053 C 0.47992 0.28352 0.56312 0.0
C1054 C 0.66198 0.20175 0.58094 0.0
C1055 C 0.68932 0.17444 0.57626 0.0
C1056 C 0.66197 0.24085 0.56916 0.0
C1057 C 0.68757 0.25319 0.55171 0.0
H1058 H 0.64064 0.19309 0.59397 0.0
H1059 H 0.64083 0.26112 0.57386 0.0
S1060 S 0.75798 0.18634 0.53171 0.0
N1061 N 0.73852 0.15789 0.55239 0.0
N1062 N 0.73808 0.23159 0.52989 0.0
C1063 C 0.71407 0.22503 0.54659 0.0
C1064 C 0.7146 0.18526 0.55885 0.0
C1065 C 0.84886 0.54249 0.64304 0.0
C1066 C 0.90312 0.55619 0.64315 0.0
C1067 C 0.81265 0.50568 0.65579 0.0
C1068 C 0.82844 0.4803 0.66941 0.0
H1069 H 0.83365 0.5591 0.63254 0.0
H1070 H 0.77087 0.49504 0.65434 0.0
S1071 S 0.96927 0.51441 0.67919 0.0
N1072 N 0.97399 0.55136 0.66068 0.0
N1073 N 0.90447 0.47912 0.68432 0.0
C1074 C 0.88366 0.49735 0.67092 0.0
C1075 C 0.9213 0.53596 0.65786 0.0
C1076 C 0.51643 0.38021 0.65887 0.0
C1077 C 0.49889 0.34723 0.64289 0.0
C1078 C 0.55477 0.37943 0.67126 0.0
C1079 C 0.57577 0.34484 0.66816 0.0
H1080 H 0.49999 0.40623 0.66189 0.0
H1081 H 0.5674 0.40535 0.68338 0.0
S1082 S 0.5428 0.25191 0.62769 0.0
N1083 N 0.50482 0.27977 0.62459 0.0
N1084 N 0.577 0.27849 0.64707 0.0
C1085 C 0.55818 0.31198 0.65201 0.0
C1086 C 0.51938 0.31279 0.63968 0.0
C1087 C 0.73217 0.16298 0.67152 0.0
C1088 C 0.6917 0.14301 0.65768 0.0
C1089 C 0.72948 0.19157 0.68683 0.0
C1090 C 0.68697 0.20256 0.68857 0.0
H1091 H 0.76844 0.1606 0.6697 0.0
H1092 H 0.76461 0.21177 0.69586 0.0
S1093 S 0.56546 0.14907 0.65826 0.0
N1094 N 0.6031 0.12741 0.6485 0.0
N1095 N 0.59881 0.18255 0.67706 0.0
C1096 C 0.64269 0.17618 0.6763 0.0
C1097 C 0.64512 0.14645 0.66075 0.0
C1098 C 0.52562 0.14477 0.16142 0.0
C1099 C 0.51613 0.15159 0.14262 0.0
C1100 C 0.5667 0.18791 0.17171 0.0
C1101 C 0.59887 0.23918 0.1635 0.0
H1102 H 0.49998 0.10656 0.16834 0.0
H1103 H 0.57169 0.18171 0.1863 0.0
S1104 S 0.59226 0.27504 0.11402 0.0
N1105 N 0.54296 0.21171 0.11601 0.0
N1106 N 0.62114 0.29192 0.13476 0.0
C1107 C 0.59082 0.24522 0.14441 0.0
C1108 C 0.54883 0.2018 0.13417 0.0
C1109 C 0.92412 0.42942 0.15851 0.0
C1110 C 0.91617 0.37658 0.15816 0.0
C1111 C 0.89469 0.44278 0.17069 0.0
C1112 C 0.85686 0.40388 0.18292 0.0
H1113 H 0.9478 0.45845 0.14787 0.0
H1114 H 0.89599 0.48117 0.16871 0.0
S1115 S 0.83378 0.26548 0.1911 0.0
N1116 N 0.87744 0.28942 0.17394 0.0
N1117 N 0.82245 0.31493 0.19681 0.0
C1118 C 0.8558 0.35435 0.18485 0.0
C1119 C 0.88515 0.3404 0.17234 0.0
C1120 C 0.66587 0.56138 0.16691 0.0
C1121 C 0.64098 0.53653 0.15002 0.0
C1122 C 0.6661 0.53041 0.18216 0.0
C1123 C 0.64201 0.47368 0.1809 0.0
H1124 H 0.69036 0.60515 0.16768 0.0
H1125 H 0.69172 0.55148 0.19399 0.0
S1126 S 0.56357 0.38909 0.14078 0.0
N1127 N 0.58513 0.45196 0.13376 0.0
N1128 N 0.58511 0.39366 0.16246 0.0
C1129 C 0.61058 0.44819 0.16501 0.0
C1130 C 0.61071 0.47975 0.14942 0.0
C1131 C 0.54835 0.12645 0.05898 0.0
C1132 C 0.50198 0.12378 0.06684 0.0
C1133 C 0.57696 0.16307 0.04463 0.0
C1134 C 0.5606 0.19865 0.0376 0.0
H1135 H 0.56497 0.10259 0.06473 0.0
H1136 H 0.61504 0.16743 0.04046 0.0
S1137 S 0.43672 0.20114 0.05033 0.0
N1138 N 0.43675 0.15455 0.06413 0.0
N1139 N 0.49085 0.22338 0.03733 0.0
C1140 C 0.51125 0.19223 0.04379 0.0
C1141 C 0.48197 0.15497 0.05839 0.0
C1142 C 0.87488 0.32488 0.06005 0.0
C1143 C 0.8976 0.36836 0.07264 0.0
C1144 C 0.8407 0.32291 0.04547 0.0
C1145 C 0.83092 0.36607 0.0421 0.0
H1146 H 0.8826 0.29162 0.06169 0.0
H1147 H 0.81943 0.28605 0.03737 0.0
S1148 S 0.89392 0.49596 0.06778 0.0
N1149 N 0.91565 0.4595 0.07885 0.0
N1150 N 0.85524 0.45759 0.05058 0.0
C1151 C 0.85918 0.41257 0.05313 0.0
C1152 C 0.8919 0.41352 0.0685 0.0
C1153 C 0.62616 0.47737 0.07111 0.0
C1154 C 0.65608 0.53388 0.06873 0.0
C1155 C 0.62768 0.44215 0.05787 0.0
C1156 C 0.65777 0.46197 0.04147 0.0
H1157 H 0.60337 0.46037 0.08369 0.0
H1158 H 0.608 0.39923 0.06107 0.0
S1159 S 0.73301 0.60579 0.02674 0.0
N1160 N 0.70934 0.60758 0.04738 0.0
N1161 N 0.71272 0.54135 1.02262 0.0
C1162 C 0.68422 0.51809 0.03826 0.0
C1163 C 0.683 0.55404 0.0518 0.0
C1164 C 0.58042 0.81319 0.89149 0.0
C1165 C 0.5856 0.86058 0.89958 0.0
C1166 C 0.54777 0.78985 0.87571 0.0
C1167 C 0.51798 0.81219 0.86799 0.0
H1168 H 0.59854 0.79176 0.8981 0.0
H1169 H 0.54013 0.75042 0.8712 0.0
S1170 S 0.52986 0.94375 0.88008 0.0
N1171 N 0.56841 0.93572 0.89557 0.0
N1172 N 0.5057 0.89032 0.86637 0.0
C1173 C 0.52982 0.86381 0.87394 0.0
C1174 C 0.5634 0.88807 0.88984 0.0
C1175 C 0.17093 0.68101 0.90154 0.0
C1176 C 0.18515 0.73429 0.9063 0.0
C1177 C 0.20144 0.67093 0.88886 0.0
C1178 C 0.24681 0.71362 0.88024 0.0
H1179 H 0.13812 0.64677 0.90851 0.0
H1180 H 0.19152 0.62932 0.88671 0.0
S1181 S 0.29546 0.86012 0.8853 0.0
N1182 N 0.24356 0.83032 0.89945 0.0
N1183 N 0.3007 0.81076 0.87552 0.0
C1184 C 0.25858 0.76685 0.88349 0.0
C1185 C 0.22789 0.77735 0.89661 0.0
C1186 C 0.29471 0.49549 0.90708 0.0
C1187 C 0.32982 0.47443 0.9077 0.0
C1188 C 0.29818 0.53093 0.89277 0.0
C1189 C 0.3361 0.54536 0.87851 0.0
H1190 H 0.26637 0.48673 0.91819 0.0
H1191 H 0.27395 0.5503 0.89365 0.0
S1192 S 0.42798 0.49107 0.87157 0.0
N1193 N 0.39661 0.46264 0.89112 0.0
N1194 N 0.40427 0.53063 0.8646 0.0
C1195 C 0.36817 0.52104 0.87822 0.0
C1196 C 0.3646 0.48498 0.8927 0.0
C1197 C 0.49517 0.82195 0.97013 0.0
C1198 C 0.54768 0.85107 0.97735 0.0
C1199 C 0.45288 0.78422 0.98099 0.0
C1200 C 0.46094 0.77504 0.99976 0.0
H1201 H 0.4867 0.82841 0.95591 0.0
H1202 H 0.41321 0.76258 0.97456 0.0
S1203 S 0.59073 0.84594 0.02574 0.0
N1204 N 0.60574 0.87173 1.00456 0.0
N1205 N 0.52573 0.80044 0.02523 0.0
C1206 C 0.51345 0.80449 1.00724 0.0
C1207 C 0.55688 0.84296 0.99602 0.0
C1208 C 0.16171 0.73709 1.00117 0.0
C1209 C 0.16475 0.72513 0.98244 0.0
C1210 C 0.194 0.73114 1.01489 0.0
C1211 C 0.23004 0.71346 1.01004 0.0
H1212 H 0.13172 0.74734 1.00537 0.0
H1213 H 0.18786 0.73637 0.02936 0.0
S1214 S 0.25475 0.68078 0.96261 0.0
N1215 N 0.2073 0.69698 0.95972 0.0
N1216 N 0.26929 0.68803 0.98502 0.0
C1217 C 0.23556 0.70507 0.99113 0.0
C1218 C 0.20213 0.70979 0.97745 0.0
C1219 C 0.35335 0.47869 1.00558 0.0
C1220 C 0.31718 0.44976 0.99101 0.0
C1221 C 0.34136 0.50787 1.01838 0.0
C1222 C 0.29374 0.51027 1.01649 0.0
H1223 H 0.39344 0.48367 1.00584 0.0
H1224 H 0.37316 0.53547 0.02771 0.0
S1225 S 0.18087 0.43122 0.98365 0.0
N1226 N 0.22739 0.41596 0.97798 0.0
N1227 N 0.20587 0.47268 1.00158 0.0
C1228 C 0.25396 0.4746 1.00395 0.0
C1229 C 0.26568 0.44412 0.99113 0.0
C1230 C 0.1518 0.47213 0.49301 0.0
C1231 C 0.14129 0.49414 0.47706 0.0
C1232 C 0.18784 0.50585 0.50678 0.0
C1233 C 0.21274 0.56269 0.50547 0.0
H1234 H 0.13336 0.42863 0.49457 0.0
H1235 H 0.19863 0.48742 0.51803 0.0
S1236 S 0.18682 0.63936 0.4689 0.0
N1237 N 0.15081 0.57545 0.4623 0.0
N1238 N 0.21685 0.63879 0.4886 0.0
C1239 C 0.19739 0.58477 0.49072 0.0
C1240 C 0.16181 0.55046 0.47645 0.0
C1241 C 0.5601 0.76732 0.48412 0.0
C1242 C 0.58796 0.73849 0.48594 0.0
C1243 C 0.52727 0.76719 0.4985 0.0
C1244 C 0.52059 0.73708 0.51485 0.0
H1245 H 0.55854 0.78449 0.47079 0.0
H1246 H 0.50116 0.78384 0.49566 0.0
S1247 S 0.59374 0.66473 0.52765 0.0
N1248 N 0.61425 0.68754 0.50642 0.0
N1249 N 0.55217 0.68658 0.53331 0.0
C1250 C 0.55432 0.71496 0.51775 0.0
C1251 C 0.58787 0.71544 0.50322 0.0
C1252 C 0.33937 0.85609 0.48644 0.0
C1253 C 0.33626 0.85113 0.46694 0.0
C1254 C 0.3357 0.81383 0.49796 0.0
C1255 C 0.33074 0.76608 0.49031 0.0
H1256 H 0.34802 0.894 0.49276 0.0
H1257 H 0.34093 0.82031 0.51282 0.0
S1258 S 0.31491 0.73097 0.44026 0.0
N1259 N 0.32066 0.79158 0.44084 0.0
N1260 N 0.31911 0.71516 0.4621 0.0
C1261 C 0.32506 0.75986 0.47093 0.0
C1262 C 0.32646 0.8016 0.45937 0.0
C1263 C 0.14323 0.5202 0.39147 0.0
C1264 C 0.14719 0.47424 0.39582 0.0
C1265 C 0.17891 0.5591 0.37882 0.0
C1266 C 0.21963 0.55337 0.37 0.0
H1267 H 0.11616 0.52886 0.39916 0.0
H1268 H 0.17758 0.59626 0.37715 0.0
S1269 S 0.23885 0.43449 0.37365 0.0
N1270 N 0.18886 0.42062 0.38793 0.0
N1271 N 0.25572 0.49395 0.3643 0.0
C1272 C 0.21956 0.50456 0.37251 0.0
C1273 C 0.18344 0.46502 0.38544 0.0
C1274 C 0.54733 0.74455 0.40281 0.0
C1275 C 0.56886 0.70987 0.40366 0.0
C1276 C 0.51156 0.73968 0.3885 0.0
C1277 C 0.49747 0.7012 0.37431 0.0
H1278 H 0.55614 0.77378 0.41376 0.0
H1279 H 0.49182 0.76349 0.38925 0.0
S1280 S 0.55149 0.60855 0.36824 0.0
N1281 N 0.58027 0.64151 0.38767 0.0
N1282 N 0.51177 0.63168 0.36093 0.0
C1283 C 0.52156 0.66886 0.37432 0.0
C1284 C 0.55793 0.67365 0.38892 0.0
C1285 C 0.31904 0.83315 0.39657 0.0
C1286 C 0.35228 0.88929 0.39425 0.0
C1287 C 0.31929 0.7968 0.3838 0.0
C1288 C 0.35193 0.81542 0.36804 0.0
H1289 H 0.2934 0.81715 0.40859 0.0
H1290 H 0.29627 0.75379 0.38687 0.0
S1291 S 0.43438 0.95809 0.3529 0.0
N1292 N 0.40959 0.96188 0.37309 0.0
N1293 N 0.41204 0.89299 0.34924 0.0
C1294 C 0.38186 0.87133 0.36467 0.0
C1295 C 0.38129 0.90854 0.3777 0.0
C1296 C 0.24196 0.01798 0.15193 0.0
C1297 C 0.25121 0.00476 0.13402 0.0
C1298 C 0.18964 0.00492 0.15747 0.0
C1299 C 0.14507 0.97721 0.14538 0.0
H1300 H 0.27571 0.04154 0.16123 0.0
H1301 H 0.18481 0.02024 0.17059 0.0
S1302 S 0.14689 0.92358 0.09873 0.0
N1303 N 0.21077 0.95603 0.10546 0.0
N1304 N 0.11291 0.92991 0.11594 0.0
C1305 C 0.15355 0.95923 0.12825 0.0
C1306 C 0.20651 0.97352 0.12252 0.0
C1307 C 0.99174 0.19108 0.11488 0.0
C1308 C 0.99022 0.22471 0.12859 0.0
C1309 C 0.00875 0.15406 0.11912 0.0
C1310 C 0.02372 0.14811 0.13739 0.0
H1311 H 0.97905 0.19294 0.10077 0.0
H1312 H 0.00777 0.12815 0.10802 0.0
S1313 S 0.03107 0.23118 0.17792 0.0
N1314 N 0.00938 0.25424 0.16068 0.0
N1315 N 0.03931 0.18253 0.16903 0.0
C1316 C 0.02485 0.18365 0.15108 0.0
C1317 C 0.0084 0.22237 0.14659 0.0
C1318 C 0.8185 0.76977 0.14526 0.0
C1319 C 0.78067 0.76572 0.13172 0.0
C1320 C 0.85675 0.82009 0.15271 0.0
C1321 C 0.85899 0.86825 0.14675 0.0
H1322 H 0.82051 0.73414 0.14938 0.0
H1323 H 0.88805 0.82184 0.16183 0.0
S1324 S 0.76568 0.87951 0.11326 0.0
N1325 N 0.74427 0.81387 0.11421 0.0
N1326 N 0.81763 0.9086 0.12778 0.0
C1327 C 0.81893 0.86441 0.13436 0.0
C1328 C 0.77932 0.81306 0.12696 0.0
C1329 C 0.9806 0.20679 0.42275 0.0
C1330 C 0.02837 0.25417 0.41792 0.0
C1331 C 0.96503 0.15759 0.41365 0.0
C1332 C 0.99581 0.15455 0.39907 0.0
H1333 H 0.95721 0.20695 0.43443 0.0
H1334 H 0.93094 0.12089 0.41896 0.0
S1335 S 0.11893 0.26962 0.37914 0.0
N1336 N 0.10261 0.29672 0.39627 0.0
N1337 N 0.07246 0.2047 0.37884 0.0
C1338 C 0.0405 0.20287 0.39294 0.0
C1339 C 0.05716 0.25256 0.40251 0.0
C1340 C 0.85741 0.80691 0.42628 0.0
C1341 C 0.80978 0.78534 0.41568 0.0
C1342 C 0.90634 0.84658 0.41889 0.0
C1343 C 0.90895 0.86742 0.40086 0.0
H1344 H 0.85623 0.79568 0.44076 0.0
H1345 H 0.94136 0.86469 0.42803 0.0
S1346 S 0.79649 0.81721 0.36654 0.0
N1347 N 0.76902 0.78084 0.38542 0.0
N1348 N 0.86088 0.85764 0.37172 0.0
C1349 C 0.86265 0.84188 0.38945 0.0
C1350 C 0.81286 0.80036 0.39689 0.0
C1351 C 0.23565 0.02578 0.39139 0.0
C1352 C 0.2559 0.04031 0.40966 0.0
C1353 C 0.19885 0.04022 0.38394 0.0
C1354 C 0.18207 0.0703 0.39451 0.0
H1355 H 0.24535 0.99994 0.38331 0.0
H1356 H 0.17988 0.02358 0.37063 0.0
S1357 S 0.23507 0.12992 0.44109 0.0
N1358 N 0.26429 0.09383 0.43675 0.0
N1359 N 0.19726 0.1232 0.42264 0.0
C1360 C 0.20775 0.09072 0.41184 0.0
C1361 C 0.24385 0.0748 0.41954 0.0
C1362 C 0.79153 0.93547 0.91024 0.0
C1363 C 0.7906 0.97442 0.92205 0.0
C1364 C 0.83463 0.94892 0.89828 0.0
C1365 C 0.87878 0.00172 0.8978 0.0
H1366 H 0.75902 0.89372 0.91045 0.0
H1367 H 0.8349 0.917 0.89028 0.0
S1368 S 0.89353 0.12025 0.92398 0.0
N1369 N 0.83532 0.06924 0.93095 0.0
N1370 N 0.91706 0.09453 0.90871 0.0
C1371 C 0.87699 0.04182 0.90863 0.0
C1372 C 0.83274 0.02822 0.92068 0.0
C1373 C 0.08699 0.856 0.90006 0.0
C1374 C 0.04594 0.81239 0.91019 0.0
C1375 C 0.0752 0.88605 0.88724 0.0
C1376 C 0.02189 0.87386 0.88417 0.0
H1377 H 0.12907 0.86906 0.90276 0.0
H1378 H 0.10832 0.92227 0.88125 0.0
S1379 S 0.89904 0.75655 0.90357 0.0
N1380 N 0.9494 0.75287 0.91358 0.0
N1381 N 0.9271 0.80963 0.88956 0.0
C1382 C 0.9802 0.82647 0.89241 0.0
C1383 C 0.99221 0.79572 0.90546 0.0
C1384 C 0.21468 0.18717 0.92315 0.0
C1385 C 0.24193 0.2375 0.9142 0.0
C1386 C 0.17265 0.14205 0.91428 0.0
C1387 C 0.15482 0.14526 0.89615 0.0
H1388 H 0.22525 0.18278 0.93732 0.0
H1389 H 0.15286 0.10451 0.9221 0.0
S1390 S 0.21317 0.26835 0.86655 0.0
N1391 N 0.2492 0.28844 0.886 0.0
N1392 N 0.16884 0.20335 0.86944 0.0
C1393 C 0.18214 0.19534 0.88688 0.0
C1394 C 0.22607 0.24142 0.89586 0.0
C1395 C 0.09182 0.85153 0.62114 0.0
C1396 C 0.05878 0.80243 0.6303 0.0
C1397 C 0.09788 0.90035 0.62783 0.0
C1398 C 0.07025 0.90155 0.64371 0.0
H1399 H 0.11023 0.85171 0.60807 0.0
H1400 H 0.1207 0.93677 0.61962 0.0
S1401 S 0.97889 0.78333 0.6726 0.0
N1402 N -0.00019 0.75771 0.65636 0.0
N1403 N 0.01003 0.84935 0.6687 0.0
C1404 C 0.03997 0.85314 0.65369 0.0
C1405 C 0.0343 0.80345 0.64696 0.0
C1406 C 0.2013 0.25868 0.62772 0.0
C1407 C 0.24859 0.26643 0.63656 0.0
C1408 C 0.15073 0.21665 0.63323 0.0
C1409 C 0.14619 0.18103 0.64764 0.0
H1410 H 0.20371 0.28242 0.61554 0.0
H1411 H 0.1155 0.20885 0.62506 0.0
S1412 S 0.25817 0.1857 0.67547 0.0
N1413 N 0.28799 0.23732 0.66092 0.0
N1414 N 0.19278 0.15793 0.67123 0.0
C1415 C 0.19286 0.19115 0.65755 0.0
C1416 C 0.24434 0.23399 0.65194 0.0
C1417 C 0.82729 0.046 0.64349 0.0
C1418 C 0.80056 0.03191 0.62619 0.0
C1419 C 0.86236 0.02718 0.64886 0.0
C1420 C 0.87306 0.99518 0.63679 0.0
H1421 H 0.82291 0.0737 0.65255 0.0
H1422 H 0.88487 0.04188 0.66177 0.0
S1423 S 0.80871 0.94295 0.5908 0.0
N1424 N 0.78247 0.97973 0.5979 0.0
N1425 N 0.8504 0.94633 0.60753 0.0
C1426 C 0.84386 0.97811 0.61997 0.0
C1427 C 0.80712 0.99612 0.61476 0.0
C1428 C 0.89223 0.35386 0.48287 0.0
C1429 C 0.89569 0.34273 0.464 0.0
C1430 C 0.84314 0.34454 0.49052 0.0
C1431 C 0.79586 0.32286 0.47959 0.0
H1432 H 0.92836 0.37308 0.49146 0.0
H1433 H 0.84318 0.35805 0.50455 0.0
S1434 S 0.78143 0.2757 0.43074 0.0
N1435 N 0.84631 0.30191 0.43553 0.0
N1436 N 0.75411 0.28224 0.44988 0.0
C1437 C 0.79809 0.3065 0.4613 0.0
C1438 C 0.84798 0.31717 0.45348 0.0
C1439 C 0.71003 0.58278 0.46217 0.0
C1440 C 0.66693 0.58715 0.46933 0.0
C1441 C 0.72127 0.54299 0.46881 0.0
C1442 C 0.69101 0.50751 0.48321 0.0
H1443 H 0.73238 0.60728 0.45039 0.0
H1444 H 0.75126 0.53736 0.46172 0.0
S1445 S 0.58 0.50859 0.50867 0.0
N1446 N 0.59785 0.55697 0.49292 0.0
N1447 N 0.62046 0.48354 0.50582 0.0
C1448 C 0.65144 0.51513 0.49168 0.0
C1449 C 0.63893 0.55458 0.4846 0.0
C1450 C 0.49761 0.11313 0.47601 0.0
C1451 C 0.45611 0.10482 0.46339 0.0
C1452 C 0.53135 0.16426 0.48402 0.0
C1453 C 0.52553 0.20913 0.47939 0.0
H1454 H 0.50575 0.08056 0.47903 0.0
H1455 H 0.56512 0.16973 0.49261 0.0
S1456 S 0.4206 0.20843 0.44853 0.0
N1457 N 0.40819 0.14525 0.44811 0.0
N1458 N 0.47315 0.24143 0.46258 0.0
C1459 C 0.48234 0.20074 0.46775 0.0
C1460 C 0.44718 0.14853 0.45992 0.0
C1461 C 0.73837 0.59243 0.73069 0.0
C1462 C 0.70569 0.59674 0.74428 0.0
C1463 C 0.72382 0.54263 0.72214 0.0
C1464 C 0.67641 0.49478 0.72703 0.0
H1465 H 0.77674 0.62746 0.72716 0.0
H1466 H 0.75262 0.54062 0.71305 0.0
S1467 S 0.57404 0.48475 0.76029 0.0
N1468 N 0.6207 0.54963 0.76065 0.0
N1469 N 0.5948 0.45573 0.74527 0.0
C1470 C 0.64158 0.49929 0.73958 0.0
C1471 C 0.65582 0.55025 0.74803 0.0
C1472 C 0.48877 0.12963 0.73215 0.0
C1473 C 0.47291 0.11739 0.75087 0.0
C1474 C 0.53913 0.17464 0.72732 0.0
C1475 C 0.57564 0.20866 0.74107 0.0
H1476 H 0.46095 0.10608 0.72111 0.0
H1477 H 0.54813 0.18445 0.71277 0.0
S1478 S 0.55721 0.18773 0.79215 0.0
N1479 N 0.50045 0.13892 0.78312 0.0
N1480 N 0.59481 0.22186 0.77431 0.0
C1481 C 0.56167 0.19395 0.75984 0.0
C1482 C 0.51043 0.14887 0.76467 0.0
C1483 C 0.92784 0.40402 0.75619 0.0
C1484 C 0.94903 0.38126 0.74409 0.0
C1485 C 0.88522 0.41202 0.75056 0.0
C1486 C 0.86128 0.39659 0.73273 0.0
H1487 H 0.94322 0.41421 0.77029 0.0
H1488 H 0.86879 0.4276 0.76068 0.0
S1489 S 0.90179 0.33422 0.69605 0.0
N1490 N 0.94419 0.3445 0.71338 0.0
N1491 N 0.86276 0.35786 0.703 0.0
C1492 C 0.88369 0.37592 0.72023 0.0
C1493 C 0.92778 0.36849 0.7259 0.0
C1494 C 0.46166 0.32527 0.23123 0.0
C1495 C 0.45326 0.34484 0.24802 0.0
C1496 C 0.51394 0.34218 0.22486 0.0
C1497 C 0.55957 0.378 0.2354 0.0
H1498 H 0.42754 0.29405 0.22355 0.0
H1499 H 0.51843 0.32276 0.21268 0.0
S1500 S 0.55934 0.44579 0.27913 0.0
N1501 N 0.49476 0.40668 0.27387 0.0
N1502 N 0.59302 0.43694 0.26237 0.0
C1503 C 0.55164 0.40114 0.2514 0.0
C1504 C 0.49843 0.38486 0.25763 0.0
C1505 C 0.70575 0.14637 0.22464 0.0
C1506 C 0.68332 0.11644 0.24105 0.0
C1507 C 0.68985 0.18249 0.21758 0.0
C1508 C 0.65199 0.19083 0.227 0.0
H1509 H 0.73926 0.1455 0.21816 0.0
H1510 H 0.71212 0.20872 0.20611 0.0
S1511 S 0.57408 0.11483 0.26835 0.0
N1512 N 0.61519 0.09099 0.26464 0.0
N1513 N 0.58612 0.15972 0.25172 0.0
C1514 C 0.62471 0.15629 0.24205 0.0
C1515 C 0.64033 0.11894 0.24905 0.0
C1516 C 0.91247 0.52876 0.26382 0.0
C1517 C 0.94 0.57197 0.25136 0.0
C1518 C 0.86766 0.47997 0.25807 0.0
C1519 C 0.8478 0.47256 0.23966 0.0
H1520 H 0.92375 0.53375 0.27841 0.0
H1521 H 0.84643 0.44904 0.26849 0.0
S1522 S 0.90933 0.5716 0.20111 0.0
N1523 N 0.94796 0.60255 0.21934 0.0
N1524 N 0.86264 0.51145 0.20859 0.0
C1525 C 0.87757 0.51398 0.2267 0.0
C1526 C 0.92393 0.56357 0.23255 0.0
C1527 C 0.67604 0.1403 0.9544 0.0
C1528 C 0.67624 0.10243 0.96694 0.0
C1529 C 0.67522 0.18631 0.96058 0.0
C1530 C 0.67437 0.19709 0.97966 0.0
H1531 H 0.67651 0.1345 0.93957 0.0
H1532 H 0.67546 0.21396 0.9501 0.0
S1533 S 0.6721 0.10934 1.01834 0.0
N1534 N 0.67362 0.07755 0.99949 0.0
N1535 N 0.67272 0.16486 1.01109 0.0
C1536 C 0.67373 0.1592 0.99244 0.0
C1537 C 0.67473 0.11193 0.9861 0.0
C1538 C 0.90285 0.57716 0.98156 0.0
C1539 C 0.92326 0.57577 0.96389 0.0
C1540 C 0.86017 0.53011 0.98972 0.0
C1541 C 0.83673 0.47977 0.98062 0.0
H1542 H 0.91935 0.61507 0.98904 0.0
H1543 H 0.84382 0.5337 1.00277 0.0
S1544 S 0.87665 0.45259 0.93492 0.0
N1545 N 0.91739 0.51815 0.93817 0.0
N1546 N 0.83815 0.43081 0.95346 0.0
C1547 C 0.85786 0.47753 0.96334 0.0
C1548 C 0.90077 0.52509 0.955 0.0
C1549 C 0.46838 0.3329 0.96393 0.0
C1550 C 0.46779 0.38031 0.96855 0.0
C1551 C 0.50885 0.32326 0.97091 0.0
C1552 C 0.54998 0.36022 0.98299 0.0
H1553 H 0.43927 0.30454 0.95404 0.0
H1554 H 0.50915 0.28742 0.96617 0.0
S1555 S 0.56149 0.48626 1.00173 0.0
N1556 N 0.5082 0.46165 0.98776 0.0
N1557 N 0.58394 0.44307 1.00081 0.0
C1558 C 0.54739 0.4056 0.98888 0.0
C1559 C 0.50647 0.4158 0.98164 0.0
C1560 C 0.58106 0.7139 0.81106 0.0
C1561 C 0.57782 0.69184 0.79334 0.0
C1562 C 0.53503 0.70928 0.81956 0.0
C1563 C 0.48422 0.68161 0.81071 0.0
H1564 H 0.61982 0.73714 0.81799 0.0
H1565 H 0.53959 0.72872 0.83285 0.0
S1566 S 0.45441 0.61014 0.76519 0.0
N1567 N 0.52027 0.63787 0.76795 0.0
N1568 N 0.43331 0.62685 0.78386 0.0
C1569 C 0.48043 0.65647 0.79342 0.0
C1570 C 0.52738 0.66226 0.78473 0.0
C1571 C 0.28807 0.85023 0.80869 0.0
C1572 C 0.32885 0.89284 0.79822 0.0
C1573 C 0.29994 0.819 0.82091 0.0
C1574 C 0.35289 0.82899 0.82285 0.0
H1575 H 0.24616 0.83898 0.80668 0.0
H1576 H 0.26687 0.78353 0.82728 0.0
S1577 S 0.47536 0.94226 0.80177 0.0
N1578 N 0.42519 0.94884 0.79312 0.0
N1579 N 0.44743 0.88934 0.81585 0.0
C1580 C 0.39463 0.87512 0.81415 0.0
C1581 C 0.38263 0.90725 0.80183 0.0
C1582 C 0.21666 0.46757 0.80268 0.0
C1583 C 0.17133 0.46128 0.79257 0.0
C1584 C 0.24381 0.50985 0.81541 0.0
C1585 C 0.22696 0.54773 0.81835 0.0
H1586 H 0.23221 0.44036 0.80048 0.0
H1587 H 0.28039 0.51501 0.82197 0.0
S1588 S 0.10684 0.54571 0.79743 0.0
N1589 N 0.10767 0.49359 0.78794 0.0
N1590 N 0.15925 0.57339 0.81176 0.0
C1591 C 0.1797 0.53989 0.80934 0.0
C1592 C 0.15182 0.49669 0.79645 0.0
C1593 C 0.38647 0.89716 0.07378 0.0
C1594 C 0.36166 0.90344 0.08952 0.0
C1595 C 0.36389 0.84746 0.06447 0.0
C1596 C 0.31678 0.80206 0.07102 0.0
H1597 H 0.42479 0.93023 0.06912 0.0
H1598 H 0.38673 0.8431 0.05341 0.0
S1599 S 0.23234 0.80003 0.1099 0.0
N1600 N 0.28353 0.86291 0.10957 0.0
N1601 N 0.24266 0.76825 0.09273 0.0
C1602 C 0.2892 0.80925 0.08572 0.0
C1603 C 0.3114 0.8603 0.09488 0.0
C1604 C 0.18212 0.45426 0.09829 0.0
C1605 C 0.13549 0.43223 0.08712 0.0
C1606 C 0.2314 0.49505 0.09148 0.0
C1607 C 0.23527 0.51627 0.07345 0.0
H1608 H 0.17972 0.44269 0.11278 0.0
H1609 H 0.26545 0.51356 0.10103 0.0
S1610 S 0.12588 0.46536 0.03786 0.0
N1611 N 0.09728 0.42797 0.05643 0.0
N1612 N 0.18955 0.50649 0.04376 0.0
C1613 C 0.19014 0.49023 0.06151 0.0
C1614 C 0.1401 0.44775 0.06837 0.0
C1615 C 0.56326 0.69163 0.05991 0.0
C1616 C 0.58547 0.70867 0.07778 0.0
C1617 C 0.52422 0.70342 0.05298 0.0
C1618 C 0.50721 0.73287 0.06377 0.0
H1619 H 0.57179 0.66446 0.05211 0.0
H1620 H 0.50285 0.68393 0.04027 0.0
S1621 S 0.56625 0.80029 0.10875 0.0
N1622 N 0.59691 0.76567 0.10423 0.0
N1623 N 0.52509 0.78974 0.09096 0.0
C1624 C 0.53579 0.75725 0.08025 0.0
C1625 C 0.57439 0.74425 0.08744 0.0
C1626 C 0.1544 0.71152 0.57279 0.0
C1627 C 0.10979 0.65878 0.5713 0.0
C1628 C 0.20259 0.72615 0.56349 0.0
C1629 C 0.20767 0.68897 0.55214 0.0
H1630 H 0.15375 0.74025 0.58239 0.0
H1631 H 0.23782 0.76491 0.56673 0.0
S1632 S 0.09906 0.55031 0.54023 0.0
N1633 N 0.07087 0.57251 0.555 0.0
N1634 N 0.16155 0.60049 0.53761 0.0
C1635 C 0.16143 0.63867 0.54873 0.0
C1636 C 0.11252 0.62333 0.55838 0.0
C1637 C 0.41317 0.50524 0.56922 0.0
C1638 C 0.38115 0.46604 0.58252 0.0
C1639 C 0.39669 0.53958 0.56107 0.0
C1640 C 0.34816 0.53669 0.56624 0.0
H1641 H 0.45203 0.5105 0.56548 0.0
H1642 H 0.42396 0.57109 0.55169 0.0
S1643 S 0.24717 0.4377 0.59888 0.0
N1644 N 0.29618 0.42307 0.5991 0.0
N1645 N 0.26611 0.48878 0.5842 0.0
C1646 C 0.31438 0.49573 0.57868 0.0
C1647 C 0.33063 0.46008 0.58671 0.0
C1648 C 0.54909 0.87414 0.59507 0.0
C1649 C 0.57924 0.9184 0.58333 0.0
C1650 C 0.50713 0.82562 0.58812 0.0
C1651 C 0.49284 0.81932 0.56911 0.0
H1652 H 0.55692 0.87741 0.60991 0.0
H1653 H 0.48453 0.79342 0.59799 0.0
S1654 S 0.56324 0.9216 0.53218 0.0
N1655 N 0.5956 0.95201 0.55153 0.0
N1656 N 0.51557 0.86029 0.53835 0.0
C1657 C 0.52475 0.86223 0.55697 0.0
C1658 C 0.56823 0.91193 0.56411 0.0
C1659 C 0.35493 0.45849 0.31317 0.0
C1660 C 0.31717 0.43214 0.29873 0.0
C1661 C 0.35833 0.50379 0.32214 0.0
C1662 C 0.32289 0.5228 0.31737 0.0
H1663 H 0.38403 0.44608 0.31678 0.0
H1664 H 0.39113 0.52627 0.33191 0.0
S1665 S 0.21162 0.46296 0.28272 0.0
N1666 N 0.23992 0.42481 0.28162 0.0
N1667 N 0.24593 0.50906 0.29875 0.0
C1668 C 0.28232 0.49407 0.30411 0.0
C1669 C 0.27954 0.44893 0.2947 0.0
C1670 C 0.58024 0.90314 0.3107 0.0
C1671 C 0.60687 0.89586 0.29561 0.0
C1672 C 0.53633 0.85848 0.3193 0.0
C1673 C 0.51856 0.80519 0.31335 0.0
H1674 H 0.59166 0.94362 0.31531 0.0
H1675 H 0.51406 0.86589 0.32981 0.0
S1676 S 0.57879 0.76347 0.27638 0.0
N1677 N 0.61524 0.83029 0.27654 0.0
N1678 N 0.53334 0.74731 0.29273 0.0
C1679 C 0.54707 0.79732 0.29921 0.0
C1680 C 0.59108 0.84238 0.29034 0.0
C1681 C 0.15789 0.68926 0.29289 0.0
C1682 C 0.16427 0.74109 0.29502 0.0
C1683 C 0.19591 0.67697 0.30022 0.0
C1684 C 0.2413 0.71567 0.31023 0.0
H1685 H 0.1245 0.65854 0.28482 0.0
H1686 H 0.1904 0.63711 0.29757 0.0
S1687 S 0.27329 0.85519 0.32175 0.0
N1688 N 0.21707 0.83018 0.30925 0.0
N1689 N 0.2884 0.8064 0.32327 0.0
C1690 C 0.24663 0.76659 0.31349 0.0
C1691 C 0.2082 0.77954 0.30576 0.0
loop_
_geom_bond_atom_site_label_1
_geom_bond_atom_site_label_2
_geom_bond_distance
_geom_bond_site_symmetry_2
_ccdc_geom_bond_type
Mn0 O5 2.095 . S
Mn0 O15 2.162 1_545 S
Mn0 O16 2.297 1_545 S
Mn0 O24 2.385 1_545 S
Mn0 O25 2.209 . S
Mn0 O26 2.094 1_545 S
Mn1 O6 2.121 . S
Mn1 N8 2.257 . S
Mn1 N17 2.282 . S
Mn1 O25 2.215 . S
Mn1 O27 2.117 . S
C2 O24 1.234 1_545 S
C2 O25 1.283 . S
C3 O15 1.281 . S
C3 O16 1.236 . S
C4 O26 1.240 1_545 S
C4 O27 1.264 . S
O5 Mn0 2.095 . S
O5 C14 1.250 . S
O6 Mn1 2.121 . S
O6 C14 1.258 . S
C7 N8 1.326 . S
C7 C11 1.460 . S
C7 H13 0.929 . S
N8 Mn1 2.257 . S
N8 C7 1.326 . S
N8 C12 1.362 . S
C9 C10 1.258 . S
C9 C12 1.431 . S
C9 C29 1.449 1_655 S
C10 C9 1.258 . S
C10 C11 1.477 . S
C10 H30 0.931 . S
C11 C7 1.460 . S
C11 C10 1.477 . S
C11 H31 0.930 . S
C12 N8 1.362 . S
C12 C9 1.431 . S
C12 C22 1.476 . S
H13 C7 0.929 . S
C14 O5 1.250 . S
C14 O6 1.258 . S
O15 Mn0 2.162 1_565 S
O15 C3 1.281 . S
O16 Mn0 2.297 1_565 S
O16 C3 1.236 . S
N17 Mn1 2.282 . S
N17 C18 1.328 . S
N17 C22 1.318 . S
C18 N17 1.328 . S
C18 C19 1.457 . S
C18 H23 0.929 . S
C19 C18 1.457 . S
C19 C20 1.291 1_655 S
C19 H32 0.931 . S
C20 C19 1.291 1_455 S
C20 C21 1.373 1_455 S
C20 H33 0.929 . S
C21 C20 1.373 1_655 S
C21 C22 1.396 . S
C21 C28 1.403 1_655 S
C22 C12 1.476 . S
C22 N17 1.318 . S
C22 C21 1.396 . S
H23 C18 0.929 . S
O24 Mn0 2.385 1_565 S
O24 C2 1.234 1_565 S
O25 Mn0 2.209 . S
O25 Mn1 2.215 . S
O25 C2 1.283 . S
O26 Mn0 2.094 1_565 S
O26 C4 1.240 1_565 S
O27 Mn1 2.117 . S
O27 C4 1.264 . S
C28 C21 1.403 1_455 S
C28 C29 1.399 . S
C28 H34 0.929 . S
C29 C9 1.449 1_455 S
C29 C28 1.399 . S
C29 H35 0.930 . S
H30 C10 0.931 . S
H31 C11 0.930 . S
H32 C19 0.931 . S
H33 C20 0.929 . S
H34 C28 0.929 . S
H35 C29 0.930 . S
Mn36 O41 2.095 . S
Mn36 O51 2.162 1_455 S
Mn36 O52 2.297 1_455 S
Mn36 O60 2.385 1_455 S
Mn36 O61 2.209 . S
Mn36 O62 2.094 1_455 S
Mn37 O42 2.121 . S
Mn37 N44 2.257 . S
Mn37 N53 2.282 . S
Mn37 O61 2.215 . S
Mn37 O63 2.117 . S
C38 O60 1.234 1_455 S
C38 O61 1.283 . S
C39 O51 1.281 . S
C39 O52 1.236 . S
C40 O62 1.240 1_455 S
C40 O63 1.264 . S
O41 Mn36 2.095 . S
O41 C50 1.250 . S
O42 Mn37 2.121 . S
O42 C50 1.258 . S
C43 N44 1.326 . S
C43 C47 1.460 . S
C43 H49 0.929 . S
N44 Mn37 2.257 . S
N44 C43 1.326 . S
N44 C48 1.362 . S
C45 C46 1.258 . S
C45 C48 1.431 . S
C45 C65 1.449 1_565 S
C46 C45 1.258 . S
C46 C47 1.477 . S
C46 H66 0.931 . S
C47 C43 1.460 . S
C47 C46 1.477 . S
C47 H67 0.930 . S
C48 N44 1.362 . S
C48 C45 1.431 . S
C48 C58 1.476 . S
H49 C43 0.929 . S
C50 O41 1.250 . S
C50 O42 1.258 . S
O51 Mn36 2.162 1_655 S
O51 C39 1.281 . S
O52 Mn36 2.297 1_655 S
O52 C39 1.236 . S
N53 Mn37 2.282 . S
N53 C54 1.328 . S
N53 C58 1.318 . S
C54 N53 1.328 . S
C54 C55 1.457 . S
C54 H59 0.929 . S
C55 C54 1.457 . S
C55 C56 1.291 1_565 S
C55 H68 0.931 . S
C56 C55 1.291 1_545 S
C56 C57 1.373 1_545 S
C56 H69 0.929 . S
C57 C56 1.373 1_565 S
C57 C58 1.396 . S
C57 C64 1.403 1_565 S
C58 C48 1.476 . S
C58 N53 1.318 . S
C58 C57 1.396 . S
H59 C54 0.929 . S
O60 Mn36 2.385 1_655 S
O60 C38 1.234 1_655 S
O61 Mn36 2.209 . S
O61 Mn37 2.215 . S
O61 C38 1.283 . S
O62 Mn36 2.094 1_655 S
O62 C40 1.240 1_655 S
O63 Mn37 2.117 . S
O63 C40 1.264 . S
C64 C57 1.403 1_545 S
C64 C65 1.399 . S
C64 H70 0.929 . S
C65 C45 1.449 1_545 S
C65 C64 1.399 . S
C65 H71 0.930 . S
H66 C46 0.931 . S
H67 C47 0.930 . S
H68 C55 0.931 . S
H69 C56 0.929 . S
H70 C64 0.929 . S
H71 C65 0.930 . S
Mn72 O77 2.095 . S
Mn72 O87 2.162 . S
Mn72 O88 2.297 . S
Mn72 O96 2.385 . S
Mn72 O97 2.209 . S
Mn72 O98 2.094 . S
Mn73 O78 2.121 . S
Mn73 N80 2.257 . S
Mn73 N89 2.282 . S
Mn73 O97 2.215 . S
Mn73 O99 2.117 . S
C74 O96 1.234 . S
C74 O97 1.283 . S
C75 O87 1.281 . S
C75 O88 1.236 . S
C76 O98 1.240 . S
C76 O99 1.264 . S
O77 Mn72 2.095 . S
O77 C86 1.250 . S
O78 Mn73 2.121 . S
O78 C86 1.258 . S
C79 N80 1.326 . S
C79 C83 1.460 . S
C79 H85 0.929 . S
N80 Mn73 2.257 . S
N80 C79 1.326 . S
N80 C84 1.362 . S
C81 C82 1.258 . S
C81 C84 1.431 . S
C81 C101 1.449 . S
C82 C81 1.258 . S
C82 C83 1.477 . S
C82 H102 0.931 . S
C83 C79 1.460 . S
C83 C82 1.477 . S
C83 H103 0.930 . S
C84 N80 1.362 . S
C84 C81 1.431 . S
C84 C94 1.476 . S
H85 C79 0.929 . S
C86 O77 1.250 . S
C86 O78 1.258 . S
O87 Mn72 2.162 . S
O87 C75 1.281 . S
O88 Mn72 2.297 . S
O88 C75 1.236 . S
N89 Mn73 2.282 . S
N89 C90 1.328 . S
N89 C94 1.318 . S
C90 N89 1.328 . S
C90 C91 1.457 . S
C90 H95 0.929 . S
C91 C90 1.457 . S
C91 C92 1.291 . S
C91 H104 0.931 . S
C92 C91 1.291 . S
C92 C93 1.373 . S
C92 H105 0.929 . S
C93 C92 1.373 . S
C93 C94 1.396 . S
C93 C100 1.403 . S
C94 C84 1.476 . S
C94 N89 1.318 . S
C94 C93 1.396 . S
H95 C90 0.929 . S
O96 Mn72 2.385 . S
O96 C74 1.234 . S
O97 Mn72 2.209 . S
O97 Mn73 2.215 . S
O97 C74 1.283 . S
O98 Mn72 2.094 . S
O98 C76 1.240 . S
O99 Mn73 2.117 . S
O99 C76 1.264 . S
C100 C93 1.403 . S
C100 C101 1.399 . S
C100 H106 0.929 1_545 S
C101 C81 1.449 . S
C101 C100 1.399 . S
C101 H107 0.930 . S
H102 C82 0.931 . S
H103 C83 0.930 . S
H104 C91 0.931 . S
H105 C92 0.929 . S
H106 C100 0.929 1_565 S
H107 C101 0.930 . S
Mn108 O113 2.095 1_545 S
Mn108 O123 2.162 . S
Mn108 O124 2.297 . S
Mn108 O132 2.385 . S
Mn108 O133 2.209 1_545 S
Mn108 O134 2.094 . S
Mn109 O114 2.121 . S
Mn109 N116 2.257 . S
Mn109 N125 2.282 . S
Mn109 O133 2.215 . S
Mn109 O135 2.117 . S
C110 O132 1.234 . S
C110 O133 1.283 1_545 S
C111 O123 1.281 . S
C111 O124 1.236 . S
C112 O134 1.240 . S
C112 O135 1.264 1_545 S
O113 Mn108 2.095 1_565 S
O113 C122 1.250 . S
O114 Mn109 2.121 . S
O114 C122 1.258 . S
C115 N116 1.326 . S
C115 C119 1.460 . S
C115 H121 0.929 . S
N116 Mn109 2.257 . S
N116 C115 1.326 . S
N116 C120 1.362 . S
C117 C118 1.258 . S
C117 C120 1.431 . S
C117 C137 1.449 . S
C118 C117 1.258 . S
C118 C119 1.477 . S
C118 H138 0.931 . S
C119 C115 1.460 . S
C119 C118 1.477 . S
C119 H139 0.930 . S
C120 N116 1.362 . S
C120 C117 1.431 . S
C120 C130 1.476 . S
H121 C115 0.929 . S
C122 O113 1.250 . S
C122 O114 1.258 . S
O123 Mn108 2.162 . S
O123 C111 1.281 . S
O124 Mn108 2.297 . S
O124 C111 1.236 . S
N125 Mn109 2.282 . S
N125 C126 1.328 . S
N125 C130 1.318 . S
C126 N125 1.328 . S
C126 C127 1.457 . S
C126 H131 0.929 . S
C127 C126 1.457 . S
C127 C128 1.291 . S
C127 H140 0.931 . S
C128 C127 1.291 . S
C128 C129 1.373 . S
C128 H141 0.929 . S
C129 C128 1.373 . S
C129 C130 1.396 . S
C129 C136 1.403 . S
C130 C120 1.476 . S
C130 N125 1.318 . S
C130 C129 1.396 . S
H131 C126 0.929 . S
O132 Mn108 2.385 . S
O132 C110 1.234 . S
O133 Mn108 2.209 1_565 S
O133 Mn109 2.215 . S
O133 C110 1.283 1_565 S
O134 Mn108 2.094 . S
O134 C112 1.240 . S
O135 Mn109 2.117 . S
O135 C112 1.264 1_565 S
C136 C129 1.403 . S
C136 C137 1.399 . S
C136 H142 0.929 1_455 S
C137 C117 1.449 . S
C137 C136 1.399 . S
C137 H143 0.930 . S
H138 C118 0.931 . S
H139 C119 0.930 . S
H140 C127 0.931 . S
H141 C128 0.929 . S
H142 C136 0.929 1_655 S
H143 C137 0.930 . S
Mn144 O149 2.094 1_655 S
Mn144 O159 2.165 . S
Mn144 O160 2.298 . S
Mn144 O168 2.385 . S
Mn144 O169 2.206 1_655 S
Mn144 O170 2.094 . S
Mn145 O150 2.121 . S
Mn145 N152 2.257 . S
Mn145 N161 2.282 . S
Mn145 O169 2.215 . S
Mn145 O171 2.117 . S
C146 O168 1.234 1_455 S
C146 O169 1.283 . S
C147 O159 1.281 . S
C147 O160 1.236 . S
C148 O170 1.240 1_455 S
C148 O171 1.264 . S
O149 Mn144 2.094 1_455 S
O149 C158 1.250 . S
O150 Mn145 2.121 . S
O150 C158 1.258 . S
C151 N152 1.326 . S
C151 C155 1.460 . S
C151 H157 0.929 . S
N152 Mn145 2.257 . S
N152 C151 1.326 . S
N152 C156 1.362 . S
C153 C154 1.258 . S
C153 C156 1.431 . S
C153 C173 1.449 . S
C154 C153 1.258 . S
C154 C155 1.477 . S
C154 H174 0.931 . S
C155 C151 1.460 . S
C155 C154 1.477 . S
C155 H175 0.930 . S
C156 N152 1.362 . S
C156 C153 1.431 . S
C156 C166 1.476 . S
H157 C151 0.929 . S
C158 O149 1.250 . S
C158 O150 1.258 . S
O159 Mn144 2.165 . S
O159 C147 1.281 . S
O160 Mn144 2.298 . S
O160 C147 1.236 . S
N161 Mn145 2.282 . S
N161 C162 1.328 . S
N161 C166 1.318 . S
C162 N161 1.328 . S
C162 C163 1.457 . S
C162 H167 0.929 . S
C163 C162 1.457 . S
C163 C164 1.291 . S
C163 H176 0.931 . S
C164 C163 1.291 . S
C164 C165 1.373 . S
C164 H177 0.929 . S
C165 C164 1.373 . S
C165 C166 1.396 . S
C165 C172 1.403 . S
C166 C156 1.476 . S
C166 N161 1.318 . S
C166 C165 1.396 . S
H167 C162 0.929 . S
O168 Mn144 2.385 . S
O168 C146 1.234 1_655 S
O169 Mn144 2.206 1_455 S
O169 Mn145 2.215 . S
O169 C146 1.283 . S
O170 Mn144 2.094 . S
O170 C148 1.240 1_655 S
O171 Mn145 2.117 . S
O171 C148 1.264 . S
C172 C165 1.403 . S
C172 C173 1.399 . S
C172 H178 0.929 . S
C173 C153 1.449 . S
C173 C172 1.399 . S
C173 H179 0.930 . S
H174 C154 0.931 . S
H175 C155 0.930 . S
H176 C163 0.931 . S
H177 C164 0.929 . S
H178 C172 0.929 . S
H179 C173 0.930 . S
Mn180 O185 2.095 . S
Mn180 O195 2.162 . S
Mn180 O196 2.297 . S
Mn180 O204 2.385 . S
Mn180 O205 2.209 . S
Mn180 O206 2.094 . S
Mn181 O186 2.121 . S
Mn181 N188 2.257 . S
Mn181 N197 2.282 . S
Mn181 O205 2.215 . S
Mn181 O207 2.117 . S
C182 O204 1.234 . S
C182 O205 1.283 . S
C183 O195 1.281 . S
C183 O196 1.236 . S
C184 O206 1.240 . S
C184 O207 1.264 . S
O185 Mn180 2.095 . S
O185 C194 1.250 . S
O186 Mn181 2.121 . S
O186 C194 1.258 . S
C187 N188 1.326 . S
C187 C191 1.460 . S
C187 H193 0.929 . S
N188 Mn181 2.257 . S
N188 C187 1.326 . S
N188 C192 1.362 . S
C189 C190 1.258 . S
C189 C192 1.431 . S
C189 C209 1.449 1_655 S
C190 C189 1.258 . S
C190 C191 1.477 . S
C190 H210 0.931 . S
C191 C187 1.460 . S
C191 C190 1.477 . S
C191 H211 0.930 . S
C192 N188 1.362 . S
C192 C189 1.431 . S
C192 C202 1.476 . S
H193 C187 0.929 . S
C194 O185 1.250 . S
C194 O186 1.258 . S
O195 Mn180 2.162 . S
O195 C183 1.281 . S
O196 Mn180 2.297 . S
O196 C183 1.236 . S
N197 Mn181 2.282 . S
N197 C198 1.328 . S
N197 C202 1.318 . S
C198 N197 1.328 . S
C198 C199 1.457 . S
C198 H203 0.929 . S
C199 C198 1.457 . S
C199 C200 1.291 1_655 S
C199 H212 0.931 . S
C200 C199 1.291 1_455 S
C200 C201 1.373 1_455 S
C200 H213 0.929 . S
C201 C200 1.373 1_655 S
C201 C202 1.396 . S
C201 C208 1.403 1_655 S
C202 C192 1.476 . S
C202 N197 1.318 . S
C202 C201 1.396 . S
H203 C198 0.929 . S
O204 Mn180 2.385 . S
O204 C182 1.234 . S
O205 Mn180 2.209 . S
O205 Mn181 2.215 . S
O205 C182 1.283 . S
O206 Mn180 2.094 . S
O206 C184 1.240 . S
O207 Mn181 2.117 . S
O207 C184 1.264 . S
C208 C201 1.403 1_455 S
C208 C209 1.399 . S
C208 H214 0.929 . S
C209 C189 1.449 1_455 S
C209 C208 1.399 . S
C209 H215 0.930 . S
H210 C190 0.931 . S
H211 C191 0.930 . S
H212 C199 0.931 . S
H213 C200 0.929 . S
H214 C208 0.929 . S
H215 C209 0.930 . S
Mn216 O221 2.095 . S
Mn216 O231 2.162 . S
Mn216 O232 2.297 . S
Mn216 O240 2.385 . S
Mn216 O241 2.209 . S
Mn216 O242 2.094 . S
Mn217 O222 2.121 . S
Mn217 N224 2.257 . S
Mn217 N233 2.282 . S
Mn217 O241 2.215 . S
Mn217 O243 2.117 . S
C218 O240 1.234 . S
C218 O241 1.283 . S
C219 O231 1.281 . S
C219 O232 1.236 . S
C220 O242 1.240 . S
C220 O243 1.264 . S
O221 Mn216 2.095 . S
O221 C230 1.250 . S
O222 Mn217 2.121 . S
O222 C230 1.258 . S
C223 N224 1.326 . S
C223 C227 1.460 . S
C223 H229 0.929 . S
N224 Mn217 2.257 . S
N224 C223 1.326 . S
N224 C228 1.362 . S
C225 C226 1.258 . S
C225 C228 1.431 . S
C225 C245 1.449 . S
C226 C225 1.258 . S
C226 C227 1.477 . S
C226 H246 0.931 . S
C227 C223 1.460 . S
C227 C226 1.477 . S
C227 H247 0.930 . S
C228 N224 1.362 . S
C228 C225 1.431 . S
C228 C238 1.476 . S
H229 C223 0.929 . S
C230 O221 1.250 . S
C230 O222 1.258 . S
O231 Mn216 2.162 . S
O231 C219 1.281 . S
O232 Mn216 2.297 . S
O232 C219 1.236 . S
N233 Mn217 2.282 . S
N233 C234 1.328 . S
N233 C238 1.318 . S
C234 N233 1.328 . S
C234 C235 1.457 . S
C234 H239 0.929 . S
C235 C234 1.457 . S
C235 C236 1.291 . S
C235 H248 0.931 . S
C236 C235 1.291 . S
C236 C237 1.373 . S
C236 H249 0.929 . S
C237 C236 1.373 . S
C237 C238 1.396 . S
C237 C244 1.403 . S
C238 C228 1.476 . S
C238 N233 1.318 . S
C238 C237 1.396 . S
H239 C234 0.929 . S
O240 Mn216 2.385 . S
O240 C218 1.234 . S
O241 Mn216 2.209 . S
O241 Mn217 2.215 . S
O241 C218 1.283 . S
O242 Mn216 2.094 . S
O242 C220 1.240 . S
O243 Mn217 2.117 . S
O243 C220 1.264 . S
C244 C237 1.403 . S
C244 C245 1.399 . S
C244 H250 0.929 . S
C245 C225 1.449 . S
C245 C244 1.399 . S
C245 H251 0.930 . S
H246 C226 0.931 . S
H247 C227 0.930 . S
H248 C235 0.931 . S
H249 C236 0.929 . S
H250 C244 0.929 . S
H251 C245 0.930 . S
Mn252 O257 2.095 . S
Mn252 O267 2.162 1_545 S
Mn252 O268 2.297 1_545 S
Mn252 O276 2.385 . S
Mn252 O277 2.209 . S
Mn252 O278 2.094 . S
Mn253 O258 2.121 . S
Mn253 N260 2.257 . S
Mn253 N269 2.282 . S
Mn253 O277 2.215 . S
Mn253 O279 2.117 . S
C254 O276 1.234 . S
C254 O277 1.283 . S
C255 O267 1.281 . S
C255 O268 1.236 . S
C256 O278 1.240 . S
C256 O279 1.264 . S
O257 Mn252 2.095 . S
O257 C266 1.250 . S
O258 Mn253 2.121 . S
O258 C266 1.258 . S
C259 N260 1.326 . S
C259 C263 1.460 . S
C259 H265 0.929 . S
N260 Mn253 2.257 . S
N260 C259 1.326 . S
N260 C264 1.362 . S
C261 C262 1.258 . S
C261 C264 1.431 . S
C261 C281 1.449 . S
C262 C261 1.258 . S
C262 C263 1.477 . S
C262 H282 0.931 . S
C263 C259 1.460 . S
C263 C262 1.477 . S
C263 H283 0.930 . S
C264 N260 1.362 . S
C264 C261 1.431 . S
C264 C274 1.476 . S
H265 C259 0.929 . S
C266 O257 1.250 . S
C266 O258 1.258 . S
O267 Mn252 2.162 1_565 S
O267 C255 1.281 . S
O268 Mn252 2.297 1_565 S
O268 C255 1.236 . S
N269 Mn253 2.282 . S
N269 C270 1.328 . S
N269 C274 1.318 . S
C270 N269 1.328 . S
C270 C271 1.457 . S
C270 H275 0.929 . S
C271 C270 1.457 . S
C271 C272 1.291 . S
C271 H284 0.931 . S
C272 C271 1.291 . S
C272 C273 1.373 . S
C272 H285 0.929 . S
C273 C272 1.373 . S
C273 C274 1.396 . S
C273 C280 1.403 . S
C274 C264 1.476 . S
C274 N269 1.318 . S
C274 C273 1.396 . S
H275 C270 0.929 . S
O276 Mn252 2.385 . S
O276 C254 1.234 . S
O277 Mn252 2.209 . S
O277 Mn253 2.215 . S
O277 C254 1.283 . S
O278 Mn252 2.094 . S
O278 C256 1.240 . S
O279 Mn253 2.117 . S
O279 C256 1.264 . S
C280 C273 1.403 . S
C280 C281 1.399 . S
C280 H286 0.929 . S
C281 C261 1.449 . S
C281 C280 1.399 . S
C281 H287 0.930 . S
H282 C262 0.931 . S
H283 C263 0.930 . S
H284 C271 0.931 . S
H285 C272 0.929 . S
H286 C280 0.929 . S
H287 C281 0.930 . S
Mn288 O293 2.095 1_655 S
Mn288 O303 2.162 . S
Mn288 O304 2.297 1_655 S
Mn288 O312 2.385 . S
Mn288 O313 2.209 . S
Mn288 O314 2.094 . S
Mn289 O294 2.121 1_655 S
Mn289 N296 2.257 . S
Mn289 N305 2.282 . S
Mn289 O313 2.215 . S
Mn289 O315 2.117 . S
C290 O312 1.234 . S
C290 O313 1.283 . S
C291 O303 1.281 . S
C291 O304 1.236 1_655 S
C292 O314 1.240 . S
C292 O315 1.264 . S
O293 Mn288 2.095 1_455 S
O293 C302 1.250 . S
O294 Mn289 2.121 1_455 S
O294 C302 1.258 . S
C295 N296 1.326 1_455 S
C295 C299 1.460 . S
C295 H301 0.929 . S
N296 Mn289 2.257 . S
N296 C295 1.326 1_655 S
N296 C300 1.362 . S
C297 C298 1.258 1_655 S
C297 C300 1.431 . S
C297 C317 1.449 . S
C298 C297 1.258 1_455 S
C298 C299 1.477 . S
C298 H318 0.931 . S
C299 C295 1.460 . S
C299 C298 1.477 . S
C299 H319 0.930 . S
C300 N296 1.362 . S
C300 C297 1.431 . S
C300 C310 1.476 . S
H301 C295 0.929 . S
C302 O293 1.250 . S
C302 O294 1.258 . S
O303 Mn288 2.162 . S
O303 C291 1.281 . S
O304 Mn288 2.297 1_455 S
O304 C291 1.236 1_455 S
N305 Mn289 2.282 . S
N305 C306 1.328 . S
N305 C310 1.318 . S
C306 N305 1.328 . S
C306 C307 1.457 . S
C306 H311 0.929 . S
C307 C306 1.457 . S
C307 C308 1.291 . S
C307 H320 0.931 . S
C308 C307 1.291 . S
C308 C309 1.373 . S
C308 H321 0.929 . S
C309 C308 1.373 . S
C309 C310 1.396 . S
C309 C316 1.403 . S
C310 C300 1.476 . S
C310 N305 1.318 . S
C310 C309 1.396 . S
H311 C306 0.929 . S
O312 Mn288 2.385 . S
O312 C290 1.234 . S
O313 Mn288 2.209 . S
O313 Mn289 2.215 . S
O313 C290 1.283 . S
O314 Mn288 2.094 . S
O314 C292 1.240 . S
O315 Mn289 2.117 . S
O315 C292 1.264 . S
C316 C309 1.403 . S
C316 C317 1.399 . S
C316 H322 0.929 . S
C317 C297 1.449 . S
C317 C316 1.399 . S
C317 H323 0.930 . S
H318 C298 0.931 . S
H319 C299 0.930 . S
H320 C307 0.931 . S
H321 C308 0.929 . S
H322 C316 0.929 . S
H323 C317 0.930 . S
Mn324 O329 2.095 . S
Mn324 O339 2.162 1_655 S
Mn324 O340 2.297 1_655 S
Mn324 O348 2.385 . S
Mn324 O349 2.209 . S
Mn324 O350 2.094 . S
Mn325 O330 2.121 . S
Mn325 N332 2.257 . S
Mn325 N341 2.282 . S
Mn325 O349 2.215 . S
Mn325 O351 2.117 . S
C326 O348 1.234 . S
C326 O349 1.283 . S
C327 O339 1.281 . S
C327 O340 1.236 . S
C328 O350 1.240 . S
C328 O351 1.264 . S
O329 Mn324 2.095 . S
O329 C338 1.250 . S
O330 Mn325 2.121 . S
O330 C338 1.258 . S
C331 N332 1.326 . S
C331 C335 1.460 . S
C331 H337 0.929 . S
N332 Mn325 2.257 . S
N332 C331 1.326 . S
N332 C336 1.362 . S
C333 C334 1.258 . S
C333 C336 1.431 . S
C333 C353 1.449 . S
C334 C333 1.258 . S
C334 C335 1.477 . S
C334 H354 0.931 . S
C335 C331 1.460 . S
C335 C334 1.477 . S
C335 H355 0.930 . S
C336 N332 1.362 . S
C336 C333 1.431 . S
C336 C346 1.476 . S
H337 C331 0.929 . S
C338 O329 1.250 . S
C338 O330 1.258 . S
O339 Mn324 2.162 1_455 S
O339 C327 1.281 . S
O340 Mn324 2.297 1_455 S
O340 C327 1.236 . S
N341 Mn325 2.282 . S
N341 C342 1.328 . S
N341 C346 1.318 . S
C342 N341 1.328 . S
C342 C343 1.457 . S
C342 H347 0.929 . S
C343 C342 1.457 . S
C343 C344 1.291 . S
C343 H356 0.931 . S
C344 C343 1.291 . S
C344 C345 1.373 . S
C344 H357 0.929 . S
C345 C344 1.373 . S
C345 C346 1.396 . S
C345 C352 1.403 . S
C346 C336 1.476 . S
C346 N341 1.318 . S
C346 C345 1.396 . S
H347 C342 0.929 . S
O348 Mn324 2.385 . S
O348 C326 1.234 . S
O349 Mn324 2.209 . S
O349 Mn325 2.215 . S
O349 C326 1.283 . S
O350 Mn324 2.094 . S
O350 C328 1.240 . S
O351 Mn325 2.117 . S
O351 C328 1.264 . S
C352 C345 1.403 . S
C352 C353 1.399 . S
C352 H358 0.929 . S
C353 C333 1.449 . S
C353 C352 1.399 . S
C353 H359 0.930 . S
H354 C334 0.931 . S
H355 C335 0.930 . S
H356 C343 0.931 . S
H357 C344 0.929 . S
H358 C352 0.929 . S
H359 C353 0.930 . S
Mn360 O365 2.095 . S
Mn360 O375 2.162 . S
Mn360 O376 2.297 . S
Mn360 O384 2.385 . S
Mn360 O385 2.209 . S
Mn360 O386 2.094 . S
Mn361 O366 2.121 . S
Mn361 N368 2.257 . S
Mn361 N377 2.282 . S
Mn361 O385 2.215 . S
Mn361 O387 2.117 . S
C362 O384 1.234 . S
C362 O385 1.283 . S
C363 O375 1.281 . S
C363 O376 1.236 . S
C364 O386 1.240 . S
C364 O387 1.264 . S
O365 Mn360 2.095 . S
O365 C374 1.250 . S
O366 Mn361 2.121 . S
O366 C374 1.258 . S
C367 N368 1.326 . S
C367 C371 1.460 . S
C367 H373 0.929 . S
N368 Mn361 2.257 . S
N368 C367 1.326 . S
N368 C372 1.362 . S
C369 C370 1.258 . S
C369 C372 1.431 . S
C369 C389 1.449 . S
C370 C369 1.258 . S
C370 C371 1.477 . S
C370 H390 0.931 . S
C371 C367 1.460 . S
C371 C370 1.477 . S
C371 H391 0.930 . S
C372 N368 1.362 . S
C372 C369 1.431 . S
C372 C382 1.476 . S
H373 C367 0.929 . S
C374 O365 1.250 . S
C374 O366 1.258 . S
O375 Mn360 2.162 . S
O375 C363 1.281 . S
O376 Mn360 2.297 . S
O376 C363 1.236 . S
N377 Mn361 2.282 . S
N377 C378 1.328 . S
N377 C382 1.318 . S
C378 N377 1.328 . S
C378 C379 1.457 . S
C378 H383 0.929 . S
C379 C378 1.457 . S
C379 C380 1.291 . S
C379 H392 0.931 . S
C380 C379 1.291 . S
C380 C381 1.373 . S
C380 H393 0.929 . S
C381 C380 1.373 . S
C381 C382 1.396 . S
C381 C388 1.403 . S
C382 C372 1.476 . S
C382 N377 1.318 . S
C382 C381 1.396 . S
H383 C378 0.929 . S
O384 Mn360 2.385 . S
O384 C362 1.234 . S
O385 Mn360 2.209 . S
O385 Mn361 2.215 . S
O385 C362 1.283 . S
O386 Mn360 2.094 . S
O386 C364 1.240 . S
O387 Mn361 2.117 . S
O387 C364 1.264 . S
C388 C381 1.403 . S
C388 C389 1.399 . S
C388 H394 0.929 . S
C389 C369 1.449 . S
C389 C388 1.399 . S
C389 H395 0.930 . S
H390 C370 0.931 . S
H391 C371 0.930 . S
H392 C379 0.931 . S
H393 C380 0.929 . S
H394 C388 0.929 . S
H395 C389 0.930 . S
Mn396 O401 2.095 . S
Mn396 O411 2.162 . S
Mn396 O412 2.297 . S
Mn396 O420 2.385 . S
Mn396 O421 2.209 . S
Mn396 O422 2.094 . S
Mn397 O402 2.121 1_545 S
Mn397 N404 2.257 . S
Mn397 N413 2.282 . S
Mn397 O421 2.215 . S
Mn397 O423 2.117 . S
C398 O420 1.234 . S
C398 O421 1.283 . S
C399 O411 1.281 . S
C399 O412 1.236 . S
C400 O422 1.240 . S
C400 O423 1.264 . S
O401 Mn396 2.095 . S
O401 C410 1.250 1_545 S
O402 Mn397 2.121 1_565 S
O402 C410 1.258 . S
C403 N404 1.326 1_565 S
C403 C407 1.460 . S
C403 H409 0.929 . S
N404 Mn397 2.257 . S
N404 C403 1.326 1_545 S
N404 C408 1.362 . S
C405 C406 1.258 . S
C405 C408 1.431 . S
C405 C425 1.449 . S
C406 C405 1.258 . S
C406 C407 1.477 1_545 S
C406 H426 0.931 . S
C407 C403 1.460 . S
C407 C406 1.477 1_565 S
C407 H427 0.930 . S
C408 N404 1.362 . S
C408 C405 1.431 . S
C408 C418 1.476 . S
H409 C403 0.929 . S
C410 O401 1.250 1_565 S
C410 O402 1.258 . S
O411 Mn396 2.162 . S
O411 C399 1.281 . S
O412 Mn396 2.297 . S
O412 C399 1.236 . S
N413 Mn397 2.282 . S
N413 C414 1.328 . S
N413 C418 1.318 . S
C414 N413 1.328 . S
C414 C415 1.457 . S
C414 H419 0.929 . S
C415 C414 1.457 . S
C415 C416 1.291 . S
C415 H428 0.931 . S
C416 C415 1.291 . S
C416 C417 1.373 . S
C416 H429 0.929 . S
C417 C416 1.373 . S
C417 C418 1.396 . S
C417 C424 1.403 . S
C418 C408 1.476 . S
C418 N413 1.318 . S
C418 C417 1.396 . S
H419 C414 0.929 . S
O420 Mn396 2.385 . S
O420 C398 1.234 . S
O421 Mn396 2.209 . S
O421 Mn397 2.215 . S
O421 C398 1.283 . S
O422 Mn396 2.094 . S
O422 C400 1.240 . S
O423 Mn397 2.117 . S
O423 C400 1.264 . S
C424 C417 1.403 . S
C424 C425 1.399 . S
C424 H430 0.929 . S
C425 C405 1.449 . S
C425 C424 1.399 . S
C425 H431 0.930 . S
H426 C406 0.931 . S
H427 C407 0.930 . S
H428 C415 0.931 . S
H429 C416 0.929 . S
H430 C424 0.929 . S
H431 C425 0.930 . S
Mn432 O437 2.095 . S
Mn432 O447 2.162 1_455 S
Mn432 O448 2.303 . S
Mn432 O456 2.385 . S
Mn432 O457 2.209 . S
Mn432 O458 2.094 . S
Mn433 O438 2.121 . S
Mn433 N440 2.257 . S
Mn433 N449 2.282 . S
Mn433 O457 2.215 . S
Mn433 O459 2.117 . S
C434 O456 1.234 . S
C434 O457 1.283 . S
C435 O447 1.281 . S
C435 O448 1.234 1_655 S
C436 O458 1.240 . S
C436 O459 1.264 . S
O437 Mn432 2.095 . S
O437 C446 1.250 . S
O438 Mn433 2.121 . S
O438 C446 1.258 . S
C439 N440 1.326 . S
C439 C443 1.460 . S
C439 H445 0.929 . S
N440 Mn433 2.257 . S
N440 C439 1.326 . S
N440 C444 1.362 . S
C441 C442 1.258 . S
C441 C444 1.431 . S
C441 C461 1.449 . S
C442 C441 1.258 . S
C442 C443 1.477 . S
C442 H462 0.931 . S
C443 C439 1.460 . S
C443 C442 1.477 . S
C443 H463 0.930 . S
C444 N440 1.362 . S
C444 C441 1.431 . S
C444 C454 1.476 . S
H445 C439 0.929 . S
C446 O437 1.250 . S
C446 O438 1.258 . S
O447 Mn432 2.162 1_655 S
O447 C435 1.281 . S
O448 Mn432 2.303 . S
O448 C435 1.234 1_455 S
N449 Mn433 2.282 . S
N449 C450 1.328 . S
N449 C454 1.318 . S
C450 N449 1.328 . S
C450 C451 1.457 . S
C450 H455 0.929 . S
C451 C450 1.457 . S
C451 C452 1.291 . S
C451 H464 0.931 . S
C452 C451 1.291 . S
C452 C453 1.373 . S
C452 H465 0.929 . S
C453 C452 1.373 . S
C453 C454 1.396 . S
C453 C460 1.403 . S
C454 C444 1.476 . S
C454 N449 1.318 . S
C454 C453 1.396 . S
H455 C450 0.929 . S
O456 Mn432 2.385 . S
O456 C434 1.234 . S
O457 Mn432 2.209 . S
O457 Mn433 2.215 . S
O457 C434 1.283 . S
O458 Mn432 2.094 . S
O458 C436 1.240 . S
O459 Mn433 2.117 . S
O459 C436 1.264 . S
C460 C453 1.403 . S
C460 C461 1.399 . S
C460 H466 0.929 . S
C461 C441 1.449 . S
C461 C460 1.399 . S
C461 H467 0.930 . S
H462 C442 0.931 . S
H463 C443 0.930 . S
H464 C451 0.931 . S
H465 C452 0.929 . S
H466 C460 0.929 . S
H467 C461 0.930 . S
Mn468 O473 2.095 . S
Mn468 O483 2.162 . S
Mn468 O484 2.297 . S
Mn468 O492 2.385 . S
Mn468 O493 2.209 . S
Mn468 O494 2.094 . S
Mn469 O474 2.121 . S
Mn469 N476 2.257 . S
Mn469 N485 2.282 . S
Mn469 O493 2.215 . S
Mn469 O495 2.117 . S
C470 O492 1.234 . S
C470 O493 1.283 . S
C471 O483 1.281 . S
C471 O484 1.236 . S
C472 O494 1.240 . S
C472 O495 1.264 . S
O473 Mn468 2.095 . S
O473 C482 1.250 . S
O474 Mn469 2.121 . S
O474 C482 1.258 . S
C475 N476 1.326 . S
C475 C479 1.460 . S
C475 H481 0.929 . S
N476 Mn469 2.257 . S
N476 C475 1.326 . S
N476 C480 1.362 . S
C477 C478 1.258 . S
C477 C480 1.431 . S
C477 C497 1.449 . S
C478 C477 1.258 . S
C478 C479 1.477 . S
C478 H498 0.931 . S
C479 C475 1.460 . S
C479 C478 1.477 . S
C479 H499 0.930 . S
C480 N476 1.362 . S
C480 C477 1.431 . S
C480 C490 1.476 . S
H481 C475 0.929 . S
C482 O473 1.250 . S
C482 O474 1.258 . S
O483 Mn468 2.162 . S
O483 C471 1.281 . S
O484 Mn468 2.297 . S
O484 C471 1.236 . S
N485 Mn469 2.282 . S
N485 C486 1.328 . S
N485 C490 1.318 . S
C486 N485 1.328 . S
C486 C487 1.457 . S
C486 H491 0.929 . S
C487 C486 1.457 . S
C487 C488 1.291 . S
C487 H500 0.931 . S
C488 C487 1.291 . S
C488 C489 1.373 . S
C488 H501 0.929 . S
C489 C488 1.373 . S
C489 C490 1.396 . S
C489 C496 1.403 . S
C490 C480 1.476 . S
C490 N485 1.318 . S
C490 C489 1.396 . S
H491 C486 0.929 . S
O492 Mn468 2.385 . S
O492 C470 1.234 . S
O493 Mn468 2.209 . S
O493 Mn469 2.215 . S
O493 C470 1.283 . S
O494 Mn468 2.094 . S
O494 C472 1.240 . S
O495 Mn469 2.117 . S
O495 C472 1.264 . S
C496 C489 1.403 . S
C496 C497 1.399 . S
C496 H502 0.929 . S
C497 C477 1.449 . S
C497 C496 1.399 . S
C497 H503 0.930 . S
H498 C478 0.931 . S
H499 C479 0.930 . S
H500 C487 0.931 . S
H501 C488 0.929 . S
H502 C496 0.929 . S
H503 C497 0.930 . S
Mn504 O509 2.095 . S
Mn504 O519 2.162 1_565 S
Mn504 O520 2.297 1_565 S
Mn504 O528 2.385 . S
Mn504 O529 2.209 . S
Mn504 O530 2.094 . S
Mn505 O510 2.121 . S
Mn505 N512 2.257 . S
Mn505 N521 2.282 . S
Mn505 O529 2.215 . S
Mn505 O531 2.117 . S
C506 O528 1.234 . S
C506 O529 1.283 . S
C507 O519 1.281 . S
C507 O520 1.236 . S
C508 O530 1.240 . S
C508 O531 1.264 . S
O509 Mn504 2.095 . S
O509 C518 1.250 . S
O510 Mn505 2.121 . S
O510 C518 1.258 . S
C511 N512 1.326 . S
C511 C515 1.460 . S
C511 H517 0.929 . S
N512 Mn505 2.257 . S
N512 C511 1.326 . S
N512 C516 1.362 . S
C513 C514 1.258 . S
C513 C516 1.431 . S
C513 C533 1.449 . S
C514 C513 1.258 . S
C514 C515 1.477 . S
C514 H534 0.931 . S
C515 C511 1.460 . S
C515 C514 1.477 . S
C515 H535 0.930 . S
C516 N512 1.362 . S
C516 C513 1.431 . S
C516 C526 1.476 . S
H517 C511 0.929 . S
C518 O509 1.250 . S
C518 O510 1.258 . S
O519 Mn504 2.162 1_545 S
O519 C507 1.281 . S
O520 Mn504 2.297 1_545 S
O520 C507 1.236 . S
N521 Mn505 2.282 . S
N521 C522 1.328 . S
N521 C526 1.318 . S
C522 N521 1.328 . S
C522 C523 1.457 . S
C522 H527 0.929 . S
C523 C522 1.457 . S
C523 C524 1.291 . S
C523 H536 0.931 . S
C524 C523 1.291 . S
C524 C525 1.373 . S
C524 H537 0.929 . S
C525 C524 1.373 . S
C525 C526 1.396 . S
C525 C532 1.403 . S
C526 C516 1.476 . S
C526 N521 1.318 . S
C526 C525 1.396 . S
H527 C522 0.929 . S
O528 Mn504 2.385 . S
O528 C506 1.234 . S
O529 Mn504 2.209 . S
O529 Mn505 2.215 . S
O529 C506 1.283 . S
O530 Mn504 2.094 . S
O530 C508 1.240 . S
O531 Mn505 2.117 . S
O531 C508 1.264 . S
C532 C525 1.403 . S
C532 C533 1.399 . S
C532 H538 0.929 . S
C533 C513 1.449 . S
C533 C532 1.399 . S
C533 H539 0.930 . S
H534 C514 0.931 . S
H535 C515 0.930 . S
H536 C523 0.931 . S
H537 C524 0.929 . S
H538 C532 0.929 . S
H539 C533 0.930 . S
Mn540 O545 2.095 . S
Mn540 O555 2.162 . S
Mn540 O556 2.297 . S
Mn540 O564 2.385 . S
Mn540 O565 2.209 . S
Mn540 O566 2.094 . S
Mn541 O546 2.121 . S
Mn541 N548 2.257 . S
Mn541 N557 2.282 . S
Mn541 O565 2.215 . S
Mn541 O567 2.117 . S
C542 O564 1.234 . S
C542 O565 1.283 . S
C543 O555 1.281 . S
C543 O556 1.236 . S
C544 O566 1.240 . S
C544 O567 1.264 . S
O545 Mn540 2.095 . S
O545 C554 1.250 . S
O546 Mn541 2.121 . S
O546 C554 1.258 . S
C547 N548 1.326 . S
C547 C551 1.460 . S
C547 H553 0.929 . S
N548 Mn541 2.257 . S
N548 C547 1.326 . S
N548 C552 1.362 . S
C549 C550 1.258 . S
C549 C552 1.431 . S
C549 C569 1.449 . S
C550 C549 1.258 . S
C550 C551 1.477 . S
C550 H570 0.931 . S
C551 C547 1.460 . S
C551 C550 1.477 . S
C551 H571 0.930 . S
C552 N548 1.362 . S
C552 C549 1.431 . S
C552 C562 1.476 . S
H553 C547 0.929 . S
C554 O545 1.250 . S
C554 O546 1.258 . S
O555 Mn540 2.162 . S
O555 C543 1.281 . S
O556 Mn540 2.297 . S
O556 C543 1.236 . S
N557 Mn541 2.282 . S
N557 C558 1.328 . S
N557 C562 1.318 . S
C558 N557 1.328 . S
C558 C559 1.457 . S
C558 H563 0.929 . S
C559 C558 1.457 . S
C559 C560 1.291 . S
C559 H572 0.931 . S
C560 C559 1.291 . S
C560 C561 1.373 . S
C560 H573 0.929 . S
C561 C560 1.373 . S
C561 C562 1.396 . S
C561 C568 1.403 . S
C562 C552 1.476 . S
C562 N557 1.318 . S
C562 C561 1.396 . S
H563 C558 0.929 . S
O564 Mn540 2.385 . S
O564 C542 1.234 . S
O565 Mn540 2.209 . S
O565 Mn541 2.215 . S
O565 C542 1.283 . S
O566 Mn540 2.094 . S
O566 C544 1.240 . S
O567 Mn541 2.117 . S
O567 C544 1.264 . S
C568 C561 1.403 . S
C568 C569 1.399 . S
C568 H574 0.929 . S
C569 C549 1.449 . S
C569 C568 1.399 . S
C569 H575 0.930 . S
H570 C550 0.931 . S
H571 C551 0.930 . S
H572 C559 0.931 . S
H573 C560 0.929 . S
H574 C568 0.929 . S
H575 C569 0.930 . S
Mn576 O581 2.095 1_565 S
Mn576 O591 2.162 . S
Mn576 O592 2.297 1_565 S
Mn576 O600 2.385 . S
Mn576 O601 2.209 . S
Mn576 O602 2.094 . S
Mn577 O582 2.121 1_565 S
Mn577 N584 2.257 . S
Mn577 N593 2.282 . S
Mn577 O601 2.215 . S
Mn577 O603 2.117 . S
C578 O600 1.234 . S
C578 O601 1.283 . S
C579 O591 1.281 . S
C579 O592 1.236 1_565 S
C580 O602 1.240 . S
C580 O603 1.264 . S
O581 Mn576 2.095 1_545 S
O581 C590 1.250 . S
O582 Mn577 2.121 1_545 S
O582 C590 1.258 . S
C583 N584 1.326 1_545 S
C583 C587 1.460 . S
C583 H589 0.929 . S
N584 Mn577 2.257 . S
N584 C583 1.326 1_565 S
N584 C588 1.362 . S
C585 C586 1.258 1_565 S
C585 C588 1.431 . S
C585 C605 1.449 . S
C586 C585 1.258 1_545 S
C586 C587 1.477 . S
C586 H606 0.931 . S
C587 C583 1.460 . S
C587 C586 1.477 . S
C587 H607 0.930 . S
C588 N584 1.362 . S
C588 C585 1.431 . S
C588 C598 1.476 . S
H589 C583 0.929 . S
C590 O581 1.250 . S
C590 O582 1.258 . S
O591 Mn576 2.162 . S
O591 C579 1.281 . S
O592 Mn576 2.297 1_545 S
O592 C579 1.236 1_545 S
N593 Mn577 2.282 . S
N593 C594 1.328 . S
N593 C598 1.318 . S
C594 N593 1.328 . S
C594 C595 1.457 . S
C594 H599 0.929 . S
C595 C594 1.457 . S
C595 C596 1.291 . S
C595 H608 0.931 . S
C596 C595 1.291 . S
C596 C597 1.373 . S
C596 H609 0.929 . S
C597 C596 1.373 . S
C597 C598 1.396 . S
C597 C604 1.403 . S
C598 C588 1.476 . S
C598 N593 1.318 . S
C598 C597 1.396 . S
H599 C594 0.929 . S
O600 Mn576 2.385 . S
O600 C578 1.234 . S
O601 Mn576 2.209 . S
O601 Mn577 2.215 . S
O601 C578 1.283 . S
O602 Mn576 2.094 . S
O602 C580 1.240 . S
O603 Mn577 2.117 . S
O603 C580 1.264 . S
C604 C597 1.403 . S
C604 C605 1.399 . S
C604 H610 0.929 . S
C605 C585 1.449 . S
C605 C604 1.399 . S
C605 H611 0.930 . S
H606 C586 0.931 . S
H607 C587 0.930 . S
H608 C595 0.931 . S
H609 C596 0.929 . S
H610 C604 0.929 . S
H611 C605 0.930 . S
Mn612 O617 2.095 . S
Mn612 O627 2.162 1_455 S
Mn612 O628 2.297 1_455 S
Mn612 O636 2.385 . S
Mn612 O637 2.209 . S
Mn612 O638 2.094 . S
Mn613 O618 2.121 . S
Mn613 N620 2.257 . S
Mn613 N629 2.282 . S
Mn613 O637 2.215 . S
Mn613 O639 2.117 . S
C614 O636 1.234 . S
C614 O637 1.283 . S
C615 O627 1.281 . S
C615 O628 1.236 . S
C616 O638 1.240 . S
C616 O639 1.264 . S
O617 Mn612 2.095 . S
O617 C626 1.250 . S
O618 Mn613 2.121 . S
O618 C626 1.258 . S
C619 N620 1.326 . S
C619 C623 1.460 . S
C619 H625 0.929 . S
N620 Mn613 2.257 . S
N620 C619 1.326 . S
N620 C624 1.362 . S
C621 C622 1.258 . S
C621 C624 1.431 . S
C621 C641 1.449 . S
C622 C621 1.258 . S
C622 C623 1.477 . S
C622 H642 0.931 . S
C623 C619 1.460 . S
C623 C622 1.477 . S
C623 H643 0.930 . S
C624 N620 1.362 . S
C624 C621 1.431 . S
C624 C634 1.476 . S
H625 C619 0.929 . S
C626 O617 1.250 . S
C626 O618 1.258 . S
O627 Mn612 2.162 1_655 S
O627 C615 1.281 . S
O628 Mn612 2.297 1_655 S
O628 C615 1.236 . S
N629 Mn613 2.282 . S
N629 C630 1.328 . S
N629 C634 1.318 . S
C630 N629 1.328 . S
C630 C631 1.457 . S
C630 H635 0.929 . S
C631 C630 1.457 . S
C631 C632 1.291 . S
C631 H644 0.931 . S
C632 C631 1.291 . S
C632 C633 1.373 . S
C632 H645 0.929 . S
C633 C632 1.373 . S
C633 C634 1.396 . S
C633 C640 1.403 . S
C634 C624 1.476 . S
C634 N629 1.318 . S
C634 C633 1.396 . S
H635 C630 0.929 . S
O636 Mn612 2.385 . S
O636 C614 1.234 . S
O637 Mn612 2.209 . S
O637 Mn613 2.215 . S
O637 C614 1.283 . S
O638 Mn612 2.094 . S
O638 C616 1.240 . S
O639 Mn613 2.117 . S
O639 C616 1.264 . S
C640 C633 1.403 . S
C640 C641 1.399 . S
C640 H646 0.929 . S
C641 C621 1.449 . S
C641 C640 1.399 . S
C641 H647 0.930 . S
H642 C622 0.931 . S
H643 C623 0.930 . S
H644 C631 0.931 . S
H645 C632 0.929 . S
H646 C640 0.929 . S
H647 C641 0.930 . S
Zn648 O654 1.920 1_455 S
Zn648 O660 1.898 1_445 S
Zn648 O663 1.905 . S
Zn649 O657 1.905 1_445 S
Zn649 O658 1.898 . S
Zn649 O666 1.920 1_455 S
Zn650 O653 2.080 . S
Zn650 O656 2.114 1_545 S
Zn650 O659 2.120 . S
Zn650 O661 2.120 1_445 S
Zn650 O662 2.114 . S
Zn650 O665 2.080 1_455 S
C651 O656 1.166 . S
C651 O657 1.182 1_455 S
C652 O658 1.167 . S
C652 O659 1.299 . S
O653 Zn650 2.080 . S
O653 C667 1.305 1_455 S
O654 Zn648 1.920 1_655 S
O654 C667 1.234 . S
C655 O660 1.167 . S
C655 O661 1.299 . S
O656 Zn650 2.114 1_565 S
O656 C651 1.166 . S
O657 Zn649 1.905 1_665 S
O657 C651 1.182 1_655 S
O658 Zn649 1.898 . S
O658 C652 1.167 . S
O659 Zn650 2.120 . S
O659 C652 1.299 . S
O660 Zn648 1.898 1_665 S
O660 C655 1.167 . S
O661 Zn650 2.120 1_665 S
O661 C655 1.299 . S
O662 Zn650 2.114 . S
O662 C664 1.166 . S
O663 Zn648 1.905 . S
O663 C664 1.182 . S
C664 O662 1.166 . S
C664 O663 1.182 . S
O665 Zn650 2.080 1_655 S
O665 C668 1.305 . S
O666 Zn649 1.920 1_655 S
O666 C668 1.234 . S
C667 O653 1.305 1_655 S
C667 O654 1.234 . S
C668 O665 1.305 . S
C668 O666 1.234 . S
Zn669 O675 1.920 1_545 S
Zn669 O681 1.898 . S
Zn669 O684 1.905 1_455 S
Zn670 O678 1.905 . S
Zn670 O679 1.898 1_445 S
Zn670 O687 1.920 1_545 S
Zn671 O674 2.080 1_545 S
Zn671 O677 2.114 . S
Zn671 O680 2.120 1_445 S
Zn671 O682 2.120 . S
Zn671 O683 2.114 1_455 S
Zn671 O686 2.080 . S
C672 O677 1.166 . S
C672 O678 1.182 . S
C673 O679 1.167 . S
C673 O680 1.299 . S
O674 Zn671 2.080 1_565 S
O674 C688 1.305 . S
O675 Zn669 1.920 1_565 S
O675 C688 1.234 . S
C676 O681 1.167 . S
C676 O682 1.299 . S
O677 Zn671 2.114 . S
O677 C672 1.166 . S
O678 Zn670 1.905 . S
O678 C672 1.182 . S
O679 Zn670 1.898 1_665 S
O679 C673 1.167 . S
O680 Zn671 2.120 1_665 S
O680 C673 1.299 . S
O681 Zn669 1.898 . S
O681 C676 1.167 . S
O682 Zn671 2.120 . S
O682 C676 1.299 . S
O683 Zn671 2.114 1_655 S
O683 C685 1.166 . S
O684 Zn669 1.905 1_655 S
O684 C685 1.182 . S
C685 O683 1.166 . S
C685 O684 1.182 . S
O686 Zn671 2.080 . S
O686 C689 1.305 . S
O687 Zn670 1.920 1_565 S
O687 C689 1.234 1_565 S
C688 O674 1.305 . S
C688 O675 1.234 . S
C689 O686 1.305 . S
C689 O687 1.234 1_545 S
Zn690 O696 1.920 1_545 S
Zn690 O702 1.898 . S
Zn690 O705 1.905 1_445 S
Zn691 O699 1.905 . S
Zn691 O700 1.898 1_445 S
Zn691 O708 1.920 1_545 S
Zn692 O695 2.080 1_545 S
Zn692 O698 2.114 . S
Zn692 O701 2.120 1_445 S
Zn692 O703 2.120 . S
Zn692 O704 2.114 1_455 S
Zn692 O707 2.080 . S
C693 O698 1.166 . S
C693 O699 1.182 . S
C694 O700 1.167 . S
C694 O701 1.299 . S
O695 Zn692 2.080 1_565 S
O695 C709 1.305 . S
O696 Zn690 1.920 1_565 S
O696 C709 1.234 . S
C697 O702 1.167 . S
C697 O703 1.299 . S
O698 Zn692 2.114 . S
O698 C693 1.166 . S
O699 Zn691 1.905 . S
O699 C693 1.182 . S
O700 Zn691 1.898 1_665 S
O700 C694 1.167 . S
O701 Zn692 2.120 1_665 S
O701 C694 1.299 . S
O702 Zn690 1.898 . S
O702 C697 1.167 . S
O703 Zn692 2.120 . S
O703 C697 1.299 . S
O704 Zn692 2.114 1_655 S
O704 C706 1.166 1_545 S
O705 Zn690 1.905 1_665 S
O705 C706 1.182 . S
C706 O704 1.166 1_565 S
C706 O705 1.182 . S
O707 Zn692 2.080 . S
O707 C710 1.305 1_545 S
O708 Zn691 1.920 1_565 S
O708 C710 1.234 . S
C709 O695 1.305 . S
C709 O696 1.234 . S
C710 O707 1.305 1_565 S
C710 O708 1.234 . S
Zn711 O717 1.918 1_455 S
Zn711 O723 1.898 1_445 S
Zn711 O726 1.905 . S
Zn712 O720 1.905 1_445 S
Zn712 O721 1.898 . S
Zn712 O729 1.920 1_455 S
Zn713 O716 2.080 . S
Zn713 O719 2.114 1_545 S
Zn713 O722 2.120 . S
Zn713 O724 2.120 1_445 S
Zn713 O725 2.114 . S
Zn713 O728 2.080 1_455 S
C714 O719 1.166 1_655 S
C714 O720 1.182 . S
C715 O721 1.167 . S
C715 O722 1.299 . S
O716 Zn713 2.080 . S
O716 C730 1.305 . S
O717 Zn711 1.918 1_655 S
O717 C730 1.234 1_655 S
C718 O723 1.167 . S
C718 O724 1.299 . S
O719 Zn713 2.114 1_565 S
O719 C714 1.166 1_455 S
O720 Zn712 1.905 1_665 S
O720 C714 1.182 . S
O721 Zn712 1.898 . S
O721 C715 1.167 . S
O722 Zn713 2.120 . S
O722 C715 1.299 . S
O723 Zn711 1.898 1_665 S
O723 C718 1.167 . S
O724 Zn713 2.120 1_665 S
O724 C718 1.299 . S
O725 Zn713 2.114 . S
O725 C727 1.166 . S
O726 Zn711 1.905 . S
O726 C727 1.182 . S
C727 O725 1.166 . S
C727 O726 1.182 . S
O728 Zn713 2.080 1_655 S
O728 C731 1.305 . S
O729 Zn712 1.920 1_655 S
O729 C731 1.234 . S
C730 O716 1.305 . S
C730 O717 1.234 1_455 S
C731 O728 1.305 . S
C731 O729 1.234 . S
Zn732 O738 1.920 . S
Zn732 O744 1.898 . S
Zn732 O747 1.905 . S
Zn733 O741 1.905 . S
Zn733 O742 1.898 . S
Zn733 O750 1.920 . S
Zn734 O737 2.080 . S
Zn734 O740 2.114 . S
Zn734 O743 2.120 . S
Zn734 O745 2.120 . S
Zn734 O746 2.114 . S
Zn734 O749 2.080 . S
C735 O740 1.166 . S
C735 O741 1.182 . S
C736 O742 1.167 . S
C736 O743 1.299 . S
O737 Zn734 2.080 . S
O737 C751 1.305 . S
O738 Zn732 1.920 . S
O738 C751 1.234 . S
C739 O744 1.167 . S
C739 O745 1.299 . S
O740 Zn734 2.114 . S
O740 C735 1.166 . S
O741 Zn733 1.905 . S
O741 C735 1.182 . S
O742 Zn733 1.898 . S
O742 C736 1.167 . S
O743 Zn734 2.120 . S
O743 C736 1.299 . S
O744 Zn732 1.898 . S
O744 C739 1.167 . S
O745 Zn734 2.120 . S
O745 C739 1.299 . S
O746 Zn734 2.114 . S
O746 C748 1.166 . S
O747 Zn732 1.905 . S
O747 C748 1.182 . S
C748 O746 1.166 . S
C748 O747 1.182 . S
O749 Zn734 2.080 . S
O749 C752 1.305 . S
O750 Zn733 1.920 . S
O750 C752 1.234 . S
C751 O737 1.305 . S
C751 O738 1.234 . S
C752 O749 1.305 . S
C752 O750 1.234 . S
Zn753 O759 1.920 . S
Zn753 O765 1.898 . S
Zn753 O768 1.905 . S
Zn754 O762 1.905 . S
Zn754 O763 1.898 . S
Zn754 O771 1.920 . S
Zn755 O758 2.080 . S
Zn755 O761 2.114 . S
Zn755 O764 2.120 . S
Zn755 O766 2.120 . S
Zn755 O767 2.114 . S
Zn755 O770 2.080 . S
C756 O761 1.166 . S
C756 O762 1.182 . S
C757 O763 1.167 . S
C757 O764 1.299 . S
O758 Zn755 2.080 . S
O758 C772 1.305 . S
O759 Zn753 1.920 . S
O759 C772 1.234 . S
C760 O765 1.167 . S
C760 O766 1.299 . S
O761 Zn755 2.114 . S
O761 C756 1.166 . S
O762 Zn754 1.905 . S
O762 C756 1.182 . S
O763 Zn754 1.898 . S
O763 C757 1.167 . S
O764 Zn755 2.120 . S
O764 C757 1.299 . S
O765 Zn753 1.898 . S
O765 C760 1.167 . S
O766 Zn755 2.120 . S
O766 C760 1.299 . S
O767 Zn755 2.114 . S
O767 C769 1.166 . S
O768 Zn753 1.905 . S
O768 C769 1.182 . S
C769 O767 1.166 . S
C769 O768 1.182 . S
O770 Zn755 2.080 . S
O770 C773 1.305 . S
O771 Zn754 1.920 . S
O771 C773 1.234 . S
C772 O758 1.305 . S
C772 O759 1.234 . S
C773 O770 1.305 . S
C773 O771 1.234 . S
Zn774 O780 1.920 . S
Zn774 O786 1.898 . S
Zn774 O789 1.905 . S
Zn775 O783 1.905 . S
Zn775 O784 1.898 . S
Zn775 O792 1.920 . S
Zn776 O779 2.080 . S
Zn776 O782 2.114 . S
Zn776 O785 2.120 . S
Zn776 O787 2.120 . S
Zn776 O788 2.114 . S
Zn776 O791 2.080 . S
C777 O782 1.166 . S
C777 O783 1.182 . S
C778 O784 1.167 . S
C778 O785 1.299 . S
O779 Zn776 2.080 . S
O779 C793 1.305 . S
O780 Zn774 1.920 . S
O780 C793 1.234 . S
C781 O786 1.167 . S
C781 O787 1.299 . S
O782 Zn776 2.114 . S
O782 C777 1.166 . S
O783 Zn775 1.905 . S
O783 C777 1.182 . S
O784 Zn775 1.898 . S
O784 C778 1.167 . S
O785 Zn776 2.120 . S
O785 C778 1.299 . S
O786 Zn774 1.898 . S
O786 C781 1.167 . S
O787 Zn776 2.120 . S
O787 C781 1.299 . S
O788 Zn776 2.114 . S
O788 C790 1.166 . S
O789 Zn774 1.905 . S
O789 C790 1.182 . S
C790 O788 1.166 . S
C790 O789 1.182 . S
O791 Zn776 2.080 . S
O791 C794 1.305 . S
O792 Zn775 1.920 . S
O792 C794 1.234 . S
C793 O779 1.305 . S
C793 O780 1.234 . S
C794 O791 1.305 . S
C794 O792 1.234 . S
Zn795 O801 1.920 . S
Zn795 O807 1.898 . S
Zn795 O810 1.905 . S
Zn796 O804 1.905 . S
Zn796 O805 1.898 . S
Zn796 O813 1.920 . S
Zn797 O800 2.112 . S
Zn797 O803 2.114 . S
Zn797 O806 2.120 . S
Zn797 O808 2.152 . S
Zn797 O809 2.125 . S
Zn797 O812 2.080 . S
C798 O803 1.166 . S
C798 O804 1.182 . S
C799 O805 1.167 . S
C799 O806 1.299 . S
O800 Zn797 2.112 . S
O800 C814 1.263 1_556 S
O801 Zn795 1.920 . S
O801 C814 1.234 . S
C802 O807 1.167 . S
C802 O808 1.256 1_554 S
O803 Zn797 2.114 . S
O803 C798 1.166 . S
O804 Zn796 1.905 . S
O804 C798 1.182 . S
O805 Zn796 1.898 . S
O805 C799 1.167 . S
O806 Zn797 2.120 . S
O806 C799 1.299 . S
O807 Zn795 1.898 . S
O807 C802 1.167 . S
O808 Zn797 2.152 . S
O808 C802 1.256 1_556 S
O809 Zn797 2.125 . S
O809 C811 1.150 1_556 S
O810 Zn795 1.905 . S
O810 C811 1.182 . S
C811 O809 1.150 1_554 S
C811 O810 1.182 . S
O812 Zn797 2.080 . S
O812 C815 1.305 . S
O813 Zn796 1.920 . S
O813 C815 1.234 . S
C814 O800 1.263 1_554 S
C814 O801 1.234 . S
C815 O812 1.305 . S
C815 O813 1.234 . S
Zn816 O822 1.920 . S
Zn816 O828 1.898 . S
Zn816 O831 1.905 . S
Zn817 O825 1.905 . S
Zn817 O826 1.898 . S
Zn817 O834 1.920 . S
Zn818 O821 2.080 . S
Zn818 O824 2.114 . S
Zn818 O827 2.120 . S
Zn818 O829 2.120 . S
Zn818 O830 2.114 . S
Zn818 O833 2.080 . S
C819 O824 1.166 . S
C819 O825 1.182 . S
C820 O826 1.167 . S
C820 O827 1.299 . S
O821 Zn818 2.080 . S
O821 C835 1.305 . S
O822 Zn816 1.920 . S
O822 C835 1.234 . S
C823 O828 1.167 . S
C823 O829 1.299 . S
O824 Zn818 2.114 . S
O824 C819 1.166 . S
O825 Zn817 1.905 . S
O825 C819 1.182 . S
O826 Zn817 1.898 . S
O826 C820 1.167 . S
O827 Zn818 2.120 . S
O827 C820 1.299 . S
O828 Zn816 1.898 . S
O828 C823 1.167 . S
O829 Zn818 2.120 . S
O829 C823 1.299 . S
O830 Zn818 2.114 . S
O830 C832 1.166 . S
O831 Zn816 1.905 . S
O831 C832 1.182 . S
C832 O830 1.166 . S
C832 O831 1.182 . S
O833 Zn818 2.080 . S
O833 C836 1.305 . S
O834 Zn817 1.920 . S
O834 C836 1.234 . S
C835 O821 1.305 . S
C835 O822 1.234 . S
C836 O833 1.305 . S
C836 O834 1.234 . S
Zn837 O843 1.920 . S
Zn837 O849 1.898 . S
Zn837 O852 1.905 . S
Zn838 O846 1.905 . S
Zn838 O847 1.898 . S
Zn838 O855 1.920 . S
Zn839 O842 2.080 . S
Zn839 O845 2.114 1_554 S
Zn839 O848 2.120 1_554 S
Zn839 O850 2.120 . S
Zn839 O851 2.114 . S
Zn839 O854 2.080 1_554 S
C840 O845 1.166 . S
C840 O846 1.182 . S
C841 O847 1.167 . S
C841 O848 1.299 . S
O842 Zn839 2.080 . S
O842 C856 1.305 . S
O843 Zn837 1.920 . S
O843 C856 1.234 . S
C844 O849 1.167 . S
C844 O850 1.299 . S
O845 Zn839 2.114 1_556 S
O845 C840 1.166 . S
O846 Zn838 1.905 . S
O846 C840 1.182 . S
O847 Zn838 1.898 . S
O847 C841 1.167 . S
O848 Zn839 2.120 1_556 S
O848 C841 1.299 . S
O849 Zn837 1.898 . S
O849 C844 1.167 . S
O850 Zn839 2.120 . S
O850 C844 1.299 . S
O851 Zn839 2.114 . S
O851 C853 1.166 . S
O852 Zn837 1.905 . S
O852 C853 1.182 . S
C853 O851 1.166 . S
C853 O852 1.182 . S
O854 Zn839 2.080 1_556 S
O854 C857 1.305 . S
O855 Zn838 1.920 . S
O855 C857 1.234 . S
C856 O842 1.305 . S
C856 O843 1.234 . S
C857 O854 1.305 . S
C857 O855 1.234 . S
Zn858 O864 1.920 . S
Zn858 O870 1.898 . S
Zn858 O873 1.905 . S
Zn859 O867 1.905 . S
Zn859 O868 1.898 . S
Zn859 O876 1.920 . S
Zn860 O863 2.080 . S
Zn860 O866 2.114 . S
Zn860 O869 2.120 . S
Zn860 O871 2.120 . S
Zn860 O872 2.114 . S
Zn860 O875 2.080 . S
C861 O866 1.166 . S
C861 O867 1.182 . S
C862 O868 1.167 . S
C862 O869 1.299 . S
O863 Zn860 2.080 . S
O863 C877 1.305 . S
O864 Zn858 1.920 . S
O864 C877 1.234 . S
C865 O870 1.167 . S
C865 O871 1.299 . S
O866 Zn860 2.114 . S
O866 C861 1.166 . S
O867 Zn859 1.905 . S
O867 C861 1.182 . S
O868 Zn859 1.898 . S
O868 C862 1.167 . S
O869 Zn860 2.120 . S
O869 C862 1.299 . S
O870 Zn858 1.898 . S
O870 C865 1.167 . S
O871 Zn860 2.120 . S
O871 C865 1.299 . S
O872 Zn860 2.114 . S
O872 C874 1.166 . S
O873 Zn858 1.905 . S
O873 C874 1.182 . S
C874 O872 1.166 . S
C874 O873 1.182 . S
O875 Zn860 2.080 . S
O875 C878 1.305 . S
O876 Zn859 1.920 . S
O876 C878 1.234 . S
C877 O863 1.305 . S
C877 O864 1.234 . S
C878 O875 1.305 . S
C878 O876 1.234 . S
Zn879 O885 1.920 . S
Zn879 O891 1.898 . S
Zn879 O894 1.905 . S
Zn880 O888 1.905 . S
Zn880 O889 1.898 . S
Zn880 O897 1.920 . S
Zn881 O884 2.080 . S
Zn881 O887 2.114 . S
Zn881 O890 2.120 . S
Zn881 O892 2.120 . S
Zn881 O893 2.114 . S
Zn881 O896 2.080 . S
C882 O887 1.166 . S
C882 O888 1.182 . S
C883 O889 1.167 . S
C883 O890 1.299 . S
O884 Zn881 2.080 . S
O884 C898 1.305 . S
O885 Zn879 1.920 . S
O885 C898 1.234 . S
C886 O891 1.167 . S
C886 O892 1.299 . S
O887 Zn881 2.114 . S
O887 C882 1.166 . S
O888 Zn880 1.905 . S
O888 C882 1.182 . S
O889 Zn880 1.898 . S
O889 C883 1.167 . S
O890 Zn881 2.120 . S
O890 C883 1.299 . S
O891 Zn879 1.898 . S
O891 C886 1.167 . S
O892 Zn881 2.120 . S
O892 C886 1.299 . S
O893 Zn881 2.114 . S
O893 C895 1.166 . S
O894 Zn879 1.905 . S
O894 C895 1.182 . S
C895 O893 1.166 . S
C895 O894 1.182 . S
O896 Zn881 2.080 . S
O896 C899 1.305 . S
O897 Zn880 1.920 . S
O897 C899 1.234 . S
C898 O884 1.305 . S
C898 O885 1.234 . S
C899 O896 1.305 . S
C899 O897 1.234 . S
C900 C901 1.369 . S
C900 C902 1.419 . S
C900 H904 0.930 . S
C901 C900 1.369 . S
C901 C910 1.429 . S
C902 C900 1.419 . S
C902 C903 1.363 . S
C902 H905 0.929 . S
C903 C902 1.363 . S
C903 C909 1.428 . S
H904 C900 0.930 . S
H905 C902 0.929 . S
S906 N907 1.613 . S
S906 N908 1.610 . S
N907 S906 1.613 . S
N907 C910 1.350 . S
N908 S906 1.610 . S
N908 C909 1.351 . S
C909 C903 1.428 . S
C909 N908 1.351 . S
C909 C910 1.434 . S
C910 C901 1.429 . S
C910 N907 1.350 . S
C910 C909 1.434 . S
C911 C912 1.369 . S
C911 C913 1.419 . S
C911 H915 0.930 1_545 S
C912 C911 1.369 . S
C912 C921 1.429 . S
C913 C911 1.419 . S
C913 C914 1.363 . S
C913 H916 0.929 . S
C914 C913 1.363 . S
C914 C920 1.428 . S
H915 C911 0.930 1_565 S
H916 C913 0.929 . S
S917 N918 1.613 . S
S917 N919 1.610 . S
N918 S917 1.613 . S
N918 C921 1.350 . S
N919 S917 1.610 . S
N919 C920 1.351 . S
C920 C914 1.428 . S
C920 N919 1.351 . S
C920 C921 1.434 . S
C921 C912 1.429 . S
C921 N918 1.350 . S
C921 C920 1.434 . S
C922 C923 1.374 . S
C922 C924 1.410 1_455 S
C922 H926 0.934 1_455 S
C923 C922 1.374 . S
C923 C932 1.429 . S
C924 C922 1.410 1_655 S
C924 C925 1.363 1_655 S
C924 H927 0.929 . S
C925 C924 1.363 1_455 S
C925 C931 1.428 . S
H926 C922 0.934 1_655 S
H927 C924 0.929 . S
S928 N929 1.613 . S
S928 N930 1.610 . S
N929 S928 1.613 . S
N929 C932 1.350 . S
N930 S928 1.610 . S
N930 C931 1.351 . S
C931 C925 1.428 . S
C931 N930 1.351 . S
C931 C932 1.434 . S
C932 C923 1.429 . S
C932 N929 1.350 . S
C932 C931 1.434 . S
C933 C934 1.369 . S
C933 C935 1.419 . S
C933 H937 0.930 . S
C934 C933 1.369 . S
C934 C943 1.429 . S
C935 C933 1.419 . S
C935 C936 1.363 . S
C935 H938 0.929 . S
C936 C935 1.363 . S
C936 C942 1.428 . S
H937 C933 0.930 . S
H938 C935 0.929 . S
S939 N940 1.613 . S
S939 N941 1.610 . S
N940 S939 1.613 . S
N940 C943 1.350 . S
N941 S939 1.610 . S
N941 C942 1.351 . S
C942 C936 1.428 . S
C942 N941 1.351 . S
C942 C943 1.434 . S
C943 C934 1.429 . S
C943 N940 1.350 . S
C943 C942 1.434 . S
C944 C945 1.369 . S
C944 C946 1.419 . S
C944 H948 0.930 . S
C945 C944 1.369 . S
C945 C954 1.429 . S
C946 C944 1.419 . S
C946 C947 1.363 . S
C946 H949 0.929 . S
C947 C946 1.363 . S
C947 C953 1.426 . S
H948 C944 0.930 . S
H949 C946 0.929 . S
S950 N951 1.613 . S
S950 N952 1.610 . S
N951 S950 1.613 . S
N951 C954 1.350 1_565 S
N952 S950 1.610 . S
N952 C953 1.350 1_565 S
C953 C947 1.426 . S
C953 N952 1.350 1_545 S
C953 C954 1.438 . S
C954 C945 1.429 . S
C954 N951 1.350 1_545 S
C954 C953 1.438 . S
C955 C956 1.369 . S
C955 C957 1.419 . S
C955 H959 0.930 . S
C956 C955 1.369 . S
C956 C965 1.429 . S
C957 C955 1.419 . S
C957 C958 1.363 . S
C957 H960 0.929 . S
C958 C957 1.363 . S
C958 C964 1.428 . S
H959 C955 0.930 . S
H960 C957 0.929 . S
S961 N962 1.613 . S
S961 N963 1.610 . S
N962 S961 1.613 . S
N962 C965 1.350 . S
N963 S961 1.610 . S
N963 C964 1.351 . S
C964 C958 1.428 . S
C964 N963 1.351 . S
C964 C965 1.434 . S
C965 C956 1.429 . S
C965 N962 1.350 . S
C965 C964 1.434 . S
C966 C967 1.369 . S
C966 C968 1.419 . S
C966 H970 0.930 . S
C967 C966 1.369 . S
C967 C976 1.429 . S
C968 C966 1.419 . S
C968 C969 1.363 . S
C968 H971 0.929 . S
C969 C968 1.363 . S
C969 C975 1.428 . S
H970 C966 0.930 . S
H971 C968 0.929 . S
S972 N973 1.613 . S
S972 N974 1.610 . S
N973 S972 1.613 . S
N973 C976 1.350 . S
N974 S972 1.610 . S
N974 C975 1.351 . S
C975 C969 1.428 . S
C975 N974 1.351 . S
C975 C976 1.434 . S
C976 C967 1.429 . S
C976 N973 1.350 . S
C976 C975 1.434 . S
C977 C978 1.369 . S
C977 C979 1.419 . S
C977 H981 0.930 . S
C978 C977 1.369 . S
C978 C987 1.429 1_545 S
C979 C977 1.419 . S
C979 C980 1.363 1_545 S
C979 H982 0.929 . S
C980 C979 1.363 1_565 S
C980 C986 1.428 . S
H981 C977 0.930 . S
H982 C979 0.929 . S
S983 N984 1.613 . S
S983 N985 1.610 . S
N984 S983 1.613 . S
N984 C987 1.350 . S
N985 S983 1.610 . S
N985 C986 1.351 . S
C986 C980 1.428 . S
C986 N985 1.351 . S
C986 C987 1.434 . S
C987 C978 1.429 1_565 S
C987 N984 1.350 . S
C987 C986 1.434 . S
C988 C989 1.369 . S
C988 C990 1.419 . S
C988 H992 0.930 . S
C989 C988 1.369 . S
C989 C998 1.429 1_455 S
C990 C988 1.419 . S
C990 C991 1.363 . S
C990 H993 0.929 . S
C991 C990 1.363 . S
C991 C997 1.428 1_455 S
H992 C988 0.930 . S
H993 C990 0.929 . S
S994 N995 1.613 . S
S994 N996 1.610 . S
N995 S994 1.613 . S
N995 C998 1.350 . S
N996 S994 1.610 . S
N996 C997 1.351 . S
C997 C991 1.428 1_655 S
C997 N996 1.351 . S
C997 C998 1.434 . S
C998 C989 1.429 1_655 S
C998 N995 1.350 . S
C998 C997 1.434 . S
C999 C1000 1.369 . S
C999 C1001 1.419 . S
C999 H1003 0.930 . S
C1000 C999 1.369 . S
C1000 C1009 1.429 . S
C1001 C999 1.419 . S
C1001 C1002 1.363 . S
C1001 H1004 0.929 . S
C1002 C1001 1.363 . S
C1002 C1008 1.428 . S
H1003 C999 0.930 . S
H1004 C1001 0.929 . S
S1005 N1006 1.613 . S
S1005 N1007 1.610 . S
N1006 S1005 1.613 . S
N1006 C1009 1.350 . S
N1007 S1005 1.610 . S
N1007 C1008 1.351 . S
C1008 C1002 1.428 . S
C1008 N1007 1.351 . S
C1008 C1009 1.434 . S
C1009 C1000 1.429 . S
C1009 N1006 1.350 . S
C1009 C1008 1.434 . S
C1010 C1011 1.369 . S
C1010 C1012 1.419 . S
C1010 H1014 0.930 . S
C1011 C1010 1.369 . S
C1011 C1020 1.429 . S
C1012 C1010 1.419 . S
C1012 C1013 1.363 . S
C1012 H1015 0.929 . S
C1013 C1012 1.363 . S
C1013 C1019 1.428 . S
H1014 C1010 0.930 . S
H1015 C1012 0.929 . S
S1016 N1017 1.613 . S
S1016 N1018 1.610 . S
N1017 S1016 1.613 . S
N1017 C1020 1.350 . S
N1018 S1016 1.610 . S
N1018 C1019 1.351 . S
C1019 C1013 1.428 . S
C1019 N1018 1.351 . S
C1019 C1020 1.434 . S
C1020 C1011 1.429 . S
C1020 N1017 1.350 . S
C1020 C1019 1.434 . S
C1021 C1022 1.369 1_655 S
C1021 C1023 1.419 . S
C1021 H1025 0.930 . S
C1022 C1021 1.369 1_455 S
C1022 C1031 1.429 . S
C1023 C1021 1.419 . S
C1023 C1024 1.363 1_655 S
C1023 H1026 0.929 . S
C1024 C1023 1.363 1_455 S
C1024 C1030 1.428 . S
H1025 C1021 0.930 . S
H1026 C1023 0.929 . S
S1027 N1028 1.613 . S
S1027 N1029 1.610 . S
N1028 S1027 1.613 . S
N1028 C1031 1.350 . S
N1029 S1027 1.610 . S
N1029 C1030 1.351 . S
C1030 C1024 1.428 . S
C1030 N1029 1.351 . S
C1030 C1031 1.434 . S
C1031 C1022 1.429 . S
C1031 N1028 1.350 . S
C1031 C1030 1.434 . S
C1032 C1033 1.369 . S
C1032 C1034 1.419 . S
C1032 H1036 0.930 . S
C1033 C1032 1.369 . S
C1033 C1042 1.429 . S
C1034 C1032 1.419 . S
C1034 C1035 1.363 . S
C1034 H1037 0.929 . S
C1035 C1034 1.363 . S
C1035 C1041 1.428 . S
H1036 C1032 0.930 . S
H1037 C1034 0.929 . S
S1038 N1039 1.613 . S
S1038 N1040 1.610 . S
N1039 S1038 1.613 . S
N1039 C1042 1.350 . S
N1040 S1038 1.610 . S
N1040 C1041 1.351 . S
C1041 C1035 1.428 . S
C1041 N1040 1.351 . S
C1041 C1042 1.434 . S
C1042 C1033 1.429 . S
C1042 N1039 1.350 . S
C1042 C1041 1.434 . S
C1043 C1044 1.369 . S
C1043 C1045 1.419 . S
C1043 H1047 0.930 . S
C1044 C1043 1.369 . S
C1044 C1053 1.429 . S
C1045 C1043 1.419 . S
C1045 C1046 1.363 . S
C1045 H1048 0.929 . S
C1046 C1045 1.363 . S
C1046 C1052 1.428 . S
H1047 C1043 0.930 . S
H1048 C1045 0.929 . S
S1049 N1050 1.613 . S
S1049 N1051 1.610 . S
N1050 S1049 1.613 . S
N1050 C1053 1.350 . S
N1051 S1049 1.610 . S
N1051 C1052 1.351 . S
C1052 C1046 1.428 . S
C1052 N1051 1.351 . S
C1052 C1053 1.434 . S
C1053 C1044 1.429 . S
C1053 N1050 1.350 . S
C1053 C1052 1.434 . S
C1054 C1055 1.369 . S
C1054 C1056 1.419 . S
C1054 H1058 0.930 . S
C1055 C1054 1.369 . S
C1055 C1064 1.429 . S
C1056 C1054 1.419 . S
C1056 C1057 1.363 . S
C1056 H1059 0.929 . S
C1057 C1056 1.363 . S
C1057 C1063 1.428 . S
H1058 C1054 0.930 . S
H1059 C1056 0.929 . S
S1060 N1061 1.613 . S
S1060 N1062 1.610 . S
N1061 S1060 1.613 . S
N1061 C1064 1.350 . S
N1062 S1060 1.610 . S
N1062 C1063 1.351 . S
C1063 C1057 1.428 . S
C1063 N1062 1.351 . S
C1063 C1064 1.434 . S
C1064 C1055 1.429 . S
C1064 N1061 1.350 . S
C1064 C1063 1.434 . S
C1065 C1066 1.369 . S
C1065 C1067 1.419 . S
C1065 H1069 0.930 . S
C1066 C1065 1.369 . S
C1066 C1075 1.429 . S
C1067 C1065 1.419 . S
C1067 C1068 1.363 . S
C1067 H1070 0.929 . S
C1068 C1067 1.363 . S
C1068 C1074 1.428 . S
H1069 C1065 0.930 . S
H1070 C1067 0.929 . S
S1071 N1072 1.613 . S
S1071 N1073 1.610 . S
N1072 S1071 1.613 . S
N1072 C1075 1.350 . S
N1073 S1071 1.610 . S
N1073 C1074 1.351 . S
C1074 C1068 1.428 . S
C1074 N1073 1.351 . S
C1074 C1075 1.434 . S
C1075 C1066 1.429 . S
C1075 N1072 1.350 . S
C1075 C1074 1.434 . S
C1076 C1077 1.369 . S
C1076 C1078 1.419 . S
C1076 H1080 0.930 . S
C1077 C1076 1.369 . S
C1077 C1086 1.429 . S
C1078 C1076 1.419 . S
C1078 C1079 1.363 . S
C1078 H1081 0.929 . S
C1079 C1078 1.363 . S
C1079 C1085 1.428 . S
H1080 C1076 0.930 . S
H1081 C1078 0.929 . S
S1082 N1083 1.613 . S
S1082 N1084 1.610 . S
N1083 S1082 1.613 . S
N1083 C1086 1.350 . S
N1084 S1082 1.610 . S
N1084 C1085 1.351 . S
C1085 C1079 1.428 . S
C1085 N1084 1.351 . S
C1085 C1086 1.434 . S
C1086 C1077 1.429 . S
C1086 N1083 1.350 . S
C1086 C1085 1.434 . S
C1087 C1088 1.369 . S
C1087 C1089 1.419 . S
C1087 H1091 0.930 . S
C1088 C1087 1.369 . S
C1088 C1097 1.429 . S
C1089 C1087 1.419 . S
C1089 C1090 1.363 . S
C1089 H1092 0.929 . S
C1090 C1089 1.363 . S
C1090 C1096 1.428 . S
H1091 C1087 0.930 . S
H1092 C1089 0.929 . S
S1093 N1094 1.613 . S
S1093 N1095 1.610 . S
N1094 S1093 1.613 . S
N1094 C1097 1.350 . S
N1095 S1093 1.610 . S
N1095 C1096 1.351 . S
C1096 C1090 1.428 . S
C1096 N1095 1.351 . S
C1096 C1097 1.434 . S
C1097 C1088 1.429 . S
C1097 N1094 1.350 . S
C1097 C1096 1.434 . S
C1098 C1099 1.369 . S
C1098 C1100 1.419 . S
C1098 H1102 0.930 . S
C1099 C1098 1.369 . S
C1099 C1108 1.429 . S
C1100 C1098 1.419 . S
C1100 C1101 1.363 . S
C1100 H1103 0.929 . S
C1101 C1100 1.363 . S
C1101 C1107 1.428 . S
H1102 C1098 0.930 . S
H1103 C1100 0.929 . S
S1104 N1105 1.613 . S
S1104 N1106 1.610 . S
N1105 S1104 1.613 . S
N1105 C1108 1.350 . S
N1106 S1104 1.610 . S
N1106 C1107 1.351 . S
C1107 C1101 1.428 . S
C1107 N1106 1.351 . S
C1107 C1108 1.434 . S
C1108 C1099 1.429 . S
C1108 N1105 1.350 . S
C1108 C1107 1.434 . S
C1109 C1110 1.369 . S
C1109 C1111 1.419 . S
C1109 H1113 0.930 . S
C1110 C1109 1.369 . S
C1110 C1119 1.429 . S
C1111 C1109 1.419 . S
C1111 C1112 1.363 . S
C1111 H1114 0.929 . S
C1112 C1111 1.363 . S
C1112 C1118 1.428 . S
H1113 C1109 0.930 . S
H1114 C1111 0.929 . S
S1115 N1116 1.613 . S
S1115 N1117 1.610 . S
N1116 S1115 1.613 . S
N1116 C1119 1.350 . S
N1117 S1115 1.610 . S
N1117 C1118 1.351 . S
C1118 C1112 1.428 . S
C1118 N1117 1.351 . S
C1118 C1119 1.434 . S
C1119 C1110 1.429 . S
C1119 N1116 1.350 . S
C1119 C1118 1.434 . S
C1120 C1121 1.369 . S
C1120 C1122 1.419 . S
C1120 H1124 0.930 . S
C1121 C1120 1.369 . S
C1121 C1130 1.429 . S
C1122 C1120 1.419 . S
C1122 C1123 1.363 . S
C1122 H1125 0.929 . S
C1123 C1122 1.363 . S
C1123 C1129 1.428 . S
H1124 C1120 0.930 . S
H1125 C1122 0.929 . S
S1126 N1127 1.613 . S
S1126 N1128 1.610 . S
N1127 S1126 1.613 . S
N1127 C1130 1.350 . S
N1128 S1126 1.610 . S
N1128 C1129 1.351 . S
C1129 C1123 1.428 . S
C1129 N1128 1.351 . S
C1129 C1130 1.434 . S
C1130 C1121 1.429 . S
C1130 N1127 1.350 . S
C1130 C1129 1.434 . S
C1131 C1132 1.369 . S
C1131 C1133 1.419 . S
C1131 H1135 0.930 . S
C1132 C1131 1.369 . S
C1132 C1141 1.429 . S
C1133 C1131 1.419 . S
C1133 C1134 1.363 . S
C1133 H1136 0.929 1_554 S
C1134 C1133 1.363 . S
C1134 C1140 1.428 . S
H1135 C1131 0.930 . S
H1136 C1133 0.929 1_556 S
S1137 N1138 1.613 . S
S1137 N1139 1.610 . S
N1138 S1137 1.613 . S
N1138 C1141 1.350 . S
N1139 S1137 1.610 . S
N1139 C1140 1.351 . S
C1140 C1134 1.428 . S
C1140 N1139 1.351 . S
C1140 C1141 1.434 . S
C1141 C1132 1.429 . S
C1141 N1138 1.350 . S
C1141 C1140 1.434 . S
C1142 C1143 1.369 . S
C1142 C1144 1.419 . S
C1142 H1146 0.930 . S
C1143 C1142 1.369 . S
C1143 C1152 1.429 . S
C1144 C1142 1.419 . S
C1144 C1145 1.363 . S
C1144 H1147 0.929 . S
C1145 C1144 1.363 . S
C1145 C1151 1.428 . S
H1146 C1142 0.930 . S
H1147 C1144 0.929 . S
S1148 N1149 1.613 . S
S1148 N1150 1.610 . S
N1149 S1148 1.613 . S
N1149 C1152 1.350 . S
N1150 S1148 1.610 . S
N1150 C1151 1.351 . S
C1151 C1145 1.428 . S
C1151 N1150 1.351 . S
C1151 C1152 1.434 . S
C1152 C1143 1.429 . S
C1152 N1149 1.350 . S
C1152 C1151 1.434 . S
C1153 C1154 1.369 . S
C1153 C1155 1.419 . S
C1153 H1157 0.930 . S
C1154 C1153 1.369 . S
C1154 C1163 1.429 . S
C1155 C1153 1.419 . S
C1155 C1156 1.363 . S
C1155 H1158 0.929 . S
C1156 C1155 1.363 . S
C1156 C1162 1.428 . S
H1157 C1153 0.930 . S
H1158 C1155 0.929 . S
S1159 N1160 1.613 1_556 S
S1159 N1161 1.610 . S
N1160 S1159 1.613 1_554 S
N1160 C1163 1.350 . S
N1161 S1159 1.610 . S
N1161 C1162 1.351 1_556 S
C1162 C1156 1.428 . S
C1162 N1161 1.351 1_554 S
C1162 C1163 1.434 . S
C1163 C1154 1.429 . S
C1163 N1160 1.350 . S
C1163 C1162 1.434 . S
C1164 C1165 1.369 . S
C1164 C1166 1.419 . S
C1164 H1168 0.930 . S
C1165 C1164 1.369 . S
C1165 C1174 1.429 . S
C1166 C1164 1.419 . S
C1166 C1167 1.363 . S
C1166 H1169 0.929 . S
C1167 C1166 1.363 . S
C1167 C1173 1.428 . S
H1168 C1164 0.930 . S
H1169 C1166 0.929 . S
S1170 N1171 1.613 . S
S1170 N1172 1.610 . S
N1171 S1170 1.613 . S
N1171 C1174 1.350 . S
N1172 S1170 1.610 . S
N1172 C1173 1.351 . S
C1173 C1167 1.428 . S
C1173 N1172 1.351 . S
C1173 C1174 1.434 . S
C1174 C1165 1.429 . S
C1174 N1171 1.350 . S
C1174 C1173 1.434 . S
C1175 C1176 1.369 . S
C1175 C1177 1.419 . S
C1175 H1179 0.930 . S
C1176 C1175 1.369 . S
C1176 C1185 1.429 . S
C1177 C1175 1.419 . S
C1177 C1178 1.363 . S
C1177 H1180 0.929 . S
C1178 C1177 1.363 . S
C1178 C1184 1.428 . S
H1179 C1175 0.930 . S
H1180 C1177 0.929 . S
S1181 N1182 1.613 . S
S1181 N1183 1.610 . S
N1182 S1181 1.613 . S
N1182 C1185 1.350 . S
N1183 S1181 1.610 . S
N1183 C1184 1.351 . S
C1184 C1178 1.428 . S
C1184 N1183 1.351 . S
C1184 C1185 1.434 . S
C1185 C1176 1.429 . S
C1185 N1182 1.350 . S
C1185 C1184 1.434 . S
C1186 C1187 1.369 . S
C1186 C1188 1.419 . S
C1186 H1190 0.930 . S
C1187 C1186 1.369 . S
C1187 C1196 1.429 . S
C1188 C1186 1.419 . S
C1188 C1189 1.363 . S
C1188 H1191 0.929 . S
C1189 C1188 1.363 . S
C1189 C1195 1.428 . S
H1190 C1186 0.930 . S
H1191 C1188 0.929 . S
S1192 N1193 1.613 . S
S1192 N1194 1.610 . S
N1193 S1192 1.613 . S
N1193 C1196 1.350 . S
N1194 S1192 1.610 . S
N1194 C1195 1.351 . S
C1195 C1189 1.428 . S
C1195 N1194 1.351 . S
C1195 C1196 1.434 . S
C1196 C1187 1.429 . S
C1196 N1193 1.350 . S
C1196 C1195 1.434 . S
C1197 C1198 1.369 . S
C1197 C1199 1.419 . S
C1197 H1201 0.930 . S
C1198 C1197 1.369 . S
C1198 C1207 1.429 . S
C1199 C1197 1.419 . S
C1199 C1200 1.363 . S
C1199 H1202 0.929 . S
C1200 C1199 1.363 . S
C1200 C1206 1.428 . S
H1201 C1197 0.930 . S
H1202 C1199 0.929 . S
S1203 N1204 1.613 . S
S1203 N1205 1.617 . S
N1204 S1203 1.613 . S
N1204 C1207 1.350 . S
N1205 S1203 1.617 . S
N1205 C1206 1.384 . S
C1206 C1200 1.428 . S
C1206 N1205 1.384 . S
C1206 C1207 1.434 . S
C1207 C1198 1.429 . S
C1207 N1204 1.350 . S
C1207 C1206 1.434 . S
C1208 C1209 1.369 . S
C1208 C1210 1.419 . S
C1208 H1212 0.930 . S
C1209 C1208 1.369 . S
C1209 C1218 1.429 . S
C1210 C1208 1.419 . S
C1210 C1211 1.363 . S
C1210 H1213 0.929 . S
C1211 C1210 1.363 . S
C1211 C1217 1.428 . S
H1212 C1208 0.930 . S
H1213 C1210 0.929 . S
S1214 N1215 1.613 . S
S1214 N1216 1.610 . S
N1215 S1214 1.613 . S
N1215 C1218 1.350 . S
N1216 S1214 1.610 . S
N1216 C1217 1.351 . S
C1217 C1211 1.428 . S
C1217 N1216 1.351 . S
C1217 C1218 1.434 . S
C1218 C1209 1.429 . S
C1218 N1215 1.350 . S
C1218 C1217 1.434 . S
C1219 C1220 1.369 . S
C1219 C1221 1.419 . S
C1219 H1223 0.930 . S
C1220 C1219 1.369 . S
C1220 C1229 1.429 . S
C1221 C1219 1.419 . S
C1221 C1222 1.363 . S
C1221 H1224 0.929 . S
C1222 C1221 1.363 . S
C1222 C1228 1.428 . S
H1223 C1219 0.930 . S
H1224 C1221 0.929 . S
S1225 N1226 1.613 . S
S1225 N1227 1.601 1_556 S
N1226 S1225 1.613 . S
N1226 C1229 1.350 . S
N1227 S1225 1.601 1_554 S
N1227 C1228 1.300 1_554 S
C1228 C1222 1.428 . S
C1228 N1227 1.300 1_556 S
C1228 C1229 1.434 . S
C1229 C1220 1.429 . S
C1229 N1226 1.350 . S
C1229 C1228 1.434 . S
C1230 C1231 1.369 . S
C1230 C1232 1.419 . S
C1230 H1234 0.930 . S
C1231 C1230 1.369 . S
C1231 C1240 1.429 . S
C1232 C1230 1.419 . S
C1232 C1233 1.363 . S
C1232 H1235 0.929 . S
C1233 C1232 1.363 . S
C1233 C1239 1.428 . S
H1234 C1230 0.930 . S
H1235 C1232 0.929 . S
S1236 N1237 1.613 . S
S1236 N1238 1.610 . S
N1237 S1236 1.613 . S
N1237 C1240 1.350 . S
N1238 S1236 1.610 . S
N1238 C1239 1.351 . S
C1239 C1233 1.428 . S
C1239 N1238 1.351 . S
C1239 C1240 1.434 . S
C1240 C1231 1.429 . S
C1240 N1237 1.350 . S
C1240 C1239 1.434 . S
C1241 C1242 1.369 . S
C1241 C1243 1.419 . S
C1241 H1245 0.930 . S
C1242 C1241 1.369 . S
C1242 C1251 1.429 . S
C1243 C1241 1.419 . S
C1243 C1244 1.363 . S
C1243 H1246 0.929 . S
C1244 C1243 1.363 . S
C1244 C1250 1.428 . S
H1245 C1241 0.930 . S
H1246 C1243 0.929 . S
S1247 N1248 1.613 . S
S1247 N1249 1.610 . S
N1248 S1247 1.613 . S
N1248 C1251 1.350 . S
N1249 S1247 1.610 . S
N1249 C1250 1.351 . S
C1250 C1244 1.428 . S
C1250 N1249 1.351 . S
C1250 C1251 1.434 . S
C1251 C1242 1.429 . S
C1251 N1248 1.350 . S
C1251 C1250 1.434 . S
C1252 C1253 1.369 . S
C1252 C1254 1.419 . S
C1252 H1256 0.930 . S
C1253 C1252 1.369 . S
C1253 C1262 1.429 . S
C1254 C1252 1.419 . S
C1254 C1255 1.363 . S
C1254 H1257 0.929 . S
C1255 C1254 1.363 . S
C1255 C1261 1.428 . S
H1256 C1252 0.930 . S
H1257 C1254 0.929 . S
S1258 N1259 1.613 . S
S1258 N1260 1.610 . S
N1259 S1258 1.613 . S
N1259 C1262 1.350 . S
N1260 S1258 1.610 . S
N1260 C1261 1.351 . S
C1261 C1255 1.428 . S
C1261 N1260 1.351 . S
C1261 C1262 1.434 . S
C1262 C1253 1.429 . S
C1262 N1259 1.350 . S
C1262 C1261 1.434 . S
C1263 C1264 1.369 . S
C1263 C1265 1.419 . S
C1263 H1267 0.930 . S
C1264 C1263 1.369 . S
C1264 C1273 1.429 . S
C1265 C1263 1.419 . S
C1265 C1266 1.363 . S
C1265 H1268 0.929 . S
C1266 C1265 1.363 . S
C1266 C1272 1.428 . S
H1267 C1263 0.930 . S
H1268 C1265 0.929 . S
S1269 N1270 1.613 . S
S1269 N1271 1.610 . S
N1270 S1269 1.613 . S
N1270 C1273 1.350 . S
N1271 S1269 1.610 . S
N1271 C1272 1.351 . S
C1272 C1266 1.428 . S
C1272 N1271 1.351 . S
C1272 C1273 1.434 . S
C1273 C1264 1.429 . S
C1273 N1270 1.350 . S
C1273 C1272 1.434 . S
C1274 C1275 1.369 . S
C1274 C1276 1.419 . S
C1274 H1278 0.930 . S
C1275 C1274 1.369 . S
C1275 C1284 1.429 . S
C1276 C1274 1.419 . S
C1276 C1277 1.363 . S
C1276 H1279 0.929 . S
C1277 C1276 1.363 . S
C1277 C1283 1.428 . S
H1278 C1274 0.930 . S
H1279 C1276 0.929 . S
S1280 N1281 1.613 . S
S1280 N1282 1.610 . S
N1281 S1280 1.613 . S
N1281 C1284 1.350 . S
N1282 S1280 1.610 . S
N1282 C1283 1.351 . S
C1283 C1277 1.428 . S
C1283 N1282 1.351 . S
C1283 C1284 1.434 . S
C1284 C1275 1.429 . S
C1284 N1281 1.350 . S
C1284 C1283 1.434 . S
C1285 C1286 1.369 . S
C1285 C1287 1.419 . S
C1285 H1289 0.930 . S
C1286 C1285 1.369 . S
C1286 C1295 1.429 . S
C1287 C1285 1.419 . S
C1287 C1288 1.363 . S
C1287 H1290 0.929 . S
C1288 C1287 1.363 . S
C1288 C1294 1.428 . S
H1289 C1285 0.930 . S
H1290 C1287 0.929 . S
S1291 N1292 1.613 . S
S1291 N1293 1.610 . S
N1292 S1291 1.613 . S
N1292 C1295 1.350 . S
N1293 S1291 1.610 . S
N1293 C1294 1.351 . S
C1294 C1288 1.428 . S
C1294 N1293 1.351 . S
C1294 C1295 1.434 . S
C1295 C1286 1.429 . S
C1295 N1292 1.350 . S
C1295 C1294 1.434 . S
C1296 C1297 1.369 . S
C1296 C1298 1.419 . S
C1296 H1300 0.930 . S
C1297 C1296 1.369 . S
C1297 C1306 1.429 . S
C1298 C1296 1.419 . S
C1298 C1299 1.363 . S
C1298 H1301 0.929 . S
C1299 C1298 1.363 . S
C1299 C1305 1.428 . S
H1300 C1296 0.930 . S
H1301 C1298 0.929 . S
S1302 N1303 1.613 . S
S1302 N1304 1.610 . S
N1303 S1302 1.613 . S
N1303 C1306 1.350 . S
N1304 S1302 1.610 . S
N1304 C1305 1.351 . S
C1305 C1299 1.428 . S
C1305 N1304 1.351 . S
C1305 C1306 1.434 . S
C1306 C1297 1.429 . S
C1306 N1303 1.350 . S
C1306 C1305 1.434 . S
C1307 C1308 1.369 . S
C1307 C1309 1.419 . S
C1307 H1311 0.930 1_655 S
C1308 C1307 1.369 . S
C1308 C1317 1.429 . S
C1309 C1307 1.419 . S
C1309 C1310 1.363 . S
C1309 H1312 0.929 1_655 S
C1310 C1309 1.363 . S
C1310 C1316 1.428 . S
H1311 C1307 0.930 1_455 S
H1312 C1309 0.929 1_455 S
S1313 N1314 1.613 . S
S1313 N1315 1.610 . S
N1314 S1313 1.613 . S
N1314 C1317 1.350 . S
N1315 S1313 1.610 . S
N1315 C1316 1.351 . S
C1316 C1310 1.428 . S
C1316 N1315 1.351 . S
C1316 C1317 1.434 . S
C1317 C1308 1.429 . S
C1317 N1314 1.350 . S
C1317 C1316 1.434 . S
C1318 C1319 1.369 . S
C1318 C1320 1.419 . S
C1318 H1322 0.930 . S
C1319 C1318 1.369 . S
C1319 C1328 1.429 . S
C1320 C1318 1.419 . S
C1320 C1321 1.363 . S
C1320 H1323 0.929 . S
C1321 C1320 1.363 . S
C1321 C1327 1.428 . S
H1322 C1318 0.930 . S
H1323 C1320 0.929 . S
S1324 N1325 1.613 . S
S1324 N1326 1.610 . S
N1325 S1324 1.613 . S
N1325 C1328 1.350 . S
N1326 S1324 1.610 . S
N1326 C1327 1.351 . S
C1327 C1321 1.428 . S
C1327 N1326 1.351 . S
C1327 C1328 1.434 . S
C1328 C1319 1.429 . S
C1328 N1325 1.350 . S
C1328 C1327 1.434 . S
C1329 C1330 1.369 . S
C1329 C1331 1.419 . S
C1329 H1333 0.930 1_455 S
C1330 C1329 1.369 . S
C1330 C1339 1.429 . S
C1331 C1329 1.419 . S
C1331 C1332 1.363 . S
C1331 H1334 0.929 1_455 S
C1332 C1331 1.363 . S
C1332 C1338 1.428 . S
H1333 C1329 0.930 1_655 S
H1334 C1331 0.929 1_655 S
S1335 N1336 1.613 . S
S1335 N1337 1.610 . S
N1336 S1335 1.613 . S
N1336 C1339 1.350 . S
N1337 S1335 1.610 . S
N1337 C1338 1.351 . S
C1338 C1332 1.428 . S
C1338 N1337 1.351 . S
C1338 C1339 1.434 . S
C1339 C1330 1.429 . S
C1339 N1336 1.350 . S
C1339 C1338 1.434 . S
C1340 C1341 1.369 . S
C1340 C1342 1.419 . S
C1340 H1344 0.930 . S
C1341 C1340 1.369 . S
C1341 C1350 1.429 . S
C1342 C1340 1.419 . S
C1342 C1343 1.363 . S
C1342 H1345 0.929 . S
C1343 C1342 1.363 . S
C1343 C1349 1.428 . S
H1344 C1340 0.930 . S
H1345 C1342 0.929 . S
S1346 N1347 1.613 . S
S1346 N1348 1.610 . S
N1347 S1346 1.613 . S
N1347 C1350 1.350 . S
N1348 S1346 1.610 . S
N1348 C1349 1.351 . S
C1349 C1343 1.428 . S
C1349 N1348 1.351 . S
C1349 C1350 1.434 . S
C1350 C1341 1.429 . S
C1350 N1347 1.350 . S
C1350 C1349 1.434 . S
C1351 C1352 1.369 1_545 S
C1351 C1353 1.419 . S
C1351 H1355 0.930 . S
C1352 C1351 1.369 1_565 S
C1352 C1361 1.429 . S
C1353 C1351 1.419 . S
C1353 C1354 1.363 1_545 S
C1353 H1356 0.929 . S
C1354 C1353 1.363 1_565 S
C1354 C1360 1.428 . S
H1355 C1351 0.930 . S
H1356 C1353 0.929 . S
S1357 N1358 1.613 . S
S1357 N1359 1.610 . S
N1358 S1357 1.613 . S
N1358 C1361 1.350 . S
N1359 S1357 1.610 . S
N1359 C1360 1.351 . S
C1360 C1354 1.428 . S
C1360 N1359 1.351 . S
C1360 C1361 1.434 . S
C1361 C1352 1.429 . S
C1361 N1358 1.350 . S
C1361 C1360 1.434 . S
C1362 C1363 1.369 . S
C1362 C1364 1.419 . S
C1362 H1366 0.930 1_565 S
C1363 C1362 1.369 . S
C1363 C1372 1.429 . S
C1364 C1362 1.419 . S
C1364 C1365 1.363 . S
C1364 H1367 0.931 . S
C1365 C1364 1.363 . S
C1365 C1371 1.428 . S
H1366 C1362 0.930 1_545 S
H1367 C1364 0.931 . S
S1368 N1369 1.613 . S
S1368 N1370 1.610 . S
N1369 S1368 1.613 . S
N1369 C1372 1.350 . S
N1370 S1368 1.610 . S
N1370 C1371 1.351 . S
C1371 C1365 1.428 . S
C1371 N1370 1.351 . S
C1371 C1372 1.434 . S
C1372 C1363 1.429 . S
C1372 N1369 1.350 . S
C1372 C1371 1.434 . S
C1373 C1374 1.369 . S
C1373 C1375 1.419 . S
C1373 H1377 0.930 . S
C1374 C1373 1.369 . S
C1374 C1383 1.429 . S
C1375 C1373 1.419 . S
C1375 C1376 1.363 . S
C1375 H1378 0.929 . S
C1376 C1375 1.363 . S
C1376 C1382 1.428 . S
H1377 C1373 0.930 . S
H1378 C1375 0.929 . S
S1379 N1380 1.613 . S
S1379 N1381 1.610 . S
N1380 S1379 1.613 . S
N1380 C1383 1.350 1_655 S
N1381 S1379 1.610 . S
N1381 C1382 1.351 1_655 S
C1382 C1376 1.428 . S
C1382 N1381 1.351 1_455 S
C1382 C1383 1.434 . S
C1383 C1374 1.429 . S
C1383 N1380 1.350 1_455 S
C1383 C1382 1.434 . S
C1384 C1385 1.369 . S
C1384 C1386 1.419 . S
C1384 H1388 0.930 . S
C1385 C1384 1.369 . S
C1385 C1394 1.429 . S
C1386 C1384 1.419 . S
C1386 C1387 1.363 . S
C1386 H1389 0.929 . S
C1387 C1386 1.363 . S
C1387 C1393 1.428 . S
H1388 C1384 0.930 . S
H1389 C1386 0.929 . S
S1390 N1391 1.613 . S
S1390 N1392 1.610 . S
N1391 S1390 1.613 . S
N1391 C1394 1.350 . S
N1392 S1390 1.610 . S
N1392 C1393 1.351 . S
C1393 C1387 1.428 . S
C1393 N1392 1.351 . S
C1393 C1394 1.434 . S
C1394 C1385 1.429 . S
C1394 N1391 1.350 . S
C1394 C1393 1.434 . S
C1395 C1396 1.369 . S
C1395 C1397 1.419 . S
C1395 H1399 0.930 . S
C1396 C1395 1.369 . S
C1396 C1405 1.429 1_655 S
C1397 C1395 1.419 . S
C1397 C1398 1.363 . S
C1397 H1400 0.929 . S
C1398 C1397 1.363 . S
C1398 C1404 1.423 1_655 S
H1399 C1395 0.930 . S
H1400 C1397 0.929 . S
S1401 N1402 1.613 . S
S1401 N1403 1.610 . S
N1402 S1401 1.613 . S
N1402 C1405 1.350 . S
N1403 S1401 1.610 . S
N1403 C1404 1.352 . S
C1404 C1398 1.423 1_455 S
C1404 N1403 1.352 . S
C1404 C1405 1.439 . S
C1405 C1396 1.429 1_455 S
C1405 N1402 1.350 . S
C1405 C1404 1.439 . S
C1406 C1407 1.369 . S
C1406 C1408 1.419 . S
C1406 H1410 0.930 . S
C1407 C1406 1.369 . S
C1407 C1416 1.429 . S
C1408 C1406 1.419 . S
C1408 C1409 1.363 . S
C1408 H1411 0.929 . S
C1409 C1408 1.363 . S
C1409 C1415 1.428 . S
H1410 C1406 0.930 . S
H1411 C1408 0.929 . S
S1412 N1413 1.613 . S
S1412 N1414 1.610 . S
N1413 S1412 1.613 . S
N1413 C1416 1.350 . S
N1414 S1412 1.610 . S
N1414 C1415 1.351 . S
C1415 C1409 1.428 . S
C1415 N1414 1.351 . S
C1415 C1416 1.434 . S
C1416 C1407 1.429 . S
C1416 N1413 1.350 . S
C1416 C1415 1.434 . S
C1417 C1418 1.369 . S
C1417 C1419 1.419 . S
C1417 H1421 0.930 . S
C1418 C1417 1.369 . S
C1418 C1427 1.429 . S
C1419 C1417 1.419 . S
C1419 C1420 1.363 . S
C1419 H1422 0.929 . S
C1420 C1419 1.363 . S
C1420 C1426 1.428 . S
H1421 C1417 0.930 . S
H1422 C1419 0.929 . S
S1423 N1424 1.613 . S
S1423 N1425 1.610 . S
N1424 S1423 1.613 . S
N1424 C1427 1.350 . S
N1425 S1423 1.610 . S
N1425 C1426 1.351 . S
C1426 C1420 1.428 . S
C1426 N1425 1.351 . S
C1426 C1427 1.434 . S
C1427 C1418 1.429 . S
C1427 N1424 1.350 . S
C1427 C1426 1.434 . S
C1428 C1429 1.369 . S
C1428 C1430 1.419 . S
C1428 H1432 0.930 . S
C1429 C1428 1.369 . S
C1429 C1438 1.429 . S
C1430 C1428 1.419 . S
C1430 C1431 1.363 . S
C1430 H1433 0.929 . S
C1431 C1430 1.363 . S
C1431 C1437 1.428 . S
H1432 C1428 0.930 . S
H1433 C1430 0.929 . S
S1434 N1435 1.613 . S
S1434 N1436 1.610 . S
N1435 S1434 1.613 . S
N1435 C1438 1.350 . S
N1436 S1434 1.610 . S
N1436 C1437 1.351 . S
C1437 C1431 1.428 . S
C1437 N1436 1.351 . S
C1437 C1438 1.434 . S
C1438 C1429 1.429 . S
C1438 N1435 1.350 . S
C1438 C1437 1.434 . S
C1439 C1440 1.369 . S
C1439 C1441 1.419 . S
C1439 H1443 0.930 . S
C1440 C1439 1.369 . S
C1440 C1449 1.429 . S
C1441 C1439 1.419 . S
C1441 C1442 1.363 . S
C1441 H1444 0.929 . S
C1442 C1441 1.363 . S
C1442 C1448 1.428 . S
H1443 C1439 0.930 . S
H1444 C1441 0.929 . S
S1445 N1446 1.613 . S
S1445 N1447 1.610 . S
N1446 S1445 1.613 . S
N1446 C1449 1.350 . S
N1447 S1445 1.610 . S
N1447 C1448 1.351 . S
C1448 C1442 1.428 . S
C1448 N1447 1.351 . S
C1448 C1449 1.434 . S
C1449 C1440 1.429 . S
C1449 N1446 1.350 . S
C1449 C1448 1.434 . S
C1450 C1451 1.369 . S
C1450 C1452 1.419 . S
C1450 H1454 0.930 . S
C1451 C1450 1.369 . S
C1451 C1460 1.429 . S
C1452 C1450 1.419 . S
C1452 C1453 1.363 . S
C1452 H1455 0.929 . S
C1453 C1452 1.363 . S
C1453 C1459 1.428 . S
H1454 C1450 0.930 . S
H1455 C1452 0.929 . S
S1456 N1457 1.613 . S
S1456 N1458 1.610 . S
N1457 S1456 1.613 . S
N1457 C1460 1.350 . S
N1458 S1456 1.610 . S
N1458 C1459 1.351 . S
C1459 C1453 1.428 . S
C1459 N1458 1.351 . S
C1459 C1460 1.434 . S
C1460 C1451 1.429 . S
C1460 N1457 1.350 . S
C1460 C1459 1.434 . S
C1461 C1462 1.369 . S
C1461 C1463 1.419 . S
C1461 H1465 0.930 . S
C1462 C1461 1.369 . S
C1462 C1471 1.429 . S
C1463 C1461 1.419 . S
C1463 C1464 1.363 . S
C1463 H1466 0.929 . S
C1464 C1463 1.363 . S
C1464 C1470 1.428 . S
H1465 C1461 0.930 . S
H1466 C1463 0.929 . S
S1467 N1468 1.613 . S
S1467 N1469 1.610 . S
N1468 S1467 1.613 . S
N1468 C1471 1.350 . S
N1469 S1467 1.610 . S
N1469 C1470 1.351 . S
C1470 C1464 1.428 . S
C1470 N1469 1.351 . S
C1470 C1471 1.434 . S
C1471 C1462 1.429 . S
C1471 N1468 1.350 . S
C1471 C1470 1.434 . S
C1472 C1473 1.369 . S
C1472 C1474 1.419 . S
C1472 H1476 0.930 . S
C1473 C1472 1.369 . S
C1473 C1482 1.429 . S
C1474 C1472 1.419 . S
C1474 C1475 1.363 . S
C1474 H1477 0.929 . S
C1475 C1474 1.363 . S
C1475 C1481 1.428 . S
H1476 C1472 0.930 . S
H1477 C1474 0.929 . S
S1478 N1479 1.613 . S
S1478 N1480 1.610 . S
N1479 S1478 1.613 . S
N1479 C1482 1.350 . S
N1480 S1478 1.610 . S
N1480 C1481 1.351 . S
C1481 C1475 1.428 . S
C1481 N1480 1.351 . S
C1481 C1482 1.434 . S
C1482 C1473 1.429 . S
C1482 N1479 1.350 . S
C1482 C1481 1.434 . S
C1483 C1484 1.369 . S
C1483 C1485 1.419 . S
C1483 H1487 0.930 . S
C1484 C1483 1.369 . S
C1484 C1493 1.429 . S
C1485 C1483 1.419 . S
C1485 C1486 1.363 . S
C1485 H1488 0.929 . S
C1486 C1485 1.363 . S
C1486 C1492 1.428 . S
H1487 C1483 0.930 . S
H1488 C1485 0.929 . S
S1489 N1490 1.613 . S
S1489 N1491 1.610 . S
N1490 S1489 1.613 . S
N1490 C1493 1.350 . S
N1491 S1489 1.610 . S
N1491 C1492 1.351 . S
C1492 C1486 1.428 . S
C1492 N1491 1.351 . S
C1492 C1493 1.434 . S
C1493 C1484 1.429 . S
C1493 N1490 1.350 . S
C1493 C1492 1.434 . S
C1494 C1495 1.369 . S
C1494 C1496 1.419 . S
C1494 H1498 0.930 . S
C1495 C1494 1.369 . S
C1495 C1504 1.429 . S
C1496 C1494 1.419 . S
C1496 C1497 1.363 . S
C1496 H1499 0.929 . S
C1497 C1496 1.363 . S
C1497 C1503 1.428 . S
H1498 C1494 0.930 . S
H1499 C1496 0.929 . S
S1500 N1501 1.613 . S
S1500 N1502 1.610 . S
N1501 S1500 1.613 . S
N1501 C1504 1.350 . S
N1502 S1500 1.610 . S
N1502 C1503 1.351 . S
C1503 C1497 1.428 . S
C1503 N1502 1.351 . S
C1503 C1504 1.434 . S
C1504 C1495 1.429 . S
C1504 N1501 1.350 . S
C1504 C1503 1.434 . S
C1505 C1506 1.369 . S
C1505 C1507 1.419 . S
C1505 H1509 0.930 . S
C1506 C1505 1.369 . S
C1506 C1515 1.429 . S
C1507 C1505 1.419 . S
C1507 C1508 1.363 . S
C1507 H1510 0.929 . S
C1508 C1507 1.363 . S
C1508 C1514 1.428 . S
H1509 C1505 0.930 . S
H1510 C1507 0.929 . S
S1511 N1512 1.613 . S
S1511 N1513 1.610 . S
N1512 S1511 1.613 . S
N1512 C1515 1.350 . S
N1513 S1511 1.610 . S
N1513 C1514 1.351 . S
C1514 C1508 1.428 . S
C1514 N1513 1.351 . S
C1514 C1515 1.434 . S
C1515 C1506 1.429 . S
C1515 N1512 1.350 . S
C1515 C1514 1.434 . S
C1516 C1517 1.369 . S
C1516 C1518 1.419 . S
C1516 H1520 0.930 . S
C1517 C1516 1.369 . S
C1517 C1526 1.429 . S
C1518 C1516 1.419 . S
C1518 C1519 1.363 . S
C1518 H1521 0.929 . S
C1519 C1518 1.363 . S
C1519 C1525 1.428 . S
H1520 C1516 0.930 . S
H1521 C1518 0.929 . S
S1522 N1523 1.613 . S
S1522 N1524 1.610 . S
N1523 S1522 1.613 . S
N1523 C1526 1.350 . S
N1524 S1522 1.610 . S
N1524 C1525 1.351 . S
C1525 C1519 1.428 . S
C1525 N1524 1.351 . S
C1525 C1526 1.434 . S
C1526 C1517 1.429 . S
C1526 N1523 1.350 . S
C1526 C1525 1.434 . S
C1527 C1528 1.369 . S
C1527 C1529 1.419 . S
C1527 H1531 0.930 . S
C1528 C1527 1.369 . S
C1528 C1537 1.429 . S
C1529 C1527 1.419 . S
C1529 C1530 1.363 . S
C1529 H1532 0.929 . S
C1530 C1529 1.363 . S
C1530 C1536 1.428 . S
H1531 C1527 0.930 . S
H1532 C1529 0.929 . S
S1533 N1534 1.613 . S
S1533 N1535 1.610 . S
N1534 S1533 1.613 . S
N1534 C1537 1.350 . S
N1535 S1533 1.610 . S
N1535 C1536 1.351 . S
C1536 C1530 1.428 . S
C1536 N1535 1.351 . S
C1536 C1537 1.434 . S
C1537 C1528 1.429 . S
C1537 N1534 1.350 . S
C1537 C1536 1.434 . S
C1538 C1539 1.369 . S
C1538 C1540 1.419 . S
C1538 H1542 0.930 . S
C1539 C1538 1.369 . S
C1539 C1548 1.429 . S
C1540 C1538 1.419 . S
C1540 C1541 1.363 . S
C1540 H1543 0.929 . S
C1541 C1540 1.363 . S
C1541 C1547 1.428 . S
H1542 C1538 0.930 . S
H1543 C1540 0.929 . S
S1544 N1545 1.613 . S
S1544 N1546 1.610 . S
N1545 S1544 1.613 . S
N1545 C1548 1.350 . S
N1546 S1544 1.610 . S
N1546 C1547 1.351 . S
C1547 C1541 1.428 . S
C1547 N1546 1.351 . S
C1547 C1548 1.434 . S
C1548 C1539 1.429 . S
C1548 N1545 1.350 . S
C1548 C1547 1.434 . S
C1549 C1550 1.369 . S
C1549 C1551 1.419 . S
C1549 H1553 0.930 . S
C1550 C1549 1.369 . S
C1550 C1559 1.429 . S
C1551 C1549 1.419 . S
C1551 C1552 1.363 . S
C1551 H1554 0.929 . S
C1552 C1551 1.363 . S
C1552 C1558 1.428 . S
H1553 C1549 0.930 . S
H1554 C1551 0.929 . S
S1555 N1556 1.613 . S
S1555 N1557 1.610 . S
N1556 S1555 1.613 . S
N1556 C1559 1.350 . S
N1557 S1555 1.610 . S
N1557 C1558 1.351 . S
C1558 C1552 1.428 . S
C1558 N1557 1.351 . S
C1558 C1559 1.434 . S
C1559 C1550 1.429 . S
C1559 N1556 1.350 . S
C1559 C1558 1.434 . S
C1560 C1561 1.369 . S
C1560 C1562 1.419 . S
C1560 H1564 0.930 . S
C1561 C1560 1.369 . S
C1561 C1570 1.429 . S
C1562 C1560 1.419 . S
C1562 C1563 1.363 . S
C1562 H1565 0.929 . S
C1563 C1562 1.363 . S
C1563 C1569 1.428 . S
H1564 C1560 0.930 . S
H1565 C1562 0.929 . S
S1566 N1567 1.613 . S
S1566 N1568 1.610 . S
N1567 S1566 1.613 . S
N1567 C1570 1.350 . S
N1568 S1566 1.610 . S
N1568 C1569 1.351 . S
C1569 C1563 1.428 . S
C1569 N1568 1.351 . S
C1569 C1570 1.434 . S
C1570 C1561 1.429 . S
C1570 N1567 1.350 . S
C1570 C1569 1.434 . S
C1571 C1572 1.369 . S
C1571 C1573 1.419 . S
C1571 H1575 0.930 . S
C1572 C1571 1.369 . S
C1572 C1581 1.429 . S
C1573 C1571 1.419 . S
C1573 C1574 1.363 . S
C1573 H1576 0.929 . S
C1574 C1573 1.363 . S
C1574 C1580 1.428 . S
H1575 C1571 0.930 . S
H1576 C1573 0.929 . S
S1577 N1578 1.613 . S
S1577 N1579 1.610 . S
N1578 S1577 1.613 . S
N1578 C1581 1.350 . S
N1579 S1577 1.610 . S
N1579 C1580 1.351 . S
C1580 C1574 1.428 . S
C1580 N1579 1.351 . S
C1580 C1581 1.434 . S
C1581 C1572 1.429 . S
C1581 N1578 1.350 . S
C1581 C1580 1.434 . S
C1582 C1583 1.369 . S
C1582 C1584 1.419 . S
C1582 H1586 0.930 . S
C1583 C1582 1.369 . S
C1583 C1592 1.429 . S
C1584 C1582 1.419 . S
C1584 C1585 1.363 . S
C1584 H1587 0.929 . S
C1585 C1584 1.363 . S
C1585 C1591 1.428 . S
H1586 C1582 0.930 . S
H1587 C1584 0.929 . S
S1588 N1589 1.613 . S
S1588 N1590 1.610 . S
N1589 S1588 1.613 . S
N1589 C1592 1.350 . S
N1590 S1588 1.610 . S
N1590 C1591 1.351 . S
C1591 C1585 1.428 . S
C1591 N1590 1.351 . S
C1591 C1592 1.434 . S
C1592 C1583 1.429 . S
C1592 N1589 1.350 . S
C1592 C1591 1.434 . S
C1593 C1594 1.369 . S
C1593 C1595 1.419 . S
C1593 H1597 0.930 . S
C1594 C1593 1.369 . S
C1594 C1603 1.429 . S
C1595 C1593 1.419 . S
C1595 C1596 1.363 . S
C1595 H1598 0.929 . S
C1596 C1595 1.363 . S
C1596 C1602 1.428 . S
H1597 C1593 0.930 . S
H1598 C1595 0.929 . S
S1599 N1600 1.613 . S
S1599 N1601 1.610 . S
N1600 S1599 1.613 . S
N1600 C1603 1.350 . S
N1601 S1599 1.610 . S
N1601 C1602 1.351 . S
C1602 C1596 1.428 . S
C1602 N1601 1.351 . S
C1602 C1603 1.434 . S
C1603 C1594 1.429 . S
C1603 N1600 1.350 . S
C1603 C1602 1.434 . S
C1604 C1605 1.369 . S
C1604 C1606 1.419 . S
C1604 H1608 0.930 . S
C1605 C1604 1.369 . S
C1605 C1614 1.429 . S
C1606 C1604 1.419 . S
C1606 C1607 1.363 . S
C1606 H1609 0.929 . S
C1607 C1606 1.363 . S
C1607 C1613 1.428 . S
H1608 C1604 0.930 . S
H1609 C1606 0.929 . S
S1610 N1611 1.613 . S
S1610 N1612 1.610 . S
N1611 S1610 1.613 . S
N1611 C1614 1.350 . S
N1612 S1610 1.610 . S
N1612 C1613 1.351 . S
C1613 C1607 1.428 . S
C1613 N1612 1.351 . S
C1613 C1614 1.434 . S
C1614 C1605 1.429 . S
C1614 N1611 1.350 . S
C1614 C1613 1.434 . S
C1615 C1616 1.369 . S
C1615 C1617 1.419 . S
C1615 H1619 0.930 . S
C1616 C1615 1.369 . S
C1616 C1625 1.429 . S
C1617 C1615 1.419 . S
C1617 C1618 1.363 . S
C1617 H1620 0.929 . S
C1618 C1617 1.363 . S
C1618 C1624 1.428 . S
H1619 C1615 0.930 . S
H1620 C1617 0.929 . S
S1621 N1622 1.613 . S
S1621 N1623 1.610 . S
N1622 S1621 1.613 . S
N1622 C1625 1.350 . S
N1623 S1621 1.610 . S
N1623 C1624 1.351 . S
C1624 C1618 1.428 . S
C1624 N1623 1.351 . S
C1624 C1625 1.434 . S
C1625 C1616 1.429 . S
C1625 N1622 1.350 . S
C1625 C1624 1.434 . S
C1626 C1627 1.369 . S
C1626 C1628 1.419 . S
C1626 H1630 0.930 . S
C1627 C1626 1.369 . S
C1627 C1636 1.429 . S
C1628 C1626 1.419 . S
C1628 C1629 1.363 . S
C1628 H1631 0.929 . S
C1629 C1628 1.363 . S
C1629 C1635 1.428 . S
H1630 C1626 0.930 . S
H1631 C1628 0.929 . S
S1632 N1633 1.613 . S
S1632 N1634 1.610 . S
N1633 S1632 1.613 . S
N1633 C1636 1.350 . S
N1634 S1632 1.610 . S
N1634 C1635 1.351 . S
C1635 C1629 1.428 . S
C1635 N1634 1.351 . S
C1635 C1636 1.434 . S
C1636 C1627 1.429 . S
C1636 N1633 1.350 . S
C1636 C1635 1.434 . S
C1637 C1638 1.369 . S
C1637 C1639 1.419 . S
C1637 H1641 0.930 . S
C1638 C1637 1.369 . S
C1638 C1647 1.429 . S
C1639 C1637 1.419 . S
C1639 C1640 1.363 . S
C1639 H1642 0.929 . S
C1640 C1639 1.363 . S
C1640 C1646 1.428 . S
H1641 C1637 0.930 . S
H1642 C1639 0.929 . S
S1643 N1644 1.613 . S
S1643 N1645 1.610 . S
N1644 S1643 1.613 . S
N1644 C1647 1.350 . S
N1645 S1643 1.610 . S
N1645 C1646 1.351 . S
C1646 C1640 1.428 . S
C1646 N1645 1.351 . S
C1646 C1647 1.434 . S
C1647 C1638 1.429 . S
C1647 N1644 1.350 . S
C1647 C1646 1.434 . S
C1648 C1649 1.369 . S
C1648 C1650 1.419 . S
C1648 H1652 0.930 . S
C1649 C1648 1.369 . S
C1649 C1658 1.429 . S
C1650 C1648 1.419 . S
C1650 C1651 1.363 . S
C1650 H1653 0.929 . S
C1651 C1650 1.363 . S
C1651 C1657 1.428 . S
H1652 C1648 0.930 . S
H1653 C1650 0.929 . S
S1654 N1655 1.613 . S
S1654 N1656 1.610 . S
N1655 S1654 1.613 . S
N1655 C1658 1.350 . S
N1656 S1654 1.610 . S
N1656 C1657 1.351 . S
C1657 C1651 1.428 . S
C1657 N1656 1.351 . S
C1657 C1658 1.434 . S
C1658 C1649 1.429 . S
C1658 N1655 1.350 . S
C1658 C1657 1.434 . S
C1659 C1660 1.369 . S
C1659 C1661 1.419 . S
C1659 H1663 0.930 . S
C1660 C1659 1.369 . S
C1660 C1669 1.429 . S
C1661 C1659 1.419 . S
C1661 C1662 1.363 . S
C1661 H1664 0.929 . S
C1662 C1661 1.363 . S
C1662 C1668 1.428 . S
H1663 C1659 0.930 . S
H1664 C1661 0.929 . S
S1665 N1666 1.613 . S
S1665 N1667 1.610 . S
N1666 S1665 1.613 . S
N1666 C1669 1.350 . S
N1667 S1665 1.610 . S
N1667 C1668 1.351 . S
C1668 C1662 1.428 . S
C1668 N1667 1.351 . S
C1668 C1669 1.434 . S
C1669 C1660 1.429 . S
C1669 N1666 1.350 . S
C1669 C1668 1.434 . S
C1670 C1671 1.369 . S
C1670 C1672 1.419 . S
C1670 H1674 0.930 . S
C1671 C1670 1.369 . S
C1671 C1680 1.429 . S
C1672 C1670 1.419 . S
C1672 C1673 1.363 . S
C1672 H1675 0.929 . S
C1673 C1672 1.363 . S
C1673 C1679 1.428 . S
H1674 C1670 0.930 . S
H1675 C1672 0.929 . S
S1676 N1677 1.613 . S
S1676 N1678 1.610 . S
N1677 S1676 1.613 . S
N1677 C1680 1.350 . S
N1678 S1676 1.610 . S
N1678 C1679 1.351 . S
C1679 C1673 1.428 . S
C1679 N1678 1.351 . S
C1679 C1680 1.434 . S
C1680 C1671 1.429 . S
C1680 N1677 1.350 . S
C1680 C1679 1.434 . S
C1681 C1682 1.369 . S
C1681 C1683 1.419 . S
C1681 H1685 0.930 . S
C1682 C1681 1.369 . S
C1682 C1691 1.429 . S
C1683 C1681 1.419 . S
C1683 C1684 1.363 . S
C1683 H1686 0.929 . S
C1684 C1683 1.363 . S
C1684 C1690 1.428 . S
H1685 C1681 0.930 . S
H1686 C1683 0.929 . S
S1687 N1688 1.613 . S
S1687 N1689 1.610 . S
N1688 S1687 1.613 . S
N1688 C1691 1.350 . S
N1689 S1687 1.610 . S
N1689 C1690 1.351 . S
C1690 C1684 1.428 . S
C1690 N1689 1.351 . S
C1690 C1691 1.434 . S
C1691 C1682 1.429 . S
C1691 N1688 1.350 . S
C1691 C1690 1.434 . S
C901 C76 1.322 . S
C903 C652 1.137 . S
C912 C4 1.308 . S
C914 C668 1.139 . S
C925 C651 1.246 . S
C923 C38 1.422 . S
C936 C676 1.255 . S
C934 C74 1.440 . S
C945 C2 1.371 . S
C947 C685 1.223 . S
C958 C688 1.127 . S
C956 C40 1.282 . S
C967 C182 1.418 . S
C969 C694 1.235 . S
C980 C710 1.151 . S
C978 C112 1.333 . S
C991 C693 1.139 . S
C989 C148 1.294 . S
C1000 C184 1.302 . S
C1002 C718 1.126 . S
C1013 C727 1.234 . S
C1011 C110 1.396 . S
C1024 C730 1.216 . S
C1022 C146 1.388 . S
C1035 C739 1.134 . S
C1033 C292 1.317 . S
C1046 C751 1.124 . S
C1044 C220 1.306 . S
C1057 C748 1.253 . S
C1055 C254 1.428 . S
C1066 C290 1.438 . S
C1068 C757 1.260 . S
C1079 C756 1.209 . S
C1077 C218 1.367 . S
C1088 C256 1.281 . S
C1090 C773 1.116 . S
C1101 C778 1.228 . S
C1099 C398 1.423 . S
C1112 C794 1.160 . S
C1110 C328 1.332 . S
C1121 C364 1.292 . S
C1123 C777 1.127 . S
C1134 C802 1.125 . S
C1132 C400 1.297 . S
C1145 C811 1.236 . S
C1143 C326 1.393 . S
C1154 C362 1.385 . S
C1156 C814 1.220 . S
C1165 C508 1.316 . S
C1167 C823 1.134 . S
C1178 C835 1.139 . S
C1176 C436 1.308 . S
C1189 C832 1.246 . S
C1187 C470 1.424 . S
C1198 C506 1.436 . S
C1200 C841 1.261 . S
C1211 C840 1.223 . S
C1209 C434 1.370 . S
C1220 C472 1.283 . S
C1222 C857 1.122 . S
C1233 C862 1.231 . S
C1231 C614 1.419 . S
C1244 C878 1.161 . S
C1242 C544 1.332 . S
C1253 C580 1.292 . S
C1255 C861 1.127 . S
C1266 C883 1.138 . S
C1264 C616 1.297 . S
C1277 C882 1.249 . S
C1275 C542 1.397 . S
C1288 C899 1.212 . S
C1286 C578 1.388 . S
C1299 C664 1.447 . S
C1297 C399 1.540 . S
C1308 C338 1.526 . S
C1310 C667 1.525 . S
C1321 C655 1.445 . S
C1319 C374 1.471 . S
C1330 C626 1.476 . S
C1332 C672 1.466 . S
C1341 C543 1.632 . S
C1343 C673 1.517 . S
C1354 C689 1.408 1_565 S
C1352 C579 1.497 . S
C1365 C706 1.536 . S
C1363 C518 1.553 . S
C1376 C709 1.401 . S
C1374 C446 1.419 . S
C1385 C471 1.574 . S
C1387 C697 1.486 . S
C1398 C714 1.494 . S
C1396 C291 1.591 . S
C1407 C219 1.502 . S
C1409 C715 1.399 . S
C1418 C266 1.515 . S
C1420 C731 1.492 . S
C1429 C615 1.541 . S
C1431 C735 1.447 . S
C1440 C554 1.526 . S
C1442 C752 1.525 . S
C1453 C736 1.445 . S
C1451 C590 1.464 . S
C1464 C769 1.460 . S
C1462 C194 1.478 . S
C1475 C760 1.519 . S
C1473 C111 1.630 . S
C1484 C147 1.501 . S
C1486 C772 1.412 . S
C1497 C790 1.535 . S
C1495 C86 1.555 . S
C1508 C793 1.399 . S
C1506 C14 1.416 . S
C1517 C39 1.574 . S
C1519 C781 1.486 . S
C1530 C798 1.494 . S
C1528 C507 1.590 . S
C1541 C799 1.393 . S
C1539 C435 1.504 . S
C1552 C815 1.500 . S
C1550 C482 1.507 . S
C1563 C819 1.447 . S
C1561 C183 1.541 . S
C1574 C836 1.519 . S
C1572 C122 1.532 . S
C1583 C158 1.468 . S
C1585 C820 1.443 . S
C1594 C410 1.486 . S
C1596 C853 1.459 . S
C1605 C327 1.629 . S
C1607 C844 1.516 . S
C1618 C856 1.406 . S
C1616 C363 1.499 . S
C1627 C302 1.546 . S
C1629 C874 1.545 . S
C1638 C230 1.414 . S
C1640 C877 1.400 . S
C1651 C865 1.485 . S
C1649 C255 1.574 . S
C1662 C895 1.492 . S
C1660 C75 1.590 . S
C1673 C886 1.393 . S
C1671 C3 1.503 . S
C1682 C50 1.508 . S
C1684 C898 1.501 . S
