# Generated by pormake.
# Topology zzz, (3,6)-cn, num edge types: 1
# Building blocks:
#     Node 0, Type 0, BuildingBlock: WUSLED_clean_sbu_0, # of connection points: 3
#     Node 1, Type 0, BuildingBlock: WUSLED_clean_sbu_0, # of connection points: 3
#     Node 2, Type 0, BuildingBlock: WUSLED_clean_sbu_0, # of connection points: 3
#     Node 3, Type 0, BuildingBlock: WUSLED_clean_sbu_0, # of connection points: 3
#     Node 4, Type 0, BuildingBlock: WUSLED_clean_sbu_0, # of connection points: 3
#     Node 5, Type 0, BuildingBlock: WUSLED_clean_sbu_0, # of connection points: 3
#     Node 6, Type 0, BuildingBlock: WUSLED_clean_sbu_0, # of connection points: 3
#     Node 7, Type 0, BuildingBlock: WUSLED_clean_sbu_0, # of connection points: 3
#     Node 8, Type 1, BuildingBlock: JUFBIX_clean_sbu_0, # of connection points: 6
#     Node 9, Type 1, BuildingBlock: JUFBIX_clean_sbu_0, # of connection points: 6
#     Node 10, Type 1, BuildingBlock: JUFBIX_clean_sbu_0, # of connection points: 6
#     Node 11, Type 1, BuildingBlock: JUFBIX_clean_sbu_0, # of connection points: 6
#     Edge 12, Type (0, 1), BuildingBlock: AJUNOK_clean_linker_0, # of connection points: 2
#     Edge 13, Type (0, 1), BuildingBlock: AJUNOK_clean_linker_0, # of connection points: 2
#     Edge 14, Type (0, 1), BuildingBlock: AJUNOK_clean_linker_0, # of connection points: 2
#     Edge 15, Type (0, 1), BuildingBlock: AJUNOK_clean_linker_0, # of connection points: 2
#     Edge 16, Type (0, 1), BuildingBlock: AJUNOK_clean_linker_0, # of connection points: 2
#     Edge 17, Type (0, 1), BuildingBlock: AJUNOK_clean_linker_0, # of connection points: 2
#     Edge 18, Type (0, 1), BuildingBlock: AJUNOK_clean_linker_0, # of connection points: 2
#     Edge 19, Type (0, 1), BuildingBlock: AJUNOK_clean_linker_0, # of connection points: 2
#     Edge 20, Type (0, 1), BuildingBlock: AJUNOK_clean_linker_0, # of connection points: 2
#     Edge 21, Type (0, 1), BuildingBlock: AJUNOK_clean_linker_0, # of connection points: 2
#     Edge 22, Type (0, 1), BuildingBlock: AJUNOK_clean_linker_0, # of connection points: 2
#     Edge 23, Type (0, 1), BuildingBlock: AJUNOK_clean_linker_0, # of connection points: 2
#     Edge 24, Type (0, 1), BuildingBlock: AJUNOK_clean_linker_0, # of connection points: 2
#     Edge 25, Type (0, 1), BuildingBlock: AJUNOK_clean_linker_0, # of connection points: 2
#     Edge 26, Type (0, 1), BuildingBlock: AJUNOK_clean_linker_0, # of connection points: 2
#     Edge 27, Type (0, 1), BuildingBlock: AJUNOK_clean_linker_0, # of connection points: 2
#     Edge 28, Type (0, 1), BuildingBlock: AJUNOK_clean_linker_0, # of connection points: 2
#     Edge 29, Type (0, 1), BuildingBlock: AJUNOK_clean_linker_0, # of connection points: 2
#     Edge 30, Type (0, 1), BuildingBlock: AJUNOK_clean_linker_0, # of connection points: 2
#     Edge 31, Type (0, 1), BuildingBlock: AJUNOK_clean_linker_0, # of connection points: 2
#     Edge 32, Type (0, 1), BuildingBlock: AJUNOK_clean_linker_0, # of connection points: 2
#     Edge 33, Type (0, 1), BuildingBlock: AJUNOK_clean_linker_0, # of connection points: 2
#     Edge 34, Type (0, 1), BuildingBlock: AJUNOK_clean_linker_0, # of connection points: 2
#     Edge 35, Type (0, 1), BuildingBlock: AJUNOK_clean_linker_0, # of connection points: 2
# Relax obj value: 0.267
# Max RMSD: 0.219
# Mean RMSD: 0.180
data_MOF--net-zzz--node1-WUSLED_clean_sbu_0--node2-JUFBIX_clean_sbu_0--edge1-AJUNOK_clean_linker_0
_symmetry_space_group_name_H-M    P1
_symmetry_Int_Tables_number       1
_symmetry_cell_setting            triclinic
loop_
_symmetry_equiv_pos_as_xyz
'x, y, z'
_cell_length_a     49.382955
_cell_length_b     50.789231
_cell_length_c     19.361564
_cell_angle_alpha  81.887097
_cell_angle_beta   90.454925
_cell_angle_gamma 86.897101
loop_
_atom_site_label
_atom_site_type_symbol
_atom_site_fract_x
_atom_site_fract_y
_atom_site_fract_z
_atom_type_partial_charge
C0 C 0.82169 0.55232 0.47202 0.0
C1 C 0.84523 0.54544 0.4369 0.0
C2 C 0.87305 0.55136 0.53709 0.0
C3 C 0.87068 0.54484 0.46928 0.0
C4 C 0.84944 0.55862 0.57179 0.0
C5 C 0.82393 0.5591 0.53941 0.0
U6 U 0.78258 0.54733 0.30876 0.0
O7 O 0.74581 0.5695 0.262 0.0
O8 O 0.74616 0.52604 0.29076 0.0
C9 C 0.73236 0.54783 0.26256 0.0
C10 C 0.79498 0.55227 0.43796 0.0
C11 C 0.71616 0.54576 0.19971 0.0
C12 C 0.67152 0.54622 0.14604 0.0
C13 C 0.68789 0.5489 0.20341 0.0
C14 C 0.71157 0.53747 0.07959 0.0
C15 C 0.68311 0.54038 0.08355 0.0
C16 C 0.72802 0.54012 0.13741 0.0
C17 C 0.83707 0.53977 0.16074 0.0
C18 C 0.85542 0.51163 0.07846 0.0
C19 C 0.87199 0.55554 0.08017 0.0
C20 C 0.85389 0.55982 0.13273 0.0
C21 C 0.87366 0.53107 0.05401 0.0
C22 C 0.83741 0.51584 0.13193 0.0
C23 C 0.82433 0.54243 0.22815 0.0
O24 O 0.78913 0.57278 0.38985 0.0
O25 O 0.78934 0.52945 0.41816 0.0
O26 O 0.8129 0.52187 0.26279 0.0
O27 O 0.8126 0.5656 0.23651 0.0
H28 H 0.84388 0.54029 0.3846 0.0
H29 H 0.88853 0.53919 0.44143 0.0
H30 H 0.85067 0.56328 0.62458 0.0
H31 H 0.80596 0.56447 0.5672 0.0
H32 H 0.6497 0.54879 0.15047 0.0
H33 H 0.6784 0.55327 0.25111 0.0
H34 H 0.72104 0.53264 0.03235 0.0
H35 H 0.74986 0.53752 0.13381 0.0
H36 H 0.85571 0.49285 0.058 0.0
H37 H 0.88581 0.5709 0.063 0.0
H38 H 0.85441 0.57826 0.15477 0.0
H39 H 0.82476 0.49993 0.15283 0.0
C40 C 0.99094 0.81717 0.44253 0.0
C41 C 0.98297 0.84169 0.40254 0.0
C42 C 0.98811 0.86476 0.50385 0.0
C43 C 0.98144 0.86513 0.43289 0.0
C44 C 0.99653 0.84021 0.54355 0.0
C45 C 0.99781 0.81665 0.51322 0.0
U46 U 1.00506 0.78267 0.28468 0.0
O47 O 0.98139 0.75354 0.23991 0.0
O48 O 0.0238 0.74324 0.27198 0.0
C49 C 1.00201 0.73593 0.24167 0.0
C50 C 0.9923 0.79229 0.41053 0.0
C51 C 1.00575 0.7219 0.17949 0.0
C52 C 0.03319 0.69257 0.11457 0.0
C53 C 0.03081 0.70898 0.167 0.0
C54 C 0.98567 0.70192 0.08492 0.0
C55 C 0.0105 0.68839 0.07384 0.0
C56 C 0.98329 0.71833 0.13724 0.0
C57 C 0.02853 0.83633 0.13014 0.0
C58 C 0.01539 0.86512 0.02266 0.0
C59 C 0.06153 0.86392 0.06654 0.0
C60 C 0.05517 0.84462 0.12202 0.0
C61 C 0.04124 0.87548 0.01878 0.0
C62 C 0.00906 0.84576 0.0779 0.0
C63 C 0.01998 0.82401 0.19968 0.0
O64 O 0.97424 0.79128 0.36088 0.0
O65 O 0.01668 0.78344 0.39487 0.0
O66 O 0.03731 0.80765 0.23872 0.0
O67 O 0.99458 0.81773 0.2075 0.0
H68 H 0.97781 0.84276 0.34768 0.0
H69 H 0.97481 0.8836 0.40073 0.0
H70 H 1.00252 0.83924 0.5978 0.0
H71 H 1.0043 0.79803 0.5449 0.0
H72 H 0.05276 0.68291 0.10644 0.0
H73 H 0.04849 0.71096 0.19892 0.0
H74 H 0.96777 0.69909 0.05469 0.0
H75 H 0.96355 0.72752 0.14603 0.0
H76 H 0.99933 0.87362 0.98651 0.0
H77 H 0.08179 0.87113 0.06382 0.0
H78 H 0.07059 0.83784 0.16162 0.0
H79 H 0.98831 0.83992 0.08262 0.0
C80 C 0.70898 0.98655 0.36407 0.0
C81 C 0.68785 1.00434 0.33454 0.0
C82 C 0.6587 0.98919 0.43166 0.0
C83 C 0.66285 1.00563 0.36815 0.0
C84 C 0.6797 0.97094 0.45962 0.0
C85 C 0.70456 0.96968 0.4262 0.0
U86 U 0.7632 0.99326 0.21784 0.0
O87 O 0.8027 1.01091 0.22515 0.0
O88 O 0.80097 0.96833 0.2172 0.0
C89 C 0.81633 0.98873 0.21619 0.0
C90 C 0.73644 0.98626 0.33506 0.0
C91 C 0.83747 0.99144 0.16256 0.0
C92 C 0.87986 1.00991 0.12259 0.0
C93 C 0.85916 1.00738 0.17137 0.0
C94 C 0.85744 0.98068 0.05463 0.0
C95 C 0.8795 0.9962 0.06439 0.0
C96 C 0.83657 0.97832 0.1033 0.0
C97 C 0.7097 1.01 0.06839 0.0
C98 C 0.68081 0.02459 0.96691 0.0
C99 C 0.661 1.0061 0.0761 0.0
C100 C 0.68683 1.00268 0.10758 0.0
C101 C 0.65781 0.01693 1.00526 0.0
C102 C 0.7065 0.02116 0.99827 0.0
C103 C 0.73725 1.00536 0.09784 0.0
O104 O 0.74326 0.96672 0.29964 0.0
O105 O 0.74531 1.00933 0.30773 0.0
O106 O 0.74562 0.02338 0.13435 0.0
O107 O 0.74421 0.98078 0.12571 0.0
H108 H 0.69083 0.01748 0.28639 0.0
H109 H 0.64684 0.01952 0.34471 0.0
H110 H 0.67715 0.9581 0.50852 0.0
H111 H 0.72065 0.95591 0.44994 0.0
H112 H 0.89618 0.02264 0.13047 0.0
H113 H 0.86015 0.01788 0.21626 0.0
H114 H 0.8566 0.97 1.0101 0.0
H115 H 0.81991 0.96606 0.09481 0.0
H116 H 0.67891 0.03313 0.91244 0.0
H117 H 0.64364 0.99968 0.10658 0.0
H118 H 0.68902 0.99395 0.16185 0.0
H119 H 0.72399 0.02691 0.96738 0.0
C120 C 0.50568 0.69934 0.36495 0.0
C121 C 0.48826 0.67914 0.3551 0.0
C122 C 0.50851 0.65068 0.45689 0.0
C123 C 0.48965 0.65501 0.40085 0.0
C124 C 0.52609 0.67086 0.46552 0.0
C125 C 0.52474 0.69481 0.41998 0.0
U126 U 0.49582 0.75395 0.19927 0.0
O127 O 0.47444 0.79342 0.1961 0.0
O128 O 0.51851 0.79031 0.18343 0.0
C129 C 0.49657 0.80626 0.18133 0.0
C130 C 0.50317 0.72624 0.32401 0.0
C131 C 0.49466 0.82939 0.12469 0.0
C132 C 0.46894 0.8683 0.06381 0.0
C133 C 0.47003 0.84453 0.11054 0.0
C134 C 0.51693 0.8621 0.04298 0.0
C135 C 0.49252 0.87768 0.03076 0.0
C136 C 0.51803 0.83833 0.08958 0.0
C137 C 0.48768 0.70323 0.06874 0.0
C138 C 0.47626 0.67659 0.97909 0.0
C139 C 0.50066 0.6559 0.08357 0.0
C140 C 0.49984 0.68045 0.109 0.0
C141 C 0.48939 0.6539 0.01759 0.0
C142 C 0.47547 0.70102 1.00442 0.0
C143 C 0.48896 0.72989 0.08946 0.0
O144 O 0.52322 0.73321 0.28233 0.0
O145 O 0.47914 0.73508 0.29806 0.0
O146 O 0.4687 0.73795 0.12633 0.0
O147 O 0.51278 0.7362 0.11091 0.0
H148 H 0.47327 0.68221 0.3132 0.0
H149 H 0.47581 0.63984 0.39293 0.0
H150 H 0.54032 0.66856 0.5091 0.0
H151 H 0.5381 0.71024 0.4292 0.0
H152 H 0.4497 0.8796 0.05446 0.0
H153 H 0.45169 0.8384 0.13705 0.0
H154 H 0.53547 0.86884 0.01857 0.0
H155 H 0.53744 0.82743 0.0997 0.0
H156 H 0.46751 0.6757 0.92804 0.0
H157 H 0.51047 0.63861 0.11492 0.0
H158 H 0.50923 0.68177 0.15907 0.0
H159 H 0.46602 0.71842 0.97265 0.0
C160 C 0.19438 0.48482 0.12439 0.0
C161 C 0.17209 0.47241 0.157 0.0
C162 C 0.14334 0.48921 0.05625 0.0
C163 C 0.14681 0.47445 0.12295 0.0
C164 C 0.1657 0.5013 0.02339 0.0
C165 C 0.19103 0.49902 0.05707 0.0
U166 U 0.23144 0.49082 0.29137 0.0
O167 O 0.26776 0.46879 0.34124 0.0
O168 O 0.2677 0.51217 0.31063 0.0
C169 C 0.28127 0.49045 0.34015 0.0
C170 C 0.22044 0.48503 0.16204 0.0
C171 C 0.29744 0.49277 0.40286 0.0
C172 C 0.34202 0.49029 0.45779 0.0
C173 C 0.32552 0.48744 0.40085 0.0
C174 C 0.30251 0.50372 0.52042 0.0
C175 C 0.33077 0.49835 0.51839 0.0
C176 C 0.28591 0.50088 0.463 0.0
C177 C 0.17626 0.50044 0.43579 0.0
C178 C 0.15886 0.52965 0.51669 0.0
C179 C 0.14123 0.48604 0.51756 0.0
C180 C 0.159 0.48097 0.46495 0.0
C181 C 0.14031 0.51073 0.54259 0.0
C182 C 0.17658 0.52463 0.46325 0.0
C183 C 0.18894 0.49688 0.36883 0.0
O184 O 0.2257 0.50808 0.181 0.0
O185 O 0.22601 0.46479 0.21124 0.0
O186 O 0.20057 0.47344 0.36255 0.0
O187 O 0.20076 0.51702 0.33338 0.0
H188 H 0.174 0.46169 0.20944 0.0
H189 H 0.12978 0.46525 0.14963 0.0
H190 H 0.16347 0.51277 0.97186 0.0
H191 H 0.20787 0.5089 0.03126 0.0
H192 H 0.36374 0.48671 0.45374 0.0
H193 H 0.33479 0.4814 0.35458 0.0
H194 H 0.29331 0.51006 0.56637 0.0
H195 H 0.26423 0.50518 0.46527 0.0
H196 H 0.15911 0.5486 0.53616 0.0
H197 H 0.12712 0.47108 0.53586 0.0
H198 H 0.15796 0.46236 0.44393 0.0
H199 H 0.18957 0.54011 0.44143 0.0
C200 C 0.02951 0.22944 0.155 0.0
C201 C 0.0366 0.20473 0.19508 0.0
C202 C 0.03243 0.18216 0.09257 0.0
C203 C 0.03817 0.18142 0.16417 0.0
C204 C 0.02502 0.20692 0.05268 0.0
C205 C 0.02368 0.23034 0.0836 0.0
U206 U 0.01367 0.26442 0.31188 0.0
O207 O 0.03661 0.29391 0.35744 0.0
O208 O 0.99474 0.30419 0.32006 0.0
C209 C 0.01634 0.31201 0.34988 0.0
C210 C 0.02791 0.25417 0.18749 0.0
C211 C 0.01186 0.32777 0.4077 0.0
C212 C 0.01249 0.371 0.44796 0.0
C213 C 0.01564 0.35517 0.3948 0.0
C214 C 1.00159 0.33223 0.52851 0.0
C215 C 1.00525 0.35983 0.51544 0.0
C216 C 1.0048 0.3163 0.47497 0.0
C217 C 0.98788 0.21095 0.46484 0.0
C218 C 0.99972 0.18526 0.57773 0.0
C219 C 0.95671 0.17968 0.52226 0.0
C220 C 0.96275 0.19916 0.46696 0.0
C221 C 0.9757 0.17165 0.57652 0.0
C222 C 1.00578 0.20475 0.52236 0.0
C223 C 0.99742 0.22366 0.39672 0.0
O224 O 1.00338 0.2632 0.20114 0.0
O225 O 0.04534 0.25493 0.23872 0.0
O226 O 0.02293 0.22982 0.39142 0.0
O227 O 0.98061 0.24001 0.35601 0.0
H228 H 0.04097 0.2034 0.25043 0.0
H229 H 0.04403 0.16275 0.19645 0.0
H230 H 0.01978 0.20818 0.99786 0.0
H231 H 0.01791 0.24914 0.05182 0.0
H232 H 0.01622 0.39197 0.43643 0.0
H233 H 0.02138 0.36435 0.34344 0.0
H234 H 0.99609 0.32301 0.58 0.0
H235 H 1.00193 0.29514 0.48606 0.0
H236 H 0.01493 0.17925 0.61832 0.0
H237 H 0.93802 0.16958 0.52017 0.0
H238 H 0.94871 0.20333 0.42301 0.0
H239 H 0.02541 0.21329 0.52209 0.0
C240 C 0.30584 0.05843 0.22385 0.0
C241 C 0.32744 0.07111 0.25031 0.0
C242 C 0.35664 0.05817 0.15842 0.0
C243 C 0.35268 0.07098 0.21773 0.0
C244 C 0.33525 0.04468 0.13395 0.0
C245 C 0.31009 0.04489 0.16627 0.0
U246 U 0.2521 0.06018 0.36914 0.0
O247 O 0.214 0.08508 0.36442 0.0
O248 O 0.21293 0.04168 0.37036 0.0
C249 C 0.19895 0.06433 0.37207 0.0
C250 C 0.27822 0.06033 0.25155 0.0
C251 C 0.17861 0.06373 0.42701 0.0
C252 C 0.13131 0.06561 0.45934 0.0
C253 C 0.15116 0.06844 0.4083 0.0
C254 C 0.16623 0.05409 0.54885 0.0
C255 C 0.1386 0.05799 0.52999 0.0
C256 C 0.18612 0.05696 0.49764 0.0
C257 C 0.30779 0.05199 0.51413 0.0
C258 C 0.34213 0.06641 0.58895 0.0
C259 C 0.35102 0.02665 0.53501 0.0
C260 C 0.32539 0.03039 0.50266 0.0
C261 C 0.35955 0.04452 0.57893 0.0
C262 C 0.3165 0.07005 0.55702 0.0
C263 C 0.2796 0.05505 0.4872 0.0
O264 O 0.26966 0.03857 0.28767 0.0
O265 O 0.27101 0.08215 0.27777 0.0
O266 O 0.27204 0.0783 0.45152 0.0
O267 O 0.27014 0.03479 0.46097 0.0
H268 H 0.32467 0.08153 0.29506 0.0
H269 H 0.369 0.08115 0.23834 0.0
H270 H 0.33769 0.03474 0.08825 0.0
H271 H 0.29366 0.03503 0.14503 0.0
H272 H 0.11016 0.06887 0.44346 0.0
H273 H 0.14505 0.07369 0.35401 0.0
H274 H 0.1724 0.04782 0.60273 0.0
H275 H 0.2073 0.05316 0.51285 0.0
H276 H 0.34824 0.08059 0.62212 0.0
H277 H 0.3638 1.00933 0.5273 0.0
H278 H 0.31917 0.01603 0.47016 0.0
H279 H 0.30322 0.08674 0.56701 0.0
C280 C 0.50659 0.35377 0.21963 0.0
C281 C 0.52123 0.3751 0.23589 0.0
C282 C 0.5054 0.40218 0.127 0.0
C283 C 0.52053 0.39919 0.19002 0.0
C284 C 0.4901 0.381 0.11264 0.0
C285 C 0.49069 0.35714 0.15841 0.0
U286 U 0.51618 0.29801 0.38381 0.0
O287 O 0.49405 0.26121 0.39563 0.0
O288 O 0.53817 0.25913 0.38307 0.0
C289 C 0.51619 0.24577 0.39426 0.0
C290 C 0.50908 0.32696 0.26065 0.0
C291 C 0.51834 0.22187 0.44723 0.0
C292 C 0.5133 0.17428 0.47607 0.0
C293 C 0.51193 0.19743 0.42747 0.0
C294 C 0.52772 0.19963 0.56545 0.0
C295 C 0.52109 0.17506 0.54572 0.0
C296 C 0.52629 0.2229 0.51654 0.0
C297 C 0.52334 0.3465 0.52046 0.0
C298 C 0.52765 0.37179 0.61695 0.0
C299 C 0.52001 0.39491 0.49955 0.0
C300 C 0.5198 0.37036 0.47421 0.0
C301 C 0.52368 0.39583 0.57141 0.0
C302 C 0.52746 0.3474 0.59169 0.0
C303 C 0.52231 0.32029 0.497 0.0
O304 O 0.53308 0.31828 0.28703 0.0
O305 O 0.48892 0.31965 0.30159 0.0
O306 O 0.49864 0.31429 0.47395 0.0
O307 O 0.54275 0.31302 0.45954 0.0
H308 H 0.53361 0.37295 0.28299 0.0
H309 H 0.53207 0.41533 0.20342 0.0
H310 H 0.4784 0.38249 0.06454 0.0
H311 H 0.47937 0.34088 0.14467 0.0
H312 H 0.50784 0.15577 0.45933 0.0
H313 H 0.50568 0.19626 0.37425 0.0
H314 H 0.53419 0.20081 0.61843 0.0
H315 H 0.53135 0.24162 0.53272 0.0
H316 H 0.5303 0.37183 0.67254 0.0
H317 H 0.51734 0.41312 0.46307 0.0
H318 H 0.51669 0.36998 0.41891 0.0
H319 H 0.5302 0.32915 0.6281 0.0
Co320 Co 0.01913 0.03343 0.83979 0.0
C321 C 0.96808 0.01293 0.87053 0.0
Co322 Co 1.00028 0.01389 0.75685 0.0
C323 C 0.03395 0.07635 0.91637 0.0
C324 C 0.0354 0.03831 0.98005 0.0
N325 N 0.03182 0.05004 0.91338 0.0
N326 N 0.03817 0.08144 0.98224 0.0
C327 C 0.03933 0.05743 0.02218 0.0
H328 H 0.03051 0.09165 0.87198 0.0
H329 H 0.03325 0.01742 0.99798 0.0
C330 C 0.05165 0.03409 0.72668 0.0
N331 N 0.98758 0.997 0.68335 0.0
C332 C 0.98694 0.97056 0.67975 0.0
C333 C 0.98186 1.00881 0.61755 0.0
N334 N 0.98145 0.96551 0.61448 0.0
C335 C 0.97813 0.98961 0.57539 0.0
C336 C 0.98739 0.06817 0.74326 0.0
O337 O 0.05047 0.04165 0.78661 0.0
O338 O 0.0322 0.02159 0.70583 0.0
O339 O 0.98375 0.04734 0.71557 0.0
O340 O 1.00173 0.06615 0.79861 0.0
O341 O 0.96841 1.00638 0.80942 0.0
H342 H 0.98202 0.02996 0.6 0.0
H343 H 0.9922 0.95518 0.72296 0.0
O344 O 0.9878 0.02493 0.89169 0.0
O345 O 0.03633 1.00023 0.87996 0.0
O346 O 0.01705 0.98109 0.79955 0.0
C347 C 0.03198 0.97922 0.85385 0.0
H348 H 0.04147 0.05402 0.07847 0.0
H349 H 0.97436 0.99309 0.5196 0.0
Co350 Co 0.49807 0.03751 0.83703 0.0
C351 C 0.49917 0.9821 0.86231 0.0
Co352 Co 0.51787 0.01826 0.75395 0.0
C353 C 0.45849 0.04767 0.94023 0.0
C354 C 0.49165 0.07314 0.93941 0.0
N355 N 0.48198 0.05347 0.90786 0.0
N356 N 0.453 0.06303 0.99048 0.0
C357 C 0.47393 0.07901 0.99033 0.0
H358 H 0.44554 0.03255 0.92683 0.0
H359 H 0.51052 0.08242 0.92664 0.0
C360 C 0.51655 0.07374 0.7289 0.0
N361 N 0.53391 1.00233 0.68288 0.0
C362 C 0.55724 1.00819 0.6497 0.0
C363 C 0.52414 0.98258 0.65186 0.0
N364 N 0.56236 0.99295 0.59889 0.0
C365 C 0.54162 0.97671 0.60047 0.0
C366 C 0.46255 0.0298 0.73176 0.0
O367 O 0.5046 0.07165 0.78718 0.0
O368 O 0.5245 0.0526 0.70499 0.0
O369 O 0.48383 0.01974 0.70708 0.0
O370 O 0.46406 0.03856 0.78993 0.0
O371 O 0.51104 0.98397 0.80383 0.0
H372 H 0.50544 0.97313 0.66561 0.0
H373 H 0.57043 0.02301 0.66359 0.0
O374 O 0.49164 1.00334 0.88612 0.0
O375 O 0.53221 0.03631 0.8835 0.0
O376 O 0.5518 0.017 0.8013 0.0
C377 C 0.55346 0.02616 0.85892 0.0
H378 H 0.4766 0.09349 0.02545 0.0
H379 H 0.53917 0.96177 0.56652 0.0
Co380 Co 0.53027 0.5261 0.79589 0.0
C381 C 0.50721 0.4906 0.89857 0.0
Co382 Co 0.48568 0.52561 0.78511 0.0
C383 C 0.58082 0.52865 0.8681 0.0
C384 C 0.58698 0.5279 0.75915 0.0
N385 N 0.56749 0.52736 0.80763 0.0
N386 N 0.6078 0.53022 0.85947 0.0
C387 C 0.61181 0.52964 0.79089 0.0
H388 H 0.57081 0.52889 0.91757 0.0
H389 H 0.58335 0.52715 0.70431 0.0
C390 C 0.50884 0.56116 0.68254 0.0
N391 N 0.44821 0.52447 0.77424 0.0
C392 C 0.43462 0.51779 0.71899 0.0
C393 C 0.42864 0.53013 0.81915 0.0
N394 N 0.40755 0.51895 0.72776 0.0
C395 C 0.40358 0.52696 0.79036 0.0
C396 C 0.50154 0.56244 0.86749 0.0
O397 O 0.53072 0.55235 0.71504 0.0
O398 O 0.48649 0.55211 0.70474 0.0
O399 O 0.48082 0.55299 0.84281 0.0
O400 O 0.52493 0.55347 0.85253 0.0
O401 O 0.48522 0.49905 0.866 0.0
H402 H 0.43232 0.53608 0.86971 0.0
H403 H 0.44429 0.51253 0.67256 0.0
O404 O 0.52934 0.49998 0.87619 0.0
O405 O 0.53544 0.49859 0.73923 0.0
O406 O 0.49126 0.4983 0.72738 0.0
C407 C 0.51483 0.48931 0.71353 0.0
H408 H 0.63127 0.53002 0.76559 0.0
H409 H 0.38403 0.52986 0.81389 0.0
Co410 Co 0.00938 0.54352 0.80241 0.0
C411 C 0.0421 0.50899 0.89826 0.0
Co412 Co 1.00579 0.50048 0.79661 0.0
C413 C 0.01144 0.58934 0.87526 0.0
C414 C 0.0154 0.60019 0.76511 0.0
N415 N 0.01219 0.5791 0.81441 0.0
N416 N 0.0142 0.61597 0.86609 0.0
C417 C 0.01654 0.62284 0.79661 0.0
H418 H 1.00832 0.57746 0.9252 0.0
H419 H 0.01681 0.59916 0.70981 0.0
C420 C 0.97308 0.53515 0.70081 0.0
N421 N 1.00308 0.46491 0.78455 0.0
C422 C 1.00284 0.45502 0.72324 0.0
C423 C 1.00147 0.44345 0.8337 0.0
N424 N 1.00103 0.42829 0.73197 0.0
C425 C 1.00035 0.42092 0.80158 0.0
C426 C 0.96801 0.51966 0.88227 0.0
O427 O 0.98399 0.55342 0.72806 0.0
O428 O 0.98046 0.51094 0.72185 0.0
O429 O 0.97645 0.49838 0.85985 0.0
O430 O 0.98006 0.54102 0.86481 0.0
O431 O 0.03119 0.49063 0.87137 0.0
H432 H 1.00128 0.44412 0.88929 0.0
H433 H 1.00464 0.46722 0.67312 0.0
O434 O 0.03469 0.53314 0.87674 0.0
O435 O 0.03876 0.54557 0.73885 0.0
O436 O 0.03507 0.50292 0.73446 0.0
C437 C 0.04716 0.52422 0.7167 0.0
H438 H 0.01913 0.64281 0.77043 0.0
H439 H 0.99898 0.4007 0.8274 0.0
C440 C 0.0967 0.03536 0.5688 0.0
C441 C 0.11721 0.05212 0.58247 0.0
C442 C 0.07598 0.02946 0.61629 0.0
C443 C 0.07481 0.04008 0.67968 0.0
H444 H 0.09672 0.02658 0.52094 0.0
H445 H 0.06068 0.01648 0.60273 0.0
S446 S 0.12361 0.08547 0.73987 0.0
N447 N 0.13516 0.07951 0.66342 0.0
N448 N 0.09616 0.06838 0.75338 0.0
C449 C 0.09536 0.05676 0.69438 0.0
C450 C 0.11658 0.06275 0.64571 0.0
C451 C 0.53421 0.12644 0.57862 0.0
C452 C 0.52192 0.15011 0.59682 0.0
C453 C 0.53313 0.1021 0.62265 0.0
C454 C 0.51965 0.10032 0.68686 0.0
H455 H 0.54447 0.12664 0.52931 0.0
H456 H 0.5425 0.08444 0.6053 0.0
S457 S 0.48477 0.15673 0.75987 0.0
N458 N 0.49629 0.17039 0.68411 0.0
N459 N 0.49448 0.12482 0.7674 0.0
C460 C 0.50798 0.12404 0.70675 0.0
C461 C 0.50908 0.14886 0.66171 0.0
C462 C 0.34676 0.52597 0.60717 0.0
C463 C 0.34889 0.50214 0.5776 0.0
C464 C 0.36557 0.53109 0.6578 0.0
C465 C 0.38725 0.51269 0.67993 0.0
H466 H 0.33102 0.54115 0.58931 0.0
H467 H 0.36377 0.54991 0.67806 0.0
S468 S 0.39944 0.44575 0.62772 0.0
N469 N 0.37259 0.4587 0.58096 0.0
N470 N 0.40823 0.46879 0.67459 0.0
C471 C 0.38895 0.48841 0.65324 0.0
C472 C 0.36969 0.48302 0.60249 0.0
C473 C 0.01542 0.36906 0.63727 0.0
C474 C 1.00245 0.37698 0.57201 0.0
C475 C 0.0146 0.38574 0.68947 0.0
C476 C 1.00085 0.41105 0.67849 0.0
H477 H 0.02692 0.35011 0.64746 0.0
H478 H 0.02539 0.37905 0.7382 0.0
S479 S 0.96078 0.43988 0.5203 0.0
N480 N 0.97344 0.41097 0.50185 0.0
N481 N 0.97203 0.4422 0.59962 0.0
C482 C 0.98709 0.41886 0.61438 0.0
C483 C 0.98785 0.40187 0.56134 0.0
C484 C 0.89725 1.0038 0.94204 0.0
C485 C 0.90229 0.99809 0.01453 0.0
C486 C 0.91866 1.00766 0.89484 0.0
C487 C 0.94571 1.00616 0.91881 0.0
H488 H 0.87661 1.00613 0.92184 0.0
H489 H 0.91396 0.01283 0.83968 0.0
S490 S 0.96993 0.98759 0.10201 0.0
N491 N 0.93655 0.98793 0.10674 0.0
N492 N 0.97656 0.99579 0.01858 0.0
C493 C 0.95104 0.99923 0.9907 0.0
C494 C 0.92939 0.99505 0.03843 0.0
C495 C 0.50482 0.90708 0.92107 0.0
C496 C 0.49219 0.90423 0.98642 0.0
C497 C 0.50633 0.93217 0.88054 0.0
C498 C 0.49544 0.95553 0.90389 0.0
H499 H 0.5138 0.88976 0.90126 0.0
H500 H 0.51659 0.93325 0.83107 0.0
S501 S 0.46016 0.95887 0.07164 0.0
N502 N 0.46858 0.92692 0.07271 0.0
N503 N 0.47108 0.97392 0.99673 0.0
C504 C 0.48232 0.95287 0.96876 0.0
C505 C 0.48076 0.9273 1.00989 0.0
C506 C 0.64303 0.52059 0.03483 0.0
C507 C 0.66517 0.53693 0.02375 0.0
C508 C 0.62469 0.51822 0.98072 0.0
C509 C 0.62776 0.53203 0.91323 0.0
H510 H 0.63976 0.5096 0.08597 0.0
H511 H 0.60796 0.50543 0.99178 0.0
S512 S 0.6816 0.57834 0.85757 0.0
N513 N 0.68877 0.56765 0.94059 0.0
N514 N 0.65426 0.56323 0.83879 0.0
C515 C 0.64992 0.54829 0.90119 0.0
C516 C 0.66863 0.55071 0.95643 0.0
C517 C 1.00107 0.67724 0.95356 0.0
C518 C 0.01235 0.66958 0.02092 0.0
C519 C 1.00194 0.65973 0.9034 0.0
C520 C 0.01386 0.6337 0.91856 0.0
H521 H 0.99158 0.69701 0.93932 0.0
H522 H 0.99279 0.66652 0.85257 0.0
S523 S 0.04645 0.60377 0.08696 0.0
N524 N 0.03572 0.634 0.10014 0.0
N525 N 0.03782 0.6014 1.0056 0.0
C526 C 0.02533 0.6258 0.98559 0.0
C527 C 0.02452 0.64366 0.03666 0.0
C528 C 0.96812 0.123 0.59501 0.0
C529 C 0.97298 0.14628 0.62386 0.0
C530 C 0.97086 0.09783 0.63542 0.0
C531 C 0.9786 0.09494 0.70629 0.0
H532 H 0.96389 0.12404 0.53967 0.0
H533 H 0.9685 0.08048 0.60965 0.0
S534 S 0.98847 0.15014 0.80967 0.0
N535 N 0.98222 0.16521 0.72939 0.0
N536 N 0.98702 0.11796 0.80594 0.0
C537 C 0.98121 0.11826 0.73712 0.0
C538 C 0.97856 0.1439 0.69575 0.0
C539 C 0.38743 0.0418 0.68846 0.0
C540 C 0.38606 0.03995 0.61668 0.0
C541 C 0.41218 0.03814 0.72534 0.0
C542 C 0.43654 0.03233 0.69201 0.0
H543 H 0.36918 0.04603 0.71653 0.0
H544 H 0.41216 0.03989 0.78047 0.0
S545 S 0.44407 0.02628 0.50401 0.0
N546 N 0.41127 0.03268 0.51311 0.0
N547 N 0.45777 0.02532 0.58244 0.0
C548 C 0.43545 0.03024 0.62023 0.0
C549 C 0.41022 0.03414 0.58261 0.0
C550 C 0.54249 0.42614 0.64923 0.0
C551 C 0.52263 0.42148 0.60041 0.0
C552 C 0.54038 0.4487 0.68353 0.0
C553 C 0.51811 0.46728 0.67108 0.0
H554 H 0.55958 0.41193 0.662 0.0
H555 H 0.55579 0.45104 0.72201 0.0
S556 S 0.46203 0.4658 0.54323 0.0
N557 N 0.48093 0.43835 0.538 0.0
N558 N 0.47703 0.48077 0.60225 0.0
C559 C 0.49871 0.46347 0.62033 0.0
C560 C 0.50098 0.44061 0.58494 0.0
C561 C 0.11235 0.49686 0.647 0.0
C562 C 0.11872 0.5167 0.59216 0.0
C563 C 0.08939 0.49985 0.68747 0.0
C564 C 0.07211 0.523 0.67574 0.0
H565 H 0.12481 0.47848 0.6575 0.0
H566 H 0.08498 0.48371 0.72798 0.0
S567 S 0.08018 0.58154 0.54164 0.0
N568 N 0.10604 0.56075 0.52952 0.0
N569 N 0.06341 0.56671 0.60828 0.0
C570 C 0.07886 0.54364 0.62379 0.0
C571 C 0.10207 0.54042 0.58141 0.0
C572 C 0.03584 0.90424 0.90283 0.0
C573 C 0.04522 0.90081 0.97238 0.0
C574 C 0.03369 0.92953 0.86287 0.0
C575 C 0.04062 0.95244 0.8911 0.0
H576 H 0.02885 0.88744 0.88024 0.0
H577 H 0.02511 0.93121 0.8107 0.0
S578 S 0.0693 0.95366 0.06839 0.0
N579 N 0.06369 0.92206 0.06608 0.0
N580 N 0.06019 0.96944 0.99062 0.0
C581 C 0.0521 0.94894 0.95877 0.0
C582 C 0.05423 0.92317 0.99953 0.0
C583 C 0.62781 1.00967 0.906 0.0
C584 C 0.63084 0.01941 0.96994 0.0
C585 C 0.60279 0.01206 0.87056 0.0
C586 C 0.57974 0.02436 0.89753 0.0
H587 H 0.64491 0.9999 0.88335 0.0
H588 H 0.60157 1.0041 0.82166 0.0
S589 S 0.57731 0.054 0.06247 0.0
N590 N 0.60905 0.0424 0.05819 0.0
N591 N 0.56183 0.04681 0.99214 0.0
C592 C 0.58255 0.0343 0.96152 0.0
C593 C 0.6081 0.0318 0.99762 0.0
C594 C 0.47006 0.61908 0.95469 0.0
C595 C 0.4925 0.62883 0.98625 0.0
C596 C 0.47302 0.59715 0.91816 0.0
C597 C 0.49861 0.58424 0.91115 0.0
H598 H 0.45007 0.62876 0.95735 0.0
H599 H 0.45518 0.59073 0.89378 0.0
S600 S 0.56374 0.60156 0.98628 0.0
N601 N 0.54106 0.62358 1.00959 0.0
N602 N 0.54672 0.5823 0.94173 0.0
C603 C 0.52113 0.59337 0.94426 0.0
C604 C 0.51805 0.61564 0.98164 0.0
C605 C 0.90229 0.5461 0.95161 0.0
C606 C 0.89578 0.52582 1.00518 0.0
C607 C 0.92557 0.54366 0.9119 0.0
C608 C 0.94302 0.52063 0.92315 0.0
H609 H 0.88964 0.56437 0.94141 0.0
H610 H 0.93001 0.56007 0.8722 0.0
S611 S 0.93487 0.46119 0.05432 0.0
N612 N 0.90867 0.48158 0.0664 0.0
N613 N 0.95186 0.47664 0.98899 0.0
C614 C 0.93621 0.49962 0.97396 0.0
C615 C 0.9127 0.50227 0.01558 0.0
C616 C 0.02214 0.13413 0.09681 0.0
C617 C 0.03348 0.15691 0.06102 0.0
C618 C 0.02369 0.10976 0.07057 0.0
C619 C 0.03656 0.10701 1.00716 0.0
H620 H 0.01182 0.13513 0.14561 0.0
H621 H 0.01444 0.09296 0.10003 0.0
S622 S 0.06991 0.16025 0.89316 0.0
N623 N 0.05836 0.17498 0.95871 0.0
N624 N 0.06097 0.12914 0.90918 0.0
C625 C 0.04767 0.12964 0.97014 0.0
C626 C 0.0462 0.15455 0.99706 0.0
C627 C 0.39531 0.03648 0.1002 0.0
C628 C 0.38248 0.05969 0.11964 0.0
C629 C 0.41849 0.0377 0.05876 0.0
C630 C 0.42973 0.06216 0.03513 0.0
H631 H 0.38724 0.01723 0.11681 0.0
H632 H 0.42772 0.01934 0.0451 0.0
S633 S 0.40289 0.12884 0.0681 0.0
N634 N 0.3822 0.10792 0.11029 0.0
N635 N 0.42568 0.11022 0.03223 0.0
C636 C 0.41717 0.08551 0.05442 0.0
C637 C 0.39358 0.08426 0.09671 0.0
C638 C 0.4822 0.43794 0.04006 0.0
C639 C 0.50626 0.42654 0.07405 0.0
C640 C 0.48265 0.45895 0.98463 0.0
C641 C 0.5072 0.46952 0.9606 0.0
H642 H 0.4628 0.43027 0.05579 0.0
H643 H 0.46356 0.46662 0.95968 0.0
S644 S 0.57595 0.44729 0.0331 0.0
N645 N 0.55535 0.42772 0.08025 0.0
N646 N 0.55627 0.46746 0.9773 0.0
C647 C 0.53139 0.45883 0.99554 0.0
C648 C 0.5309 0.43735 0.05192 0.0
C649 C 0.10553 0.51939 1.00004 0.0
C650 C 0.11621 0.49335 0.02201 0.0
C651 C 0.08077 0.52412 0.96361 0.0
C652 C 0.06581 0.50297 0.94674 0.0
H653 H 0.11663 0.53629 1.01032 0.0
H654 H 0.07387 0.54463 0.94641 0.0
S655 S 0.08444 0.4309 0.99639 0.0
N656 N 0.10955 0.44607 0.02796 0.0
N657 N 0.06301 0.4548 0.95856 0.0
C658 C 0.07584 0.47674 0.97078 0.0
C659 C 0.10102 0.47197 1.00861 0.0
C660 C 0.99681 0.91334 0.49777 0.0
C661 C 0.98677 0.89013 0.53504 0.0
C662 C 0.995 0.93773 0.52407 0.0
C663 C 0.98321 0.94003 0.58905 0.0
H664 H 1.00634 0.91267 0.4478 0.0
H665 H 1.00322 0.95489 0.49352 0.0
S666 S 0.95294 0.88574 0.70664 0.0
N667 N 0.96386 0.87134 0.63995 0.0
N668 N 0.96089 0.91714 0.68963 0.0
C669 C 0.97326 0.91703 0.62728 0.0
C670 C 0.97494 0.89214 0.60028 0.0
C671 C 0.62003 0.96771 0.49601 0.0
C672 C 0.6329 0.99107 0.47023 0.0
C673 C 0.59684 0.96858 0.53704 0.0
C674 C 0.58568 0.99281 0.55449 0.0
H675 H 0.6281 0.94853 0.48483 0.0
H676 H 0.58794 0.95002 0.5567 0.0
S677 S 0.61096 0.0598 0.49787 0.0
N678 N 0.63242 0.03926 0.46392 0.0
N679 N 0.58849 0.04091 0.54003 0.0
C680 C 0.59799 0.0164 0.52795 0.0
C681 C 0.62161 0.01553 0.48591 0.0
C682 C 0.48462 0.6172 0.53958 0.0
C683 C 0.5089 0.62605 0.50916 0.0
C684 C 0.48476 0.59584 0.59435 0.0
C685 C 0.50919 0.58246 0.62112 0.0
H686 H 0.4654 0.62746 0.52266 0.0
H687 H 0.46555 0.59029 0.61705 0.0
S688 S 0.57809 0.59589 0.55388 0.0
N689 N 0.55782 0.61821 0.50552 0.0
N690 N 0.55821 0.57844 0.60877 0.0
C691 C 0.53354 0.59046 0.58921 0.0
C692 C 0.53336 0.61213 0.53328 0.0
C693 C 0.91613 0.52521 0.57623 0.0
C694 C 0.89992 0.549 0.57301 0.0
C695 C 0.94045 0.52143 0.61501 0.0
C696 C 0.94967 0.54139 0.65158 0.0
H697 H 0.90945 0.50897 0.55076 0.0
H698 H 0.95169 0.50237 0.6179 0.0
S699 S 0.91586 0.6084 0.65391 0.0
N700 N 0.89563 0.59355 0.60511 0.0
N701 N 0.94138 0.5866 0.67804 0.0
C702 C 0.93427 0.56581 0.64591 0.0
C703 C 0.90936 0.56954 0.60682 0.0
loop_
_geom_bond_atom_site_label_1
_geom_bond_atom_site_label_2
_geom_bond_distance
_geom_bond_site_symmetry_2
_ccdc_geom_bond_type
C0 C1 1.264 . S
C0 C5 1.479 . S
C0 C10 1.465 . S
C1 C0 1.264 . S
C1 C3 1.339 . S
C1 H28 0.931 . S
C2 C3 1.395 . S
C2 C4 1.320 . S
C3 C1 1.339 . S
C3 C2 1.395 . S
C3 H29 0.929 . S
C4 C2 1.320 . S
C4 C5 1.405 . S
C4 H30 0.930 . S
C5 C0 1.479 . S
C5 C4 1.405 . S
C5 H31 0.931 . S
U6 O7 2.454 . S
U6 O8 2.458 . S
U6 C9 2.984 . S
U6 C10 2.847 . S
U6 C23 2.882 . S
U6 O24 2.441 . S
U6 O25 2.420 . S
U6 O26 2.455 . S
U6 O27 2.449 . S
O7 U6 2.454 . S
O7 C9 1.353 . S
O8 U6 2.458 . S
O8 C9 1.286 . S
C9 U6 2.984 . S
C9 O7 1.353 . S
C9 O8 1.286 . S
C9 C11 1.363 . S
C10 C0 1.465 . S
C10 U6 2.847 . S
C10 O24 1.249 . S
C10 O25 1.202 . S
C11 C9 1.363 . S
C11 C13 1.408 . S
C11 C16 1.342 . S
C12 C13 1.310 . S
C12 C15 1.461 . S
C12 H32 0.932 . S
C13 C11 1.408 . S
C13 C12 1.310 . S
C13 H33 0.930 . S
C14 C15 1.482 . S
C14 C16 1.289 . S
C14 H34 0.918 1_554 S
C15 C12 1.461 . S
C15 C14 1.482 . S
C16 C11 1.342 . S
C16 C14 1.289 . S
C16 H35 0.930 1_554 S
C17 C20 1.424 1_556 S
C17 C22 1.245 . S
C17 C23 1.428 1_556 S
C18 C21 1.260 . S
C18 C22 1.477 . S
C18 H36 0.932 . S
C19 C20 1.384 1_556 S
C19 C21 1.479 . S
C19 H37 0.929 . S
C20 C17 1.424 1_554 S
C20 C19 1.384 1_554 S
C20 H38 0.928 . S
C21 C18 1.260 . S
C21 C19 1.479 . S
C22 C17 1.245 . S
C22 C18 1.477 . S
C22 H39 0.932 . S
C23 U6 2.882 . S
C23 C17 1.428 1_554 S
C23 O26 1.301 . S
C23 O27 1.282 . S
O24 U6 2.441 . S
O24 C10 1.249 . S
O25 U6 2.420 . S
O25 C10 1.202 . S
O26 U6 2.455 . S
O26 C23 1.301 . S
O27 U6 2.449 . S
O27 C23 1.282 . S
H28 C1 0.931 . S
H29 C3 0.929 . S
H30 C4 0.930 . S
H31 C5 0.931 . S
H32 C12 0.932 . S
H33 C13 0.930 . S
H34 C14 0.918 1_556 S
H35 C16 0.930 1_556 S
H36 C18 0.932 . S
H37 C19 0.929 . S
H38 C20 0.928 . S
H39 C22 0.932 . S
C40 C41 1.264 . S
C40 C45 1.479 . S
C40 C50 1.465 . S
C41 C40 1.264 . S
C41 C43 1.339 . S
C41 H68 0.931 . S
C42 C43 1.395 . S
C42 C44 1.320 . S
C43 C41 1.339 . S
C43 C42 1.395 . S
C43 H69 0.929 . S
C44 C42 1.320 . S
C44 C45 1.405 . S
C44 H70 0.930 1_455 S
C45 C40 1.479 . S
C45 C44 1.405 . S
C45 H71 0.931 . S
U46 O47 2.454 . S
U46 O48 2.458 . S
U46 C49 2.984 . S
U46 C50 2.847 . S
U46 C63 2.882 . S
U46 O64 2.441 . S
U46 O65 2.420 . S
U46 O66 2.455 . S
U46 O67 2.449 . S
O47 U46 2.454 . S
O47 C49 1.353 . S
O48 U46 2.458 . S
O48 C49 1.286 . S
C49 U46 2.984 . S
C49 O47 1.353 . S
C49 O48 1.286 . S
C49 C51 1.363 . S
C50 C40 1.465 . S
C50 U46 2.847 . S
C50 O64 1.249 . S
C50 O65 1.202 . S
C51 C49 1.363 . S
C51 C53 1.408 . S
C51 C56 1.342 . S
C52 C53 1.310 . S
C52 C55 1.461 . S
C52 H72 0.932 . S
C53 C51 1.408 . S
C53 C52 1.310 . S
C53 H73 0.930 . S
C54 C55 1.475 1_655 S
C54 C56 1.284 1_655 S
C54 H74 0.930 1_554 S
C55 C52 1.461 . S
C55 C54 1.475 1_455 S
C56 C51 1.342 . S
C56 C54 1.284 1_455 S
C56 H75 0.930 1_554 S
C57 C60 1.424 . S
C57 C62 1.245 . S
C57 C63 1.428 1_556 S
C58 C61 1.260 . S
C58 C62 1.477 . S
C58 H76 0.932 . S
C59 C60 1.384 . S
C59 C61 1.479 . S
C59 H77 0.929 . S
C60 C57 1.424 . S
C60 C59 1.384 . S
C60 H78 0.928 1_556 S
C61 C58 1.260 . S
C61 C59 1.479 . S
C62 C57 1.245 . S
C62 C58 1.477 . S
C62 H79 0.932 . S
C63 U46 2.882 . S
C63 C57 1.428 1_554 S
C63 O66 1.301 . S
C63 O67 1.282 . S
O64 U46 2.441 . S
O64 C50 1.249 . S
O65 U46 2.420 . S
O65 C50 1.202 . S
O66 U46 2.455 . S
O66 C63 1.301 . S
O67 U46 2.449 . S
O67 C63 1.282 . S
H68 C41 0.931 . S
H69 C43 0.929 . S
H70 C44 0.930 1_655 S
H71 C45 0.931 . S
H72 C52 0.932 . S
H73 C53 0.930 . S
H74 C54 0.930 1_556 S
H75 C56 0.930 1_556 S
H76 C58 0.932 . S
H77 C59 0.929 . S
H78 C60 0.928 1_554 S
H79 C62 0.932 . S
C80 C81 1.264 . S
C80 C85 1.479 . S
C80 C90 1.465 . S
C81 C80 1.264 . S
C81 C83 1.339 . S
C81 H108 0.931 . S
C82 C83 1.395 . S
C82 C84 1.320 . S
C83 C81 1.339 . S
C83 C82 1.395 . S
C83 H109 0.929 . S
C84 C82 1.320 . S
C84 C85 1.405 . S
C84 H110 0.930 . S
C85 C80 1.479 . S
C85 C84 1.405 . S
C85 H111 0.931 . S
U86 O87 2.454 . S
U86 O88 2.458 . S
U86 C89 2.984 . S
U86 C90 2.847 . S
U86 C103 2.882 1_554 S
U86 O104 2.441 . S
U86 O105 2.420 . S
U86 O106 2.455 1_554 S
U86 O107 2.449 . S
O87 U86 2.454 . S
O87 C89 1.353 . S
O88 U86 2.458 . S
O88 C89 1.286 . S
C89 U86 2.984 . S
C89 O87 1.353 . S
C89 O88 1.286 . S
C89 C91 1.363 . S
C90 C80 1.465 . S
C90 U86 2.847 . S
C90 O104 1.249 . S
C90 O105 1.202 . S
C91 C89 1.363 . S
C91 C93 1.408 . S
C91 C96 1.342 1_554 S
C92 C93 1.310 . S
C92 C95 1.461 . S
C92 H112 0.932 . S
C93 C91 1.408 . S
C93 C92 1.310 . S
C93 H113 0.930 . S
C94 C95 1.474 1_556 S
C94 C96 1.285 . S
C94 H114 0.929 . S
C95 C92 1.461 . S
C95 C94 1.474 1_554 S
C96 C91 1.342 1_556 S
C96 C94 1.285 . S
C96 H115 0.930 . S
C97 C100 1.424 . S
C97 C102 1.245 . S
C97 C103 1.428 . S
C98 C101 1.260 . S
C98 C102 1.477 . S
C98 H116 0.932 . S
C99 C100 1.384 . S
C99 C101 1.479 . S
C99 H117 0.929 . S
C100 C97 1.424 . S
C100 C99 1.384 . S
C100 H118 0.928 1_556 S
C101 C98 1.260 . S
C101 C99 1.479 . S
C102 C97 1.245 . S
C102 C98 1.477 . S
C102 H119 0.932 . S
C103 U86 2.882 1_556 S
C103 C97 1.428 . S
C103 O106 1.301 . S
C103 O107 1.282 1_556 S
O104 U86 2.441 . S
O104 C90 1.249 . S
O105 U86 2.420 . S
O105 C90 1.202 . S
O106 U86 2.455 1_556 S
O106 C103 1.301 . S
O107 U86 2.449 . S
O107 C103 1.282 1_554 S
H108 C81 0.931 . S
H109 C83 0.929 . S
H110 C84 0.930 . S
H111 C85 0.931 . S
H112 C92 0.932 . S
H113 C93 0.930 . S
H114 C94 0.929 . S
H115 C96 0.930 . S
H116 C98 0.932 . S
H117 C99 0.929 . S
H118 C100 0.928 1_554 S
H119 C102 0.932 . S
C120 C121 1.264 . S
C120 C125 1.479 . S
C120 C130 1.465 . S
C121 C120 1.264 . S
C121 C123 1.339 . S
C121 H148 0.931 . S
C122 C123 1.395 . S
C122 C124 1.320 . S
C123 C121 1.339 . S
C123 C122 1.395 . S
C123 H149 0.929 . S
C124 C122 1.320 . S
C124 C125 1.405 . S
C124 H150 0.930 . S
C125 C120 1.479 . S
C125 C124 1.405 . S
C125 H151 0.931 . S
U126 O127 2.454 . S
U126 O128 2.458 . S
U126 C129 2.984 . S
U126 C130 2.847 . S
U126 C143 2.882 . S
U126 O144 2.441 . S
U126 O145 2.420 . S
U126 O146 2.455 . S
U126 O147 2.449 . S
O127 U126 2.454 . S
O127 C129 1.353 . S
O128 U126 2.458 . S
O128 C129 1.286 . S
C129 U126 2.984 . S
C129 O127 1.353 . S
C129 O128 1.286 . S
C129 C131 1.363 . S
C130 C120 1.465 . S
C130 U126 2.847 . S
C130 O144 1.249 . S
C130 O145 1.202 . S
C131 C129 1.363 . S
C131 C133 1.408 . S
C131 C136 1.342 1_554 S
C132 C133 1.310 . S
C132 C135 1.461 . S
C132 H152 0.932 . S
C133 C131 1.408 . S
C133 C132 1.310 . S
C133 H153 0.930 . S
C134 C135 1.474 1_556 S
C134 C136 1.285 . S
C134 H154 0.929 . S
C135 C132 1.461 . S
C135 C134 1.474 1_554 S
C136 C131 1.342 1_556 S
C136 C134 1.285 . S
C136 H155 0.930 . S
C137 C140 1.424 1_556 S
C137 C142 1.245 . S
C137 C143 1.428 1_556 S
C138 C141 1.260 . S
C138 C142 1.477 . S
C138 H156 0.932 . S
C139 C140 1.384 1_556 S
C139 C141 1.479 . S
C139 H157 0.929 . S
C140 C137 1.424 1_554 S
C140 C139 1.384 1_554 S
C140 H158 0.928 . S
C141 C138 1.260 . S
C141 C139 1.479 . S
C142 C137 1.245 . S
C142 C138 1.477 . S
C142 H159 0.932 . S
C143 U126 2.882 . S
C143 C137 1.428 1_554 S
C143 O146 1.301 . S
C143 O147 1.282 . S
O144 U126 2.441 . S
O144 C130 1.249 . S
O145 U126 2.420 . S
O145 C130 1.202 . S
O146 U126 2.455 . S
O146 C143 1.301 . S
O147 U126 2.449 . S
O147 C143 1.282 . S
H148 C121 0.931 . S
H149 C123 0.929 . S
H150 C124 0.930 . S
H151 C125 0.931 . S
H152 C132 0.932 . S
H153 C133 0.930 . S
H154 C134 0.929 . S
H155 C136 0.930 . S
H156 C138 0.932 . S
H157 C139 0.929 . S
H158 C140 0.928 . S
H159 C142 0.932 . S
C160 C161 1.264 . S
C160 C165 1.479 . S
C160 C170 1.465 . S
C161 C160 1.264 . S
C161 C163 1.339 . S
C161 H188 0.931 . S
C162 C163 1.395 . S
C162 C164 1.320 . S
C163 C161 1.339 . S
C163 C162 1.395 . S
C163 H189 0.929 . S
C164 C162 1.320 . S
C164 C165 1.405 . S
C164 H190 0.930 . S
C165 C160 1.479 . S
C165 C164 1.405 . S
C165 H191 0.931 . S
U166 O167 2.454 . S
U166 O168 2.458 . S
U166 C169 2.984 . S
U166 C170 2.847 . S
U166 C183 2.882 . S
U166 O184 2.441 . S
U166 O185 2.420 . S
U166 O186 2.455 . S
U166 O187 2.449 . S
O167 U166 2.454 . S
O167 C169 1.353 . S
O168 U166 2.458 . S
O168 C169 1.286 . S
C169 U166 2.984 . S
C169 O167 1.353 . S
C169 O168 1.286 . S
C169 C171 1.363 . S
C170 C160 1.465 . S
C170 U166 2.847 . S
C170 O184 1.249 . S
C170 O185 1.202 . S
C171 C169 1.363 . S
C171 C173 1.408 . S
C171 C176 1.342 . S
C172 C173 1.310 . S
C172 C175 1.461 . S
C172 H192 0.932 . S
C173 C171 1.408 . S
C173 C172 1.310 . S
C173 H193 0.930 . S
C174 C175 1.474 . S
C174 C176 1.285 . S
C174 H194 0.929 . S
C175 C172 1.461 . S
C175 C174 1.474 . S
C176 C171 1.342 . S
C176 C174 1.285 . S
C176 H195 0.930 . S
C177 C180 1.424 . S
C177 C182 1.245 . S
C177 C183 1.428 . S
C178 C181 1.260 . S
C178 C182 1.477 . S
C178 H196 0.932 . S
C179 C180 1.384 . S
C179 C181 1.479 . S
C179 H197 0.929 . S
C180 C177 1.424 . S
C180 C179 1.384 . S
C180 H198 0.928 . S
C181 C178 1.260 . S
C181 C179 1.479 . S
C182 C177 1.245 . S
C182 C178 1.477 . S
C182 H199 0.932 . S
C183 U166 2.882 . S
C183 C177 1.428 . S
C183 O186 1.301 . S
C183 O187 1.282 . S
O184 U166 2.441 . S
O184 C170 1.249 . S
O185 U166 2.420 . S
O185 C170 1.202 . S
O186 U166 2.455 . S
O186 C183 1.301 . S
O187 U166 2.449 . S
O187 C183 1.282 . S
H188 C161 0.931 . S
H189 C163 0.929 . S
H190 C164 0.930 . S
H191 C165 0.931 . S
H192 C172 0.932 . S
H193 C173 0.930 . S
H194 C174 0.929 . S
H195 C176 0.930 . S
H196 C178 0.932 . S
H197 C179 0.929 . S
H198 C180 0.928 . S
H199 C182 0.932 . S
C200 C201 1.264 . S
C200 C205 1.479 . S
C200 C210 1.465 . S
C201 C200 1.264 . S
C201 C203 1.339 . S
C201 H228 0.931 . S
C202 C203 1.395 . S
C202 C204 1.320 . S
C203 C201 1.339 . S
C203 C202 1.395 . S
C203 H229 0.929 . S
C204 C202 1.320 . S
C204 C205 1.405 . S
C204 H230 0.924 1_455 S
C205 C200 1.479 . S
C205 C204 1.405 . S
C205 H231 0.931 . S
U206 O207 2.454 . S
U206 O208 2.458 . S
U206 C209 2.984 . S
U206 C210 2.847 . S
U206 C223 2.882 . S
U206 O224 2.441 . S
U206 O225 2.420 . S
U206 O226 2.455 . S
U206 O227 2.449 . S
O207 U206 2.454 . S
O207 C209 1.353 . S
O208 U206 2.458 . S
O208 C209 1.286 . S
C209 U206 2.984 . S
C209 O207 1.353 . S
C209 O208 1.286 . S
C209 C211 1.363 . S
C210 C200 1.465 . S
C210 U206 2.847 . S
C210 O224 1.249 . S
C210 O225 1.202 . S
C211 C209 1.363 . S
C211 C213 1.408 . S
C211 C216 1.342 . S
C212 C213 1.310 . S
C212 C215 1.462 . S
C212 H232 0.932 . S
C213 C211 1.408 . S
C213 C212 1.310 . S
C213 H233 0.930 . S
C214 C215 1.473 1_655 S
C214 C216 1.285 1_655 S
C214 H234 0.929 . S
C215 C212 1.462 . S
C215 C214 1.473 1_455 S
C216 C211 1.342 . S
C216 C214 1.285 1_455 S
C216 H235 0.930 . S
C217 C220 1.424 . S
C217 C222 1.245 . S
C217 C223 1.428 . S
C218 C221 1.260 . S
C218 C222 1.477 . S
C218 H236 0.932 . S
C219 C220 1.384 . S
C219 C221 1.479 . S
C219 H237 0.929 . S
C220 C217 1.424 . S
C220 C219 1.384 . S
C220 H238 0.928 . S
C221 C218 1.260 . S
C221 C219 1.479 . S
C222 C217 1.245 . S
C222 C218 1.477 . S
C222 H239 0.932 . S
C223 U206 2.882 . S
C223 C217 1.428 . S
C223 O226 1.301 . S
C223 O227 1.282 . S
O224 U206 2.441 . S
O224 C210 1.249 . S
O225 U206 2.420 . S
O225 C210 1.202 . S
O226 U206 2.455 . S
O226 C223 1.301 . S
O227 U206 2.449 . S
O227 C223 1.282 . S
H228 C201 0.931 . S
H229 C203 0.929 . S
H230 C204 0.924 1_655 S
H231 C205 0.931 . S
H232 C212 0.932 . S
H233 C213 0.930 . S
H234 C214 0.929 . S
H235 C216 0.930 . S
H236 C218 0.932 . S
H237 C219 0.929 . S
H238 C220 0.928 . S
H239 C222 0.932 . S
C240 C241 1.264 . S
C240 C245 1.479 . S
C240 C250 1.465 . S
C241 C240 1.264 . S
C241 C243 1.339 . S
C241 H268 0.931 . S
C242 C243 1.395 . S
C242 C244 1.320 . S
C243 C241 1.339 . S
C243 C242 1.395 . S
C243 H269 0.929 . S
C244 C242 1.320 . S
C244 C245 1.405 . S
C244 H270 0.930 . S
C245 C240 1.479 . S
C245 C244 1.405 . S
C245 H271 0.931 . S
U246 O247 2.454 . S
U246 O248 2.458 . S
U246 C249 2.984 . S
U246 C250 2.847 . S
U246 C263 2.882 . S
U246 O264 2.441 . S
U246 O265 2.420 . S
U246 O266 2.455 . S
U246 O267 2.449 . S
O247 U246 2.454 . S
O247 C249 1.353 . S
O248 U246 2.458 . S
O248 C249 1.286 . S
C249 U246 2.984 . S
C249 O247 1.353 . S
C249 O248 1.286 . S
C249 C251 1.363 . S
C250 C240 1.465 . S
C250 U246 2.847 . S
C250 O264 1.249 . S
C250 O265 1.202 . S
C251 C249 1.363 . S
C251 C253 1.408 . S
C251 C256 1.342 . S
C252 C253 1.310 . S
C252 C255 1.461 . S
C252 H272 0.932 . S
C253 C251 1.408 . S
C253 C252 1.310 . S
C253 H273 0.930 . S
C254 C255 1.474 . S
C254 C256 1.285 . S
C254 H274 0.929 . S
C255 C252 1.461 . S
C255 C254 1.474 . S
C256 C251 1.342 . S
C256 C254 1.285 . S
C256 H275 0.930 . S
C257 C260 1.424 . S
C257 C262 1.245 . S
C257 C263 1.428 . S
C258 C261 1.260 . S
C258 C262 1.477 . S
C258 H276 0.932 . S
C259 C260 1.384 . S
C259 C261 1.479 . S
C259 H277 0.929 . S
C260 C257 1.424 . S
C260 C259 1.384 . S
C260 H278 0.928 . S
C261 C258 1.260 . S
C261 C259 1.479 . S
C262 C257 1.245 . S
C262 C258 1.477 . S
C262 H279 0.932 . S
C263 U246 2.882 . S
C263 C257 1.428 . S
C263 O266 1.301 . S
C263 O267 1.282 . S
O264 U246 2.441 . S
O264 C250 1.249 . S
O265 U246 2.420 . S
O265 C250 1.202 . S
O266 U246 2.455 . S
O266 C263 1.301 . S
O267 U246 2.449 . S
O267 C263 1.282 . S
H268 C241 0.931 . S
H269 C243 0.929 . S
H270 C244 0.930 . S
H271 C245 0.931 . S
H272 C252 0.932 . S
H273 C253 0.930 . S
H274 C254 0.929 . S
H275 C256 0.930 . S
H276 C258 0.932 . S
H277 C259 0.929 . S
H278 C260 0.928 . S
H279 C262 0.932 . S
C280 C281 1.264 . S
C280 C285 1.479 . S
C280 C290 1.465 . S
C281 C280 1.264 . S
C281 C283 1.339 . S
C281 H308 0.931 . S
C282 C283 1.395 . S
C282 C284 1.320 . S
C283 C281 1.339 . S
C283 C282 1.395 . S
C283 H309 0.929 . S
C284 C282 1.320 . S
C284 C285 1.405 . S
C284 H310 0.930 . S
C285 C280 1.479 . S
C285 C284 1.405 . S
C285 H311 0.931 . S
U286 O287 2.454 . S
U286 O288 2.458 . S
U286 C289 2.984 . S
U286 C290 2.847 . S
U286 C303 2.882 . S
U286 O304 2.441 . S
U286 O305 2.420 . S
U286 O306 2.455 . S
U286 O307 2.449 . S
O287 U286 2.454 . S
O287 C289 1.353 . S
O288 U286 2.458 . S
O288 C289 1.286 . S
C289 U286 2.984 . S
C289 O287 1.353 . S
C289 O288 1.286 . S
C289 C291 1.363 . S
C290 C280 1.465 . S
C290 U286 2.847 . S
C290 O304 1.249 . S
C290 O305 1.202 . S
C291 C289 1.363 . S
C291 C293 1.408 . S
C291 C296 1.342 . S
C292 C293 1.310 . S
C292 C295 1.461 . S
C292 H312 0.932 . S
C293 C291 1.408 . S
C293 C292 1.310 . S
C293 H313 0.930 . S
C294 C295 1.474 . S
C294 C296 1.285 . S
C294 H314 0.929 . S
C295 C292 1.461 . S
C295 C294 1.474 . S
C296 C291 1.342 . S
C296 C294 1.285 . S
C296 H315 0.930 . S
C297 C300 1.424 . S
C297 C302 1.245 . S
C297 C303 1.428 . S
C298 C301 1.260 . S
C298 C302 1.477 . S
C298 H316 0.932 . S
C299 C300 1.384 . S
C299 C301 1.479 . S
C299 H317 0.929 . S
C300 C297 1.424 . S
C300 C299 1.384 . S
C300 H318 0.928 . S
C301 C298 1.260 . S
C301 C299 1.479 . S
C302 C297 1.245 . S
C302 C298 1.477 . S
C302 H319 0.932 . S
C303 U286 2.882 . S
C303 C297 1.428 . S
C303 O306 1.301 . S
C303 O307 1.282 . S
O304 U286 2.441 . S
O304 C290 1.249 . S
O305 U286 2.420 . S
O305 C290 1.202 . S
O306 U286 2.455 . S
O306 C303 1.301 . S
O307 U286 2.449 . S
O307 C303 1.282 . S
H308 C281 0.931 . S
H309 C283 0.929 . S
H310 C284 0.930 . S
H311 C285 0.931 . S
H312 C292 0.932 . S
H313 C293 0.930 . S
H314 C294 0.929 . S
H315 C296 0.930 . S
H316 C298 0.932 . S
H317 C299 0.929 . S
H318 C300 0.928 . S
H319 C302 0.932 . S
Co320 N325 2.057 . S
Co320 O337 2.021 . S
Co320 O340 2.062 1_455 S
Co320 O344 2.117 1_455 S
Co320 O345 2.020 1_545 S
C321 O341 1.259 1_545 S
C321 O344 1.258 . S
Co322 N331 2.040 1_545 S
Co322 O338 2.125 1_655 S
Co322 O339 2.051 . S
Co322 O341 2.017 1_545 S
Co322 O346 2.038 1_645 S
C323 N325 1.316 . S
C323 N326 1.347 . S
C323 H328 0.931 . S
C324 N325 1.375 1_655 S
C324 C327 1.350 1_556 S
C324 H329 0.930 . S
N325 Co320 2.057 . S
N325 C323 1.316 . S
N325 C324 1.375 1_455 S
N326 C323 1.347 . S
N326 C327 1.373 1_456 S
C327 C324 1.350 1_554 S
C327 N326 1.373 1_654 S
C327 H348 0.931 . S
H328 C323 0.931 . S
H329 C324 0.930 . S
C330 O337 1.259 . S
C330 O338 1.258 . S
N331 Co322 2.040 1_565 S
N331 C332 1.345 . S
N331 C333 1.341 1_655 S
C332 N331 1.345 . S
C332 N334 1.347 . S
C332 H343 0.931 . S
C333 N331 1.341 1_455 S
C333 C335 1.350 . S
C333 H342 0.930 . S
N334 C332 1.347 . S
N334 C335 1.373 1_655 S
C335 C333 1.350 . S
C335 N334 1.373 1_455 S
C335 H349 0.931 . S
C336 O339 1.256 . S
C336 O340 1.255 . S
O337 Co320 2.021 . S
O337 C330 1.259 . S
O338 Co322 2.125 1_455 S
O338 C330 1.258 . S
O339 Co322 2.051 . S
O339 C336 1.256 . S
O340 Co320 2.062 1_655 S
O340 C336 1.255 . S
O341 C321 1.259 1_565 S
O341 Co322 2.017 1_565 S
H342 C333 0.930 . S
H343 C332 0.931 . S
O344 Co320 2.117 1_655 S
O344 C321 1.258 . S
O345 Co320 2.020 1_565 S
O345 C347 1.256 . S
O346 Co322 2.038 1_465 S
O346 C347 1.255 . S
C347 O345 1.256 . S
C347 O346 1.255 . S
H348 C327 0.931 . S
H349 C335 0.931 . S
Co350 N355 2.057 . S
Co350 O367 2.021 . S
Co350 O370 2.062 . S
Co350 O374 2.117 1_545 S
Co350 O375 2.020 . S
C351 O371 1.259 . S
C351 O374 1.258 . S
Co352 N361 2.057 . S
Co352 O368 2.117 . S
Co352 O369 2.020 . S
Co352 O371 2.021 1_545 S
Co352 O376 2.063 1_545 S
C353 N355 1.316 . S
C353 N356 1.350 . S
C353 H358 0.931 . S
C354 N355 1.375 . S
C354 C357 1.350 1_556 S
C354 H359 0.930 1_545 S
N355 Co350 2.057 . S
N355 C353 1.316 . S
N355 C354 1.375 . S
N356 C353 1.350 . S
N356 C357 1.373 1_556 S
C357 C354 1.350 1_554 S
C357 N356 1.373 1_554 S
C357 H378 0.931 . S
H358 C353 0.931 . S
H359 C354 0.930 1_565 S
C360 O367 1.259 . S
C360 O368 1.258 . S
N361 Co352 2.057 . S
N361 C362 1.316 1_545 S
N361 C363 1.375 . S
C362 N361 1.316 1_565 S
C362 N364 1.347 . S
C362 H373 0.931 . S
C363 N361 1.375 . S
C363 C365 1.350 . S
C363 H372 0.930 . S
N364 C362 1.347 . S
N364 C365 1.373 1_565 S
C365 C363 1.350 . S
C365 N364 1.373 1_545 S
C365 H379 0.931 . S
C366 O369 1.256 . S
C366 O370 1.255 . S
O367 Co350 2.021 . S
O367 C360 1.259 . S
O368 Co352 2.117 . S
O368 C360 1.258 . S
O369 Co352 2.020 . S
O369 C366 1.256 . S
O370 Co350 2.062 . S
O370 C366 1.255 . S
O371 C351 1.259 . S
O371 Co352 2.021 1_565 S
H372 C363 0.930 . S
H373 C362 0.931 . S
O374 Co350 2.117 1_565 S
O374 C351 1.258 . S
O375 Co350 2.020 . S
O375 C377 1.256 . S
O376 Co352 2.063 1_565 S
O376 C377 1.239 1_565 S
C377 O375 1.256 . S
C377 O376 1.239 1_545 S
H378 C357 0.931 . S
H379 C365 0.931 . S
Co380 N385 2.057 . S
Co380 O397 2.021 . S
Co380 O400 2.062 . S
Co380 O404 2.117 . S
Co380 O405 2.020 . S
C381 O401 1.259 . S
C381 O404 1.258 . S
Co382 N391 2.057 . S
Co382 O398 2.117 . S
Co382 O399 2.020 . S
Co382 O401 2.021 . S
Co382 O406 2.062 . S
C383 N385 1.316 . S
C383 N386 1.347 . S
C383 H388 0.931 . S
C384 N385 1.375 . S
C384 C387 1.350 . S
C384 H389 0.930 . S
N385 Co380 2.057 . S
N385 C383 1.316 . S
N385 C384 1.375 . S
N386 C383 1.347 . S
N386 C387 1.373 . S
C387 C384 1.350 . S
C387 N386 1.373 . S
C387 H408 0.931 . S
H388 C383 0.931 . S
H389 C384 0.930 . S
C390 O397 1.259 . S
C390 O398 1.258 . S
N391 Co382 2.057 . S
N391 C392 1.316 . S
N391 C393 1.375 . S
C392 N391 1.316 . S
C392 N394 1.347 . S
C392 H403 0.931 . S
C393 N391 1.375 . S
C393 C395 1.350 . S
C393 H402 0.930 . S
N394 C392 1.347 . S
N394 C395 1.373 . S
C395 C393 1.350 . S
C395 N394 1.373 . S
C395 H409 0.931 . S
C396 O399 1.256 . S
C396 O400 1.255 . S
O397 Co380 2.021 . S
O397 C390 1.259 . S
O398 Co382 2.117 . S
O398 C390 1.258 . S
O399 Co382 2.020 . S
O399 C396 1.256 . S
O400 Co380 2.062 . S
O400 C396 1.255 . S
O401 C381 1.259 . S
O401 Co382 2.021 . S
H402 C393 0.930 . S
H403 C392 0.931 . S
O404 Co380 2.117 . S
O404 C381 1.258 . S
O405 Co380 2.020 . S
O405 C407 1.256 . S
O406 Co382 2.062 . S
O406 C407 1.255 . S
C407 O405 1.256 . S
C407 O406 1.255 . S
H408 C387 0.931 . S
H409 C395 0.931 . S
Co410 N415 2.057 . S
Co410 O427 2.021 1_455 S
Co410 O430 2.062 1_455 S
Co410 O434 2.117 . S
Co410 O435 2.020 . S
C411 O431 1.259 . S
C411 O434 1.258 . S
Co412 N421 2.057 . S
Co412 O428 2.117 . S
Co412 O429 2.020 . S
Co412 O431 2.021 1_655 S
Co412 O436 2.062 1_655 S
C413 N415 1.316 . S
C413 N416 1.347 . S
C413 H418 0.931 1_455 S
C414 N415 1.375 . S
C414 C417 1.350 . S
C414 H419 0.930 . S
N415 Co410 2.057 . S
N415 C413 1.316 . S
N415 C414 1.375 . S
N416 C413 1.347 . S
N416 C417 1.373 . S
C417 C414 1.350 . S
C417 N416 1.373 . S
C417 H438 0.931 . S
H418 C413 0.931 1_655 S
H419 C414 0.930 . S
C420 O427 1.259 . S
C420 O428 1.258 . S
N421 Co412 2.057 . S
N421 C422 1.316 . S
N421 C423 1.375 . S
C422 N421 1.316 . S
C422 N424 1.347 . S
C422 H433 0.931 1_655 S
C423 N421 1.375 . S
C423 C425 1.350 . S
C423 H432 0.930 . S
N424 C422 1.347 . S
N424 C425 1.373 . S
C425 C423 1.350 . S
C425 N424 1.373 . S
C425 H439 0.931 . S
C426 O429 1.256 . S
C426 O430 1.255 . S
O427 Co410 2.021 1_655 S
O427 C420 1.259 . S
O428 Co412 2.117 . S
O428 C420 1.258 . S
O429 Co412 2.020 . S
O429 C426 1.256 . S
O430 Co410 2.062 1_655 S
O430 C426 1.255 . S
O431 C411 1.259 . S
O431 Co412 2.021 1_455 S
H432 C423 0.930 . S
H433 C422 0.931 1_455 S
O434 Co410 2.117 . S
O434 C411 1.258 . S
O435 Co410 2.020 . S
O435 C437 1.256 . S
O436 Co412 2.062 1_455 S
O436 C437 1.255 . S
C437 O435 1.256 . S
C437 O436 1.255 . S
H438 C417 0.931 . S
H439 C425 0.931 . S
C440 C441 1.369 . S
C440 C442 1.419 . S
C440 H444 0.930 . S
C441 C440 1.369 . S
C441 C450 1.429 . S
C442 C440 1.419 . S
C442 C443 1.363 . S
C442 H445 0.929 . S
C443 C442 1.363 . S
C443 C449 1.428 . S
H444 C440 0.930 . S
H445 C442 0.929 . S
S446 N447 1.613 . S
S446 N448 1.610 . S
N447 S446 1.613 . S
N447 C450 1.350 . S
N448 S446 1.610 . S
N448 C449 1.351 . S
C449 C443 1.428 . S
C449 N448 1.351 . S
C449 C450 1.434 . S
C450 C441 1.429 . S
C450 N447 1.350 . S
C450 C449 1.434 . S
C451 C452 1.369 . S
C451 C453 1.419 . S
C451 H455 0.930 . S
C452 C451 1.369 . S
C452 C461 1.429 . S
C453 C451 1.419 . S
C453 C454 1.363 . S
C453 H456 0.929 . S
C454 C453 1.363 . S
C454 C460 1.428 . S
H455 C451 0.930 . S
H456 C453 0.929 . S
S457 N458 1.613 . S
S457 N459 1.610 . S
N458 S457 1.613 . S
N458 C461 1.350 . S
N459 S457 1.610 . S
N459 C460 1.351 . S
C460 C454 1.428 . S
C460 N459 1.351 . S
C460 C461 1.434 . S
C461 C452 1.429 . S
C461 N458 1.350 . S
C461 C460 1.434 . S
C462 C463 1.369 . S
C462 C464 1.419 . S
C462 H466 0.930 . S
C463 C462 1.369 . S
C463 C472 1.429 . S
C464 C462 1.419 . S
C464 C465 1.363 . S
C464 H467 0.929 . S
C465 C464 1.363 . S
C465 C471 1.428 . S
H466 C462 0.930 . S
H467 C464 0.929 . S
S468 N469 1.613 . S
S468 N470 1.610 . S
N469 S468 1.613 . S
N469 C472 1.350 . S
N470 S468 1.610 . S
N470 C471 1.351 . S
C471 C465 1.428 . S
C471 N470 1.351 . S
C471 C472 1.434 . S
C472 C463 1.429 . S
C472 N469 1.350 . S
C472 C471 1.434 . S
C473 C474 1.369 1_455 S
C473 C475 1.419 1_455 S
C473 H477 0.930 . S
C474 C473 1.369 1_655 S
C474 C483 1.429 . S
C475 C473 1.419 1_655 S
C475 C476 1.363 . S
C475 H478 0.929 1_655 S
C476 C475 1.363 . S
C476 C482 1.428 . S
H477 C473 0.930 . S
H478 C475 0.929 1_455 S
S479 N480 1.613 . S
S479 N481 1.610 . S
N480 S479 1.613 . S
N480 C483 1.350 . S
N481 S479 1.610 . S
N481 C482 1.351 . S
C482 C476 1.428 . S
C482 N481 1.351 . S
C482 C483 1.434 . S
C483 C474 1.429 . S
C483 N480 1.350 . S
C483 C482 1.434 . S
C484 C485 1.369 . S
C484 C486 1.419 . S
C484 H488 0.930 . S
C485 C484 1.369 . S
C485 C494 1.429 . S
C486 C484 1.419 . S
C486 C487 1.363 . S
C486 H489 0.929 . S
C487 C486 1.363 . S
C487 C493 1.428 . S
H488 C484 0.930 . S
H489 C486 0.929 . S
S490 N491 1.613 . S
S490 N492 1.610 1_554 S
N491 S490 1.613 . S
N491 C494 1.350 1_554 S
N492 S490 1.610 1_556 S
N492 C493 1.351 . S
C493 C487 1.428 . S
C493 N492 1.351 . S
C493 C494 1.434 . S
C494 C485 1.429 . S
C494 N491 1.350 1_556 S
C494 C493 1.434 . S
C495 C496 1.369 . S
C495 C497 1.419 . S
C495 H499 0.930 . S
C496 C495 1.369 . S
C496 C505 1.429 . S
C497 C495 1.419 . S
C497 C498 1.363 . S
C497 H500 0.929 . S
C498 C497 1.363 . S
C498 C504 1.428 . S
H499 C495 0.930 . S
H500 C497 0.929 . S
S501 N502 1.613 . S
S501 N503 1.610 1_554 S
N502 S501 1.613 . S
N502 C505 1.350 1_554 S
N503 S501 1.610 1_556 S
N503 C504 1.351 . S
C504 C498 1.428 . S
C504 N503 1.351 . S
C504 C505 1.434 . S
C505 C496 1.429 . S
C505 N502 1.350 1_556 S
C505 C504 1.434 . S
C506 C507 1.369 1_554 S
C506 C508 1.419 1_554 S
C506 H510 0.930 . S
C507 C506 1.369 1_556 S
C507 C516 1.429 . S
C508 C506 1.419 1_556 S
C508 C509 1.363 . S
C508 H511 0.929 . S
C509 C508 1.363 . S
C509 C515 1.428 . S
H510 C506 0.930 . S
H511 C508 0.929 . S
S512 N513 1.613 . S
S512 N514 1.610 . S
N513 S512 1.613 . S
N513 C516 1.350 . S
N514 S512 1.610 . S
N514 C515 1.351 . S
C515 C509 1.428 . S
C515 N514 1.351 . S
C515 C516 1.434 . S
C516 C507 1.429 . S
C516 N513 1.350 . S
C516 C515 1.434 . S
C517 C518 1.369 1_556 S
C517 C519 1.419 . S
C517 H521 0.930 . S
C518 C517 1.369 1_554 S
C518 C527 1.429 . S
C519 C517 1.419 . S
C519 C520 1.363 . S
C519 H522 0.929 . S
C520 C519 1.363 . S
C520 C526 1.428 . S
H521 C517 0.930 . S
H522 C519 0.929 . S
S523 N524 1.613 . S
S523 N525 1.610 1_554 S
N524 S523 1.613 . S
N524 C527 1.350 . S
N525 S523 1.610 1_556 S
N525 C526 1.351 . S
C526 C520 1.428 . S
C526 N525 1.351 . S
C526 C527 1.434 1_556 S
C527 C518 1.429 . S
C527 N524 1.350 . S
C527 C526 1.434 1_554 S
C528 C529 1.369 . S
C528 C530 1.419 . S
C528 H532 0.930 . S
C529 C528 1.369 . S
C529 C538 1.429 1_455 S
C530 C528 1.419 . S
C530 C531 1.363 1_455 S
C530 H533 0.929 . S
C531 C530 1.363 1_655 S
C531 C537 1.428 . S
H532 C528 0.930 . S
H533 C530 0.929 . S
S534 N535 1.613 . S
S534 N536 1.610 . S
N535 S534 1.613 . S
N535 C538 1.350 . S
N536 S534 1.610 . S
N536 C537 1.351 . S
C537 C531 1.428 . S
C537 N536 1.351 . S
C537 C538 1.434 . S
C538 C529 1.429 1_655 S
C538 N535 1.350 . S
C538 C537 1.434 . S
C539 C540 1.369 . S
C539 C541 1.419 . S
C539 H543 0.930 . S
C540 C539 1.369 . S
C540 C549 1.429 . S
C541 C539 1.419 . S
C541 C542 1.363 . S
C541 H544 0.929 . S
C542 C541 1.363 . S
C542 C548 1.428 . S
H543 C539 0.930 . S
H544 C541 0.929 . S
S545 N546 1.613 . S
S545 N547 1.610 . S
N546 S545 1.613 . S
N546 C549 1.350 . S
N547 S545 1.610 . S
N547 C548 1.351 . S
C548 C542 1.428 . S
C548 N547 1.351 . S
C548 C549 1.434 . S
C549 C540 1.429 . S
C549 N546 1.350 . S
C549 C548 1.434 . S
C550 C551 1.369 . S
C550 C552 1.419 . S
C550 H554 0.930 . S
C551 C550 1.369 . S
C551 C560 1.429 . S
C552 C550 1.419 . S
C552 C553 1.363 . S
C552 H555 0.929 . S
C553 C552 1.363 . S
C553 C559 1.428 . S
H554 C550 0.930 . S
H555 C552 0.929 . S
S556 N557 1.613 . S
S556 N558 1.610 . S
N557 S556 1.613 . S
N557 C560 1.350 . S
N558 S556 1.610 . S
N558 C559 1.351 . S
C559 C553 1.428 . S
C559 N558 1.351 . S
C559 C560 1.434 . S
C560 C551 1.429 . S
C560 N557 1.350 . S
C560 C559 1.434 . S
C561 C562 1.369 . S
C561 C563 1.419 . S
C561 H565 0.930 . S
C562 C561 1.369 . S
C562 C571 1.429 . S
C563 C561 1.419 . S
C563 C564 1.363 . S
C563 H566 0.929 . S
C564 C563 1.363 . S
C564 C570 1.428 . S
H565 C561 0.930 . S
H566 C563 0.929 . S
S567 N568 1.613 . S
S567 N569 1.610 . S
N568 S567 1.613 . S
N568 C571 1.350 . S
N569 S567 1.610 . S
N569 C570 1.351 . S
C570 C564 1.428 . S
C570 N569 1.351 . S
C570 C571 1.434 . S
C571 C562 1.429 . S
C571 N568 1.350 . S
C571 C570 1.434 . S
C572 C573 1.369 1_455 S
C572 C574 1.419 . S
C572 H576 0.930 . S
C573 C572 1.369 1_655 S
C573 C582 1.429 . S
C574 C572 1.419 . S
C574 C575 1.363 . S
C574 H577 0.929 . S
C575 C574 1.363 . S
C575 C581 1.428 1_455 S
H576 C572 0.930 . S
H577 C574 0.929 . S
S578 N579 1.613 1_554 S
S578 N580 1.610 1_554 S
N579 S578 1.613 1_556 S
N579 C582 1.350 . S
N580 S578 1.610 1_556 S
N580 C581 1.351 . S
C581 C575 1.428 1_655 S
C581 N580 1.351 . S
C581 C582 1.434 . S
C582 C573 1.429 . S
C582 N579 1.350 . S
C582 C581 1.434 . S
C583 C584 1.369 . S
C583 C585 1.419 . S
C583 H587 0.930 . S
C584 C583 1.369 . S
C584 C593 1.429 . S
C585 C583 1.419 . S
C585 C586 1.363 . S
C585 H588 0.929 . S
C586 C585 1.363 . S
C586 C592 1.428 . S
H587 C583 0.930 . S
H588 C585 0.929 . S
S589 N590 1.613 . S
S589 N591 1.610 1_565 S
N590 S589 1.613 . S
N590 C593 1.350 . S
N591 S589 1.610 1_545 S
N591 C592 1.351 1_545 S
C592 C586 1.428 . S
C592 N591 1.351 1_565 S
C592 C593 1.434 . S
C593 C584 1.429 . S
C593 N590 1.350 . S
C593 C592 1.434 . S
C594 C595 1.369 . S
C594 C596 1.419 . S
C594 H598 0.930 . S
C595 C594 1.369 . S
C595 C604 1.429 . S
C596 C594 1.419 . S
C596 C597 1.363 . S
C596 H599 0.929 . S
C597 C596 1.363 . S
C597 C603 1.428 . S
H598 C594 0.930 . S
H599 C596 0.929 . S
S600 N601 1.613 1_554 S
S600 N602 1.610 1_554 S
N601 S600 1.613 1_556 S
N601 C604 1.350 . S
N602 S600 1.610 1_556 S
N602 C603 1.351 . S
C603 C597 1.428 . S
C603 N602 1.351 . S
C603 C604 1.434 . S
C604 C595 1.429 . S
C604 N601 1.350 . S
C604 C603 1.434 . S
C605 C606 1.369 . S
C605 C607 1.419 . S
C605 H609 0.930 . S
C606 C605 1.369 . S
C606 C615 1.429 . S
C607 C605 1.419 . S
C607 C608 1.363 . S
C607 H610 0.929 . S
C608 C607 1.363 . S
C608 C614 1.428 . S
H609 C605 0.930 . S
H610 C607 0.929 . S
S611 N612 1.613 1_554 S
S611 N613 1.610 1_554 S
N612 S611 1.613 1_556 S
N612 C615 1.350 . S
N613 S611 1.610 1_556 S
N613 C614 1.351 . S
C614 C608 1.428 . S
C614 N613 1.351 . S
C614 C615 1.434 . S
C615 C606 1.429 . S
C615 N612 1.350 . S
C615 C614 1.434 . S
C616 C617 1.369 1_655 S
C616 C618 1.419 . S
C616 H620 0.930 . S
C617 C616 1.369 1_455 S
C617 C626 1.429 . S
C618 C616 1.419 . S
C618 C619 1.363 1_655 S
C618 H621 0.929 . S
C619 C618 1.363 1_455 S
C619 C625 1.428 1_554 S
H620 C616 0.930 . S
H621 C618 0.929 . S
S622 N623 1.613 . S
S622 N624 1.610 . S
N623 S622 1.613 . S
N623 C626 1.350 1_556 S
N624 S622 1.610 . S
N624 C625 1.351 . S
C625 C619 1.428 1_556 S
C625 N624 1.351 . S
C625 C626 1.434 1_556 S
C626 C617 1.429 . S
C626 N623 1.350 1_554 S
C626 C625 1.434 1_554 S
C627 C628 1.369 . S
C627 C629 1.419 . S
C627 H631 0.930 . S
C628 C627 1.369 . S
C628 C637 1.429 . S
C629 C627 1.419 . S
C629 C630 1.363 . S
C629 H632 0.929 1_554 S
C630 C629 1.363 . S
C630 C636 1.428 . S
H631 C627 0.930 . S
H632 C629 0.929 1_556 S
S633 N634 1.613 . S
S633 N635 1.610 . S
N634 S633 1.613 . S
N634 C637 1.350 . S
N635 S633 1.610 . S
N635 C636 1.351 . S
C636 C630 1.428 . S
C636 N635 1.351 . S
C636 C637 1.434 . S
C637 C628 1.429 . S
C637 N634 1.350 . S
C637 C636 1.434 . S
C638 C639 1.369 1_556 S
C638 C640 1.419 . S
C638 H642 0.930 . S
C639 C638 1.369 1_554 S
C639 C648 1.429 . S
C640 C638 1.419 . S
C640 C641 1.363 . S
C640 H643 0.929 . S
C641 C640 1.363 . S
C641 C647 1.428 1_556 S
H642 C638 0.930 . S
H643 C640 0.929 . S
S644 N645 1.613 . S
S644 N646 1.610 . S
N645 S644 1.613 . S
N645 C648 1.350 . S
N646 S644 1.610 . S
N646 C647 1.351 . S
C647 C641 1.428 1_554 S
C647 N646 1.351 . S
C647 C648 1.434 . S
C648 C639 1.429 . S
C648 N645 1.350 . S
C648 C647 1.434 . S
C649 C650 1.369 . S
C649 C651 1.419 1_554 S
C649 H653 0.930 . S
C650 C649 1.369 . S
C650 C659 1.429 1_554 S
C651 C649 1.419 1_556 S
C651 C652 1.363 . S
C651 H654 0.929 . S
C652 C651 1.363 . S
C652 C658 1.428 . S
H653 C649 0.930 . S
H654 C651 0.929 . S
S655 N656 1.613 . S
S655 N657 1.610 . S
N656 S655 1.613 . S
N656 C659 1.350 . S
N657 S655 1.610 . S
N657 C658 1.351 . S
C658 C652 1.428 . S
C658 N657 1.351 . S
C658 C659 1.434 . S
C659 C650 1.429 1_556 S
C659 N656 1.350 . S
C659 C658 1.434 . S
C660 C661 1.369 1_455 S
C660 C662 1.419 . S
C660 H664 0.930 . S
C661 C660 1.369 1_655 S
C661 C670 1.429 . S
C662 C660 1.419 . S
C662 C663 1.363 1_455 S
C662 H665 0.929 . S
C663 C662 1.363 1_655 S
C663 C669 1.428 . S
H664 C660 0.930 . S
H665 C662 0.929 . S
S666 N667 1.613 . S
S666 N668 1.610 . S
N667 S666 1.613 . S
N667 C670 1.350 . S
N668 S666 1.610 . S
N668 C669 1.351 . S
C669 C663 1.428 . S
C669 N668 1.351 . S
C669 C670 1.434 . S
C670 C661 1.429 . S
C670 N667 1.350 . S
C670 C669 1.434 . S
C671 C672 1.369 . S
C671 C673 1.419 . S
C671 H675 0.930 . S
C672 C671 1.369 . S
C672 C681 1.429 . S
C673 C671 1.419 . S
C673 C674 1.363 . S
C673 H676 0.929 . S
C674 C673 1.363 . S
C674 C680 1.428 . S
H675 C671 0.930 . S
H676 C673 0.929 . S
S677 N678 1.613 1_545 S
S677 N679 1.610 . S
N678 S677 1.613 1_565 S
N678 C681 1.350 . S
N679 S677 1.610 . S
N679 C680 1.351 1_545 S
C680 C674 1.428 . S
C680 N679 1.351 1_565 S
C680 C681 1.434 . S
C681 C672 1.429 . S
C681 N678 1.350 . S
C681 C680 1.434 . S
C682 C683 1.369 . S
C682 C684 1.419 . S
C682 H686 0.930 . S
C683 C682 1.369 . S
C683 C692 1.429 . S
C684 C682 1.419 . S
C684 C685 1.363 . S
C684 H687 0.929 . S
C685 C684 1.363 . S
C685 C691 1.428 . S
H686 C682 0.930 . S
H687 C684 0.929 . S
S688 N689 1.613 . S
S688 N690 1.610 . S
N689 S688 1.613 . S
N689 C692 1.350 . S
N690 S688 1.610 . S
N690 C691 1.351 . S
C691 C685 1.428 . S
C691 N690 1.351 . S
C691 C692 1.434 . S
C692 C683 1.429 . S
C692 N689 1.350 . S
C692 C691 1.434 . S
C693 C694 1.369 . S
C693 C695 1.419 . S
C693 H697 0.930 . S
C694 C693 1.369 . S
C694 C703 1.429 . S
C695 C693 1.419 . S
C695 C696 1.363 . S
C695 H698 0.929 . S
C696 C695 1.363 . S
C696 C702 1.428 . S
H697 C693 0.930 . S
H698 C695 0.929 . S
S699 N700 1.613 . S
S699 N701 1.610 . S
N700 S699 1.613 . S
N700 C703 1.350 . S
N701 S699 1.610 . S
N701 C702 1.351 . S
C702 C696 1.428 . S
C702 N701 1.351 . S
C702 C703 1.434 . S
C703 C694 1.429 . S
C703 N700 1.350 . S
C703 C702 1.434 . S
C441 C255 1.990 . S
C443 C330 2.029 . S
C454 C360 1.828 . S
C452 C295 1.792 . S
C465 N394 2.002 . S
C463 C175 1.936 . S
C476 N424 1.520 . S
C474 C215 1.605 1_655 S
C487 C321 2.031 1_565 S
C485 C95 1.984 1_556 S
C496 C135 1.801 1_556 S
C498 C351 1.825 . S
C507 C15 1.922 1_556 S
C509 N386 2.003 . S
C518 C55 1.602 . S
C520 N416 1.522 . S
C531 C336 0.676 . S
C529 C221 0.729 . S
C542 C366 1.290 . S
C540 C261 1.234 . S
C553 C407 0.944 . S
C551 C301 0.895 . S
C562 C181 1.182 . S
C564 C437 1.166 . S
C573 C61 0.757 1_655 S
C575 C347 0.678 . S
C586 C377 1.299 1_565 S
C584 C101 1.051 . S
C597 C396 0.944 . S
C595 C141 0.910 . S
C606 C21 0.975 . S
C608 C426 1.171 . S
C617 C202 1.845 . S
C619 N326 1.957 1_554 S
C628 C242 2.024 . S
C630 N356 2.115 1_554 S
C641 C381 2.101 . S
C639 C282 1.979 . S
C652 C411 2.361 . S
C650 C162 2.291 . S
C661 C42 1.873 1_655 S
C663 N334 1.960 . S
C674 N364 2.112 . S
C672 C82 1.946 . S
C685 C390 2.098 . S
C683 C122 2.041 . S
C694 C2 2.170 . S
C696 C420 2.364 . S
