# Generated by pormake.
# Topology soc, (4,6)-cn, num edge types: 1
# Building blocks:
#     Node 0, Type 0, BuildingBlock: ESEHIV_clean_sbu_0, # of connection points: 4
#     Node 1, Type 0, BuildingBlock: ESEHIV_clean_sbu_0, # of connection points: 4
#     Node 2, Type 0, BuildingBlock: ESEHIV_clean_sbu_0, # of connection points: 4
#     Node 3, Type 0, BuildingBlock: ESEHIV_clean_sbu_0, # of connection points: 4
#     Node 4, Type 0, BuildingBlock: ESEHIV_clean_sbu_0, # of connection points: 4
#     Node 5, Type 0, BuildingBlock: ESEHIV_clean_sbu_0, # of connection points: 4
#     Node 6, Type 0, BuildingBlock: ESEHIV_clean_sbu_0, # of connection points: 4
#     Node 7, Type 0, BuildingBlock: ESEHIV_clean_sbu_0, # of connection points: 4
#     Node 8, Type 0, BuildingBlock: ESEHIV_clean_sbu_0, # of connection points: 4
#     Node 9, Type 0, BuildingBlock: ESEHIV_clean_sbu_0, # of connection points: 4
#     Node 10, Type 0, BuildingBlock: ESEHIV_clean_sbu_0, # of connection points: 4
#     Node 11, Type 0, BuildingBlock: ESEHIV_clean_sbu_0, # of connection points: 4
#     Node 12, Type 1, BuildingBlock: BETDEL_clean_sbu_0, # of connection points: 6
#     Node 13, Type 1, BuildingBlock: BETDEL_clean_sbu_0, # of connection points: 6
#     Node 14, Type 1, BuildingBlock: BETDEL_clean_sbu_0, # of connection points: 6
#     Node 15, Type 1, BuildingBlock: BETDEL_clean_sbu_0, # of connection points: 6
#     Node 16, Type 1, BuildingBlock: BETDEL_clean_sbu_0, # of connection points: 6
#     Node 17, Type 1, BuildingBlock: BETDEL_clean_sbu_0, # of connection points: 6
#     Node 18, Type 1, BuildingBlock: BETDEL_clean_sbu_0, # of connection points: 6
#     Node 19, Type 1, BuildingBlock: BETDEL_clean_sbu_0, # of connection points: 6
#     Edge 20, Type (0, 1), BuildingBlock: TEMPAE_clean_linker_10, # of connection points: 2
#     Edge 21, Type (0, 1), BuildingBlock: TEMPAE_clean_linker_10, # of connection points: 2
#     Edge 22, Type (0, 1), BuildingBlock: TEMPAE_clean_linker_10, # of connection points: 2
#     Edge 23, Type (0, 1), BuildingBlock: TEMPAE_clean_linker_10, # of connection points: 2
#     Edge 24, Type (0, 1), BuildingBlock: TEMPAE_clean_linker_10, # of connection points: 2
#     Edge 25, Type (0, 1), BuildingBlock: TEMPAE_clean_linker_10, # of connection points: 2
#     Edge 26, Type (0, 1), BuildingBlock: TEMPAE_clean_linker_10, # of connection points: 2
#     Edge 27, Type (0, 1), BuildingBlock: TEMPAE_clean_linker_10, # of connection points: 2
#     Edge 28, Type (0, 1), BuildingBlock: TEMPAE_clean_linker_10, # of connection points: 2
#     Edge 29, Type (0, 1), BuildingBlock: TEMPAE_clean_linker_10, # of connection points: 2
#     Edge 30, Type (0, 1), BuildingBlock: TEMPAE_clean_linker_10, # of connection points: 2
#     Edge 31, Type (0, 1), BuildingBlock: TEMPAE_clean_linker_10, # of connection points: 2
#     Edge 32, Type (0, 1), BuildingBlock: TEMPAE_clean_linker_10, # of connection points: 2
#     Edge 33, Type (0, 1), BuildingBlock: TEMPAE_clean_linker_10, # of connection points: 2
#     Edge 34, Type (0, 1), BuildingBlock: TEMPAE_clean_linker_10, # of connection points: 2
#     Edge 35, Type (0, 1), BuildingBlock: TEMPAE_clean_linker_10, # of connection points: 2
#     Edge 36, Type (0, 1), BuildingBlock: TEMPAE_clean_linker_10, # of connection points: 2
#     Edge 37, Type (0, 1), BuildingBlock: TEMPAE_clean_linker_10, # of connection points: 2
#     Edge 38, Type (0, 1), BuildingBlock: TEMPAE_clean_linker_10, # of connection points: 2
#     Edge 39, Type (0, 1), BuildingBlock: TEMPAE_clean_linker_10, # of connection points: 2
#     Edge 40, Type (0, 1), BuildingBlock: TEMPAE_clean_linker_10, # of connection points: 2
#     Edge 41, Type (0, 1), BuildingBlock: TEMPAE_clean_linker_10, # of connection points: 2
#     Edge 42, Type (0, 1), BuildingBlock: TEMPAE_clean_linker_10, # of connection points: 2
#     Edge 43, Type (0, 1), BuildingBlock: TEMPAE_clean_linker_10, # of connection points: 2
#     Edge 44, Type (0, 1), BuildingBlock: TEMPAE_clean_linker_10, # of connection points: 2
#     Edge 45, Type (0, 1), BuildingBlock: TEMPAE_clean_linker_10, # of connection points: 2
#     Edge 46, Type (0, 1), BuildingBlock: TEMPAE_clean_linker_10, # of connection points: 2
#     Edge 47, Type (0, 1), BuildingBlock: TEMPAE_clean_linker_10, # of connection points: 2
#     Edge 48, Type (0, 1), BuildingBlock: TEMPAE_clean_linker_10, # of connection points: 2
#     Edge 49, Type (0, 1), BuildingBlock: TEMPAE_clean_linker_10, # of connection points: 2
#     Edge 50, Type (0, 1), BuildingBlock: TEMPAE_clean_linker_10, # of connection points: 2
#     Edge 51, Type (0, 1), BuildingBlock: TEMPAE_clean_linker_10, # of connection points: 2
#     Edge 52, Type (0, 1), BuildingBlock: TEMPAE_clean_linker_10, # of connection points: 2
#     Edge 53, Type (0, 1), BuildingBlock: TEMPAE_clean_linker_10, # of connection points: 2
#     Edge 54, Type (0, 1), BuildingBlock: TEMPAE_clean_linker_10, # of connection points: 2
#     Edge 55, Type (0, 1), BuildingBlock: TEMPAE_clean_linker_10, # of connection points: 2
#     Edge 56, Type (0, 1), BuildingBlock: TEMPAE_clean_linker_10, # of connection points: 2
#     Edge 57, Type (0, 1), BuildingBlock: TEMPAE_clean_linker_10, # of connection points: 2
#     Edge 58, Type (0, 1), BuildingBlock: TEMPAE_clean_linker_10, # of connection points: 2
#     Edge 59, Type (0, 1), BuildingBlock: TEMPAE_clean_linker_10, # of connection points: 2
#     Edge 60, Type (0, 1), BuildingBlock: TEMPAE_clean_linker_10, # of connection points: 2
#     Edge 61, Type (0, 1), BuildingBlock: TEMPAE_clean_linker_10, # of connection points: 2
#     Edge 62, Type (0, 1), BuildingBlock: TEMPAE_clean_linker_10, # of connection points: 2
#     Edge 63, Type (0, 1), BuildingBlock: TEMPAE_clean_linker_10, # of connection points: 2
#     Edge 64, Type (0, 1), BuildingBlock: TEMPAE_clean_linker_10, # of connection points: 2
#     Edge 65, Type (0, 1), BuildingBlock: TEMPAE_clean_linker_10, # of connection points: 2
#     Edge 66, Type (0, 1), BuildingBlock: TEMPAE_clean_linker_10, # of connection points: 2
#     Edge 67, Type (0, 1), BuildingBlock: TEMPAE_clean_linker_10, # of connection points: 2
# Relax obj value: 0.113
# Max RMSD: 0.169
# Mean RMSD: 0.147
data_MOF--net-soc--node1-ESEHIV_clean_sbu_0--node2-BETDEL_clean_sbu_0--edge1-TEMPAE_clean_linker_10
_symmetry_space_group_name_H-M    P1
_symmetry_Int_Tables_number       1
_symmetry_cell_setting            triclinic
loop_
_symmetry_equiv_pos_as_xyz
'x, y, z'
_cell_length_a     47.436031
_cell_length_b     45.416938
_cell_length_c     42.928364
_cell_angle_alpha  88.889148
_cell_angle_beta   89.889665
_cell_angle_gamma 80.532929
loop_
_atom_site_label
_atom_site_type_symbol
_atom_site_fract_x
_atom_site_fract_y
_atom_site_fract_z
_atom_type_partial_charge
Cu0 Cu 0.03326 0.01446 0.3151 0.0
N1 N 0.05569 0.03584 0.33888 0.0
N2 N 0.0846 0.06908 0.34783 0.0
C3 C 0.06484 0.06087 0.32869 0.0
C4 C 0.08795 0.04833 0.3711 0.0
C5 C 0.07012 0.02782 0.36548 0.0
O6 O 0.06131 0.98488 0.29268 0.0
C7 C 0.98931 0.06125 0.31245 0.0
O8 O 0.99528 0.05681 0.34222 0.0
H9 H 0.05846 0.07173 0.30654 0.0
H10 H 0.0689 0.0077 0.37894 0.0
N11 N 1.0101 0.99289 0.33877 0.0
N12 N 0.97591 0.96512 0.34736 0.0
C13 C 0.99168 0.97711 0.32583 0.0
C14 C 1.00592 0.99101 0.36971 0.0
C15 C 0.98482 0.97383 0.37509 0.0
C16 C 0.07214 0.96153 0.30859 0.0
O17 O 0.06288 0.95821 0.33707 0.0
H18 H 0.98935 0.97535 0.3009 0.0
H19 H 0.01697 1.00179 0.38705 0.0
O20 O 1.00499 0.04479 0.29302 0.0
H21 H 0.10285 0.0475 0.39029 0.0
H22 H 0.97673 0.96824 0.39765 0.0
Cu23 Cu 1.01391 0.02252 0.73609 0.0
N24 N 0.99267 0.99974 0.71202 0.0
N25 N 0.96394 0.96636 0.7021 0.0
C26 C 0.97642 0.98069 0.72425 0.0
C27 C 0.97284 0.97695 0.67477 0.0
C28 C 0.99055 0.99744 0.68095 0.0
O29 O 0.98574 0.05201 0.75795 0.0
C30 C 0.05769 0.97656 0.74002 0.0
O31 O 0.05324 0.98182 0.71007 0.0
H32 H 0.97436 0.97707 0.74908 0.0
H33 H 1.00127 0.00955 0.66397 0.0
N34 N 0.03704 0.04502 0.71324 0.0
N35 N 0.07225 0.07177 0.70596 0.0
C36 C 0.06086 0.05303 0.72517 0.0
C37 C 0.03331 0.05906 0.68525 0.0
C38 C 0.05495 0.07573 0.68079 0.0
C39 C 0.96934 0.06868 0.73877 0.0
O40 O 0.97248 0.06313 0.70896 0.0
H41 H 0.06896 0.04627 0.74823 0.0
H42 H 1.01568 0.05815 0.66959 0.0
O43 O 0.04162 0.99293 0.75912 0.0
H44 H 0.96685 0.97061 0.65185 0.0
H45 H 0.05753 0.08998 0.66083 0.0
Cu46 Cu 0.35487 0.02211 0.04101 0.0
N47 N 0.37289 0.99503 0.01258 0.0
N48 N 0.37651 0.95727 0.97956 0.0
C49 C 0.36031 0.97319 1.00117 0.0
C50 C 0.40057 0.9695 0.97755 0.0
C51 C 0.39832 0.99281 0.99812 0.0
O52 O 0.33985 0.99803 0.07323 0.0
C53 C 0.31527 0.05013 0.99346 0.0
O54 O 0.3125 0.02327 0.98455 0.0
H55 H 0.33896 0.97007 0.00769 0.0
H56 H 0.41387 0.00731 1.00175 0.0
N57 N 0.38059 0.04251 0.06043 0.0
N58 N 0.39185 0.07548 0.09419 0.0
C59 C 0.37647 0.05357 0.0892 0.0
C60 C 0.39945 0.05776 0.04673 0.0
C61 C 0.40647 0.07813 0.06757 0.0
C62 C 0.3168 0.98711 0.07378 0.0
O63 O 0.2973 0.99506 0.05219 0.0
H64 H 0.3597 0.04847 0.10455 0.0
H65 H 0.40507 0.05668 0.02232 0.0
O66 O 0.32908 0.05324 0.0183 0.0
H67 H 0.41834 0.96247 0.96209 0.0
H68 H 0.41911 0.09544 0.06253 0.0
Cu69 Cu 0.03027 0.30807 0.03469 0.0
N70 N 0.04678 0.33143 0.00584 0.0
N71 N 0.07752 0.34146 0.96909 0.0
C72 C 0.07279 0.32332 0.99316 0.0
C73 C 0.05354 0.36208 0.96686 0.0
C74 C 0.03458 0.35577 0.98949 0.0
O75 O 0.06146 0.28973 0.06344 0.0
C76 C 1.00761 0.2813 0.98147 0.0
O77 O 0.02926 0.2893 0.9663 0.0
H78 H 0.08692 0.30301 0.99991 0.0
H79 H 1.01284 0.36699 0.99247 0.0
N80 N 1.00316 0.3314 0.05924 0.0
N81 N 0.96618 0.3411 0.0918 0.0
C82 C 0.98521 0.31978 0.07836 0.0
C83 C 0.9954 0.36123 0.06069 0.0
C84 C 0.97241 0.36729 0.08072 0.0
C85 C 0.07302 0.30904 0.07811 0.0
O86 O 0.06306 0.33739 0.07252 0.0
H87 H 0.9855 0.29602 0.08148 0.0
H88 H 1.00544 0.37741 0.04787 0.0
O89 O 1.00686 0.28342 0.01119 0.0
H90 H 0.04944 0.37972 0.94936 0.0
H91 H 0.96117 0.38917 0.08663 0.0
Cu92 Cu 0.71271 0.02022 0.01261 0.0
N93 N 0.69092 0.05362 0.99374 0.0
N94 N 0.68217 0.09347 0.96159 0.0
C95 C 0.69661 0.06541 0.96593 0.0
C96 C 0.6662 0.09898 0.98763 0.0
C97 C 0.67172 0.07443 0.00739 0.0
O98 O 0.74289 0.03359 0.03654 0.0
C99 C 0.70684 0.98293 0.96337 0.0
O100 O 0.68049 0.99729 0.96514 0.0
H101 H 0.71267 0.0542 0.95041 0.0
H102 H 0.66407 0.0728 0.03101 0.0
N103 N 0.69181 1.00339 0.04263 0.0
N104 N 0.68522 0.97755 0.086 0.0
C105 C 0.70427 0.98817 0.06738 0.0
C106 C 0.6637 1.00256 0.04539 0.0
C107 C 0.65956 0.98639 0.0722 0.0
C108 C 0.7533 0.05719 0.03065 0.0
O109 O 0.74845 0.07062 1.00337 0.0
H110 H 0.72717 0.9841 0.07098 0.0
H111 H 0.64751 0.01262 0.02896 0.0
O112 O 0.72556 0.98982 0.98194 0.0
H113 H 0.65319 0.12004 0.99332 0.0
H114 H 0.63935 0.98135 0.08067 0.0
Cu115 Cu 1.01479 0.72218 0.00393 0.0
N116 N 0.99609 0.70034 0.97668 0.0
N117 N 0.96505 0.69344 0.93949 0.0
C118 C 0.9733 0.71277 0.95968 0.0
C119 C 0.98347 0.66769 0.94403 0.0
C120 C 1.00264 0.67201 0.96706 0.0
O121 O 0.98512 0.74372 0.03143 0.0
C122 C 0.06003 0.72562 0.96545 0.0
O123 O 0.06099 0.69683 0.97035 0.0
H124 H 0.96364 0.73599 0.96137 0.0
H125 H 0.02045 0.65592 0.97558 0.0
N126 N 0.04048 0.69928 0.03125 0.0
N127 N 0.07542 0.69275 0.06688 0.0
C128 C 0.06006 0.7118 0.04638 0.0
C129 C 0.0435 0.67095 0.0421 0.0
C130 C 0.06513 0.66684 0.06416 0.0
C131 C 0.97295 0.72593 0.04835 0.0
O132 O 0.98017 0.6971 0.0442 0.0
H133 H 0.06271 0.73473 0.0422 0.0
H134 H 0.03049 0.65475 0.03517 0.0
O135 O 0.03953 0.7436 0.97775 0.0
H136 H 0.98318 0.64725 0.93157 0.0
H137 H 0.07205 0.64661 0.07768 0.0
Cu138 Cu 0.51409 0.51725 0.81283 0.0
N139 N 0.53188 0.54401 0.8355 0.0
N140 N 0.55729 0.58075 0.84238 0.0
C141 C 0.55179 0.55899 0.82347 0.0
C142 C 0.54032 0.57935 0.86742 0.0
C143 C 0.52471 0.55661 0.86317 0.0
O144 O 0.54516 0.49093 0.79113 0.0
C145 C 0.46311 0.55534 0.80862 0.0
O146 O 0.46584 0.54806 0.83833 0.0
H147 H 0.56073 0.55523 0.80038 0.0
H148 H 0.50827 0.55081 0.87847 0.0
N149 N 0.49641 0.49115 0.8377 0.0
N150 N 0.46937 0.45629 0.84865 0.0
C151 C 0.47955 0.47286 0.82615 0.0
C152 C 0.49708 0.48598 0.8687 0.0
C153 C 0.4803 0.46454 0.87554 0.0
C154 C 0.56282 0.47615 0.81056 0.0
O155 O 0.55854 0.48139 0.84034 0.0
H156 H 0.47457 0.47212 0.80161 0.0
H157 H 0.50906 0.4968 0.88513 0.0
O158 O 0.48263 0.54308 0.79007 0.0
H159 H 0.53873 0.59424 0.88697 0.0
H160 H 0.47684 0.45541 0.89843 0.0
Cu161 Cu 0.53532 0.51762 0.23253 0.0
N162 N 0.51251 0.49589 0.20917 0.0
N163 N 0.47909 0.46709 0.20087 0.0
C164 C 0.49038 0.48432 0.2213 0.0
C165 C 0.49487 0.46815 0.17471 0.0
C166 C 0.5154 0.48583 0.1799 0.0
O167 O 0.50781 0.54745 0.25486 0.0
C168 C 0.57993 0.47158 0.23526 0.0
O169 O 0.57656 0.4786 0.20553 0.0
H170 H 0.48316 0.48823 0.24498 0.0
H171 H 0.5319 0.48999 0.16381 0.0
N172 N 0.5578 0.54015 0.20877 0.0
N173 N 0.59113 0.56895 0.19949 0.0
C174 C 0.57803 0.55402 0.2212 0.0
C175 C 0.55797 0.54653 0.17803 0.0
C176 C 0.57857 0.56421 0.17223 0.0
C177 C 0.49175 0.56437 0.23554 0.0
O178 O 0.49605 0.55955 0.20569 0.0
H179 H 0.58312 0.55293 0.2458 0.0
H180 H 0.54389 0.53929 0.16108 0.0
O181 O 0.56313 0.48691 0.25457 0.0
H182 H 0.49265 0.45612 0.1536 0.0
H183 H 0.58339 0.57345 0.14979 0.0
Cu184 Cu 0.84288 0.52168 0.52489 0.0
N185 N 0.86326 0.54249 0.49727 0.0
N186 N 0.87026 0.57079 0.45562 0.0
C187 C 0.85197 0.55576 0.47085 0.0
C188 C 0.89425 0.56648 0.47324 0.0
C189 C 0.88987 0.54894 0.49893 0.0
O190 O 0.82168 0.54939 0.55393 0.0
C191 C 0.8346 0.48285 0.47995 0.0
O192 O 0.86221 0.4832 0.47835 0.0
H193 H 0.83011 0.5555 0.4639 0.0
H194 H 0.90473 0.542 0.51776 0.0
N195 N 0.86606 0.49325 0.54934 0.0
N196 N 0.87457 0.45604 0.5846 0.0
C197 C 0.85568 0.47936 0.57364 0.0
C198 C 0.89265 0.47838 0.54466 0.0
C199 C 0.89796 0.45527 0.56644 0.0
C200 C 0.81271 0.5769 0.54798 0.0
O201 O 0.81415 0.58721 0.51934 0.0
H202 H 0.83382 0.48496 0.5816 0.0
H203 H 0.9065 0.48289 0.52573 0.0
O204 O 0.81992 0.49933 0.49984 0.0
H205 H 0.91344 0.5757 0.46835 0.0
H206 H 0.91706 0.4386 0.56803 0.0
Cu207 Cu 0.52679 0.79998 0.53447 0.0
N208 N 0.54755 0.82242 0.50846 0.0
N209 N 0.57964 0.83055 0.47209 0.0
C210 C 0.5694 0.81007 0.49024 0.0
C211 C 0.56359 0.85694 0.47931 0.0
C212 C 0.54391 0.85189 0.50182 0.0
O213 O 0.55228 0.78468 0.56877 0.0
C214 C 0.49185 0.76194 0.50737 0.0
O215 O 0.47788 0.76325 0.53386 0.0
H216 H 0.57703 0.78628 0.48965 0.0
H217 H 0.52794 0.86849 0.51228 0.0
N218 N 0.49277 0.82172 0.55074 0.0
N219 N 0.45162 0.8299 0.57783 0.0
C220 C 0.47804 0.81335 0.57548 0.0
C221 C 0.47525 0.84464 0.53717 0.0
C222 C 0.45007 0.84986 0.55384 0.0
C223 C 0.55832 0.80505 0.58641 0.0
O224 O 0.54585 0.83267 0.58076 0.0
H225 H 0.48579 0.79393 0.58992 0.0
H226 H 0.47973 0.85565 0.51561 0.0
O227 O 0.5158 0.77106 0.50608 0.0
H228 H 0.56593 0.87839 0.46912 0.0
H229 H 0.4317 0.86647 0.54793 0.0
Cu230 Cu 0.26077 0.49844 0.51969 0.0
N231 N 0.28022 0.51621 0.48846 0.0
N232 N 0.28683 0.54992 0.4515 0.0
C233 C 0.26859 0.54107 0.47256 0.0
C234 C 0.31092 0.52945 0.45419 0.0
C235 C 0.30675 0.50866 0.47697 0.0
O236 O 0.24073 0.53087 0.54407 0.0
C237 C 0.25083 0.44986 0.48813 0.0
O238 O 0.27826 0.44314 0.49436 0.0
H239 H 0.24697 0.55228 0.47647 0.0
H240 H 0.32201 0.48956 0.48471 0.0
N241 N 0.28451 0.47389 0.54793 0.0
N242 N 0.29607 0.44061 0.58697 0.0
C243 C 0.27528 0.45399 0.56746 0.0
C244 C 0.31217 0.47327 0.55518 0.0
C245 C 0.31939 0.4527 0.57917 0.0
C246 C 0.25756 0.54783 0.55388 0.0
O247 O 0.28476 0.54157 0.54652 0.0
H248 H 0.25359 0.44949 0.56714 0.0
H249 H 0.32594 0.48723 0.54432 0.0
O250 O 0.23703 0.47427 0.49819 0.0
H251 H 0.33042 0.52972 0.44114 0.0
H252 H 0.34005 0.44769 0.59044 0.0
Cu253 Cu 0.51529 0.22376 0.5065 0.0
N254 N 0.5425 0.20093 0.48111 0.0
N255 N 0.5801 0.19018 0.44943 0.0
C256 C 0.56644 0.20972 0.46995 0.0
C257 C 0.56431 0.16818 0.44765 0.0
C258 C 0.54126 0.17474 0.46737 0.0
O259 O 0.53723 0.24744 0.53294 0.0
C260 C 0.47159 0.22853 0.46246 0.0
O261 O 0.47799 0.19953 0.46694 0.0
H262 H 0.57296 0.23076 0.47557 0.0
H263 H 0.52434 0.16169 0.47058 0.0
N264 N 0.49751 0.19924 0.53329 0.0
N265 N 0.46975 0.18599 0.57159 0.0
C266 C 0.4764 0.20865 0.55362 0.0
C267 C 0.50437 0.16959 0.53847 0.0
C268 C 0.48731 0.16137 0.56206 0.0
C269 C 0.55219 0.23283 0.55474 0.0
O270 O 0.55135 0.20421 0.55825 0.0
H271 H 0.46697 0.23186 0.55602 0.0
H272 H 0.52128 0.15509 0.52678 0.0
O273 O 0.48506 0.24532 0.47846 0.0
H274 H 0.56886 0.14904 0.43272 0.0
H275 H 0.48806 0.13906 0.57169 0.0
Dy276 Dy 0.2509 0.257 0.28701 0.0
C277 C 0.32924 0.33665 0.24242 0.0
C278 C 0.20892 0.22318 0.2973 0.0
Dy279 Dy 0.29057 0.29948 0.25576 0.0
O280 O 0.21674 0.24174 0.31694 0.0
O281 O 0.22378 0.22345 0.27183 0.0
O282 O 0.27948 0.24102 0.32859 0.0
O283 O 0.29166 0.27046 0.29622 0.0
C284 C 0.29923 0.25673 0.32138 0.0
C285 C 0.24615 0.28806 0.22064 0.0
O286 O 0.31437 0.25453 0.24447 0.0
O287 O 0.27686 0.22783 0.2521 0.0
O288 O 0.30159 0.34443 0.24142 0.0
O289 O 0.33561 0.30864 0.25054 0.0
O290 O 0.27003 0.29417 0.2093 0.0
O291 O 0.24622 0.29135 0.24985 0.0
O292 O 0.23089 0.30152 0.30501 0.0
O293 O 0.26895 0.32684 0.29442 0.0
C294 C 0.30269 0.2302 0.24138 0.0
C295 C 0.24436 0.32469 0.30845 0.0
Dy296 Dy 0.78521 0.28149 0.29825 0.0
C297 C 0.77154 0.19573 0.20543 0.0
C298 C 0.78444 0.32481 0.34167 0.0
Dy299 Dy 0.77034 0.23866 0.24968 0.0
O300 O 0.77493 0.32916 0.31337 0.0
O301 O 0.79466 0.29671 0.34627 0.0
O302 O 0.83098 0.25933 0.29781 0.0
O303 O 0.79892 0.23342 0.28994 0.0
C304 C 0.82569 0.2333 0.28997 0.0
C305 C 0.73068 0.2878 0.25723 0.0
O306 O 0.75187 0.21923 0.29186 0.0
O307 O 0.74881 0.26267 0.32002 0.0
O308 O 0.75046 0.21726 0.21019 0.0
O309 O 0.79199 0.19749 0.22501 0.0
O310 O 0.7246 0.26201 0.24959 0.0
O311 O 0.75749 0.28656 0.25761 0.0
O312 O 0.80566 0.3006 0.25764 0.0
O313 O 0.80172 0.26229 0.22361 0.0
C314 C 0.74159 0.23614 0.31543 0.0
C315 C 0.8117 0.28696 0.2309 0.0
Dy316 Dy 0.76489 0.75051 0.25085 0.0
C317 C 0.83008 0.83448 0.29984 0.0
C318 C 0.73268 0.70773 0.23598 0.0
Dy319 Dy 0.79672 0.79394 0.28183 0.0
O320 O 0.72587 0.73614 0.23035 0.0
O321 O 0.75754 0.70238 0.24961 0.0
O322 O 0.75975 0.77914 0.20792 0.0
O323 O 0.75916 0.79941 0.25173 0.0
C324 C 0.75861 0.80402 0.22261 0.0
C325 C 0.80148 0.74048 0.31049 0.0
O326 O 0.75568 0.80634 0.30759 0.0
O327 O 0.73807 0.76372 0.29382 0.0
O328 O 0.83549 0.80594 0.30512 0.0
O329 O 0.80611 0.8412 0.28462 0.0
O330 O 0.79948 0.76553 0.32493 0.0
O331 O 0.8022 0.74484 0.28135 0.0
O332 O 0.8048 0.74176 0.22177 0.0
O333 O 0.82217 0.78386 0.23775 0.0
C334 C 0.73665 0.78814 0.31078 0.0
C335 C 0.82318 0.76081 0.21901 0.0
Dy336 Dy 0.26916 0.75993 0.24563 0.0
C337 C 0.35725 0.78503 0.32552 0.0
C338 C 0.22755 0.74884 0.20611 0.0
Dy339 Dy 0.30893 0.78385 0.29145 0.0
O340 O 0.22333 0.75768 0.23463 0.0
O341 O 0.25446 0.7467 0.19893 0.0
O342 O 0.29488 0.71403 0.24986 0.0
O343 O 0.31545 0.75109 0.25431 0.0
C344 C 0.31865 0.72289 0.25675 0.0
C345 C 0.25304 0.80915 0.29579 0.0
O346 O 0.31577 0.81323 0.25054 0.0
O347 O 0.28353 0.7967 0.21636 0.0
O348 O 0.33627 0.80745 0.32264 0.0
O349 O 0.35193 0.76294 0.30916 0.0
O350 O 0.27075 0.80576 0.31929 0.0
O351 O 0.26679 0.80081 0.27151 0.0
O352 O 0.25579 0.74076 0.29102 0.0
O353 O 0.29694 0.74521 0.31788 0.0
C354 C 0.30212 0.81465 0.22335 0.0
C355 C 0.27337 0.73364 0.31494 0.0
Dy356 Dy 0.27409 0.78657 0.79492 0.0
C357 C 0.23729 0.70642 0.71208 0.0
C358 C 0.29182 0.82262 0.83814 0.0
Dy359 Dy 0.24864 0.74881 0.75223 0.0
O360 O 0.29598 0.79373 0.83965 0.0
O361 O 0.27727 0.83208 0.81327 0.0
O362 O 0.31731 0.7605 0.78615 0.0
O363 O 0.28232 0.73769 0.78713 0.0
C364 C 0.30902 0.73509 0.78226 0.0
C365 C 0.21374 0.80025 0.76323 0.0
O366 O 0.22675 0.73679 0.79608 0.0
O367 O 0.23757 0.77618 0.82434 0.0
O368 O 0.24955 0.70102 0.73905 0.0
O369 O 0.23145 0.73503 0.70687 0.0
O370 O 0.20508 0.77525 0.7576 0.0
O371 O 0.2406 0.79755 0.75956 0.0
O372 O 0.29084 0.8041 0.75095 0.0
O373 O 0.28328 0.76375 0.72219 0.0
C374 C 0.22294 0.75404 0.82082 0.0
C375 C 0.29525 0.78796 0.72557 0.0
Dy376 Dy 0.26677 0.22443 0.77098 0.0
C377 C 0.33749 0.30744 0.81308 0.0
C378 C 0.23162 0.18338 0.75976 0.0
Dy379 Dy 0.30242 0.26698 0.79997 0.0
O380 O 0.24705 0.19448 0.73907 0.0
O381 O 0.23579 0.19427 0.78679 0.0
O382 O 0.26649 0.24735 0.72424 0.0
O383 O 0.26913 0.27195 0.76453 0.0
C384 C 0.27097 0.27255 0.73521 0.0
C385 C 0.29564 0.21955 0.83584 0.0
O386 O 0.26007 0.2881 0.81826 0.0
O387 O 0.23572 0.2498 0.80469 0.0
O388 O 0.34303 0.27904 0.81968 0.0
O389 O 0.31277 0.3137 0.79946 0.0
O390 O 0.29717 0.24575 0.8466 0.0
O391 O 0.30004 0.2191 0.80676 0.0
O392 O 0.31037 0.20366 0.75518 0.0
O393 O 0.32962 0.24692 0.76055 0.0
C394 C 0.23716 0.27493 0.8195 0.0
C395 C 0.33044 0.22005 0.7488 0.0
Dy396 Dy 0.75087 0.27067 0.74459 0.0
C397 C 0.83402 0.28127 0.84263 0.0
C398 C 0.70946 0.27157 0.6991 0.0
Dy399 Dy 0.79158 0.28526 0.79775 0.0
O400 O 0.73315 0.25261 0.70114 0.0
O401 O 0.70859 0.29026 0.72177 0.0
O402 O 0.77305 0.22299 0.74592 0.0
O403 O 0.79621 0.25696 0.75702 0.0
C404 C 0.79717 0.22898 0.75634 0.0
C405 C 0.74408 0.32629 0.78765 0.0
O406 O 0.81273 0.30172 0.75581 0.0
O407 O 0.77433 0.30456 0.72158 0.0
O408 O 0.81886 0.30588 0.83195 0.0
O409 O 0.82564 0.25886 0.82906 0.0
O410 O 0.76775 0.3326 0.799 0.0
O411 O 0.74621 0.29831 0.78583 0.0
O412 O 0.73102 0.25056 0.7853 0.0
O413 O 0.76671 0.25339 0.82205 0.0
C414 C 0.79967 0.31119 0.72928 0.0
C415 C 0.74299 0.24387 0.81303 0.0
Dy416 Dy 0.73727 0.75243 0.78078 0.0
C417 C 0.82486 0.82247 0.73537 0.0
C418 C 0.69046 0.7265 0.7942 0.0
Dy419 Dy 0.78362 0.7885 0.74906 0.0
O420 O 0.7068 0.73607 0.81467 0.0
O421 O 0.69927 0.73181 0.76624 0.0
O422 O 0.76804 0.7236 0.81365 0.0
O423 O 0.78214 0.75441 0.78422 0.0
C424 C 0.79014 0.73527 0.80521 0.0
C425 C 0.73321 0.79179 0.71989 0.0
O426 O 0.7943 0.74434 0.72566 0.0
O427 O 0.75195 0.72644 0.73814 0.0
O428 O 0.79748 0.83109 0.73237 0.0
O429 O 0.82991 0.79489 0.74562 0.0
O430 O 0.75696 0.79438 0.70571 0.0
O431 O 0.73706 0.79063 0.74906 0.0
O432 O 0.72887 0.79552 0.80675 0.0
O433 O 0.77017 0.81427 0.7921 0.0
C434 C 0.77605 0.72527 0.72194 0.0
C435 C 0.74681 0.81504 0.80939 0.0
C436 C 0.12967 0.08956 0.35165 0.0
C437 C 0.10101 0.0928 0.3422 0.0
C438 C 0.14638 0.11165 0.34452 0.0
C439 C 0.13411 0.13782 0.32779 0.0
C440 C 0.105 0.14153 0.3188 0.0
C441 C 0.08888 0.11893 0.32597 0.0
C442 C 0.17739 0.10666 0.35429 0.0
C443 C 0.09097 0.16924 0.30133 0.0
C444 C 0.17297 0.20473 0.33216 0.0
C445 C 0.18825 0.20276 0.30409 0.0
C446 C 0.15474 0.1842 0.33986 0.0
C447 C 0.15196 0.16094 0.31912 0.0
C448 C 0.16698 0.15922 0.29046 0.0
C449 C 0.18483 0.18024 0.28323 0.0
C450 C 0.13886 0.18706 0.37045 0.0
C451 C 0.16477 0.13472 0.26777 0.0
H452 H 0.13932 0.0693 0.36381 0.0
H453 H 0.06667 0.12171 0.31891 0.0
H454 H 0.19123 0.10627 0.33338 0.0
H455 H 0.18171 0.12532 0.36886 0.0
H456 H 0.18358 0.08538 0.36764 0.0
H457 H 0.06788 0.16922 0.29704 0.0
H458 H 0.09328 0.18941 0.31463 0.0
H459 H 0.10174 0.17104 0.27857 0.0
H460 H 0.17551 0.22215 0.34832 0.0
H461 H 0.19666 0.1786 0.26153 0.0
H462 H 0.14618 0.16713 0.38547 0.0
H463 H 0.11563 0.188 0.36639 0.0
H464 H 0.14212 0.20728 0.3832 0.0
H465 H 0.17271 0.11267 0.2789 0.0
H466 H 0.17723 0.13693 0.24615 0.0
H467 H 0.1421 0.13494 0.26132 0.0
C468 C 0.957 0.09319 0.27269 0.0
C469 C 0.96419 0.08451 0.30363 0.0
C470 C 0.93348 0.116 0.2658 0.0
C471 C 0.91677 0.13045 0.29038 0.0
C472 C 0.92365 0.12118 0.32148 0.0
C473 C 0.94701 0.09857 0.32762 0.0
C474 C 0.92682 0.12507 0.23231 0.0
C475 C 0.90672 0.1357 0.34858 0.0
C476 C 0.87728 0.21057 0.28645 0.0
C477 C 0.84851 0.20674 0.28623 0.0
C478 C 0.89966 0.18604 0.28562 0.0
C479 C 0.89333 0.15664 0.28452 0.0
C480 C 0.86428 0.15271 0.28257 0.0
C481 C 0.84222 0.17777 0.28351 0.0
C482 C 0.93011 0.1916 0.28776 0.0
C483 C 0.85641 0.12192 0.28108 0.0
H484 H 0.96991 0.0825 0.25394 0.0
H485 H 0.95192 0.0921 0.35168 0.0
H486 H 0.90392 0.1248 0.22727 0.0
H487 H 0.93066 0.14826 0.2281 0.0
H488 H 0.9401 0.11017 0.21579 0.0
H489 H 0.91405 0.12511 0.37133 0.0
H490 H 0.90869 0.15969 0.34923 0.0
H491 H 0.88372 0.13442 0.34572 0.0
H492 H 0.88243 0.23287 0.28814 0.0
H493 H 0.82007 0.17458 0.28308 0.0
H494 H 0.94356 0.17885 0.26981 0.0
H495 H 0.93911 0.18373 0.31087 0.0
H496 H 0.93167 0.21563 0.28481 0.0
H497 H 0.87003 0.1082 0.26394 0.0
H498 H 0.83362 0.12269 0.27466 0.0
H499 H 0.86017 0.11055 0.30417 0.0
C500 C 0.9543 0.93094 0.3141 0.0
C501 C 0.95382 0.94743 0.34148 0.0
C502 C 0.93291 0.91391 0.30771 0.0
C503 C 0.91043 0.91313 0.32928 0.0
C504 C 0.90969 0.92976 0.35694 0.0
C505 C 0.93138 0.9467 0.36271 0.0
C506 C 0.93462 0.89639 0.27802 0.0
C507 C 0.8861 0.92946 0.38054 0.0
C508 C 0.84397 0.88549 0.29929 0.0
C509 C 0.84937 0.8554 0.30877 0.0
C510 C 0.86333 0.90482 0.3064 0.0
C511 C 0.88855 0.89372 0.32345 0.0
C512 C 0.89366 0.8635 0.33367 0.0
C513 C 0.87405 0.84473 0.32616 0.0
C514 C 0.85717 0.93688 0.29503 0.0
C515 C 0.9202 0.85075 0.35195 0.0
H516 H 0.97172 0.93091 0.29777 0.0
H517 H 0.93057 0.95962 0.3837 0.0
H518 H 0.93705 0.87217 0.2837 0.0
H519 H 0.91455 0.9025 0.26447 0.0
H520 H 0.95283 0.90032 0.26307 0.0
H521 H 0.88813 0.94424 0.40045 0.0
H522 H 0.865 0.93671 0.36929 0.0
H523 H 0.8864 0.90639 0.38968 0.0
H524 H 0.82491 0.89379 0.28583 0.0
H525 H 0.87828 0.82148 0.33362 0.0
H526 H 0.87383 0.94116 0.27814 0.0
H527 H 0.85793 0.95214 0.31477 0.0
H528 H 0.83594 0.94245 0.28354 0.0
H529 H 0.93945 0.85177 0.3375 0.0
H530 H 0.92031 0.82719 0.35946 0.0
H531 H 0.92197 0.86424 0.37291 0.0
C532 C 0.09654 0.90869 0.30587 0.0
C533 C 0.09631 0.93882 0.29766 0.0
C534 C 0.12125 0.88709 0.30261 0.0
C535 C 0.1469 0.89572 0.29153 0.0
C536 C 0.14649 0.92593 0.28186 0.0
C537 C 0.12115 0.94708 0.28482 0.0
C538 C 0.12022 0.85522 0.31258 0.0
C539 C 0.17328 0.9363 0.27016 0.0
C540 C 0.21628 0.84785 0.32102 0.0
C541 C 0.22534 0.83035 0.29516 0.0
C542 C 0.19123 0.86948 0.31988 0.0
C543 C 0.17436 0.87358 0.29235 0.0
C544 C 0.18323 0.85563 0.2663 0.0
C545 C 0.20863 0.83448 0.26794 0.0
C546 C 0.18287 0.8881 0.3482 0.0
C547 C 0.16582 0.85866 0.23669 0.0
H548 H 0.07748 0.90216 0.316 0.0
H549 H 0.12136 0.97038 0.27903 0.0
H550 H 0.12949 0.83963 0.29425 0.0
H551 H 0.13324 0.84956 0.33396 0.0
H552 H 0.09807 0.85144 0.3175 0.0
H553 H 0.16901 0.95964 0.26096 0.0
H554 H 0.18897 0.93499 0.28949 0.0
H555 H 0.18331 0.92153 0.25154 0.0
H556 H 0.22909 0.84503 0.34208 0.0
H557 H 0.21547 0.82116 0.24778 0.0
H558 H 0.16181 0.884 0.35697 0.0
H559 H 0.18062 0.91218 0.34187 0.0
H560 H 0.19875 0.8831 0.36736 0.0
H561 H 0.14387 0.85442 0.24171 0.0
H562 H 0.17542 0.84294 0.21858 0.0
H563 H 0.16387 0.88179 0.22716 0.0
C564 C 0.09258 0.94879 0.7798 0.0
C565 C 0.08115 0.95199 0.74955 0.0
C566 C 0.11585 0.92595 0.78718 0.0
C567 C 0.12772 0.90582 0.76384 0.0
C568 C 0.11605 0.90902 0.73344 0.0
C569 C 0.09313 0.93188 0.72676 0.0
C570 C 0.12776 0.92333 0.81984 0.0
C571 C 0.12757 0.88801 0.7078 0.0
C572 C 0.20104 0.85653 0.76322 0.0
C573 C 0.1935 0.8283 0.76855 0.0
C574 C 0.18017 0.88256 0.76419 0.0
C575 C 0.15124 0.88022 0.7708 0.0
C576 C 0.1442 0.85188 0.77865 0.0
C577 C 0.16533 0.82638 0.77732 0.0
C578 C 0.18872 0.9123 0.75598 0.0
C579 C 0.11386 0.84807 0.78606 0.0
H580 H 0.08364 0.96429 0.7975 0.0
H581 H 0.08449 0.93387 0.70332 0.0
H582 H 0.12572 0.90123 0.83022 0.0
H583 H 0.15088 0.92478 0.81929 0.0
H584 H 0.11669 0.94103 0.83514 0.0
H585 H 0.1165 0.89394 0.6852 0.0
H586 H 0.15072 0.88825 0.70445 0.0
H587 H 0.12507 0.86483 0.71438 0.0
H588 H 0.22284 0.85817 0.75678 0.0
H589 H 0.15949 0.80463 0.7821 0.0
H590 H 0.17855 0.92974 0.77204 0.0
H591 H 0.18123 0.9192 0.73206 0.0
H592 H 0.21227 0.91129 0.75681 0.0
H593 H 0.10386 0.86543 0.8023 0.0
H594 H 0.11273 0.82574 0.79656 0.0
H595 H 0.10103 0.85066 0.76429 0.0
C596 C 0.12015 0.07092 0.72868 0.0
C597 C 0.09636 0.08631 0.71253 0.0
C598 C 0.14337 0.0851 0.73632 0.0
C599 C 0.14251 0.11563 0.72826 0.0
C600 C 0.11851 0.13126 0.71191 0.0
C601 C 0.0959 0.11632 0.70395 0.0
C602 C 0.16879 0.06741 0.75308 0.0
C603 C 0.11645 0.16395 0.70338 0.0
C604 C 0.18837 0.16118 0.7741 0.0
C605 C 0.2102 0.1641 0.75279 0.0
C606 C 0.16634 0.14527 0.76653 0.0
C607 C 0.16649 0.1314 0.73721 0.0
C608 C 0.1891 0.13344 0.71608 0.0
C609 C 0.2105 0.15006 0.72398 0.0
C610 C 0.14242 0.14408 0.78954 0.0
C611 C 0.19046 0.11845 0.6849 0.0
H612 H 0.12064 0.04765 0.73509 0.0
H613 H 0.07738 0.12836 0.69183 0.0
H614 H 0.18861 0.0686 0.73967 0.0
H615 H 0.17138 0.07717 0.77618 0.0
H616 H 0.16666 0.04358 0.75656 0.0
H617 H 0.09629 0.17293 0.69088 0.0
H618 H 0.11763 0.17704 0.72476 0.0
H619 H 0.13474 0.16743 0.68839 0.0
H620 H 0.18799 0.17219 0.79631 0.0
H621 H 0.22741 0.15222 0.70748 0.0
H622 H 0.1406 0.12056 0.79527 0.0
H623 H 0.1218 0.15469 0.779 0.0
H624 H 0.14565 0.15564 0.81151 0.0
H625 H 0.18912 0.09442 0.68812 0.0
H626 H 0.21041 0.12047 0.67202 0.0
H627 H 0.17195 0.12859 0.67036 0.0
C628 C 0.93518 0.09694 0.778 0.0
C629 C 0.94711 0.09426 0.74804 0.0
C630 C 0.91191 0.11981 0.78457 0.0
C631 C 0.9004 0.14038 0.76065 0.0
C632 C 0.91339 0.13848 0.73091 0.0
C633 C 0.93641 0.11566 0.72507 0.0
C634 C 0.899 0.12132 0.81673 0.0
C635 C 0.90219 0.15982 0.70462 0.0
C636 C 0.82207 0.176 0.75565 0.0
C637 C 0.82321 0.20611 0.76122 0.0
C638 C 0.84675 0.1541 0.7573 0.0
C639 C 0.87339 0.1623 0.76516 0.0
C640 C 0.87435 0.19243 0.77269 0.0
C641 C 0.84934 0.21403 0.77026 0.0
C642 C 0.84456 0.12246 0.74879 0.0
C643 C 0.90202 0.2022 0.78184 0.0
H644 H 0.94331 0.08065 0.79594 0.0
H645 H 0.94569 0.11426 0.70194 0.0
H646 H 0.89603 0.14455 0.82524 0.0
H647 H 0.87758 0.11457 0.81587 0.0
H648 H 0.91243 0.10644 0.8337 0.0
H649 H 0.91555 0.15628 0.68331 0.0
H650 H 0.88007 0.15692 0.69863 0.0
H651 H 0.90136 0.18323 0.71193 0.0
H652 H 0.80195 0.16961 0.74887 0.0
H653 H 0.85043 0.23722 0.7747 0.0
H654 H 0.85503 0.10651 0.76678 0.0
H655 H 0.85586 0.11697 0.72645 0.0
H656 H 0.82203 0.11905 0.74614 0.0
H657 H 0.91442 0.18564 0.79804 0.0
H658 H 0.89831 0.22434 0.79309 0.0
H659 H 0.91527 0.20382 0.76075 0.0
C660 C 0.93014 0.94299 0.73486 0.0
C661 C 0.94519 0.94442 0.70677 0.0
C662 C 0.91167 0.92205 0.73964 0.0
C663 C 0.90784 0.90202 0.71571 0.0
C664 C 0.92308 0.90312 0.68741 0.0
C665 C 0.94156 0.92419 0.68332 0.0
C666 C 0.89587 0.92169 0.77018 0.0
C667 C 0.91958 0.88227 0.66126 0.0
C668 C 0.87534 0.83268 0.73722 0.0
C669 C 0.84655 0.84199 0.72931 0.0
C670 C 0.89562 0.85184 0.73272 0.0
C671 C 0.88691 0.88091 0.71982 0.0
C672 C 0.8579 0.89016 0.71139 0.0
C673 C 0.83811 0.87066 0.71634 0.0
C674 C 0.92626 0.84117 0.74221 0.0
C675 C 0.84765 0.92082 0.69743 0.0
H676 H 0.93232 0.95863 0.75304 0.0
H677 H 0.95329 0.92463 0.66172 0.0
H678 H 0.87252 0.92747 0.76601 0.0
H679 H 0.89993 0.89897 0.78091 0.0
H680 H 0.90222 0.93769 0.78702 0.0
H681 H 0.93348 0.88538 0.64101 0.0
H682 H 0.92471 0.85874 0.66965 0.0
H683 H 0.89701 0.88605 0.65328 0.0
H684 H 0.88194 0.81059 0.74737 0.0
H685 H 0.81588 0.87799 0.71016 0.0
H686 H 0.93256 0.85581 0.76046 0.0
H687 H 0.94062 0.8426 0.72201 0.0
H688 H 0.92973 0.81779 0.75135 0.0
H689 H 0.85126 0.93815 0.71414 0.0
H690 H 0.82458 0.92429 0.69131 0.0
H691 H 0.86005 0.92421 0.67609 0.0
C692 C 0.37969 0.12769 0.11012 0.0
C693 C 0.38579 0.09727 0.11814 0.0
C694 C 0.3685 0.14884 0.13217 0.0
C695 C 0.36389 0.13933 0.16311 0.0
C696 C 0.37176 0.10885 0.17178 0.0
C697 C 0.38225 0.08809 0.14902 0.0
C698 C 0.3599 0.18104 0.12182 0.0
C699 C 0.36787 0.09797 0.20471 0.0
C700 C 0.3485 0.20123 0.22199 0.0
C701 C 0.31858 0.2053 0.22363 0.0
C702 C 0.36371 0.17893 0.20341 0.0
C703 C 0.34855 0.1609 0.18546 0.0
C704 C 0.31836 0.16459 0.18751 0.0
C705 C 0.30377 0.18652 0.20688 0.0
C706 C 0.39592 0.1751 0.20247 0.0
C707 C 0.30135 0.14617 0.16828 0.0
H708 H 0.38194 0.1347 0.08611 0.0
H709 H 0.387 0.06451 0.15507 0.0
H710 H 0.33634 0.18741 0.12347 0.0
H711 H 0.36952 0.19594 0.13733 0.0
H712 H 0.36647 0.18506 0.09746 0.0
H713 H 0.37844 0.07448 0.20855 0.0
H714 H 0.37665 0.11231 0.22159 0.0
H715 H 0.34475 0.09939 0.20978 0.0
H716 H 0.36003 0.21556 0.23516 0.0
H717 H 0.28062 0.18977 0.20793 0.0
H718 H 0.40298 0.18151 0.17902 0.0
H719 H 0.40533 0.15134 0.20673 0.0
H720 H 0.40459 0.18894 0.22 0.0
H721 H 0.30494 0.1503 0.14313 0.0
H722 H 0.27805 0.15143 0.17303 0.0
H723 H 0.30864 0.12205 0.17309 0.0
C724 C 0.9167 0.35504 0.11087 0.0
C725 C 0.9433 0.33629 0.11239 0.0
C726 C 0.89373 0.34924 0.12947 0.0
C727 C 0.89764 0.32435 0.15033 0.0
C728 C 0.92468 0.30582 0.15248 0.0
C729 C 0.9471 0.31193 0.13337 0.0
C730 C 0.86514 0.36932 0.1263 0.0
C731 C 0.92988 0.27933 0.17478 0.0
C732 C 0.84793 0.31994 0.21911 0.0
C733 C 0.83158 0.29879 0.20908 0.0
C734 C 0.86892 0.32918 0.19986 0.0
C735 C 0.87349 0.31724 0.16972 0.0
C736 C 0.85626 0.29686 0.15896 0.0
C737 C 0.83563 0.28774 0.17883 0.0
C738 C 0.88703 0.35073 0.21231 0.0
C739 C 0.86025 0.28391 0.12681 0.0
H740 H 0.91364 0.37369 0.09444 0.0
H741 H 0.96774 0.29765 0.13487 0.0
H742 H 0.84886 0.35619 0.11825 0.0
H743 H 0.858 0.37853 0.14927 0.0
H744 H 0.8658 0.38816 0.10957 0.0
H745 H 0.9524 0.26774 0.17432 0.0
H746 H 0.92455 0.28665 0.19889 0.0
H747 H 0.91575 0.26309 0.16878 0.0
H748 H 0.84507 0.32857 0.24246 0.0
H749 H 0.823 0.27155 0.17078 0.0
H750 H 0.88695 0.36982 0.19579 0.0
H751 H 0.90951 0.33935 0.2147 0.0
H752 H 0.87951 0.35952 0.23538 0.0
H753 H 0.85974 0.30204 0.10901 0.0
H754 H 0.84357 0.27035 0.121 0.0
H755 H 0.88148 0.26951 0.12528 0.0
C756 C 0.71721 0.95911 0.12977 0.0
C757 C 0.69216 0.95805 0.11275 0.0
C758 C 0.72743 0.93686 0.15191 0.0
C759 C 0.71198 0.9132 0.1575 0.0
C760 C 0.68535 0.91346 0.14249 0.0
C761 C 0.67579 0.93586 0.12016 0.0
C762 C 0.75588 0.93747 0.1674 0.0
C763 C 0.668 0.88886 0.14829 0.0
C764 C 0.75335 0.83616 0.17516 0.0
C765 C 0.74911 0.83317 0.20724 0.0
C766 C 0.74198 0.86245 0.15897 0.0
C767 C 0.72555 0.88617 0.17523 0.0
C768 C 0.72183 0.88359 0.20786 0.0
C769 C 0.73392 0.85709 0.22361 0.0
C770 C 0.74701 0.86454 0.12428 0.0
C771 C 0.70424 0.90831 0.22588 0.0
H772 H 0.72953 0.97672 0.12483 0.0
H773 H 0.6564 0.93492 0.10722 0.0
H774 H 0.75472 0.93264 0.19275 0.0
H775 H 0.77221 0.91987 0.15741 0.0
H776 H 0.76316 0.95934 0.16397 0.0
H777 H 0.64606 0.8946 0.13855 0.0
H778 H 0.67874 0.8681 0.13725 0.0
H779 H 0.6665 0.88407 0.17362 0.0
H780 H 0.76528 0.81767 0.16259 0.0
H781 H 0.73053 0.85466 0.24844 0.0
H782 H 0.75654 0.88471 0.11853 0.0
H783 H 0.72634 0.86674 0.11169 0.0
H784 H 0.76142 0.84465 0.11548 0.0
H785 H 0.71166 0.92985 0.22102 0.0
H786 H 0.70521 0.90375 0.25141 0.0
H787 H 0.6816 0.91097 0.21828 0.0
C788 C 0.09929 0.72948 0.09404 0.0
C789 C 0.0973 0.69961 0.08772 0.0
C790 C 0.12089 0.7368 0.11318 0.0
C791 C 0.14073 0.71376 0.12717 0.0
C792 C 0.13863 0.68356 0.12161 0.0
C793 C 0.11707 0.67683 0.10176 0.0
C794 C 0.1225 0.76932 0.11831 0.0
C795 C 0.15918 0.65838 0.13657 0.0
C796 C 0.21101 0.73444 0.15429 0.0
C797 C 0.20542 0.74004 0.18585 0.0
C798 C 0.19026 0.72548 0.13495 0.0
C799 C 0.16353 0.72155 0.14769 0.0
C800 C 0.15799 0.72674 0.17971 0.0
C801 C 0.17893 0.73622 0.19835 0.0
C802 C 0.19673 0.72075 0.10078 0.0
C803 C 0.1299 0.72245 0.19424 0.0
H804 H 0.08388 0.74741 0.08424 0.0
H805 H 0.11597 0.65373 0.09705 0.0
H806 H 0.11979 0.77442 0.1434 0.0
H807 H 0.14385 0.7741 0.11128 0.0
H808 H 0.10594 0.78458 0.10494 0.0
H809 H 0.15419 0.6361 0.13062 0.0
H810 H 0.18132 0.65962 0.12896 0.0
H811 H 0.15861 0.66051 0.16228 0.0
H812 H 0.23153 0.73736 0.14463 0.0
H813 H 0.17468 0.74029 0.22285 0.0
H814 H 0.18138 0.73655 0.08653 0.0
H815 H 0.19407 0.69785 0.09429 0.0
H816 H 0.21877 0.72408 0.09468 0.0
H817 H 0.11221 0.73848 0.1836 0.0
H818 H 0.12961 0.72575 0.21983 0.0
H819 H 0.12556 0.69966 0.18963 0.0
C820 C 0.34605 0.91916 0.97092 0.0
C821 C 0.3677 0.93463 0.96049 0.0
C822 C 0.33426 0.90017 0.95127 0.0
C823 C 0.34495 0.8958 0.92067 0.0
C824 C 0.3679 0.9099 0.91049 0.0
C825 C 0.37888 0.92937 0.93046 0.0
C826 C 0.30969 0.88563 0.96293 0.0
C827 C 0.38028 0.90512 0.8782 0.0
C828 C 0.32704 0.82835 0.87928 0.0
C829 C 0.30471 0.84141 0.85963 0.0
C830 C 0.34079 0.84589 0.8988 0.0
C831 C 0.33146 0.8771 0.89913 0.0
C832 C 0.30865 0.89036 0.87957 0.0
C833 C 0.29572 0.87232 0.85972 0.0
C834 C 0.3654 0.83106 0.91889 0.0
C835 C 0.29776 0.92352 0.87984 0.0
H836 H 0.33782 0.92234 0.99436 0.0
H837 H 0.39551 0.94121 0.92211 0.0
H838 H 0.29051 0.89315 0.94828 0.0
H839 H 0.31501 0.86103 0.96101 0.0
H840 H 0.30416 0.89104 0.98756 0.0
H841 H 0.39958 0.91573 0.87479 0.0
H842 H 0.38602 0.8809 0.87371 0.0
H843 H 0.36405 0.91463 0.86059 0.0
H844 H 0.33418 0.80442 0.87893 0.0
H845 H 0.27845 0.88235 0.84446 0.0
H846 H 0.36014 0.83465 0.94386 0.0
H847 H 0.38468 0.84126 0.91393 0.0
H848 H 0.37066 0.80666 0.91502 0.0
H849 H 0.29054 0.93027 0.90365 0.0
H850 H 0.27969 0.93026 0.86339 0.0
H851 H 0.31523 0.93601 0.87353 0.0
C852 C 0.12759 0.3202 0.95703 0.0
C853 C 0.10116 0.33644 0.9475 0.0
C854 C 0.14984 0.31226 0.93565 0.0
C855 C 0.14571 0.32099 0.90394 0.0
C856 C 0.11956 0.33847 0.89435 0.0
C857 C 0.09757 0.34592 0.91621 0.0
C858 C 0.17743 0.29365 0.94685 0.0
C859 C 0.1144 0.34837 0.86077 0.0
C860 C 0.21232 0.31557 0.85347 0.0
C861 C 0.2127 0.28793 0.83925 0.0
C862 C 0.19026 0.32702 0.87398 0.0
C863 C 0.16818 0.31034 0.88061 0.0
C864 C 0.16811 0.28275 0.86582 0.0
C865 C 0.19029 0.27194 0.84527 0.0
C866 C 0.19092 0.35664 0.88908 0.0
C867 C 0.14501 0.26421 0.87235 0.0
H868 H 0.13076 0.31327 0.98121 0.0
H869 H 0.07723 0.35821 0.90845 0.0
H870 H 0.18054 0.27163 0.93543 0.0
H871 H 0.19583 0.30468 0.94027 0.0
H872 H 0.17774 0.28986 0.9725 0.0
H873 H 0.09391 0.36393 0.85757 0.0
H874 H 0.13209 0.35954 0.8521 0.0
H875 H 0.11395 0.32859 0.84613 0.0
H876 H 0.22946 0.32817 0.84892 0.0
H877 H 0.19037 0.25053 0.83452 0.0
H878 H 0.19351 0.35332 0.91465 0.0
H879 H 0.1704 0.37187 0.88501 0.0
H880 H 0.20864 0.36767 0.88012 0.0
H881 H 0.14551 0.25743 0.89735 0.0
H882 H 0.14748 0.24378 0.85812 0.0
H883 H 0.12366 0.2776 0.86757 0.0
C884 C 0.71149 0.10955 0.91853 0.0
C885 C 0.6871 0.11491 0.93757 0.0
C886 C 0.71799 0.1312 0.89721 0.0
C887 C 0.69992 0.15921 0.89498 0.0
C888 C 0.6748 0.16459 0.91322 0.0
C889 C 0.66856 0.14231 0.93407 0.0
C890 C 0.74482 0.12444 0.87782 0.0
C891 C 0.65504 0.19425 0.91149 0.0
C892 C 0.73749 0.22205 0.86621 0.0
C893 C 0.72972 0.22435 0.83465 0.0
C894 C 0.72686 0.20185 0.88642 0.0
C895 C 0.70833 0.18322 0.8747 0.0
C896 C 0.6997 0.18607 0.84309 0.0
C897 C 0.71037 0.20674 0.82348 0.0
C898 C 0.73626 0.19975 0.9201 0.0
C899 C 0.68025 0.16636 0.82965 0.0
H900 H 0.72625 0.08881 0.92076 0.0
H901 H 0.64935 0.14668 0.94799 0.0
H902 H 0.73978 0.12912 0.8528 0.0
H903 H 0.76018 0.1391 0.88475 0.0
H904 H 0.75543 0.10083 0.88055 0.0
H905 H 0.6355 0.19432 0.92583 0.0
H906 H 0.66642 0.2121 0.91978 0.0
H907 H 0.64854 0.19995 0.88702 0.0
H908 H 0.75222 0.23575 0.8751 0.0
H909 H 0.70433 0.20829 0.79909 0.0
H910 H 0.74964 0.1777 0.92485 0.0
H911 H 0.71739 0.20148 0.93568 0.0
H912 H 0.74879 0.21746 0.92613 0.0
H913 H 0.69144 0.14289 0.82964 0.0
H914 H 0.67358 0.1731 0.8054 0.0
H915 H 0.66084 0.16692 0.84423 0.0
C916 C 0.94296 0.6849 0.88893 0.0
C917 C 0.94181 0.69969 0.91742 0.0
C918 C 0.92034 0.69094 0.86738 0.0
C919 C 0.89589 0.71206 0.87464 0.0
C920 C 0.89482 0.72736 0.90315 0.0
C921 C 0.91776 0.72101 0.92411 0.0
C922 C 0.92236 0.67435 0.83713 0.0
C923 C 0.86902 0.74977 0.91202 0.0
C924 C 0.8401 0.74507 0.81423 0.0
C925 C 0.81857 0.72798 0.82003 0.0
C926 C 0.86604 0.73943 0.83091 0.0
C927 C 0.87027 0.71631 0.85397 0.0
C928 C 0.84887 0.69842 0.85904 0.0
C929 C 0.82335 0.70446 0.84199 0.0
C930 C 0.88842 0.75887 0.82468 0.0
C931 C 0.85237 0.67363 0.88342 0.0
H932 H 0.96165 0.66874 0.88339 0.0
H933 H 0.91655 0.73228 0.9462 0.0
H934 H 0.90585 0.65967 0.83657 0.0
H935 H 0.9181 0.69034 0.81716 0.0
H936 H 0.94366 0.66039 0.8339 0.0
H937 H 0.87223 0.76099 0.93419 0.0
H938 H 0.86399 0.76705 0.89335 0.0
H939 H 0.85014 0.73838 0.91464 0.0
H940 H 0.83634 0.76336 0.79744 0.0
H941 H 0.80676 0.69112 0.84649 0.0
H942 H 0.90961 0.74488 0.82113 0.0
H943 H 0.89027 0.77294 0.84517 0.0
H944 H 0.88318 0.77373 0.8039 0.0
H945 H 0.87262 0.65804 0.87965 0.0
H946 H 0.83441 0.66072 0.88324 0.0
H947 H 0.85358 0.68318 0.90689 0.0
C948 C 0.10755 0.32461 0.11618 0.0
C949 C 0.09744 0.30132 0.10073 0.0
C950 C 0.13101 0.31928 0.13667 0.0
C951 C 0.14521 0.28975 0.1424 0.0
C952 C 0.13487 0.2659 0.12751 0.0
C953 C 0.11118 0.27193 0.10684 0.0
C954 C 0.14103 0.34557 0.15168 0.0
C955 C 0.14914 0.23404 0.13305 0.0
C956 C 0.2228 0.28628 0.16842 0.0
C957 C 0.22072 0.28506 0.20105 0.0
C958 C 0.19878 0.28618 0.14913 0.0
C959 C 0.17171 0.28463 0.16258 0.0
C960 C 0.16976 0.28191 0.19553 0.0
C961 C 0.19419 0.28228 0.21434 0.0
C962 C 0.20216 0.28927 0.1143 0.0
C963 C 0.14158 0.27985 0.21105 0.0
H964 H 0.09726 0.34747 0.11203 0.0
H965 H 0.10367 0.2537 0.09523 0.0
H966 H 0.14139 0.34262 0.17739 0.0
H967 H 0.16317 0.3469 0.14411 0.0
H968 H 0.12719 0.36711 0.14563 0.0
H969 H 0.13748 0.21785 0.12167 0.0
H970 H 0.17128 0.23099 0.12385 0.0
H971 H 0.15063 0.22884 0.15841 0.0
H972 H 0.24319 0.28821 0.15782 0.0
H973 H 0.19234 0.28108 0.23949 0.0
H974 H 0.1906 0.31131 0.10617 0.0
H975 H 0.19262 0.2719 0.10222 0.0
H976 H 0.22492 0.28743 0.10725 0.0
H977 H 0.12732 0.30176 0.20901 0.0
H978 H 0.14424 0.27358 0.23615 0.0
H979 H 0.13078 0.26321 0.19931 0.0
C980 C 0.07955 0.75888 0.92547 0.0
C981 C 0.08386 0.73528 0.9474 0.0
C982 C 0.1018 0.76407 0.90509 0.0
C983 C 0.129 0.74548 0.90703 0.0
C984 C 0.13366 0.72266 0.93025 0.0
C985 C 0.11111 0.71777 0.94986 0.0
C986 C 0.09589 0.78859 0.88063 0.0
C987 C 0.16226 0.70259 0.93373 0.0
C988 C 0.17907 0.73276 0.83686 0.0
C989 C 0.19944 0.75102 0.84335 0.0
C990 C 0.15564 0.7315 0.85683 0.0
C991 C 0.15242 0.74873 0.88422 0.0
C992 C 0.17289 0.76721 0.89089 0.0
C993 C 0.19599 0.76821 0.87041 0.0
C994 C 0.13437 0.71152 0.8487 0.0
C995 C 0.17059 0.78569 0.91991 0.0
H996 H 0.0585 0.77229 0.92323 0.0
H997 H 0.11469 0.69961 0.96691 0.0
H998 H 0.11233 0.80333 0.88159 0.0
H999 H 0.09713 0.77867 0.85714 0.0
H1000 H 0.07446 0.80239 0.88345 0.0
H1001 H 0.16295 0.68715 0.95421 0.0
H1002 H 0.16693 0.68909 0.91251 0.0
H1003 H 0.17952 0.71616 0.93621 0.0
H1004 H 0.18118 0.71968 0.81589 0.0
H1005 H 0.2114 0.78257 0.87569 0.0
H1006 H 0.11243 0.72457 0.84816 0.0
H1007 H 0.13471 0.69374 0.86685 0.0
H1008 H 0.13893 0.70081 0.82578 0.0
H1009 H 0.14942 0.80029 0.92078 0.0
H1010 H 0.18751 0.79988 0.92116 0.0
H1011 H 0.17226 0.77081 0.94086 0.0
C1012 C 0.28702 0.07594 0.94829 0.0
C1013 C 0.30784 0.07595 0.97147 0.0
C1014 C 0.28207 0.0989 0.92541 0.0
C1015 C 0.29903 0.12187 0.92504 0.0
C1016 C 0.31992 0.12205 0.94857 0.0
C1017 C 0.32374 0.09942 0.9717 0.0
C1018 C 0.25892 0.09842 0.90146 0.0
C1019 C 0.33892 0.14568 0.94878 0.0
C1020 C 0.30947 0.16522 0.8499 0.0
C1021 C 0.29377 0.19334 0.85627 0.0
C1022 C 0.31083 0.14144 0.87174 0.0
C1023 C 0.29531 0.14568 0.90007 0.0
C1024 C 0.27798 0.1736 0.90554 0.0
C1025 C 0.27787 0.19722 0.88387 0.0
C1026 C 0.33013 0.11234 0.86526 0.0
C1027 C 0.26027 0.17888 0.93477 0.0
H1028 H 0.27467 0.05788 0.94795 0.0
H1029 H 0.34018 0.09941 0.98922 0.0
H1030 H 0.24424 0.12015 0.90088 0.0
H1031 H 0.26854 0.09519 0.87796 0.0
H1032 H 0.24624 0.08034 0.90626 0.0
H1033 H 0.35458 0.14229 0.96825 0.0
H1034 H 0.35081 0.1455 0.92647 0.0
H1035 H 0.32577 0.16811 0.95082 0.0
H1036 H 0.32191 0.16228 0.82865 0.0
H1037 H 0.26551 0.21894 0.88867 0.0
H1038 H 0.31812 0.09343 0.86763 0.0
H1039 H 0.34769 0.10854 0.88267 0.0
H1040 H 0.33965 0.11209 0.84159 0.0
H1041 H 0.24786 0.16047 0.93881 0.0
H1042 H 0.24521 0.20037 0.93363 0.0
H1043 H 0.27452 0.17921 0.95517 0.0
C1044 C 0.95552 0.27484 0.97744 0.0
C1045 C 0.98217 0.27544 0.96323 0.0
C1046 C 0.93071 0.27379 0.95948 0.0
C1047 C 0.93236 0.27344 0.92643 0.0
C1048 C 0.95939 0.27286 0.91212 0.0
C1049 C 0.98378 0.27379 0.93056 0.0
C1050 C 0.9025 0.27413 0.97586 0.0
C1051 C 0.96245 0.27246 0.8771 0.0
C1052 C 0.87304 0.25128 0.87543 0.0
C1053 C 0.85816 0.27916 0.86538 0.0
C1054 C 0.8966 0.24903 0.89595 0.0
C1055 C 0.90585 0.27528 0.9066 0.0
C1056 C 0.8906 0.30347 0.89677 0.0
C1057 C 0.86699 0.30505 0.87646 0.0
C1058 C 0.91193 0.21851 0.9058 0.0
C1059 C 0.89966 0.33209 0.90713 0.0
H1060 H 0.95381 0.27625 1.00256 0.0
H1061 H 1.00411 0.27418 0.91913 0.0
H1062 H 0.88808 0.29537 0.9703 0.0
H1063 H 0.89192 0.2557 0.96751 0.0
H1064 H 0.90502 0.27191 1.00156 0.0
H1065 H 0.98509 0.27048 0.86955 0.0
H1066 H 0.95333 0.25357 0.86748 0.0
H1067 H 0.95028 0.29332 0.86679 0.0
H1068 H 0.86642 0.23113 0.867 0.0
H1069 H 0.85571 0.32669 0.86881 0.0
H1070 H 0.91323 0.21668 0.93159 0.0
H1071 H 0.93416 0.21516 0.89683 0.0
H1072 H 0.90116 0.20033 0.89708 0.0
H1073 H 0.90033 0.33262 0.93293 0.0
H1074 H 0.88506 0.3522 0.8984 0.0
H1075 H 0.92156 0.33318 0.89856 0.0
C1076 C 0.69543 0.95661 0.91559 0.0
C1077 C 0.71381 0.95844 0.9408 0.0
C1078 C 0.70076 0.93311 0.89449 0.0
C1079 C 0.72482 0.91047 0.89893 0.0
C1080 C 0.74347 0.91211 0.9244 0.0
C1081 C 0.7379 0.93624 0.94487 0.0
C1082 C 0.68068 0.93262 0.86731 0.0
C1083 C 0.76914 0.88821 0.93017 0.0
C1084 C 0.72318 0.83674 0.85828 0.0
C1085 C 0.74076 0.8393 0.83239 0.0
C1086 C 0.71827 0.85944 0.8805 0.0
C1087 C 0.73076 0.88555 0.8764 0.0
C1088 C 0.74829 0.88832 0.85015 0.0
C1089 C 0.75325 0.86512 0.82867 0.0
C1090 C 0.69978 0.85545 0.90841 0.0
C1091 C 0.76156 0.91599 0.84449 0.0
H1092 H 0.67684 0.97375 0.91218 0.0
H1093 H 0.75205 0.93736 0.96444 0.0
H1094 H 0.69267 0.93255 0.84508 0.0
H1095 H 0.67114 0.9119 0.86831 0.0
H1096 H 0.66312 0.9521 0.86693 0.0
H1097 H 0.78113 0.89231 0.95143 0.0
H1098 H 0.76226 0.86609 0.9327 0.0
H1099 H 0.78383 0.88707 0.90994 0.0
H1100 H 0.71364 0.81679 0.86147 0.0
H1101 H 0.7667 0.86745 0.80863 0.0
H1102 H 0.6807 0.87322 0.90831 0.0
H1103 H 0.71177 0.85764 0.93019 0.0
H1104 H 0.69252 0.8334 0.90885 0.0
H1105 H 0.74455 0.93588 0.84252 0.0
H1106 H 0.77469 0.91466 0.82295 0.0
H1107 H 0.7753 0.91952 0.8645 0.0
C1108 C 0.93058 0.76053 0.07071 0.0
C1109 C 0.95243 0.7358 0.07389 0.0
C1110 C 0.90895 0.76649 0.09362 0.0
C1111 C 0.90954 0.74764 0.12054 0.0
C1112 C 0.93233 0.72346 0.12428 0.0
C1113 C 0.95317 0.71773 0.1009 0.0
C1114 C 0.88491 0.7923 0.08849 0.0
C1115 C 0.93444 0.70312 0.15274 0.0
C1116 C 0.86816 0.7732 0.19445 0.0
C1117 C 0.84503 0.75742 0.19355 0.0
C1118 C 0.88883 0.77082 0.1706 0.0
C1119 C 0.88631 0.75251 0.14473 0.0
C1120 C 0.86272 0.73695 0.14336 0.0
C1121 C 0.84255 0.73939 0.16782 0.0
C1122 C 0.9138 0.78735 0.17352 0.0
C1123 C 0.85895 0.7174 0.11616 0.0
H1124 H 0.92966 0.77436 0.04976 0.0
H1125 H 0.97007 0.69863 0.10362 0.0
H1126 H 0.86439 0.78376 0.08639 0.0
H1127 H 0.88297 0.80724 0.1088 0.0
H1128 H 0.88805 0.8056 0.06714 0.0
H1129 H 0.95432 0.68633 0.15296 0.0
H1130 H 0.93386 0.71642 0.17421 0.0
H1131 H 0.91586 0.69115 0.15358 0.0
H1132 H 0.87041 0.78722 0.21414 0.0
H1133 H 0.82467 0.72736 0.16659 0.0
H1134 H 0.91539 0.80148 0.15243 0.0
H1135 H 0.93397 0.77112 0.17526 0.0
H1136 H 0.91204 0.80175 0.19429 0.0
H1137 H 0.85963 0.73018 0.09394 0.0
H1138 H 0.83847 0.70857 0.11732 0.0
H1139 H 0.87679 0.69827 0.11566 0.0
C1140 C 0.33882 0.94369 0.10718 0.0
C1141 C 0.31413 0.96242 0.0963 0.0
C1142 C 0.33709 0.91918 0.12717 0.0
C1143 C 0.31002 0.91364 0.13744 0.0
C1144 C 0.285 0.93277 0.12695 0.0
C1145 C 0.28733 0.95663 0.10608 0.0
C1146 C 0.36427 0.89896 0.13698 0.0
C1147 C 0.25578 0.9282 0.138 0.0
C1148 C 0.30264 0.83598 0.16892 0.0
C1149 C 0.30546 0.83932 0.20112 0.0
C1150 C 0.30442 0.85982 0.1479 0.0
C1151 C 0.30808 0.88802 0.1594 0.0
C1152 C 0.31054 0.89156 0.19196 0.0
C1153 C 0.30967 0.86709 0.21233 0.0
C1154 C 0.30261 0.85476 0.11336 0.0
C1155 C 0.31365 0.92137 0.20534 0.0
H1156 H 0.35962 0.94772 0.09936 0.0
H1157 H 0.26819 0.97101 0.09777 0.0
H1158 H 0.3668 0.89927 0.16264 0.0
H1159 H 0.36317 0.8756 0.13064 0.0
H1160 H 0.38354 0.90561 0.12595 0.0
H1161 H 0.23851 0.94556 0.12853 0.0
H1162 H 0.25155 0.90599 0.1309 0.0
H1163 H 0.25492 0.92861 0.16383 0.0
H1164 H 0.29935 0.81458 0.16013 0.0
H1165 H 0.31135 0.86999 0.23723 0.0
H1166 H 0.32194 0.86034 0.10155 0.0
H1167 H 0.2839 0.86973 0.10326 0.0
H1168 H 0.30068 0.83132 0.10812 0.0
H1169 H 0.33366 0.92836 0.19679 0.0
H1170 H 0.31407 0.92077 0.23122 0.0
H1171 H 0.29566 0.93867 0.19742 0.0
C1172 C 0.76124 0.06359 0.08767 0.0
C1173 C 0.76431 0.07318 0.05671 0.0
C1174 C 0.76578 0.08167 0.11276 0.0
C1175 C 0.77393 0.10988 0.10684 0.0
C1176 C 0.77925 0.11862 0.0758 0.0
C1177 C 0.77425 0.10024 0.05111 0.0
C1178 C 0.7598 0.07148 0.14545 0.0
C1179 C 0.78845 0.14827 0.06849 0.0
C1180 C 0.74788 0.17232 0.16284 0.0
C1181 C 0.77231 0.17329 0.18079 0.0
C1182 C 0.74816 0.15162 0.13893 0.0
C1183 C 0.77362 0.13157 0.13256 0.0
C1184 C 0.7984 0.13244 0.15067 0.0
C1185 C 0.79741 0.15323 0.17472 0.0
C1186 C 0.72116 0.15128 0.12043 0.0
C1187 C 0.82599 0.11165 0.14444 0.0
H1188 H 0.75364 0.04271 0.09234 0.0
H1189 H 0.7769 0.10777 0.02733 0.0
H1190 H 0.77742 0.07449 0.1614 0.0
H1191 H 0.74001 0.08532 0.1542 0.0
H1192 H 0.75695 0.04768 0.1465 0.0
H1193 H 0.79537 0.15001 0.04388 0.0
H1194 H 0.77037 0.16657 0.07273 0.0
H1195 H 0.80626 0.15174 0.08399 0.0
H1196 H 0.72843 0.18777 0.16751 0.0
H1197 H 0.81637 0.15401 0.18854 0.0
H1198 H 0.71494 0.12879 0.12201 0.0
H1199 H 0.72495 0.15608 0.09547 0.0
H1200 H 0.70302 0.16793 0.12872 0.0
H1201 H 0.82258 0.08811 0.14647 0.0
H1202 H 0.84327 0.11497 0.16078 0.0
H1203 H 0.83318 0.11527 0.12026 0.0
C1204 C 0.56646 0.63272 0.84311 0.0
C1205 C 0.57531 0.60272 0.83556 0.0
C1206 C 0.5835 0.65449 0.83581 0.0
C1207 C 0.61038 0.64592 0.8213 0.0
C1208 C 0.61946 0.61557 0.81382 0.0
C1209 C 0.60166 0.59444 0.82068 0.0
C1210 C 0.57269 0.68667 0.84348 0.0
C1211 C 0.64821 0.60533 0.79901 0.0
C1212 C 0.64878 0.70244 0.77894 0.0
C1213 C 0.66817 0.70822 0.80171 0.0
C1214 C 0.62913 0.68302 0.7853 0.0
C1215 C 0.62945 0.66844 0.81485 0.0
C1216 C 0.64878 0.6746 0.83802 0.0
C1217 C 0.66764 0.69469 0.83129 0.0
C1218 C 0.60839 0.6777 0.76022 0.0
C1219 C 0.65027 0.65916 0.86959 0.0
H1220 H 0.54589 0.63924 0.85416 0.0
H1221 H 0.60854 0.57122 0.81499 0.0
H1222 H 0.58721 0.69459 0.86047 0.0
H1223 H 0.57255 0.70092 0.82217 0.0
H1224 H 0.55078 0.68987 0.85343 0.0
H1225 H 0.6522 0.58092 0.79488 0.0
H1226 H 0.64967 0.61726 0.77643 0.0
H1227 H 0.66543 0.61082 0.81423 0.0
H1228 H 0.64912 0.71295 0.75607 0.0
H1229 H 0.68276 0.69894 0.84888 0.0
H1230 H 0.58625 0.68129 0.76948 0.0
H1231 H 0.61331 0.6542 0.75265 0.0
H1232 H 0.60923 0.69261 0.73953 0.0
H1233 H 0.62907 0.66335 0.88109 0.0
H1234 H 0.66622 0.66671 0.88517 0.0
H1235 H 0.65605 0.63466 0.86678 0.0
C1236 C 0.43241 0.58775 0.76797 0.0
C1237 C 0.43854 0.5789 0.79909 0.0
C1238 C 0.40954 0.61107 0.76046 0.0
C1239 C 0.3928 0.62622 0.78461 0.0
C1240 C 0.39864 0.61684 0.81587 0.0
C1241 C 0.42105 0.59339 0.8226 0.0
C1242 C 0.40365 0.61991 0.72677 0.0
C1243 C 0.38193 0.63243 0.84258 0.0
C1244 C 0.35911 0.70808 0.77891 0.0
C1245 C 0.32972 0.70678 0.77918 0.0
C1246 C 0.37977 0.6821 0.77872 0.0
C1247 C 0.37108 0.65374 0.77824 0.0
C1248 C 0.34141 0.65227 0.7765 0.0
C1249 C 0.32105 0.67879 0.7773 0.0
C1250 C 0.41095 0.68506 0.78109 0.0
C1251 C 0.3311 0.62263 0.77515 0.0
H1252 H 0.44553 0.57668 0.74958 0.0
H1253 H 0.42528 0.58696 0.84679 0.0
H1254 H 0.38048 0.62187 0.72168 0.0
H1255 H 0.40977 0.6421 0.72201 0.0
H1256 H 0.41574 0.60359 0.71067 0.0
H1257 H 0.3885 0.62181 0.86553 0.0
H1258 H 0.38509 0.6561 0.84303 0.0
H1259 H 0.35875 0.63236 0.83939 0.0
H1260 H 0.36612 0.72959 0.77998 0.0
H1261 H 0.29844 0.67755 0.77709 0.0
H1262 H 0.42362 0.67163 0.76305 0.0
H1263 H 0.41942 0.67634 0.80414 0.0
H1264 H 0.41436 0.7086 0.77844 0.0
H1265 H 0.34432 0.60759 0.75875 0.0
H1266 H 0.30835 0.62526 0.76783 0.0
H1267 H 0.3332 0.61164 0.79852 0.0
C1268 C 0.45126 0.41875 0.81662 0.0
C1269 C 0.45077 0.43444 0.84452 0.0
C1270 C 0.43294 0.39789 0.81189 0.0
C1271 C 0.41349 0.39258 0.83559 0.0
C1272 C 0.41297 0.40819 0.8639 0.0
C1273 C 0.43166 0.42885 0.86805 0.0
C1274 C 0.43437 0.38156 0.78146 0.0
C1275 C 0.39245 0.40329 0.88968 0.0
C1276 C 0.34839 0.35943 0.81119 0.0
C1277 C 0.35664 0.32924 0.81947 0.0
C1278 C 0.36653 0.38034 0.81664 0.0
C1279 C 0.39362 0.3708 0.83061 0.0
C1280 C 0.40197 0.34032 0.83913 0.0
C1281 C 0.38335 0.31991 0.83349 0.0
C1282 C 0.35679 0.41261 0.80722 0.0
C1283 C 0.4307 0.32921 0.85391 0.0
H1284 H 0.46625 0.42253 0.79851 0.0
H1285 H 0.43092 0.44109 0.88952 0.0
H1286 H 0.43924 0.35711 0.78595 0.0
H1287 H 0.41333 0.38626 0.76954 0.0
H1288 H 0.45085 0.38804 0.76549 0.0
H1289 H 0.39491 0.41694 0.91039 0.0
H1290 H 0.37013 0.40902 0.8811 0.0
H1291 H 0.39587 0.3794 0.89696 0.0
H1292 H 0.32775 0.36671 0.80031 0.0
H1293 H 0.3898 0.29657 0.83988 0.0
H1294 H 0.37169 0.41965 0.78968 0.0
H1295 H 0.35716 0.42707 0.8277 0.0
H1296 H 0.33488 0.41652 0.79722 0.0
H1297 H 0.44801 0.33354 0.83791 0.0
H1298 H 0.43379 0.30493 0.85962 0.0
H1299 H 0.43298 0.34149 0.87561 0.0
C1300 C 0.60146 0.43391 0.82513 0.0
C1301 C 0.58763 0.45299 0.80163 0.0
C1302 C 0.62598 0.41297 0.8191 0.0
C1303 C 0.63746 0.41065 0.78864 0.0
C1304 C 0.62326 0.42917 0.76443 0.0
C1305 C 0.59847 0.45011 0.77118 0.0
C1306 C 0.64002 0.39375 0.84573 0.0
C1307 C 0.63464 0.42729 0.73159 0.0
C1308 C 0.71709 0.37865 0.78882 0.0
C1309 C 0.71702 0.34814 0.78436 0.0
C1310 C 0.69154 0.39948 0.7884 0.0
C1311 C 0.66504 0.38974 0.78316 0.0
C1312 C 0.66502 0.35913 0.77709 0.0
C1313 C 0.69091 0.3387 0.77808 0.0
C1314 C 0.69279 0.43172 0.7952 0.0
C1315 C 0.6375 0.34761 0.77107 0.0
H1316 H 0.59325 0.43548 0.84872 0.0
H1317 H 0.58803 0.46462 0.75283 0.0
H1318 H 0.64192 0.36979 0.84002 0.0
H1319 H 0.66196 0.39849 0.84948 0.0
H1320 H 0.62794 0.3976 0.86788 0.0
H1321 H 0.62016 0.44147 0.71497 0.0
H1322 H 0.65585 0.43454 0.73088 0.0
H1323 H 0.63771 0.40384 0.72374 0.0
H1324 H 0.73715 0.38621 0.79356 0.0
H1325 H 0.69054 0.31517 0.77487 0.0
H1326 H 0.68288 0.43742 0.81821 0.0
H1327 H 0.68044 0.44665 0.77751 0.0
H1328 H 0.71506 0.43635 0.79559 0.0
H1329 H 0.62544 0.34711 0.79319 0.0
H1330 H 0.64139 0.32471 0.76157 0.0
H1331 H 0.62381 0.36261 0.75447 0.0
C1332 C 0.61923 0.43075 0.22034 0.0
C1333 C 0.60265 0.44583 0.24418 0.0
C1334 C 0.64027 0.40584 0.22654 0.0
C1335 C 0.64542 0.39533 0.25756 0.0
C1336 C 0.62925 0.41061 0.28202 0.0
C1337 C 0.60796 0.43565 0.27506 0.0
C1338 C 0.65669 0.39042 0.19956 0.0
C1339 C 0.63428 0.40031 0.31544 0.0
C1340 C 0.67979 0.31337 0.26031 0.0
C1341 C 0.70902 0.31522 0.26112 0.0
C1342 C 0.65878 0.33915 0.26135 0.0
C1343 C 0.66706 0.36766 0.26345 0.0
C1344 C 0.69655 0.36948 0.26612 0.0
C1345 C 0.71715 0.3433 0.26468 0.0
C1346 C 0.62774 0.33592 0.25828 0.0
C1347 C 0.70649 0.39922 0.2688 0.0
H1348 H 0.61563 0.43821 0.19634 0.0
H1349 H 0.59543 0.44706 0.29368 0.0
H1350 H 0.67995 0.38991 0.20289 0.0
H1351 H 0.65304 0.36694 0.19855 0.0
H1352 H 0.65037 0.4016 0.1768 0.0
H1353 H 0.62117 0.4154 0.33193 0.0
H1354 H 0.62903 0.37752 0.31857 0.0
H1355 H 0.65718 0.39905 0.32151 0.0
H1356 H 0.67328 0.29174 0.25791 0.0
H1357 H 0.73965 0.34498 0.2653 0.0
H1358 H 0.61967 0.34459 0.23506 0.0
H1359 H 0.61464 0.34927 0.27608 0.0
H1360 H 0.62454 0.3123 0.26074 0.0
H1361 H 0.70428 0.41104 0.24586 0.0
H1362 H 0.72921 0.39664 0.27622 0.0
H1363 H 0.69312 0.4135 0.28571 0.0
C1364 C 0.61506 0.60097 0.23324 0.0
C1365 C 0.61315 0.58695 0.20463 0.0
C1366 C 0.63581 0.61918 0.23835 0.0
C1367 C 0.65531 0.62351 0.21432 0.0
C1368 C 0.65387 0.60899 0.18558 0.0
C1369 C 0.63279 0.591 0.18105 0.0
C1370 C 0.63637 0.63442 0.26924 0.0
C1371 C 0.67435 0.61285 0.15943 0.0
C1372 C 0.68686 0.69527 0.21597 0.0
C1373 C 0.71383 0.6856 0.22932 0.0
C1374 C 0.66786 0.67523 0.21062 0.0
C1375 C 0.676 0.64464 0.2187 0.0
C1376 C 0.70345 0.63462 0.23173 0.0
C1377 C 0.72204 0.65526 0.23696 0.0
C1378 C 0.63883 0.68695 0.1968 0.0
C1379 C 0.71299 0.60219 0.24054 0.0
H1380 H 0.59981 0.59836 0.25146 0.0
H1381 H 0.63177 0.57995 0.15905 0.0
H1382 H 0.65801 0.62914 0.27975 0.0
H1383 H 0.63154 0.65899 0.26562 0.0
H1384 H 0.62065 0.62767 0.28604 0.0
H1385 H 0.67144 0.59883 0.13914 0.0
H1386 H 0.67118 0.63657 0.15154 0.0
H1387 H 0.69673 0.60698 0.16777 0.0
H1388 H 0.68038 0.71871 0.21003 0.0
H1389 H 0.74287 0.64769 0.24729 0.0
H1390 H 0.62186 0.68293 0.21341 0.0
H1391 H 0.63566 0.67487 0.1752 0.0
H1392 H 0.63601 0.71124 0.19117 0.0
H1393 H 0.6988 0.59537 0.25895 0.0
H1394 H 0.73537 0.59774 0.24921 0.0
H1395 H 0.71125 0.58796 0.22014 0.0
C1396 C 0.46331 0.59826 0.27548 0.0
C1397 C 0.46809 0.58874 0.24468 0.0
C1398 C 0.44067 0.62164 0.28272 0.0
C1399 C 0.42227 0.63558 0.25869 0.0
C1400 C 0.42726 0.62607 0.22769 0.0
C1401 C 0.44991 0.60307 0.22116 0.0
C1402 C 0.43627 0.63129 0.31603 0.0
C1403 C 0.40827 0.63986 0.2012 0.0
C1404 C 0.34471 0.67159 0.2684 0.0
C1405 C 0.34584 0.70185 0.26232 0.0
C1406 C 0.36967 0.65009 0.26999 0.0
C1407 C 0.39669 0.65889 0.26532 0.0
C1408 C 0.3981 0.68977 0.26147 0.0
C1409 C 0.37265 0.71089 0.25989 0.0
C1410 C 0.36682 0.61764 0.27438 0.0
C1411 C 0.42636 0.70035 0.25701 0.0
H1412 H 0.47721 0.58754 0.29383 0.0
H1413 H 0.45312 0.59612 0.19724 0.0
H1414 H 0.4353 0.6558 0.3175 0.0
H1415 H 0.41555 0.62612 0.32468 0.0
H1416 H 0.45356 0.62 0.33163 0.0
H1417 H 0.41538 0.63042 0.17828 0.0
H1418 H 0.386 0.63615 0.20531 0.0
H1419 H 0.40795 0.66434 0.20001 0.0
H1420 H 0.32409 0.66445 0.27085 0.0
H1421 H 0.37375 0.73424 0.25537 0.0
H1422 H 0.38276 0.6064 0.29144 0.0
H1423 H 0.37101 0.60609 0.25188 0.0
H1424 H 0.34513 0.61488 0.28248 0.0
H1425 H 0.44255 0.68865 0.27358 0.0
H1426 H 0.42448 0.72481 0.26023 0.0
H1427 H 0.4343 0.69513 0.23309 0.0
C1428 C 0.44293 0.43781 0.18158 0.0
C1429 C 0.45638 0.44969 0.20649 0.0
C1430 C 0.42169 0.41997 0.18676 0.0
C1431 C 0.41322 0.41403 0.2176 0.0
C1432 C 0.42618 0.42638 0.24281 0.0
C1433 C 0.44763 0.44381 0.23701 0.0
C1434 C 0.40855 0.4071 0.15919 0.0
C1435 C 0.41766 0.42083 0.27606 0.0
C1436 C 0.34179 0.38726 0.23062 0.0
C1437 C 0.35048 0.35652 0.23569 0.0
C1438 C 0.36194 0.40627 0.22474 0.0
C1439 C 0.39145 0.3942 0.22356 0.0
C1440 C 0.40024 0.36309 0.22844 0.0
C1441 C 0.37968 0.34469 0.23462 0.0
C1442 C 0.35167 0.43932 0.2201 0.0
C1443 C 0.4314 0.3492 0.22713 0.0
H1444 H 0.44894 0.44239 0.15789 0.0
H1445 H 0.45781 0.45233 0.25663 0.0
H1446 H 0.41262 0.38235 0.16097 0.0
H1447 H 0.38504 0.41427 0.15917 0.0
H1448 H 0.41721 0.41403 0.13664 0.0
H1449 H 0.42871 0.43321 0.29301 0.0
H1450 H 0.39425 0.42757 0.27889 0.0
H1451 H 0.42281 0.39664 0.2819 0.0
H1452 H 0.31924 0.39652 0.23155 0.0
H1453 H 0.38651 0.32094 0.23852 0.0
H1454 H 0.35855 0.44679 0.19696 0.0
H1455 H 0.36143 0.45191 0.23791 0.0
H1456 H 0.32805 0.44521 0.22172 0.0
H1457 H 0.44053 0.35424 0.20421 0.0
H1458 H 0.43467 0.32459 0.23078 0.0
H1459 H 0.44356 0.35893 0.24523 0.0
C1460 C 0.80893 0.58805 0.60496 0.0
C1461 C 0.80471 0.59787 0.57385 0.0
C1462 C 0.80431 0.60822 0.62957 0.0
C1463 C 0.79501 0.63895 0.62298 0.0
C1464 C 0.78995 0.6489 0.59171 0.0
C1465 C 0.79494 0.62827 0.56753 0.0
C1466 C 0.80995 0.59673 0.66259 0.0
C1467 C 0.77966 0.68142 0.58375 0.0
C1468 C 0.75945 0.68763 0.68763 0.0
C1469 C 0.78155 0.70254 0.69729 0.0
C1470 C 0.76356 0.66695 0.66354 0.0
C1471 C 0.79051 0.66069 0.6488 0.0
C1472 C 0.81304 0.67538 0.65859 0.0
C1473 C 0.80825 0.69626 0.68261 0.0
C1474 C 0.73889 0.65204 0.6536 0.0
C1475 C 0.84216 0.66911 0.64359 0.0
H1476 H 0.81658 0.56465 0.61012 0.0
H1477 H 0.79159 0.6361 0.5436 0.0
H1478 H 0.82687 0.60754 0.67319 0.0
H1479 H 0.79041 0.6026 0.67691 0.0
H1480 H 0.81678 0.57214 0.66384 0.0
H1481 H 0.77597 0.68542 0.55836 0.0
H1482 H 0.75946 0.68947 0.59627 0.0
H1483 H 0.79565 0.69502 0.59152 0.0
H1484 H 0.73862 0.69248 0.69853 0.0
H1485 H 0.82544 0.70762 0.68989 0.0
H1486 H 0.74481 0.62744 0.65605 0.0
H1487 H 0.73391 0.65723 0.62865 0.0
H1488 H 0.71928 0.65931 0.66749 0.0
H1489 H 0.85089 0.64494 0.64568 0.0
H1490 H 0.85757 0.68192 0.65427 0.0
H1491 H 0.84037 0.6749 0.61836 0.0
C1492 C 0.39995 0.83506 0.59111 0.0
C1493 C 0.42875 0.82485 0.59889 0.0
C1494 C 0.37753 0.8297 0.61089 0.0
C1495 C 0.38379 0.81353 0.63926 0.0
C1496 C 0.41274 0.80316 0.64735 0.0
C1497 C 0.43478 0.80899 0.6272 0.0
C1498 C 0.34704 0.84124 0.60129 0.0
C1499 C 0.42047 0.78582 0.67733 0.0
C1500 C 0.3284 0.82163 0.70468 0.0
C1501 C 0.31631 0.79553 0.702 0.0
C1502 C 0.35003 0.8279 0.68426 0.0
C1503 C 0.3601 0.80758 0.66052 0.0
C1504 C 0.34767 0.78144 0.65734 0.0
C1505 C 0.32595 0.77579 0.678 0.0
C1506 C 0.36242 0.85614 0.68842 0.0
C1507 C 0.35774 0.7591 0.63247 0.0
H1508 H 0.39472 0.84688 0.56923 0.0
H1509 H 0.45679 0.80123 0.6338 0.0
H1510 H 0.33509 0.82233 0.59917 0.0
H1511 H 0.33621 0.8561 0.61943 0.0
H1512 H 0.34568 0.85381 0.57874 0.0
H1513 H 0.44392 0.77902 0.68016 0.0
H1514 H 0.41215 0.79952 0.6975 0.0
H1515 H 0.41032 0.76548 0.67802 0.0
H1516 H 0.32122 0.8371 0.72307 0.0
H1517 H 0.31698 0.75547 0.67572 0.0
H1518 H 0.36034 0.8696 0.66645 0.0
H1519 H 0.38556 0.85046 0.69383 0.0
H1520 H 0.35176 0.87008 0.70741 0.0
H1521 H 0.35567 0.77021 0.60915 0.0
H1522 H 0.34551 0.74024 0.63253 0.0
H1523 H 0.3807 0.74998 0.63603 0.0
C1524 C 0.26664 0.41483 0.62282 0.0
C1525 C 0.29357 0.41833 0.61102 0.0
C1526 C 0.26361 0.39226 0.6448 0.0
C1527 C 0.28813 0.37281 0.65576 0.0
C1528 C 0.31549 0.37684 0.64494 0.0
C1529 C 0.31788 0.3994 0.62261 0.0
C1530 C 0.23401 0.38865 0.65556 0.0
C1531 C 0.3422 0.35675 0.65629 0.0
C1532 C 0.27896 0.32567 0.72851 0.0
C1533 C 0.27575 0.29837 0.71549 0.0
C1534 C 0.28383 0.34994 0.70948 0.0
C1535 C 0.28484 0.34695 0.67665 0.0
C1536 C 0.28158 0.31935 0.66349 0.0
C1537 C 0.27727 0.29541 0.68306 0.0
C1538 C 0.28768 0.37881 0.72447 0.0
C1539 C 0.28224 0.31521 0.62865 0.0
H1540 H 0.24772 0.42963 0.6148 0.0
H1541 H 0.33879 0.40163 0.6137 0.0
H1542 H 0.2293 0.36663 0.64833 0.0
H1543 H 0.2328 0.38913 0.68135 0.0
H1544 H 0.21721 0.40637 0.64584 0.0
H1545 H 0.36197 0.36451 0.64793 0.0
H1546 H 0.34259 0.3556 0.68213 0.0
H1547 H 0.34233 0.33375 0.64799 0.0
H1548 H 0.27749 0.32814 0.75351 0.0
H1549 H 0.27487 0.27431 0.67286 0.0
H1550 H 0.26993 0.39677 0.71745 0.0
H1551 H 0.30785 0.38576 0.71631 0.0
H1552 H 0.2882 0.3769 0.75031 0.0
H1553 H 0.2649 0.33129 0.61745 0.0
H1554 H 0.27961 0.29225 0.62216 0.0
H1555 H 0.30278 0.31989 0.61897 0.0
C1556 C 0.58913 0.26602 0.56481 0.0
C1557 C 0.5714 0.24623 0.57584 0.0
C1558 C 0.61114 0.27372 0.58376 0.0
C1559 C 0.61526 0.26168 0.61456 0.0
C1560 C 0.59625 0.24311 0.6262 0.0
C1561 C 0.57488 0.23545 0.6067 0.0
C1562 C 0.63091 0.29345 0.57025 0.0
C1563 C 0.59927 0.23007 0.65889 0.0
C1564 C 0.68871 0.24785 0.65394 0.0
C1565 C 0.68624 0.27067 0.67584 0.0
C1566 C 0.66626 0.24543 0.63314 0.0
C1567 C 0.64053 0.26637 0.63402 0.0
C1568 C 0.63829 0.29005 0.65546 0.0
C1569 C 0.66108 0.29186 0.67612 0.0
C1570 C 0.66974 0.21975 0.61089 0.0
C1571 C 0.61145 0.31294 0.65731 0.0
H1572 H 0.58687 0.27411 0.54088 0.0
H1573 H 0.56125 0.22018 0.61544 0.0
H1574 H 0.63326 0.31157 0.58653 0.0
H1575 H 0.65245 0.28009 0.56696 0.0
H1576 H 0.6232 0.30356 0.54741 0.0
H1577 H 0.58139 0.21814 0.66532 0.0
H1578 H 0.61961 0.21413 0.66095 0.0
H1579 H 0.60011 0.24795 0.67595 0.0
H1580 H 0.70804 0.2314 0.65351 0.0
H1581 H 0.65898 0.30962 0.6929 0.0
H1582 H 0.66488 0.22815 0.58673 0.0
H1583 H 0.65435 0.20461 0.61696 0.0
H1584 H 0.69167 0.20661 0.61148 0.0
H1585 H 0.60542 0.32253 0.63383 0.0
H1586 H 0.61392 0.33138 0.67318 0.0
H1587 H 0.59353 0.30205 0.66585 0.0
C1588 C 0.79501 0.45483 0.46551 0.0
C1589 C 0.82201 0.46249 0.45958 0.0
C1590 C 0.78465 0.43331 0.44747 0.0
C1591 C 0.80167 0.41937 0.42301 0.0
C1592 C 0.82847 0.42785 0.41636 0.0
C1593 C 0.83825 0.44922 0.43469 0.0
C1594 C 0.75593 0.42486 0.45512 0.0
C1595 C 0.84725 0.41377 0.39036 0.0
C1596 C 0.79805 0.34201 0.39356 0.0
C1597 C 0.7853 0.34867 0.36432 0.0
C1598 C 0.80172 0.36487 0.41396 0.0
C1599 C 0.79246 0.39506 0.40479 0.0
C1600 C 0.77804 0.40174 0.37603 0.0
C1601 C 0.77466 0.37843 0.3561 0.0
C1602 C 0.81712 0.35678 0.44446 0.0
C1603 C 0.76777 0.43358 0.36542 0.0
H1604 H 0.78238 0.46498 0.48474 0.0
H1605 H 0.85902 0.45522 0.42971 0.0
H1606 H 0.74245 0.42633 0.43387 0.0
H1607 H 0.75887 0.40136 0.46371 0.0
H1608 H 0.74436 0.43935 0.47317 0.0
H1609 H 0.86706 0.42364 0.38756 0.0
H1610 H 0.8534 0.38946 0.39509 0.0
H1611 H 0.83537 0.4165 0.36797 0.0
H1612 H 0.80607 0.31897 0.40006 0.0
H1613 H 0.76453 0.38361 0.33358 0.0
H1614 H 0.80535 0.36907 0.46386 0.0
H1615 H 0.83861 0.36339 0.44337 0.0
H1616 H 0.81978 0.33246 0.44985 0.0
H1617 H 0.75621 0.44661 0.38448 0.0
H1618 H 0.75346 0.43489 0.3448 0.0
H1619 H 0.78643 0.44433 0.35914 0.0
C1620 C 0.60145 0.84275 0.42188 0.0
C1621 C 0.60228 0.82507 0.44916 0.0
C1622 C 0.62296 0.83714 0.39904 0.0
C1623 C 0.64623 0.81353 0.40369 0.0
C1624 C 0.64735 0.79584 0.43138 0.0
C1625 C 0.62532 0.80166 0.45359 0.0
C1626 C 0.6206 0.85629 0.36973 0.0
C1627 C 0.67192 0.77077 0.43763 0.0
C1628 C 0.68944 0.78034 0.33371 0.0
C1629 C 0.71336 0.79492 0.3343 0.0
C1630 C 0.66737 0.78641 0.35585 0.0
C1631 C 0.66932 0.80726 0.3796 0.0
C1632 C 0.69347 0.82194 0.3804 0.0
C1633 C 0.71502 0.81579 0.35768 0.0
C1634 C 0.64189 0.77053 0.35377 0.0
C1635 C 0.6967 0.84398 0.4055 0.0
H1636 H 0.58359 0.86063 0.41806 0.0
H1637 H 0.62633 0.78811 0.47473 0.0
H1638 H 0.63961 0.86747 0.36735 0.0
H1639 H 0.62011 0.84208 0.34905 0.0
H1640 H 0.60113 0.87363 0.36949 0.0
H1641 H 0.66998 0.75947 0.46053 0.0
H1642 H 0.67297 0.75393 0.4191 0.0
H1643 H 0.69241 0.77954 0.4371 0.0
H1644 H 0.6878 0.76429 0.31572 0.0
H1645 H 0.73342 0.82707 0.35855 0.0
H1646 H 0.62195 0.78709 0.35183 0.0
H1647 H 0.64024 0.75706 0.37534 0.0
H1648 H 0.6432 0.75552 0.3335 0.0
H1649 H 0.67841 0.86266 0.40469 0.0
H1650 H 0.71683 0.85334 0.4031 0.0
H1651 H 0.69647 0.83296 0.42877 0.0
C1652 C 0.29811 0.57816 0.40429 0.0
C1653 C 0.28175 0.57622 0.43133 0.0
C1654 C 0.29396 0.60399 0.38512 0.0
C1655 C 0.27279 0.62851 0.39299 0.0
C1656 C 0.25572 0.62648 0.41976 0.0
C1657 C 0.2605 0.60051 0.43864 0.0
C1658 C 0.31273 0.60532 0.35683 0.0
C1659 C 0.23294 0.65209 0.429 0.0
C1660 C 0.28622 0.70448 0.36414 0.0
C1661 C 0.2693 0.70918 0.33711 0.0
C1662 C 0.28691 0.67875 0.38288 0.0
C1663 C 0.27012 0.65708 0.37462 0.0
C1664 C 0.25186 0.66232 0.34828 0.0
C1665 C 0.25167 0.68834 0.32978 0.0
C1666 C 0.30662 0.67419 0.41079 0.0
C1667 C 0.23341 0.63988 0.33891 0.0
H1668 H 0.31425 0.5595 0.39805 0.0
H1669 H 0.24795 0.59967 0.45961 0.0
H1670 H 0.29938 0.61105 0.33569 0.0
H1671 H 0.32589 0.62317 0.35959 0.0
H1672 H 0.32725 0.58389 0.35302 0.0
H1673 H 0.21987 0.64607 0.4489 0.0
H1674 H 0.24306 0.67141 0.43565 0.0
H1675 H 0.21855 0.65945 0.409 0.0
H1676 H 0.29981 0.72051 0.37018 0.0
H1677 H 0.23868 0.69165 0.30887 0.0
H1678 H 0.32339 0.65443 0.40725 0.0
H1679 H 0.29456 0.66972 0.43204 0.0
H1680 H 0.31723 0.69384 0.41491 0.0
H1681 H 0.2472 0.61909 0.33139 0.0
H1682 H 0.21861 0.64838 0.31954 0.0
H1683 H 0.22069 0.6339 0.35909 0.0
C1684 C 0.44593 0.2217 0.41316 0.0
C1685 C 0.44931 0.23986 0.43857 0.0
C1686 C 0.42276 0.22853 0.39244 0.0
C1687 C 0.40183 0.25411 0.39719 0.0
C1688 C 0.40584 0.27349 0.42187 0.0
C1689 C 0.42963 0.26625 0.44217 0.0
C1690 C 0.41985 0.20726 0.36646 0.0
C1691 C 0.38414 0.30097 0.42791 0.0
C1692 C 0.34688 0.27364 0.33104 0.0
C1693 C 0.32497 0.25829 0.34089 0.0
C1694 C 0.37157 0.27363 0.34956 0.0
C1695 C 0.37439 0.25804 0.37873 0.0
C1696 C 0.35178 0.24341 0.38907 0.0
C1697 C 0.32759 0.24363 0.37009 0.0
C1698 C 0.39502 0.2895 0.33746 0.0
C1699 C 0.35351 0.22656 0.41988 0.0
H1700 H 0.46115 0.20141 0.40992 0.0
H1701 H 0.43193 0.28035 0.46178 0.0
H1702 H 0.40151 0.19554 0.37134 0.0
H1703 H 0.41545 0.21967 0.34402 0.0
H1704 H 0.43935 0.19024 0.36378 0.0
H1705 H 0.39208 0.31585 0.4449 0.0
H1706 H 0.37839 0.31374 0.40591 0.0
H1707 H 0.36432 0.2942 0.43732 0.0
H1708 H 0.34498 0.28515 0.30863 0.0
H1709 H 0.31072 0.2319 0.37809 0.0
H1710 H 0.4142 0.27287 0.33212 0.0
H1711 H 0.40129 0.30437 0.35548 0.0
H1712 H 0.38853 0.30298 0.316 0.0
H1713 H 0.37103 0.20711 0.4191 0.0
H1714 H 0.33331 0.21832 0.42569 0.0
H1715 H 0.35854 0.24105 0.4389 0.0
C1716 C 0.5955 0.77022 0.61742 0.0
C1717 C 0.58097 0.79913 0.6107 0.0
C1718 C 0.61875 0.76551 0.63839 0.0
C1719 C 0.62792 0.79032 0.65247 0.0
C1720 C 0.61253 0.81933 0.64672 0.0
C1721 C 0.58922 0.82332 0.6262 0.0
C1722 C 0.63418 0.73416 0.64454 0.0
C1723 C 0.62167 0.8465 0.66086 0.0
C1724 C 0.68116 0.78664 0.71944 0.0
C1725 C 0.70639 0.78925 0.70334 0.0
C1726 C 0.65571 0.78489 0.70321 0.0
C1727 C 0.65536 0.78683 0.67018 0.0
C1728 C 0.681 0.78887 0.65393 0.0
C1729 C 0.70616 0.78978 0.67068 0.0
C1730 C 0.62907 0.78187 0.7214 0.0
C1731 C 0.68164 0.79144 0.61879 0.0
H1732 H 0.58916 0.75137 0.6058 0.0
H1733 H 0.5781 0.84576 0.62142 0.0
H1734 H 0.65541 0.73117 0.63307 0.0
H1735 H 0.63789 0.73011 0.66989 0.0
H1736 H 0.6221 0.71711 0.63557 0.0
H1737 H 0.60642 0.8673 0.65557 0.0
H1738 H 0.62364 0.84363 0.68651 0.0
H1739 H 0.643 0.84925 0.65171 0.0
H1740 H 0.68119 0.78643 0.74468 0.0
H1741 H 0.72564 0.79166 0.65808 0.0
H1742 H 0.61824 0.76439 0.71127 0.0
H1743 H 0.61388 0.80321 0.72005 0.0
H1744 H 0.63381 0.77613 0.74634 0.0
H1745 H 0.67284 0.77276 0.60828 0.0
H1746 H 0.70359 0.79131 0.60965 0.0
H1747 H 0.668 0.81251 0.61099 0.0
C1748 C 0.60476 0.18825 0.39881 0.0
C1749 C 0.60461 0.19377 0.43081 0.0
C1750 C 0.62773 0.19343 0.37992 0.0
C1751 C 0.65148 0.20356 0.39356 0.0
C1752 C 0.65184 0.20811 0.42613 0.0
C1753 C 0.62816 0.20363 0.44428 0.0
C1754 C 0.62602 0.18925 0.34521 0.0
C1755 C 0.67703 0.21817 0.44171 0.0
C1756 C 0.71995 0.19753 0.34557 0.0
C1757 C 0.71894 0.22714 0.33533 0.0
C1758 C 0.69841 0.18952 0.36509 0.0
C1759 C 0.67492 0.21148 0.37348 0.0
C1760 C 0.6736 0.24127 0.36246 0.0
C1761 C 0.69584 0.24879 0.34398 0.0
C1762 C 0.70095 0.15774 0.37705 0.0
C1763 C 0.64853 0.26519 0.36991 0.0
H1764 H 0.58636 0.18094 0.38841 0.0
H1765 H 0.62804 0.20764 0.46909 0.0
H1766 H 0.62601 0.21095 0.33287 0.0
H1767 H 0.64501 0.17373 0.33708 0.0
H1768 H 0.60649 0.18037 0.3384 0.0
H1769 H 0.67516 0.21793 0.46752 0.0
H1770 H 0.69715 0.20354 0.43507 0.0
H1771 H 0.67873 0.24119 0.43374 0.0
H1772 H 0.73788 0.18083 0.33893 0.0
H1773 H 0.69484 0.27165 0.33565 0.0
H1774 H 0.68246 0.14779 0.36905 0.0
H1775 H 0.70055 0.15734 0.40291 0.0
H1776 H 0.72093 0.14356 0.36913 0.0
H1777 H 0.62831 0.25813 0.36246 0.0
H1778 H 0.65016 0.28692 0.3583 0.0
H1779 H 0.64716 0.26851 0.39542 0.0
C1780 C 0.87835 0.61435 0.42315 0.0
C1781 C 0.86356 0.59042 0.42875 0.0
C1782 C 0.8693 0.63599 0.39986 0.0
C1783 C 0.84467 0.63391 0.38197 0.0
C1784 C 0.83076 0.60887 0.3861 0.0
C1785 C 0.84053 0.58732 0.40919 0.0
C1786 C 0.88508 0.66209 0.39578 0.0
C1787 C 0.80439 0.60581 0.36759 0.0
C1788 C 0.80203 0.70888 0.3581 0.0
C1789 C 0.80975 0.71151 0.32681 0.0
C1790 C 0.81238 0.6832 0.37583 0.0
C1791 C 0.83144 0.65974 0.3621 0.0
C1792 C 0.83857 0.66183 0.33013 0.0
C1793 C 0.82738 0.68769 0.3127 0.0
C1794 C 0.80364 0.68164 0.40962 0.0
C1795 C 0.85906 0.63745 0.31477 0.0
H1796 H 0.89616 0.61709 0.43791 0.0
H1797 H 0.82945 0.56849 0.41253 0.0
H1798 H 0.88902 0.66627 0.37072 0.0
H1799 H 0.87181 0.68253 0.40488 0.0
H1800 H 0.90587 0.65842 0.4083 0.0
H1801 H 0.79821 0.58338 0.37074 0.0
H1802 H 0.78629 0.62282 0.37521 0.0
H1803 H 0.80778 0.60991 0.34242 0.0
H1804 H 0.78823 0.72728 0.36892 0.0
H1805 H 0.8335 0.68984 0.28852 0.0
H1806 H 0.82256 0.68144 0.42481 0.0
H1807 H 0.79515 0.66067 0.41449 0.0
H1808 H 0.78711 0.70082 0.41608 0.0
H1809 H 0.88075 0.63667 0.32471 0.0
H1810 H 0.86019 0.64106 0.28916 0.0
H1811 H 0.8527 0.61536 0.31948 0.0
C1812 C 0.48657 0.76888 0.44948 0.0
C1813 C 0.47621 0.75912 0.47791 0.0
C1814 C 0.46941 0.77242 0.42259 0.0
C1815 C 0.44135 0.76568 0.42401 0.0
C1816 C 0.43144 0.75402 0.45208 0.0
C1817 C 0.44894 0.751 0.4787 0.0
C1818 C 0.48079 0.78487 0.39314 0.0
C1819 C 0.40185 0.74599 0.45438 0.0
C1820 C 0.38302 0.80458 0.36954 0.0
C1821 C 0.38105 0.78216 0.34813 0.0
C1822 C 0.40329 0.79987 0.39378 0.0
C1823 C 0.42181 0.77204 0.39667 0.0
C1824 C 0.4206 0.74982 0.37429 0.0
C1825 C 0.40032 0.75521 0.35025 0.0
C1826 C 0.40419 0.82427 0.41696 0.0
C1827 C 0.43984 0.71985 0.3765 0.0
H1828 H 0.50757 0.77532 0.44855 0.0
H1829 H 0.44077 0.74335 0.50048 0.0
H1830 H 0.47796 0.7706 0.37308 0.0
H1831 H 0.46852 0.8074 0.38791 0.0
H1832 H 0.50378 0.78672 0.3951 0.0
H1833 H 0.39815 0.73515 0.47711 0.0
H1834 H 0.38564 0.76645 0.45148 0.0
H1835 H 0.39838 0.73069 0.43544 0.0
H1836 H 0.36813 0.82539 0.36798 0.0
H1837 H 0.39889 0.73777 0.33369 0.0
H1838 H 0.4263 0.82905 0.41912 0.0
H1839 H 0.39771 0.8168 0.44027 0.0
H1840 H 0.3898 0.84527 0.41027 0.0
H1841 H 0.46249 0.72279 0.37875 0.0
H1842 H 0.43777 0.70591 0.3559 0.0
H1843 H 0.43439 0.70757 0.39768 0.0
C1844 C 0.25235 0.40193 0.46124 0.0
C1845 C 0.23826 0.4311 0.46602 0.0
C1846 C 0.24575 0.38565 0.43571 0.0
C1847 C 0.22434 0.39881 0.41446 0.0
C1848 C 0.20801 0.42706 0.42089 0.0
C1849 C 0.21525 0.44303 0.44667 0.0
C1850 C 0.2636 0.35547 0.43003 0.0
C1851 C 0.18446 0.44146 0.39931 0.0
C1852 C 0.24665 0.37305 0.334 0.0
C1853 C 0.23354 0.34768 0.33154 0.0
C1854 C 0.24167 0.39167 0.35972 0.0
C1855 C 0.22289 0.38493 0.38352 0.0
C1856 C 0.20721 0.3613 0.37954 0.0
C1857 C 0.21282 0.34279 0.3536 0.0
C1858 C 0.25869 0.41681 0.3628 0.0
C1859 C 0.18631 0.35399 0.40387 0.0
H1860 H 0.26981 0.3924 0.47651 0.0
H1861 H 0.20416 0.46553 0.45039 0.0
H1862 H 0.2497 0.33872 0.4251 0.0
H1863 H 0.27739 0.35698 0.40934 0.0
H1864 H 0.27753 0.34728 0.45021 0.0
H1865 H 0.16936 0.45894 0.41128 0.0
H1866 H 0.19392 0.45216 0.37929 0.0
H1867 H 0.17236 0.42465 0.38993 0.0
H1868 H 0.26223 0.37745 0.31674 0.0
H1869 H 0.20224 0.32348 0.35173 0.0
H1870 H 0.27498 0.41102 0.38142 0.0
H1871 H 0.2446 0.43766 0.36957 0.0
H1872 H 0.26984 0.42121 0.34083 0.0
H1873 H 0.19818 0.34096 0.42323 0.0
H1874 H 0.17105 0.34044 0.39415 0.0
H1875 H 0.17409 0.37463 0.41378 0.0
C1876 C 0.45455 0.1685 0.62292 0.0
C1877 C 0.44959 0.18804 0.59703 0.0
C1878 C 0.43571 0.17099 0.6484 0.0
C1879 C 0.41115 0.19342 0.64794 0.0
C1880 C 0.40569 0.21281 0.6216 0.0
C1881 C 0.42503 0.20997 0.59657 0.0
C1882 C 0.4425 0.15013 0.67617 0.0
C1883 C 0.37962 0.23688 0.62005 0.0
C1884 C 0.34886 0.18886 0.70313 0.0
C1885 C 0.35287 0.20996 0.72544 0.0
C1886 C 0.36802 0.18267 0.67812 0.0
C1887 C 0.39189 0.19769 0.67559 0.0
C1888 C 0.39671 0.21795 0.69886 0.0
C1889 C 0.37711 0.22394 0.72336 0.0
C1890 C 0.36206 0.16103 0.65369 0.0
C1891 C 0.42207 0.23416 0.69733 0.0
H1892 H 0.47365 0.15176 0.62366 0.0
H1893 H 0.42088 0.22486 0.57649 0.0
H1894 H 0.44625 0.16312 0.69695 0.0
H1895 H 0.42411 0.13865 0.68154 0.0
H1896 H 0.46171 0.133 0.6723 0.0
H1897 H 0.37768 0.24911 0.59729 0.0
H1898 H 0.36 0.22696 0.62398 0.0
H1899 H 0.38064 0.25316 0.63878 0.0
H1900 H 0.33007 0.17816 0.7044 0.0
H1901 H 0.38047 0.24017 0.74058 0.0
H1902 H 0.38118 0.1438 0.65009 0.0
H1903 H 0.35723 0.17313 0.63113 0.0
H1904 H 0.34373 0.14974 0.66006 0.0
H1905 H 0.44213 0.21798 0.69472 0.0
H1906 H 0.42388 0.24757 0.71839 0.0
H1907 H 0.42011 0.24934 0.67661 0.0
C1908 C 0.87968 0.40396 0.60455 0.0
C1909 C 0.86858 0.43436 0.60761 0.0
C1910 C 0.87095 0.38235 0.62464 0.0
C1911 C 0.85076 0.39142 0.64838 0.0
C1912 C 0.8405 0.42218 0.6524 0.0
C1913 C 0.84953 0.44322 0.63198 0.0
C1914 C 0.8824 0.34977 0.61965 0.0
C1915 C 0.8192 0.43284 0.6776 0.0
C1916 C 0.80152 0.3393 0.67864 0.0
C1917 C 0.81386 0.33003 0.70762 0.0
C1918 C 0.81385 0.35852 0.65873 0.0
C1919 C 0.83908 0.36886 0.66803 0.0
C1920 C 0.85206 0.35901 0.69686 0.0
C1921 C 0.83933 0.3397 0.71628 0.0
C1922 C 0.79942 0.36841 0.62808 0.0
C1923 C 0.87893 0.36957 0.70761 0.0
H1924 H 0.8942 0.39695 0.58561 0.0
H1925 H 0.84125 0.46672 0.63469 0.0
H1926 H 0.89082 0.33882 0.64182 0.0
H1927 H 0.86482 0.33826 0.61187 0.0
H1928 H 0.89965 0.34654 0.6019 0.0
H1929 H 0.8146 0.45758 0.67875 0.0
H1930 H 0.79885 0.42456 0.67322 0.0
H1931 H 0.8273 0.42371 0.70063 0.0
H1932 H 0.78194 0.3319 0.67162 0.0
H1933 H 0.84911 0.33268 0.73858 0.0
H1934 H 0.81488 0.36388 0.60865 0.0
H1935 H 0.7918 0.39286 0.62812 0.0
H1936 H 0.78089 0.35701 0.62345 0.0
H1937 H 0.89573 0.36547 0.68947 0.0
H1938 H 0.88742 0.35832 0.72966 0.0
H1939 H 0.87446 0.39401 0.71133 0.0
C1940 C 0.22199 0.57632 0.59047 0.0
C1941 C 0.24805 0.57327 0.57442 0.0
C1942 C 0.21504 0.59878 0.61267 0.0
C1943 C 0.23465 0.61838 0.61877 0.0
C1944 C 0.26029 0.61618 0.60149 0.0
C1945 C 0.2666 0.59376 0.57954 0.0
C1946 C 0.18735 0.60075 0.63044 0.0
C1947 C 0.28178 0.63669 0.60712 0.0
C1948 C 0.21939 0.69155 0.66109 0.0
C1949 C 0.23266 0.68342 0.68982 0.0
C1950 C 0.21773 0.67007 0.63838 0.0
C1951 C 0.22989 0.63993 0.64459 0.0
C1952 C 0.24176 0.63142 0.67432 0.0
C1953 C 0.24294 0.65331 0.69662 0.0
C1954 C 0.20465 0.67996 0.6071 0.0
C1955 C 0.25507 0.59955 0.68183 0.0
H1956 H 0.20756 0.56058 0.58651 0.0
H1957 H 0.2866 0.59184 0.56689 0.0
H1958 H 0.19193 0.59338 0.65497 0.0
H1959 H 0.17611 0.62418 0.63083 0.0
H1960 H 0.17288 0.58658 0.62026 0.0
H1961 H 0.30005 0.63289 0.59065 0.0
H1962 H 0.27138 0.66035 0.60483 0.0
H1963 H 0.29028 0.63315 0.63122 0.0
H1964 H 0.21117 0.71484 0.65594 0.0
H1965 H 0.25303 0.64698 0.71895 0.0
H1966 H 0.19062 0.6643 0.59917 0.0
H1967 H 0.22187 0.67989 0.58955 0.0
H1968 H 0.19201 0.70282 0.60772 0.0
H1969 H 0.24052 0.58398 0.67508 0.0
H1970 H 0.26029 0.59599 0.70698 0.0
H1971 H 0.27509 0.5937 0.66826 0.0
loop_
_geom_bond_atom_site_label_1
_geom_bond_atom_site_label_2
_geom_bond_distance
_geom_bond_site_symmetry_2
_ccdc_geom_bond_type
Cu0 N1 1.999 1_565 S
Cu0 O6 1.974 . S
Cu0 N11 1.975 1_455 S
Cu0 O20 1.959 1_465 S
N1 Cu0 1.999 1_545 S
N1 C3 1.263 . S
N1 C5 1.389 . S
N2 C3 1.358 . S
N2 C4 1.400 . S
C3 N1 1.263 . S
C3 N2 1.358 . S
C3 H9 0.930 . S
C4 N2 1.400 . S
C4 C5 1.351 . S
C4 H21 0.930 . S
C5 N1 1.389 . S
C5 C4 1.351 . S
C5 H10 0.930 . S
O6 Cu0 1.974 . S
O6 C16 1.282 . S
C7 O8 1.261 . S
C7 O20 1.251 . S
O8 C7 1.261 . S
H9 C3 0.930 . S
H10 C5 0.930 . S
N11 Cu0 1.975 1_655 S
N11 C13 1.349 . S
N11 C14 1.388 1_655 S
N12 C13 1.345 . S
N12 C15 1.336 . S
C13 N11 1.349 . S
C13 N12 1.345 . S
C13 H18 0.930 . S
C14 N11 1.388 1_455 S
C14 C15 1.346 1_455 S
C14 H19 0.930 . S
C15 N12 1.336 . S
C15 C14 1.346 1_655 S
C15 H22 0.929 . S
C16 O6 1.282 . S
C16 O17 1.216 . S
O17 C16 1.216 . S
H18 C13 0.930 . S
H19 C14 0.930 . S
O20 Cu0 1.959 1_645 S
O20 C7 1.251 . S
H21 C4 0.930 . S
H22 C15 0.929 . S
Cu23 N24 1.983 1_445 S
Cu23 O29 1.957 1_455 S
Cu23 N34 2.001 . S
Cu23 O43 1.976 1_545 S
N24 Cu23 1.983 1_665 S
N24 C26 1.263 . S
N24 C28 1.389 . S
N25 C26 1.358 . S
N25 C27 1.400 . S
C26 N24 1.263 . S
C26 N25 1.358 . S
C26 H32 0.930 1_565 S
C27 N25 1.400 . S
C27 C28 1.351 . S
C27 H44 0.930 . S
C28 N24 1.389 . S
C28 C27 1.351 . S
C28 H33 0.930 . S
O29 Cu23 1.957 1_655 S
O29 C39 1.282 . S
C30 O31 1.261 . S
C30 O43 1.251 . S
O31 C30 1.261 . S
H32 C26 0.930 1_545 S
H33 C28 0.930 . S
N34 Cu23 2.001 . S
N34 C36 1.335 . S
N34 C37 1.390 . S
N35 C36 1.345 . S
N35 C38 1.336 . S
C36 N34 1.335 . S
C36 N35 1.345 . S
C36 H41 0.930 . S
C37 N34 1.390 . S
C37 C38 1.346 . S
C37 H42 0.939 . S
C38 N35 1.336 . S
C38 C37 1.346 . S
C38 H45 0.929 . S
C39 O29 1.282 . S
C39 O40 1.216 . S
O40 C39 1.216 . S
H41 C36 0.930 . S
H42 C37 0.939 . S
O43 Cu23 1.976 1_565 S
O43 C30 1.251 . S
H44 C27 0.930 . S
H45 C38 0.929 . S
Cu46 N47 1.999 1_545 S
Cu46 O52 1.974 1_545 S
Cu46 N57 1.985 . S
Cu46 O66 1.959 . S
N47 Cu46 1.999 1_565 S
N47 C49 1.263 . S
N47 C51 1.389 1_554 S
N48 C49 1.358 1_556 S
N48 C50 1.400 . S
C49 N47 1.263 . S
C49 N48 1.358 1_554 S
C49 H55 0.930 . S
C50 N48 1.400 . S
C50 C51 1.351 . S
C50 H67 0.930 . S
C51 N47 1.389 1_556 S
C51 C50 1.351 . S
C51 H56 0.930 . S
O52 Cu46 1.974 1_565 S
O52 C62 1.282 . S
C53 O54 1.262 . S
C53 O66 1.253 . S
O54 C53 1.262 . S
H55 C49 0.930 . S
H56 C51 0.930 . S
N57 Cu46 1.985 . S
N57 C59 1.335 . S
N57 C60 1.390 . S
N58 C59 1.345 . S
N58 C61 1.336 . S
C59 N57 1.335 . S
C59 N58 1.345 . S
C59 H64 0.930 . S
C60 N57 1.390 . S
C60 C61 1.346 . S
C60 H65 0.930 . S
C61 N58 1.336 . S
C61 C60 1.346 . S
C61 H68 0.929 . S
C62 O52 1.282 . S
C62 O63 1.216 . S
O63 C62 1.216 . S
H64 C59 0.930 . S
H65 C60 0.930 . S
O66 Cu46 1.959 . S
O66 C53 1.253 . S
H67 C50 0.930 . S
H68 C61 0.929 . S
Cu69 N70 1.999 1_554 S
Cu69 O75 1.974 . S
Cu69 N80 1.985 1_455 S
Cu69 O89 1.941 1_454 S
N70 Cu69 1.999 1_556 S
N70 C72 1.263 . S
N70 C74 1.389 . S
N71 C72 1.358 . S
N71 C73 1.400 . S
C72 N70 1.263 . S
C72 N71 1.358 . S
C72 H78 0.930 1_556 S
C73 N71 1.400 . S
C73 C74 1.351 . S
C73 H90 0.930 . S
C74 N70 1.389 . S
C74 C73 1.351 . S
C74 H79 0.930 . S
O75 Cu69 1.974 . S
O75 C85 1.282 . S
C76 O77 1.261 . S
C76 O89 1.261 . S
O77 C76 1.261 . S
H78 C72 0.930 1_554 S
H79 C74 0.930 . S
N80 Cu69 1.985 1_655 S
N80 C82 1.335 . S
N80 C83 1.390 . S
N81 C82 1.345 . S
N81 C84 1.336 . S
C82 N80 1.335 . S
C82 N81 1.345 . S
C82 H87 0.930 . S
C83 N80 1.390 . S
C83 C84 1.346 . S
C83 H88 0.930 1_655 S
C84 N81 1.336 . S
C84 C83 1.346 . S
C84 H91 0.929 . S
C85 O75 1.282 . S
C85 O86 1.216 . S
O86 C85 1.216 . S
H87 C82 0.930 . S
H88 C83 0.930 1_455 S
O89 Cu69 1.941 1_656 S
O89 C76 1.261 . S
H90 C73 0.930 . S
H91 C84 0.929 . S
Cu92 N93 1.999 1_554 S
Cu92 O98 1.974 . S
Cu92 N103 1.985 1_545 S
Cu92 O112 1.959 1_544 S
N93 Cu92 1.999 1_556 S
N93 C95 1.263 . S
N93 C97 1.389 . S
N94 C95 1.358 . S
N94 C96 1.400 . S
C95 N93 1.263 . S
C95 N94 1.358 . S
C95 H101 0.930 . S
C96 N94 1.400 . S
C96 C97 1.351 . S
C96 H113 0.930 . S
C97 N93 1.389 . S
C97 C96 1.351 . S
C97 H102 0.930 . S
O98 Cu92 1.974 . S
O98 C108 1.282 . S
C99 O100 1.261 . S
C99 O112 1.251 . S
O100 C99 1.261 . S
H101 C95 0.930 . S
H102 C97 0.930 . S
N103 Cu92 1.985 1_565 S
N103 C105 1.335 . S
N103 C106 1.390 . S
N104 C105 1.345 . S
N104 C107 1.336 . S
C105 N103 1.335 . S
C105 N104 1.345 . S
C105 H110 0.930 . S
C106 N103 1.390 . S
C106 C107 1.346 . S
C106 H111 0.930 1_565 S
C107 N104 1.336 . S
C107 C106 1.346 . S
C107 H114 0.929 . S
C108 O98 1.282 . S
C108 O109 1.216 . S
O109 C108 1.216 . S
H110 C105 0.930 . S
H111 C106 0.930 1_545 S
O112 Cu92 1.959 1_566 S
O112 C99 1.251 . S
H113 C96 0.930 . S
H114 C107 0.929 . S
Cu115 N116 1.999 1_454 S
Cu115 O121 1.974 1_455 S
Cu115 N126 1.985 . S
Cu115 O135 1.959 1_554 S
N116 Cu115 1.999 1_656 S
N116 C118 1.263 . S
N116 C120 1.389 . S
N117 C118 1.358 . S
N117 C119 1.400 . S
C118 N116 1.263 . S
C118 N117 1.358 . S
C118 H124 0.930 . S
C119 N117 1.400 . S
C119 C120 1.351 . S
C119 H136 0.930 . S
C120 N116 1.389 . S
C120 C119 1.351 . S
C120 H125 0.930 1_655 S
O121 Cu115 1.974 1_655 S
O121 C131 1.282 . S
C122 O123 1.261 . S
C122 O135 1.251 . S
O123 C122 1.261 . S
H124 C118 0.930 . S
H125 C120 0.930 1_455 S
N126 Cu115 1.985 . S
N126 C128 1.335 . S
N126 C129 1.390 . S
N127 C128 1.345 . S
N127 C130 1.336 . S
C128 N126 1.335 . S
C128 N127 1.345 . S
C128 H133 0.930 . S
C129 N126 1.390 . S
C129 C130 1.346 . S
C129 H134 0.930 . S
C130 N127 1.336 . S
C130 C129 1.346 . S
C130 H137 0.929 . S
C131 O121 1.282 . S
C131 O132 1.216 . S
O132 C131 1.216 . S
H133 C128 0.930 . S
H134 C129 0.930 . S
O135 Cu115 1.959 1_556 S
O135 C122 1.251 . S
H136 C119 0.930 . S
H137 C130 0.929 . S
Cu138 N139 1.999 . S
Cu138 O144 1.974 . S
Cu138 N149 1.985 . S
Cu138 O158 1.959 . S
N139 Cu138 1.999 . S
N139 C141 1.263 . S
N139 C143 1.389 . S
N140 C141 1.358 . S
N140 C142 1.400 . S
C141 N139 1.263 . S
C141 N140 1.358 . S
C141 H147 0.930 . S
C142 N140 1.400 . S
C142 C143 1.351 . S
C142 H159 0.930 . S
C143 N139 1.389 . S
C143 C142 1.351 . S
C143 H148 0.930 . S
O144 Cu138 1.974 . S
O144 C154 1.282 . S
C145 O146 1.261 . S
C145 O158 1.251 . S
O146 C145 1.261 . S
H147 C141 0.930 . S
H148 C143 0.930 . S
N149 Cu138 1.985 . S
N149 C151 1.335 . S
N149 C152 1.390 . S
N150 C151 1.345 . S
N150 C153 1.336 . S
C151 N149 1.335 . S
C151 N150 1.345 . S
C151 H156 0.930 . S
C152 N149 1.390 . S
C152 C153 1.346 . S
C152 H157 0.930 . S
C153 N150 1.336 . S
C153 C152 1.346 . S
C153 H160 0.929 . S
C154 O144 1.282 . S
C154 O155 1.216 . S
O155 C154 1.216 . S
H156 C151 0.930 . S
H157 C152 0.930 . S
O158 Cu138 1.959 . S
O158 C145 1.251 . S
H159 C142 0.930 . S
H160 C153 0.929 . S
Cu161 N162 1.999 . S
Cu161 O167 1.974 . S
Cu161 N172 1.985 . S
Cu161 O181 1.959 . S
N162 Cu161 1.999 . S
N162 C164 1.263 . S
N162 C166 1.389 . S
N163 C164 1.358 . S
N163 C165 1.400 . S
C164 N162 1.263 . S
C164 N163 1.358 . S
C164 H170 0.930 . S
C165 N163 1.400 . S
C165 C166 1.351 . S
C165 H182 0.930 . S
C166 N162 1.389 . S
C166 C165 1.351 . S
C166 H171 0.930 . S
O167 Cu161 1.974 . S
O167 C177 1.282 . S
C168 O169 1.261 . S
C168 O181 1.251 . S
O169 C168 1.261 . S
H170 C164 0.930 . S
H171 C166 0.930 . S
N172 Cu161 1.985 . S
N172 C174 1.335 . S
N172 C175 1.390 . S
N173 C174 1.345 . S
N173 C176 1.336 . S
C174 N172 1.335 . S
C174 N173 1.345 . S
C174 H179 0.930 . S
C175 N172 1.390 . S
C175 C176 1.346 . S
C175 H180 0.930 . S
C176 N173 1.336 . S
C176 C175 1.346 . S
C176 H183 0.929 . S
C177 O167 1.282 . S
C177 O178 1.216 . S
O178 C177 1.216 . S
H179 C174 0.930 . S
H180 C175 0.930 . S
O181 Cu161 1.959 . S
O181 C168 1.251 . S
H182 C165 0.930 . S
H183 C176 0.929 . S
Cu184 N185 1.999 . S
Cu184 O190 1.974 . S
Cu184 N195 1.985 . S
Cu184 O204 1.959 . S
N185 Cu184 1.999 . S
N185 C187 1.263 . S
N185 C189 1.389 . S
N186 C187 1.358 . S
N186 C188 1.400 . S
C187 N185 1.263 . S
C187 N186 1.358 . S
C187 H193 0.930 . S
C188 N186 1.400 . S
C188 C189 1.351 . S
C188 H205 0.930 . S
C189 N185 1.389 . S
C189 C188 1.351 . S
C189 H194 0.930 . S
O190 Cu184 1.974 . S
O190 C200 1.282 . S
C191 O192 1.261 . S
C191 O204 1.251 . S
O192 C191 1.261 . S
H193 C187 0.930 . S
H194 C189 0.930 . S
N195 Cu184 1.985 . S
N195 C197 1.335 . S
N195 C198 1.390 . S
N196 C197 1.345 . S
N196 C199 1.336 . S
C197 N195 1.335 . S
C197 N196 1.345 . S
C197 H202 0.930 . S
C198 N195 1.390 . S
C198 C199 1.346 . S
C198 H203 0.930 . S
C199 N196 1.336 . S
C199 C198 1.346 . S
C199 H206 0.929 . S
C200 O190 1.282 . S
C200 O201 1.216 . S
O201 C200 1.216 . S
H202 C197 0.930 . S
H203 C198 0.930 . S
O204 Cu184 1.959 . S
O204 C191 1.251 . S
H205 C188 0.930 . S
H206 C199 0.929 . S
Cu207 N208 1.999 . S
Cu207 O213 1.974 . S
Cu207 N218 1.985 . S
Cu207 O227 1.959 . S
N208 Cu207 1.999 . S
N208 C210 1.263 . S
N208 C212 1.389 . S
N209 C210 1.358 . S
N209 C211 1.400 . S
C210 N208 1.263 . S
C210 N209 1.358 . S
C210 H216 0.930 . S
C211 N209 1.400 . S
C211 C212 1.351 . S
C211 H228 0.930 . S
C212 N208 1.389 . S
C212 C211 1.351 . S
C212 H217 0.930 . S
O213 Cu207 1.974 . S
O213 C223 1.282 . S
C214 O215 1.261 . S
C214 O227 1.251 . S
O215 C214 1.261 . S
H216 C210 0.930 . S
H217 C212 0.930 . S
N218 Cu207 1.985 . S
N218 C220 1.335 . S
N218 C221 1.390 . S
N219 C220 1.345 . S
N219 C222 1.336 . S
C220 N218 1.335 . S
C220 N219 1.345 . S
C220 H225 0.930 . S
C221 N218 1.390 . S
C221 C222 1.346 . S
C221 H226 0.930 . S
C222 N219 1.336 . S
C222 C221 1.346 . S
C222 H229 0.929 . S
C223 O213 1.282 . S
C223 O224 1.216 . S
O224 C223 1.216 . S
H225 C220 0.930 . S
H226 C221 0.930 . S
O227 Cu207 1.959 . S
O227 C214 1.251 . S
H228 C211 0.930 . S
H229 C222 0.929 . S
Cu230 N231 1.999 . S
Cu230 O236 1.974 . S
Cu230 N241 1.985 . S
Cu230 O250 1.959 . S
N231 Cu230 1.999 . S
N231 C233 1.263 . S
N231 C235 1.389 . S
N232 C233 1.358 . S
N232 C234 1.400 . S
C233 N231 1.263 . S
C233 N232 1.358 . S
C233 H239 0.930 . S
C234 N232 1.400 . S
C234 C235 1.351 . S
C234 H251 0.930 . S
C235 N231 1.389 . S
C235 C234 1.351 . S
C235 H240 0.930 . S
O236 Cu230 1.974 . S
O236 C246 1.282 . S
C237 O238 1.261 . S
C237 O250 1.251 . S
O238 C237 1.261 . S
H239 C233 0.930 . S
H240 C235 0.930 . S
N241 Cu230 1.985 . S
N241 C243 1.335 . S
N241 C244 1.390 . S
N242 C243 1.345 . S
N242 C245 1.336 . S
C243 N241 1.335 . S
C243 N242 1.345 . S
C243 H248 0.930 . S
C244 N241 1.390 . S
C244 C245 1.346 . S
C244 H249 0.930 . S
C245 N242 1.336 . S
C245 C244 1.346 . S
C245 H252 0.929 . S
C246 O236 1.282 . S
C246 O247 1.216 . S
O247 C246 1.216 . S
H248 C243 0.930 . S
H249 C244 0.930 . S
O250 Cu230 1.959 . S
O250 C237 1.251 . S
H251 C234 0.930 . S
H252 C245 0.929 . S
Cu253 N254 1.999 . S
Cu253 O259 1.974 . S
Cu253 N264 1.985 . S
Cu253 O273 1.959 . S
N254 Cu253 1.999 . S
N254 C256 1.263 . S
N254 C258 1.389 . S
N255 C256 1.358 . S
N255 C257 1.400 . S
C256 N254 1.263 . S
C256 N255 1.358 . S
C256 H262 0.930 . S
C257 N255 1.400 . S
C257 C258 1.351 . S
C257 H274 0.930 . S
C258 N254 1.389 . S
C258 C257 1.351 . S
C258 H263 0.930 . S
O259 Cu253 1.974 . S
O259 C269 1.282 . S
C260 O261 1.261 . S
C260 O273 1.251 . S
O261 C260 1.261 . S
H262 C256 0.930 . S
H263 C258 0.930 . S
N264 Cu253 1.985 . S
N264 C266 1.335 . S
N264 C267 1.390 . S
N265 C266 1.345 . S
N265 C268 1.336 . S
C266 N264 1.335 . S
C266 N265 1.345 . S
C266 H271 0.930 . S
C267 N264 1.390 . S
C267 C268 1.346 . S
C267 H272 0.930 . S
C268 N265 1.336 . S
C268 C267 1.346 . S
C268 H275 0.929 . S
C269 O259 1.282 . S
C269 O270 1.216 . S
O270 C269 1.216 . S
H271 C266 0.930 . S
H272 C267 0.930 . S
O273 Cu253 1.959 . S
O273 C260 1.251 . S
H274 C257 0.930 . S
H275 C268 0.929 . S
Dy276 O280 2.398 . S
Dy276 O281 2.491 . S
Dy276 O282 2.403 . S
Dy276 O283 2.664 . S
Dy276 O287 2.326 . S
Dy276 O291 2.310 . S
Dy276 O292 2.351 . S
C277 O288 1.185 . S
C277 O289 1.355 . S
C278 O280 1.185 . S
C278 O281 1.355 . S
Dy279 O283 2.310 . S
Dy279 O286 2.351 . S
Dy279 O288 2.398 . S
Dy279 O289 2.491 . S
Dy279 O290 2.403 . S
Dy279 O291 2.664 . S
Dy279 O293 2.326 . S
O280 Dy276 2.398 . S
O280 C278 1.185 . S
O281 Dy276 2.491 . S
O281 C278 1.355 . S
O282 Dy276 2.403 . S
O282 C284 1.254 . S
O283 Dy276 2.664 . S
O283 Dy279 2.310 . S
O283 C284 1.268 . S
C284 O282 1.254 . S
C284 O283 1.268 . S
C285 O290 1.254 . S
C285 O291 1.268 . S
O286 Dy279 2.351 . S
O286 C294 1.249 . S
O287 Dy276 2.326 . S
O287 C294 1.267 . S
O288 C277 1.185 . S
O288 Dy279 2.398 . S
O289 C277 1.355 . S
O289 Dy279 2.491 . S
O290 Dy279 2.403 . S
O290 C285 1.254 . S
O291 Dy276 2.310 . S
O291 Dy279 2.664 . S
O291 C285 1.268 . S
O292 Dy276 2.351 . S
O292 C295 1.249 . S
O293 Dy279 2.326 . S
O293 C295 1.267 . S
C294 O286 1.249 . S
C294 O287 1.267 . S
C295 O292 1.249 . S
C295 O293 1.267 . S
Dy296 O300 2.398 . S
Dy296 O301 2.491 . S
Dy296 O302 2.403 . S
Dy296 O303 2.664 . S
Dy296 O307 2.326 . S
Dy296 O311 2.310 . S
Dy296 O312 2.351 . S
C297 O308 1.185 . S
C297 O309 1.355 . S
C298 O300 1.185 . S
C298 O301 1.355 . S
Dy299 O303 2.310 . S
Dy299 O306 2.351 . S
Dy299 O308 2.398 . S
Dy299 O309 2.491 . S
Dy299 O310 2.403 . S
Dy299 O311 2.664 . S
Dy299 O313 2.326 . S
O300 Dy296 2.398 . S
O300 C298 1.185 . S
O301 Dy296 2.491 . S
O301 C298 1.355 . S
O302 Dy296 2.403 . S
O302 C304 1.254 . S
O303 Dy296 2.664 . S
O303 Dy299 2.310 . S
O303 C304 1.268 . S
C304 O302 1.254 . S
C304 O303 1.268 . S
C305 O310 1.254 . S
C305 O311 1.268 . S
O306 Dy299 2.351 . S
O306 C314 1.249 . S
O307 Dy296 2.326 . S
O307 C314 1.267 . S
O308 C297 1.185 . S
O308 Dy299 2.398 . S
O309 C297 1.355 . S
O309 Dy299 2.491 . S
O310 Dy299 2.403 . S
O310 C305 1.254 . S
O311 Dy296 2.310 . S
O311 Dy299 2.664 . S
O311 C305 1.268 . S
O312 Dy296 2.351 . S
O312 C315 1.249 . S
O313 Dy299 2.326 . S
O313 C315 1.267 . S
C314 O306 1.249 . S
C314 O307 1.267 . S
C315 O312 1.249 . S
C315 O313 1.267 . S
Dy316 O320 2.398 . S
Dy316 O321 2.491 . S
Dy316 O322 2.403 . S
Dy316 O323 2.664 . S
Dy316 O327 2.326 . S
Dy316 O331 2.310 . S
Dy316 O332 2.351 . S
C317 O328 1.185 . S
C317 O329 1.355 . S
C318 O320 1.185 . S
C318 O321 1.355 . S
Dy319 O323 2.310 . S
Dy319 O326 2.351 . S
Dy319 O328 2.398 . S
Dy319 O329 2.491 . S
Dy319 O330 2.403 . S
Dy319 O331 2.664 . S
Dy319 O333 2.326 . S
O320 Dy316 2.398 . S
O320 C318 1.185 . S
O321 Dy316 2.491 . S
O321 C318 1.355 . S
O322 Dy316 2.403 . S
O322 C324 1.254 . S
O323 Dy316 2.664 . S
O323 Dy319 2.310 . S
O323 C324 1.268 . S
C324 O322 1.254 . S
C324 O323 1.268 . S
C325 O330 1.254 . S
C325 O331 1.268 . S
O326 Dy319 2.351 . S
O326 C334 1.249 . S
O327 Dy316 2.326 . S
O327 C334 1.267 . S
O328 C317 1.185 . S
O328 Dy319 2.398 . S
O329 C317 1.355 . S
O329 Dy319 2.491 . S
O330 Dy319 2.403 . S
O330 C325 1.254 . S
O331 Dy316 2.310 . S
O331 Dy319 2.664 . S
O331 C325 1.268 . S
O332 Dy316 2.351 . S
O332 C335 1.249 . S
O333 Dy319 2.326 . S
O333 C335 1.267 . S
C334 O326 1.249 . S
C334 O327 1.267 . S
C335 O332 1.249 . S
C335 O333 1.267 . S
Dy336 O340 2.398 . S
Dy336 O341 2.491 . S
Dy336 O342 2.403 . S
Dy336 O343 2.664 . S
Dy336 O347 2.326 . S
Dy336 O351 2.310 . S
Dy336 O352 2.351 . S
C337 O348 1.185 . S
C337 O349 1.355 . S
C338 O340 1.185 . S
C338 O341 1.355 . S
Dy339 O343 2.310 . S
Dy339 O346 2.351 . S
Dy339 O348 2.398 . S
Dy339 O349 2.491 . S
Dy339 O350 2.403 . S
Dy339 O351 2.664 . S
Dy339 O353 2.326 . S
O340 Dy336 2.398 . S
O340 C338 1.185 . S
O341 Dy336 2.491 . S
O341 C338 1.355 . S
O342 Dy336 2.403 . S
O342 C344 1.254 . S
O343 Dy336 2.664 . S
O343 Dy339 2.310 . S
O343 C344 1.268 . S
C344 O342 1.254 . S
C344 O343 1.268 . S
C345 O350 1.254 . S
C345 O351 1.268 . S
O346 Dy339 2.351 . S
O346 C354 1.249 . S
O347 Dy336 2.326 . S
O347 C354 1.267 . S
O348 C337 1.185 . S
O348 Dy339 2.398 . S
O349 C337 1.355 . S
O349 Dy339 2.491 . S
O350 Dy339 2.403 . S
O350 C345 1.254 . S
O351 Dy336 2.310 . S
O351 Dy339 2.664 . S
O351 C345 1.268 . S
O352 Dy336 2.351 . S
O352 C355 1.249 . S
O353 Dy339 2.326 . S
O353 C355 1.267 . S
C354 O346 1.249 . S
C354 O347 1.267 . S
C355 O352 1.249 . S
C355 O353 1.267 . S
Dy356 O360 2.398 . S
Dy356 O361 2.491 . S
Dy356 O362 2.403 . S
Dy356 O363 2.664 . S
Dy356 O367 2.326 . S
Dy356 O371 2.310 . S
Dy356 O372 2.351 . S
C357 O368 1.185 . S
C357 O369 1.355 . S
C358 O360 1.185 . S
C358 O361 1.355 . S
Dy359 O363 2.310 . S
Dy359 O366 2.351 . S
Dy359 O368 2.398 . S
Dy359 O369 2.491 . S
Dy359 O370 2.403 . S
Dy359 O371 2.664 . S
Dy359 O373 2.326 . S
O360 Dy356 2.398 . S
O360 C358 1.185 . S
O361 Dy356 2.491 . S
O361 C358 1.355 . S
O362 Dy356 2.403 . S
O362 C364 1.254 . S
O363 Dy356 2.664 . S
O363 Dy359 2.310 . S
O363 C364 1.268 . S
C364 O362 1.254 . S
C364 O363 1.268 . S
C365 O370 1.254 . S
C365 O371 1.268 . S
O366 Dy359 2.351 . S
O366 C374 1.249 . S
O367 Dy356 2.326 . S
O367 C374 1.267 . S
O368 C357 1.185 . S
O368 Dy359 2.398 . S
O369 C357 1.355 . S
O369 Dy359 2.491 . S
O370 Dy359 2.403 . S
O370 C365 1.254 . S
O371 Dy356 2.310 . S
O371 Dy359 2.664 . S
O371 C365 1.268 . S
O372 Dy356 2.351 . S
O372 C375 1.249 . S
O373 Dy359 2.326 . S
O373 C375 1.267 . S
C374 O366 1.249 . S
C374 O367 1.267 . S
C375 O372 1.249 . S
C375 O373 1.267 . S
Dy376 O380 2.398 . S
Dy376 O381 2.491 . S
Dy376 O382 2.403 . S
Dy376 O383 2.664 . S
Dy376 O387 2.326 . S
Dy376 O391 2.310 . S
Dy376 O392 2.351 . S
C377 O388 1.185 . S
C377 O389 1.355 . S
C378 O380 1.185 . S
C378 O381 1.355 . S
Dy379 O383 2.310 . S
Dy379 O386 2.351 . S
Dy379 O388 2.398 . S
Dy379 O389 2.491 . S
Dy379 O390 2.403 . S
Dy379 O391 2.664 . S
Dy379 O393 2.326 . S
O380 Dy376 2.398 . S
O380 C378 1.185 . S
O381 Dy376 2.491 . S
O381 C378 1.355 . S
O382 Dy376 2.403 . S
O382 C384 1.254 . S
O383 Dy376 2.664 . S
O383 Dy379 2.310 . S
O383 C384 1.268 . S
C384 O382 1.254 . S
C384 O383 1.268 . S
C385 O390 1.254 . S
C385 O391 1.268 . S
O386 Dy379 2.351 . S
O386 C394 1.249 . S
O387 Dy376 2.326 . S
O387 C394 1.267 . S
O388 C377 1.185 . S
O388 Dy379 2.398 . S
O389 C377 1.355 . S
O389 Dy379 2.491 . S
O390 Dy379 2.403 . S
O390 C385 1.254 . S
O391 Dy376 2.310 . S
O391 Dy379 2.664 . S
O391 C385 1.268 . S
O392 Dy376 2.351 . S
O392 C395 1.249 . S
O393 Dy379 2.326 . S
O393 C395 1.267 . S
C394 O386 1.249 . S
C394 O387 1.267 . S
C395 O392 1.249 . S
C395 O393 1.267 . S
Dy396 O400 2.398 . S
Dy396 O401 2.491 . S
Dy396 O402 2.403 . S
Dy396 O403 2.664 . S
Dy396 O407 2.326 . S
Dy396 O411 2.310 . S
Dy396 O412 2.351 . S
C397 O408 1.185 . S
C397 O409 1.355 . S
C398 O400 1.185 . S
C398 O401 1.355 . S
Dy399 O403 2.310 . S
Dy399 O406 2.351 . S
Dy399 O408 2.398 . S
Dy399 O409 2.491 . S
Dy399 O410 2.403 . S
Dy399 O411 2.664 . S
Dy399 O413 2.326 . S
O400 Dy396 2.398 . S
O400 C398 1.185 . S
O401 Dy396 2.491 . S
O401 C398 1.355 . S
O402 Dy396 2.403 . S
O402 C404 1.254 . S
O403 Dy396 2.664 . S
O403 Dy399 2.310 . S
O403 C404 1.268 . S
C404 O402 1.254 . S
C404 O403 1.268 . S
C405 O410 1.254 . S
C405 O411 1.268 . S
O406 Dy399 2.351 . S
O406 C414 1.249 . S
O407 Dy396 2.326 . S
O407 C414 1.267 . S
O408 C397 1.185 . S
O408 Dy399 2.398 . S
O409 C397 1.355 . S
O409 Dy399 2.491 . S
O410 Dy399 2.403 . S
O410 C405 1.254 . S
O411 Dy396 2.310 . S
O411 Dy399 2.664 . S
O411 C405 1.268 . S
O412 Dy396 2.351 . S
O412 C415 1.249 . S
O413 Dy399 2.326 . S
O413 C415 1.267 . S
C414 O406 1.249 . S
C414 O407 1.267 . S
C415 O412 1.249 . S
C415 O413 1.267 . S
Dy416 O420 2.398 . S
Dy416 O421 2.491 . S
Dy416 O422 2.403 . S
Dy416 O423 2.664 . S
Dy416 O427 2.326 . S
Dy416 O431 2.310 . S
Dy416 O432 2.351 . S
C417 O428 1.185 . S
C417 O429 1.355 . S
C418 O420 1.185 . S
C418 O421 1.355 . S
Dy419 O423 2.310 . S
Dy419 O426 2.351 . S
Dy419 O428 2.398 . S
Dy419 O429 2.491 . S
Dy419 O430 2.403 . S
Dy419 O431 2.664 . S
Dy419 O433 2.326 . S
O420 Dy416 2.398 . S
O420 C418 1.185 . S
O421 Dy416 2.491 . S
O421 C418 1.355 . S
O422 Dy416 2.403 . S
O422 C424 1.254 . S
O423 Dy416 2.664 . S
O423 Dy419 2.310 . S
O423 C424 1.268 . S
C424 O422 1.254 . S
C424 O423 1.268 . S
C425 O430 1.254 . S
C425 O431 1.268 . S
O426 Dy419 2.351 . S
O426 C434 1.249 . S
O427 Dy416 2.326 . S
O427 C434 1.267 . S
O428 C417 1.185 . S
O428 Dy419 2.398 . S
O429 C417 1.355 . S
O429 Dy419 2.491 . S
O430 Dy419 2.403 . S
O430 C425 1.254 . S
O431 Dy416 2.310 . S
O431 Dy419 2.664 . S
O431 C425 1.268 . S
O432 Dy416 2.351 . S
O432 C435 1.249 . S
O433 Dy419 2.326 . S
O433 C435 1.267 . S
C434 O426 1.249 . S
C434 O427 1.267 . S
C435 O432 1.249 . S
C435 O433 1.267 . S
C436 C437 1.391 . S
C436 C438 1.394 . S
C436 H452 0.931 . S
C437 C436 1.391 . S
C437 C441 1.376 . S
C438 C436 1.394 . S
C438 C439 1.369 . S
C438 C442 1.531 . S
C439 C438 1.369 . S
C439 C440 1.410 . S
C439 C447 1.503 . S
C440 C439 1.410 . S
C440 C441 1.392 . S
C440 C443 1.511 . S
C441 C437 1.376 . S
C441 C440 1.392 . S
C441 H453 0.929 . S
C442 C438 1.531 . S
C442 H454 0.960 . S
C442 H455 0.962 . S
C442 H456 0.960 . S
C443 C440 1.511 . S
C443 H457 0.961 . S
C443 H458 0.961 . S
C443 H459 0.961 . S
C444 C445 1.370 . S
C444 C446 1.363 . S
C444 H460 0.931 . S
C445 C444 1.370 . S
C445 C449 1.408 . S
C446 C444 1.363 . S
C446 C447 1.370 . S
C446 C450 1.524 . S
C447 C439 1.503 . S
C447 C446 1.370 . S
C447 C448 1.403 . S
C448 C447 1.403 . S
C448 C449 1.404 . S
C448 C451 1.539 . S
C449 C445 1.408 . S
C449 C448 1.404 . S
C449 H461 0.930 . S
C450 C446 1.524 . S
C450 H462 0.956 . S
C450 H463 0.961 . S
C450 H464 0.961 . S
C451 C448 1.539 . S
C451 H465 0.958 . S
C451 H466 0.961 . S
C451 H467 0.960 . S
H452 C436 0.931 . S
H453 C441 0.929 . S
H454 C442 0.960 . S
H455 C442 0.962 . S
H456 C442 0.960 . S
H457 C443 0.961 . S
H458 C443 0.961 . S
H459 C443 0.961 . S
H460 C444 0.931 . S
H461 C449 0.930 . S
H462 C450 0.956 . S
H463 C450 0.961 . S
H464 C450 0.961 . S
H465 C451 0.958 . S
H466 C451 0.961 . S
H467 C451 0.960 . S
C468 C469 1.391 . S
C468 C470 1.394 . S
C468 H484 0.931 . S
C469 C468 1.391 . S
C469 C473 1.376 . S
C470 C468 1.394 . S
C470 C471 1.369 . S
C470 C474 1.531 . S
C471 C470 1.369 . S
C471 C472 1.410 . S
C471 C479 1.503 . S
C472 C471 1.410 . S
C472 C473 1.392 . S
C472 C475 1.511 . S
C473 C469 1.376 . S
C473 C472 1.392 . S
C473 H485 0.929 . S
C474 C470 1.531 . S
C474 H486 0.960 . S
C474 H487 0.962 . S
C474 H488 0.960 . S
C475 C472 1.511 . S
C475 H489 0.961 . S
C475 H490 0.961 . S
C475 H491 0.961 . S
C476 C477 1.370 . S
C476 C478 1.363 . S
C476 H492 0.931 . S
C477 C476 1.370 . S
C477 C481 1.408 . S
C478 C476 1.363 . S
C478 C479 1.370 . S
C478 C482 1.524 . S
C479 C471 1.503 . S
C479 C478 1.370 . S
C479 C480 1.403 . S
C480 C479 1.403 . S
C480 C481 1.404 . S
C480 C483 1.539 . S
C481 C477 1.408 . S
C481 C480 1.404 . S
C481 H493 0.930 . S
C482 C478 1.524 . S
C482 H494 0.956 . S
C482 H495 0.961 . S
C482 H496 0.961 . S
C483 C480 1.539 . S
C483 H497 0.958 . S
C483 H498 0.961 . S
C483 H499 0.960 . S
H484 C468 0.931 . S
H485 C473 0.929 . S
H486 C474 0.960 . S
H487 C474 0.962 . S
H488 C474 0.960 . S
H489 C475 0.961 . S
H490 C475 0.961 . S
H491 C475 0.961 . S
H492 C476 0.931 . S
H493 C481 0.930 . S
H494 C482 0.956 . S
H495 C482 0.961 . S
H496 C482 0.961 . S
H497 C483 0.958 . S
H498 C483 0.961 . S
H499 C483 0.960 . S
C500 C501 1.391 . S
C500 C502 1.394 . S
C500 H516 0.931 . S
C501 C500 1.391 . S
C501 C505 1.376 . S
C502 C500 1.394 . S
C502 C503 1.369 . S
C502 C506 1.531 . S
C503 C502 1.369 . S
C503 C504 1.410 . S
C503 C511 1.503 . S
C504 C503 1.410 . S
C504 C505 1.392 . S
C504 C507 1.511 . S
C505 C501 1.376 . S
C505 C504 1.392 . S
C505 H517 0.929 . S
C506 C502 1.531 . S
C506 H518 0.960 . S
C506 H519 0.962 . S
C506 H520 0.960 . S
C507 C504 1.511 . S
C507 H521 0.961 . S
C507 H522 0.961 . S
C507 H523 0.961 . S
C508 C509 1.370 . S
C508 C510 1.363 . S
C508 H524 0.931 . S
C509 C508 1.370 . S
C509 C513 1.408 . S
C510 C508 1.363 . S
C510 C511 1.370 . S
C510 C514 1.524 . S
C511 C503 1.503 . S
C511 C510 1.370 . S
C511 C512 1.403 . S
C512 C511 1.403 . S
C512 C513 1.404 . S
C512 C515 1.539 . S
C513 C509 1.408 . S
C513 C512 1.404 . S
C513 H525 0.930 . S
C514 C510 1.524 . S
C514 H526 0.956 . S
C514 H527 0.961 . S
C514 H528 0.961 . S
C515 C512 1.539 . S
C515 H529 0.958 . S
C515 H530 0.961 . S
C515 H531 0.960 . S
H516 C500 0.931 . S
H517 C505 0.929 . S
H518 C506 0.960 . S
H519 C506 0.962 . S
H520 C506 0.960 . S
H521 C507 0.961 . S
H522 C507 0.961 . S
H523 C507 0.961 . S
H524 C508 0.931 . S
H525 C513 0.930 . S
H526 C514 0.956 . S
H527 C514 0.961 . S
H528 C514 0.961 . S
H529 C515 0.958 . S
H530 C515 0.961 . S
H531 C515 0.960 . S
C532 C533 1.391 . S
C532 C534 1.394 . S
C532 H548 0.931 . S
C533 C532 1.391 . S
C533 C537 1.376 . S
C534 C532 1.394 . S
C534 C535 1.369 . S
C534 C538 1.531 . S
C535 C534 1.369 . S
C535 C536 1.410 . S
C535 C543 1.503 . S
C536 C535 1.410 . S
C536 C537 1.392 . S
C536 C539 1.511 . S
C537 C533 1.376 . S
C537 C536 1.392 . S
C537 H549 0.929 . S
C538 C534 1.531 . S
C538 H550 0.960 . S
C538 H551 0.962 . S
C538 H552 0.960 . S
C539 C536 1.511 . S
C539 H553 0.961 . S
C539 H554 0.961 . S
C539 H555 0.961 . S
C540 C541 1.370 . S
C540 C542 1.363 . S
C540 H556 0.931 . S
C541 C540 1.370 . S
C541 C545 1.408 . S
C542 C540 1.363 . S
C542 C543 1.370 . S
C542 C546 1.524 . S
C543 C535 1.503 . S
C543 C542 1.370 . S
C543 C544 1.403 . S
C544 C543 1.403 . S
C544 C545 1.404 . S
C544 C547 1.539 . S
C545 C541 1.408 . S
C545 C544 1.404 . S
C545 H557 0.930 . S
C546 C542 1.524 . S
C546 H558 0.956 . S
C546 H559 0.961 . S
C546 H560 0.961 . S
C547 C544 1.539 . S
C547 H561 0.958 . S
C547 H562 0.961 . S
C547 H563 0.960 . S
H548 C532 0.931 . S
H549 C537 0.929 . S
H550 C538 0.960 . S
H551 C538 0.962 . S
H552 C538 0.960 . S
H553 C539 0.961 . S
H554 C539 0.961 . S
H555 C539 0.961 . S
H556 C540 0.931 . S
H557 C545 0.930 . S
H558 C546 0.956 . S
H559 C546 0.961 . S
H560 C546 0.961 . S
H561 C547 0.958 . S
H562 C547 0.961 . S
H563 C547 0.960 . S
C564 C565 1.391 . S
C564 C566 1.394 . S
C564 H580 0.931 . S
C565 C564 1.391 . S
C565 C569 1.376 . S
C566 C564 1.394 . S
C566 C567 1.369 . S
C566 C570 1.531 . S
C567 C566 1.369 . S
C567 C568 1.410 . S
C567 C575 1.503 . S
C568 C567 1.410 . S
C568 C569 1.392 . S
C568 C571 1.511 . S
C569 C565 1.376 . S
C569 C568 1.392 . S
C569 H581 0.929 . S
C570 C566 1.531 . S
C570 H582 0.960 . S
C570 H583 0.962 . S
C570 H584 0.960 . S
C571 C568 1.511 . S
C571 H585 0.961 . S
C571 H586 0.961 . S
C571 H587 0.961 . S
C572 C573 1.370 . S
C572 C574 1.363 . S
C572 H588 0.931 . S
C573 C572 1.370 . S
C573 C577 1.408 . S
C574 C572 1.363 . S
C574 C575 1.370 . S
C574 C578 1.524 . S
C575 C567 1.503 . S
C575 C574 1.370 . S
C575 C576 1.403 . S
C576 C575 1.403 . S
C576 C577 1.404 . S
C576 C579 1.539 . S
C577 C573 1.408 . S
C577 C576 1.404 . S
C577 H589 0.930 . S
C578 C574 1.524 . S
C578 H590 0.956 . S
C578 H591 0.961 . S
C578 H592 0.961 . S
C579 C576 1.539 . S
C579 H593 0.958 . S
C579 H594 0.961 . S
C579 H595 0.960 . S
H580 C564 0.931 . S
H581 C569 0.929 . S
H582 C570 0.960 . S
H583 C570 0.962 . S
H584 C570 0.960 . S
H585 C571 0.961 . S
H586 C571 0.961 . S
H587 C571 0.961 . S
H588 C572 0.931 . S
H589 C577 0.930 . S
H590 C578 0.956 . S
H591 C578 0.961 . S
H592 C578 0.961 . S
H593 C579 0.958 . S
H594 C579 0.961 . S
H595 C579 0.960 . S
C596 C597 1.391 . S
C596 C598 1.394 . S
C596 H612 0.931 . S
C597 C596 1.391 . S
C597 C601 1.376 . S
C598 C596 1.394 . S
C598 C599 1.369 . S
C598 C602 1.531 . S
C599 C598 1.369 . S
C599 C600 1.410 . S
C599 C607 1.503 . S
C600 C599 1.410 . S
C600 C601 1.392 . S
C600 C603 1.511 . S
C601 C597 1.376 . S
C601 C600 1.392 . S
C601 H613 0.929 . S
C602 C598 1.531 . S
C602 H614 0.960 . S
C602 H615 0.962 . S
C602 H616 0.960 . S
C603 C600 1.511 . S
C603 H617 0.961 . S
C603 H618 0.961 . S
C603 H619 0.961 . S
C604 C605 1.370 . S
C604 C606 1.363 . S
C604 H620 0.931 . S
C605 C604 1.370 . S
C605 C609 1.408 . S
C606 C604 1.363 . S
C606 C607 1.370 . S
C606 C610 1.524 . S
C607 C599 1.503 . S
C607 C606 1.370 . S
C607 C608 1.403 . S
C608 C607 1.403 . S
C608 C609 1.404 . S
C608 C611 1.539 . S
C609 C605 1.408 . S
C609 C608 1.404 . S
C609 H621 0.930 . S
C610 C606 1.524 . S
C610 H622 0.956 . S
C610 H623 0.961 . S
C610 H624 0.961 . S
C611 C608 1.539 . S
C611 H625 0.958 . S
C611 H626 0.961 . S
C611 H627 0.960 . S
H612 C596 0.931 . S
H613 C601 0.929 . S
H614 C602 0.960 . S
H615 C602 0.962 . S
H616 C602 0.960 . S
H617 C603 0.961 . S
H618 C603 0.961 . S
H619 C603 0.961 . S
H620 C604 0.931 . S
H621 C609 0.930 . S
H622 C610 0.956 . S
H623 C610 0.961 . S
H624 C610 0.961 . S
H625 C611 0.958 . S
H626 C611 0.961 . S
H627 C611 0.960 . S
C628 C629 1.391 . S
C628 C630 1.394 . S
C628 H644 0.931 . S
C629 C628 1.391 . S
C629 C633 1.376 . S
C630 C628 1.394 . S
C630 C631 1.369 . S
C630 C634 1.531 . S
C631 C630 1.369 . S
C631 C632 1.410 . S
C631 C639 1.503 . S
C632 C631 1.410 . S
C632 C633 1.392 . S
C632 C635 1.511 . S
C633 C629 1.376 . S
C633 C632 1.392 . S
C633 H645 0.929 . S
C634 C630 1.531 . S
C634 H646 0.960 . S
C634 H647 0.962 . S
C634 H648 0.960 . S
C635 C632 1.511 . S
C635 H649 0.961 . S
C635 H650 0.961 . S
C635 H651 0.961 . S
C636 C637 1.370 . S
C636 C638 1.363 . S
C636 H652 0.931 . S
C637 C636 1.370 . S
C637 C641 1.408 . S
C638 C636 1.363 . S
C638 C639 1.370 . S
C638 C642 1.524 . S
C639 C631 1.503 . S
C639 C638 1.370 . S
C639 C640 1.403 . S
C640 C639 1.403 . S
C640 C641 1.404 . S
C640 C643 1.539 . S
C641 C637 1.408 . S
C641 C640 1.404 . S
C641 H653 0.930 . S
C642 C638 1.524 . S
C642 H654 0.956 . S
C642 H655 0.961 . S
C642 H656 0.961 . S
C643 C640 1.539 . S
C643 H657 0.958 . S
C643 H658 0.961 . S
C643 H659 0.960 . S
H644 C628 0.931 . S
H645 C633 0.929 . S
H646 C634 0.960 . S
H647 C634 0.962 . S
H648 C634 0.960 . S
H649 C635 0.961 . S
H650 C635 0.961 . S
H651 C635 0.961 . S
H652 C636 0.931 . S
H653 C641 0.930 . S
H654 C642 0.956 . S
H655 C642 0.961 . S
H656 C642 0.961 . S
H657 C643 0.958 . S
H658 C643 0.961 . S
H659 C643 0.960 . S
C660 C661 1.391 . S
C660 C662 1.394 . S
C660 H676 0.931 . S
C661 C660 1.391 . S
C661 C665 1.376 . S
C662 C660 1.394 . S
C662 C663 1.369 . S
C662 C666 1.531 . S
C663 C662 1.369 . S
C663 C664 1.410 . S
C663 C671 1.503 . S
C664 C663 1.410 . S
C664 C665 1.392 . S
C664 C667 1.511 . S
C665 C661 1.376 . S
C665 C664 1.392 . S
C665 H677 0.929 . S
C666 C662 1.531 . S
C666 H678 0.960 . S
C666 H679 0.962 . S
C666 H680 0.960 . S
C667 C664 1.511 . S
C667 H681 0.961 . S
C667 H682 0.961 . S
C667 H683 0.961 . S
C668 C669 1.370 . S
C668 C670 1.363 . S
C668 H684 0.931 . S
C669 C668 1.370 . S
C669 C673 1.408 . S
C670 C668 1.363 . S
C670 C671 1.370 . S
C670 C674 1.524 . S
C671 C663 1.503 . S
C671 C670 1.370 . S
C671 C672 1.403 . S
C672 C671 1.403 . S
C672 C673 1.404 . S
C672 C675 1.539 . S
C673 C669 1.408 . S
C673 C672 1.404 . S
C673 H685 0.930 . S
C674 C670 1.524 . S
C674 H686 0.956 . S
C674 H687 0.961 . S
C674 H688 0.961 . S
C675 C672 1.539 . S
C675 H689 0.958 . S
C675 H690 0.961 . S
C675 H691 0.960 . S
H676 C660 0.931 . S
H677 C665 0.929 . S
H678 C666 0.960 . S
H679 C666 0.962 . S
H680 C666 0.960 . S
H681 C667 0.961 . S
H682 C667 0.961 . S
H683 C667 0.961 . S
H684 C668 0.931 . S
H685 C673 0.930 . S
H686 C674 0.956 . S
H687 C674 0.961 . S
H688 C674 0.961 . S
H689 C675 0.958 . S
H690 C675 0.961 . S
H691 C675 0.960 . S
C692 C693 1.391 . S
C692 C694 1.394 . S
C692 H708 0.931 . S
C693 C692 1.391 . S
C693 C697 1.376 . S
C694 C692 1.394 . S
C694 C695 1.369 . S
C694 C698 1.531 . S
C695 C694 1.369 . S
C695 C696 1.410 . S
C695 C703 1.503 . S
C696 C695 1.410 . S
C696 C697 1.392 . S
C696 C699 1.511 . S
C697 C693 1.376 . S
C697 C696 1.392 . S
C697 H709 0.929 . S
C698 C694 1.531 . S
C698 H710 0.960 . S
C698 H711 0.962 . S
C698 H712 0.960 . S
C699 C696 1.511 . S
C699 H713 0.961 . S
C699 H714 0.961 . S
C699 H715 0.961 . S
C700 C701 1.370 . S
C700 C702 1.363 . S
C700 H716 0.931 . S
C701 C700 1.370 . S
C701 C705 1.408 . S
C702 C700 1.363 . S
C702 C703 1.370 . S
C702 C706 1.524 . S
C703 C695 1.503 . S
C703 C702 1.370 . S
C703 C704 1.403 . S
C704 C703 1.403 . S
C704 C705 1.404 . S
C704 C707 1.539 . S
C705 C701 1.408 . S
C705 C704 1.404 . S
C705 H717 0.930 . S
C706 C702 1.524 . S
C706 H718 0.956 . S
C706 H719 0.961 . S
C706 H720 0.961 . S
C707 C704 1.539 . S
C707 H721 0.958 . S
C707 H722 0.961 . S
C707 H723 0.960 . S
H708 C692 0.931 . S
H709 C697 0.929 . S
H710 C698 0.960 . S
H711 C698 0.962 . S
H712 C698 0.960 . S
H713 C699 0.961 . S
H714 C699 0.961 . S
H715 C699 0.961 . S
H716 C700 0.931 . S
H717 C705 0.930 . S
H718 C706 0.956 . S
H719 C706 0.961 . S
H720 C706 0.961 . S
H721 C707 0.958 . S
H722 C707 0.961 . S
H723 C707 0.960 . S
C724 C725 1.391 . S
C724 C726 1.394 . S
C724 H740 0.931 . S
C725 C724 1.391 . S
C725 C729 1.376 . S
C726 C724 1.394 . S
C726 C727 1.369 . S
C726 C730 1.531 . S
C727 C726 1.369 . S
C727 C728 1.410 . S
C727 C735 1.503 . S
C728 C727 1.410 . S
C728 C729 1.392 . S
C728 C731 1.511 . S
C729 C725 1.376 . S
C729 C728 1.392 . S
C729 H741 0.929 . S
C730 C726 1.531 . S
C730 H742 0.960 . S
C730 H743 0.962 . S
C730 H744 0.960 . S
C731 C728 1.511 . S
C731 H745 0.961 . S
C731 H746 0.961 . S
C731 H747 0.961 . S
C732 C733 1.370 . S
C732 C734 1.363 . S
C732 H748 0.931 . S
C733 C732 1.370 . S
C733 C737 1.408 . S
C734 C732 1.363 . S
C734 C735 1.370 . S
C734 C738 1.524 . S
C735 C727 1.503 . S
C735 C734 1.370 . S
C735 C736 1.403 . S
C736 C735 1.403 . S
C736 C737 1.404 . S
C736 C739 1.539 . S
C737 C733 1.408 . S
C737 C736 1.404 . S
C737 H749 0.930 . S
C738 C734 1.524 . S
C738 H750 0.956 . S
C738 H751 0.961 . S
C738 H752 0.961 . S
C739 C736 1.539 . S
C739 H753 0.958 . S
C739 H754 0.961 . S
C739 H755 0.960 . S
H740 C724 0.931 . S
H741 C729 0.929 . S
H742 C730 0.960 . S
H743 C730 0.962 . S
H744 C730 0.960 . S
H745 C731 0.961 . S
H746 C731 0.961 . S
H747 C731 0.961 . S
H748 C732 0.931 . S
H749 C737 0.930 . S
H750 C738 0.956 . S
H751 C738 0.961 . S
H752 C738 0.961 . S
H753 C739 0.958 . S
H754 C739 0.961 . S
H755 C739 0.960 . S
C756 C757 1.391 . S
C756 C758 1.394 . S
C756 H772 0.931 . S
C757 C756 1.391 . S
C757 C761 1.376 . S
C758 C756 1.394 . S
C758 C759 1.369 . S
C758 C762 1.531 . S
C759 C758 1.369 . S
C759 C760 1.410 . S
C759 C767 1.503 . S
C760 C759 1.410 . S
C760 C761 1.392 . S
C760 C763 1.511 . S
C761 C757 1.376 . S
C761 C760 1.392 . S
C761 H773 0.929 . S
C762 C758 1.531 . S
C762 H774 0.960 . S
C762 H775 0.962 . S
C762 H776 0.960 . S
C763 C760 1.511 . S
C763 H777 0.961 . S
C763 H778 0.961 . S
C763 H779 0.961 . S
C764 C765 1.370 . S
C764 C766 1.363 . S
C764 H780 0.931 . S
C765 C764 1.370 . S
C765 C769 1.408 . S
C766 C764 1.363 . S
C766 C767 1.370 . S
C766 C770 1.524 . S
C767 C759 1.503 . S
C767 C766 1.370 . S
C767 C768 1.403 . S
C768 C767 1.403 . S
C768 C769 1.404 . S
C768 C771 1.539 . S
C769 C765 1.408 . S
C769 C768 1.404 . S
C769 H781 0.930 . S
C770 C766 1.524 . S
C770 H782 0.956 . S
C770 H783 0.961 . S
C770 H784 0.961 . S
C771 C768 1.539 . S
C771 H785 0.958 . S
C771 H786 0.961 . S
C771 H787 0.960 . S
H772 C756 0.931 . S
H773 C761 0.929 . S
H774 C762 0.960 . S
H775 C762 0.962 . S
H776 C762 0.960 . S
H777 C763 0.961 . S
H778 C763 0.961 . S
H779 C763 0.961 . S
H780 C764 0.931 . S
H781 C769 0.930 . S
H782 C770 0.956 . S
H783 C770 0.961 . S
H784 C770 0.961 . S
H785 C771 0.958 . S
H786 C771 0.961 . S
H787 C771 0.960 . S
C788 C789 1.391 . S
C788 C790 1.394 . S
C788 H804 0.931 . S
C789 C788 1.391 . S
C789 C793 1.376 . S
C790 C788 1.394 . S
C790 C791 1.369 . S
C790 C794 1.531 . S
C791 C790 1.369 . S
C791 C792 1.410 . S
C791 C799 1.503 . S
C792 C791 1.410 . S
C792 C793 1.392 . S
C792 C795 1.511 . S
C793 C789 1.376 . S
C793 C792 1.392 . S
C793 H805 0.929 . S
C794 C790 1.531 . S
C794 H806 0.960 . S
C794 H807 0.962 . S
C794 H808 0.960 . S
C795 C792 1.511 . S
C795 H809 0.961 . S
C795 H810 0.961 . S
C795 H811 0.961 . S
C796 C797 1.370 . S
C796 C798 1.363 . S
C796 H812 0.931 . S
C797 C796 1.370 . S
C797 C801 1.408 . S
C798 C796 1.363 . S
C798 C799 1.370 . S
C798 C802 1.524 . S
C799 C791 1.503 . S
C799 C798 1.370 . S
C799 C800 1.403 . S
C800 C799 1.403 . S
C800 C801 1.404 . S
C800 C803 1.539 . S
C801 C797 1.408 . S
C801 C800 1.404 . S
C801 H813 0.930 . S
C802 C798 1.524 . S
C802 H814 0.956 . S
C802 H815 0.961 . S
C802 H816 0.961 . S
C803 C800 1.539 . S
C803 H817 0.958 . S
C803 H818 0.961 . S
C803 H819 0.960 . S
H804 C788 0.931 . S
H805 C793 0.929 . S
H806 C794 0.960 . S
H807 C794 0.962 . S
H808 C794 0.960 . S
H809 C795 0.961 . S
H810 C795 0.961 . S
H811 C795 0.961 . S
H812 C796 0.931 . S
H813 C801 0.930 . S
H814 C802 0.956 . S
H815 C802 0.961 . S
H816 C802 0.961 . S
H817 C803 0.958 . S
H818 C803 0.961 . S
H819 C803 0.960 . S
C820 C821 1.391 . S
C820 C822 1.394 . S
C820 H836 0.931 1_556 S
C821 C820 1.391 . S
C821 C825 1.376 . S
C822 C820 1.394 . S
C822 C823 1.369 . S
C822 C826 1.531 . S
C823 C822 1.369 . S
C823 C824 1.410 . S
C823 C831 1.503 . S
C824 C823 1.410 . S
C824 C825 1.392 . S
C824 C827 1.511 . S
C825 C821 1.376 . S
C825 C824 1.392 . S
C825 H837 0.929 . S
C826 C822 1.531 . S
C826 H838 0.960 . S
C826 H839 0.962 . S
C826 H840 0.960 . S
C827 C824 1.511 . S
C827 H841 0.961 . S
C827 H842 0.961 . S
C827 H843 0.961 . S
C828 C829 1.370 . S
C828 C830 1.363 . S
C828 H844 0.931 . S
C829 C828 1.370 . S
C829 C833 1.408 . S
C830 C828 1.363 . S
C830 C831 1.370 . S
C830 C834 1.524 . S
C831 C823 1.503 . S
C831 C830 1.370 . S
C831 C832 1.403 . S
C832 C831 1.403 . S
C832 C833 1.404 . S
C832 C835 1.539 . S
C833 C829 1.408 . S
C833 C832 1.404 . S
C833 H845 0.930 . S
C834 C830 1.524 . S
C834 H846 0.956 . S
C834 H847 0.961 . S
C834 H848 0.961 . S
C835 C832 1.539 . S
C835 H849 0.958 . S
C835 H850 0.961 . S
C835 H851 0.960 . S
H836 C820 0.931 1_554 S
H837 C825 0.929 . S
H838 C826 0.960 . S
H839 C826 0.962 . S
H840 C826 0.960 . S
H841 C827 0.961 . S
H842 C827 0.961 . S
H843 C827 0.961 . S
H844 C828 0.931 . S
H845 C833 0.930 . S
H846 C834 0.956 . S
H847 C834 0.961 . S
H848 C834 0.961 . S
H849 C835 0.958 . S
H850 C835 0.961 . S
H851 C835 0.960 . S
C852 C853 1.391 . S
C852 C854 1.394 . S
C852 H868 0.931 . S
C853 C852 1.391 . S
C853 C857 1.376 . S
C854 C852 1.394 . S
C854 C855 1.369 . S
C854 C858 1.531 . S
C855 C854 1.369 . S
C855 C856 1.410 . S
C855 C863 1.503 . S
C856 C855 1.410 . S
C856 C857 1.392 . S
C856 C859 1.511 . S
C857 C853 1.376 . S
C857 C856 1.392 . S
C857 H869 0.929 . S
C858 C854 1.531 . S
C858 H870 0.960 . S
C858 H871 0.962 . S
C858 H872 0.960 . S
C859 C856 1.511 . S
C859 H873 0.961 . S
C859 H874 0.961 . S
C859 H875 0.961 . S
C860 C861 1.370 . S
C860 C862 1.363 . S
C860 H876 0.931 . S
C861 C860 1.370 . S
C861 C865 1.408 . S
C862 C860 1.363 . S
C862 C863 1.370 . S
C862 C866 1.524 . S
C863 C855 1.503 . S
C863 C862 1.370 . S
C863 C864 1.403 . S
C864 C863 1.403 . S
C864 C865 1.404 . S
C864 C867 1.539 . S
C865 C861 1.408 . S
C865 C864 1.404 . S
C865 H877 0.930 . S
C866 C862 1.524 . S
C866 H878 0.956 . S
C866 H879 0.961 . S
C866 H880 0.961 . S
C867 C864 1.539 . S
C867 H881 0.958 . S
C867 H882 0.961 . S
C867 H883 0.960 . S
H868 C852 0.931 . S
H869 C857 0.929 . S
H870 C858 0.960 . S
H871 C858 0.962 . S
H872 C858 0.960 . S
H873 C859 0.961 . S
H874 C859 0.961 . S
H875 C859 0.961 . S
H876 C860 0.931 . S
H877 C865 0.930 . S
H878 C866 0.956 . S
H879 C866 0.961 . S
H880 C866 0.961 . S
H881 C867 0.958 . S
H882 C867 0.961 . S
H883 C867 0.960 . S
C884 C885 1.391 . S
C884 C886 1.394 . S
C884 H900 0.931 . S
C885 C884 1.391 . S
C885 C889 1.376 . S
C886 C884 1.394 . S
C886 C887 1.369 . S
C886 C890 1.531 . S
C887 C886 1.369 . S
C887 C888 1.410 . S
C887 C895 1.503 . S
C888 C887 1.410 . S
C888 C889 1.392 . S
C888 C891 1.511 . S
C889 C885 1.376 . S
C889 C888 1.392 . S
C889 H901 0.929 . S
C890 C886 1.531 . S
C890 H902 0.960 . S
C890 H903 0.962 . S
C890 H904 0.960 . S
C891 C888 1.511 . S
C891 H905 0.961 . S
C891 H906 0.961 . S
C891 H907 0.961 . S
C892 C893 1.370 . S
C892 C894 1.363 . S
C892 H908 0.931 . S
C893 C892 1.370 . S
C893 C897 1.408 . S
C894 C892 1.363 . S
C894 C895 1.370 . S
C894 C898 1.524 . S
C895 C887 1.503 . S
C895 C894 1.370 . S
C895 C896 1.403 . S
C896 C895 1.403 . S
C896 C897 1.404 . S
C896 C899 1.539 . S
C897 C893 1.408 . S
C897 C896 1.404 . S
C897 H909 0.930 . S
C898 C894 1.524 . S
C898 H910 0.956 . S
C898 H911 0.961 . S
C898 H912 0.961 . S
C899 C896 1.539 . S
C899 H913 0.958 . S
C899 H914 0.961 . S
C899 H915 0.960 . S
H900 C884 0.931 . S
H901 C889 0.929 . S
H902 C890 0.960 . S
H903 C890 0.962 . S
H904 C890 0.960 . S
H905 C891 0.961 . S
H906 C891 0.961 . S
H907 C891 0.961 . S
H908 C892 0.931 . S
H909 C897 0.930 . S
H910 C898 0.956 . S
H911 C898 0.961 . S
H912 C898 0.961 . S
H913 C899 0.958 . S
H914 C899 0.961 . S
H915 C899 0.960 . S
C916 C917 1.391 . S
C916 C918 1.394 . S
C916 H932 0.931 . S
C917 C916 1.391 . S
C917 C921 1.376 . S
C918 C916 1.394 . S
C918 C919 1.369 . S
C918 C922 1.531 . S
C919 C918 1.369 . S
C919 C920 1.410 . S
C919 C927 1.503 . S
C920 C919 1.410 . S
C920 C921 1.392 . S
C920 C923 1.511 . S
C921 C917 1.376 . S
C921 C920 1.392 . S
C921 H933 0.929 . S
C922 C918 1.531 . S
C922 H934 0.960 . S
C922 H935 0.962 . S
C922 H936 0.960 . S
C923 C920 1.511 . S
C923 H937 0.961 . S
C923 H938 0.961 . S
C923 H939 0.961 . S
C924 C925 1.370 . S
C924 C926 1.363 . S
C924 H940 0.931 . S
C925 C924 1.370 . S
C925 C929 1.408 . S
C926 C924 1.363 . S
C926 C927 1.370 . S
C926 C930 1.524 . S
C927 C919 1.503 . S
C927 C926 1.370 . S
C927 C928 1.403 . S
C928 C927 1.403 . S
C928 C929 1.404 . S
C928 C931 1.539 . S
C929 C925 1.408 . S
C929 C928 1.404 . S
C929 H941 0.930 . S
C930 C926 1.524 . S
C930 H942 0.956 . S
C930 H943 0.961 . S
C930 H944 0.961 . S
C931 C928 1.539 . S
C931 H945 0.958 . S
C931 H946 0.961 . S
C931 H947 0.960 . S
H932 C916 0.931 . S
H933 C921 0.929 . S
H934 C922 0.960 . S
H935 C922 0.962 . S
H936 C922 0.960 . S
H937 C923 0.961 . S
H938 C923 0.961 . S
H939 C923 0.961 . S
H940 C924 0.931 . S
H941 C929 0.930 . S
H942 C930 0.956 . S
H943 C930 0.961 . S
H944 C930 0.961 . S
H945 C931 0.958 . S
H946 C931 0.961 . S
H947 C931 0.960 . S
C948 C949 1.391 . S
C948 C950 1.394 . S
C948 H964 0.931 . S
C949 C948 1.391 . S
C949 C953 1.376 . S
C950 C948 1.394 . S
C950 C951 1.369 . S
C950 C954 1.531 . S
C951 C950 1.369 . S
C951 C952 1.410 . S
C951 C959 1.503 . S
C952 C951 1.410 . S
C952 C953 1.392 . S
C952 C955 1.511 . S
C953 C949 1.376 . S
C953 C952 1.392 . S
C953 H965 0.929 . S
C954 C950 1.531 . S
C954 H966 0.960 . S
C954 H967 0.962 . S
C954 H968 0.960 . S
C955 C952 1.511 . S
C955 H969 0.961 . S
C955 H970 0.961 . S
C955 H971 0.961 . S
C956 C957 1.370 . S
C956 C958 1.363 . S
C956 H972 0.931 . S
C957 C956 1.370 . S
C957 C961 1.408 . S
C958 C956 1.363 . S
C958 C959 1.370 . S
C958 C962 1.524 . S
C959 C951 1.503 . S
C959 C958 1.370 . S
C959 C960 1.403 . S
C960 C959 1.403 . S
C960 C961 1.404 . S
C960 C963 1.539 . S
C961 C957 1.408 . S
C961 C960 1.404 . S
C961 H973 0.930 . S
C962 C958 1.524 . S
C962 H974 0.956 . S
C962 H975 0.961 . S
C962 H976 0.961 . S
C963 C960 1.539 . S
C963 H977 0.958 . S
C963 H978 0.961 . S
C963 H979 0.960 . S
H964 C948 0.931 . S
H965 C953 0.929 . S
H966 C954 0.960 . S
H967 C954 0.962 . S
H968 C954 0.960 . S
H969 C955 0.961 . S
H970 C955 0.961 . S
H971 C955 0.961 . S
H972 C956 0.931 . S
H973 C961 0.930 . S
H974 C962 0.956 . S
H975 C962 0.961 . S
H976 C962 0.961 . S
H977 C963 0.958 . S
H978 C963 0.961 . S
H979 C963 0.960 . S
C980 C981 1.391 . S
C980 C982 1.394 . S
C980 H996 0.931 . S
C981 C980 1.391 . S
C981 C985 1.376 . S
C982 C980 1.394 . S
C982 C983 1.369 . S
C982 C986 1.531 . S
C983 C982 1.369 . S
C983 C984 1.410 . S
C983 C991 1.503 . S
C984 C983 1.410 . S
C984 C985 1.392 . S
C984 C987 1.511 . S
C985 C981 1.376 . S
C985 C984 1.392 . S
C985 H997 0.929 . S
C986 C982 1.531 . S
C986 H998 0.960 . S
C986 H999 0.962 . S
C986 H1000 0.960 . S
C987 C984 1.511 . S
C987 H1001 0.961 . S
C987 H1002 0.961 . S
C987 H1003 0.961 . S
C988 C989 1.370 . S
C988 C990 1.363 . S
C988 H1004 0.931 . S
C989 C988 1.370 . S
C989 C993 1.408 . S
C990 C988 1.363 . S
C990 C991 1.370 . S
C990 C994 1.524 . S
C991 C983 1.503 . S
C991 C990 1.370 . S
C991 C992 1.403 . S
C992 C991 1.403 . S
C992 C993 1.404 . S
C992 C995 1.539 . S
C993 C989 1.408 . S
C993 C992 1.404 . S
C993 H1005 0.930 . S
C994 C990 1.524 . S
C994 H1006 0.956 . S
C994 H1007 0.961 . S
C994 H1008 0.961 . S
C995 C992 1.539 . S
C995 H1009 0.958 . S
C995 H1010 0.961 . S
C995 H1011 0.960 . S
H996 C980 0.931 . S
H997 C985 0.929 . S
H998 C986 0.960 . S
H999 C986 0.962 . S
H1000 C986 0.960 . S
H1001 C987 0.961 . S
H1002 C987 0.961 . S
H1003 C987 0.961 . S
H1004 C988 0.931 . S
H1005 C993 0.930 . S
H1006 C994 0.956 . S
H1007 C994 0.961 . S
H1008 C994 0.961 . S
H1009 C995 0.958 . S
H1010 C995 0.961 . S
H1011 C995 0.960 . S
C1012 C1013 1.391 . S
C1012 C1014 1.394 . S
C1012 H1028 0.931 . S
C1013 C1012 1.391 . S
C1013 C1017 1.376 . S
C1014 C1012 1.394 . S
C1014 C1015 1.369 . S
C1014 C1018 1.531 . S
C1015 C1014 1.369 . S
C1015 C1016 1.410 . S
C1015 C1023 1.503 . S
C1016 C1015 1.410 . S
C1016 C1017 1.392 . S
C1016 C1019 1.511 . S
C1017 C1013 1.376 . S
C1017 C1016 1.392 . S
C1017 H1029 0.929 . S
C1018 C1014 1.531 . S
C1018 H1030 0.960 . S
C1018 H1031 0.962 . S
C1018 H1032 0.960 . S
C1019 C1016 1.511 . S
C1019 H1033 0.961 . S
C1019 H1034 0.961 . S
C1019 H1035 0.961 . S
C1020 C1021 1.370 . S
C1020 C1022 1.363 . S
C1020 H1036 0.931 . S
C1021 C1020 1.370 . S
C1021 C1025 1.408 . S
C1022 C1020 1.363 . S
C1022 C1023 1.370 . S
C1022 C1026 1.524 . S
C1023 C1015 1.503 . S
C1023 C1022 1.370 . S
C1023 C1024 1.403 . S
C1024 C1023 1.403 . S
C1024 C1025 1.404 . S
C1024 C1027 1.539 . S
C1025 C1021 1.408 . S
C1025 C1024 1.404 . S
C1025 H1037 0.930 . S
C1026 C1022 1.524 . S
C1026 H1038 0.956 . S
C1026 H1039 0.961 . S
C1026 H1040 0.961 . S
C1027 C1024 1.539 . S
C1027 H1041 0.958 . S
C1027 H1042 0.961 . S
C1027 H1043 0.960 . S
H1028 C1012 0.931 . S
H1029 C1017 0.929 . S
H1030 C1018 0.960 . S
H1031 C1018 0.962 . S
H1032 C1018 0.960 . S
H1033 C1019 0.961 . S
H1034 C1019 0.961 . S
H1035 C1019 0.961 . S
H1036 C1020 0.931 . S
H1037 C1025 0.930 . S
H1038 C1026 0.956 . S
H1039 C1026 0.961 . S
H1040 C1026 0.961 . S
H1041 C1027 0.958 . S
H1042 C1027 0.961 . S
H1043 C1027 0.960 . S
C1044 C1045 1.391 . S
C1044 C1046 1.394 . S
C1044 H1060 0.931 . S
C1045 C1044 1.391 . S
C1045 C1049 1.376 . S
C1046 C1044 1.394 . S
C1046 C1047 1.369 . S
C1046 C1050 1.531 . S
C1047 C1046 1.369 . S
C1047 C1048 1.410 . S
C1047 C1055 1.503 . S
C1048 C1047 1.410 . S
C1048 C1049 1.392 . S
C1048 C1051 1.511 . S
C1049 C1045 1.376 . S
C1049 C1048 1.392 . S
C1049 H1061 0.929 . S
C1050 C1046 1.531 . S
C1050 H1062 0.960 . S
C1050 H1063 0.962 . S
C1050 H1064 0.960 . S
C1051 C1048 1.511 . S
C1051 H1065 0.961 . S
C1051 H1066 0.961 . S
C1051 H1067 0.961 . S
C1052 C1053 1.370 . S
C1052 C1054 1.363 . S
C1052 H1068 0.931 . S
C1053 C1052 1.370 . S
C1053 C1057 1.408 . S
C1054 C1052 1.363 . S
C1054 C1055 1.370 . S
C1054 C1058 1.524 . S
C1055 C1047 1.503 . S
C1055 C1054 1.370 . S
C1055 C1056 1.403 . S
C1056 C1055 1.403 . S
C1056 C1057 1.404 . S
C1056 C1059 1.539 . S
C1057 C1053 1.408 . S
C1057 C1056 1.404 . S
C1057 H1069 0.930 . S
C1058 C1054 1.524 . S
C1058 H1070 0.956 . S
C1058 H1071 0.961 . S
C1058 H1072 0.961 . S
C1059 C1056 1.539 . S
C1059 H1073 0.958 . S
C1059 H1074 0.961 . S
C1059 H1075 0.960 . S
H1060 C1044 0.931 . S
H1061 C1049 0.929 . S
H1062 C1050 0.960 . S
H1063 C1050 0.962 . S
H1064 C1050 0.960 . S
H1065 C1051 0.961 . S
H1066 C1051 0.961 . S
H1067 C1051 0.961 . S
H1068 C1052 0.931 . S
H1069 C1057 0.930 . S
H1070 C1058 0.956 . S
H1071 C1058 0.961 . S
H1072 C1058 0.961 . S
H1073 C1059 0.958 . S
H1074 C1059 0.961 . S
H1075 C1059 0.960 . S
C1076 C1077 1.391 . S
C1076 C1078 1.394 . S
C1076 H1092 0.931 . S
C1077 C1076 1.391 . S
C1077 C1081 1.376 . S
C1078 C1076 1.394 . S
C1078 C1079 1.369 . S
C1078 C1082 1.531 . S
C1079 C1078 1.369 . S
C1079 C1080 1.410 . S
C1079 C1087 1.503 . S
C1080 C1079 1.410 . S
C1080 C1081 1.392 . S
C1080 C1083 1.511 . S
C1081 C1077 1.376 . S
C1081 C1080 1.392 . S
C1081 H1093 0.929 . S
C1082 C1078 1.531 . S
C1082 H1094 0.960 . S
C1082 H1095 0.962 . S
C1082 H1096 0.960 . S
C1083 C1080 1.511 . S
C1083 H1097 0.961 . S
C1083 H1098 0.961 . S
C1083 H1099 0.961 . S
C1084 C1085 1.370 . S
C1084 C1086 1.363 . S
C1084 H1100 0.931 . S
C1085 C1084 1.370 . S
C1085 C1089 1.408 . S
C1086 C1084 1.363 . S
C1086 C1087 1.370 . S
C1086 C1090 1.524 . S
C1087 C1079 1.503 . S
C1087 C1086 1.370 . S
C1087 C1088 1.403 . S
C1088 C1087 1.403 . S
C1088 C1089 1.404 . S
C1088 C1091 1.539 . S
C1089 C1085 1.408 . S
C1089 C1088 1.404 . S
C1089 H1101 0.930 . S
C1090 C1086 1.524 . S
C1090 H1102 0.956 . S
C1090 H1103 0.961 . S
C1090 H1104 0.961 . S
C1091 C1088 1.539 . S
C1091 H1105 0.958 . S
C1091 H1106 0.961 . S
C1091 H1107 0.960 . S
H1092 C1076 0.931 . S
H1093 C1081 0.929 . S
H1094 C1082 0.960 . S
H1095 C1082 0.962 . S
H1096 C1082 0.960 . S
H1097 C1083 0.961 . S
H1098 C1083 0.961 . S
H1099 C1083 0.961 . S
H1100 C1084 0.931 . S
H1101 C1089 0.930 . S
H1102 C1090 0.956 . S
H1103 C1090 0.961 . S
H1104 C1090 0.961 . S
H1105 C1091 0.958 . S
H1106 C1091 0.961 . S
H1107 C1091 0.960 . S
C1108 C1109 1.391 . S
C1108 C1110 1.394 . S
C1108 H1124 0.931 . S
C1109 C1108 1.391 . S
C1109 C1113 1.376 . S
C1110 C1108 1.394 . S
C1110 C1111 1.369 . S
C1110 C1114 1.531 . S
C1111 C1110 1.369 . S
C1111 C1112 1.410 . S
C1111 C1119 1.503 . S
C1112 C1111 1.410 . S
C1112 C1113 1.392 . S
C1112 C1115 1.511 . S
C1113 C1109 1.376 . S
C1113 C1112 1.392 . S
C1113 H1125 0.929 . S
C1114 C1110 1.531 . S
C1114 H1126 0.960 . S
C1114 H1127 0.962 . S
C1114 H1128 0.960 . S
C1115 C1112 1.511 . S
C1115 H1129 0.961 . S
C1115 H1130 0.961 . S
C1115 H1131 0.961 . S
C1116 C1117 1.370 . S
C1116 C1118 1.363 . S
C1116 H1132 0.931 . S
C1117 C1116 1.370 . S
C1117 C1121 1.408 . S
C1118 C1116 1.363 . S
C1118 C1119 1.370 . S
C1118 C1122 1.524 . S
C1119 C1111 1.503 . S
C1119 C1118 1.370 . S
C1119 C1120 1.403 . S
C1120 C1119 1.403 . S
C1120 C1121 1.404 . S
C1120 C1123 1.539 . S
C1121 C1117 1.408 . S
C1121 C1120 1.404 . S
C1121 H1133 0.930 . S
C1122 C1118 1.524 . S
C1122 H1134 0.956 . S
C1122 H1135 0.961 . S
C1122 H1136 0.961 . S
C1123 C1120 1.539 . S
C1123 H1137 0.958 . S
C1123 H1138 0.961 . S
C1123 H1139 0.960 . S
H1124 C1108 0.931 . S
H1125 C1113 0.929 . S
H1126 C1114 0.960 . S
H1127 C1114 0.962 . S
H1128 C1114 0.960 . S
H1129 C1115 0.961 . S
H1130 C1115 0.961 . S
H1131 C1115 0.961 . S
H1132 C1116 0.931 . S
H1133 C1121 0.930 . S
H1134 C1122 0.956 . S
H1135 C1122 0.961 . S
H1136 C1122 0.961 . S
H1137 C1123 0.958 . S
H1138 C1123 0.961 . S
H1139 C1123 0.960 . S
C1140 C1141 1.391 . S
C1140 C1142 1.394 . S
C1140 H1156 0.931 . S
C1141 C1140 1.391 . S
C1141 C1145 1.376 . S
C1142 C1140 1.394 . S
C1142 C1143 1.369 . S
C1142 C1146 1.531 . S
C1143 C1142 1.369 . S
C1143 C1144 1.410 . S
C1143 C1151 1.503 . S
C1144 C1143 1.410 . S
C1144 C1145 1.392 . S
C1144 C1147 1.511 . S
C1145 C1141 1.376 . S
C1145 C1144 1.392 . S
C1145 H1157 0.929 . S
C1146 C1142 1.531 . S
C1146 H1158 0.960 . S
C1146 H1159 0.962 . S
C1146 H1160 0.960 . S
C1147 C1144 1.511 . S
C1147 H1161 0.961 . S
C1147 H1162 0.961 . S
C1147 H1163 0.961 . S
C1148 C1149 1.370 . S
C1148 C1150 1.363 . S
C1148 H1164 0.931 . S
C1149 C1148 1.370 . S
C1149 C1153 1.408 . S
C1150 C1148 1.363 . S
C1150 C1151 1.370 . S
C1150 C1154 1.524 . S
C1151 C1143 1.503 . S
C1151 C1150 1.370 . S
C1151 C1152 1.403 . S
C1152 C1151 1.403 . S
C1152 C1153 1.404 . S
C1152 C1155 1.539 . S
C1153 C1149 1.408 . S
C1153 C1152 1.404 . S
C1153 H1165 0.930 . S
C1154 C1150 1.524 . S
C1154 H1166 0.956 . S
C1154 H1167 0.961 . S
C1154 H1168 0.961 . S
C1155 C1152 1.539 . S
C1155 H1169 0.958 . S
C1155 H1170 0.961 . S
C1155 H1171 0.960 . S
H1156 C1140 0.931 . S
H1157 C1145 0.929 . S
H1158 C1146 0.960 . S
H1159 C1146 0.962 . S
H1160 C1146 0.960 . S
H1161 C1147 0.961 . S
H1162 C1147 0.961 . S
H1163 C1147 0.961 . S
H1164 C1148 0.931 . S
H1165 C1153 0.930 . S
H1166 C1154 0.956 . S
H1167 C1154 0.961 . S
H1168 C1154 0.961 . S
H1169 C1155 0.958 . S
H1170 C1155 0.961 . S
H1171 C1155 0.960 . S
C1172 C1173 1.391 . S
C1172 C1174 1.394 . S
C1172 H1188 0.931 . S
C1173 C1172 1.391 . S
C1173 C1177 1.376 . S
C1174 C1172 1.394 . S
C1174 C1175 1.369 . S
C1174 C1178 1.531 . S
C1175 C1174 1.369 . S
C1175 C1176 1.410 . S
C1175 C1183 1.503 . S
C1176 C1175 1.410 . S
C1176 C1177 1.392 . S
C1176 C1179 1.511 . S
C1177 C1173 1.376 . S
C1177 C1176 1.392 . S
C1177 H1189 0.929 . S
C1178 C1174 1.531 . S
C1178 H1190 0.960 . S
C1178 H1191 0.962 . S
C1178 H1192 0.960 . S
C1179 C1176 1.511 . S
C1179 H1193 0.961 . S
C1179 H1194 0.961 . S
C1179 H1195 0.961 . S
C1180 C1181 1.370 . S
C1180 C1182 1.363 . S
C1180 H1196 0.931 . S
C1181 C1180 1.370 . S
C1181 C1185 1.408 . S
C1182 C1180 1.363 . S
C1182 C1183 1.370 . S
C1182 C1186 1.524 . S
C1183 C1175 1.503 . S
C1183 C1182 1.370 . S
C1183 C1184 1.403 . S
C1184 C1183 1.403 . S
C1184 C1185 1.404 . S
C1184 C1187 1.539 . S
C1185 C1181 1.408 . S
C1185 C1184 1.404 . S
C1185 H1197 0.930 . S
C1186 C1182 1.524 . S
C1186 H1198 0.956 . S
C1186 H1199 0.961 . S
C1186 H1200 0.961 . S
C1187 C1184 1.539 . S
C1187 H1201 0.958 . S
C1187 H1202 0.961 . S
C1187 H1203 0.960 . S
H1188 C1172 0.931 . S
H1189 C1177 0.929 . S
H1190 C1178 0.960 . S
H1191 C1178 0.962 . S
H1192 C1178 0.960 . S
H1193 C1179 0.961 . S
H1194 C1179 0.961 . S
H1195 C1179 0.961 . S
H1196 C1180 0.931 . S
H1197 C1185 0.930 . S
H1198 C1186 0.956 . S
H1199 C1186 0.961 . S
H1200 C1186 0.961 . S
H1201 C1187 0.958 . S
H1202 C1187 0.961 . S
H1203 C1187 0.960 . S
C1204 C1205 1.391 . S
C1204 C1206 1.394 . S
C1204 H1220 0.931 . S
C1205 C1204 1.391 . S
C1205 C1209 1.376 . S
C1206 C1204 1.394 . S
C1206 C1207 1.369 . S
C1206 C1210 1.531 . S
C1207 C1206 1.369 . S
C1207 C1208 1.410 . S
C1207 C1215 1.503 . S
C1208 C1207 1.410 . S
C1208 C1209 1.392 . S
C1208 C1211 1.511 . S
C1209 C1205 1.376 . S
C1209 C1208 1.392 . S
C1209 H1221 0.929 . S
C1210 C1206 1.531 . S
C1210 H1222 0.960 . S
C1210 H1223 0.962 . S
C1210 H1224 0.960 . S
C1211 C1208 1.511 . S
C1211 H1225 0.961 . S
C1211 H1226 0.961 . S
C1211 H1227 0.961 . S
C1212 C1213 1.370 . S
C1212 C1214 1.363 . S
C1212 H1228 0.931 . S
C1213 C1212 1.370 . S
C1213 C1217 1.408 . S
C1214 C1212 1.363 . S
C1214 C1215 1.370 . S
C1214 C1218 1.524 . S
C1215 C1207 1.503 . S
C1215 C1214 1.370 . S
C1215 C1216 1.403 . S
C1216 C1215 1.403 . S
C1216 C1217 1.404 . S
C1216 C1219 1.539 . S
C1217 C1213 1.408 . S
C1217 C1216 1.404 . S
C1217 H1229 0.930 . S
C1218 C1214 1.524 . S
C1218 H1230 0.956 . S
C1218 H1231 0.961 . S
C1218 H1232 0.961 . S
C1219 C1216 1.539 . S
C1219 H1233 0.958 . S
C1219 H1234 0.961 . S
C1219 H1235 0.960 . S
H1220 C1204 0.931 . S
H1221 C1209 0.929 . S
H1222 C1210 0.960 . S
H1223 C1210 0.962 . S
H1224 C1210 0.960 . S
H1225 C1211 0.961 . S
H1226 C1211 0.961 . S
H1227 C1211 0.961 . S
H1228 C1212 0.931 . S
H1229 C1217 0.930 . S
H1230 C1218 0.956 . S
H1231 C1218 0.961 . S
H1232 C1218 0.961 . S
H1233 C1219 0.958 . S
H1234 C1219 0.961 . S
H1235 C1219 0.960 . S
C1236 C1237 1.391 . S
C1236 C1238 1.394 . S
C1236 H1252 0.931 . S
C1237 C1236 1.391 . S
C1237 C1241 1.376 . S
C1238 C1236 1.394 . S
C1238 C1239 1.369 . S
C1238 C1242 1.531 . S
C1239 C1238 1.369 . S
C1239 C1240 1.410 . S
C1239 C1247 1.503 . S
C1240 C1239 1.410 . S
C1240 C1241 1.392 . S
C1240 C1243 1.511 . S
C1241 C1237 1.376 . S
C1241 C1240 1.392 . S
C1241 H1253 0.929 . S
C1242 C1238 1.531 . S
C1242 H1254 0.960 . S
C1242 H1255 0.962 . S
C1242 H1256 0.960 . S
C1243 C1240 1.511 . S
C1243 H1257 0.961 . S
C1243 H1258 0.961 . S
C1243 H1259 0.961 . S
C1244 C1245 1.370 . S
C1244 C1246 1.363 . S
C1244 H1260 0.931 . S
C1245 C1244 1.370 . S
C1245 C1249 1.408 . S
C1246 C1244 1.363 . S
C1246 C1247 1.370 . S
C1246 C1250 1.524 . S
C1247 C1239 1.503 . S
C1247 C1246 1.370 . S
C1247 C1248 1.403 . S
C1248 C1247 1.403 . S
C1248 C1249 1.404 . S
C1248 C1251 1.539 . S
C1249 C1245 1.408 . S
C1249 C1248 1.404 . S
C1249 H1261 0.930 . S
C1250 C1246 1.524 . S
C1250 H1262 0.956 . S
C1250 H1263 0.961 . S
C1250 H1264 0.961 . S
C1251 C1248 1.539 . S
C1251 H1265 0.958 . S
C1251 H1266 0.961 . S
C1251 H1267 0.960 . S
H1252 C1236 0.931 . S
H1253 C1241 0.929 . S
H1254 C1242 0.960 . S
H1255 C1242 0.962 . S
H1256 C1242 0.960 . S
H1257 C1243 0.961 . S
H1258 C1243 0.961 . S
H1259 C1243 0.961 . S
H1260 C1244 0.931 . S
H1261 C1249 0.930 . S
H1262 C1250 0.956 . S
H1263 C1250 0.961 . S
H1264 C1250 0.961 . S
H1265 C1251 0.958 . S
H1266 C1251 0.961 . S
H1267 C1251 0.960 . S
C1268 C1269 1.391 . S
C1268 C1270 1.394 . S
C1268 H1284 0.931 . S
C1269 C1268 1.391 . S
C1269 C1273 1.376 . S
C1270 C1268 1.394 . S
C1270 C1271 1.369 . S
C1270 C1274 1.531 . S
C1271 C1270 1.369 . S
C1271 C1272 1.410 . S
C1271 C1279 1.503 . S
C1272 C1271 1.410 . S
C1272 C1273 1.392 . S
C1272 C1275 1.511 . S
C1273 C1269 1.376 . S
C1273 C1272 1.392 . S
C1273 H1285 0.929 . S
C1274 C1270 1.531 . S
C1274 H1286 0.960 . S
C1274 H1287 0.962 . S
C1274 H1288 0.960 . S
C1275 C1272 1.511 . S
C1275 H1289 0.961 . S
C1275 H1290 0.961 . S
C1275 H1291 0.961 . S
C1276 C1277 1.370 . S
C1276 C1278 1.363 . S
C1276 H1292 0.931 . S
C1277 C1276 1.370 . S
C1277 C1281 1.408 . S
C1278 C1276 1.363 . S
C1278 C1279 1.370 . S
C1278 C1282 1.524 . S
C1279 C1271 1.503 . S
C1279 C1278 1.370 . S
C1279 C1280 1.403 . S
C1280 C1279 1.403 . S
C1280 C1281 1.404 . S
C1280 C1283 1.539 . S
C1281 C1277 1.408 . S
C1281 C1280 1.404 . S
C1281 H1293 0.930 . S
C1282 C1278 1.524 . S
C1282 H1294 0.956 . S
C1282 H1295 0.961 . S
C1282 H1296 0.961 . S
C1283 C1280 1.539 . S
C1283 H1297 0.958 . S
C1283 H1298 0.961 . S
C1283 H1299 0.960 . S
H1284 C1268 0.931 . S
H1285 C1273 0.929 . S
H1286 C1274 0.960 . S
H1287 C1274 0.962 . S
H1288 C1274 0.960 . S
H1289 C1275 0.961 . S
H1290 C1275 0.961 . S
H1291 C1275 0.961 . S
H1292 C1276 0.931 . S
H1293 C1281 0.930 . S
H1294 C1282 0.956 . S
H1295 C1282 0.961 . S
H1296 C1282 0.961 . S
H1297 C1283 0.958 . S
H1298 C1283 0.961 . S
H1299 C1283 0.960 . S
C1300 C1301 1.391 . S
C1300 C1302 1.394 . S
C1300 H1316 0.931 . S
C1301 C1300 1.391 . S
C1301 C1305 1.376 . S
C1302 C1300 1.394 . S
C1302 C1303 1.369 . S
C1302 C1306 1.531 . S
C1303 C1302 1.369 . S
C1303 C1304 1.410 . S
C1303 C1311 1.503 . S
C1304 C1303 1.410 . S
C1304 C1305 1.392 . S
C1304 C1307 1.511 . S
C1305 C1301 1.376 . S
C1305 C1304 1.392 . S
C1305 H1317 0.929 . S
C1306 C1302 1.531 . S
C1306 H1318 0.960 . S
C1306 H1319 0.962 . S
C1306 H1320 0.960 . S
C1307 C1304 1.511 . S
C1307 H1321 0.961 . S
C1307 H1322 0.961 . S
C1307 H1323 0.961 . S
C1308 C1309 1.370 . S
C1308 C1310 1.363 . S
C1308 H1324 0.931 . S
C1309 C1308 1.370 . S
C1309 C1313 1.408 . S
C1310 C1308 1.363 . S
C1310 C1311 1.370 . S
C1310 C1314 1.524 . S
C1311 C1303 1.503 . S
C1311 C1310 1.370 . S
C1311 C1312 1.403 . S
C1312 C1311 1.403 . S
C1312 C1313 1.404 . S
C1312 C1315 1.539 . S
C1313 C1309 1.408 . S
C1313 C1312 1.404 . S
C1313 H1325 0.930 . S
C1314 C1310 1.524 . S
C1314 H1326 0.956 . S
C1314 H1327 0.961 . S
C1314 H1328 0.961 . S
C1315 C1312 1.539 . S
C1315 H1329 0.958 . S
C1315 H1330 0.961 . S
C1315 H1331 0.960 . S
H1316 C1300 0.931 . S
H1317 C1305 0.929 . S
H1318 C1306 0.960 . S
H1319 C1306 0.962 . S
H1320 C1306 0.960 . S
H1321 C1307 0.961 . S
H1322 C1307 0.961 . S
H1323 C1307 0.961 . S
H1324 C1308 0.931 . S
H1325 C1313 0.930 . S
H1326 C1314 0.956 . S
H1327 C1314 0.961 . S
H1328 C1314 0.961 . S
H1329 C1315 0.958 . S
H1330 C1315 0.961 . S
H1331 C1315 0.960 . S
C1332 C1333 1.391 . S
C1332 C1334 1.394 . S
C1332 H1348 0.931 . S
C1333 C1332 1.391 . S
C1333 C1337 1.376 . S
C1334 C1332 1.394 . S
C1334 C1335 1.369 . S
C1334 C1338 1.531 . S
C1335 C1334 1.369 . S
C1335 C1336 1.410 . S
C1335 C1343 1.503 . S
C1336 C1335 1.410 . S
C1336 C1337 1.392 . S
C1336 C1339 1.511 . S
C1337 C1333 1.376 . S
C1337 C1336 1.392 . S
C1337 H1349 0.929 . S
C1338 C1334 1.531 . S
C1338 H1350 0.960 . S
C1338 H1351 0.962 . S
C1338 H1352 0.960 . S
C1339 C1336 1.511 . S
C1339 H1353 0.961 . S
C1339 H1354 0.961 . S
C1339 H1355 0.961 . S
C1340 C1341 1.370 . S
C1340 C1342 1.363 . S
C1340 H1356 0.931 . S
C1341 C1340 1.370 . S
C1341 C1345 1.408 . S
C1342 C1340 1.363 . S
C1342 C1343 1.370 . S
C1342 C1346 1.524 . S
C1343 C1335 1.503 . S
C1343 C1342 1.370 . S
C1343 C1344 1.403 . S
C1344 C1343 1.403 . S
C1344 C1345 1.404 . S
C1344 C1347 1.539 . S
C1345 C1341 1.408 . S
C1345 C1344 1.404 . S
C1345 H1357 0.930 . S
C1346 C1342 1.524 . S
C1346 H1358 0.956 . S
C1346 H1359 0.961 . S
C1346 H1360 0.961 . S
C1347 C1344 1.539 . S
C1347 H1361 0.958 . S
C1347 H1362 0.961 . S
C1347 H1363 0.960 . S
H1348 C1332 0.931 . S
H1349 C1337 0.929 . S
H1350 C1338 0.960 . S
H1351 C1338 0.962 . S
H1352 C1338 0.960 . S
H1353 C1339 0.961 . S
H1354 C1339 0.961 . S
H1355 C1339 0.961 . S
H1356 C1340 0.931 . S
H1357 C1345 0.930 . S
H1358 C1346 0.956 . S
H1359 C1346 0.961 . S
H1360 C1346 0.961 . S
H1361 C1347 0.958 . S
H1362 C1347 0.961 . S
H1363 C1347 0.960 . S
C1364 C1365 1.391 . S
C1364 C1366 1.394 . S
C1364 H1380 0.931 . S
C1365 C1364 1.391 . S
C1365 C1369 1.376 . S
C1366 C1364 1.394 . S
C1366 C1367 1.369 . S
C1366 C1370 1.531 . S
C1367 C1366 1.369 . S
C1367 C1368 1.410 . S
C1367 C1375 1.503 . S
C1368 C1367 1.410 . S
C1368 C1369 1.392 . S
C1368 C1371 1.511 . S
C1369 C1365 1.376 . S
C1369 C1368 1.392 . S
C1369 H1381 0.929 . S
C1370 C1366 1.531 . S
C1370 H1382 0.960 . S
C1370 H1383 0.962 . S
C1370 H1384 0.960 . S
C1371 C1368 1.511 . S
C1371 H1385 0.961 . S
C1371 H1386 0.961 . S
C1371 H1387 0.961 . S
C1372 C1373 1.370 . S
C1372 C1374 1.363 . S
C1372 H1388 0.931 . S
C1373 C1372 1.370 . S
C1373 C1377 1.408 . S
C1374 C1372 1.363 . S
C1374 C1375 1.370 . S
C1374 C1378 1.524 . S
C1375 C1367 1.503 . S
C1375 C1374 1.370 . S
C1375 C1376 1.403 . S
C1376 C1375 1.403 . S
C1376 C1377 1.404 . S
C1376 C1379 1.539 . S
C1377 C1373 1.408 . S
C1377 C1376 1.404 . S
C1377 H1389 0.930 . S
C1378 C1374 1.524 . S
C1378 H1390 0.956 . S
C1378 H1391 0.961 . S
C1378 H1392 0.961 . S
C1379 C1376 1.539 . S
C1379 H1393 0.958 . S
C1379 H1394 0.961 . S
C1379 H1395 0.960 . S
H1380 C1364 0.931 . S
H1381 C1369 0.929 . S
H1382 C1370 0.960 . S
H1383 C1370 0.962 . S
H1384 C1370 0.960 . S
H1385 C1371 0.961 . S
H1386 C1371 0.961 . S
H1387 C1371 0.961 . S
H1388 C1372 0.931 . S
H1389 C1377 0.930 . S
H1390 C1378 0.956 . S
H1391 C1378 0.961 . S
H1392 C1378 0.961 . S
H1393 C1379 0.958 . S
H1394 C1379 0.961 . S
H1395 C1379 0.960 . S
C1396 C1397 1.391 . S
C1396 C1398 1.394 . S
C1396 H1412 0.931 . S
C1397 C1396 1.391 . S
C1397 C1401 1.376 . S
C1398 C1396 1.394 . S
C1398 C1399 1.369 . S
C1398 C1402 1.531 . S
C1399 C1398 1.369 . S
C1399 C1400 1.410 . S
C1399 C1407 1.503 . S
C1400 C1399 1.410 . S
C1400 C1401 1.392 . S
C1400 C1403 1.511 . S
C1401 C1397 1.376 . S
C1401 C1400 1.392 . S
C1401 H1413 0.929 . S
C1402 C1398 1.531 . S
C1402 H1414 0.960 . S
C1402 H1415 0.962 . S
C1402 H1416 0.960 . S
C1403 C1400 1.511 . S
C1403 H1417 0.961 . S
C1403 H1418 0.961 . S
C1403 H1419 0.961 . S
C1404 C1405 1.370 . S
C1404 C1406 1.363 . S
C1404 H1420 0.931 . S
C1405 C1404 1.370 . S
C1405 C1409 1.408 . S
C1406 C1404 1.363 . S
C1406 C1407 1.370 . S
C1406 C1410 1.524 . S
C1407 C1399 1.503 . S
C1407 C1406 1.370 . S
C1407 C1408 1.403 . S
C1408 C1407 1.403 . S
C1408 C1409 1.404 . S
C1408 C1411 1.539 . S
C1409 C1405 1.408 . S
C1409 C1408 1.404 . S
C1409 H1421 0.930 . S
C1410 C1406 1.524 . S
C1410 H1422 0.956 . S
C1410 H1423 0.961 . S
C1410 H1424 0.961 . S
C1411 C1408 1.539 . S
C1411 H1425 0.958 . S
C1411 H1426 0.961 . S
C1411 H1427 0.960 . S
H1412 C1396 0.931 . S
H1413 C1401 0.929 . S
H1414 C1402 0.960 . S
H1415 C1402 0.962 . S
H1416 C1402 0.960 . S
H1417 C1403 0.961 . S
H1418 C1403 0.961 . S
H1419 C1403 0.961 . S
H1420 C1404 0.931 . S
H1421 C1409 0.930 . S
H1422 C1410 0.956 . S
H1423 C1410 0.961 . S
H1424 C1410 0.961 . S
H1425 C1411 0.958 . S
H1426 C1411 0.961 . S
H1427 C1411 0.960 . S
C1428 C1429 1.391 . S
C1428 C1430 1.394 . S
C1428 H1444 0.931 . S
C1429 C1428 1.391 . S
C1429 C1433 1.376 . S
C1430 C1428 1.394 . S
C1430 C1431 1.369 . S
C1430 C1434 1.531 . S
C1431 C1430 1.369 . S
C1431 C1432 1.410 . S
C1431 C1439 1.503 . S
C1432 C1431 1.410 . S
C1432 C1433 1.392 . S
C1432 C1435 1.511 . S
C1433 C1429 1.376 . S
C1433 C1432 1.392 . S
C1433 H1445 0.929 . S
C1434 C1430 1.531 . S
C1434 H1446 0.960 . S
C1434 H1447 0.962 . S
C1434 H1448 0.960 . S
C1435 C1432 1.511 . S
C1435 H1449 0.961 . S
C1435 H1450 0.961 . S
C1435 H1451 0.961 . S
C1436 C1437 1.370 . S
C1436 C1438 1.363 . S
C1436 H1452 0.931 . S
C1437 C1436 1.370 . S
C1437 C1441 1.408 . S
C1438 C1436 1.363 . S
C1438 C1439 1.370 . S
C1438 C1442 1.524 . S
C1439 C1431 1.503 . S
C1439 C1438 1.370 . S
C1439 C1440 1.403 . S
C1440 C1439 1.403 . S
C1440 C1441 1.404 . S
C1440 C1443 1.539 . S
C1441 C1437 1.408 . S
C1441 C1440 1.404 . S
C1441 H1453 0.930 . S
C1442 C1438 1.524 . S
C1442 H1454 0.956 . S
C1442 H1455 0.961 . S
C1442 H1456 0.961 . S
C1443 C1440 1.539 . S
C1443 H1457 0.958 . S
C1443 H1458 0.961 . S
C1443 H1459 0.960 . S
H1444 C1428 0.931 . S
H1445 C1433 0.929 . S
H1446 C1434 0.960 . S
H1447 C1434 0.962 . S
H1448 C1434 0.960 . S
H1449 C1435 0.961 . S
H1450 C1435 0.961 . S
H1451 C1435 0.961 . S
H1452 C1436 0.931 . S
H1453 C1441 0.930 . S
H1454 C1442 0.956 . S
H1455 C1442 0.961 . S
H1456 C1442 0.961 . S
H1457 C1443 0.958 . S
H1458 C1443 0.961 . S
H1459 C1443 0.960 . S
C1460 C1461 1.391 . S
C1460 C1462 1.394 . S
C1460 H1476 0.931 . S
C1461 C1460 1.391 . S
C1461 C1465 1.376 . S
C1462 C1460 1.394 . S
C1462 C1463 1.369 . S
C1462 C1466 1.531 . S
C1463 C1462 1.369 . S
C1463 C1464 1.410 . S
C1463 C1471 1.503 . S
C1464 C1463 1.410 . S
C1464 C1465 1.392 . S
C1464 C1467 1.511 . S
C1465 C1461 1.376 . S
C1465 C1464 1.392 . S
C1465 H1477 0.929 . S
C1466 C1462 1.531 . S
C1466 H1478 0.960 . S
C1466 H1479 0.962 . S
C1466 H1480 0.960 . S
C1467 C1464 1.511 . S
C1467 H1481 0.961 . S
C1467 H1482 0.961 . S
C1467 H1483 0.961 . S
C1468 C1469 1.370 . S
C1468 C1470 1.363 . S
C1468 H1484 0.931 . S
C1469 C1468 1.370 . S
C1469 C1473 1.408 . S
C1470 C1468 1.363 . S
C1470 C1471 1.370 . S
C1470 C1474 1.524 . S
C1471 C1463 1.503 . S
C1471 C1470 1.370 . S
C1471 C1472 1.403 . S
C1472 C1471 1.403 . S
C1472 C1473 1.404 . S
C1472 C1475 1.539 . S
C1473 C1469 1.408 . S
C1473 C1472 1.404 . S
C1473 H1485 0.930 . S
C1474 C1470 1.524 . S
C1474 H1486 0.956 . S
C1474 H1487 0.961 . S
C1474 H1488 0.961 . S
C1475 C1472 1.539 . S
C1475 H1489 0.958 . S
C1475 H1490 0.961 . S
C1475 H1491 0.960 . S
H1476 C1460 0.931 . S
H1477 C1465 0.929 . S
H1478 C1466 0.960 . S
H1479 C1466 0.962 . S
H1480 C1466 0.960 . S
H1481 C1467 0.961 . S
H1482 C1467 0.961 . S
H1483 C1467 0.961 . S
H1484 C1468 0.931 . S
H1485 C1473 0.930 . S
H1486 C1474 0.956 . S
H1487 C1474 0.961 . S
H1488 C1474 0.961 . S
H1489 C1475 0.958 . S
H1490 C1475 0.961 . S
H1491 C1475 0.960 . S
C1492 C1493 1.391 . S
C1492 C1494 1.394 . S
C1492 H1508 0.931 . S
C1493 C1492 1.391 . S
C1493 C1497 1.376 . S
C1494 C1492 1.394 . S
C1494 C1495 1.369 . S
C1494 C1498 1.531 . S
C1495 C1494 1.369 . S
C1495 C1496 1.410 . S
C1495 C1503 1.503 . S
C1496 C1495 1.410 . S
C1496 C1497 1.392 . S
C1496 C1499 1.511 . S
C1497 C1493 1.376 . S
C1497 C1496 1.392 . S
C1497 H1509 0.929 . S
C1498 C1494 1.531 . S
C1498 H1510 0.960 . S
C1498 H1511 0.962 . S
C1498 H1512 0.960 . S
C1499 C1496 1.511 . S
C1499 H1513 0.961 . S
C1499 H1514 0.961 . S
C1499 H1515 0.961 . S
C1500 C1501 1.370 . S
C1500 C1502 1.363 . S
C1500 H1516 0.931 . S
C1501 C1500 1.370 . S
C1501 C1505 1.408 . S
C1502 C1500 1.363 . S
C1502 C1503 1.370 . S
C1502 C1506 1.524 . S
C1503 C1495 1.503 . S
C1503 C1502 1.370 . S
C1503 C1504 1.403 . S
C1504 C1503 1.403 . S
C1504 C1505 1.404 . S
C1504 C1507 1.539 . S
C1505 C1501 1.408 . S
C1505 C1504 1.404 . S
C1505 H1517 0.930 . S
C1506 C1502 1.524 . S
C1506 H1518 0.956 . S
C1506 H1519 0.961 . S
C1506 H1520 0.961 . S
C1507 C1504 1.539 . S
C1507 H1521 0.958 . S
C1507 H1522 0.961 . S
C1507 H1523 0.960 . S
H1508 C1492 0.931 . S
H1509 C1497 0.929 . S
H1510 C1498 0.960 . S
H1511 C1498 0.962 . S
H1512 C1498 0.960 . S
H1513 C1499 0.961 . S
H1514 C1499 0.961 . S
H1515 C1499 0.961 . S
H1516 C1500 0.931 . S
H1517 C1505 0.930 . S
H1518 C1506 0.956 . S
H1519 C1506 0.961 . S
H1520 C1506 0.961 . S
H1521 C1507 0.958 . S
H1522 C1507 0.961 . S
H1523 C1507 0.960 . S
C1524 C1525 1.391 . S
C1524 C1526 1.394 . S
C1524 H1540 0.931 . S
C1525 C1524 1.391 . S
C1525 C1529 1.376 . S
C1526 C1524 1.394 . S
C1526 C1527 1.369 . S
C1526 C1530 1.531 . S
C1527 C1526 1.369 . S
C1527 C1528 1.410 . S
C1527 C1535 1.503 . S
C1528 C1527 1.410 . S
C1528 C1529 1.392 . S
C1528 C1531 1.511 . S
C1529 C1525 1.376 . S
C1529 C1528 1.392 . S
C1529 H1541 0.929 . S
C1530 C1526 1.531 . S
C1530 H1542 0.960 . S
C1530 H1543 0.962 . S
C1530 H1544 0.960 . S
C1531 C1528 1.511 . S
C1531 H1545 0.961 . S
C1531 H1546 0.961 . S
C1531 H1547 0.961 . S
C1532 C1533 1.370 . S
C1532 C1534 1.363 . S
C1532 H1548 0.931 . S
C1533 C1532 1.370 . S
C1533 C1537 1.408 . S
C1534 C1532 1.363 . S
C1534 C1535 1.370 . S
C1534 C1538 1.524 . S
C1535 C1527 1.503 . S
C1535 C1534 1.370 . S
C1535 C1536 1.403 . S
C1536 C1535 1.403 . S
C1536 C1537 1.404 . S
C1536 C1539 1.539 . S
C1537 C1533 1.408 . S
C1537 C1536 1.404 . S
C1537 H1549 0.930 . S
C1538 C1534 1.524 . S
C1538 H1550 0.956 . S
C1538 H1551 0.961 . S
C1538 H1552 0.961 . S
C1539 C1536 1.539 . S
C1539 H1553 0.958 . S
C1539 H1554 0.961 . S
C1539 H1555 0.960 . S
H1540 C1524 0.931 . S
H1541 C1529 0.929 . S
H1542 C1530 0.960 . S
H1543 C1530 0.962 . S
H1544 C1530 0.960 . S
H1545 C1531 0.961 . S
H1546 C1531 0.961 . S
H1547 C1531 0.961 . S
H1548 C1532 0.931 . S
H1549 C1537 0.930 . S
H1550 C1538 0.956 . S
H1551 C1538 0.961 . S
H1552 C1538 0.961 . S
H1553 C1539 0.958 . S
H1554 C1539 0.961 . S
H1555 C1539 0.960 . S
C1556 C1557 1.391 . S
C1556 C1558 1.394 . S
C1556 H1572 0.931 . S
C1557 C1556 1.391 . S
C1557 C1561 1.376 . S
C1558 C1556 1.394 . S
C1558 C1559 1.369 . S
C1558 C1562 1.531 . S
C1559 C1558 1.369 . S
C1559 C1560 1.410 . S
C1559 C1567 1.503 . S
C1560 C1559 1.410 . S
C1560 C1561 1.392 . S
C1560 C1563 1.511 . S
C1561 C1557 1.376 . S
C1561 C1560 1.392 . S
C1561 H1573 0.929 . S
C1562 C1558 1.531 . S
C1562 H1574 0.960 . S
C1562 H1575 0.962 . S
C1562 H1576 0.960 . S
C1563 C1560 1.511 . S
C1563 H1577 0.961 . S
C1563 H1578 0.961 . S
C1563 H1579 0.961 . S
C1564 C1565 1.370 . S
C1564 C1566 1.363 . S
C1564 H1580 0.931 . S
C1565 C1564 1.370 . S
C1565 C1569 1.408 . S
C1566 C1564 1.363 . S
C1566 C1567 1.370 . S
C1566 C1570 1.524 . S
C1567 C1559 1.503 . S
C1567 C1566 1.370 . S
C1567 C1568 1.403 . S
C1568 C1567 1.403 . S
C1568 C1569 1.404 . S
C1568 C1571 1.539 . S
C1569 C1565 1.408 . S
C1569 C1568 1.404 . S
C1569 H1581 0.930 . S
C1570 C1566 1.524 . S
C1570 H1582 0.956 . S
C1570 H1583 0.961 . S
C1570 H1584 0.961 . S
C1571 C1568 1.539 . S
C1571 H1585 0.958 . S
C1571 H1586 0.961 . S
C1571 H1587 0.960 . S
H1572 C1556 0.931 . S
H1573 C1561 0.929 . S
H1574 C1562 0.960 . S
H1575 C1562 0.962 . S
H1576 C1562 0.960 . S
H1577 C1563 0.961 . S
H1578 C1563 0.961 . S
H1579 C1563 0.961 . S
H1580 C1564 0.931 . S
H1581 C1569 0.930 . S
H1582 C1570 0.956 . S
H1583 C1570 0.961 . S
H1584 C1570 0.961 . S
H1585 C1571 0.958 . S
H1586 C1571 0.961 . S
H1587 C1571 0.960 . S
C1588 C1589 1.391 . S
C1588 C1590 1.394 . S
C1588 H1604 0.931 . S
C1589 C1588 1.391 . S
C1589 C1593 1.376 . S
C1590 C1588 1.394 . S
C1590 C1591 1.369 . S
C1590 C1594 1.531 . S
C1591 C1590 1.369 . S
C1591 C1592 1.410 . S
C1591 C1599 1.503 . S
C1592 C1591 1.410 . S
C1592 C1593 1.392 . S
C1592 C1595 1.511 . S
C1593 C1589 1.376 . S
C1593 C1592 1.392 . S
C1593 H1605 0.929 . S
C1594 C1590 1.531 . S
C1594 H1606 0.960 . S
C1594 H1607 0.962 . S
C1594 H1608 0.960 . S
C1595 C1592 1.511 . S
C1595 H1609 0.961 . S
C1595 H1610 0.961 . S
C1595 H1611 0.961 . S
C1596 C1597 1.370 . S
C1596 C1598 1.363 . S
C1596 H1612 0.931 . S
C1597 C1596 1.370 . S
C1597 C1601 1.408 . S
C1598 C1596 1.363 . S
C1598 C1599 1.370 . S
C1598 C1602 1.524 . S
C1599 C1591 1.503 . S
C1599 C1598 1.370 . S
C1599 C1600 1.403 . S
C1600 C1599 1.403 . S
C1600 C1601 1.404 . S
C1600 C1603 1.539 . S
C1601 C1597 1.408 . S
C1601 C1600 1.404 . S
C1601 H1613 0.930 . S
C1602 C1598 1.524 . S
C1602 H1614 0.956 . S
C1602 H1615 0.961 . S
C1602 H1616 0.961 . S
C1603 C1600 1.539 . S
C1603 H1617 0.958 . S
C1603 H1618 0.961 . S
C1603 H1619 0.960 . S
H1604 C1588 0.931 . S
H1605 C1593 0.929 . S
H1606 C1594 0.960 . S
H1607 C1594 0.962 . S
H1608 C1594 0.960 . S
H1609 C1595 0.961 . S
H1610 C1595 0.961 . S
H1611 C1595 0.961 . S
H1612 C1596 0.931 . S
H1613 C1601 0.930 . S
H1614 C1602 0.956 . S
H1615 C1602 0.961 . S
H1616 C1602 0.961 . S
H1617 C1603 0.958 . S
H1618 C1603 0.961 . S
H1619 C1603 0.960 . S
C1620 C1621 1.391 . S
C1620 C1622 1.394 . S
C1620 H1636 0.931 . S
C1621 C1620 1.391 . S
C1621 C1625 1.376 . S
C1622 C1620 1.394 . S
C1622 C1623 1.369 . S
C1622 C1626 1.531 . S
C1623 C1622 1.369 . S
C1623 C1624 1.410 . S
C1623 C1631 1.503 . S
C1624 C1623 1.410 . S
C1624 C1625 1.392 . S
C1624 C1627 1.511 . S
C1625 C1621 1.376 . S
C1625 C1624 1.392 . S
C1625 H1637 0.929 . S
C1626 C1622 1.531 . S
C1626 H1638 0.960 . S
C1626 H1639 0.962 . S
C1626 H1640 0.960 . S
C1627 C1624 1.511 . S
C1627 H1641 0.961 . S
C1627 H1642 0.961 . S
C1627 H1643 0.961 . S
C1628 C1629 1.370 . S
C1628 C1630 1.363 . S
C1628 H1644 0.931 . S
C1629 C1628 1.370 . S
C1629 C1633 1.408 . S
C1630 C1628 1.363 . S
C1630 C1631 1.370 . S
C1630 C1634 1.524 . S
C1631 C1623 1.503 . S
C1631 C1630 1.370 . S
C1631 C1632 1.403 . S
C1632 C1631 1.403 . S
C1632 C1633 1.404 . S
C1632 C1635 1.539 . S
C1633 C1629 1.408 . S
C1633 C1632 1.404 . S
C1633 H1645 0.930 . S
C1634 C1630 1.524 . S
C1634 H1646 0.956 . S
C1634 H1647 0.961 . S
C1634 H1648 0.961 . S
C1635 C1632 1.539 . S
C1635 H1649 0.958 . S
C1635 H1650 0.961 . S
C1635 H1651 0.960 . S
H1636 C1620 0.931 . S
H1637 C1625 0.929 . S
H1638 C1626 0.960 . S
H1639 C1626 0.962 . S
H1640 C1626 0.960 . S
H1641 C1627 0.961 . S
H1642 C1627 0.961 . S
H1643 C1627 0.961 . S
H1644 C1628 0.931 . S
H1645 C1633 0.930 . S
H1646 C1634 0.956 . S
H1647 C1634 0.961 . S
H1648 C1634 0.961 . S
H1649 C1635 0.958 . S
H1650 C1635 0.961 . S
H1651 C1635 0.960 . S
C1652 C1653 1.391 . S
C1652 C1654 1.394 . S
C1652 H1668 0.931 . S
C1653 C1652 1.391 . S
C1653 C1657 1.376 . S
C1654 C1652 1.394 . S
C1654 C1655 1.369 . S
C1654 C1658 1.531 . S
C1655 C1654 1.369 . S
C1655 C1656 1.410 . S
C1655 C1663 1.503 . S
C1656 C1655 1.410 . S
C1656 C1657 1.392 . S
C1656 C1659 1.511 . S
C1657 C1653 1.376 . S
C1657 C1656 1.392 . S
C1657 H1669 0.929 . S
C1658 C1654 1.531 . S
C1658 H1670 0.960 . S
C1658 H1671 0.962 . S
C1658 H1672 0.960 . S
C1659 C1656 1.511 . S
C1659 H1673 0.961 . S
C1659 H1674 0.961 . S
C1659 H1675 0.961 . S
C1660 C1661 1.370 . S
C1660 C1662 1.363 . S
C1660 H1676 0.931 . S
C1661 C1660 1.370 . S
C1661 C1665 1.408 . S
C1662 C1660 1.363 . S
C1662 C1663 1.370 . S
C1662 C1666 1.524 . S
C1663 C1655 1.503 . S
C1663 C1662 1.370 . S
C1663 C1664 1.403 . S
C1664 C1663 1.403 . S
C1664 C1665 1.404 . S
C1664 C1667 1.539 . S
C1665 C1661 1.408 . S
C1665 C1664 1.404 . S
C1665 H1677 0.930 . S
C1666 C1662 1.524 . S
C1666 H1678 0.956 . S
C1666 H1679 0.961 . S
C1666 H1680 0.961 . S
C1667 C1664 1.539 . S
C1667 H1681 0.958 . S
C1667 H1682 0.961 . S
C1667 H1683 0.960 . S
H1668 C1652 0.931 . S
H1669 C1657 0.929 . S
H1670 C1658 0.960 . S
H1671 C1658 0.962 . S
H1672 C1658 0.960 . S
H1673 C1659 0.961 . S
H1674 C1659 0.961 . S
H1675 C1659 0.961 . S
H1676 C1660 0.931 . S
H1677 C1665 0.930 . S
H1678 C1666 0.956 . S
H1679 C1666 0.961 . S
H1680 C1666 0.961 . S
H1681 C1667 0.958 . S
H1682 C1667 0.961 . S
H1683 C1667 0.960 . S
C1684 C1685 1.391 . S
C1684 C1686 1.394 . S
C1684 H1700 0.931 . S
C1685 C1684 1.391 . S
C1685 C1689 1.376 . S
C1686 C1684 1.394 . S
C1686 C1687 1.369 . S
C1686 C1690 1.531 . S
C1687 C1686 1.369 . S
C1687 C1688 1.410 . S
C1687 C1695 1.503 . S
C1688 C1687 1.410 . S
C1688 C1689 1.392 . S
C1688 C1691 1.511 . S
C1689 C1685 1.376 . S
C1689 C1688 1.392 . S
C1689 H1701 0.929 . S
C1690 C1686 1.531 . S
C1690 H1702 0.960 . S
C1690 H1703 0.962 . S
C1690 H1704 0.960 . S
C1691 C1688 1.511 . S
C1691 H1705 0.961 . S
C1691 H1706 0.961 . S
C1691 H1707 0.961 . S
C1692 C1693 1.370 . S
C1692 C1694 1.363 . S
C1692 H1708 0.931 . S
C1693 C1692 1.370 . S
C1693 C1697 1.408 . S
C1694 C1692 1.363 . S
C1694 C1695 1.370 . S
C1694 C1698 1.524 . S
C1695 C1687 1.503 . S
C1695 C1694 1.370 . S
C1695 C1696 1.403 . S
C1696 C1695 1.403 . S
C1696 C1697 1.404 . S
C1696 C1699 1.539 . S
C1697 C1693 1.408 . S
C1697 C1696 1.404 . S
C1697 H1709 0.930 . S
C1698 C1694 1.524 . S
C1698 H1710 0.956 . S
C1698 H1711 0.961 . S
C1698 H1712 0.961 . S
C1699 C1696 1.539 . S
C1699 H1713 0.958 . S
C1699 H1714 0.961 . S
C1699 H1715 0.960 . S
H1700 C1684 0.931 . S
H1701 C1689 0.929 . S
H1702 C1690 0.960 . S
H1703 C1690 0.962 . S
H1704 C1690 0.960 . S
H1705 C1691 0.961 . S
H1706 C1691 0.961 . S
H1707 C1691 0.961 . S
H1708 C1692 0.931 . S
H1709 C1697 0.930 . S
H1710 C1698 0.956 . S
H1711 C1698 0.961 . S
H1712 C1698 0.961 . S
H1713 C1699 0.958 . S
H1714 C1699 0.961 . S
H1715 C1699 0.960 . S
C1716 C1717 1.391 . S
C1716 C1718 1.394 . S
C1716 H1732 0.931 . S
C1717 C1716 1.391 . S
C1717 C1721 1.376 . S
C1718 C1716 1.394 . S
C1718 C1719 1.369 . S
C1718 C1722 1.531 . S
C1719 C1718 1.369 . S
C1719 C1720 1.410 . S
C1719 C1727 1.503 . S
C1720 C1719 1.410 . S
C1720 C1721 1.392 . S
C1720 C1723 1.511 . S
C1721 C1717 1.376 . S
C1721 C1720 1.392 . S
C1721 H1733 0.929 . S
C1722 C1718 1.531 . S
C1722 H1734 0.960 . S
C1722 H1735 0.962 . S
C1722 H1736 0.960 . S
C1723 C1720 1.511 . S
C1723 H1737 0.961 . S
C1723 H1738 0.961 . S
C1723 H1739 0.961 . S
C1724 C1725 1.370 . S
C1724 C1726 1.363 . S
C1724 H1740 0.931 . S
C1725 C1724 1.370 . S
C1725 C1729 1.408 . S
C1726 C1724 1.363 . S
C1726 C1727 1.370 . S
C1726 C1730 1.524 . S
C1727 C1719 1.503 . S
C1727 C1726 1.370 . S
C1727 C1728 1.403 . S
C1728 C1727 1.403 . S
C1728 C1729 1.404 . S
C1728 C1731 1.539 . S
C1729 C1725 1.408 . S
C1729 C1728 1.404 . S
C1729 H1741 0.930 . S
C1730 C1726 1.524 . S
C1730 H1742 0.956 . S
C1730 H1743 0.961 . S
C1730 H1744 0.961 . S
C1731 C1728 1.539 . S
C1731 H1745 0.958 . S
C1731 H1746 0.961 . S
C1731 H1747 0.960 . S
H1732 C1716 0.931 . S
H1733 C1721 0.929 . S
H1734 C1722 0.960 . S
H1735 C1722 0.962 . S
H1736 C1722 0.960 . S
H1737 C1723 0.961 . S
H1738 C1723 0.961 . S
H1739 C1723 0.961 . S
H1740 C1724 0.931 . S
H1741 C1729 0.930 . S
H1742 C1730 0.956 . S
H1743 C1730 0.961 . S
H1744 C1730 0.961 . S
H1745 C1731 0.958 . S
H1746 C1731 0.961 . S
H1747 C1731 0.960 . S
C1748 C1749 1.391 . S
C1748 C1750 1.394 . S
C1748 H1764 0.931 . S
C1749 C1748 1.391 . S
C1749 C1753 1.376 . S
C1750 C1748 1.394 . S
C1750 C1751 1.369 . S
C1750 C1754 1.531 . S
C1751 C1750 1.369 . S
C1751 C1752 1.410 . S
C1751 C1759 1.503 . S
C1752 C1751 1.410 . S
C1752 C1753 1.392 . S
C1752 C1755 1.511 . S
C1753 C1749 1.376 . S
C1753 C1752 1.392 . S
C1753 H1765 0.929 . S
C1754 C1750 1.531 . S
C1754 H1766 0.960 . S
C1754 H1767 0.962 . S
C1754 H1768 0.960 . S
C1755 C1752 1.511 . S
C1755 H1769 0.961 . S
C1755 H1770 0.961 . S
C1755 H1771 0.961 . S
C1756 C1757 1.370 . S
C1756 C1758 1.363 . S
C1756 H1772 0.931 . S
C1757 C1756 1.370 . S
C1757 C1761 1.408 . S
C1758 C1756 1.363 . S
C1758 C1759 1.370 . S
C1758 C1762 1.524 . S
C1759 C1751 1.503 . S
C1759 C1758 1.370 . S
C1759 C1760 1.403 . S
C1760 C1759 1.403 . S
C1760 C1761 1.404 . S
C1760 C1763 1.539 . S
C1761 C1757 1.408 . S
C1761 C1760 1.404 . S
C1761 H1773 0.930 . S
C1762 C1758 1.524 . S
C1762 H1774 0.956 . S
C1762 H1775 0.961 . S
C1762 H1776 0.961 . S
C1763 C1760 1.539 . S
C1763 H1777 0.958 . S
C1763 H1778 0.961 . S
C1763 H1779 0.960 . S
H1764 C1748 0.931 . S
H1765 C1753 0.929 . S
H1766 C1754 0.960 . S
H1767 C1754 0.962 . S
H1768 C1754 0.960 . S
H1769 C1755 0.961 . S
H1770 C1755 0.961 . S
H1771 C1755 0.961 . S
H1772 C1756 0.931 . S
H1773 C1761 0.930 . S
H1774 C1762 0.956 . S
H1775 C1762 0.961 . S
H1776 C1762 0.961 . S
H1777 C1763 0.958 . S
H1778 C1763 0.961 . S
H1779 C1763 0.960 . S
C1780 C1781 1.391 . S
C1780 C1782 1.394 . S
C1780 H1796 0.931 . S
C1781 C1780 1.391 . S
C1781 C1785 1.376 . S
C1782 C1780 1.394 . S
C1782 C1783 1.369 . S
C1782 C1786 1.531 . S
C1783 C1782 1.369 . S
C1783 C1784 1.410 . S
C1783 C1791 1.503 . S
C1784 C1783 1.410 . S
C1784 C1785 1.392 . S
C1784 C1787 1.511 . S
C1785 C1781 1.376 . S
C1785 C1784 1.392 . S
C1785 H1797 0.929 . S
C1786 C1782 1.531 . S
C1786 H1798 0.960 . S
C1786 H1799 0.962 . S
C1786 H1800 0.960 . S
C1787 C1784 1.511 . S
C1787 H1801 0.961 . S
C1787 H1802 0.961 . S
C1787 H1803 0.961 . S
C1788 C1789 1.370 . S
C1788 C1790 1.363 . S
C1788 H1804 0.931 . S
C1789 C1788 1.370 . S
C1789 C1793 1.408 . S
C1790 C1788 1.363 . S
C1790 C1791 1.370 . S
C1790 C1794 1.524 . S
C1791 C1783 1.503 . S
C1791 C1790 1.370 . S
C1791 C1792 1.403 . S
C1792 C1791 1.403 . S
C1792 C1793 1.404 . S
C1792 C1795 1.539 . S
C1793 C1789 1.408 . S
C1793 C1792 1.404 . S
C1793 H1805 0.930 . S
C1794 C1790 1.524 . S
C1794 H1806 0.956 . S
C1794 H1807 0.961 . S
C1794 H1808 0.961 . S
C1795 C1792 1.539 . S
C1795 H1809 0.958 . S
C1795 H1810 0.961 . S
C1795 H1811 0.960 . S
H1796 C1780 0.931 . S
H1797 C1785 0.929 . S
H1798 C1786 0.960 . S
H1799 C1786 0.962 . S
H1800 C1786 0.960 . S
H1801 C1787 0.961 . S
H1802 C1787 0.961 . S
H1803 C1787 0.961 . S
H1804 C1788 0.931 . S
H1805 C1793 0.930 . S
H1806 C1794 0.956 . S
H1807 C1794 0.961 . S
H1808 C1794 0.961 . S
H1809 C1795 0.958 . S
H1810 C1795 0.961 . S
H1811 C1795 0.960 . S
C1812 C1813 1.391 . S
C1812 C1814 1.394 . S
C1812 H1828 0.931 . S
C1813 C1812 1.391 . S
C1813 C1817 1.376 . S
C1814 C1812 1.394 . S
C1814 C1815 1.369 . S
C1814 C1818 1.531 . S
C1815 C1814 1.369 . S
C1815 C1816 1.410 . S
C1815 C1823 1.503 . S
C1816 C1815 1.410 . S
C1816 C1817 1.392 . S
C1816 C1819 1.511 . S
C1817 C1813 1.376 . S
C1817 C1816 1.392 . S
C1817 H1829 0.929 . S
C1818 C1814 1.531 . S
C1818 H1830 0.960 . S
C1818 H1831 0.962 . S
C1818 H1832 0.960 . S
C1819 C1816 1.511 . S
C1819 H1833 0.961 . S
C1819 H1834 0.961 . S
C1819 H1835 0.961 . S
C1820 C1821 1.370 . S
C1820 C1822 1.363 . S
C1820 H1836 0.931 . S
C1821 C1820 1.370 . S
C1821 C1825 1.408 . S
C1822 C1820 1.363 . S
C1822 C1823 1.370 . S
C1822 C1826 1.524 . S
C1823 C1815 1.503 . S
C1823 C1822 1.370 . S
C1823 C1824 1.403 . S
C1824 C1823 1.403 . S
C1824 C1825 1.404 . S
C1824 C1827 1.539 . S
C1825 C1821 1.408 . S
C1825 C1824 1.404 . S
C1825 H1837 0.930 . S
C1826 C1822 1.524 . S
C1826 H1838 0.956 . S
C1826 H1839 0.961 . S
C1826 H1840 0.961 . S
C1827 C1824 1.539 . S
C1827 H1841 0.958 . S
C1827 H1842 0.961 . S
C1827 H1843 0.960 . S
H1828 C1812 0.931 . S
H1829 C1817 0.929 . S
H1830 C1818 0.960 . S
H1831 C1818 0.962 . S
H1832 C1818 0.960 . S
H1833 C1819 0.961 . S
H1834 C1819 0.961 . S
H1835 C1819 0.961 . S
H1836 C1820 0.931 . S
H1837 C1825 0.930 . S
H1838 C1826 0.956 . S
H1839 C1826 0.961 . S
H1840 C1826 0.961 . S
H1841 C1827 0.958 . S
H1842 C1827 0.961 . S
H1843 C1827 0.960 . S
C1844 C1845 1.391 . S
C1844 C1846 1.394 . S
C1844 H1860 0.931 . S
C1845 C1844 1.391 . S
C1845 C1849 1.376 . S
C1846 C1844 1.394 . S
C1846 C1847 1.369 . S
C1846 C1850 1.531 . S
C1847 C1846 1.369 . S
C1847 C1848 1.410 . S
C1847 C1855 1.503 . S
C1848 C1847 1.410 . S
C1848 C1849 1.392 . S
C1848 C1851 1.511 . S
C1849 C1845 1.376 . S
C1849 C1848 1.392 . S
C1849 H1861 0.929 . S
C1850 C1846 1.531 . S
C1850 H1862 0.960 . S
C1850 H1863 0.962 . S
C1850 H1864 0.960 . S
C1851 C1848 1.511 . S
C1851 H1865 0.961 . S
C1851 H1866 0.961 . S
C1851 H1867 0.961 . S
C1852 C1853 1.370 . S
C1852 C1854 1.363 . S
C1852 H1868 0.931 . S
C1853 C1852 1.370 . S
C1853 C1857 1.408 . S
C1854 C1852 1.363 . S
C1854 C1855 1.370 . S
C1854 C1858 1.524 . S
C1855 C1847 1.503 . S
C1855 C1854 1.370 . S
C1855 C1856 1.403 . S
C1856 C1855 1.403 . S
C1856 C1857 1.404 . S
C1856 C1859 1.539 . S
C1857 C1853 1.408 . S
C1857 C1856 1.404 . S
C1857 H1869 0.930 . S
C1858 C1854 1.524 . S
C1858 H1870 0.956 . S
C1858 H1871 0.961 . S
C1858 H1872 0.961 . S
C1859 C1856 1.539 . S
C1859 H1873 0.958 . S
C1859 H1874 0.961 . S
C1859 H1875 0.960 . S
H1860 C1844 0.931 . S
H1861 C1849 0.929 . S
H1862 C1850 0.960 . S
H1863 C1850 0.962 . S
H1864 C1850 0.960 . S
H1865 C1851 0.961 . S
H1866 C1851 0.961 . S
H1867 C1851 0.961 . S
H1868 C1852 0.931 . S
H1869 C1857 0.930 . S
H1870 C1858 0.956 . S
H1871 C1858 0.961 . S
H1872 C1858 0.961 . S
H1873 C1859 0.958 . S
H1874 C1859 0.961 . S
H1875 C1859 0.960 . S
C1876 C1877 1.391 . S
C1876 C1878 1.394 . S
C1876 H1892 0.931 . S
C1877 C1876 1.391 . S
C1877 C1881 1.376 . S
C1878 C1876 1.394 . S
C1878 C1879 1.369 . S
C1878 C1882 1.531 . S
C1879 C1878 1.369 . S
C1879 C1880 1.410 . S
C1879 C1887 1.503 . S
C1880 C1879 1.410 . S
C1880 C1881 1.392 . S
C1880 C1883 1.511 . S
C1881 C1877 1.376 . S
C1881 C1880 1.392 . S
C1881 H1893 0.929 . S
C1882 C1878 1.531 . S
C1882 H1894 0.960 . S
C1882 H1895 0.962 . S
C1882 H1896 0.960 . S
C1883 C1880 1.511 . S
C1883 H1897 0.961 . S
C1883 H1898 0.961 . S
C1883 H1899 0.961 . S
C1884 C1885 1.370 . S
C1884 C1886 1.363 . S
C1884 H1900 0.931 . S
C1885 C1884 1.370 . S
C1885 C1889 1.408 . S
C1886 C1884 1.363 . S
C1886 C1887 1.370 . S
C1886 C1890 1.524 . S
C1887 C1879 1.503 . S
C1887 C1886 1.370 . S
C1887 C1888 1.403 . S
C1888 C1887 1.403 . S
C1888 C1889 1.404 . S
C1888 C1891 1.539 . S
C1889 C1885 1.408 . S
C1889 C1888 1.404 . S
C1889 H1901 0.930 . S
C1890 C1886 1.524 . S
C1890 H1902 0.956 . S
C1890 H1903 0.961 . S
C1890 H1904 0.961 . S
C1891 C1888 1.539 . S
C1891 H1905 0.958 . S
C1891 H1906 0.961 . S
C1891 H1907 0.960 . S
H1892 C1876 0.931 . S
H1893 C1881 0.929 . S
H1894 C1882 0.960 . S
H1895 C1882 0.962 . S
H1896 C1882 0.960 . S
H1897 C1883 0.961 . S
H1898 C1883 0.961 . S
H1899 C1883 0.961 . S
H1900 C1884 0.931 . S
H1901 C1889 0.930 . S
H1902 C1890 0.956 . S
H1903 C1890 0.961 . S
H1904 C1890 0.961 . S
H1905 C1891 0.958 . S
H1906 C1891 0.961 . S
H1907 C1891 0.960 . S
C1908 C1909 1.391 . S
C1908 C1910 1.394 . S
C1908 H1924 0.931 . S
C1909 C1908 1.391 . S
C1909 C1913 1.376 . S
C1910 C1908 1.394 . S
C1910 C1911 1.369 . S
C1910 C1914 1.531 . S
C1911 C1910 1.369 . S
C1911 C1912 1.410 . S
C1911 C1919 1.503 . S
C1912 C1911 1.410 . S
C1912 C1913 1.392 . S
C1912 C1915 1.511 . S
C1913 C1909 1.376 . S
C1913 C1912 1.392 . S
C1913 H1925 0.929 . S
C1914 C1910 1.531 . S
C1914 H1926 0.960 . S
C1914 H1927 0.962 . S
C1914 H1928 0.960 . S
C1915 C1912 1.511 . S
C1915 H1929 0.961 . S
C1915 H1930 0.961 . S
C1915 H1931 0.961 . S
C1916 C1917 1.370 . S
C1916 C1918 1.363 . S
C1916 H1932 0.931 . S
C1917 C1916 1.370 . S
C1917 C1921 1.408 . S
C1918 C1916 1.363 . S
C1918 C1919 1.370 . S
C1918 C1922 1.524 . S
C1919 C1911 1.503 . S
C1919 C1918 1.370 . S
C1919 C1920 1.403 . S
C1920 C1919 1.403 . S
C1920 C1921 1.404 . S
C1920 C1923 1.539 . S
C1921 C1917 1.408 . S
C1921 C1920 1.404 . S
C1921 H1933 0.930 . S
C1922 C1918 1.524 . S
C1922 H1934 0.956 . S
C1922 H1935 0.961 . S
C1922 H1936 0.961 . S
C1923 C1920 1.539 . S
C1923 H1937 0.958 . S
C1923 H1938 0.961 . S
C1923 H1939 0.960 . S
H1924 C1908 0.931 . S
H1925 C1913 0.929 . S
H1926 C1914 0.960 . S
H1927 C1914 0.962 . S
H1928 C1914 0.960 . S
H1929 C1915 0.961 . S
H1930 C1915 0.961 . S
H1931 C1915 0.961 . S
H1932 C1916 0.931 . S
H1933 C1921 0.930 . S
H1934 C1922 0.956 . S
H1935 C1922 0.961 . S
H1936 C1922 0.961 . S
H1937 C1923 0.958 . S
H1938 C1923 0.961 . S
H1939 C1923 0.960 . S
C1940 C1941 1.391 . S
C1940 C1942 1.394 . S
C1940 H1956 0.931 . S
C1941 C1940 1.391 . S
C1941 C1945 1.376 . S
C1942 C1940 1.394 . S
C1942 C1943 1.369 . S
C1942 C1946 1.531 . S
C1943 C1942 1.369 . S
C1943 C1944 1.410 . S
C1943 C1951 1.503 . S
C1944 C1943 1.410 . S
C1944 C1945 1.392 . S
C1944 C1947 1.511 . S
C1945 C1941 1.376 . S
C1945 C1944 1.392 . S
C1945 H1957 0.929 . S
C1946 C1942 1.531 . S
C1946 H1958 0.960 . S
C1946 H1959 0.962 . S
C1946 H1960 0.960 . S
C1947 C1944 1.511 . S
C1947 H1961 0.961 . S
C1947 H1962 0.961 . S
C1947 H1963 0.961 . S
C1948 C1949 1.370 . S
C1948 C1950 1.363 . S
C1948 H1964 0.931 . S
C1949 C1948 1.370 . S
C1949 C1953 1.408 . S
C1950 C1948 1.363 . S
C1950 C1951 1.370 . S
C1950 C1954 1.524 . S
C1951 C1943 1.503 . S
C1951 C1950 1.370 . S
C1951 C1952 1.403 . S
C1952 C1951 1.403 . S
C1952 C1953 1.404 . S
C1952 C1955 1.539 . S
C1953 C1949 1.408 . S
C1953 C1952 1.404 . S
C1953 H1965 0.930 . S
C1954 C1950 1.524 . S
C1954 H1966 0.956 . S
C1954 H1967 0.961 . S
C1954 H1968 0.961 . S
C1955 C1952 1.539 . S
C1955 H1969 0.958 . S
C1955 H1970 0.961 . S
C1955 H1971 0.960 . S
H1956 C1940 0.931 . S
H1957 C1945 0.929 . S
H1958 C1946 0.960 . S
H1959 C1946 0.962 . S
H1960 C1946 0.960 . S
H1961 C1947 0.961 . S
H1962 C1947 0.961 . S
H1963 C1947 0.961 . S
H1964 C1948 0.931 . S
H1965 C1953 0.930 . S
H1966 C1954 0.956 . S
H1967 C1954 0.961 . S
H1968 C1954 0.961 . S
H1969 C1955 0.958 . S
H1970 C1955 0.961 . S
H1971 C1955 0.960 . S
C445 C278 1.695 . S
C437 N2 1.695 . S
C477 C304 2.365 . S
C469 C7 2.377 . S
C509 C317 1.706 . S
C501 N12 1.679 . S
C533 C16 1.669 . S
C541 C345 1.726 . S
C573 C365 2.443 . S
C565 C30 2.447 . S
C605 C378 1.550 . S
C597 N35 1.552 . S
C629 C39 1.843 . S
C637 C404 1.804 . S
C669 C417 1.536 . S
C661 N25 1.477 . S
C701 C294 1.254 . S
C693 N58 1.206 . S
C725 N81 1.453 . S
C733 C315 1.472 . S
C765 C324 1.347 . S
C757 N104 1.284 . S
C789 N127 1.207 . S
C797 C338 1.191 . S
C829 C358 0.967 . S
C821 N48 0.975 . S
C861 C394 1.594 . S
C853 N71 1.545 . S
C885 N94 1.002 . S
C893 C415 1.012 . S
C925 C424 1.711 . S
C917 N117 1.741 . S
C949 C85 2.146 . S
C957 C285 2.128 . S
C981 C122 1.850 . S
C989 C374 1.848 . S
C1013 C53 1.847 1_556 S
C1021 C385 1.784 . S
C1053 C397 1.464 . S
C1045 C76 1.538 . S
C1085 C435 1.705 . S
C1077 C99 1.680 . S
C1117 C335 1.930 . S
C1109 C131 1.909 . S
C1149 C354 1.290 . S
C1141 C62 1.268 . S
C1173 C108 1.208 . S
C1181 C297 1.209 . S
C1213 C418 1.737 . S
C1205 N140 1.778 . S
C1237 C145 2.377 . S
C1245 C364 2.358 . S
C1277 C377 1.643 . S
C1269 N150 1.561 . S
C1301 C154 1.663 . S
C1309 C405 1.719 . S
C1341 C305 2.447 . S
C1333 C168 2.462 . S
C1365 N173 1.489 . S
C1373 C318 1.462 . S
C1405 C344 1.813 . S
C1397 C177 1.828 . S
C1437 C277 1.587 . S
C1429 N163 1.519 . S
C1469 C434 1.685 . S
C1461 C200 1.693 . S
C1501 C375 1.766 . S
C1493 N219 1.747 . S
C1525 N242 1.566 . S
C1533 C384 1.560 . S
C1565 C398 1.482 . S
C1557 C269 1.543 . S
C1597 C298 1.227 . S
C1589 C191 1.295 . S
C1621 N209 1.795 . S
C1629 C334 1.813 . S
C1653 N232 1.316 . S
C1661 C355 1.300 . S
C1685 C260 2.223 . S
C1693 C284 2.186 . S
C1717 C223 1.877 . S
C1725 C425 1.848 . S
C1749 N255 1.367 . S
C1757 C314 1.456 . S
C1781 N186 1.303 . S
C1789 C325 1.347 . S
C1821 C337 1.177 . S
C1813 C214 1.187 . S
C1853 C295 1.414 . S
C1845 C237 1.433 . S
C1885 C395 1.508 . S
C1877 N265 1.410 . S
C1917 C414 0.944 . S
C1909 N196 0.928 . S
C1949 C357 0.877 . S
C1941 C246 0.916 . S
