# Generated by pormake.
# Topology ocu, (6,8)-cn, num edge types: 1
# Building blocks:
#     Node 0, Type 0, BuildingBlock: KUMBOL_clean_sbu_1, # of connection points: 6
#     Node 1, Type 0, BuildingBlock: KUMBOL_clean_sbu_1, # of connection points: 6
#     Node 2, Type 0, BuildingBlock: KUMBOL_clean_sbu_1, # of connection points: 6
#     Node 3, Type 0, BuildingBlock: KUMBOL_clean_sbu_1, # of connection points: 6
#     Node 4, Type 0, BuildingBlock: KUMBOL_clean_sbu_1, # of connection points: 6
#     Node 5, Type 0, BuildingBlock: KUMBOL_clean_sbu_1, # of connection points: 6
#     Node 6, Type 0, BuildingBlock: KUMBOL_clean_sbu_1, # of connection points: 6
#     Node 7, Type 0, BuildingBlock: KUMBOL_clean_sbu_1, # of connection points: 6
#     Node 8, Type 1, BuildingBlock: VETTIZ_charged_sbu_0, # of connection points: 8
#     Node 9, Type 1, BuildingBlock: VETTIZ_charged_sbu_0, # of connection points: 8
#     Node 10, Type 1, BuildingBlock: VETTIZ_charged_sbu_0, # of connection points: 8
#     Node 11, Type 1, BuildingBlock: VETTIZ_charged_sbu_0, # of connection points: 8
#     Node 12, Type 1, BuildingBlock: VETTIZ_charged_sbu_0, # of connection points: 8
#     Node 13, Type 1, BuildingBlock: VETTIZ_charged_sbu_0, # of connection points: 8
#     Edge 14, Type (0, 1), BuildingBlock: OJICUG_clean_linker_0, # of connection points: 2
#     Edge 15, Type (0, 1), BuildingBlock: OJICUG_clean_linker_0, # of connection points: 2
#     Edge 16, Type (0, 1), BuildingBlock: OJICUG_clean_linker_0, # of connection points: 2
#     Edge 17, Type (0, 1), BuildingBlock: OJICUG_clean_linker_0, # of connection points: 2
#     Edge 18, Type (0, 1), BuildingBlock: OJICUG_clean_linker_0, # of connection points: 2
#     Edge 19, Type (0, 1), BuildingBlock: OJICUG_clean_linker_0, # of connection points: 2
#     Edge 20, Type (0, 1), BuildingBlock: OJICUG_clean_linker_0, # of connection points: 2
#     Edge 21, Type (0, 1), BuildingBlock: OJICUG_clean_linker_0, # of connection points: 2
#     Edge 22, Type (0, 1), BuildingBlock: OJICUG_clean_linker_0, # of connection points: 2
#     Edge 23, Type (0, 1), BuildingBlock: OJICUG_clean_linker_0, # of connection points: 2
#     Edge 24, Type (0, 1), BuildingBlock: OJICUG_clean_linker_0, # of connection points: 2
#     Edge 25, Type (0, 1), BuildingBlock: OJICUG_clean_linker_0, # of connection points: 2
#     Edge 26, Type (0, 1), BuildingBlock: OJICUG_clean_linker_0, # of connection points: 2
#     Edge 27, Type (0, 1), BuildingBlock: OJICUG_clean_linker_0, # of connection points: 2
#     Edge 28, Type (0, 1), BuildingBlock: OJICUG_clean_linker_0, # of connection points: 2
#     Edge 29, Type (0, 1), BuildingBlock: OJICUG_clean_linker_0, # of connection points: 2
#     Edge 30, Type (0, 1), BuildingBlock: OJICUG_clean_linker_0, # of connection points: 2
#     Edge 31, Type (0, 1), BuildingBlock: OJICUG_clean_linker_0, # of connection points: 2
#     Edge 32, Type (0, 1), BuildingBlock: OJICUG_clean_linker_0, # of connection points: 2
#     Edge 33, Type (0, 1), BuildingBlock: OJICUG_clean_linker_0, # of connection points: 2
#     Edge 34, Type (0, 1), BuildingBlock: OJICUG_clean_linker_0, # of connection points: 2
#     Edge 35, Type (0, 1), BuildingBlock: OJICUG_clean_linker_0, # of connection points: 2
#     Edge 36, Type (0, 1), BuildingBlock: OJICUG_clean_linker_0, # of connection points: 2
#     Edge 37, Type (0, 1), BuildingBlock: OJICUG_clean_linker_0, # of connection points: 2
#     Edge 38, Type (0, 1), BuildingBlock: OJICUG_clean_linker_0, # of connection points: 2
#     Edge 39, Type (0, 1), BuildingBlock: OJICUG_clean_linker_0, # of connection points: 2
#     Edge 40, Type (0, 1), BuildingBlock: OJICUG_clean_linker_0, # of connection points: 2
#     Edge 41, Type (0, 1), BuildingBlock: OJICUG_clean_linker_0, # of connection points: 2
#     Edge 42, Type (0, 1), BuildingBlock: OJICUG_clean_linker_0, # of connection points: 2
#     Edge 43, Type (0, 1), BuildingBlock: OJICUG_clean_linker_0, # of connection points: 2
#     Edge 44, Type (0, 1), BuildingBlock: OJICUG_clean_linker_0, # of connection points: 2
#     Edge 45, Type (0, 1), BuildingBlock: OJICUG_clean_linker_0, # of connection points: 2
#     Edge 46, Type (0, 1), BuildingBlock: OJICUG_clean_linker_0, # of connection points: 2
#     Edge 47, Type (0, 1), BuildingBlock: OJICUG_clean_linker_0, # of connection points: 2
#     Edge 48, Type (0, 1), BuildingBlock: OJICUG_clean_linker_0, # of connection points: 2
#     Edge 49, Type (0, 1), BuildingBlock: OJICUG_clean_linker_0, # of connection points: 2
#     Edge 50, Type (0, 1), BuildingBlock: OJICUG_clean_linker_0, # of connection points: 2
#     Edge 51, Type (0, 1), BuildingBlock: OJICUG_clean_linker_0, # of connection points: 2
#     Edge 52, Type (0, 1), BuildingBlock: OJICUG_clean_linker_0, # of connection points: 2
#     Edge 53, Type (0, 1), BuildingBlock: OJICUG_clean_linker_0, # of connection points: 2
#     Edge 54, Type (0, 1), BuildingBlock: OJICUG_clean_linker_0, # of connection points: 2
#     Edge 55, Type (0, 1), BuildingBlock: OJICUG_clean_linker_0, # of connection points: 2
#     Edge 56, Type (0, 1), BuildingBlock: OJICUG_clean_linker_0, # of connection points: 2
#     Edge 57, Type (0, 1), BuildingBlock: OJICUG_clean_linker_0, # of connection points: 2
#     Edge 58, Type (0, 1), BuildingBlock: OJICUG_clean_linker_0, # of connection points: 2
#     Edge 59, Type (0, 1), BuildingBlock: OJICUG_clean_linker_0, # of connection points: 2
#     Edge 60, Type (0, 1), BuildingBlock: OJICUG_clean_linker_0, # of connection points: 2
#     Edge 61, Type (0, 1), BuildingBlock: OJICUG_clean_linker_0, # of connection points: 2
# Relax obj value: 0.101
# Max RMSD: 0.136
# Mean RMSD: 0.108
data_MOF--net-ocu--node1-KUMBOL_clean_sbu_1--node2-VETTIZ_charged_sbu_0--edge1-OJICUG_clean_linker_0
_symmetry_space_group_name_H-M    P1
_symmetry_Int_Tables_number       1
_symmetry_cell_setting            triclinic
loop_
_symmetry_equiv_pos_as_xyz
'x, y, z'
_cell_length_a     30.294961
_cell_length_b     30.669945
_cell_length_c     31.798591
_cell_angle_alpha  102.66165
_cell_angle_beta   78.343095
_cell_angle_gamma 107.13978
loop_
_atom_site_label
_atom_site_type_symbol
_atom_site_fract_x
_atom_site_fract_y
_atom_site_fract_z
_atom_type_partial_charge
C0 C 0.36884 0.39993 0.38009 0.0
C1 C 0.31833 0.40453 0.44975 0.0
C2 C 0.33068 0.37983 0.40822 0.0
C3 C 0.34319 0.45082 0.46149 0.0
C4 C 0.39516 0.44575 0.39247 0.0
C5 C 0.38137 0.47147 0.4328 0.0
N6 N 0.3822 0.37357 0.34207 0.0
C7 C 0.42338 0.38972 0.31656 0.0
C8 C 0.43559 0.46369 0.3647 0.0
C9 C 0.45015 0.43526 0.32691 0.0
Gd10 Gd 0.24267 0.25983 0.24346 0.0
Gd11 Gd 0.33343 0.29848 0.32635 0.0
N12 N 0.30703 0.33515 0.39575 0.0
C13 C 0.28256 0.38137 0.47878 0.0
C14 C 0.27411 0.31161 0.42476 0.0
C15 C 0.26088 0.3345 0.46647 0.0
H16 H 0.25802 0.27531 0.41552 0.0
H17 H 0.23416 0.31594 0.48915 0.0
H18 H 0.33058 0.29154 0.16441 0.0
H19 H 0.4361 0.36707 0.28872 0.0
H20 H 0.36548 0.25579 0.09279 0.0
H21 H 0.27263 0.39881 0.51125 0.0
H22 H 0.33393 0.47055 0.49309 0.0
H23 H 0.14779 0.17807 0.27795 0.0
H24 H 0.45673 0.49875 0.37298 0.0
H25 H 0.48239 0.44813 0.30615 0.0
H26 H 0.27051 0.09897 0.0726 0.0
H27 H 0.40095 0.50684 0.44273 0.0
H28 H 0.14159 0.05425 0.18344 0.0
H29 H 0.10974 0.096 0.25325 0.0
N30 N 0.20242 0.1822 0.22382 0.0
C31 C 0.2198 0.16028 0.18467 0.0
C32 C 0.16296 0.15997 0.24805 0.0
C33 C 0.1589 0.09016 0.19435 0.0
C34 C 0.14088 0.11358 0.23387 0.0
C35 C 0.19857 0.11353 0.16903 0.0
H36 H 0.20152 0.05574 0.11621 0.0
N37 N 0.27935 0.22952 0.17606 0.0
C38 C 0.25884 0.18474 0.15983 0.0
C39 C 0.31653 0.18885 0.09506 0.0
C40 C 0.27742 0.163 0.1191 0.0
C41 C 0.31613 0.2555 0.15206 0.0
C42 C 0.33571 0.23539 0.11146 0.0
O43 O 0.27295 0.33527 0.34576 0.0
O44 O 0.21073 0.29605 0.30752 0.0
O45 O 0.23644 0.30649 0.20358 0.0
O46 O 0.17746 0.24963 0.21957 0.0
O47 O 0.2784 0.22928 0.32514 0.0
O48 O 0.21153 0.23643 0.30858 0.0
O49 O 0.29845 0.21843 0.2342 0.0
O50 O 0.36491 0.26859 0.25792 0.0
O51 O 0.33774 0.24287 0.35601 0.0
O52 O 0.39651 0.30311 0.3514 0.0
O53 O 0.29139 0.33237 0.25069 0.0
O54 O 0.36044 0.32588 0.26267 0.0
C55 C 0.22923 0.32811 0.33887 0.0
C56 C 0.23294 0.22285 0.33353 0.0
C57 C 0.16134 0.31896 0.21322 0.0
C58 C 0.13097 0.37638 0.19278 0.0
C59 C 0.10198 0.35042 0.26305 0.0
C60 C 0.13182 0.32151 0.25331 0.0
C61 C 0.1011 0.37716 0.23309 0.0
C62 C 0.16129 0.34689 0.18334 0.0
C63 C 0.1921 0.28722 0.20238 0.0
C64 C 0.25658 0.11632 0.10375 0.0
C65 C 0.21731 0.09168 0.12863 0.0
H66 H 0.3319 0.17334 0.06366 0.0
C67 C 0.34456 0.23057 0.23274 0.0
C68 C 0.33715 0.34471 0.2444 0.0
C69 C 0.41234 0.23095 0.34502 0.0
C70 C 0.44202 0.16912 0.35591 0.0
C71 C 0.46736 0.20044 0.28828 0.0
C72 C 0.43935 0.23108 0.3036 0.0
C73 C 0.46878 0.16967 0.31416 0.0
C74 C 0.41364 0.19994 0.37097 0.0
C75 C 0.38127 0.26164 0.36104 0.0
H76 H 0.07891 0.35172 0.29386 0.0
H77 H 0.13152 0.30089 0.27705 0.0
H78 H 0.07604 0.39767 0.2415 0.0
H79 H 0.18514 0.3456 0.15301 0.0
H80 H 0.48827 0.20072 0.25637 0.0
H81 H 0.43878 0.25479 0.28314 0.0
H82 H 0.49171 0.14705 0.30181 0.0
H83 H 0.39222 0.19965 0.40271 0.0
C84 C 0.88412 0.19658 0.17608 0.0
C85 C 0.96013 0.25218 0.17658 0.0
C86 C 0.91446 0.2345 0.19741 0.0
C87 C 0.97465 0.23156 0.13404 0.0
C88 C 0.89877 0.17555 0.13348 0.0
C89 C 0.94408 0.19336 0.11257 0.0
N90 N 0.84025 0.1804 0.19687 0.0
C91 C 0.80984 0.14251 0.17748 0.0
C92 C 0.86742 0.13721 0.11313 0.0
C93 C 0.82286 0.12048 0.13534 0.0
Gd94 Gd 0.75064 0.31589 0.2912 0.0
Gd95 Gd 0.82107 0.22104 0.26668 0.0
N96 N 0.899 0.25454 0.23823 0.0
C97 C 0.98993 0.29004 0.19917 0.0
C98 C 0.92876 0.28994 0.26108 0.0
C99 C 0.97427 0.30864 0.24177 0.0
H100 H 0.91821 0.30367 0.2944 0.0
H101 H 0.99731 0.33719 0.25997 0.0
H102 H 0.65454 0.23224 0.26188 0.0
H103 H 0.77581 0.12859 0.19481 0.0
H104 H 0.57664 0.19491 0.29639 0.0
H105 H 1.02523 0.30464 0.1843 0.0
H106 H 1.00954 0.24481 0.11752 0.0
H107 H 0.79482 0.40603 0.36527 0.0
H108 H 0.87739 0.12008 0.08045 0.0
H109 H 0.79859 0.09047 0.12011 0.0
H110 H 0.56461 0.28029 0.44194 0.0
H111 H 0.95587 0.17775 0.0798 0.0
H112 H 0.69396 0.40765 0.48085 0.0
H113 H 0.77169 0.44092 0.44125 0.0
N114 N 0.73135 0.35293 0.36239 0.0
C115 C 0.6882 0.3344 0.38332 0.0
C116 C 0.76117 0.39077 0.38254 0.0
C117 C 0.70404 0.392 0.44762 0.0
C118 C 0.748 0.41084 0.42541 0.0
C119 C 0.67347 0.3534 0.42662 0.0
H120 H 0.61701 0.3475 0.48087 0.0
N121 N 0.67401 0.27827 0.31954 0.0
C122 C 0.65868 0.29611 0.36131 0.0
C123 C 0.58424 0.23898 0.35872 0.0
C124 C 0.6136 0.27646 0.38215 0.0
C125 C 0.64444 0.2436 0.29588 0.0
C126 C 0.59956 0.22292 0.31524 0.0
O127 O 0.83666 0.2686 0.21563 0.0
O128 O 0.82433 0.33681 0.25629 0.0
O129 O 0.72446 0.3325 0.2399 0.0
O130 O 0.73769 0.38341 0.29812 0.0
O131 O 0.83576 0.27874 0.32619 0.0
O132 O 0.82279 0.34372 0.31067 0.0
O133 O 0.74376 0.27343 0.34324 0.0
O134 O 0.74679 0.20459 0.30045 0.0
O135 O 0.84767 0.20541 0.31894 0.0
O136 O 0.82816 0.15199 0.26429 0.0
O137 O 0.73833 0.2603 0.23037 0.0
O138 O 0.7499 0.19384 0.24358 0.0
C139 C 0.8431 0.31379 0.22068 0.0
C140 C 0.84109 0.32408 0.3334 0.0
C141 C 0.67369 0.38025 0.26406 0.0
C142 C 0.62048 0.39847 0.22653 0.0
C143 C 0.59508 0.381 0.29992 0.0
C144 C 0.63904 0.37535 0.30068 0.0
C145 C 0.58575 0.39262 0.26309 0.0
C146 C 0.66396 0.39107 0.22708 0.0
C147 C 0.71951 0.37216 0.26226 0.0
C148 C 0.59905 0.29509 0.42541 0.0
C149 C 0.62887 0.33342 0.44757 0.0
H150 H 0.54939 0.22291 0.37357 0.0
C151 C 0.7334 0.2284 0.33784 0.0
C152 C 0.73193 0.21491 0.22187 0.0
C153 C 0.81587 0.12867 0.33317 0.0
C154 C 0.81675 0.09045 0.39322 0.0
C155 C 0.74632 0.07262 0.3602 0.0
C156 C 0.76893 0.10398 0.33173 0.0
C157 C 0.77003 0.06569 0.39061 0.0
C158 C 0.83946 0.12186 0.36409 0.0
C159 C 0.84069 0.16149 0.30275 0.0
H160 H 0.56843 0.37708 0.3282 0.0
H161 H 0.64579 0.36725 0.32972 0.0
H162 H 0.55203 0.39849 0.2638 0.0
H163 H 0.69066 0.39406 0.19866 0.0
H164 H 0.71013 0.05377 0.35886 0.0
H165 H 0.74975 0.10886 0.30859 0.0
H166 H 0.75154 0.0418 0.41275 0.0
H167 H 0.8757 0.14084 0.36523 0.0
C168 C 0.90342 0.86921 0.19448 0.0
C169 C 0.90654 0.8203 0.12317 0.0
C170 C 0.88301 0.83095 0.16556 0.0
C171 C 0.95123 0.84812 0.11052 0.0
C172 C 0.94808 0.8975 0.18167 0.0
C173 C 0.97198 0.88653 0.13971 0.0
N174 N 0.87928 0.87928 0.23474 0.0
C175 C 0.89694 0.91809 0.26305 0.0
C176 C 0.96714 0.93637 0.21124 0.0
C177 C 0.94131 0.94686 0.25198 0.0
Gd178 Gd 0.77315 0.73338 0.32385 0.0
Gd179 Gd 0.80513 0.82885 0.24947 0.0
N180 N 0.84034 0.8037 0.17919 0.0
C181 C 0.88447 0.78185 0.09483 0.0
C182 C 0.81774 0.7675 0.15113 0.0
C183 C 0.83975 0.75557 0.10879 0.0
H184 H 0.78289 0.74776 0.16146 0.0
H185 H 0.8221 0.72629 0.08687 0.0
H186 H 0.80828 0.8139 0.40915 0.0
H187 H 0.87636 0.92765 0.29374 0.0
H188 H 0.77464 0.84412 0.48321 0.0
H189 H 0.90145 0.77245 0.06204 0.0
H190 H 0.96999 0.84031 0.07817 0.0
H191 H 0.68903 0.64332 0.28433 0.0
H192 H 1.00137 0.95894 0.20264 0.0
H193 H 0.95527 0.97745 0.27465 0.0
H194 H 0.61641 0.74941 0.49948 0.0
H195 H 1.00637 0.9078 0.12937 0.0
H196 H 0.56714 0.63063 0.38056 0.0
H197 H 0.60679 0.60428 0.30748 0.0
N198 N 0.69505 0.6933 0.34221 0.0
C199 C 0.67445 0.70743 0.38308 0.0
C200 C 0.67163 0.65629 0.31548 0.0
C201 C 0.60306 0.64841 0.37022 0.0
C202 C 0.62524 0.63356 0.32887 0.0
C203 C 0.62773 0.68551 0.39802 0.0
H204 H 0.57128 0.68475 0.45215 0.0
N205 N 0.74513 0.76491 0.39466 0.0
C206 C 0.70029 0.74391 0.41021 0.0
C207 C 0.70678 0.79644 0.47874 0.0
C208 C 0.67975 0.75951 0.45257 0.0
C209 C 0.77214 0.79949 0.42064 0.0
C210 C 0.75326 0.8162 0.46285 0.0
O211 O 0.8535 0.77832 0.22989 0.0
O212 O 0.81254 0.71141 0.25706 0.0
O213 O 0.81858 0.71858 0.36066 0.0
O214 O 0.7647 0.6629 0.33134 0.0
O215 O 0.73752 0.77169 0.24605 0.0
O216 O 0.75316 0.70719 0.25757 0.0
O217 O 0.7238 0.78188 0.3363 0.0
O218 O 0.77059 0.85125 0.3188 0.0
O219 O 0.75199 0.83403 0.2153 0.0
O220 O 0.80639 0.895 0.2342 0.0
O221 O 0.84328 0.78622 0.32368 0.0
O222 O 0.83031 0.85326 0.31512 0.0
C223 C 0.84793 0.734 0.23139 0.0
C224 C 0.73195 0.72673 0.23814 0.0
C225 C 0.7896 0.6508 0.39241 0.0
C226 C 0.81922 0.60921 0.4326 0.0
C227 C 0.73975 0.61728 0.45335 0.0
C228 C 0.7465 0.64224 0.41969 0.0
C229 C 0.77574 0.6006 0.45971 0.0
C230 C 0.82572 0.63462 0.39916 0.0
C231 C 0.79786 0.67438 0.35518 0.0
C232 C 0.63305 0.73797 0.46725 0.0
C233 C 0.60719 0.70108 0.44015 0.0
H234 H 0.6924 0.80975 0.51134 0.0
C235 C 0.73283 0.82751 0.34117 0.0
C236 C 0.85243 0.83147 0.33157 0.0
C237 C 0.73392 0.90614 0.22814 0.0
C238 C 0.68308 0.94294 0.2052 0.0
C239 C 0.68603 0.94848 0.28233 0.0
C240 C 0.71868 0.92232 0.27183 0.0
C241 C 0.66834 0.95879 0.24938 0.0
C242 C 0.71601 0.9164 0.195 0.0
C243 C 0.76842 0.87852 0.21641 0.0
H244 H 0.70645 0.61054 0.47435 0.0
H245 H 0.71811 0.65427 0.41473 0.0
H246 H 0.76945 0.58079 0.48563 0.0
H247 H 0.85916 0.64229 0.37835 0.0
H248 H 0.67456 0.96105 0.31616 0.0
H249 H 0.73218 0.91488 0.29769 0.0
H250 H 0.64368 0.97981 0.25853 0.0
H251 H 0.72748 0.90327 0.16128 0.0
C252 C 0.32891 0.63998 0.29569 0.0
C253 C 0.32019 0.58237 0.23044 0.0
C254 C 0.32497 0.62848 0.25217 0.0
C255 C 0.31756 0.54775 0.25409 0.0
C256 C 0.32852 0.60598 0.31937 0.0
C257 C 0.32177 0.55956 0.29856 0.0
N258 N 0.33633 0.68518 0.31412 0.0
C259 C 0.34649 0.69939 0.35568 0.0
C260 C 0.33646 0.61999 0.36275 0.0
C261 C 0.3461 0.66703 0.3808 0.0
Gd262 Gd 0.25524 0.82544 0.29063 0.0
Gd263 Gd 0.33249 0.73776 0.27181 0.0
N264 N 0.32901 0.66313 0.23047 0.0
C265 C 0.31946 0.57283 0.18548 0.0
C266 C 0.33172 0.65455 0.1862 0.0
C267 C 0.32549 0.60917 0.16323 0.0
H268 H 0.33746 0.6827 0.16871 0.0
H269 H 0.32512 0.60217 0.12847 0.0
H270 H 0.33356 0.92252 0.26592 0.0
H271 H 0.3543 0.73569 0.36978 0.0
H272 H 0.34824 0.97594 0.21356 0.0
H273 H 0.31537 0.53783 0.16755 0.0
H274 H 0.31351 0.51204 0.2381 0.0
H275 H 0.14104 0.7757 0.30232 0.0
H276 H 0.33647 0.59501 0.38213 0.0
H277 H 0.35334 0.67841 0.414 0.0
H278 H 0.21012 0.92482 0.1448 0.0
H279 H 0.32096 0.53281 0.31623 0.0
H280 H 0.08244 0.81048 0.2061 0.0
H281 H 0.07283 0.76846 0.26693 0.0
N282 N 0.18853 0.8196 0.26065 0.0
C283 C 0.19403 0.8446 0.22887 0.0
C284 C 0.14534 0.79394 0.27566 0.0
C285 C 0.11241 0.81339 0.22124 0.0
C286 C 0.10679 0.78978 0.2557 0.0
C287 C 0.15622 0.84213 0.20808 0.0
H288 H 0.13442 0.86831 0.15979 0.0
N289 N 0.2702 0.88009 0.24423 0.0
C290 C 0.23649 0.876 0.22029 0.0
C291 C 0.28407 0.94168 0.18733 0.0
C292 C 0.24254 0.90639 0.19089 0.0
C293 C 0.30871 0.91706 0.24395 0.0
C294 C 0.3169 0.9476 0.21468 0.0
O295 O 0.27678 0.73295 0.33227 0.0
O296 O 0.21792 0.76006 0.31919 0.0
O297 O 0.22423 0.88078 0.3248 0.0
O298 O 0.2504 0.84431 0.3614 0.0
O299 O 0.27509 0.71277 0.22792 0.0
O300 O 0.22062 0.75644 0.25103 0.0
O301 O 0.32571 0.83637 0.2487 0.0
O302 O 0.32897 0.76545 0.21174 0.0
O303 O 0.4048 0.73333 0.25733 0.0
O304 O 0.39 0.79952 0.26906 0.0
O305 O 0.32849 0.84866 0.30852 0.0
O306 O 0.32568 0.78662 0.33651 0.0
C307 C 0.2333 0.73682 0.34083 0.0
C308 C 0.23467 0.72083 0.22656 0.0
C309 C 0.27484 0.92668 0.3743 0.0
C310 C 0.2941 1.01013 0.3865 0.0
C311 C 0.33991 0.97177 0.41267 0.0
C312 C 0.30835 0.92922 0.40018 0.0
C313 C 0.33313 1.01268 0.4055 0.0
C314 C 0.27373 0.96751 0.36204 0.0
C315 C 0.24069 0.88266 0.36015 0.0
C316 C 0.20602 0.90215 0.1679 0.0
C317 C 0.16289 0.87001 0.17648 0.0
H318 H 0.29012 0.96577 0.16514 0.0
C319 C 0.33693 0.81 0.21212 0.0
C320 C 0.3395 0.83157 0.33827 0.0
C321 C 0.45126 0.79062 0.21552 0.0
C322 C 0.46816 0.77394 0.13653 0.0
C323 C 0.50504 0.84889 0.1757 0.0
C324 C 0.48157 0.83512 0.21527 0.0
C325 C 0.49879 0.8183 0.13635 0.0
C326 C 0.44428 0.76085 0.17622 0.0
C327 C 0.4217 0.77746 0.25565 0.0
H328 H 0.36651 0.9735 0.43161 0.0
H329 H 0.30968 0.8988 0.41118 0.0
H330 H 0.35178 0.0455 0.42246 0.0
H331 H 0.24694 0.96595 0.34328 0.0
H332 H 0.52814 0.88324 0.17554 0.0
H333 H 0.48617 0.85941 0.24543 0.0
H334 H 0.51861 0.82865 0.10612 0.0
H335 H 0.42135 0.72634 0.17676 0.0
C336 C 0.36331 0.67798 0.6769 0.0
C337 C 0.44354 0.7244 0.66466 0.0
C338 C 0.39861 0.71677 0.68954 0.0
C339 C 0.45207 0.69325 0.62635 0.0
C340 C 0.37186 0.64652 0.63854 0.0
C341 C 0.4163 0.65456 0.61323 0.0
N342 N 0.32105 0.6704 0.70266 0.0
C343 C 0.28585 0.63208 0.69204 0.0
C344 C 0.33566 0.60754 0.62708 0.0
C345 C 0.2925 0.60029 0.65398 0.0
Gd346 Gd 0.24271 0.82186 0.78617 0.0
Gd347 Gd 0.3141 0.72506 0.76634 0.0
N348 N 0.38917 0.74662 0.72661 0.0
C349 C 0.4786 0.76304 0.67917 0.0
C350 C 0.42343 0.7839 0.74129 0.0
C351 C 0.46848 0.79283 0.71767 0.0
H352 H 0.41632 0.80697 0.77112 0.0
H353 H 0.49542 0.82262 0.72927 0.0
H354 H 0.16611 0.77578 0.71299 0.0
H355 H 0.25293 0.62537 0.71345 0.0
H356 H 0.08454 0.72977 0.71242 0.0
H357 H 0.51356 0.77011 0.661 0.0
H358 H 0.48629 0.69869 0.60671 0.0
H359 H 0.24873 0.88196 0.88696 0.0
H360 H 0.34085 0.58257 0.59787 0.0
H361 H 0.26453 0.56992 0.6457 0.0
H362 H 1.02064 0.73623 0.86366 0.0
H363 H 0.4235 0.63075 0.58368 0.0
H364 H 0.1172 0.83787 0.96645 0.0
H365 H 0.19881 0.88627 0.95884 0.0
N366 N 0.19603 0.8316 0.85457 0.0
C367 C 0.15082 0.80624 0.85772 0.0
C368 C 0.21308 0.86109 0.88999 0.0
C369 C 0.1389 0.83602 0.93487 0.0
C370 C 0.18493 0.86347 0.9307 0.0
C371 C 0.1211 0.80734 0.89804 0.0
H372 H 0.05122 0.7806 0.93084 0.0
N373 N 0.16323 0.78261 0.7816 0.0
C374 C 0.13405 0.78043 0.82008 0.0
C375 C 0.06915 0.73578 0.78226 0.0
C376 C 0.08643 0.75616 0.82154 0.0
C377 C 0.14493 0.76801 0.74341 0.0
C378 C 0.09824 0.74289 0.74298 0.0
O379 O 0.33179 0.76693 0.71207 0.0
O380 O 0.31679 0.83423 0.75081 0.0
O381 O 0.22629 0.85851 0.74184 0.0
O382 O 0.24881 0.89603 0.8036 0.0
O383 O 0.34053 0.78981 0.8159 0.0
O384 O 0.30523 0.84972 0.82256 0.0
O385 O 0.23435 0.78086 0.84114 0.0
O386 O 0.23982 0.71081 0.80118 0.0
O387 O 0.3384 0.71904 0.82397 0.0
O388 O 0.32375 0.65959 0.77253 0.0
O389 O 0.2384 0.7662 0.72425 0.0
O390 O 0.24097 0.70242 0.74884 0.0
C391 C 0.33233 0.81018 0.71433 0.0
C392 C 0.33605 0.83216 0.83258 0.0
C393 C 0.23378 0.942 0.757 0.0
C394 C 0.21704 0.98503 0.70815 0.0
C395 C 0.24761 0.0257 0.77527 0.0
C396 C 0.24837 0.98389 0.7853 0.0
C397 C 0.23212 0.02638 0.73706 0.0
C398 C 0.21841 0.94284 0.71816 0.0
C399 C 0.23689 0.89821 0.76731 0.0
C400 C 0.05714 0.75516 0.86188 0.0
C401 C 0.07449 0.78064 0.9001 0.0
H402 H 0.03288 0.71692 0.78191 0.0
C403 C 0.22506 0.73562 0.83757 0.0
C404 C 0.22773 0.72081 0.7214 0.0
C405 C 0.38777 0.66931 0.80863 0.0
C406 C 0.44101 0.65636 0.84973 0.0
C407 C 0.46308 0.65781 0.77215 0.0
C408 C 0.42001 0.66471 0.7705 0.0
C409 C 0.47357 0.65338 0.81148 0.0
C410 C 0.39885 0.66602 0.84817 0.0
C411 C 0.34234 0.67717 0.80804 0.0
H412 H 0.259 0.05774 0.79729 0.0
H413 H 0.26081 0.98447 0.81511 0.0
H414 H 0.23194 0.05933 0.73006 0.0
H415 H 0.20675 0.91075 0.69621 0.0
H416 H 0.48773 0.65432 0.74259 0.0
H417 H 0.41183 0.66562 0.73939 0.0
H418 H 0.50605 0.64528 0.81141 0.0
H419 H 0.37379 0.66944 0.87752 0.0
C420 C 0.39402 0.34594 0.67539 0.0
C421 C 0.38753 0.29434 0.60572 0.0
C422 C 0.36759 0.30991 0.64839 0.0
C423 C 0.43424 0.31534 0.59059 0.0
C424 C 0.44083 0.3673 0.6601 0.0
C425 C 0.46078 0.35172 0.61767 0.0
N426 N 0.37396 0.3601 0.7165 0.0
C427 C 0.39814 0.3965 0.74327 0.0
C428 C 0.46617 0.40389 0.68787 0.0
C429 C 0.44462 0.4187 0.72953 0.0
Gd430 Gd 0.26205 0.22503 0.80942 0.0
Gd431 Gd 0.29554 0.3211 0.73549 0.0
N432 N 0.32268 0.28948 0.66423 0.0
C433 C 0.35986 0.25814 0.57948 0.0
C434 C 0.29503 0.25566 0.63819 0.0
C435 C 0.31331 0.239 0.59569 0.0
H436 H 0.25876 0.24205 0.64969 0.0
H437 H 0.29132 0.21174 0.5753 0.0
H438 H 0.27985 0.30345 0.89958 0.0
H439 H 0.38135 0.40937 0.77478 0.0
H440 H 0.23783 0.32156 0.97382 0.0
H441 H 0.3739 0.24518 0.54652 0.0
H442 H 0.45015 0.30377 0.55791 0.0
H443 H 0.19363 0.12687 0.76016 0.0
H444 H 0.50216 0.42127 0.67729 0.0
H445 H 0.46365 0.44753 0.75094 0.0
H446 H 0.09153 0.20498 0.97556 0.0
H447 H 0.49671 0.36769 0.60542 0.0
H448 H 0.06655 0.09004 0.84743 0.0
H449 H 0.11527 0.0749 0.77619 0.0
N450 N 0.18815 0.17301 0.82055 0.0
C451 C 0.16243 0.18134 0.86034 0.0
C452 C 0.1721 0.13489 0.79075 0.0
C453 C 0.10061 0.11354 0.84028 0.0
C454 C 0.12795 0.10493 0.79997 0.0
C455 C 0.11791 0.15179 0.87126 0.0
H456 H 0.0581 0.13864 0.92174 0.0
N457 N 0.22383 0.24734 0.87904 0.0
C458 C 0.18114 0.21898 0.89074 0.0
C459 C 0.1766 0.2654 0.96271 0.0
C460 C 0.15606 0.2277 0.93277 0.0
C461 C 0.24498 0.2828 0.90862 0.0
C462 C 0.22139 0.29284 0.95066 0.0
O463 O 0.34451 0.27188 0.72259 0.0
O464 O 0.29724 0.20279 0.74048 0.0
O465 O 0.31439 0.22015 0.84457 0.0
O466 O 0.26074 0.15885 0.82455 0.0
O467 O 0.22513 0.2684 0.7347 0.0
O468 O 0.23966 0.20206 0.74281 0.0
O469 O 0.21421 0.27582 0.82905 0.0
O470 O 0.25612 0.34281 0.80243 0.0
O471 O 0.24987 0.337 0.69959 0.0
O472 O 0.30481 0.39184 0.72811 0.0
O473 O 0.32946 0.28224 0.81445 0.0
O474 O 0.31598 0.34745 0.80198 0.0
C475 C 0.33536 0.22622 0.71833 0.0
C476 C 0.21629 0.22316 0.72721 0.0
C477 C 0.3335 0.14875 0.83059 0.0
C478 C 0.38555 0.11314 0.85277 0.0
C479 C 0.38344 0.10923 0.77585 0.0
C480 C 0.34953 0.13395 0.78679 0.0
C481 C 0.40146 0.09891 0.80855 0.0
C482 C 0.35153 0.13832 0.86342 0.0
C483 C 0.29843 0.17553 0.84277 0.0
C484 C 0.11147 0.19866 0.94352 0.0
C485 C 0.09241 0.1609 0.91283 0.0
H486 H 0.15841 0.27332 0.9953 0.0
C487 C 0.22045 0.3203 0.82791 0.0
C488 C 0.33518 0.32724 0.82283 0.0
C489 C 0.2784 0.40527 0.6683 0.0
C490 C 0.24752 0.44666 0.62873 0.0
C491 C 0.32774 0.44063 0.60814 0.0
C492 C 0.32151 0.41503 0.64119 0.0
C493 C 0.29117 0.45662 0.60203 0.0
C494 C 0.24163 0.42085 0.66182 0.0
C495 C 0.27099 0.38109 0.70511 0.0
H496 H 0.39561 0.09783 0.74192 0.0
H497 H 0.33562 0.14137 0.76126 0.0
H498 H 0.4272 0.07907 0.79923 0.0
H499 H 0.33932 0.15024 0.89727 0.0
H500 H 0.36109 0.44836 0.58735 0.0
H501 H 0.35034 0.40342 0.64586 0.0
H502 H 0.29713 0.47689 0.57652 0.0
H503 H 0.20818 0.41235 0.68247 0.0
C504 C 0.84183 0.19361 0.84949 0.0
C505 C 0.77443 0.13449 0.87502 0.0
C506 C 0.79526 0.16888 0.84879 0.0
C507 C 0.80038 0.12661 0.90323 0.0
C508 C 0.86811 0.18537 0.87739 0.0
C509 C 0.84699 0.15211 0.90455 0.0
N510 N 0.86184 0.22459 0.82191 0.0
C511 C 0.90768 0.2486 0.82053 0.0
C512 C 0.91505 0.21041 0.8767 0.0
C513 C 0.93491 0.2421 0.84811 0.0
Gd514 Gd 0.74788 0.32473 0.78123 0.0
Gd515 Gd 0.81277 0.23346 0.7783 0.0
N516 N 0.77064 0.1778 0.82178 0.0
C517 C 0.72843 0.1084 0.87145 0.0
C518 C 0.72659 0.15106 0.81661 0.0
C519 C 0.70459 0.11641 0.8418 0.0
H520 H 0.70816 0.15733 0.79373 0.0
H521 H 0.66929 0.09595 0.83836 0.0
H522 H 0.80151 0.41861 0.85015 0.0
H523 H 0.92327 0.27233 0.79774 0.0
H524 H 0.85796 0.49398 0.8447 0.0
H525 H 0.71131 0.08148 0.89087 0.0
H526 H 0.78487 0.1005 0.92382 0.0
H527 H 0.70884 0.28721 0.68489 0.0
H528 H 0.93638 0.20515 0.89774 0.0
H529 H 0.97127 0.26124 0.84708 0.0
H530 H 0.87427 0.50827 0.6951 0.0
H531 H 0.86663 0.14534 0.92624 0.0
H532 H 0.77685 0.3896 0.60372 0.0
H533 H 0.72047 0.31468 0.6148 0.0
N534 N 0.75853 0.34584 0.71259 0.0
C535 C 0.78832 0.38799 0.7079 0.0
C536 C 0.73352 0.31995 0.68014 0.0
C537 C 0.77174 0.37783 0.63451 0.0
C538 C 0.73993 0.33546 0.6406 0.0
C539 C 0.79628 0.40475 0.66833 0.0
H540 H 0.83518 0.46088 0.63344 0.0
N541 N 0.79977 0.39918 0.78174 0.0
C542 C 0.81033 0.41481 0.743 0.0
C543 C 0.85963 0.48679 0.77557 0.0
C544 C 0.84094 0.45893 0.73888 0.0
C545 C 0.81445 0.42819 0.81839 0.0
C546 C 0.8456 0.4717 0.81567 0.0
O547 O 0.76541 0.24594 0.84184 0.0
O548 O 0.70805 0.27138 0.82545 0.0
O549 O 0.71026 0.37103 0.82527 0.0
O550 O 0.68394 0.33229 0.7662 0.0
O551 O 0.75819 0.21429 0.73186 0.0
O552 O 0.70308 0.25311 0.76329 0.0
O553 O 0.79671 0.30207 0.72007 0.0
O554 O 0.85764 0.29293 0.74559 0.0
O555 O 0.85715 0.18652 0.75311 0.0
O556 O 0.80642 0.19071 0.71497 0.0
O557 O 0.79313 0.33759 0.83529 0.0
O558 O 0.85443 0.30672 0.80145 0.0
C559 C 0.7234 0.2522 0.85079 0.0
C560 C 0.71617 0.21984 0.73511 0.0
C561 C 0.63184 0.32561 0.83114 0.0
C562 C 0.59836 0.30068 0.9014 0.0
C563 C 0.56713 0.25642 0.83573 0.0
C564 C 0.59959 0.28752 0.81096 0.0
C565 C 0.56652 0.26277 0.88076 0.0
C566 C 0.62993 0.33219 0.87612 0.0
C567 C 0.67338 0.35257 0.80569 0.0
C568 C 0.85055 0.47469 0.69887 0.0
C569 C 0.82814 0.44777 0.66379 0.0
H570 H 0.88324 0.52084 0.77371 0.0
C571 C 0.84202 0.30785 0.71737 0.0
C572 C 0.83691 0.33581 0.83265 0.0
C573 C 0.80539 0.11654 0.72522 0.0
C574 C 0.81066 0.03865 0.72153 0.0
C575 C 0.73552 0.05202 0.72279 0.0
C576 C 0.75732 0.09901 0.72241 0.0
C577 C 0.76232 1.02147 0.72129 0.0
C578 C 0.83018 0.08676 0.7297 0.0
C579 C 0.83058 0.16532 0.72306 0.0
H580 H 0.54267 0.22706 0.81992 0.0
H581 H 0.60045 0.28088 0.77596 0.0
H582 H 0.54081 0.23872 0.89953 0.0
H583 H 0.65369 0.36263 0.89135 0.0
H584 H 0.69861 0.03878 0.72061 0.0
H585 H 0.73656 0.12124 0.71969 0.0
H586 H 0.74663 0.98452 0.71456 0.0
H587 H 0.86743 0.10056 0.7305 0.0
C588 C 0.85407 0.88926 0.87071 0.0
C589 C 0.79901 0.89254 0.93776 0.0
C590 C 0.81487 0.86801 0.89737 0.0
C591 C 0.82264 0.93901 0.95067 0.0
C592 C 0.87828 0.9357 0.88389 0.0
C593 C 0.86213 0.96053 0.9238 0.0
N594 N 0.8689 0.86436 0.83227 0.0
C595 C 0.90865 0.88324 0.80627 0.0
C596 C 0.91825 0.9557 0.85672 0.0
C597 C 0.93365 0.92924 0.8179 0.0
Gd598 Gd 0.72862 0.74777 0.73908 0.0
Gd599 Gd 0.8233 0.78812 0.81565 0.0
N600 N 0.79183 0.82342 0.88345 0.0
C601 C 0.75993 0.86952 0.964 0.0
C602 C 0.75522 0.80006 0.90971 0.0
C603 C 0.73825 0.82295 0.9501 0.0
H604 H 0.73866 0.76404 0.89908 0.0
H605 H 0.70851 0.80468 0.97047 0.0
H606 H 0.80339 0.77478 0.64973 0.0
H607 H 0.92164 0.86272 0.77683 0.0
H608 H 0.82865 0.73631 0.57595 0.0
H609 H 0.74659 0.8872 0.99523 0.0
H610 H 0.81083 0.95853 0.98148 0.0
H611 H 0.62978 0.67451 0.77728 0.0
H612 H 0.93781 0.99128 0.86568 0.0
H613 H 0.96498 0.94416 0.79707 0.0
H614 H 0.73078 0.58074 0.56777 0.0
H615 H 0.88018 0.9963 0.93436 0.0
H616 H 0.61079 0.54578 0.6886 0.0
H617 H 0.58566 0.59296 0.75812 0.0
N618 N 0.68188 0.67194 0.72181 0.0
C619 C 0.69496 0.64736 0.68259 0.0
C620 C 0.64237 0.6534 0.74819 0.0
C621 C 0.63096 0.58113 0.69753 0.0
C622 C 0.61675 0.60758 0.73685 0.0
C623 C 0.66995 0.60121 0.6694 0.0
H624 H 0.66519 0.54155 0.61761 0.0
N625 N 0.75463 0.7141 0.66806 0.0
C626 C 0.73201 0.66929 0.65457 0.0
C627 C 0.78064 0.67019 0.58433 0.0
C628 C 0.74493 0.64586 0.61257 0.0
C629 C 0.78784 0.73857 0.63995 0.0
C630 C 0.80184 0.71689 0.59794 0.0
O631 O 0.76872 0.83113 0.82645 0.0
O632 O 0.70153 0.77848 0.80852 0.0
O633 O 0.7152 0.80521 0.71868 0.0
O634 O 0.66209 0.73995 0.71912 0.0
O635 O 0.77373 0.71561 0.81372 0.0
O636 O 0.70407 0.72225 0.8037 0.0
O637 O 0.7868 0.70758 0.72006 0.0
O638 O 0.85259 0.75469 0.74866 0.0
O639 O 0.82855 0.7423 0.85658 0.0
O640 O 0.89023 0.79332 0.83434 0.0
O641 O 0.78428 0.8156 0.7297 0.0
O642 O 0.85119 0.81107 0.74998 0.0
C643 C 0.72245 0.81863 0.83013 0.0
C644 C 0.72791 0.70357 0.82143 0.0
C645 C 0.66158 0.7861 0.66894 0.0
C646 C 0.63539 0.83109 0.62942 0.0
C647 C 0.64817 0.75607 0.59419 0.0
C648 C 0.66178 0.75132 0.63197 0.0
C649 C 0.63473 0.79556 0.59305 0.0
C650 C 0.64841 0.82591 0.66755 0.0
C651 C 0.67384 0.78141 0.70967 0.0
C652 C 0.72113 0.59943 0.59979 0.0
C653 C 0.6838 0.57711 0.6282 0.0
H654 H 0.79117 0.65367 0.55163 0.0
C655 C 0.83253 0.71851 0.72145 0.0
C656 C 0.83017 0.82598 0.72563 0.0
C657 C 0.89923 0.7211 0.84162 0.0
C658 C 0.92779 0.66269 0.8617 0.0
C659 C 0.93687 0.67047 0.78563 0.0
C660 C 0.91549 0.70676 0.79769 0.0
C661 C 0.94315 0.64865 0.81731 0.0
C662 C 0.90524 0.6988 0.87359 0.0
C663 C 0.87377 0.75742 0.85395 0.0
H664 H 0.64777 0.72901 0.56585 0.0
H665 H 0.67189 0.72041 0.63246 0.0
H666 H 0.6233 0.79846 0.56397 0.0
H667 H 0.64865 0.85295 0.696 0.0
H668 H 0.94893 0.65941 0.75159 0.0
H669 H 0.9115 0.72345 0.77264 0.0
H670 H 0.95993 0.62059 0.80702 0.0
H671 H 0.89294 0.70996 0.90759 0.0
Fe672 Fe 1.02409 0.12619 0.54155 0.0
O673 O 1.02839 0.06162 0.51437 0.0
Fe674 Fe 0.08737 0.04441 0.52412 0.0
Fe675 Fe 0.98115 1.00792 0.5377 0.0
O676 O 0.03317 0.06433 0.51571 0.0
O677 O 0.03959 0.9894 0.54463 0.0
O678 O 0.03562 0.98663 0.54225 0.0
Fe679 Fe 0.0432 0.92445 0.52056 0.0
C680 C 0.96723 0.07312 0.61336 0.0
O681 O 0.97141 0.10674 0.50509 0.0
O682 O 0.92928 0.03735 0.52668 0.0
O683 O 0.09885 0.94345 0.47197 0.0
O684 O 0.08687 1.00725 0.46275 0.0
O685 O 0.13086 0.10348 0.49604 0.0
O686 O 0.07886 0.14426 0.49243 0.0
O687 O 0.97401 0.97091 0.47664 0.0
O688 O 0.99529 0.90719 0.47675 0.0
C689 C 0.11879 0.13391 0.48028 0.0
O690 O 0.09369 0.94555 0.56073 0.0
O691 O 0.13647 1.01642 0.54113 0.0
O692 O 0.97069 0.10527 0.59247 0.0
O693 O 0.99055 0.04455 0.59779 0.0
C694 C 0.9342 0.07266 0.50753 0.0
C695 C 0.97487 0.92939 0.46068 0.0
C696 C 0.94797 0.91925 0.58246 0.0
O697 O 0.93711 0.951 0.56791 0.0
O698 O 0.98693 0.90738 0.56909 0.0
C699 C 0.11081 0.97827 0.45249 0.0
O700 O 0.08935 0.08015 0.58645 0.0
O701 O 0.0748 0.14535 0.58206 0.0
C702 C 0.12897 0.98203 0.56233 0.0
C703 C 0.09322 0.12294 0.59951 0.0
Fe704 Fe 0.53013 0.97114 1.01969 0.0
O705 O 0.57125 0.02904 0.99796 0.0
Fe706 Fe 0.42534 1.00515 0.06036 0.0
Fe707 Fe 0.64027 0.04755 0.99563 0.0
O708 O 0.49353 1.01606 0.0552 0.0
O709 O 0.49412 1.02217 0.05787 0.0
O710 O 0.57192 0.03542 1.00072 0.0
Fe711 Fe 0.5357 0.08015 0.03723 0.0
C712 C 0.61153 0.98872 0.06804 0.0
O713 O 0.57801 0.93278 0.97716 0.0
O714 O 0.63575 0.98957 0.94608 0.0
O715 O 0.49837 0.06914 0.98668 0.0
O716 O 0.42572 0.05094 1.02135 0.0
O717 O 0.41946 0.95327 1.00586 0.0
O718 O 0.49058 0.95407 0.96843 0.0
O719 O 0.63897 0.09711 0.96084 0.0
O720 O 0.58516 0.1337 1.00573 0.0
C721 C 0.446 0.94281 0.97075 0.0
O722 O 0.4886 0.11888 0.08099 0.0
O723 O 0.43036 0.06189 0.111 0.0
O724 O 0.56791 0.98393 0.07053 0.0
O725 O 0.64061 1.00301 0.03583 0.0
C726 C 0.6157 0.94616 0.94881 0.0
C727 C 0.61915 0.13115 0.97296 0.0
C728 C 0.61964 0.1078 0.08517 0.0
O729 O 0.64596 0.10093 0.04905 0.0
O730 O 0.57507 0.09445 0.08819 0.0
C731 C 0.45495 0.06492 0.98917 0.0
O732 O 0.42604 0.95541 0.09455 0.0
O733 O 0.48053 0.91804 0.05204 0.0
C734 C 0.45098 0.10536 0.10936 0.0
C735 C 0.44587 0.92146 0.084 0.0
Fe736 Fe 0.04181 0.58267 0.03924 0.0
O737 O 0.9968 0.52641 0.0606 0.0
Fe738 Fe 0.14162 0.54073 0.99926 0.0
Fe739 Fe 0.9282 0.51295 0.0615 0.0
O740 O 0.07447 0.53429 1.00448 0.0
O741 O 0.07303 0.52757 1.0009 0.0
O742 O 0.99543 0.51965 0.05715 0.0
Fe743 Fe 1.02821 0.47135 1.0224 0.0
C744 C 0.95873 0.6127 0.10969 0.0
O745 O 1.00619 0.57217 0.98807 0.0
O746 O 0.93272 0.5595 1.02078 0.0
O747 O 0.07324 0.42931 0.97986 0.0
O748 O 0.13298 0.48457 0.94914 0.0
O749 O 0.14475 0.59116 0.96416 0.0
O750 O 0.09411 0.63324 1.0059 0.0
O751 O 0.91963 0.45955 1.00877 0.0
O752 O 0.98922 0.45655 0.9706 0.0
C753 C 0.12693 0.62645 0.97302 0.0
O754 O 0.06464 0.48188 0.07348 0.0
O755 O 0.13727 0.49286 0.03839 0.0
O756 O 0.9967 0.62489 0.08122 0.0
O757 O 0.93612 0.56978 0.1111 0.0
C758 C 0.96446 0.57376 0.99013 0.0
C759 C 0.94462 0.44683 0.97351 0.0
C760 C 0.94287 0.42802 0.08894 0.0
O761 O 0.92506 0.46333 0.09739 0.0
O762 O 0.97576 0.42098 0.05611 0.0
C763 C 0.11067 0.4416 0.9508 0.0
O764 O 0.15022 0.59309 0.053 0.0
O765 O 0.08069 0.59745 0.09098 0.0
C766 C 0.1064 0.47956 0.06991 0.0
C767 C 0.12524 0.6064 0.08813 0.0
Fe768 Fe 0.53465 0.51666 0.98406 0.0
O769 O 0.57585 0.55264 1.0287 0.0
Fe770 Fe 0.4229 0.50084 0.04155 0.0
Fe771 Fe 0.6403 0.54828 1.0268 0.0
O772 O 0.48749 0.49807 0.03508 0.0
O773 O 0.48747 0.49639 0.03928 0.0
O774 O 0.5758 0.55104 0.03275 0.0
Fe775 Fe 0.52851 0.53317 0.08388 0.0
C776 C 0.59385 0.45272 0.98548 0.0
O777 O 0.59042 0.54214 0.93547 0.0
O778 O 0.65243 0.58055 0.97305 0.0
O779 O 0.50758 0.58948 0.08331 0.0
O780 O 0.43103 0.56294 0.08434 0.0
O781 O 0.43586 0.53835 0.99224 0.0
O782 O 0.51177 0.57336 0.98472 0.0
O783 O 0.64318 0.60575 0.07487 0.0
O784 O 0.57812 0.57694 0.12341 0.0
C785 C 0.47031 0.57076 0.98022 0.0
O786 O 0.4727 0.50823 0.13246 0.0
O787 O 0.41145 0.46761 0.0944 0.0
O788 O 0.55534 0.45992 0.98381 0.0
O789 O 0.63164 0.48501 0.9858 0.0
C790 C 0.63136 0.5715 0.9392 0.0
C791 C 0.61792 0.60665 0.11322 0.0
C792 C 0.59286 0.4812 0.09121 0.0
O793 O 0.62733 0.51265 0.07753 0.0
O794 O 0.55168 0.47698 0.08473 0.0
C795 C 0.46825 0.5959 0.0836 0.0
O796 O 0.41979 0.44428 0.99204 0.0
O797 O 0.48486 0.47403 0.94407 0.0
C798 C 0.43238 0.47785 0.12851 0.0
C799 C 0.44482 0.44436 0.9536 0.0
Fe800 Fe 1.0302 0.47102 0.52228 0.0
O801 O 1.0003 0.51774 0.56454 0.0
Fe802 Fe 0.0638 0.52164 0.42887 0.0
Fe803 Fe 0.99922 0.52838 0.62904 0.0
O804 O 0.06063 0.52492 0.49127 0.0
O805 O 0.06337 0.53116 0.49319 0.0
O806 O 1.00296 0.5242 0.56645 0.0
Fe807 Fe 0.03492 0.57841 0.53614 0.0
C808 C 0.96175 0.42484 0.59912 0.0
O809 O 0.08543 0.49158 0.55551 0.0
O810 O 0.05181 0.49549 0.62495 0.0
O811 O 0.07448 0.62837 0.49464 0.0
O812 O 0.11146 0.58493 0.4369 0.0
O813 O 0.10889 0.48033 0.42404 0.0
O814 O 0.07087 0.43085 0.47301 0.0
O815 O 0.0489 0.59097 0.63662 0.0
O816 O 0.09102 0.59921 0.57165 0.0
C817 C 0.10293 0.44279 0.43967 0.0
O818 O 0.97983 0.55998 0.50328 0.0
O819 O 1.0134 0.55728 0.43404 0.0
O820 O 0.99315 0.42147 0.5642 0.0
O821 O 0.95382 0.46329 0.62134 0.0
C822 C 0.08619 0.49092 0.59504 0.0
C823 C 0.08736 0.6064 0.61322 0.0
C824 C 0.95974 0.60574 0.61702 0.0
O825 O 0.95214 0.56751 0.63213 0.0
O826 O 0.99463 0.61892 0.58603 0.0
C827 C 0.10615 0.62396 0.45994 0.0
O828 O 1.01207 0.46086 0.42126 0.0
O829 O 0.97387 0.44743 0.48683 0.0
C830 C 0.97919 0.56173 0.46408 0.0
C831 C 0.97599 0.44159 0.44543 0.0
Fe832 Fe 0.52729 0.96989 0.52586 0.0
O833 O 0.49748 1.01946 0.5633 0.0
Fe834 Fe 0.57908 1.01965 0.43437 0.0
Fe835 Fe 0.48738 0.02836 0.6282 0.0
O836 O 0.56555 1.02312 0.49716 0.0
O837 O 0.56709 0.02947 0.49894 0.0
O838 O 0.49937 0.02613 0.56525 0.0
Fe839 Fe 0.53819 0.07971 0.53653 0.0
C840 C 0.44362 0.92817 0.59462 0.0
O841 O 0.57568 0.98657 0.56701 0.0
O842 O 0.52924 0.986 0.63034 0.0
O843 O 0.58415 0.12724 0.4963 0.0
O844 O 0.62746 0.08101 0.44947 0.0
O845 O 0.61888 0.97668 0.43776 0.0
O846 O 0.56931 0.92618 0.48127 0.0
O847 O 0.5416 0.08623 0.64106 0.0
O848 O 0.58866 0.09774 0.57862 0.0
C849 C 0.60677 0.93781 0.45212 0.0
O850 O 0.48945 0.06614 0.49523 0.0
O851 O 0.53505 0.05781 0.43072 0.0
O852 O 0.47942 0.92187 0.56493 0.0
O853 O 0.43763 0.96823 0.61421 0.0
C854 C 0.56529 0.97732 0.60525 0.0
C855 C 0.581 0.10435 0.62037 0.0
C856 C 0.46075 0.11257 0.6118 0.0
O857 O 0.44892 0.0739 0.62673 0.0
O858 O 0.49745 0.12369 0.58182 0.0
C859 C 0.61791 0.12048 0.4645 0.0
O860 O 0.52542 0.96064 0.4209 0.0
O861 O 0.47803 0.95087 0.48352 0.0
C862 C 0.49836 0.06652 0.45434 0.0
C863 C 0.48559 0.94385 0.4419 0.0
C864 C 0.22315 0.17385 0.39223 0.0
C865 C 0.20472 0.19861 0.37048 0.0
H866 H 0.2113 0.13409 0.4437 0.0
C867 C 0.15891 0.20218 0.38586 0.0
H868 H 0.25842 0.17042 0.38152 0.0
C869 C 0.13238 0.18206 0.42157 0.0
C870 C 0.15019 0.15695 0.44349 0.0
H871 H 0.14345 0.22125 0.37062 0.0
H872 H 0.09724 0.18601 0.43162 0.0
C873 C 0.19615 0.15305 0.42808 0.0
C874 C 0.83932 0.04072 0.43529 0.0
C875 C 0.8416 0.08476 0.42692 0.0
H876 H 0.86617 1.00192 0.46839 0.0
C877 C 0.86896 0.12402 0.45044 0.0
H878 H 0.81815 1.00972 0.41793 0.0
C879 C 0.89582 0.11954 0.47926 0.0
C880 C 0.89657 0.07562 0.48534 0.0
H881 H 0.87043 0.15844 0.44588 0.0
H882 H 0.91772 0.15084 0.4955 0.0
C883 C 0.86661 0.03619 0.46432 0.0
C884 C 0.89209 0.90507 0.37776 0.0
C885 C 0.88718 0.85776 0.36136 0.0
H886 H 0.92437 0.96487 0.42065 0.0
C887 C 0.91388 0.83485 0.37586 0.0
H888 H 0.87165 0.92377 0.36808 0.0
C889 C 0.94355 0.85825 0.40692 0.0
C890 C 0.94754 0.90531 0.42419 0.0
H891 H 0.91108 0.79837 0.36399 0.0
H892 H 0.96247 0.83911 0.41814 0.0
C893 C 0.92214 0.92858 0.40841 0.0
C894 C 0.22585 0.04166 0.39374 0.0
C895 C 0.25743 0.03063 0.41414 0.0
H896 H 0.15344 0.03241 0.38964 0.0
C897 C 0.24017 1.01232 0.45285 0.0
H898 H 0.23811 0.05671 0.36433 0.0
C899 C 0.19312 0.99085 0.46155 0.0
C900 C 0.16108 0.99696 0.43862 0.0
H901 H 0.26324 1.00459 0.47051 0.0
H902 H 0.18225 0.96872 0.48593 0.0
C903 C 0.17758 0.02555 0.40667 0.0
C904 C 0.16494 1.01192 0.67348 0.0
C905 C 0.1976 0.98623 0.66908 0.0
H906 H 0.11706 0.02929 0.64301 0.0
C907 C 0.21017 0.96129 0.62775 0.0
H908 H 0.15367 0.03063 0.70496 0.0
C909 C 0.19014 0.96195 0.59173 0.0
C910 C 0.15738 0.9876 0.5966 0.0
H911 H 0.23516 0.94108 0.6234 0.0
H912 H 0.19917 0.94148 0.5605 0.0
C913 C 0.14451 1.01184 0.63787 0.0
C914 C 0.18679 0.1532 0.67254 0.0
C915 C 0.1824 0.19613 0.69706 0.0
H916 H 0.16442 0.09861 0.62058 0.0
C917 C 0.14768 0.2146 0.68992 0.0
H918 H 0.21399 0.13861 0.67629 0.0
C919 C 0.11795 0.19057 0.65899 0.0
C920 C 0.12265 0.14777 0.63417 0.0
H921 H 0.14368 0.24783 0.70806 0.0
H922 H 0.09163 0.20572 0.65421 0.0
C923 C 0.15785 0.12983 0.64101 0.0
C924 C 0.88541 1.01884 0.70455 0.0
C925 C 0.84225 1.01385 0.6916 0.0
H926 H 0.95971 0.04652 0.69072 0.0
C927 C 0.8417 1.01642 0.64816 0.0
H928 H 0.88686 1.01478 0.7372 0.0
C929 C 0.88179 0.04072 0.62477 0.0
C930 C 0.92424 0.05452 0.6412 0.0
H931 H 0.80886 1.01015 0.63629 0.0
H932 H 0.87902 0.04944 0.59452 0.0
C933 C 0.92654 0.03965 0.67932 0.0
C934 C 0.84146 0.87654 0.66771 0.0
C935 C 0.85962 0.85231 0.69027 0.0
H936 H 0.85439 0.91694 0.61653 0.0
C937 C 0.9064 0.85096 0.67691 0.0
H938 H 0.80554 0.87835 0.67685 0.0
C939 C 0.93388 0.87216 0.64209 0.0
C940 C 0.91614 0.89625 0.61912 0.0
H941 H 0.92189 0.83258 0.69285 0.0
H942 H 0.96962 0.8697 0.63343 0.0
C943 C 0.86946 0.89859 0.6329 0.0
C944 C 0.35226 0.15332 0.18544 0.0
C945 C 0.37356 0.19993 0.20138 0.0
H946 H 0.35861 0.0888 0.14555 0.0
C947 C 0.42196 0.21603 0.18605 0.0
H948 H 0.31548 0.13883 0.19588 0.0
C949 C 0.44747 0.18673 0.15593 0.0
C950 C 0.42586 0.13976 0.14052 0.0
H951 H 0.44017 0.25161 0.19698 0.0
H952 H 0.48428 0.20077 0.14526 0.0
C953 C 0.37758 0.12418 0.15622 0.0
C954 C 0.88793 0.32007 0.14361 0.0
C955 C 0.87412 0.34085 0.18672 0.0
H956 H 0.92103 0.33085 0.07827 0.0
C957 C 0.88848 0.38934 0.19729 0.0
H958 H 0.87789 0.28276 0.13426 0.0
C959 C 0.91314 0.41638 0.16573 0.0
C960 C 0.92455 0.39631 0.12204 0.0
H961 H 0.87965 0.40692 0.23005 0.0
H962 H 0.92208 0.45369 0.17547 0.0
C963 C 0.91293 0.34757 0.11151 0.0
C964 C 0.61728 0.95448 0.17466 0.0
C965 C 0.6645 0.95443 0.17 0.0
H966 H 0.56335 0.96474 0.14633 0.0
C967 C 0.69396 0.96588 0.13155 0.0
H968 H 0.59349 0.94565 0.20372 0.0
C969 C 0.67672 0.97693 0.09868 0.0
C970 C 0.62943 0.97665 0.10316 0.0
H971 H 0.73066 0.96704 0.12704 0.0
H972 H 0.70067 0.98571 0.06967 0.0
C973 C 0.5999 0.96522 0.14161 0.0
C974 C 0.22519 0.66454 0.15557 0.0
C975 C 0.20485 0.68973 0.19304 0.0
H976 H 0.21702 0.61927 0.09462 0.0
C977 C 0.15661 0.68611 0.19658 0.0
H978 H 0.26202 0.66684 0.15056 0.0
C979 C 0.13004 0.6586 0.16355 0.0
C980 C 0.15099 0.63403 0.12574 0.0
H981 H 0.13925 0.70448 0.22494 0.0
H982 H 0.09335 0.65723 0.16735 0.0
C983 C 0.199 0.63736 0.12283 0.0
C984 C 0.35861 0.90378 0.88979 0.0
C985 C 0.36745 0.86215 0.8653 0.0
H986 H 0.37589 0.96103 0.94167 0.0
C987 C 0.40554 0.84921 0.87378 0.0
H988 H 0.33035 0.91572 0.88434 0.0
C989 C 0.43293 0.87644 0.9062 0.0
C990 C 0.4224 0.91682 0.93182 0.0
H991 H 0.4139 0.81764 0.85578 0.0
H992 H 0.46108 0.86479 0.91246 0.0
C993 C 0.38506 0.93014 0.92276 0.0
C994 C 0.19703 0.39571 0.85686 0.0
C995 C 0.18871 0.34844 0.85865 0.0
H996 H 0.17959 0.45981 0.88169 0.0
C997 C 0.15074 0.33032 0.88988 0.0
H998 H 0.22495 0.4118 0.83347 0.0
C999 C 0.12397 0.35899 0.9192 0.0
C1000 C 0.13363 0.4068 0.91784 0.0
H1001 H 0.1418 0.29403 0.89199 0.0
H1002 H 0.09641 0.34383 0.94335 0.0
C1003 C 0.17032 0.42377 0.88521 0.0
C1004 C 0.64502 0.20564 0.88472 0.0
C1005 C 0.69189 0.23023 0.88768 0.0
H1006 H 0.58451 0.15551 0.91007 0.0
C1007 C 0.71151 0.22635 0.92284 0.0
H1008 H 0.62946 0.20618 0.85713 0.0
C1009 C 0.68623 0.19685 0.95253 0.0
C1010 C 0.64021 0.17065 0.94852 0.0
H1011 H 0.74767 0.24409 0.92591 0.0
H1012 H 0.70368 0.19253 0.97733 0.0
C1013 C 0.61939 0.17627 0.9149 0.0
C1014 C 0.98018 0.63141 0.89195 0.0
C1015 C 0.93649 0.64008 0.8951 0.0
H1016 H 1.02308 0.60382 0.91888 0.0
C1017 C 0.90149 0.62624 0.92967 0.0
H1018 H 1.00812 0.64216 0.8661 0.0
C1019 C 0.91 0.60391 0.96018 0.0
C1020 C 0.95383 0.59529 0.95696 0.0
H1021 H 0.86735 0.63213 0.93278 0.0
H1022 H 0.88238 0.59377 0.98646 0.0
C1023 C 0.98875 0.60942 0.9224 0.0
C1024 C 0.1146 0.4466 0.17542 0.0
C1025 C 0.12907 0.40531 0.16083 0.0
H1026 H 0.0953 0.50173 0.1582 0.0
C1027 C 0.13953 0.39119 0.11544 0.0
H1028 H 0.10776 0.4601 0.20979 0.0
C1029 C 0.13445 0.41674 0.08591 0.0
C1030 C 0.11764 0.45629 0.10092 0.0
H1031 H 0.15005 0.35952 0.10237 0.0
H1032 H 0.14157 0.40433 0.05125 0.0
C1033 C 0.10803 0.47112 0.14588 0.0
C1034 C 0.18722 0.73239 0.91706 0.0
C1035 C 0.19438 0.71069 0.87309 0.0
H1036 H 0.15963 0.72326 0.98384 0.0
C1037 C 0.17363 0.66295 0.86296 0.0
H1038 H 0.20266 0.76909 0.92615 0.0
C1039 C 0.1491 0.63717 0.89556 0.0
C1040 C 0.14418 0.65788 0.93975 0.0
H1041 H 0.17739 0.64487 0.82964 0.0
H1042 H 0.13534 0.60014 0.8862 0.0
C1043 C 0.16233 0.70621 0.95015 0.0
C1044 C 0.45151 0.1043 0.88468 0.0
C1045 C 0.40372 0.10114 0.8877 0.0
H1046 H 0.50525 0.09551 0.9142 0.0
C1047 C 0.37313 0.08602 0.92429 0.0
H1048 H 0.47609 0.11628 0.85713 0.0
C1049 C 0.38982 0.07436 0.95706 0.0
C1050 C 0.43761 0.07755 0.95418 0.0
H1051 H 0.33604 0.08253 0.92735 0.0
H1052 H 0.36507 0.06269 0.98464 0.0
C1053 C 0.46827 0.09267 0.91755 0.0
C1054 C 0.91464 0.37131 0.86289 0.0
C1055 C 0.86577 0.3649 0.86757 0.0
H1056 H 0.97806 0.40186 0.89163 0.0
C1057 C 0.84421 0.38623 0.90681 0.0
H1058 H 0.93284 0.35581 0.83314 0.0
C1059 C 0.87006 0.41267 0.94008 0.0
C1060 C 0.91884 0.41908 0.93589 0.0
H1061 H 0.80685 0.38212 0.91225 0.0
H1062 H 0.85125 0.42802 0.96954 0.0
C1063 C 0.94079 0.39803 0.89646 0.0
C1064 C 0.64565 0.83404 0.87673 0.0
C1065 C 0.69387 0.85005 0.86076 0.0
H1066 H 0.58336 0.84993 0.91684 0.0
C1067 C 0.71499 0.8972 0.87487 0.0
H1068 H 0.62762 0.79807 0.86721 0.0
C1069 C 0.68945 0.92701 0.90279 0.0
C1070 C 0.64128 0.91148 0.91896 0.0
H1071 H 0.75167 0.91156 0.86391 0.0
H1072 H 0.70812 0.96283 0.91206 0.0
C1073 C 0.62003 0.86396 0.90559 0.0
C1074 C 0.91802 0.72402 0.16968 0.0
C1075 C 0.87999 0.70598 0.20091 0.0
H1076 H 0.97267 0.71044 0.11655 0.0
C1077 C 0.87193 0.65881 0.20303 0.0
H1078 H 0.92679 0.76024 0.1673 0.0
C1079 C 0.89888 0.63076 0.17501 0.0
C1080 C 0.93563 0.64762 0.14239 0.0
H1081 H 0.844 0.64276 0.22644 0.0
H1082 H 0.88976 0.5948 0.17878 0.0
C1083 C 0.94507 0.69535 0.14071 0.0
C1084 C 0.40112 0.87719 0.18982 0.0
C1085 C 0.37136 0.8332 0.17753 0.0
H1086 H 0.44901 0.9383 0.16972 0.0
C1087 C 0.37281 0.81482 0.1327 0.0
H1088 H 0.40204 0.89219 0.2239 0.0
C1089 C 0.40076 0.8416 0.10111 0.0
C1090 C 0.42807 0.88686 0.11397 0.0
H1091 H 0.3504 0.78104 0.1221 0.0
H1092 H 0.3986 0.82817 0.06692 0.0
C1093 C 0.42879 0.90351 0.15867 0.0
C1094 C 0.68351 0.1384 0.18421 0.0
C1095 C 0.70079 0.18698 0.18841 0.0
H1096 H 0.64378 0.07548 0.14901 0.0
C1097 C 0.68758 0.20907 0.16021 0.0
H1098 H 0.69206 0.11995 0.20553 0.0
C1099 C 0.65947 0.1835 0.12816 0.0
C1100 C 0.64294 0.13506 0.1236 0.0
H1101 H 0.69979 0.24629 0.16221 0.0
H1102 H 0.65151 0.2016 0.10614 0.0
C1103 C 0.65518 0.11283 0.15216 0.0
C1104 C 0.6535 0.65311 0.85782 0.0
C1105 C 0.70275 0.66693 0.84898 0.0
H1106 H 0.59242 0.61029 0.8907 0.0
C1107 C 0.72779 0.64599 0.86779 0.0
H1108 H 0.63268 0.66927 0.84555 0.0
C1109 C 0.70449 0.61356 0.89544 0.0
C1110 C 0.65532 0.59991 0.90426 0.0
H1111 H 0.7656 0.65543 0.86209 0.0
H1112 H 0.72511 0.59966 0.9106 0.0
C1113 C 0.63017 0.61936 0.88419 0.0
C1114 C 0.41003 0.61392 0.9122 0.0
C1115 C 0.44785 0.64275 0.88932 0.0
H1116 H 0.38737 0.56954 0.95945 0.0
C1117 C 0.49241 0.65359 0.90165 0.0
H1118 H 0.37528 0.60439 0.90344 0.0
C1119 C 0.4995 0.63289 0.93388 0.0
C1120 C 0.46224 0.60079 0.95378 0.0
H1121 H 0.52204 0.67655 0.88524 0.0
H1122 H 0.53442 0.6403 0.94167 0.0
C1123 C 0.41709 0.59346 0.94422 0.0
C1124 C 0.37001 0.40489 0.86486 0.0
C1125 C 0.36589 0.35692 0.85483 0.0
H1126 H 0.39966 0.47 0.90305 0.0
C1127 C 0.39023 0.33813 0.87657 0.0
H1128 H 0.35097 0.4206 0.84978 0.0
C1129 C 0.41744 0.3667 0.90801 0.0
C1130 C 0.4214 0.41446 0.91742 0.0
H1131 H 0.38759 0.30135 0.86992 0.0
H1132 H 0.43481 0.35149 0.92537 0.0
C1133 C 0.39787 0.43334 0.89541 0.0
C1134 C 0.633 0.34362 0.96698 0.0
C1135 C 0.59314 0.31417 0.94947 0.0
H1136 H 0.66713 0.41568 0.98579 0.0
C1137 C 0.55033 0.32389 0.96764 0.0
H1138 H 0.66601 0.33451 0.9577 0.0
C1139 C 0.55033 0.3699 0.98348 0.0
C1140 C 0.59318 0.40428 0.98443 0.0
H1141 H 0.51782 0.29967 0.95964 0.0
H1142 H 0.51726 0.3788 0.9899 0.0
C1143 C 0.63405 0.39043 0.98157 0.0
C1144 C 0.6499 0.44965 0.17058 0.0
C1145 C 0.61342 0.41597 0.1892 0.0
H1146 H 0.67237 0.49554 0.12474 0.0
C1147 C 0.57063 0.40088 0.17281 0.0
H1148 H 0.68305 0.4627 0.18283 0.0
C1149 C 0.56425 0.42027 0.13922 0.0
C1150 C 0.6004 0.45526 0.12192 0.0
H1151 H 0.5421 0.37446 0.18614 0.0
H1152 H 0.53087 0.4086 0.12743 0.0
C1153 C 0.64363 0.46873 0.13722 0.0
C1154 C 0.69829 0.64891 0.19662 0.0
C1155 C 0.69987 0.6963 0.2079 0.0
H1156 H 0.66936 0.5834 0.15892 0.0
C1157 C 0.67164 0.71368 0.18922 0.0
H1158 H 0.72037 0.63439 0.20932 0.0
C1159 C 0.64295 0.68417 0.1594 0.0
C1160 C 0.64166 0.63699 0.14872 0.0
H1161 H 0.67237 0.75006 0.19696 0.0
H1162 H 0.62262 0.69823 0.14406 0.0
C1163 C 0.6691 0.61954 0.16776 0.0
C1164 C 0.51095 0.72414 0.08573 0.0
C1165 C 0.46876 0.73651 0.0988 0.0
H1166 H 0.54369 0.66925 0.07291 0.0
C1167 C 0.42673 0.70241 0.09219 0.0
H1168 H 0.54399 0.74982 0.08902 0.0
C1169 C 0.42621 0.65563 0.08436 0.0
C1170 C 0.46779 0.64336 0.08188 0.0
H1171 H 0.39374 0.71157 0.10054 0.0
H1172 H 0.39327 0.62957 0.08367 0.0
C1173 C 0.51049 0.6777 0.07803 0.0
C1174 C 0.41156 0.39666 0.20972 0.0
C1175 C 0.36236 0.3823 0.21813 0.0
H1176 H 0.47229 0.44008 0.17701 0.0
C1177 C 0.33702 0.40342 0.19985 0.0
H1178 H 0.43253 0.38071 0.22207 0.0
C1179 C 0.35995 0.43617 0.17263 0.0
C1180 C 0.40901 0.44986 0.16365 0.0
H1181 H 0.29921 0.39376 0.2055 0.0
H1182 H 0.33914 0.45014 0.15774 0.0
C1183 C 0.43455 0.43068 0.18357 0.0
C1184 C 0.84752 0.64244 0.67555 0.0
C1185 C 0.8639 0.69032 0.69064 0.0
H1186 H 0.8642 0.57885 0.6417 0.0
C1187 C 0.91201 0.71069 0.67798 0.0
H1188 H 0.81112 0.62502 0.68428 0.0
C1189 C 0.94249 0.68431 0.65217 0.0
C1190 C 0.92652 0.63605 0.63878 0.0
H1191 H 0.92649 0.74732 0.68862 0.0
H1192 H 0.97914 0.70147 0.64439 0.0
C1193 C 0.87827 0.61583 0.6509 0.0
C1194 C 0.34161 0.87011 0.66942 0.0
C1195 C 0.35695 0.83421 0.67713 0.0
H1196 H 0.35499 0.92533 0.63423 0.0
C1197 C 0.39639 0.823 0.64993 0.0
H1198 H 0.31061 0.87873 0.68876 0.0
C1199 C 0.42322 0.85082 0.61922 0.0
C1200 C 0.40985 0.88928 0.61426 0.0
H1201 H 0.4082 0.79463 0.65411 0.0
H1202 H 0.45589 0.84421 0.60187 0.0
C1203 C 0.36705 0.89655 0.63776 0.0
C1204 C 0.17528 0.47583 0.6558 0.0
C1205 C 0.20753 0.46112 0.62095 0.0
H1206 H 0.11145 0.49692 0.67523 0.0
C1207 C 0.20009 0.45805 0.57818 0.0
H1208 H 0.18041 0.47932 0.68923 0.0
C1209 C 0.16109 0.46834 0.57027 0.0
C1210 C 0.12816 0.48199 0.60492 0.0
H1211 H 0.22366 0.44637 0.55056 0.0
H1212 H 0.15642 0.46457 0.53664 0.0
C1213 C 0.13586 0.48606 0.64786 0.0
C1214 C 0.63458 0.18462 0.71735 0.0
C1215 C 0.68276 0.18939 0.70495 0.0
H1216 H 0.56574 0.15492 0.70085 0.0
C1217 C 0.69794 0.16677 0.66314 0.0
H1218 H 0.62136 0.2013 0.74912 0.0
C1219 C 0.66562 0.14035 0.63461 0.0
C1220 C 0.61728 0.13521 0.64759 0.0
H1221 H 0.73484 0.16997 0.65225 0.0
H1222 H 0.67834 0.12317 0.6029 0.0
C1223 C 0.60253 0.15784 0.68944 0.0
C1224 C 0.88326 0.33734 0.39867 0.0
C1225 C 0.87219 0.35457 0.36549 0.0
H1226 H 0.92358 0.35157 0.45126 0.0
C1227 C 0.89228 0.40155 0.36237 0.0
H1228 H 0.86832 0.30139 0.40221 0.0
C1229 C 0.92388 0.42987 0.3901 0.0
C1230 C 0.93591 0.4126 0.42253 0.0
H1231 H 0.88494 0.41623 0.33734 0.0
H1232 H 0.94008 0.46533 0.38535 0.0
C1233 C 0.91448 0.36617 0.42715 0.0
C1234 C 0.71594 0.90164 0.38734 0.0
C1235 C 0.70048 0.85349 0.37363 0.0
H1236 H 0.7001 0.96429 0.42306 0.0
C1237 C 0.65404 0.83173 0.39087 0.0
H1238 H 0.75125 0.92019 0.37601 0.0
C1239 C 0.62386 0.85764 0.41881 0.0
C1240 C 0.63909 0.90633 0.43067 0.0
H1241 H 0.64035 0.79474 0.38158 0.0
H1242 H 0.58804 0.8398 0.42931 0.0
C1243 C 0.6862 0.92719 0.41497 0.0
C1244 C 0.21722 0.69386 0.4041 0.0
C1245 C 0.20064 0.71446 0.37715 0.0
H1246 H 0.20026 0.65087 0.45304 0.0
C1247 C 0.15253 0.71236 0.38494 0.0
H1248 H 0.25385 0.69508 0.39991 0.0
C1249 C 0.12166 0.68754 0.41648 0.0
C1250 C 0.13813 0.66461 0.44138 0.0
H1251 H 0.13824 0.72794 0.36521 0.0
H1252 H 0.08448 0.68326 0.41892 0.0
C1253 C 0.1865 0.66924 0.43545 0.0
C1254 C 0.45136 0.09363 0.36591 0.0
C1255 C 0.44583 0.1381 0.38421 0.0
H1256 H 0.47172 0.03545 0.37457 0.0
C1257 C 0.44845 0.15422 0.42891 0.0
H1258 H 0.44819 0.07955 0.33198 0.0
C1259 C 0.46053 0.12815 0.45367 0.0
C1260 C 0.47073 0.08594 0.43391 0.0
H1261 H 0.44455 0.18838 0.44407 0.0
H1262 H 0.46603 0.14295 0.48702 0.0
C1263 C 0.46414 0.06802 0.39042 0.0
C1264 C 0.64128 0.89583 0.59118 0.0
C1265 C 0.62216 0.87315 0.6271 0.0
H1266 H 0.63944 0.94751 0.55682 0.0
C1267 C 0.5884 0.88912 0.659 0.0
H1268 H 0.66789 0.8846 0.56648 0.0
C1269 C 0.5718 0.92526 0.65351 0.0
C1270 C 0.58897 0.94617 0.61614 0.0
H1271 H 0.57314 0.87212 0.68699 0.0
H1272 H 0.54392 0.93515 0.6774 0.0
C1273 C 0.62511 0.93209 0.58587 0.0
C1274 C 0.66889 0.16183 0.35871 0.0
C1275 C 0.6996 0.20462 0.37144 0.0
H1276 H 0.61703 0.10342 0.37879 0.0
C1277 C 0.6978 0.22384 0.41617 0.0
H1278 H 0.66856 0.14675 0.32456 0.0
C1279 C 0.66833 0.1985 0.44782 0.0
C1280 C 0.63982 0.15427 0.43472 0.0
H1281 H 0.72079 0.25732 0.42667 0.0
H1282 H 0.66987 0.21215 0.48206 0.0
C1283 C 0.63901 0.13733 0.38988 0.0
C1284 C 0.86673 0.59724 0.48261 0.0
C1285 C 0.8586 0.59374 0.44002 0.0
H1286 H 0.9109 0.59033 0.52344 0.0
C1287 C 0.88991 0.57805 0.4048 0.0
H1288 H 0.84388 0.60976 0.51043 0.0
C1289 C 0.92925 0.56739 0.41217 0.0
C1290 C 0.93763 0.57178 0.45489 0.0
H1291 H 0.88417 0.57424 0.37151 0.0
H1292 H 0.95299 0.55583 0.38455 0.0
C1293 C 0.9056 0.58633 0.48996 0.0
C1294 C 0.41133 0.89755 0.34992 0.0
C1295 C 0.37712 0.8597 0.36475 0.0
H1296 H 0.4725 0.95272 0.36201 0.0
C1297 C 0.37861 0.84977 0.4056 0.0
H1298 H 0.41136 0.9062 0.31865 0.0
C1299 C 0.41283 0.87762 0.43134 0.0
C1300 C 0.44747 0.91508 0.41614 0.0
H1301 H 0.3526 0.82103 0.4181 0.0
H1302 H 0.41273 0.86928 0.46274 0.0
C1303 C 0.44638 0.92431 0.37489 0.0
C1304 C 0.17628 0.35185 0.40942 0.0
C1305 C 0.1986 0.35804 0.3667 0.0
H1306 H 0.12882 0.37263 0.46603 0.0
C1307 C 0.18783 0.39084 0.3486 0.0
H1308 H 0.18225 0.32579 0.42404 0.0
C1309 C 0.15709 0.41735 0.37235 0.0
C1310 C 0.13482 0.41195 0.41531 0.0
H1311 H 0.20319 0.39598 0.31561 0.0
H1312 H 0.15042 0.44206 0.35641 0.0
C1313 C 0.1449 0.37832 0.43335 0.0
C1314 C 0.41428 0.22031 0.66945 0.0
C1315 C 0.36764 0.1994 0.68681 0.0
H1316 H 0.4802 0.2107 0.63204 0.0
C1317 C 0.35188 0.151 0.67452 0.0
H1318 H 0.42818 0.25742 0.67754 0.0
C1319 C 0.38157 0.12441 0.64858 0.0
C1320 C 0.42878 0.14452 0.63273 0.0
H1321 H 0.31635 0.13302 0.68589 0.0
H1322 H 0.36743 0.08721 0.64175 0.0
C1323 C 0.4443 0.19339 0.64289 0.0
C1324 C 0.86165 0.33126 0.64264 0.0
C1325 C 0.87567 0.33036 0.68201 0.0
H1326 H 0.87828 0.36177 0.58454 0.0
C1327 C 0.92193 0.3536 0.68845 0.0
H1328 H 0.82683 0.31247 0.63594 0.0
C1329 C 0.95193 0.38024 0.65822 0.0
C1330 C 0.93672 0.38411 0.62054 0.0
H1331 H 0.93415 0.35353 0.71817 0.0
H1332 H 0.98605 0.40067 0.66593 0.0
C1333 C 0.89153 0.35848 0.61257 0.0
C1334 C 0.16511 0.64833 0.70176 0.0
C1335 C 0.19525 0.69005 0.69069 0.0
H1336 H 0.10809 0.58982 0.6861 0.0
C1337 C 0.19228 0.70245 0.65131 0.0
H1338 H 0.16618 0.63757 0.73172 0.0
C1339 C 0.15903 0.67439 0.62447 0.0
C1340 C 0.12752 0.63378 0.63688 0.0
H1341 H 0.21513 0.73427 0.64168 0.0
H1342 H 0.15669 0.68546 0.59509 0.0
C1343 C 0.1316 0.62095 0.67556 0.0
loop_
_geom_bond_atom_site_label_1
_geom_bond_atom_site_label_2
_geom_bond_distance
_geom_bond_site_symmetry_2
_ccdc_geom_bond_type
C0 C2 1.422 . S
C0 C4 1.415 . S
C0 N6 1.369 . S
C1 C2 1.421 . S
C1 C3 1.417 . S
C1 C13 1.422 . S
C2 C0 1.422 . S
C2 C1 1.421 . S
C2 N12 1.359 . S
C3 C1 1.417 . S
C3 C5 1.329 . S
C3 H22 0.930 . S
C4 C0 1.415 . S
C4 C5 1.437 . S
C4 C8 1.413 . S
C5 C3 1.329 . S
C5 C4 1.437 . S
C5 H27 0.929 . S
N6 C0 1.369 . S
N6 C7 1.338 . S
N6 Gd11 2.622 . S
C7 N6 1.338 . S
C7 C9 1.378 . S
C7 H19 0.929 . S
C8 C4 1.413 . S
C8 C9 1.348 . S
C8 H24 0.931 . S
C9 C7 1.378 . S
C9 C8 1.348 . S
C9 H25 0.930 . S
Gd10 N30 2.622 . S
Gd10 N37 2.570 . S
Gd10 O44 2.353 . S
Gd10 O45 2.468 . S
Gd10 O46 2.427 . S
Gd10 O48 2.388 . S
Gd10 O49 2.386 . S
Gd10 O53 2.307 . S
Gd10 C63 2.805 . S
Gd11 N6 2.622 . S
Gd11 N12 2.570 . S
Gd11 O43 2.386 . S
Gd11 O47 2.307 . S
Gd11 O50 2.353 . S
Gd11 O51 2.468 . S
Gd11 O52 2.427 . S
Gd11 O54 2.388 . S
Gd11 C75 2.805 . S
N12 C2 1.359 . S
N12 Gd11 2.570 . S
N12 C14 1.343 . S
C13 C1 1.422 . S
C13 C15 1.321 . S
C13 H21 0.931 . S
C14 N12 1.343 . S
C14 C15 1.390 . S
C14 H16 0.931 . S
C15 C13 1.321 . S
C15 C14 1.390 . S
C15 H17 0.930 . S
H16 C14 0.931 . S
H17 C15 0.930 . S
H18 C41 0.931 . S
H19 C7 0.929 . S
H20 C42 0.930 . S
H21 C13 0.931 . S
H22 C3 0.930 . S
H23 C32 0.929 . S
H24 C8 0.931 . S
H25 C9 0.930 . S
H26 C64 0.930 . S
H27 C5 0.929 . S
H28 C33 0.931 . S
H29 C34 0.930 . S
N30 Gd10 2.622 . S
N30 C31 1.369 . S
N30 C32 1.338 . S
C31 N30 1.369 . S
C31 C35 1.415 . S
C31 C38 1.422 . S
C32 H23 0.929 . S
C32 N30 1.338 . S
C32 C34 1.378 . S
C33 H28 0.931 . S
C33 C34 1.348 . S
C33 C35 1.413 . S
C34 H29 0.930 . S
C34 C32 1.378 . S
C34 C33 1.348 . S
C35 C31 1.415 . S
C35 C33 1.413 . S
C35 C65 1.437 . S
H36 C65 0.929 . S
N37 Gd10 2.570 . S
N37 C38 1.359 . S
N37 C41 1.343 . S
C38 C31 1.422 . S
C38 N37 1.359 . S
C38 C40 1.421 . S
C39 C40 1.422 . S
C39 C42 1.321 . S
C39 H66 0.931 . S
C40 C38 1.421 . S
C40 C39 1.422 . S
C40 C64 1.417 . S
C41 H18 0.931 . S
C41 N37 1.343 . S
C41 C42 1.390 . S
C42 H20 0.930 . S
C42 C39 1.321 . S
C42 C41 1.390 . S
O43 Gd11 2.386 . S
O43 C55 1.265 . S
O44 Gd10 2.353 . S
O44 C55 1.242 . S
O45 Gd10 2.468 . S
O45 C63 1.263 . S
O46 Gd10 2.427 . S
O46 C63 1.252 . S
O47 Gd11 2.307 . S
O47 C56 1.261 . S
O48 Gd10 2.388 . S
O48 C56 1.252 . S
O49 Gd10 2.386 . S
O49 C67 1.265 . S
O50 Gd11 2.353 . S
O50 C67 1.242 . S
O51 Gd11 2.468 . S
O51 C75 1.263 . S
O52 Gd11 2.427 . S
O52 C75 1.252 . S
O53 Gd10 2.307 . S
O53 C68 1.261 . S
O54 Gd11 2.388 . S
O54 C68 1.252 . S
C55 O43 1.265 . S
C55 O44 1.242 . S
C56 O47 1.261 . S
C56 O48 1.252 . S
C57 C60 1.394 . S
C57 C62 1.370 . S
C57 C63 1.500 . S
C58 C61 1.383 . S
C58 C62 1.395 . S
C59 C60 1.396 . S
C59 C61 1.365 . S
C59 H76 0.929 . S
C60 C57 1.394 . S
C60 C59 1.396 . S
C60 H77 0.930 . S
C61 C58 1.383 . S
C61 C59 1.365 . S
C61 H78 0.931 . S
C62 C57 1.370 . S
C62 C58 1.395 . S
C62 H79 0.930 . S
C63 Gd10 2.805 . S
C63 O45 1.263 . S
C63 O46 1.252 . S
C63 C57 1.500 . S
C64 H26 0.930 . S
C64 C40 1.417 . S
C64 C65 1.329 . S
C65 C35 1.437 . S
C65 H36 0.929 . S
C65 C64 1.329 . S
H66 C39 0.931 . S
C67 O49 1.265 . S
C67 O50 1.242 . S
C68 O53 1.261 . S
C68 O54 1.252 . S
C69 C72 1.394 . S
C69 C74 1.370 . S
C69 C75 1.500 . S
C70 C73 1.383 . S
C70 C74 1.395 . S
C71 C72 1.396 . S
C71 C73 1.365 . S
C71 H80 0.929 . S
C72 C69 1.394 . S
C72 C71 1.396 . S
C72 H81 0.930 . S
C73 C70 1.383 . S
C73 C71 1.365 . S
C73 H82 0.931 . S
C74 C69 1.370 . S
C74 C70 1.395 . S
C74 H83 0.930 . S
C75 Gd11 2.805 . S
C75 O51 1.263 . S
C75 O52 1.252 . S
C75 C69 1.500 . S
H76 C59 0.929 . S
H77 C60 0.930 . S
H78 C61 0.931 . S
H79 C62 0.930 . S
H80 C71 0.929 . S
H81 C72 0.930 . S
H82 C73 0.931 . S
H83 C74 0.930 . S
C84 C86 1.422 . S
C84 C88 1.415 . S
C84 N90 1.369 . S
C85 C86 1.421 . S
C85 C87 1.417 . S
C85 C97 1.422 . S
C86 C84 1.422 . S
C86 C85 1.421 . S
C86 N96 1.359 . S
C87 C85 1.417 . S
C87 C89 1.329 . S
C87 H106 0.930 . S
C88 C84 1.415 . S
C88 C89 1.437 . S
C88 C92 1.413 . S
C89 C87 1.329 . S
C89 C88 1.437 . S
C89 H111 0.929 . S
N90 C84 1.369 . S
N90 C91 1.338 . S
N90 Gd95 2.622 . S
C91 N90 1.338 . S
C91 C93 1.378 . S
C91 H103 0.929 . S
C92 C88 1.413 . S
C92 C93 1.348 . S
C92 H108 0.931 . S
C93 C91 1.378 . S
C93 C92 1.348 . S
C93 H109 0.930 . S
Gd94 N114 2.622 . S
Gd94 N121 2.570 . S
Gd94 O128 2.353 . S
Gd94 O129 2.468 . S
Gd94 O130 2.427 . S
Gd94 O132 2.388 . S
Gd94 O133 2.386 . S
Gd94 O137 2.307 . S
Gd94 C147 2.805 . S
Gd95 N90 2.622 . S
Gd95 N96 2.570 . S
Gd95 O127 2.386 . S
Gd95 O131 2.307 . S
Gd95 O134 2.353 . S
Gd95 O135 2.468 . S
Gd95 O136 2.427 . S
Gd95 O138 2.388 . S
Gd95 C159 2.805 . S
N96 C86 1.359 . S
N96 Gd95 2.570 . S
N96 C98 1.343 . S
C97 C85 1.422 . S
C97 C99 1.321 . S
C97 H105 0.931 . S
C98 N96 1.343 . S
C98 C99 1.390 . S
C98 H100 0.931 . S
C99 C97 1.321 . S
C99 C98 1.390 . S
C99 H101 0.930 . S
H100 C98 0.931 . S
H101 C99 0.930 . S
H102 C125 0.931 . S
H103 C91 0.929 . S
H104 C126 0.930 . S
H105 C97 0.931 . S
H106 C87 0.930 . S
H107 C116 0.929 . S
H108 C92 0.931 . S
H109 C93 0.930 . S
H110 C148 0.930 . S
H111 C89 0.929 . S
H112 C117 0.931 . S
H113 C118 0.930 . S
N114 Gd94 2.622 . S
N114 C115 1.369 . S
N114 C116 1.338 . S
C115 N114 1.369 . S
C115 C119 1.415 . S
C115 C122 1.422 . S
C116 H107 0.929 . S
C116 N114 1.338 . S
C116 C118 1.378 . S
C117 H112 0.931 . S
C117 C118 1.348 . S
C117 C119 1.413 . S
C118 H113 0.930 . S
C118 C116 1.378 . S
C118 C117 1.348 . S
C119 C115 1.415 . S
C119 C117 1.413 . S
C119 C149 1.437 . S
H120 C149 0.929 . S
N121 Gd94 2.570 . S
N121 C122 1.359 . S
N121 C125 1.343 . S
C122 C115 1.422 . S
C122 N121 1.359 . S
C122 C124 1.421 . S
C123 C124 1.422 . S
C123 C126 1.321 . S
C123 H150 0.931 . S
C124 C122 1.421 . S
C124 C123 1.422 . S
C124 C148 1.417 . S
C125 H102 0.931 . S
C125 N121 1.343 . S
C125 C126 1.390 . S
C126 H104 0.930 . S
C126 C123 1.321 . S
C126 C125 1.390 . S
O127 Gd95 2.386 . S
O127 C139 1.265 . S
O128 Gd94 2.353 . S
O128 C139 1.242 . S
O129 Gd94 2.468 . S
O129 C147 1.263 . S
O130 Gd94 2.427 . S
O130 C147 1.252 . S
O131 Gd95 2.307 . S
O131 C140 1.261 . S
O132 Gd94 2.388 . S
O132 C140 1.252 . S
O133 Gd94 2.386 . S
O133 C151 1.265 . S
O134 Gd95 2.353 . S
O134 C151 1.242 . S
O135 Gd95 2.468 . S
O135 C159 1.263 . S
O136 Gd95 2.427 . S
O136 C159 1.252 . S
O137 Gd94 2.307 . S
O137 C152 1.261 . S
O138 Gd95 2.388 . S
O138 C152 1.252 . S
C139 O127 1.265 . S
C139 O128 1.242 . S
C140 O131 1.261 . S
C140 O132 1.252 . S
C141 C144 1.394 . S
C141 C146 1.370 . S
C141 C147 1.500 . S
C142 C145 1.383 . S
C142 C146 1.395 . S
C143 C144 1.396 . S
C143 C145 1.365 . S
C143 H160 0.929 . S
C144 C141 1.394 . S
C144 C143 1.396 . S
C144 H161 0.930 . S
C145 C142 1.383 . S
C145 C143 1.365 . S
C145 H162 0.931 . S
C146 C141 1.370 . S
C146 C142 1.395 . S
C146 H163 0.930 . S
C147 Gd94 2.805 . S
C147 O129 1.263 . S
C147 O130 1.252 . S
C147 C141 1.500 . S
C148 H110 0.930 . S
C148 C124 1.417 . S
C148 C149 1.329 . S
C149 C119 1.437 . S
C149 H120 0.929 . S
C149 C148 1.329 . S
H150 C123 0.931 . S
C151 O133 1.265 . S
C151 O134 1.242 . S
C152 O137 1.261 . S
C152 O138 1.252 . S
C153 C156 1.394 . S
C153 C158 1.370 . S
C153 C159 1.500 . S
C154 C157 1.383 . S
C154 C158 1.395 . S
C155 C156 1.396 . S
C155 C157 1.365 . S
C155 H164 0.929 . S
C156 C153 1.394 . S
C156 C155 1.396 . S
C156 H165 0.930 . S
C157 C154 1.383 . S
C157 C155 1.365 . S
C157 H166 0.931 . S
C158 C153 1.370 . S
C158 C154 1.395 . S
C158 H167 0.930 . S
C159 Gd95 2.805 . S
C159 O135 1.263 . S
C159 O136 1.252 . S
C159 C153 1.500 . S
H160 C143 0.929 . S
H161 C144 0.930 . S
H162 C145 0.931 . S
H163 C146 0.930 . S
H164 C155 0.929 . S
H165 C156 0.930 . S
H166 C157 0.931 . S
H167 C158 0.930 . S
C168 C170 1.422 . S
C168 C172 1.415 . S
C168 N174 1.369 . S
C169 C170 1.421 . S
C169 C171 1.417 . S
C169 C181 1.422 . S
C170 C168 1.422 . S
C170 C169 1.421 . S
C170 N180 1.359 . S
C171 C169 1.417 . S
C171 C173 1.329 . S
C171 H190 0.930 . S
C172 C168 1.415 . S
C172 C173 1.437 . S
C172 C176 1.413 . S
C173 C171 1.329 . S
C173 C172 1.437 . S
C173 H195 0.929 . S
N174 C168 1.369 . S
N174 C175 1.338 . S
N174 Gd179 2.622 . S
C175 N174 1.338 . S
C175 C177 1.378 . S
C175 H187 0.929 . S
C176 C172 1.413 . S
C176 C177 1.348 . S
C176 H192 0.931 . S
C177 C175 1.378 . S
C177 C176 1.348 . S
C177 H193 0.930 . S
Gd178 N198 2.622 . S
Gd178 N205 2.570 . S
Gd178 O212 2.353 . S
Gd178 O213 2.468 . S
Gd178 O214 2.427 . S
Gd178 O216 2.388 . S
Gd178 O217 2.386 . S
Gd178 O221 2.307 . S
Gd178 C231 2.805 . S
Gd179 N174 2.622 . S
Gd179 N180 2.570 . S
Gd179 O211 2.386 . S
Gd179 O215 2.307 . S
Gd179 O218 2.353 . S
Gd179 O219 2.468 . S
Gd179 O220 2.427 . S
Gd179 O222 2.388 . S
Gd179 C243 2.805 . S
N180 C170 1.359 . S
N180 Gd179 2.570 . S
N180 C182 1.343 . S
C181 C169 1.422 . S
C181 C183 1.321 . S
C181 H189 0.931 . S
C182 N180 1.343 . S
C182 C183 1.390 . S
C182 H184 0.931 . S
C183 C181 1.321 . S
C183 C182 1.390 . S
C183 H185 0.930 . S
H184 C182 0.931 . S
H185 C183 0.930 . S
H186 C209 0.931 . S
H187 C175 0.929 . S
H188 C210 0.930 . S
H189 C181 0.931 . S
H190 C171 0.930 . S
H191 C200 0.929 . S
H192 C176 0.931 . S
H193 C177 0.930 . S
H194 C232 0.930 . S
H195 C173 0.929 . S
H196 C201 0.931 . S
H197 C202 0.930 . S
N198 Gd178 2.622 . S
N198 C199 1.369 . S
N198 C200 1.338 . S
C199 N198 1.369 . S
C199 C203 1.415 . S
C199 C206 1.422 . S
C200 H191 0.929 . S
C200 N198 1.338 . S
C200 C202 1.378 . S
C201 H196 0.931 . S
C201 C202 1.348 . S
C201 C203 1.413 . S
C202 H197 0.930 . S
C202 C200 1.378 . S
C202 C201 1.348 . S
C203 C199 1.415 . S
C203 C201 1.413 . S
C203 C233 1.437 . S
H204 C233 0.929 . S
N205 Gd178 2.570 . S
N205 C206 1.359 . S
N205 C209 1.343 . S
C206 C199 1.422 . S
C206 N205 1.359 . S
C206 C208 1.421 . S
C207 C208 1.422 . S
C207 C210 1.321 . S
C207 H234 0.931 . S
C208 C206 1.421 . S
C208 C207 1.422 . S
C208 C232 1.417 . S
C209 H186 0.931 . S
C209 N205 1.343 . S
C209 C210 1.390 . S
C210 H188 0.930 . S
C210 C207 1.321 . S
C210 C209 1.390 . S
O211 Gd179 2.386 . S
O211 C223 1.265 . S
O212 Gd178 2.353 . S
O212 C223 1.242 . S
O213 Gd178 2.468 . S
O213 C231 1.263 . S
O214 Gd178 2.427 . S
O214 C231 1.252 . S
O215 Gd179 2.307 . S
O215 C224 1.261 . S
O216 Gd178 2.388 . S
O216 C224 1.252 . S
O217 Gd178 2.386 . S
O217 C235 1.265 . S
O218 Gd179 2.353 . S
O218 C235 1.242 . S
O219 Gd179 2.468 . S
O219 C243 1.263 . S
O220 Gd179 2.427 . S
O220 C243 1.252 . S
O221 Gd178 2.307 . S
O221 C236 1.261 . S
O222 Gd179 2.388 . S
O222 C236 1.252 . S
C223 O211 1.265 . S
C223 O212 1.242 . S
C224 O215 1.261 . S
C224 O216 1.252 . S
C225 C228 1.394 . S
C225 C230 1.370 . S
C225 C231 1.500 . S
C226 C229 1.383 . S
C226 C230 1.395 . S
C227 C228 1.396 . S
C227 C229 1.365 . S
C227 H244 0.929 . S
C228 C225 1.394 . S
C228 C227 1.396 . S
C228 H245 0.930 . S
C229 C226 1.383 . S
C229 C227 1.365 . S
C229 H246 0.931 . S
C230 C225 1.370 . S
C230 C226 1.395 . S
C230 H247 0.930 . S
C231 Gd178 2.805 . S
C231 O213 1.263 . S
C231 O214 1.252 . S
C231 C225 1.500 . S
C232 H194 0.930 . S
C232 C208 1.417 . S
C232 C233 1.329 . S
C233 C203 1.437 . S
C233 H204 0.929 . S
C233 C232 1.329 . S
H234 C207 0.931 . S
C235 O217 1.265 . S
C235 O218 1.242 . S
C236 O221 1.261 . S
C236 O222 1.252 . S
C237 C240 1.394 . S
C237 C242 1.370 . S
C237 C243 1.500 . S
C238 C241 1.383 . S
C238 C242 1.395 . S
C239 C240 1.396 . S
C239 C241 1.365 . S
C239 H248 0.929 . S
C240 C237 1.394 . S
C240 C239 1.396 . S
C240 H249 0.930 . S
C241 C238 1.383 . S
C241 C239 1.365 . S
C241 H250 0.931 . S
C242 C237 1.370 . S
C242 C238 1.395 . S
C242 H251 0.930 . S
C243 Gd179 2.805 . S
C243 O219 1.263 . S
C243 O220 1.252 . S
C243 C237 1.500 . S
H244 C227 0.929 . S
H245 C228 0.930 . S
H246 C229 0.931 . S
H247 C230 0.930 . S
H248 C239 0.929 . S
H249 C240 0.930 . S
H250 C241 0.931 . S
H251 C242 0.930 . S
C252 C254 1.422 . S
C252 C256 1.415 . S
C252 N258 1.369 . S
C253 C254 1.421 . S
C253 C255 1.417 . S
C253 C265 1.422 . S
C254 C252 1.422 . S
C254 C253 1.421 . S
C254 N264 1.359 . S
C255 C253 1.417 . S
C255 C257 1.329 . S
C255 H274 0.930 . S
C256 C252 1.415 . S
C256 C257 1.437 . S
C256 C260 1.413 . S
C257 C255 1.329 . S
C257 C256 1.437 . S
C257 H279 0.929 . S
N258 C252 1.369 . S
N258 C259 1.338 . S
N258 Gd263 2.622 . S
C259 N258 1.338 . S
C259 C261 1.378 . S
C259 H271 0.929 . S
C260 C256 1.413 . S
C260 C261 1.348 . S
C260 H276 0.931 . S
C261 C259 1.378 . S
C261 C260 1.348 . S
C261 H277 0.930 . S
Gd262 N282 2.622 . S
Gd262 N289 2.570 . S
Gd262 O296 2.353 . S
Gd262 O297 2.468 . S
Gd262 O298 2.427 . S
Gd262 O300 2.388 . S
Gd262 O301 2.386 . S
Gd262 O305 2.307 . S
Gd262 C315 2.805 . S
Gd263 N258 2.622 . S
Gd263 N264 2.570 . S
Gd263 O295 2.386 . S
Gd263 O299 2.307 . S
Gd263 O302 2.353 . S
Gd263 O303 2.468 . S
Gd263 O304 2.427 . S
Gd263 O306 2.388 . S
Gd263 C327 2.805 . S
N264 C254 1.359 . S
N264 Gd263 2.570 . S
N264 C266 1.343 . S
C265 C253 1.422 . S
C265 C267 1.321 . S
C265 H273 0.931 . S
C266 N264 1.343 . S
C266 C267 1.390 . S
C266 H268 0.931 . S
C267 C265 1.321 . S
C267 C266 1.390 . S
C267 H269 0.930 . S
H268 C266 0.931 . S
H269 C267 0.930 . S
H270 C293 0.931 . S
H271 C259 0.929 . S
H272 C294 0.930 . S
H273 C265 0.931 . S
H274 C255 0.930 . S
H275 C284 0.929 . S
H276 C260 0.931 . S
H277 C261 0.930 . S
H278 C316 0.930 . S
H279 C257 0.929 . S
H280 C285 0.931 . S
H281 C286 0.930 . S
N282 Gd262 2.622 . S
N282 C283 1.369 . S
N282 C284 1.338 . S
C283 N282 1.369 . S
C283 C287 1.415 . S
C283 C290 1.422 . S
C284 H275 0.929 . S
C284 N282 1.338 . S
C284 C286 1.378 . S
C285 H280 0.931 . S
C285 C286 1.348 . S
C285 C287 1.413 . S
C286 H281 0.930 . S
C286 C284 1.378 . S
C286 C285 1.348 . S
C287 C283 1.415 . S
C287 C285 1.413 . S
C287 C317 1.437 . S
H288 C317 0.929 . S
N289 Gd262 2.570 . S
N289 C290 1.359 . S
N289 C293 1.343 . S
C290 C283 1.422 . S
C290 N289 1.359 . S
C290 C292 1.421 . S
C291 C292 1.422 . S
C291 C294 1.321 . S
C291 H318 0.931 . S
C292 C290 1.421 . S
C292 C291 1.422 . S
C292 C316 1.417 . S
C293 H270 0.931 . S
C293 N289 1.343 . S
C293 C294 1.390 . S
C294 H272 0.930 . S
C294 C291 1.321 . S
C294 C293 1.390 . S
O295 Gd263 2.386 . S
O295 C307 1.265 . S
O296 Gd262 2.353 . S
O296 C307 1.242 . S
O297 Gd262 2.468 . S
O297 C315 1.263 . S
O298 Gd262 2.427 . S
O298 C315 1.252 . S
O299 Gd263 2.307 . S
O299 C308 1.261 . S
O300 Gd262 2.388 . S
O300 C308 1.252 . S
O301 Gd262 2.386 . S
O301 C319 1.265 . S
O302 Gd263 2.353 . S
O302 C319 1.242 . S
O303 Gd263 2.468 . S
O303 C327 1.263 . S
O304 Gd263 2.427 . S
O304 C327 1.252 . S
O305 Gd262 2.307 . S
O305 C320 1.261 . S
O306 Gd263 2.388 . S
O306 C320 1.252 . S
C307 O295 1.265 . S
C307 O296 1.242 . S
C308 O299 1.261 . S
C308 O300 1.252 . S
C309 C312 1.394 . S
C309 C314 1.370 . S
C309 C315 1.500 . S
C310 C313 1.383 . S
C310 C314 1.395 . S
C311 C312 1.396 . S
C311 C313 1.365 . S
C311 H328 0.929 . S
C312 C309 1.394 . S
C312 C311 1.396 . S
C312 H329 0.930 . S
C313 C310 1.383 . S
C313 C311 1.365 . S
C313 H330 0.931 . S
C314 C309 1.370 . S
C314 C310 1.395 . S
C314 H331 0.930 . S
C315 Gd262 2.805 . S
C315 O297 1.263 . S
C315 O298 1.252 . S
C315 C309 1.500 . S
C316 H278 0.930 . S
C316 C292 1.417 . S
C316 C317 1.329 . S
C317 C287 1.437 . S
C317 H288 0.929 . S
C317 C316 1.329 . S
H318 C291 0.931 . S
C319 O301 1.265 . S
C319 O302 1.242 . S
C320 O305 1.261 . S
C320 O306 1.252 . S
C321 C324 1.394 . S
C321 C326 1.370 . S
C321 C327 1.500 . S
C322 C325 1.383 . S
C322 C326 1.395 . S
C323 C324 1.396 . S
C323 C325 1.365 . S
C323 H332 0.929 . S
C324 C321 1.394 . S
C324 C323 1.396 . S
C324 H333 0.930 . S
C325 C322 1.383 . S
C325 C323 1.365 . S
C325 H334 0.931 . S
C326 C321 1.370 . S
C326 C322 1.395 . S
C326 H335 0.930 . S
C327 Gd263 2.805 . S
C327 O303 1.263 . S
C327 O304 1.252 . S
C327 C321 1.500 . S
H328 C311 0.929 . S
H329 C312 0.930 . S
H330 C313 0.931 . S
H331 C314 0.930 . S
H332 C323 0.929 . S
H333 C324 0.930 . S
H334 C325 0.931 . S
H335 C326 0.930 . S
C336 C338 1.422 . S
C336 C340 1.415 . S
C336 N342 1.369 . S
C337 C338 1.421 . S
C337 C339 1.417 . S
C337 C349 1.422 . S
C338 C336 1.422 . S
C338 C337 1.421 . S
C338 N348 1.359 . S
C339 C337 1.417 . S
C339 C341 1.329 . S
C339 H358 0.930 . S
C340 C336 1.415 . S
C340 C341 1.437 . S
C340 C344 1.413 . S
C341 C339 1.329 . S
C341 C340 1.437 . S
C341 H363 0.929 . S
N342 C336 1.369 . S
N342 C343 1.338 . S
N342 Gd347 2.622 . S
C343 N342 1.338 . S
C343 C345 1.378 . S
C343 H355 0.929 . S
C344 C340 1.413 . S
C344 C345 1.348 . S
C344 H360 0.931 . S
C345 C343 1.378 . S
C345 C344 1.348 . S
C345 H361 0.930 . S
Gd346 N366 2.622 . S
Gd346 N373 2.570 . S
Gd346 O380 2.353 . S
Gd346 O381 2.468 . S
Gd346 O382 2.427 . S
Gd346 O384 2.388 . S
Gd346 O385 2.386 . S
Gd346 O389 2.307 . S
Gd346 C399 2.805 . S
Gd347 N342 2.622 . S
Gd347 N348 2.570 . S
Gd347 O379 2.386 . S
Gd347 O383 2.307 . S
Gd347 O386 2.353 . S
Gd347 O387 2.468 . S
Gd347 O388 2.427 . S
Gd347 O390 2.388 . S
Gd347 C411 2.805 . S
N348 C338 1.359 . S
N348 Gd347 2.570 . S
N348 C350 1.343 . S
C349 C337 1.422 . S
C349 C351 1.321 . S
C349 H357 0.931 . S
C350 N348 1.343 . S
C350 C351 1.390 . S
C350 H352 0.931 . S
C351 C349 1.321 . S
C351 C350 1.390 . S
C351 H353 0.930 . S
H352 C350 0.931 . S
H353 C351 0.930 . S
H354 C377 0.931 . S
H355 C343 0.929 . S
H356 C378 0.930 . S
H357 C349 0.931 . S
H358 C339 0.930 . S
H359 C368 0.929 . S
H360 C344 0.931 . S
H361 C345 0.930 . S
H362 C400 0.930 . S
H363 C341 0.929 . S
H364 C369 0.931 . S
H365 C370 0.930 . S
N366 Gd346 2.622 . S
N366 C367 1.369 . S
N366 C368 1.338 . S
C367 N366 1.369 . S
C367 C371 1.415 . S
C367 C374 1.422 . S
C368 H359 0.929 . S
C368 N366 1.338 . S
C368 C370 1.378 . S
C369 H364 0.931 . S
C369 C370 1.348 . S
C369 C371 1.413 . S
C370 H365 0.930 . S
C370 C368 1.378 . S
C370 C369 1.348 . S
C371 C367 1.415 . S
C371 C369 1.413 . S
C371 C401 1.437 . S
H372 C401 0.929 . S
N373 Gd346 2.570 . S
N373 C374 1.359 . S
N373 C377 1.343 . S
C374 C367 1.422 . S
C374 N373 1.359 . S
C374 C376 1.421 . S
C375 C376 1.422 . S
C375 C378 1.321 . S
C375 H402 0.931 . S
C376 C374 1.421 . S
C376 C375 1.422 . S
C376 C400 1.417 . S
C377 H354 0.931 . S
C377 N373 1.343 . S
C377 C378 1.390 . S
C378 H356 0.930 . S
C378 C375 1.321 . S
C378 C377 1.390 . S
O379 Gd347 2.386 . S
O379 C391 1.265 . S
O380 Gd346 2.353 . S
O380 C391 1.242 . S
O381 Gd346 2.468 . S
O381 C399 1.263 . S
O382 Gd346 2.427 . S
O382 C399 1.252 . S
O383 Gd347 2.307 . S
O383 C392 1.261 . S
O384 Gd346 2.388 . S
O384 C392 1.252 . S
O385 Gd346 2.386 . S
O385 C403 1.265 . S
O386 Gd347 2.353 . S
O386 C403 1.242 . S
O387 Gd347 2.468 . S
O387 C411 1.263 . S
O388 Gd347 2.427 . S
O388 C411 1.252 . S
O389 Gd346 2.307 . S
O389 C404 1.261 . S
O390 Gd347 2.388 . S
O390 C404 1.252 . S
C391 O379 1.265 . S
C391 O380 1.242 . S
C392 O383 1.261 . S
C392 O384 1.252 . S
C393 C396 1.394 . S
C393 C398 1.370 . S
C393 C399 1.500 . S
C394 C397 1.383 . S
C394 C398 1.395 . S
C395 C396 1.396 . S
C395 C397 1.365 . S
C395 H412 0.929 . S
C396 C393 1.394 . S
C396 C395 1.396 . S
C396 H413 0.930 . S
C397 C394 1.383 . S
C397 C395 1.365 . S
C397 H414 0.931 . S
C398 C393 1.370 . S
C398 C394 1.395 . S
C398 H415 0.930 . S
C399 Gd346 2.805 . S
C399 O381 1.263 . S
C399 O382 1.252 . S
C399 C393 1.500 . S
C400 H362 0.930 . S
C400 C376 1.417 . S
C400 C401 1.329 . S
C401 C371 1.437 . S
C401 H372 0.929 . S
C401 C400 1.329 . S
H402 C375 0.931 . S
C403 O385 1.265 . S
C403 O386 1.242 . S
C404 O389 1.261 . S
C404 O390 1.252 . S
C405 C408 1.394 . S
C405 C410 1.370 . S
C405 C411 1.500 . S
C406 C409 1.383 . S
C406 C410 1.395 . S
C407 C408 1.396 . S
C407 C409 1.365 . S
C407 H416 0.929 . S
C408 C405 1.394 . S
C408 C407 1.396 . S
C408 H417 0.930 . S
C409 C406 1.383 . S
C409 C407 1.365 . S
C409 H418 0.931 . S
C410 C405 1.370 . S
C410 C406 1.395 . S
C410 H419 0.930 . S
C411 Gd347 2.805 . S
C411 O387 1.263 . S
C411 O388 1.252 . S
C411 C405 1.500 . S
H412 C395 0.929 . S
H413 C396 0.930 . S
H414 C397 0.931 . S
H415 C398 0.930 . S
H416 C407 0.929 . S
H417 C408 0.930 . S
H418 C409 0.931 . S
H419 C410 0.930 . S
C420 C422 1.422 . S
C420 C424 1.415 . S
C420 N426 1.369 . S
C421 C422 1.421 . S
C421 C423 1.417 . S
C421 C433 1.422 . S
C422 C420 1.422 . S
C422 C421 1.421 . S
C422 N432 1.359 . S
C423 C421 1.417 . S
C423 C425 1.329 . S
C423 H442 0.930 . S
C424 C420 1.415 . S
C424 C425 1.437 . S
C424 C428 1.413 . S
C425 C423 1.329 . S
C425 C424 1.437 . S
C425 H447 0.929 . S
N426 C420 1.369 . S
N426 C427 1.338 . S
N426 Gd431 2.622 . S
C427 N426 1.338 . S
C427 C429 1.378 . S
C427 H439 0.929 . S
C428 C424 1.413 . S
C428 C429 1.348 . S
C428 H444 0.931 . S
C429 C427 1.378 . S
C429 C428 1.348 . S
C429 H445 0.930 . S
Gd430 N450 2.622 . S
Gd430 N457 2.570 . S
Gd430 O464 2.353 . S
Gd430 O465 2.468 . S
Gd430 O466 2.427 . S
Gd430 O468 2.388 . S
Gd430 O469 2.386 . S
Gd430 O473 2.307 . S
Gd430 C483 2.805 . S
Gd431 N426 2.622 . S
Gd431 N432 2.570 . S
Gd431 O463 2.386 . S
Gd431 O467 2.307 . S
Gd431 O470 2.353 . S
Gd431 O471 2.468 . S
Gd431 O472 2.427 . S
Gd431 O474 2.388 . S
Gd431 C495 2.805 . S
N432 C422 1.359 . S
N432 Gd431 2.570 . S
N432 C434 1.343 . S
C433 C421 1.422 . S
C433 C435 1.321 . S
C433 H441 0.931 . S
C434 N432 1.343 . S
C434 C435 1.390 . S
C434 H436 0.931 . S
C435 C433 1.321 . S
C435 C434 1.390 . S
C435 H437 0.930 . S
H436 C434 0.931 . S
H437 C435 0.930 . S
H438 C461 0.931 . S
H439 C427 0.929 . S
H440 C462 0.930 . S
H441 C433 0.931 . S
H442 C423 0.930 . S
H443 C452 0.929 . S
H444 C428 0.931 . S
H445 C429 0.930 . S
H446 C484 0.930 . S
H447 C425 0.929 . S
H448 C453 0.931 . S
H449 C454 0.930 . S
N450 Gd430 2.622 . S
N450 C451 1.369 . S
N450 C452 1.338 . S
C451 N450 1.369 . S
C451 C455 1.415 . S
C451 C458 1.422 . S
C452 H443 0.929 . S
C452 N450 1.338 . S
C452 C454 1.378 . S
C453 H448 0.931 . S
C453 C454 1.348 . S
C453 C455 1.413 . S
C454 H449 0.930 . S
C454 C452 1.378 . S
C454 C453 1.348 . S
C455 C451 1.415 . S
C455 C453 1.413 . S
C455 C485 1.437 . S
H456 C485 0.929 . S
N457 Gd430 2.570 . S
N457 C458 1.359 . S
N457 C461 1.343 . S
C458 C451 1.422 . S
C458 N457 1.359 . S
C458 C460 1.421 . S
C459 C460 1.422 . S
C459 C462 1.321 . S
C459 H486 0.931 . S
C460 C458 1.421 . S
C460 C459 1.422 . S
C460 C484 1.417 . S
C461 H438 0.931 . S
C461 N457 1.343 . S
C461 C462 1.390 . S
C462 H440 0.930 . S
C462 C459 1.321 . S
C462 C461 1.390 . S
O463 Gd431 2.386 . S
O463 C475 1.265 . S
O464 Gd430 2.353 . S
O464 C475 1.242 . S
O465 Gd430 2.468 . S
O465 C483 1.263 . S
O466 Gd430 2.427 . S
O466 C483 1.252 . S
O467 Gd431 2.307 . S
O467 C476 1.261 . S
O468 Gd430 2.388 . S
O468 C476 1.252 . S
O469 Gd430 2.386 . S
O469 C487 1.265 . S
O470 Gd431 2.353 . S
O470 C487 1.242 . S
O471 Gd431 2.468 . S
O471 C495 1.263 . S
O472 Gd431 2.427 . S
O472 C495 1.252 . S
O473 Gd430 2.307 . S
O473 C488 1.261 . S
O474 Gd431 2.388 . S
O474 C488 1.252 . S
C475 O463 1.265 . S
C475 O464 1.242 . S
C476 O467 1.261 . S
C476 O468 1.252 . S
C477 C480 1.394 . S
C477 C482 1.370 . S
C477 C483 1.500 . S
C478 C481 1.383 . S
C478 C482 1.395 . S
C479 C480 1.396 . S
C479 C481 1.365 . S
C479 H496 0.929 . S
C480 C477 1.394 . S
C480 C479 1.396 . S
C480 H497 0.930 . S
C481 C478 1.383 . S
C481 C479 1.365 . S
C481 H498 0.931 . S
C482 C477 1.370 . S
C482 C478 1.395 . S
C482 H499 0.930 . S
C483 Gd430 2.805 . S
C483 O465 1.263 . S
C483 O466 1.252 . S
C483 C477 1.500 . S
C484 H446 0.930 . S
C484 C460 1.417 . S
C484 C485 1.329 . S
C485 C455 1.437 . S
C485 H456 0.929 . S
C485 C484 1.329 . S
H486 C459 0.931 . S
C487 O469 1.265 . S
C487 O470 1.242 . S
C488 O473 1.261 . S
C488 O474 1.252 . S
C489 C492 1.394 . S
C489 C494 1.370 . S
C489 C495 1.500 . S
C490 C493 1.383 . S
C490 C494 1.395 . S
C491 C492 1.396 . S
C491 C493 1.365 . S
C491 H500 0.929 . S
C492 C489 1.394 . S
C492 C491 1.396 . S
C492 H501 0.930 . S
C493 C490 1.383 . S
C493 C491 1.365 . S
C493 H502 0.931 . S
C494 C489 1.370 . S
C494 C490 1.395 . S
C494 H503 0.930 . S
C495 Gd431 2.805 . S
C495 O471 1.263 . S
C495 O472 1.252 . S
C495 C489 1.500 . S
H496 C479 0.929 . S
H497 C480 0.930 . S
H498 C481 0.931 . S
H499 C482 0.930 . S
H500 C491 0.929 . S
H501 C492 0.930 . S
H502 C493 0.931 . S
H503 C494 0.930 . S
C504 C506 1.422 . S
C504 C508 1.415 . S
C504 N510 1.369 . S
C505 C506 1.421 . S
C505 C507 1.417 . S
C505 C517 1.422 . S
C506 C504 1.422 . S
C506 C505 1.421 . S
C506 N516 1.359 . S
C507 C505 1.417 . S
C507 C509 1.329 . S
C507 H526 0.930 . S
C508 C504 1.415 . S
C508 C509 1.437 . S
C508 C512 1.413 . S
C509 C507 1.329 . S
C509 C508 1.437 . S
C509 H531 0.929 . S
N510 C504 1.369 . S
N510 C511 1.338 . S
N510 Gd515 2.622 . S
C511 N510 1.338 . S
C511 C513 1.378 . S
C511 H523 0.929 . S
C512 C508 1.413 . S
C512 C513 1.348 . S
C512 H528 0.931 . S
C513 C511 1.378 . S
C513 C512 1.348 . S
C513 H529 0.930 . S
Gd514 N534 2.622 . S
Gd514 N541 2.570 . S
Gd514 O548 2.353 . S
Gd514 O549 2.468 . S
Gd514 O550 2.427 . S
Gd514 O552 2.388 . S
Gd514 O553 2.386 . S
Gd514 O557 2.307 . S
Gd514 C567 2.805 . S
Gd515 N510 2.622 . S
Gd515 N516 2.570 . S
Gd515 O547 2.386 . S
Gd515 O551 2.307 . S
Gd515 O554 2.353 . S
Gd515 O555 2.468 . S
Gd515 O556 2.427 . S
Gd515 O558 2.388 . S
Gd515 C579 2.805 . S
N516 C506 1.359 . S
N516 Gd515 2.570 . S
N516 C518 1.343 . S
C517 C505 1.422 . S
C517 C519 1.321 . S
C517 H525 0.931 . S
C518 N516 1.343 . S
C518 C519 1.390 . S
C518 H520 0.931 . S
C519 C517 1.321 . S
C519 C518 1.390 . S
C519 H521 0.930 . S
H520 C518 0.931 . S
H521 C519 0.930 . S
H522 C545 0.931 . S
H523 C511 0.929 . S
H524 C546 0.930 . S
H525 C517 0.931 . S
H526 C507 0.930 . S
H527 C536 0.929 . S
H528 C512 0.931 . S
H529 C513 0.930 . S
H530 C568 0.930 . S
H531 C509 0.929 . S
H532 C537 0.931 . S
H533 C538 0.930 . S
N534 Gd514 2.622 . S
N534 C535 1.369 . S
N534 C536 1.338 . S
C535 N534 1.369 . S
C535 C539 1.415 . S
C535 C542 1.422 . S
C536 H527 0.929 . S
C536 N534 1.338 . S
C536 C538 1.378 . S
C537 H532 0.931 . S
C537 C538 1.348 . S
C537 C539 1.413 . S
C538 H533 0.930 . S
C538 C536 1.378 . S
C538 C537 1.348 . S
C539 C535 1.415 . S
C539 C537 1.413 . S
C539 C569 1.437 . S
H540 C569 0.929 . S
N541 Gd514 2.570 . S
N541 C542 1.359 . S
N541 C545 1.343 . S
C542 C535 1.422 . S
C542 N541 1.359 . S
C542 C544 1.421 . S
C543 C544 1.422 . S
C543 C546 1.321 . S
C543 H570 0.931 . S
C544 C542 1.421 . S
C544 C543 1.422 . S
C544 C568 1.417 . S
C545 H522 0.931 . S
C545 N541 1.343 . S
C545 C546 1.390 . S
C546 H524 0.930 . S
C546 C543 1.321 . S
C546 C545 1.390 . S
O547 Gd515 2.386 . S
O547 C559 1.265 . S
O548 Gd514 2.353 . S
O548 C559 1.242 . S
O549 Gd514 2.468 . S
O549 C567 1.263 . S
O550 Gd514 2.427 . S
O550 C567 1.252 . S
O551 Gd515 2.307 . S
O551 C560 1.261 . S
O552 Gd514 2.388 . S
O552 C560 1.252 . S
O553 Gd514 2.386 . S
O553 C571 1.265 . S
O554 Gd515 2.353 . S
O554 C571 1.242 . S
O555 Gd515 2.468 . S
O555 C579 1.263 . S
O556 Gd515 2.427 . S
O556 C579 1.252 . S
O557 Gd514 2.307 . S
O557 C572 1.261 . S
O558 Gd515 2.388 . S
O558 C572 1.252 . S
C559 O547 1.265 . S
C559 O548 1.242 . S
C560 O551 1.261 . S
C560 O552 1.252 . S
C561 C564 1.394 . S
C561 C566 1.370 . S
C561 C567 1.500 . S
C562 C565 1.383 . S
C562 C566 1.395 . S
C563 C564 1.396 . S
C563 C565 1.365 . S
C563 H580 0.929 . S
C564 C561 1.394 . S
C564 C563 1.396 . S
C564 H581 0.930 . S
C565 C562 1.383 . S
C565 C563 1.365 . S
C565 H582 0.931 . S
C566 C561 1.370 . S
C566 C562 1.395 . S
C566 H583 0.930 . S
C567 Gd514 2.805 . S
C567 O549 1.263 . S
C567 O550 1.252 . S
C567 C561 1.500 . S
C568 H530 0.930 . S
C568 C544 1.417 . S
C568 C569 1.329 . S
C569 C539 1.437 . S
C569 H540 0.929 . S
C569 C568 1.329 . S
H570 C543 0.931 . S
C571 O553 1.265 . S
C571 O554 1.242 . S
C572 O557 1.261 . S
C572 O558 1.252 . S
C573 C576 1.394 . S
C573 C578 1.370 . S
C573 C579 1.500 . S
C574 C577 1.383 . S
C574 C578 1.395 . S
C575 C576 1.396 . S
C575 C577 1.365 . S
C575 H584 0.929 . S
C576 C573 1.394 . S
C576 C575 1.396 . S
C576 H585 0.930 . S
C577 C574 1.383 . S
C577 C575 1.365 . S
C577 H586 0.931 . S
C578 C573 1.370 . S
C578 C574 1.395 . S
C578 H587 0.930 . S
C579 Gd515 2.805 . S
C579 O555 1.263 . S
C579 O556 1.252 . S
C579 C573 1.500 . S
H580 C563 0.929 . S
H581 C564 0.930 . S
H582 C565 0.931 . S
H583 C566 0.930 . S
H584 C575 0.929 . S
H585 C576 0.930 . S
H586 C577 0.931 . S
H587 C578 0.930 . S
C588 C590 1.422 . S
C588 C592 1.415 . S
C588 N594 1.369 . S
C589 C590 1.421 . S
C589 C591 1.417 . S
C589 C601 1.422 . S
C590 C588 1.422 . S
C590 C589 1.421 . S
C590 N600 1.359 . S
C591 C589 1.417 . S
C591 C593 1.329 . S
C591 H610 0.930 . S
C592 C588 1.415 . S
C592 C593 1.437 . S
C592 C596 1.413 . S
C593 C591 1.329 . S
C593 C592 1.437 . S
C593 H615 0.929 . S
N594 C588 1.369 . S
N594 C595 1.338 . S
N594 Gd599 2.622 . S
C595 N594 1.338 . S
C595 C597 1.378 . S
C595 H607 0.929 . S
C596 C592 1.413 . S
C596 C597 1.348 . S
C596 H612 0.931 . S
C597 C595 1.378 . S
C597 C596 1.348 . S
C597 H613 0.930 . S
Gd598 N618 2.622 . S
Gd598 N625 2.570 . S
Gd598 O632 2.353 . S
Gd598 O633 2.468 . S
Gd598 O634 2.427 . S
Gd598 O636 2.388 . S
Gd598 O637 2.386 . S
Gd598 O641 2.307 . S
Gd598 C651 2.805 . S
Gd599 N594 2.622 . S
Gd599 N600 2.570 . S
Gd599 O631 2.386 . S
Gd599 O635 2.307 . S
Gd599 O638 2.353 . S
Gd599 O639 2.468 . S
Gd599 O640 2.427 . S
Gd599 O642 2.388 . S
Gd599 C663 2.805 . S
N600 C590 1.359 . S
N600 Gd599 2.570 . S
N600 C602 1.343 . S
C601 C589 1.422 . S
C601 C603 1.321 . S
C601 H609 0.931 . S
C602 N600 1.343 . S
C602 C603 1.390 . S
C602 H604 0.931 . S
C603 C601 1.321 . S
C603 C602 1.390 . S
C603 H605 0.930 . S
H604 C602 0.931 . S
H605 C603 0.930 . S
H606 C629 0.931 . S
H607 C595 0.929 . S
H608 C630 0.930 . S
H609 C601 0.931 . S
H610 C591 0.930 . S
H611 C620 0.929 . S
H612 C596 0.931 . S
H613 C597 0.930 . S
H614 C652 0.930 . S
H615 C593 0.929 . S
H616 C621 0.931 . S
H617 C622 0.930 . S
N618 Gd598 2.622 . S
N618 C619 1.369 . S
N618 C620 1.338 . S
C619 N618 1.369 . S
C619 C623 1.415 . S
C619 C626 1.422 . S
C620 H611 0.929 . S
C620 N618 1.338 . S
C620 C622 1.378 . S
C621 H616 0.931 . S
C621 C622 1.348 . S
C621 C623 1.413 . S
C622 H617 0.930 . S
C622 C620 1.378 . S
C622 C621 1.348 . S
C623 C619 1.415 . S
C623 C621 1.413 . S
C623 C653 1.437 . S
H624 C653 0.929 . S
N625 Gd598 2.570 . S
N625 C626 1.359 . S
N625 C629 1.343 . S
C626 C619 1.422 . S
C626 N625 1.359 . S
C626 C628 1.421 . S
C627 C628 1.422 . S
C627 C630 1.321 . S
C627 H654 0.931 . S
C628 C626 1.421 . S
C628 C627 1.422 . S
C628 C652 1.417 . S
C629 H606 0.931 . S
C629 N625 1.343 . S
C629 C630 1.390 . S
C630 H608 0.930 . S
C630 C627 1.321 . S
C630 C629 1.390 . S
O631 Gd599 2.386 . S
O631 C643 1.265 . S
O632 Gd598 2.353 . S
O632 C643 1.242 . S
O633 Gd598 2.468 . S
O633 C651 1.263 . S
O634 Gd598 2.427 . S
O634 C651 1.252 . S
O635 Gd599 2.307 . S
O635 C644 1.261 . S
O636 Gd598 2.388 . S
O636 C644 1.252 . S
O637 Gd598 2.386 . S
O637 C655 1.265 . S
O638 Gd599 2.353 . S
O638 C655 1.242 . S
O639 Gd599 2.468 . S
O639 C663 1.263 . S
O640 Gd599 2.427 . S
O640 C663 1.252 . S
O641 Gd598 2.307 . S
O641 C656 1.261 . S
O642 Gd599 2.388 . S
O642 C656 1.252 . S
C643 O631 1.265 . S
C643 O632 1.242 . S
C644 O635 1.261 . S
C644 O636 1.252 . S
C645 C648 1.394 . S
C645 C650 1.370 . S
C645 C651 1.500 . S
C646 C649 1.383 . S
C646 C650 1.395 . S
C647 C648 1.396 . S
C647 C649 1.365 . S
C647 H664 0.929 . S
C648 C645 1.394 . S
C648 C647 1.396 . S
C648 H665 0.930 . S
C649 C646 1.383 . S
C649 C647 1.365 . S
C649 H666 0.931 . S
C650 C645 1.370 . S
C650 C646 1.395 . S
C650 H667 0.930 . S
C651 Gd598 2.805 . S
C651 O633 1.263 . S
C651 O634 1.252 . S
C651 C645 1.500 . S
C652 H614 0.930 . S
C652 C628 1.417 . S
C652 C653 1.329 . S
C653 C623 1.437 . S
C653 H624 0.929 . S
C653 C652 1.329 . S
H654 C627 0.931 . S
C655 O637 1.265 . S
C655 O638 1.242 . S
C656 O641 1.261 . S
C656 O642 1.252 . S
C657 C660 1.394 . S
C657 C662 1.370 . S
C657 C663 1.500 . S
C658 C661 1.383 . S
C658 C662 1.395 . S
C659 C660 1.396 . S
C659 C661 1.365 . S
C659 H668 0.929 . S
C660 C657 1.394 . S
C660 C659 1.396 . S
C660 H669 0.930 . S
C661 C658 1.383 . S
C661 C659 1.365 . S
C661 H670 0.931 . S
C662 C657 1.370 . S
C662 C658 1.395 . S
C662 H671 0.930 . S
C663 Gd599 2.805 . S
C663 O639 1.263 . S
C663 O640 1.252 . S
C663 C657 1.500 . S
H664 C647 0.929 . S
H665 C648 0.930 . S
H666 C649 0.931 . S
H667 C650 0.930 . S
H668 C659 0.929 . S
H669 C660 0.930 . S
H670 C661 0.931 . S
H671 C662 0.930 . S
Fe672 O673 1.886 1_455 S
Fe672 O676 1.715 . S
Fe672 O681 2.077 1_455 S
Fe672 O686 1.935 . S
Fe672 O692 2.077 1_455 S
Fe672 O701 1.935 . S
O673 Fe672 1.886 1_655 S
O673 Fe675 1.715 1_545 S
Fe674 O676 1.886 . S
Fe674 O677 1.715 1_545 S
Fe674 O684 1.935 1_545 S
Fe674 O685 2.077 . S
Fe674 O691 1.935 1_545 S
Fe674 O700 2.077 . S
Fe675 O673 1.715 1_565 S
Fe675 O678 1.886 . S
Fe675 O682 1.935 1_565 S
Fe675 O687 2.077 . S
Fe675 O693 1.935 1_565 S
Fe675 O697 2.077 . S
O676 Fe672 1.715 . S
O676 Fe674 1.886 . S
O677 Fe674 1.715 1_565 S
O677 Fe679 1.886 1_455 S
O678 Fe675 1.886 . S
O678 Fe679 1.715 . S
Fe679 O677 1.886 1_655 S
Fe679 O678 1.715 . S
Fe679 O683 2.077 1_655 S
Fe679 O688 1.935 . S
Fe679 O690 2.077 1_655 S
Fe679 O698 1.935 . S
C680 O692 1.381 . S
C680 O693 1.421 . S
O681 Fe672 2.077 1_655 S
O681 C694 1.381 . S
O682 Fe675 1.935 1_545 S
O682 C694 1.421 . S
O683 Fe679 2.077 1_455 S
O683 C699 1.381 . S
O684 Fe674 1.935 1_565 S
O684 C699 1.421 . S
O685 Fe674 2.077 . S
O685 C689 1.381 . S
O686 Fe672 1.935 . S
O686 C689 1.421 . S
O687 Fe675 2.077 . S
O687 C695 1.381 . S
O688 Fe679 1.935 . S
O688 C695 1.421 . S
C689 O685 1.381 . S
C689 O686 1.421 . S
O690 Fe679 2.077 1_455 S
O690 C702 1.381 . S
O691 Fe674 1.935 1_565 S
O691 C702 1.421 . S
O692 Fe672 2.077 1_655 S
O692 C680 1.381 . S
O693 Fe675 1.935 1_545 S
O693 C680 1.421 . S
C694 O681 1.381 . S
C694 O682 1.421 . S
C695 O687 1.381 . S
C695 O688 1.421 . S
C696 O697 1.381 . S
C696 O698 1.421 . S
O697 Fe675 2.077 . S
O697 C696 1.381 . S
O698 Fe679 1.935 . S
O698 C696 1.421 . S
C699 O683 1.381 . S
C699 O684 1.421 . S
O700 Fe674 2.077 . S
O700 C703 1.381 . S
O701 Fe672 1.935 . S
O701 C703 1.421 . S
C702 O690 1.381 . S
C702 O691 1.421 . S
C703 O700 1.381 . S
C703 O701 1.421 . S
Fe704 O705 1.886 . S
Fe704 O708 1.714 . S
Fe704 O713 2.077 . S
Fe704 O718 1.935 . S
Fe704 O724 2.077 1_556 S
Fe704 O733 1.935 1_556 S
O705 Fe704 1.886 . S
O705 Fe707 1.715 1_565 S
Fe706 O708 1.887 1_554 S
Fe706 O709 1.715 1_565 S
Fe706 O716 1.935 1_564 S
Fe706 O717 2.077 1_554 S
Fe706 O723 1.935 1_565 S
Fe706 O732 2.077 . S
Fe707 O705 1.715 1_545 S
Fe707 O710 1.888 1_556 S
Fe707 O714 1.935 1_545 S
Fe707 O719 2.077 . S
Fe707 O725 1.935 1_546 S
Fe707 O729 2.077 1_556 S
O708 Fe704 1.714 . S
O708 Fe706 1.887 1_556 S
O709 Fe706 1.715 1_545 S
O709 Fe711 1.886 . S
O710 Fe707 1.888 1_554 S
O710 Fe711 1.713 . S
Fe711 O709 1.886 . S
Fe711 O710 1.713 . S
Fe711 O715 2.077 1_554 S
Fe711 O720 1.935 1_554 S
Fe711 O722 2.077 . S
Fe711 O730 1.935 . S
C712 O724 1.381 . S
C712 O725 1.421 . S
O713 Fe704 2.077 . S
O713 C726 1.381 . S
O714 Fe707 1.935 1_565 S
O714 C726 1.421 . S
O715 Fe711 2.077 1_556 S
O715 C731 1.381 . S
O716 Fe706 1.935 1_546 S
O716 C731 1.421 . S
O717 Fe706 2.077 1_556 S
O717 C721 1.381 . S
O718 Fe704 1.935 . S
O718 C721 1.421 . S
O719 Fe707 2.077 . S
O719 C727 1.381 . S
O720 Fe711 1.935 1_556 S
O720 C727 1.421 . S
C721 O717 1.381 . S
C721 O718 1.421 . S
O722 Fe711 2.077 . S
O722 C734 1.381 . S
O723 Fe706 1.935 1_545 S
O723 C734 1.421 . S
O724 Fe704 2.077 1_554 S
O724 C712 1.381 . S
O725 Fe707 1.935 1_564 S
O725 C712 1.421 . S
C726 O713 1.381 . S
C726 O714 1.421 . S
C727 O719 1.381 . S
C727 O720 1.421 . S
C728 O729 1.381 . S
C728 O730 1.421 . S
O729 Fe707 2.077 1_554 S
O729 C728 1.381 . S
O730 Fe711 1.935 . S
O730 C728 1.421 . S
C731 O715 1.381 . S
C731 O716 1.421 . S
O732 Fe706 2.077 . S
O732 C735 1.381 . S
O733 Fe704 1.935 1_554 S
O733 C735 1.421 . S
C734 O722 1.381 . S
C734 O723 1.421 . S
C735 O732 1.381 . S
C735 O733 1.421 . S
Fe736 O737 1.886 1_455 S
Fe736 O740 1.714 . S
Fe736 O745 2.077 1_454 S
Fe736 O750 1.935 1_554 S
Fe736 O756 2.077 1_455 S
Fe736 O765 1.935 . S
O737 Fe736 1.886 1_655 S
O737 Fe739 1.715 . S
Fe738 O740 1.887 1_556 S
Fe738 O741 1.715 . S
Fe738 O748 1.935 . S
Fe738 O749 2.077 . S
Fe738 O755 1.935 1_556 S
Fe738 O764 2.077 1_556 S
Fe739 O737 1.715 . S
Fe739 O742 1.887 1_554 S
Fe739 O746 1.935 1_554 S
Fe739 O751 2.077 1_554 S
Fe739 O757 1.935 . S
Fe739 O761 2.077 . S
O740 Fe736 1.714 . S
O740 Fe738 1.887 1_554 S
O741 Fe738 1.715 . S
O741 Fe743 1.886 1_455 S
O742 Fe739 1.887 1_556 S
O742 Fe743 1.714 . S
Fe743 O741 1.886 1_655 S
Fe743 O742 1.714 . S
Fe743 O747 2.077 1_655 S
Fe743 O752 1.935 . S
Fe743 O754 2.077 1_656 S
Fe743 O762 1.935 1_556 S
C744 O756 1.381 . S
C744 O757 1.421 . S
O745 Fe736 2.077 1_656 S
O745 C758 1.381 . S
O746 Fe739 1.935 1_556 S
O746 C758 1.421 . S
O747 Fe743 2.077 1_455 S
O747 C763 1.381 . S
O748 Fe738 1.935 . S
O748 C763 1.421 . S
O749 Fe738 2.077 . S
O749 C753 1.381 . S
O750 Fe736 1.935 1_556 S
O750 C753 1.421 . S
O751 Fe739 2.077 1_556 S
O751 C759 1.381 . S
O752 Fe743 1.935 . S
O752 C759 1.421 . S
C753 O749 1.381 . S
C753 O750 1.421 . S
O754 Fe743 2.077 1_454 S
O754 C766 1.381 . S
O755 Fe738 1.935 1_554 S
O755 C766 1.421 . S
O756 Fe736 2.077 1_655 S
O756 C744 1.381 . S
O757 Fe739 1.935 . S
O757 C744 1.421 . S
C758 O745 1.381 . S
C758 O746 1.421 . S
C759 O751 1.381 . S
C759 O752 1.421 . S
C760 O761 1.381 . S
C760 O762 1.421 . S
O761 Fe739 2.077 . S
O761 C760 1.381 . S
O762 Fe743 1.935 1_554 S
O762 C760 1.421 . S
C763 O747 1.381 . S
C763 O748 1.421 . S
O764 Fe738 2.077 1_554 S
O764 C767 1.381 . S
O765 Fe736 1.935 . S
O765 C767 1.421 . S
C766 O754 1.381 . S
C766 O755 1.421 . S
C767 O764 1.381 . S
C767 O765 1.421 . S
Fe768 O769 1.886 . S
Fe768 O772 1.715 . S
Fe768 O777 2.077 . S
Fe768 O782 1.935 . S
Fe768 O788 2.077 . S
Fe768 O797 1.935 . S
O769 Fe768 1.886 . S
O769 Fe771 1.715 . S
Fe770 O772 1.886 1_554 S
Fe770 O773 1.715 . S
Fe770 O780 1.935 . S
Fe770 O781 2.077 1_554 S
Fe770 O787 1.935 . S
Fe770 O796 2.077 1_554 S
Fe771 O769 1.715 . S
Fe771 O774 1.886 1_556 S
Fe771 O778 1.935 . S
Fe771 O783 2.077 1_556 S
Fe771 O789 1.935 . S
Fe771 O793 2.077 1_556 S
O772 Fe768 1.715 . S
O772 Fe770 1.886 1_556 S
O773 Fe770 1.715 . S
O773 Fe775 1.886 . S
O774 Fe771 1.886 1_554 S
O774 Fe775 1.715 . S
Fe775 O773 1.886 . S
Fe775 O774 1.715 . S
Fe775 O779 2.077 . S
Fe775 O784 1.935 . S
Fe775 O786 2.077 . S
Fe775 O794 1.935 . S
C776 O788 1.381 . S
C776 O789 1.421 . S
O777 Fe768 2.077 . S
O777 C790 1.381 . S
O778 Fe771 1.935 . S
O778 C790 1.421 . S
O779 Fe775 2.077 . S
O779 C795 1.381 . S
O780 Fe770 1.935 . S
O780 C795 1.421 . S
O781 Fe770 2.077 1_556 S
O781 C785 1.381 . S
O782 Fe768 1.935 . S
O782 C785 1.421 . S
O783 Fe771 2.077 1_554 S
O783 C791 1.381 . S
O784 Fe775 1.935 . S
O784 C791 1.421 . S
C785 O781 1.381 . S
C785 O782 1.421 . S
O786 Fe775 2.077 . S
O786 C798 1.381 . S
O787 Fe770 1.935 . S
O787 C798 1.421 . S
O788 Fe768 2.077 . S
O788 C776 1.381 . S
O789 Fe771 1.935 . S
O789 C776 1.421 . S
C790 O777 1.381 . S
C790 O778 1.421 . S
C791 O783 1.381 . S
C791 O784 1.421 . S
C792 O793 1.381 . S
C792 O794 1.421 . S
O793 Fe771 2.077 1_554 S
O793 C792 1.381 . S
O794 Fe775 1.935 . S
O794 C792 1.421 . S
C795 O779 1.381 . S
C795 O780 1.421 . S
O796 Fe770 2.077 1_556 S
O796 C799 1.381 . S
O797 Fe768 1.935 . S
O797 C799 1.421 . S
C798 O786 1.381 . S
C798 O787 1.421 . S
C799 O796 1.381 . S
C799 O797 1.421 . S
Fe800 O801 1.886 . S
Fe800 O804 1.715 . S
Fe800 O809 2.077 1_655 S
Fe800 O814 1.935 1_655 S
Fe800 O820 2.077 . S
Fe800 O829 1.935 . S
O801 Fe800 1.886 . S
O801 Fe803 1.715 . S
Fe802 O804 1.886 1_455 S
Fe802 O805 1.715 . S
Fe802 O812 1.935 . S
Fe802 O813 2.077 . S
Fe802 O819 1.935 1_455 S
Fe802 O828 2.077 1_455 S
Fe803 O801 1.715 . S
Fe803 O806 1.886 1_655 S
Fe803 O810 1.935 1_655 S
Fe803 O815 2.077 1_655 S
Fe803 O821 1.935 . S
Fe803 O825 2.077 . S
O804 Fe800 1.715 . S
O804 Fe802 1.886 1_655 S
O805 Fe802 1.715 . S
O805 Fe807 1.886 . S
O806 Fe803 1.886 1_455 S
O806 Fe807 1.715 . S
Fe807 O805 1.886 . S
Fe807 O806 1.715 . S
Fe807 O811 2.077 . S
Fe807 O816 1.935 . S
Fe807 O818 2.077 1_455 S
Fe807 O826 1.935 1_455 S
C808 O820 1.381 . S
C808 O821 1.421 . S
O809 Fe800 2.077 1_455 S
O809 C822 1.381 . S
O810 Fe803 1.935 1_455 S
O810 C822 1.421 . S
O811 Fe807 2.077 . S
O811 C827 1.381 . S
O812 Fe802 1.935 . S
O812 C827 1.421 . S
O813 Fe802 2.077 . S
O813 C817 1.381 . S
O814 Fe800 1.935 1_455 S
O814 C817 1.421 . S
O815 Fe803 2.077 1_455 S
O815 C823 1.381 . S
O816 Fe807 1.935 . S
O816 C823 1.421 . S
C817 O813 1.381 . S
C817 O814 1.421 . S
O818 Fe807 2.077 1_655 S
O818 C830 1.381 . S
O819 Fe802 1.935 1_655 S
O819 C830 1.421 . S
O820 Fe800 2.077 . S
O820 C808 1.381 . S
O821 Fe803 1.935 . S
O821 C808 1.421 . S
C822 O809 1.381 . S
C822 O810 1.421 . S
C823 O815 1.381 . S
C823 O816 1.421 . S
C824 O825 1.381 . S
C824 O826 1.421 . S
O825 Fe803 2.077 . S
O825 C824 1.381 . S
O826 Fe807 1.935 1_655 S
O826 C824 1.421 . S
C827 O811 1.381 . S
C827 O812 1.421 . S
O828 Fe802 2.077 1_655 S
O828 C831 1.381 . S
O829 Fe800 1.935 . S
O829 C831 1.421 . S
C830 O818 1.381 . S
C830 O819 1.421 . S
C831 O828 1.381 . S
C831 O829 1.421 . S
Fe832 O833 1.886 . S
Fe832 O836 1.715 . S
Fe832 O841 2.077 . S
Fe832 O846 1.935 . S
Fe832 O852 2.077 . S
Fe832 O861 1.935 . S
O833 Fe832 1.886 . S
O833 Fe835 1.715 1_565 S
Fe834 O836 1.886 . S
Fe834 O837 1.715 1_565 S
Fe834 O844 1.935 1_565 S
Fe834 O845 2.077 . S
Fe834 O851 1.935 1_565 S
Fe834 O860 2.077 . S
Fe835 O833 1.715 1_545 S
Fe835 O838 1.886 . S
Fe835 O842 1.935 1_545 S
Fe835 O847 2.077 . S
Fe835 O853 1.935 1_545 S
Fe835 O857 2.077 . S
O836 Fe832 1.715 . S
O836 Fe834 1.886 . S
O837 Fe834 1.715 1_545 S
O837 Fe839 1.886 . S
O838 Fe835 1.886 . S
O838 Fe839 1.715 . S
Fe839 O837 1.886 . S
Fe839 O838 1.715 . S
Fe839 O843 2.077 . S
Fe839 O848 1.935 . S
Fe839 O850 2.077 . S
Fe839 O858 1.935 . S
C840 O852 1.381 . S
C840 O853 1.421 . S
O841 Fe832 2.077 . S
O841 C854 1.381 . S
O842 Fe835 1.935 1_565 S
O842 C854 1.421 . S
O843 Fe839 2.077 . S
O843 C859 1.381 . S
O844 Fe834 1.935 1_545 S
O844 C859 1.421 . S
O845 Fe834 2.077 . S
O845 C849 1.381 . S
O846 Fe832 1.935 . S
O846 C849 1.421 . S
O847 Fe835 2.077 . S
O847 C855 1.381 . S
O848 Fe839 1.935 . S
O848 C855 1.421 . S
C849 O845 1.381 . S
C849 O846 1.421 . S
O850 Fe839 2.077 . S
O850 C862 1.381 . S
O851 Fe834 1.935 1_545 S
O851 C862 1.421 . S
O852 Fe832 2.077 . S
O852 C840 1.381 . S
O853 Fe835 1.935 1_565 S
O853 C840 1.421 . S
C854 O841 1.381 . S
C854 O842 1.421 . S
C855 O847 1.381 . S
C855 O848 1.421 . S
C856 O857 1.381 . S
C856 O858 1.421 . S
O857 Fe835 2.077 . S
O857 C856 1.381 . S
O858 Fe839 1.935 . S
O858 C856 1.421 . S
C859 O843 1.381 . S
C859 O844 1.421 . S
O860 Fe834 2.077 . S
O860 C863 1.381 . S
O861 Fe832 1.935 . S
O861 C863 1.421 . S
C862 O850 1.381 . S
C862 O851 1.421 . S
C863 O860 1.381 . S
C863 O861 1.421 . S
C864 C865 1.387 . S
C864 H868 0.950 . S
C864 C873 1.390 . S
C865 C864 1.387 . S
C865 C867 1.387 . S
H866 C873 0.950 . S
C867 C865 1.387 . S
C867 C869 1.390 . S
C867 H871 0.950 . S
H868 C864 0.950 . S
C869 C867 1.390 . S
C869 C870 1.387 . S
C869 H872 0.950 . S
C870 C869 1.387 . S
C870 C873 1.387 . S
H871 C867 0.950 . S
H872 C869 0.950 . S
C873 C864 1.390 . S
C873 H866 0.950 . S
C873 C870 1.387 . S
C874 C875 1.387 . S
C874 H878 0.950 . S
C874 C883 1.390 . S
C875 C874 1.387 . S
C875 C877 1.387 . S
H876 C883 0.950 . S
C877 C875 1.387 . S
C877 C879 1.390 . S
C877 H881 0.950 . S
H878 C874 0.950 . S
C879 C877 1.390 . S
C879 C880 1.387 . S
C879 H882 0.950 . S
C880 C879 1.387 . S
C880 C883 1.387 . S
H881 C877 0.950 . S
H882 C879 0.950 . S
C883 C874 1.390 . S
C883 H876 0.950 . S
C883 C880 1.387 . S
C884 C885 1.387 . S
C884 H888 0.950 . S
C884 C893 1.390 . S
C885 C884 1.387 . S
C885 C887 1.387 . S
H886 C893 0.950 . S
C887 C885 1.387 . S
C887 C889 1.390 . S
C887 H891 0.950 . S
H888 C884 0.950 . S
C889 C887 1.390 . S
C889 C890 1.387 . S
C889 H892 0.950 . S
C890 C889 1.387 . S
C890 C893 1.387 . S
H891 C887 0.950 . S
H892 C889 0.950 . S
C893 C884 1.390 . S
C893 H886 0.950 . S
C893 C890 1.387 . S
C894 C895 1.387 . S
C894 H898 0.950 . S
C894 C903 1.390 . S
C895 C894 1.387 . S
C895 C897 1.387 . S
H896 C903 0.950 . S
C897 C895 1.387 . S
C897 C899 1.390 . S
C897 H901 0.950 . S
H898 C894 0.950 . S
C899 C897 1.390 . S
C899 C900 1.387 . S
C899 H902 0.950 . S
C900 C899 1.387 . S
C900 C903 1.387 . S
H901 C897 0.950 . S
H902 C899 0.950 . S
C903 C894 1.390 . S
C903 H896 0.950 . S
C903 C900 1.387 . S
C904 C905 1.387 . S
C904 H908 0.950 . S
C904 C913 1.390 . S
C905 C904 1.387 . S
C905 C907 1.387 . S
H906 C913 0.950 . S
C907 C905 1.387 . S
C907 C909 1.390 . S
C907 H911 0.950 . S
H908 C904 0.950 . S
C909 C907 1.390 . S
C909 C910 1.387 . S
C909 H912 0.950 . S
C910 C909 1.387 . S
C910 C913 1.387 . S
H911 C907 0.950 . S
H912 C909 0.950 . S
C913 C904 1.390 . S
C913 H906 0.950 . S
C913 C910 1.387 . S
C914 C915 1.387 . S
C914 H918 0.950 . S
C914 C923 1.390 . S
C915 C914 1.387 . S
C915 C917 1.387 . S
H916 C923 0.950 . S
C917 C915 1.387 . S
C917 C919 1.390 . S
C917 H921 0.950 . S
H918 C914 0.950 . S
C919 C917 1.390 . S
C919 C920 1.387 . S
C919 H922 0.950 . S
C920 C919 1.387 . S
C920 C923 1.387 . S
H921 C917 0.950 . S
H922 C919 0.950 . S
C923 C914 1.390 . S
C923 H916 0.950 . S
C923 C920 1.387 . S
C924 C925 1.387 . S
C924 H928 0.950 . S
C924 C933 1.390 . S
C925 C924 1.387 . S
C925 C927 1.387 . S
H926 C933 0.950 . S
C927 C925 1.387 . S
C927 C929 1.390 . S
C927 H931 0.950 . S
H928 C924 0.950 . S
C929 C927 1.390 . S
C929 C930 1.387 . S
C929 H932 0.950 . S
C930 C929 1.387 . S
C930 C933 1.387 . S
H931 C927 0.950 . S
H932 C929 0.950 . S
C933 C924 1.390 . S
C933 H926 0.950 . S
C933 C930 1.387 . S
C934 C935 1.387 . S
C934 H938 0.950 . S
C934 C943 1.390 . S
C935 C934 1.387 . S
C935 C937 1.387 . S
H936 C943 0.950 . S
C937 C935 1.387 . S
C937 C939 1.390 . S
C937 H941 0.950 . S
H938 C934 0.950 . S
C939 C937 1.390 . S
C939 C940 1.387 . S
C939 H942 0.950 . S
C940 C939 1.387 . S
C940 C943 1.387 . S
H941 C937 0.950 . S
H942 C939 0.950 . S
C943 C934 1.390 . S
C943 H936 0.950 . S
C943 C940 1.387 . S
C944 C945 1.387 . S
C944 H948 0.950 . S
C944 C953 1.390 . S
C945 C944 1.387 . S
C945 C947 1.387 . S
H946 C953 0.950 . S
C947 C945 1.387 . S
C947 C949 1.390 . S
C947 H951 0.950 . S
H948 C944 0.950 . S
C949 C947 1.390 . S
C949 C950 1.387 . S
C949 H952 0.950 . S
C950 C949 1.387 . S
C950 C953 1.387 . S
H951 C947 0.950 . S
H952 C949 0.950 . S
C953 C944 1.390 . S
C953 H946 0.950 . S
C953 C950 1.387 . S
C954 C955 1.387 . S
C954 H958 0.950 . S
C954 C963 1.390 . S
C955 C954 1.387 . S
C955 C957 1.387 . S
H956 C963 0.950 . S
C957 C955 1.387 . S
C957 C959 1.390 . S
C957 H961 0.950 . S
H958 C954 0.950 . S
C959 C957 1.390 . S
C959 C960 1.387 . S
C959 H962 0.950 . S
C960 C959 1.387 . S
C960 C963 1.387 . S
H961 C957 0.950 . S
H962 C959 0.950 . S
C963 C954 1.390 . S
C963 H956 0.950 . S
C963 C960 1.387 . S
C964 C965 1.387 . S
C964 H968 0.950 . S
C964 C973 1.390 . S
C965 C964 1.387 . S
C965 C967 1.387 . S
H966 C973 0.950 . S
C967 C965 1.387 . S
C967 C969 1.390 . S
C967 H971 0.950 . S
H968 C964 0.950 . S
C969 C967 1.390 . S
C969 C970 1.387 . S
C969 H972 0.950 . S
C970 C969 1.387 . S
C970 C973 1.387 . S
H971 C967 0.950 . S
H972 C969 0.950 . S
C973 C964 1.390 . S
C973 H966 0.950 . S
C973 C970 1.387 . S
C974 C975 1.387 . S
C974 H978 0.950 . S
C974 C983 1.390 . S
C975 C974 1.387 . S
C975 C977 1.387 . S
H976 C983 0.950 . S
C977 C975 1.387 . S
C977 C979 1.390 . S
C977 H981 0.950 . S
H978 C974 0.950 . S
C979 C977 1.390 . S
C979 C980 1.387 . S
C979 H982 0.950 . S
C980 C979 1.387 . S
C980 C983 1.387 . S
H981 C977 0.950 . S
H982 C979 0.950 . S
C983 C974 1.390 . S
C983 H976 0.950 . S
C983 C980 1.387 . S
C984 C985 1.387 . S
C984 H988 0.950 . S
C984 C993 1.390 . S
C985 C984 1.387 . S
C985 C987 1.387 . S
H986 C993 0.950 . S
C987 C985 1.387 . S
C987 C989 1.390 . S
C987 H991 0.950 . S
H988 C984 0.950 . S
C989 C987 1.390 . S
C989 C990 1.387 . S
C989 H992 0.950 . S
C990 C989 1.387 . S
C990 C993 1.387 . S
H991 C987 0.950 . S
H992 C989 0.950 . S
C993 C984 1.390 . S
C993 H986 0.950 . S
C993 C990 1.387 . S
C994 C995 1.387 . S
C994 H998 0.950 . S
C994 C1003 1.390 . S
C995 C994 1.387 . S
C995 C997 1.387 . S
H996 C1003 0.950 . S
C997 C995 1.387 . S
C997 C999 1.390 . S
C997 H1001 0.950 . S
H998 C994 0.950 . S
C999 C997 1.390 . S
C999 C1000 1.387 . S
C999 H1002 0.950 . S
C1000 C999 1.387 . S
C1000 C1003 1.387 . S
H1001 C997 0.950 . S
H1002 C999 0.950 . S
C1003 C994 1.390 . S
C1003 H996 0.950 . S
C1003 C1000 1.387 . S
C1004 C1005 1.387 . S
C1004 H1008 0.950 . S
C1004 C1013 1.390 . S
C1005 C1004 1.387 . S
C1005 C1007 1.387 . S
H1006 C1013 0.950 . S
C1007 C1005 1.387 . S
C1007 C1009 1.390 . S
C1007 H1011 0.950 . S
H1008 C1004 0.950 . S
C1009 C1007 1.390 . S
C1009 C1010 1.387 . S
C1009 H1012 0.950 . S
C1010 C1009 1.387 . S
C1010 C1013 1.387 . S
H1011 C1007 0.950 . S
H1012 C1009 0.950 . S
C1013 C1004 1.390 . S
C1013 H1006 0.950 . S
C1013 C1010 1.387 . S
C1014 C1015 1.387 . S
C1014 H1018 0.950 . S
C1014 C1023 1.390 . S
C1015 C1014 1.387 . S
C1015 C1017 1.387 . S
H1016 C1023 0.950 . S
C1017 C1015 1.387 . S
C1017 C1019 1.390 . S
C1017 H1021 0.950 . S
H1018 C1014 0.950 . S
C1019 C1017 1.390 . S
C1019 C1020 1.387 . S
C1019 H1022 0.950 . S
C1020 C1019 1.387 . S
C1020 C1023 1.387 . S
H1021 C1017 0.950 . S
H1022 C1019 0.950 . S
C1023 C1014 1.390 . S
C1023 H1016 0.950 . S
C1023 C1020 1.387 . S
C1024 C1025 1.387 . S
C1024 H1028 0.950 . S
C1024 C1033 1.390 . S
C1025 C1024 1.387 . S
C1025 C1027 1.387 . S
H1026 C1033 0.950 . S
C1027 C1025 1.387 . S
C1027 C1029 1.390 . S
C1027 H1031 0.950 . S
H1028 C1024 0.950 . S
C1029 C1027 1.390 . S
C1029 C1030 1.387 . S
C1029 H1032 0.950 . S
C1030 C1029 1.387 . S
C1030 C1033 1.387 . S
H1031 C1027 0.950 . S
H1032 C1029 0.950 . S
C1033 C1024 1.390 . S
C1033 H1026 0.950 . S
C1033 C1030 1.387 . S
C1034 C1035 1.387 . S
C1034 H1038 0.950 . S
C1034 C1043 1.390 . S
C1035 C1034 1.387 . S
C1035 C1037 1.387 . S
H1036 C1043 0.950 . S
C1037 C1035 1.387 . S
C1037 C1039 1.390 . S
C1037 H1041 0.950 . S
H1038 C1034 0.950 . S
C1039 C1037 1.390 . S
C1039 C1040 1.387 . S
C1039 H1042 0.950 . S
C1040 C1039 1.387 . S
C1040 C1043 1.387 . S
H1041 C1037 0.950 . S
H1042 C1039 0.950 . S
C1043 C1034 1.390 . S
C1043 H1036 0.950 . S
C1043 C1040 1.387 . S
C1044 C1045 1.387 . S
C1044 H1048 0.950 . S
C1044 C1053 1.390 . S
C1045 C1044 1.387 . S
C1045 C1047 1.387 . S
H1046 C1053 0.950 . S
C1047 C1045 1.387 . S
C1047 C1049 1.390 . S
C1047 H1051 0.950 . S
H1048 C1044 0.950 . S
C1049 C1047 1.390 . S
C1049 C1050 1.387 . S
C1049 H1052 0.950 . S
C1050 C1049 1.387 . S
C1050 C1053 1.387 . S
H1051 C1047 0.950 . S
H1052 C1049 0.950 . S
C1053 C1044 1.390 . S
C1053 H1046 0.950 . S
C1053 C1050 1.387 . S
C1054 C1055 1.387 . S
C1054 H1058 0.950 . S
C1054 C1063 1.390 . S
C1055 C1054 1.387 . S
C1055 C1057 1.387 . S
H1056 C1063 0.950 . S
C1057 C1055 1.387 . S
C1057 C1059 1.390 . S
C1057 H1061 0.950 . S
H1058 C1054 0.950 . S
C1059 C1057 1.390 . S
C1059 C1060 1.387 . S
C1059 H1062 0.950 . S
C1060 C1059 1.387 . S
C1060 C1063 1.387 . S
H1061 C1057 0.950 . S
H1062 C1059 0.950 . S
C1063 C1054 1.390 . S
C1063 H1056 0.950 . S
C1063 C1060 1.387 . S
C1064 C1065 1.387 . S
C1064 H1068 0.950 . S
C1064 C1073 1.390 . S
C1065 C1064 1.387 . S
C1065 C1067 1.387 . S
H1066 C1073 0.950 . S
C1067 C1065 1.387 . S
C1067 C1069 1.390 . S
C1067 H1071 0.950 . S
H1068 C1064 0.950 . S
C1069 C1067 1.390 . S
C1069 C1070 1.387 . S
C1069 H1072 0.950 . S
C1070 C1069 1.387 . S
C1070 C1073 1.387 . S
H1071 C1067 0.950 . S
H1072 C1069 0.950 . S
C1073 C1064 1.390 . S
C1073 H1066 0.950 . S
C1073 C1070 1.387 . S
C1074 C1075 1.387 . S
C1074 H1078 0.950 . S
C1074 C1083 1.390 . S
C1075 C1074 1.387 . S
C1075 C1077 1.387 . S
H1076 C1083 0.950 . S
C1077 C1075 1.387 . S
C1077 C1079 1.390 . S
C1077 H1081 0.950 . S
H1078 C1074 0.950 . S
C1079 C1077 1.390 . S
C1079 C1080 1.387 . S
C1079 H1082 0.950 . S
C1080 C1079 1.387 . S
C1080 C1083 1.387 . S
H1081 C1077 0.950 . S
H1082 C1079 0.950 . S
C1083 C1074 1.390 . S
C1083 H1076 0.950 . S
C1083 C1080 1.387 . S
C1084 C1085 1.387 . S
C1084 H1088 0.950 . S
C1084 C1093 1.390 . S
C1085 C1084 1.387 . S
C1085 C1087 1.387 . S
H1086 C1093 0.950 . S
C1087 C1085 1.387 . S
C1087 C1089 1.390 . S
C1087 H1091 0.950 . S
H1088 C1084 0.950 . S
C1089 C1087 1.390 . S
C1089 C1090 1.387 . S
C1089 H1092 0.950 . S
C1090 C1089 1.387 . S
C1090 C1093 1.387 . S
H1091 C1087 0.950 . S
H1092 C1089 0.950 . S
C1093 C1084 1.390 . S
C1093 H1086 0.950 . S
C1093 C1090 1.387 . S
C1094 C1095 1.387 . S
C1094 H1098 0.950 . S
C1094 C1103 1.390 . S
C1095 C1094 1.387 . S
C1095 C1097 1.387 . S
H1096 C1103 0.950 . S
C1097 C1095 1.387 . S
C1097 C1099 1.390 . S
C1097 H1101 0.950 . S
H1098 C1094 0.950 . S
C1099 C1097 1.390 . S
C1099 C1100 1.387 . S
C1099 H1102 0.950 . S
C1100 C1099 1.387 . S
C1100 C1103 1.387 . S
H1101 C1097 0.950 . S
H1102 C1099 0.950 . S
C1103 C1094 1.390 . S
C1103 H1096 0.950 . S
C1103 C1100 1.387 . S
C1104 C1105 1.387 . S
C1104 H1108 0.950 . S
C1104 C1113 1.390 . S
C1105 C1104 1.387 . S
C1105 C1107 1.387 . S
H1106 C1113 0.950 . S
C1107 C1105 1.387 . S
C1107 C1109 1.390 . S
C1107 H1111 0.950 . S
H1108 C1104 0.950 . S
C1109 C1107 1.390 . S
C1109 C1110 1.387 . S
C1109 H1112 0.950 . S
C1110 C1109 1.387 . S
C1110 C1113 1.387 . S
H1111 C1107 0.950 . S
H1112 C1109 0.950 . S
C1113 C1104 1.390 . S
C1113 H1106 0.950 . S
C1113 C1110 1.387 . S
C1114 C1115 1.387 . S
C1114 H1118 0.950 . S
C1114 C1123 1.390 . S
C1115 C1114 1.387 . S
C1115 C1117 1.387 . S
H1116 C1123 0.950 . S
C1117 C1115 1.387 . S
C1117 C1119 1.390 . S
C1117 H1121 0.950 . S
H1118 C1114 0.950 . S
C1119 C1117 1.390 . S
C1119 C1120 1.387 . S
C1119 H1122 0.950 . S
C1120 C1119 1.387 . S
C1120 C1123 1.387 . S
H1121 C1117 0.950 . S
H1122 C1119 0.950 . S
C1123 C1114 1.390 . S
C1123 H1116 0.950 . S
C1123 C1120 1.387 . S
C1124 C1125 1.387 . S
C1124 H1128 0.950 . S
C1124 C1133 1.390 . S
C1125 C1124 1.387 . S
C1125 C1127 1.387 . S
H1126 C1133 0.950 . S
C1127 C1125 1.387 . S
C1127 C1129 1.390 . S
C1127 H1131 0.950 . S
H1128 C1124 0.950 . S
C1129 C1127 1.390 . S
C1129 C1130 1.387 . S
C1129 H1132 0.950 . S
C1130 C1129 1.387 . S
C1130 C1133 1.387 . S
H1131 C1127 0.950 . S
H1132 C1129 0.950 . S
C1133 C1124 1.390 . S
C1133 H1126 0.950 . S
C1133 C1130 1.387 . S
C1134 C1135 1.387 . S
C1134 H1138 0.950 . S
C1134 C1143 1.390 . S
C1135 C1134 1.387 . S
C1135 C1137 1.387 . S
H1136 C1143 0.950 . S
C1137 C1135 1.387 . S
C1137 C1139 1.390 . S
C1137 H1141 0.950 . S
H1138 C1134 0.950 . S
C1139 C1137 1.390 . S
C1139 C1140 1.387 . S
C1139 H1142 0.950 . S
C1140 C1139 1.387 . S
C1140 C1143 1.387 . S
H1141 C1137 0.950 . S
H1142 C1139 0.950 . S
C1143 C1134 1.390 . S
C1143 H1136 0.950 . S
C1143 C1140 1.387 . S
C1144 C1145 1.387 . S
C1144 H1148 0.950 . S
C1144 C1153 1.390 . S
C1145 C1144 1.387 . S
C1145 C1147 1.387 . S
H1146 C1153 0.950 . S
C1147 C1145 1.387 . S
C1147 C1149 1.390 . S
C1147 H1151 0.950 . S
H1148 C1144 0.950 . S
C1149 C1147 1.390 . S
C1149 C1150 1.387 . S
C1149 H1152 0.950 . S
C1150 C1149 1.387 . S
C1150 C1153 1.387 . S
H1151 C1147 0.950 . S
H1152 C1149 0.950 . S
C1153 C1144 1.390 . S
C1153 H1146 0.950 . S
C1153 C1150 1.387 . S
C1154 C1155 1.387 . S
C1154 H1158 0.950 . S
C1154 C1163 1.390 . S
C1155 C1154 1.387 . S
C1155 C1157 1.387 . S
H1156 C1163 0.950 . S
C1157 C1155 1.387 . S
C1157 C1159 1.390 . S
C1157 H1161 0.950 . S
H1158 C1154 0.950 . S
C1159 C1157 1.390 . S
C1159 C1160 1.387 . S
C1159 H1162 0.950 . S
C1160 C1159 1.387 . S
C1160 C1163 1.387 . S
H1161 C1157 0.950 . S
H1162 C1159 0.950 . S
C1163 C1154 1.390 . S
C1163 H1156 0.950 . S
C1163 C1160 1.387 . S
C1164 C1165 1.387 . S
C1164 H1168 0.950 . S
C1164 C1173 1.390 . S
C1165 C1164 1.387 . S
C1165 C1167 1.387 . S
H1166 C1173 0.950 . S
C1167 C1165 1.387 . S
C1167 C1169 1.390 . S
C1167 H1171 0.950 . S
H1168 C1164 0.950 . S
C1169 C1167 1.390 . S
C1169 C1170 1.387 . S
C1169 H1172 0.950 . S
C1170 C1169 1.387 . S
C1170 C1173 1.387 . S
H1171 C1167 0.950 . S
H1172 C1169 0.950 . S
C1173 C1164 1.390 . S
C1173 H1166 0.950 . S
C1173 C1170 1.387 . S
C1174 C1175 1.387 . S
C1174 H1178 0.950 . S
C1174 C1183 1.390 . S
C1175 C1174 1.387 . S
C1175 C1177 1.387 . S
H1176 C1183 0.950 . S
C1177 C1175 1.387 . S
C1177 C1179 1.390 . S
C1177 H1181 0.950 . S
H1178 C1174 0.950 . S
C1179 C1177 1.390 . S
C1179 C1180 1.387 . S
C1179 H1182 0.950 . S
C1180 C1179 1.387 . S
C1180 C1183 1.387 . S
H1181 C1177 0.950 . S
H1182 C1179 0.950 . S
C1183 C1174 1.390 . S
C1183 H1176 0.950 . S
C1183 C1180 1.387 . S
C1184 C1185 1.387 . S
C1184 H1188 0.950 . S
C1184 C1193 1.390 . S
C1185 C1184 1.387 . S
C1185 C1187 1.387 . S
H1186 C1193 0.950 . S
C1187 C1185 1.387 . S
C1187 C1189 1.390 . S
C1187 H1191 0.950 . S
H1188 C1184 0.950 . S
C1189 C1187 1.390 . S
C1189 C1190 1.387 . S
C1189 H1192 0.950 . S
C1190 C1189 1.387 . S
C1190 C1193 1.387 . S
H1191 C1187 0.950 . S
H1192 C1189 0.950 . S
C1193 C1184 1.390 . S
C1193 H1186 0.950 . S
C1193 C1190 1.387 . S
C1194 C1195 1.387 . S
C1194 H1198 0.950 . S
C1194 C1203 1.390 . S
C1195 C1194 1.387 . S
C1195 C1197 1.387 . S
H1196 C1203 0.950 . S
C1197 C1195 1.387 . S
C1197 C1199 1.390 . S
C1197 H1201 0.950 . S
H1198 C1194 0.950 . S
C1199 C1197 1.390 . S
C1199 C1200 1.387 . S
C1199 H1202 0.950 . S
C1200 C1199 1.387 . S
C1200 C1203 1.387 . S
H1201 C1197 0.950 . S
H1202 C1199 0.950 . S
C1203 C1194 1.390 . S
C1203 H1196 0.950 . S
C1203 C1200 1.387 . S
C1204 C1205 1.387 . S
C1204 H1208 0.950 . S
C1204 C1213 1.390 . S
C1205 C1204 1.387 . S
C1205 C1207 1.387 . S
H1206 C1213 0.950 . S
C1207 C1205 1.387 . S
C1207 C1209 1.390 . S
C1207 H1211 0.950 . S
H1208 C1204 0.950 . S
C1209 C1207 1.390 . S
C1209 C1210 1.387 . S
C1209 H1212 0.950 . S
C1210 C1209 1.387 . S
C1210 C1213 1.387 . S
H1211 C1207 0.950 . S
H1212 C1209 0.950 . S
C1213 C1204 1.390 . S
C1213 H1206 0.950 . S
C1213 C1210 1.387 . S
C1214 C1215 1.387 . S
C1214 H1218 0.950 . S
C1214 C1223 1.390 . S
C1215 C1214 1.387 . S
C1215 C1217 1.387 . S
H1216 C1223 0.950 . S
C1217 C1215 1.387 . S
C1217 C1219 1.390 . S
C1217 H1221 0.950 . S
H1218 C1214 0.950 . S
C1219 C1217 1.390 . S
C1219 C1220 1.387 . S
C1219 H1222 0.950 . S
C1220 C1219 1.387 . S
C1220 C1223 1.387 . S
H1221 C1217 0.950 . S
H1222 C1219 0.950 . S
C1223 C1214 1.390 . S
C1223 H1216 0.950 . S
C1223 C1220 1.387 . S
C1224 C1225 1.387 . S
C1224 H1228 0.950 . S
C1224 C1233 1.390 . S
C1225 C1224 1.387 . S
C1225 C1227 1.387 . S
H1226 C1233 0.950 . S
C1227 C1225 1.387 . S
C1227 C1229 1.390 . S
C1227 H1231 0.950 . S
H1228 C1224 0.950 . S
C1229 C1227 1.390 . S
C1229 C1230 1.387 . S
C1229 H1232 0.950 . S
C1230 C1229 1.387 . S
C1230 C1233 1.387 . S
H1231 C1227 0.950 . S
H1232 C1229 0.950 . S
C1233 C1224 1.390 . S
C1233 H1226 0.950 . S
C1233 C1230 1.387 . S
C1234 C1235 1.387 . S
C1234 H1238 0.950 . S
C1234 C1243 1.390 . S
C1235 C1234 1.387 . S
C1235 C1237 1.387 . S
H1236 C1243 0.950 . S
C1237 C1235 1.387 . S
C1237 C1239 1.390 . S
C1237 H1241 0.950 . S
H1238 C1234 0.950 . S
C1239 C1237 1.390 . S
C1239 C1240 1.387 . S
C1239 H1242 0.950 . S
C1240 C1239 1.387 . S
C1240 C1243 1.387 . S
H1241 C1237 0.950 . S
H1242 C1239 0.950 . S
C1243 C1234 1.390 . S
C1243 H1236 0.950 . S
C1243 C1240 1.387 . S
C1244 C1245 1.387 . S
C1244 H1248 0.950 . S
C1244 C1253 1.390 . S
C1245 C1244 1.387 . S
C1245 C1247 1.387 . S
H1246 C1253 0.950 . S
C1247 C1245 1.387 . S
C1247 C1249 1.390 . S
C1247 H1251 0.950 . S
H1248 C1244 0.950 . S
C1249 C1247 1.390 . S
C1249 C1250 1.387 . S
C1249 H1252 0.950 . S
C1250 C1249 1.387 . S
C1250 C1253 1.387 . S
H1251 C1247 0.950 . S
H1252 C1249 0.950 . S
C1253 C1244 1.390 . S
C1253 H1246 0.950 . S
C1253 C1250 1.387 . S
C1254 C1255 1.387 . S
C1254 H1258 0.950 . S
C1254 C1263 1.390 . S
C1255 C1254 1.387 . S
C1255 C1257 1.387 . S
H1256 C1263 0.950 . S
C1257 C1255 1.387 . S
C1257 C1259 1.390 . S
C1257 H1261 0.950 . S
H1258 C1254 0.950 . S
C1259 C1257 1.390 . S
C1259 C1260 1.387 . S
C1259 H1262 0.950 . S
C1260 C1259 1.387 . S
C1260 C1263 1.387 . S
H1261 C1257 0.950 . S
H1262 C1259 0.950 . S
C1263 C1254 1.390 . S
C1263 H1256 0.950 . S
C1263 C1260 1.387 . S
C1264 C1265 1.387 . S
C1264 H1268 0.950 . S
C1264 C1273 1.390 . S
C1265 C1264 1.387 . S
C1265 C1267 1.387 . S
H1266 C1273 0.950 . S
C1267 C1265 1.387 . S
C1267 C1269 1.390 . S
C1267 H1271 0.950 . S
H1268 C1264 0.950 . S
C1269 C1267 1.390 . S
C1269 C1270 1.387 . S
C1269 H1272 0.950 . S
C1270 C1269 1.387 . S
C1270 C1273 1.387 . S
H1271 C1267 0.950 . S
H1272 C1269 0.950 . S
C1273 C1264 1.390 . S
C1273 H1266 0.950 . S
C1273 C1270 1.387 . S
C1274 C1275 1.387 . S
C1274 H1278 0.950 . S
C1274 C1283 1.390 . S
C1275 C1274 1.387 . S
C1275 C1277 1.387 . S
H1276 C1283 0.950 . S
C1277 C1275 1.387 . S
C1277 C1279 1.390 . S
C1277 H1281 0.950 . S
H1278 C1274 0.950 . S
C1279 C1277 1.390 . S
C1279 C1280 1.387 . S
C1279 H1282 0.950 . S
C1280 C1279 1.387 . S
C1280 C1283 1.387 . S
H1281 C1277 0.950 . S
H1282 C1279 0.950 . S
C1283 C1274 1.390 . S
C1283 H1276 0.950 . S
C1283 C1280 1.387 . S
C1284 C1285 1.387 . S
C1284 H1288 0.950 . S
C1284 C1293 1.390 . S
C1285 C1284 1.387 . S
C1285 C1287 1.387 . S
H1286 C1293 0.950 . S
C1287 C1285 1.387 . S
C1287 C1289 1.390 . S
C1287 H1291 0.950 . S
H1288 C1284 0.950 . S
C1289 C1287 1.390 . S
C1289 C1290 1.387 . S
C1289 H1292 0.950 . S
C1290 C1289 1.387 . S
C1290 C1293 1.387 . S
H1291 C1287 0.950 . S
H1292 C1289 0.950 . S
C1293 C1284 1.390 . S
C1293 H1286 0.950 . S
C1293 C1290 1.387 . S
C1294 C1295 1.387 . S
C1294 H1298 0.950 . S
C1294 C1303 1.390 . S
C1295 C1294 1.387 . S
C1295 C1297 1.387 . S
H1296 C1303 0.950 . S
C1297 C1295 1.387 . S
C1297 C1299 1.390 . S
C1297 H1301 0.950 . S
H1298 C1294 0.950 . S
C1299 C1297 1.390 . S
C1299 C1300 1.387 . S
C1299 H1302 0.950 . S
C1300 C1299 1.387 . S
C1300 C1303 1.387 . S
H1301 C1297 0.950 . S
H1302 C1299 0.950 . S
C1303 C1294 1.390 . S
C1303 H1296 0.950 . S
C1303 C1300 1.387 . S
C1304 C1305 1.387 . S
C1304 H1308 0.950 . S
C1304 C1313 1.390 . S
C1305 C1304 1.387 . S
C1305 C1307 1.387 . S
H1306 C1313 0.950 . S
C1307 C1305 1.387 . S
C1307 C1309 1.390 . S
C1307 H1311 0.950 . S
H1308 C1304 0.950 . S
C1309 C1307 1.390 . S
C1309 C1310 1.387 . S
C1309 H1312 0.950 . S
C1310 C1309 1.387 . S
C1310 C1313 1.387 . S
H1311 C1307 0.950 . S
H1312 C1309 0.950 . S
C1313 C1304 1.390 . S
C1313 H1306 0.950 . S
C1313 C1310 1.387 . S
C1314 C1315 1.387 . S
C1314 H1318 0.950 . S
C1314 C1323 1.390 . S
C1315 C1314 1.387 . S
C1315 C1317 1.387 . S
H1316 C1323 0.950 . S
C1317 C1315 1.387 . S
C1317 C1319 1.390 . S
C1317 H1321 0.950 . S
H1318 C1314 0.950 . S
C1319 C1317 1.390 . S
C1319 C1320 1.387 . S
C1319 H1322 0.950 . S
C1320 C1319 1.387 . S
C1320 C1323 1.387 . S
H1321 C1317 0.950 . S
H1322 C1319 0.950 . S
C1323 C1314 1.390 . S
C1323 H1316 0.950 . S
C1323 C1320 1.387 . S
C1324 C1325 1.387 . S
C1324 H1328 0.950 . S
C1324 C1333 1.390 . S
C1325 C1324 1.387 . S
C1325 C1327 1.387 . S
H1326 C1333 0.950 . S
C1327 C1325 1.387 . S
C1327 C1329 1.390 . S
C1327 H1331 0.950 . S
H1328 C1324 0.950 . S
C1329 C1327 1.390 . S
C1329 C1330 1.387 . S
C1329 H1332 0.950 . S
C1330 C1329 1.387 . S
C1330 C1333 1.387 . S
H1331 C1327 0.950 . S
H1332 C1329 0.950 . S
C1333 C1324 1.390 . S
C1333 H1326 0.950 . S
C1333 C1330 1.387 . S
C1334 C1335 1.387 . S
C1334 H1338 0.950 . S
C1334 C1343 1.390 . S
C1335 C1334 1.387 . S
C1335 C1337 1.387 . S
H1336 C1343 0.950 . S
C1337 C1335 1.387 . S
C1337 C1339 1.390 . S
C1337 H1341 0.950 . S
H1338 C1334 0.950 . S
C1339 C1337 1.390 . S
C1339 C1340 1.387 . S
C1339 H1342 0.950 . S
C1340 C1339 1.387 . S
C1340 C1343 1.387 . S
H1341 C1337 0.950 . S
H1342 C1339 0.950 . S
C1343 C1334 1.390 . S
C1343 H1336 0.950 . S
C1343 C1340 1.387 . S
C870 C689 1.748 . S
C865 C56 1.714 . S
C880 C694 1.207 . S
C875 C154 1.144 . S
C890 C695 1.701 . S
C885 C236 1.662 . S
C895 C310 0.959 . S
C900 C699 0.875 . S
C905 C394 1.143 . S
C910 C702 1.203 . S
C920 C703 1.701 . S
C915 C476 1.660 . S
C925 C574 0.956 . S
C930 C680 0.875 . S
C935 C656 1.713 . S
C940 C696 1.749 . S
C950 C734 2.376 . S
C945 C67 2.483 . S
C955 C139 1.642 . S
C960 C760 1.616 . S
C970 C712 1.197 . S
C965 C238 1.184 . S
C980 C767 1.641 . S
C975 C308 1.615 . S
C985 C392 1.647 . S
C990 C721 1.641 . S
C1000 C763 2.374 . S
C995 C487 2.472 . S
C1005 C559 1.664 . S
C1010 C727 1.640 . S
C1015 C658 1.182 . S
C1020 C758 1.204 . S
C1025 C58 1.181 . S
C1030 C766 1.202 . S
C1035 C403 1.641 . S
C1040 C753 1.618 . S
C1050 C731 1.197 . S
C1045 C478 1.183 . S
C1060 C759 1.640 . S
C1055 C572 1.615 . S
C1065 C643 2.484 . S
C1070 C726 2.377 . S
C1075 C223 2.472 . S
C1080 C744 2.374 . S
C1090 C735 1.639 . S
C1085 C319 1.664 . S
C1095 C152 1.647 . S
C1100 C728 1.640 . S
C1105 C644 1.686 . S
C1110 C790 1.653 . S
C1115 C406 1.123 . S
C1120 C785 1.179 . S
C1130 C799 1.570 . S
C1125 C488 1.639 . S
C1140 C776 0.601 . S
C1135 C562 0.964 . S
C1145 C142 1.120 . S
C1150 C792 1.180 . S
C1160 C791 1.569 . S
C1155 C224 1.636 . S
C1165 C322 0.963 . S
C1170 C795 0.600 . S
C1175 C68 1.688 . S
C1180 C798 1.654 . S
C1185 C655 2.492 . S
C1190 C824 2.461 . S
C1200 C840 1.542 . S
C1195 C391 1.641 . S
C1205 C490 1.193 . S
C1210 C822 1.253 . S
C1215 C560 1.622 . S
C1220 C855 1.633 . S
C1230 C831 1.602 . S
C1225 C140 1.631 . S
C1235 C235 2.499 . S
C1240 C849 2.424 . S
C1250 C827 1.539 . S
C1245 C307 1.643 . S
C1260 C862 1.223 . S
C1255 C70 1.201 . S
C1270 C854 1.223 . S
C1265 C646 1.201 . S
C1275 C151 1.641 . S
C1280 C859 1.545 . S
C1285 C226 1.192 . S
C1290 C830 1.254 . S
C1300 C863 1.633 . S
C1295 C320 1.623 . S
C1305 C55 2.492 . S
C1310 C817 2.460 . S
C1315 C475 2.499 . S
C1320 C856 2.424 . S
C1330 C808 1.538 . S
C1325 C571 1.643 . S
C1340 C823 1.602 . S
C1335 C404 1.630 . S
