# Generated by pormake.
# Topology cor, (4,6)-cn, num edge types: 1
# Building blocks:
#     Node 0, Type 0, BuildingBlock: CEKHIL_clean_sbu_0, # of connection points: 4
#     Node 1, Type 0, BuildingBlock: CEKHIL_clean_sbu_0, # of connection points: 4
#     Node 2, Type 0, BuildingBlock: CEKHIL_clean_sbu_0, # of connection points: 4
#     Node 3, Type 0, BuildingBlock: CEKHIL_clean_sbu_0, # of connection points: 4
#     Node 4, Type 0, BuildingBlock: CEKHIL_clean_sbu_0, # of connection points: 4
#     Node 5, Type 0, BuildingBlock: CEKHIL_clean_sbu_0, # of connection points: 4
#     Node 6, Type 0, BuildingBlock: CEKHIL_clean_sbu_0, # of connection points: 4
#     Node 7, Type 0, BuildingBlock: CEKHIL_clean_sbu_0, # of connection points: 4
#     Node 8, Type 0, BuildingBlock: CEKHIL_clean_sbu_0, # of connection points: 4
#     Node 9, Type 0, BuildingBlock: CEKHIL_clean_sbu_0, # of connection points: 4
#     Node 10, Type 0, BuildingBlock: CEKHIL_clean_sbu_0, # of connection points: 4
#     Node 11, Type 0, BuildingBlock: CEKHIL_clean_sbu_0, # of connection points: 4
#     Node 12, Type 0, BuildingBlock: CEKHIL_clean_sbu_0, # of connection points: 4
#     Node 13, Type 0, BuildingBlock: CEKHIL_clean_sbu_0, # of connection points: 4
#     Node 14, Type 0, BuildingBlock: CEKHIL_clean_sbu_0, # of connection points: 4
#     Node 15, Type 0, BuildingBlock: CEKHIL_clean_sbu_0, # of connection points: 4
#     Node 16, Type 0, BuildingBlock: CEKHIL_clean_sbu_0, # of connection points: 4
#     Node 17, Type 0, BuildingBlock: CEKHIL_clean_sbu_0, # of connection points: 4
#     Node 18, Type 1, BuildingBlock: MIDCAF_clean_sbu_0, # of connection points: 6
#     Node 19, Type 1, BuildingBlock: MIDCAF_clean_sbu_0, # of connection points: 6
#     Node 20, Type 1, BuildingBlock: MIDCAF_clean_sbu_0, # of connection points: 6
#     Node 21, Type 1, BuildingBlock: MIDCAF_clean_sbu_0, # of connection points: 6
#     Node 22, Type 1, BuildingBlock: MIDCAF_clean_sbu_0, # of connection points: 6
#     Node 23, Type 1, BuildingBlock: MIDCAF_clean_sbu_0, # of connection points: 6
#     Node 24, Type 1, BuildingBlock: MIDCAF_clean_sbu_0, # of connection points: 6
#     Node 25, Type 1, BuildingBlock: MIDCAF_clean_sbu_0, # of connection points: 6
#     Node 26, Type 1, BuildingBlock: MIDCAF_clean_sbu_0, # of connection points: 6
#     Node 27, Type 1, BuildingBlock: MIDCAF_clean_sbu_0, # of connection points: 6
#     Node 28, Type 1, BuildingBlock: MIDCAF_clean_sbu_0, # of connection points: 6
#     Node 29, Type 1, BuildingBlock: MIDCAF_clean_sbu_0, # of connection points: 6
#     Edge 30, Type (0, 1), BuildingBlock: MIFKUJ_clean_linker_0, # of connection points: 2
#     Edge 31, Type (0, 1), BuildingBlock: MIFKUJ_clean_linker_0, # of connection points: 2
#     Edge 32, Type (0, 1), BuildingBlock: MIFKUJ_clean_linker_0, # of connection points: 2
#     Edge 33, Type (0, 1), BuildingBlock: MIFKUJ_clean_linker_0, # of connection points: 2
#     Edge 34, Type (0, 1), BuildingBlock: MIFKUJ_clean_linker_0, # of connection points: 2
#     Edge 35, Type (0, 1), BuildingBlock: MIFKUJ_clean_linker_0, # of connection points: 2
#     Edge 36, Type (0, 1), BuildingBlock: MIFKUJ_clean_linker_0, # of connection points: 2
#     Edge 37, Type (0, 1), BuildingBlock: MIFKUJ_clean_linker_0, # of connection points: 2
#     Edge 38, Type (0, 1), BuildingBlock: MIFKUJ_clean_linker_0, # of connection points: 2
#     Edge 39, Type (0, 1), BuildingBlock: MIFKUJ_clean_linker_0, # of connection points: 2
#     Edge 40, Type (0, 1), BuildingBlock: MIFKUJ_clean_linker_0, # of connection points: 2
#     Edge 41, Type (0, 1), BuildingBlock: MIFKUJ_clean_linker_0, # of connection points: 2
#     Edge 42, Type (0, 1), BuildingBlock: MIFKUJ_clean_linker_0, # of connection points: 2
#     Edge 43, Type (0, 1), BuildingBlock: MIFKUJ_clean_linker_0, # of connection points: 2
#     Edge 44, Type (0, 1), BuildingBlock: MIFKUJ_clean_linker_0, # of connection points: 2
#     Edge 45, Type (0, 1), BuildingBlock: MIFKUJ_clean_linker_0, # of connection points: 2
#     Edge 46, Type (0, 1), BuildingBlock: MIFKUJ_clean_linker_0, # of connection points: 2
#     Edge 47, Type (0, 1), BuildingBlock: MIFKUJ_clean_linker_0, # of connection points: 2
#     Edge 48, Type (0, 1), BuildingBlock: MIFKUJ_clean_linker_0, # of connection points: 2
#     Edge 49, Type (0, 1), BuildingBlock: MIFKUJ_clean_linker_0, # of connection points: 2
#     Edge 50, Type (0, 1), BuildingBlock: MIFKUJ_clean_linker_0, # of connection points: 2
#     Edge 51, Type (0, 1), BuildingBlock: MIFKUJ_clean_linker_0, # of connection points: 2
#     Edge 52, Type (0, 1), BuildingBlock: MIFKUJ_clean_linker_0, # of connection points: 2
#     Edge 53, Type (0, 1), BuildingBlock: MIFKUJ_clean_linker_0, # of connection points: 2
#     Edge 54, Type (0, 1), BuildingBlock: MIFKUJ_clean_linker_0, # of connection points: 2
#     Edge 55, Type (0, 1), BuildingBlock: MIFKUJ_clean_linker_0, # of connection points: 2
#     Edge 56, Type (0, 1), BuildingBlock: MIFKUJ_clean_linker_0, # of connection points: 2
#     Edge 57, Type (0, 1), BuildingBlock: MIFKUJ_clean_linker_0, # of connection points: 2
#     Edge 58, Type (0, 1), BuildingBlock: MIFKUJ_clean_linker_0, # of connection points: 2
#     Edge 59, Type (0, 1), BuildingBlock: MIFKUJ_clean_linker_0, # of connection points: 2
#     Edge 60, Type (0, 1), BuildingBlock: MIFKUJ_clean_linker_0, # of connection points: 2
#     Edge 61, Type (0, 1), BuildingBlock: MIFKUJ_clean_linker_0, # of connection points: 2
#     Edge 62, Type (0, 1), BuildingBlock: MIFKUJ_clean_linker_0, # of connection points: 2
#     Edge 63, Type (0, 1), BuildingBlock: MIFKUJ_clean_linker_0, # of connection points: 2
#     Edge 64, Type (0, 1), BuildingBlock: MIFKUJ_clean_linker_0, # of connection points: 2
#     Edge 65, Type (0, 1), BuildingBlock: MIFKUJ_clean_linker_0, # of connection points: 2
#     Edge 66, Type (0, 1), BuildingBlock: MIFKUJ_clean_linker_0, # of connection points: 2
#     Edge 67, Type (0, 1), BuildingBlock: MIFKUJ_clean_linker_0, # of connection points: 2
#     Edge 68, Type (0, 1), BuildingBlock: MIFKUJ_clean_linker_0, # of connection points: 2
#     Edge 69, Type (0, 1), BuildingBlock: MIFKUJ_clean_linker_0, # of connection points: 2
#     Edge 70, Type (0, 1), BuildingBlock: MIFKUJ_clean_linker_0, # of connection points: 2
#     Edge 71, Type (0, 1), BuildingBlock: MIFKUJ_clean_linker_0, # of connection points: 2
#     Edge 72, Type (0, 1), BuildingBlock: MIFKUJ_clean_linker_0, # of connection points: 2
#     Edge 73, Type (0, 1), BuildingBlock: MIFKUJ_clean_linker_0, # of connection points: 2
#     Edge 74, Type (0, 1), BuildingBlock: MIFKUJ_clean_linker_0, # of connection points: 2
#     Edge 75, Type (0, 1), BuildingBlock: MIFKUJ_clean_linker_0, # of connection points: 2
#     Edge 76, Type (0, 1), BuildingBlock: MIFKUJ_clean_linker_0, # of connection points: 2
#     Edge 77, Type (0, 1), BuildingBlock: MIFKUJ_clean_linker_0, # of connection points: 2
#     Edge 78, Type (0, 1), BuildingBlock: MIFKUJ_clean_linker_0, # of connection points: 2
#     Edge 79, Type (0, 1), BuildingBlock: MIFKUJ_clean_linker_0, # of connection points: 2
#     Edge 80, Type (0, 1), BuildingBlock: MIFKUJ_clean_linker_0, # of connection points: 2
#     Edge 81, Type (0, 1), BuildingBlock: MIFKUJ_clean_linker_0, # of connection points: 2
#     Edge 82, Type (0, 1), BuildingBlock: MIFKUJ_clean_linker_0, # of connection points: 2
#     Edge 83, Type (0, 1), BuildingBlock: MIFKUJ_clean_linker_0, # of connection points: 2
#     Edge 84, Type (0, 1), BuildingBlock: MIFKUJ_clean_linker_0, # of connection points: 2
#     Edge 85, Type (0, 1), BuildingBlock: MIFKUJ_clean_linker_0, # of connection points: 2
#     Edge 86, Type (0, 1), BuildingBlock: MIFKUJ_clean_linker_0, # of connection points: 2
#     Edge 87, Type (0, 1), BuildingBlock: MIFKUJ_clean_linker_0, # of connection points: 2
#     Edge 88, Type (0, 1), BuildingBlock: MIFKUJ_clean_linker_0, # of connection points: 2
#     Edge 89, Type (0, 1), BuildingBlock: MIFKUJ_clean_linker_0, # of connection points: 2
#     Edge 90, Type (0, 1), BuildingBlock: MIFKUJ_clean_linker_0, # of connection points: 2
#     Edge 91, Type (0, 1), BuildingBlock: MIFKUJ_clean_linker_0, # of connection points: 2
#     Edge 92, Type (0, 1), BuildingBlock: MIFKUJ_clean_linker_0, # of connection points: 2
#     Edge 93, Type (0, 1), BuildingBlock: MIFKUJ_clean_linker_0, # of connection points: 2
#     Edge 94, Type (0, 1), BuildingBlock: MIFKUJ_clean_linker_0, # of connection points: 2
#     Edge 95, Type (0, 1), BuildingBlock: MIFKUJ_clean_linker_0, # of connection points: 2
#     Edge 96, Type (0, 1), BuildingBlock: MIFKUJ_clean_linker_0, # of connection points: 2
#     Edge 97, Type (0, 1), BuildingBlock: MIFKUJ_clean_linker_0, # of connection points: 2
#     Edge 98, Type (0, 1), BuildingBlock: MIFKUJ_clean_linker_0, # of connection points: 2
#     Edge 99, Type (0, 1), BuildingBlock: MIFKUJ_clean_linker_0, # of connection points: 2
#     Edge 100, Type (0, 1), BuildingBlock: MIFKUJ_clean_linker_0, # of connection points: 2
#     Edge 101, Type (0, 1), BuildingBlock: MIFKUJ_clean_linker_0, # of connection points: 2
# Relax obj value: 0.113
# Max RMSD: 0.161
# Mean RMSD: 0.107
data_MOF--net-cor--node1-CEKHIL_clean_sbu_0--node2-MIDCAF_clean_sbu_0--edge1-MIFKUJ_clean_linker_0
_symmetry_space_group_name_H-M    P1
_symmetry_Int_Tables_number       1
_symmetry_cell_setting            triclinic
loop_
_symmetry_equiv_pos_as_xyz
'x, y, z'
_cell_length_a     49.577848
_cell_length_b     49.346995
_cell_length_c     130.74838
_cell_angle_alpha  90.700322
_cell_angle_beta   89.662589
_cell_angle_gamma 120.71193
loop_
_atom_site_label
_atom_site_type_symbol
_atom_site_fract_x
_atom_site_fract_y
_atom_site_fract_z
_atom_type_partial_charge
Co0 Co 0.72317 0.02146 0.25246 0.0
O1 O 0.70471 0.03752 0.24318 0.0
O2 O 0.74698 0.06728 0.25253 0.0
C3 C 0.67851 0.98494 0.26018 0.0
O4 O 0.748 0.01289 0.26317 0.0
Co5 Co 0.70751 0.95244 0.25015 0.0
O6 O 0.72452 0.96013 0.26429 0.0
C7 C 0.75068 0.99937 0.23543 0.0
C8 C 0.72718 0.06558 0.24568 0.0
C9 C 0.74327 0.98778 0.26776 0.0
O10 O 0.75028 0.02098 0.24092 0.0
O11 O 0.73369 0.96999 0.23745 0.0
O12 O 0.69228 0.01435 0.26305 0.0
O13 O 0.68993 0.9794 0.25203 0.0
Co14 Co 0.02251 0.73011 0.25508 0.0
O15 O 0.03846 0.70893 0.26317 0.0
O16 O 0.06811 0.75264 0.25456 0.0
C17 C 0.98407 0.68701 0.24692 0.0
O18 O 0.01387 0.75736 0.24542 0.0
Co19 Co 0.9547 0.71593 0.25884 0.0
O20 O 0.96182 0.7384 0.24571 0.0
C21 C 0.00353 0.75361 0.27404 0.0
C22 C 0.06641 0.73102 0.2606 0.0
C23 C 0.98893 0.75599 0.24184 0.0
O24 O 0.0244 0.75592 0.2676 0.0
O25 O 0.97405 0.7363 0.27233 0.0
O26 O 0.01289 0.70027 0.2437 0.0
O27 O 0.98036 0.69784 0.25552 0.0
Co28 Co 0.31264 0.32028 0.25195 0.0
O29 O 0.34679 0.33909 0.24232 0.0
O30 O 0.33519 0.29762 0.25175 0.0
C31 C 0.32075 0.36514 0.2596 0.0
O32 O 0.27995 0.2954 0.26298 0.0
Co33 Co 0.25821 0.3338 0.25028 0.0
O34 O 0.24847 0.31576 0.26427 0.0
C35 C 0.26389 0.29311 0.2349 0.0
C36 C 0.35285 0.31731 0.24474 0.0
C37 C 0.25865 0.2985 0.26766 0.0
O38 O 0.28418 0.29186 0.24066 0.0
O39 O 0.25264 0.31087 0.23691 0.0
O40 O 0.3371 0.35256 0.26233 0.0
O41 O 0.30317 0.35243 0.25166 0.0
Co42 Co 0.31175 0.01856 0.75671 0.0
O43 O 0.33169 0.00327 0.76563 0.0
O44 O 0.29046 0.97269 0.75599 0.0
C45 C 0.35567 0.0581 0.74953 0.0
O46 O 0.28615 0.02686 0.74626 0.0
Co47 Co 0.32315 0.08549 0.76075 0.0
O48 O 0.30402 0.07895 0.74695 0.0
C49 C 0.28154 0.03463 0.77452 0.0
C50 C 0.3106 0.97497 0.76281 0.0
C51 C 0.28774 0.05194 0.74267 0.0
O52 O 0.28275 0.01501 0.76825 0.0
O53 O 0.29828 0.06454 0.77344 0.0
O54 O 0.34369 0.02933 0.74615 0.0
O55 O 0.34321 0.06125 0.75784 0.0
Co56 Co 0.01817 0.31665 0.7542 0.0
O57 O 0.00398 0.33662 0.74485 0.0
O58 O 0.97251 0.29408 0.75373 0.0
C59 C 0.05507 0.3607 0.76234 0.0
O60 O 0.02506 0.29061 0.76489 0.0
Co61 Co 0.08657 0.33058 0.7525 0.0
O62 O 0.07744 0.31303 0.76654 0.0
C63 C 0.04023 0.28996 0.73699 0.0
C64 C 0.97554 0.31467 0.74698 0.0
C65 C 0.04956 0.29468 0.76971 0.0
O66 O 0.01848 0.2894 0.74257 0.0
O67 O 0.06942 0.30698 0.73922 0.0
O68 O 0.02572 0.34781 0.76494 0.0
O69 O 0.06032 0.34886 0.75424 0.0
Co70 Co 0.72198 0.72105 0.75294 0.0
O71 O 0.68854 0.70281 0.76285 0.0
O72 O 0.70004 0.74432 0.75346 0.0
C73 C 0.7128 0.67613 0.745 0.0
O74 O 0.75424 0.74544 0.74171 0.0
Co75 Co 0.77568 0.70635 0.75442 0.0
O76 O 0.78581 0.72512 0.74057 0.0
C77 C 0.77262 0.74902 0.76957 0.0
C78 C 0.68277 0.72489 0.76059 0.0
C79 C 0.77576 0.74244 0.73713 0.0
O80 O 0.75145 0.74947 0.76405 0.0
O81 O 0.78367 0.73111 0.76752 0.0
O82 O 0.69634 0.68893 0.74268 0.0
O83 O 0.73084 0.68838 0.75289 0.0
Co84 Co 0.39447 0.35433 0.58643 0.0
O85 O 0.3749 0.36893 0.57704 0.0
O86 O 0.41668 0.40013 0.5864 0.0
C87 C 0.35036 0.31668 0.59412 0.0
O88 O 0.42009 0.34736 0.59734 0.0
Co89 Co 0.38153 0.28601 0.58408 0.0
O90 O 0.40334 0.29545 0.59743 0.0
C91 C 0.4232 0.33367 0.56937 0.0
C92 C 0.39651 0.39741 0.57952 0.0
C93 C 0.41963 0.32314 0.60122 0.0
O94 O 0.42232 0.35495 0.57491 0.0
O95 O 0.40695 0.30423 0.57134 0.0
O96 O 0.36278 0.34607 0.59688 0.0
O97 O 0.36266 0.31176 0.58608 0.0
Co98 Co 0.68895 0.0614 0.5871 0.0
O99 O 0.70345 0.04211 0.59668 0.0
O100 O 0.73447 0.08308 0.58709 0.0
C101 C 0.65057 0.01675 0.57959 0.0
O102 O 0.68225 0.08682 0.57611 0.0
Co103 Co 0.62138 0.04976 0.58893 0.0
O104 O 0.63011 0.06648 0.5748 0.0
C105 C 0.66931 0.09183 0.60383 0.0
C106 C 0.73179 0.0634 0.59412 0.0
C107 C 0.65793 0.08368 0.57142 0.0
O108 O 0.69036 0.0904 0.59844 0.0
O109 O 0.64 0.07572 0.6017 0.0
O110 O 0.67963 0.0286 0.57677 0.0
O111 O 0.64642 0.03001 0.58754 0.0
Co112 Co 0.97543 0.64967 0.58513 0.0
O113 O 0.01175 0.66888 0.57635 0.0
O114 O 0.99666 0.62567 0.58526 0.0
C115 C 0.98331 0.69405 0.59313 0.0
O116 O 0.94 0.62429 0.59538 0.0
Co117 Co 0.92326 0.66604 0.58216 0.0
O118 O 0.91029 0.64678 0.59591 0.0
C119 C 0.93002 0.6255 0.56701 0.0
C120 C 0.01637 0.64616 0.57878 0.0
C121 C 0.91857 0.62827 0.59957 0.0
O122 O 0.94894 0.62319 0.57315 0.0
O123 O 0.91917 0.64372 0.56879 0.0
O124 O 0.9984 0.68037 0.5961 0.0
O125 O 0.96743 0.68281 0.58478 0.0
Co126 Co 0.98195 0.35566 0.087 0.0
O127 O 1.0008 0.34229 0.09715 0.0
O128 O 0.95979 0.30989 0.08769 0.0
C129 C 0.02667 0.39232 0.07922 0.0
O130 O 0.95695 0.36108 0.07553 0.0
Co131 Co 0.99477 0.42414 0.08768 0.0
O132 O 0.97801 0.41337 0.07351 0.0
C133 C 0.95294 0.3789 0.10307 0.0
C134 C 0.97942 0.3135 0.09489 0.0
C135 C 0.96051 0.38498 0.07044 0.0
O136 O 0.95332 0.35667 0.09792 0.0
O137 O 0.96986 0.40801 0.10068 0.0
O138 O 0.01435 0.36257 0.07697 0.0
O139 O 0.01385 0.39832 0.08688 0.0
Co140 Co 0.68986 0.64883 0.08616 0.0
O141 O 0.67426 0.66807 0.07705 0.0
O142 O 0.6442 0.62611 0.0864 0.0
C143 C 0.7276 0.69315 0.0939 0.0
O144 O 0.69835 0.62359 0.09671 0.0
Co145 Co 0.75774 0.66271 0.08309 0.0
O146 O 0.75051 0.64314 0.09678 0.0
C147 C 0.70931 0.62171 0.0683 0.0
C148 C 0.64621 0.64614 0.0796 0.0
C149 C 0.72335 0.62603 0.10068 0.0
O150 O 0.68856 0.62098 0.07444 0.0
O151 O 0.7388 0.63914 0.06993 0.0
O152 O 0.69856 0.68029 0.09685 0.0
O153 O 0.73199 0.68128 0.08563 0.0
Co154 Co 0.38801 0.05516 0.08788 0.0
O155 O 0.3552 0.03798 0.098 0.0
O156 O 0.36561 0.07793 0.08794 0.0
C157 C 0.37887 0.0094 0.08071 0.0
O158 O 0.41937 0.07817 0.07628 0.0
Co159 Co 0.44246 0.04152 0.08942 0.0
O160 O 0.45135 0.05833 0.07532 0.0
C161 C 0.4391 0.08494 0.10423 0.0
C162 C 0.34886 0.05936 0.09532 0.0
C163 C 0.44066 0.07485 0.07167 0.0
O164 O 0.41786 0.08509 0.09865 0.0
O165 O 0.45027 0.06708 0.1023 0.0
O166 O 0.36199 0.0215 0.07812 0.0
O167 O 0.39746 0.02302 0.08839 0.0
Co168 Co 0.05884 0.68859 0.91924 0.0
O169 O 0.03906 0.70317 0.90989 0.0
O170 O 0.08239 0.73429 0.9186 0.0
C171 C 0.01547 0.65307 0.92777 0.0
O172 O 0.08518 0.68204 0.92989 0.0
Co173 Co 0.04389 0.61959 0.91806 0.0
O174 O 0.06296 0.62971 0.93193 0.0
C175 C 0.0853 0.66434 0.90253 0.0
C176 C 0.06175 0.73159 0.91192 0.0
C177 C 0.08173 0.658 0.93485 0.0
O178 O 0.08466 0.68659 0.90755 0.0
O179 O 0.06925 0.63537 0.90513 0.0
O180 O 0.02919 0.68289 0.9301 0.0
O181 O 0.02596 0.64636 0.91962 0.0
Co182 Co 0.34822 0.38802 0.92028 0.0
O183 O 0.36289 0.36868 0.92975 0.0
O184 O 0.39381 0.4097 0.92016 0.0
C185 C 0.30988 0.3436 0.91274 0.0
O186 O 0.34094 0.41323 0.90935 0.0
Co187 Co 0.28055 0.3758 0.92277 0.0
O188 O 0.28922 0.39619 0.90922 0.0
C189 C 0.32909 0.41794 0.93739 0.0
C190 C 0.39119 0.38988 0.92714 0.0
C191 C 0.31662 0.41229 0.90539 0.0
O192 O 0.34988 0.41697 0.9317 0.0
O193 O 0.29964 0.40132 0.93556 0.0
O194 O 0.33891 0.35551 0.90989 0.0
O195 O 0.30578 0.35646 0.92081 0.0
Co196 Co 0.64421 0.9837 0.91842 0.0
O197 O 0.68014 0.00375 0.90944 0.0
O198 O 0.6655 0.95993 0.91803 0.0
C199 C 0.65159 0.02726 0.92682 0.0
O200 O 0.60984 0.95742 0.92884 0.0
Co201 Co 0.59048 0.99799 0.91615 0.0
O202 O 0.57556 0.97454 0.92918 0.0
C203 C 0.59837 0.95985 0.90045 0.0
C204 C 0.68475 0.98082 0.91158 0.0
C205 C 0.58612 0.95785 0.93279 0.0
O206 O 0.61723 0.95729 0.90654 0.0
O207 O 0.5873 0.97778 0.9024 0.0
O208 O 0.66762 0.01417 0.92937 0.0
O209 O 0.63507 0.01615 0.91858 0.0
Co210 Co 0.65329 0.69255 0.42228 0.0
O211 O 0.67193 0.67765 0.4319 0.0
O212 O 0.62971 0.64665 0.4227 0.0
C213 C 0.69773 0.72851 0.41431 0.0
O214 O 0.6285 0.70043 0.41135 0.0
Co215 Co 0.66952 0.76202 0.42452 0.0
O216 O 0.6484 0.75292 0.41102 0.0
C217 C 0.6267 0.71564 0.43931 0.0
C218 C 0.64964 0.64928 0.42966 0.0
C219 C 0.63073 0.7253 0.40732 0.0
O220 O 0.62593 0.69383 0.4336 0.0
O221 O 0.64491 0.74501 0.43753 0.0
O222 O 0.68433 0.69882 0.41183 0.0
O223 O 0.68632 0.73457 0.42235 0.0
Co224 Co 0.34669 0.97747 0.41978 0.0
O225 O 0.32991 0.99697 0.41127 0.0
O226 O 0.30106 0.95238 0.41956 0.0
C227 C 0.3824 0.02134 0.42831 0.0
O228 O 0.35629 0.95154 0.4297 0.0
Co229 Co 0.41628 0.99611 0.41692 0.0
O230 O 0.40877 0.97325 0.42998 0.0
C231 C 0.37001 0.9559 0.40144 0.0
C232 C 0.30224 0.97345 0.41337 0.0
C233 C 0.38154 0.95428 0.43355 0.0
O234 O 0.34808 0.9528 0.40751 0.0
O235 O 0.39916 0.97446 0.40339 0.0
O236 O 0.35313 0.00656 0.43112 0.0
O237 O 0.38802 0.01144 0.41983 0.0
Co238 Co 0.05985 0.39365 0.42061 0.0
O239 O 0.02452 0.37519 0.4298 0.0
O240 O 0.03977 0.41864 0.42098 0.0
C241 C 0.04985 0.34886 0.41239 0.0
O242 O 0.09429 0.41861 0.41004 0.0
Co243 Co 0.11154 0.37644 0.42254 0.0
O244 O 0.12236 0.3945 0.40858 0.0
C245 C 0.10799 0.41811 0.43803 0.0
C246 C 0.02048 0.39845 0.42761 0.0
C247 C 0.11441 0.4137 0.40534 0.0
O248 O 0.08783 0.41977 0.43233 0.0
O249 O 0.11886 0.40009 0.43589 0.0
O250 O 0.03509 0.36325 0.40983 0.0
O251 O 0.067 0.35981 0.42053 0.0
Zn252 Zn 0.01483 0.01788 0.13353 0.0
Zn253 Zn 0.02369 0.02822 0.17307 0.0
Zn254 Zn 0.01951 0.02417 0.15356 0.0
C255 C 0.99494 0.96497 0.16933 0.0
C256 C 0.08481 0.06152 0.16634 0.0
O257 O 0.99625 0.05023 0.14816 0.0
O258 O 0.99522 0.04375 0.13137 0.0
C259 C 0.9809 0.95714 0.14123 0.0
O260 O 0.99962 0.97567 0.16012 0.0
O261 O 1.00191 0.98355 0.17686 0.0
O262 O 0.06954 0.05184 0.17455 0.0
O263 O 0.07032 0.05383 0.15767 0.0
O264 O 0.98825 0.97133 0.1328 0.0
O265 O 0.99089 0.9728 0.14971 0.0
O266 O 0.06804 0.04594 0.14716 0.0
O267 O 0.06015 0.03734 0.13051 0.0
C268 C 0.0788 0.04793 0.13801 0.0
O269 O 0.99268 0.04698 0.15894 0.0
O270 O 1.00173 0.05137 0.17558 0.0
C271 C 0.98983 0.05576 0.13913 0.0
C272 C 0.98891 0.05556 0.16794 0.0
Zn273 Zn 0.02786 0.01949 0.33341 0.0
Zn274 Zn 0.01439 0.02377 0.37267 0.0
Zn275 Zn 0.01868 0.02013 0.3526 0.0
C276 C 0.03925 0.08465 0.36583 0.0
C277 C 0.95333 0.98287 0.36483 0.0
O278 O 0.04267 0.9927 0.34931 0.0
O279 O 0.05108 0.99716 0.33263 0.0
C280 C 0.05704 0.08216 0.33823 0.0
O281 O 0.03791 0.0706 0.35728 0.0
O282 O 0.02973 0.06919 0.37399 0.0
O283 O 0.96835 0.99351 0.3731 0.0
O284 O 0.96783 0.99101 0.35618 0.0
O285 O 0.05122 0.06455 0.33051 0.0
O286 O 0.04691 0.07012 0.34714 0.0
O287 O 0.97096 0.99611 0.34542 0.0
O288 O 0.98361 0.99648 0.32918 0.0
C289 C 0.96289 0.98978 0.33593 0.0
O290 O 0.04535 1.0 0.35981 0.0
O291 O 0.04441 0.01014 0.3763 0.0
C292 C 0.05322 0.98648 0.3411 0.0
C293 C 0.05395 0.99992 0.3691 0.0
Zn294 Zn 0.01751 0.02195 0.8731 0.0
Zn295 Zn 0.01412 0.01009 0.83385 0.0
Zn296 Zn 0.0145 0.01604 0.85319 0.0
C297 C 0.04455 0.07409 0.83707 0.0
C298 C 0.95171 0.98067 0.83929 0.0
O299 O 0.03705 0.9904 0.85948 0.0
O300 O 0.03922 0.99863 0.8762 0.0
C301 C 0.0508 0.08298 0.86557 0.0
O302 O 0.03703 0.06428 0.84634 0.0
O303 O 0.03909 0.05458 0.82991 0.0
O304 O 0.96888 0.98951 0.83144 0.0
O305 O 0.96422 0.98768 0.84828 0.0
O306 O 0.04193 0.06844 0.87392 0.0
O307 O 0.04274 0.06754 0.85701 0.0
O308 O 0.96508 0.99453 0.85887 0.0
O309 O 0.97187 1.00079 0.87561 0.0
C310 C 0.9537 0.99132 0.86798 0.0
O311 O 0.04087 0.99179 0.84878 0.0
O312 O 0.03333 0.98395 0.83212 0.0
C313 C 0.04439 0.98614 0.86853 0.0
C314 C 0.045 0.98092 0.84025 0.0
Zn315 Zn 0.0167 0.02595 0.67064 0.0
Zn316 Zn 0.02619 0.02389 0.63368 0.0
Zn317 Zn 0.02053 0.02397 0.65329 0.0
C318 C 0.99572 0.96064 0.63993 0.0
C319 C 0.08709 0.06023 0.64143 0.0
O320 O 0.00282 0.05621 0.6572 0.0
O321 O 0.02816 0.07073 0.67186 0.0
C322 C 0.96737 0.97011 0.666 0.0
O323 O 0.99738 0.97339 0.64874 0.0
O324 O 0.00684 0.9776 0.6321 0.0
O325 O 0.07259 0.05118 0.63302 0.0
O326 O 0.07191 0.05142 0.64996 0.0
O327 O 0.97184 0.99279 0.67174 0.0
O328 O 0.98721 0.97519 0.65879 0.0
O329 O 0.06797 0.04093 0.66009 0.0
O330 O 0.04834 0.01436 0.67425 0.0
C331 C 0.07144 0.02899 0.66834 0.0
O332 O 0.99533 0.04689 0.64691 0.0
O333 O 1.00017 0.04258 0.63024 0.0
C334 C 0.01369 0.07548 0.66487 0.0
C335 C 0.98918 0.05065 0.63763 0.0
Zn336 Zn 0.69127 0.35355 0.50441 0.0
Zn337 Zn 0.67864 0.35135 0.46589 0.0
Zn338 Zn 0.6856 0.35403 0.48517 0.0
C339 C 0.74243 0.37538 0.46902 0.0
C340 C 0.64208 0.29001 0.47193 0.0
O341 O 0.65989 0.37652 0.49176 0.0
O342 O 0.66679 0.37324 0.50827 0.0
C343 C 0.75155 0.39142 0.49759 0.0
O344 O 0.73406 0.37582 0.47837 0.0
O345 O 0.72203 0.36493 0.46203 0.0
O346 O 0.64803 0.30648 0.46402 0.0
O347 O 0.6551 0.3032 0.48054 0.0
O348 O 0.73684 0.37984 0.50578 0.0
O349 O 0.73674 0.38405 0.48896 0.0
O350 O 0.66536 0.30361 0.49055 0.0
O351 O 0.67283 0.30883 0.50729 0.0
C352 C 0.66335 0.29145 0.49944 0.0
O353 O 0.6626 0.38179 0.48117 0.0
O354 O 0.66324 0.38075 0.46427 0.0
C355 C 0.65515 0.38116 0.50117 0.0
C356 C 0.65723 0.39032 0.47248 0.0
Zn357 Zn 0.68834 0.35962 0.70726 0.0
Zn358 Zn 0.67478 0.33466 0.6693 0.0
Zn359 Zn 0.68214 0.35005 0.68768 0.0
C360 C 0.61618 0.31886 0.67499 0.0
C361 C 0.71413 0.4002 0.66984 0.0
O362 O 0.71155 0.33133 0.69406 0.0
O363 O 0.7162 0.34332 0.71057 0.0
C364 C 0.62391 0.31878 0.70365 0.0
O365 O 0.63087 0.32788 0.68363 0.0
O366 O 0.63053 0.31877 0.66703 0.0
O367 O 0.70327 0.37671 0.66385 0.0
O368 O 0.70792 0.39595 0.67948 0.0
O369 O 0.64355 0.3321 0.7108 0.0
O370 O 0.63343 0.32385 0.69427 0.0
O371 O 0.70507 0.40205 0.68994 0.0
O372 O 0.70652 0.40587 0.70683 0.0
C373 C 0.71162 0.41882 0.6982 0.0
O374 O 0.70396 0.32042 0.68406 0.0
O375 O 0.68861 0.30448 0.66818 0.0
C376 C 0.72267 0.33155 0.70301 0.0
C377 C 0.70255 0.30399 0.6761 0.0
Zn378 Zn 0.68482 0.35662 0.20866 0.0
Zn379 Zn 0.68556 0.35468 0.1715 0.0
Zn380 Zn 0.68593 0.35578 0.189 0.0
C381 C 0.69103 0.41004 0.1755 0.0
C382 C 0.6307 0.30453 0.17589 0.0
O383 O 0.70997 0.33026 0.19408 0.0
O384 O 0.70528 0.3316 0.21089 0.0
C385 C 0.72051 0.41967 0.20254 0.0
O386 O 0.70324 0.40464 0.18332 0.0
O387 O 0.6749 0.38786 0.16928 0.0
O388 O 0.65209 0.31013 0.16953 0.0
O389 O 0.63693 0.32308 0.18367 0.0
O390 O 0.71084 0.40301 0.21047 0.0
O391 O 0.71271 0.40648 0.19361 0.0
O392 O 0.63547 0.33179 0.19385 0.0
O393 O 0.63883 0.33591 0.21071 0.0
C394 C 0.62227 0.32736 0.20271 0.0
O395 O 0.71759 0.33855 0.1837 0.0
O396 O 0.72957 0.36543 0.16941 0.0
C397 C 0.71418 0.32281 0.20312 0.0
C398 C 0.73537 0.35009 0.17578 0.0
Zn399 Zn 0.68299 0.36337 0.00628 0.0
Zn400 Zn 0.68761 0.34962 0.96817 0.0
Zn401 Zn 0.6858 0.35632 0.98713 0.0
C402 C 0.67034 0.29161 0.97591 0.0
C403 C 0.74702 0.39848 0.97378 0.0
O404 O 0.66362 0.38578 0.98985 0.0
O405 O 0.66657 0.39198 0.00667 0.0
C406 C 0.64743 0.29909 1.00292 0.0
O407 O 0.66602 0.30498 0.98378 0.0
O408 O 0.68294 0.30729 0.96795 0.0
O409 O 0.72935 0.38699 0.96609 0.0
O410 O 0.73643 0.38701 0.98272 0.0
O411 O 0.65456 0.31929 0.00997 0.0
O412 O 0.65765 0.30792 0.99375 0.0
O413 O 0.73515 0.37915 0.99311 0.0
O414 O 0.72736 0.38057 0.00973 0.0
C415 C 0.7457 0.38495 1.00238 0.0
O416 O 0.65688 0.37381 0.97984 0.0
O417 O 0.65212 0.35484 0.96413 0.0
C418 C 0.65946 0.3979 0.99809 0.0
C419 C 0.64475 0.36863 0.9708 0.0
Zn420 Zn 0.35733 0.68909 0.83924 0.0
Zn421 Zn 0.35007 0.68288 0.79926 0.0
Zn422 Zn 0.35379 0.68624 0.81949 0.0
C423 C 0.41411 0.71352 0.8042 0.0
C424 C 0.31711 0.62076 0.80642 0.0
O425 O 0.32534 0.70679 0.82514 0.0
O426 O 0.33293 0.70982 0.84187 0.0
C427 C 0.41842 0.72527 0.83257 0.0
O428 O 0.40269 0.70978 0.81332 0.0
O429 O 0.39593 0.70401 0.79656 0.0
O430 O 0.32448 0.63621 0.79822 0.0
O431 O 0.32671 0.63534 0.81509 0.0
O432 O 0.40314 0.71477 0.84075 0.0
O433 O 0.40414 0.71719 0.82387 0.0
O434 O 0.33476 0.63737 0.82553 0.0
O435 O 0.33729 0.64398 0.84234 0.0
C436 C 0.33048 0.62604 0.83464 0.0
O437 O 0.3291 0.71118 0.81444 0.0
O438 O 0.3286 0.70733 0.79756 0.0
C439 C 0.3203 0.71402 0.83418 0.0
C440 C 0.32221 0.71738 0.8056 0.0
Zn441 Zn 0.34822 0.68284 0.04076 0.0
Zn442 Zn 0.36861 0.68926 0.00424 0.0
Zn443 Zn 0.3572 0.68661 0.02131 0.0
C444 C 0.31027 0.68221 0.00511 0.0
C445 C 0.41128 0.74617 0.01024 0.0
O446 O 0.38265 0.6641 0.02776 0.0
O447 O 0.37572 0.66597 0.04441 0.0
C448 C 0.28891 0.64564 0.03174 0.0
O449 O 0.31127 0.66967 0.01358 0.0
O450 O 0.33497 0.69686 0.99986 0.0
O451 O 0.41181 0.72598 0.00439 0.0
O452 O 0.38891 0.73718 0.01683 0.0
O453 O 0.30213 0.65343 0.04037 0.0
O454 O 0.30521 0.65672 0.02349 0.0
O455 O 0.37743 0.73606 0.02693 0.0
O456 O 0.36445 0.72826 0.04328 0.0
C457 C 0.37661 0.74692 0.03588 0.0
O458 O 0.37817 0.65665 0.01736 0.0
O459 O 0.36422 0.64829 1.00113 0.0
C460 C 0.38812 0.65952 0.03704 0.0
C461 C 0.3747 0.64166 0.00885 0.0
Zn462 Zn 0.3563 0.68852 0.54229 0.0
Zn463 Zn 0.34277 0.67832 0.50289 0.0
Zn464 Zn 0.34981 0.68416 0.52253 0.0
C465 C 0.36511 0.74146 0.5073 0.0
C466 C 0.28403 0.63837 0.51072 0.0
O467 O 0.37493 0.65918 0.52715 0.0
O468 O 0.37686 0.66344 0.54403 0.0
C469 C 0.38835 0.75021 0.53515 0.0
O470 O 0.36735 0.73245 0.51632 0.0
O471 O 0.35389 0.72188 0.5 0.0
O472 O 0.29841 0.64566 0.5023 0.0
O473 O 0.29873 0.6513 0.51914 0.0
O474 O 0.38246 0.73481 0.54331 0.0
O475 O 0.37741 0.73566 0.52653 0.0
O476 O 0.30153 0.66123 0.5294 0.0
O477 O 0.31152 0.66923 0.54595 0.0
C478 C 0.29189 0.65906 0.53872 0.0
O479 O 0.37933 0.66519 0.51657 0.0
O480 O 0.37369 0.66556 0.4998 0.0
C481 C 0.38232 0.65298 0.53591 0.0
C482 C 0.38633 0.66092 0.5074 0.0
Zn483 Zn 0.35856 0.69307 0.30076 0.0
Zn484 Zn 0.35228 0.69631 0.33986 0.0
Zn485 Zn 0.356 0.69238 0.32066 0.0
C486 C 0.41523 0.72308 0.33635 0.0
C487 C 0.32232 0.63227 0.33545 0.0
O488 O 0.32934 0.71409 0.31429 0.0
O489 O 0.33504 0.71445 0.29749 0.0
C490 C 0.4209 0.72701 0.30757 0.0
O491 O 0.40441 0.71389 0.3272 0.0
O492 O 0.39705 0.72102 0.34347 0.0
O493 O 0.33148 0.65131 0.34292 0.0
O494 O 0.32849 0.6427 0.32623 0.0
O495 O 0.40475 0.71739 0.29949 0.0
O496 O 0.4071 0.71989 0.31637 0.0
O497 O 0.33354 0.64213 0.3156 0.0
O498 O 0.33692 0.64678 0.29877 0.0
C499 C 0.32878 0.62956 0.30659 0.0
O500 O 0.33304 0.72027 0.3249 0.0
O501 O 0.32711 0.71624 0.34167 0.0
C502 C 0.32362 0.72033 0.30526 0.0
C503 C 0.32339 0.72642 0.33333 0.0
H504 H 0.26488 0.23902 0.23089 0.0
H505 H 0.24493 0.20497 0.21576 0.0
H506 H 0.21954 0.26842 0.20238 0.0
H507 H 0.238 0.30167 0.21773 0.0
H508 H 0.17445 0.21336 0.19962 0.0
H509 H 0.28405 0.25982 0.19376 0.0
H510 H 0.33891 0.27678 0.19795 0.0
H511 H 0.3133 0.18045 0.20233 0.0
H512 H 0.25817 0.1629 0.19833 0.0
H513 H 0.11607 0.11827 0.15686 0.0
H514 H 0.16083 0.16521 0.16451 0.0
H515 H 0.17256 0.10666 0.1861 0.0
H516 H 0.1278 0.05997 0.17857 0.0
H517 H 0.22969 0.16573 0.18211 0.0
H518 H 0.11907 0.1233 0.19152 0.0
H519 H 0.06444 0.10635 0.18689 0.0
H520 H 0.09457 0.19837 0.17511 0.0
H521 H 0.14946 0.21565 0.1795 0.0
C522 C 0.25519 0.2458 0.2247 0.0
C523 C 0.2529 0.27299 0.22554 0.0
C524 C 0.24403 0.22644 0.21598 0.0
C525 C 0.23117 0.23429 0.20778 0.0
C526 C 0.22933 0.26174 0.20857 0.0
C527 C 0.23988 0.28075 0.21737 0.0
C528 C 0.21767 0.21284 0.1987 0.0
C529 C 0.18702 0.2037 0.19566 0.0
C530 C 0.23365 0.19967 0.19353 0.0
C531 C 0.26689 0.21006 0.19581 0.0
C532 C 0.29006 0.24225 0.19568 0.0
C533 C 0.32122 0.25197 0.19801 0.0
C534 C 0.32958 0.22971 0.20042 0.0
C535 C 0.3068 0.19767 0.20047 0.0
C536 C 0.27559 0.18781 0.19815 0.0
C537 C 0.12939 0.1153 0.16283 0.0
C538 C 0.11831 0.08566 0.16725 0.0
C539 C 0.15486 0.14216 0.16725 0.0
C540 C 0.1695 0.13943 0.17604 0.0
C541 C 0.16153 0.10934 0.17937 0.0
C542 C 0.13594 0.08263 0.17505 0.0
C543 C 0.18685 0.16662 0.18316 0.0
C544 C 0.21783 0.17638 0.18592 0.0
C545 C 0.17142 0.18072 0.18804 0.0
C546 C 0.13833 0.17065 0.18573 0.0
C547 C 0.11402 0.13985 0.1879 0.0
C548 C 0.08304 0.13018 0.18532 0.0
C549 C 0.07606 0.15125 0.18068 0.0
C550 C 0.10003 0.18206 0.17867 0.0
C551 C 0.13107 0.1918 0.18121 0.0
H552 H 0.05209 0.14373 0.17866 0.0
H553 H 0.35371 0.2373 0.20224 0.0
H554 H 0.76673 0.96289 0.22391 0.0
H555 H 0.80509 0.97972 0.21006 0.0
H556 H 0.82236 0.07442 0.21283 0.0
H557 H 0.78399 0.05787 0.22673 0.0
H558 H 0.8211 0.05487 0.19212 0.0
H559 H 0.87105 0.06035 0.22409 0.0
H560 H 0.87713 0.04009 0.24053 0.0
H561 H 0.88349 0.96677 0.22472 0.0
H562 H 0.87697 0.98634 0.20818 0.0
H563 H 0.99568 0.10057 0.18138 0.0
H564 H 0.95273 0.10084 0.19044 0.0
H565 H 0.88652 0.03134 0.16926 0.0
H566 H 0.92984 0.03122 0.16006 0.0
H567 H 0.91259 0.04277 0.19913 0.0
H568 H 0.81585 0.03857 0.17282 0.0
H569 H 0.81151 0.06413 0.15733 0.0
H570 H 0.90404 0.14323 0.16254 0.0
H571 H 0.90871 0.11855 0.17817 0.0
C572 C 0.77839 0.98724 0.22153 0.0
C573 C 0.77245 0.00907 0.22654 0.0
C574 C 0.80031 0.99681 0.21359 0.0
C575 C 0.81669 0.02836 0.21044 0.0
C576 C 0.80992 0.04995 0.21511 0.0
C577 C 0.78815 0.04046 0.22312 0.0
C578 C 0.84274 0.03921 0.20293 0.0
C579 C 0.8411 0.05216 0.19359 0.0
C580 C 0.86914 0.03636 0.20498 0.0
C581 C 0.87319 0.02461 0.21491 0.0
C582 C 0.87348 0.03975 0.22412 0.0
C583 C 0.87705 0.02842 0.23346 0.0
C584 C 0.88061 0.00211 0.23367 0.0
C585 C 0.88068 0.98712 0.22454 0.0
C586 C 0.87706 0.99833 0.21519 0.0
C587 C 0.97216 0.08659 0.17832 0.0
C588 C 0.96604 0.06564 0.17009 0.0
C589 C 0.94757 0.0866 0.18355 0.0
C590 C 0.91639 0.06568 0.18065 0.0
C591 C 0.91043 0.04769 0.17162 0.0
C592 C 0.93522 0.04778 0.16633 0.0
C593 C 0.89092 0.05804 0.18817 0.0
C594 C 0.89261 0.04547 0.19756 0.0
C595 C 0.86498 0.06176 0.18617 0.0
C596 C 0.86274 0.07647 0.17663 0.0
C597 C 0.83526 0.06144 0.17068 0.0
C598 C 0.8327 0.07583 0.16189 0.0
C599 C 0.85744 0.10533 0.15898 0.0
C600 C 0.88489 0.12039 0.16481 0.0
C601 C 0.88753 0.10615 0.17362 0.0
H602 H 0.85539 0.11646 0.15218 0.0
H603 H 0.88338 0.99338 0.24091 0.0
H604 H 0.03978 0.79156 0.22924 0.0
H605 H 0.04132 0.8208 0.21398 0.0
H606 H 0.94425 0.7925 0.21866 0.0
H607 H 0.94232 0.76301 0.23365 0.0
H608 H 0.95322 0.788 0.19914 0.0
H609 H 0.00563 0.86688 0.22542 0.0
H610 H 0.04534 0.89645 0.23874 0.0
H611 H 0.11883 0.92406 0.21657 0.0
H612 H 0.07951 0.89427 0.20313 0.0
H613 H 0.94671 0.92218 0.18091 0.0
H614 H 0.94565 0.87839 0.18992 0.0
H615 H 0.0274 0.89393 0.17317 0.0
H616 H 0.02765 0.93693 0.16381 0.0
H617 H 0.03096 0.90221 0.19644 0.0
H618 H 0.97419 0.82935 0.16951 0.0
H619 H 0.93178 0.80289 0.15679 0.0
H620 H 0.86342 0.76636 0.18089 0.0
H621 H 0.90539 0.79316 0.19376 0.0
C622 C 0.01881 0.79165 0.22703 0.0
C623 C 0.991 0.77496 0.23275 0.0
C624 C 0.01969 0.80838 0.21829 0.0
C625 C 0.99289 0.80901 0.21515 0.0
C626 C 0.96518 0.79226 0.22083 0.0
C627 C 0.96423 0.77552 0.2295 0.0
C628 C 0.99354 0.82772 0.20615 0.0
C629 C 0.97022 0.81298 0.19857 0.0
C630 C 0.016 0.86024 0.20525 0.0
C631 C 0.03967 0.87799 0.21331 0.0
C632 C 0.03027 0.87901 0.22341 0.0
C633 C 0.0527 0.89586 0.23097 0.0
C634 C 0.08459 0.91202 0.22851 0.0
C635 C 0.09412 0.91145 0.21847 0.0
C636 C 0.07178 0.89459 0.21088 0.0
C637 C 0.96333 0.91505 0.17875 0.0
C638 C 0.98694 0.93252 0.17156 0.0
C639 C 0.96292 0.89026 0.18396 0.0
C640 C 0.98658 0.8831 0.18226 0.0
C641 C 0.00887 0.89903 0.17456 0.0
C642 C 0.00875 0.92329 0.16913 0.0
C643 C 0.99048 0.86255 0.18957 0.0
C644 C 0.01449 0.87704 0.19688 0.0
C645 C 0.96834 0.83001 0.19031 0.0
C646 C 0.94298 0.81353 0.18261 0.0
C647 C 0.9501 0.81594 0.1721 0.0
C648 C 0.92614 0.80083 0.16486 0.0
C649 C 0.89492 0.783 0.16803 0.0
C650 C 0.88762 0.7802 0.17845 0.0
C651 C 0.9115 0.79533 0.18572 0.0
H652 H 0.87639 0.77133 0.16241 0.0
H653 H 0.10192 0.92507 0.23437 0.0
H654 H 0.22751 0.31163 0.28229 0.0
H655 H 0.20073 0.28118 0.29746 0.0
H656 H 0.23067 0.21519 0.29 0.0
H657 H 0.25789 0.24588 0.27479 0.0
H658 H 0.16854 0.18572 0.29329 0.0
H659 H 0.25982 0.26191 0.31018 0.0
H660 H 0.30311 0.31372 0.31585 0.0
H661 H 0.23739 0.33354 0.3306 0.0
H662 H 0.19353 0.28234 0.3247 0.0
H663 H 0.1161 0.11869 0.34566 0.0
H664 H 0.15769 0.16416 0.33651 0.0
H665 H 0.08798 0.1659 0.31743 0.0
H666 H 0.04668 0.12021 0.32638 0.0
H667 H 0.17649 0.22599 0.3288 0.0
H668 H 0.10507 0.15595 0.29329 0.0
H669 H 0.06445 0.10134 0.2888 0.0
H670 H 0.09795 0.06627 0.31244 0.0
H671 H 0.13909 0.12059 0.31694 0.0
C672 C 0.2287 0.29082 0.28392 0.0
C673 C 0.24461 0.28104 0.27727 0.0
C674 C 0.21356 0.27355 0.29266 0.0
C675 C 0.21375 0.24594 0.29491 0.0
C676 C 0.23027 0.23648 0.28843 0.0
C677 C 0.24583 0.25404 0.27974 0.0
C678 C 0.19421 0.22552 0.30344 0.0
C679 C 0.1705 0.19462 0.30104 0.0
C680 C 0.197 0.23684 0.31364 0.0
C681 C 0.22326 0.26829 0.31688 0.0
C682 C 0.25448 0.2775 0.31447 0.0
C683 C 0.27917 0.30677 0.31776 0.0
C684 C 0.27301 0.32692 0.32357 0.0
C685 C 0.24213 0.31789 0.32609 0.0
C686 C 0.21733 0.28879 0.32274 0.0
C687 C 0.10962 0.13002 0.33992 0.0
C688 C 0.0783 0.11609 0.3367 0.0
C689 C 0.13342 0.15585 0.33464 0.0
C690 C 0.12593 0.16787 0.32613 0.0
C691 C 0.09427 0.15671 0.3239 0.0
C692 C 0.07064 0.13081 0.32908 0.0
C693 C 0.15032 0.18708 0.31845 0.0
C694 C 0.17481 0.21743 0.32101 0.0
C695 C 0.14885 0.17517 0.30843 0.0
C696 C 0.12496 0.14235 0.3055 0.0
C697 C 0.10389 0.13656 0.29747 0.0
C698 C 0.08076 0.10566 0.29494 0.0
C699 C 0.07857 0.08036 0.30035 0.0
C700 C 0.09963 0.08589 0.30827 0.0
C701 C 0.12284 0.11672 0.31082 0.0
H702 H 0.06058 0.05648 0.2984 0.0
H703 H 0.29217 0.34953 0.32614 0.0
H704 H 0.80371 0.0327 0.27302 0.0
H705 H 0.83436 0.03065 0.28738 0.0
H706 H 0.7523 0.94676 0.29835 0.0
H707 H 0.72218 0.94801 0.28385 0.0
H708 H 0.83546 0.03117 0.30758 0.0
H709 H 0.77081 0.8947 0.30677 0.0
H710 H 0.74137 0.85063 0.29459 0.0
H711 H 0.79067 0.91158 0.26947 0.0
H712 H 0.82065 0.95585 0.2815 0.0
H713 H 0.91635 0.99658 0.34519 0.0
H714 H 0.87023 0.99196 0.33653 0.0
H715 H 0.89254 0.95638 0.30944 0.0
H716 H 0.93709 0.95962 0.31809 0.0
H717 H 0.83429 0.93032 0.31003 0.0
H718 H 0.91914 0.03875 0.31431 0.0
H719 H 0.95588 0.08563 0.32449 0.0
H720 H 0.8783 0.08584 0.3392 0.0
H721 H 0.84112 0.03872 0.32917 0.0
C722 C 0.79218 0.01415 0.2786 0.0
C723 C 0.76074 0.99021 0.27722 0.0
C724 C 0.80967 0.01299 0.28682 0.0
C725 C 0.79588 0.9881 0.29385 0.0
C726 C 0.76377 0.96571 0.2929 0.0
C727 C 0.74654 0.9665 0.28462 0.0
C728 C 0.81544 0.9839 0.30159 0.0
C729 C 0.83505 0.00906 0.30816 0.0
C730 C 0.81537 0.95521 0.30231 0.0
C731 C 0.79765 0.92864 0.29503 0.0
C732 C 0.77539 0.89864 0.29865 0.0
C733 C 0.75862 0.87364 0.29177 0.0
C734 C 0.76405 0.87834 0.28126 0.0
C735 C 0.78638 0.90801 0.27761 0.0
C736 C 0.80325 0.93306 0.28445 0.0
C737 C 0.9106 0.98664 0.33753 0.0
C738 C 0.9306 0.97882 0.33229 0.0
C739 C 0.88451 0.98445 0.33252 0.0
C740 C 0.87831 0.97471 0.32219 0.0
C741 C 0.89669 0.96417 0.31736 0.0
C742 C 0.92233 0.96606 0.32235 0.0
C743 C 0.85483 0.97775 0.31594 0.0
C744 C 0.83431 0.95228 0.30963 0.0
C745 C 0.85512 0.00656 0.31517 0.0
C746 C 0.8774 0.03507 0.32109 0.0
C747 C 0.90995 0.04874 0.31975 0.0
C748 C 0.93084 0.07533 0.32549 0.0
C749 C 0.91943 0.08865 0.33251 0.0
C750 C 0.8871 0.07546 0.33377 0.0
C751 C 0.86611 0.04882 0.32807 0.0
H752 H 0.93563 0.10922 0.33695 0.0
H753 H 0.75102 0.85896 0.27595 0.0
H754 H 0.0624 0.80251 0.27934 0.0
H755 H 0.07692 0.83669 0.29452 0.0
H756 H 0.98235 0.78121 0.30594 0.0
H757 H 0.96756 0.74764 0.29075 0.0
H758 H 0.9975 0.8386 0.30654 0.0
H759 H 0.04805 0.78575 0.32002 0.0
H760 H 0.08296 0.76405 0.32132 0.0
H761 H 0.1622 0.85403 0.31351 0.0
H762 H 0.12779 0.87652 0.31248 0.0
H763 H 0.02186 0.92857 0.34964 0.0
H764 H 0.02043 0.88215 0.34216 0.0
H765 H 0.10099 0.94225 0.32364 0.0
H766 H 0.10223 0.98861 0.331 0.0
H767 H 0.09237 0.8794 0.3283 0.0
H768 H 0.03714 0.93009 0.31457 0.0
H769 H 1.00171 0.95105 0.31694 0.0
H770 H 0.9282 0.86018 0.32678 0.0
H771 H 0.96343 0.83886 0.32464 0.0
C772 C 0.04479 0.79735 0.28514 0.0
C773 C 0.01366 0.77256 0.28371 0.0
C774 C 0.05321 0.81678 0.29389 0.0
C775 C 0.03078 0.81161 0.30145 0.0
C776 C 1.00011 0.78593 0.30023 0.0
C777 C 0.99165 0.76673 0.29149 0.0
C778 C 0.03803 0.83485 0.30996 0.0
C779 C 0.01796 0.84689 0.31139 0.0
C780 C 0.06498 0.84647 0.31626 0.0
C781 C 0.08533 0.83265 0.31603 0.0
C782 C 0.07286 0.80078 0.31845 0.0
C783 C 0.09259 0.78842 0.31923 0.0
C784 C 0.12476 0.80758 0.31743 0.0
C785 C 0.13728 0.8392 0.31488 0.0
C786 C 0.11771 0.85182 0.31427 0.0
C787 C 0.04045 0.93193 0.34446 0.0
C788 C 0.06194 0.96208 0.3408 0.0
C789 C 0.03947 0.90536 0.34013 0.0
C790 C 0.06013 0.90881 0.33216 0.0
C791 C 0.08472 0.93907 0.32972 0.0
C792 C 0.08547 0.96558 0.33396 0.0
C793 C 0.05175 0.88251 0.32482 0.0
C794 C 0.07174 0.87047 0.3235 0.0
C795 C 0.02451 0.87052 0.31869 0.0
C796 C 0.00296 0.88298 0.31954 0.0
C797 C 0.01345 0.91463 0.31727 0.0
C798 C 0.99343 0.92658 0.31858 0.0
C799 C 0.96276 0.90698 0.32204 0.0
C800 C 0.95199 0.87535 0.32412 0.0
C801 C 0.97196 0.86332 0.32286 0.0
H802 H 0.94732 0.91626 0.32309 0.0
H803 H 0.13999 0.79793 0.31802 0.0
H804 H 0.8113 0.75001 0.78467 0.0
H805 H 0.83172 0.7853 0.7995 0.0
H806 H 0.78323 0.83239 0.78978 0.0
H807 H 0.76192 0.79659 0.7751 0.0
H808 H 0.86969 0.84599 0.80053 0.0
H809 H 0.76636 0.86474 0.80972 0.0
H810 H 0.70869 0.83578 0.80804 0.0
H811 H 0.70619 0.74779 0.81026 0.0
H812 H 0.76379 0.77621 0.81205 0.0
H813 H 0.91418 0.98553 0.82548 0.0
H814 H 0.87038 0.94046 0.81693 0.0
H815 H 0.8708 0.87882 0.8399 0.0
H816 H 0.91488 0.92411 0.84853 0.0
H817 H 0.80525 0.86843 0.82452 0.0
H818 H 0.90761 0.8673 0.82746 0.0
H819 H 0.96543 0.89927 0.82863 0.0
H820 H 0.96815 0.95086 0.80204 0.0
H821 H 0.91031 0.91939 0.80082 0.0
C822 C 0.80479 0.76774 0.7857 0.0
C823 C 0.78492 0.77038 0.77865 0.0
C824 C 0.81651 0.78793 0.79421 0.0
C825 C 0.80875 0.81132 0.79588 0.0
C826 C 0.78902 0.81412 0.78883 0.0
C827 C 0.77703 0.79372 0.78037 0.0
C828 C 0.8226 0.83371 0.80469 0.0
C829 C 0.85536 0.85025 0.80586 0.0
C830 C 0.80418 0.83994 0.81161 0.0
C831 C 0.76942 0.82263 0.81096 0.0
C832 C 0.75348 0.83922 0.80993 0.0
C833 C 0.72081 0.8229 0.80893 0.0
C834 C 0.7038 0.78997 0.80902 0.0
C835 C 0.71941 0.77329 0.81016 0.0
C836 C 0.75207 0.7895 0.81116 0.0
C837 C 0.90369 0.96265 0.82907 0.0
C838 C 0.91806 0.95817 0.83759 0.0
C839 C 0.87865 0.93688 0.82416 0.0
C840 C 0.86765 0.90633 0.82772 0.0
C841 C 0.87891 0.9023 0.83707 0.0
C842 C 0.90401 0.92822 0.84204 0.0
C843 C 0.85187 0.87971 0.82035 0.0
C844 C 0.81913 0.86312 0.81933 0.0
C845 C 0.87008 0.87305 0.81357 0.0
C846 C 0.9048 0.89109 0.81406 0.0
C847 C 0.92061 0.88546 0.82187 0.0
C848 C 0.95333 0.90351 0.82255 0.0
C849 C 0.97045 0.92707 0.81541 0.0
C850 C 0.95487 0.93259 0.80756 0.0
C851 C 0.92214 0.91466 0.80687 0.0
H852 H 0.99576 0.941 0.81594 0.0
H853 H 0.67853 0.77738 0.80821 0.0
H854 H 0.28289 0.06406 0.79261 0.0
H855 H 0.24366 0.0438 0.80633 0.0
H856 H 0.18904 0.95682 0.78949 0.0
H857 H 0.22849 0.97646 0.77587 0.0
H858 H 0.15746 0.99222 0.79622 0.0
H859 H 0.21644 0.94722 0.80854 0.0
H860 H 0.26431 0.94756 0.81373 0.0
H861 H 0.28015 0.01448 0.83767 0.0
H862 H 0.23256 0.0149 0.83251 0.0
H863 H 0.03718 0.92953 0.82986 0.0
H864 H 0.07976 0.92631 0.82158 0.0
H865 H 0.14739 0.00753 0.83893 0.0
H866 H 0.10465 0.00988 0.84757 0.0
H867 H 0.17194 0.96961 0.83204 0.0
H868 H 0.11906 0.021 0.81824 0.0
H869 H 0.07171 0.02227 0.81338 0.0
H870 H 0.04592 0.94569 0.7922 0.0
H871 H 0.09299 0.94375 0.79703 0.0
C872 C 0.2627 0.0405 0.79187 0.0
C873 C 0.25878 0.02194 0.78312 0.0
C874 C 0.24041 0.02891 0.79974 0.0
C875 C 0.21354 0.99879 0.79893 0.0
C876 C 0.2097 0.98007 0.79028 0.0
C877 C 0.23229 0.99135 0.78251 0.0
C878 C 0.18832 0.98798 0.80672 0.0
C879 C 0.1604 0.98667 0.80399 0.0
C880 C 0.19251 0.98153 0.81692 0.0
C881 C 0.22112 0.98136 0.82006 0.0
C882 C 0.2303 0.96227 0.81484 0.0
C883 C 0.25734 0.96226 0.81779 0.0
C884 C 0.27532 0.9811 0.826 0.0
C885 C 0.26622 0.99993 0.8313 0.0
C886 C 0.23919 1.00004 0.82837 0.0
C887 C 0.06106 0.94547 0.83236 0.0
C888 C 0.06774 0.97022 0.83923 0.0
C889 C 0.08543 0.94378 0.82757 0.0
C890 C 0.11675 0.96741 0.82936 0.0
C891 C 0.1234 0.98924 0.83735 0.0
C892 C 0.09892 0.99051 0.84233 0.0
C893 C 0.14105 0.97373 0.82149 0.0
C894 C 0.16885 0.97463 0.82422 0.0
C895 C 0.13702 0.98019 0.81125 0.0
C896 C 0.10936 0.98206 0.80805 0.0
C897 C 0.10325 0.00441 0.81256 0.0
C898 C 0.07647 0.00524 0.80982 0.0
C899 C 0.05579 0.98403 0.8025 0.0
C900 C 0.06195 0.96208 0.79787 0.0
C901 C 0.08869 0.96112 0.8006 0.0
H902 H 0.03501 0.98463 0.80041 0.0
H903 H 0.29625 0.98106 0.82828 0.0
H904 H 0.08319 0.31751 0.78718 0.0
H905 H 0.08368 0.28769 0.8019 0.0
H906 H 0.01039 0.20184 0.78794 0.0
H907 H 0.00878 0.23213 0.77345 0.0
H908 H 1.00195 0.19641 0.80726 0.0
H909 H 0.0934 0.22947 0.78602 0.0
H910 H 0.14277 0.26619 0.7772 0.0
H911 H 0.18415 0.31162 0.80583 0.0
H912 H 0.13491 0.27539 0.8148 0.0
H913 H 0.08114 0.10552 0.82094 0.0
H914 H 0.08483 0.15131 0.81281 0.0
H915 H 0.03549 0.16298 0.83819 0.0
H916 H 0.03108 0.1162 0.84631 0.0
H917 H 0.10604 0.21071 0.81548 0.0
H918 H 0.98428 0.18356 0.8283 0.0
H919 H 0.93563 0.13961 0.83556 0.0
H920 H 0.95433 0.07285 0.82067 0.0
H921 H 0.00284 0.11639 0.81324 0.0
C922 C 0.06683 0.29232 0.78736 0.0
C923 C 0.04614 0.27701 0.77915 0.0
C924 C 0.06725 0.27523 0.79574 0.0
C925 C 0.04775 0.24227 0.79595 0.0
C926 C 0.02582 0.2272 0.78799 0.0
C927 C 0.02486 0.24447 0.77969 0.0
C928 C 0.05154 0.22332 0.80405 0.0
C929 C 0.02479 0.19979 0.80909 0.0
C930 C 0.08125 0.22738 0.8065 0.0
C931 C 0.1104 0.24994 0.80106 0.0
C932 C 0.11293 0.2475 0.79041 0.0
C933 C 0.14091 0.26816 0.78539 0.0
C934 C 0.1666 0.29113 0.79096 0.0
C935 C 0.16426 0.29376 0.80154 0.0
C936 C 0.13633 0.27319 0.80659 0.0
C937 C 0.07187 0.11837 0.82495 0.0
C938 C 0.05544 0.10702 0.83419 0.0
C939 C 0.074 0.14463 0.82029 0.0
C940 C 0.05974 0.16021 0.82473 0.0
C941 C 0.04612 0.15095 0.8345 0.0
C942 C 0.04396 0.12446 0.83921 0.0
C943 C 0.05649 0.18353 0.81851 0.0
C944 C 0.08332 0.20791 0.81381 0.0
C945 C 0.02681 0.17955 0.81613 0.0
C946 C 0.9973 0.15321 0.82032 0.0
C947 C 0.9779 0.15949 0.82655 0.0
C948 C 0.95039 0.13466 0.8307 0.0
C949 C 0.94196 0.10346 0.8286 0.0
C950 C 0.96093 0.09702 0.82231 0.0
C951 C 0.98843 0.12176 0.81813 0.0
H952 H 0.9207 0.08428 0.83185 0.0
H953 H 0.18837 0.30685 0.78709 0.0
H954 H 0.81169 0.73221 0.72359 0.0
H955 H 0.83813 0.76189 0.70834 0.0
H956 H 0.80039 0.82256 0.71369 0.0
H957 H 0.77272 0.79201 0.72887 0.0
H958 H 0.80053 0.81054 0.69356 0.0
H959 H 0.87652 0.84364 0.72109 0.0
H960 H 0.90538 0.83487 0.73471 0.0
H961 H 0.94021 0.79482 0.71272 0.0
H962 H 0.91126 0.80306 0.69899 0.0
H963 H 0.91168 0.95659 0.67395 0.0
H964 H 0.87355 0.9084 0.68236 0.0
H965 H 0.9248 0.86352 0.67258 0.0
H966 H 0.96384 0.91266 0.66422 0.0
H967 H 0.91623 0.85919 0.69263 0.0
H968 H 0.84784 0.83548 0.66455 0.0
H969 H 0.81979 0.84538 0.65096 0.0
H970 H 0.77102 0.86805 0.67357 0.0
H971 H 0.7991 0.85875 0.68731 0.0
C972 C 0.80872 0.75171 0.72151 0.0
C973 C 0.79026 0.75989 0.72754 0.0
C974 C 0.824 0.76875 0.71277 0.0
C975 C 0.82184 0.79491 0.70995 0.0
C976 C 0.80253 0.80253 0.71573 0.0
C977 C 0.7868 0.78513 0.72443 0.0
C978 C 0.84089 0.81514 0.70129 0.0
C979 C 0.82585 0.82137 0.69338 0.0
C980 C 0.87384 0.8283 0.70081 0.0
C981 C 0.8915 0.82367 0.70904 0.0
C982 C 0.8902 0.8328 0.71918 0.0
C983 C 0.90658 0.82795 0.72692 0.0
C984 C 0.92454 0.81421 0.72459 0.0
C985 C 0.92625 0.80541 0.71452 0.0
C986 C 0.90989 0.81019 0.70675 0.0
C987 C 0.91439 0.93619 0.67332 0.0
C988 C 0.94083 0.93843 0.66848 0.0
C989 C 0.89238 0.90847 0.67809 0.0
C990 C 0.89608 0.88213 0.6781 0.0
C991 C 0.92139 0.88353 0.67266 0.0
C992 C 0.94354 0.91147 0.66781 0.0
C993 C 0.87603 0.85539 0.685 0.0
C994 C 0.89086 0.8479 0.69264 0.0
C995 C 0.84292 0.84113 0.68521 0.0
C996 C 0.82571 0.84651 0.67697 0.0
C997 C 0.83128 0.84276 0.66663 0.0
C998 C 0.81534 0.84824 0.6589 0.0
C999 C 0.79366 0.85736 0.6614 0.0
C1000 C 0.78781 0.86096 0.67164 0.0
C1001 C 0.80369 0.85552 0.67941 0.0
H1002 H 0.78136 0.86162 0.6554 0.0
H1003 H 0.9372 0.81046 0.73059 0.0
H1004 H 0.24381 0.99902 0.73202 0.0
H1005 H 0.21359 0.99714 0.71696 0.0
H1006 H 0.26173 0.09872 0.7169 0.0
H1007 H 0.29145 0.10083 0.73192 0.0
H1008 H 0.20159 0.07596 0.71484 0.0
H1009 H 0.27688 0.05642 0.69879 0.0
H1010 H 0.30708 0.02989 0.69595 0.0
H1011 H 0.22192 0.94274 0.6895 0.0
H1012 H 0.19114 0.96866 0.69245 0.0
H1013 H 0.12932 0.08293 0.66936 0.0
H1014 H 0.17426 0.08961 0.67941 0.0
H1015 H 0.12537 0.98954 0.68484 0.0
H1016 H 0.08064 0.983 0.67503 0.0
H1017 H 0.19042 0.01541 0.68298 0.0
H1018 H 0.11574 0.034 0.70122 0.0
H1019 H 0.08531 0.06037 0.70395 0.0
H1020 H 0.17075 0.15002 0.70622 0.0
H1021 H 0.20167 0.12418 0.70333 0.0
C1022 C 0.24808 0.02095 0.72876 0.0
C1023 C 0.26997 0.05003 0.73327 0.0
C1024 C 0.23089 0.01986 0.72011 0.0
C1025 C 0.23546 0.04783 0.71573 0.0
C1026 C 0.25763 0.07681 0.72013 0.0
C1027 C 0.27465 0.07792 0.72876 0.0
C1028 C 0.21625 0.04713 0.70687 0.0
C1029 C 0.19973 0.06319 0.70781 0.0
C1030 C 0.21326 0.03011 0.69771 0.0
C1031 C 0.23167 0.01443 0.69593 0.0
C1032 C 0.26456 0.03154 0.69685 0.0
C1033 C 0.28179 0.01662 0.69521 0.0
C1034 C 0.26642 0.98463 0.69257 0.0
C1035 C 0.23379 0.96751 0.69155 0.0
C1036 C 0.21644 0.98231 0.6932 0.0
C1037 C 0.1288 0.06232 0.67238 0.0
C1038 C 0.1016 0.03248 0.67148 0.0
C1039 C 0.15433 0.06613 0.67817 0.0
C1040 C 0.15298 0.04008 0.68299 0.0
C1041 C 0.12699 0.00994 0.68121 0.0
C1042 C 0.10143 0.00624 0.6756 0.0
C1043 C 0.17602 0.04426 0.69101 0.0
C1044 C 0.19294 0.02864 0.68996 0.0
C1045 C 0.1795 0.06172 0.70007 0.0
C1046 C 0.16098 0.07723 0.70193 0.0
C1047 C 0.12801 0.05937 0.70222 0.0
C1048 C 0.11069 0.07421 0.70381 0.0
C1049 C 0.12609 0.10687 0.70522 0.0
C1050 C 0.15885 0.12474 0.70509 0.0
C1051 C 0.17629 0.11001 0.70348 0.0
H1052 H 0.11263 0.11832 0.70645 0.0
H1053 H 0.2798 0.97313 0.6913 0.0
H1054 H 0.07861 0.29026 0.72177 0.0
H1055 H 0.06385 0.25675 0.70651 0.0
H1056 H 0.96662 0.21057 0.71552 0.0
H1057 H 0.98115 0.24408 0.73086 0.0
H1058 H 0.98446 0.16849 0.71009 0.0
H1059 H 0.99001 0.2585 0.69539 0.0
H1060 H 0.01254 0.31488 0.69169 0.0
H1061 H 0.09143 0.31739 0.67698 0.0
H1062 H 0.06963 0.26112 0.68072 0.0
H1063 H 0.95805 0.0739 0.66669 0.0
H1064 H 0.95156 0.11449 0.67554 0.0
H1065 H 0.05199 0.17687 0.67563 0.0
H1066 H 0.05837 0.13646 0.66694 0.0
H1067 H 0.01971 0.20985 0.67509 0.0
H1068 H 0.02083 0.12566 0.69413 0.0
H1069 H 1.00035 0.06962 0.69794 0.0
H1070 H 0.90981 0.05719 0.70462 0.0
H1071 H 0.92971 0.11312 0.70068 0.0
C1072 C 0.05404 0.2731 0.72052 0.0
C1073 C 0.03111 0.26989 0.72759 0.0
C1074 C 0.0456 0.2541 0.71173 0.0
C1075 C 0.01407 0.23139 0.70979 0.0
C1076 C 0.99107 0.22806 0.71682 0.0
C1077 C 0.99946 0.24726 0.72559 0.0
C1078 C 0.00567 0.21001 0.70074 0.0
C1079 C 0.99136 0.1775 0.7024 0.0
C1080 C 0.01499 0.22171 0.69071 0.0
C1081 C 0.02823 0.25558 0.68839 0.0
C1082 C 0.01228 0.27111 0.69143 0.0
C1083 C 0.0249 0.30306 0.68931 0.0
C1084 C 0.05342 0.31972 0.68411 0.0
C1085 C 0.06934 0.30445 0.681 0.0
C1086 C 0.05683 0.27251 0.68311 0.0
C1087 C 0.97851 0.09689 0.66814 0.0
C1088 C 0.0087 0.10223 0.66618 0.0
C1089 C 0.97484 0.11996 0.67325 0.0
C1090 C 1.00137 0.14849 0.6764 0.0
C1091 C 0.03122 0.1551 0.67329 0.0
C1092 C 0.03487 0.13201 0.66831 0.0
C1093 C 0.99919 0.16861 0.68452 0.0
C1094 C 0.01179 0.20086 0.68273 0.0
C1095 C 0.98844 0.15677 0.69446 0.0
C1096 C 0.97661 0.12338 0.697 0.0
C1097 C 0.99651 0.1109 0.69636 0.0
C1098 C 0.98502 0.07918 0.69854 0.0
C1099 C 0.95377 0.05983 0.7015 0.0
C1100 C 0.93398 0.07219 0.70231 0.0
C1101 C 0.94534 0.10389 0.7001 0.0
H1102 H 0.9449 0.03527 0.70318 0.0
H1103 H 0.06315 0.34445 0.68248 0.0
H1104 H 0.90317 0.63342 0.54996 0.0
H1105 H 0.88353 0.59948 0.53482 0.0
H1106 H 0.913 0.53841 0.54749 0.0
H1107 H 0.9338 0.57299 0.56254 0.0
H1108 H 0.92196 0.54194 0.52737 0.0
H1109 H 0.8364 0.52167 0.54957 0.0
H1110 H 0.80299 0.5348 0.56003 0.0
H1111 H 0.78082 0.57003 0.53347 0.0
H1112 H 0.81446 0.55748 0.52287 0.0
H1113 H 0.79893 0.39282 0.5083 0.0
H1114 H 0.84198 0.44018 0.51627 0.0
H1115 H 0.81816 0.49786 0.49838 0.0
H1116 H 0.77532 0.4504 0.49027 0.0
H1117 H 0.80983 0.50053 0.51934 0.0
H1118 H 0.88955 0.51013 0.49673 0.0
H1119 H 0.9206 0.49252 0.48696 0.0
H1120 H 0.95129 0.47209 0.51493 0.0
H1121 H 0.91985 0.48888 0.52488 0.0
C1122 C 0.90567 0.61288 0.54952 0.0
C1123 C 0.91966 0.6057 0.55756 0.0
C1124 C 0.89441 0.59346 0.54084 0.0
C1125 C 0.89618 0.56598 0.54007 0.0
C1126 C 0.91128 0.55941 0.54789 0.0
C1127 C 0.92301 0.57913 0.55653 0.0
C1128 C 0.88041 0.54311 0.53149 0.0
C1129 C 0.8974 0.53271 0.52564 0.0
C1130 C 0.84846 0.53139 0.5291 0.0
C1131 C 0.82824 0.53899 0.53545 0.0
C1132 C 0.8246 0.53245 0.54598 0.0
C1133 C 0.80559 0.53975 0.55193 0.0
C1134 C 0.78988 0.55334 0.54742 0.0
C1135 C 0.79307 0.55957 0.53695 0.0
C1136 C 0.81209 0.55236 0.53096 0.0
C1137 C 0.80407 0.4157 0.50564 0.0
C1138 C 0.78393 0.41804 0.49867 0.0
C1139 C 0.82861 0.44278 0.51023 0.0
C1140 C 0.83307 0.47255 0.508 0.0
C1141 C 0.81511 0.4751 0.5002 0.0
C1142 C 0.79084 0.448 0.4955 0.0
C1143 C 0.8513 0.49931 0.5152 0.0
C1144 C 0.8346 0.51021 0.52089 0.0
C1145 C 0.88321 0.51086 0.51753 0.0
C1146 C 0.90214 0.50063 0.51157 0.0
C1147 C 0.90266 0.5016 0.50081 0.0
C1148 C 0.92039 0.49183 0.49523 0.0
C1149 C 0.93798 0.48131 0.50032 0.0
C1150 C 0.93773 0.48035 0.511 0.0
C1151 C 0.91995 0.49 0.51661 0.0
H1152 H 0.95176 0.47383 0.49599 0.0
H1153 H 0.77516 0.55896 0.55204 0.0
H1154 H 0.45232 0.30444 0.56106 0.0
H1155 H 0.48816 0.32119 0.54654 0.0
H1156 H 0.4759 0.40089 0.54227 0.0
H1157 H 0.44144 0.38514 0.55725 0.0
H1158 H 0.48496 0.32656 0.52771 0.0
H1159 H 0.53974 0.46088 0.53091 0.0
H1160 H 0.55011 0.50193 0.54386 0.0
H1161 H 0.55386 0.44389 0.56735 0.0
H1162 H 0.54383 0.40268 0.55453 0.0
H1163 H 0.60331 0.37397 0.4909 0.0
H1164 H 0.55996 0.37722 0.49884 0.0
H1165 H 0.61448 0.41427 0.52651 0.0
H1166 H 0.65776 0.41261 0.5185 0.0
H1167 H 0.57742 0.43477 0.5261 0.0
H1168 H 0.56484 0.33051 0.5207 0.0
H1169 H 0.5603 0.28709 0.50984 0.0
H1170 H 0.48084 0.28065 0.4945 0.0
H1171 H 0.48517 0.3243 0.50521 0.0
C1172 C 0.45732 0.32559 0.55704 0.0
C1173 C 0.4443 0.34363 0.56036 0.0
C1174 C 0.47772 0.3351 0.54868 0.0
C1175 C 0.48517 0.36256 0.54329 0.0
C1176 C 0.47128 0.38006 0.5464 0.0
C1177 C 0.45148 0.371 0.55495 0.0
C1178 C 0.50815 0.37289 0.53466 0.0
C1179 C 0.50501 0.35035 0.52733 0.0
C1180 C 0.53439 0.40394 0.53402 0.0
C1181 C 0.5406 0.42858 0.54179 0.0
C1182 C 0.54281 0.45693 0.53884 0.0
C1183 C 0.54863 0.48021 0.54615 0.0
C1184 C 0.55251 0.47546 0.55643 0.0
C1185 C 0.55072 0.44748 0.5594 0.0
C1186 C 0.54494 0.42415 0.55212 0.0
C1187 C 0.60644 0.38411 0.4985 0.0
C1188 C 0.6336 0.39233 0.50418 0.0
C1189 C 0.58151 0.38562 0.50309 0.0
C1190 C 0.58339 0.39486 0.51344 0.0
C1191 C 0.61206 0.40669 0.51858 0.0
C1192 C 0.63688 0.40557 0.51399 0.0
C1193 C 0.55506 0.38799 0.51954 0.0
C1194 C 0.55694 0.41122 0.52633 0.0
C1195 C 0.52839 0.3572 0.52001 0.0
C1196 C 0.52554 0.33082 0.51365 0.0
C1197 C 0.54648 0.31987 0.51498 0.0
C1198 C 0.54395 0.29526 0.50886 0.0
C1199 C 0.52035 0.28119 0.50146 0.0
C1200 C 0.49916 0.29163 0.50021 0.0
C1201 C 0.50163 0.3163 0.5063 0.0
H1202 H 0.51844 0.26214 0.49672 0.0
H1203 H 0.55698 0.49349 0.56208 0.0
H1204 H 0.70653 0.14199 0.56578 0.0
H1205 H 0.70811 0.17275 0.55086 0.0
H1206 H 0.61915 0.09519 0.54064 0.0
H1207 H 0.6172 0.06475 0.5555 0.0
H1208 H 0.66232 0.12533 0.52445 0.0
H1209 H 0.61805 0.15028 0.55376 0.0
H1210 H 0.61881 0.16841 0.57147 0.0
H1211 H 0.7012 0.25733 0.56481 0.0
H1212 H 0.70116 0.23951 0.54708 0.0
H1213 H 0.61164 0.24771 0.50934 0.0
H1214 H 0.6087 0.20388 0.5188 0.0
H1215 H 0.69274 0.21875 0.50373 0.0
H1216 H 0.6951 0.26213 0.49407 0.0
H1217 H 0.6547 0.21981 0.53219 0.0
H1218 H 0.70408 0.16667 0.50609 0.0
H1219 H 0.6987 0.14188 0.4891 0.0
H1220 H 0.59909 0.10377 0.48998 0.0
H1221 H 0.60415 0.1292 0.50683 0.0
C1222 C 0.68763 0.13138 0.56025 0.0
C1223 C 0.66162 0.1011 0.56185 0.0
C1224 C 0.6885 0.14896 0.55175 0.0
C1225 C 0.66365 0.13629 0.54466 0.0
C1226 C 0.63859 0.10542 0.54598 0.0
C1227 C 0.63744 0.08813 0.55452 0.0
C1228 C 0.66211 0.15577 0.53635 0.0
C1229 C 0.66093 0.14616 0.52613 0.0
C1230 C 0.65984 0.18267 0.53851 0.0
C1231 C 0.65983 0.19343 0.54915 0.0
C1232 C 0.63648 0.17359 0.5561 0.0
C1233 C 0.63675 0.18383 0.56614 0.0
C1234 C 0.6601 0.21397 0.56928 0.0
C1235 C 0.68317 0.23397 0.56238 0.0
C1236 C 0.68304 0.22382 0.55233 0.0
C1237 C 0.6283 0.24029 0.50758 0.0
C1238 C 0.65335 0.25803 0.50089 0.0
C1239 C 0.62689 0.21548 0.51309 0.0
C1240 C 0.6507 0.20812 0.5121 0.0
C1241 C 0.67385 0.22358 0.50457 0.0
C1242 C 0.67507 0.24829 0.49897 0.0
C1243 C 0.65455 0.18927 0.5202 0.0
C1244 C 0.65638 0.19917 0.53044 0.0
C1245 C 0.65726 0.16261 0.51806 0.0
C1246 C 0.65454 0.15007 0.50759 0.0
C1247 C 0.68114 0.15336 0.50256 0.0
C1248 C 0.67815 0.13922 0.49298 0.0
C1249 C 0.64858 0.12127 0.48846 0.0
C1250 C 0.62199 0.11775 0.49348 0.0
C1251 C 0.62494 0.13233 0.50297 0.0
H1252 H 0.64625 0.1101 0.48108 0.0
H1253 H 0.66026 0.22186 0.57705 0.0
H1254 H 0.88746 0.64379 0.61346 0.0
H1255 H 0.85762 0.61431 0.62832 0.0
H1256 H 0.88181 0.54334 0.62186 0.0
H1257 H 0.91272 0.57347 0.60705 0.0
H1258 H 0.80782 0.56138 0.62918 0.0
H1259 H 0.8786 0.50381 0.64322 0.0
H1260 H 0.93383 0.51789 0.64485 0.0
H1261 H 0.96312 0.61617 0.64553 0.0
H1262 H 0.90808 0.6027 0.64406 0.0
H1263 H 0.71346 0.41585 0.65023 0.0
H1264 H 0.75158 0.46279 0.64142 0.0
H1265 H 0.79954 0.50365 0.66992 0.0
H1266 H 0.76138 0.45517 0.6789 0.0
H1267 H 0.84082 0.5113 0.65503 0.0
H1268 H 0.75878 0.53325 0.65788 0.0
H1269 H 0.70389 0.52078 0.65745 0.0
H1270 H 0.69946 0.5014 0.62521 0.0
H1271 H 0.75413 0.5132 0.62546 0.0
C1272 C 0.88669 0.62201 0.61522 0.0
C1273 C 0.90228 0.61084 0.60898 0.0
C1274 C 0.86957 0.60516 0.62376 0.0
C1275 C 0.86737 0.57655 0.62629 0.0
C1276 C 0.88351 0.56562 0.62021 0.0
C1277 C 0.90105 0.58275 0.6117 0.0
C1278 C 0.84633 0.55719 0.6348 0.0
C1279 C 0.81523 0.55074 0.63488 0.0
C1280 C 0.85601 0.54394 0.64248 0.0
C1281 C 0.88919 0.55221 0.64345 0.0
C1282 C 0.89681 0.52842 0.64377 0.0
C1283 C 0.92809 0.5363 0.64465 0.0
C1284 C 0.95197 0.5679 0.64526 0.0
C1285 C 0.94462 0.5917 0.64502 0.0
C1286 C 0.91338 0.58396 0.64415 0.0
C1287 C 0.73184 0.43487 0.65472 0.0
C1288 C 0.73443 0.43166 0.66528 0.0
C1289 C 0.75361 0.46192 0.64964 0.0
C1290 C 0.77834 0.48702 0.65498 0.0
C1291 C 0.78057 0.48458 0.66563 0.0
C1292 C 0.75861 0.45708 0.67078 0.0
C1293 C 0.80223 0.51467 0.6491 0.0
C1294 C 0.83375 0.5226 0.64946 0.0
C1295 C 0.7932 0.53003 0.64199 0.0
C1296 C 0.76063 0.52411 0.6417 0.0
C1297 C 0.74611 0.5263 0.65069 0.0
C1298 C 0.715 0.5193 0.65049 0.0
C1299 C 0.6982 0.5103 0.64131 0.0
C1300 C 0.71252 0.50842 0.63231 0.0
C1301 C 0.74361 0.51533 0.63248 0.0
H1302 H 0.67407 0.50477 0.64117 0.0
H1303 H 0.97617 0.57395 0.64594 0.0
H1304 H 0.44026 0.28428 0.60712 0.0
H1305 H 0.46696 0.2859 0.62282 0.0
H1306 H 0.46806 0.37042 0.63236 0.0
H1307 H 0.44161 0.36935 0.61633 0.0
H1308 H 0.52363 0.37336 0.6366 0.0
H1309 H 0.41392 0.29669 0.64264 0.0
H1310 H 0.36269 0.24944 0.63862 0.0
H1311 H 0.40501 0.19237 0.63812 0.0
H1312 H 0.45652 0.23908 0.64205 0.0
H1313 H 0.59351 0.35658 0.68102 0.0
H1314 H 0.55173 0.35951 0.67201 0.0
H1315 H 0.52768 0.27362 0.65561 0.0
H1316 H 0.5688 0.27058 0.66466 0.0
H1317 H 0.47752 0.27697 0.65772 0.0
H1318 H 0.58445 0.34806 0.64707 0.0
H1319 H 0.63906 0.39158 0.64938 0.0
H1320 H 0.6064 0.45526 0.65637 0.0
H1321 H 0.55153 0.41192 0.65427 0.0
C1322 C 0.44616 0.30334 0.61252 0.0
C1323 C 0.43844 0.32653 0.61049 0.0
C1324 C 0.46131 0.3041 0.62156 0.0
C1325 C 0.4687 0.3277 0.62896 0.0
C1326 C 0.46221 0.35171 0.62683 0.0
C1327 C 0.44721 0.35115 0.61766 0.0
C1328 C 0.48349 0.32699 0.63879 0.0
C1329 C 0.51317 0.35261 0.64138 0.0
C1330 C 0.47029 0.29959 0.64491 0.0
C1331 C 0.43914 0.27147 0.64262 0.0
C1332 C 0.41235 0.2741 0.64163 0.0
C1333 C 0.38326 0.24743 0.63937 0.0
C1334 C 0.38062 0.21803 0.6381 0.0
C1335 C 0.40707 0.21516 0.63911 0.0
C1336 C 0.4362 0.2417 0.64138 0.0
C1337 C 0.5781 0.33746 0.67591 0.0
C1338 C 0.58431 0.31335 0.67351 0.0
C1339 C 0.55459 0.33944 0.67062 0.0
C1340 C 0.53715 0.31732 0.66288 0.0
C1341 C 0.54089 0.29116 0.66146 0.0
C1342 C 0.56429 0.28926 0.6667 0.0
C1343 C 0.51804 0.32285 0.65533 0.0
C1344 C 0.48755 0.29814 0.65315 0.0
C1345 C 0.53094 0.35061 0.64939 0.0
C1346 C 0.56389 0.37667 0.65066 0.0
C1347 C 0.58891 0.37128 0.64919 0.0
C1348 C 0.6199 0.39591 0.65045 0.0
C1349 C 0.62619 0.42614 0.65306 0.0
C1350 C 0.60149 0.4318 0.65439 0.0
C1351 C 0.57044 0.40721 0.65317 0.0
H1352 H 0.6502 0.44519 0.65402 0.0
H1353 H 0.35806 0.19746 0.63634 0.0
H1354 H 0.7261 0.11996 0.61384 0.0
H1355 H 0.74215 0.15553 0.62876 0.0
H1356 H 0.65145 0.14764 0.62922 0.0
H1357 H 0.63515 0.11213 0.61444 0.0
H1358 H 0.70115 0.2095 0.63001 0.0
H1359 H 0.6674 0.10949 0.64632 0.0
H1360 H 0.66897 0.06112 0.64941 0.0
H1361 H 0.76543 0.11679 0.65863 0.0
H1362 H 0.76455 0.16554 0.65546 0.0
H1363 H 0.67458 0.2429 0.6815 0.0
H1364 H 0.68197 0.20482 0.67161 0.0
H1365 H 0.76655 0.28087 0.65857 0.0
H1366 H 0.75902 0.31891 0.66843 0.0
H1367 H 0.72742 0.1868 0.66424 0.0
H1368 H 0.75294 0.27801 0.63465 0.0
H1369 H 0.74747 0.32425 0.63149 0.0
H1370 H 0.66161 0.28175 0.64866 0.0
H1371 H 0.66694 0.23555 0.65205 0.0
C1372 C 0.70956 0.12579 0.61712 0.0
C1373 C 0.67933 0.11324 0.6129 0.0
C1374 C 0.71874 0.14597 0.62568 0.0
C1375 C 0.69796 0.15414 0.63011 0.0
C1376 C 0.66785 0.14163 0.62592 0.0
C1377 C 0.65855 0.12126 0.61747 0.0
C1378 C 0.70758 0.17669 0.63885 0.0
C1379 C 0.70728 0.20463 0.63744 0.0
C1380 C 0.71557 0.17041 0.64857 0.0
C1381 C 0.71602 0.14114 0.65053 0.0
C1382 C 0.68903 0.11142 0.64892 0.0
C1383 C 0.68977 0.08394 0.6507 0.0
C1384 C 0.71731 0.08588 0.65418 0.0
C1385 C 0.74413 0.11532 0.65592 0.0
C1386 C 0.74352 0.14288 0.65413 0.0
C1387 C 0.69596 0.2513 0.67711 0.0
C1388 C 0.71626 0.28377 0.67572 0.0
C1389 C 0.70004 0.22951 0.67137 0.0
C1390 C 0.72442 0.24008 0.66419 0.0
C1391 C 0.74748 0.27224 0.66404 0.0
C1392 C 0.74336 0.29399 0.66976 0.0
C1393 C 0.72097 0.21945 0.65532 0.0
C1394 C 0.72219 0.19194 0.65671 0.0
C1395 C 0.71362 0.22585 0.64553 0.0
C1396 C 0.71045 0.25359 0.64364 0.0
C1397 C 0.73297 0.27866 0.63776 0.0
C1398 C 0.72995 0.30486 0.63596 0.0
C1399 C 0.70428 0.306 0.63992 0.0
C1400 C 0.68157 0.28092 0.64566 0.0
C1401 C 0.68466 0.25481 0.64757 0.0
H1402 H 0.70194 0.32627 0.6385 0.0
H1403 H 0.71784 0.06457 0.65556 0.0
H1404 H 0.42074 0.12563 0.11156 0.0
H1405 H 0.44063 0.16013 0.12667 0.0
H1406 H 0.5042 0.12682 0.13266 0.0
H1407 H 0.4844 0.09219 0.11772 0.0
H1408 H 0.4765 0.13035 0.15009 0.0
H1409 H 0.5283 0.1973 0.12072 0.0
H1410 H 0.5292 0.22178 0.10428 0.0
H1411 H 0.47982 0.26348 0.11798 0.0
H1412 H 0.47829 0.23889 0.13447 0.0
H1413 H 0.61657 0.24537 0.17175 0.0
H1414 H 0.56984 0.2047 0.16304 0.0
H1415 H 0.52775 0.26244 0.16563 0.0
H1416 H 0.57513 0.30358 0.17444 0.0
H1417 H 0.53028 0.24628 0.14604 0.0
H1418 H 0.49269 0.19014 0.17672 0.0
H1419 H 0.495 0.16718 0.1931 0.0
H1420 H 0.51864 0.10545 0.17724 0.0
H1421 H 0.51731 0.12854 0.16079 0.0
C1422 C 0.43898 0.12564 0.11608 0.0
C1423 C 0.45108 0.1062 0.11335 0.0
C1424 C 0.45029 0.14538 0.12473 0.0
C1425 C 0.474 0.14617 0.13079 0.0
C1426 C 0.48579 0.12652 0.12814 0.0
C1427 C 0.47454 0.10683 0.11953 0.0
C1428 C 0.48765 0.16811 0.13968 0.0
C1429 C 0.48827 0.15571 0.14924 0.0
C1430 C 0.50185 0.20116 0.13868 0.0
C1431 C 0.5028 0.21593 0.12878 0.0
C1432 C 0.5174 0.21148 0.1202 0.0
C1433 C 0.51807 0.22541 0.11088 0.0
C1434 C 0.50447 0.24408 0.11008 0.0
C1435 C 0.49026 0.24894 0.1186 0.0
C1436 C 0.48949 0.23502 0.12794 0.0
C1437 C 0.5968 0.24881 0.17085 0.0
C1438 C 0.59924 0.27739 0.17381 0.0
C1439 C 0.57004 0.22553 0.16587 0.0
C1440 C 0.54514 0.23039 0.16368 0.0
C1441 C 0.54661 0.25812 0.16727 0.0
C1442 C 0.57347 0.28144 0.1724 0.0
C1443 C 0.52047 0.20859 0.15636 0.0
C1444 C 0.5177 0.22093 0.14706 0.0
C1445 C 0.50442 0.17549 0.15761 0.0
C1446 C 0.50491 0.16116 0.16749 0.0
C1447 C 0.49855 0.17179 0.17672 0.0
C1448 C 0.49967 0.15874 0.18603 0.0
C1449 C 0.50687 0.13483 0.18621 0.0
C1450 C 0.513 0.12394 0.17709 0.0
C1451 C 0.51204 0.13699 0.16776 0.0
H1452 H 0.50772 0.12476 0.19342 0.0
H1453 H 0.50502 0.25485 0.10286 0.0
H1454 H 0.90854 0.31982 0.10966 0.0
H1455 H 0.8737 0.30638 0.12447 0.0
H1456 H 0.9149 0.40509 0.1319 0.0
H1457 H 0.9498 0.41879 0.11717 0.0
H1458 H 0.90662 0.36949 0.14904 0.0
H1459 H 0.84576 0.36604 0.11958 0.0
H1460 H 0.82189 0.34735 0.10253 0.0
H1461 H 0.77031 0.25228 0.11342 0.0
H1462 H 0.79422 0.27039 0.1305 0.0
H1463 H 0.79553 0.39543 0.17326 0.0
H1464 H 0.83526 0.39036 0.1638 0.0
H1465 H 0.77375 0.28939 0.16253 0.0
H1466 H 0.73376 0.2946 0.17217 0.0
H1467 H 0.79155 0.3146 0.1436 0.0
H1468 H 0.84441 0.31958 0.17392 0.0
H1469 H 0.86711 0.33813 0.1911 0.0
H1470 H 0.93306 0.42898 0.17899 0.0
H1471 H 0.9104 0.41112 0.16176 0.0
C1472 C 0.91028 0.33872 0.11445 0.0
C1473 C 0.93193 0.37045 0.11214 0.0
C1474 C 0.8903 0.33096 0.12292 0.0
C1475 C 0.89157 0.35473 0.12928 0.0
C1476 C 0.91354 0.38633 0.12713 0.0
C1477 C 0.93338 0.39413 0.11864 0.0
C1478 C 0.86935 0.34702 0.13798 0.0
C1479 C 0.88146 0.35756 0.14786 0.0
C1480 C 0.83643 0.33037 0.13653 0.0
C1481 C 0.82208 0.3195 0.12627 0.0
C1482 C 0.82955 0.34111 0.11831 0.0
C1483 C 0.81597 0.33064 0.10865 0.0
C1484 C 0.79469 0.29863 0.10688 0.0
C1485 C 0.78686 0.27705 0.11479 0.0
C1486 C 0.80041 0.2874 0.12446 0.0
C1487 C 0.7911 0.37204 0.17139 0.0
C1488 C 0.76183 0.34539 0.17352 0.0
C1489 C 0.81378 0.36913 0.16594 0.0
C1490 C 0.80756 0.33949 0.16241 0.0
C1491 C 0.7791 0.31249 0.16518 0.0
C1492 C 0.75643 0.31541 0.17079 0.0
C1493 C 0.82883 0.33788 0.15464 0.0
C1494 C 0.81662 0.32576 0.14488 0.0
C1495 C 0.86162 0.35299 0.15622 0.0
C1496 C 0.87556 0.364 0.16655 0.0
C1497 C 0.8636 0.34358 0.17494 0.0
C1498 C 0.87649 0.35397 0.18468 0.0
C1499 C 0.9015 0.38473 0.18614 0.0
C1500 C 0.91369 0.40515 0.17785 0.0
C1501 C 0.90086 0.39488 0.16808 0.0
H1502 H 0.91146 0.39274 0.19369 0.0
H1503 H 0.78419 0.29057 0.0994 0.0
H1504 H 0.67068 0.58548 0.11184 0.0
H1505 H 0.66835 0.55636 0.12723 0.0
H1506 H 0.76884 0.59816 0.12638 0.0
H1507 H 0.77144 0.62695 0.1111 0.0
H1508 H 0.74042 0.53582 0.12891 0.0
H1509 H 0.73545 0.62112 0.14423 0.0
H1510 H 0.7158 0.65753 0.14696 0.0
H1511 H 0.62563 0.57992 0.15546 0.0
H1512 H 0.6447 0.54299 0.15265 0.0
H1513 H 0.74733 0.46542 0.17429 0.0
H1514 H 0.75682 0.51168 0.16446 0.0
H1515 H 0.65707 0.47081 0.16053 0.0
H1516 H 0.64768 0.42476 0.1702 0.0
H1517 H 0.6896 0.53752 0.16154 0.0
H1518 H 0.69312 0.45241 0.14375 0.0
H1519 H 0.71274 0.41591 0.14107 0.0
H1520 H 0.80627 0.49439 0.13714 0.0
H1521 H 0.78723 0.53138 0.13998 0.0
C1522 C 0.69229 0.58853 0.11494 0.0
C1523 C 0.72119 0.60845 0.11013 0.0
C1524 C 0.69094 0.572 0.12378 0.0
C1525 C 0.71847 0.57514 0.128 0.0
C1526 C 0.74729 0.59522 0.12327 0.0
C1527 C 0.74867 0.61171 0.11449 0.0
C1528 C 0.71729 0.5565 0.13705 0.0
C1529 C 0.72983 0.53672 0.1361 0.0
C1530 C 0.70308 0.55722 0.14641 0.0
C1531 C 0.69145 0.57927 0.14813 0.0
C1532 C 0.71138 0.6118 0.1466 0.0
C1533 C 0.70035 0.63254 0.14818 0.0
C1534 C 0.66945 0.62104 0.15136 0.0
C1535 C 0.64955 0.58879 0.15299 0.0
C1536 C 0.66048 0.56795 0.15141 0.0
C1537 C 0.72749 0.46709 0.17173 0.0
C1538 C 0.69679 0.44161 0.17297 0.0
C1539 C 0.73289 0.49336 0.16604 0.0
C1540 C 0.70762 0.49444 0.16162 0.0
C1541 C 0.6769 0.47053 0.16385 0.0
C1542 C 0.67156 0.44421 0.16938 0.0
C1543 C 0.71276 0.51702 0.15335 0.0
C1544 C 0.7007 0.53721 0.1544 0.0
C1545 C 0.72743 0.51678 0.14405 0.0
C1546 C 0.73884 0.49462 0.1422 0.0
C1547 C 0.71791 0.46187 0.14239 0.0
C1548 C 0.72891 0.4411 0.14083 0.0
C1549 C 0.76075 0.45282 0.13896 0.0
C1550 C 0.78163 0.48535 0.13861 0.0
C1551 C 0.77075 0.50622 0.1402 0.0
H1552 H 0.76923 0.43671 0.13775 0.0
H1553 H 0.66094 0.63712 0.15258 0.0
H1554 H 0.48352 0.07049 0.05962 0.0
H1555 H 0.51077 0.10134 0.04469 0.0
H1556 H 0.45621 0.14691 0.04615 0.0
H1557 H 0.42915 0.11651 0.0614 0.0
H1558 H 0.49911 0.1119 0.02577 0.0
H1559 H 0.50368 0.22383 0.0403 0.0
H1560 H 0.4981 0.24749 0.05634 0.0
H1561 H 0.53116 0.19659 0.07355 0.0
H1562 H 0.53724 0.17294 0.0576 0.0
H1563 H 0.59208 0.25537 0.99381 0.0
H1564 H 0.54987 0.20845 1.0024 0.0
H1565 H 0.61297 0.22284 0.02719 0.0
H1566 H 0.65465 0.26926 0.01873 0.0
H1567 H 0.55908 0.22715 0.0325 0.0
H1568 H 0.58946 0.1615 0.01391 0.0
H1569 H 0.59861 0.13913 0.99822 0.0
H1570 H 0.50181 0.09834 0.9898 0.0
H1571 H 0.49221 0.12101 0.00536 0.0
C1572 C 0.47704 0.08691 0.05678 0.0
C1573 C 0.45455 0.09149 0.06191 0.0
C1574 C 0.49251 0.10435 0.04813 0.0
C1575 C 0.48595 0.12683 0.04435 0.0
C1576 C 0.46205 0.13004 0.04902 0.0
C1577 C 0.4466 0.11266 0.05775 0.0
C1578 C 0.50672 0.14908 0.03635 0.0
C1579 C 0.51194 0.13715 0.02718 0.0
C1580 C 0.52368 0.18204 0.03816 0.0
C1581 C 0.52052 0.19637 0.04779 0.0
C1582 C 0.5098 0.21777 0.04751 0.0
C1583 C 0.50656 0.23116 0.05658 0.0
C1584 C 0.51416 0.22345 0.06596 0.0
C1585 C 0.52517 0.20245 0.06628 0.0
C1586 C 0.52851 0.18904 0.05724 0.0
C1587 C 0.59719 0.24752 1.00085 0.0
C1588 C 0.62646 0.26584 0.00565 0.0
C1589 C 0.57306 0.22095 0.00579 0.0
C1590 C 0.57824 0.21257 0.01551 0.0
C1591 C 0.60843 0.22908 0.01975 0.0
C1592 C 0.63229 0.25544 0.01487 0.0
C1593 C 0.55193 0.18998 0.02205 0.0
C1594 C 0.54568 0.20197 0.03096 0.0
C1595 C 0.53451 0.15722 0.02002 0.0
C1596 C 0.54021 0.14334 0.01073 0.0
C1597 C 0.57019 0.14807 0.00866 0.0
C1598 C 0.57545 0.13527 0.9998 0.0
C1599 C 0.55084 0.11742 0.993 0.0
C1600 C 0.52088 0.11224 0.99506 0.0
C1601 C 0.51552 0.12506 0.0039 0.0
H1602 H 0.55495 0.10754 0.98614 0.0
H1603 H 0.51158 0.23381 0.07297 0.0
H1604 H 0.89793 0.34518 0.06673 0.0
H1605 H 0.8684 0.3453 0.05179 0.0
H1606 H 0.95494 0.41402 0.03738 0.0
H1607 H 0.98398 0.41539 0.0526 0.0
H1608 H 0.9188 0.43312 0.0349 0.0
H1609 H 0.90536 0.33245 0.02864 0.0
H1610 H 0.89288 0.27835 0.03229 0.0
H1611 H 0.79753 0.25133 0.03901 0.0
H1612 H 0.80952 0.30538 0.03553 0.0
H1613 H 0.78045 0.36175 0.99373 0.0
H1614 H 0.82599 0.36288 1.0016 0.0
H1615 H 0.82661 0.42427 0.02551 0.0
H1616 H 0.78205 0.42368 0.0176 0.0
H1617 H 0.82679 0.33966 0.01941 0.0
H1618 H 0.89545 0.46835 0.03619 0.0
H1619 H 0.91149 0.522 0.03055 0.0
H1620 H 0.90448 0.49251 0.99915 0.0
H1621 H 0.88895 0.43883 0.0046 0.0
C1622 C 0.91058 0.35975 0.06027 0.0
C1623 C 0.94317 0.38021 0.06079 0.0
C1624 C 0.89373 0.35977 0.05168 0.0
C1625 C 0.9093 0.37952 0.04331 0.0
C1626 C 0.94216 0.39873 0.04369 0.0
C1627 C 0.95882 0.39936 0.05237 0.0
C1628 C 0.8913 0.38228 0.03462 0.0
C1629 C 0.8989 0.41257 0.03147 0.0
C1630 C 0.86582 0.35567 0.02979 0.0
C1631 C 0.85842 0.32306 0.03188 0.0
C1632 C 0.88178 0.31503 0.03096 0.0
C1633 C 0.87478 0.28436 0.03299 0.0
C1634 C 0.84445 0.26143 0.0359 0.0
C1635 C 0.82102 0.26912 0.03676 0.0
C1636 C 0.8279 0.29976 0.03474 0.0
C1637 C 0.79127 0.37654 1.00041 0.0
C1638 C 0.77791 0.39286 0.00501 0.0
C1639 C 0.81699 0.37683 0.00498 0.0
C1640 C 0.82985 0.39366 0.01417 0.0
C1641 C 0.81763 0.41151 0.01836 0.0
C1642 C 0.79208 0.41119 0.01382 0.0
C1643 C 0.85374 0.39039 0.02006 0.0
C1644 C 0.84715 0.36009 0.0227 0.0
C1645 C 0.88087 0.41695 0.02414 0.0
C1646 C 0.89086 0.44945 0.02082 0.0
C1647 C 0.89757 0.47334 0.02809 0.0
C1648 C 0.90653 0.50377 0.02492 0.0
C1649 C 0.90895 0.51065 0.0145 0.0
C1650 C 0.90253 0.48714 0.00722 0.0
C1651 C 0.89362 0.4567 0.01035 0.0
H1652 H 0.91584 0.53421 0.01207 0.0
H1653 H 0.83908 0.2377 0.03747 0.0
H1654 H 0.64878 0.57911 0.06244 0.0
H1655 H 0.63133 0.54458 0.04735 0.0
H1656 H 0.72745 0.5833 0.03786 0.0
H1657 H 0.7452 0.61803 0.05289 0.0
H1658 H 0.68794 0.57488 0.02153 0.0
H1659 H 0.6904 0.51462 0.05032 0.0
H1660 H 0.67565 0.49213 0.0676 0.0
H1661 H 0.57839 0.44251 0.05902 0.0
H1662 H 0.59257 0.46506 0.04172 0.0
H1663 H 0.69918 0.45865 0.99382 0.0
H1664 H 0.69765 0.50154 1.00254 0.0
H1665 H 0.60182 0.43739 0.01157 0.0
H1666 H 0.60445 0.39394 1.00339 0.0
H1667 H 0.63214 0.45973 0.02744 0.0
H1668 H 0.6286 0.51368 0.99805 0.0
H1669 H 0.64191 0.53593 0.9807 0.0
H1670 H 0.73769 0.59699 0.98988 0.0
H1671 H 0.72498 0.57487 0.00725 0.0
C1672 C 0.66629 0.58043 0.05714 0.0
C1673 C 0.69849 0.60122 0.05898 0.0
C1674 C 0.65621 0.56066 0.0485 0.0
C1675 C 0.67808 0.5612 0.0415 0.0
C1676 C 0.71014 0.58252 0.04314 0.0
C1677 C 0.72027 0.60223 0.05179 0.0
C1678 C 0.66784 0.53834 0.0328 0.0
C1679 C 0.67577 0.54966 0.02277 0.0
C1680 C 0.65098 0.50543 0.03439 0.0
C1681 C 0.6425 0.49182 0.04478 0.0
C1682 C 0.66585 0.49912 0.05215 0.0
C1683 C 0.6576 0.48633 0.06194 0.0
C1684 C 0.6261 0.46599 0.06442 0.0
C1685 C 0.60278 0.45832 0.0571 0.0
C1686 C 0.61091 0.47109 0.0473 0.0
C1687 C 0.67716 0.45411 0.99712 0.0
C1688 C 0.65192 0.42307 0.99791 0.0
C1689 C 0.67626 0.47878 1.00218 0.0
C1690 C 0.64969 0.47296 0.00788 0.0
C1691 C 0.6228 0.4426 0.00737 0.0
C1692 C 0.62405 0.41777 1.00254 0.0
C1693 C 0.65248 0.49599 0.01598 0.0
C1694 C 0.64343 0.4848 0.026 0.0
C1695 C 0.66799 0.52895 0.01434 0.0
C1696 C 0.67585 0.54238 0.00391 0.0
C1697 C 0.65254 0.53163 0.99633 0.0
C1698 C 0.65996 0.54428 0.98651 0.0
C1699 C 0.69065 0.56777 0.98418 0.0
C1700 C 0.71394 0.57876 0.99169 0.0
C1701 C 0.70661 0.56624 1.00153 0.0
H1702 H 0.69636 0.57751 0.97657 0.0
H1703 H 0.61976 0.4561 0.072 0.0
H1704 H 0.57645 0.97109 0.88282 0.0
H1705 H 0.55781 0.93807 0.86741 0.0
H1706 H 0.57781 0.87128 0.88126 0.0
H1707 H 0.59803 0.90508 0.89647 0.0
H1708 H 0.58999 0.87323 0.86195 0.0
H1709 H 0.50196 0.86268 0.88117 0.0
H1710 H 0.46991 0.88118 0.88987 0.0
H1711 H 0.461 0.9198 0.8617 0.0
H1712 H 0.49334 0.90184 0.85287 0.0
H1713 H 0.46281 0.72662 0.84486 0.0
H1714 H 0.50718 0.77443 0.85202 0.0
H1715 H 0.49098 0.8304 0.83059 0.0
H1716 H 0.44674 0.78225 0.82326 0.0
H1717 H 0.48207 0.84087 0.85086 0.0
H1718 H 0.56156 0.83802 0.83127 0.0
H1719 H 0.58975 0.81384 0.82347 0.0
H1720 H 0.61089 0.7941 0.85329 0.0
H1721 H 0.58235 0.81765 0.86128 0.0
C1722 C 0.57704 0.94945 0.88256 0.0
C1723 C 0.58829 0.94049 0.89093 0.0
C1724 C 0.56632 0.93053 0.87374 0.0
C1725 C 0.56566 0.90171 0.87322 0.0
C1726 C 0.57797 0.89331 0.88144 0.0
C1727 C 0.58936 0.91259 0.89017 0.0
C1728 C 0.55043 0.87942 0.86444 0.0
C1729 C 0.56635 0.86607 0.85955 0.0
C1730 C 0.5198 0.87046 0.8611 0.0
C1731 C 0.50039 0.88129 0.8664 0.0
C1732 C 0.49335 0.87533 0.87686 0.0
C1733 C 0.47511 0.88568 0.88181 0.0
C1734 C 0.46352 0.90175 0.87635 0.0
C1735 C 0.47007 0.90742 0.86592 0.0
C1736 C 0.48834 0.89715 0.86094 0.0
C1737 C 0.46984 0.74899 0.8413 0.0
C1738 C 0.45136 0.75084 0.83355 0.0
C1739 C 0.49518 0.77637 0.84541 0.0
C1740 C 0.50222 0.80605 0.84191 0.0
C1741 C 0.48594 0.80772 0.8334 0.0
C1742 C 0.46086 0.78019 0.82915 0.0
C1743 C 0.52137 0.83428 0.84848 0.0
C1744 C 0.50605 0.84862 0.85305 0.0
C1745 C 0.55214 0.84346 0.85164 0.0
C1746 C 0.56964 0.82952 0.84688 0.0
C1747 C 0.57201 0.82833 0.83617 0.0
C1748 C 0.5881 0.81475 0.83172 0.0
C1749 C 0.60208 0.80242 0.83788 0.0
C1750 C 0.60006 0.80368 0.84852 0.0
C1751 C 0.58397 0.81719 0.85302 0.0
H1752 H 0.61452 0.79191 0.83442 0.0
H1753 H 0.44939 0.90974 0.88019 0.0
H1754 H 0.10857 0.6301 0.89355 0.0
H1755 H 0.1463 0.64596 0.87949 0.0
H1756 H 0.1472 0.73338 0.87687 0.0
H1757 H 0.10981 0.71801 0.89107 0.0
H1758 H 0.14623 0.70066 0.85707 0.0
H1759 H 0.20324 0.74217 0.88854 0.0
H1760 H 0.2164 0.73957 0.90652 0.0
H1761 H 0.23916 0.66895 0.89847 0.0
H1762 H 0.22564 0.67079 0.88044 0.0
H1763 H 0.32652 0.76265 0.84576 0.0
H1764 H 0.28374 0.7637 0.85476 0.0
H1765 H 0.21652 0.68228 0.83733 0.0
H1766 H 0.25947 0.68226 0.828 0.0
H1767 H 0.25063 0.71887 0.86706 0.0
H1768 H 0.14254 0.67054 0.84007 0.0
H1769 H 0.13098 0.67628 0.82217 0.0
H1770 H 0.21388 0.76813 0.82111 0.0
H1771 H 0.22568 0.76318 0.83905 0.0
C1772 C 0.11647 0.65255 0.88992 0.0
C1773 C 0.10633 0.67288 0.8935 0.0
C1774 C 0.13799 0.66154 0.88187 0.0
C1775 C 0.14947 0.6908 0.87714 0.0
C1776 C 0.13847 0.71063 0.88039 0.0
C1777 C 0.11731 0.70189 0.88856 0.0
C1778 C 0.17506 0.70168 0.86948 0.0
C1779 C 0.16915 0.70479 0.8592 0.0
C1780 C 0.20506 0.70768 0.87234 0.0
C1781 C 0.21313 0.70639 0.88316 0.0
C1782 C 0.21074 0.72585 0.89062 0.0
C1783 C 0.21832 0.72457 0.90081 0.0
C1784 C 0.22855 0.70407 0.90363 0.0
C1785 C 0.2312 0.6848 0.89627 0.0
C1786 C 0.2236 0.68596 0.88606 0.0
C1787 C 0.30257 0.7461 0.84347 0.0
C1788 C 0.29621 0.72243 0.83619 0.0
C1789 C 0.2781 0.74645 0.84869 0.0
C1790 C 0.24681 0.72276 0.84687 0.0
C1791 C 0.24035 0.70102 0.83884 0.0
C1792 C 0.26493 0.70109 0.83346 0.0
C1793 C 0.22206 0.71764 0.85445 0.0
C1794 C 0.22798 0.71525 0.86481 0.0
C1795 C 0.19236 0.71284 0.85163 0.0
C1796 C 0.18511 0.71635 0.84089 0.0
C1797 C 0.1582 0.69205 0.83604 0.0
C1798 C 0.15163 0.69515 0.82588 0.0
C1799 C 0.17172 0.72252 0.8205 0.0
C1800 C 0.19838 0.7469 0.82528 0.0
C1801 C 0.20504 0.74394 0.83544 0.0
H1802 H 0.16661 0.72485 0.81263 0.0
H1803 H 0.23455 0.70324 0.91152 0.0
H1804 H 0.36412 0.43648 0.89098 0.0
H1805 H 0.36668 0.46448 0.87525 0.0
H1806 H 0.27876 0.45763 0.88312 0.0
H1807 H 0.27561 0.42908 0.89849 0.0
H1808 H 0.27779 0.44636 0.86387 0.0
H1809 H 0.35425 0.52685 0.88686 0.0
H1810 H 0.40165 0.5518 0.8977 0.0
H1811 H 0.45787 0.55637 0.87193 0.0
H1812 H 0.4107 0.5311 0.86097 0.0
H1813 H 0.28375 0.58454 0.84683 0.0
H1814 H 0.28092 0.53864 0.85482 0.0
H1815 H 0.35714 0.54957 0.83579 0.0
H1816 H 0.35939 0.59525 0.82757 0.0
H1817 H 0.36877 0.55277 0.85709 0.0
H1818 H 0.29073 0.48401 0.83351 0.0
H1819 H 0.2424 0.46347 0.8233 0.0
H1820 H 0.18756 0.43981 0.85081 0.0
H1821 H 0.2356 0.46083 0.8612 0.0
C1822 C 0.34544 0.44108 0.88935 0.0
C1823 C 0.31973 0.43058 0.89603 0.0
C1824 C 0.34689 0.45708 0.88035 0.0
C1825 C 0.32295 0.4634 0.87797 0.0
C1826 C 0.2974 0.45289 0.88467 0.0
C1827 C 0.29575 0.43666 0.89353 0.0
C1828 C 0.32436 0.48165 0.86874 0.0
C1829 C 0.29771 0.46964 0.8624 0.0
C1830 C 0.35065 0.51166 0.86655 0.0
C1831 C 0.37894 0.52671 0.87314 0.0
C1832 C 0.37669 0.53295 0.88353 0.0
C1833 C 0.40351 0.54718 0.88969 0.0
C1834 C 0.43273 0.55555 0.88552 0.0
C1835 C 0.43521 0.54979 0.87516 0.0
C1836 C 0.40845 0.53552 0.86897 0.0
C1837 C 0.29882 0.57616 0.84401 0.0
C1838 C 0.32154 0.59313 0.83653 0.0
C1839 C 0.29735 0.55005 0.84861 0.0
C1840 C 0.31894 0.54076 0.84595 0.0
C1841 C 0.34023 0.55631 0.83795 0.0
C1842 C 0.34124 0.58212 0.83317 0.0
C1843 C 0.32179 0.51797 0.85254 0.0
C1844 C 0.3492 0.52913 0.85838 0.0
C1845 C 0.296 0.48746 0.85437 0.0
C1846 C 0.26688 0.47415 0.84815 0.0
C1847 C 0.2684 0.47461 0.8374 0.0
C1848 C 0.24104 0.46287 0.83157 0.0
C1849 C 0.21193 0.45035 0.8364 0.0
C1850 C 0.21013 0.44949 0.84707 0.0
C1851 C 0.23743 0.46129 0.85294 0.0
H1852 H 0.19078 0.44129 0.83188 0.0
H1853 H 0.45347 0.56658 0.8903 0.0
H1854 H 0.53067 0.94581 0.94138 0.0
H1855 H 0.50573 0.91661 0.95685 0.0
H1856 H 0.58131 0.89847 0.96104 0.0
H1857 H 0.60623 0.9272 0.94533 0.0
H1858 H 0.52704 0.84691 0.96428 0.0
H1859 H 0.57336 0.95444 0.97588 0.0
H1860 H 0.58407 0.00905 0.9756 0.0
H1861 H 0.48601 0.97559 0.97937 0.0
H1862 H 0.47454 0.92072 0.97954 0.0
H1863 H 0.4744 0.77495 0.01069 0.0
H1864 H 0.50987 0.81991 1.00015 0.0
H1865 H 0.43384 0.83501 0.99287 0.0
H1866 H 0.39852 0.79046 0.0037 0.0
H1867 H 0.49155 0.89071 0.99213 0.0
H1868 H 0.44414 0.78499 0.97867 0.0
H1869 H 0.43078 0.72952 0.97883 0.0
H1870 H 0.52864 0.75918 0.97795 0.0
H1871 H 0.5426 0.8149 0.97798 0.0
C1872 C 0.54212 0.93567 0.94556 0.0
C1873 C 0.57058 0.93897 0.94207 0.0
C1874 C 0.52788 0.91915 0.9545 0.0
C1875 C 0.54192 0.90587 0.96028 0.0
C1876 C 0.5701 0.90869 0.95676 0.0
C1877 C 0.5843 0.92506 0.94775 0.0
C1878 C 0.52644 0.88794 0.96975 0.0
C1879 C 0.51993 0.85682 0.97045 0.0
C1880 C 0.51615 0.90039 0.97771 0.0
C1881 C 0.52307 0.93342 0.97764 0.0
C1882 C 0.55404 0.95869 0.97658 0.0
C1883 C 0.56026 0.9897 0.97645 0.0
C1884 C 0.53577 0.99578 0.97744 0.0
C1885 C 0.50497 0.97085 0.9786 0.0
C1886 C 0.49859 0.93979 0.97872 0.0
C1887 C 0.46576 0.78903 0.00732 0.0
C1888 C 0.43385 0.77947 0.00805 0.0
C1889 C 0.48593 0.81448 1.00119 0.0
C1890 C 0.47429 0.83024 0.99548 0.0
C1891 C 0.44331 0.8231 0.99716 0.0
C1892 C 0.42317 0.79782 1.00343 0.0
C1893 C 0.49252 0.84998 0.98663 0.0
C1894 C 0.49922 0.88117 0.98602 0.0
C1895 C 0.50275 0.83758 0.97867 0.0
C1896 C 0.49442 0.8041 0.97844 0.0
C1897 C 0.46281 0.77968 0.97858 0.0
C1898 C 0.45513 0.7482 0.97863 0.0
C1899 C 0.47885 0.74083 0.97842 0.0
C1900 C 0.5103 0.76493 0.97813 0.0
C1901 C 0.51811 0.79647 0.97811 0.0
H1902 H 0.47286 0.71644 0.97847 0.0
H1903 H 0.54068 0.01981 0.97734 0.0
H1904 H 0.13897 0.70918 0.94002 0.0
H1905 H 0.17296 0.71336 0.95427 0.0
H1906 H 0.10194 0.62168 0.9648 0.0
H1907 H 0.06805 0.61714 0.95056 0.0
H1908 H 0.1349 0.66812 0.98109 0.0
H1909 H 0.15458 0.62197 0.95127 0.0
H1910 H 0.1663 0.61969 0.93303 0.0
H1911 H 0.2526 0.70821 0.9361 0.0
H1912 H 0.24117 0.71121 0.95435 0.0
H1913 H 0.24758 0.63609 0.00778 0.0
H1914 H 0.20265 0.63167 0.99816 0.0
H1915 H 0.2644 0.72086 0.98388 0.0
H1916 H 0.30851 0.72545 0.99333 0.0
H1917 H 0.23228 0.67116 0.97003 0.0
H1918 H 0.21518 0.71711 0.99985 0.0
H1919 H 0.20398 0.72173 0.01794 0.0
H1920 H 0.11365 0.6377 0.01509 0.0
H1921 H 0.12485 0.6316 0.99706 0.0
C1922 C 0.1304 0.69016 0.94546 0.0
C1923 C 0.101 0.66268 0.94408 0.0
C1924 C 0.14982 0.69256 0.9536 0.0
C1925 C 0.13999 0.66773 0.96056 0.0
C1926 C 0.10994 0.64111 0.95954 0.0
C1927 C 0.09074 0.63849 0.95134 0.0
C1928 C 0.1622 0.66813 0.96822 0.0
C1929 C 0.15603 0.66837 0.97872 0.0
C1930 C 0.18983 0.66874 0.96509 0.0
C1931 C 0.19688 0.66695 0.95415 0.0
C1932 C 0.17593 0.64107 0.94804 0.0
C1933 C 0.18254 0.63962 0.9377 0.0
C1934 C 0.21015 0.66381 0.93341 0.0
C1935 C 0.23122 0.6895 0.93944 0.0
C1936 C 0.2247 0.69107 0.94978 0.0
C1937 C 0.25125 0.65499 1.00276 0.0
C1938 C 0.28163 0.6808 1.00115 0.0
C1939 C 0.22567 0.65245 0.99726 0.0
C1940 C 0.23036 0.67578 0.99019 0.0
C1941 C 0.2603 0.70242 0.98918 0.0
C1942 C 0.28552 0.70494 0.9946 0.0
C1943 C 0.20547 0.67175 0.98298 0.0
C1944 C 0.21107 0.67064 0.97249 0.0
C1945 C 0.17757 0.6706 0.98618 0.0
C1946 C 0.17116 0.67353 0.99712 0.0
C1947 C 0.19321 0.69914 1.00311 0.0
C1948 C 0.18684 0.70204 0.01337 0.0
C1949 C 0.15825 0.67979 0.01769 0.0
C1950 C 0.13595 0.65463 0.01176 0.0
C1951 C 0.14235 0.65138 1.00153 0.0
H1952 H 0.15327 0.68218 0.02561 0.0
H1953 H 0.21524 0.66257 0.92542 0.0
H1954 H 0.29551 0.43851 0.94823 0.0
H1955 H 0.31316 0.47554 0.96265 0.0
H1956 H 0.4038 0.48343 0.96156 0.0
H1957 H 0.38648 0.44649 0.94698 0.0
H1958 H 0.3761 0.47757 0.98236 0.0
H1959 H 0.40318 0.53944 0.95173 0.0
H1960 H 0.39265 0.55311 0.93472 0.0
H1961 H 0.32024 0.56644 0.94752 0.0
H1962 H 0.33001 0.55236 0.96458 0.0
H1963 H 0.42768 0.65137 0.99987 0.0
H1964 H 0.4319 0.61111 0.99011 0.0
H1965 H 0.34582 0.53887 0.00366 0.0
H1966 H 0.34146 0.57935 0.01336 0.0
H1967 H 0.38094 0.57911 0.97654 0.0
H1968 H 0.34928 0.46719 1.00011 0.0
H1969 H 0.36179 0.45336 0.01677 0.0
H1970 H 0.44775 0.54271 0.01817 0.0
H1971 H 0.43606 0.55689 1.00144 0.0
C1972 C 0.31915 0.4479 0.95107 0.0
C1973 C 0.33963 0.43966 0.94638 0.0
C1974 C 0.32917 0.46904 0.95933 0.0
C1975 C 0.35976 0.48219 0.96316 0.0
C1976 C 0.38006 0.47341 0.95873 0.0
C1977 C 0.37018 0.45251 0.95035 0.0
C1978 C 0.37083 0.50661 0.97135 0.0
C1979 C 0.37731 0.49986 0.98113 0.0
C1980 C 0.37291 0.53584 0.96965 0.0
C1981 C 0.36716 0.54459 0.95941 0.0
C1982 C 0.38484 0.54504 0.9509 0.0
C1983 C 0.37904 0.55291 0.94125 0.0
C1984 C 0.35575 0.56058 0.94004 0.0
C1985 C 0.33826 0.56047 0.94847 0.0
C1986 C 0.34394 0.55258 0.95813 0.0
C1987 C 0.41072 0.62675 1.00124 0.0
C1988 C 0.38443 0.61833 0.00742 0.0
C1989 C 0.41299 0.60378 0.99559 0.0
C1990 C 0.38905 0.57203 0.9961 0.0
C1991 C 0.3647 0.5632 1.00323 0.0
C1992 C 0.36232 0.58629 0.00883 0.0
C1993 C 0.38563 0.54998 0.9877 0.0
C1994 C 0.3802 0.55705 0.97783 0.0
C1995 C 0.38469 0.52124 0.98936 0.0
C1996 C 0.39162 0.5132 0.99954 0.0
C1997 C 0.37089 0.48387 0.00395 0.0
C1998 C 0.37786 0.47595 0.01341 0.0
C1999 C 0.40558 0.49711 0.01851 0.0
C2000 C 0.4263 0.52633 0.0142 0.0
C2001 C 0.41944 0.53437 0.00475 0.0
H2002 H 0.41096 0.49089 0.02581 0.0
H2003 H 0.35129 0.56666 0.93256 0.0
H2004 H 0.14615 0.41815 0.45322 0.0
H2005 H 0.16463 0.45155 0.46857 0.0
H2006 H 0.11343 0.49656 0.45967 0.0
H2007 H 0.09484 0.46338 0.44431 0.0
H2008 H 0.1739 0.53901 0.46491 0.0
H2009 H 0.08788 0.44612 0.47949 0.0
H2010 H 0.05623 0.38933 0.48315 0.0
H2011 H 0.13464 0.39371 0.49855 0.0
H2012 H 0.16692 0.45047 0.49486 0.0
H2013 H 0.23109 0.63921 0.50608 0.0
H2014 H 0.18653 0.59577 0.49707 0.0
H2015 H 0.22241 0.53472 0.50397 0.0
H2016 H 0.26567 0.57754 0.51347 0.0
H2017 H 0.1621 0.4995 0.50035 0.0
H2018 H 0.25014 0.58628 0.48316 0.0
H2019 H 0.28554 0.64232 0.47903 0.0
H2020 H 0.20737 0.64822 0.46791 0.0
H2021 H 0.17146 0.59226 0.4721 0.0
C2022 C 0.13869 0.43506 0.45453 0.0
C2023 C 0.11905 0.43806 0.44747 0.0
C2024 C 0.1491 0.45399 0.46336 0.0
C2025 C 0.14014 0.47634 0.46534 0.0
C2026 C 0.12053 0.47938 0.45834 0.0
C2027 C 0.10995 0.46036 0.44954 0.0
C2028 C 0.15276 0.49785 0.47439 0.0
C2029 C 0.17069 0.53037 0.47268 0.0
C2030 C 0.14932 0.48659 0.48451 0.0
C2031 C 0.12988 0.45252 0.48683 0.0
C2032 C 0.09845 0.43494 0.48359 0.0
C2033 C 0.08038 0.40276 0.48569 0.0
C2034 C 0.09343 0.38791 0.49107 0.0
C2035 C 0.12456 0.40524 0.49439 0.0
C2036 C 0.14274 0.43743 0.4923 0.0
C2037 C 0.22817 0.61591 0.50627 0.0
C2038 C 0.25166 0.6116 0.51048 0.0
C2039 C 0.20301 0.59119 0.50096 0.0
C2040 C 0.20186 0.56233 0.49944 0.0
C2041 C 0.22288 0.5568 0.5049 0.0
C2042 C 0.24754 0.58127 0.51043 0.0
C2043 C 0.18339 0.54066 0.49085 0.0
C2044 C 0.16464 0.50814 0.49261 0.0
C2045 C 0.18653 0.55178 0.4807 0.0
C2046 C 0.20811 0.58525 0.47805 0.0
C2047 C 0.24052 0.59959 0.47987 0.0
C2048 C 0.26066 0.63132 0.47753 0.0
C2049 C 0.2487 0.64884 0.47324 0.0
C2050 C 0.21659 0.63463 0.47126 0.0
C2051 C 0.19633 0.60292 0.47361 0.0
H2052 H 0.26433 0.67341 0.47143 0.0
H2053 H 0.07941 0.36299 0.49268 0.0
H2054 H 0.57675 0.657 0.4435 0.0
H2055 H 0.53857 0.6422 0.45734 0.0
H2056 H 0.58829 0.73761 0.46899 0.0
H2057 H 0.62659 0.75284 0.4551 0.0
H2058 H 0.56658 0.68942 0.48458 0.0
H2059 H 0.52831 0.71856 0.45523 0.0
H2060 H 0.51389 0.71576 0.43707 0.0
H2061 H 0.44563 0.61734 0.44007 0.0
H2062 H 0.45999 0.61946 0.45823 0.0
H2063 H 0.44733 0.6985 0.51262 0.0
H2064 H 0.49145 0.7015 0.50319 0.0
H2065 H 0.42798 0.61448 0.48742 0.0
H2066 H 0.38375 0.61276 0.49642 0.0
H2067 H 0.45773 0.65549 0.47413 0.0
H2068 H 0.49217 0.62576 0.50353 0.0
H2069 H 0.50617 0.62676 0.52168 0.0
H2070 H 0.58087 0.72286 0.51875 0.0
H2071 H 0.56691 0.7225 0.50065 0.0
C2072 C 0.57981 0.67486 0.44903 0.0
C2073 C 0.60466 0.70623 0.44811 0.0
C2074 C 0.55794 0.66631 0.45695 0.0
C2075 C 0.56053 0.68883 0.46416 0.0
C2076 C 0.58592 0.71985 0.46351 0.0
C2077 C 0.60766 0.72854 0.45553 0.0
C2078 C 0.53552 0.68049 0.4719 0.0
C2079 C 0.54278 0.6822 0.48234 0.0
C2080 C 0.50437 0.67032 0.46895 0.0
C2081 C 0.49547 0.66909 0.45806 0.0
C2082 C 0.51041 0.69626 0.452 0.0
C2083 C 0.50222 0.69481 0.44171 0.0
C2084 C 0.47893 0.66637 0.43741 0.0
C2085 C 0.46371 0.63934 0.4434 0.0
C2086 C 0.47185 0.64066 0.4537 0.0
C2087 C 0.44307 0.67926 0.5075 0.0
C2088 C 0.41226 0.6553 0.50527 0.0
C2089 C 0.46834 0.68101 0.50206 0.0
C2090 C 0.46322 0.65833 0.49448 0.0
C2091 C 0.43264 0.6325 0.49312 0.0
C2092 C 0.40737 0.63123 0.49836 0.0
C2093 C 0.48839 0.664 0.48697 0.0
C2094 C 0.48129 0.66215 0.47648 0.0
C2095 C 0.51956 0.67375 0.48991 0.0
C2096 C 0.52824 0.67414 0.50078 0.0
C2097 C 0.51137 0.64714 0.50681 0.0
C2098 C 0.51933 0.64759 0.51707 0.0
C2099 C 0.54434 0.67489 0.52138 0.0
C2100 C 0.56147 0.70174 0.51541 0.0
C2101 C 0.55356 0.70141 0.50514 0.0
H2102 H 0.55048 0.67521 0.52932 0.0
H2103 H 0.47263 0.6653 0.42944 0.0
H2104 H 0.42929 0.94998 0.4421 0.0
H2105 H 0.42749 0.91916 0.4567 0.0
H2106 H 0.32852 0.88383 0.46018 0.0
H2107 H 0.33002 0.91506 0.44543 0.0
H2108 H 0.36228 0.90137 0.4791 0.0
H2109 H 0.34931 0.83724 0.44957 0.0
H2110 H 0.36216 0.82567 0.43242 0.0
H2111 H 0.45256 0.84673 0.44321 0.0
H2112 H 0.44042 0.85888 0.46039 0.0
H2113 H 0.3257 0.76377 0.5077 0.0
H2114 H 0.33142 0.80738 0.49741 0.0
H2115 H 0.42713 0.83415 0.49061 0.0
H2116 H 0.42093 0.78981 0.50075 0.0
H2117 H 0.39502 0.8226 0.4737 0.0
H2118 H 0.40708 0.884 0.50358 0.0
H2119 H 0.39419 0.89532 0.52076 0.0
H2120 H 0.30587 0.8793 0.50961 0.0
H2121 H 0.31802 0.86739 0.4924 0.0
C2122 C 0.407 0.93575 0.44592 0.0
C2123 C 0.37969 0.93493 0.44249 0.0
C2124 C 0.40608 0.91809 0.45431 0.0
C2125 C 0.37787 0.899 0.4595 0.0
C2126 C 0.35058 0.89843 0.45628 0.0
C2127 C 0.35143 0.91611 0.4478 0.0
C2128 C 0.37713 0.87896 0.46804 0.0
C2129 C 0.36901 0.88381 0.47793 0.0
C2130 C 0.38672 0.85667 0.46656 0.0
C2131 C 0.39406 0.84927 0.45624 0.0
C2132 C 0.37203 0.83966 0.44826 0.0
C2133 C 0.37917 0.83295 0.43854 0.0
C2134 C 0.40819 0.83554 0.43672 0.0
C2135 C 0.43011 0.84477 0.44463 0.0
C2136 C 0.4231 0.85155 0.45436 0.0
C2137 C 0.34845 0.78004 0.50446 0.0
C2138 C 0.37306 0.77387 0.50515 0.0
C2139 C 0.35169 0.8049 0.49851 0.0
C2140 C 0.37968 0.8241 0.49316 0.0
C2141 C 0.40526 0.81964 0.49462 0.0
C2142 C 0.40191 0.79461 0.50054 0.0
C2143 C 0.38053 0.84509 0.48488 0.0
C2144 C 0.3885 0.84028 0.47497 0.0
C2145 C 0.37077 0.86731 0.48638 0.0
C2146 C 0.36338 0.87455 0.49672 0.0
C2147 C 0.38481 0.88265 0.50481 0.0
C2148 C 0.37766 0.88921 0.51455 0.0
C2149 C 0.34921 0.88797 0.51628 0.0
C2150 C 0.32789 0.88023 0.50826 0.0
C2151 C 0.33492 0.8736 0.49851 0.0
H2152 H 0.34371 0.89307 0.52382 0.0
H2153 H 0.41367 0.83032 0.42919 0.0
H2154 H 0.12747 0.39059 0.38839 0.0
H2155 H 0.1572 0.41947 0.37329 0.0
H2156 H 0.16755 0.50519 0.3862 0.0
H2157 H 0.1359 0.47571 0.401 0.0
H2158 H 0.16321 0.50824 0.36716 0.0
H2159 H 0.22366 0.47992 0.38797 0.0
H2160 H 0.23828 0.44591 0.39711 0.0
H2161 H 0.23913 0.40154 0.36876 0.0
H2162 H 0.22346 0.43456 0.35947 0.0
H2163 H 0.33212 0.60121 0.35032 0.0
H2164 H 0.29177 0.55471 0.35895 0.0
H2165 H 0.22571 0.54073 0.33516 0.0
H2166 H 0.26643 0.58847 0.3266 0.0
H2167 H 0.25357 0.49633 0.35756 0.0
H2168 H 0.15496 0.51912 0.34645 0.0
H2169 H 0.14851 0.56187 0.33958 0.0
H2170 H 0.2369 0.63094 0.35268 0.0
H2171 H 0.24363 0.58861 0.35973 0.0
C2172 C 0.13575 0.41552 0.3879 0.0
C2173 C 0.12967 0.431 0.39588 0.0
C2174 C 0.15292 0.43206 0.37931 0.0
C2175 C 0.16552 0.46475 0.37868 0.0
C2176 C 0.15827 0.48001 0.38647 0.0
C2177 C 0.14024 0.46322 0.39495 0.0
C2178 C 0.18739 0.48323 0.37021 0.0
C2179 C 0.18282 0.50539 0.36504 0.0
C2180 C 0.21335 0.47996 0.36741 0.0
C2181 C 0.22183 0.45938 0.37304 0.0
C2182 C 0.22648 0.46259 0.38369 0.0
C2183 C 0.23499 0.4435 0.3889 0.0
C2184 C 0.23952 0.4215 0.38352 0.0
C2185 C 0.23558 0.41857 0.37292 0.0
C2186 C 0.22669 0.43733 0.36769 0.0
C2187 C 0.30932 0.58753 0.34671 0.0
C2188 C 0.30225 0.59858 0.33787 0.0
C2189 C 0.28614 0.56089 0.35168 0.0
C2190 C 0.25532 0.54462 0.3479 0.0
C2191 C 0.24913 0.55334 0.33836 0.0
C2192 C 0.2725 0.58031 0.33338 0.0
C2193 C 0.22973 0.52165 0.35471 0.0
C2194 C 0.2335 0.49856 0.35954 0.0
C2195 C 0.204 0.52512 0.35755 0.0
C2196 C 0.19995 0.55071 0.35348 0.0
C2197 C 0.17295 0.54344 0.34787 0.0
C2198 C 0.16925 0.56759 0.34396 0.0
C2199 C 0.19234 0.5991 0.34566 0.0
C2200 C 0.21909 0.60653 0.35134 0.0
C2201 C 0.22285 0.58248 0.3553 0.0
H2202 H 0.18946 0.61775 0.3426 0.0
H2203 H 0.24616 0.40678 0.38757 0.0
H2204 H 0.62711 0.77256 0.39803 0.0
H2205 H 0.59342 0.76873 0.38401 0.0
H2206 H 0.55712 0.66883 0.3815 0.0
H2207 H 0.59071 0.67215 0.39585 0.0
H2208 H 0.57624 0.71355 0.3613 0.0
H2209 H 0.5096 0.67461 0.39119 0.0
H2210 H 0.49749 0.67622 0.40943 0.0
H2211 H 0.50851 0.76762 0.40552 0.0
H2212 H 0.52126 0.76677 0.38728 0.0
H2213 H 0.44064 0.68688 0.33216 0.0
H2214 H 0.48026 0.68473 0.34265 0.0
H2215 H 0.49845 0.76959 0.35856 0.0
H2216 H 0.45791 0.77084 0.34838 0.0
H2217 H 0.48689 0.72615 0.37182 0.0
H2218 H 0.54856 0.76278 0.34139 0.0
H2219 H 0.55587 0.75882 0.32299 0.0
H2220 H 0.5566 0.67314 0.32752 0.0
H2221 H 0.54638 0.67507 0.34592 0.0
C2222 C 0.6122 0.74964 0.39453 0.0
C2223 C 0.61146 0.72253 0.39821 0.0
C2224 C 0.59302 0.74761 0.38644 0.0
C2225 C 0.57281 0.71856 0.38173 0.0
C2226 C 0.57273 0.69152 0.38503 0.0
C2227 C 0.59178 0.69344 0.39327 0.0
C2228 C 0.55015 0.71674 0.37399 0.0
C2229 C 0.55628 0.71565 0.36354 0.0
C2230 C 0.52467 0.72027 0.37696 0.0
C2231 C 0.51673 0.72077 0.3879 0.0
C2232 C 0.50976 0.69519 0.39424 0.0
C2233 C 0.50272 0.69593 0.40458 0.0
C2234 C 0.50232 0.72204 0.40864 0.0
C2235 C 0.50888 0.74743 0.40236 0.0
C2236 C 0.516 0.74682 0.39203 0.0
C2237 C 0.45413 0.70583 0.33758 0.0
C2238 C 0.44645 0.72921 0.33941 0.0
C2239 C 0.47655 0.70439 0.34367 0.0
C2240 C 0.49226 0.72684 0.3515 0.0
C2241 C 0.48644 0.75176 0.35267 0.0
C2242 C 0.46364 0.7528 0.34674 0.0
C2243 C 0.5129 0.72331 0.35898 0.0
C2244 C 0.50652 0.72364 0.36946 0.0
C2245 C 0.53805 0.71901 0.35598 0.0
C2246 C 0.54627 0.71886 0.34505 0.0
C2247 C 0.54999 0.74291 0.33848 0.0
C2248 C 0.5546 0.74099 0.32802 0.0
C2249 C 0.55712 0.71594 0.32407 0.0
C2250 C 0.55468 0.69256 0.33058 0.0
C2251 C 0.54914 0.69388 0.34103 0.0
H2252 H 0.56083 0.71458 0.31596 0.0
H2253 H 0.49686 0.72257 0.41664 0.0
H2254 H 0.40814 0.96089 0.38543 0.0
H2255 H 0.39441 0.92739 0.3702 0.0
H2256 H 0.29869 0.87278 0.38069 0.0
H2257 H 0.31203 0.90675 0.39582 0.0
H2258 H 0.37642 0.86837 0.36918 0.0
H2259 H 0.24841 0.83675 0.36073 0.0
H2260 H 0.21621 0.86169 0.36187 0.0
H2261 H 0.29906 0.95321 0.35952 0.0
H2262 H 0.33172 0.92883 0.35821 0.0
H2263 H 0.27491 0.72281 0.34418 0.0
H2264 H 0.27514 0.76849 0.35171 0.0
H2265 H 0.35303 0.82995 0.33244 0.0
H2266 H 0.35222 0.78417 0.32466 0.0
H2267 H 0.28474 0.83498 0.34636 0.0
H2268 H 0.40969 0.86423 0.35003 0.0
H2269 H 0.44101 0.83823 0.34874 0.0
H2270 H 0.36384 0.75304 0.36076 0.0
H2271 H 0.33232 0.77869 0.36223 0.0
C2272 C 0.38407 0.94196 0.38447 0.0
C2273 C 0.36125 0.93647 0.39191 0.0
C2274 C 0.37624 0.92281 0.37573 0.0
C2275 C 0.34545 0.89765 0.37421 0.0
C2276 C 0.32247 0.8924 0.38155 0.0
C2277 C 0.33022 0.91174 0.39026 0.0
C2278 C 0.33811 0.87543 0.36543 0.0
C2279 C 0.35677 0.86178 0.36409 0.0
C2280 C 0.31204 0.86605 0.35885 0.0
C2281 C 0.29254 0.88093 0.35947 0.0
C2282 C 0.25975 0.86219 0.36041 0.0
C2283 C 0.24142 0.87623 0.36109 0.0
C2284 C 0.25559 0.90901 0.3608 0.0
C2285 C 0.28812 0.92782 0.35978 0.0
C2286 C 0.30656 0.9139 0.35909 0.0
C2287 C 0.2907 0.74593 0.34108 0.0
C2288 C 0.31374 0.75009 0.33392 0.0
C2289 C 0.29082 0.77204 0.34539 0.0
C2290 C 0.3144 0.80257 0.34274 0.0
C2291 C 0.33459 0.80654 0.33457 0.0
C2292 C 0.33404 0.78034 0.33009 0.0
C2293 C 0.32324 0.82861 0.35021 0.0
C2294 C 0.30475 0.84246 0.35137 0.0
C2295 C 0.34947 0.8384 0.35666 0.0
C2296 C 0.36865 0.82325 0.35615 0.0
C2297 C 0.39953 0.84001 0.35244 0.0
C2298 C 0.41728 0.82533 0.35167 0.0
C2299 C 0.40437 0.79398 0.35464 0.0
C2300 C 0.37377 0.77729 0.35844 0.0
C2301 C 0.35597 0.79187 0.35924 0.0
H2302 H 0.4181 0.78265 0.35404 0.0
H2303 H 0.24135 0.91984 0.36135 0.0
H2304 H 0.32767 0.04117 0.11468 0.0
H2305 H 0.28743 0.04624 0.12384 0.0
H2306 H 0.27391 0.08951 0.0974 0.0
H2307 H 0.31568 0.08609 0.0884 0.0
H2308 H 0.2694 0.11754 0.11341 0.0
H2309 H 0.22331 0.00783 0.10423 0.0
H2310 H 0.21962 0.95606 0.10349 0.0
H2311 H 0.21754 0.95229 0.1363 0.0
H2312 H 0.2216 0.00423 0.13723 0.0
H2313 H 0.11118 0.07588 0.12075 0.0
H2314 H 0.16252 0.085 0.1157 0.0
H2315 H 0.17372 0.05465 0.14536 0.0
H2316 H 0.12182 0.04515 0.15045 0.0
H2317 H 0.18225 0.02256 0.12967 0.0
H2318 H 0.22113 0.13064 0.1382 0.0
H2319 H 0.2217 0.18089 0.13813 0.0
H2320 H 0.23408 0.18621 0.10553 0.0
H2321 H 0.2331 0.13574 0.10538 0.0
C2322 C 0.31612 0.05179 0.11082 0.0
C2323 C 0.32454 0.06289 0.10078 0.0
C2324 C 0.29298 0.05456 0.11606 0.0
C2325 C 0.27688 0.06752 0.11126 0.0
C2326 C 0.28579 0.07928 0.10128 0.0
C2327 C 0.30956 0.0772 0.09612 0.0
C2328 C 0.25049 0.06831 0.11656 0.0
C2329 C 0.25022 0.09666 0.11687 0.0
C2330 C 0.22571 0.04135 0.12136 0.0
C2331 C 0.22309 0.01005 0.1208 0.0
C2332 C 0.22227 0.99604 0.11129 0.0
C2333 C 0.22008 0.96666 0.11083 0.0
C2334 C 0.21844 0.95094 0.11984 0.0
C2335 C 0.21887 0.96452 0.12933 0.0
C2336 C 0.22108 0.99391 0.12982 0.0
C2337 C 0.12489 0.0719 0.1263 0.0
C2338 C 0.11246 0.05985 0.13601 0.0
C2339 C 0.15434 0.07723 0.12341 0.0
C2340 C 0.1721 0.07061 0.13015 0.0
C2341 C 0.16046 0.06002 0.14004 0.0
C2342 C 0.13095 0.0549 0.14299 0.0
C2343 C 0.20101 0.07162 0.12638 0.0
C2344 C 0.20168 0.04354 0.12633 0.0
C2345 C 0.22584 0.09867 0.1217 0.0
C2346 C 0.22687 0.12928 0.12178 0.0
C2347 C 0.22378 0.14242 0.13101 0.0
C2348 C 0.2242 0.17096 0.131 0.0
C2349 C 0.22788 0.18671 0.12183 0.0
C2350 C 0.23123 0.17399 0.11264 0.0
C2351 C 0.2308 0.14543 0.11259 0.0
H2352 H 0.22818 0.2088 0.12184 0.0
H2353 H 0.21676 0.9282 0.11948 0.0
H2354 H 0.00591 0.31513 0.11327 0.0
H2355 H 0.00236 0.27121 0.1228 0.0
H2356 H 0.94497 0.20675 0.09887 0.0
H2357 H 0.94725 0.25068 0.08953 0.0
H2358 H 0.9232 0.17953 0.11609 0.0
H2359 H 0.0271 0.23499 0.10204 0.0
H2360 H 0.07955 0.28087 0.09863 0.0
H2361 H 0.09931 0.29317 0.13083 0.0
H2362 H 0.0468 0.24757 0.13444 0.0
H2363 H 0.9565 0.05711 0.12296 0.0
H2364 H 0.94972 0.10047 0.11774 0.0
H2365 H 0.99405 0.15086 0.14563 0.0
H2366 H 1.00121 0.10726 0.1509 0.0
H2367 H 0.02095 0.18633 0.12837 0.0
H2368 H 0.91706 0.12101 0.14121 0.0
H2369 H 0.86684 0.07092 0.14278 0.0
H2370 H 0.84738 0.07411 0.11103 0.0
H2371 H 0.89822 0.1233 0.10908 0.0
C2372 C 0.99254 0.2916 0.11002 0.0
C2373 C 0.97713 0.28647 0.10058 0.0
C2374 C 0.99061 0.26643 0.11548 0.0
C2375 C 0.97395 0.23551 0.1115 0.0
C2376 C 0.95807 0.23028 0.10213 0.0
C2377 C 0.9595 0.25545 0.09676 0.0
C2378 C 0.9735 0.20882 0.11702 0.0
C2379 C 0.94462 0.18097 0.11869 0.0
C2380 C 1.00132 0.21069 0.12066 0.0
C2381 C 0.0329 0.2381 0.11851 0.0
C2382 C 0.04255 0.24763 0.10839 0.0
C2383 C 0.0723 0.27356 0.10643 0.0
C2384 C 0.09271 0.28999 0.11451 0.0
C2385 C 0.08345 0.28046 0.12458 0.0
C2386 C 0.05371 0.25457 0.12659 0.0
C2387 C 0.96413 0.07706 0.12813 0.0
C2388 C 0.9794 0.07869 0.13736 0.0
C2389 C 0.9602 0.10188 0.12512 0.0
C2390 C 0.97133 0.12902 0.13127 0.0
C2391 C 0.98524 0.13015 0.14075 0.0
C2392 C 0.98901 0.10507 0.14381 0.0
C2393 C 0.97076 0.15697 0.1273 0.0
C2394 C 0.99948 0.18508 0.12591 0.0
C2395 C 0.94285 0.15498 0.12372 0.0
C2396 C 0.91169 0.12588 0.12498 0.0
C2397 C 0.90224 0.11095 0.13453 0.0
C2398 C 0.87364 0.08268 0.13549 0.0
C2399 C 0.85385 0.06947 0.12704 0.0
C2400 C 0.8627 0.08441 0.11758 0.0
C2401 C 0.89149 0.11243 0.11653 0.0
H2402 H 0.83168 0.04763 0.12782 0.0
H2403 H 0.11573 0.31005 0.11297 0.0
H2404 H 0.78892 0.7301 0.08825 0.0
H2405 H 0.83242 0.77035 0.09857 0.0
H2406 H 0.76952 0.75092 0.12399 0.0
H2407 H 0.7258 0.71097 0.11366 0.0
H2408 H 0.83711 0.82476 0.10774 0.0
H2409 H 0.81582 0.7605 0.14625 0.0
H2410 H 0.79212 0.70622 0.15267 0.0
H2411 H 0.81094 0.67592 0.12398 0.0
H2412 H 0.83521 0.73006 0.11744 0.0
H2413 H 0.92369 0.92616 0.15039 0.0
H2414 H 0.87968 0.8746 0.14493 0.0
H2415 H 0.94228 0.86025 0.1257 0.0
H2416 H 0.98588 0.91221 0.13077 0.0
H2417 H 0.87442 0.80197 0.13989 0.0
H2418 H 0.92401 0.8774 0.10931 0.0
H2419 H 0.94804 0.93235 0.10343 0.0
H2420 H 0.8714 0.9384 0.11635 0.0
H2421 H 0.84725 0.88361 0.12242 0.0
C2422 C 0.78436 0.73443 0.09603 0.0
C2423 C 0.75392 0.71751 0.10012 0.0
C2424 C 0.80921 0.75742 0.10192 0.0
C2425 C 0.80425 0.76351 0.11206 0.0
C2426 C 0.77392 0.74644 0.1162 0.0
C2427 C 0.74895 0.72376 0.11027 0.0
C2428 C 0.83067 0.78843 0.11818 0.0
C2429 C 0.84525 0.81957 0.11472 0.0
C2430 C 0.8411 0.78191 0.12741 0.0
C2431 C 0.82699 0.74932 0.13131 0.0
C2432 C 0.81499 0.74228 0.14132 0.0
C2433 C 0.80145 0.71153 0.14498 0.0
C2434 C 0.79995 0.68763 0.13872 0.0
C2435 C 0.812 0.69443 0.1288 0.0
C2436 C 0.82561 0.72514 0.12511 0.0
C2437 C 0.92825 0.91132 0.14537 0.0
C2438 C 0.9581 0.92298 0.14102 0.0
C2439 C 0.90311 0.88194 0.14224 0.0
C2440 C 0.90778 0.86369 0.1349 0.0
C2441 C 0.93827 0.87392 0.13141 0.0
C2442 C 0.96315 0.90353 0.13432 0.0
C2443 C 0.88069 0.83785 0.12933 0.0
C2444 C 0.86601 0.80683 0.13291 0.0
C2445 C 0.86999 0.84421 0.12019 0.0
C2446 C 0.884 0.87667 0.11634 0.0
C2447 C 0.91238 0.89054 0.1109 0.0
C2448 C 0.92603 0.92163 0.10755 0.0
C2449 C 0.91127 0.93888 0.10953 0.0
C2450 C 0.88282 0.92504 0.11484 0.0
C2451 C 0.86917 0.89401 0.11824 0.0
H2452 H 0.92186 0.96294 0.10693 0.0
H2453 H 0.78962 0.66389 0.14158 0.0
H2454 H 0.08873 0.32487 0.41344 0.0
H2455 H 0.08874 0.28444 0.40243 0.0
H2456 H 0.00966 0.27512 0.38572 0.0
H2457 H 0.00989 0.31612 0.39661 0.0
H2458 H 0.00261 0.21677 0.39109 0.0
H2459 H 0.074 0.30719 0.37275 0.0
H2460 H 0.11795 0.36132 0.37022 0.0
H2461 H 0.18172 0.33649 0.38319 0.0
H2462 H 0.138 0.28189 0.38569 0.0
H2463 H 0.01604 0.11495 0.35495 0.0
H2464 H 0.02009 0.16518 0.35988 0.0
H2465 H 0.08756 0.17954 0.38314 0.0
H2466 H 0.08264 0.12898 0.3785 0.0
H2467 H 0.09797 0.23749 0.3719 0.0
H2468 H 0.01999 0.14508 0.39096 0.0
H2469 H 0.97375 0.09141 0.39177 0.0
H2470 H 0.91909 0.12198 0.37554 0.0
H2471 H 0.96524 0.17576 0.37449 0.0
C2472 C 0.07135 0.31428 0.40742 0.0
C2473 C 0.04932 0.32373 0.40589 0.0
C2474 C 0.07147 0.29125 0.4011 0.0
C2475 C 0.04933 0.2769 0.3932 0.0
C2476 C 0.02699 0.28593 0.39175 0.0
C2477 C 0.02718 0.30937 0.39797 0.0
C2478 C 0.04944 0.25209 0.38665 0.0
C2479 C 0.02323 0.22145 0.38674 0.0
C2480 C 0.07625 0.25808 0.38095 0.0
C2481 C 0.10274 0.29062 0.37949 0.0
C2482 C 0.09738 0.31332 0.37511 0.0
C2483 C 0.12224 0.34401 0.37364 0.0
C2484 C 0.15256 0.35238 0.3766 0.0
C2485 C 0.15817 0.32994 0.38092 0.0
C2486 C 0.13338 0.29906 0.38232 0.0
C2487 C 0.03263 0.1295 0.36082 0.0
C2488 C 0.04915 0.11832 0.36633 0.0
C2489 C 0.03478 0.15803 0.36368 0.0
C2490 C 0.05398 0.17592 0.37192 0.0
C2491 C 0.07272 0.16615 0.37675 0.0
C2492 C 0.06997 0.13734 0.37407 0.0
C2493 C 0.05139 0.20215 0.37652 0.0
C2494 C 0.07719 0.23297 0.37612 0.0
C2495 C 0.02392 0.19642 0.38176 0.0
C2496 C 0.99612 0.16428 0.38253 0.0
C2497 C 0.99818 0.14027 0.38749 0.0
C2498 C 0.97199 0.10986 0.388 0.0
C2499 C 0.94352 0.10326 0.38368 0.0
C2500 C 0.94117 0.12711 0.37886 0.0
C2501 C 0.96733 0.15755 0.37831 0.0
H2502 H 0.92327 0.0797 0.38409 0.0
H2503 H 0.17164 0.37624 0.37555 0.0
H2504 H 0.72223 0.79224 0.4159 0.0
H2505 H 0.76068 0.8332 0.40463 0.0
H2506 H 0.76634 0.7625 0.3866 0.0
H2507 H 0.72777 0.72137 0.39783 0.0
H2508 H 0.82445 0.81359 0.39069 0.0
H2509 H 0.72732 0.79437 0.37743 0.0
H2510 H 0.67422 0.78679 0.37834 0.0
H2511 H 0.71271 0.88214 0.38903 0.0
H2512 H 0.76604 0.89011 0.38841 0.0
H2513 H 0.92149 0.9269 0.35435 0.0
H2514 H 0.87164 0.88079 0.3597 0.0
H2515 H 0.86033 0.93766 0.38267 0.0
H2516 H 0.91025 0.98333 0.37753 0.0
H2517 H 0.80187 0.88929 0.37368 0.0
H2518 H 0.897 0.90394 0.38958 0.0
H2519 H 0.94994 0.91097 0.38912 0.0
H2520 H 0.91378 0.82254 0.37316 0.0
H2521 H 0.86066 0.81528 0.37338 0.0
C2522 C 0.73169 0.7854 0.40955 0.0
C2523 C 0.72191 0.75354 0.40775 0.0
C2524 C 0.75355 0.80883 0.40308 0.0
C2525 C 0.76616 0.80091 0.39469 0.0
C2526 C 0.75687 0.76917 0.393 0.0
C2527 C 0.7348 0.74569 0.39942 0.0
C2528 C 0.78931 0.82588 0.3878 0.0
C2529 C 0.81925 0.82969 0.3868 0.0
C2530 C 0.78268 0.84713 0.38279 0.0
C2531 C 0.75071 0.84276 0.38295 0.0
C2532 C 0.72447 0.81367 0.38005 0.0
C2533 C 0.69432 0.8093 0.38051 0.0
C2534 C 0.69009 0.83395 0.38376 0.0
C2535 C 0.71603 0.86305 0.38652 0.0
C2536 C 0.74624 0.86752 0.38611 0.0
C2537 C 0.90769 0.92978 0.36025 0.0
C2538 C 0.91971 0.95858 0.36556 0.0
C2539 C 0.87934 0.90341 0.36335 0.0
C2540 C 0.86245 0.90573 0.37167 0.0
C2541 C 0.8729 0.93531 0.37624 0.0
C2542 C 0.90143 0.9614 0.37329 0.0
C2543 C 0.83698 0.87706 0.37669 0.0
C2544 C 0.80673 0.8727 0.3774 0.0
C2545 C 0.8432 0.85513 0.38141 0.0
C2546 C 0.87499 0.85928 0.38138 0.0
C2547 C 0.9004 0.88614 0.3859 0.0
C2548 C 0.93042 0.89015 0.38569 0.0
C2549 C 0.93524 0.86727 0.38108 0.0
C2550 C 0.91002 0.84028 0.3767 0.0
C2551 C 0.87996 0.83621 0.37686 0.0
H2552 H 0.9585 0.8704 0.38093 0.0
H2553 H 0.66672 0.8305 0.38412 0.0
H2554 H 0.29724 0.02013 0.40444 0.0
H2555 H 0.25143 0.0165 0.39617 0.0
H2556 H 0.19752 0.91721 0.40266 0.0
H2557 H 0.2434 0.92078 0.41122 0.0
H2558 H 0.19575 0.94386 0.38014 0.0
H2559 H 0.17613 0.94724 0.41647 0.0
H2560 H 0.19186 0.96831 0.43401 0.0
H2561 H 0.21523 0.06023 0.42385 0.0
H2562 H 0.20009 0.03977 0.40622 0.0
H2563 H 0.05251 0.94349 0.36716 0.0
H2564 H 0.09166 0.93169 0.37395 0.0
H2565 H 0.14979 0.02908 0.3833 0.0
H2566 H 0.11051 0.04034 0.37687 0.0
H2567 H 0.14418 0.99396 0.39844 0.0
H2568 H 0.16657 0.99394 0.36253 0.0
H2569 H 0.15291 0.97619 0.34461 0.0
H2570 H 0.12732 0.88222 0.35305 0.0
H2571 H 0.14024 0.89927 0.37108 0.0
C2572 C 0.27568 0.99747 0.40413 0.0
C2573 C 0.2739 0.97078 0.40856 0.0
C2574 C 0.24957 0.99542 0.39934 0.0
C2575 C 0.22119 0.96657 0.39873 0.0
C2576 C 0.21932 0.93965 0.40299 0.0
C2577 C 0.24541 0.9418 0.40796 0.0
C2578 C 0.19326 0.9656 0.39422 0.0
C2579 C 0.18392 0.95418 0.38418 0.0
C2580 C 0.17843 0.97974 0.39941 0.0
C2581 C 0.18725 0.99203 0.41002 0.0
C2582 C 0.18489 0.972 0.41797 0.0
C2583 C 0.19364 0.98382 0.42793 0.0
C2584 C 0.20461 0.01561 0.43004 0.0
C2585 C 0.20676 0.03562 0.4222 0.0
C2586 C 0.19807 0.02391 0.41223 0.0
C2587 C 0.07402 0.96235 0.37047 0.0
C2588 C 0.07874 0.99283 0.37146 0.0
C2589 C 0.09633 0.95564 0.37438 0.0
C2590 C 0.12378 0.97949 0.37919 0.0
C2591 C 0.12879 0.01017 0.37974 0.0
C2592 C 0.10646 0.01667 0.376 0.0
C2593 C 0.14678 0.97285 0.3842 0.0
C2594 C 0.15539 0.98303 0.39438 0.0
C2595 C 0.16108 0.95794 0.37905 0.0
C2596 C 0.15403 0.94781 0.36818 0.0
C2597 C 0.15782 0.96944 0.36058 0.0
C2598 C 0.15022 0.95951 0.3504 0.0
C2599 C 0.13919 0.92809 0.3477 0.0
C2600 C 0.13582 0.90654 0.35516 0.0
C2601 C 0.14327 0.91633 0.36537 0.0
H2602 H 0.13337 0.92049 0.33981 0.0
H2603 H 0.21138 0.02472 0.43776 0.0
H2604 H 0.67799 0.93044 0.90072 0.0
H2605 H 0.71815 0.92675 0.89086 0.0
H2606 H 0.78773 0.02022 0.90126 0.0
H2607 H 0.74679 0.02479 0.91029 0.0
H2608 H 0.80148 0.01698 0.88347 0.0
H2609 H 0.77537 0.94326 0.91109 0.0
H2610 H 0.74038 0.89741 0.9217 0.0
H2611 H 0.71402 0.83681 0.89522 0.0
H2612 H 0.74863 0.88237 0.88445 0.0
H2613 H 0.92143 0.96404 0.88528 0.0
H2614 H 0.87069 0.95592 0.8904 0.0
H2615 H 0.85812 0.98323 0.86038 0.0
H2616 H 0.90998 0.99257 0.8553 0.0
H2617 H 0.81234 0.92281 0.88595 0.0
H2618 H 0.82186 0.02616 0.86305 0.0
H2619 H 0.86244 0.07499 0.85481 0.0
H2620 H 0.93111 0.08189 0.87621 0.0
H2621 H 0.89087 0.03335 0.88463 0.0
C2622 C 0.70195 0.95005 0.90091 0.0
C2623 C 0.70952 0.97773 0.90635 0.0
C2624 C 0.72501 0.94792 0.89531 0.0
C2625 C 0.75644 0.97289 0.89543 0.0
C2626 C 0.76383 1.00055 0.90096 0.0
C2627 C 0.74052 0.00311 0.90621 0.0
C2628 C 0.78169 0.9705 0.88986 0.0
C2629 C 0.80365 0.99627 0.88403 0.0
C2630 C 0.78499 0.94363 0.89048 0.0
C2631 C 0.7643 0.91625 0.89696 0.0
C2632 C 0.76197 0.92018 0.90753 0.0
C2633 C 0.74223 0.89425 0.91357 0.0
C2634 C 0.72491 0.86424 0.90913 0.0
C2635 C 0.72739 0.86008 0.89865 0.0
C2636 C 0.74708 0.88593 0.89257 0.0
C2637 C 0.90767 0.96778 0.87967 0.0
C2638 C 0.91993 0.97927 0.86991 0.0
C2639 C 0.87848 0.96298 0.88262 0.0
C2640 C 0.86068 0.96952 0.87588 0.0
C2641 C 0.87165 0.97855 0.8658 0.0
C2642 C 0.90114 0.98351 0.86285 0.0
C2643 C 0.83239 0.96954 0.87986 0.0
C2644 C 0.80979 0.9433 0.88532 0.0
C2645 C 0.82925 0.99645 0.87926 0.0
C2646 C 0.85346 0.02594 0.87437 0.0
C2647 C 0.8456 0.03817 0.866 0.0
C2648 C 0.86854 0.06578 0.8613 0.0
C2649 C 0.89936 0.08146 0.86496 0.0
C2650 C 0.90727 0.06967 0.87336 0.0
C2651 C 0.88442 0.04211 0.87809 0.0
H2652 H 0.91709 0.10278 0.8613 0.0
H2653 H 0.70963 0.8442 0.91382 0.0
H2654 H 0.10308 0.79441 0.9157 0.0
H2655 H 0.10662 0.83965 0.90684 0.0
H2656 H 0.03035 0.77657 0.88704 0.0
H2657 H 0.0266 0.73131 0.89586 0.0
H2658 H 0.07941 0.828 0.87644 0.0
H2659 H 0.01508 0.80902 0.90659 0.0
H2660 H 0.00379 0.80178 0.92508 0.0
H2661 H 0.08342 0.8936 0.93123 0.0
H2662 H 0.09542 0.9012 0.91278 0.0
H2663 H 0.02642 0.92994 0.85891 0.0
H2664 H 0.03554 0.88852 0.86494 0.0
H2665 H 0.09746 0.95164 0.88841 0.0
H2666 H 0.08687 0.99227 0.88274 0.0
H2667 H 0.05889 0.90088 0.89689 0.0
H2668 H 0.12169 0.92316 0.86687 0.0
H2669 H 0.13266 0.93217 0.84842 0.0
H2670 H 0.05932 0.83727 0.84186 0.0
H2671 H 0.04746 0.82786 0.86026 0.0
C2672 C 0.08711 0.79016 0.90945 0.0
C2673 C 0.06436 0.75923 0.90656 0.0
C2674 C 0.08921 0.81604 0.90437 0.0
C2675 C 0.06869 0.81153 0.89628 0.0
C2676 C 0.04651 0.78066 0.89322 0.0
C2677 C 0.04424 0.7548 0.89834 0.0
C2678 C 0.06902 0.83888 0.89143 0.0
C2679 C 0.07479 0.84391 0.88087 0.0
C2680 C 0.06364 0.86003 0.89724 0.0
C2681 C 0.05634 0.85553 0.90832 0.0
C2682 C 0.03032 0.82756 0.9119 0.0
C2683 C 0.02377 0.82341 0.92237 0.0
C2684 C 0.04293 0.84718 0.92933 0.0
C2685 C 0.06863 0.87519 0.92583 0.0
C2686 C 0.07531 0.87944 0.91537 0.0
C2687 C 0.04266 0.93518 0.86516 0.0
C2688 C 0.05592 0.96426 0.87037 0.0
C2689 C 0.04791 0.91147 0.86863 0.0
C2690 C 0.06726 0.91677 0.87717 0.0
C2691 C 0.0822 0.9467 0.88188 0.0
C2692 C 0.07635 0.97004 0.87859 0.0
C2693 C 0.06964 0.89054 0.88184 0.0
C2694 C 0.06408 0.88547 0.8924 0.0
C2695 C 0.07562 0.86972 0.87602 0.0
C2696 C 0.08353 0.87487 0.86497 0.0
C2697 C 0.10782 0.90423 0.8615 0.0
C2698 C 0.11418 0.90943 0.85104 0.0
C2699 C 0.09666 0.88533 0.84397 0.0
C2700 C 0.07286 0.85593 0.84734 0.0
C2701 C 0.06632 0.85063 0.85779 0.0
H2702 H 0.10157 0.88944 0.83587 0.0
H2703 H 0.03782 0.84392 0.93743 0.0
H2704 H 0.31204 0.31799 0.89427 0.0
H2705 H 0.26776 0.27834 0.88407 0.0
H2706 H 0.20338 0.27519 0.90702 0.0
H2707 H 0.24746 0.31464 0.91725 0.0
H2708 H 0.18992 0.21686 0.90129 0.0
H2709 H 0.2125 0.31225 0.88458 0.0
H2710 H 0.24629 0.36263 0.87586 0.0
H2711 H 0.26332 0.31377 0.85161 0.0
H2712 H 0.23008 0.26313 0.86029 0.0
H2713 H 0.04809 0.12542 0.87812 0.0
H2714 H 0.09255 0.17605 0.88355 0.0
H2715 H 0.15045 0.16758 0.86049 0.0
H2716 H 0.1054 0.11699 0.85481 0.0
H2717 H 0.16877 0.23214 0.86538 0.0
H2718 H 0.14796 0.13738 0.88238 0.0
H2719 H 0.11444 0.08699 0.89113 0.0
H2720 H 0.09517 0.13537 0.91497 0.0
H2721 H 0.12813 0.18601 0.90625 0.0
C2722 C 0.28844 0.30883 0.89714 0.0
C2723 C 0.28325 0.31937 0.90658 0.0
C2724 C 0.26314 0.28633 0.89127 0.0
C2725 C 0.23219 0.27397 0.89473 0.0
C2726 C 0.22703 0.28441 0.90418 0.0
C2727 C 0.25226 0.30697 0.91002 0.0
C2728 C 0.20516 0.24926 0.88874 0.0
C2729 C 0.18515 0.22044 0.89348 0.0
C2730 C 0.19937 0.25352 0.87844 0.0
C2731 C 0.21904 0.28391 0.87314 0.0
C2732 C 0.22365 0.31226 0.87743 0.0
C2733 C 0.24268 0.34087 0.87249 0.0
C2734 C 0.257 0.34141 0.8632 0.0
C2735 C 0.25224 0.31332 0.85882 0.0
C2736 C 0.2333 0.28465 0.86374 0.0
C2737 C 0.0699 0.13503 0.8739 0.0
C2738 C 0.07343 0.11722 0.86611 0.0
C2739 C 0.09536 0.16389 0.87704 0.0
C2740 C 0.12503 0.17518 0.87261 0.0
C2741 C 0.1278 0.15922 0.86405 0.0
C2742 C 0.10203 0.13038 0.86079 0.0
C2743 C 0.15339 0.20012 0.87803 0.0
C2744 C 0.17366 0.22874 0.87318 0.0
C2745 C 0.15965 0.19578 0.88826 0.0
C2746 C 0.14028 0.16544 0.89362 0.0
C2747 C 0.13641 0.13724 0.88946 0.0
C2748 C 0.11752 0.10864 0.89441 0.0
C2749 C 0.10264 0.10797 0.90359 0.0
C2750 C 0.10668 0.13592 0.90785 0.0
C2751 C 0.12547 0.16458 0.90291 0.0
H2752 H 0.08802 0.0858 0.90742 0.0
H2753 H 0.27172 0.36358 0.85939 0.0
H2754 H 0.94963 0.72237 0.5891 0.0
H2755 H 0.94684 0.76277 0.59921 0.0
H2756 H 0.01011 0.76154 0.62144 0.0
H2757 H 0.01259 0.72047 0.6114 0.0
H2758 H 0.96222 0.76684 0.6307 0.0
H2759 H 0.03824 0.81846 0.6041 0.0
H2760 H 0.05805 0.82781 0.58639 0.0
H2761 H 0.98617 0.84692 0.57754 0.0
H2762 H 0.96565 0.83726 0.59518 0.0
H2763 H 0.01091 0.9233 0.65076 0.0
H2764 H 0.00352 0.8725 0.64484 0.0
H2765 H 0.94619 0.87127 0.61992 0.0
H2766 H 0.95453 0.9223 0.62561 0.0
H2767 H 0.99284 0.86661 0.61285 0.0
H2768 H 0.91766 0.81677 0.63983 0.0
H2769 H 0.89967 0.80959 0.65774 0.0
H2770 H 0.9705 0.7885 0.66616 0.0
H2771 H 0.98936 0.79619 0.64833 0.0
C2772 C 0.96291 0.73057 0.59615 0.0
C2773 C 0.98162 0.71844 0.59938 0.0
C2774 C 0.96126 0.75368 0.60194 0.0
C2775 C 0.97853 0.76548 0.61104 0.0
C2776 C 0.99657 0.75281 0.61445 0.0
C2777 C 0.99816 0.72952 0.60866 0.0
C2778 C 0.97901 0.79227 0.61659 0.0
C2779 C 0.96921 0.78881 0.62685 0.0
C2780 C 0.98782 0.82083 0.61155 0.0
C2781 C 1.00025 0.82687 0.60094 0.0
C2782 C 0.02652 0.82444 0.59836 0.0
C2783 C 0.0379 0.82983 0.58834 0.0
C2784 C 0.02333 0.83788 0.58083 0.0
C2785 C 0.99741 0.84065 0.58335 0.0
C2786 C 0.98591 0.83525 0.59337 0.0
C2787 C 0.99572 0.91147 0.64427 0.0
C2788 C 0.98321 0.92655 0.63863 0.0
C2789 C 0.9916 0.8825 0.64086 0.0
C2790 C 0.97449 0.86809 0.63186 0.0
C2791 C 0.95972 0.88199 0.62681 0.0
C2792 C 0.96425 0.91101 0.63011 0.0
C2793 C 0.97516 0.84106 0.62691 0.0
C2794 C 0.98558 0.84462 0.61673 0.0
C2795 C 0.96696 0.81279 0.63207 0.0
C2796 C 0.95513 0.80736 0.64275 0.0
C2797 C 0.92955 0.81081 0.64551 0.0
C2798 C 0.91918 0.80664 0.65565 0.0
C2799 C 0.93397 0.79866 0.66309 0.0
C2800 C 0.95909 0.79472 0.66039 0.0
C2801 C 0.96962 0.79897 0.65027 0.0
H2802 H 0.92594 0.79549 0.67094 0.0
H2803 H 0.03218 0.84204 0.57308 0.0
H2804 H 0.31245 0.32029 0.60867 0.0
H2805 H 0.27109 0.27717 0.61859 0.0
H2806 H 0.29172 0.21151 0.60353 0.0
H2807 H 0.33193 0.25425 0.59326 0.0
H2808 H 0.23163 0.1877 0.60426 0.0
H2809 H 0.31546 0.24456 0.62892 0.0
H2810 H 0.35244 0.29214 0.63879 0.0
H2811 H 0.27535 0.29442 0.65296 0.0
H2812 H 0.23792 0.24778 0.64288 0.0
H2813 H 0.13348 0.05547 0.63206 0.0
H2814 H 0.18401 0.09959 0.62651 0.0
H2815 H 0.16492 0.16423 0.64304 0.0
H2816 H 0.11538 0.11972 0.64917 0.0
H2817 H 0.22504 0.18935 0.64211 0.0
H2818 H 0.14302 0.14251 0.6172 0.0
H2819 H 0.10192 0.0995 0.6067 0.0
H2820 H 0.1709 0.08278 0.59283 0.0
H2821 H 0.21236 0.12542 0.60335 0.0
C2822 C 0.30813 0.29663 0.60749 0.0
C2823 C 0.32546 0.29066 0.60019 0.0
C2824 C 0.28462 0.27201 0.61322 0.0
C2825 C 0.27857 0.24103 0.61199 0.0
C2826 C 0.29592 0.23514 0.60468 0.0
C2827 C 0.31896 0.25962 0.5988 0.0
C2828 C 0.25346 0.21442 0.61798 0.0
C2829 C 0.23063 0.18792 0.61255 0.0
C2830 C 0.25114 0.21514 0.6288 0.0
C2831 C 0.27384 0.24271 0.63507 0.0
C2832 C 0.30637 0.25529 0.63409 0.0
C2833 C 0.32742 0.28212 0.63972 0.0
C2834 C 0.31624 0.29616 0.64652 0.0
C2835 C 0.28399 0.2835 0.64769 0.0
C2836 C 0.26285 0.25694 0.642 0.0
C2837 C 0.14085 0.07897 0.63489 0.0
C2838 C 0.12072 0.08428 0.64106 0.0
C2839 C 0.1695 0.10427 0.6316 0.0
C2840 C 0.17781 0.13546 0.634 0.0
C2841 C 0.15902 0.1405 0.64097 0.0
C2842 C 0.13076 0.11503 0.64453 0.0
C2843 C 0.20372 0.16249 0.62837 0.0
C2844 C 0.22643 0.18907 0.63383 0.0
C2845 C 0.20555 0.16241 0.61754 0.0
C2846 C 0.18072 0.13693 0.61114 0.0
C2847 C 0.14938 0.12954 0.61195 0.0
C2848 C 0.12603 0.10524 0.60599 0.0
C2849 C 0.13378 0.08837 0.59912 0.0
C2850 C 0.16493 0.09583 0.59817 0.0
C2851 C 0.18836 0.12007 0.60412 0.0
H2852 H 0.11567 0.06956 0.59452 0.0
H2853 H 0.33259 0.31688 0.65088 0.0
H2854 H 0.79355 0.0968 0.58824 0.0
H2855 H 0.83877 0.0997 0.5969 0.0
H2856 H 0.77792 0.03905 0.62063 0.0
H2857 H 0.73262 0.03564 0.61196 0.0
H2858 H 0.83592 0.09197 0.62815 0.0
H2859 H 0.79846 0.00652 0.60372 0.0
H2860 H 0.78201 0.98158 0.58667 0.0
H2861 H 0.87298 0.04717 0.5746 0.0
H2862 H 0.88982 0.07281 0.59156 0.0
H2863 H 0.93769 0.04115 0.64857 0.0
H2864 H 0.89522 0.04843 0.64237 0.0
H2865 H 0.94856 0.09199 0.61506 0.0
H2866 H 0.99021 0.08362 0.62105 0.0
H2867 H 0.89344 0.04834 0.60978 0.0
H2868 H 0.93251 0.13252 0.63452 0.0
H2869 H 0.94946 0.15595 0.65175 0.0
H2870 H 0.85694 0.09368 0.66338 0.0
H2871 H 0.83957 0.06941 0.64626 0.0
C2872 C 0.78982 0.08414 0.59531 0.0
C2873 C 0.75945 0.06575 0.59935 0.0
C2874 C 0.81567 0.08587 0.60027 0.0
C2875 C 0.81173 0.06959 0.60943 0.0
C2876 C 0.78155 0.05191 0.61361 0.0
C2877 C 0.75566 0.04978 0.60859 0.0
C2878 C 0.83877 0.06949 0.61429 0.0
C2879 C 0.84843 0.08226 0.62419 0.0
C2880 C 0.85531 0.05718 0.60908 0.0
C2881 C 0.84527 0.04181 0.59888 0.0
C2882 C 0.81486 0.01581 0.59741 0.0
C2883 C 0.80548 0.00151 0.58777 0.0
C2884 C 0.8264 0.01285 0.57955 0.0
C2885 C 0.85678 0.03846 0.58097 0.0
C2886 C 0.86626 0.05287 0.59059 0.0
C2887 C 0.94065 0.05306 0.64139 0.0
C2888 C 0.9672 0.0617 0.63528 0.0
C2889 C 0.91632 0.05719 0.63782 0.0
C2890 C 0.91849 0.07068 0.62819 0.0
C2891 C 0.94605 0.08122 0.62245 0.0
C2892 C 0.96998 0.07662 0.62591 0.0
C2893 C 0.89132 0.07144 0.62362 0.0
C2894 C 0.88134 0.05847 0.61377 0.0
C2895 C 0.8747 0.08371 0.62888 0.0
C2896 C 0.88481 0.09894 0.63911 0.0
C2897 C 0.91581 0.1237 0.64076 0.0
C2898 C 0.9255 0.13712 0.65051 0.0
C2899 C 0.90432 0.12625 0.65866 0.0
C2900 C 0.87334 0.10204 0.65706 0.0
C2901 C 0.86355 0.08845 0.64733 0.0
H2902 H 0.91189 0.13663 0.6662 0.0
H2903 H 0.81911 0.00173 0.57209 0.0
H2904 H 0.97332 0.35599 0.43978 0.0
H2905 H 0.93213 0.36115 0.44821 0.0
H2906 H 0.97104 0.45469 0.43602 0.0
H2907 H 0.01191 0.44922 0.42727 0.0
H2908 H 0.92922 0.39767 0.46236 0.0
H2909 H 0.91203 0.46875 0.43127 0.0
H2910 H 0.92025 0.47876 0.41273 0.0
H2911 H 0.91048 0.38792 0.4079 0.0
H2912 H 0.90186 0.37727 0.42638 0.0
H2913 H 0.79895 0.41577 0.47881 0.0
H2914 H 0.85179 0.4291 0.47324 0.0
H2915 H 0.8114 0.36754 0.447 0.0
H2916 H 0.7595 0.35476 0.4524 0.0
H2917 H 0.85995 0.41928 0.4411 0.0
H2918 H 0.83614 0.34652 0.46917 0.0
H2919 H 0.82297 0.33009 0.48713 0.0
H2920 H 0.90757 0.4129 0.4971 0.0
H2921 H 0.92097 0.43022 0.47919 0.0
C2922 C 0.97313 0.37767 0.43887 0.0
C2923 C 0.99569 0.40204 0.43274 0.0
C2924 C 0.94967 0.38071 0.44378 0.0
C2925 C 0.94823 0.40822 0.44273 0.0
C2926 C 0.9713 0.43302 0.43684 0.0
C2927 C 0.99464 0.42985 0.43182 0.0
C2928 C 0.92146 0.40987 0.44732 0.0
C2929 C 0.91425 0.40271 0.45773 0.0
C2930 C 0.90177 0.41639 0.44133 0.0
C2931 C 0.90674 0.42244 0.43021 0.0
C2932 C 0.91161 0.45093 0.42624 0.0
C2933 C 0.91633 0.4567 0.41575 0.0
C2934 C 0.91602 0.43404 0.40915 0.0
C2935 C 0.91085 0.4055 0.41302 0.0
C2936 C 0.90608 0.3996 0.42351 0.0
C2937 C 0.80144 0.405 0.47193 0.0
C2938 C 0.77493 0.38418 0.46611 0.0
C2939 C 0.83165 0.4127 0.46871 0.0
C2940 C 0.83568 0.39934 0.45966 0.0
C2941 C 0.80913 0.37852 0.45392 0.0
C2942 C 0.7793 0.37116 0.45706 0.0
C2943 C 0.86704 0.40599 0.45604 0.0
C2944 C 0.8753 0.41497 0.44581 0.0
C2945 C 0.88712 0.40029 0.46212 0.0
C2946 C 0.87938 0.3898 0.47286 0.0
C2947 C 0.85183 0.36134 0.4752 0.0
C2948 C 0.84432 0.3519 0.48536 0.0
C2949 C 0.86436 0.37056 0.49325 0.0
C2950 C 0.89202 0.39863 0.49098 0.0
C2951 C 0.89959 0.40826 0.48082 0.0
H2952 H 0.85852 0.36322 0.50112 0.0
H2953 H 0.9197 0.43856 0.40103 0.0
H2954 H 0.67991 0.65052 0.44709 0.0
H2955 H 0.67583 0.60631 0.45651 0.0
H2956 H 0.60928 0.54149 0.43436 0.0
H2957 H 0.61241 0.58599 0.42505 0.0
H2958 H 0.59161 0.51789 0.45283 0.0
H2959 H 0.68891 0.56307 0.43442 0.0
H2960 H 0.74101 0.60539 0.42878 0.0
H2961 H 0.77353 0.62249 0.45987 0.0
H2962 H 0.72147 0.58052 0.46571 0.0
H2963 H 0.61742 0.38993 0.45837 0.0
H2964 H 0.61047 0.43374 0.4538 0.0
H2965 H 0.66762 0.4876 0.47952 0.0
H2966 H 0.6744 0.44324 0.48421 0.0
H2967 H 0.68931 0.5181 0.461 0.0
H2968 H 0.59212 0.46694 0.47889 0.0
H2969 H 0.54047 0.42226 0.48377 0.0
H2970 H 0.50785 0.41401 0.4529 0.0
H2971 H 0.5595 0.45829 0.44778 0.0
C2972 C 0.6644 0.62688 0.44418 0.0
C2973 C 0.64675 0.62183 0.43523 0.0
C2974 C 0.66215 0.60154 0.44959 0.0
C2975 C 0.64273 0.57043 0.44607 0.0
C2976 C 0.62454 0.56523 0.43723 0.0
C2977 C 0.62645 0.59068 0.43188 0.0
C2978 C 0.64199 0.54359 0.45152 0.0
C2979 C 0.61296 0.51783 0.45452 0.0
C2980 C 0.66986 0.54368 0.454 0.0
C2981 C 0.7012 0.56888 0.45051 0.0
C2982 C 0.70711 0.57601 0.44006 0.0
C2983 C 0.73664 0.59991 0.43682 0.0
C2984 C 0.76054 0.61668 0.44396 0.0
C2985 C 0.75498 0.60952 0.45435 0.0
C2986 C 0.72547 0.58566 0.45762 0.0
C2987 C 0.62765 0.41071 0.46326 0.0
C2988 C 0.64647 0.41321 0.47164 0.0
C2989 C 0.62365 0.43578 0.46064 0.0
C2990 C 0.63857 0.46406 0.46629 0.0
C2991 C 0.65587 0.46598 0.47505 0.0
C2992 C 0.6595 0.44057 0.47778 0.0
C2993 C 0.63897 0.49238 0.46224 0.0
C2994 C 0.66797 0.51838 0.45944 0.0
C2995 C 0.61109 0.49227 0.45986 0.0
C2996 C 0.57981 0.46586 0.46293 0.0
C2997 C 0.57402 0.45548 0.47312 0.0
C2998 C 0.54472 0.43023 0.47593 0.0
C2999 C 0.5209 0.41529 0.46865 0.0
C3000 C 0.52632 0.42561 0.45854 0.0
C3001 C 0.5556 0.45082 0.45567 0.0
H3002 H 0.49824 0.39574 0.47084 0.0
H3003 H 0.78339 0.63517 0.44144 0.0
H3004 H 0.3778 0.04221 0.44742 0.0
H3005 H 0.42044 0.08219 0.45808 0.0
H3006 H 0.48713 0.09569 0.43443 0.0
H3007 H 0.44483 0.05543 0.42388 0.0
H3008 H 0.51053 0.09506 0.45235 0.0
H3009 H 0.45934 0.14696 0.43821 0.0
H3010 H 0.41489 0.15467 0.43473 0.0
H3011 H 0.40178 0.16119 0.46697 0.0
H3012 H 0.44595 0.15309 0.47064 0.0
H3013 H 0.63461 0.25171 0.45598 0.0
H3014 H 0.58877 0.20051 0.45205 0.0
H3015 H 0.54848 0.20105 0.48133 0.0
H3016 H 0.59492 0.25288 0.48534 0.0
H3017 H 0.50827 0.18957 0.46443 0.0
H3018 H 0.57388 0.15356 0.47685 0.0
H3019 H 0.62443 0.15587 0.47782 0.0
H3020 H 0.61369 0.12182 0.44689 0.0
H3021 H 0.56448 0.12231 0.44533 0.0
C3022 C 0.40157 0.05373 0.4445 0.0
C3023 C 0.40792 0.04578 0.43478 0.0
C3024 C 0.42593 0.07661 0.4506 0.0
C3025 C 0.45706 0.0922 0.44705 0.0
C3026 C 0.46338 0.08397 0.43738 0.0
C3027 C 0.43912 0.06105 0.43131 0.0
C3028 C 0.48315 0.11763 0.4532 0.0
C3029 C 0.51009 0.11577 0.45497 0.0
C3030 C 0.48229 0.14431 0.45689 0.0
C3031 C 0.45563 0.14896 0.4547 0.0
C3032 C 0.44678 0.14973 0.44456 0.0
C3033 C 0.42168 0.15423 0.44255 0.0
C3034 C 0.40544 0.15829 0.45062 0.0
C3035 C 0.41433 0.15794 0.46072 0.0
C3036 C 0.43938 0.1534 0.46277 0.0
C3037 C 0.6164 0.24053 0.46172 0.0
C3038 C 0.61835 0.25615 0.47099 0.0
C3039 C 0.59015 0.21131 0.45944 0.0
C3040 C 0.56515 0.19694 0.46638 0.0
C3041 C 0.56754 0.21176 0.47587 0.0
C3042 C 0.59419 0.2411 0.47821 0.0
C3043 C 0.53604 0.16748 0.46325 0.0
C3044 C 0.50848 0.16853 0.46205 0.0
C3045 C 0.53668 0.14042 0.45987 0.0
C3046 C 0.56535 0.13815 0.46096 0.0
C3047 C 0.58232 0.14681 0.4702 0.0
C3048 C 0.61085 0.14768 0.47085 0.0
C3049 C 0.62206 0.13848 0.46249 0.0
C3050 C 0.60492 0.12882 0.45338 0.0
C3051 C 0.57682 0.12884 0.45258 0.0
H3052 H 0.64409 0.13901 0.46305 0.0
H3053 H 0.38603 0.1618 0.44905 0.0
H3054 H 0.75227 0.65283 0.74631 0.0
H3055 H 0.75515 0.61484 0.73485 0.0
H3056 H 0.67882 0.60741 0.71695 0.0
H3057 H 0.67591 0.64559 0.72838 0.0
H3058 H 0.67066 0.54982 0.72074 0.0
H3059 H 0.75092 0.64514 0.70655 0.0
H3060 H 0.79748 0.69857 0.70629 0.0
H3061 H 0.85307 0.66379 0.71942 0.0
H3062 H 0.80676 0.60999 0.71969 0.0
H3063 H 0.68823 0.44784 0.68657 0.0
H3064 H 0.69198 0.49834 0.69083 0.0
H3065 H 0.75993 0.51553 0.71427 0.0
H3066 H 0.75581 0.46514 0.71017 0.0
H3067 H 0.7707 0.5716 0.70469 0.0
H3068 H 0.68592 0.47673 0.7205 0.0
H3069 H 0.63875 0.42361 0.71976 0.0
H3070 H 0.59042 0.4595 0.70254 0.0
H3071 H 0.63754 0.51278 0.70305 0.0
C3072 C 0.73609 0.64314 0.73994 0.0
C3073 C 0.71386 0.65225 0.73826 0.0
C3074 C 0.7379 0.62157 0.73334 0.0
C3075 C 0.71746 0.60853 0.72494 0.0
C3076 C 0.69494 0.61724 0.72334 0.0
C3077 C 0.69329 0.63905 0.72989 0.0
C3078 C 0.71907 0.585 0.7181 0.0
C3079 C 0.69236 0.55485 0.71704 0.0
C3080 C 0.74737 0.59137 0.7133 0.0
C3081 C 0.77532 0.6236 0.71322 0.0
C3082 C 0.77303 0.64892 0.70945 0.0
C3083 C 0.7994 0.67926 0.70927 0.0
C3084 C 0.8282 0.68464 0.71289 0.0
C3085 C 0.83073 0.6596 0.71663 0.0
C3086 C 0.80445 0.62914 0.71675 0.0
C3087 C 0.70494 0.46308 0.69232 0.0
C3088 C 0.72164 0.45261 0.69808 0.0
C3089 C 0.70689 0.49179 0.69481 0.0
C3090 C 0.72588 0.51046 0.70299 0.0
C3091 C 0.7451 0.50154 0.70796 0.0
C3092 C 0.74277 0.47275 0.70559 0.0
C3093 C 0.72246 0.5364 0.70749 0.0
C3094 C 0.74885 0.56689 0.70819 0.0
C3095 C 0.69376 0.53047 0.71187 0.0
C3096 C 0.66533 0.4986 0.71171 0.0
C3097 C 0.6653 0.47323 0.7165 0.0
C3098 C 0.63858 0.44311 0.71612 0.0
C3099 C 0.61163 0.43816 0.71108 0.0
C3100 C 0.61133 0.46336 0.70643 0.0
C3101 C 0.63803 0.49351 0.70675 0.0
H3102 H 0.59096 0.41483 0.7108 0.0
H3103 H 0.84857 0.70819 0.71278 0.0
H3104 H 0.40279 0.11367 0.75728 0.0
H3105 H 0.44372 0.1584 0.74784 0.0
H3106 H 0.40293 0.10975 0.71933 0.0
H3107 H 0.3635 0.06401 0.72886 0.0
H3108 H 0.46083 0.13702 0.71703 0.0
H3109 H 0.39613 0.1757 0.73007 0.0
H3110 H 0.36737 0.18695 0.74329 0.0
H3111 H 0.45353 0.24664 0.75935 0.0
H3112 H 0.48276 0.23546 0.7463 0.0
H3113 H 0.57413 0.27674 0.69129 0.0
H3114 H 0.52237 0.23461 0.69692 0.0
H3115 H 0.54857 0.26422 0.72829 0.0
H3116 H 0.59875 0.30716 0.72273 0.0
H3117 H 0.49124 0.24652 0.72661 0.0
H3118 H 0.55343 0.19981 0.71461 0.0
H3119 H 0.58148 0.18836 0.70115 0.0
H3120 H 0.49819 0.14429 0.68266 0.0
H3121 H 0.46977 0.15573 0.69597 0.0
C3122 C 0.40264 0.1126 0.749 0.0
C3123 C 0.38003 0.08544 0.7438 0.0
C3124 C 0.42587 0.13834 0.74357 0.0
C3125 C 0.42616 0.13811 0.73279 0.0
C3126 C 0.4034 0.1108 0.72761 0.0
C3127 C 0.3808 0.08464 0.73306 0.0
C3128 C 0.45064 0.1659 0.72697 0.0
C3129 C 0.46702 0.16091 0.71905 0.0
C3130 C 0.45908 0.19732 0.72949 0.0
C3131 C 0.44161 0.20462 0.73722 0.0
C3132 C 0.40893 0.19116 0.73643 0.0
C3133 C 0.39254 0.19751 0.7439 0.0
C3134 C 0.40861 0.21747 0.75216 0.0
C3135 C 0.44112 0.2312 0.75295 0.0
C3136 C 0.45761 0.22491 0.74551 0.0
C3137 C 0.56851 0.27481 0.69935 0.0
C3138 C 0.59085 0.29549 0.70652 0.0
C3139 C 0.539 0.25033 0.7026 0.0
C3140 C 0.5316 0.24554 0.7131 0.0
C3141 C 0.55342 0.26709 0.72016 0.0
C3142 C 0.58241 0.29174 0.71693 0.0
C3143 C 0.50217 0.21762 0.71701 0.0
C3144 C 0.4847 0.22257 0.72453 0.0
C3145 C 0.49263 0.18622 0.71409 0.0
C3146 C 0.5096 0.17886 0.70622 0.0
C3147 C 0.54116 0.18774 0.70765 0.0
C3148 C 0.55711 0.18127 0.70006 0.0
C3149 C 0.54165 0.16568 0.69105 0.0
C3150 C 0.51016 0.1564 0.68963 0.0
C3151 C 0.49411 0.16284 0.6972 0.0
H3152 H 0.55406 0.16073 0.68517 0.0
H3153 H 0.39587 0.22231 0.75794 0.0
H3154 H 0.97738 0.35067 0.73109 0.0
H3155 H 0.93364 0.34829 0.72189 0.0
H3156 H 0.86831 0.2726 0.74122 0.0
H3157 H 0.91236 0.27432 0.75036 0.0
H3158 H 0.8478 0.2614 0.72175 0.0
H3159 H 0.8848 0.34864 0.7451 0.0
H3160 H 0.92376 0.39829 0.75355 0.0
H3161 H 0.94545 0.44592 0.72476 0.0
H3162 H 0.90689 0.39642 0.71611 0.0
H3163 H 0.72201 0.29561 0.71858 0.0
H3164 H 0.76438 0.28682 0.72367 0.0
H3165 H 0.81694 0.33578 0.69686 0.0
H3166 H 0.77379 0.34351 0.6915 0.0
H3167 H 0.84432 0.35974 0.71882 0.0
H3168 H 0.80265 0.27137 0.69586 0.0
H3169 H 0.76083 0.22169 0.68825 0.0
H3170 H 0.74516 0.17599 0.71724 0.0
H3171 H 0.78648 0.22563 0.72509 0.0
C3172 C 0.95374 0.33349 0.73343 0.0
C3173 C 0.94841 0.3129 0.74155 0.0
C3174 C 0.92868 0.33219 0.72814 0.0
C3175 C 0.89756 0.31061 0.73094 0.0
C3176 C 0.89208 0.28953 0.73892 0.0
C3177 C 0.91727 0.29065 0.74418 0.0
C3178 C 0.87103 0.31084 0.72567 0.0
C3179 C 0.84694 0.28286 0.72119 0.0
C3180 C 0.87001 0.33892 0.72476 0.0
C3181 C 0.8932 0.36875 0.72994 0.0
C3182 C 0.89805 0.36965 0.74056 0.0
C3183 C 0.92003 0.39777 0.74539 0.0
C3184 C 0.93713 0.42522 0.73969 0.0
C3185 C 0.93222 0.42462 0.72916 0.0
C3186 C 0.91029 0.39655 0.72429 0.0
C3187 C 0.74214 0.30354 0.7136 0.0
C3188 C 0.74464 0.32013 0.70464 0.0
C3189 C 0.76633 0.29857 0.71652 0.0
C3190 C 0.7938 0.31075 0.71067 0.0
C3191 C 0.79583 0.32611 0.70146 0.0
C3192 C 0.77115 0.33032 0.69837 0.0
C3193 C 0.8214 0.31047 0.71488 0.0
C3194 C 0.8455 0.33842 0.71926 0.0
C3195 C 0.82216 0.28235 0.71579 0.0
C3196 C 0.79747 0.25235 0.71109 0.0
C3197 C 0.79007 0.25084 0.70065 0.0
C3198 C 0.76649 0.22266 0.69628 0.0
C3199 C 0.7503 0.19571 0.70226 0.0
C3200 C 0.75771 0.19689 0.71262 0.0
C3201 C 0.78122 0.22505 0.71703 0.0
H3202 H 0.73206 0.17391 0.69887 0.0
H3203 H 0.95413 0.44697 0.74345 0.0
H3204 H 0.37805 0.28082 0.24973 0.0
H3205 H 0.4199 0.27751 0.24073 0.0
H3206 H 0.42428 0.34283 0.21821 0.0
H3207 H 0.38355 0.34707 0.22733 0.0
H3208 H 0.42656 0.25877 0.22241 0.0
H3209 H 0.49747 0.3889 0.20947 0.0
H3210 H 0.50828 0.44133 0.21524 0.0
H3211 H 0.4897 0.40955 0.2463 0.0
H3212 H 0.47918 0.35709 0.24074 0.0
H3213 H 0.58501 0.34007 0.19077 0.0
H3214 H 0.53334 0.33198 0.19551 0.0
H3215 H 0.53202 0.28083 0.22219 0.0
H3216 H 0.58366 0.28938 0.21761 0.0
H3217 H 0.52639 0.35681 0.21439 0.0
H3218 H 0.45365 0.22733 0.22791 0.0
H3219 H 0.4443 0.17484 0.22293 0.0
H3220 H 0.46965 0.20541 0.19193 0.0
H3221 H 0.47879 0.25793 0.19668 0.0
C3222 C 0.38808 0.29456 0.24288 0.0
C3223 C 0.3778 0.31456 0.23934 0.0
C3224 C 0.41188 0.29253 0.23771 0.0
C3225 C 0.42573 0.31032 0.22886 0.0
C3226 C 0.41465 0.32946 0.22514 0.0
C3227 C 0.39125 0.33182 0.23037 0.0
C3228 C 0.45213 0.30946 0.22361 0.0
C3229 C 0.4485 0.2802 0.22076 0.0
C3230 C 0.48062 0.33741 0.22121 0.0
C3231 C 0.48719 0.36898 0.22466 0.0
C3232 C 0.49578 0.39315 0.21753 0.0
C3233 C 0.50185 0.42286 0.22077 0.0
C3234 C 0.49956 0.42873 0.23113 0.0
C3235 C 0.49133 0.40493 0.23828 0.0
C3236 C 0.48528 0.3752 0.23508 0.0
C3237 C 0.57313 0.32614 0.19744 0.0
C3238 C 0.58829 0.31534 0.20383 0.0
C3239 C 0.54377 0.32176 0.20019 0.0
C3240 C 0.52883 0.30585 0.20922 0.0
C3241 C 0.54292 0.29295 0.21516 0.0
C3242 C 0.57244 0.29784 0.21253 0.0
C3243 C 0.50085 0.30618 0.21324 0.0
C3244 C 0.50429 0.33539 0.21593 0.0
C3245 C 0.47249 0.2782 0.21562 0.0
C3246 C 0.46716 0.24668 0.21268 0.0
C3247 C 0.45716 0.22284 0.22002 0.0
C3248 C 0.45191 0.19307 0.21724 0.0
C3249 C 0.45645 0.18681 0.20713 0.0
C3250 C 0.46628 0.21032 0.19977 0.0
C3251 C 0.47157 0.24012 0.20251 0.0
H3252 H 0.45226 0.16372 0.20499 0.0
H3253 H 0.50424 0.45174 0.23361 0.0
H3254 H 0.76547 0.12793 0.25103 0.0
H3255 H 0.76988 0.17411 0.24251 0.0
H3256 H 0.70143 0.11328 0.22013 0.0
H3257 H 0.69665 0.06717 0.22863 0.0
H3258 H 0.75348 0.16756 0.21143 0.0
H3259 H 0.67772 0.14023 0.23865 0.0
H3260 H 0.65927 0.12877 0.2565 0.0
H3261 H 0.73334 0.22055 0.26591 0.0
H3262 H 0.75249 0.23238 0.24812 0.0
H3263 H 0.70172 0.2697 0.19232 0.0
H3264 H 0.71071 0.22802 0.19831 0.0
H3265 H 0.76389 0.28701 0.22389 0.0
H3266 H 0.75368 0.32781 0.21817 0.0
H3267 H 0.72206 0.23404 0.23082 0.0
H3268 H 0.79696 0.26383 0.20386 0.0
H3269 H 0.81614 0.2767 0.18615 0.0
H3270 H 0.74693 0.18327 0.1763 0.0
H3271 H 0.72704 0.16992 0.19397 0.0
C3272 C 0.75141 0.12442 0.24429 0.0
C3273 C 0.73051 0.09386 0.24057 0.0
C3274 C 0.754 0.15082 0.23941 0.0
C3275 C 0.73595 0.14715 0.23067 0.0
C3276 C 0.71567 0.11671 0.22682 0.0
C3277 C 0.71279 0.09035 0.23175 0.0
C3278 C 0.73687 0.17483 0.22587 0.0
C3279 C 0.74645 0.18205 0.21563 0.0
C3280 C 0.72829 0.19408 0.2314 0.0
C3281 C 0.71674 0.18704 0.24208 0.0
C3282 C 0.69023 0.15785 0.24454 0.0
C3283 C 0.67962 0.15132 0.25464 0.0
C3284 C 0.69518 0.17388 0.26234 0.0
C3285 C 0.72134 0.20307 0.25994 0.0
C3286 C 0.73208 0.20971 0.24985 0.0
C3287 C 0.71618 0.27406 0.19902 0.0
C3288 C 0.72694 0.30189 0.2048 0.0
C3289 C 0.72129 0.2502 0.20248 0.0
C3290 C 0.73786 0.25415 0.21163 0.0
C3291 C 0.75072 0.2831 0.2169 0.0
C3292 C 0.74512 0.30656 0.21357 0.0
C3293 C 0.73909 0.22734 0.21635 0.0
C3294 C 0.72959 0.22 0.2266 0.0
C3295 C 0.74808 0.20829 0.21083 0.0
C3296 C 0.76033 0.21596 0.20023 0.0
C3297 C 0.7857 0.24607 0.19791 0.0
C3298 C 0.79671 0.25346 0.18788 0.0
C3299 C 0.78269 0.23087 0.18009 0.0
C3300 C 0.75773 0.20077 0.18234 0.0
C3301 C 0.74661 0.19325 0.19237 0.0
H3302 H 0.79122 0.23668 0.17232 0.0
H3303 H 0.68692 0.16878 0.27016 0.0
H3304 H 0.92205 0.65719 0.25196 0.0
H3305 H 0.87759 0.61626 0.24228 0.0
H3306 H 0.94027 0.6209 0.21845 0.0
H3307 H 0.98506 0.66227 0.2281 0.0
H3308 H 0.88468 0.61413 0.21055 0.0
H3309 H 0.91515 0.56342 0.23496 0.0
H3310 H 0.92936 0.55354 0.25198 0.0
H3311 H 0.83879 0.53001 0.26355 0.0
H3312 H 0.82419 0.54019 0.24663 0.0
H3313 H 0.77253 0.45706 0.19095 0.0
H3314 H 0.81779 0.50767 0.19642 0.0
H3315 H 0.76598 0.5087 0.22291 0.0
H3316 H 0.72132 0.45809 0.21761 0.0
H3317 H 0.81913 0.51282 0.2284 0.0
H3318 H 0.78852 0.56293 0.20335 0.0
H3319 H 0.77462 0.57036 0.18595 0.0
H3320 H 0.86563 0.59295 0.17511 0.0
H3321 H 0.87988 0.58508 0.19241 0.0
C3322 C 0.92643 0.64963 0.24465 0.0
C3323 C 0.95714 0.66275 0.24086 0.0
C3324 C 0.90096 0.62624 0.2391 0.0
C3325 C 0.90559 0.61527 0.22967 0.0
C3326 C 0.93612 0.62899 0.2257 0.0
C3327 C 0.9617 0.65247 0.23126 0.0
C3328 C 0.87865 0.58819 0.22435 0.0
C3329 C 0.87049 0.59183 0.21439 0.0
C3330 C 0.86006 0.55913 0.22937 0.0
C3331 C 0.86869 0.55286 0.23955 0.0
C3332 C 0.89835 0.55638 0.24116 0.0
C3333 C 0.90646 0.55069 0.25078 0.0
C3334 C 0.88502 0.54123 0.25885 0.0
C3335 C 0.85539 0.53737 0.2573 0.0
C3336 C 0.84717 0.54308 0.24769 0.0
C3337 C 0.77047 0.46875 0.19772 0.0
C3338 C 0.74351 0.45364 0.20389 0.0
C3339 C 0.7964 0.4976 0.20088 0.0
C3340 C 0.79545 0.51189 0.21016 0.0
C3341 C 0.76744 0.49803 0.2158 0.0
C3342 C 0.74183 0.46919 0.21273 0.0
C3343 C 0.82431 0.53892 0.21471 0.0
C3344 C 0.83311 0.53512 0.22453 0.0
C3345 C 0.84342 0.56758 0.20951 0.0
C3346 C 0.83516 0.57311 0.19916 0.0
C3347 C 0.80551 0.56928 0.19724 0.0
C3348 C 0.79756 0.57358 0.1874 0.0
C3349 C 0.81919 0.58204 0.17942 0.0
C3350 C 0.84887 0.58635 0.18129 0.0
C3351 C 0.85691 0.58199 0.19112 0.0
H3352 H 0.81298 0.5853 0.1718 0.0
H3353 H 0.89134 0.53683 0.26629 0.0
H3354 H 0.69632 0.06923 0.93999 0.0
H3355 H 0.69422 0.10894 0.95076 0.0
H3356 H 0.6004 0.07695 0.93992 0.0
H3357 H 0.60372 0.03928 0.9285 0.0
H3358 H 0.62701 0.13461 0.94074 0.0
H3359 H 0.62255 0.06126 0.96526 0.0
H3360 H 0.63995 0.02848 0.97383 0.0
H3361 H 0.726 0.11153 0.98265 0.0
H3362 H 0.70965 0.14478 0.97389 0.0
H3363 H 0.61255 0.23804 0.97505 0.0
H3364 H 0.60226 0.18549 0.96978 0.0
H3365 H 0.70148 0.2195 0.97094 0.0
H3366 H 0.71164 0.27171 0.97609 0.0
H3367 H 0.66453 0.15574 0.97666 0.0
H3368 H 0.67144 0.22604 0.9494 0.0
H3369 H 0.6545 0.25901 0.94074 0.0
H3370 H 0.56122 0.17912 0.93775 0.0
H3371 H 0.57756 0.14578 0.94653 0.0
C3372 C 0.6753 0.07077 0.93992 0.0
C3373 C 0.65017 0.0511 0.93343 0.0
C3374 C 0.6739 0.09325 0.94618 0.0
C3375 C 0.64677 0.09562 0.94645 0.0
C3376 C 0.62162 0.07576 0.93995 0.0
C3377 C 0.62347 0.05408 0.93342 0.0
C3378 C 0.64511 0.11972 0.95307 0.0
C3379 C 0.63453 0.13851 0.94867 0.0
C3380 C 0.6553 0.12553 0.96342 0.0
C3381 C 0.66491 0.10553 0.96886 0.0
C3382 C 0.64525 0.07254 0.96898 0.0
C3383 C 0.65492 0.05387 0.97387 0.0
C3384 C 0.68398 0.06792 0.9788 0.0
C3385 C 0.70347 0.10068 0.97884 0.0
C3386 C 0.69404 0.11944 0.9739 0.0
C3387 C 0.6319 0.23378 0.97458 0.0
C3388 C 0.66283 0.25866 0.97602 0.0
C3389 C 0.62608 0.2039 0.97151 0.0
C3390 C 0.65117 0.19869 0.96985 0.0
C3391 C 0.68177 0.22289 0.9722 0.0
C3392 C 0.68756 0.25269 0.97516 0.0
C3393 C 0.64661 0.17019 0.96426 0.0
C3394 C 0.65624 0.15091 0.96881 0.0
C3395 C 0.63528 0.16361 0.95409 0.0
C3396 C 0.62561 0.18354 0.94871 0.0
C3397 C 0.64727 0.21558 0.94695 0.0
C3398 C 0.63779 0.23432 0.94202 0.0
C3399 C 0.60678 0.22119 0.93872 0.0
C3400 C 0.58521 0.18927 0.94032 0.0
C3401 C 0.59457 0.17044 0.94528 0.0
H3402 H 0.59948 0.23573 0.9349 0.0
H3403 H 0.6914 0.05342 0.98258 0.0
H3404 H 0.9779 0.59012 0.92364 0.0
H3405 H 0.93802 0.54969 0.9347 0.0
H3406 H 0.9613 0.61938 0.95857 0.0
H3407 H 1.00034 0.66006 0.94738 0.0
H3408 H 0.93656 0.52425 0.95239 0.0
H3409 H 0.8963 0.6018 0.97225 0.0
H3410 H 0.89579 0.65093 0.96946 0.0
H3411 H 0.89403 0.63655 0.93696 0.0
H3412 H 0.89419 0.58719 0.93956 0.0
H3413 H 0.80294 0.42042 0.98455 0.0
H3414 H 0.85441 0.46685 0.98032 0.0
H3415 H 0.81199 0.48708 0.95509 0.0
H3416 H 0.76158 0.44162 0.95919 0.0
H3417 H 0.85167 0.54028 0.96561 0.0
H3418 H 0.84993 0.4477 0.95093 0.0
H3419 H 0.84666 0.39627 0.95228 0.0
H3420 H 0.92705 0.4376 0.97209 0.0
H3421 H 0.93055 0.48923 0.97093 0.0
C3422 C 0.97447 0.59682 0.93124 0.0
C3423 C 0.9919 0.62837 0.93457 0.0
C3424 C 0.95182 0.57363 0.9376 0.0
C3425 C 0.94626 0.58142 0.94746 0.0
C3426 C 0.9646 0.61277 0.95094 0.0
C3427 C 0.98693 0.63605 0.94453 0.0
C3428 C 0.92012 0.55705 0.95379 0.0
C3429 C 0.91821 0.52796 0.95538 0.0
C3430 C 0.89609 0.56165 0.95778 0.0
C3431 C 0.89566 0.59108 0.95611 0.0
C3432 C 0.89574 0.60913 0.96451 0.0
C3433 C 0.89552 0.637 0.96297 0.0
C3434 C 0.895 0.64692 0.95304 0.0
C3435 C 0.89456 0.62891 0.94464 0.0
C3436 C 0.89475 0.60101 0.94615 0.0
C3437 C 0.80471 0.43503 0.9782 0.0
C3438 C 0.77824 0.42709 0.97216 0.0
C3439 C 0.83407 0.46146 0.97576 0.0
C3440 C 0.83706 0.48046 0.96736 0.0
C3441 C 0.81036 0.47298 0.96161 0.0
C3442 C 0.7815 0.44669 0.96394 0.0
C3443 C 0.86775 0.50735 0.96396 0.0
C3444 C 0.87055 0.53697 0.96291 0.0
C3445 C 0.89221 0.50301 0.96031 0.0
C3446 C 0.8903 0.47216 0.96093 0.0
C3447 C 0.86678 0.44574 0.95562 0.0
C3448 C 0.8649 0.41658 0.95634 0.0
C3449 C 0.88658 0.41365 0.96229 0.0
C3450 C 0.91025 0.4399 0.9675 0.0
C3451 C 0.9122 0.46911 0.96681 0.0
H3452 H 0.88509 0.39106 0.96285 0.0
H3453 H 0.89486 0.66852 0.95186 0.0
H3454 H 0.45272 0.42135 0.92086 0.0
H3455 H 0.49754 0.42251 0.92924 0.0
H3456 H 0.4369 0.36453 0.95347 0.0
H3457 H 0.39205 0.36277 0.94507 0.0
H3458 H 0.49703 0.41692 0.96036 0.0
H3459 H 0.45317 0.32909 0.93643 0.0
H3460 H 0.43498 0.30415 0.91945 0.0
H3461 H 0.52665 0.36539 0.907 0.0
H3462 H 0.54525 0.391 0.92389 0.0
H3463 H 0.5946 0.36286 0.98173 0.0
H3464 H 0.5524 0.37014 0.97518 0.0
H3465 H 0.60281 0.40445 0.94674 0.0
H3466 H 0.6436 0.39523 0.95304 0.0
H3467 H 0.54714 0.36512 0.94224 0.0
H3468 H 0.59337 0.45089 0.96622 0.0
H3469 H 0.61281 0.47466 0.98321 0.0
H3470 H 0.5196 0.42127 0.99544 0.0
H3471 H 0.49975 0.396 0.97858 0.0
C3472 C 0.44899 0.40897 0.92799 0.0
C3473 C 0.41879 0.39173 0.93224 0.0
C3474 C 0.4746 0.40969 0.93278 0.0
C3475 C 0.47056 0.39361 0.94199 0.0
C3476 C 0.44061 0.37721 0.9464 0.0
C3477 C 0.41496 0.37604 0.94154 0.0
C3478 C 0.49706 0.39216 0.9467 0.0
C3479 C 0.50796 0.40547 0.95646 0.0
C3480 C 0.5116 0.37765 0.94154 0.0
C3481 C 0.50049 0.36219 0.93139 0.0
C3482 C 0.46936 0.33742 0.93005 0.0
C3483 C 0.459 0.32313 0.92045 0.0
C3484 C 0.47962 0.33324 0.91214 0.0
C3485 C 0.51068 0.35762 0.91343 0.0
C3486 C 0.52115 0.37202 0.92302 0.0
C3487 C 0.59679 0.37247 0.97416 0.0
C3488 C 0.62226 0.37845 0.96787 0.0
C3489 C 0.57269 0.37668 0.9704 0.0
C3490 C 0.57425 0.38796 0.96042 0.0
C3491 C 0.60068 0.39542 0.9544 0.0
C3492 C 0.62416 0.39039 0.95804 0.0
C3493 C 0.54789 0.39041 0.95592 0.0
C3494 C 0.5367 0.377 0.94618 0.0
C3495 C 0.53347 0.40521 0.96108 0.0
C3496 C 0.5451 0.42131 0.97114 0.0
C3497 C 0.57701 0.44405 0.97253 0.0
C3498 C 0.58813 0.4578 0.98216 0.0
C3499 C 0.56745 0.44962 0.9904 0.0
C3500 C 0.5356 0.42759 0.98904 0.0
C3501 C 0.52441 0.41346 0.97946 0.0
H3502 H 0.57609 0.46032 0.99785 0.0
H3503 H 0.47156 0.32214 0.90471 0.0
H3504 H 0.653 0.75638 0.75484 0.0
H3505 H 0.61247 0.76065 0.76428 0.0
H3506 H 0.61918 0.70705 0.78896 0.0
H3507 H 0.65834 0.70137 0.77931 0.0
H3508 H 0.5621 0.68661 0.78625 0.0
H3509 H 0.64869 0.79077 0.79042 0.0
H3510 H 0.6939 0.84174 0.78522 0.0
H3511 H 0.63341 0.85995 0.76687 0.0
H3512 H 0.58786 0.80889 0.77188 0.0
H3513 H 0.45674 0.71017 0.81669 0.0
H3514 H 0.50874 0.71982 0.81171 0.0
H3515 H 0.49931 0.75308 0.78237 0.0
H3516 H 0.44769 0.74367 0.78729 0.0
H3517 H 0.56122 0.78637 0.78974 0.0
H3518 H 0.47587 0.67697 0.78513 0.0
H3519 H 0.43217 0.62682 0.7916 0.0
H3520 H 0.49448 0.62058 0.81284 0.0
H3521 H 0.53846 0.67094 0.80657 0.0
C3522 C 0.64581 0.74556 0.76228 0.0
C3523 C 0.65873 0.72839 0.7663 0.0
C3524 C 0.62281 0.74825 0.76774 0.0
C3525 C 0.61289 0.7346 0.77746 0.0
C3526 C 0.62618 0.71776 0.78149 0.0
C3527 C 0.64863 0.71452 0.77596 0.0
C3528 C 0.5877 0.73651 0.78322 0.0
C3529 C 0.56241 0.70865 0.78717 0.0
C3530 C 0.58763 0.76509 0.78446 0.0
C3531 C 0.6149 0.79588 0.78146 0.0
C3532 C 0.64506 0.80555 0.78522 0.0
C3533 C 0.67074 0.83448 0.78232 0.0
C3534 C 0.66654 0.85404 0.7757 0.0
C3535 C 0.63663 0.84476 0.772 0.0
C3536 C 0.61086 0.81585 0.77488 0.0
C3537 C 0.46622 0.72054 0.80932 0.0
C3538 C 0.44801 0.72597 0.80236 0.0
C3539 C 0.49585 0.72581 0.80645 0.0
C3540 C 0.50774 0.73673 0.79659 0.0
C3541 C 0.49066 0.74459 0.78999 0.0
C3542 C 0.46106 0.73909 0.79281 0.0
C3543 C 0.53588 0.73654 0.79262 0.0
C3544 C 0.56149 0.7646 0.78896 0.0
C3545 C 0.53665 0.70831 0.79184 0.0
C3546 C 0.51033 0.67782 0.79546 0.0
C3547 C 0.48019 0.66497 0.79122 0.0
C3548 C 0.45538 0.63651 0.79485 0.0
C3549 C 0.46053 0.62056 0.80265 0.0
C3550 C 0.49052 0.63298 0.80681 0.0
C3551 C 0.51539 0.66146 0.80322 0.0
H3552 H 0.44129 0.59855 0.80545 0.0
H3553 H 0.68645 0.87642 0.77346 0.0
H3554 H 0.26744 0.91188 0.75968 0.0
H3555 H 0.26441 0.86686 0.76859 0.0
H3556 H 0.34643 0.93046 0.78624 0.0
H3557 H 0.34991 0.97513 0.77729 0.0
H3558 H 0.35167 0.88327 0.78035 0.0
H3559 H 0.27175 0.89411 0.79662 0.0
H3560 H 0.22464 0.89876 0.79789 0.0
H3561 H 0.16896 0.80668 0.78437 0.0
H3562 H 0.21587 0.80166 0.78288 0.0
H3563 H 0.33926 0.77158 0.81642 0.0
H3564 H 0.33152 0.81466 0.81099 0.0
H3565 H 0.27146 0.75609 0.78649 0.0
H3566 H 0.27992 0.71349 0.79166 0.0
H3567 H 0.25416 0.80099 0.797 0.0
H3568 H 0.33925 0.79521 0.77982 0.0
H3569 H 0.38743 0.79227 0.78008 0.0
H3570 H 0.43467 0.87879 0.79738 0.0
H3571 H 0.38652 0.88191 0.79737 0.0
C3572 C 0.2849 0.9162 0.76542 0.0
C3573 C 0.30894 0.94714 0.76775 0.0
C3574 C 0.28301 0.89046 0.77058 0.0
C3575 C 0.30499 0.89518 0.7782 0.0
C3576 C 0.32917 0.92606 0.78041 0.0
C3577 C 0.33111 0.95166 0.77527 0.0
C3578 C 0.30341 0.86811 0.78377 0.0
C3579 C 0.33038 0.86561 0.78409 0.0
C3580 C 0.27571 0.84478 0.78867 0.0
C3581 C 0.24741 0.84766 0.78953 0.0
C3582 C 0.24952 0.87496 0.79383 0.0
C3583 C 0.22284 0.87764 0.79461 0.0
C3584 C 0.19384 0.85306 0.79118 0.0
C3585 C 0.19146 0.82572 0.787 0.0
C3586 C 0.21808 0.82293 0.7862 0.0
C3587 C 0.3235 0.76753 0.81011 0.0
C3588 C 0.3103 0.73926 0.80443 0.0
C3589 C 0.3192 0.79219 0.80699 0.0
C3590 C 0.30108 0.78863 0.79828 0.0
C3591 C 0.28543 0.75932 0.79323 0.0
C3592 C 0.29032 0.73501 0.7962 0.0
C3593 C 0.30231 0.81643 0.79349 0.0
C3594 C 0.27535 0.81892 0.7933 0.0
C3595 C 0.33016 0.84016 0.78886 0.0
C3596 C 0.35922 0.83859 0.7887 0.0
C3597 C 0.35984 0.81345 0.78376 0.0
C3598 C 0.38714 0.81178 0.78384 0.0
C3599 C 0.41407 0.83528 0.78877 0.0
C3600 C 0.41378 0.86057 0.79358 0.0
C3601 C 0.38649 0.8623 0.79354 0.0
H3602 H 0.4352 0.83394 0.78883 0.0
H3603 H 0.17321 0.85517 0.79179 0.0
H3604 H 0.11741 0.39397 0.75782 0.0
H3605 H 0.16048 0.43148 0.76872 0.0
H3606 H 0.09477 0.41743 0.79279 0.0
H3607 H 0.0513 0.38039 0.78173 0.0
H3608 H 0.13706 0.47802 0.79127 0.0
H3609 H 0.1426 0.38483 0.79413 0.0
H3610 H 0.14275 0.33802 0.78737 0.0
H3611 H 0.22785 0.39757 0.77095 0.0
H3612 H 0.22808 0.44474 0.77751 0.0
H3613 H 0.27134 0.58329 0.82019 0.0
H3614 H 0.22574 0.53083 0.8166 0.0
H3615 H 0.26549 0.52911 0.78734 0.0
H3616 H 0.31083 0.58105 0.7909 0.0
H3617 H 0.23204 0.46977 0.79549 0.0
H3618 H 0.21873 0.56007 0.78957 0.0
H3619 H 0.21771 0.6074 0.79525 0.0
H3620 H 0.14634 0.55234 0.81727 0.0
H3621 H 0.14729 0.50476 0.8118 0.0
C3622 C 0.11208 0.39888 0.76543 0.0
C3623 C 0.08095 0.38419 0.76892 0.0
C3624 C 0.13679 0.42016 0.7717 0.0
C3625 C 0.13104 0.42683 0.78169 0.0
C3626 C 0.09987 0.41254 0.78515 0.0
C3627 C 0.07505 0.39141 0.77882 0.0
C3628 C 0.15766 0.44938 0.78834 0.0
C3629 C 0.15747 0.47574 0.79241 0.0
C3630 C 0.18447 0.44664 0.78983 0.0
C3631 C 0.18526 0.41835 0.78628 0.0
C3632 C 0.16134 0.38795 0.78908 0.0
C3633 C 0.16133 0.36135 0.78527 0.0
C3634 C 0.1852 0.36484 0.77869 0.0
C3635 C 0.20935 0.39492 0.77603 0.0
C3636 C 0.20949 0.42161 0.77981 0.0
C3637 C 0.27088 0.57117 0.81318 0.0
C3638 C 0.29449 0.5864 0.80577 0.0
C3639 C 0.24469 0.5413 0.81109 0.0
C3640 C 0.2419 0.52629 0.8016 0.0
C3641 C 0.267 0.54021 0.79468 0.0
C3642 C 0.29291 0.56999 0.79672 0.0
C3643 C 0.21165 0.49869 0.79813 0.0
C3644 C 0.21118 0.47144 0.79462 0.0
C3645 C 0.18418 0.50053 0.79717 0.0
C3646 C 0.18335 0.529 0.80037 0.0
C3647 C 0.20297 0.55813 0.79566 0.0
C3648 C 0.2024 0.58498 0.79884 0.0
C3649 C 0.18205 0.5829 0.80664 0.0
C3650 C 0.16215 0.55393 0.81125 0.0
C3651 C 0.16269 0.52702 0.80812 0.0
H3652 H 0.18164 0.60372 0.80909 0.0
H3653 H 0.18497 0.34426 0.77564 0.0
H3654 H 0.42145 0.98997 0.08176 0.0
H3655 H 0.42423 0.95064 0.07097 0.0
H3656 H 0.34135 0.93341 0.05476 0.0
H3657 H 0.33875 0.97329 0.06541 0.0
H3658 H 0.33963 0.87835 0.06135 0.0
H3659 H 0.40641 0.97135 0.04276 0.0
H3660 H 0.44945 0.02625 0.04064 0.0
H3661 H 0.51611 1.00071 0.05026 0.0
H3662 H 0.47339 0.94575 0.05264 0.0
H3663 H 0.37945 0.79063 0.02229 0.0
H3664 H 0.3845 0.84164 0.02682 0.0
H3665 H 0.40129 0.8292 0.05824 0.0
H3666 H 0.39661 0.7789 0.05382 0.0
H3667 H 0.43289 0.90131 0.04048 0.0
H3668 H 0.33912 0.82859 0.07017 0.0
H3669 H 0.29656 0.77364 0.07277 0.0
H3670 H 0.28287 0.76006 0.0403 0.0
H3671 H 0.32498 0.81506 0.03752 0.0
C3672 C 0.40384 0.9779 0.07589 0.0
C3673 C 0.37988 0.98475 0.07443 0.0
C3674 C 0.40558 0.95555 0.06969 0.0
C3675 C 0.38319 0.93937 0.06199 0.0
C3676 C 0.35896 0.9458 0.06062 0.0
C3677 C 0.35749 0.96853 0.06671 0.0
C3678 C 0.38443 0.91474 0.05573 0.0
C3679 C 0.35982 0.88348 0.05667 0.0
C3680 C 0.4107 0.92148 0.04956 0.0
C3681 C 0.43661 0.9544 0.04795 0.0
C3682 C 0.43022 0.97746 0.0445 0.0
C3683 C 0.45456 0.0086 0.04324 0.0
C3684 C 0.48549 0.01697 0.04533 0.0
C3685 C 0.49213 0.99419 0.04865 0.0
C3686 C 0.46785 0.96302 0.04994 0.0
C3687 C 0.38541 0.7994 0.03007 0.0
C3688 C 0.38727 0.78061 0.03772 0.0
C3689 C 0.38823 0.82848 0.03265 0.0
C3690 C 0.39294 0.83893 0.04289 0.0
C3691 C 0.39753 0.82147 0.05032 0.0
C3692 C 0.39473 0.79265 0.04777 0.0
C3693 C 0.38836 0.86507 0.0463 0.0
C3694 C 0.41241 0.89644 0.04494 0.0
C3695 C 0.36145 0.85861 0.05203 0.0
C3696 C 0.33534 0.82585 0.05364 0.0
C3697 C 0.32687 0.81393 0.06359 0.0
C3698 C 0.30286 0.78277 0.0651 0.0
C3699 C 0.28708 0.76335 0.0567 0.0
C3700 C 0.29517 0.77509 0.04679 0.0
C3701 C 0.31913 0.80625 0.04524 0.0
H3702 H 0.26854 0.73921 0.05789 0.0
H3703 H 0.5043 0.0411 0.04436 0.0
H3704 H 0.06248 0.3861 0.06445 0.0
H3705 H 0.10329 0.42751 0.05383 0.0
H3706 H 0.08724 0.49659 0.0686 0.0
H3707 H 0.04682 0.45542 0.07939 0.0
H3708 H 0.09263 0.5016 0.04652 0.0
H3709 H 0.1475 0.4942 0.07579 0.0
H3710 H 0.16273 0.46651 0.08793 0.0
H3711 H 0.20031 0.43766 0.06324 0.0
H3712 H 0.18487 0.46483 0.05093 0.0
H3713 H 0.24032 0.64665 0.04097 0.0
H3714 H 0.19011 0.60035 0.04572 0.0
H3715 H 0.21379 0.54084 0.02818 0.0
H3716 H 0.26358 0.58743 0.02309 0.0
H3717 H 0.20296 0.52756 0.04991 0.0
H3718 H 0.15394 0.53792 0.02083 0.0
H3719 H 0.13731 0.56238 0.00793 0.0
H3720 H 0.08836 0.58315 0.03101 0.0
H3721 H 0.1052 0.55931 0.04413 0.0
C3722 C 0.06764 0.41011 0.06545 0.0
C3723 C 0.05148 0.41747 0.07281 0.0
C3724 C 0.09094 0.43374 0.05936 0.0
C3725 C 0.09833 0.46517 0.06041 0.0
C3726 C 0.08186 0.4725 0.06763 0.0
C3727 C 0.05888 0.44895 0.07383 0.0
C3728 C 0.12399 0.49054 0.05425 0.0
C3729 C 0.11682 0.50756 0.04733 0.0
C3730 C 0.15537 0.49753 0.05503 0.0
C3731 C 0.16468 0.48121 0.06242 0.0
C3732 C 0.15873 0.48169 0.07293 0.0
C3733 C 0.16746 0.46615 0.07985 0.0
C3734 C 0.18239 0.45024 0.07636 0.0
C3735 C 0.18869 0.44993 0.06594 0.0
C3736 C 0.17997 0.46541 0.05899 0.0
C3737 C 0.23404 0.62388 0.03771 0.0
C3738 C 0.25552 0.62062 0.03153 0.0
C3739 C 0.20548 0.5974 0.04049 0.0
C3740 C 0.19828 0.56711 0.03736 0.0
C3741 C 0.21884 0.56401 0.03065 0.0
C3742 C 0.24708 0.59064 0.02765 0.0
C3743 C 0.17173 0.53895 0.04225 0.0
C3744 C 0.17876 0.52149 0.049 0.0
C3745 C 0.14025 0.53143 0.04123 0.0
C3746 C 0.1311 0.54706 0.0335 0.0
C3747 C 0.14005 0.54813 0.02321 0.0
C3748 C 0.13048 0.56177 0.01584 0.0
C3749 C 0.11174 0.57421 0.01865 0.0
C3750 C 0.10284 0.57342 0.02885 0.0
C3751 C 0.11239 0.55984 0.03626 0.0
H3752 H 0.10392 0.58423 0.01289 0.0
H3753 H 0.18914 0.43824 0.08172 0.0
H3754 H 0.64469 0.67135 0.06143 0.0
H3755 H 0.59966 0.66791 0.05277 0.0
H3756 H 0.53957 0.61248 0.07754 0.0
H3757 H 0.5847 0.61456 0.08603 0.0
H3758 H 0.50913 0.59028 0.06056 0.0
H3759 H 0.56793 0.69447 0.07471 0.0
H3760 H 0.61463 0.74668 0.07806 0.0
H3761 H 0.62362 0.76672 0.04595 0.0
H3762 H 0.57717 0.71444 0.04239 0.0
H3763 H 0.39053 0.63024 0.05419 0.0
H3764 H 0.43297 0.62232 0.05966 0.0
H3765 H 0.48061 0.65923 0.03102 0.0
H3766 H 0.43779 0.66698 0.02541 0.0
H3767 H 0.51734 0.68938 0.04874 0.0
H3768 H 0.45025 0.58506 0.03577 0.0
H3769 H 0.39974 0.53529 0.03416 0.0
H3770 H 0.4035 0.51606 0.06587 0.0
H3771 H 0.45322 0.5666 0.06785 0.0
C3772 C 0.6219 0.65842 0.06506 0.0
C3773 C 0.61833 0.64357 0.07449 0.0
C3774 C 0.5961 0.65656 0.0601 0.0
C3775 C 0.56616 0.6406 0.06458 0.0
C3776 C 0.56238 0.62509 0.07392 0.0
C3777 C 0.5882 0.6264 0.0788 0.0
C3778 C 0.53913 0.6407 0.0596 0.0
C3779 C 0.51086 0.612 0.05807 0.0
C3780 C 0.54135 0.66894 0.05617 0.0
C3781 C 0.56928 0.70041 0.05828 0.0
C3782 C 0.58 0.70992 0.06836 0.0
C3783 C 0.6064 0.73954 0.0703 0.0
C3784 C 0.62213 0.75997 0.06222 0.0
C3785 C 0.61144 0.75085 0.05219 0.0
C3786 C 0.58507 0.72124 0.05021 0.0
C3787 C 0.40969 0.63606 0.04895 0.0
C3788 C 0.41083 0.64932 0.03937 0.0
C3789 C 0.43394 0.63148 0.05209 0.0
C3790 C 0.46 0.64024 0.04577 0.0
C3791 C 0.46069 0.65232 0.03602 0.0
C3792 C 0.43611 0.6565 0.03279 0.0
C3793 C 0.48745 0.63907 0.04974 0.0
C3794 C 0.51577 0.66763 0.05112 0.0
C3795 C 0.48493 0.6108 0.05324 0.0
C3796 C 0.45546 0.57987 0.05198 0.0
C3797 C 0.44022 0.57042 0.04244 0.0
C3798 C 0.41171 0.54202 0.04145 0.0
C3799 C 0.39853 0.52241 0.04988 0.0
C3800 C 0.41376 0.53125 0.05934 0.0
C3801 C 0.44206 0.55986 0.06041 0.0
H3802 H 0.37649 0.50038 0.04909 0.0
H3803 H 0.64257 0.78289 0.06374 0.0
H3804 H 0.02779 0.59722 0.57992 0.0
H3805 H 0.07089 0.59376 0.57185 0.0
H3806 H 0.10628 0.68561 0.55877 0.0
H3807 H 0.06351 0.68921 0.56672 0.0
H3808 H 0.09139 0.59903 0.55051 0.0
H3809 H 0.18604 0.7247 0.56181 0.0
H3810 H 0.19599 0.76516 0.57492 0.0
H3811 H 0.13885 0.69282 0.59635 0.0
H3812 H 0.12893 0.65195 0.58341 0.0
H3813 H 0.24514 0.65579 0.52641 0.0
H3814 H 0.19399 0.6472 0.53212 0.0
H3815 H 0.2131 0.62959 0.56267 0.0
H3816 H 0.26354 0.63762 0.55707 0.0
H3817 H 0.19937 0.67733 0.56187 0.0
H3818 H 0.15804 0.57091 0.54907 0.0
H3819 H 0.14997 0.53215 0.53557 0.0
H3820 H 0.10187 0.56575 0.51715 0.0
H3821 H 0.11007 0.60505 0.5305 0.0
C3822 C 0.04475 0.61664 0.57532 0.0
C3823 C 0.04233 0.6436 0.57404 0.0
C3824 C 0.06919 0.61451 0.57064 0.0
C3825 C 0.09181 0.63942 0.56471 0.0
C3826 C 0.08915 0.66612 0.56332 0.0
C3827 C 0.0647 0.66817 0.56791 0.0
C3828 C 0.1194 0.63865 0.56051 0.0
C3829 C 0.115 0.6161 0.55299 0.0
C3830 C 0.15025 0.661 0.56369 0.0
C3831 C 0.15652 0.68531 0.57161 0.0
C3832 C 0.17572 0.71745 0.56934 0.0
C3833 C 0.18133 0.74045 0.57673 0.0
C3834 C 0.16798 0.73157 0.58645 0.0
C3835 C 0.14909 0.69967 0.58881 0.0
C3836 C 0.14343 0.67658 0.58144 0.0
C3837 C 0.23797 0.64909 0.53426 0.0
C3838 C 0.25853 0.64756 0.54129 0.0
C3839 C 0.20882 0.64439 0.53753 0.0
C3840 C 0.19988 0.6381 0.54786 0.0
C3841 C 0.2196 0.63472 0.5547 0.0
C3842 C 0.24845 0.63925 0.55145 0.0
C3843 C 0.17151 0.63766 0.55189 0.0
C3844 C 0.17579 0.66021 0.55935 0.0
C3845 C 0.14072 0.61537 0.54862 0.0
C3846 C 0.1349 0.5911 0.54075 0.0
C3847 C 0.14588 0.57014 0.54212 0.0
C3848 C 0.14128 0.54807 0.5345 0.0
C3849 C 0.1255 0.54655 0.52549 0.0
C3850 C 0.11412 0.56698 0.52412 0.0
C3851 C 0.11871 0.58913 0.53172 0.0
H3852 H 0.12204 0.52951 0.51958 0.0
H3853 H 0.17233 0.74941 0.59217 0.0
H3854 H 0.43916 0.46029 0.58281 0.0
H3855 H 0.44248 0.50541 0.57395 0.0
H3856 H 0.36197 0.44217 0.55565 0.0
H3857 H 0.35871 0.39712 0.56438 0.0
H3858 H 0.40657 0.48814 0.54397 0.0
H3859 H 0.3549 0.48214 0.57585 0.0
H3860 H 0.34907 0.48026 0.59462 0.0
H3861 H 0.4337 0.57041 0.59741 0.0
H3862 H 0.44025 0.57263 0.57866 0.0
H3863 H 0.35882 0.5951 0.52693 0.0
H3864 H 0.36672 0.55281 0.5329 0.0
H3865 H 0.43936 0.61849 0.55341 0.0
H3866 H 0.4299 0.66006 0.54791 0.0
H3867 H 0.40146 0.57174 0.56374 0.0
H3868 H 0.45086 0.57934 0.53129 0.0
H3869 H 0.45469 0.58065 0.51249 0.0
H3870 H 0.37378 0.48763 0.5105 0.0
H3871 H 0.36907 0.48586 0.5293 0.0
C3872 C 0.42214 0.45601 0.57692 0.0
C3873 C 0.39854 0.42509 0.57437 0.0
C3874 C 0.42405 0.48183 0.57185 0.0
C3875 C 0.40234 0.47726 0.56415 0.0
C3876 C 0.37904 0.44637 0.56153 0.0
C3877 C 0.37709 0.42061 0.56659 0.0
C3878 C 0.40331 0.50456 0.559 0.0
C3879 C 0.40528 0.50638 0.54827 0.0
C3880 C 0.40217 0.52866 0.56459 0.0
C3881 C 0.39825 0.52738 0.57587 0.0
C3882 C 0.3724 0.50144 0.58048 0.0
C3883 C 0.36894 0.50034 0.59111 0.0
C3884 C 0.39105 0.52516 0.59721 0.0
C3885 C 0.41663 0.55117 0.59268 0.0
C3886 C 0.42021 0.55238 0.58205 0.0
C3887 C 0.37721 0.60066 0.53244 0.0
C3888 C 0.39383 0.63081 0.53694 0.0
C3889 C 0.38175 0.57643 0.53588 0.0
C3890 C 0.40369 0.58222 0.54366 0.0
C3891 C 0.42208 0.61315 0.5475 0.0
C3892 C 0.41694 0.63704 0.54427 0.0
C3893 C 0.40514 0.55581 0.54863 0.0
C3894 C 0.40332 0.55393 0.55937 0.0
C3895 C 0.4064 0.53171 0.54302 0.0
C3896 C 0.40948 0.53258 0.53171 0.0
C3897 C 0.43376 0.55923 0.52685 0.0
C3898 C 0.4361 0.56006 0.51619 0.0
C3899 C 0.41449 0.53431 0.5103 0.0
C3900 C 0.39051 0.50758 0.51507 0.0
C3901 C 0.388 0.50663 0.52573 0.0
H3902 H 0.41637 0.53505 0.50204 0.0
H3903 H 0.38833 0.52426 0.60544 0.0
H3904 H 0.58818 0.98972 0.58381 0.0
H3905 H 0.54391 0.9489 0.57404 0.0
H3906 H 0.6077 0.94708 0.55186 0.0
H3907 H 0.65234 0.98836 0.5616 0.0
H3908 H 0.55483 0.94296 0.54264 0.0
H3909 H 0.57705 0.89119 0.56922 0.0
H3910 H 0.58731 0.88207 0.58691 0.0
H3911 H 0.49676 0.86507 0.59618 0.0
H3912 H 0.48614 0.87453 0.57857 0.0
H3913 H 0.44069 0.78611 0.52356 0.0
H3914 H 0.48586 0.83692 0.52895 0.0
H3915 H 0.43157 0.84164 0.55409 0.0
H3916 H 0.38712 0.79069 0.54892 0.0
H3917 H 0.48239 0.8445 0.56095 0.0
H3918 H 0.46 0.89645 0.53427 0.0
H3919 H 0.44967 0.90489 0.51653 0.0
H3920 H 0.53953 0.92011 0.50725 0.0
H3921 H 0.55036 0.91154 0.52495 0.0
C3922 C 0.59287 0.98072 0.57685 0.0
C3923 C 0.62383 0.99207 0.57354 0.0
C3924 C 0.5675 0.95738 0.57125 0.0
C3925 C 0.57244 0.94467 0.56225 0.0
C3926 C 0.6033 0.95652 0.55877 0.0
C3927 C 0.62878 0.97993 0.56439 0.0
C3928 C 0.54536 0.91796 0.55684 0.0
C3929 C 0.53914 0.92125 0.54659 0.0
C3930 C 0.52468 0.88975 0.56201 0.0
C3931 C 0.53092 0.88385 0.57259 0.0
C3932 C 0.55942 0.88574 0.57505 0.0
C3933 C 0.56529 0.88047 0.58506 0.0
C3934 C 0.54273 0.87307 0.59267 0.0
C3935 C 0.51423 0.87084 0.59028 0.0
C3936 C 0.50826 0.87612 0.58028 0.0
C3937 C 0.43808 0.79873 0.52996 0.0
C3938 C 0.41051 0.78453 0.53585 0.0
C3939 C 0.46396 0.82771 0.53308 0.0
C3940 C 0.46232 0.84302 0.54203 0.0
C3941 C 0.43361 0.8302 0.54725 0.0
C3942 C 0.40808 0.8012 0.54423 0.0
C3943 C 0.49108 0.86967 0.54681 0.0
C3944 C 0.49786 0.86621 0.55697 0.0
C3945 C 0.51213 0.89754 0.54153 0.0
C3946 C 0.50585 0.90304 0.53091 0.0
C3947 C 0.47747 0.90137 0.52843 0.0
C3948 C 0.47153 0.9062 0.51838 0.0
C3949 C 0.49383 0.91285 0.51075 0.0
C3950 C 0.52224 0.91488 0.51316 0.0
C3951 C 0.52832 0.91011 0.52321 0.0
H3952 H 0.48915 0.91653 0.50297 0.0
H3953 H 0.54732 0.86899 0.60041 0.0
H3954 H 0.34107 0.38413 0.27928 0.0
H3955 H 0.33824 0.42495 0.28936 0.0
H3956 H 0.29543 0.44316 0.2638 0.0
H3957 H 0.29766 0.40215 0.25377 0.0
H3958 H 0.34657 0.49776 0.27253 0.0
H3959 H 0.25076 0.40525 0.28274 0.0
H3960 H 0.21788 0.352 0.28977 0.0
H3961 H 0.26768 0.38302 0.31827 0.0
H3962 H 0.30106 0.43634 0.31138 0.0
H3963 H 0.29395 0.5932 0.2907 0.0
H3964 H 0.28842 0.54336 0.28505 0.0
H3965 H 0.33338 0.53967 0.31269 0.0
H3966 H 0.33876 0.58987 0.31848 0.0
H3967 H 0.28431 0.47776 0.30437 0.0
H3968 H 0.37896 0.57128 0.29419 0.0
H3969 H 0.40973 0.62486 0.28718 0.0
H3970 H 0.36175 0.59168 0.25844 0.0
H3971 H 0.33026 0.53798 0.26534 0.0
C3972 C 0.33108 0.39688 0.27582 0.0
C3973 C 0.31974 0.39008 0.26571 0.0
C3974 C 0.32931 0.42003 0.28161 0.0
C3975 C 0.31653 0.43701 0.27734 0.0
C3976 C 0.30536 0.43033 0.26724 0.0
C3977 C 0.30666 0.4069 0.26152 0.0
C3978 C 0.31569 0.46253 0.28321 0.0
C3979 C 0.3328 0.4933 0.27945 0.0
C3980 C 0.29837 0.45688 0.29239 0.0
C3981 C 0.27873 0.42466 0.29649 0.0
C3982 C 0.255 0.40058 0.29046 0.0
C3983 C 0.23624 0.37037 0.29442 0.0
C3984 C 0.24091 0.36396 0.30442 0.0
C3985 C 0.26423 0.38784 0.3105 0.0
C3986 C 0.28306 0.4181 0.30657 0.0
C3987 C 0.30173 0.58129 0.29575 0.0
C3988 C 0.31714 0.59561 0.30497 0.0
C3989 C 0.29861 0.55282 0.2925 0.0
C3990 C 0.31113 0.5382 0.29834 0.0
C3991 C 0.32369 0.55069 0.30805 0.0
C3992 C 0.32665 0.57929 0.31137 0.0
C3993 C 0.31481 0.51278 0.29357 0.0
C3994 C 0.29837 0.48218 0.29752 0.0
C3995 C 0.33283 0.51849 0.28455 0.0
C3996 C 0.35207 0.55066 0.28031 0.0
C3997 C 0.3748 0.57545 0.2864 0.0
C3998 C 0.39239 0.60584 0.28245 0.0
C3999 C 0.38766 0.61168 0.27238 0.0
C4000 C 0.36537 0.58712 0.26624 0.0
C4001 C 0.34766 0.5567 0.27017 0.0
H4002 H 0.4013 0.63523 0.26933 0.0
H4003 H 0.22629 0.34055 0.30746 0.0
H4004 H 0.6357 0.92494 0.25408 0.0
H4005 H 0.59558 0.88227 0.26456 0.0
H4006 H 0.62687 0.94375 0.29101 0.0
H4007 H 0.6664 0.98685 0.28051 0.0
H4008 H 0.61819 0.87679 0.29252 0.0
H4009 H 0.56619 0.93393 0.28379 0.0
H4010 H 0.54795 0.9594 0.2718 0.0
H4011 H 0.49341 0.87169 0.25557 0.0
H4012 H 0.51173 0.8458 0.26738 0.0
H4013 H 0.46065 0.77799 0.31973 0.0
H4014 H 0.51159 0.82271 0.31434 0.0
H4015 H 0.50825 0.77166 0.28695 0.0
H4016 H 0.45798 0.72721 0.29227 0.0
H4017 H 0.50478 0.83707 0.28777 0.0
H4018 H 0.56371 0.78365 0.2927 0.0
H4019 H 0.58885 0.75846 0.30158 0.0
H4020 H 0.63133 0.83589 0.32297 0.0
H4021 H 0.60651 0.86159 0.31415 0.0
C4022 C 0.63391 0.9294 0.26211 0.0
C4023 C 0.65401 0.95927 0.26646 0.0
C4024 C 0.61102 0.90503 0.26808 0.0
C4025 C 0.60827 0.9099 0.27855 0.0
C4026 C 0.62861 0.93956 0.28295 0.0
C4027 C 0.65104 0.96416 0.27693 0.0
C4028 C 0.58406 0.88388 0.28484 0.0
C4029 C 0.5934 0.86848 0.29166 0.0
C4030 C 0.55175 0.87256 0.28348 0.0
C4031 C 0.54058 0.88802 0.27641 0.0
C4032 C 0.55055 0.92015 0.27761 0.0
C4033 C 0.54014 0.93465 0.27086 0.0
C4034 C 0.51959 0.91719 0.26291 0.0
C4035 C 0.50935 0.88519 0.26172 0.0
C4036 C 0.51972 0.87059 0.26844 0.0
C4037 C 0.47151 0.77577 0.31281 0.0
C4038 C 0.45516 0.74918 0.30639 0.0
C4039 C 0.50057 0.80137 0.30971 0.0
C4040 C 0.51374 0.80045 0.30024 0.0
C4041 C 0.49875 0.77278 0.29432 0.0
C4042 C 0.46991 0.74739 0.29738 0.0
C4043 C 0.53884 0.8298 0.29546 0.0
C4044 C 0.52959 0.84581 0.28885 0.0
C4045 C 0.57117 0.84123 0.29685 0.0
C4046 C 0.58274 0.82416 0.30291 0.0
C4047 C 0.57784 0.79494 0.29943 0.0
C4048 C 0.59239 0.7808 0.30436 0.0
C4049 C 0.61181 0.79564 0.3128 0.0
C4050 C 0.61637 0.82446 0.31641 0.0
C4051 C 0.60207 0.83882 0.31145 0.0
H4052 H 0.62309 0.78467 0.3166 0.0
H4053 H 0.51155 0.92846 0.2577 0.0
H4054 H 0.06822 0.68647 0.27221 0.0
H4055 H 0.11376 0.68881 0.28019 0.0
H4056 H 0.1741 0.77973 0.26675 0.0
H4057 H 0.12844 0.77734 0.25857 0.0
H4058 H 0.19896 0.73936 0.26599 0.0
H4059 H 0.1485 0.77279 0.29078 0.0
H4060 H 0.1003 0.76237 0.29969 0.0
H4061 H 0.09418 0.68166 0.31408 0.0
H4062 H 0.14134 0.69048 0.30477 0.0
H4063 H 0.33093 0.76882 0.29358 0.0
H4064 H 0.28927 0.77688 0.28722 0.0
H4065 H 0.2218 0.69953 0.30564 0.0
H4066 H 0.26409 0.69335 0.31262 0.0
H4067 H 0.20094 0.73583 0.30389 0.0
H4068 H 0.23943 0.69238 0.27902 0.0
H4069 H 0.27871 0.68924 0.26821 0.0
H4070 H 0.30074 0.77562 0.25359 0.0
H4071 H 0.26185 0.77948 0.26441 0.0
C4072 C 0.09117 0.70692 0.27088 0.0
C4073 C 0.09463 0.73186 0.26481 0.0
C4074 C 0.11722 0.70822 0.27547 0.0
C4075 C 0.14733 0.73468 0.27422 0.0
C4076 C 0.15108 0.75914 0.26786 0.0
C4077 C 0.12496 0.75779 0.26321 0.0
C4078 C 0.17459 0.73721 0.27988 0.0
C4079 C 0.19972 0.7392 0.27428 0.0
C4080 C 0.17497 0.73568 0.2907 0.0
C4081 C 0.14836 0.73216 0.297 0.0
C4082 C 0.13686 0.75277 0.29582 0.0
C4083 C 0.1096 0.74703 0.30091 0.0
C4084 C 0.09421 0.7214 0.30747 0.0
C4085 C 0.10612 0.70149 0.30899 0.0
C4086 C 0.13302 0.70675 0.30376 0.0
C4087 C 0.30736 0.75436 0.29654 0.0
C4088 C 0.30066 0.73049 0.30358 0.0
C4089 C 0.28341 0.7586 0.29278 0.0
C4090 C 0.25196 0.73796 0.29557 0.0
C4091 C 0.24568 0.71563 0.30323 0.0
C4092 C 0.26989 0.71215 0.30727 0.0
C4093 C 0.22564 0.73802 0.29 0.0
C4094 C 0.20057 0.73645 0.2956 0.0
C4095 C 0.22467 0.73867 0.27914 0.0
C4096 C 0.248 0.7364 0.2726 0.0
C4097 C 0.2528 0.7108 0.27354 0.0
C4098 C 0.27498 0.70889 0.26741 0.0
C4099 C 0.29228 0.73227 0.26024 0.0
C4100 C 0.28737 0.75757 0.25916 0.0
C4101 C 0.26526 0.75963 0.26528 0.0
H4102 H 0.30944 0.73074 0.2555 0.0
H4103 H 0.07301 0.71688 0.31136 0.0
loop_
_geom_bond_atom_site_label_1
_geom_bond_atom_site_label_2
_geom_bond_distance
_geom_bond_site_symmetry_2
_ccdc_geom_bond_type
Co0 O1 2.216 . S
Co0 O2 2.091 . S
Co0 O4 2.004 . S
Co0 O10 2.021 . S
Co0 O12 2.137 . S
Co0 O13 2.244 1_545 S
O1 Co0 2.216 . S
O1 C8 1.247 . S
O2 Co0 2.091 . S
O2 C8 1.261 . S
C3 O12 1.247 1_565 S
C3 O13 1.272 . S
O4 Co0 2.004 . S
O4 C9 1.259 . S
Co5 O6 2.061 . S
Co5 O11 2.052 . S
Co5 O13 2.135 . S
O6 Co5 2.061 . S
O6 C9 1.235 1_565 S
C7 O10 1.238 . S
C7 O11 1.241 1_545 S
C8 O1 1.247 . S
C8 O2 1.261 . S
C9 O4 1.259 . S
C9 O6 1.235 1_545 S
O10 Co0 2.021 . S
O10 C7 1.238 . S
O11 Co5 2.052 . S
O11 C7 1.241 1_565 S
O12 Co0 2.137 . S
O12 C3 1.247 1_545 S
O13 Co0 2.244 1_565 S
O13 C3 1.272 . S
O13 Co5 2.135 . S
Co14 O15 2.216 . S
Co14 O16 2.091 . S
Co14 O18 2.004 . S
Co14 O24 2.021 . S
Co14 O26 2.137 . S
Co14 O27 2.244 1_455 S
O15 Co14 2.216 . S
O15 C22 1.247 . S
O16 Co14 2.091 . S
O16 C22 1.261 . S
C17 O26 1.247 1_655 S
C17 O27 1.272 . S
O18 Co14 2.004 . S
O18 C23 1.259 . S
Co19 O20 2.061 . S
Co19 O25 2.052 . S
Co19 O27 2.135 . S
O20 Co19 2.061 . S
O20 C23 1.235 1_655 S
C21 O24 1.238 . S
C21 O25 1.241 1_455 S
C22 O15 1.247 . S
C22 O16 1.261 . S
C23 O18 1.259 . S
C23 O20 1.235 1_455 S
O24 Co14 2.021 . S
O24 C21 1.238 . S
O25 Co19 2.052 . S
O25 C21 1.241 1_655 S
O26 Co14 2.137 . S
O26 C17 1.247 1_455 S
O27 Co14 2.244 1_655 S
O27 C17 1.272 . S
O27 Co19 2.135 . S
Co28 O29 2.216 . S
Co28 O30 2.091 . S
Co28 O32 2.004 . S
Co28 O38 2.021 . S
Co28 O40 2.137 . S
Co28 O41 2.244 . S
O29 Co28 2.216 . S
O29 C36 1.247 . S
O30 Co28 2.091 . S
O30 C36 1.261 . S
C31 O40 1.247 . S
C31 O41 1.272 . S
O32 Co28 2.004 . S
O32 C37 1.259 . S
Co33 O34 2.061 . S
Co33 O39 2.052 . S
Co33 O41 2.135 . S
O34 Co33 2.061 . S
O34 C37 1.235 . S
C35 O38 1.238 . S
C35 O39 1.241 . S
C36 O29 1.247 . S
C36 O30 1.261 . S
C37 O32 1.259 . S
C37 O34 1.235 . S
O38 Co28 2.021 . S
O38 C35 1.238 . S
O39 Co33 2.052 . S
O39 C35 1.241 . S
O40 Co28 2.137 . S
O40 C31 1.247 . S
O41 Co28 2.244 . S
O41 C31 1.272 . S
O41 Co33 2.135 . S
Co42 O43 2.216 . S
Co42 O44 2.091 1_545 S
Co42 O46 2.004 . S
Co42 O52 2.021 . S
Co42 O54 2.137 . S
Co42 O55 2.244 . S
O43 Co42 2.216 . S
O43 C50 1.247 1_545 S
O44 Co42 2.091 1_565 S
O44 C50 1.261 . S
C45 O54 1.247 . S
C45 O55 1.272 . S
O46 Co42 2.004 . S
O46 C51 1.259 . S
Co47 O48 2.061 . S
Co47 O53 2.052 . S
Co47 O55 2.135 . S
O48 Co47 2.061 . S
O48 C51 1.235 . S
C49 O52 1.238 . S
C49 O53 1.241 . S
C50 O43 1.247 1_565 S
C50 O44 1.261 . S
C51 O46 1.259 . S
C51 O48 1.235 . S
O52 Co42 2.021 . S
O52 C49 1.238 . S
O53 Co47 2.052 . S
O53 C49 1.241 . S
O54 Co42 2.137 . S
O54 C45 1.247 . S
O55 Co42 2.244 . S
O55 C45 1.272 . S
O55 Co47 2.135 . S
Co56 O57 2.217 . S
Co56 O58 2.091 1_455 S
Co56 O60 2.004 . S
Co56 O66 2.021 . S
Co56 O68 2.137 . S
Co56 O69 2.244 . S
O57 Co56 2.217 . S
O57 C64 1.246 1_455 S
O58 Co56 2.091 1_655 S
O58 C64 1.261 . S
C59 O68 1.247 . S
C59 O69 1.272 . S
O60 Co56 2.004 . S
O60 C65 1.259 . S
Co61 O62 2.061 . S
Co61 O67 2.052 . S
Co61 O69 2.135 . S
O62 Co61 2.061 . S
O62 C65 1.235 . S
C63 O66 1.238 . S
C63 O67 1.241 . S
C64 O57 1.246 1_655 S
C64 O58 1.261 . S
C65 O60 1.259 . S
C65 O62 1.235 . S
O66 Co56 2.021 . S
O66 C63 1.238 . S
O67 Co61 2.052 . S
O67 C63 1.241 . S
O68 Co56 2.137 . S
O68 C59 1.247 . S
O69 Co56 2.244 . S
O69 C59 1.272 . S
O69 Co61 2.135 . S
Co70 O71 2.216 . S
Co70 O72 2.091 . S
Co70 O74 2.004 . S
Co70 O80 2.021 . S
Co70 O82 2.137 . S
Co70 O83 2.244 . S
O71 Co70 2.216 . S
O71 C78 1.247 . S
O72 Co70 2.091 . S
O72 C78 1.261 . S
C73 O82 1.247 . S
C73 O83 1.272 . S
O74 Co70 2.004 . S
O74 C79 1.259 . S
Co75 O76 2.061 . S
Co75 O81 2.052 . S
Co75 O83 2.135 . S
O76 Co75 2.061 . S
O76 C79 1.235 . S
C77 O80 1.238 . S
C77 O81 1.241 . S
C78 O71 1.247 . S
C78 O72 1.261 . S
C79 O74 1.259 . S
C79 O76 1.235 . S
O80 Co70 2.021 . S
O80 C77 1.238 . S
O81 Co75 2.052 . S
O81 C77 1.241 . S
O82 Co70 2.137 . S
O82 C73 1.247 . S
O83 Co70 2.244 . S
O83 C73 1.272 . S
O83 Co75 2.135 . S
Co84 O85 2.216 . S
Co84 O86 2.091 . S
Co84 O88 2.004 . S
Co84 O94 2.021 . S
Co84 O96 2.137 . S
Co84 O97 2.244 . S
O85 Co84 2.216 . S
O85 C92 1.247 . S
O86 Co84 2.091 . S
O86 C92 1.261 . S
C87 O96 1.247 . S
C87 O97 1.272 . S
O88 Co84 2.004 . S
O88 C93 1.259 . S
Co89 O90 2.061 . S
Co89 O95 2.052 . S
Co89 O97 2.135 . S
O90 Co89 2.061 . S
O90 C93 1.235 . S
C91 O94 1.238 . S
C91 O95 1.241 . S
C92 O85 1.247 . S
C92 O86 1.261 . S
C93 O88 1.259 . S
C93 O90 1.235 . S
O94 Co84 2.021 . S
O94 C91 1.238 . S
O95 Co89 2.052 . S
O95 C91 1.241 . S
O96 Co84 2.137 . S
O96 C87 1.247 . S
O97 Co84 2.244 . S
O97 C87 1.272 . S
O97 Co89 2.135 . S
Co98 O99 2.216 . S
Co98 O100 2.091 . S
Co98 O102 2.004 . S
Co98 O108 2.021 . S
Co98 O110 2.137 . S
Co98 O111 2.244 . S
O99 Co98 2.216 . S
O99 C106 1.247 . S
O100 Co98 2.091 . S
O100 C106 1.261 . S
C101 O110 1.247 . S
C101 O111 1.272 . S
O102 Co98 2.004 . S
O102 C107 1.259 . S
Co103 O104 2.061 . S
Co103 O109 2.052 . S
Co103 O111 2.135 . S
O104 Co103 2.061 . S
O104 C107 1.235 . S
C105 O108 1.238 . S
C105 O109 1.241 . S
C106 O99 1.247 . S
C106 O100 1.261 . S
C107 O102 1.259 . S
C107 O104 1.235 . S
O108 Co98 2.021 . S
O108 C105 1.238 . S
O109 Co103 2.052 . S
O109 C105 1.241 . S
O110 Co98 2.137 . S
O110 C101 1.247 . S
O111 Co98 2.244 . S
O111 C101 1.272 . S
O111 Co103 2.135 . S
Co112 O113 2.216 1_655 S
Co112 O114 2.091 1_655 S
Co112 O116 2.004 . S
Co112 O122 2.021 . S
Co112 O124 2.138 . S
Co112 O125 2.244 . S
O113 Co112 2.216 1_455 S
O113 C120 1.247 . S
O114 Co112 2.091 1_455 S
O114 C120 1.261 . S
C115 O124 1.266 . S
C115 O125 1.272 . S
O116 Co112 2.004 . S
O116 C121 1.259 . S
Co117 O118 2.061 . S
Co117 O123 2.052 . S
Co117 O125 2.135 . S
O118 Co117 2.061 . S
O118 C121 1.235 . S
C119 O122 1.238 . S
C119 O123 1.241 . S
C120 O113 1.247 . S
C120 O114 1.261 . S
C121 O116 1.259 . S
C121 O118 1.235 . S
O122 Co112 2.021 . S
O122 C119 1.238 . S
O123 Co117 2.052 . S
O123 C119 1.241 . S
O124 Co112 2.138 . S
O124 C115 1.266 . S
O125 Co112 2.244 . S
O125 C115 1.272 . S
O125 Co117 2.135 . S
Co126 O127 2.216 . S
Co126 O128 2.091 . S
Co126 O130 2.004 . S
Co126 O136 2.021 . S
Co126 O138 2.137 1_655 S
Co126 O139 2.244 . S
O127 Co126 2.216 . S
O127 C134 1.247 . S
O128 Co126 2.091 . S
O128 C134 1.261 . S
C129 O138 1.247 . S
C129 O139 1.272 1_455 S
O130 Co126 2.004 . S
O130 C135 1.259 . S
Co131 O132 2.061 . S
Co131 O137 2.052 . S
Co131 O139 2.135 . S
O132 Co131 2.061 . S
O132 C135 1.235 . S
C133 O136 1.238 . S
C133 O137 1.241 . S
C134 O127 1.247 . S
C134 O128 1.261 . S
C135 O130 1.259 . S
C135 O132 1.235 . S
O136 Co126 2.021 . S
O136 C133 1.238 . S
O137 Co131 2.052 . S
O137 C133 1.241 . S
O138 Co126 2.137 1_455 S
O138 C129 1.247 . S
O139 Co126 2.244 . S
O139 C129 1.272 1_655 S
O139 Co131 2.135 . S
Co140 O141 2.216 . S
Co140 O142 2.091 . S
Co140 O144 2.004 . S
Co140 O150 2.021 . S
Co140 O152 2.137 . S
Co140 O153 2.244 . S
O141 Co140 2.216 . S
O141 C148 1.247 . S
O142 Co140 2.091 . S
O142 C148 1.261 . S
C143 O152 1.247 . S
C143 O153 1.272 . S
O144 Co140 2.004 . S
O144 C149 1.259 . S
Co145 O146 2.061 . S
Co145 O151 2.052 . S
Co145 O153 2.135 . S
O146 Co145 2.061 . S
O146 C149 1.235 . S
C147 O150 1.238 . S
C147 O151 1.241 . S
C148 O141 1.247 . S
C148 O142 1.261 . S
C149 O144 1.259 . S
C149 O146 1.235 . S
O150 Co140 2.021 . S
O150 C147 1.238 . S
O151 Co145 2.052 . S
O151 C147 1.241 . S
O152 Co140 2.137 . S
O152 C143 1.247 . S
O153 Co140 2.244 . S
O153 C143 1.272 . S
O153 Co145 2.135 . S
Co154 O155 2.216 . S
Co154 O156 2.091 . S
Co154 O158 2.004 . S
Co154 O164 2.021 . S
Co154 O166 2.137 . S
Co154 O167 2.244 . S
O155 Co154 2.216 . S
O155 C162 1.247 . S
O156 Co154 2.091 . S
O156 C162 1.261 . S
C157 O166 1.247 . S
C157 O167 1.272 . S
O158 Co154 2.004 . S
O158 C163 1.259 . S
Co159 O160 2.061 . S
Co159 O165 2.052 . S
Co159 O167 2.135 . S
O160 Co159 2.061 . S
O160 C163 1.235 . S
C161 O164 1.238 . S
C161 O165 1.241 . S
C162 O155 1.247 . S
C162 O156 1.261 . S
C163 O158 1.259 . S
C163 O160 1.235 . S
O164 Co154 2.021 . S
O164 C161 1.238 . S
O165 Co159 2.052 . S
O165 C161 1.241 . S
O166 Co154 2.137 . S
O166 C157 1.247 . S
O167 Co154 2.244 . S
O167 C157 1.272 . S
O167 Co159 2.135 . S
Co168 O169 2.216 . S
Co168 O170 2.091 . S
Co168 O172 2.004 . S
Co168 O178 2.021 . S
Co168 O180 2.137 . S
Co168 O181 2.244 . S
O169 Co168 2.216 . S
O169 C176 1.247 . S
O170 Co168 2.091 . S
O170 C176 1.261 . S
C171 O180 1.247 . S
C171 O181 1.272 . S
O172 Co168 2.004 . S
O172 C177 1.259 . S
Co173 O174 2.061 . S
Co173 O179 2.052 . S
Co173 O181 2.135 . S
O174 Co173 2.061 . S
O174 C177 1.235 . S
C175 O178 1.238 . S
C175 O179 1.241 . S
C176 O169 1.247 . S
C176 O170 1.261 . S
C177 O172 1.259 . S
C177 O174 1.235 . S
O178 Co168 2.021 . S
O178 C175 1.238 . S
O179 Co173 2.052 . S
O179 C175 1.241 . S
O180 Co168 2.137 . S
O180 C171 1.247 . S
O181 Co168 2.244 . S
O181 C171 1.272 . S
O181 Co173 2.135 . S
Co182 O183 2.216 . S
Co182 O184 2.091 . S
Co182 O186 2.004 . S
Co182 O192 2.021 . S
Co182 O194 2.137 . S
Co182 O195 2.244 . S
O183 Co182 2.216 . S
O183 C190 1.247 . S
O184 Co182 2.091 . S
O184 C190 1.261 . S
C185 O194 1.247 . S
C185 O195 1.272 . S
O186 Co182 2.004 . S
O186 C191 1.259 . S
Co187 O188 2.061 . S
Co187 O193 2.052 . S
Co187 O195 2.135 . S
O188 Co187 2.061 . S
O188 C191 1.235 . S
C189 O192 1.238 . S
C189 O193 1.241 . S
C190 O183 1.247 . S
C190 O184 1.261 . S
C191 O186 1.259 . S
C191 O188 1.235 . S
O192 Co182 2.021 . S
O192 C189 1.238 . S
O193 Co187 2.052 . S
O193 C189 1.241 . S
O194 Co182 2.137 . S
O194 C185 1.247 . S
O195 Co182 2.244 . S
O195 C185 1.272 . S
O195 Co187 2.135 . S
Co196 O197 2.216 . S
Co196 O198 2.091 . S
Co196 O200 2.004 . S
Co196 O206 2.021 . S
Co196 O208 2.137 1_565 S
Co196 O209 2.244 1_565 S
O197 Co196 2.216 . S
O197 C204 1.247 . S
O198 Co196 2.091 . S
O198 C204 1.261 . S
C199 O208 1.247 . S
C199 O209 1.272 . S
O200 Co196 2.004 . S
O200 C205 1.259 . S
Co201 O202 2.061 . S
Co201 O207 2.052 . S
Co201 O209 2.135 1_565 S
O202 Co201 2.061 . S
O202 C205 1.235 . S
C203 O206 1.238 . S
C203 O207 1.241 . S
C204 O197 1.247 . S
C204 O198 1.261 . S
C205 O200 1.259 . S
C205 O202 1.235 . S
O206 Co196 2.021 . S
O206 C203 1.238 . S
O207 Co201 2.052 . S
O207 C203 1.241 . S
O208 Co196 2.137 1_545 S
O208 C199 1.247 . S
O209 Co196 2.244 1_545 S
O209 C199 1.272 . S
O209 Co201 2.135 1_545 S
Co210 O211 2.216 . S
Co210 O212 2.091 . S
Co210 O214 2.004 . S
Co210 O220 2.021 . S
Co210 O222 2.137 . S
Co210 O223 2.244 . S
O211 Co210 2.216 . S
O211 C218 1.247 . S
O212 Co210 2.091 . S
O212 C218 1.261 . S
C213 O222 1.247 . S
C213 O223 1.272 . S
O214 Co210 2.004 . S
O214 C219 1.259 . S
Co215 O216 2.061 . S
Co215 O221 2.052 . S
Co215 O223 2.135 . S
O216 Co215 2.061 . S
O216 C219 1.235 . S
C217 O220 1.238 . S
C217 O221 1.241 . S
C218 O211 1.247 . S
C218 O212 1.261 . S
C219 O214 1.259 . S
C219 O216 1.235 . S
O220 Co210 2.021 . S
O220 C217 1.238 . S
O221 Co215 2.052 . S
O221 C217 1.241 . S
O222 Co210 2.137 . S
O222 C213 1.247 . S
O223 Co210 2.244 . S
O223 C213 1.272 . S
O223 Co215 2.135 . S
Co224 O225 2.216 . S
Co224 O226 2.091 . S
Co224 O228 2.004 . S
Co224 O234 2.021 . S
Co224 O236 2.137 1_565 S
Co224 O237 2.244 1_565 S
O225 Co224 2.216 . S
O225 C232 1.247 . S
O226 Co224 2.091 . S
O226 C232 1.261 . S
C227 O236 1.247 . S
C227 O237 1.272 . S
O228 Co224 2.004 . S
O228 C233 1.259 . S
Co229 O230 2.061 . S
Co229 O235 2.052 . S
Co229 O237 2.135 1_565 S
O230 Co229 2.061 . S
O230 C233 1.235 . S
C231 O234 1.238 . S
C231 O235 1.241 . S
C232 O225 1.247 . S
C232 O226 1.261 . S
C233 O228 1.259 . S
C233 O230 1.235 . S
O234 Co224 2.021 . S
O234 C231 1.238 . S
O235 Co229 2.052 . S
O235 C231 1.241 . S
O236 Co224 2.137 1_545 S
O236 C227 1.247 . S
O237 Co224 2.244 1_545 S
O237 C227 1.272 . S
O237 Co229 2.135 1_545 S
Co238 O239 2.216 . S
Co238 O240 2.091 . S
Co238 O242 2.004 . S
Co238 O248 2.021 . S
Co238 O250 2.137 . S
Co238 O251 2.244 . S
O239 Co238 2.216 . S
O239 C246 1.247 . S
O240 Co238 2.091 . S
O240 C246 1.261 . S
C241 O250 1.247 . S
C241 O251 1.272 . S
O242 Co238 2.004 . S
O242 C247 1.259 . S
Co243 O244 2.061 . S
Co243 O249 2.052 . S
Co243 O251 2.135 . S
O244 Co243 2.061 . S
O244 C247 1.235 . S
C245 O248 1.238 . S
C245 O249 1.241 . S
C246 O239 1.247 . S
C246 O240 1.261 . S
C247 O242 1.259 . S
C247 O244 1.235 . S
O248 Co238 2.021 . S
O248 C245 1.238 . S
O249 Co243 2.052 . S
O249 C245 1.241 . S
O250 Co238 2.137 . S
O250 C241 1.247 . S
O251 Co238 2.244 . S
O251 C241 1.272 . S
O251 Co243 2.135 . S
Zn252 O258 1.920 1_455 S
Zn252 O264 1.898 1_445 S
Zn252 O267 1.905 . S
Zn253 O261 1.905 1_545 S
Zn253 O262 1.898 . S
Zn253 O270 1.920 1_455 S
Zn254 O257 2.080 . S
Zn254 O260 2.114 1_545 S
Zn254 O263 2.120 . S
Zn254 O265 2.120 1_445 S
Zn254 O266 2.114 . S
Zn254 O269 2.080 1_455 S
C255 O260 1.166 . S
C255 O261 1.182 . S
C256 O262 1.167 . S
C256 O263 1.299 . S
O257 Zn254 2.080 . S
O257 C271 1.314 . S
O258 Zn252 1.920 1_655 S
O258 C271 1.236 1_655 S
C259 O264 1.167 . S
C259 O265 1.299 . S
O260 Zn254 2.114 1_565 S
O260 C255 1.166 . S
O261 Zn253 1.905 1_565 S
O261 C255 1.182 . S
O262 Zn253 1.898 . S
O262 C256 1.167 . S
O263 Zn254 2.120 . S
O263 C256 1.299 . S
O264 Zn252 1.898 1_665 S
O264 C259 1.167 . S
O265 Zn254 2.120 1_665 S
O265 C259 1.299 . S
O266 Zn254 2.114 . S
O266 C268 1.166 . S
O267 Zn252 1.905 . S
O267 C268 1.182 . S
C268 O266 1.166 . S
C268 O267 1.182 . S
O269 Zn254 2.080 1_655 S
O269 C272 1.305 . S
O270 Zn253 1.920 1_655 S
O270 C272 1.234 . S
C271 O257 1.314 . S
C271 O258 1.236 1_455 S
C272 O269 1.305 . S
C272 O270 1.234 . S
Zn273 O279 1.920 1_545 S
Zn273 O285 1.898 . S
Zn273 O288 1.905 1_455 S
Zn274 O282 1.905 . S
Zn274 O283 1.898 1_445 S
Zn274 O291 1.920 . S
Zn275 O278 2.080 1_545 S
Zn275 O281 2.114 . S
Zn275 O284 2.120 1_445 S
Zn275 O286 2.120 . S
Zn275 O287 2.114 1_455 S
Zn275 O290 2.080 . S
C276 O281 1.166 . S
C276 O282 1.182 . S
C277 O283 1.167 . S
C277 O284 1.299 . S
O278 Zn275 2.080 1_565 S
O278 C292 1.305 . S
O279 Zn273 1.920 1_565 S
O279 C292 1.234 . S
C280 O285 1.167 . S
C280 O286 1.299 . S
O281 Zn275 2.114 . S
O281 C276 1.166 . S
O282 Zn274 1.905 . S
O282 C276 1.182 . S
O283 Zn274 1.898 1_665 S
O283 C277 1.167 . S
O284 Zn275 2.120 1_665 S
O284 C277 1.299 . S
O285 Zn273 1.898 . S
O285 C280 1.167 . S
O286 Zn275 2.120 . S
O286 C280 1.299 . S
O287 Zn275 2.114 1_655 S
O287 C289 1.166 . S
O288 Zn273 1.905 1_655 S
O288 C289 1.182 . S
C289 O287 1.166 . S
C289 O288 1.182 . S
O290 Zn275 2.080 . S
O290 C293 1.305 . S
O291 Zn274 1.920 . S
O291 C293 1.234 . S
C292 O278 1.305 . S
C292 O279 1.234 . S
C293 O290 1.305 . S
C293 O291 1.234 . S
Zn294 O300 1.920 1_545 S
Zn294 O306 1.898 . S
Zn294 O309 1.905 1_455 S
Zn295 O303 1.905 . S
Zn295 O304 1.898 1_445 S
Zn295 O312 1.920 . S
Zn296 O299 2.080 1_545 S
Zn296 O302 2.114 . S
Zn296 O305 2.120 1_445 S
Zn296 O307 2.120 . S
Zn296 O308 2.114 1_455 S
Zn296 O311 2.080 . S
C297 O302 1.166 . S
C297 O303 1.182 . S
C298 O304 1.167 . S
C298 O305 1.299 . S
O299 Zn296 2.080 1_565 S
O299 C313 1.305 . S
O300 Zn294 1.920 1_565 S
O300 C313 1.234 . S
C301 O306 1.167 . S
C301 O307 1.299 . S
O302 Zn296 2.114 . S
O302 C297 1.166 . S
O303 Zn295 1.905 . S
O303 C297 1.182 . S
O304 Zn295 1.898 1_665 S
O304 C298 1.167 . S
O305 Zn296 2.120 1_665 S
O305 C298 1.299 . S
O306 Zn294 1.898 . S
O306 C301 1.167 . S
O307 Zn296 2.120 . S
O307 C301 1.299 . S
O308 Zn296 2.114 1_655 S
O308 C310 1.166 . S
O309 Zn294 1.905 1_655 S
O309 C310 1.182 . S
C310 O308 1.166 . S
C310 O309 1.182 . S
O311 Zn296 2.080 . S
O311 C314 1.305 . S
O312 Zn295 1.920 . S
O312 C314 1.234 . S
C313 O299 1.305 . S
C313 O300 1.234 . S
C314 O311 1.305 . S
C314 O312 1.234 . S
Zn315 O321 1.920 . S
Zn315 O327 1.898 1_445 S
Zn315 O330 1.905 . S
Zn316 O324 1.905 1_545 S
Zn316 O325 1.898 . S
Zn316 O333 1.920 1_455 S
Zn317 O320 2.080 . S
Zn317 O323 2.114 1_545 S
Zn317 O326 2.120 . S
Zn317 O328 2.120 1_445 S
Zn317 O329 2.114 . S
Zn317 O332 2.080 1_455 S
C318 O323 1.166 . S
C318 O324 1.182 . S
C319 O325 1.167 . S
C319 O326 1.299 . S
O320 Zn317 2.080 . S
O320 C334 1.305 . S
O321 Zn315 1.920 . S
O321 C334 1.234 . S
C322 O327 1.167 . S
C322 O328 1.299 . S
O323 Zn317 2.114 1_565 S
O323 C318 1.166 . S
O324 Zn316 1.905 1_565 S
O324 C318 1.182 . S
O325 Zn316 1.898 . S
O325 C319 1.167 . S
O326 Zn317 2.120 . S
O326 C319 1.299 . S
O327 Zn315 1.898 1_665 S
O327 C322 1.167 . S
O328 Zn317 2.120 1_665 S
O328 C322 1.299 . S
O329 Zn317 2.114 . S
O329 C331 1.166 . S
O330 Zn315 1.905 . S
O330 C331 1.182 . S
C331 O329 1.166 . S
C331 O330 1.182 . S
O332 Zn317 2.080 1_655 S
O332 C335 1.305 . S
O333 Zn316 1.920 1_655 S
O333 C335 1.234 . S
C334 O320 1.305 . S
C334 O321 1.234 . S
C335 O332 1.305 . S
C335 O333 1.234 . S
Zn336 O342 1.920 . S
Zn336 O348 1.898 . S
Zn336 O351 1.905 . S
Zn337 O345 1.905 . S
Zn337 O346 1.898 . S
Zn337 O354 1.920 . S
Zn338 O341 2.080 . S
Zn338 O344 2.114 . S
Zn338 O347 2.120 . S
Zn338 O349 2.120 . S
Zn338 O350 2.114 . S
Zn338 O353 2.080 . S
C339 O344 1.166 . S
C339 O345 1.182 . S
C340 O346 1.167 . S
C340 O347 1.299 . S
O341 Zn338 2.080 . S
O341 C355 1.305 . S
O342 Zn336 1.920 . S
O342 C355 1.234 . S
C343 O348 1.167 . S
C343 O349 1.299 . S
O344 Zn338 2.114 . S
O344 C339 1.166 . S
O345 Zn337 1.905 . S
O345 C339 1.182 . S
O346 Zn337 1.898 . S
O346 C340 1.167 . S
O347 Zn338 2.120 . S
O347 C340 1.299 . S
O348 Zn336 1.898 . S
O348 C343 1.167 . S
O349 Zn338 2.120 . S
O349 C343 1.299 . S
O350 Zn338 2.114 . S
O350 C352 1.166 . S
O351 Zn336 1.905 . S
O351 C352 1.182 . S
C352 O350 1.166 . S
C352 O351 1.182 . S
O353 Zn338 2.080 . S
O353 C356 1.305 . S
O354 Zn337 1.920 . S
O354 C356 1.234 . S
C355 O341 1.305 . S
C355 O342 1.234 . S
C356 O353 1.305 . S
C356 O354 1.234 . S
Zn357 O363 1.920 . S
Zn357 O369 1.898 . S
Zn357 O372 1.905 . S
Zn358 O366 1.905 . S
Zn358 O367 1.898 . S
Zn358 O375 1.920 . S
Zn359 O362 2.080 . S
Zn359 O365 2.114 . S
Zn359 O368 2.120 . S
Zn359 O370 2.120 . S
Zn359 O371 2.114 . S
Zn359 O374 2.080 . S
C360 O365 1.166 . S
C360 O366 1.182 . S
C361 O367 1.167 . S
C361 O368 1.299 . S
O362 Zn359 2.080 . S
O362 C376 1.305 . S
O363 Zn357 1.920 . S
O363 C376 1.234 . S
C364 O369 1.167 . S
C364 O370 1.299 . S
O365 Zn359 2.114 . S
O365 C360 1.166 . S
O366 Zn358 1.905 . S
O366 C360 1.182 . S
O367 Zn358 1.898 . S
O367 C361 1.167 . S
O368 Zn359 2.120 . S
O368 C361 1.299 . S
O369 Zn357 1.898 . S
O369 C364 1.167 . S
O370 Zn359 2.120 . S
O370 C364 1.299 . S
O371 Zn359 2.114 . S
O371 C373 1.166 . S
O372 Zn357 1.905 . S
O372 C373 1.182 . S
C373 O371 1.166 . S
C373 O372 1.182 . S
O374 Zn359 2.080 . S
O374 C377 1.305 . S
O375 Zn358 1.920 . S
O375 C377 1.234 . S
C376 O362 1.305 . S
C376 O363 1.234 . S
C377 O374 1.305 . S
C377 O375 1.234 . S
Zn378 O384 1.920 . S
Zn378 O390 1.898 . S
Zn378 O393 1.905 . S
Zn379 O387 1.905 . S
Zn379 O388 1.898 . S
Zn379 O396 1.920 . S
Zn380 O383 2.080 . S
Zn380 O386 2.114 . S
Zn380 O389 2.120 . S
Zn380 O391 2.120 . S
Zn380 O392 2.114 . S
Zn380 O395 2.080 . S
C381 O386 1.166 . S
C381 O387 1.182 . S
C382 O388 1.167 . S
C382 O389 1.299 . S
O383 Zn380 2.080 . S
O383 C397 1.305 . S
O384 Zn378 1.920 . S
O384 C397 1.234 . S
C385 O390 1.167 . S
C385 O391 1.299 . S
O386 Zn380 2.114 . S
O386 C381 1.166 . S
O387 Zn379 1.905 . S
O387 C381 1.182 . S
O388 Zn379 1.898 . S
O388 C382 1.167 . S
O389 Zn380 2.120 . S
O389 C382 1.299 . S
O390 Zn378 1.898 . S
O390 C385 1.167 . S
O391 Zn380 2.120 . S
O391 C385 1.299 . S
O392 Zn380 2.114 . S
O392 C394 1.166 . S
O393 Zn378 1.905 . S
O393 C394 1.182 . S
C394 O392 1.166 . S
C394 O393 1.182 . S
O395 Zn380 2.080 . S
O395 C398 1.305 . S
O396 Zn379 1.920 . S
O396 C398 1.234 . S
C397 O383 1.305 . S
C397 O384 1.234 . S
C398 O395 1.305 . S
C398 O396 1.234 . S
Zn399 O405 1.920 . S
Zn399 O411 1.898 . S
Zn399 O414 1.905 . S
Zn400 O408 1.905 . S
Zn400 O409 1.898 . S
Zn400 O417 1.920 . S
Zn401 O404 2.080 . S
Zn401 O407 2.114 . S
Zn401 O410 2.120 . S
Zn401 O412 2.120 . S
Zn401 O413 2.114 . S
Zn401 O416 2.080 . S
C402 O407 1.166 . S
C402 O408 1.182 . S
C403 O409 1.167 . S
C403 O410 1.299 . S
O404 Zn401 2.080 . S
O404 C418 1.312 . S
O405 Zn399 1.920 . S
O405 C418 1.226 1_554 S
C406 O411 1.147 1_556 S
C406 O412 1.316 . S
O407 Zn401 2.114 . S
O407 C402 1.166 . S
O408 Zn400 1.905 . S
O408 C402 1.182 . S
O409 Zn400 1.898 . S
O409 C403 1.167 . S
O410 Zn401 2.120 . S
O410 C403 1.299 . S
O411 Zn399 1.898 . S
O411 C406 1.147 1_554 S
O412 Zn401 2.120 . S
O412 C406 1.316 . S
O413 Zn401 2.114 . S
O413 C415 1.222 . S
O414 Zn399 1.905 . S
O414 C415 1.119 1_554 S
C415 O413 1.222 . S
C415 O414 1.119 1_556 S
O416 Zn401 2.080 . S
O416 C419 1.305 . S
O417 Zn400 1.920 . S
O417 C419 1.234 . S
C418 O404 1.312 . S
C418 O405 1.226 1_556 S
C419 O416 1.305 . S
C419 O417 1.234 . S
Zn420 O426 1.920 . S
Zn420 O432 1.898 . S
Zn420 O435 1.905 . S
Zn421 O429 1.905 . S
Zn421 O430 1.898 . S
Zn421 O438 1.920 . S
Zn422 O425 2.080 . S
Zn422 O428 2.114 . S
Zn422 O431 2.120 . S
Zn422 O433 2.120 . S
Zn422 O434 2.114 . S
Zn422 O437 2.080 . S
C423 O428 1.166 . S
C423 O429 1.182 . S
C424 O430 1.167 . S
C424 O431 1.299 . S
O425 Zn422 2.080 . S
O425 C439 1.305 . S
O426 Zn420 1.920 . S
O426 C439 1.234 . S
C427 O432 1.167 . S
C427 O433 1.299 . S
O428 Zn422 2.114 . S
O428 C423 1.166 . S
O429 Zn421 1.905 . S
O429 C423 1.182 . S
O430 Zn421 1.898 . S
O430 C424 1.167 . S
O431 Zn422 2.120 . S
O431 C424 1.299 . S
O432 Zn420 1.898 . S
O432 C427 1.167 . S
O433 Zn422 2.120 . S
O433 C427 1.299 . S
O434 Zn422 2.114 . S
O434 C436 1.166 . S
O435 Zn420 1.905 . S
O435 C436 1.182 . S
C436 O434 1.166 . S
C436 O435 1.182 . S
O437 Zn422 2.080 . S
O437 C440 1.305 . S
O438 Zn421 1.920 . S
O438 C440 1.234 . S
C439 O425 1.305 . S
C439 O426 1.234 . S
C440 O437 1.305 . S
C440 O438 1.234 . S
Zn441 O447 1.920 . S
Zn441 O453 1.898 . S
Zn441 O456 1.905 . S
Zn442 O450 1.905 . S
Zn442 O451 1.898 . S
Zn442 O459 1.920 . S
Zn443 O446 2.080 . S
Zn443 O449 2.114 . S
Zn443 O452 2.120 . S
Zn443 O454 2.120 . S
Zn443 O455 2.114 . S
Zn443 O458 2.080 . S
C444 O449 1.222 . S
C444 O450 1.119 1_554 S
C445 O451 1.148 1_554 S
C445 O452 1.316 . S
O446 Zn443 2.080 . S
O446 C460 1.305 . S
O447 Zn441 1.920 . S
O447 C460 1.234 . S
C448 O453 1.167 . S
C448 O454 1.299 . S
O449 Zn443 2.114 . S
O449 C444 1.222 . S
O450 Zn442 1.905 . S
O450 C444 1.119 1_556 S
O451 Zn442 1.898 . S
O451 C445 1.148 1_556 S
O452 Zn443 2.120 . S
O452 C445 1.316 . S
O453 Zn441 1.898 . S
O453 C448 1.167 . S
O454 Zn443 2.120 . S
O454 C448 1.299 . S
O455 Zn443 2.114 . S
O455 C457 1.166 . S
O456 Zn441 1.905 . S
O456 C457 1.182 . S
C457 O455 1.166 . S
C457 O456 1.182 . S
O458 Zn443 2.080 . S
O458 C461 1.311 . S
O459 Zn442 1.920 . S
O459 C461 1.226 1_556 S
C460 O446 1.305 . S
C460 O447 1.234 . S
C461 O458 1.311 . S
C461 O459 1.226 1_554 S
Zn462 O468 1.920 . S
Zn462 O474 1.898 . S
Zn462 O477 1.905 . S
Zn463 O471 1.905 . S
Zn463 O472 1.898 . S
Zn463 O480 1.920 . S
Zn464 O467 2.080 . S
Zn464 O470 2.114 . S
Zn464 O473 2.120 . S
Zn464 O475 2.120 . S
Zn464 O476 2.114 . S
Zn464 O479 2.080 . S
C465 O470 1.166 . S
C465 O471 1.182 . S
C466 O472 1.167 . S
C466 O473 1.299 . S
O467 Zn464 2.080 . S
O467 C481 1.305 . S
O468 Zn462 1.920 . S
O468 C481 1.234 . S
C469 O474 1.167 . S
C469 O475 1.299 . S
O470 Zn464 2.114 . S
O470 C465 1.166 . S
O471 Zn463 1.905 . S
O471 C465 1.182 . S
O472 Zn463 1.898 . S
O472 C466 1.167 . S
O473 Zn464 2.120 . S
O473 C466 1.299 . S
O474 Zn462 1.898 . S
O474 C469 1.167 . S
O475 Zn464 2.120 . S
O475 C469 1.299 . S
O476 Zn464 2.114 . S
O476 C478 1.166 . S
O477 Zn462 1.905 . S
O477 C478 1.182 . S
C478 O476 1.166 . S
C478 O477 1.182 . S
O479 Zn464 2.080 . S
O479 C482 1.305 . S
O480 Zn463 1.920 . S
O480 C482 1.234 . S
C481 O467 1.305 . S
C481 O468 1.234 . S
C482 O479 1.305 . S
C482 O480 1.234 . S
Zn483 O489 1.920 . S
Zn483 O495 1.898 . S
Zn483 O498 1.905 . S
Zn484 O492 1.905 . S
Zn484 O493 1.898 . S
Zn484 O501 1.920 . S
Zn485 O488 2.080 . S
Zn485 O491 2.114 . S
Zn485 O494 2.120 . S
Zn485 O496 2.120 . S
Zn485 O497 2.114 . S
Zn485 O500 2.080 . S
C486 O491 1.166 . S
C486 O492 1.182 . S
C487 O493 1.167 . S
C487 O494 1.299 . S
O488 Zn485 2.080 . S
O488 C502 1.305 . S
O489 Zn483 1.920 . S
O489 C502 1.234 . S
C490 O495 1.167 . S
C490 O496 1.299 . S
O491 Zn485 2.114 . S
O491 C486 1.166 . S
O492 Zn484 1.905 . S
O492 C486 1.182 . S
O493 Zn484 1.898 . S
O493 C487 1.167 . S
O494 Zn485 2.120 . S
O494 C487 1.299 . S
O495 Zn483 1.898 . S
O495 C490 1.167 . S
O496 Zn485 2.120 . S
O496 C490 1.299 . S
O497 Zn485 2.114 . S
O497 C499 1.166 . S
O498 Zn483 1.905 . S
O498 C499 1.182 . S
C499 O497 1.166 . S
C499 O498 1.182 . S
O500 Zn485 2.080 . S
O500 C503 1.305 . S
O501 Zn484 1.920 . S
O501 C503 1.234 . S
C502 O488 1.305 . S
C502 O489 1.234 . S
C503 O500 1.305 . S
C503 O501 1.234 . S
H504 C522 0.951 . S
H505 C524 0.951 . S
H506 C526 0.950 . S
H507 C527 0.950 . S
H508 C529 0.950 . S
H509 C532 0.950 . S
H510 C533 0.950 . S
H511 C535 0.950 . S
H512 C536 0.950 . S
H513 C537 0.951 . S
H514 C539 0.951 . S
H515 C541 0.950 . S
H516 C542 0.950 . S
H517 C544 0.950 . S
H518 C547 0.950 . S
H519 C548 0.950 . S
H520 C550 0.950 . S
H521 C551 0.950 . S
C522 H504 0.951 . S
C522 C523 1.366 . S
C522 C524 1.388 . S
C523 C522 1.366 . S
C523 C527 1.385 . S
C524 H505 0.951 . S
C524 C522 1.388 . S
C524 C525 1.366 . S
C525 C524 1.366 . S
C525 C526 1.414 . S
C525 C528 1.499 . S
C526 H506 0.950 . S
C526 C525 1.414 . S
C526 C527 1.374 . S
C527 H507 0.950 . S
C527 C523 1.385 . S
C527 C526 1.374 . S
C528 C525 1.499 . S
C528 C529 1.373 . S
C528 C530 1.389 . S
C529 H508 0.950 . S
C529 C528 1.373 . S
C529 C545 1.377 . S
C530 C528 1.389 . S
C530 C531 1.524 . S
C530 C544 1.377 . S
C531 C530 1.524 . S
C531 C532 1.397 . S
C531 C536 1.363 . S
C532 H509 0.950 . S
C532 C531 1.397 . S
C532 C533 1.334 . S
C533 H510 0.950 . S
C533 C532 1.334 . S
C533 C534 1.287 . S
C534 C533 1.287 . S
C534 C535 1.524 . S
C534 H553 0.913 . S
C535 H511 0.950 . S
C535 C534 1.524 . S
C535 C536 1.415 . S
C536 H512 0.950 . S
C536 C531 1.363 . S
C536 C535 1.415 . S
C537 H513 0.951 . S
C537 C538 1.366 . S
C537 C539 1.388 . S
C538 C537 1.366 . S
C538 C542 1.385 . S
C539 H514 0.951 . S
C539 C537 1.388 . S
C539 C540 1.366 . S
C540 C539 1.366 . S
C540 C541 1.414 . S
C540 C543 1.499 . S
C541 H515 0.950 . S
C541 C540 1.414 . S
C541 C542 1.374 . S
C542 H516 0.950 . S
C542 C538 1.385 . S
C542 C541 1.374 . S
C543 C540 1.499 . S
C543 C544 1.373 . S
C543 C545 1.389 . S
C544 H517 0.950 . S
C544 C530 1.377 . S
C544 C543 1.373 . S
C545 C529 1.377 . S
C545 C543 1.389 . S
C545 C546 1.524 . S
C546 C545 1.524 . S
C546 C547 1.397 . S
C546 C551 1.363 . S
C547 H518 0.950 . S
C547 C546 1.397 . S
C547 C548 1.334 . S
C548 H519 0.950 . S
C548 C547 1.334 . S
C548 C549 1.287 . S
C549 C548 1.287 . S
C549 C550 1.524 . S
C549 H552 0.999 . S
C550 H520 0.950 . S
C550 C549 1.524 . S
C550 C551 1.415 . S
C551 H521 0.950 . S
C551 C546 1.363 . S
C551 C550 1.415 . S
H552 C549 0.999 . S
H553 C534 0.913 . S
H554 C572 0.951 . S
H555 C574 0.951 . S
H556 C576 0.950 . S
H557 C577 0.950 . S
H558 C579 0.950 . S
H559 C582 0.950 . S
H560 C583 0.950 . S
H561 C585 0.950 . S
H562 C586 0.950 . S
H563 C587 0.951 . S
H564 C589 0.951 . S
H565 C591 0.950 1_565 S
H566 C592 0.950 1_565 S
H567 C594 0.950 . S
H568 C597 0.950 1_565 S
H569 C598 0.950 1_565 S
H570 C600 0.950 . S
H571 C601 0.950 . S
C572 H554 0.951 . S
C572 C573 1.366 1_565 S
C572 C574 1.388 . S
C573 C572 1.366 1_545 S
C573 C577 1.385 . S
C574 H555 0.951 . S
C574 C572 1.388 . S
C574 C575 1.366 1_565 S
C575 C574 1.366 1_545 S
C575 C576 1.414 . S
C575 C578 1.499 . S
C576 H556 0.950 . S
C576 C575 1.414 . S
C576 C577 1.374 . S
C577 H557 0.950 . S
C577 C573 1.385 . S
C577 C576 1.374 . S
C578 C575 1.499 . S
C578 C579 1.373 . S
C578 C580 1.389 . S
C579 H558 0.950 . S
C579 C578 1.373 . S
C579 C595 1.377 . S
C580 C578 1.389 . S
C580 C581 1.524 . S
C580 C594 1.377 . S
C581 C580 1.524 . S
C581 C582 1.397 . S
C581 C586 1.363 1_545 S
C582 H559 0.950 . S
C582 C581 1.397 . S
C582 C583 1.334 . S
C583 H560 0.950 . S
C583 C582 1.334 . S
C583 C584 1.287 . S
C584 C583 1.287 . S
C584 C585 1.524 1_545 S
C584 H603 0.913 . S
C585 H561 0.950 . S
C585 C584 1.524 1_565 S
C585 C586 1.415 . S
C586 H562 0.950 . S
C586 C581 1.363 1_565 S
C586 C585 1.415 . S
C587 H563 0.951 . S
C587 C588 1.366 . S
C587 C589 1.388 . S
C588 C587 1.366 . S
C588 C592 1.385 . S
C589 H564 0.951 . S
C589 C587 1.388 . S
C589 C590 1.366 . S
C590 C589 1.366 . S
C590 C591 1.414 . S
C590 C593 1.499 . S
C591 H565 0.950 1_545 S
C591 C590 1.414 . S
C591 C592 1.374 . S
C592 H566 0.950 1_545 S
C592 C588 1.385 . S
C592 C591 1.374 . S
C593 C590 1.499 . S
C593 C594 1.373 . S
C593 C595 1.389 . S
C594 H567 0.950 . S
C594 C580 1.377 . S
C594 C593 1.373 . S
C595 C579 1.377 . S
C595 C593 1.389 . S
C595 C596 1.524 . S
C596 C595 1.524 . S
C596 C597 1.397 . S
C596 C601 1.363 . S
C597 H568 0.950 1_545 S
C597 C596 1.397 . S
C597 C598 1.334 . S
C598 H569 0.950 1_545 S
C598 C597 1.334 . S
C598 C599 1.287 . S
C599 C598 1.287 . S
C599 C600 1.524 . S
C599 H602 0.999 . S
C600 H570 0.950 . S
C600 C599 1.524 . S
C600 C601 1.415 . S
C601 H571 0.950 . S
C601 C596 1.363 . S
C601 C600 1.415 . S
H602 C599 0.999 . S
H603 C584 0.913 . S
H604 C622 0.951 . S
H605 C624 0.951 . S
H606 C626 0.950 . S
H607 C627 0.950 . S
H608 C629 0.950 . S
H609 C632 0.950 1_655 S
H610 C633 0.950 . S
H611 C635 0.950 . S
H612 C636 0.950 . S
H613 C637 0.951 . S
H614 C639 0.951 . S
H615 C641 0.950 . S
H616 C642 0.950 . S
H617 C644 0.950 . S
H618 C647 0.950 . S
H619 C648 0.950 1_455 S
H620 C650 0.950 . S
H621 C651 0.950 . S
C622 H604 0.951 . S
C622 C623 1.366 . S
C622 C624 1.388 . S
C623 C622 1.366 . S
C623 C627 1.385 1_455 S
C624 H605 0.951 . S
C624 C622 1.388 . S
C624 C625 1.366 . S
C625 C624 1.366 . S
C625 C626 1.414 1_455 S
C625 C628 1.499 . S
C626 H606 0.950 . S
C626 C625 1.414 1_655 S
C626 C627 1.374 . S
C627 H607 0.950 . S
C627 C623 1.385 1_655 S
C627 C626 1.374 . S
C628 C625 1.499 . S
C628 C629 1.373 1_455 S
C628 C630 1.389 . S
C629 H608 0.950 . S
C629 C628 1.373 1_655 S
C629 C645 1.377 . S
C630 C628 1.389 . S
C630 C631 1.524 . S
C630 C644 1.377 . S
C631 C630 1.524 . S
C631 C632 1.397 . S
C631 C636 1.363 . S
C632 H609 0.950 1_455 S
C632 C631 1.397 . S
C632 C633 1.334 . S
C633 H610 0.950 . S
C633 C632 1.334 . S
C633 C634 1.287 . S
C634 C633 1.287 . S
C634 C635 1.524 . S
C634 H653 0.913 . S
C635 H611 0.950 . S
C635 C634 1.524 . S
C635 C636 1.415 . S
C636 H612 0.950 . S
C636 C631 1.363 . S
C636 C635 1.415 . S
C637 H613 0.951 . S
C637 C638 1.366 1_655 S
C637 C639 1.388 . S
C638 C637 1.366 1_455 S
C638 C642 1.385 . S
C639 H614 0.951 . S
C639 C637 1.388 . S
C639 C640 1.366 1_655 S
C640 C639 1.366 1_455 S
C640 C641 1.414 . S
C640 C643 1.499 . S
C641 H615 0.950 . S
C641 C640 1.414 . S
C641 C642 1.374 . S
C642 H616 0.950 . S
C642 C638 1.385 . S
C642 C641 1.374 . S
C643 C640 1.499 . S
C643 C644 1.373 . S
C643 C645 1.389 1_455 S
C644 H617 0.950 . S
C644 C630 1.377 . S
C644 C643 1.373 . S
C645 C629 1.377 . S
C645 C643 1.389 1_655 S
C645 C646 1.524 . S
C646 C645 1.524 . S
C646 C647 1.397 1_655 S
C646 C651 1.363 . S
C647 H618 0.950 . S
C647 C646 1.397 1_455 S
C647 C648 1.334 1_455 S
C648 H619 0.950 1_655 S
C648 C647 1.334 1_655 S
C648 C649 1.287 . S
C649 C648 1.287 . S
C649 C650 1.524 . S
C649 H652 0.999 . S
C650 H620 0.950 . S
C650 C649 1.524 . S
C650 C651 1.415 . S
C651 H621 0.950 . S
C651 C646 1.363 . S
C651 C650 1.415 . S
H652 C649 0.999 . S
H653 C634 0.913 . S
H654 C672 0.951 . S
H655 C674 0.951 . S
H656 C676 0.950 . S
H657 C677 0.950 . S
H658 C679 0.950 . S
H659 C682 0.950 . S
H660 C683 0.950 . S
H661 C685 0.950 . S
H662 C686 0.950 . S
H663 C687 0.951 . S
H664 C689 0.951 . S
H665 C691 0.950 . S
H666 C692 0.950 . S
H667 C694 0.950 . S
H668 C697 0.950 . S
H669 C698 0.950 . S
H670 C700 0.950 . S
H671 C701 0.950 . S
C672 H654 0.951 . S
C672 C673 1.366 . S
C672 C674 1.388 . S
C673 C672 1.366 . S
C673 C677 1.385 . S
C674 H655 0.951 . S
C674 C672 1.388 . S
C674 C675 1.366 . S
C675 C674 1.366 . S
C675 C676 1.414 . S
C675 C678 1.499 . S
C676 H656 0.950 . S
C676 C675 1.414 . S
C676 C677 1.374 . S
C677 H657 0.950 . S
C677 C673 1.385 . S
C677 C676 1.374 . S
C678 C675 1.499 . S
C678 C679 1.373 . S
C678 C680 1.389 . S
C679 H658 0.950 . S
C679 C678 1.373 . S
C679 C695 1.377 . S
C680 C678 1.389 . S
C680 C681 1.524 . S
C680 C694 1.377 . S
C681 C680 1.524 . S
C681 C682 1.397 . S
C681 C686 1.363 . S
C682 H659 0.950 . S
C682 C681 1.397 . S
C682 C683 1.334 . S
C683 H660 0.950 . S
C683 C682 1.334 . S
C683 C684 1.287 . S
C684 C683 1.287 . S
C684 C685 1.524 . S
C684 H703 0.913 . S
C685 H661 0.950 . S
C685 C684 1.524 . S
C685 C686 1.415 . S
C686 H662 0.950 . S
C686 C681 1.363 . S
C686 C685 1.415 . S
C687 H663 0.951 . S
C687 C688 1.366 . S
C687 C689 1.388 . S
C688 C687 1.366 . S
C688 C692 1.385 . S
C689 H664 0.951 . S
C689 C687 1.388 . S
C689 C690 1.366 . S
C690 C689 1.366 . S
C690 C691 1.414 . S
C690 C693 1.499 . S
C691 H665 0.950 . S
C691 C690 1.414 . S
C691 C692 1.374 . S
C692 H666 0.950 . S
C692 C688 1.385 . S
C692 C691 1.374 . S
C693 C690 1.499 . S
C693 C694 1.373 . S
C693 C695 1.389 . S
C694 H667 0.950 . S
C694 C680 1.377 . S
C694 C693 1.373 . S
C695 C679 1.377 . S
C695 C693 1.389 . S
C695 C696 1.524 . S
C696 C695 1.524 . S
C696 C697 1.397 . S
C696 C701 1.363 . S
C697 H668 0.950 . S
C697 C696 1.397 . S
C697 C698 1.334 . S
C698 H669 0.950 . S
C698 C697 1.334 . S
C698 C699 1.287 . S
C699 C698 1.287 . S
C699 C700 1.524 . S
C699 H702 0.999 . S
C700 H670 0.950 . S
C700 C699 1.524 . S
C700 C701 1.415 . S
C701 H671 0.950 . S
C701 C696 1.363 . S
C701 C700 1.415 . S
H702 C699 0.999 . S
H703 C684 0.913 . S
H704 C722 0.951 . S
H705 C724 0.951 . S
H706 C726 0.950 . S
H707 C727 0.950 . S
H708 C729 0.950 . S
H709 C732 0.950 . S
H710 C733 0.950 . S
H711 C735 0.950 . S
H712 C736 0.950 1_545 S
H713 C737 0.958 . S
H714 C739 0.951 1_565 S
H715 C741 0.950 . S
H716 C742 0.950 . S
H717 C744 0.950 1_565 S
H718 C747 0.950 . S
H719 C748 0.950 . S
H720 C750 0.950 . S
H721 C751 0.950 . S
C722 H704 0.951 . S
C722 C723 1.366 . S
C722 C724 1.388 . S
C723 C722 1.366 . S
C723 C727 1.385 . S
C724 H705 0.951 . S
C724 C722 1.388 . S
C724 C725 1.366 . S
C725 C724 1.366 . S
C725 C726 1.414 . S
C725 C728 1.499 . S
C726 H706 0.950 . S
C726 C725 1.414 . S
C726 C727 1.374 . S
C727 H707 0.950 . S
C727 C723 1.385 . S
C727 C726 1.374 . S
C728 C725 1.499 . S
C728 C729 1.373 . S
C728 C730 1.389 . S
C729 H708 0.950 . S
C729 C728 1.373 . S
C729 C745 1.377 . S
C730 C728 1.389 . S
C730 C731 1.524 1_545 S
C730 C744 1.377 . S
C731 C730 1.524 1_565 S
C731 C732 1.397 . S
C731 C736 1.363 . S
C732 H709 0.950 . S
C732 C731 1.397 . S
C732 C733 1.334 . S
C733 H710 0.950 . S
C733 C732 1.334 . S
C733 C734 1.287 . S
C734 C733 1.287 . S
C734 C735 1.524 . S
C734 H753 0.913 . S
C735 H711 0.950 . S
C735 C734 1.524 . S
C735 C736 1.415 . S
C736 H712 0.950 1_565 S
C736 C731 1.363 . S
C736 C735 1.415 . S
C737 H713 0.958 . S
C737 C738 1.375 1_565 S
C737 C739 1.373 1_565 S
C738 C737 1.375 1_545 S
C738 C742 1.385 . S
C739 H714 0.951 1_545 S
C739 C737 1.373 1_545 S
C739 C740 1.366 . S
C740 C739 1.366 . S
C740 C741 1.414 . S
C740 C743 1.499 . S
C741 H715 0.950 . S
C741 C740 1.414 . S
C741 C742 1.374 . S
C742 H716 0.950 . S
C742 C738 1.385 . S
C742 C741 1.374 . S
C743 C740 1.499 . S
C743 C744 1.373 . S
C743 C745 1.389 . S
C744 H717 0.950 1_545 S
C744 C730 1.377 . S
C744 C743 1.373 . S
C745 C729 1.377 . S
C745 C743 1.389 . S
C745 C746 1.524 . S
C746 C745 1.524 . S
C746 C747 1.397 . S
C746 C751 1.363 . S
C747 H718 0.950 . S
C747 C746 1.397 . S
C747 C748 1.334 . S
C748 H719 0.950 . S
C748 C747 1.334 . S
C748 C749 1.287 . S
C749 C748 1.287 . S
C749 C750 1.524 . S
C749 H752 0.999 . S
C750 H720 0.950 . S
C750 C749 1.524 . S
C750 C751 1.415 . S
C751 H721 0.950 . S
C751 C746 1.363 . S
C751 C750 1.415 . S
H752 C749 0.999 . S
H753 C734 0.913 . S
H754 C772 0.951 . S
H755 C774 0.951 . S
H756 C776 0.950 . S
H757 C777 0.950 . S
H758 C779 0.950 . S
H759 C782 0.950 . S
H760 C783 0.950 . S
H761 C785 0.950 . S
H762 C786 0.950 . S
H763 C787 0.972 . S
H764 C789 0.951 . S
H765 C791 0.950 . S
H766 C792 0.950 . S
H767 C794 0.950 . S
H768 C797 0.950 1_455 S
H769 C798 0.950 . S
H770 C800 0.950 . S
H771 C801 0.950 . S
C772 H754 0.951 . S
C772 C773 1.366 . S
C772 C774 1.388 . S
C773 C772 1.366 . S
C773 C777 1.385 1_455 S
C774 H755 0.951 . S
C774 C772 1.388 . S
C774 C775 1.366 . S
C775 C774 1.366 . S
C775 C776 1.414 1_455 S
C775 C778 1.499 . S
C776 H756 0.950 . S
C776 C775 1.414 1_655 S
C776 C777 1.374 . S
C777 H757 0.950 . S
C777 C773 1.385 1_655 S
C777 C776 1.374 . S
C778 C775 1.499 . S
C778 C779 1.373 1_455 S
C778 C780 1.389 . S
C779 H758 0.950 . S
C779 C778 1.373 1_655 S
C779 C795 1.377 . S
C780 C778 1.389 . S
C780 C781 1.524 . S
C780 C794 1.377 . S
C781 C780 1.524 . S
C781 C782 1.397 . S
C781 C786 1.363 . S
C782 H759 0.950 . S
C782 C781 1.397 . S
C782 C783 1.334 . S
C783 H760 0.950 . S
C783 C782 1.334 . S
C783 C784 1.287 . S
C784 C783 1.287 . S
C784 C785 1.524 . S
C784 H803 0.913 . S
C785 H761 0.950 . S
C785 C784 1.524 . S
C785 C786 1.415 . S
C786 H762 0.950 . S
C786 C781 1.363 . S
C786 C785 1.415 . S
C787 H763 0.972 . S
C787 C788 1.353 1_655 S
C787 C789 1.380 . S
C788 C787 1.353 1_455 S
C788 C792 1.385 . S
C789 H764 0.951 . S
C789 C787 1.380 . S
C789 C790 1.366 1_655 S
C790 C789 1.366 1_455 S
C790 C791 1.414 . S
C790 C793 1.499 . S
C791 H765 0.950 . S
C791 C790 1.414 . S
C791 C792 1.374 . S
C792 H766 0.950 . S
C792 C788 1.385 . S
C792 C791 1.374 . S
C793 C790 1.499 . S
C793 C794 1.373 . S
C793 C795 1.389 1_455 S
C794 H767 0.950 . S
C794 C780 1.377 . S
C794 C793 1.373 . S
C795 C779 1.377 . S
C795 C793 1.389 1_655 S
C795 C796 1.524 . S
C796 C795 1.524 . S
C796 C797 1.397 . S
C796 C801 1.363 . S
C797 H768 0.950 1_655 S
C797 C796 1.397 . S
C797 C798 1.334 . S
C798 H769 0.950 . S
C798 C797 1.334 . S
C798 C799 1.287 . S
C799 C798 1.287 . S
C799 C800 1.524 . S
C799 H802 0.999 . S
C800 H770 0.950 . S
C800 C799 1.524 . S
C800 C801 1.415 . S
C801 H771 0.950 . S
C801 C796 1.363 . S
C801 C800 1.415 . S
H802 C799 0.999 . S
H803 C784 0.913 . S
H804 C822 0.951 . S
H805 C824 0.951 . S
H806 C826 0.950 . S
H807 C827 0.950 . S
H808 C829 0.950 . S
H809 C832 0.950 . S
H810 C833 0.950 . S
H811 C835 0.950 . S
H812 C836 0.950 . S
H813 C837 0.951 . S
H814 C839 0.951 . S
H815 C841 0.950 . S
H816 C842 0.950 . S
H817 C844 0.950 . S
H818 C847 0.950 . S
H819 C848 0.950 . S
H820 C850 0.950 . S
H821 C851 0.950 . S
C822 H804 0.951 . S
C822 C823 1.366 . S
C822 C824 1.388 . S
C823 C822 1.366 . S
C823 C827 1.385 . S
C824 H805 0.951 . S
C824 C822 1.388 . S
C824 C825 1.366 . S
C825 C824 1.366 . S
C825 C826 1.414 . S
C825 C828 1.499 . S
C826 H806 0.950 . S
C826 C825 1.414 . S
C826 C827 1.374 . S
C827 H807 0.950 . S
C827 C823 1.385 . S
C827 C826 1.374 . S
C828 C825 1.499 . S
C828 C829 1.373 . S
C828 C830 1.389 . S
C829 H808 0.950 . S
C829 C828 1.373 . S
C829 C845 1.377 . S
C830 C828 1.389 . S
C830 C831 1.524 . S
C830 C844 1.377 . S
C831 C830 1.524 . S
C831 C832 1.397 . S
C831 C836 1.363 . S
C832 H809 0.950 . S
C832 C831 1.397 . S
C832 C833 1.334 . S
C833 H810 0.950 . S
C833 C832 1.334 . S
C833 C834 1.287 . S
C834 C833 1.287 . S
C834 C835 1.524 . S
C834 H853 0.913 . S
C835 H811 0.950 . S
C835 C834 1.524 . S
C835 C836 1.415 . S
C836 H812 0.950 . S
C836 C831 1.363 . S
C836 C835 1.415 . S
C837 H813 0.951 . S
C837 C838 1.366 . S
C837 C839 1.388 . S
C838 C837 1.366 . S
C838 C842 1.385 . S
C839 H814 0.951 . S
C839 C837 1.388 . S
C839 C840 1.366 . S
C840 C839 1.366 . S
C840 C841 1.414 . S
C840 C843 1.499 . S
C841 H815 0.950 . S
C841 C840 1.414 . S
C841 C842 1.374 . S
C842 H816 0.950 . S
C842 C838 1.385 . S
C842 C841 1.374 . S
C843 C840 1.499 . S
C843 C844 1.373 . S
C843 C845 1.389 . S
C844 H817 0.950 . S
C844 C830 1.377 . S
C844 C843 1.373 . S
C845 C829 1.377 . S
C845 C843 1.389 . S
C845 C846 1.524 . S
C846 C845 1.524 . S
C846 C847 1.397 . S
C846 C851 1.363 . S
C847 H818 0.950 . S
C847 C846 1.397 . S
C847 C848 1.334 . S
C848 H819 0.950 . S
C848 C847 1.334 . S
C848 C849 1.287 . S
C849 C848 1.287 . S
C849 C850 1.524 . S
C849 H852 0.999 1_655 S
C850 H820 0.950 . S
C850 C849 1.524 . S
C850 C851 1.415 . S
C851 H821 0.950 . S
C851 C846 1.363 . S
C851 C850 1.415 . S
H852 C849 0.999 1_455 S
H853 C834 0.913 . S
H854 C872 0.951 . S
H855 C874 0.951 . S
H856 C876 0.950 1_565 S
H857 C877 0.950 . S
H858 C879 0.950 . S
H859 C882 0.950 . S
H860 C883 0.950 . S
H861 C885 0.950 . S
H862 C886 0.982 . S
H863 C887 0.951 . S
H864 C889 0.949 1_565 S
H865 C891 0.950 . S
H866 C892 0.950 . S
H867 C894 0.944 1_565 S
H868 C897 0.950 . S
H869 C898 0.950 . S
H870 C900 0.950 . S
H871 C901 0.950 . S
C872 H854 0.951 . S
C872 C873 1.366 . S
C872 C874 1.388 . S
C873 C872 1.366 . S
C873 C877 1.385 . S
C874 H855 0.951 . S
C874 C872 1.388 . S
C874 C875 1.366 . S
C875 C874 1.366 . S
C875 C876 1.414 . S
C875 C878 1.499 . S
C876 H856 0.950 1_545 S
C876 C875 1.414 . S
C876 C877 1.374 . S
C877 H857 0.950 . S
C877 C873 1.385 . S
C877 C876 1.374 . S
C878 C875 1.499 . S
C878 C879 1.373 . S
C878 C880 1.389 . S
C879 H858 0.950 . S
C879 C878 1.373 . S
C879 C895 1.377 . S
C880 C878 1.389 . S
C880 C881 1.524 1_545 S
C880 C894 1.377 . S
C881 C880 1.524 1_565 S
C881 C882 1.397 . S
C881 C886 1.363 1_565 S
C882 H859 0.950 . S
C882 C881 1.397 . S
C882 C883 1.334 . S
C883 H860 0.950 . S
C883 C882 1.334 . S
C883 C884 1.287 . S
C884 C883 1.287 . S
C884 C885 1.524 . S
C884 H903 0.913 . S
C885 H861 0.950 . S
C885 C884 1.524 . S
C885 C886 1.384 1_565 S
C886 H862 0.982 . S
C886 C881 1.363 1_545 S
C886 C885 1.384 1_545 S
C887 H863 0.951 . S
C887 C888 1.366 1_565 S
C887 C889 1.390 1_565 S
C888 C887 1.366 1_545 S
C888 C892 1.385 . S
C889 H864 0.949 1_545 S
C889 C887 1.390 1_545 S
C889 C890 1.365 . S
C890 C889 1.365 . S
C890 C891 1.414 . S
C890 C893 1.499 . S
C891 H865 0.950 . S
C891 C890 1.414 . S
C891 C892 1.374 . S
C892 H866 0.950 . S
C892 C888 1.385 . S
C892 C891 1.374 . S
C893 C890 1.499 . S
C893 C894 1.373 . S
C893 C895 1.389 . S
C894 H867 0.944 1_545 S
C894 C880 1.377 . S
C894 C893 1.373 . S
C895 C879 1.377 . S
C895 C893 1.389 . S
C895 C896 1.524 . S
C896 C895 1.524 . S
C896 C897 1.397 . S
C896 C901 1.363 . S
C897 H868 0.950 . S
C897 C896 1.397 . S
C897 C898 1.334 . S
C898 H869 0.950 . S
C898 C897 1.334 . S
C898 C899 1.287 . S
C899 C898 1.287 . S
C899 C900 1.524 . S
C899 H902 0.999 . S
C900 H870 0.950 . S
C900 C899 1.524 . S
C900 C901 1.415 . S
C901 H871 0.950 . S
C901 C896 1.363 . S
C901 C900 1.415 . S
H902 C899 0.999 . S
H903 C884 0.913 . S
H904 C922 0.951 . S
H905 C924 0.951 . S
H906 C926 0.950 1_655 S
H907 C927 0.950 1_655 S
H908 C929 0.950 . S
H909 C932 0.950 . S
H910 C933 0.950 . S
H911 C935 0.950 . S
H912 C936 0.950 . S
H913 C937 0.951 . S
H914 C939 0.965 . S
H915 C941 0.950 . S
H916 C942 0.950 . S
H917 C944 0.950 . S
H918 C947 0.950 . S
H919 C948 0.950 . S
H920 C950 0.950 . S
H921 C951 0.950 . S
C922 H904 0.951 . S
C922 C923 1.366 . S
C922 C924 1.388 . S
C923 C922 1.366 . S
C923 C927 1.385 . S
C924 H905 0.951 . S
C924 C922 1.388 . S
C924 C925 1.366 . S
C925 C924 1.366 . S
C925 C926 1.414 . S
C925 C928 1.499 . S
C926 H906 0.950 1_455 S
C926 C925 1.414 . S
C926 C927 1.374 . S
C927 H907 0.950 1_455 S
C927 C923 1.385 . S
C927 C926 1.374 . S
C928 C925 1.499 . S
C928 C929 1.373 1_455 S
C928 C930 1.389 . S
C929 H908 0.950 . S
C929 C928 1.373 1_655 S
C929 C945 1.377 . S
C930 C928 1.389 . S
C930 C931 1.524 . S
C930 C944 1.377 . S
C931 C930 1.524 . S
C931 C932 1.397 . S
C931 C936 1.363 . S
C932 H909 0.950 . S
C932 C931 1.397 . S
C932 C933 1.334 . S
C933 H910 0.950 . S
C933 C932 1.334 . S
C933 C934 1.287 . S
C934 C933 1.287 . S
C934 C935 1.524 . S
C934 H953 0.913 . S
C935 H911 0.950 . S
C935 C934 1.524 . S
C935 C936 1.415 . S
C936 H912 0.950 . S
C936 C931 1.363 . S
C936 C935 1.415 . S
C937 H913 0.951 . S
C937 C938 1.366 . S
C937 C939 1.388 . S
C938 C937 1.366 . S
C938 C942 1.385 . S
C939 H914 0.965 . S
C939 C937 1.388 . S
C939 C940 1.366 . S
C940 C939 1.366 . S
C940 C941 1.414 . S
C940 C943 1.499 . S
C941 H915 0.950 . S
C941 C940 1.414 . S
C941 C942 1.374 . S
C942 H916 0.950 . S
C942 C938 1.385 . S
C942 C941 1.374 . S
C943 C940 1.499 . S
C943 C944 1.373 . S
C943 C945 1.389 1_455 S
C944 H917 0.950 . S
C944 C930 1.377 . S
C944 C943 1.373 . S
C945 C929 1.377 . S
C945 C943 1.389 1_655 S
C945 C946 1.524 . S
C946 C945 1.524 . S
C946 C947 1.397 . S
C946 C951 1.363 . S
C947 H918 0.950 . S
C947 C946 1.397 . S
C947 C948 1.334 . S
C948 H919 0.950 . S
C948 C947 1.334 . S
C948 C949 1.287 . S
C949 C948 1.287 . S
C949 C950 1.524 . S
C949 H952 0.999 . S
C950 H920 0.950 . S
C950 C949 1.524 . S
C950 C951 1.415 . S
C951 H921 0.950 . S
C951 C946 1.363 . S
C951 C950 1.415 . S
H952 C949 0.999 . S
H953 C934 0.913 . S
H954 C972 0.951 . S
H955 C974 0.951 . S
H956 C976 0.950 . S
H957 C977 0.950 . S
H958 C979 0.950 . S
H959 C982 0.950 . S
H960 C983 0.950 . S
H961 C985 0.950 . S
H962 C986 0.950 . S
H963 C987 0.951 . S
H964 C989 0.951 . S
H965 C991 0.950 . S
H966 C992 0.950 . S
H967 C994 0.950 . S
H968 C997 0.950 . S
H969 C998 0.950 . S
H970 C1000 0.950 . S
H971 C1001 0.950 . S
C972 H954 0.951 . S
C972 C973 1.366 . S
C972 C974 1.388 . S
C973 C972 1.366 . S
C973 C977 1.385 . S
C974 H955 0.951 . S
C974 C972 1.388 . S
C974 C975 1.366 . S
C975 C974 1.366 . S
C975 C976 1.414 . S
C975 C978 1.499 . S
C976 H956 0.950 . S
C976 C975 1.414 . S
C976 C977 1.374 . S
C977 H957 0.950 . S
C977 C973 1.385 . S
C977 C976 1.374 . S
C978 C975 1.499 . S
C978 C979 1.373 . S
C978 C980 1.389 . S
C979 H958 0.950 . S
C979 C978 1.373 . S
C979 C995 1.377 . S
C980 C978 1.389 . S
C980 C981 1.524 . S
C980 C994 1.377 . S
C981 C980 1.524 . S
C981 C982 1.397 . S
C981 C986 1.363 . S
C982 H959 0.950 . S
C982 C981 1.397 . S
C982 C983 1.334 . S
C983 H960 0.950 . S
C983 C982 1.334 . S
C983 C984 1.287 . S
C984 C983 1.287 . S
C984 C985 1.524 . S
C984 H1003 0.913 . S
C985 H961 0.950 . S
C985 C984 1.524 . S
C985 C986 1.415 . S
C986 H962 0.950 . S
C986 C981 1.363 . S
C986 C985 1.415 . S
C987 H963 0.951 . S
C987 C988 1.366 . S
C987 C989 1.388 . S
C988 C987 1.366 . S
C988 C992 1.385 . S
C989 H964 0.951 . S
C989 C987 1.388 . S
C989 C990 1.366 . S
C990 C989 1.366 . S
C990 C991 1.414 . S
C990 C993 1.499 . S
C991 H965 0.950 . S
C991 C990 1.414 . S
C991 C992 1.374 . S
C992 H966 0.950 . S
C992 C988 1.385 . S
C992 C991 1.374 . S
C993 C990 1.499 . S
C993 C994 1.373 . S
C993 C995 1.389 . S
C994 H967 0.950 . S
C994 C980 1.377 . S
C994 C993 1.373 . S
C995 C979 1.377 . S
C995 C993 1.389 . S
C995 C996 1.524 . S
C996 C995 1.524 . S
C996 C997 1.397 . S
C996 C1001 1.363 . S
C997 H968 0.950 . S
C997 C996 1.397 . S
C997 C998 1.334 . S
C998 H969 0.950 . S
C998 C997 1.334 . S
C998 C999 1.287 . S
C999 C998 1.287 . S
C999 C1000 1.524 . S
C999 H1002 0.999 . S
C1000 H970 0.950 . S
C1000 C999 1.524 . S
C1000 C1001 1.415 . S
C1001 H971 0.950 . S
C1001 C996 1.363 . S
C1001 C1000 1.415 . S
H1002 C999 0.999 . S
H1003 C984 0.913 . S
H1004 C1022 0.951 . S
H1005 C1024 0.951 . S
H1006 C1026 0.950 . S
H1007 C1027 0.950 . S
H1008 C1029 0.950 . S
H1009 C1032 0.950 . S
H1010 C1033 0.950 1_545 S
H1011 C1035 0.950 . S
H1012 C1036 0.950 . S
H1013 C1037 0.951 . S
H1014 C1039 0.951 . S
H1015 C1041 0.950 1_565 S
H1016 C1042 0.950 1_565 S
H1017 C1044 0.950 1_565 S
H1018 C1047 0.950 . S
H1019 C1048 0.950 . S
H1020 C1050 0.950 . S
H1021 C1051 0.950 . S
C1022 H1004 0.951 . S
C1022 C1023 1.366 1_565 S
C1022 C1024 1.388 . S
C1023 C1022 1.366 1_545 S
C1023 C1027 1.385 . S
C1024 H1005 0.951 . S
C1024 C1022 1.388 . S
C1024 C1025 1.366 1_565 S
C1025 C1024 1.366 1_545 S
C1025 C1026 1.414 . S
C1025 C1028 1.499 . S
C1026 H1006 0.950 . S
C1026 C1025 1.414 . S
C1026 C1027 1.374 . S
C1027 H1007 0.950 . S
C1027 C1023 1.385 . S
C1027 C1026 1.374 . S
C1028 C1025 1.499 . S
C1028 C1029 1.373 . S
C1028 C1030 1.389 . S
C1029 H1008 0.950 . S
C1029 C1028 1.373 . S
C1029 C1045 1.377 . S
C1030 C1028 1.389 . S
C1030 C1031 1.524 1_545 S
C1030 C1044 1.377 . S
C1031 C1030 1.524 1_565 S
C1031 C1032 1.397 1_565 S
C1031 C1036 1.363 . S
C1032 H1009 0.950 . S
C1032 C1031 1.397 1_545 S
C1032 C1033 1.316 1_545 S
C1033 H1010 0.950 1_565 S
C1033 C1032 1.316 1_565 S
C1033 C1034 1.306 . S
C1034 C1033 1.306 . S
C1034 C1035 1.524 . S
C1034 H1053 0.913 . S
C1035 H1011 0.950 . S
C1035 C1034 1.524 . S
C1035 C1036 1.415 . S
C1036 H1012 0.950 . S
C1036 C1031 1.363 . S
C1036 C1035 1.415 . S
C1037 H1013 0.951 . S
C1037 C1038 1.366 . S
C1037 C1039 1.388 . S
C1038 C1037 1.366 . S
C1038 C1042 1.385 . S
C1039 H1014 0.951 . S
C1039 C1037 1.388 . S
C1039 C1040 1.366 . S
C1040 C1039 1.366 . S
C1040 C1041 1.414 . S
C1040 C1043 1.499 . S
C1041 H1015 0.950 1_545 S
C1041 C1040 1.414 . S
C1041 C1042 1.374 . S
C1042 H1016 0.950 1_545 S
C1042 C1038 1.385 . S
C1042 C1041 1.374 . S
C1043 C1040 1.499 . S
C1043 C1044 1.373 . S
C1043 C1045 1.389 . S
C1044 H1017 0.950 1_545 S
C1044 C1030 1.377 . S
C1044 C1043 1.373 . S
C1045 C1029 1.377 . S
C1045 C1043 1.389 . S
C1045 C1046 1.524 . S
C1046 C1045 1.524 . S
C1046 C1047 1.397 . S
C1046 C1051 1.363 . S
C1047 H1018 0.950 . S
C1047 C1046 1.397 . S
C1047 C1048 1.334 . S
C1048 H1019 0.950 . S
C1048 C1047 1.334 . S
C1048 C1049 1.287 . S
C1049 C1048 1.287 . S
C1049 C1050 1.524 . S
C1049 H1052 0.999 . S
C1050 H1020 0.950 . S
C1050 C1049 1.524 . S
C1050 C1051 1.415 . S
C1051 H1021 0.950 . S
C1051 C1046 1.363 . S
C1051 C1050 1.415 . S
H1052 C1049 0.999 . S
H1053 C1034 0.913 . S
H1054 C1072 0.951 . S
H1055 C1074 0.951 . S
H1056 C1076 0.950 . S
H1057 C1077 0.950 . S
H1058 C1079 0.950 1_655 S
H1059 C1082 0.950 1_655 S
H1060 C1083 0.921 1_655 S
H1061 C1085 0.950 . S
H1062 C1086 0.950 . S
H1063 C1087 0.951 . S
H1064 C1089 0.951 . S
H1065 C1091 0.950 . S
H1066 C1092 0.950 . S
H1067 C1094 0.950 . S
H1068 C1097 0.950 . S
H1069 C1098 0.950 . S
H1070 C1100 0.950 . S
H1071 C1101 0.950 . S
C1072 H1054 0.951 . S
C1072 C1073 1.366 . S
C1072 C1074 1.388 . S
C1073 C1072 1.366 . S
C1073 C1077 1.385 1_455 S
C1074 H1055 0.951 . S
C1074 C1072 1.388 . S
C1074 C1075 1.366 . S
C1075 C1074 1.366 . S
C1075 C1076 1.414 1_455 S
C1075 C1078 1.499 . S
C1076 H1056 0.950 . S
C1076 C1075 1.414 1_655 S
C1076 C1077 1.374 . S
C1077 H1057 0.950 . S
C1077 C1073 1.385 1_655 S
C1077 C1076 1.374 . S
C1078 C1075 1.499 . S
C1078 C1079 1.373 . S
C1078 C1080 1.389 . S
C1079 H1058 0.950 1_455 S
C1079 C1078 1.373 . S
C1079 C1095 1.377 . S
C1080 C1078 1.389 . S
C1080 C1081 1.524 . S
C1080 C1094 1.377 . S
C1081 C1080 1.524 . S
C1081 C1082 1.397 . S
C1081 C1086 1.363 . S
C1082 H1059 0.950 1_455 S
C1082 C1081 1.397 . S
C1082 C1083 1.334 . S
C1083 H1060 0.921 1_455 S
C1083 C1082 1.334 . S
C1083 C1084 1.287 . S
C1084 C1083 1.287 . S
C1084 C1085 1.524 . S
C1084 H1103 0.913 . S
C1085 H1061 0.950 . S
C1085 C1084 1.524 . S
C1085 C1086 1.415 . S
C1086 H1062 0.950 . S
C1086 C1081 1.363 . S
C1086 C1085 1.415 . S
C1087 H1063 0.951 . S
C1087 C1088 1.366 1_655 S
C1087 C1089 1.388 . S
C1088 C1087 1.366 1_455 S
C1088 C1092 1.385 . S
C1089 H1064 0.951 . S
C1089 C1087 1.388 . S
C1089 C1090 1.366 1_655 S
C1090 C1089 1.366 1_455 S
C1090 C1091 1.414 . S
C1090 C1093 1.499 . S
C1091 H1065 0.950 . S
C1091 C1090 1.414 . S
C1091 C1092 1.374 . S
C1092 H1066 0.950 . S
C1092 C1088 1.385 . S
C1092 C1091 1.374 . S
C1093 C1090 1.499 . S
C1093 C1094 1.373 . S
C1093 C1095 1.389 . S
C1094 H1067 0.950 . S
C1094 C1080 1.377 . S
C1094 C1093 1.373 . S
C1095 C1079 1.377 . S
C1095 C1093 1.389 . S
C1095 C1096 1.524 1_455 S
C1096 C1095 1.524 1_655 S
C1096 C1097 1.397 1_655 S
C1096 C1101 1.363 . S
C1097 H1068 0.950 . S
C1097 C1096 1.397 1_455 S
C1097 C1098 1.334 . S
C1098 H1069 0.950 . S
C1098 C1097 1.334 . S
C1098 C1099 1.287 1_455 S
C1099 C1098 1.287 1_655 S
C1099 C1100 1.524 . S
C1099 H1102 0.999 . S
C1100 H1070 0.950 . S
C1100 C1099 1.524 . S
C1100 C1101 1.415 . S
C1101 H1071 0.950 . S
C1101 C1096 1.363 . S
C1101 C1100 1.415 . S
H1102 C1099 0.999 . S
H1103 C1084 0.913 . S
H1104 C1122 0.951 . S
H1105 C1124 0.951 . S
H1106 C1126 0.950 . S
H1107 C1127 0.950 . S
H1108 C1129 0.950 . S
H1109 C1132 0.950 . S
H1110 C1133 0.950 . S
H1111 C1135 0.950 . S
H1112 C1136 0.950 . S
H1113 C1137 0.951 . S
H1114 C1139 0.951 . S
H1115 C1141 0.950 . S
H1116 C1142 0.950 . S
H1117 C1144 0.950 . S
H1118 C1147 0.950 . S
H1119 C1148 0.950 . S
H1120 C1150 0.950 . S
H1121 C1151 0.950 . S
C1122 H1104 0.951 . S
C1122 C1123 1.366 . S
C1122 C1124 1.388 . S
C1123 C1122 1.366 . S
C1123 C1127 1.385 . S
C1124 H1105 0.951 . S
C1124 C1122 1.388 . S
C1124 C1125 1.366 . S
C1125 C1124 1.366 . S
C1125 C1126 1.414 . S
C1125 C1128 1.499 . S
C1126 H1106 0.950 . S
C1126 C1125 1.414 . S
C1126 C1127 1.374 . S
C1127 H1107 0.950 . S
C1127 C1123 1.385 . S
C1127 C1126 1.374 . S
C1128 C1125 1.499 . S
C1128 C1129 1.373 . S
C1128 C1130 1.389 . S
C1129 H1108 0.950 . S
C1129 C1128 1.373 . S
C1129 C1145 1.377 . S
C1130 C1128 1.389 . S
C1130 C1131 1.524 . S
C1130 C1144 1.377 . S
C1131 C1130 1.524 . S
C1131 C1132 1.397 . S
C1131 C1136 1.363 . S
C1132 H1109 0.950 . S
C1132 C1131 1.397 . S
C1132 C1133 1.334 . S
C1133 H1110 0.950 . S
C1133 C1132 1.334 . S
C1133 C1134 1.287 . S
C1134 C1133 1.287 . S
C1134 C1135 1.524 . S
C1134 H1153 0.913 . S
C1135 H1111 0.950 . S
C1135 C1134 1.524 . S
C1135 C1136 1.415 . S
C1136 H1112 0.950 . S
C1136 C1131 1.363 . S
C1136 C1135 1.415 . S
C1137 H1113 0.951 . S
C1137 C1138 1.366 . S
C1137 C1139 1.388 . S
C1138 C1137 1.366 . S
C1138 C1142 1.385 . S
C1139 H1114 0.951 . S
C1139 C1137 1.388 . S
C1139 C1140 1.366 . S
C1140 C1139 1.366 . S
C1140 C1141 1.414 . S
C1140 C1143 1.499 . S
C1141 H1115 0.950 . S
C1141 C1140 1.414 . S
C1141 C1142 1.374 . S
C1142 H1116 0.950 . S
C1142 C1138 1.385 . S
C1142 C1141 1.374 . S
C1143 C1140 1.499 . S
C1143 C1144 1.373 . S
C1143 C1145 1.389 . S
C1144 H1117 0.950 . S
C1144 C1130 1.377 . S
C1144 C1143 1.373 . S
C1145 C1129 1.377 . S
C1145 C1143 1.389 . S
C1145 C1146 1.524 . S
C1146 C1145 1.524 . S
C1146 C1147 1.397 . S
C1146 C1151 1.363 . S
C1147 H1118 0.950 . S
C1147 C1146 1.397 . S
C1147 C1148 1.334 . S
C1148 H1119 0.950 . S
C1148 C1147 1.334 . S
C1148 C1149 1.287 . S
C1149 C1148 1.287 . S
C1149 C1150 1.524 . S
C1149 H1152 0.999 . S
C1150 H1120 0.950 . S
C1150 C1149 1.524 . S
C1150 C1151 1.415 . S
C1151 H1121 0.950 . S
C1151 C1146 1.363 . S
C1151 C1150 1.415 . S
H1152 C1149 0.999 . S
H1153 C1134 0.913 . S
H1154 C1172 0.951 . S
H1155 C1174 0.951 . S
H1156 C1176 0.950 . S
H1157 C1177 0.950 . S
H1158 C1179 0.950 . S
H1159 C1182 0.950 . S
H1160 C1183 0.950 . S
H1161 C1185 0.950 . S
H1162 C1186 0.950 . S
H1163 C1187 0.951 . S
H1164 C1189 0.951 . S
H1165 C1191 0.950 . S
H1166 C1192 0.950 . S
H1167 C1194 0.950 . S
H1168 C1197 0.950 . S
H1169 C1198 0.950 . S
H1170 C1200 0.950 . S
H1171 C1201 0.950 . S
C1172 H1154 0.951 . S
C1172 C1173 1.366 . S
C1172 C1174 1.388 . S
C1173 C1172 1.366 . S
C1173 C1177 1.385 . S
C1174 H1155 0.951 . S
C1174 C1172 1.388 . S
C1174 C1175 1.366 . S
C1175 C1174 1.366 . S
C1175 C1176 1.414 . S
C1175 C1178 1.499 . S
C1176 H1156 0.950 . S
C1176 C1175 1.414 . S
C1176 C1177 1.374 . S
C1177 H1157 0.950 . S
C1177 C1173 1.385 . S
C1177 C1176 1.374 . S
C1178 C1175 1.499 . S
C1178 C1179 1.373 . S
C1178 C1180 1.389 . S
C1179 H1158 0.950 . S
C1179 C1178 1.373 . S
C1179 C1195 1.377 . S
C1180 C1178 1.389 . S
C1180 C1181 1.524 . S
C1180 C1194 1.377 . S
C1181 C1180 1.524 . S
C1181 C1182 1.397 . S
C1181 C1186 1.363 . S
C1182 H1159 0.950 . S
C1182 C1181 1.397 . S
C1182 C1183 1.334 . S
C1183 H1160 0.950 . S
C1183 C1182 1.334 . S
C1183 C1184 1.287 . S
C1184 C1183 1.287 . S
C1184 C1185 1.524 . S
C1184 H1203 0.913 . S
C1185 H1161 0.950 . S
C1185 C1184 1.524 . S
C1185 C1186 1.415 . S
C1186 H1162 0.950 . S
C1186 C1181 1.363 . S
C1186 C1185 1.415 . S
C1187 H1163 0.951 . S
C1187 C1188 1.366 . S
C1187 C1189 1.388 . S
C1188 C1187 1.366 . S
C1188 C1192 1.385 . S
C1189 H1164 0.951 . S
C1189 C1187 1.388 . S
C1189 C1190 1.366 . S
C1190 C1189 1.366 . S
C1190 C1191 1.414 . S
C1190 C1193 1.499 . S
C1191 H1165 0.950 . S
C1191 C1190 1.414 . S
C1191 C1192 1.374 . S
C1192 H1166 0.950 . S
C1192 C1188 1.385 . S
C1192 C1191 1.374 . S
C1193 C1190 1.499 . S
C1193 C1194 1.373 . S
C1193 C1195 1.389 . S
C1194 H1167 0.950 . S
C1194 C1180 1.377 . S
C1194 C1193 1.373 . S
C1195 C1179 1.377 . S
C1195 C1193 1.389 . S
C1195 C1196 1.524 . S
C1196 C1195 1.524 . S
C1196 C1197 1.397 . S
C1196 C1201 1.363 . S
C1197 H1168 0.950 . S
C1197 C1196 1.397 . S
C1197 C1198 1.334 . S
C1198 H1169 0.950 . S
C1198 C1197 1.334 . S
C1198 C1199 1.287 . S
C1199 C1198 1.287 . S
C1199 C1200 1.524 . S
C1199 H1202 0.999 . S
C1200 H1170 0.950 . S
C1200 C1199 1.524 . S
C1200 C1201 1.415 . S
C1201 H1171 0.950 . S
C1201 C1196 1.363 . S
C1201 C1200 1.415 . S
H1202 C1199 0.999 . S
H1203 C1184 0.913 . S
H1204 C1222 0.951 . S
H1205 C1224 0.951 . S
H1206 C1226 0.950 . S
H1207 C1227 0.950 . S
H1208 C1229 0.950 . S
H1209 C1232 0.950 . S
H1210 C1233 0.950 . S
H1211 C1235 0.950 . S
H1212 C1236 0.950 . S
H1213 C1237 0.951 . S
H1214 C1239 0.951 . S
H1215 C1241 0.950 . S
H1216 C1242 0.950 . S
H1217 C1244 0.950 . S
H1218 C1247 0.950 . S
H1219 C1248 0.950 . S
H1220 C1250 0.950 . S
H1221 C1251 0.950 . S
C1222 H1204 0.951 . S
C1222 C1223 1.366 . S
C1222 C1224 1.388 . S
C1223 C1222 1.366 . S
C1223 C1227 1.385 . S
C1224 H1205 0.951 . S
C1224 C1222 1.388 . S
C1224 C1225 1.366 . S
C1225 C1224 1.366 . S
C1225 C1226 1.414 . S
C1225 C1228 1.499 . S
C1226 H1206 0.950 . S
C1226 C1225 1.414 . S
C1226 C1227 1.374 . S
C1227 H1207 0.950 . S
C1227 C1223 1.385 . S
C1227 C1226 1.374 . S
C1228 C1225 1.499 . S
C1228 C1229 1.373 . S
C1228 C1230 1.389 . S
C1229 H1208 0.950 . S
C1229 C1228 1.373 . S
C1229 C1245 1.377 . S
C1230 C1228 1.389 . S
C1230 C1231 1.524 . S
C1230 C1244 1.377 . S
C1231 C1230 1.524 . S
C1231 C1232 1.397 . S
C1231 C1236 1.363 . S
C1232 H1209 0.950 . S
C1232 C1231 1.397 . S
C1232 C1233 1.334 . S
C1233 H1210 0.950 . S
C1233 C1232 1.334 . S
C1233 C1234 1.287 . S
C1234 C1233 1.287 . S
C1234 C1235 1.524 . S
C1234 H1253 0.913 . S
C1235 H1211 0.950 . S
C1235 C1234 1.524 . S
C1235 C1236 1.415 . S
C1236 H1212 0.950 . S
C1236 C1231 1.363 . S
C1236 C1235 1.415 . S
C1237 H1213 0.951 . S
C1237 C1238 1.366 . S
C1237 C1239 1.388 . S
C1238 C1237 1.366 . S
C1238 C1242 1.385 . S
C1239 H1214 0.951 . S
C1239 C1237 1.388 . S
C1239 C1240 1.366 . S
C1240 C1239 1.366 . S
C1240 C1241 1.414 . S
C1240 C1243 1.499 . S
C1241 H1215 0.950 . S
C1241 C1240 1.414 . S
C1241 C1242 1.374 . S
C1242 H1216 0.950 . S
C1242 C1238 1.385 . S
C1242 C1241 1.374 . S
C1243 C1240 1.499 . S
C1243 C1244 1.373 . S
C1243 C1245 1.389 . S
C1244 H1217 0.950 . S
C1244 C1230 1.377 . S
C1244 C1243 1.373 . S
C1245 C1229 1.377 . S
C1245 C1243 1.389 . S
C1245 C1246 1.524 . S
C1246 C1245 1.524 . S
C1246 C1247 1.397 . S
C1246 C1251 1.363 . S
C1247 H1218 0.950 . S
C1247 C1246 1.397 . S
C1247 C1248 1.334 . S
C1248 H1219 0.950 . S
C1248 C1247 1.334 . S
C1248 C1249 1.287 . S
C1249 C1248 1.287 . S
C1249 C1250 1.524 . S
C1249 H1252 0.999 . S
C1250 H1220 0.950 . S
C1250 C1249 1.524 . S
C1250 C1251 1.415 . S
C1251 H1221 0.950 . S
C1251 C1246 1.363 . S
C1251 C1250 1.415 . S
H1252 C1249 0.999 . S
H1253 C1234 0.913 . S
H1254 C1272 0.951 . S
H1255 C1274 0.951 . S
H1256 C1276 0.950 . S
H1257 C1277 0.950 . S
H1258 C1279 0.950 . S
H1259 C1282 0.950 . S
H1260 C1283 0.950 . S
H1261 C1285 0.950 . S
H1262 C1286 0.950 . S
H1263 C1287 0.951 . S
H1264 C1289 0.951 . S
H1265 C1291 0.950 . S
H1266 C1292 0.950 . S
H1267 C1294 0.950 . S
H1268 C1297 0.950 . S
H1269 C1298 0.950 . S
H1270 C1300 0.950 . S
H1271 C1301 0.950 . S
C1272 H1254 0.951 . S
C1272 C1273 1.366 . S
C1272 C1274 1.388 . S
C1273 C1272 1.366 . S
C1273 C1277 1.385 . S
C1274 H1255 0.951 . S
C1274 C1272 1.388 . S
C1274 C1275 1.366 . S
C1275 C1274 1.366 . S
C1275 C1276 1.414 . S
C1275 C1278 1.499 . S
C1276 H1256 0.950 . S
C1276 C1275 1.414 . S
C1276 C1277 1.374 . S
C1277 H1257 0.950 . S
C1277 C1273 1.385 . S
C1277 C1276 1.374 . S
C1278 C1275 1.499 . S
C1278 C1279 1.373 . S
C1278 C1280 1.389 . S
C1279 H1258 0.950 . S
C1279 C1278 1.373 . S
C1279 C1295 1.377 . S
C1280 C1278 1.389 . S
C1280 C1281 1.524 . S
C1280 C1294 1.377 . S
C1281 C1280 1.524 . S
C1281 C1282 1.397 . S
C1281 C1286 1.363 . S
C1282 H1259 0.950 . S
C1282 C1281 1.397 . S
C1282 C1283 1.334 . S
C1283 H1260 0.950 . S
C1283 C1282 1.334 . S
C1283 C1284 1.287 . S
C1284 C1283 1.287 . S
C1284 C1285 1.524 . S
C1284 H1303 0.913 . S
C1285 H1261 0.950 . S
C1285 C1284 1.524 . S
C1285 C1286 1.415 . S
C1286 H1262 0.950 . S
C1286 C1281 1.363 . S
C1286 C1285 1.415 . S
C1287 H1263 0.951 . S
C1287 C1288 1.366 . S
C1287 C1289 1.388 . S
C1288 C1287 1.366 . S
C1288 C1292 1.385 . S
C1289 H1264 0.951 . S
C1289 C1287 1.388 . S
C1289 C1290 1.366 . S
C1290 C1289 1.366 . S
C1290 C1291 1.414 . S
C1290 C1293 1.499 . S
C1291 H1265 0.950 . S
C1291 C1290 1.414 . S
C1291 C1292 1.374 . S
C1292 H1266 0.950 . S
C1292 C1288 1.385 . S
C1292 C1291 1.374 . S
C1293 C1290 1.499 . S
C1293 C1294 1.373 . S
C1293 C1295 1.389 . S
C1294 H1267 0.950 . S
C1294 C1280 1.377 . S
C1294 C1293 1.373 . S
C1295 C1279 1.377 . S
C1295 C1293 1.389 . S
C1295 C1296 1.524 . S
C1296 C1295 1.524 . S
C1296 C1297 1.397 . S
C1296 C1301 1.363 . S
C1297 H1268 0.950 . S
C1297 C1296 1.397 . S
C1297 C1298 1.334 . S
C1298 H1269 0.950 . S
C1298 C1297 1.334 . S
C1298 C1299 1.287 . S
C1299 C1298 1.287 . S
C1299 C1300 1.524 . S
C1299 H1302 0.999 . S
C1300 H1270 0.950 . S
C1300 C1299 1.524 . S
C1300 C1301 1.415 . S
C1301 H1271 0.950 . S
C1301 C1296 1.363 . S
C1301 C1300 1.415 . S
H1302 C1299 0.999 . S
H1303 C1284 0.913 . S
H1304 C1322 0.951 . S
H1305 C1324 0.951 . S
H1306 C1326 0.950 . S
H1307 C1327 0.950 . S
H1308 C1329 0.950 . S
H1309 C1332 0.950 . S
H1310 C1333 0.950 . S
H1311 C1335 0.950 . S
H1312 C1336 0.950 . S
H1313 C1337 0.951 . S
H1314 C1339 0.951 . S
H1315 C1341 0.950 . S
H1316 C1342 0.950 . S
H1317 C1344 0.950 . S
H1318 C1347 0.950 . S
H1319 C1348 0.950 . S
H1320 C1350 0.950 . S
H1321 C1351 0.950 . S
C1322 H1304 0.951 . S
C1322 C1323 1.366 . S
C1322 C1324 1.388 . S
C1323 C1322 1.366 . S
C1323 C1327 1.385 . S
C1324 H1305 0.951 . S
C1324 C1322 1.388 . S
C1324 C1325 1.366 . S
C1325 C1324 1.366 . S
C1325 C1326 1.414 . S
C1325 C1328 1.499 . S
C1326 H1306 0.950 . S
C1326 C1325 1.414 . S
C1326 C1327 1.374 . S
C1327 H1307 0.950 . S
C1327 C1323 1.385 . S
C1327 C1326 1.374 . S
C1328 C1325 1.499 . S
C1328 C1329 1.373 . S
C1328 C1330 1.389 . S
C1329 H1308 0.950 . S
C1329 C1328 1.373 . S
C1329 C1345 1.377 . S
C1330 C1328 1.389 . S
C1330 C1331 1.524 . S
C1330 C1344 1.377 . S
C1331 C1330 1.524 . S
C1331 C1332 1.397 . S
C1331 C1336 1.363 . S
C1332 H1309 0.950 . S
C1332 C1331 1.397 . S
C1332 C1333 1.334 . S
C1333 H1310 0.950 . S
C1333 C1332 1.334 . S
C1333 C1334 1.287 . S
C1334 C1333 1.287 . S
C1334 C1335 1.524 . S
C1334 H1353 0.913 . S
C1335 H1311 0.950 . S
C1335 C1334 1.524 . S
C1335 C1336 1.415 . S
C1336 H1312 0.950 . S
C1336 C1331 1.363 . S
C1336 C1335 1.415 . S
C1337 H1313 0.951 . S
C1337 C1338 1.366 . S
C1337 C1339 1.388 . S
C1338 C1337 1.366 . S
C1338 C1342 1.385 . S
C1339 H1314 0.951 . S
C1339 C1337 1.388 . S
C1339 C1340 1.366 . S
C1340 C1339 1.366 . S
C1340 C1341 1.414 . S
C1340 C1343 1.499 . S
C1341 H1315 0.950 . S
C1341 C1340 1.414 . S
C1341 C1342 1.374 . S
C1342 H1316 0.950 . S
C1342 C1338 1.385 . S
C1342 C1341 1.374 . S
C1343 C1340 1.499 . S
C1343 C1344 1.373 . S
C1343 C1345 1.389 . S
C1344 H1317 0.950 . S
C1344 C1330 1.377 . S
C1344 C1343 1.373 . S
C1345 C1329 1.377 . S
C1345 C1343 1.389 . S
C1345 C1346 1.524 . S
C1346 C1345 1.524 . S
C1346 C1347 1.397 . S
C1346 C1351 1.363 . S
C1347 H1318 0.950 . S
C1347 C1346 1.397 . S
C1347 C1348 1.334 . S
C1348 H1319 0.950 . S
C1348 C1347 1.334 . S
C1348 C1349 1.287 . S
C1349 C1348 1.287 . S
C1349 C1350 1.524 . S
C1349 H1352 0.999 . S
C1350 H1320 0.950 . S
C1350 C1349 1.524 . S
C1350 C1351 1.415 . S
C1351 H1321 0.950 . S
C1351 C1346 1.363 . S
C1351 C1350 1.415 . S
H1352 C1349 0.999 . S
H1353 C1334 0.913 . S
H1354 C1372 0.951 . S
H1355 C1374 0.951 . S
H1356 C1376 0.950 . S
H1357 C1377 0.950 . S
H1358 C1379 0.950 . S
H1359 C1382 0.950 . S
H1360 C1383 0.950 . S
H1361 C1385 0.950 . S
H1362 C1386 0.950 . S
H1363 C1387 0.951 . S
H1364 C1389 0.951 . S
H1365 C1391 0.950 . S
H1366 C1392 0.950 . S
H1367 C1394 0.950 . S
H1368 C1397 0.950 . S
H1369 C1398 0.950 . S
H1370 C1400 0.950 . S
H1371 C1401 0.950 . S
C1372 H1354 0.951 . S
C1372 C1373 1.366 . S
C1372 C1374 1.388 . S
C1373 C1372 1.366 . S
C1373 C1377 1.385 . S
C1374 H1355 0.951 . S
C1374 C1372 1.388 . S
C1374 C1375 1.366 . S
C1375 C1374 1.366 . S
C1375 C1376 1.414 . S
C1375 C1378 1.499 . S
C1376 H1356 0.950 . S
C1376 C1375 1.414 . S
C1376 C1377 1.374 . S
C1377 H1357 0.950 . S
C1377 C1373 1.385 . S
C1377 C1376 1.374 . S
C1378 C1375 1.499 . S
C1378 C1379 1.373 . S
C1378 C1380 1.389 . S
C1379 H1358 0.950 . S
C1379 C1378 1.373 . S
C1379 C1395 1.377 . S
C1380 C1378 1.389 . S
C1380 C1381 1.524 . S
C1380 C1394 1.377 . S
C1381 C1380 1.524 . S
C1381 C1382 1.397 . S
C1381 C1386 1.363 . S
C1382 H1359 0.950 . S
C1382 C1381 1.397 . S
C1382 C1383 1.334 . S
C1383 H1360 0.950 . S
C1383 C1382 1.334 . S
C1383 C1384 1.287 . S
C1384 C1383 1.287 . S
C1384 C1385 1.524 . S
C1384 H1403 0.913 . S
C1385 H1361 0.950 . S
C1385 C1384 1.524 . S
C1385 C1386 1.415 . S
C1386 H1362 0.950 . S
C1386 C1381 1.363 . S
C1386 C1385 1.415 . S
C1387 H1363 0.951 . S
C1387 C1388 1.366 . S
C1387 C1389 1.388 . S
C1388 C1387 1.366 . S
C1388 C1392 1.385 . S
C1389 H1364 0.951 . S
C1389 C1387 1.388 . S
C1389 C1390 1.366 . S
C1390 C1389 1.366 . S
C1390 C1391 1.414 . S
C1390 C1393 1.499 . S
C1391 H1365 0.950 . S
C1391 C1390 1.414 . S
C1391 C1392 1.374 . S
C1392 H1366 0.950 . S
C1392 C1388 1.385 . S
C1392 C1391 1.374 . S
C1393 C1390 1.499 . S
C1393 C1394 1.373 . S
C1393 C1395 1.389 . S
C1394 H1367 0.950 . S
C1394 C1380 1.377 . S
C1394 C1393 1.373 . S
C1395 C1379 1.377 . S
C1395 C1393 1.389 . S
C1395 C1396 1.524 . S
C1396 C1395 1.524 . S
C1396 C1397 1.397 . S
C1396 C1401 1.363 . S
C1397 H1368 0.950 . S
C1397 C1396 1.397 . S
C1397 C1398 1.334 . S
C1398 H1369 0.950 . S
C1398 C1397 1.334 . S
C1398 C1399 1.287 . S
C1399 C1398 1.287 . S
C1399 C1400 1.524 . S
C1399 H1402 0.999 . S
C1400 H1370 0.950 . S
C1400 C1399 1.524 . S
C1400 C1401 1.415 . S
C1401 H1371 0.950 . S
C1401 C1396 1.363 . S
C1401 C1400 1.415 . S
H1402 C1399 0.999 . S
H1403 C1384 0.913 . S
H1404 C1422 0.951 . S
H1405 C1424 0.951 . S
H1406 C1426 0.950 . S
H1407 C1427 0.950 . S
H1408 C1429 0.950 . S
H1409 C1432 0.950 . S
H1410 C1433 0.950 . S
H1411 C1435 0.950 . S
H1412 C1436 0.950 . S
H1413 C1437 0.951 . S
H1414 C1439 0.951 . S
H1415 C1441 0.950 . S
H1416 C1442 0.950 . S
H1417 C1444 0.950 . S
H1418 C1447 0.950 . S
H1419 C1448 0.950 . S
H1420 C1450 0.950 . S
H1421 C1451 0.950 . S
C1422 H1404 0.951 . S
C1422 C1423 1.366 . S
C1422 C1424 1.388 . S
C1423 C1422 1.366 . S
C1423 C1427 1.385 . S
C1424 H1405 0.951 . S
C1424 C1422 1.388 . S
C1424 C1425 1.366 . S
C1425 C1424 1.366 . S
C1425 C1426 1.414 . S
C1425 C1428 1.499 . S
C1426 H1406 0.950 . S
C1426 C1425 1.414 . S
C1426 C1427 1.374 . S
C1427 H1407 0.950 . S
C1427 C1423 1.385 . S
C1427 C1426 1.374 . S
C1428 C1425 1.499 . S
C1428 C1429 1.373 . S
C1428 C1430 1.389 . S
C1429 H1408 0.950 . S
C1429 C1428 1.373 . S
C1429 C1445 1.377 . S
C1430 C1428 1.389 . S
C1430 C1431 1.524 . S
C1430 C1444 1.377 . S
C1431 C1430 1.524 . S
C1431 C1432 1.397 . S
C1431 C1436 1.363 . S
C1432 H1409 0.950 . S
C1432 C1431 1.397 . S
C1432 C1433 1.334 . S
C1433 H1410 0.950 . S
C1433 C1432 1.334 . S
C1433 C1434 1.287 . S
C1434 C1433 1.287 . S
C1434 C1435 1.524 . S
C1434 H1453 0.913 . S
C1435 H1411 0.950 . S
C1435 C1434 1.524 . S
C1435 C1436 1.415 . S
C1436 H1412 0.950 . S
C1436 C1431 1.363 . S
C1436 C1435 1.415 . S
C1437 H1413 0.951 . S
C1437 C1438 1.366 . S
C1437 C1439 1.388 . S
C1438 C1437 1.366 . S
C1438 C1442 1.385 . S
C1439 H1414 0.951 . S
C1439 C1437 1.388 . S
C1439 C1440 1.366 . S
C1440 C1439 1.366 . S
C1440 C1441 1.414 . S
C1440 C1443 1.499 . S
C1441 H1415 0.950 . S
C1441 C1440 1.414 . S
C1441 C1442 1.374 . S
C1442 H1416 0.950 . S
C1442 C1438 1.385 . S
C1442 C1441 1.374 . S
C1443 C1440 1.499 . S
C1443 C1444 1.373 . S
C1443 C1445 1.389 . S
C1444 H1417 0.950 . S
C1444 C1430 1.377 . S
C1444 C1443 1.373 . S
C1445 C1429 1.377 . S
C1445 C1443 1.389 . S
C1445 C1446 1.524 . S
C1446 C1445 1.524 . S
C1446 C1447 1.397 . S
C1446 C1451 1.363 . S
C1447 H1418 0.950 . S
C1447 C1446 1.397 . S
C1447 C1448 1.334 . S
C1448 H1419 0.950 . S
C1448 C1447 1.334 . S
C1448 C1449 1.287 . S
C1449 C1448 1.287 . S
C1449 C1450 1.524 . S
C1449 H1452 0.999 . S
C1450 H1420 0.950 . S
C1450 C1449 1.524 . S
C1450 C1451 1.415 . S
C1451 H1421 0.950 . S
C1451 C1446 1.363 . S
C1451 C1450 1.415 . S
H1452 C1449 0.999 . S
H1453 C1434 0.913 . S
H1454 C1472 0.951 . S
H1455 C1474 0.951 . S
H1456 C1476 0.950 . S
H1457 C1477 0.950 . S
H1458 C1479 0.950 . S
H1459 C1482 0.950 . S
H1460 C1483 0.950 . S
H1461 C1485 0.950 . S
H1462 C1486 0.950 . S
H1463 C1487 0.951 . S
H1464 C1489 0.951 . S
H1465 C1491 0.950 . S
H1466 C1492 0.950 . S
H1467 C1494 0.950 . S
H1468 C1497 0.950 . S
H1469 C1498 0.950 . S
H1470 C1500 0.950 . S
H1471 C1501 0.950 . S
C1472 H1454 0.951 . S
C1472 C1473 1.366 . S
C1472 C1474 1.388 . S
C1473 C1472 1.366 . S
C1473 C1477 1.385 . S
C1474 H1455 0.951 . S
C1474 C1472 1.388 . S
C1474 C1475 1.366 . S
C1475 C1474 1.366 . S
C1475 C1476 1.414 . S
C1475 C1478 1.499 . S
C1476 H1456 0.950 . S
C1476 C1475 1.414 . S
C1476 C1477 1.374 . S
C1477 H1457 0.950 . S
C1477 C1473 1.385 . S
C1477 C1476 1.374 . S
C1478 C1475 1.499 . S
C1478 C1479 1.373 . S
C1478 C1480 1.389 . S
C1479 H1458 0.950 . S
C1479 C1478 1.373 . S
C1479 C1495 1.377 . S
C1480 C1478 1.389 . S
C1480 C1481 1.524 . S
C1480 C1494 1.377 . S
C1481 C1480 1.524 . S
C1481 C1482 1.397 . S
C1481 C1486 1.363 . S
C1482 H1459 0.950 . S
C1482 C1481 1.397 . S
C1482 C1483 1.334 . S
C1483 H1460 0.950 . S
C1483 C1482 1.334 . S
C1483 C1484 1.287 . S
C1484 C1483 1.287 . S
C1484 C1485 1.524 . S
C1484 H1503 0.913 . S
C1485 H1461 0.950 . S
C1485 C1484 1.524 . S
C1485 C1486 1.415 . S
C1486 H1462 0.950 . S
C1486 C1481 1.363 . S
C1486 C1485 1.415 . S
C1487 H1463 0.951 . S
C1487 C1488 1.366 . S
C1487 C1489 1.388 . S
C1488 C1487 1.366 . S
C1488 C1492 1.385 . S
C1489 H1464 0.951 . S
C1489 C1487 1.388 . S
C1489 C1490 1.366 . S
C1490 C1489 1.366 . S
C1490 C1491 1.414 . S
C1490 C1493 1.499 . S
C1491 H1465 0.950 . S
C1491 C1490 1.414 . S
C1491 C1492 1.374 . S
C1492 H1466 0.950 . S
C1492 C1488 1.385 . S
C1492 C1491 1.374 . S
C1493 C1490 1.499 . S
C1493 C1494 1.373 . S
C1493 C1495 1.389 . S
C1494 H1467 0.950 . S
C1494 C1480 1.377 . S
C1494 C1493 1.373 . S
C1495 C1479 1.377 . S
C1495 C1493 1.389 . S
C1495 C1496 1.524 . S
C1496 C1495 1.524 . S
C1496 C1497 1.397 . S
C1496 C1501 1.363 . S
C1497 H1468 0.950 . S
C1497 C1496 1.397 . S
C1497 C1498 1.334 . S
C1498 H1469 0.950 . S
C1498 C1497 1.334 . S
C1498 C1499 1.287 . S
C1499 C1498 1.287 . S
C1499 C1500 1.524 . S
C1499 H1502 0.999 . S
C1500 H1470 0.950 . S
C1500 C1499 1.524 . S
C1500 C1501 1.415 . S
C1501 H1471 0.950 . S
C1501 C1496 1.363 . S
C1501 C1500 1.415 . S
H1502 C1499 0.999 . S
H1503 C1484 0.913 . S
H1504 C1522 0.951 . S
H1505 C1524 0.951 . S
H1506 C1526 0.950 . S
H1507 C1527 0.950 . S
H1508 C1529 0.950 . S
H1509 C1532 0.950 . S
H1510 C1533 0.950 . S
H1511 C1535 0.950 . S
H1512 C1536 0.950 . S
H1513 C1537 0.951 . S
H1514 C1539 0.951 . S
H1515 C1541 0.950 . S
H1516 C1542 0.950 . S
H1517 C1544 0.950 . S
H1518 C1547 0.950 . S
H1519 C1548 0.950 . S
H1520 C1550 0.950 . S
H1521 C1551 0.950 . S
C1522 H1504 0.951 . S
C1522 C1523 1.366 . S
C1522 C1524 1.388 . S
C1523 C1522 1.366 . S
C1523 C1527 1.385 . S
C1524 H1505 0.951 . S
C1524 C1522 1.388 . S
C1524 C1525 1.366 . S
C1525 C1524 1.366 . S
C1525 C1526 1.414 . S
C1525 C1528 1.499 . S
C1526 H1506 0.950 . S
C1526 C1525 1.414 . S
C1526 C1527 1.374 . S
C1527 H1507 0.950 . S
C1527 C1523 1.385 . S
C1527 C1526 1.374 . S
C1528 C1525 1.499 . S
C1528 C1529 1.373 . S
C1528 C1530 1.389 . S
C1529 H1508 0.950 . S
C1529 C1528 1.373 . S
C1529 C1545 1.377 . S
C1530 C1528 1.389 . S
C1530 C1531 1.524 . S
C1530 C1544 1.377 . S
C1531 C1530 1.524 . S
C1531 C1532 1.397 . S
C1531 C1536 1.363 . S
C1532 H1509 0.950 . S
C1532 C1531 1.397 . S
C1532 C1533 1.334 . S
C1533 H1510 0.950 . S
C1533 C1532 1.334 . S
C1533 C1534 1.287 . S
C1534 C1533 1.287 . S
C1534 C1535 1.524 . S
C1534 H1553 0.913 . S
C1535 H1511 0.950 . S
C1535 C1534 1.524 . S
C1535 C1536 1.415 . S
C1536 H1512 0.950 . S
C1536 C1531 1.363 . S
C1536 C1535 1.415 . S
C1537 H1513 0.951 . S
C1537 C1538 1.366 . S
C1537 C1539 1.388 . S
C1538 C1537 1.366 . S
C1538 C1542 1.385 . S
C1539 H1514 0.951 . S
C1539 C1537 1.388 . S
C1539 C1540 1.366 . S
C1540 C1539 1.366 . S
C1540 C1541 1.414 . S
C1540 C1543 1.499 . S
C1541 H1515 0.950 . S
C1541 C1540 1.414 . S
C1541 C1542 1.374 . S
C1542 H1516 0.950 . S
C1542 C1538 1.385 . S
C1542 C1541 1.374 . S
C1543 C1540 1.499 . S
C1543 C1544 1.373 . S
C1543 C1545 1.389 . S
C1544 H1517 0.950 . S
C1544 C1530 1.377 . S
C1544 C1543 1.373 . S
C1545 C1529 1.377 . S
C1545 C1543 1.389 . S
C1545 C1546 1.524 . S
C1546 C1545 1.524 . S
C1546 C1547 1.397 . S
C1546 C1551 1.363 . S
C1547 H1518 0.950 . S
C1547 C1546 1.397 . S
C1547 C1548 1.334 . S
C1548 H1519 0.950 . S
C1548 C1547 1.334 . S
C1548 C1549 1.287 . S
C1549 C1548 1.287 . S
C1549 C1550 1.524 . S
C1549 H1552 0.999 . S
C1550 H1520 0.950 . S
C1550 C1549 1.524 . S
C1550 C1551 1.415 . S
C1551 H1521 0.950 . S
C1551 C1546 1.363 . S
C1551 C1550 1.415 . S
H1552 C1549 0.999 . S
H1553 C1534 0.913 . S
H1554 C1572 0.951 . S
H1555 C1574 0.951 . S
H1556 C1576 0.950 . S
H1557 C1577 0.950 . S
H1558 C1579 0.950 . S
H1559 C1582 0.950 . S
H1560 C1583 0.950 . S
H1561 C1585 0.950 . S
H1562 C1586 0.950 . S
H1563 C1587 0.951 . S
H1564 C1589 0.951 . S
H1565 C1591 0.950 . S
H1566 C1592 0.950 . S
H1567 C1594 0.950 . S
H1568 C1597 0.950 . S
H1569 C1598 0.950 . S
H1570 C1600 0.943 1_556 S
H1571 C1601 0.950 . S
C1572 H1554 0.951 . S
C1572 C1573 1.366 . S
C1572 C1574 1.388 . S
C1573 C1572 1.366 . S
C1573 C1577 1.385 . S
C1574 H1555 0.951 . S
C1574 C1572 1.388 . S
C1574 C1575 1.366 . S
C1575 C1574 1.366 . S
C1575 C1576 1.414 . S
C1575 C1578 1.499 . S
C1576 H1556 0.950 . S
C1576 C1575 1.414 . S
C1576 C1577 1.374 . S
C1577 H1557 0.950 . S
C1577 C1573 1.385 . S
C1577 C1576 1.374 . S
C1578 C1575 1.499 . S
C1578 C1579 1.373 . S
C1578 C1580 1.389 . S
C1579 H1558 0.950 . S
C1579 C1578 1.373 . S
C1579 C1595 1.377 . S
C1580 C1578 1.389 . S
C1580 C1581 1.524 . S
C1580 C1594 1.377 . S
C1581 C1580 1.524 . S
C1581 C1582 1.397 . S
C1581 C1586 1.363 . S
C1582 H1559 0.950 . S
C1582 C1581 1.397 . S
C1582 C1583 1.334 . S
C1583 H1560 0.950 . S
C1583 C1582 1.334 . S
C1583 C1584 1.287 . S
C1584 C1583 1.287 . S
C1584 C1585 1.524 . S
C1584 H1603 0.913 . S
C1585 H1561 0.950 . S
C1585 C1584 1.524 . S
C1585 C1586 1.415 . S
C1586 H1562 0.950 . S
C1586 C1581 1.363 . S
C1586 C1585 1.415 . S
C1587 H1563 0.951 . S
C1587 C1588 1.350 1_556 S
C1587 C1589 1.388 1_556 S
C1588 C1587 1.350 1_554 S
C1588 C1592 1.453 . S
C1589 H1564 0.951 . S
C1589 C1587 1.388 1_554 S
C1589 C1590 1.366 . S
C1590 C1589 1.366 . S
C1590 C1591 1.414 . S
C1590 C1593 1.499 . S
C1591 H1565 0.950 . S
C1591 C1590 1.414 . S
C1591 C1592 1.374 . S
C1592 H1566 0.950 . S
C1592 C1588 1.453 . S
C1592 C1591 1.374 . S
C1593 C1590 1.499 . S
C1593 C1594 1.373 . S
C1593 C1595 1.389 . S
C1594 H1567 0.950 . S
C1594 C1580 1.377 . S
C1594 C1593 1.373 . S
C1595 C1579 1.377 . S
C1595 C1593 1.389 . S
C1595 C1596 1.524 . S
C1596 C1595 1.524 . S
C1596 C1597 1.397 . S
C1596 C1601 1.363 . S
C1597 H1568 0.950 . S
C1597 C1596 1.397 . S
C1597 C1598 1.334 . S
C1598 H1569 0.950 . S
C1598 C1597 1.334 . S
C1598 C1599 1.287 . S
C1599 C1598 1.287 . S
C1599 C1600 1.524 . S
C1599 H1602 0.993 1_554 S
C1600 H1570 0.943 1_554 S
C1600 C1599 1.524 . S
C1600 C1601 1.415 . S
C1601 H1571 0.950 . S
C1601 C1596 1.363 . S
C1601 C1600 1.415 . S
H1602 C1599 0.993 1_556 S
H1603 C1584 0.913 . S
H1604 C1622 0.951 . S
H1605 C1624 0.951 . S
H1606 C1626 0.950 . S
H1607 C1627 0.950 . S
H1608 C1629 0.950 . S
H1609 C1632 0.950 . S
H1610 C1633 0.950 . S
H1611 C1635 0.950 . S
H1612 C1636 0.950 . S
H1613 C1637 0.951 . S
H1614 C1639 0.951 . S
H1615 C1641 0.950 . S
H1616 C1642 0.950 . S
H1617 C1644 0.950 . S
H1618 C1647 0.950 . S
H1619 C1648 0.950 . S
H1620 C1650 0.950 . S
H1621 C1651 0.950 . S
C1622 H1604 0.951 . S
C1622 C1623 1.366 . S
C1622 C1624 1.388 . S
C1623 C1622 1.366 . S
C1623 C1627 1.385 . S
C1624 H1605 0.951 . S
C1624 C1622 1.388 . S
C1624 C1625 1.366 . S
C1625 C1624 1.366 . S
C1625 C1626 1.414 . S
C1625 C1628 1.499 . S
C1626 H1606 0.950 . S
C1626 C1625 1.414 . S
C1626 C1627 1.374 . S
C1627 H1607 0.950 . S
C1627 C1623 1.385 . S
C1627 C1626 1.374 . S
C1628 C1625 1.499 . S
C1628 C1629 1.373 . S
C1628 C1630 1.389 . S
C1629 H1608 0.950 . S
C1629 C1628 1.373 . S
C1629 C1645 1.377 . S
C1630 C1628 1.389 . S
C1630 C1631 1.524 . S
C1630 C1644 1.377 . S
C1631 C1630 1.524 . S
C1631 C1632 1.397 . S
C1631 C1636 1.363 . S
C1632 H1609 0.950 . S
C1632 C1631 1.397 . S
C1632 C1633 1.334 . S
C1633 H1610 0.950 . S
C1633 C1632 1.334 . S
C1633 C1634 1.287 . S
C1634 C1633 1.287 . S
C1634 C1635 1.524 . S
C1634 H1653 0.913 . S
C1635 H1611 0.950 . S
C1635 C1634 1.524 . S
C1635 C1636 1.415 . S
C1636 H1612 0.950 . S
C1636 C1631 1.363 . S
C1636 C1635 1.415 . S
C1637 H1613 0.951 . S
C1637 C1638 1.355 1_556 S
C1637 C1639 1.388 1_556 S
C1638 C1637 1.355 1_554 S
C1638 C1642 1.448 . S
C1639 H1614 0.951 . S
C1639 C1637 1.388 1_554 S
C1639 C1640 1.366 . S
C1640 C1639 1.366 . S
C1640 C1641 1.414 . S
C1640 C1643 1.499 . S
C1641 H1615 0.950 . S
C1641 C1640 1.414 . S
C1641 C1642 1.374 . S
C1642 H1616 0.950 . S
C1642 C1638 1.448 . S
C1642 C1641 1.374 . S
C1643 C1640 1.499 . S
C1643 C1644 1.373 . S
C1643 C1645 1.389 . S
C1644 H1617 0.950 . S
C1644 C1630 1.377 . S
C1644 C1643 1.373 . S
C1645 C1629 1.377 . S
C1645 C1643 1.389 . S
C1645 C1646 1.524 . S
C1646 C1645 1.524 . S
C1646 C1647 1.397 . S
C1646 C1651 1.363 . S
C1647 H1618 0.950 . S
C1647 C1646 1.397 . S
C1647 C1648 1.334 . S
C1648 H1619 0.950 . S
C1648 C1647 1.334 . S
C1648 C1649 1.287 . S
C1649 C1648 1.287 . S
C1649 C1650 1.524 . S
C1649 H1652 0.999 . S
C1650 H1620 0.950 . S
C1650 C1649 1.524 . S
C1650 C1651 1.415 . S
C1651 H1621 0.950 . S
C1651 C1646 1.363 . S
C1651 C1650 1.415 . S
H1652 C1649 0.999 . S
H1653 C1634 0.913 . S
H1654 C1672 0.951 . S
H1655 C1674 0.951 . S
H1656 C1676 0.950 . S
H1657 C1677 0.950 . S
H1658 C1679 0.950 . S
H1659 C1682 0.950 . S
H1660 C1683 0.950 . S
H1661 C1685 0.950 . S
H1662 C1686 0.950 . S
H1663 C1687 0.951 . S
H1664 C1689 0.951 . S
H1665 C1691 0.950 . S
H1666 C1692 0.954 . S
H1667 C1694 0.950 . S
H1668 C1697 0.950 . S
H1669 C1698 0.950 . S
H1670 C1700 0.950 . S
H1671 C1701 0.950 . S
C1672 H1654 0.951 . S
C1672 C1673 1.366 . S
C1672 C1674 1.388 . S
C1673 C1672 1.366 . S
C1673 C1677 1.385 . S
C1674 H1655 0.951 . S
C1674 C1672 1.388 . S
C1674 C1675 1.366 . S
C1675 C1674 1.366 . S
C1675 C1676 1.414 . S
C1675 C1678 1.499 . S
C1676 H1656 0.950 . S
C1676 C1675 1.414 . S
C1676 C1677 1.374 . S
C1677 H1657 0.950 . S
C1677 C1673 1.385 . S
C1677 C1676 1.374 . S
C1678 C1675 1.499 . S
C1678 C1679 1.373 . S
C1678 C1680 1.389 . S
C1679 H1658 0.950 . S
C1679 C1678 1.373 . S
C1679 C1695 1.377 . S
C1680 C1678 1.389 . S
C1680 C1681 1.524 . S
C1680 C1694 1.377 . S
C1681 C1680 1.524 . S
C1681 C1682 1.397 . S
C1681 C1686 1.363 . S
C1682 H1659 0.950 . S
C1682 C1681 1.397 . S
C1682 C1683 1.334 . S
C1683 H1660 0.950 . S
C1683 C1682 1.334 . S
C1683 C1684 1.287 . S
C1684 C1683 1.287 . S
C1684 C1685 1.524 . S
C1684 H1703 0.913 . S
C1685 H1661 0.950 . S
C1685 C1684 1.524 . S
C1685 C1686 1.415 . S
C1686 H1662 0.950 . S
C1686 C1681 1.363 . S
C1686 C1685 1.415 . S
C1687 H1663 0.951 . S
C1687 C1688 1.420 . S
C1687 C1689 1.388 . S
C1688 C1687 1.420 . S
C1688 C1692 1.415 . S
C1689 H1664 0.951 . S
C1689 C1687 1.388 . S
C1689 C1690 1.366 . S
C1690 C1689 1.366 . S
C1690 C1691 1.414 . S
C1690 C1693 1.499 . S
C1691 H1665 0.950 . S
C1691 C1690 1.414 . S
C1691 C1692 1.374 . S
C1692 H1666 0.954 . S
C1692 C1688 1.415 . S
C1692 C1691 1.374 . S
C1693 C1690 1.499 . S
C1693 C1694 1.373 . S
C1693 C1695 1.389 . S
C1694 H1667 0.950 . S
C1694 C1680 1.377 . S
C1694 C1693 1.373 . S
C1695 C1679 1.377 . S
C1695 C1693 1.389 . S
C1695 C1696 1.524 . S
C1696 C1695 1.524 . S
C1696 C1697 1.397 . S
C1696 C1701 1.363 . S
C1697 H1668 0.950 . S
C1697 C1696 1.397 . S
C1697 C1698 1.334 1_554 S
C1698 H1669 0.950 . S
C1698 C1697 1.334 1_556 S
C1698 C1699 1.287 . S
C1699 C1698 1.287 . S
C1699 C1700 1.524 1_556 S
C1699 H1702 0.999 . S
C1700 H1670 0.950 . S
C1700 C1699 1.524 1_554 S
C1700 C1701 1.415 . S
C1701 H1671 0.950 . S
C1701 C1696 1.363 . S
C1701 C1700 1.415 . S
H1702 C1699 0.999 . S
H1703 C1684 0.913 . S
H1704 C1722 0.951 . S
H1705 C1724 0.951 . S
H1706 C1726 0.950 . S
H1707 C1727 0.950 . S
H1708 C1729 0.950 . S
H1709 C1732 0.950 . S
H1710 C1733 0.950 . S
H1711 C1735 0.950 . S
H1712 C1736 0.950 . S
H1713 C1737 0.951 . S
H1714 C1739 0.951 . S
H1715 C1741 0.950 . S
H1716 C1742 0.950 . S
H1717 C1744 0.950 . S
H1718 C1747 0.950 . S
H1719 C1748 0.950 . S
H1720 C1750 0.950 . S
H1721 C1751 0.950 . S
C1722 H1704 0.951 . S
C1722 C1723 1.366 . S
C1722 C1724 1.388 . S
C1723 C1722 1.366 . S
C1723 C1727 1.385 . S
C1724 H1705 0.951 . S
C1724 C1722 1.388 . S
C1724 C1725 1.366 . S
C1725 C1724 1.366 . S
C1725 C1726 1.414 . S
C1725 C1728 1.499 . S
C1726 H1706 0.950 . S
C1726 C1725 1.414 . S
C1726 C1727 1.374 . S
C1727 H1707 0.950 . S
C1727 C1723 1.385 . S
C1727 C1726 1.374 . S
C1728 C1725 1.499 . S
C1728 C1729 1.373 . S
C1728 C1730 1.389 . S
C1729 H1708 0.950 . S
C1729 C1728 1.373 . S
C1729 C1745 1.377 . S
C1730 C1728 1.389 . S
C1730 C1731 1.524 . S
C1730 C1744 1.377 . S
C1731 C1730 1.524 . S
C1731 C1732 1.397 . S
C1731 C1736 1.363 . S
C1732 H1709 0.950 . S
C1732 C1731 1.397 . S
C1732 C1733 1.334 . S
C1733 H1710 0.950 . S
C1733 C1732 1.334 . S
C1733 C1734 1.287 . S
C1734 C1733 1.287 . S
C1734 C1735 1.524 . S
C1734 H1753 0.913 . S
C1735 H1711 0.950 . S
C1735 C1734 1.524 . S
C1735 C1736 1.415 . S
C1736 H1712 0.950 . S
C1736 C1731 1.363 . S
C1736 C1735 1.415 . S
C1737 H1713 0.951 . S
C1737 C1738 1.366 . S
C1737 C1739 1.388 . S
C1738 C1737 1.366 . S
C1738 C1742 1.385 . S
C1739 H1714 0.951 . S
C1739 C1737 1.388 . S
C1739 C1740 1.366 . S
C1740 C1739 1.366 . S
C1740 C1741 1.414 . S
C1740 C1743 1.499 . S
C1741 H1715 0.950 . S
C1741 C1740 1.414 . S
C1741 C1742 1.374 . S
C1742 H1716 0.950 . S
C1742 C1738 1.385 . S
C1742 C1741 1.374 . S
C1743 C1740 1.499 . S
C1743 C1744 1.373 . S
C1743 C1745 1.389 . S
C1744 H1717 0.950 . S
C1744 C1730 1.377 . S
C1744 C1743 1.373 . S
C1745 C1729 1.377 . S
C1745 C1743 1.389 . S
C1745 C1746 1.524 . S
C1746 C1745 1.524 . S
C1746 C1747 1.397 . S
C1746 C1751 1.363 . S
C1747 H1718 0.950 . S
C1747 C1746 1.397 . S
C1747 C1748 1.334 . S
C1748 H1719 0.950 . S
C1748 C1747 1.334 . S
C1748 C1749 1.287 . S
C1749 C1748 1.287 . S
C1749 C1750 1.524 . S
C1749 H1752 0.999 . S
C1750 H1720 0.950 . S
C1750 C1749 1.524 . S
C1750 C1751 1.415 . S
C1751 H1721 0.950 . S
C1751 C1746 1.363 . S
C1751 C1750 1.415 . S
H1752 C1749 0.999 . S
H1753 C1734 0.913 . S
H1754 C1772 0.951 . S
H1755 C1774 0.951 . S
H1756 C1776 0.950 . S
H1757 C1777 0.950 . S
H1758 C1779 0.950 . S
H1759 C1782 0.950 . S
H1760 C1783 0.950 . S
H1761 C1785 0.950 . S
H1762 C1786 0.950 . S
H1763 C1787 0.951 . S
H1764 C1789 0.951 . S
H1765 C1791 0.950 . S
H1766 C1792 0.950 . S
H1767 C1794 0.950 . S
H1768 C1797 0.950 . S
H1769 C1798 0.950 . S
H1770 C1800 0.950 . S
H1771 C1801 0.950 . S
C1772 H1754 0.951 . S
C1772 C1773 1.366 . S
C1772 C1774 1.388 . S
C1773 C1772 1.366 . S
C1773 C1777 1.385 . S
C1774 H1755 0.951 . S
C1774 C1772 1.388 . S
C1774 C1775 1.366 . S
C1775 C1774 1.366 . S
C1775 C1776 1.414 . S
C1775 C1778 1.499 . S
C1776 H1756 0.950 . S
C1776 C1775 1.414 . S
C1776 C1777 1.374 . S
C1777 H1757 0.950 . S
C1777 C1773 1.385 . S
C1777 C1776 1.374 . S
C1778 C1775 1.499 . S
C1778 C1779 1.373 . S
C1778 C1780 1.389 . S
C1779 H1758 0.950 . S
C1779 C1778 1.373 . S
C1779 C1795 1.377 . S
C1780 C1778 1.389 . S
C1780 C1781 1.524 . S
C1780 C1794 1.377 . S
C1781 C1780 1.524 . S
C1781 C1782 1.397 . S
C1781 C1786 1.363 . S
C1782 H1759 0.950 . S
C1782 C1781 1.397 . S
C1782 C1783 1.334 . S
C1783 H1760 0.950 . S
C1783 C1782 1.334 . S
C1783 C1784 1.287 . S
C1784 C1783 1.287 . S
C1784 C1785 1.524 . S
C1784 H1803 0.913 . S
C1785 H1761 0.950 . S
C1785 C1784 1.524 . S
C1785 C1786 1.415 . S
C1786 H1762 0.950 . S
C1786 C1781 1.363 . S
C1786 C1785 1.415 . S
C1787 H1763 0.951 . S
C1787 C1788 1.366 . S
C1787 C1789 1.388 . S
C1788 C1787 1.366 . S
C1788 C1792 1.385 . S
C1789 H1764 0.951 . S
C1789 C1787 1.388 . S
C1789 C1790 1.366 . S
C1790 C1789 1.366 . S
C1790 C1791 1.414 . S
C1790 C1793 1.499 . S
C1791 H1765 0.950 . S
C1791 C1790 1.414 . S
C1791 C1792 1.374 . S
C1792 H1766 0.950 . S
C1792 C1788 1.385 . S
C1792 C1791 1.374 . S
C1793 C1790 1.499 . S
C1793 C1794 1.373 . S
C1793 C1795 1.389 . S
C1794 H1767 0.950 . S
C1794 C1780 1.377 . S
C1794 C1793 1.373 . S
C1795 C1779 1.377 . S
C1795 C1793 1.389 . S
C1795 C1796 1.524 . S
C1796 C1795 1.524 . S
C1796 C1797 1.397 . S
C1796 C1801 1.363 . S
C1797 H1768 0.950 . S
C1797 C1796 1.397 . S
C1797 C1798 1.334 . S
C1798 H1769 0.950 . S
C1798 C1797 1.334 . S
C1798 C1799 1.287 . S
C1799 C1798 1.287 . S
C1799 C1800 1.524 . S
C1799 H1802 0.999 . S
C1800 H1770 0.950 . S
C1800 C1799 1.524 . S
C1800 C1801 1.415 . S
C1801 H1771 0.950 . S
C1801 C1796 1.363 . S
C1801 C1800 1.415 . S
H1802 C1799 0.999 . S
H1803 C1784 0.913 . S
H1804 C1822 0.951 . S
H1805 C1824 0.951 . S
H1806 C1826 0.950 . S
H1807 C1827 0.950 . S
H1808 C1829 0.950 . S
H1809 C1832 0.950 . S
H1810 C1833 0.950 . S
H1811 C1835 0.950 . S
H1812 C1836 0.950 . S
H1813 C1837 0.951 . S
H1814 C1839 0.951 . S
H1815 C1841 0.950 . S
H1816 C1842 0.950 . S
H1817 C1844 0.950 . S
H1818 C1847 0.950 . S
H1819 C1848 0.950 . S
H1820 C1850 0.950 . S
H1821 C1851 0.950 . S
C1822 H1804 0.951 . S
C1822 C1823 1.366 . S
C1822 C1824 1.388 . S
C1823 C1822 1.366 . S
C1823 C1827 1.385 . S
C1824 H1805 0.951 . S
C1824 C1822 1.388 . S
C1824 C1825 1.366 . S
C1825 C1824 1.366 . S
C1825 C1826 1.414 . S
C1825 C1828 1.499 . S
C1826 H1806 0.950 . S
C1826 C1825 1.414 . S
C1826 C1827 1.374 . S
C1827 H1807 0.950 . S
C1827 C1823 1.385 . S
C1827 C1826 1.374 . S
C1828 C1825 1.499 . S
C1828 C1829 1.373 . S
C1828 C1830 1.389 . S
C1829 H1808 0.950 . S
C1829 C1828 1.373 . S
C1829 C1845 1.377 . S
C1830 C1828 1.389 . S
C1830 C1831 1.524 . S
C1830 C1844 1.377 . S
C1831 C1830 1.524 . S
C1831 C1832 1.397 . S
C1831 C1836 1.363 . S
C1832 H1809 0.950 . S
C1832 C1831 1.397 . S
C1832 C1833 1.334 . S
C1833 H1810 0.950 . S
C1833 C1832 1.334 . S
C1833 C1834 1.287 . S
C1834 C1833 1.287 . S
C1834 C1835 1.524 . S
C1834 H1853 0.913 . S
C1835 H1811 0.950 . S
C1835 C1834 1.524 . S
C1835 C1836 1.415 . S
C1836 H1812 0.950 . S
C1836 C1831 1.363 . S
C1836 C1835 1.415 . S
C1837 H1813 0.951 . S
C1837 C1838 1.366 . S
C1837 C1839 1.388 . S
C1838 C1837 1.366 . S
C1838 C1842 1.385 . S
C1839 H1814 0.951 . S
C1839 C1837 1.388 . S
C1839 C1840 1.366 . S
C1840 C1839 1.366 . S
C1840 C1841 1.414 . S
C1840 C1843 1.499 . S
C1841 H1815 0.950 . S
C1841 C1840 1.414 . S
C1841 C1842 1.374 . S
C1842 H1816 0.950 . S
C1842 C1838 1.385 . S
C1842 C1841 1.374 . S
C1843 C1840 1.499 . S
C1843 C1844 1.373 . S
C1843 C1845 1.389 . S
C1844 H1817 0.950 . S
C1844 C1830 1.377 . S
C1844 C1843 1.373 . S
C1845 C1829 1.377 . S
C1845 C1843 1.389 . S
C1845 C1846 1.524 . S
C1846 C1845 1.524 . S
C1846 C1847 1.397 . S
C1846 C1851 1.363 . S
C1847 H1818 0.950 . S
C1847 C1846 1.397 . S
C1847 C1848 1.334 . S
C1848 H1819 0.950 . S
C1848 C1847 1.334 . S
C1848 C1849 1.287 . S
C1849 C1848 1.287 . S
C1849 C1850 1.524 . S
C1849 H1852 0.999 . S
C1850 H1820 0.950 . S
C1850 C1849 1.524 . S
C1850 C1851 1.415 . S
C1851 H1821 0.950 . S
C1851 C1846 1.363 . S
C1851 C1850 1.415 . S
H1852 C1849 0.999 . S
H1853 C1834 0.913 . S
H1854 C1872 0.951 . S
H1855 C1874 0.951 . S
H1856 C1876 0.950 . S
H1857 C1877 0.950 . S
H1858 C1879 0.950 . S
H1859 C1882 0.950 . S
H1860 C1883 0.950 . S
H1861 C1885 0.950 . S
H1862 C1886 0.950 . S
H1863 C1887 0.924 1_554 S
H1864 C1889 0.951 . S
H1865 C1891 0.950 . S
H1866 C1892 0.950 . S
H1867 C1894 0.950 . S
H1868 C1897 0.950 . S
H1869 C1898 0.950 . S
H1870 C1900 0.950 . S
H1871 C1901 0.950 . S
C1872 H1854 0.951 . S
C1872 C1873 1.366 . S
C1872 C1874 1.388 . S
C1873 C1872 1.366 . S
C1873 C1877 1.385 . S
C1874 H1855 0.951 . S
C1874 C1872 1.388 . S
C1874 C1875 1.366 . S
C1875 C1874 1.366 . S
C1875 C1876 1.414 . S
C1875 C1878 1.499 . S
C1876 H1856 0.950 . S
C1876 C1875 1.414 . S
C1876 C1877 1.374 . S
C1877 H1857 0.950 . S
C1877 C1873 1.385 . S
C1877 C1876 1.374 . S
C1878 C1875 1.499 . S
C1878 C1879 1.373 . S
C1878 C1880 1.389 . S
C1879 H1858 0.950 . S
C1879 C1878 1.373 . S
C1879 C1895 1.377 . S
C1880 C1878 1.389 . S
C1880 C1881 1.524 . S
C1880 C1894 1.377 . S
C1881 C1880 1.524 . S
C1881 C1882 1.397 . S
C1881 C1886 1.363 . S
C1882 H1859 0.950 . S
C1882 C1881 1.397 . S
C1882 C1883 1.334 . S
C1883 H1860 0.950 . S
C1883 C1882 1.334 . S
C1883 C1884 1.287 . S
C1884 C1883 1.287 . S
C1884 C1885 1.524 . S
C1884 H1903 0.913 . S
C1885 H1861 0.950 . S
C1885 C1884 1.524 . S
C1885 C1886 1.415 . S
C1886 H1862 0.950 . S
C1886 C1881 1.363 . S
C1886 C1885 1.415 . S
C1887 H1863 0.924 1_556 S
C1887 C1888 1.365 . S
C1887 C1889 1.414 . S
C1888 C1887 1.365 . S
C1888 C1892 1.437 . S
C1889 H1864 0.951 . S
C1889 C1887 1.414 . S
C1889 C1890 1.366 . S
C1890 C1889 1.366 . S
C1890 C1891 1.414 . S
C1890 C1893 1.499 . S
C1891 H1865 0.950 . S
C1891 C1890 1.414 . S
C1891 C1892 1.374 . S
C1892 H1866 0.950 . S
C1892 C1888 1.437 . S
C1892 C1891 1.374 . S
C1893 C1890 1.499 . S
C1893 C1894 1.373 . S
C1893 C1895 1.389 . S
C1894 H1867 0.950 . S
C1894 C1880 1.377 . S
C1894 C1893 1.373 . S
C1895 C1879 1.377 . S
C1895 C1893 1.389 . S
C1895 C1896 1.524 . S
C1896 C1895 1.524 . S
C1896 C1897 1.397 . S
C1896 C1901 1.363 . S
C1897 H1868 0.950 . S
C1897 C1896 1.397 . S
C1897 C1898 1.334 . S
C1898 H1869 0.950 . S
C1898 C1897 1.334 . S
C1898 C1899 1.287 . S
C1899 C1898 1.287 . S
C1899 C1900 1.524 . S
C1899 H1902 0.999 . S
C1900 H1870 0.950 . S
C1900 C1899 1.524 . S
C1900 C1901 1.415 . S
C1901 H1871 0.950 . S
C1901 C1896 1.363 . S
C1901 C1900 1.415 . S
H1902 C1899 0.999 . S
H1903 C1884 0.913 . S
H1904 C1922 0.951 . S
H1905 C1924 0.951 . S
H1906 C1926 0.950 . S
H1907 C1927 0.950 . S
H1908 C1929 0.950 . S
H1909 C1932 0.950 . S
H1910 C1933 0.950 . S
H1911 C1935 0.950 . S
H1912 C1936 0.950 . S
H1913 C1937 0.956 . S
H1914 C1939 0.951 . S
H1915 C1941 0.950 . S
H1916 C1942 0.950 . S
H1917 C1944 0.950 . S
H1918 C1947 0.950 . S
H1919 C1948 0.950 . S
H1920 C1950 0.950 . S
H1921 C1951 0.950 . S
C1922 H1904 0.951 . S
C1922 C1923 1.366 . S
C1922 C1924 1.388 . S
C1923 C1922 1.366 . S
C1923 C1927 1.385 . S
C1924 H1905 0.951 . S
C1924 C1922 1.388 . S
C1924 C1925 1.366 . S
C1925 C1924 1.366 . S
C1925 C1926 1.414 . S
C1925 C1928 1.499 . S
C1926 H1906 0.950 . S
C1926 C1925 1.414 . S
C1926 C1927 1.374 . S
C1927 H1907 0.950 . S
C1927 C1923 1.385 . S
C1927 C1926 1.374 . S
C1928 C1925 1.499 . S
C1928 C1929 1.373 . S
C1928 C1930 1.389 . S
C1929 H1908 0.950 . S
C1929 C1928 1.373 . S
C1929 C1945 1.377 . S
C1930 C1928 1.389 . S
C1930 C1931 1.524 . S
C1930 C1944 1.377 . S
C1931 C1930 1.524 . S
C1931 C1932 1.397 . S
C1931 C1936 1.363 . S
C1932 H1909 0.950 . S
C1932 C1931 1.397 . S
C1932 C1933 1.334 . S
C1933 H1910 0.950 . S
C1933 C1932 1.334 . S
C1933 C1934 1.287 . S
C1934 C1933 1.287 . S
C1934 C1935 1.524 . S
C1934 H1953 0.913 . S
C1935 H1911 0.950 . S
C1935 C1934 1.524 . S
C1935 C1936 1.415 . S
C1936 H1912 0.950 . S
C1936 C1931 1.363 . S
C1936 C1935 1.415 . S
C1937 H1913 0.956 . S
C1937 C1938 1.362 1_554 S
C1937 C1939 1.384 1_554 S
C1938 C1937 1.362 1_556 S
C1938 C1942 1.442 . S
C1939 H1914 0.951 . S
C1939 C1937 1.384 1_556 S
C1939 C1940 1.366 . S
C1940 C1939 1.366 . S
C1940 C1941 1.414 . S
C1940 C1943 1.499 . S
C1941 H1915 0.950 . S
C1941 C1940 1.414 . S
C1941 C1942 1.374 . S
C1942 H1916 0.950 . S
C1942 C1938 1.442 . S
C1942 C1941 1.374 . S
C1943 C1940 1.499 . S
C1943 C1944 1.373 . S
C1943 C1945 1.389 . S
C1944 H1917 0.950 . S
C1944 C1930 1.377 . S
C1944 C1943 1.373 . S
C1945 C1929 1.377 . S
C1945 C1943 1.389 . S
C1945 C1946 1.524 . S
C1946 C1945 1.524 . S
C1946 C1947 1.397 . S
C1946 C1951 1.363 . S
C1947 H1918 0.950 . S
C1947 C1946 1.397 . S
C1947 C1948 1.334 1_556 S
C1948 H1919 0.950 . S
C1948 C1947 1.334 1_554 S
C1948 C1949 1.287 . S
C1949 C1948 1.287 . S
C1949 C1950 1.524 . S
C1949 H1952 0.999 . S
C1950 H1920 0.950 . S
C1950 C1949 1.524 . S
C1950 C1951 1.415 1_554 S
C1951 H1921 0.950 . S
C1951 C1946 1.363 . S
C1951 C1950 1.415 1_556 S
H1952 C1949 0.999 . S
H1953 C1934 0.913 . S
H1954 C1972 0.951 . S
H1955 C1974 0.951 . S
H1956 C1976 0.950 . S
H1957 C1977 0.950 . S
H1958 C1979 0.950 . S
H1959 C1982 0.950 . S
H1960 C1983 0.950 . S
H1961 C1985 0.950 . S
H1962 C1986 0.950 . S
H1963 C1987 0.951 1_554 S
H1964 C1989 0.951 . S
H1965 C1991 0.950 . S
H1966 C1992 0.950 . S
H1967 C1994 0.950 . S
H1968 C1997 0.950 . S
H1969 C1998 0.950 . S
H1970 C2000 0.943 1_554 S
H1971 C2001 0.950 . S
C1972 H1954 0.951 . S
C1972 C1973 1.366 . S
C1972 C1974 1.388 . S
C1973 C1972 1.366 . S
C1973 C1977 1.385 . S
C1974 H1955 0.951 . S
C1974 C1972 1.388 . S
C1974 C1975 1.366 . S
C1975 C1974 1.366 . S
C1975 C1976 1.414 . S
C1975 C1978 1.499 . S
C1976 H1956 0.950 . S
C1976 C1975 1.414 . S
C1976 C1977 1.374 . S
C1977 H1957 0.950 . S
C1977 C1973 1.385 . S
C1977 C1976 1.374 . S
C1978 C1975 1.499 . S
C1978 C1979 1.373 . S
C1978 C1980 1.389 . S
C1979 H1958 0.950 . S
C1979 C1978 1.373 . S
C1979 C1995 1.377 . S
C1980 C1978 1.389 . S
C1980 C1981 1.524 . S
C1980 C1994 1.377 . S
C1981 C1980 1.524 . S
C1981 C1982 1.397 . S
C1981 C1986 1.363 . S
C1982 H1959 0.950 . S
C1982 C1981 1.397 . S
C1982 C1983 1.334 . S
C1983 H1960 0.950 . S
C1983 C1982 1.334 . S
C1983 C1984 1.287 . S
C1984 C1983 1.287 . S
C1984 C1985 1.524 . S
C1984 H2003 0.913 . S
C1985 H1961 0.950 . S
C1985 C1984 1.524 . S
C1985 C1986 1.415 . S
C1986 H1962 0.950 . S
C1986 C1981 1.363 . S
C1986 C1985 1.415 . S
C1987 H1963 0.951 1_556 S
C1987 C1988 1.389 . S
C1987 C1989 1.388 . S
C1988 C1987 1.389 . S
C1988 C1992 1.446 . S
C1989 H1964 0.951 . S
C1989 C1987 1.388 . S
C1989 C1990 1.366 . S
C1990 C1989 1.366 . S
C1990 C1991 1.414 . S
C1990 C1993 1.499 . S
C1991 H1965 0.950 . S
C1991 C1990 1.414 . S
C1991 C1992 1.374 . S
C1992 H1966 0.950 . S
C1992 C1988 1.446 . S
C1992 C1991 1.374 . S
C1993 C1990 1.499 . S
C1993 C1994 1.373 . S
C1993 C1995 1.389 . S
C1994 H1967 0.950 . S
C1994 C1980 1.377 . S
C1994 C1993 1.373 . S
C1995 C1979 1.377 . S
C1995 C1993 1.389 . S
C1995 C1996 1.524 . S
C1996 C1995 1.524 . S
C1996 C1997 1.397 . S
C1996 C2001 1.363 . S
C1997 H1968 0.950 . S
C1997 C1996 1.397 . S
C1997 C1998 1.334 1_556 S
C1998 H1969 0.950 . S
C1998 C1997 1.334 1_554 S
C1998 C1999 1.287 . S
C1999 C1998 1.287 . S
C1999 C2000 1.503 1_554 S
C1999 H2002 0.999 . S
C2000 H1970 0.943 1_556 S
C2000 C1999 1.503 1_556 S
C2000 C2001 1.445 . S
C2001 H1971 0.950 . S
C2001 C1996 1.363 . S
C2001 C2000 1.445 . S
H2002 C1999 0.999 . S
H2003 C1984 0.913 . S
H2004 C2022 0.951 . S
H2005 C2024 0.951 . S
H2006 C2026 0.950 . S
H2007 C2027 0.950 . S
H2008 C2029 0.950 . S
H2009 C2032 0.950 . S
H2010 C2033 0.950 . S
H2011 C2035 0.950 . S
H2012 C2036 0.950 . S
H2013 C2037 0.951 . S
H2014 C2039 0.951 . S
H2015 C2041 0.950 . S
H2016 C2042 0.950 . S
H2017 C2044 0.950 . S
H2018 C2047 0.950 . S
H2019 C2048 0.950 . S
H2020 C2050 0.950 . S
H2021 C2051 0.950 . S
C2022 H2004 0.951 . S
C2022 C2023 1.366 . S
C2022 C2024 1.388 . S
C2023 C2022 1.366 . S
C2023 C2027 1.385 . S
C2024 H2005 0.951 . S
C2024 C2022 1.388 . S
C2024 C2025 1.366 . S
C2025 C2024 1.366 . S
C2025 C2026 1.414 . S
C2025 C2028 1.499 . S
C2026 H2006 0.950 . S
C2026 C2025 1.414 . S
C2026 C2027 1.374 . S
C2027 H2007 0.950 . S
C2027 C2023 1.385 . S
C2027 C2026 1.374 . S
C2028 C2025 1.499 . S
C2028 C2029 1.373 . S
C2028 C2030 1.389 . S
C2029 H2008 0.950 . S
C2029 C2028 1.373 . S
C2029 C2045 1.377 . S
C2030 C2028 1.389 . S
C2030 C2031 1.524 . S
C2030 C2044 1.377 . S
C2031 C2030 1.524 . S
C2031 C2032 1.397 . S
C2031 C2036 1.363 . S
C2032 H2009 0.950 . S
C2032 C2031 1.397 . S
C2032 C2033 1.334 . S
C2033 H2010 0.950 . S
C2033 C2032 1.334 . S
C2033 C2034 1.287 . S
C2034 C2033 1.287 . S
C2034 C2035 1.524 . S
C2034 H2053 0.913 . S
C2035 H2011 0.950 . S
C2035 C2034 1.524 . S
C2035 C2036 1.415 . S
C2036 H2012 0.950 . S
C2036 C2031 1.363 . S
C2036 C2035 1.415 . S
C2037 H2013 0.951 . S
C2037 C2038 1.366 . S
C2037 C2039 1.388 . S
C2038 C2037 1.366 . S
C2038 C2042 1.385 . S
C2039 H2014 0.951 . S
C2039 C2037 1.388 . S
C2039 C2040 1.366 . S
C2040 C2039 1.366 . S
C2040 C2041 1.414 . S
C2040 C2043 1.499 . S
C2041 H2015 0.950 . S
C2041 C2040 1.414 . S
C2041 C2042 1.374 . S
C2042 H2016 0.950 . S
C2042 C2038 1.385 . S
C2042 C2041 1.374 . S
C2043 C2040 1.499 . S
C2043 C2044 1.373 . S
C2043 C2045 1.389 . S
C2044 H2017 0.950 . S
C2044 C2030 1.377 . S
C2044 C2043 1.373 . S
C2045 C2029 1.377 . S
C2045 C2043 1.389 . S
C2045 C2046 1.524 . S
C2046 C2045 1.524 . S
C2046 C2047 1.397 . S
C2046 C2051 1.363 . S
C2047 H2018 0.950 . S
C2047 C2046 1.397 . S
C2047 C2048 1.334 . S
C2048 H2019 0.950 . S
C2048 C2047 1.334 . S
C2048 C2049 1.287 . S
C2049 C2048 1.287 . S
C2049 C2050 1.524 . S
C2049 H2052 0.999 . S
C2050 H2020 0.950 . S
C2050 C2049 1.524 . S
C2050 C2051 1.415 . S
C2051 H2021 0.950 . S
C2051 C2046 1.363 . S
C2051 C2050 1.415 . S
H2052 C2049 0.999 . S
H2053 C2034 0.913 . S
H2054 C2072 0.951 . S
H2055 C2074 0.951 . S
H2056 C2076 0.950 . S
H2057 C2077 0.950 . S
H2058 C2079 0.950 . S
H2059 C2082 0.950 . S
H2060 C2083 0.950 . S
H2061 C2085 0.950 . S
H2062 C2086 0.950 . S
H2063 C2087 0.951 . S
H2064 C2089 0.951 . S
H2065 C2091 0.950 . S
H2066 C2092 0.950 . S
H2067 C2094 0.950 . S
H2068 C2097 0.950 . S
H2069 C2098 0.950 . S
H2070 C2100 0.950 . S
H2071 C2101 0.950 . S
C2072 H2054 0.951 . S
C2072 C2073 1.366 . S
C2072 C2074 1.388 . S
C2073 C2072 1.366 . S
C2073 C2077 1.385 . S
C2074 H2055 0.951 . S
C2074 C2072 1.388 . S
C2074 C2075 1.366 . S
C2075 C2074 1.366 . S
C2075 C2076 1.414 . S
C2075 C2078 1.499 . S
C2076 H2056 0.950 . S
C2076 C2075 1.414 . S
C2076 C2077 1.374 . S
C2077 H2057 0.950 . S
C2077 C2073 1.385 . S
C2077 C2076 1.374 . S
C2078 C2075 1.499 . S
C2078 C2079 1.373 . S
C2078 C2080 1.389 . S
C2079 H2058 0.950 . S
C2079 C2078 1.373 . S
C2079 C2095 1.377 . S
C2080 C2078 1.389 . S
C2080 C2081 1.524 . S
C2080 C2094 1.377 . S
C2081 C2080 1.524 . S
C2081 C2082 1.397 . S
C2081 C2086 1.363 . S
C2082 H2059 0.950 . S
C2082 C2081 1.397 . S
C2082 C2083 1.334 . S
C2083 H2060 0.950 . S
C2083 C2082 1.334 . S
C2083 C2084 1.287 . S
C2084 C2083 1.287 . S
C2084 C2085 1.524 . S
C2084 H2103 0.913 . S
C2085 H2061 0.950 . S
C2085 C2084 1.524 . S
C2085 C2086 1.415 . S
C2086 H2062 0.950 . S
C2086 C2081 1.363 . S
C2086 C2085 1.415 . S
C2087 H2063 0.951 . S
C2087 C2088 1.366 . S
C2087 C2089 1.388 . S
C2088 C2087 1.366 . S
C2088 C2092 1.385 . S
C2089 H2064 0.951 . S
C2089 C2087 1.388 . S
C2089 C2090 1.366 . S
C2090 C2089 1.366 . S
C2090 C2091 1.414 . S
C2090 C2093 1.499 . S
C2091 H2065 0.950 . S
C2091 C2090 1.414 . S
C2091 C2092 1.374 . S
C2092 H2066 0.950 . S
C2092 C2088 1.385 . S
C2092 C2091 1.374 . S
C2093 C2090 1.499 . S
C2093 C2094 1.373 . S
C2093 C2095 1.389 . S
C2094 H2067 0.950 . S
C2094 C2080 1.377 . S
C2094 C2093 1.373 . S
C2095 C2079 1.377 . S
C2095 C2093 1.389 . S
C2095 C2096 1.524 . S
C2096 C2095 1.524 . S
C2096 C2097 1.397 . S
C2096 C2101 1.363 . S
C2097 H2068 0.950 . S
C2097 C2096 1.397 . S
C2097 C2098 1.334 . S
C2098 H2069 0.950 . S
C2098 C2097 1.334 . S
C2098 C2099 1.287 . S
C2099 C2098 1.287 . S
C2099 C2100 1.524 . S
C2099 H2102 0.999 . S
C2100 H2070 0.950 . S
C2100 C2099 1.524 . S
C2100 C2101 1.415 . S
C2101 H2071 0.950 . S
C2101 C2096 1.363 . S
C2101 C2100 1.415 . S
H2102 C2099 0.999 . S
H2103 C2084 0.913 . S
H2104 C2122 0.951 . S
H2105 C2124 0.951 . S
H2106 C2126 0.950 . S
H2107 C2127 0.950 . S
H2108 C2129 0.950 . S
H2109 C2132 0.950 . S
H2110 C2133 0.950 . S
H2111 C2135 0.950 . S
H2112 C2136 0.950 . S
H2113 C2137 0.951 . S
H2114 C2139 0.951 . S
H2115 C2141 0.950 . S
H2116 C2142 0.950 . S
H2117 C2144 0.950 . S
H2118 C2147 0.950 . S
H2119 C2148 0.950 . S
H2120 C2150 0.950 . S
H2121 C2151 0.950 . S
C2122 H2104 0.951 . S
C2122 C2123 1.366 . S
C2122 C2124 1.388 . S
C2123 C2122 1.366 . S
C2123 C2127 1.385 . S
C2124 H2105 0.951 . S
C2124 C2122 1.388 . S
C2124 C2125 1.366 . S
C2125 C2124 1.366 . S
C2125 C2126 1.414 . S
C2125 C2128 1.499 . S
C2126 H2106 0.950 . S
C2126 C2125 1.414 . S
C2126 C2127 1.374 . S
C2127 H2107 0.950 . S
C2127 C2123 1.385 . S
C2127 C2126 1.374 . S
C2128 C2125 1.499 . S
C2128 C2129 1.373 . S
C2128 C2130 1.389 . S
C2129 H2108 0.950 . S
C2129 C2128 1.373 . S
C2129 C2145 1.377 . S
C2130 C2128 1.389 . S
C2130 C2131 1.524 . S
C2130 C2144 1.377 . S
C2131 C2130 1.524 . S
C2131 C2132 1.397 . S
C2131 C2136 1.363 . S
C2132 H2109 0.950 . S
C2132 C2131 1.397 . S
C2132 C2133 1.334 . S
C2133 H2110 0.950 . S
C2133 C2132 1.334 . S
C2133 C2134 1.287 . S
C2134 C2133 1.287 . S
C2134 C2135 1.524 . S
C2134 H2153 0.913 . S
C2135 H2111 0.950 . S
C2135 C2134 1.524 . S
C2135 C2136 1.415 . S
C2136 H2112 0.950 . S
C2136 C2131 1.363 . S
C2136 C2135 1.415 . S
C2137 H2113 0.951 . S
C2137 C2138 1.366 . S
C2137 C2139 1.388 . S
C2138 C2137 1.366 . S
C2138 C2142 1.385 . S
C2139 H2114 0.951 . S
C2139 C2137 1.388 . S
C2139 C2140 1.366 . S
C2140 C2139 1.366 . S
C2140 C2141 1.414 . S
C2140 C2143 1.499 . S
C2141 H2115 0.950 . S
C2141 C2140 1.414 . S
C2141 C2142 1.374 . S
C2142 H2116 0.950 . S
C2142 C2138 1.385 . S
C2142 C2141 1.374 . S
C2143 C2140 1.499 . S
C2143 C2144 1.373 . S
C2143 C2145 1.389 . S
C2144 H2117 0.950 . S
C2144 C2130 1.377 . S
C2144 C2143 1.373 . S
C2145 C2129 1.377 . S
C2145 C2143 1.389 . S
C2145 C2146 1.524 . S
C2146 C2145 1.524 . S
C2146 C2147 1.397 . S
C2146 C2151 1.363 . S
C2147 H2118 0.950 . S
C2147 C2146 1.397 . S
C2147 C2148 1.334 . S
C2148 H2119 0.950 . S
C2148 C2147 1.334 . S
C2148 C2149 1.287 . S
C2149 C2148 1.287 . S
C2149 C2150 1.524 . S
C2149 H2152 0.999 . S
C2150 H2120 0.950 . S
C2150 C2149 1.524 . S
C2150 C2151 1.415 . S
C2151 H2121 0.950 . S
C2151 C2146 1.363 . S
C2151 C2150 1.415 . S
H2152 C2149 0.999 . S
H2153 C2134 0.913 . S
H2154 C2172 0.951 . S
H2155 C2174 0.951 . S
H2156 C2176 0.950 . S
H2157 C2177 0.950 . S
H2158 C2179 0.950 . S
H2159 C2182 0.950 . S
H2160 C2183 0.950 . S
H2161 C2185 0.950 . S
H2162 C2186 0.950 . S
H2163 C2187 0.951 . S
H2164 C2189 0.951 . S
H2165 C2191 0.950 . S
H2166 C2192 0.950 . S
H2167 C2194 0.950 . S
H2168 C2197 0.950 . S
H2169 C2198 0.950 . S
H2170 C2200 0.950 . S
H2171 C2201 0.950 . S
C2172 H2154 0.951 . S
C2172 C2173 1.366 . S
C2172 C2174 1.388 . S
C2173 C2172 1.366 . S
C2173 C2177 1.385 . S
C2174 H2155 0.951 . S
C2174 C2172 1.388 . S
C2174 C2175 1.366 . S
C2175 C2174 1.366 . S
C2175 C2176 1.414 . S
C2175 C2178 1.499 . S
C2176 H2156 0.950 . S
C2176 C2175 1.414 . S
C2176 C2177 1.374 . S
C2177 H2157 0.950 . S
C2177 C2173 1.385 . S
C2177 C2176 1.374 . S
C2178 C2175 1.499 . S
C2178 C2179 1.373 . S
C2178 C2180 1.389 . S
C2179 H2158 0.950 . S
C2179 C2178 1.373 . S
C2179 C2195 1.377 . S
C2180 C2178 1.389 . S
C2180 C2181 1.524 . S
C2180 C2194 1.377 . S
C2181 C2180 1.524 . S
C2181 C2182 1.397 . S
C2181 C2186 1.363 . S
C2182 H2159 0.950 . S
C2182 C2181 1.397 . S
C2182 C2183 1.334 . S
C2183 H2160 0.950 . S
C2183 C2182 1.334 . S
C2183 C2184 1.287 . S
C2184 C2183 1.287 . S
C2184 C2185 1.524 . S
C2184 H2203 0.913 . S
C2185 H2161 0.950 . S
C2185 C2184 1.524 . S
C2185 C2186 1.415 . S
C2186 H2162 0.950 . S
C2186 C2181 1.363 . S
C2186 C2185 1.415 . S
C2187 H2163 0.951 . S
C2187 C2188 1.366 . S
C2187 C2189 1.388 . S
C2188 C2187 1.366 . S
C2188 C2192 1.385 . S
C2189 H2164 0.951 . S
C2189 C2187 1.388 . S
C2189 C2190 1.366 . S
C2190 C2189 1.366 . S
C2190 C2191 1.414 . S
C2190 C2193 1.499 . S
C2191 H2165 0.950 . S
C2191 C2190 1.414 . S
C2191 C2192 1.374 . S
C2192 H2166 0.950 . S
C2192 C2188 1.385 . S
C2192 C2191 1.374 . S
C2193 C2190 1.499 . S
C2193 C2194 1.373 . S
C2193 C2195 1.389 . S
C2194 H2167 0.950 . S
C2194 C2180 1.377 . S
C2194 C2193 1.373 . S
C2195 C2179 1.377 . S
C2195 C2193 1.389 . S
C2195 C2196 1.524 . S
C2196 C2195 1.524 . S
C2196 C2197 1.397 . S
C2196 C2201 1.363 . S
C2197 H2168 0.950 . S
C2197 C2196 1.397 . S
C2197 C2198 1.334 . S
C2198 H2169 0.950 . S
C2198 C2197 1.334 . S
C2198 C2199 1.287 . S
C2199 C2198 1.287 . S
C2199 C2200 1.524 . S
C2199 H2202 0.999 . S
C2200 H2170 0.950 . S
C2200 C2199 1.524 . S
C2200 C2201 1.415 . S
C2201 H2171 0.950 . S
C2201 C2196 1.363 . S
C2201 C2200 1.415 . S
H2202 C2199 0.999 . S
H2203 C2184 0.913 . S
H2204 C2222 0.951 . S
H2205 C2224 0.951 . S
H2206 C2226 0.950 . S
H2207 C2227 0.950 . S
H2208 C2229 0.950 . S
H2209 C2232 0.950 . S
H2210 C2233 0.950 . S
H2211 C2235 0.950 . S
H2212 C2236 0.950 . S
H2213 C2237 0.951 . S
H2214 C2239 0.951 . S
H2215 C2241 0.950 . S
H2216 C2242 0.950 . S
H2217 C2244 0.950 . S
H2218 C2247 0.950 . S
H2219 C2248 0.950 . S
H2220 C2250 0.950 . S
H2221 C2251 0.950 . S
C2222 H2204 0.951 . S
C2222 C2223 1.366 . S
C2222 C2224 1.388 . S
C2223 C2222 1.366 . S
C2223 C2227 1.385 . S
C2224 H2205 0.951 . S
C2224 C2222 1.388 . S
C2224 C2225 1.366 . S
C2225 C2224 1.366 . S
C2225 C2226 1.414 . S
C2225 C2228 1.499 . S
C2226 H2206 0.950 . S
C2226 C2225 1.414 . S
C2226 C2227 1.374 . S
C2227 H2207 0.950 . S
C2227 C2223 1.385 . S
C2227 C2226 1.374 . S
C2228 C2225 1.499 . S
C2228 C2229 1.373 . S
C2228 C2230 1.389 . S
C2229 H2208 0.950 . S
C2229 C2228 1.373 . S
C2229 C2245 1.377 . S
C2230 C2228 1.389 . S
C2230 C2231 1.524 . S
C2230 C2244 1.377 . S
C2231 C2230 1.524 . S
C2231 C2232 1.397 . S
C2231 C2236 1.363 . S
C2232 H2209 0.950 . S
C2232 C2231 1.397 . S
C2232 C2233 1.334 . S
C2233 H2210 0.950 . S
C2233 C2232 1.334 . S
C2233 C2234 1.287 . S
C2234 C2233 1.287 . S
C2234 C2235 1.524 . S
C2234 H2253 0.913 . S
C2235 H2211 0.950 . S
C2235 C2234 1.524 . S
C2235 C2236 1.415 . S
C2236 H2212 0.950 . S
C2236 C2231 1.363 . S
C2236 C2235 1.415 . S
C2237 H2213 0.951 . S
C2237 C2238 1.366 . S
C2237 C2239 1.388 . S
C2238 C2237 1.366 . S
C2238 C2242 1.385 . S
C2239 H2214 0.951 . S
C2239 C2237 1.388 . S
C2239 C2240 1.366 . S
C2240 C2239 1.366 . S
C2240 C2241 1.414 . S
C2240 C2243 1.499 . S
C2241 H2215 0.950 . S
C2241 C2240 1.414 . S
C2241 C2242 1.374 . S
C2242 H2216 0.950 . S
C2242 C2238 1.385 . S
C2242 C2241 1.374 . S
C2243 C2240 1.499 . S
C2243 C2244 1.373 . S
C2243 C2245 1.389 . S
C2244 H2217 0.950 . S
C2244 C2230 1.377 . S
C2244 C2243 1.373 . S
C2245 C2229 1.377 . S
C2245 C2243 1.389 . S
C2245 C2246 1.524 . S
C2246 C2245 1.524 . S
C2246 C2247 1.397 . S
C2246 C2251 1.363 . S
C2247 H2218 0.950 . S
C2247 C2246 1.397 . S
C2247 C2248 1.334 . S
C2248 H2219 0.950 . S
C2248 C2247 1.334 . S
C2248 C2249 1.287 . S
C2249 C2248 1.287 . S
C2249 C2250 1.524 . S
C2249 H2252 0.999 . S
C2250 H2220 0.950 . S
C2250 C2249 1.524 . S
C2250 C2251 1.415 . S
C2251 H2221 0.950 . S
C2251 C2246 1.363 . S
C2251 C2250 1.415 . S
H2252 C2249 0.999 . S
H2253 C2234 0.913 . S
H2254 C2272 0.951 . S
H2255 C2274 0.951 . S
H2256 C2276 0.950 . S
H2257 C2277 0.950 . S
H2258 C2279 0.950 . S
H2259 C2282 0.950 . S
H2260 C2283 0.950 . S
H2261 C2285 0.950 . S
H2262 C2286 0.950 . S
H2263 C2287 0.951 . S
H2264 C2289 0.951 . S
H2265 C2291 0.950 . S
H2266 C2292 0.950 . S
H2267 C2294 0.950 . S
H2268 C2297 0.950 . S
H2269 C2298 0.950 . S
H2270 C2300 0.950 . S
H2271 C2301 0.950 . S
C2272 H2254 0.951 . S
C2272 C2273 1.366 . S
C2272 C2274 1.388 . S
C2273 C2272 1.366 . S
C2273 C2277 1.385 . S
C2274 H2255 0.951 . S
C2274 C2272 1.388 . S
C2274 C2275 1.366 . S
C2275 C2274 1.366 . S
C2275 C2276 1.414 . S
C2275 C2278 1.499 . S
C2276 H2256 0.950 . S
C2276 C2275 1.414 . S
C2276 C2277 1.374 . S
C2277 H2257 0.950 . S
C2277 C2273 1.385 . S
C2277 C2276 1.374 . S
C2278 C2275 1.499 . S
C2278 C2279 1.373 . S
C2278 C2280 1.389 . S
C2279 H2258 0.950 . S
C2279 C2278 1.373 . S
C2279 C2295 1.377 . S
C2280 C2278 1.389 . S
C2280 C2281 1.524 . S
C2280 C2294 1.377 . S
C2281 C2280 1.524 . S
C2281 C2282 1.397 . S
C2281 C2286 1.363 . S
C2282 H2259 0.950 . S
C2282 C2281 1.397 . S
C2282 C2283 1.334 . S
C2283 H2260 0.950 . S
C2283 C2282 1.334 . S
C2283 C2284 1.287 . S
C2284 C2283 1.287 . S
C2284 C2285 1.524 . S
C2284 H2303 0.913 . S
C2285 H2261 0.950 . S
C2285 C2284 1.524 . S
C2285 C2286 1.415 . S
C2286 H2262 0.950 . S
C2286 C2281 1.363 . S
C2286 C2285 1.415 . S
C2287 H2263 0.951 . S
C2287 C2288 1.366 . S
C2287 C2289 1.388 . S
C2288 C2287 1.366 . S
C2288 C2292 1.385 . S
C2289 H2264 0.951 . S
C2289 C2287 1.388 . S
C2289 C2290 1.366 . S
C2290 C2289 1.366 . S
C2290 C2291 1.414 . S
C2290 C2293 1.499 . S
C2291 H2265 0.950 . S
C2291 C2290 1.414 . S
C2291 C2292 1.374 . S
C2292 H2266 0.950 . S
C2292 C2288 1.385 . S
C2292 C2291 1.374 . S
C2293 C2290 1.499 . S
C2293 C2294 1.373 . S
C2293 C2295 1.389 . S
C2294 H2267 0.950 . S
C2294 C2280 1.377 . S
C2294 C2293 1.373 . S
C2295 C2279 1.377 . S
C2295 C2293 1.389 . S
C2295 C2296 1.524 . S
C2296 C2295 1.524 . S
C2296 C2297 1.397 . S
C2296 C2301 1.363 . S
C2297 H2268 0.950 . S
C2297 C2296 1.397 . S
C2297 C2298 1.334 . S
C2298 H2269 0.950 . S
C2298 C2297 1.334 . S
C2298 C2299 1.287 . S
C2299 C2298 1.287 . S
C2299 C2300 1.524 . S
C2299 H2302 0.999 . S
C2300 H2270 0.950 . S
C2300 C2299 1.524 . S
C2300 C2301 1.415 . S
C2301 H2271 0.950 . S
C2301 C2296 1.363 . S
C2301 C2300 1.415 . S
H2302 C2299 0.999 . S
H2303 C2284 0.913 . S
H2304 C2322 0.951 . S
H2305 C2324 0.951 . S
H2306 C2326 0.950 . S
H2307 C2327 0.950 . S
H2308 C2329 0.950 . S
H2309 C2332 0.950 . S
H2310 C2333 0.950 . S
H2311 C2335 0.950 . S
H2312 C2336 0.950 . S
H2313 C2337 0.951 . S
H2314 C2339 0.951 . S
H2315 C2341 0.950 . S
H2316 C2342 0.950 . S
H2317 C2344 0.950 . S
H2318 C2347 0.950 . S
H2319 C2348 0.950 . S
H2320 C2350 0.950 . S
H2321 C2351 0.950 . S
C2322 H2304 0.951 . S
C2322 C2323 1.366 . S
C2322 C2324 1.388 . S
C2323 C2322 1.366 . S
C2323 C2327 1.385 . S
C2324 H2305 0.951 . S
C2324 C2322 1.388 . S
C2324 C2325 1.366 . S
C2325 C2324 1.366 . S
C2325 C2326 1.414 . S
C2325 C2328 1.499 . S
C2326 H2306 0.950 . S
C2326 C2325 1.414 . S
C2326 C2327 1.374 . S
C2327 H2307 0.950 . S
C2327 C2323 1.385 . S
C2327 C2326 1.374 . S
C2328 C2325 1.499 . S
C2328 C2329 1.373 . S
C2328 C2330 1.389 . S
C2329 H2308 0.950 . S
C2329 C2328 1.373 . S
C2329 C2345 1.377 . S
C2330 C2328 1.389 . S
C2330 C2331 1.524 . S
C2330 C2344 1.377 . S
C2331 C2330 1.524 . S
C2331 C2332 1.397 1_545 S
C2331 C2336 1.363 . S
C2332 H2309 0.950 . S
C2332 C2331 1.397 1_565 S
C2332 C2333 1.334 . S
C2333 H2310 0.950 . S
C2333 C2332 1.334 . S
C2333 C2334 1.287 . S
C2334 C2333 1.287 . S
C2334 C2335 1.524 1_565 S
C2334 H2353 0.913 . S
C2335 H2311 0.950 . S
C2335 C2334 1.524 1_545 S
C2335 C2336 1.415 . S
C2336 H2312 0.950 . S
C2336 C2331 1.363 . S
C2336 C2335 1.415 . S
C2337 H2313 0.951 . S
C2337 C2338 1.366 . S
C2337 C2339 1.388 . S
C2338 C2337 1.366 . S
C2338 C2342 1.385 . S
C2339 H2314 0.951 . S
C2339 C2337 1.388 . S
C2339 C2340 1.366 . S
C2340 C2339 1.366 . S
C2340 C2341 1.414 . S
C2340 C2343 1.499 . S
C2341 H2315 0.950 . S
C2341 C2340 1.414 . S
C2341 C2342 1.374 . S
C2342 H2316 0.950 . S
C2342 C2338 1.385 . S
C2342 C2341 1.374 . S
C2343 C2340 1.499 . S
C2343 C2344 1.373 . S
C2343 C2345 1.389 . S
C2344 H2317 0.950 . S
C2344 C2330 1.377 . S
C2344 C2343 1.373 . S
C2345 C2329 1.377 . S
C2345 C2343 1.389 . S
C2345 C2346 1.524 . S
C2346 C2345 1.524 . S
C2346 C2347 1.397 . S
C2346 C2351 1.363 . S
C2347 H2318 0.950 . S
C2347 C2346 1.397 . S
C2347 C2348 1.334 . S
C2348 H2319 0.950 . S
C2348 C2347 1.334 . S
C2348 C2349 1.287 . S
C2349 C2348 1.287 . S
C2349 C2350 1.524 . S
C2349 H2352 0.999 . S
C2350 H2320 0.950 . S
C2350 C2349 1.524 . S
C2350 C2351 1.415 . S
C2351 H2321 0.950 . S
C2351 C2346 1.363 . S
C2351 C2350 1.415 . S
H2352 C2349 0.999 . S
H2353 C2334 0.913 . S
H2354 C2372 0.951 1_455 S
H2355 C2374 0.944 1_455 S
H2356 C2376 0.950 . S
H2357 C2377 0.950 . S
H2358 C2379 0.950 . S
H2359 C2382 0.950 . S
H2360 C2383 0.950 . S
H2361 C2385 0.950 . S
H2362 C2386 0.950 . S
H2363 C2387 0.951 . S
H2364 C2389 0.951 . S
H2365 C2391 0.950 . S
H2366 C2392 0.950 . S
H2367 C2394 0.950 . S
H2368 C2397 0.950 . S
H2369 C2398 0.950 . S
H2370 C2400 0.950 . S
H2371 C2401 0.950 . S
C2372 H2354 0.951 1_655 S
C2372 C2373 1.366 . S
C2372 C2374 1.396 . S
C2373 C2372 1.366 . S
C2373 C2377 1.385 . S
C2374 H2355 0.944 1_655 S
C2374 C2372 1.396 . S
C2374 C2375 1.365 . S
C2375 C2374 1.365 . S
C2375 C2376 1.414 . S
C2375 C2378 1.499 . S
C2376 H2356 0.950 . S
C2376 C2375 1.414 . S
C2376 C2377 1.374 . S
C2377 H2357 0.950 . S
C2377 C2373 1.385 . S
C2377 C2376 1.374 . S
C2378 C2375 1.499 . S
C2378 C2379 1.373 . S
C2378 C2380 1.389 1_655 S
C2379 H2358 0.950 . S
C2379 C2378 1.373 . S
C2379 C2395 1.377 . S
C2380 C2378 1.389 1_455 S
C2380 C2381 1.524 . S
C2380 C2394 1.377 . S
C2381 C2380 1.524 . S
C2381 C2382 1.397 . S
C2381 C2386 1.363 . S
C2382 H2359 0.950 . S
C2382 C2381 1.397 . S
C2382 C2383 1.334 . S
C2383 H2360 0.950 . S
C2383 C2382 1.334 . S
C2383 C2384 1.287 . S
C2384 C2383 1.287 . S
C2384 C2385 1.524 . S
C2384 H2403 0.913 . S
C2385 H2361 0.950 . S
C2385 C2384 1.524 . S
C2385 C2386 1.415 . S
C2386 H2362 0.950 . S
C2386 C2381 1.363 . S
C2386 C2385 1.415 . S
C2387 H2363 0.951 . S
C2387 C2388 1.366 . S
C2387 C2389 1.388 . S
C2388 C2387 1.366 . S
C2388 C2392 1.385 1_655 S
C2389 H2364 0.951 . S
C2389 C2387 1.388 . S
C2389 C2390 1.366 . S
C2390 C2389 1.366 . S
C2390 C2391 1.414 1_655 S
C2390 C2393 1.499 . S
C2391 H2365 0.950 . S
C2391 C2390 1.414 1_455 S
C2391 C2392 1.374 . S
C2392 H2366 0.950 . S
C2392 C2388 1.385 1_455 S
C2392 C2391 1.374 . S
C2393 C2390 1.499 . S
C2393 C2394 1.373 1_655 S
C2393 C2395 1.389 . S
C2394 H2367 0.950 . S
C2394 C2380 1.377 . S
C2394 C2393 1.373 1_455 S
C2395 C2379 1.377 . S
C2395 C2393 1.389 . S
C2395 C2396 1.524 . S
C2396 C2395 1.524 . S
C2396 C2397 1.397 . S
C2396 C2401 1.363 . S
C2397 H2368 0.950 . S
C2397 C2396 1.397 . S
C2397 C2398 1.334 . S
C2398 H2369 0.950 . S
C2398 C2397 1.334 . S
C2398 C2399 1.287 . S
C2399 C2398 1.287 . S
C2399 C2400 1.524 . S
C2399 H2402 0.999 . S
C2400 H2370 0.950 . S
C2400 C2399 1.524 . S
C2400 C2401 1.415 . S
C2401 H2371 0.950 . S
C2401 C2396 1.363 . S
C2401 C2400 1.415 . S
H2402 C2399 0.999 . S
H2403 C2384 0.913 . S
H2404 C2422 0.951 . S
H2405 C2424 0.951 . S
H2406 C2426 0.950 . S
H2407 C2427 0.950 . S
H2408 C2429 0.950 . S
H2409 C2432 0.950 . S
H2410 C2433 0.950 . S
H2411 C2435 0.950 . S
H2412 C2436 0.950 . S
H2413 C2437 0.951 . S
H2414 C2439 0.951 . S
H2415 C2441 0.950 . S
H2416 C2442 0.950 . S
H2417 C2444 0.950 . S
H2418 C2447 0.950 . S
H2419 C2448 0.950 . S
H2420 C2450 0.950 . S
H2421 C2451 0.950 . S
C2422 H2404 0.951 . S
C2422 C2423 1.366 . S
C2422 C2424 1.388 . S
C2423 C2422 1.366 . S
C2423 C2427 1.385 . S
C2424 H2405 0.951 . S
C2424 C2422 1.388 . S
C2424 C2425 1.366 . S
C2425 C2424 1.366 . S
C2425 C2426 1.414 . S
C2425 C2428 1.499 . S
C2426 H2406 0.950 . S
C2426 C2425 1.414 . S
C2426 C2427 1.374 . S
C2427 H2407 0.950 . S
C2427 C2423 1.385 . S
C2427 C2426 1.374 . S
C2428 C2425 1.499 . S
C2428 C2429 1.373 . S
C2428 C2430 1.389 . S
C2429 H2408 0.950 . S
C2429 C2428 1.373 . S
C2429 C2445 1.377 . S
C2430 C2428 1.389 . S
C2430 C2431 1.524 . S
C2430 C2444 1.377 . S
C2431 C2430 1.524 . S
C2431 C2432 1.397 . S
C2431 C2436 1.363 . S
C2432 H2409 0.950 . S
C2432 C2431 1.397 . S
C2432 C2433 1.334 . S
C2433 H2410 0.950 . S
C2433 C2432 1.334 . S
C2433 C2434 1.287 . S
C2434 C2433 1.287 . S
C2434 C2435 1.524 . S
C2434 H2453 0.913 . S
C2435 H2411 0.950 . S
C2435 C2434 1.524 . S
C2435 C2436 1.415 . S
C2436 H2412 0.950 . S
C2436 C2431 1.363 . S
C2436 C2435 1.415 . S
C2437 H2413 0.951 . S
C2437 C2438 1.366 . S
C2437 C2439 1.388 . S
C2438 C2437 1.366 . S
C2438 C2442 1.385 . S
C2439 H2414 0.951 . S
C2439 C2437 1.388 . S
C2439 C2440 1.366 . S
C2440 C2439 1.366 . S
C2440 C2441 1.414 . S
C2440 C2443 1.499 . S
C2441 H2415 0.950 . S
C2441 C2440 1.414 . S
C2441 C2442 1.374 . S
C2442 H2416 0.950 . S
C2442 C2438 1.385 . S
C2442 C2441 1.374 . S
C2443 C2440 1.499 . S
C2443 C2444 1.373 . S
C2443 C2445 1.389 . S
C2444 H2417 0.950 . S
C2444 C2430 1.377 . S
C2444 C2443 1.373 . S
C2445 C2429 1.377 . S
C2445 C2443 1.389 . S
C2445 C2446 1.524 . S
C2446 C2445 1.524 . S
C2446 C2447 1.397 . S
C2446 C2451 1.363 . S
C2447 H2418 0.950 . S
C2447 C2446 1.397 . S
C2447 C2448 1.334 . S
C2448 H2419 0.950 . S
C2448 C2447 1.334 . S
C2448 C2449 1.287 . S
C2449 C2448 1.287 . S
C2449 C2450 1.524 . S
C2449 H2452 0.999 . S
C2450 H2420 0.950 . S
C2450 C2449 1.524 . S
C2450 C2451 1.415 . S
C2451 H2421 0.950 . S
C2451 C2446 1.363 . S
C2451 C2450 1.415 . S
H2452 C2449 0.999 . S
H2453 C2434 0.913 . S
H2454 C2472 0.951 . S
H2455 C2474 0.951 . S
H2456 C2476 0.950 . S
H2457 C2477 0.950 . S
H2458 C2479 0.950 . S
H2459 C2482 0.950 . S
H2460 C2483 0.950 . S
H2461 C2485 0.950 . S
H2462 C2486 0.950 . S
H2463 C2487 0.951 1_655 S
H2464 C2489 0.951 1_655 S
H2465 C2491 0.950 . S
H2466 C2492 0.950 . S
H2467 C2494 0.950 . S
H2468 C2497 0.950 . S
H2469 C2498 0.950 . S
H2470 C2500 0.950 . S
H2471 C2501 0.950 . S
C2472 H2454 0.951 . S
C2472 C2473 1.366 . S
C2472 C2474 1.388 . S
C2473 C2472 1.366 . S
C2473 C2477 1.385 . S
C2474 H2455 0.951 . S
C2474 C2472 1.388 . S
C2474 C2475 1.366 . S
C2475 C2474 1.366 . S
C2475 C2476 1.414 . S
C2475 C2478 1.499 . S
C2476 H2456 0.950 . S
C2476 C2475 1.414 . S
C2476 C2477 1.374 . S
C2477 H2457 0.950 . S
C2477 C2473 1.385 . S
C2477 C2476 1.374 . S
C2478 C2475 1.499 . S
C2478 C2479 1.373 . S
C2478 C2480 1.389 . S
C2479 H2458 0.950 . S
C2479 C2478 1.373 . S
C2479 C2495 1.377 . S
C2480 C2478 1.389 . S
C2480 C2481 1.524 . S
C2480 C2494 1.377 . S
C2481 C2480 1.524 . S
C2481 C2482 1.397 . S
C2481 C2486 1.363 . S
C2482 H2459 0.950 . S
C2482 C2481 1.397 . S
C2482 C2483 1.334 . S
C2483 H2460 0.950 . S
C2483 C2482 1.334 . S
C2483 C2484 1.287 . S
C2484 C2483 1.287 . S
C2484 C2485 1.524 . S
C2484 H2503 0.913 . S
C2485 H2461 0.950 . S
C2485 C2484 1.524 . S
C2485 C2486 1.415 . S
C2486 H2462 0.950 . S
C2486 C2481 1.363 . S
C2486 C2485 1.415 . S
C2487 H2463 0.951 1_455 S
C2487 C2488 1.366 . S
C2487 C2489 1.388 . S
C2488 C2487 1.366 . S
C2488 C2492 1.385 . S
C2489 H2464 0.951 1_455 S
C2489 C2487 1.388 . S
C2489 C2490 1.366 . S
C2490 C2489 1.366 . S
C2490 C2491 1.414 . S
C2490 C2493 1.499 . S
C2491 H2465 0.950 . S
C2491 C2490 1.414 . S
C2491 C2492 1.374 . S
C2492 H2466 0.950 . S
C2492 C2488 1.385 . S
C2492 C2491 1.374 . S
C2493 C2490 1.499 . S
C2493 C2494 1.373 . S
C2493 C2495 1.389 . S
C2494 H2467 0.950 . S
C2494 C2480 1.377 . S
C2494 C2493 1.373 . S
C2495 C2479 1.377 . S
C2495 C2493 1.389 . S
C2495 C2496 1.524 1_455 S
C2496 C2495 1.524 1_655 S
C2496 C2497 1.397 1_655 S
C2496 C2501 1.363 . S
C2497 H2468 0.950 . S
C2497 C2496 1.397 1_455 S
C2497 C2498 1.334 1_455 S
C2498 H2469 0.950 . S
C2498 C2497 1.334 1_655 S
C2498 C2499 1.287 . S
C2499 C2498 1.287 . S
C2499 C2500 1.524 . S
C2499 H2502 0.999 . S
C2500 H2470 0.950 . S
C2500 C2499 1.524 . S
C2500 C2501 1.415 . S
C2501 H2471 0.950 . S
C2501 C2496 1.363 . S
C2501 C2500 1.415 . S
H2502 C2499 0.999 . S
H2503 C2484 0.913 . S
H2504 C2522 0.951 . S
H2505 C2524 0.951 . S
H2506 C2526 0.950 . S
H2507 C2527 0.950 . S
H2508 C2529 0.950 . S
H2509 C2532 0.950 . S
H2510 C2533 0.950 . S
H2511 C2535 0.950 . S
H2512 C2536 0.950 . S
H2513 C2537 0.951 . S
H2514 C2539 0.951 . S
H2515 C2541 0.950 . S
H2516 C2542 0.950 . S
H2517 C2544 0.950 . S
H2518 C2547 0.950 . S
H2519 C2548 0.950 . S
H2520 C2550 0.950 . S
H2521 C2551 0.950 . S
C2522 H2504 0.951 . S
C2522 C2523 1.366 . S
C2522 C2524 1.388 . S
C2523 C2522 1.366 . S
C2523 C2527 1.385 . S
C2524 H2505 0.951 . S
C2524 C2522 1.388 . S
C2524 C2525 1.366 . S
C2525 C2524 1.366 . S
C2525 C2526 1.414 . S
C2525 C2528 1.499 . S
C2526 H2506 0.950 . S
C2526 C2525 1.414 . S
C2526 C2527 1.374 . S
C2527 H2507 0.950 . S
C2527 C2523 1.385 . S
C2527 C2526 1.374 . S
C2528 C2525 1.499 . S
C2528 C2529 1.373 . S
C2528 C2530 1.389 . S
C2529 H2508 0.950 . S
C2529 C2528 1.373 . S
C2529 C2545 1.377 . S
C2530 C2528 1.389 . S
C2530 C2531 1.524 . S
C2530 C2544 1.377 . S
C2531 C2530 1.524 . S
C2531 C2532 1.397 . S
C2531 C2536 1.363 . S
C2532 H2509 0.950 . S
C2532 C2531 1.397 . S
C2532 C2533 1.334 . S
C2533 H2510 0.950 . S
C2533 C2532 1.334 . S
C2533 C2534 1.287 . S
C2534 C2533 1.287 . S
C2534 C2535 1.524 . S
C2534 H2553 0.913 . S
C2535 H2511 0.950 . S
C2535 C2534 1.524 . S
C2535 C2536 1.415 . S
C2536 H2512 0.950 . S
C2536 C2531 1.363 . S
C2536 C2535 1.415 . S
C2537 H2513 0.951 . S
C2537 C2538 1.366 . S
C2537 C2539 1.388 . S
C2538 C2537 1.366 . S
C2538 C2542 1.385 . S
C2539 H2514 0.951 . S
C2539 C2537 1.388 . S
C2539 C2540 1.366 . S
C2540 C2539 1.366 . S
C2540 C2541 1.414 . S
C2540 C2543 1.499 . S
C2541 H2515 0.950 . S
C2541 C2540 1.414 . S
C2541 C2542 1.374 . S
C2542 H2516 0.950 . S
C2542 C2538 1.385 . S
C2542 C2541 1.374 . S
C2543 C2540 1.499 . S
C2543 C2544 1.373 . S
C2543 C2545 1.389 . S
C2544 H2517 0.950 . S
C2544 C2530 1.377 . S
C2544 C2543 1.373 . S
C2545 C2529 1.377 . S
C2545 C2543 1.389 . S
C2545 C2546 1.524 . S
C2546 C2545 1.524 . S
C2546 C2547 1.397 . S
C2546 C2551 1.363 . S
C2547 H2518 0.950 . S
C2547 C2546 1.397 . S
C2547 C2548 1.334 . S
C2548 H2519 0.950 . S
C2548 C2547 1.334 . S
C2548 C2549 1.287 . S
C2549 C2548 1.287 . S
C2549 C2550 1.524 . S
C2549 H2552 0.999 . S
C2550 H2520 0.950 . S
C2550 C2549 1.524 . S
C2550 C2551 1.415 . S
C2551 H2521 0.950 . S
C2551 C2546 1.363 . S
C2551 C2550 1.415 . S
H2552 C2549 0.999 . S
H2553 C2534 0.913 . S
H2554 C2572 0.951 . S
H2555 C2574 0.951 . S
H2556 C2576 0.950 . S
H2557 C2577 0.950 . S
H2558 C2579 0.950 . S
H2559 C2582 0.950 . S
H2560 C2583 0.950 . S
H2561 C2585 0.950 . S
H2562 C2586 0.950 . S
H2563 C2587 0.951 . S
H2564 C2589 0.951 . S
H2565 C2591 0.950 . S
H2566 C2592 0.950 . S
H2567 C2594 0.950 . S
H2568 C2597 0.950 1_545 S
H2569 C2598 0.950 1_545 S
H2570 C2600 0.950 . S
H2571 C2601 0.950 . S
C2572 H2554 0.951 . S
C2572 C2573 1.366 1_545 S
C2572 C2574 1.388 . S
C2573 C2572 1.366 1_565 S
C2573 C2577 1.385 . S
C2574 H2555 0.951 . S
C2574 C2572 1.388 . S
C2574 C2575 1.366 1_545 S
C2575 C2574 1.366 1_565 S
C2575 C2576 1.414 . S
C2575 C2578 1.499 . S
C2576 H2556 0.950 . S
C2576 C2575 1.414 . S
C2576 C2577 1.374 . S
C2577 H2557 0.950 . S
C2577 C2573 1.385 . S
C2577 C2576 1.374 . S
C2578 C2575 1.499 . S
C2578 C2579 1.373 . S
C2578 C2580 1.389 1_565 S
C2579 H2558 0.950 . S
C2579 C2578 1.373 . S
C2579 C2595 1.377 . S
C2580 C2578 1.389 1_545 S
C2580 C2581 1.524 . S
C2580 C2594 1.377 . S
C2581 C2580 1.524 . S
C2581 C2582 1.397 1_545 S
C2581 C2586 1.363 . S
C2582 H2559 0.950 . S
C2582 C2581 1.397 1_565 S
C2582 C2583 1.334 . S
C2583 H2560 0.950 . S
C2583 C2582 1.334 . S
C2583 C2584 1.287 1_565 S
C2584 C2583 1.287 1_545 S
C2584 C2585 1.524 . S
C2584 H2603 0.913 . S
C2585 H2561 0.950 . S
C2585 C2584 1.524 . S
C2585 C2586 1.415 . S
C2586 H2562 0.950 . S
C2586 C2581 1.363 . S
C2586 C2585 1.415 . S
C2587 H2563 0.951 . S
C2587 C2588 1.366 . S
C2587 C2589 1.388 . S
C2588 C2587 1.366 . S
C2588 C2592 1.385 1_565 S
C2589 H2564 0.951 . S
C2589 C2587 1.388 . S
C2589 C2590 1.366 . S
C2590 C2589 1.366 . S
C2590 C2591 1.414 1_565 S
C2590 C2593 1.499 . S
C2591 H2565 0.950 . S
C2591 C2590 1.414 1_545 S
C2591 C2592 1.374 . S
C2592 H2566 0.950 . S
C2592 C2588 1.385 1_545 S
C2592 C2591 1.374 . S
C2593 C2590 1.499 . S
C2593 C2594 1.373 1_565 S
C2593 C2595 1.389 . S
C2594 H2567 0.950 . S
C2594 C2580 1.377 . S
C2594 C2593 1.373 1_545 S
C2595 C2579 1.377 . S
C2595 C2593 1.389 . S
C2595 C2596 1.524 . S
C2596 C2595 1.524 . S
C2596 C2597 1.397 . S
C2596 C2601 1.363 . S
C2597 H2568 0.950 1_565 S
C2597 C2596 1.397 . S
C2597 C2598 1.334 . S
C2598 H2569 0.950 1_565 S
C2598 C2597 1.334 . S
C2598 C2599 1.287 . S
C2599 C2598 1.287 . S
C2599 C2600 1.524 . S
C2599 H2602 0.999 . S
C2600 H2570 0.950 . S
C2600 C2599 1.524 . S
C2600 C2601 1.415 . S
C2601 H2571 0.950 . S
C2601 C2596 1.363 . S
C2601 C2600 1.415 . S
H2602 C2599 0.999 . S
H2603 C2584 0.913 . S
H2604 C2622 0.951 . S
H2605 C2624 0.951 . S
H2606 C2626 0.950 . S
H2607 C2627 0.950 . S
H2608 C2629 0.950 . S
H2609 C2632 0.950 . S
H2610 C2633 0.950 . S
H2611 C2635 0.950 . S
H2612 C2636 0.950 . S
H2613 C2637 0.951 . S
H2614 C2639 0.951 . S
H2615 C2641 0.950 . S
H2616 C2642 0.950 . S
H2617 C2644 0.950 . S
H2618 C2647 0.950 . S
H2619 C2648 0.950 . S
H2620 C2650 0.950 . S
H2621 C2651 0.950 . S
C2622 H2604 0.951 . S
C2622 C2623 1.366 . S
C2622 C2624 1.388 . S
C2623 C2622 1.366 . S
C2623 C2627 1.385 1_565 S
C2624 H2605 0.951 . S
C2624 C2622 1.388 . S
C2624 C2625 1.366 . S
C2625 C2624 1.366 . S
C2625 C2626 1.414 1_565 S
C2625 C2628 1.499 . S
C2626 H2606 0.950 . S
C2626 C2625 1.414 1_545 S
C2626 C2627 1.374 . S
C2627 H2607 0.950 . S
C2627 C2623 1.385 1_545 S
C2627 C2626 1.374 . S
C2628 C2625 1.499 . S
C2628 C2629 1.373 1_565 S
C2628 C2630 1.389 . S
C2629 H2608 0.950 . S
C2629 C2628 1.373 1_545 S
C2629 C2645 1.377 . S
C2630 C2628 1.389 . S
C2630 C2631 1.524 . S
C2630 C2644 1.377 . S
C2631 C2630 1.524 . S
C2631 C2632 1.397 . S
C2631 C2636 1.363 . S
C2632 H2609 0.950 . S
C2632 C2631 1.397 . S
C2632 C2633 1.334 . S
C2633 H2610 0.950 . S
C2633 C2632 1.334 . S
C2633 C2634 1.287 . S
C2634 C2633 1.287 . S
C2634 C2635 1.524 . S
C2634 H2653 0.913 . S
C2635 H2611 0.950 . S
C2635 C2634 1.524 . S
C2635 C2636 1.415 . S
C2636 H2612 0.950 . S
C2636 C2631 1.363 . S
C2636 C2635 1.415 . S
C2637 H2613 0.951 . S
C2637 C2638 1.383 . S
C2637 C2639 1.388 . S
C2638 C2637 1.383 . S
C2638 C2642 1.382 1_545 S
C2639 H2614 0.951 . S
C2639 C2637 1.388 . S
C2639 C2640 1.363 1_545 S
C2640 C2639 1.363 1_565 S
C2640 C2641 1.439 . S
C2640 C2643 1.481 . S
C2641 H2615 0.950 . S
C2641 C2640 1.439 . S
C2641 C2642 1.374 . S
C2642 H2616 0.950 . S
C2642 C2638 1.382 1_565 S
C2642 C2641 1.374 . S
C2643 C2640 1.481 . S
C2643 C2644 1.373 . S
C2643 C2645 1.389 1_565 S
C2644 H2617 0.950 . S
C2644 C2630 1.377 . S
C2644 C2643 1.373 . S
C2645 C2629 1.377 . S
C2645 C2643 1.389 1_545 S
C2645 C2646 1.524 . S
C2646 C2645 1.524 . S
C2646 C2647 1.397 . S
C2646 C2651 1.363 . S
C2647 H2618 0.950 . S
C2647 C2646 1.397 . S
C2647 C2648 1.334 . S
C2648 H2619 0.950 . S
C2648 C2647 1.334 . S
C2648 C2649 1.287 . S
C2649 C2648 1.287 . S
C2649 C2650 1.524 . S
C2649 H2652 0.999 . S
C2650 H2620 0.950 . S
C2650 C2649 1.524 . S
C2650 C2651 1.415 . S
C2651 H2621 0.950 . S
C2651 C2646 1.363 . S
C2651 C2650 1.415 . S
H2652 C2649 0.999 . S
H2653 C2634 0.913 . S
H2654 C2672 0.951 . S
H2655 C2674 0.951 . S
H2656 C2676 0.950 . S
H2657 C2677 0.950 . S
H2658 C2679 0.950 . S
H2659 C2682 0.950 . S
H2660 C2683 0.950 . S
H2661 C2685 0.950 . S
H2662 C2686 0.950 . S
H2663 C2687 0.951 1_655 S
H2664 C2689 0.951 1_655 S
H2665 C2691 0.950 . S
H2666 C2692 0.950 . S
H2667 C2694 0.950 . S
H2668 C2697 0.950 . S
H2669 C2698 0.950 . S
H2670 C2700 0.950 . S
H2671 C2701 0.950 . S
C2672 H2654 0.951 . S
C2672 C2673 1.366 . S
C2672 C2674 1.388 . S
C2673 C2672 1.366 . S
C2673 C2677 1.385 . S
C2674 H2655 0.951 . S
C2674 C2672 1.388 . S
C2674 C2675 1.366 . S
C2675 C2674 1.366 . S
C2675 C2676 1.414 . S
C2675 C2678 1.499 . S
C2676 H2656 0.950 . S
C2676 C2675 1.414 . S
C2676 C2677 1.374 . S
C2677 H2657 0.950 . S
C2677 C2673 1.385 . S
C2677 C2676 1.374 . S
C2678 C2675 1.499 . S
C2678 C2679 1.373 . S
C2678 C2680 1.389 . S
C2679 H2658 0.950 . S
C2679 C2678 1.373 . S
C2679 C2695 1.377 . S
C2680 C2678 1.389 . S
C2680 C2681 1.524 . S
C2680 C2694 1.377 . S
C2681 C2680 1.524 . S
C2681 C2682 1.397 . S
C2681 C2686 1.363 . S
C2682 H2659 0.950 . S
C2682 C2681 1.397 . S
C2682 C2683 1.334 . S
C2683 H2660 0.950 . S
C2683 C2682 1.334 . S
C2683 C2684 1.287 . S
C2684 C2683 1.287 . S
C2684 C2685 1.524 . S
C2684 H2703 0.913 . S
C2685 H2661 0.950 . S
C2685 C2684 1.524 . S
C2685 C2686 1.415 . S
C2686 H2662 0.950 . S
C2686 C2681 1.363 . S
C2686 C2685 1.415 . S
C2687 H2663 0.951 1_455 S
C2687 C2688 1.366 . S
C2687 C2689 1.388 . S
C2688 C2687 1.366 . S
C2688 C2692 1.385 . S
C2689 H2664 0.951 1_455 S
C2689 C2687 1.388 . S
C2689 C2690 1.366 . S
C2690 C2689 1.366 . S
C2690 C2691 1.414 . S
C2690 C2693 1.499 . S
C2691 H2665 0.950 . S
C2691 C2690 1.414 . S
C2691 C2692 1.374 . S
C2692 H2666 0.950 . S
C2692 C2688 1.385 . S
C2692 C2691 1.374 . S
C2693 C2690 1.499 . S
C2693 C2694 1.373 . S
C2693 C2695 1.389 . S
C2694 H2667 0.950 . S
C2694 C2680 1.377 . S
C2694 C2693 1.373 . S
C2695 C2679 1.377 . S
C2695 C2693 1.389 . S
C2695 C2696 1.524 . S
C2696 C2695 1.524 . S
C2696 C2697 1.397 . S
C2696 C2701 1.363 1_455 S
C2697 H2668 0.950 . S
C2697 C2696 1.397 . S
C2697 C2698 1.334 . S
C2698 H2669 0.950 . S
C2698 C2697 1.334 . S
C2698 C2699 1.287 . S
C2699 C2698 1.287 . S
C2699 C2700 1.524 1_455 S
C2699 H2702 0.999 . S
C2700 H2670 0.950 . S
C2700 C2699 1.524 1_655 S
C2700 C2701 1.415 . S
C2701 H2671 0.950 . S
C2701 C2696 1.363 1_655 S
C2701 C2700 1.415 . S
H2702 C2699 0.999 . S
H2703 C2684 0.913 . S
H2704 C2722 0.951 . S
H2705 C2724 0.951 . S
H2706 C2726 0.950 . S
H2707 C2727 0.950 . S
H2708 C2729 0.950 . S
H2709 C2732 0.950 . S
H2710 C2733 0.950 . S
H2711 C2735 0.950 . S
H2712 C2736 0.950 . S
H2713 C2737 0.951 . S
H2714 C2739 0.951 . S
H2715 C2741 0.950 . S
H2716 C2742 0.950 . S
H2717 C2744 0.950 . S
H2718 C2747 0.950 . S
H2719 C2748 0.950 . S
H2720 C2750 0.950 . S
H2721 C2751 0.950 . S
C2722 H2704 0.951 . S
C2722 C2723 1.366 . S
C2722 C2724 1.388 . S
C2723 C2722 1.366 . S
C2723 C2727 1.385 . S
C2724 H2705 0.951 . S
C2724 C2722 1.388 . S
C2724 C2725 1.366 . S
C2725 C2724 1.366 . S
C2725 C2726 1.414 . S
C2725 C2728 1.499 . S
C2726 H2706 0.950 . S
C2726 C2725 1.414 . S
C2726 C2727 1.374 . S
C2727 H2707 0.950 . S
C2727 C2723 1.385 . S
C2727 C2726 1.374 . S
C2728 C2725 1.499 . S
C2728 C2729 1.373 . S
C2728 C2730 1.389 . S
C2729 H2708 0.950 . S
C2729 C2728 1.373 . S
C2729 C2745 1.377 . S
C2730 C2728 1.389 . S
C2730 C2731 1.524 . S
C2730 C2744 1.377 . S
C2731 C2730 1.524 . S
C2731 C2732 1.397 . S
C2731 C2736 1.363 . S
C2732 H2709 0.950 . S
C2732 C2731 1.397 . S
C2732 C2733 1.334 . S
C2733 H2710 0.950 . S
C2733 C2732 1.334 . S
C2733 C2734 1.287 . S
C2734 C2733 1.287 . S
C2734 C2735 1.524 . S
C2734 H2753 0.913 . S
C2735 H2711 0.950 . S
C2735 C2734 1.524 . S
C2735 C2736 1.415 . S
C2736 H2712 0.950 . S
C2736 C2731 1.363 . S
C2736 C2735 1.415 . S
C2737 H2713 0.951 . S
C2737 C2738 1.366 . S
C2737 C2739 1.388 . S
C2738 C2737 1.366 . S
C2738 C2742 1.385 . S
C2739 H2714 0.951 . S
C2739 C2737 1.388 . S
C2739 C2740 1.366 . S
C2740 C2739 1.366 . S
C2740 C2741 1.414 . S
C2740 C2743 1.499 . S
C2741 H2715 0.950 . S
C2741 C2740 1.414 . S
C2741 C2742 1.374 . S
C2742 H2716 0.950 . S
C2742 C2738 1.385 . S
C2742 C2741 1.374 . S
C2743 C2740 1.499 . S
C2743 C2744 1.373 . S
C2743 C2745 1.389 . S
C2744 H2717 0.950 . S
C2744 C2730 1.377 . S
C2744 C2743 1.373 . S
C2745 C2729 1.377 . S
C2745 C2743 1.389 . S
C2745 C2746 1.524 . S
C2746 C2745 1.524 . S
C2746 C2747 1.397 . S
C2746 C2751 1.363 . S
C2747 H2718 0.950 . S
C2747 C2746 1.397 . S
C2747 C2748 1.334 . S
C2748 H2719 0.950 . S
C2748 C2747 1.334 . S
C2748 C2749 1.287 . S
C2749 C2748 1.287 . S
C2749 C2750 1.524 . S
C2749 H2752 0.999 . S
C2750 H2720 0.950 . S
C2750 C2749 1.524 . S
C2750 C2751 1.415 . S
C2751 H2721 0.950 . S
C2751 C2746 1.363 . S
C2751 C2750 1.415 . S
H2752 C2749 0.999 . S
H2753 C2734 0.913 . S
H2754 C2772 0.951 . S
H2755 C2774 0.951 . S
H2756 C2776 0.950 . S
H2757 C2777 0.950 . S
H2758 C2779 0.950 . S
H2759 C2782 0.950 . S
H2760 C2783 0.950 . S
H2761 C2785 0.950 . S
H2762 C2786 0.950 . S
H2763 C2787 0.951 . S
H2764 C2789 0.951 . S
H2765 C2791 0.950 . S
H2766 C2792 0.950 . S
H2767 C2794 0.950 . S
H2768 C2797 0.950 . S
H2769 C2798 0.950 . S
H2770 C2800 0.950 . S
H2771 C2801 0.950 . S
C2772 H2754 0.951 . S
C2772 C2773 1.366 . S
C2772 C2774 1.388 . S
C2773 C2772 1.366 . S
C2773 C2777 1.385 1_655 S
C2774 H2755 0.951 . S
C2774 C2772 1.388 . S
C2774 C2775 1.366 . S
C2775 C2774 1.366 . S
C2775 C2776 1.414 1_655 S
C2775 C2778 1.499 . S
C2776 H2756 0.950 . S
C2776 C2775 1.414 1_455 S
C2776 C2777 1.374 . S
C2777 H2757 0.950 . S
C2777 C2773 1.385 1_455 S
C2777 C2776 1.374 . S
C2778 C2775 1.499 . S
C2778 C2779 1.373 . S
C2778 C2780 1.389 . S
C2779 H2758 0.950 . S
C2779 C2778 1.373 . S
C2779 C2795 1.377 . S
C2780 C2778 1.389 . S
C2780 C2781 1.524 . S
C2780 C2794 1.377 . S
C2781 C2780 1.524 . S
C2781 C2782 1.397 1_655 S
C2781 C2786 1.363 . S
C2782 H2759 0.950 . S
C2782 C2781 1.397 1_455 S
C2782 C2783 1.334 . S
C2783 H2760 0.950 . S
C2783 C2782 1.334 . S
C2783 C2784 1.258 1_455 S
C2784 C2783 1.258 1_655 S
C2784 C2785 1.557 . S
C2784 H2803 0.909 1_655 S
C2785 H2761 0.950 . S
C2785 C2784 1.557 . S
C2785 C2786 1.415 . S
C2786 H2762 0.950 . S
C2786 C2781 1.363 . S
C2786 C2785 1.415 . S
C2787 H2763 0.951 . S
C2787 C2788 1.366 1_455 S
C2787 C2789 1.388 . S
C2788 C2787 1.366 1_655 S
C2788 C2792 1.385 . S
C2789 H2764 0.951 . S
C2789 C2787 1.388 . S
C2789 C2790 1.366 1_455 S
C2790 C2789 1.366 1_655 S
C2790 C2791 1.414 . S
C2790 C2793 1.499 . S
C2791 H2765 0.950 . S
C2791 C2790 1.414 . S
C2791 C2792 1.374 . S
C2792 H2766 0.950 . S
C2792 C2788 1.385 . S
C2792 C2791 1.374 . S
C2793 C2790 1.499 . S
C2793 C2794 1.373 . S
C2793 C2795 1.389 . S
C2794 H2767 0.950 . S
C2794 C2780 1.377 . S
C2794 C2793 1.373 . S
C2795 C2779 1.377 . S
C2795 C2793 1.389 . S
C2795 C2796 1.524 . S
C2796 C2795 1.524 . S
C2796 C2797 1.397 . S
C2796 C2801 1.363 1_655 S
C2797 H2768 0.950 . S
C2797 C2796 1.397 . S
C2797 C2798 1.334 . S
C2798 H2769 0.950 . S
C2798 C2797 1.334 . S
C2798 C2799 1.287 . S
C2799 C2798 1.287 . S
C2799 C2800 1.524 1_655 S
C2799 H2802 0.999 . S
C2800 H2770 0.950 . S
C2800 C2799 1.524 1_455 S
C2800 C2801 1.415 . S
C2801 H2771 0.950 . S
C2801 C2796 1.363 1_455 S
C2801 C2800 1.415 . S
H2802 C2799 0.999 . S
H2803 C2784 0.909 1_455 S
H2804 C2822 0.951 . S
H2805 C2824 0.951 . S
H2806 C2826 0.950 . S
H2807 C2827 0.950 . S
H2808 C2829 0.950 . S
H2809 C2832 0.950 . S
H2810 C2833 0.950 . S
H2811 C2835 0.950 . S
H2812 C2836 0.950 . S
H2813 C2837 0.951 . S
H2814 C2839 0.951 . S
H2815 C2841 0.950 . S
H2816 C2842 0.950 . S
H2817 C2844 0.950 . S
H2818 C2847 0.950 . S
H2819 C2848 0.950 . S
H2820 C2850 0.950 . S
H2821 C2851 0.950 . S
C2822 H2804 0.951 . S
C2822 C2823 1.366 . S
C2822 C2824 1.388 . S
C2823 C2822 1.366 . S
C2823 C2827 1.385 . S
C2824 H2805 0.951 . S
C2824 C2822 1.388 . S
C2824 C2825 1.366 . S
C2825 C2824 1.366 . S
C2825 C2826 1.414 . S
C2825 C2828 1.499 . S
C2826 H2806 0.950 . S
C2826 C2825 1.414 . S
C2826 C2827 1.374 . S
C2827 H2807 0.950 . S
C2827 C2823 1.385 . S
C2827 C2826 1.374 . S
C2828 C2825 1.499 . S
C2828 C2829 1.373 . S
C2828 C2830 1.389 . S
C2829 H2808 0.950 . S
C2829 C2828 1.373 . S
C2829 C2845 1.377 . S
C2830 C2828 1.389 . S
C2830 C2831 1.524 . S
C2830 C2844 1.377 . S
C2831 C2830 1.524 . S
C2831 C2832 1.397 . S
C2831 C2836 1.363 . S
C2832 H2809 0.950 . S
C2832 C2831 1.397 . S
C2832 C2833 1.334 . S
C2833 H2810 0.950 . S
C2833 C2832 1.334 . S
C2833 C2834 1.287 . S
C2834 C2833 1.287 . S
C2834 C2835 1.524 . S
C2834 H2853 0.913 . S
C2835 H2811 0.950 . S
C2835 C2834 1.524 . S
C2835 C2836 1.415 . S
C2836 H2812 0.950 . S
C2836 C2831 1.363 . S
C2836 C2835 1.415 . S
C2837 H2813 0.951 . S
C2837 C2838 1.366 . S
C2837 C2839 1.388 . S
C2838 C2837 1.366 . S
C2838 C2842 1.385 . S
C2839 H2814 0.951 . S
C2839 C2837 1.388 . S
C2839 C2840 1.366 . S
C2840 C2839 1.366 . S
C2840 C2841 1.414 . S
C2840 C2843 1.499 . S
C2841 H2815 0.950 . S
C2841 C2840 1.414 . S
C2841 C2842 1.374 . S
C2842 H2816 0.950 . S
C2842 C2838 1.385 . S
C2842 C2841 1.374 . S
C2843 C2840 1.499 . S
C2843 C2844 1.373 . S
C2843 C2845 1.389 . S
C2844 H2817 0.950 . S
C2844 C2830 1.377 . S
C2844 C2843 1.373 . S
C2845 C2829 1.377 . S
C2845 C2843 1.389 . S
C2845 C2846 1.524 . S
C2846 C2845 1.524 . S
C2846 C2847 1.397 . S
C2846 C2851 1.363 . S
C2847 H2818 0.950 . S
C2847 C2846 1.397 . S
C2847 C2848 1.334 . S
C2848 H2819 0.950 . S
C2848 C2847 1.334 . S
C2848 C2849 1.287 . S
C2849 C2848 1.287 . S
C2849 C2850 1.524 . S
C2849 H2852 0.999 . S
C2850 H2820 0.950 . S
C2850 C2849 1.524 . S
C2850 C2851 1.415 . S
C2851 H2821 0.950 . S
C2851 C2846 1.363 . S
C2851 C2850 1.415 . S
H2852 C2849 0.999 . S
H2853 C2834 0.913 . S
H2854 C2872 0.951 . S
H2855 C2874 0.951 . S
H2856 C2876 0.950 . S
H2857 C2877 0.950 . S
H2858 C2879 0.950 . S
H2859 C2882 0.950 . S
H2860 C2883 0.950 . S
H2861 C2885 0.950 . S
H2862 C2886 0.950 1_545 S
H2863 C2887 0.951 . S
H2864 C2889 0.951 . S
H2865 C2891 0.950 . S
H2866 C2892 0.950 . S
H2867 C2894 0.950 . S
H2868 C2897 0.950 . S
H2869 C2898 0.950 . S
H2870 C2900 0.950 . S
H2871 C2901 0.950 . S
C2872 H2854 0.951 . S
C2872 C2873 1.366 . S
C2872 C2874 1.388 . S
C2873 C2872 1.366 . S
C2873 C2877 1.385 . S
C2874 H2855 0.951 . S
C2874 C2872 1.388 . S
C2874 C2875 1.366 . S
C2875 C2874 1.366 . S
C2875 C2876 1.414 . S
C2875 C2878 1.499 . S
C2876 H2856 0.950 . S
C2876 C2875 1.414 . S
C2876 C2877 1.374 . S
C2877 H2857 0.950 . S
C2877 C2873 1.385 . S
C2877 C2876 1.374 . S
C2878 C2875 1.499 . S
C2878 C2879 1.373 . S
C2878 C2880 1.389 . S
C2879 H2858 0.950 . S
C2879 C2878 1.373 . S
C2879 C2895 1.377 . S
C2880 C2878 1.389 . S
C2880 C2881 1.521 1_545 S
C2880 C2894 1.377 . S
C2881 C2880 1.521 1_565 S
C2881 C2882 1.397 . S
C2881 C2886 1.365 . S
C2882 H2859 0.950 . S
C2882 C2881 1.397 . S
C2882 C2883 1.334 . S
C2883 H2860 0.950 . S
C2883 C2882 1.334 . S
C2883 C2884 1.287 . S
C2884 C2883 1.287 . S
C2884 C2885 1.524 . S
C2884 H2903 0.913 . S
C2885 H2861 0.950 . S
C2885 C2884 1.524 . S
C2885 C2886 1.415 . S
C2886 H2862 0.950 1_565 S
C2886 C2881 1.365 . S
C2886 C2885 1.415 . S
C2887 H2863 0.951 . S
C2887 C2888 1.366 . S
C2887 C2889 1.388 . S
C2888 C2887 1.366 . S
C2888 C2892 1.385 . S
C2889 H2864 0.951 . S
C2889 C2887 1.388 . S
C2889 C2890 1.366 . S
C2890 C2889 1.366 . S
C2890 C2891 1.414 . S
C2890 C2893 1.499 . S
C2891 H2865 0.950 . S
C2891 C2890 1.414 . S
C2891 C2892 1.374 . S
C2892 H2866 0.950 . S
C2892 C2888 1.385 . S
C2892 C2891 1.374 . S
C2893 C2890 1.499 . S
C2893 C2894 1.373 . S
C2893 C2895 1.389 . S
C2894 H2867 0.950 . S
C2894 C2880 1.377 . S
C2894 C2893 1.373 . S
C2895 C2879 1.377 . S
C2895 C2893 1.389 . S
C2895 C2896 1.524 . S
C2896 C2895 1.524 . S
C2896 C2897 1.397 . S
C2896 C2901 1.363 . S
C2897 H2868 0.950 . S
C2897 C2896 1.397 . S
C2897 C2898 1.334 . S
C2898 H2869 0.950 . S
C2898 C2897 1.334 . S
C2898 C2899 1.287 . S
C2899 C2898 1.287 . S
C2899 C2900 1.524 . S
C2899 H2902 0.999 . S
C2900 H2870 0.950 . S
C2900 C2899 1.524 . S
C2900 C2901 1.415 . S
C2901 H2871 0.950 . S
C2901 C2896 1.363 . S
C2901 C2900 1.415 . S
H2902 C2899 0.999 . S
H2903 C2884 0.913 . S
H2904 C2922 0.951 . S
H2905 C2924 0.951 . S
H2906 C2926 0.950 . S
H2907 C2927 0.950 1_455 S
H2908 C2929 0.950 . S
H2909 C2932 0.950 . S
H2910 C2933 0.950 . S
H2911 C2935 0.950 . S
H2912 C2936 0.950 . S
H2913 C2937 0.951 . S
H2914 C2939 0.951 . S
H2915 C2941 0.950 . S
H2916 C2942 0.950 . S
H2917 C2944 0.950 . S
H2918 C2947 0.950 . S
H2919 C2948 0.950 . S
H2920 C2950 0.950 . S
H2921 C2951 0.950 . S
C2922 H2904 0.951 . S
C2922 C2923 1.366 . S
C2922 C2924 1.388 . S
C2923 C2922 1.366 . S
C2923 C2927 1.385 . S
C2924 H2905 0.951 . S
C2924 C2922 1.388 . S
C2924 C2925 1.366 . S
C2925 C2924 1.366 . S
C2925 C2926 1.414 . S
C2925 C2928 1.499 . S
C2926 H2906 0.950 . S
C2926 C2925 1.414 . S
C2926 C2927 1.374 . S
C2927 H2907 0.950 1_655 S
C2927 C2923 1.385 . S
C2927 C2926 1.374 . S
C2928 C2925 1.499 . S
C2928 C2929 1.373 . S
C2928 C2930 1.389 . S
C2929 H2908 0.950 . S
C2929 C2928 1.373 . S
C2929 C2945 1.377 . S
C2930 C2928 1.389 . S
C2930 C2931 1.524 . S
C2930 C2944 1.377 . S
C2931 C2930 1.524 . S
C2931 C2932 1.397 . S
C2931 C2936 1.363 . S
C2932 H2909 0.950 . S
C2932 C2931 1.397 . S
C2932 C2933 1.334 . S
C2933 H2910 0.950 . S
C2933 C2932 1.334 . S
C2933 C2934 1.287 . S
C2934 C2933 1.287 . S
C2934 C2935 1.524 . S
C2934 H2953 0.913 . S
C2935 H2911 0.950 . S
C2935 C2934 1.524 . S
C2935 C2936 1.415 . S
C2936 H2912 0.950 . S
C2936 C2931 1.363 . S
C2936 C2935 1.415 . S
C2937 H2913 0.951 . S
C2937 C2938 1.366 . S
C2937 C2939 1.388 . S
C2938 C2937 1.366 . S
C2938 C2942 1.385 . S
C2939 H2914 0.951 . S
C2939 C2937 1.388 . S
C2939 C2940 1.366 . S
C2940 C2939 1.366 . S
C2940 C2941 1.414 . S
C2940 C2943 1.499 . S
C2941 H2915 0.950 . S
C2941 C2940 1.414 . S
C2941 C2942 1.374 . S
C2942 H2916 0.950 . S
C2942 C2938 1.385 . S
C2942 C2941 1.374 . S
C2943 C2940 1.499 . S
C2943 C2944 1.373 . S
C2943 C2945 1.389 . S
C2944 H2917 0.950 . S
C2944 C2930 1.377 . S
C2944 C2943 1.373 . S
C2945 C2929 1.377 . S
C2945 C2943 1.389 . S
C2945 C2946 1.524 . S
C2946 C2945 1.524 . S
C2946 C2947 1.397 . S
C2946 C2951 1.363 . S
C2947 H2918 0.950 . S
C2947 C2946 1.397 . S
C2947 C2948 1.334 . S
C2948 H2919 0.950 . S
C2948 C2947 1.334 . S
C2948 C2949 1.287 . S
C2949 C2948 1.287 . S
C2949 C2950 1.524 . S
C2949 H2952 0.999 . S
C2950 H2920 0.950 . S
C2950 C2949 1.524 . S
C2950 C2951 1.415 . S
C2951 H2921 0.950 . S
C2951 C2946 1.363 . S
C2951 C2950 1.415 . S
H2952 C2949 0.999 . S
H2953 C2934 0.913 . S
H2954 C2972 0.951 . S
H2955 C2974 0.951 . S
H2956 C2976 0.950 . S
H2957 C2977 0.950 . S
H2958 C2979 0.950 . S
H2959 C2982 0.950 . S
H2960 C2983 0.950 . S
H2961 C2985 0.950 . S
H2962 C2986 0.950 . S
H2963 C2987 0.951 . S
H2964 C2989 0.951 . S
H2965 C2991 0.950 . S
H2966 C2992 0.950 . S
H2967 C2994 0.950 . S
H2968 C2997 0.950 . S
H2969 C2998 0.950 . S
H2970 C3000 0.950 . S
H2971 C3001 0.950 . S
C2972 H2954 0.951 . S
C2972 C2973 1.366 . S
C2972 C2974 1.388 . S
C2973 C2972 1.366 . S
C2973 C2977 1.385 . S
C2974 H2955 0.951 . S
C2974 C2972 1.388 . S
C2974 C2975 1.366 . S
C2975 C2974 1.366 . S
C2975 C2976 1.414 . S
C2975 C2978 1.499 . S
C2976 H2956 0.950 . S
C2976 C2975 1.414 . S
C2976 C2977 1.374 . S
C2977 H2957 0.950 . S
C2977 C2973 1.385 . S
C2977 C2976 1.374 . S
C2978 C2975 1.499 . S
C2978 C2979 1.373 . S
C2978 C2980 1.389 . S
C2979 H2958 0.950 . S
C2979 C2978 1.373 . S
C2979 C2995 1.377 . S
C2980 C2978 1.389 . S
C2980 C2981 1.524 . S
C2980 C2994 1.377 . S
C2981 C2980 1.524 . S
C2981 C2982 1.397 . S
C2981 C2986 1.363 . S
C2982 H2959 0.950 . S
C2982 C2981 1.397 . S
C2982 C2983 1.334 . S
C2983 H2960 0.950 . S
C2983 C2982 1.334 . S
C2983 C2984 1.287 . S
C2984 C2983 1.287 . S
C2984 C2985 1.524 . S
C2984 H3003 0.913 . S
C2985 H2961 0.950 . S
C2985 C2984 1.524 . S
C2985 C2986 1.415 . S
C2986 H2962 0.950 . S
C2986 C2981 1.363 . S
C2986 C2985 1.415 . S
C2987 H2963 0.951 . S
C2987 C2988 1.366 . S
C2987 C2989 1.388 . S
C2988 C2987 1.366 . S
C2988 C2992 1.385 . S
C2989 H2964 0.951 . S
C2989 C2987 1.388 . S
C2989 C2990 1.366 . S
C2990 C2989 1.366 . S
C2990 C2991 1.414 . S
C2990 C2993 1.499 . S
C2991 H2965 0.950 . S
C2991 C2990 1.414 . S
C2991 C2992 1.374 . S
C2992 H2966 0.950 . S
C2992 C2988 1.385 . S
C2992 C2991 1.374 . S
C2993 C2990 1.499 . S
C2993 C2994 1.373 . S
C2993 C2995 1.389 . S
C2994 H2967 0.950 . S
C2994 C2980 1.377 . S
C2994 C2993 1.373 . S
C2995 C2979 1.377 . S
C2995 C2993 1.389 . S
C2995 C2996 1.524 . S
C2996 C2995 1.524 . S
C2996 C2997 1.397 . S
C2996 C3001 1.363 . S
C2997 H2968 0.950 . S
C2997 C2996 1.397 . S
C2997 C2998 1.334 . S
C2998 H2969 0.950 . S
C2998 C2997 1.334 . S
C2998 C2999 1.287 . S
C2999 C2998 1.287 . S
C2999 C3000 1.524 . S
C2999 H3002 0.999 . S
C3000 H2970 0.950 . S
C3000 C2999 1.524 . S
C3000 C3001 1.415 . S
C3001 H2971 0.950 . S
C3001 C2996 1.363 . S
C3001 C3000 1.415 . S
H3002 C2999 0.999 . S
H3003 C2984 0.913 . S
H3004 C3022 0.951 . S
H3005 C3024 0.951 . S
H3006 C3026 0.950 . S
H3007 C3027 0.950 . S
H3008 C3029 0.950 . S
H3009 C3032 0.950 . S
H3010 C3033 0.950 . S
H3011 C3035 0.950 . S
H3012 C3036 0.950 . S
H3013 C3037 0.951 . S
H3014 C3039 0.951 . S
H3015 C3041 0.950 . S
H3016 C3042 0.950 . S
H3017 C3044 0.950 . S
H3018 C3047 0.950 . S
H3019 C3048 0.950 . S
H3020 C3050 0.950 . S
H3021 C3051 0.950 . S
C3022 H3004 0.951 . S
C3022 C3023 1.366 . S
C3022 C3024 1.388 . S
C3023 C3022 1.366 . S
C3023 C3027 1.385 . S
C3024 H3005 0.951 . S
C3024 C3022 1.388 . S
C3024 C3025 1.366 . S
C3025 C3024 1.366 . S
C3025 C3026 1.414 . S
C3025 C3028 1.499 . S
C3026 H3006 0.950 . S
C3026 C3025 1.414 . S
C3026 C3027 1.374 . S
C3027 H3007 0.950 . S
C3027 C3023 1.385 . S
C3027 C3026 1.374 . S
C3028 C3025 1.499 . S
C3028 C3029 1.373 . S
C3028 C3030 1.389 . S
C3029 H3008 0.950 . S
C3029 C3028 1.373 . S
C3029 C3045 1.377 . S
C3030 C3028 1.389 . S
C3030 C3031 1.524 . S
C3030 C3044 1.377 . S
C3031 C3030 1.524 . S
C3031 C3032 1.397 . S
C3031 C3036 1.363 . S
C3032 H3009 0.950 . S
C3032 C3031 1.397 . S
C3032 C3033 1.334 . S
C3033 H3010 0.950 . S
C3033 C3032 1.334 . S
C3033 C3034 1.287 . S
C3034 C3033 1.287 . S
C3034 C3035 1.524 . S
C3034 H3053 0.913 . S
C3035 H3011 0.950 . S
C3035 C3034 1.524 . S
C3035 C3036 1.415 . S
C3036 H3012 0.950 . S
C3036 C3031 1.363 . S
C3036 C3035 1.415 . S
C3037 H3013 0.951 . S
C3037 C3038 1.366 . S
C3037 C3039 1.388 . S
C3038 C3037 1.366 . S
C3038 C3042 1.385 . S
C3039 H3014 0.951 . S
C3039 C3037 1.388 . S
C3039 C3040 1.366 . S
C3040 C3039 1.366 . S
C3040 C3041 1.414 . S
C3040 C3043 1.499 . S
C3041 H3015 0.950 . S
C3041 C3040 1.414 . S
C3041 C3042 1.374 . S
C3042 H3016 0.950 . S
C3042 C3038 1.385 . S
C3042 C3041 1.374 . S
C3043 C3040 1.499 . S
C3043 C3044 1.373 . S
C3043 C3045 1.389 . S
C3044 H3017 0.950 . S
C3044 C3030 1.377 . S
C3044 C3043 1.373 . S
C3045 C3029 1.377 . S
C3045 C3043 1.389 . S
C3045 C3046 1.524 . S
C3046 C3045 1.524 . S
C3046 C3047 1.397 . S
C3046 C3051 1.363 . S
C3047 H3018 0.950 . S
C3047 C3046 1.397 . S
C3047 C3048 1.334 . S
C3048 H3019 0.950 . S
C3048 C3047 1.334 . S
C3048 C3049 1.287 . S
C3049 C3048 1.287 . S
C3049 C3050 1.524 . S
C3049 H3052 0.999 . S
C3050 H3020 0.950 . S
C3050 C3049 1.524 . S
C3050 C3051 1.415 . S
C3051 H3021 0.950 . S
C3051 C3046 1.363 . S
C3051 C3050 1.415 . S
H3052 C3049 0.999 . S
H3053 C3034 0.913 . S
H3054 C3072 0.951 . S
H3055 C3074 0.951 . S
H3056 C3076 0.950 . S
H3057 C3077 0.950 . S
H3058 C3079 0.950 . S
H3059 C3082 0.950 . S
H3060 C3083 0.950 . S
H3061 C3085 0.950 . S
H3062 C3086 0.950 . S
H3063 C3087 0.951 . S
H3064 C3089 0.951 . S
H3065 C3091 0.950 . S
H3066 C3092 0.950 . S
H3067 C3094 0.950 . S
H3068 C3097 0.950 . S
H3069 C3098 0.950 . S
H3070 C3100 0.950 . S
H3071 C3101 0.950 . S
C3072 H3054 0.951 . S
C3072 C3073 1.366 . S
C3072 C3074 1.388 . S
C3073 C3072 1.366 . S
C3073 C3077 1.385 . S
C3074 H3055 0.951 . S
C3074 C3072 1.388 . S
C3074 C3075 1.366 . S
C3075 C3074 1.366 . S
C3075 C3076 1.414 . S
C3075 C3078 1.499 . S
C3076 H3056 0.950 . S
C3076 C3075 1.414 . S
C3076 C3077 1.374 . S
C3077 H3057 0.950 . S
C3077 C3073 1.385 . S
C3077 C3076 1.374 . S
C3078 C3075 1.499 . S
C3078 C3079 1.373 . S
C3078 C3080 1.389 . S
C3079 H3058 0.950 . S
C3079 C3078 1.373 . S
C3079 C3095 1.377 . S
C3080 C3078 1.389 . S
C3080 C3081 1.524 . S
C3080 C3094 1.377 . S
C3081 C3080 1.524 . S
C3081 C3082 1.397 . S
C3081 C3086 1.363 . S
C3082 H3059 0.950 . S
C3082 C3081 1.397 . S
C3082 C3083 1.334 . S
C3083 H3060 0.950 . S
C3083 C3082 1.334 . S
C3083 C3084 1.287 . S
C3084 C3083 1.287 . S
C3084 C3085 1.524 . S
C3084 H3103 0.913 . S
C3085 H3061 0.950 . S
C3085 C3084 1.524 . S
C3085 C3086 1.415 . S
C3086 H3062 0.950 . S
C3086 C3081 1.363 . S
C3086 C3085 1.415 . S
C3087 H3063 0.951 . S
C3087 C3088 1.366 . S
C3087 C3089 1.388 . S
C3088 C3087 1.366 . S
C3088 C3092 1.385 . S
C3089 H3064 0.951 . S
C3089 C3087 1.388 . S
C3089 C3090 1.366 . S
C3090 C3089 1.366 . S
C3090 C3091 1.414 . S
C3090 C3093 1.499 . S
C3091 H3065 0.950 . S
C3091 C3090 1.414 . S
C3091 C3092 1.374 . S
C3092 H3066 0.950 . S
C3092 C3088 1.385 . S
C3092 C3091 1.374 . S
C3093 C3090 1.499 . S
C3093 C3094 1.373 . S
C3093 C3095 1.389 . S
C3094 H3067 0.950 . S
C3094 C3080 1.377 . S
C3094 C3093 1.373 . S
C3095 C3079 1.377 . S
C3095 C3093 1.389 . S
C3095 C3096 1.524 . S
C3096 C3095 1.524 . S
C3096 C3097 1.397 . S
C3096 C3101 1.363 . S
C3097 H3068 0.950 . S
C3097 C3096 1.397 . S
C3097 C3098 1.334 . S
C3098 H3069 0.950 . S
C3098 C3097 1.334 . S
C3098 C3099 1.287 . S
C3099 C3098 1.287 . S
C3099 C3100 1.524 . S
C3099 H3102 0.999 . S
C3100 H3070 0.950 . S
C3100 C3099 1.524 . S
C3100 C3101 1.415 . S
C3101 H3071 0.950 . S
C3101 C3096 1.363 . S
C3101 C3100 1.415 . S
H3102 C3099 0.999 . S
H3103 C3084 0.913 . S
H3104 C3122 0.951 . S
H3105 C3124 0.951 . S
H3106 C3126 0.950 . S
H3107 C3127 0.950 . S
H3108 C3129 0.950 . S
H3109 C3132 0.950 . S
H3110 C3133 0.950 . S
H3111 C3135 0.950 . S
H3112 C3136 0.950 . S
H3113 C3137 0.951 . S
H3114 C3139 0.951 . S
H3115 C3141 0.950 . S
H3116 C3142 0.950 . S
H3117 C3144 0.950 . S
H3118 C3147 0.950 . S
H3119 C3148 0.950 . S
H3120 C3150 0.950 . S
H3121 C3151 0.950 . S
C3122 H3104 0.951 . S
C3122 C3123 1.366 . S
C3122 C3124 1.388 . S
C3123 C3122 1.366 . S
C3123 C3127 1.385 . S
C3124 H3105 0.951 . S
C3124 C3122 1.388 . S
C3124 C3125 1.366 . S
C3125 C3124 1.366 . S
C3125 C3126 1.414 . S
C3125 C3128 1.499 . S
C3126 H3106 0.950 . S
C3126 C3125 1.414 . S
C3126 C3127 1.374 . S
C3127 H3107 0.950 . S
C3127 C3123 1.385 . S
C3127 C3126 1.374 . S
C3128 C3125 1.499 . S
C3128 C3129 1.373 . S
C3128 C3130 1.389 . S
C3129 H3108 0.950 . S
C3129 C3128 1.373 . S
C3129 C3145 1.377 . S
C3130 C3128 1.389 . S
C3130 C3131 1.524 . S
C3130 C3144 1.377 . S
C3131 C3130 1.524 . S
C3131 C3132 1.397 . S
C3131 C3136 1.363 . S
C3132 H3109 0.950 . S
C3132 C3131 1.397 . S
C3132 C3133 1.334 . S
C3133 H3110 0.950 . S
C3133 C3132 1.334 . S
C3133 C3134 1.287 . S
C3134 C3133 1.287 . S
C3134 C3135 1.524 . S
C3134 H3153 0.913 . S
C3135 H3111 0.950 . S
C3135 C3134 1.524 . S
C3135 C3136 1.415 . S
C3136 H3112 0.950 . S
C3136 C3131 1.363 . S
C3136 C3135 1.415 . S
C3137 H3113 0.951 . S
C3137 C3138 1.366 . S
C3137 C3139 1.388 . S
C3138 C3137 1.366 . S
C3138 C3142 1.385 . S
C3139 H3114 0.951 . S
C3139 C3137 1.388 . S
C3139 C3140 1.366 . S
C3140 C3139 1.366 . S
C3140 C3141 1.414 . S
C3140 C3143 1.499 . S
C3141 H3115 0.950 . S
C3141 C3140 1.414 . S
C3141 C3142 1.374 . S
C3142 H3116 0.950 . S
C3142 C3138 1.385 . S
C3142 C3141 1.374 . S
C3143 C3140 1.499 . S
C3143 C3144 1.373 . S
C3143 C3145 1.389 . S
C3144 H3117 0.950 . S
C3144 C3130 1.377 . S
C3144 C3143 1.373 . S
C3145 C3129 1.377 . S
C3145 C3143 1.389 . S
C3145 C3146 1.524 . S
C3146 C3145 1.524 . S
C3146 C3147 1.397 . S
C3146 C3151 1.363 . S
C3147 H3118 0.950 . S
C3147 C3146 1.397 . S
C3147 C3148 1.334 . S
C3148 H3119 0.950 . S
C3148 C3147 1.334 . S
C3148 C3149 1.287 . S
C3149 C3148 1.287 . S
C3149 C3150 1.524 . S
C3149 H3152 0.999 . S
C3150 H3120 0.950 . S
C3150 C3149 1.524 . S
C3150 C3151 1.415 . S
C3151 H3121 0.950 . S
C3151 C3146 1.363 . S
C3151 C3150 1.415 . S
H3152 C3149 0.999 . S
H3153 C3134 0.913 . S
H3154 C3172 0.951 . S
H3155 C3174 0.951 . S
H3156 C3176 0.950 . S
H3157 C3177 0.950 . S
H3158 C3179 0.950 . S
H3159 C3182 0.950 . S
H3160 C3183 0.950 . S
H3161 C3185 0.950 . S
H3162 C3186 0.950 . S
H3163 C3187 0.951 . S
H3164 C3189 0.951 . S
H3165 C3191 0.950 . S
H3166 C3192 0.950 . S
H3167 C3194 0.950 . S
H3168 C3197 0.950 . S
H3169 C3198 0.950 . S
H3170 C3200 0.950 . S
H3171 C3201 0.950 . S
C3172 H3154 0.951 . S
C3172 C3173 1.366 . S
C3172 C3174 1.388 . S
C3173 C3172 1.366 . S
C3173 C3177 1.385 . S
C3174 H3155 0.951 . S
C3174 C3172 1.388 . S
C3174 C3175 1.366 . S
C3175 C3174 1.366 . S
C3175 C3176 1.414 . S
C3175 C3178 1.499 . S
C3176 H3156 0.950 . S
C3176 C3175 1.414 . S
C3176 C3177 1.374 . S
C3177 H3157 0.950 . S
C3177 C3173 1.385 . S
C3177 C3176 1.374 . S
C3178 C3175 1.499 . S
C3178 C3179 1.373 . S
C3178 C3180 1.389 . S
C3179 H3158 0.950 . S
C3179 C3178 1.373 . S
C3179 C3195 1.377 . S
C3180 C3178 1.389 . S
C3180 C3181 1.524 . S
C3180 C3194 1.377 . S
C3181 C3180 1.524 . S
C3181 C3182 1.397 . S
C3181 C3186 1.363 . S
C3182 H3159 0.950 . S
C3182 C3181 1.397 . S
C3182 C3183 1.334 . S
C3183 H3160 0.950 . S
C3183 C3182 1.334 . S
C3183 C3184 1.287 . S
C3184 C3183 1.287 . S
C3184 C3185 1.524 . S
C3184 H3203 0.913 . S
C3185 H3161 0.950 . S
C3185 C3184 1.524 . S
C3185 C3186 1.415 . S
C3186 H3162 0.950 . S
C3186 C3181 1.363 . S
C3186 C3185 1.415 . S
C3187 H3163 0.951 . S
C3187 C3188 1.366 . S
C3187 C3189 1.388 . S
C3188 C3187 1.366 . S
C3188 C3192 1.385 . S
C3189 H3164 0.951 . S
C3189 C3187 1.388 . S
C3189 C3190 1.366 . S
C3190 C3189 1.366 . S
C3190 C3191 1.414 . S
C3190 C3193 1.499 . S
C3191 H3165 0.950 . S
C3191 C3190 1.414 . S
C3191 C3192 1.374 . S
C3192 H3166 0.950 . S
C3192 C3188 1.385 . S
C3192 C3191 1.374 . S
C3193 C3190 1.499 . S
C3193 C3194 1.373 . S
C3193 C3195 1.389 . S
C3194 H3167 0.950 . S
C3194 C3180 1.377 . S
C3194 C3193 1.373 . S
C3195 C3179 1.377 . S
C3195 C3193 1.389 . S
C3195 C3196 1.524 . S
C3196 C3195 1.524 . S
C3196 C3197 1.397 . S
C3196 C3201 1.363 . S
C3197 H3168 0.950 . S
C3197 C3196 1.397 . S
C3197 C3198 1.334 . S
C3198 H3169 0.950 . S
C3198 C3197 1.334 . S
C3198 C3199 1.287 . S
C3199 C3198 1.287 . S
C3199 C3200 1.524 . S
C3199 H3202 0.999 . S
C3200 H3170 0.950 . S
C3200 C3199 1.524 . S
C3200 C3201 1.415 . S
C3201 H3171 0.950 . S
C3201 C3196 1.363 . S
C3201 C3200 1.415 . S
H3202 C3199 0.999 . S
H3203 C3184 0.913 . S
H3204 C3222 0.951 . S
H3205 C3224 0.951 . S
H3206 C3226 0.950 . S
H3207 C3227 0.950 . S
H3208 C3229 0.950 . S
H3209 C3232 0.950 . S
H3210 C3233 0.950 . S
H3211 C3235 0.950 . S
H3212 C3236 0.950 . S
H3213 C3237 0.951 . S
H3214 C3239 0.951 . S
H3215 C3241 0.950 . S
H3216 C3242 0.950 . S
H3217 C3244 0.950 . S
H3218 C3247 0.950 . S
H3219 C3248 0.950 . S
H3220 C3250 0.950 . S
H3221 C3251 0.950 . S
C3222 H3204 0.951 . S
C3222 C3223 1.366 . S
C3222 C3224 1.388 . S
C3223 C3222 1.366 . S
C3223 C3227 1.385 . S
C3224 H3205 0.951 . S
C3224 C3222 1.388 . S
C3224 C3225 1.366 . S
C3225 C3224 1.366 . S
C3225 C3226 1.414 . S
C3225 C3228 1.499 . S
C3226 H3206 0.950 . S
C3226 C3225 1.414 . S
C3226 C3227 1.374 . S
C3227 H3207 0.950 . S
C3227 C3223 1.385 . S
C3227 C3226 1.374 . S
C3228 C3225 1.499 . S
C3228 C3229 1.373 . S
C3228 C3230 1.389 . S
C3229 H3208 0.950 . S
C3229 C3228 1.373 . S
C3229 C3245 1.377 . S
C3230 C3228 1.389 . S
C3230 C3231 1.524 . S
C3230 C3244 1.377 . S
C3231 C3230 1.524 . S
C3231 C3232 1.397 . S
C3231 C3236 1.363 . S
C3232 H3209 0.950 . S
C3232 C3231 1.397 . S
C3232 C3233 1.334 . S
C3233 H3210 0.950 . S
C3233 C3232 1.334 . S
C3233 C3234 1.287 . S
C3234 C3233 1.287 . S
C3234 C3235 1.524 . S
C3234 H3253 0.913 . S
C3235 H3211 0.950 . S
C3235 C3234 1.524 . S
C3235 C3236 1.415 . S
C3236 H3212 0.950 . S
C3236 C3231 1.363 . S
C3236 C3235 1.415 . S
C3237 H3213 0.951 . S
C3237 C3238 1.366 . S
C3237 C3239 1.388 . S
C3238 C3237 1.366 . S
C3238 C3242 1.385 . S
C3239 H3214 0.951 . S
C3239 C3237 1.388 . S
C3239 C3240 1.366 . S
C3240 C3239 1.366 . S
C3240 C3241 1.414 . S
C3240 C3243 1.499 . S
C3241 H3215 0.950 . S
C3241 C3240 1.414 . S
C3241 C3242 1.374 . S
C3242 H3216 0.950 . S
C3242 C3238 1.385 . S
C3242 C3241 1.374 . S
C3243 C3240 1.499 . S
C3243 C3244 1.373 . S
C3243 C3245 1.389 . S
C3244 H3217 0.950 . S
C3244 C3230 1.377 . S
C3244 C3243 1.373 . S
C3245 C3229 1.377 . S
C3245 C3243 1.389 . S
C3245 C3246 1.524 . S
C3246 C3245 1.524 . S
C3246 C3247 1.397 . S
C3246 C3251 1.363 . S
C3247 H3218 0.950 . S
C3247 C3246 1.397 . S
C3247 C3248 1.334 . S
C3248 H3219 0.950 . S
C3248 C3247 1.334 . S
C3248 C3249 1.287 . S
C3249 C3248 1.287 . S
C3249 C3250 1.524 . S
C3249 H3252 0.999 . S
C3250 H3220 0.950 . S
C3250 C3249 1.524 . S
C3250 C3251 1.415 . S
C3251 H3221 0.950 . S
C3251 C3246 1.363 . S
C3251 C3250 1.415 . S
H3252 C3249 0.999 . S
H3253 C3234 0.913 . S
H3254 C3272 0.951 . S
H3255 C3274 0.951 . S
H3256 C3276 0.950 . S
H3257 C3277 0.950 . S
H3258 C3279 0.950 . S
H3259 C3282 0.950 . S
H3260 C3283 0.950 . S
H3261 C3285 0.950 . S
H3262 C3286 0.950 . S
H3263 C3287 0.951 . S
H3264 C3289 0.951 . S
H3265 C3291 0.950 . S
H3266 C3292 0.950 . S
H3267 C3294 0.950 . S
H3268 C3297 0.950 . S
H3269 C3298 0.950 . S
H3270 C3300 0.950 . S
H3271 C3301 0.950 . S
C3272 H3254 0.951 . S
C3272 C3273 1.366 . S
C3272 C3274 1.388 . S
C3273 C3272 1.366 . S
C3273 C3277 1.385 . S
C3274 H3255 0.951 . S
C3274 C3272 1.388 . S
C3274 C3275 1.366 . S
C3275 C3274 1.366 . S
C3275 C3276 1.414 . S
C3275 C3278 1.499 . S
C3276 H3256 0.950 . S
C3276 C3275 1.414 . S
C3276 C3277 1.374 . S
C3277 H3257 0.950 . S
C3277 C3273 1.385 . S
C3277 C3276 1.374 . S
C3278 C3275 1.499 . S
C3278 C3279 1.373 . S
C3278 C3280 1.389 . S
C3279 H3258 0.950 . S
C3279 C3278 1.373 . S
C3279 C3295 1.377 . S
C3280 C3278 1.389 . S
C3280 C3281 1.524 . S
C3280 C3294 1.377 . S
C3281 C3280 1.524 . S
C3281 C3282 1.397 . S
C3281 C3286 1.363 . S
C3282 H3259 0.950 . S
C3282 C3281 1.397 . S
C3282 C3283 1.334 . S
C3283 H3260 0.950 . S
C3283 C3282 1.334 . S
C3283 C3284 1.287 . S
C3284 C3283 1.287 . S
C3284 C3285 1.524 . S
C3284 H3303 0.913 . S
C3285 H3261 0.950 . S
C3285 C3284 1.524 . S
C3285 C3286 1.415 . S
C3286 H3262 0.950 . S
C3286 C3281 1.363 . S
C3286 C3285 1.415 . S
C3287 H3263 0.951 . S
C3287 C3288 1.366 . S
C3287 C3289 1.388 . S
C3288 C3287 1.366 . S
C3288 C3292 1.385 . S
C3289 H3264 0.951 . S
C3289 C3287 1.388 . S
C3289 C3290 1.366 . S
C3290 C3289 1.366 . S
C3290 C3291 1.414 . S
C3290 C3293 1.499 . S
C3291 H3265 0.950 . S
C3291 C3290 1.414 . S
C3291 C3292 1.374 . S
C3292 H3266 0.950 . S
C3292 C3288 1.385 . S
C3292 C3291 1.374 . S
C3293 C3290 1.499 . S
C3293 C3294 1.373 . S
C3293 C3295 1.389 . S
C3294 H3267 0.950 . S
C3294 C3280 1.377 . S
C3294 C3293 1.373 . S
C3295 C3279 1.377 . S
C3295 C3293 1.389 . S
C3295 C3296 1.524 . S
C3296 C3295 1.524 . S
C3296 C3297 1.397 . S
C3296 C3301 1.363 . S
C3297 H3268 0.950 . S
C3297 C3296 1.397 . S
C3297 C3298 1.334 . S
C3298 H3269 0.950 . S
C3298 C3297 1.334 . S
C3298 C3299 1.287 . S
C3299 C3298 1.287 . S
C3299 C3300 1.524 . S
C3299 H3302 0.999 . S
C3300 H3270 0.950 . S
C3300 C3299 1.524 . S
C3300 C3301 1.415 . S
C3301 H3271 0.950 . S
C3301 C3296 1.363 . S
C3301 C3300 1.415 . S
H3302 C3299 0.999 . S
H3303 C3284 0.913 . S
H3304 C3322 0.951 . S
H3305 C3324 0.951 . S
H3306 C3326 0.950 . S
H3307 C3327 0.950 . S
H3308 C3329 0.950 . S
H3309 C3332 0.950 . S
H3310 C3333 0.950 . S
H3311 C3335 0.950 . S
H3312 C3336 0.950 . S
H3313 C3337 0.951 . S
H3314 C3339 0.951 . S
H3315 C3341 0.950 . S
H3316 C3342 0.950 . S
H3317 C3344 0.950 . S
H3318 C3347 0.950 . S
H3319 C3348 0.950 . S
H3320 C3350 0.950 . S
H3321 C3351 0.950 . S
C3322 H3304 0.951 . S
C3322 C3323 1.366 . S
C3322 C3324 1.388 . S
C3323 C3322 1.366 . S
C3323 C3327 1.385 . S
C3324 H3305 0.951 . S
C3324 C3322 1.388 . S
C3324 C3325 1.366 . S
C3325 C3324 1.366 . S
C3325 C3326 1.414 . S
C3325 C3328 1.499 . S
C3326 H3306 0.950 . S
C3326 C3325 1.414 . S
C3326 C3327 1.374 . S
C3327 H3307 0.950 . S
C3327 C3323 1.385 . S
C3327 C3326 1.374 . S
C3328 C3325 1.499 . S
C3328 C3329 1.373 . S
C3328 C3330 1.389 . S
C3329 H3308 0.950 . S
C3329 C3328 1.373 . S
C3329 C3345 1.377 . S
C3330 C3328 1.389 . S
C3330 C3331 1.524 . S
C3330 C3344 1.377 . S
C3331 C3330 1.524 . S
C3331 C3332 1.397 . S
C3331 C3336 1.363 . S
C3332 H3309 0.950 . S
C3332 C3331 1.397 . S
C3332 C3333 1.334 . S
C3333 H3310 0.950 . S
C3333 C3332 1.334 . S
C3333 C3334 1.287 . S
C3334 C3333 1.287 . S
C3334 C3335 1.524 . S
C3334 H3353 0.913 . S
C3335 H3311 0.950 . S
C3335 C3334 1.524 . S
C3335 C3336 1.415 . S
C3336 H3312 0.950 . S
C3336 C3331 1.363 . S
C3336 C3335 1.415 . S
C3337 H3313 0.951 . S
C3337 C3338 1.366 . S
C3337 C3339 1.388 . S
C3338 C3337 1.366 . S
C3338 C3342 1.385 . S
C3339 H3314 0.951 . S
C3339 C3337 1.388 . S
C3339 C3340 1.366 . S
C3340 C3339 1.366 . S
C3340 C3341 1.414 . S
C3340 C3343 1.499 . S
C3341 H3315 0.950 . S
C3341 C3340 1.414 . S
C3341 C3342 1.374 . S
C3342 H3316 0.950 . S
C3342 C3338 1.385 . S
C3342 C3341 1.374 . S
C3343 C3340 1.499 . S
C3343 C3344 1.373 . S
C3343 C3345 1.389 . S
C3344 H3317 0.950 . S
C3344 C3330 1.377 . S
C3344 C3343 1.373 . S
C3345 C3329 1.377 . S
C3345 C3343 1.389 . S
C3345 C3346 1.524 . S
C3346 C3345 1.524 . S
C3346 C3347 1.397 . S
C3346 C3351 1.363 . S
C3347 H3318 0.950 . S
C3347 C3346 1.397 . S
C3347 C3348 1.334 . S
C3348 H3319 0.950 . S
C3348 C3347 1.334 . S
C3348 C3349 1.287 . S
C3349 C3348 1.287 . S
C3349 C3350 1.524 . S
C3349 H3352 0.999 . S
C3350 H3320 0.950 . S
C3350 C3349 1.524 . S
C3350 C3351 1.415 . S
C3351 H3321 0.950 . S
C3351 C3346 1.363 . S
C3351 C3350 1.415 . S
H3352 C3349 0.999 . S
H3353 C3334 0.913 . S
H3354 C3372 0.951 . S
H3355 C3374 0.951 . S
H3356 C3376 0.950 . S
H3357 C3377 0.950 . S
H3358 C3379 0.950 . S
H3359 C3382 0.950 . S
H3360 C3383 0.950 . S
H3361 C3385 0.950 . S
H3362 C3386 0.950 . S
H3363 C3387 0.951 . S
H3364 C3389 0.951 . S
H3365 C3391 0.950 . S
H3366 C3392 0.950 . S
H3367 C3394 0.950 . S
H3368 C3397 0.950 . S
H3369 C3398 0.950 . S
H3370 C3400 0.950 . S
H3371 C3401 0.950 . S
C3372 H3354 0.951 . S
C3372 C3373 1.366 . S
C3372 C3374 1.388 . S
C3373 C3372 1.366 . S
C3373 C3377 1.385 . S
C3374 H3355 0.951 . S
C3374 C3372 1.388 . S
C3374 C3375 1.366 . S
C3375 C3374 1.366 . S
C3375 C3376 1.414 . S
C3375 C3378 1.499 . S
C3376 H3356 0.950 . S
C3376 C3375 1.414 . S
C3376 C3377 1.374 . S
C3377 H3357 0.950 . S
C3377 C3373 1.385 . S
C3377 C3376 1.374 . S
C3378 C3375 1.499 . S
C3378 C3379 1.373 . S
C3378 C3380 1.389 . S
C3379 H3358 0.950 . S
C3379 C3378 1.373 . S
C3379 C3395 1.377 . S
C3380 C3378 1.389 . S
C3380 C3381 1.524 . S
C3380 C3394 1.377 . S
C3381 C3380 1.524 . S
C3381 C3382 1.397 . S
C3381 C3386 1.363 . S
C3382 H3359 0.950 . S
C3382 C3381 1.397 . S
C3382 C3383 1.334 . S
C3383 H3360 0.950 . S
C3383 C3382 1.334 . S
C3383 C3384 1.287 . S
C3384 C3383 1.287 . S
C3384 C3385 1.524 . S
C3384 H3403 0.913 . S
C3385 H3361 0.950 . S
C3385 C3384 1.524 . S
C3385 C3386 1.415 . S
C3386 H3362 0.950 . S
C3386 C3381 1.363 . S
C3386 C3385 1.415 . S
C3387 H3363 0.951 . S
C3387 C3388 1.366 . S
C3387 C3389 1.388 . S
C3388 C3387 1.366 . S
C3388 C3392 1.385 . S
C3389 H3364 0.951 . S
C3389 C3387 1.388 . S
C3389 C3390 1.366 . S
C3390 C3389 1.366 . S
C3390 C3391 1.414 . S
C3390 C3393 1.499 . S
C3391 H3365 0.950 . S
C3391 C3390 1.414 . S
C3391 C3392 1.374 . S
C3392 H3366 0.950 . S
C3392 C3388 1.385 . S
C3392 C3391 1.374 . S
C3393 C3390 1.499 . S
C3393 C3394 1.373 . S
C3393 C3395 1.389 . S
C3394 H3367 0.950 . S
C3394 C3380 1.377 . S
C3394 C3393 1.373 . S
C3395 C3379 1.377 . S
C3395 C3393 1.389 . S
C3395 C3396 1.524 . S
C3396 C3395 1.524 . S
C3396 C3397 1.397 . S
C3396 C3401 1.363 . S
C3397 H3368 0.950 . S
C3397 C3396 1.397 . S
C3397 C3398 1.334 . S
C3398 H3369 0.950 . S
C3398 C3397 1.334 . S
C3398 C3399 1.287 . S
C3399 C3398 1.287 . S
C3399 C3400 1.524 . S
C3399 H3402 0.999 . S
C3400 H3370 0.950 . S
C3400 C3399 1.524 . S
C3400 C3401 1.415 . S
C3401 H3371 0.950 . S
C3401 C3396 1.363 . S
C3401 C3400 1.415 . S
H3402 C3399 0.999 . S
H3403 C3384 0.913 . S
H3404 C3422 0.951 . S
H3405 C3424 0.951 . S
H3406 C3426 0.950 . S
H3407 C3427 0.950 1_455 S
H3408 C3429 0.950 . S
H3409 C3432 0.950 . S
H3410 C3433 0.950 . S
H3411 C3435 0.950 . S
H3412 C3436 0.950 . S
H3413 C3437 0.951 . S
H3414 C3439 0.951 . S
H3415 C3441 0.950 . S
H3416 C3442 0.950 . S
H3417 C3444 0.950 . S
H3418 C3447 0.950 . S
H3419 C3448 0.950 . S
H3420 C3450 0.950 . S
H3421 C3451 0.950 . S
C3422 H3404 0.951 . S
C3422 C3423 1.366 . S
C3422 C3424 1.388 . S
C3423 C3422 1.366 . S
C3423 C3427 1.385 . S
C3424 H3405 0.951 . S
C3424 C3422 1.388 . S
C3424 C3425 1.366 . S
C3425 C3424 1.366 . S
C3425 C3426 1.414 . S
C3425 C3428 1.499 . S
C3426 H3406 0.950 . S
C3426 C3425 1.414 . S
C3426 C3427 1.374 . S
C3427 H3407 0.950 1_655 S
C3427 C3423 1.385 . S
C3427 C3426 1.374 . S
C3428 C3425 1.499 . S
C3428 C3429 1.373 . S
C3428 C3430 1.389 . S
C3429 H3408 0.950 . S
C3429 C3428 1.373 . S
C3429 C3445 1.377 . S
C3430 C3428 1.389 . S
C3430 C3431 1.524 . S
C3430 C3444 1.377 . S
C3431 C3430 1.524 . S
C3431 C3432 1.397 . S
C3431 C3436 1.363 . S
C3432 H3409 0.950 . S
C3432 C3431 1.397 . S
C3432 C3433 1.334 . S
C3433 H3410 0.950 . S
C3433 C3432 1.334 . S
C3433 C3434 1.287 . S
C3434 C3433 1.287 . S
C3434 C3435 1.524 . S
C3434 H3453 0.913 . S
C3435 H3411 0.950 . S
C3435 C3434 1.524 . S
C3435 C3436 1.415 . S
C3436 H3412 0.950 . S
C3436 C3431 1.363 . S
C3436 C3435 1.415 . S
C3437 H3413 0.951 . S
C3437 C3438 1.366 . S
C3437 C3439 1.388 . S
C3438 C3437 1.366 . S
C3438 C3442 1.385 . S
C3439 H3414 0.951 . S
C3439 C3437 1.388 . S
C3439 C3440 1.366 . S
C3440 C3439 1.366 . S
C3440 C3441 1.414 . S
C3440 C3443 1.499 . S
C3441 H3415 0.950 . S
C3441 C3440 1.414 . S
C3441 C3442 1.374 . S
C3442 H3416 0.950 . S
C3442 C3438 1.385 . S
C3442 C3441 1.374 . S
C3443 C3440 1.499 . S
C3443 C3444 1.373 . S
C3443 C3445 1.389 . S
C3444 H3417 0.950 . S
C3444 C3430 1.377 . S
C3444 C3443 1.373 . S
C3445 C3429 1.377 . S
C3445 C3443 1.389 . S
C3445 C3446 1.524 . S
C3446 C3445 1.524 . S
C3446 C3447 1.397 . S
C3446 C3451 1.363 . S
C3447 H3418 0.950 . S
C3447 C3446 1.397 . S
C3447 C3448 1.334 . S
C3448 H3419 0.950 . S
C3448 C3447 1.334 . S
C3448 C3449 1.287 . S
C3449 C3448 1.287 . S
C3449 C3450 1.524 . S
C3449 H3452 0.999 . S
C3450 H3420 0.950 . S
C3450 C3449 1.524 . S
C3450 C3451 1.415 . S
C3451 H3421 0.950 . S
C3451 C3446 1.363 . S
C3451 C3450 1.415 . S
H3452 C3449 0.999 . S
H3453 C3434 0.913 . S
H3454 C3472 0.951 . S
H3455 C3474 0.951 . S
H3456 C3476 0.950 . S
H3457 C3477 0.950 . S
H3458 C3479 0.950 . S
H3459 C3482 0.950 . S
H3460 C3483 0.950 . S
H3461 C3485 0.950 . S
H3462 C3486 0.950 . S
H3463 C3487 0.951 . S
H3464 C3489 0.951 . S
H3465 C3491 0.950 . S
H3466 C3492 0.950 . S
H3467 C3494 0.950 . S
H3468 C3497 0.950 . S
H3469 C3498 0.950 . S
H3470 C3500 0.950 . S
H3471 C3501 0.950 . S
C3472 H3454 0.951 . S
C3472 C3473 1.366 . S
C3472 C3474 1.388 . S
C3473 C3472 1.366 . S
C3473 C3477 1.385 . S
C3474 H3455 0.951 . S
C3474 C3472 1.388 . S
C3474 C3475 1.366 . S
C3475 C3474 1.366 . S
C3475 C3476 1.414 . S
C3475 C3478 1.499 . S
C3476 H3456 0.950 . S
C3476 C3475 1.414 . S
C3476 C3477 1.374 . S
C3477 H3457 0.950 . S
C3477 C3473 1.385 . S
C3477 C3476 1.374 . S
C3478 C3475 1.499 . S
C3478 C3479 1.373 . S
C3478 C3480 1.389 . S
C3479 H3458 0.950 . S
C3479 C3478 1.373 . S
C3479 C3495 1.377 . S
C3480 C3478 1.389 . S
C3480 C3481 1.524 . S
C3480 C3494 1.377 . S
C3481 C3480 1.524 . S
C3481 C3482 1.397 . S
C3481 C3486 1.363 . S
C3482 H3459 0.950 . S
C3482 C3481 1.397 . S
C3482 C3483 1.334 . S
C3483 H3460 0.950 . S
C3483 C3482 1.334 . S
C3483 C3484 1.287 . S
C3484 C3483 1.287 . S
C3484 C3485 1.524 . S
C3484 H3503 0.913 . S
C3485 H3461 0.950 . S
C3485 C3484 1.524 . S
C3485 C3486 1.415 . S
C3486 H3462 0.950 . S
C3486 C3481 1.363 . S
C3486 C3485 1.415 . S
C3487 H3463 0.951 . S
C3487 C3488 1.366 . S
C3487 C3489 1.388 . S
C3488 C3487 1.366 . S
C3488 C3492 1.385 . S
C3489 H3464 0.951 . S
C3489 C3487 1.388 . S
C3489 C3490 1.366 . S
C3490 C3489 1.366 . S
C3490 C3491 1.414 . S
C3490 C3493 1.499 . S
C3491 H3465 0.950 . S
C3491 C3490 1.414 . S
C3491 C3492 1.374 . S
C3492 H3466 0.950 . S
C3492 C3488 1.385 . S
C3492 C3491 1.374 . S
C3493 C3490 1.499 . S
C3493 C3494 1.373 . S
C3493 C3495 1.389 . S
C3494 H3467 0.950 . S
C3494 C3480 1.377 . S
C3494 C3493 1.373 . S
C3495 C3479 1.377 . S
C3495 C3493 1.389 . S
C3495 C3496 1.524 . S
C3496 C3495 1.524 . S
C3496 C3497 1.397 . S
C3496 C3501 1.363 . S
C3497 H3468 0.950 . S
C3497 C3496 1.397 . S
C3497 C3498 1.334 . S
C3498 H3469 0.950 . S
C3498 C3497 1.334 . S
C3498 C3499 1.287 . S
C3499 C3498 1.287 . S
C3499 C3500 1.524 . S
C3499 H3502 0.999 . S
C3500 H3470 0.950 . S
C3500 C3499 1.524 . S
C3500 C3501 1.415 . S
C3501 H3471 0.950 . S
C3501 C3496 1.363 . S
C3501 C3500 1.415 . S
H3502 C3499 0.999 . S
H3503 C3484 0.913 . S
H3504 C3522 0.951 . S
H3505 C3524 0.951 . S
H3506 C3526 0.950 . S
H3507 C3527 0.950 . S
H3508 C3529 0.950 . S
H3509 C3532 0.950 . S
H3510 C3533 0.950 . S
H3511 C3535 0.950 . S
H3512 C3536 0.950 . S
H3513 C3537 0.951 . S
H3514 C3539 0.951 . S
H3515 C3541 0.950 . S
H3516 C3542 0.950 . S
H3517 C3544 0.950 . S
H3518 C3547 0.950 . S
H3519 C3548 0.950 . S
H3520 C3550 0.950 . S
H3521 C3551 0.950 . S
C3522 H3504 0.951 . S
C3522 C3523 1.366 . S
C3522 C3524 1.388 . S
C3523 C3522 1.366 . S
C3523 C3527 1.385 . S
C3524 H3505 0.951 . S
C3524 C3522 1.388 . S
C3524 C3525 1.366 . S
C3525 C3524 1.366 . S
C3525 C3526 1.414 . S
C3525 C3528 1.499 . S
C3526 H3506 0.950 . S
C3526 C3525 1.414 . S
C3526 C3527 1.374 . S
C3527 H3507 0.950 . S
C3527 C3523 1.385 . S
C3527 C3526 1.374 . S
C3528 C3525 1.499 . S
C3528 C3529 1.373 . S
C3528 C3530 1.389 . S
C3529 H3508 0.950 . S
C3529 C3528 1.373 . S
C3529 C3545 1.377 . S
C3530 C3528 1.389 . S
C3530 C3531 1.524 . S
C3530 C3544 1.377 . S
C3531 C3530 1.524 . S
C3531 C3532 1.397 . S
C3531 C3536 1.363 . S
C3532 H3509 0.950 . S
C3532 C3531 1.397 . S
C3532 C3533 1.334 . S
C3533 H3510 0.950 . S
C3533 C3532 1.334 . S
C3533 C3534 1.287 . S
C3534 C3533 1.287 . S
C3534 C3535 1.524 . S
C3534 H3553 0.913 . S
C3535 H3511 0.950 . S
C3535 C3534 1.524 . S
C3535 C3536 1.415 . S
C3536 H3512 0.950 . S
C3536 C3531 1.363 . S
C3536 C3535 1.415 . S
C3537 H3513 0.951 . S
C3537 C3538 1.366 . S
C3537 C3539 1.388 . S
C3538 C3537 1.366 . S
C3538 C3542 1.385 . S
C3539 H3514 0.951 . S
C3539 C3537 1.388 . S
C3539 C3540 1.366 . S
C3540 C3539 1.366 . S
C3540 C3541 1.414 . S
C3540 C3543 1.499 . S
C3541 H3515 0.950 . S
C3541 C3540 1.414 . S
C3541 C3542 1.374 . S
C3542 H3516 0.950 . S
C3542 C3538 1.385 . S
C3542 C3541 1.374 . S
C3543 C3540 1.499 . S
C3543 C3544 1.373 . S
C3543 C3545 1.389 . S
C3544 H3517 0.950 . S
C3544 C3530 1.377 . S
C3544 C3543 1.373 . S
C3545 C3529 1.377 . S
C3545 C3543 1.389 . S
C3545 C3546 1.524 . S
C3546 C3545 1.524 . S
C3546 C3547 1.397 . S
C3546 C3551 1.363 . S
C3547 H3518 0.950 . S
C3547 C3546 1.397 . S
C3547 C3548 1.334 . S
C3548 H3519 0.950 . S
C3548 C3547 1.334 . S
C3548 C3549 1.287 . S
C3549 C3548 1.287 . S
C3549 C3550 1.524 . S
C3549 H3552 0.999 . S
C3550 H3520 0.950 . S
C3550 C3549 1.524 . S
C3550 C3551 1.415 . S
C3551 H3521 0.950 . S
C3551 C3546 1.363 . S
C3551 C3550 1.415 . S
H3552 C3549 0.999 . S
H3553 C3534 0.913 . S
H3554 C3572 0.951 . S
H3555 C3574 0.951 . S
H3556 C3576 0.950 . S
H3557 C3577 0.950 . S
H3558 C3579 0.950 . S
H3559 C3582 0.950 . S
H3560 C3583 0.950 . S
H3561 C3585 0.950 . S
H3562 C3586 0.950 . S
H3563 C3587 0.951 . S
H3564 C3589 0.951 . S
H3565 C3591 0.950 . S
H3566 C3592 0.950 . S
H3567 C3594 0.950 . S
H3568 C3597 0.950 . S
H3569 C3598 0.950 . S
H3570 C3600 0.950 . S
H3571 C3601 0.950 . S
C3572 H3554 0.951 . S
C3572 C3573 1.366 . S
C3572 C3574 1.388 . S
C3573 C3572 1.366 . S
C3573 C3577 1.385 . S
C3574 H3555 0.951 . S
C3574 C3572 1.388 . S
C3574 C3575 1.366 . S
C3575 C3574 1.366 . S
C3575 C3576 1.414 . S
C3575 C3578 1.499 . S
C3576 H3556 0.950 . S
C3576 C3575 1.414 . S
C3576 C3577 1.374 . S
C3577 H3557 0.950 . S
C3577 C3573 1.385 . S
C3577 C3576 1.374 . S
C3578 C3575 1.499 . S
C3578 C3579 1.373 . S
C3578 C3580 1.389 . S
C3579 H3558 0.950 . S
C3579 C3578 1.373 . S
C3579 C3595 1.377 . S
C3580 C3578 1.389 . S
C3580 C3581 1.524 . S
C3580 C3594 1.377 . S
C3581 C3580 1.524 . S
C3581 C3582 1.397 . S
C3581 C3586 1.363 . S
C3582 H3559 0.950 . S
C3582 C3581 1.397 . S
C3582 C3583 1.334 . S
C3583 H3560 0.950 . S
C3583 C3582 1.334 . S
C3583 C3584 1.287 . S
C3584 C3583 1.287 . S
C3584 C3585 1.524 . S
C3584 H3603 0.913 . S
C3585 H3561 0.950 . S
C3585 C3584 1.524 . S
C3585 C3586 1.415 . S
C3586 H3562 0.950 . S
C3586 C3581 1.363 . S
C3586 C3585 1.415 . S
C3587 H3563 0.951 . S
C3587 C3588 1.366 . S
C3587 C3589 1.388 . S
C3588 C3587 1.366 . S
C3588 C3592 1.385 . S
C3589 H3564 0.951 . S
C3589 C3587 1.388 . S
C3589 C3590 1.366 . S
C3590 C3589 1.366 . S
C3590 C3591 1.414 . S
C3590 C3593 1.499 . S
C3591 H3565 0.950 . S
C3591 C3590 1.414 . S
C3591 C3592 1.374 . S
C3592 H3566 0.950 . S
C3592 C3588 1.385 . S
C3592 C3591 1.374 . S
C3593 C3590 1.499 . S
C3593 C3594 1.373 . S
C3593 C3595 1.389 . S
C3594 H3567 0.950 . S
C3594 C3580 1.377 . S
C3594 C3593 1.373 . S
C3595 C3579 1.377 . S
C3595 C3593 1.389 . S
C3595 C3596 1.524 . S
C3596 C3595 1.524 . S
C3596 C3597 1.397 . S
C3596 C3601 1.363 . S
C3597 H3568 0.950 . S
C3597 C3596 1.397 . S
C3597 C3598 1.334 . S
C3598 H3569 0.950 . S
C3598 C3597 1.334 . S
C3598 C3599 1.287 . S
C3599 C3598 1.287 . S
C3599 C3600 1.524 . S
C3599 H3602 0.999 . S
C3600 H3570 0.950 . S
C3600 C3599 1.524 . S
C3600 C3601 1.415 . S
C3601 H3571 0.950 . S
C3601 C3596 1.363 . S
C3601 C3600 1.415 . S
H3602 C3599 0.999 . S
H3603 C3584 0.913 . S
H3604 C3622 0.951 . S
H3605 C3624 0.951 . S
H3606 C3626 0.950 . S
H3607 C3627 0.950 . S
H3608 C3629 0.950 . S
H3609 C3632 0.950 . S
H3610 C3633 0.950 . S
H3611 C3635 0.950 . S
H3612 C3636 0.950 . S
H3613 C3637 0.951 . S
H3614 C3639 0.951 . S
H3615 C3641 0.950 . S
H3616 C3642 0.950 . S
H3617 C3644 0.950 . S
H3618 C3647 0.950 . S
H3619 C3648 0.950 . S
H3620 C3650 0.950 . S
H3621 C3651 0.950 . S
C3622 H3604 0.951 . S
C3622 C3623 1.366 . S
C3622 C3624 1.388 . S
C3623 C3622 1.366 . S
C3623 C3627 1.385 . S
C3624 H3605 0.951 . S
C3624 C3622 1.388 . S
C3624 C3625 1.366 . S
C3625 C3624 1.366 . S
C3625 C3626 1.414 . S
C3625 C3628 1.499 . S
C3626 H3606 0.950 . S
C3626 C3625 1.414 . S
C3626 C3627 1.374 . S
C3627 H3607 0.950 . S
C3627 C3623 1.385 . S
C3627 C3626 1.374 . S
C3628 C3625 1.499 . S
C3628 C3629 1.373 . S
C3628 C3630 1.389 . S
C3629 H3608 0.950 . S
C3629 C3628 1.373 . S
C3629 C3645 1.377 . S
C3630 C3628 1.389 . S
C3630 C3631 1.524 . S
C3630 C3644 1.377 . S
C3631 C3630 1.524 . S
C3631 C3632 1.397 . S
C3631 C3636 1.363 . S
C3632 H3609 0.950 . S
C3632 C3631 1.397 . S
C3632 C3633 1.334 . S
C3633 H3610 0.950 . S
C3633 C3632 1.334 . S
C3633 C3634 1.287 . S
C3634 C3633 1.287 . S
C3634 C3635 1.524 . S
C3634 H3653 0.913 . S
C3635 H3611 0.950 . S
C3635 C3634 1.524 . S
C3635 C3636 1.415 . S
C3636 H3612 0.950 . S
C3636 C3631 1.363 . S
C3636 C3635 1.415 . S
C3637 H3613 0.951 . S
C3637 C3638 1.366 . S
C3637 C3639 1.388 . S
C3638 C3637 1.366 . S
C3638 C3642 1.385 . S
C3639 H3614 0.951 . S
C3639 C3637 1.388 . S
C3639 C3640 1.366 . S
C3640 C3639 1.366 . S
C3640 C3641 1.414 . S
C3640 C3643 1.499 . S
C3641 H3615 0.950 . S
C3641 C3640 1.414 . S
C3641 C3642 1.374 . S
C3642 H3616 0.950 . S
C3642 C3638 1.385 . S
C3642 C3641 1.374 . S
C3643 C3640 1.499 . S
C3643 C3644 1.373 . S
C3643 C3645 1.389 . S
C3644 H3617 0.950 . S
C3644 C3630 1.377 . S
C3644 C3643 1.373 . S
C3645 C3629 1.377 . S
C3645 C3643 1.389 . S
C3645 C3646 1.524 . S
C3646 C3645 1.524 . S
C3646 C3647 1.397 . S
C3646 C3651 1.363 . S
C3647 H3618 0.950 . S
C3647 C3646 1.397 . S
C3647 C3648 1.334 . S
C3648 H3619 0.950 . S
C3648 C3647 1.334 . S
C3648 C3649 1.287 . S
C3649 C3648 1.287 . S
C3649 C3650 1.524 . S
C3649 H3652 0.999 . S
C3650 H3620 0.950 . S
C3650 C3649 1.524 . S
C3650 C3651 1.415 . S
C3651 H3621 0.950 . S
C3651 C3646 1.363 . S
C3651 C3650 1.415 . S
H3652 C3649 0.999 . S
H3653 C3634 0.913 . S
H3654 C3672 0.951 1_545 S
H3655 C3674 0.951 . S
H3656 C3676 0.950 . S
H3657 C3677 0.950 . S
H3658 C3679 0.950 . S
H3659 C3682 0.950 . S
H3660 C3683 0.950 . S
H3661 C3685 0.950 . S
H3662 C3686 0.950 . S
H3663 C3687 0.951 . S
H3664 C3689 0.951 . S
H3665 C3691 0.950 . S
H3666 C3692 0.950 . S
H3667 C3694 0.950 . S
H3668 C3697 0.950 . S
H3669 C3698 0.950 . S
H3670 C3700 0.950 . S
H3671 C3701 0.950 . S
C3672 H3654 0.951 1_565 S
C3672 C3673 1.366 . S
C3672 C3674 1.388 . S
C3673 C3672 1.366 . S
C3673 C3677 1.385 . S
C3674 H3655 0.951 . S
C3674 C3672 1.388 . S
C3674 C3675 1.366 . S
C3675 C3674 1.366 . S
C3675 C3676 1.414 . S
C3675 C3678 1.499 . S
C3676 H3656 0.950 . S
C3676 C3675 1.414 . S
C3676 C3677 1.374 . S
C3677 H3657 0.950 . S
C3677 C3673 1.385 . S
C3677 C3676 1.374 . S
C3678 C3675 1.499 . S
C3678 C3679 1.373 . S
C3678 C3680 1.389 . S
C3679 H3658 0.950 . S
C3679 C3678 1.373 . S
C3679 C3695 1.377 . S
C3680 C3678 1.389 . S
C3680 C3681 1.524 . S
C3680 C3694 1.377 . S
C3681 C3680 1.524 . S
C3681 C3682 1.397 . S
C3681 C3686 1.363 . S
C3682 H3659 0.950 . S
C3682 C3681 1.397 . S
C3682 C3683 1.334 . S
C3683 H3660 0.950 . S
C3683 C3682 1.334 . S
C3683 C3684 1.287 . S
C3684 C3683 1.287 . S
C3684 C3685 1.524 . S
C3684 H3703 0.913 . S
C3685 H3661 0.950 . S
C3685 C3684 1.524 . S
C3685 C3686 1.415 . S
C3686 H3662 0.950 . S
C3686 C3681 1.363 . S
C3686 C3685 1.415 . S
C3687 H3663 0.951 . S
C3687 C3688 1.366 . S
C3687 C3689 1.388 . S
C3688 C3687 1.366 . S
C3688 C3692 1.385 . S
C3689 H3664 0.951 . S
C3689 C3687 1.388 . S
C3689 C3690 1.366 . S
C3690 C3689 1.366 . S
C3690 C3691 1.414 . S
C3690 C3693 1.499 . S
C3691 H3665 0.950 . S
C3691 C3690 1.414 . S
C3691 C3692 1.374 . S
C3692 H3666 0.950 . S
C3692 C3688 1.385 . S
C3692 C3691 1.374 . S
C3693 C3690 1.499 . S
C3693 C3694 1.373 . S
C3693 C3695 1.389 . S
C3694 H3667 0.950 . S
C3694 C3680 1.377 . S
C3694 C3693 1.373 . S
C3695 C3679 1.377 . S
C3695 C3693 1.389 . S
C3695 C3696 1.524 . S
C3696 C3695 1.524 . S
C3696 C3697 1.397 . S
C3696 C3701 1.363 . S
C3697 H3668 0.950 . S
C3697 C3696 1.397 . S
C3697 C3698 1.334 . S
C3698 H3669 0.950 . S
C3698 C3697 1.334 . S
C3698 C3699 1.287 . S
C3699 C3698 1.287 . S
C3699 C3700 1.524 . S
C3699 H3702 0.999 . S
C3700 H3670 0.950 . S
C3700 C3699 1.524 . S
C3700 C3701 1.415 . S
C3701 H3671 0.950 . S
C3701 C3696 1.363 . S
C3701 C3700 1.415 . S
H3702 C3699 0.999 . S
H3703 C3684 0.913 . S
H3704 C3722 0.951 . S
H3705 C3724 0.951 . S
H3706 C3726 0.950 . S
H3707 C3727 0.950 . S
H3708 C3729 0.950 . S
H3709 C3732 0.950 . S
H3710 C3733 0.950 . S
H3711 C3735 0.950 . S
H3712 C3736 0.950 . S
H3713 C3737 0.951 . S
H3714 C3739 0.951 . S
H3715 C3741 0.950 . S
H3716 C3742 0.950 . S
H3717 C3744 0.950 . S
H3718 C3747 0.950 . S
H3719 C3748 0.950 . S
H3720 C3750 0.950 . S
H3721 C3751 0.950 . S
C3722 H3704 0.951 . S
C3722 C3723 1.366 . S
C3722 C3724 1.388 . S
C3723 C3722 1.366 . S
C3723 C3727 1.385 . S
C3724 H3705 0.951 . S
C3724 C3722 1.388 . S
C3724 C3725 1.366 . S
C3725 C3724 1.366 . S
C3725 C3726 1.414 . S
C3725 C3728 1.499 . S
C3726 H3706 0.950 . S
C3726 C3725 1.414 . S
C3726 C3727 1.374 . S
C3727 H3707 0.950 . S
C3727 C3723 1.385 . S
C3727 C3726 1.374 . S
C3728 C3725 1.499 . S
C3728 C3729 1.373 . S
C3728 C3730 1.389 . S
C3729 H3708 0.950 . S
C3729 C3728 1.373 . S
C3729 C3745 1.377 . S
C3730 C3728 1.389 . S
C3730 C3731 1.524 . S
C3730 C3744 1.377 . S
C3731 C3730 1.524 . S
C3731 C3732 1.397 . S
C3731 C3736 1.363 . S
C3732 H3709 0.950 . S
C3732 C3731 1.397 . S
C3732 C3733 1.334 . S
C3733 H3710 0.950 . S
C3733 C3732 1.334 . S
C3733 C3734 1.287 . S
C3734 C3733 1.287 . S
C3734 C3735 1.524 . S
C3734 H3753 0.913 . S
C3735 H3711 0.950 . S
C3735 C3734 1.524 . S
C3735 C3736 1.415 . S
C3736 H3712 0.950 . S
C3736 C3731 1.363 . S
C3736 C3735 1.415 . S
C3737 H3713 0.951 . S
C3737 C3738 1.366 . S
C3737 C3739 1.388 . S
C3738 C3737 1.366 . S
C3738 C3742 1.385 . S
C3739 H3714 0.951 . S
C3739 C3737 1.388 . S
C3739 C3740 1.366 . S
C3740 C3739 1.366 . S
C3740 C3741 1.414 . S
C3740 C3743 1.499 . S
C3741 H3715 0.950 . S
C3741 C3740 1.414 . S
C3741 C3742 1.374 . S
C3742 H3716 0.950 . S
C3742 C3738 1.385 . S
C3742 C3741 1.374 . S
C3743 C3740 1.499 . S
C3743 C3744 1.373 . S
C3743 C3745 1.389 . S
C3744 H3717 0.950 . S
C3744 C3730 1.377 . S
C3744 C3743 1.373 . S
C3745 C3729 1.377 . S
C3745 C3743 1.389 . S
C3745 C3746 1.524 . S
C3746 C3745 1.524 . S
C3746 C3747 1.397 . S
C3746 C3751 1.363 . S
C3747 H3718 0.950 . S
C3747 C3746 1.397 . S
C3747 C3748 1.334 . S
C3748 H3719 0.950 . S
C3748 C3747 1.334 . S
C3748 C3749 1.287 . S
C3749 C3748 1.287 . S
C3749 C3750 1.524 . S
C3749 H3752 0.999 . S
C3750 H3720 0.950 . S
C3750 C3749 1.524 . S
C3750 C3751 1.415 . S
C3751 H3721 0.950 . S
C3751 C3746 1.363 . S
C3751 C3750 1.415 . S
H3752 C3749 0.999 . S
H3753 C3734 0.913 . S
H3754 C3772 0.951 . S
H3755 C3774 0.951 . S
H3756 C3776 0.950 . S
H3757 C3777 0.950 . S
H3758 C3779 0.950 . S
H3759 C3782 0.950 . S
H3760 C3783 0.950 . S
H3761 C3785 0.950 . S
H3762 C3786 0.950 . S
H3763 C3787 0.951 . S
H3764 C3789 0.951 . S
H3765 C3791 0.950 . S
H3766 C3792 0.950 . S
H3767 C3794 0.950 . S
H3768 C3797 0.950 . S
H3769 C3798 0.950 . S
H3770 C3800 0.950 . S
H3771 C3801 0.950 . S
C3772 H3754 0.951 . S
C3772 C3773 1.366 . S
C3772 C3774 1.388 . S
C3773 C3772 1.366 . S
C3773 C3777 1.385 . S
C3774 H3755 0.951 . S
C3774 C3772 1.388 . S
C3774 C3775 1.366 . S
C3775 C3774 1.366 . S
C3775 C3776 1.414 . S
C3775 C3778 1.499 . S
C3776 H3756 0.950 . S
C3776 C3775 1.414 . S
C3776 C3777 1.374 . S
C3777 H3757 0.950 . S
C3777 C3773 1.385 . S
C3777 C3776 1.374 . S
C3778 C3775 1.499 . S
C3778 C3779 1.373 . S
C3778 C3780 1.389 . S
C3779 H3758 0.950 . S
C3779 C3778 1.373 . S
C3779 C3795 1.377 . S
C3780 C3778 1.389 . S
C3780 C3781 1.524 . S
C3780 C3794 1.377 . S
C3781 C3780 1.524 . S
C3781 C3782 1.397 . S
C3781 C3786 1.363 . S
C3782 H3759 0.950 . S
C3782 C3781 1.397 . S
C3782 C3783 1.334 . S
C3783 H3760 0.950 . S
C3783 C3782 1.334 . S
C3783 C3784 1.287 . S
C3784 C3783 1.287 . S
C3784 C3785 1.524 . S
C3784 H3803 0.913 . S
C3785 H3761 0.950 . S
C3785 C3784 1.524 . S
C3785 C3786 1.415 . S
C3786 H3762 0.950 . S
C3786 C3781 1.363 . S
C3786 C3785 1.415 . S
C3787 H3763 0.951 . S
C3787 C3788 1.366 . S
C3787 C3789 1.388 . S
C3788 C3787 1.366 . S
C3788 C3792 1.385 . S
C3789 H3764 0.951 . S
C3789 C3787 1.388 . S
C3789 C3790 1.366 . S
C3790 C3789 1.366 . S
C3790 C3791 1.414 . S
C3790 C3793 1.499 . S
C3791 H3765 0.950 . S
C3791 C3790 1.414 . S
C3791 C3792 1.374 . S
C3792 H3766 0.950 . S
C3792 C3788 1.385 . S
C3792 C3791 1.374 . S
C3793 C3790 1.499 . S
C3793 C3794 1.373 . S
C3793 C3795 1.389 . S
C3794 H3767 0.950 . S
C3794 C3780 1.377 . S
C3794 C3793 1.373 . S
C3795 C3779 1.377 . S
C3795 C3793 1.389 . S
C3795 C3796 1.524 . S
C3796 C3795 1.524 . S
C3796 C3797 1.397 . S
C3796 C3801 1.363 . S
C3797 H3768 0.950 . S
C3797 C3796 1.397 . S
C3797 C3798 1.334 . S
C3798 H3769 0.950 . S
C3798 C3797 1.334 . S
C3798 C3799 1.287 . S
C3799 C3798 1.287 . S
C3799 C3800 1.524 . S
C3799 H3802 0.999 . S
C3800 H3770 0.950 . S
C3800 C3799 1.524 . S
C3800 C3801 1.415 . S
C3801 H3771 0.950 . S
C3801 C3796 1.363 . S
C3801 C3800 1.415 . S
H3802 C3799 0.999 . S
H3803 C3784 0.913 . S
H3804 C3822 0.951 . S
H3805 C3824 0.951 . S
H3806 C3826 0.950 . S
H3807 C3827 0.950 . S
H3808 C3829 0.950 . S
H3809 C3832 0.950 . S
H3810 C3833 0.950 . S
H3811 C3835 0.950 . S
H3812 C3836 0.950 . S
H3813 C3837 0.951 . S
H3814 C3839 0.951 . S
H3815 C3841 0.950 . S
H3816 C3842 0.950 . S
H3817 C3844 0.950 . S
H3818 C3847 0.950 . S
H3819 C3848 0.950 . S
H3820 C3850 0.950 . S
H3821 C3851 0.950 . S
C3822 H3804 0.951 . S
C3822 C3823 1.366 . S
C3822 C3824 1.388 . S
C3823 C3822 1.366 . S
C3823 C3827 1.385 . S
C3824 H3805 0.951 . S
C3824 C3822 1.388 . S
C3824 C3825 1.366 . S
C3825 C3824 1.366 . S
C3825 C3826 1.414 . S
C3825 C3828 1.499 . S
C3826 H3806 0.950 . S
C3826 C3825 1.414 . S
C3826 C3827 1.374 . S
C3827 H3807 0.950 . S
C3827 C3823 1.385 . S
C3827 C3826 1.374 . S
C3828 C3825 1.499 . S
C3828 C3829 1.373 . S
C3828 C3830 1.389 . S
C3829 H3808 0.950 . S
C3829 C3828 1.373 . S
C3829 C3845 1.377 . S
C3830 C3828 1.389 . S
C3830 C3831 1.524 . S
C3830 C3844 1.377 . S
C3831 C3830 1.524 . S
C3831 C3832 1.397 . S
C3831 C3836 1.363 . S
C3832 H3809 0.950 . S
C3832 C3831 1.397 . S
C3832 C3833 1.334 . S
C3833 H3810 0.950 . S
C3833 C3832 1.334 . S
C3833 C3834 1.287 . S
C3834 C3833 1.287 . S
C3834 C3835 1.524 . S
C3834 H3853 0.913 . S
C3835 H3811 0.950 . S
C3835 C3834 1.524 . S
C3835 C3836 1.415 . S
C3836 H3812 0.950 . S
C3836 C3831 1.363 . S
C3836 C3835 1.415 . S
C3837 H3813 0.951 . S
C3837 C3838 1.366 . S
C3837 C3839 1.388 . S
C3838 C3837 1.366 . S
C3838 C3842 1.385 . S
C3839 H3814 0.951 . S
C3839 C3837 1.388 . S
C3839 C3840 1.366 . S
C3840 C3839 1.366 . S
C3840 C3841 1.414 . S
C3840 C3843 1.499 . S
C3841 H3815 0.950 . S
C3841 C3840 1.414 . S
C3841 C3842 1.374 . S
C3842 H3816 0.950 . S
C3842 C3838 1.385 . S
C3842 C3841 1.374 . S
C3843 C3840 1.499 . S
C3843 C3844 1.373 . S
C3843 C3845 1.389 . S
C3844 H3817 0.950 . S
C3844 C3830 1.377 . S
C3844 C3843 1.373 . S
C3845 C3829 1.377 . S
C3845 C3843 1.389 . S
C3845 C3846 1.524 . S
C3846 C3845 1.524 . S
C3846 C3847 1.397 . S
C3846 C3851 1.363 . S
C3847 H3818 0.950 . S
C3847 C3846 1.397 . S
C3847 C3848 1.334 . S
C3848 H3819 0.950 . S
C3848 C3847 1.334 . S
C3848 C3849 1.287 . S
C3849 C3848 1.287 . S
C3849 C3850 1.524 . S
C3849 H3852 0.999 . S
C3850 H3820 0.950 . S
C3850 C3849 1.524 . S
C3850 C3851 1.415 . S
C3851 H3821 0.950 . S
C3851 C3846 1.363 . S
C3851 C3850 1.415 . S
H3852 C3849 0.999 . S
H3853 C3834 0.913 . S
H3854 C3872 0.951 . S
H3855 C3874 0.951 . S
H3856 C3876 0.950 . S
H3857 C3877 0.950 . S
H3858 C3879 0.950 . S
H3859 C3882 0.950 . S
H3860 C3883 0.950 . S
H3861 C3885 0.950 . S
H3862 C3886 0.950 . S
H3863 C3887 0.951 . S
H3864 C3889 0.951 . S
H3865 C3891 0.950 . S
H3866 C3892 0.950 . S
H3867 C3894 0.950 . S
H3868 C3897 0.950 . S
H3869 C3898 0.950 . S
H3870 C3900 0.950 . S
H3871 C3901 0.950 . S
C3872 H3854 0.951 . S
C3872 C3873 1.366 . S
C3872 C3874 1.388 . S
C3873 C3872 1.366 . S
C3873 C3877 1.385 . S
C3874 H3855 0.951 . S
C3874 C3872 1.388 . S
C3874 C3875 1.366 . S
C3875 C3874 1.366 . S
C3875 C3876 1.414 . S
C3875 C3878 1.499 . S
C3876 H3856 0.950 . S
C3876 C3875 1.414 . S
C3876 C3877 1.374 . S
C3877 H3857 0.950 . S
C3877 C3873 1.385 . S
C3877 C3876 1.374 . S
C3878 C3875 1.499 . S
C3878 C3879 1.373 . S
C3878 C3880 1.389 . S
C3879 H3858 0.950 . S
C3879 C3878 1.373 . S
C3879 C3895 1.377 . S
C3880 C3878 1.389 . S
C3880 C3881 1.524 . S
C3880 C3894 1.377 . S
C3881 C3880 1.524 . S
C3881 C3882 1.397 . S
C3881 C3886 1.363 . S
C3882 H3859 0.950 . S
C3882 C3881 1.397 . S
C3882 C3883 1.334 . S
C3883 H3860 0.950 . S
C3883 C3882 1.334 . S
C3883 C3884 1.287 . S
C3884 C3883 1.287 . S
C3884 C3885 1.524 . S
C3884 H3903 0.913 . S
C3885 H3861 0.950 . S
C3885 C3884 1.524 . S
C3885 C3886 1.415 . S
C3886 H3862 0.950 . S
C3886 C3881 1.363 . S
C3886 C3885 1.415 . S
C3887 H3863 0.951 . S
C3887 C3888 1.366 . S
C3887 C3889 1.388 . S
C3888 C3887 1.366 . S
C3888 C3892 1.385 . S
C3889 H3864 0.951 . S
C3889 C3887 1.388 . S
C3889 C3890 1.366 . S
C3890 C3889 1.366 . S
C3890 C3891 1.414 . S
C3890 C3893 1.499 . S
C3891 H3865 0.950 . S
C3891 C3890 1.414 . S
C3891 C3892 1.374 . S
C3892 H3866 0.950 . S
C3892 C3888 1.385 . S
C3892 C3891 1.374 . S
C3893 C3890 1.499 . S
C3893 C3894 1.373 . S
C3893 C3895 1.389 . S
C3894 H3867 0.950 . S
C3894 C3880 1.377 . S
C3894 C3893 1.373 . S
C3895 C3879 1.377 . S
C3895 C3893 1.389 . S
C3895 C3896 1.524 . S
C3896 C3895 1.524 . S
C3896 C3897 1.397 . S
C3896 C3901 1.363 . S
C3897 H3868 0.950 . S
C3897 C3896 1.397 . S
C3897 C3898 1.334 . S
C3898 H3869 0.950 . S
C3898 C3897 1.334 . S
C3898 C3899 1.287 . S
C3899 C3898 1.287 . S
C3899 C3900 1.524 . S
C3899 H3902 0.999 . S
C3900 H3870 0.950 . S
C3900 C3899 1.524 . S
C3900 C3901 1.415 . S
C3901 H3871 0.950 . S
C3901 C3896 1.363 . S
C3901 C3900 1.415 . S
H3902 C3899 0.999 . S
H3903 C3884 0.913 . S
H3904 C3922 0.951 . S
H3905 C3924 0.951 . S
H3906 C3926 0.950 . S
H3907 C3927 0.950 . S
H3908 C3929 0.950 . S
H3909 C3932 0.950 . S
H3910 C3933 0.950 . S
H3911 C3935 0.950 . S
H3912 C3936 0.950 . S
H3913 C3937 0.951 . S
H3914 C3939 0.951 . S
H3915 C3941 0.950 . S
H3916 C3942 0.950 . S
H3917 C3944 0.950 . S
H3918 C3947 0.950 . S
H3919 C3948 0.950 . S
H3920 C3950 0.950 . S
H3921 C3951 0.950 . S
C3922 H3904 0.951 . S
C3922 C3923 1.366 . S
C3922 C3924 1.388 . S
C3923 C3922 1.366 . S
C3923 C3927 1.385 . S
C3924 H3905 0.951 . S
C3924 C3922 1.388 . S
C3924 C3925 1.366 . S
C3925 C3924 1.366 . S
C3925 C3926 1.414 . S
C3925 C3928 1.499 . S
C3926 H3906 0.950 . S
C3926 C3925 1.414 . S
C3926 C3927 1.374 . S
C3927 H3907 0.950 . S
C3927 C3923 1.385 . S
C3927 C3926 1.374 . S
C3928 C3925 1.499 . S
C3928 C3929 1.373 . S
C3928 C3930 1.389 . S
C3929 H3908 0.950 . S
C3929 C3928 1.373 . S
C3929 C3945 1.377 . S
C3930 C3928 1.389 . S
C3930 C3931 1.524 . S
C3930 C3944 1.377 . S
C3931 C3930 1.524 . S
C3931 C3932 1.397 . S
C3931 C3936 1.363 . S
C3932 H3909 0.950 . S
C3932 C3931 1.397 . S
C3932 C3933 1.334 . S
C3933 H3910 0.950 . S
C3933 C3932 1.334 . S
C3933 C3934 1.287 . S
C3934 C3933 1.287 . S
C3934 C3935 1.524 . S
C3934 H3953 0.913 . S
C3935 H3911 0.950 . S
C3935 C3934 1.524 . S
C3935 C3936 1.415 . S
C3936 H3912 0.950 . S
C3936 C3931 1.363 . S
C3936 C3935 1.415 . S
C3937 H3913 0.951 . S
C3937 C3938 1.366 . S
C3937 C3939 1.388 . S
C3938 C3937 1.366 . S
C3938 C3942 1.385 . S
C3939 H3914 0.951 . S
C3939 C3937 1.388 . S
C3939 C3940 1.366 . S
C3940 C3939 1.366 . S
C3940 C3941 1.414 . S
C3940 C3943 1.499 . S
C3941 H3915 0.950 . S
C3941 C3940 1.414 . S
C3941 C3942 1.374 . S
C3942 H3916 0.950 . S
C3942 C3938 1.385 . S
C3942 C3941 1.374 . S
C3943 C3940 1.499 . S
C3943 C3944 1.373 . S
C3943 C3945 1.389 . S
C3944 H3917 0.950 . S
C3944 C3930 1.377 . S
C3944 C3943 1.373 . S
C3945 C3929 1.377 . S
C3945 C3943 1.389 . S
C3945 C3946 1.524 . S
C3946 C3945 1.524 . S
C3946 C3947 1.397 . S
C3946 C3951 1.363 . S
C3947 H3918 0.950 . S
C3947 C3946 1.397 . S
C3947 C3948 1.334 . S
C3948 H3919 0.950 . S
C3948 C3947 1.334 . S
C3948 C3949 1.287 . S
C3949 C3948 1.287 . S
C3949 C3950 1.524 . S
C3949 H3952 0.999 . S
C3950 H3920 0.950 . S
C3950 C3949 1.524 . S
C3950 C3951 1.415 . S
C3951 H3921 0.950 . S
C3951 C3946 1.363 . S
C3951 C3950 1.415 . S
H3952 C3949 0.999 . S
H3953 C3934 0.913 . S
H3954 C3972 0.951 . S
H3955 C3974 0.951 . S
H3956 C3976 0.950 . S
H3957 C3977 0.950 . S
H3958 C3979 0.950 . S
H3959 C3982 0.950 . S
H3960 C3983 0.950 . S
H3961 C3985 0.950 . S
H3962 C3986 0.950 . S
H3963 C3987 0.951 . S
H3964 C3989 0.951 . S
H3965 C3991 0.950 . S
H3966 C3992 0.950 . S
H3967 C3994 0.950 . S
H3968 C3997 0.950 . S
H3969 C3998 0.950 . S
H3970 C4000 0.950 . S
H3971 C4001 0.950 . S
C3972 H3954 0.951 . S
C3972 C3973 1.366 . S
C3972 C3974 1.388 . S
C3973 C3972 1.366 . S
C3973 C3977 1.385 . S
C3974 H3955 0.951 . S
C3974 C3972 1.388 . S
C3974 C3975 1.366 . S
C3975 C3974 1.366 . S
C3975 C3976 1.414 . S
C3975 C3978 1.499 . S
C3976 H3956 0.950 . S
C3976 C3975 1.414 . S
C3976 C3977 1.374 . S
C3977 H3957 0.950 . S
C3977 C3973 1.385 . S
C3977 C3976 1.374 . S
C3978 C3975 1.499 . S
C3978 C3979 1.373 . S
C3978 C3980 1.389 . S
C3979 H3958 0.950 . S
C3979 C3978 1.373 . S
C3979 C3995 1.377 . S
C3980 C3978 1.389 . S
C3980 C3981 1.524 . S
C3980 C3994 1.377 . S
C3981 C3980 1.524 . S
C3981 C3982 1.397 . S
C3981 C3986 1.363 . S
C3982 H3959 0.950 . S
C3982 C3981 1.397 . S
C3982 C3983 1.334 . S
C3983 H3960 0.950 . S
C3983 C3982 1.334 . S
C3983 C3984 1.287 . S
C3984 C3983 1.287 . S
C3984 C3985 1.524 . S
C3984 H4003 0.913 . S
C3985 H3961 0.950 . S
C3985 C3984 1.524 . S
C3985 C3986 1.415 . S
C3986 H3962 0.950 . S
C3986 C3981 1.363 . S
C3986 C3985 1.415 . S
C3987 H3963 0.951 . S
C3987 C3988 1.366 . S
C3987 C3989 1.388 . S
C3988 C3987 1.366 . S
C3988 C3992 1.385 . S
C3989 H3964 0.951 . S
C3989 C3987 1.388 . S
C3989 C3990 1.366 . S
C3990 C3989 1.366 . S
C3990 C3991 1.414 . S
C3990 C3993 1.499 . S
C3991 H3965 0.950 . S
C3991 C3990 1.414 . S
C3991 C3992 1.374 . S
C3992 H3966 0.950 . S
C3992 C3988 1.385 . S
C3992 C3991 1.374 . S
C3993 C3990 1.499 . S
C3993 C3994 1.373 . S
C3993 C3995 1.389 . S
C3994 H3967 0.950 . S
C3994 C3980 1.377 . S
C3994 C3993 1.373 . S
C3995 C3979 1.377 . S
C3995 C3993 1.389 . S
C3995 C3996 1.524 . S
C3996 C3995 1.524 . S
C3996 C3997 1.397 . S
C3996 C4001 1.363 . S
C3997 H3968 0.950 . S
C3997 C3996 1.397 . S
C3997 C3998 1.334 . S
C3998 H3969 0.950 . S
C3998 C3997 1.334 . S
C3998 C3999 1.287 . S
C3999 C3998 1.287 . S
C3999 C4000 1.524 . S
C3999 H4002 0.999 . S
C4000 H3970 0.950 . S
C4000 C3999 1.524 . S
C4000 C4001 1.415 . S
C4001 H3971 0.950 . S
C4001 C3996 1.363 . S
C4001 C4000 1.415 . S
H4002 C3999 0.999 . S
H4003 C3984 0.913 . S
H4004 C4022 0.951 . S
H4005 C4024 0.951 . S
H4006 C4026 0.950 . S
H4007 C4027 0.950 . S
H4008 C4029 0.950 . S
H4009 C4032 0.950 . S
H4010 C4033 0.950 . S
H4011 C4035 0.950 . S
H4012 C4036 0.950 . S
H4013 C4037 0.951 . S
H4014 C4039 0.951 . S
H4015 C4041 0.950 . S
H4016 C4042 0.950 . S
H4017 C4044 0.950 . S
H4018 C4047 0.950 . S
H4019 C4048 0.950 . S
H4020 C4050 0.950 . S
H4021 C4051 0.950 . S
C4022 H4004 0.951 . S
C4022 C4023 1.366 . S
C4022 C4024 1.388 . S
C4023 C4022 1.366 . S
C4023 C4027 1.385 . S
C4024 H4005 0.951 . S
C4024 C4022 1.388 . S
C4024 C4025 1.366 . S
C4025 C4024 1.366 . S
C4025 C4026 1.414 . S
C4025 C4028 1.499 . S
C4026 H4006 0.950 . S
C4026 C4025 1.414 . S
C4026 C4027 1.374 . S
C4027 H4007 0.950 . S
C4027 C4023 1.385 . S
C4027 C4026 1.374 . S
C4028 C4025 1.499 . S
C4028 C4029 1.373 . S
C4028 C4030 1.389 . S
C4029 H4008 0.950 . S
C4029 C4028 1.373 . S
C4029 C4045 1.377 . S
C4030 C4028 1.389 . S
C4030 C4031 1.524 . S
C4030 C4044 1.377 . S
C4031 C4030 1.524 . S
C4031 C4032 1.397 . S
C4031 C4036 1.363 . S
C4032 H4009 0.950 . S
C4032 C4031 1.397 . S
C4032 C4033 1.334 . S
C4033 H4010 0.950 . S
C4033 C4032 1.334 . S
C4033 C4034 1.287 . S
C4034 C4033 1.287 . S
C4034 C4035 1.524 . S
C4034 H4053 0.913 . S
C4035 H4011 0.950 . S
C4035 C4034 1.524 . S
C4035 C4036 1.415 . S
C4036 H4012 0.950 . S
C4036 C4031 1.363 . S
C4036 C4035 1.415 . S
C4037 H4013 0.951 . S
C4037 C4038 1.366 . S
C4037 C4039 1.388 . S
C4038 C4037 1.366 . S
C4038 C4042 1.385 . S
C4039 H4014 0.951 . S
C4039 C4037 1.388 . S
C4039 C4040 1.366 . S
C4040 C4039 1.366 . S
C4040 C4041 1.414 . S
C4040 C4043 1.499 . S
C4041 H4015 0.950 . S
C4041 C4040 1.414 . S
C4041 C4042 1.374 . S
C4042 H4016 0.950 . S
C4042 C4038 1.385 . S
C4042 C4041 1.374 . S
C4043 C4040 1.499 . S
C4043 C4044 1.373 . S
C4043 C4045 1.389 . S
C4044 H4017 0.950 . S
C4044 C4030 1.377 . S
C4044 C4043 1.373 . S
C4045 C4029 1.377 . S
C4045 C4043 1.389 . S
C4045 C4046 1.524 . S
C4046 C4045 1.524 . S
C4046 C4047 1.397 . S
C4046 C4051 1.363 . S
C4047 H4018 0.950 . S
C4047 C4046 1.397 . S
C4047 C4048 1.334 . S
C4048 H4019 0.950 . S
C4048 C4047 1.334 . S
C4048 C4049 1.287 . S
C4049 C4048 1.287 . S
C4049 C4050 1.524 . S
C4049 H4052 0.999 . S
C4050 H4020 0.950 . S
C4050 C4049 1.524 . S
C4050 C4051 1.415 . S
C4051 H4021 0.950 . S
C4051 C4046 1.363 . S
C4051 C4050 1.415 . S
H4052 C4049 0.999 . S
H4053 C4034 0.913 . S
H4054 C4072 0.951 . S
H4055 C4074 0.951 . S
H4056 C4076 0.950 . S
H4057 C4077 0.950 . S
H4058 C4079 0.950 . S
H4059 C4082 0.950 . S
H4060 C4083 0.950 . S
H4061 C4085 0.950 . S
H4062 C4086 0.950 . S
H4063 C4087 0.951 . S
H4064 C4089 0.951 . S
H4065 C4091 0.950 . S
H4066 C4092 0.950 . S
H4067 C4094 0.950 . S
H4068 C4097 0.950 . S
H4069 C4098 0.950 . S
H4070 C4100 0.950 . S
H4071 C4101 0.950 . S
C4072 H4054 0.951 . S
C4072 C4073 1.366 . S
C4072 C4074 1.388 . S
C4073 C4072 1.366 . S
C4073 C4077 1.385 . S
C4074 H4055 0.951 . S
C4074 C4072 1.388 . S
C4074 C4075 1.366 . S
C4075 C4074 1.366 . S
C4075 C4076 1.414 . S
C4075 C4078 1.499 . S
C4076 H4056 0.950 . S
C4076 C4075 1.414 . S
C4076 C4077 1.374 . S
C4077 H4057 0.950 . S
C4077 C4073 1.385 . S
C4077 C4076 1.374 . S
C4078 C4075 1.499 . S
C4078 C4079 1.373 . S
C4078 C4080 1.389 . S
C4079 H4058 0.950 . S
C4079 C4078 1.373 . S
C4079 C4095 1.377 . S
C4080 C4078 1.389 . S
C4080 C4081 1.524 . S
C4080 C4094 1.377 . S
C4081 C4080 1.524 . S
C4081 C4082 1.397 . S
C4081 C4086 1.363 . S
C4082 H4059 0.950 . S
C4082 C4081 1.397 . S
C4082 C4083 1.334 . S
C4083 H4060 0.950 . S
C4083 C4082 1.334 . S
C4083 C4084 1.287 . S
C4084 C4083 1.287 . S
C4084 C4085 1.524 . S
C4084 H4103 0.913 . S
C4085 H4061 0.950 . S
C4085 C4084 1.524 . S
C4085 C4086 1.415 . S
C4086 H4062 0.950 . S
C4086 C4081 1.363 . S
C4086 C4085 1.415 . S
C4087 H4063 0.951 . S
C4087 C4088 1.366 . S
C4087 C4089 1.388 . S
C4088 C4087 1.366 . S
C4088 C4092 1.385 . S
C4089 H4064 0.951 . S
C4089 C4087 1.388 . S
C4089 C4090 1.366 . S
C4090 C4089 1.366 . S
C4090 C4091 1.414 . S
C4090 C4093 1.499 . S
C4091 H4065 0.950 . S
C4091 C4090 1.414 . S
C4091 C4092 1.374 . S
C4092 H4066 0.950 . S
C4092 C4088 1.385 . S
C4092 C4091 1.374 . S
C4093 C4090 1.499 . S
C4093 C4094 1.373 . S
C4093 C4095 1.389 . S
C4094 H4067 0.950 . S
C4094 C4080 1.377 . S
C4094 C4093 1.373 . S
C4095 C4079 1.377 . S
C4095 C4093 1.389 . S
C4095 C4096 1.524 . S
C4096 C4095 1.524 . S
C4096 C4097 1.397 . S
C4096 C4101 1.363 . S
C4097 H4068 0.950 . S
C4097 C4096 1.397 . S
C4097 C4098 1.334 . S
C4098 H4069 0.950 . S
C4098 C4097 1.334 . S
C4098 C4099 1.287 . S
C4099 C4098 1.287 . S
C4099 C4100 1.524 . S
C4099 H4102 0.999 . S
C4100 H4070 0.950 . S
C4100 C4099 1.524 . S
C4100 C4101 1.415 . S
C4101 H4071 0.950 . S
C4101 C4096 1.363 . S
C4101 C4100 1.415 . S
H4102 C4099 0.999 . S
H4103 C4084 0.913 . S
C523 C35 1.199 . S
C538 C256 1.058 . S
C573 C7 1.191 . S
C588 C272 1.053 . S
C638 C255 1.067 . S
C623 C23 1.200 . S
C688 C280 1.049 . S
C673 C37 1.188 . S
C723 C9 1.219 . S
C738 C289 1.082 . S
C788 C292 1.058 . S
C773 C21 1.193 . S
C823 C77 1.199 . S
C838 C298 1.058 . S
C888 C314 1.056 . S
C873 C49 1.191 . S
C938 C297 1.069 . S
C923 C65 1.200 . S
C973 C79 1.188 . S
C988 C322 1.047 . S
C1038 C331 1.084 . S
C1023 C51 1.218 . S
C1088 C334 1.058 . S
C1073 C63 1.193 . S
C1138 C343 1.056 . S
C1123 C119 1.200 . S
C1188 C355 1.054 . S
C1173 C91 1.191 . S
C1238 C352 1.067 . S
C1223 C107 1.200 . S
C1273 C121 1.188 . S
C1288 C361 1.049 . S
C1338 C360 1.083 . S
C1323 C93 1.219 . S
C1373 C105 1.193 . S
C1388 C377 1.057 . S
C1438 C382 1.056 . S
C1423 C161 1.199 . S
C1488 C398 1.053 . S
C1473 C133 1.191 . S
C1523 C149 1.200 . S
C1538 C381 1.070 . S
C1588 C406 1.040 1_554 S
C1573 C163 1.188 . S
C1638 C415 1.070 1_554 S
C1623 C135 1.218 . S
C1673 C147 1.194 . S
C1688 C418 1.047 1_554 S
C1723 C203 1.200 . S
C1738 C427 1.056 . S
C1788 C439 1.054 . S
C1773 C175 1.191 . S
C1838 C436 1.068 . S
C1823 C191 1.199 . S
C1873 C205 1.188 . S
C1888 C445 1.042 1_556 S
C1938 C444 1.069 1_556 S
C1923 C177 1.218 . S
C1973 C189 1.194 . S
C1988 C461 1.047 1_556 S
C2038 C466 1.057 . S
C2023 C245 1.199 . S
C2088 C482 1.053 . S
C2073 C217 1.192 . S
C2123 C233 1.200 . S
C2138 C465 1.067 . S
C2188 C487 1.048 . S
C2173 C247 1.189 . S
C2238 C486 1.082 . S
C2223 C219 1.218 . S
C2288 C503 1.057 . S
C2273 C231 1.193 . S
C2338 C268 1.507 . S
C2323 C162 1.608 . S
C2373 C134 1.610 . S
C2388 C271 1.493 1_655 S
C2438 C259 1.450 . S
C2423 C143 1.561 . S
C2473 C241 1.611 . S
C2488 C276 1.511 . S
C2523 C213 1.602 . S
C2538 C277 1.489 . S
C2588 C293 1.518 1_565 S
C2573 C232 1.621 . S
C2638 C310 1.497 . S
C2623 C204 1.608 . S
C2688 C313 1.502 . S
C2673 C176 1.610 . S
C2723 C185 1.561 . S
C2738 C301 1.450 . S
C2788 C318 1.509 1_655 S
C2773 C115 1.610 . S
C2823 C87 1.601 . S
C2838 C319 1.489 . S
C2873 C106 1.621 . S
C2888 C335 1.519 . S
C2923 C246 1.609 1_655 S
C2938 C339 1.507 . S
C2973 C218 1.610 . S
C2988 C356 1.503 . S
C3038 C340 1.448 . S
C3023 C227 1.561 . S
C3088 C373 1.510 . S
C3073 C73 1.610 . S
C3138 C364 1.488 . S
C3123 C45 1.601 . S
C3173 C64 1.622 . S
C3188 C376 1.519 . S
C3238 C394 1.507 . S
C3223 C36 1.609 . S
C3288 C397 1.502 . S
C3273 C8 1.610 . S
C3323 C17 1.561 . S
C3338 C385 1.449 . S
C3388 C402 1.510 . S
C3373 C199 1.610 . S
C3438 C403 1.489 . S
C3423 C171 1.602 1_655 S
C3488 C419 1.519 . S
C3473 C190 1.622 . S
C3538 C423 1.507 . S
C3523 C78 1.609 . S
C3588 C440 1.504 . S
C3573 C50 1.610 . S
C3623 C59 1.561 . S
C3638 C424 1.450 . S
C3673 C157 1.611 1_565 S
C3688 C457 1.510 . S
C3723 C129 1.601 . S
C3738 C448 1.488 . S
C3788 C460 1.519 . S
C3773 C148 1.622 . S
C3823 C120 1.609 . S
C3838 C478 1.507 . S
C3873 C92 1.611 . S
C3888 C481 1.503 . S
C3938 C469 1.448 . S
C3923 C101 1.561 1_565 S
C3988 C499 1.510 . S
C3973 C31 1.611 . S
C4038 C490 1.488 . S
C4023 C3 1.601 . S
C4073 C22 1.622 . S
C4088 C502 1.520 . S
