# Generated by pormake.
# Topology anh, (6,3)-cn, num edge types: 1
# Building blocks:
#     Node 0, Type 0, BuildingBlock: BETDIP_clean_sbu_0, # of connection points: 6
#     Node 1, Type 0, BuildingBlock: BETDIP_clean_sbu_0, # of connection points: 6
#     Node 2, Type 0, BuildingBlock: BETDIP_clean_sbu_0, # of connection points: 6
#     Node 3, Type 1, BuildingBlock: WUSLED_clean_sbu_0, # of connection points: 3
#     Node 4, Type 1, BuildingBlock: WUSLED_clean_sbu_0, # of connection points: 3
#     Node 5, Type 1, BuildingBlock: WUSLED_clean_sbu_0, # of connection points: 3
#     Node 6, Type 1, BuildingBlock: WUSLED_clean_sbu_0, # of connection points: 3
#     Node 7, Type 1, BuildingBlock: WUSLED_clean_sbu_0, # of connection points: 3
#     Node 8, Type 1, BuildingBlock: WUSLED_clean_sbu_0, # of connection points: 3
#     Edge 9, Type (0, 1), BuildingBlock: KIFKEQ_clean_linker_1, # of connection points: 2
#     Edge 10, Type (0, 1), BuildingBlock: KIFKEQ_clean_linker_1, # of connection points: 2
#     Edge 11, Type (0, 1), BuildingBlock: KIFKEQ_clean_linker_1, # of connection points: 2
#     Edge 12, Type (0, 1), BuildingBlock: KIFKEQ_clean_linker_1, # of connection points: 2
#     Edge 13, Type (0, 1), BuildingBlock: KIFKEQ_clean_linker_1, # of connection points: 2
#     Edge 14, Type (0, 1), BuildingBlock: KIFKEQ_clean_linker_1, # of connection points: 2
#     Edge 15, Type (0, 1), BuildingBlock: KIFKEQ_clean_linker_1, # of connection points: 2
#     Edge 16, Type (0, 1), BuildingBlock: KIFKEQ_clean_linker_1, # of connection points: 2
#     Edge 17, Type (0, 1), BuildingBlock: KIFKEQ_clean_linker_1, # of connection points: 2
#     Edge 18, Type (0, 1), BuildingBlock: KIFKEQ_clean_linker_1, # of connection points: 2
#     Edge 19, Type (0, 1), BuildingBlock: KIFKEQ_clean_linker_1, # of connection points: 2
#     Edge 20, Type (0, 1), BuildingBlock: KIFKEQ_clean_linker_1, # of connection points: 2
#     Edge 21, Type (0, 1), BuildingBlock: KIFKEQ_clean_linker_1, # of connection points: 2
#     Edge 22, Type (0, 1), BuildingBlock: KIFKEQ_clean_linker_1, # of connection points: 2
#     Edge 23, Type (0, 1), BuildingBlock: KIFKEQ_clean_linker_1, # of connection points: 2
#     Edge 24, Type (0, 1), BuildingBlock: KIFKEQ_clean_linker_1, # of connection points: 2
#     Edge 25, Type (0, 1), BuildingBlock: KIFKEQ_clean_linker_1, # of connection points: 2
#     Edge 26, Type (0, 1), BuildingBlock: KIFKEQ_clean_linker_1, # of connection points: 2
# Relax obj value: 0.220
# Max RMSD: 0.178
# Mean RMSD: 0.148
data_MOF--net-anh--node1-BETDIP_clean_sbu_0--node2-WUSLED_clean_sbu_0--edge1-KIFKEQ_clean_linker_1
_symmetry_space_group_name_H-M    P1
_symmetry_Int_Tables_number       1
_symmetry_cell_setting            triclinic
loop_
_symmetry_equiv_pos_as_xyz
'x, y, z'
_cell_length_a     40.435694
_cell_length_b     40.506554
_cell_length_c     70.258471
_cell_angle_alpha  90.181939
_cell_angle_beta   90.337188
_cell_angle_gamma 120.08787
loop_
_atom_site_label
_atom_site_type_symbol
_atom_site_fract_x
_atom_site_fract_y
_atom_site_fract_z
_atom_type_partial_charge
Tb0 Tb 0.11379 0.62148 0.17839 0.0
Tb1 Tb 0.08012 0.54066 0.17868 0.0
C2 C 0.15867 0.68973 0.18379 0.0
C3 C 0.19966 0.70631 0.18071 0.0
C4 C 0.22228 0.70013 0.19388 0.0
C5 C 0.26066 0.71369 0.19022 0.0
C6 C 0.27696 0.73433 0.17357 0.0
C7 C 0.25339 0.73638 0.15946 0.0
C8 C 0.21515 0.72301 0.16312 0.0
C9 C 0.09387 0.59027 0.14497 0.0
C10 C 0.17018 0.58432 0.17611 0.0
C11 C 1.04859 0.47665 0.16387 0.0
C12 C 1.00786 0.45255 0.16187 0.0
C13 C 0.99248 0.44142 0.14351 0.0
C14 C 0.95341 0.4244 0.14071 0.0
C15 C 0.92982 0.41847 0.15628 0.0
C16 C 0.94522 0.43152 0.17446 0.0
C17 C 0.98422 0.44856 0.17727 0.0
C18 C 0.08442 0.55912 0.21521 0.0
C19 C 1.0233 0.57667 0.17735 0.0
O20 O 0.14436 0.66578 0.19797 0.0
O21 O 0.13797 0.67713 0.16829 0.0
O22 O 0.11054 0.58236 0.15785 0.0
O23 O 0.08754 0.61695 0.15071 0.0
O24 O 0.16657 0.61539 0.17442 0.0
O25 O 0.1391 0.55114 0.17929 0.0
O26 O 1.06105 0.50785 0.15403 0.0
O27 O 1.06252 0.48267 0.18125 0.0
O28 O 0.09544 0.58251 0.20142 0.0
O29 O 1.07025 0.52492 0.20844 0.0
O30 O 1.02698 0.54575 0.1755 0.0
O31 O 1.05435 0.61019 0.18089 0.0
H32 H 0.2107 0.68571 0.20722 0.0
H33 H 0.27845 0.71173 0.20125 0.0
H34 H 0.26525 0.75222 0.14647 0.0
H35 H 0.19796 0.72661 0.15234 0.0
H36 H 1.01077 0.44632 0.13137 0.0
H37 H 0.94134 0.4138 0.12669 0.0
H38 H 0.92692 0.42614 0.18666 0.0
H39 H 0.99574 0.45868 0.19143 0.0
Tb40 Tb 0.64519 0.0584 0.51323 0.0
Tb41 Tb 0.59926 0.08987 0.513 0.0
C42 C 0.66651 1.0129 0.52014 0.0
C43 C 0.64152 0.97273 0.51513 0.0
C44 C 0.61506 0.94779 0.52845 0.0
C45 C 0.5903 0.90994 0.5235 0.0
C46 C 0.59417 0.89656 0.50575 0.0
C47 C 0.61383 0.92264 0.49128 0.0
C48 C 0.63886 0.96046 0.49612 0.0
C49 C 0.63493 0.07565 0.47886 0.0
C50 C 0.55164 1.001 0.50849 0.0
C51 C 0.56909 0.12911 0.5061 0.0
C52 C 0.58709 0.1694 0.5012 0.0
C53 C 0.60508 0.18271 0.48352 0.0
C54 C 0.62711 0.2217 0.48028 0.0
C55 C 0.63166 0.24753 0.49471 0.0
C56 C 0.61282 0.23421 0.51212 0.0
C57 C 0.59051 0.19543 0.51529 0.0
C58 C 0.60826 0.06976 0.5477 0.0
C59 C 0.69244 0.14677 0.51063 0.0
O60 O 0.65347 1.02567 0.53361 0.0
O61 O 0.68014 1.03612 0.5057 0.0
O62 O 0.60968 0.06013 0.49134 0.0
O63 O 0.6673 0.08089 0.48518 0.0
O64 O 0.58624 1.00459 0.51059 0.0
O65 O 0.54975 1.03256 0.50829 0.0
O66 O 0.57192 0.10702 0.49341 0.0
O67 O 0.57641 0.12243 0.52336 0.0
O68 O 0.63449 0.08752 0.53566 0.0
O69 O 0.57599 0.06231 0.5402 0.0
O70 O 0.6576 0.14201 0.50752 0.0
O71 O 0.69463 0.11655 0.51583 0.0
H72 H 0.61453 0.95704 0.54287 0.0
H73 H 0.57391 0.89005 0.53464 0.0
H74 H 0.61604 0.91262 0.47728 0.0
H75 H 0.65712 0.97949 0.48515 0.0
H76 H 0.60305 0.16319 0.4724 0.0
H77 H 0.64115 0.23168 0.4667 0.0
H78 H 0.61521 0.25385 0.52327 0.0
H79 H 0.57693 0.18577 0.529 0.0
Tb80 Tb 0.54975 0.52494 0.84591 0.0
Tb81 Tb 0.62821 0.5725 0.84591 0.0
C82 C 0.48134 0.49888 0.85269 0.0
C83 C 0.46045 0.51787 0.84694 0.0
C84 C 0.44247 0.52784 0.86084 0.0
C85 C 0.42763 0.55114 0.85618 0.0
C86 C 0.43067 0.56492 0.8375 0.0
C87 C 0.4497 0.55578 0.82372 0.0
C88 C 0.46456 0.53248 0.82839 0.0
C89 C 0.57829 0.53557 0.81173 0.0
C90 C 0.58463 0.61819 0.84189 0.0
C91 C 0.69753 0.60578 0.83839 0.0
C92 C 0.72067 0.58978 0.83199 0.0
C93 C 0.71413 0.57168 0.81406 0.0
C94 C 0.72977 0.54874 0.81006 0.0
C95 C 0.75124 0.54352 0.82407 0.0
C96 C 0.75963 0.56335 0.84144 0.0
C97 C 0.74472 0.58666 0.8453 0.0
C98 C 0.59912 0.56196 0.88083 0.0
C99 C 0.59362 0.47997 0.84331 0.0
O100 O 0.50801 0.51791 0.86548 0.0
O101 O 0.49293 0.48575 0.83878 0.0
O102 O 0.58708 0.56058 0.82441 0.0
O103 O 0.55098 0.50314 0.81757 0.0
O104 O 0.55375 0.58336 0.84365 0.0
O105 O 0.61842 0.62071 0.84195 0.0
O106 O 0.67155 0.60306 0.82635 0.0
O107 O 0.68431 0.59595 0.85565 0.0
O108 O 0.59047 0.53658 0.86813 0.0
O109 O 0.62556 0.594 0.87411 0.0
O110 O 0.62275 0.51475 0.8392 0.0
O111 O 0.56172 0.47769 0.84962 0.0
H112 H 0.44035 0.51797 0.87534 0.0
H113 H 0.41239 0.55699 0.86707 0.0
H114 H 0.45245 0.56608 0.80927 0.0
H115 H 0.4798 0.52649 0.81754 0.0
H116 H 0.69569 0.5738 0.80349 0.0
H117 H 0.72424 0.53428 0.79643 0.0
H118 H 0.77739 0.56038 0.85214 0.0
H119 H 0.75016 0.60044 0.85914 0.0
C120 C 0.61785 0.14963 0.2104 0.0
C121 C 0.64499 0.17737 0.22271 0.0
C122 C 0.68479 0.20826 0.19573 0.0
C123 C 0.67852 0.20676 0.21536 0.0
C124 C 0.65752 0.18046 0.18347 0.0
C125 C 0.62399 0.15108 0.19083 0.0
U126 U 0.56612 0.09228 0.25277 0.0
O127 O 0.50466 0.05739 0.25846 0.0
O128 O 0.54016 1.03037 0.25635 0.0
C129 C 0.50572 1.02596 0.25502 0.0
C130 C 0.58504 0.11702 0.21818 0.0
C131 C 0.48571 1.00601 0.23765 0.0
C132 C 0.47968 1.00943 0.20334 0.0
C133 C 0.49292 1.02742 0.22085 0.0
C134 C 0.45119 0.94818 0.21924 0.0
C135 C 0.45904 0.96982 0.20252 0.0
C136 C 0.4648 0.96627 0.23679 0.0
C137 C 0.60519 0.12171 0.30189 0.0
C138 C 0.57236 0.07757 0.32751 0.0
C139 C 0.63328 0.13523 0.33332 0.0
C140 C 0.63462 0.14557 0.31436 0.0
C141 C 0.60239 0.101 0.33993 0.0
C142 C 0.57388 0.08779 0.30848 0.0
C143 C 0.60834 0.13086 0.28178 0.0
O144 O 0.59332 0.09262 0.22596 0.0
O145 O 0.56297 0.12488 0.22864 0.0
O146 O 0.58087 0.13591 0.2749 0.0
O147 O 0.6161 0.10893 0.2711 0.0
H148 H 0.64046 0.17581 0.23795 0.0
H149 H 0.69943 0.22825 0.22491 0.0
H150 H 0.66248 0.18121 0.16829 0.0
H151 H 0.60331 0.12916 0.18138 0.0
H152 H 0.48569 1.02626 0.19052 0.0
H153 H 0.5094 0.05815 0.22121 0.0
H154 H 0.43475 0.91728 0.21863 0.0
H155 H 0.45976 0.9494 0.24951 0.0
H156 H 0.54844 0.05101 0.3324 0.0
H157 H 0.65648 0.15381 0.34283 0.0
H158 H 0.6589 0.17175 0.30936 0.0
H159 H 0.5511 0.06899 0.29882 0.0
C160 C 0.62575 0.61708 0.54135 0.0
C161 C 0.62217 0.6429 0.55315 0.0
C162 C 0.64404 0.68819 0.52745 0.0
C163 C 0.63101 0.67822 0.54619 0.0
C164 C 0.64793 0.66233 0.5157 0.0
C165 C 0.63877 0.62671 0.52268 0.0
U166 U 0.61039 0.55586 0.58385 0.0
O167 O 0.5778 0.49337 0.58644 0.0
O168 O 0.64015 0.52484 0.59109 0.0
C169 C 0.60969 0.49203 0.58684 0.0
C170 C 0.61907 0.58147 0.54916 0.0
C171 C 0.61575 0.47398 0.5703 0.0
C172 C 0.62494 0.47611 0.53609 0.0
C173 C 0.61116 0.48551 0.55206 0.0
C174 C 0.64733 0.44278 0.55637 0.0
C175 C 0.64368 0.45528 0.53823 0.0
C176 C 0.63356 0.45227 0.57238 0.0
C177 C 0.61182 0.5887 0.63354 0.0
C178 C 0.61936 0.55239 0.65885 0.0
C179 C 0.61486 0.60853 0.66631 0.0
C180 C 0.61126 0.61395 0.64696 0.0
C181 C 0.61906 0.57777 0.67242 0.0
C182 C 0.61577 0.55784 0.63954 0.0
C183 C 0.6107 0.5956 0.61322 0.0
O184 O 0.64752 0.58522 0.55981 0.0
O185 O 0.58526 0.56039 0.55687 0.0
O186 O 0.57902 0.57115 0.60424 0.0
O187 O 0.6419 0.60251 0.60423 0.0
H188 H 0.61258 0.6357 0.56771 0.0
H189 H 0.62672 0.6973 0.55536 0.0
H190 H 0.6578 0.66961 0.5012 0.0
H191 H 0.6421 0.60687 0.51364 0.0
H192 H 0.62165 0.48564 0.52218 0.0
H193 H 0.59814 0.50298 0.55022 0.0
H194 H 0.66097 0.42578 0.55813 0.0
H195 H 0.63801 0.44392 0.58636 0.0
H196 H 0.62277 0.5286 0.66317 0.0
H197 H 0.61388 0.62811 0.67652 0.0
H198 H 0.60832 0.63792 0.64248 0.0
H199 H 0.61656 0.53826 0.62924 0.0
C200 C 1.01506 0.50249 0.87738 0.0
C201 C 0.98942 0.50292 0.89058 0.0
C202 C 0.95631 0.51325 0.86492 0.0
C203 C 0.95981 0.50808 0.88432 0.0
C204 C 0.98237 0.5136 0.85178 0.0
C205 C 1.01182 0.5081 0.85804 0.0
U206 U 1.07187 0.50134 0.9186 0.0
O207 O 0.13369 0.53215 0.92386 0.0
O208 O 0.1022 0.46935 0.92252 0.0
C209 C 0.13539 0.50094 0.92096 0.0
C210 C 1.0471 0.49964 0.88417 0.0
C211 C 0.15666 0.50279 0.9039 0.0
C212 C 0.17257 0.52461 0.8714 0.0
C213 C 0.15062 0.51866 0.8874 0.0
C214 C 0.20485 0.49556 0.88744 0.0
C215 C 0.20087 0.51461 0.87166 0.0
C216 C 0.18268 0.48966 0.90364 0.0
C217 C 1.04675 0.51608 0.96768 0.0
C218 C 0.09038 0.52478 0.99354 0.0
C219 C 1.03633 0.53416 0.99883 0.0
C220 C 1.02524 0.52512 0.97987 0.0
C221 C 1.06893 0.53406 1.00575 0.0
C222 C 0.07948 0.5161 0.97449 0.0
C223 C 1.03673 0.50954 0.9476 0.0
O224 O 0.07313 0.53112 0.8925 0.0
O225 O 1.03801 0.46848 0.89381 0.0
O226 O 1.02859 0.47582 0.94095 0.0
O227 O 1.06006 0.53808 0.93678 0.0
H228 H 0.99239 0.49925 0.90566 0.0
H229 H 0.93936 0.50742 0.89444 0.0
H230 H 0.97915 0.51693 0.8367 0.0
H231 H 1.03195 0.50823 0.84787 0.0
H232 H 0.16934 0.53945 0.85935 0.0
H233 H 0.13047 0.52863 0.88717 0.0
H234 H 0.22695 0.48789 0.88777 0.0
H235 H 0.187 0.47659 0.91611 0.0
H236 H 0.11577 0.5249 0.99866 0.0
H237 H 1.01936 0.54106 0.00815 0.0
H238 H 1.00022 0.52563 0.97466 0.0
H239 H 0.09671 0.50984 0.96501 0.0
C240 C 1.02175 0.4798 0.47986 0.0
C241 C 0.98973 0.46765 0.46758 0.0
C242 C 0.94938 0.40767 0.48597 0.0
C243 C 0.9546 0.43255 0.47053 0.0
C244 C 0.98165 0.42029 0.49819 0.0
C245 C 1.01655 0.45512 0.49521 0.0
U246 U 0.11703 0.57925 0.46081 0.0
O247 O 0.14465 0.63496 0.47674 0.0
O248 O 0.17583 0.60461 0.47325 0.0
C249 C 0.17697 0.63547 0.48004 0.0
C250 C 1.0596 0.5184 0.47836 0.0
C251 C 0.21525 0.67372 0.48094 0.0
C252 C 0.26088 0.73057 0.50008 0.0
C253 C 0.225 0.69646 0.49764 0.0
C254 C 0.27984 0.72147 0.46912 0.0
C255 C 0.28962 0.74426 0.48596 0.0
C256 C 0.24365 0.68711 0.46668 0.0
C257 C 0.11243 0.58482 0.40228 0.0
C258 C 0.13728 0.61398 0.37123 0.0
C259 C 0.07798 0.55406 0.37279 0.0
C260 C 0.08118 0.55458 0.39283 0.0
C261 C 0.10617 0.58362 0.36149 0.0
C262 C 0.14023 0.61457 0.39124 0.0
C263 C 0.11715 0.58592 0.42346 0.0
O264 O 0.09128 0.52002 0.47258 0.0
O265 O 1.05946 0.5501 0.47447 0.0
O266 O 0.10065 0.59911 0.43483 0.0
O267 O 0.13185 0.56748 0.43215 0.0
H268 H 0.99169 0.48536 0.45564 0.0
H269 H 0.9315 0.42485 0.46045 0.0
H270 H 0.97996 0.40362 0.51052 0.0
H271 H 1.03969 0.46314 0.50534 0.0
H272 H 0.2663 0.7458 0.51346 0.0
H273 H 0.20478 0.68739 0.50921 0.0
H274 H 0.30014 0.73027 0.45762 0.0
H275 H 0.23807 0.67089 0.4536 0.0
H276 H 0.16007 0.63713 0.36345 0.0
H277 H 1.05303 0.53042 0.36624 0.0
H278 H 1.05918 0.53129 0.40094 0.0
H279 H 0.16471 0.63828 0.39812 0.0
C280 C 0.58982 0.95169 0.81293 0.0
C281 C 0.5734 0.92197 0.79913 0.0
C282 C 0.58698 0.87803 0.81841 0.0
C283 C 0.57193 0.88611 0.80183 0.0
C284 C 0.60356 0.908 0.83204 0.0
C285 C 0.60471 0.94348 0.82942 0.0
U286 U 0.59219 0.04933 0.79297 0.0
O287 O 0.55984 0.07617 0.80502 0.0
O288 O 0.62184 0.10693 0.80703 0.0
C289 C 0.5904 0.10757 0.81096 0.0
C290 C 0.58964 0.98988 0.81176 0.0
C291 C 0.59059 0.14592 0.81268 0.0
C292 C 0.58597 0.19337 0.8336 0.0
C293 C 0.58524 0.15811 0.83071 0.0
C294 C 0.59715 0.20671 0.80034 0.0
C295 C 0.59187 0.2192 0.81857 0.0
C296 C 0.59664 0.17125 0.7975 0.0
C297 C 0.60013 0.05214 0.7343 0.0
C298 C 0.60495 0.08478 0.70424 0.0
C299 C 0.60442 1.02494 0.70384 0.0
C300 C 0.60128 1.02314 0.72383 0.0
C301 C 0.60631 0.0558 0.69355 0.0
C302 C 0.602 0.08299 0.72427 0.0
C303 C 0.59724 0.04997 0.75555 0.0
O304 O 0.62126 1.02212 0.80827 0.0
O305 O 0.55946 0.99068 0.80527 0.0
O306 O 0.56431 1.03445 0.7644 0.0
O307 O 0.62746 0.06574 0.76679 0.0
H308 H 0.56134 0.92626 0.78621 0.0
H309 H 0.55917 0.86466 0.79072 0.0
H310 H 0.61511 0.90378 0.84515 0.0
H311 H 0.61699 0.96468 0.84068 0.0
H312 H 0.58233 0.20021 0.84801 0.0
H313 H 0.58071 0.14018 0.84296 0.0
H314 H 0.6015 0.22414 0.78797 0.0
H315 H 0.601 0.16372 0.78331 0.0
H316 H 0.6056 0.10877 0.69716 0.0
H317 H 0.60599 1.00222 0.69654 0.0
H318 H 0.59998 0.99901 0.73114 0.0
H319 H 0.60106 0.10575 0.73193 0.0
C320 C 0.68657 0.56762 0.14672 0.0
C321 C 0.70971 0.56884 0.13136 0.0
C322 C 0.75964 0.56867 0.15286 0.0
C323 C 0.74518 0.56937 0.13435 0.0
C324 C 0.7361 0.56751 0.16808 0.0
C325 C 0.70089 0.56699 0.16508 0.0
U326 U 0.58796 0.56525 0.12658 0.0
O327 O 0.53155 0.53639 0.14154 0.0
O328 O 0.56251 0.59814 0.13929 0.0
C329 C 0.53134 0.56807 0.14546 0.0
C330 C 0.64826 0.5675 0.14472 0.0
C331 C 0.49323 0.56837 0.14671 0.0
C332 C 0.44004 0.56236 0.16693 0.0
C333 C 0.47401 0.56053 0.16432 0.0
C334 C 0.4418 0.57959 0.13421 0.0
C335 C 0.42256 0.57199 0.15202 0.0
C336 C 0.4762 0.57797 0.13164 0.0
C337 C 0.58393 0.55762 0.06786 0.0
C338 C 0.55715 0.55787 0.03648 0.0
C339 C 0.61313 0.55124 0.03861 0.0
C340 C 0.61225 0.55312 0.05869 0.0
C341 C 0.58559 0.55363 0.02708 0.0
C342 C 0.55643 0.5599 0.05648 0.0
C343 C 0.58252 0.56049 0.08908 0.0
O344 O 0.64739 0.59779 0.13869 0.0
O345 O 0.61612 0.53594 0.14067 0.0
O346 O 0.56901 0.5303 0.10006 0.0
O347 O 0.60042 0.59327 0.09825 0.0
H348 H 0.70042 0.56936 0.11694 0.0
H349 H 0.76104 0.56984 0.12192 0.0
H350 H 0.74502 0.56764 0.18263 0.0
H351 H 0.68468 0.5663 0.17744 0.0
H352 H 0.42808 0.55687 0.18106 0.0
H353 H 0.4858 0.55342 0.17647 0.0
H354 H 0.43026 0.58669 0.12199 0.0
H355 H 0.48952 0.58442 0.11779 0.0
H356 H 0.53569 0.5604 0.02836 0.0
H357 H 0.63527 0.5475 0.03214 0.0
H358 H 0.63381 0.55118 0.06704 0.0
H359 H 0.53429 0.56349 0.06311 0.0
H360 H 0.23832 0.6385 0.15803 0.0
H361 H 0.19006 0.53066 0.18669 0.0
H362 H 0.29693 0.636 0.15207 0.0
H363 H 0.24782 0.52784 0.1808 0.0
H364 H 0.36592 0.53844 0.18039 0.0
H365 H 0.30978 0.54361 0.18629 0.0
H366 H 0.33397 0.61415 0.13672 0.0
H367 H 0.39166 0.61056 0.13125 0.0
C368 C 0.24005 0.6143 0.16327 0.0
C369 C 0.20849 0.58498 0.17309 0.0
C370 C 0.27404 0.61257 0.15965 0.0
C371 C 0.27872 0.58167 0.16586 0.0
C372 C 0.24705 0.55268 0.17582 0.0
C373 C 0.2131 0.55419 0.17919 0.0
C374 C 0.36023 0.55568 0.17068 0.0
C375 C 0.38535 0.57425 0.15525 0.0
C376 C 0.32676 0.55821 0.17401 0.0
C377 C 0.31567 0.57937 0.16212 0.0
C378 C 0.34055 0.59781 0.14662 0.0
C379 C 0.37416 0.59529 0.14328 0.0
H380 H 0.76834 0.1636 0.51075 0.0
H381 H 0.70275 0.21942 0.50237 0.0
H382 H 0.82706 0.2232 0.5047 0.0
H383 H 0.76173 0.2799 0.49696 0.0
H384 H 0.87303 0.38569 0.47621 0.0
H385 H 0.81384 0.32594 0.4817 0.0
H386 H 0.8777 0.2813 0.51022 0.0
H387 H 0.93665 0.34021 0.504 0.0
C388 C 0.76617 0.18868 0.50782 0.0
C389 C 0.7296 0.1855 0.50728 0.0
C390 C 0.80063 0.22377 0.50438 0.0
C391 C 0.80105 0.25835 0.50026 0.0
C392 C 0.76424 0.25502 0.49974 0.0
C393 C 0.72967 0.21972 0.50305 0.0
C394 C 0.87491 0.36317 0.48348 0.0
C395 C 0.91122 0.36938 0.48947 0.0
C396 C 0.8401 0.32822 0.48693 0.0
C397 C 0.8391 0.29687 0.49657 0.0
C398 C 0.87553 0.30323 0.50255 0.0
C399 C 0.91024 0.33814 0.49913 0.0
H400 H 0.64424 0.69231 0.83758 0.0
H401 H 0.52132 0.63029 0.83861 0.0
H402 H 0.64422 0.75129 0.83189 0.0
H403 H 0.521 0.69014 0.83329 0.0
H404 H 0.52838 0.8026 0.81068 0.0
H405 H 0.52636 0.7419 0.81637 0.0
H406 H 0.64057 0.80343 0.8398 0.0
H407 H 0.64237 0.86354 0.83394 0.0
C408 C 0.61684 0.69095 0.83676 0.0
C409 C 0.58279 0.65524 0.83875 0.0
C410 C 0.61681 0.72566 0.83356 0.0
C411 C 0.58266 0.72737 0.83211 0.0
C412 C 0.54837 0.69147 0.83404 0.0
C413 C 0.54843 0.65648 0.83727 0.0
C414 C 0.55333 0.8034 0.81691 0.0
C415 C 0.58564 0.83925 0.82166 0.0
C416 C 0.55207 0.76793 0.82042 0.0
C417 C 0.58331 0.76597 0.82861 0.0
C418 C 0.61564 0.80204 0.83326 0.0
C419 C 0.61665 0.83734 0.83001 0.0
H420 H 1.00699 0.62538 0.15666 0.0
H421 H 0.94936 0.52326 0.18994 0.0
H422 H 0.94609 0.62311 0.15072 0.0
H423 H 0.88823 0.52138 0.18453 0.0
H424 H 0.7847 0.54286 0.18428 0.0
H425 H 0.84515 0.54476 0.19003 0.0
H426 H 0.8855 0.59679 0.13538 0.0
H427 H 0.82537 0.59583 0.12976 0.0
C428 C 0.9814 0.6024 0.16292 0.0
C429 C 0.98426 0.57465 0.17396 0.0
C430 C 0.94578 0.60089 0.15935 0.0
C431 C 0.91066 0.57206 0.16702 0.0
C432 C 0.91369 0.54447 0.17827 0.0
C433 C 0.94926 0.54538 0.18138 0.0
C434 C 0.80619 0.55515 0.17335 0.0
C435 C 0.79837 0.56926 0.15638 0.0
C436 C 0.84152 0.55582 0.17666 0.0
C437 C 0.8718 0.57093 0.16332 0.0
C438 C 0.8641 0.58512 0.14638 0.0
C439 C 0.82863 0.58416 0.143 0.0
H440 H 0.47672 0.98513 0.5095 0.0
H441 H 0.54003 0.92737 0.50005 0.0
H442 H 0.4171 0.92604 0.50397 0.0
H443 H 0.47972 0.86706 0.49485 0.0
H444 H 0.36323 0.76492 0.47242 0.0
H445 H 0.42458 0.82352 0.47771 0.0
H446 H 0.36825 0.86808 0.5125 0.0
H447 H 0.30738 0.81047 0.50675 0.0
C448 C 0.47822 0.95973 0.50638 0.0
C449 C 0.51437 0.96216 0.50549 0.0
C450 C 0.44325 0.92497 0.50328 0.0
C451 C 0.44185 0.89004 0.49897 0.0
C452 C 0.47821 0.89244 0.49796 0.0
C453 C 0.51342 0.92747 0.50118 0.0
C454 C 0.36357 0.78724 0.48107 0.0
C455 C 0.32888 0.78159 0.48902 0.0
C456 C 0.3995 0.82134 0.48435 0.0
C457 C 0.40302 0.85221 0.49561 0.0
C458 C 0.36822 0.84638 0.50349 0.0
C459 C 0.33251 0.81232 0.50034 0.0
H460 H 0.63961 0.465 0.81867 0.0
H461 H 0.55072 0.40833 0.85992 0.0
H462 H 0.63952 0.40519 0.8127 0.0
H463 H 0.55042 0.34876 0.85414 0.0
H464 H 0.56831 0.24571 0.85048 0.0
H465 H 0.57087 0.30571 0.85628 0.0
H466 H 0.61759 0.34422 0.80049 0.0
H467 H 0.61688 0.28455 0.79491 0.0
C468 C 0.62014 0.43999 0.82669 0.0
C469 C 0.59537 0.44279 0.84 0.0
C470 C 0.61975 0.40487 0.8231 0.0
C471 C 0.59498 0.37032 0.83279 0.0
C472 C 0.57056 0.37356 0.84625 0.0
C473 C 0.57054 0.40842 0.84959 0.0
C474 C 0.57975 0.26654 0.83925 0.0
C475 C 0.5926 0.25811 0.82204 0.0
C476 C 0.5807 0.30188 0.84262 0.0
C477 C 0.59437 0.33169 0.82902 0.0
C478 C 0.60712 0.3234 0.81177 0.0
C479 C 0.60627 0.28799 0.8084 0.0
H480 H 0.54942 0.82107 0.49584 0.0
H481 H 0.65993 0.90592 0.51793 0.0
H482 H 0.56918 0.77283 0.49807 0.0
H483 H 0.68075 0.85974 0.51866 0.0
H484 H 0.67982 0.75725 0.54481 0.0
H485 H 0.66857 0.80905 0.53781 0.0
H486 H 0.61106 0.75283 0.48523 0.0
H487 H 0.6189 0.69882 0.4934 0.0
C488 C 0.5778 0.82911 0.50099 0.0
C489 C 0.60315 0.86635 0.50689 0.0
C490 C 0.58941 0.80208 0.50198 0.0
C491 C 0.62657 0.81282 0.50849 0.0
C492 C 0.65184 0.85053 0.51391 0.0
C493 C 0.64 0.87688 0.51344 0.0
C494 C 0.66538 0.75636 0.53161 0.0
C495 C 0.64929 0.72392 0.51988 0.0
C496 C 0.65919 0.78612 0.52748 0.0
C497 C 0.63825 0.78442 0.51111 0.0
C498 C 0.62629 0.75407 0.4982 0.0
C499 C 0.63151 0.72367 0.50265 0.0
H500 H 0.80634 0.5567 0.7991 0.0
H501 H 0.73563 0.48014 0.84305 0.0
H502 H 0.85641 0.5421 0.8067 0.0
H503 H 0.7861 0.46747 0.85171 0.0
H504 H 0.88616 0.45287 0.86414 0.0
H505 H 0.83064 0.4478 0.8477 0.0
H506 H 0.896 0.56821 0.83425 0.0
H507 H 0.95218 0.57204 0.84959 0.0
C508 C 0.80076 0.53496 0.80957 0.0
C509 C 0.768 0.5198 0.82077 0.0
C510 C 0.82962 0.52736 0.81428 0.0
C511 C 0.82557 0.50493 0.83026 0.0
C512 C 0.79009 0.4849 0.83933 0.0
C513 C 0.761 0.49182 0.8343 0.0
C514 C 0.88817 0.47807 0.85769 0.0
C515 C 0.92257 0.51275 0.85789 0.0
C516 C 0.85673 0.47522 0.84825 0.0
C517 C 0.85934 0.50732 0.83931 0.0
C518 C 0.89367 0.54261 0.84035 0.0
C519 C 0.92542 0.54515 0.8494 0.0
H520 H 0.31037 0.7841 0.20217 0.0
H521 H 0.33086 0.75619 0.14557 0.0
H522 H 0.35939 0.84956 0.19778 0.0
H523 H 0.38114 0.82317 0.14127 0.0
H524 H 0.48901 0.93717 0.18034 0.0
H525 H 0.44804 0.87685 0.16396 0.0
H526 H 0.35266 0.8959 0.16931 0.0
H527 H 0.39354 0.95599 0.18577 0.0
C528 C 0.32673 0.79147 0.18914 0.0
C529 C 0.31665 0.76529 0.17406 0.0
C530 C 0.35395 0.8292 0.18643 0.0
C531 C 0.37199 0.8411 0.16878 0.0
C532 C 0.36615 0.81428 0.15466 0.0
C533 C 0.3383 0.77617 0.15729 0.0
C534 C 0.46001 0.92972 0.17667 0.0
C535 C 0.4437 0.95001 0.18455 0.0
C536 C 0.4367 0.89541 0.16723 0.0
C537 C 0.39743 0.88181 0.16606 0.0
C538 C 0.38309 0.90621 0.17022 0.0
C539 C 0.40635 0.94043 0.17968 0.0
H540 H 0.62551 0.28682 0.46505 0.0
H541 H 0.6866 0.30006 0.51769 0.0
H542 H 0.64615 0.35468 0.46554 0.0
H543 H 0.7056 0.36675 0.51887 0.0
H544 H 0.71536 0.46862 0.5316 0.0
H545 H 0.73124 0.43136 0.51005 0.0
H546 H 0.6161 0.37685 0.48706 0.0
H547 H 0.60142 0.41553 0.50778 0.0
C548 C 0.64477 0.3047 0.47625 0.0
C549 C 0.6539 0.28862 0.49158 0.0
C550 C 0.65643 0.3434 0.47659 0.0
C551 C 0.67677 0.36596 0.4924 0.0
C552 C 0.69021 0.35054 0.50635 0.0
C553 C 0.67892 0.31212 0.50588 0.0
C554 C 0.69428 0.44996 0.52121 0.0
C555 C 0.65696 0.44374 0.52155 0.0
C556 C 0.7033 0.42876 0.50888 0.0
C557 C 0.67458 0.40021 0.49739 0.0
C558 C 0.639 0.39846 0.49574 0.0
C559 C 0.63031 0.42033 0.50776 0.0
H560 H 0.42181 0.61836 0.85692 0.0
H561 H 0.38648 0.54929 0.80572 0.0
H562 H 0.36153 0.61733 0.85723 0.0
H563 H 0.32731 0.55061 0.80522 0.0
H564 H 0.22361 0.4783 0.84695 0.0
H565 H 0.28288 0.50805 0.82902 0.0
H566 H 0.30556 0.61955 0.84765 0.0
H567 H 0.24655 0.58938 0.86577 0.0
C568 C 0.40212 0.605 0.84509 0.0
C569 C 0.40766 0.58216 0.83194 0.0
C570 C 0.36762 0.60468 0.84512 0.0
C571 C 0.33914 0.58241 0.83162 0.0
C572 C 0.34848 0.56696 0.81608 0.0
C573 C 0.38263 0.56656 0.81629 0.0
C574 C 0.24086 0.50914 0.84663 0.0
C575 C 0.23123 0.53173 0.85766 0.0
C576 C 0.27446 0.52635 0.8362 0.0
C577 C 0.29885 0.56629 0.83695 0.0
C578 C 0.28727 0.58885 0.84679 0.0
C579 C 0.25364 0.57163 0.85711 0.0
H580 H 0.86679 0.42476 0.16143 0.0
H581 H 0.90715 0.34578 0.1509 0.0
H582 H 0.80353 0.37098 0.16931 0.0
H583 H 0.84482 0.29259 0.15917 0.0
H584 H 0.75702 0.23169 0.20756 0.0
H585 H 0.81559 0.28384 0.19415 0.0
H586 H 0.74864 0.30514 0.15303 0.0
H587 H 0.69004 0.25341 0.16655 0.0
C588 C 0.86136 0.3958 0.16002 0.0
C589 C 0.89061 0.38858 0.15517 0.0
C590 C 0.82579 0.36543 0.16463 0.0
C591 C 0.82026 0.3284 0.16479 0.0
C592 C 0.849 0.32119 0.15897 0.0
C593 C 0.8841 0.35129 0.15401 0.0
C594 C 0.75505 0.24774 0.19573 0.0
C595 C 0.71963 0.23906 0.18792 0.0
C596 C 0.78818 0.27704 0.18804 0.0
C597 C 0.78575 0.29764 0.17264 0.0
C598 C 0.75047 0.28918 0.16495 0.0
C599 C 0.71738 0.25979 0.17255 0.0
H600 H 0.12716 0.55391 0.12743 0.0
H601 H 1.05111 0.5982 0.1178 0.0
H602 H 0.12565 0.54039 0.09328 0.0
H603 H 1.04861 0.58379 0.08403 0.0
H604 H 0.08479 0.59902 0.02411 0.0
H605 H 0.09341 0.61119 0.05827 0.0
H606 H 0.08449 0.50129 0.06669 0.0
H607 H 0.07726 0.48993 0.03222 0.0
C608 C 0.10976 0.56023 0.11802 0.0
C609 C 0.08975 0.57767 0.12506 0.0
C610 C 0.10886 0.55248 0.09855 0.0
C611 C 0.0878 0.56196 0.08596 0.0
C612 C 1.06614 0.57738 0.0933 0.0
C613 C 1.0673 0.58536 0.11263 0.0
C614 C 0.08531 0.57785 0.0333 0.0
C615 C 0.07992 0.54343 0.0258 0.0
C616 C 0.08993 0.58459 0.05281 0.0
C617 C 0.08855 0.55671 0.06517 0.0
C618 C 0.08557 0.52321 0.0575 0.0
C619 C 0.08141 0.51669 0.03786 0.0
H620 H 0.56668 1.03591 0.4601 0.0
H621 H 0.68558 0.12017 0.45249 0.0
H622 H 0.55545 1.03623 0.42585 0.0
H623 H 0.67425 0.12216 0.4186 0.0
H624 H 0.65752 0.09346 0.35764 0.0
H625 H 0.66221 0.08303 0.3914 0.0
H626 H 0.55247 0.07452 0.40057 0.0
H627 H 0.5473 0.08334 0.36646 0.0
C628 C 0.59022 0.05484 0.45108 0.0
C629 C 0.62706 0.07778 0.45871 0.0
C630 C 0.58382 0.05509 0.43154 0.0
C631 C 0.6141 0.07874 0.41948 0.0
C632 C 0.65058 0.10269 0.4274 0.0
C633 C 0.65706 0.10189 0.44679 0.0
C634 C 0.63428 0.08884 0.36692 0.0
C635 C 0.6024 0.08979 0.35974 0.0
C636 C 0.637 0.08314 0.38621 0.0
C637 C 0.60819 0.07902 0.39872 0.0
C638 C 0.57514 0.07766 0.39129 0.0
C639 C 0.57219 0.08281 0.37185 0.0
H640 H 0.60355 0.60131 0.79206 0.0
H641 H 0.58525 0.48711 0.78763 0.0
H642 H 0.62028 0.61174 0.75854 0.0
H643 H 0.60474 0.49813 0.75435 0.0
H644 H 0.58069 0.51077 0.69152 0.0
H645 H 0.57812 0.50134 0.72565 0.0
H646 H 0.66175 0.62082 0.73383 0.0
H647 H 0.66293 0.63029 0.69954 0.0
C648 C 0.60401 0.57877 0.78392 0.0
C649 C 0.59249 0.54322 0.79216 0.0
C650 C 0.61398 0.58479 0.76474 0.0
C651 C 0.6136 0.55565 0.75357 0.0
C652 C 0.60433 0.52085 0.76231 0.0
C653 C 0.59333 0.51453 0.78136 0.0
C654 C 0.59893 0.53486 0.70061 0.0
C655 C 0.62149 0.57137 0.69295 0.0
C656 C 0.59769 0.52947 0.72024 0.0
C657 C 0.61936 0.56043 0.73264 0.0
C658 C 0.64384 0.59652 0.72479 0.0
C659 C 0.64465 0.60198 0.70516 0.0
H660 H 0.6681 0.11717 0.5719 0.0
H661 H 0.55823 1.01429 0.57096 0.0
H662 H 0.67022 0.11365 0.60677 0.0
H663 H 0.55976 1.01061 0.60546 0.0
H664 H 0.57816 0.99621 0.66728 0.0
H665 H 0.58358 0.99876 0.63291 0.0
H666 H 0.64486 0.12184 0.63546 0.0
H667 H 0.64182 0.11935 0.67006 0.0
C668 C 0.64467 0.09347 0.57912 0.0
C669 C 0.61296 0.06602 0.56861 0.0
C670 C 0.64557 0.09161 0.59921 0.0
C671 C 0.61503 0.06191 0.60935 0.0
C672 C 0.58413 1.0338 0.59853 0.0
C673 C 0.58306 1.03597 0.5786 0.0
C674 C 0.59347 1.02399 0.66071 0.0
C675 C 0.60947 0.05754 0.67195 0.0
C676 C 0.59608 1.02546 0.64071 0.0
C677 C 0.61443 0.06054 0.63097 0.0
C678 C 0.63078 0.09413 0.64217 0.0
C679 C 0.62843 0.09267 0.66222 0.0
H680 H 0.64987 0.56028 0.906 0.0
H681 H 0.53862 0.54956 0.90318 0.0
H682 H 0.64575 0.55532 0.94057 0.0
H683 H 0.53481 0.54685 0.93788 0.0
H684 H 0.5252 0.52064 1.00126 0.0
H685 H 0.52687 0.5191 0.96671 0.0
H686 H 0.65035 0.58342 0.96889 0.0
H687 H 0.64839 0.58368 1.00339 0.0
C688 C 0.62432 0.55661 0.91285 0.0
C689 C 0.59437 0.55478 0.90179 0.0
C690 C 0.62206 0.55436 0.93286 0.0
C691 C 0.59007 0.55111 0.94266 0.0
C692 C 0.55983 0.54874 0.93133 0.0
C693 C 0.56192 0.55039 0.91126 0.0
C694 C 0.55279 0.53458 0.99441 0.0
C695 C 0.58666 0.55225 1.00548 0.0
C696 C 0.55382 0.53383 0.97433 0.0
C697 C 0.58878 0.5511 0.96438 0.0
C698 C 0.62262 0.56883 0.97555 0.0
C699 C 0.62157 0.56917 0.99562 0.0
H700 H 0.08734 0.51309 0.24188 0.0
H701 H 0.09727 0.62361 0.23641 0.0
H702 H 0.09508 0.52122 0.27586 0.0
H703 H 0.10257 0.6312 0.27129 0.0
H704 H 0.13464 0.64371 0.33545 0.0
H705 H 0.13252 0.64082 0.30081 0.0
H706 H 1.06649 0.51779 0.30332 0.0
H707 H 1.0718 0.52058 0.33748 0.0
C708 C 0.09072 0.53919 0.24801 0.0
C709 C 0.09115 0.56741 0.23622 0.0
C710 C 0.09472 0.54375 0.26781 0.0
C711 C 0.09828 0.57641 0.27698 0.0
C712 C 0.09984 0.60545 0.26511 0.0
C713 C 0.09662 0.60114 0.24499 0.0
C714 C 0.12027 0.61589 0.32868 0.0
C715 C 0.10358 0.58236 0.33981 0.0
C716 C 0.11852 0.61427 0.30856 0.0
C717 C 0.0997 0.57905 0.29867 0.0
C718 C 0.08235 0.5457 0.30989 0.0
C719 C 0.08465 0.5473 0.32988 0.0
loop_
_geom_bond_atom_site_label_1
_geom_bond_atom_site_label_2
_geom_bond_distance
_geom_bond_site_symmetry_2
_ccdc_geom_bond_type
Tb0 C2 2.809 . S
Tb0 O20 2.484 . S
Tb0 O21 2.440 . S
Tb0 O22 2.658 . S
Tb0 O23 2.409 . S
Tb0 O24 2.378 . S
Tb0 O28 2.325 . S
Tb0 O31 2.341 1_455 S
Tb1 C11 2.809 . S
Tb1 O22 2.325 1_655 S
Tb1 O25 2.341 1_655 S
Tb1 O26 2.484 . S
Tb1 O27 2.440 . S
Tb1 O28 2.658 1_655 S
Tb1 O29 2.409 1_655 S
Tb1 O30 2.378 . S
C2 Tb0 2.809 . S
C2 C3 1.514 . S
C2 O20 1.248 . S
C2 O21 1.266 . S
C3 C2 1.514 . S
C3 C4 1.359 . S
C3 C8 1.348 . S
C4 C3 1.359 . S
C4 C5 1.380 . S
C4 H32 0.929 . S
C5 C4 1.380 . S
C5 C6 1.347 . S
C5 H33 0.931 . S
C6 C5 1.347 . S
C6 C7 1.369 . S
C7 C6 1.369 . S
C7 C8 1.408 . S
C7 H34 0.930 . S
C8 C3 1.348 . S
C8 C7 1.408 . S
C8 H35 0.930 . S
C9 O22 1.281 . S
C9 O23 1.254 . S
C10 O24 1.236 . S
C10 O25 1.266 . S
C11 Tb1 2.809 . S
C11 C12 1.514 . S
C11 O26 1.248 . S
C11 O27 1.266 . S
C12 C11 1.514 . S
C12 C13 1.359 . S
C12 C17 1.348 . S
C13 C12 1.359 . S
C13 C14 1.380 . S
C13 H36 0.929 . S
C14 C13 1.380 . S
C14 C15 1.347 . S
C14 H37 0.931 . S
C15 C14 1.347 . S
C15 C16 1.369 . S
C16 C15 1.369 . S
C16 C17 1.408 . S
C16 H38 0.930 . S
C17 C12 1.348 . S
C17 C16 1.408 . S
C17 H39 0.930 . S
C18 O28 1.281 . S
C18 O29 1.254 . S
C19 O30 1.236 . S
C19 O31 1.266 . S
O20 Tb0 2.484 . S
O20 C2 1.248 . S
O21 Tb0 2.440 . S
O21 C2 1.266 . S
O22 Tb0 2.658 . S
O22 Tb1 2.325 1_455 S
O22 C9 1.281 . S
O23 Tb0 2.409 . S
O23 C9 1.254 . S
O24 Tb0 2.378 . S
O24 C10 1.236 . S
O25 Tb1 2.341 1_455 S
O25 C10 1.266 . S
O26 Tb1 2.484 . S
O26 C11 1.248 . S
O27 Tb1 2.440 . S
O27 C11 1.266 . S
O28 Tb0 2.325 . S
O28 Tb1 2.658 1_455 S
O28 C18 1.281 . S
O29 Tb1 2.409 1_455 S
O29 C18 1.254 . S
O30 Tb1 2.378 . S
O30 C19 1.236 . S
O31 Tb0 2.341 1_655 S
O31 C19 1.266 . S
H32 C4 0.929 . S
H33 C5 0.931 . S
H34 C7 0.930 . S
H35 C8 0.930 . S
H36 C13 0.929 . S
H37 C14 0.931 . S
H38 C16 0.930 . S
H39 C17 0.930 . S
Tb40 C42 2.802 1_545 S
Tb40 O60 2.479 1_545 S
Tb40 O61 2.434 1_545 S
Tb40 O62 2.664 . S
Tb40 O63 2.410 . S
Tb40 O64 2.377 1_545 S
Tb40 O68 2.328 . S
Tb40 O71 2.347 . S
Tb41 C51 2.809 . S
Tb41 O62 2.325 . S
Tb41 O65 2.341 1_545 S
Tb41 O66 2.484 . S
Tb41 O67 2.440 . S
Tb41 O68 2.658 . S
Tb41 O69 2.409 . S
Tb41 O70 2.378 . S
C42 Tb40 2.802 1_565 S
C42 C43 1.514 . S
C42 O60 1.248 . S
C42 O61 1.266 . S
C43 C42 1.514 . S
C43 C44 1.359 . S
C43 C48 1.348 . S
C44 C43 1.359 . S
C44 C45 1.380 . S
C44 H72 0.929 . S
C45 C44 1.380 . S
C45 C46 1.347 . S
C45 H73 0.931 . S
C46 C45 1.347 . S
C46 C47 1.369 . S
C47 C46 1.369 . S
C47 C48 1.408 . S
C47 H74 0.930 . S
C48 C43 1.348 . S
C48 C47 1.408 . S
C48 H75 0.930 . S
C49 O62 1.281 . S
C49 O63 1.254 . S
C50 O64 1.236 . S
C50 O65 1.266 . S
C51 Tb41 2.809 . S
C51 C52 1.514 . S
C51 O66 1.248 . S
C51 O67 1.266 . S
C52 C51 1.514 . S
C52 C53 1.359 . S
C52 C57 1.348 . S
C53 C52 1.359 . S
C53 C54 1.380 . S
C53 H76 0.929 . S
C54 C53 1.380 . S
C54 C55 1.347 . S
C54 H77 0.931 . S
C55 C54 1.347 . S
C55 C56 1.369 . S
C56 C55 1.369 . S
C56 C57 1.408 . S
C56 H78 0.930 . S
C57 C52 1.348 . S
C57 C56 1.408 . S
C57 H79 0.930 . S
C58 O68 1.281 . S
C58 O69 1.254 . S
C59 O70 1.236 . S
C59 O71 1.266 . S
O60 Tb40 2.479 1_565 S
O60 C42 1.248 . S
O61 Tb40 2.434 1_565 S
O61 C42 1.266 . S
O62 Tb40 2.664 . S
O62 Tb41 2.325 . S
O62 C49 1.281 . S
O63 Tb40 2.410 . S
O63 C49 1.254 . S
O64 Tb40 2.377 1_565 S
O64 C50 1.236 . S
O65 Tb41 2.341 1_565 S
O65 C50 1.266 . S
O66 Tb41 2.484 . S
O66 C51 1.248 . S
O67 Tb41 2.440 . S
O67 C51 1.266 . S
O68 Tb40 2.328 . S
O68 Tb41 2.658 . S
O68 C58 1.281 . S
O69 Tb41 2.409 . S
O69 C58 1.254 . S
O70 Tb41 2.378 . S
O70 C59 1.236 . S
O71 Tb40 2.347 . S
O71 C59 1.266 . S
H72 C44 0.929 . S
H73 C45 0.931 . S
H74 C47 0.930 . S
H75 C48 0.930 . S
H76 C53 0.929 . S
H77 C54 0.931 . S
H78 C56 0.930 . S
H79 C57 0.930 . S
Tb80 C82 2.809 . S
Tb80 O100 2.484 . S
Tb80 O101 2.440 . S
Tb80 O102 2.658 . S
Tb80 O103 2.409 . S
Tb80 O104 2.378 . S
Tb80 O108 2.325 . S
Tb80 O111 2.341 . S
Tb81 C91 2.809 . S
Tb81 O102 2.325 . S
Tb81 O105 2.341 . S
Tb81 O106 2.484 . S
Tb81 O107 2.440 . S
Tb81 O108 2.658 . S
Tb81 O109 2.409 . S
Tb81 O110 2.378 . S
C82 Tb80 2.809 . S
C82 C83 1.514 . S
C82 O100 1.248 . S
C82 O101 1.266 . S
C83 C82 1.514 . S
C83 C84 1.359 . S
C83 C88 1.348 . S
C84 C83 1.359 . S
C84 C85 1.380 . S
C84 H112 0.929 . S
C85 C84 1.380 . S
C85 C86 1.347 . S
C85 H113 0.931 . S
C86 C85 1.347 . S
C86 C87 1.369 . S
C87 C86 1.369 . S
C87 C88 1.408 . S
C87 H114 0.930 . S
C88 C83 1.348 . S
C88 C87 1.408 . S
C88 H115 0.930 . S
C89 O102 1.281 . S
C89 O103 1.254 . S
C90 O104 1.236 . S
C90 O105 1.266 . S
C91 Tb81 2.809 . S
C91 C92 1.514 . S
C91 O106 1.248 . S
C91 O107 1.266 . S
C92 C91 1.514 . S
C92 C93 1.359 . S
C92 C97 1.348 . S
C93 C92 1.359 . S
C93 C94 1.380 . S
C93 H116 0.929 . S
C94 C93 1.380 . S
C94 C95 1.347 . S
C94 H117 0.931 . S
C95 C94 1.347 . S
C95 C96 1.369 . S
C96 C95 1.369 . S
C96 C97 1.408 . S
C96 H118 0.930 . S
C97 C92 1.348 . S
C97 C96 1.408 . S
C97 H119 0.930 . S
C98 O108 1.281 . S
C98 O109 1.254 . S
C99 O110 1.236 . S
C99 O111 1.266 . S
O100 Tb80 2.484 . S
O100 C82 1.248 . S
O101 Tb80 2.440 . S
O101 C82 1.266 . S
O102 Tb80 2.658 . S
O102 Tb81 2.325 . S
O102 C89 1.281 . S
O103 Tb80 2.409 . S
O103 C89 1.254 . S
O104 Tb80 2.378 . S
O104 C90 1.236 . S
O105 Tb81 2.341 . S
O105 C90 1.266 . S
O106 Tb81 2.484 . S
O106 C91 1.248 . S
O107 Tb81 2.440 . S
O107 C91 1.266 . S
O108 Tb80 2.325 . S
O108 Tb81 2.658 . S
O108 C98 1.281 . S
O109 Tb81 2.409 . S
O109 C98 1.254 . S
O110 Tb81 2.378 . S
O110 C99 1.236 . S
O111 Tb80 2.341 . S
O111 C99 1.266 . S
H112 C84 0.929 . S
H113 C85 0.931 . S
H114 C87 0.930 . S
H115 C88 0.930 . S
H116 C93 0.929 . S
H117 C94 0.931 . S
H118 C96 0.930 . S
H119 C97 0.930 . S
C120 C121 1.264 . S
C120 C125 1.479 . S
C120 C130 1.465 . S
C121 C120 1.264 . S
C121 C123 1.339 . S
C121 H148 0.931 . S
C122 C123 1.395 . S
C122 C124 1.320 . S
C123 C121 1.339 . S
C123 C122 1.395 . S
C123 H149 0.929 . S
C124 C122 1.320 . S
C124 C125 1.405 . S
C124 H150 0.930 . S
C125 C120 1.479 . S
C125 C124 1.405 . S
C125 H151 0.931 . S
U126 O127 2.454 . S
U126 O128 2.458 1_545 S
U126 C129 2.984 1_545 S
U126 C130 2.847 . S
U126 C143 2.882 . S
U126 O144 2.441 . S
U126 O145 2.420 . S
U126 O146 2.455 . S
U126 O147 2.449 . S
O127 U126 2.454 . S
O127 C129 1.353 1_545 S
O128 U126 2.458 1_565 S
O128 C129 1.286 . S
C129 U126 2.984 1_565 S
C129 O127 1.353 1_565 S
C129 O128 1.286 . S
C129 C131 1.363 . S
C130 C120 1.465 . S
C130 U126 2.847 . S
C130 O144 1.249 . S
C130 O145 1.202 . S
C131 C129 1.363 . S
C131 C133 1.408 . S
C131 C136 1.342 . S
C132 C133 1.310 . S
C132 C135 1.461 . S
C132 H152 0.932 . S
C133 C131 1.408 . S
C133 C132 1.310 . S
C133 H153 0.930 . S
C134 C135 1.474 . S
C134 C136 1.285 . S
C134 H154 0.929 . S
C135 C132 1.461 . S
C135 C134 1.474 . S
C136 C131 1.342 . S
C136 C134 1.285 . S
C136 H155 0.930 . S
C137 C140 1.424 . S
C137 C142 1.245 . S
C137 C143 1.428 . S
C138 C141 1.260 . S
C138 C142 1.477 . S
C138 H156 0.932 . S
C139 C140 1.384 . S
C139 C141 1.479 . S
C139 H157 0.929 . S
C140 C137 1.424 . S
C140 C139 1.384 . S
C140 H158 0.928 . S
C141 C138 1.260 . S
C141 C139 1.479 . S
C142 C137 1.245 . S
C142 C138 1.477 . S
C142 H159 0.932 . S
C143 U126 2.882 . S
C143 C137 1.428 . S
C143 O146 1.301 . S
C143 O147 1.282 . S
O144 U126 2.441 . S
O144 C130 1.249 . S
O145 U126 2.420 . S
O145 C130 1.202 . S
O146 U126 2.455 . S
O146 C143 1.301 . S
O147 U126 2.449 . S
O147 C143 1.282 . S
H148 C121 0.931 . S
H149 C123 0.929 . S
H150 C124 0.930 . S
H151 C125 0.931 . S
H152 C132 0.932 . S
H153 C133 0.930 . S
H154 C134 0.929 . S
H155 C136 0.930 . S
H156 C138 0.932 . S
H157 C139 0.929 . S
H158 C140 0.928 . S
H159 C142 0.932 . S
C160 C161 1.264 . S
C160 C165 1.479 . S
C160 C170 1.465 . S
C161 C160 1.264 . S
C161 C163 1.339 . S
C161 H188 0.931 . S
C162 C163 1.395 . S
C162 C164 1.320 . S
C163 C161 1.339 . S
C163 C162 1.395 . S
C163 H189 0.929 . S
C164 C162 1.320 . S
C164 C165 1.405 . S
C164 H190 0.930 . S
C165 C160 1.479 . S
C165 C164 1.405 . S
C165 H191 0.931 . S
U166 O167 2.454 . S
U166 O168 2.458 . S
U166 C169 2.984 . S
U166 C170 2.847 . S
U166 C183 2.882 . S
U166 O184 2.441 . S
U166 O185 2.420 . S
U166 O186 2.455 . S
U166 O187 2.449 . S
O167 U166 2.454 . S
O167 C169 1.353 . S
O168 U166 2.458 . S
O168 C169 1.286 . S
C169 U166 2.984 . S
C169 O167 1.353 . S
C169 O168 1.286 . S
C169 C171 1.363 . S
C170 C160 1.465 . S
C170 U166 2.847 . S
C170 O184 1.249 . S
C170 O185 1.202 . S
C171 C169 1.363 . S
C171 C173 1.408 . S
C171 C176 1.342 . S
C172 C173 1.310 . S
C172 C175 1.461 . S
C172 H192 0.932 . S
C173 C171 1.408 . S
C173 C172 1.310 . S
C173 H193 0.930 . S
C174 C175 1.474 . S
C174 C176 1.285 . S
C174 H194 0.929 . S
C175 C172 1.461 . S
C175 C174 1.474 . S
C176 C171 1.342 . S
C176 C174 1.285 . S
C176 H195 0.930 . S
C177 C180 1.424 . S
C177 C182 1.245 . S
C177 C183 1.428 . S
C178 C181 1.260 . S
C178 C182 1.477 . S
C178 H196 0.932 . S
C179 C180 1.384 . S
C179 C181 1.479 . S
C179 H197 0.929 . S
C180 C177 1.424 . S
C180 C179 1.384 . S
C180 H198 0.928 . S
C181 C178 1.260 . S
C181 C179 1.479 . S
C182 C177 1.245 . S
C182 C178 1.477 . S
C182 H199 0.932 . S
C183 U166 2.882 . S
C183 C177 1.428 . S
C183 O186 1.301 . S
C183 O187 1.282 . S
O184 U166 2.441 . S
O184 C170 1.249 . S
O185 U166 2.420 . S
O185 C170 1.202 . S
O186 U166 2.455 . S
O186 C183 1.301 . S
O187 U166 2.449 . S
O187 C183 1.282 . S
H188 C161 0.931 . S
H189 C163 0.929 . S
H190 C164 0.930 . S
H191 C165 0.931 . S
H192 C172 0.932 . S
H193 C173 0.930 . S
H194 C174 0.929 . S
H195 C176 0.930 . S
H196 C178 0.932 . S
H197 C179 0.929 . S
H198 C180 0.928 . S
H199 C182 0.932 . S
C200 C201 1.264 . S
C200 C205 1.479 . S
C200 C210 1.465 . S
C201 C200 1.264 . S
C201 C203 1.339 . S
C201 H228 0.931 . S
C202 C203 1.395 . S
C202 C204 1.320 . S
C203 C201 1.339 . S
C203 C202 1.395 . S
C203 H229 0.929 . S
C204 C202 1.320 . S
C204 C205 1.405 . S
C204 H230 0.930 . S
C205 C200 1.479 . S
C205 C204 1.405 . S
C205 H231 0.931 . S
U206 O207 2.454 1_655 S
U206 O208 2.458 1_655 S
U206 C209 2.984 1_655 S
U206 C210 2.847 . S
U206 C223 2.882 . S
U206 O224 2.441 . S
U206 O225 2.420 . S
U206 O226 2.455 1_655 S
U206 O227 2.449 . S
O207 U206 2.454 1_455 S
O207 C209 1.353 . S
O208 U206 2.458 1_455 S
O208 C209 1.286 . S
C209 U206 2.984 1_455 S
C209 O207 1.353 . S
C209 O208 1.286 . S
C209 C211 1.363 . S
C210 C200 1.465 . S
C210 U206 2.847 . S
C210 O224 1.249 . S
C210 O225 1.202 . S
C211 C209 1.363 . S
C211 C213 1.408 . S
C211 C216 1.342 . S
C212 C213 1.310 . S
C212 C215 1.461 . S
C212 H232 0.932 . S
C213 C211 1.408 . S
C213 C212 1.310 . S
C213 H233 0.930 . S
C214 C215 1.474 . S
C214 C216 1.285 . S
C214 H234 0.929 . S
C215 C212 1.461 . S
C215 C214 1.474 . S
C216 C211 1.342 . S
C216 C214 1.285 . S
C216 H235 0.930 . S
C217 C220 1.424 . S
C217 C222 1.245 1_655 S
C217 C223 1.428 . S
C218 C221 1.259 1_556 S
C218 C222 1.477 . S
C218 H236 0.932 . S
C219 C220 1.384 . S
C219 C221 1.478 1_656 S
C219 H237 0.929 . S
C220 C217 1.424 . S
C220 C219 1.384 . S
C220 H238 0.928 . S
C221 C218 1.259 1_554 S
C221 C219 1.478 1_454 S
C222 C217 1.245 1_455 S
C222 C218 1.477 . S
C222 H239 0.932 . S
C223 U206 2.882 . S
C223 C217 1.428 . S
C223 O226 1.301 1_655 S
C223 O227 1.282 . S
O224 U206 2.441 . S
O224 C210 1.249 . S
O225 U206 2.420 . S
O225 C210 1.202 . S
O226 U206 2.455 1_455 S
O226 C223 1.301 1_455 S
O227 U206 2.449 . S
O227 C223 1.282 . S
H228 C201 0.931 . S
H229 C203 0.929 . S
H230 C204 0.930 . S
H231 C205 0.931 . S
H232 C212 0.932 . S
H233 C213 0.930 . S
H234 C214 0.929 . S
H235 C216 0.930 . S
H236 C218 0.932 . S
H237 C219 0.929 . S
H238 C220 0.928 . S
H239 C222 0.932 . S
C240 C241 1.264 . S
C240 C245 1.479 . S
C240 C250 1.465 . S
C241 C240 1.264 . S
C241 C243 1.339 . S
C241 H268 0.931 . S
C242 C243 1.395 . S
C242 C244 1.320 . S
C243 C241 1.339 . S
C243 C242 1.395 . S
C243 H269 0.929 . S
C244 C242 1.320 . S
C244 C245 1.405 . S
C244 H270 0.930 . S
C245 C240 1.479 . S
C245 C244 1.405 . S
C245 H271 0.931 . S
U246 O247 2.454 . S
U246 O248 2.458 . S
U246 C249 2.984 . S
U246 C250 2.847 1_455 S
U246 C263 2.882 . S
U246 O264 2.441 . S
U246 O265 2.420 1_455 S
U246 O266 2.455 . S
U246 O267 2.449 . S
O247 U246 2.454 . S
O247 C249 1.353 . S
O248 U246 2.458 . S
O248 C249 1.286 . S
C249 U246 2.984 . S
C249 O247 1.353 . S
C249 O248 1.286 . S
C249 C251 1.363 . S
C250 C240 1.465 . S
C250 U246 2.847 1_655 S
C250 O264 1.249 1_655 S
C250 O265 1.202 . S
C251 C249 1.363 . S
C251 C253 1.408 . S
C251 C256 1.342 . S
C252 C253 1.310 . S
C252 C255 1.461 . S
C252 H272 0.932 . S
C253 C251 1.408 . S
C253 C252 1.310 . S
C253 H273 0.930 . S
C254 C255 1.474 . S
C254 C256 1.285 . S
C254 H274 0.929 . S
C255 C252 1.461 . S
C255 C254 1.474 . S
C256 C251 1.342 . S
C256 C254 1.285 . S
C256 H275 0.930 . S
C257 C260 1.424 . S
C257 C262 1.245 . S
C257 C263 1.428 . S
C258 C261 1.260 . S
C258 C262 1.477 . S
C258 H276 0.932 . S
C259 C260 1.384 . S
C259 C261 1.479 . S
C259 H277 0.929 1_455 S
C260 C257 1.424 . S
C260 C259 1.384 . S
C260 H278 0.928 1_455 S
C261 C258 1.260 . S
C261 C259 1.479 . S
C262 C257 1.245 . S
C262 C258 1.477 . S
C262 H279 0.932 . S
C263 U246 2.882 . S
C263 C257 1.428 . S
C263 O266 1.301 . S
C263 O267 1.282 . S
O264 U246 2.441 . S
O264 C250 1.249 1_455 S
O265 U246 2.420 1_655 S
O265 C250 1.202 . S
O266 U246 2.455 . S
O266 C263 1.301 . S
O267 U246 2.449 . S
O267 C263 1.282 . S
H268 C241 0.931 . S
H269 C243 0.929 . S
H270 C244 0.930 . S
H271 C245 0.931 . S
H272 C252 0.932 . S
H273 C253 0.930 . S
H274 C254 0.929 . S
H275 C256 0.930 . S
H276 C258 0.932 . S
H277 C259 0.929 1_655 S
H278 C260 0.928 1_655 S
H279 C262 0.932 . S
C280 C281 1.264 . S
C280 C285 1.479 . S
C280 C290 1.465 . S
C281 C280 1.264 . S
C281 C283 1.339 . S
C281 H308 0.931 . S
C282 C283 1.395 . S
C282 C284 1.320 . S
C283 C281 1.339 . S
C283 C282 1.395 . S
C283 H309 0.929 . S
C284 C282 1.320 . S
C284 C285 1.405 . S
C284 H310 0.930 . S
C285 C280 1.479 . S
C285 C284 1.405 . S
C285 H311 0.931 . S
U286 O287 2.454 1_565 S
U286 O288 2.458 1_565 S
U286 C289 2.984 1_565 S
U286 C290 2.847 . S
U286 C303 2.882 . S
U286 O304 2.441 . S
U286 O305 2.420 . S
U286 O306 2.455 1_565 S
U286 O307 2.449 . S
O287 U286 2.454 1_545 S
O287 C289 1.353 . S
O288 U286 2.458 1_545 S
O288 C289 1.286 . S
C289 U286 2.984 1_545 S
C289 O287 1.353 . S
C289 O288 1.286 . S
C289 C291 1.363 . S
C290 C280 1.465 . S
C290 U286 2.847 . S
C290 O304 1.249 . S
C290 O305 1.202 . S
C291 C289 1.363 . S
C291 C293 1.408 . S
C291 C296 1.342 . S
C292 C293 1.310 . S
C292 C295 1.461 . S
C292 H312 0.932 . S
C293 C291 1.408 . S
C293 C292 1.310 . S
C293 H313 0.930 . S
C294 C295 1.474 . S
C294 C296 1.285 . S
C294 H314 0.929 . S
C295 C292 1.461 . S
C295 C294 1.474 . S
C296 C291 1.342 . S
C296 C294 1.285 . S
C296 H315 0.930 . S
C297 C300 1.424 . S
C297 C302 1.245 1_565 S
C297 C303 1.428 . S
C298 C301 1.260 . S
C298 C302 1.477 . S
C298 H316 0.932 . S
C299 C300 1.384 . S
C299 C301 1.479 1_565 S
C299 H317 0.929 . S
C300 C297 1.424 . S
C300 C299 1.384 . S
C300 H318 0.928 . S
C301 C298 1.260 . S
C301 C299 1.479 1_545 S
C302 C297 1.245 1_545 S
C302 C298 1.477 . S
C302 H319 0.932 . S
C303 U286 2.882 . S
C303 C297 1.428 . S
C303 O306 1.301 1_565 S
C303 O307 1.282 . S
O304 U286 2.441 . S
O304 C290 1.249 . S
O305 U286 2.420 . S
O305 C290 1.202 . S
O306 U286 2.455 1_545 S
O306 C303 1.301 1_545 S
O307 U286 2.449 . S
O307 C303 1.282 . S
H308 C281 0.931 . S
H309 C283 0.929 . S
H310 C284 0.930 . S
H311 C285 0.931 . S
H312 C292 0.932 . S
H313 C293 0.930 . S
H314 C294 0.929 . S
H315 C296 0.930 . S
H316 C298 0.932 . S
H317 C299 0.929 . S
H318 C300 0.928 . S
H319 C302 0.932 . S
C320 C321 1.264 . S
C320 C325 1.479 . S
C320 C330 1.465 . S
C321 C320 1.264 . S
C321 C323 1.339 . S
C321 H348 0.931 . S
C322 C323 1.395 . S
C322 C324 1.320 . S
C323 C321 1.339 . S
C323 C322 1.395 . S
C323 H349 0.929 . S
C324 C322 1.320 . S
C324 C325 1.405 . S
C324 H350 0.930 . S
C325 C320 1.479 . S
C325 C324 1.405 . S
C325 H351 0.931 . S
U326 O327 2.454 . S
U326 O328 2.458 . S
U326 C329 2.984 . S
U326 C330 2.847 . S
U326 C343 2.882 . S
U326 O344 2.441 . S
U326 O345 2.420 . S
U326 O346 2.455 . S
U326 O347 2.449 . S
O327 U326 2.454 . S
O327 C329 1.353 . S
O328 U326 2.458 . S
O328 C329 1.286 . S
C329 U326 2.984 . S
C329 O327 1.353 . S
C329 O328 1.286 . S
C329 C331 1.363 . S
C330 C320 1.465 . S
C330 U326 2.847 . S
C330 O344 1.249 . S
C330 O345 1.202 . S
C331 C329 1.363 . S
C331 C333 1.408 . S
C331 C336 1.342 . S
C332 C333 1.310 . S
C332 C335 1.461 . S
C332 H352 0.932 . S
C333 C331 1.408 . S
C333 C332 1.310 . S
C333 H353 0.930 . S
C334 C335 1.474 . S
C334 C336 1.285 . S
C334 H354 0.929 . S
C335 C332 1.461 . S
C335 C334 1.474 . S
C336 C331 1.342 . S
C336 C334 1.285 . S
C336 H355 0.930 . S
C337 C340 1.424 . S
C337 C342 1.245 . S
C337 C343 1.428 . S
C338 C341 1.260 . S
C338 C342 1.477 . S
C338 H356 0.932 . S
C339 C340 1.384 . S
C339 C341 1.479 . S
C339 H357 0.929 . S
C340 C337 1.424 . S
C340 C339 1.384 . S
C340 H358 0.928 . S
C341 C338 1.260 . S
C341 C339 1.479 . S
C342 C337 1.245 . S
C342 C338 1.477 . S
C342 H359 0.932 . S
C343 U326 2.882 . S
C343 C337 1.428 . S
C343 O346 1.301 . S
C343 O347 1.282 . S
O344 U326 2.441 . S
O344 C330 1.249 . S
O345 U326 2.420 . S
O345 C330 1.202 . S
O346 U326 2.455 . S
O346 C343 1.301 . S
O347 U326 2.449 . S
O347 C343 1.282 . S
H348 C321 0.931 . S
H349 C323 0.929 . S
H350 C324 0.930 . S
H351 C325 0.931 . S
H352 C332 0.932 . S
H353 C333 0.930 . S
H354 C334 0.929 . S
H355 C336 0.930 . S
H356 C338 0.932 . S
H357 C339 0.929 . S
H358 C340 0.928 . S
H359 C342 0.932 . S
H360 C368 0.950 . S
H361 C373 0.950 . S
H362 C370 0.950 . S
H363 C372 0.950 . S
H364 C374 0.950 . S
H365 C376 0.950 . S
H366 C378 0.950 . S
H367 C379 0.950 . S
C368 H360 0.950 . S
C368 C369 1.386 . S
C368 C370 1.391 . S
C369 C368 1.386 . S
C369 C373 1.393 . S
C370 H362 0.950 . S
C370 C368 1.391 . S
C370 C371 1.400 . S
C371 C370 1.400 . S
C371 C372 1.398 . S
C371 C377 1.491 . S
C372 H363 0.950 . S
C372 C371 1.398 . S
C372 C373 1.391 . S
C373 H361 0.950 . S
C373 C369 1.393 . S
C373 C372 1.391 . S
C374 H364 0.950 . S
C374 C375 1.386 . S
C374 C376 1.391 . S
C375 C374 1.386 . S
C375 C379 1.393 . S
C376 H365 0.950 . S
C376 C374 1.391 . S
C376 C377 1.400 . S
C377 C371 1.491 . S
C377 C376 1.400 . S
C377 C378 1.398 . S
C378 H366 0.950 . S
C378 C377 1.398 . S
C378 C379 1.391 . S
C379 H367 0.950 . S
C379 C375 1.393 . S
C379 C378 1.391 . S
H380 C388 0.950 . S
H381 C393 0.950 . S
H382 C390 0.950 . S
H383 C392 0.950 . S
H384 C394 0.950 . S
H385 C396 0.950 . S
H386 C398 0.950 . S
H387 C399 0.950 . S
C388 H380 0.950 . S
C388 C389 1.386 . S
C388 C390 1.391 . S
C389 C388 1.386 . S
C389 C393 1.393 . S
C390 H382 0.950 . S
C390 C388 1.391 . S
C390 C391 1.400 . S
C391 C390 1.400 . S
C391 C392 1.398 . S
C391 C397 1.491 . S
C392 H383 0.950 . S
C392 C391 1.398 . S
C392 C393 1.391 . S
C393 H381 0.950 . S
C393 C389 1.393 . S
C393 C392 1.391 . S
C394 H384 0.950 . S
C394 C395 1.386 . S
C394 C396 1.391 . S
C395 C394 1.386 . S
C395 C399 1.393 . S
C396 H385 0.950 . S
C396 C394 1.391 . S
C396 C397 1.400 . S
C397 C391 1.491 . S
C397 C396 1.400 . S
C397 C398 1.398 . S
C398 H386 0.950 . S
C398 C397 1.398 . S
C398 C399 1.391 . S
C399 H387 0.950 . S
C399 C395 1.393 . S
C399 C398 1.391 . S
H400 C408 0.950 . S
H401 C413 0.950 . S
H402 C410 0.950 . S
H403 C412 0.950 . S
H404 C414 0.950 . S
H405 C416 0.950 . S
H406 C418 0.950 . S
H407 C419 0.950 . S
C408 H400 0.950 . S
C408 C409 1.386 . S
C408 C410 1.391 . S
C409 C408 1.386 . S
C409 C413 1.393 . S
C410 H402 0.950 . S
C410 C408 1.391 . S
C410 C411 1.400 . S
C411 C410 1.400 . S
C411 C412 1.398 . S
C411 C417 1.491 . S
C412 H403 0.950 . S
C412 C411 1.398 . S
C412 C413 1.391 . S
C413 H401 0.950 . S
C413 C409 1.393 . S
C413 C412 1.391 . S
C414 H404 0.950 . S
C414 C415 1.386 . S
C414 C416 1.391 . S
C415 C414 1.386 . S
C415 C419 1.393 . S
C416 H405 0.950 . S
C416 C414 1.391 . S
C416 C417 1.400 . S
C417 C411 1.491 . S
C417 C416 1.400 . S
C417 C418 1.398 . S
C418 H406 0.950 . S
C418 C417 1.398 . S
C418 C419 1.391 . S
C419 H407 0.950 . S
C419 C415 1.393 . S
C419 C418 1.391 . S
H420 C428 0.950 . S
H421 C433 0.950 . S
H422 C430 0.950 . S
H423 C432 0.950 . S
H424 C434 0.950 . S
H425 C436 0.950 . S
H426 C438 0.950 . S
H427 C439 0.950 . S
C428 H420 0.950 . S
C428 C429 1.386 . S
C428 C430 1.391 . S
C429 C428 1.386 . S
C429 C433 1.393 . S
C430 H422 0.950 . S
C430 C428 1.391 . S
C430 C431 1.400 . S
C431 C430 1.400 . S
C431 C432 1.398 . S
C431 C437 1.491 . S
C432 H423 0.950 . S
C432 C431 1.398 . S
C432 C433 1.391 . S
C433 H421 0.950 . S
C433 C429 1.393 . S
C433 C432 1.391 . S
C434 H424 0.950 . S
C434 C435 1.386 . S
C434 C436 1.391 . S
C435 C434 1.386 . S
C435 C439 1.393 . S
C436 H425 0.950 . S
C436 C434 1.391 . S
C436 C437 1.400 . S
C437 C431 1.491 . S
C437 C436 1.400 . S
C437 C438 1.398 . S
C438 H426 0.950 . S
C438 C437 1.398 . S
C438 C439 1.391 . S
C439 H427 0.950 . S
C439 C435 1.393 . S
C439 C438 1.391 . S
H440 C448 0.950 . S
H441 C453 0.950 . S
H442 C450 0.950 . S
H443 C452 0.950 . S
H444 C454 0.950 . S
H445 C456 0.950 . S
H446 C458 0.950 . S
H447 C459 0.950 . S
C448 H440 0.950 . S
C448 C449 1.386 . S
C448 C450 1.391 . S
C449 C448 1.386 . S
C449 C453 1.393 . S
C450 H442 0.950 . S
C450 C448 1.391 . S
C450 C451 1.400 . S
C451 C450 1.400 . S
C451 C452 1.398 . S
C451 C457 1.491 . S
C452 H443 0.950 . S
C452 C451 1.398 . S
C452 C453 1.391 . S
C453 H441 0.950 . S
C453 C449 1.393 . S
C453 C452 1.391 . S
C454 H444 0.950 . S
C454 C455 1.386 . S
C454 C456 1.391 . S
C455 C454 1.386 . S
C455 C459 1.393 . S
C456 H445 0.950 . S
C456 C454 1.391 . S
C456 C457 1.400 . S
C457 C451 1.491 . S
C457 C456 1.400 . S
C457 C458 1.398 . S
C458 H446 0.950 . S
C458 C457 1.398 . S
C458 C459 1.391 . S
C459 H447 0.950 . S
C459 C455 1.393 . S
C459 C458 1.391 . S
H460 C468 0.950 . S
H461 C473 0.950 . S
H462 C470 0.950 . S
H463 C472 0.950 . S
H464 C474 0.950 . S
H465 C476 0.950 . S
H466 C478 0.950 . S
H467 C479 0.950 . S
C468 H460 0.950 . S
C468 C469 1.386 . S
C468 C470 1.391 . S
C469 C468 1.386 . S
C469 C473 1.393 . S
C470 H462 0.950 . S
C470 C468 1.391 . S
C470 C471 1.400 . S
C471 C470 1.400 . S
C471 C472 1.398 . S
C471 C477 1.491 . S
C472 H463 0.950 . S
C472 C471 1.398 . S
C472 C473 1.391 . S
C473 H461 0.950 . S
C473 C469 1.393 . S
C473 C472 1.391 . S
C474 H464 0.950 . S
C474 C475 1.386 . S
C474 C476 1.391 . S
C475 C474 1.386 . S
C475 C479 1.393 . S
C476 H465 0.950 . S
C476 C474 1.391 . S
C476 C477 1.400 . S
C477 C471 1.491 . S
C477 C476 1.400 . S
C477 C478 1.398 . S
C478 H466 0.950 . S
C478 C477 1.398 . S
C478 C479 1.391 . S
C479 H467 0.950 . S
C479 C475 1.393 . S
C479 C478 1.391 . S
H480 C488 0.950 . S
H481 C493 0.950 . S
H482 C490 0.950 . S
H483 C492 0.950 . S
H484 C494 0.950 . S
H485 C496 0.950 . S
H486 C498 0.950 . S
H487 C499 0.950 . S
C488 H480 0.950 . S
C488 C489 1.386 . S
C488 C490 1.391 . S
C489 C488 1.386 . S
C489 C493 1.393 . S
C490 H482 0.950 . S
C490 C488 1.391 . S
C490 C491 1.400 . S
C491 C490 1.400 . S
C491 C492 1.398 . S
C491 C497 1.491 . S
C492 H483 0.950 . S
C492 C491 1.398 . S
C492 C493 1.391 . S
C493 H481 0.950 . S
C493 C489 1.393 . S
C493 C492 1.391 . S
C494 H484 0.950 . S
C494 C495 1.386 . S
C494 C496 1.391 . S
C495 C494 1.386 . S
C495 C499 1.393 . S
C496 H485 0.950 . S
C496 C494 1.391 . S
C496 C497 1.400 . S
C497 C491 1.491 . S
C497 C496 1.400 . S
C497 C498 1.398 . S
C498 H486 0.950 . S
C498 C497 1.398 . S
C498 C499 1.391 . S
C499 H487 0.950 . S
C499 C495 1.393 . S
C499 C498 1.391 . S
H500 C508 0.950 . S
H501 C513 0.950 . S
H502 C510 0.950 . S
H503 C512 0.950 . S
H504 C514 0.950 . S
H505 C516 0.950 . S
H506 C518 0.950 . S
H507 C519 0.950 . S
C508 H500 0.950 . S
C508 C509 1.386 . S
C508 C510 1.391 . S
C509 C508 1.386 . S
C509 C513 1.393 . S
C510 H502 0.950 . S
C510 C508 1.391 . S
C510 C511 1.400 . S
C511 C510 1.400 . S
C511 C512 1.398 . S
C511 C517 1.491 . S
C512 H503 0.950 . S
C512 C511 1.398 . S
C512 C513 1.391 . S
C513 H501 0.950 . S
C513 C509 1.393 . S
C513 C512 1.391 . S
C514 H504 0.950 . S
C514 C515 1.386 . S
C514 C516 1.391 . S
C515 C514 1.386 . S
C515 C519 1.393 . S
C516 H505 0.950 . S
C516 C514 1.391 . S
C516 C517 1.400 . S
C517 C511 1.491 . S
C517 C516 1.400 . S
C517 C518 1.398 . S
C518 H506 0.950 . S
C518 C517 1.398 . S
C518 C519 1.391 . S
C519 H507 0.950 . S
C519 C515 1.393 . S
C519 C518 1.391 . S
H520 C528 0.950 . S
H521 C533 0.950 . S
H522 C530 0.950 . S
H523 C532 0.950 . S
H524 C534 0.950 . S
H525 C536 0.950 . S
H526 C538 0.950 . S
H527 C539 0.950 . S
C528 H520 0.950 . S
C528 C529 1.386 . S
C528 C530 1.391 . S
C529 C528 1.386 . S
C529 C533 1.393 . S
C530 H522 0.950 . S
C530 C528 1.391 . S
C530 C531 1.400 . S
C531 C530 1.400 . S
C531 C532 1.398 . S
C531 C537 1.491 . S
C532 H523 0.950 . S
C532 C531 1.398 . S
C532 C533 1.391 . S
C533 H521 0.950 . S
C533 C529 1.393 . S
C533 C532 1.391 . S
C534 H524 0.950 . S
C534 C535 1.386 . S
C534 C536 1.391 . S
C535 C534 1.386 . S
C535 C539 1.393 . S
C536 H525 0.950 . S
C536 C534 1.391 . S
C536 C537 1.400 . S
C537 C531 1.491 . S
C537 C536 1.400 . S
C537 C538 1.398 . S
C538 H526 0.950 . S
C538 C537 1.398 . S
C538 C539 1.391 . S
C539 H527 0.950 . S
C539 C535 1.393 . S
C539 C538 1.391 . S
H540 C548 0.950 . S
H541 C553 0.950 . S
H542 C550 0.950 . S
H543 C552 0.950 . S
H544 C554 0.950 . S
H545 C556 0.950 . S
H546 C558 0.950 . S
H547 C559 0.950 . S
C548 H540 0.950 . S
C548 C549 1.386 . S
C548 C550 1.391 . S
C549 C548 1.386 . S
C549 C553 1.393 . S
C550 H542 0.950 . S
C550 C548 1.391 . S
C550 C551 1.400 . S
C551 C550 1.400 . S
C551 C552 1.398 . S
C551 C557 1.491 . S
C552 H543 0.950 . S
C552 C551 1.398 . S
C552 C553 1.391 . S
C553 H541 0.950 . S
C553 C549 1.393 . S
C553 C552 1.391 . S
C554 H544 0.950 . S
C554 C555 1.386 . S
C554 C556 1.391 . S
C555 C554 1.386 . S
C555 C559 1.393 . S
C556 H545 0.950 . S
C556 C554 1.391 . S
C556 C557 1.400 . S
C557 C551 1.491 . S
C557 C556 1.400 . S
C557 C558 1.398 . S
C558 H546 0.950 . S
C558 C557 1.398 . S
C558 C559 1.391 . S
C559 H547 0.950 . S
C559 C555 1.393 . S
C559 C558 1.391 . S
H560 C568 0.950 . S
H561 C573 0.950 . S
H562 C570 0.950 . S
H563 C572 0.950 . S
H564 C574 0.950 . S
H565 C576 0.950 . S
H566 C578 0.950 . S
H567 C579 0.950 . S
C568 H560 0.950 . S
C568 C569 1.386 . S
C568 C570 1.391 . S
C569 C568 1.386 . S
C569 C573 1.393 . S
C570 H562 0.950 . S
C570 C568 1.391 . S
C570 C571 1.400 . S
C571 C570 1.400 . S
C571 C572 1.398 . S
C571 C577 1.491 . S
C572 H563 0.950 . S
C572 C571 1.398 . S
C572 C573 1.391 . S
C573 H561 0.950 . S
C573 C569 1.393 . S
C573 C572 1.391 . S
C574 H564 0.950 . S
C574 C575 1.386 . S
C574 C576 1.391 . S
C575 C574 1.386 . S
C575 C579 1.393 . S
C576 H565 0.950 . S
C576 C574 1.391 . S
C576 C577 1.400 . S
C577 C571 1.491 . S
C577 C576 1.400 . S
C577 C578 1.398 . S
C578 H566 0.950 . S
C578 C577 1.398 . S
C578 C579 1.391 . S
C579 H567 0.950 . S
C579 C575 1.393 . S
C579 C578 1.391 . S
H580 C588 0.950 . S
H581 C593 0.950 . S
H582 C590 0.950 . S
H583 C592 0.950 . S
H584 C594 0.950 . S
H585 C596 0.950 . S
H586 C598 0.950 . S
H587 C599 0.950 . S
C588 H580 0.950 . S
C588 C589 1.386 . S
C588 C590 1.391 . S
C589 C588 1.386 . S
C589 C593 1.393 . S
C590 H582 0.950 . S
C590 C588 1.391 . S
C590 C591 1.400 . S
C591 C590 1.400 . S
C591 C592 1.398 . S
C591 C597 1.491 . S
C592 H583 0.950 . S
C592 C591 1.398 . S
C592 C593 1.391 . S
C593 H581 0.950 . S
C593 C589 1.393 . S
C593 C592 1.391 . S
C594 H584 0.950 . S
C594 C595 1.386 . S
C594 C596 1.391 . S
C595 C594 1.386 . S
C595 C599 1.393 . S
C596 H585 0.950 . S
C596 C594 1.391 . S
C596 C597 1.400 . S
C597 C591 1.491 . S
C597 C596 1.400 . S
C597 C598 1.398 . S
C598 H586 0.950 . S
C598 C597 1.398 . S
C598 C599 1.391 . S
C599 H587 0.950 . S
C599 C595 1.393 . S
C599 C598 1.391 . S
H600 C608 0.950 . S
H601 C613 0.936 1_655 S
H602 C610 0.950 . S
H603 C612 0.950 1_655 S
H604 C614 0.940 1_655 S
H605 C616 0.950 1_655 S
H606 C618 0.950 . S
H607 C619 0.950 . S
C608 H600 0.950 . S
C608 C609 1.386 . S
C608 C610 1.391 . S
C609 C608 1.386 . S
C609 C613 1.393 . S
C610 H602 0.950 . S
C610 C608 1.391 . S
C610 C611 1.400 . S
C611 C610 1.400 . S
C611 C612 1.398 . S
C611 C617 1.491 . S
C612 H603 0.950 1_455 S
C612 C611 1.398 . S
C612 C613 1.391 . S
C613 H601 0.936 1_455 S
C613 C609 1.393 . S
C613 C612 1.391 . S
C614 H604 0.940 1_455 S
C614 C615 1.395 . S
C614 C616 1.391 . S
C615 C614 1.395 . S
C615 C619 1.393 . S
C616 H605 0.950 1_455 S
C616 C614 1.391 . S
C616 C617 1.400 . S
C617 C611 1.491 . S
C617 C616 1.400 . S
C617 C618 1.398 . S
C618 H606 0.950 . S
C618 C617 1.398 . S
C618 C619 1.391 . S
C619 H607 0.950 . S
C619 C615 1.393 . S
C619 C618 1.391 . S
H620 C628 0.950 . S
H621 C633 0.950 . S
H622 C630 0.950 . S
H623 C632 0.950 . S
H624 C634 0.950 . S
H625 C636 0.950 . S
H626 C638 0.950 . S
H627 C639 0.950 . S
C628 H620 0.950 . S
C628 C629 1.386 . S
C628 C630 1.391 . S
C629 C628 1.386 . S
C629 C633 1.393 . S
C630 H622 0.950 . S
C630 C628 1.391 . S
C630 C631 1.400 . S
C631 C630 1.400 . S
C631 C632 1.398 . S
C631 C637 1.491 . S
C632 H623 0.950 . S
C632 C631 1.398 . S
C632 C633 1.391 . S
C633 H621 0.950 . S
C633 C629 1.393 . S
C633 C632 1.391 . S
C634 H624 0.950 . S
C634 C635 1.386 . S
C634 C636 1.391 . S
C635 C634 1.386 . S
C635 C639 1.393 . S
C636 H625 0.950 . S
C636 C634 1.391 . S
C636 C637 1.400 . S
C637 C631 1.491 . S
C637 C636 1.400 . S
C637 C638 1.398 . S
C638 H626 0.950 . S
C638 C637 1.398 . S
C638 C639 1.391 . S
C639 H627 0.950 . S
C639 C635 1.393 . S
C639 C638 1.391 . S
H640 C648 0.950 . S
H641 C653 0.950 . S
H642 C650 0.950 . S
H643 C652 0.950 . S
H644 C654 0.950 . S
H645 C656 0.950 . S
H646 C658 0.950 . S
H647 C659 0.950 . S
C648 H640 0.950 . S
C648 C649 1.386 . S
C648 C650 1.391 . S
C649 C648 1.386 . S
C649 C653 1.393 . S
C650 H642 0.950 . S
C650 C648 1.391 . S
C650 C651 1.400 . S
C651 C650 1.400 . S
C651 C652 1.398 . S
C651 C657 1.491 . S
C652 H643 0.950 . S
C652 C651 1.398 . S
C652 C653 1.391 . S
C653 H641 0.950 . S
C653 C649 1.393 . S
C653 C652 1.391 . S
C654 H644 0.950 . S
C654 C655 1.386 . S
C654 C656 1.391 . S
C655 C654 1.386 . S
C655 C659 1.393 . S
C656 H645 0.950 . S
C656 C654 1.391 . S
C656 C657 1.400 . S
C657 C651 1.491 . S
C657 C656 1.400 . S
C657 C658 1.398 . S
C658 H646 0.950 . S
C658 C657 1.398 . S
C658 C659 1.391 . S
C659 H647 0.950 . S
C659 C655 1.393 . S
C659 C658 1.391 . S
H660 C668 0.950 . S
H661 C673 0.950 . S
H662 C670 0.950 . S
H663 C672 0.950 . S
H664 C674 0.950 . S
H665 C676 0.950 . S
H666 C678 0.950 . S
H667 C679 0.950 . S
C668 H660 0.950 . S
C668 C669 1.386 . S
C668 C670 1.391 . S
C669 C668 1.386 . S
C669 C673 1.393 1_545 S
C670 H662 0.950 . S
C670 C668 1.391 . S
C670 C671 1.400 . S
C671 C670 1.400 . S
C671 C672 1.398 1_545 S
C671 C677 1.491 . S
C672 H663 0.950 . S
C672 C671 1.398 1_565 S
C672 C673 1.391 . S
C673 H661 0.950 . S
C673 C669 1.393 1_565 S
C673 C672 1.391 . S
C674 H664 0.950 . S
C674 C675 1.386 1_565 S
C674 C676 1.391 . S
C675 C674 1.386 1_545 S
C675 C679 1.393 . S
C676 H665 0.950 . S
C676 C674 1.391 . S
C676 C677 1.400 1_565 S
C677 C671 1.491 . S
C677 C676 1.400 1_545 S
C677 C678 1.398 . S
C678 H666 0.950 . S
C678 C677 1.398 . S
C678 C679 1.391 . S
C679 H667 0.950 . S
C679 C675 1.393 . S
C679 C678 1.391 . S
H680 C688 0.950 . S
H681 C693 0.950 . S
H682 C690 0.950 . S
H683 C692 0.950 . S
H684 C694 0.950 . S
H685 C696 0.950 . S
H686 C698 0.950 . S
H687 C699 0.950 . S
C688 H680 0.950 . S
C688 C689 1.386 . S
C688 C690 1.391 . S
C689 C688 1.386 . S
C689 C693 1.393 . S
C690 H682 0.950 . S
C690 C688 1.391 . S
C690 C691 1.400 . S
C691 C690 1.400 . S
C691 C692 1.398 . S
C691 C697 1.491 . S
C692 H683 0.950 . S
C692 C691 1.398 . S
C692 C693 1.391 . S
C693 H681 0.950 . S
C693 C689 1.393 . S
C693 C692 1.391 . S
C694 H684 0.950 . S
C694 C695 1.386 . S
C694 C696 1.391 . S
C695 C694 1.386 . S
C695 C699 1.393 . S
C696 H685 0.950 . S
C696 C694 1.391 . S
C696 C697 1.400 . S
C697 C691 1.491 . S
C697 C696 1.400 . S
C697 C698 1.398 . S
C698 H686 0.950 . S
C698 C697 1.398 . S
C698 C699 1.391 . S
C699 H687 0.950 . S
C699 C695 1.393 . S
C699 C698 1.391 . S
H700 C708 0.950 . S
H701 C713 0.950 . S
H702 C710 0.950 . S
H703 C712 0.950 . S
H704 C714 0.950 . S
H705 C716 0.950 . S
H706 C718 0.950 . S
H707 C719 0.950 . S
C708 H700 0.950 . S
C708 C709 1.386 . S
C708 C710 1.391 . S
C709 C708 1.386 . S
C709 C713 1.393 . S
C710 H702 0.950 . S
C710 C708 1.391 . S
C710 C711 1.400 . S
C711 C710 1.400 . S
C711 C712 1.398 . S
C711 C717 1.491 . S
C712 H703 0.950 . S
C712 C711 1.398 . S
C712 C713 1.391 . S
C713 H701 0.950 . S
C713 C709 1.393 . S
C713 C712 1.391 . S
C714 H704 0.950 . S
C714 C715 1.386 . S
C714 C716 1.391 . S
C715 C714 1.386 . S
C715 C719 1.393 . S
C716 H705 0.950 . S
C716 C714 1.391 . S
C716 C717 1.400 . S
C717 C711 1.491 . S
C717 C716 1.400 . S
C717 C718 1.398 . S
C718 H706 0.950 . S
C718 C717 1.398 . S
C718 C719 1.391 . S
C719 H707 0.950 . S
C719 C715 1.393 . S
C719 C718 1.391 . S
C369 C10 3.088 . S
C375 C335 3.029 . S
C389 C59 3.146 . S
C395 C242 3.111 . S
C409 C90 3.067 . S
C415 C282 3.037 . S
C429 C19 3.148 . S
C435 C322 3.113 . S
C455 C255 3.042 . S
C449 C50 3.085 . S
C475 C295 3.103 . S
C469 C99 3.163 . S
C489 C46 0.399 . S
C495 C162 0.407 . S
C509 C95 0.295 . S
C515 C202 0.280 . S
C529 C6 0.451 . S
C535 C135 0.471 . S
C555 C175 0.337 . S
C549 C55 0.314 . S
C575 C215 0.452 . S
C569 C86 0.477 . S
C589 C15 0.359 . S
C595 C122 0.261 . S
C615 C221 1.103 . S
C609 C9 1.087 . S
C629 C49 1.091 . S
C635 C141 1.103 . S
C649 C89 1.086 . S
C655 C181 1.072 . S
C675 C301 1.779 . S
C669 C58 1.693 . S
C695 C341 1.763 1_556 S
C689 C98 1.698 . S
C709 C18 1.705 . S
C715 C261 1.767 . S
